# Generated by pormake.
# Topology snk, (6)-cn, num edge types: 1
# Building blocks:
#     Node 0, Type 0, BuildingBlock: BETGAK_clean_sbu_0, # of connection points: 6
#     Node 1, Type 0, BuildingBlock: BETGAK_clean_sbu_0, # of connection points: 6
#     Node 2, Type 0, BuildingBlock: BETGAK_clean_sbu_0, # of connection points: 6
#     Node 3, Type 0, BuildingBlock: BETGAK_clean_sbu_0, # of connection points: 6
#     Node 4, Type 0, BuildingBlock: BETGAK_clean_sbu_0, # of connection points: 6
#     Node 5, Type 0, BuildingBlock: BETGAK_clean_sbu_0, # of connection points: 6
#     Node 6, Type 0, BuildingBlock: BETGAK_clean_sbu_0, # of connection points: 6
#     Node 7, Type 0, BuildingBlock: BETGAK_clean_sbu_0, # of connection points: 6
#     Edge 8, Type (0, 0), BuildingBlock: EZIPEK_clean_linker_0, # of connection points: 2
#     Edge 9, Type (0, 0), BuildingBlock: EZIPEK_clean_linker_0, # of connection points: 2
#     Edge 10, Type (0, 0), BuildingBlock: EZIPEK_clean_linker_0, # of connection points: 2
#     Edge 11, Type (0, 0), BuildingBlock: EZIPEK_clean_linker_0, # of connection points: 2
#     Edge 12, Type (0, 0), BuildingBlock: EZIPEK_clean_linker_0, # of connection points: 2
#     Edge 13, Type (0, 0), BuildingBlock: EZIPEK_clean_linker_0, # of connection points: 2
#     Edge 14, Type (0, 0), BuildingBlock: EZIPEK_clean_linker_0, # of connection points: 2
#     Edge 15, Type (0, 0), BuildingBlock: EZIPEK_clean_linker_0, # of connection points: 2
#     Edge 16, Type (0, 0), BuildingBlock: EZIPEK_clean_linker_0, # of connection points: 2
#     Edge 17, Type (0, 0), BuildingBlock: EZIPEK_clean_linker_0, # of connection points: 2
#     Edge 18, Type (0, 0), BuildingBlock: EZIPEK_clean_linker_0, # of connection points: 2
#     Edge 19, Type (0, 0), BuildingBlock: EZIPEK_clean_linker_0, # of connection points: 2
#     Edge 20, Type (0, 0), BuildingBlock: EZIPEK_clean_linker_0, # of connection points: 2
#     Edge 21, Type (0, 0), BuildingBlock: EZIPEK_clean_linker_0, # of connection points: 2
#     Edge 22, Type (0, 0), BuildingBlock: EZIPEK_clean_linker_0, # of connection points: 2
#     Edge 23, Type (0, 0), BuildingBlock: EZIPEK_clean_linker_0, # of connection points: 2
#     Edge 24, Type (0, 0), BuildingBlock: EZIPEK_clean_linker_0, # of connection points: 2
#     Edge 25, Type (0, 0), BuildingBlock: EZIPEK_clean_linker_0, # of connection points: 2
#     Edge 26, Type (0, 0), BuildingBlock: EZIPEK_clean_linker_0, # of connection points: 2
#     Edge 27, Type (0, 0), BuildingBlock: EZIPEK_clean_linker_0, # of connection points: 2
#     Edge 28, Type (0, 0), BuildingBlock: EZIPEK_clean_linker_0, # of connection points: 2
#     Edge 29, Type (0, 0), BuildingBlock: EZIPEK_clean_linker_0, # of connection points: 2
#     Edge 30, Type (0, 0), BuildingBlock: EZIPEK_clean_linker_0, # of connection points: 2
#     Edge 31, Type (0, 0), BuildingBlock: EZIPEK_clean_linker_0, # of connection points: 2
# Relax obj value: 0.123
# Max RMSD: 0.193
# Mean RMSD: 0.151
data_MOF--net-snk--node1-BETGAK_clean_sbu_0--edge1-EZIPEK_clean_linker_0
_symmetry_space_group_name_H-M    P1
_symmetry_Int_Tables_number       1
_symmetry_cell_setting            triclinic
loop_
_symmetry_equiv_pos_as_xyz
'x, y, z'
_cell_length_a     26.622336
_cell_length_b     26.542527
_cell_length_c     20.767616
_cell_angle_alpha  83.713803
_cell_angle_beta   96.413381
_cell_angle_gamma 89.347663
loop_
_atom_site_label
_atom_site_type_symbol
_atom_site_fract_x
_atom_site_fract_y
_atom_site_fract_z
_atom_type_partial_charge
La0 La 0.99051 0.98235 0.47806 0.0
La1 La 0.03482 0.03463 0.59603 0.0
C2 C 0.94843 0.97214 0.36573 0.0
C3 C 0.96271 0.98033 0.29868 0.0
C4 C 1.00233 0.95199 0.27937 0.0
C5 C 0.01468 0.95974 0.21544 0.0
C6 C 0.9878 0.99599 0.16995 0.0
C7 C 0.94855 0.02463 0.18902 0.0
C8 C 0.93602 0.01677 0.25292 0.0
C9 C 0.05662 0.92686 0.55964 0.0
C10 C 0.08416 0.05686 0.46478 0.0
C11 C 0.07689 0.04544 0.70825 0.0
C12 C 0.06296 0.03775 0.77556 0.0
C13 C 0.02522 0.06806 0.79576 0.0
C14 C 0.01326 0.06082 0.85989 0.0
C15 C 0.03871 0.0232 0.90476 0.0
C16 C 0.07619 0.99274 0.8849 0.0
C17 C 0.08832 1.00005 0.82079 0.0
C18 C 0.9686 0.08983 0.51421 0.0
C19 C 0.94044 0.96055 0.60864 0.0
O20 O 0.97183 0.93507 0.40496 0.0
O21 O 0.94316 0.01293 0.39488 0.0
O22 O 0.02227 0.9085 0.51981 0.0
O23 O 0.05744 0.97453 0.54518 0.0
O24 O 0.05181 0.02536 0.43819 0.0
O25 O 0.08713 0.06376 0.52749 0.0
O26 O 0.05333 0.08226 0.66878 0.0
O27 O 0.08213 1.00445 0.67948 0.0
O28 O 1.00307 0.10848 0.5536 0.0
O29 O 0.96797 0.04226 0.52921 0.0
O30 O 0.97303 0.9917 0.63571 0.0
O31 O 0.93802 0.95352 0.54606 0.0
H32 H 0.02374 0.9237 0.31343 0.0
H33 H 0.04508 0.93738 0.20131 0.0
H34 H 0.92751 0.05278 0.15433 0.0
H35 H 0.90537 0.03907 0.2666 0.0
H36 H 1.00497 0.09747 0.76223 0.0
H37 H 0.98421 0.08459 0.87465 0.0
H38 H 0.09612 0.96352 0.91911 0.0
H39 H 0.11763 0.97631 0.80653 0.0
La40 La 0.23099 0.73606 0.85781 0.0
La41 La 0.28684 0.77443 0.7409 0.0
C42 C 0.21522 0.69633 0.96931 0.0
C43 C 0.22635 0.70805 1.03738 0.0
C44 C 0.18678 0.72404 0.07042 0.0
C45 C 0.1963 0.73565 0.13454 0.0
C46 C 0.24549 0.73108 0.16687 0.0
C47 C 0.28513 0.71457 0.13458 0.0
C48 C 0.27565 0.70298 0.0703 0.0
C49 C 0.17851 0.80166 0.77196 0.0
C50 C 0.31164 0.82512 0.87047 0.0
C51 C 0.30659 0.81337 0.63065 0.0
C52 C 0.29597 0.80344 0.56204 0.0
C53 C 0.33652 0.80028 0.52475 0.0
C54 C 0.32804 0.78925 0.46026 0.0
C55 C 0.27886 0.78114 0.43222 0.0
C56 C 0.2381 0.78482 0.46897 0.0
C57 C 0.24656 0.79614 0.53345 0.0
C58 C 0.33688 0.70718 0.82751 0.0
C59 C 0.20686 0.68516 0.72792 0.0
O60 O 0.18294 0.72705 0.93143 0.0
O61 O 0.25348 0.68354 0.93934 0.0
O62 O 0.15899 0.76906 0.81272 0.0
O63 O 0.22611 0.80156 0.78754 0.0
O64 O 0.27893 0.79461 0.89768 0.0
O65 O 0.3184 0.8265 0.80803 0.0
O66 O 0.33587 0.7797 0.66826 0.0
O67 O 0.26867 0.82845 0.65963 0.0
O68 O 0.35821 0.74068 0.78988 0.0
O69 O 0.2899 0.70857 0.80954 0.0
O70 O 0.23811 0.71707 0.70005 0.0
O71 O 0.20073 0.68302 0.79074 0.0
H72 H 0.14839 0.72768 0.04653 0.0
H73 H 0.16532 0.74815 0.15905 0.0
H74 H 0.3233 0.71074 0.15914 0.0
H75 H 0.30691 0.69015 0.04657 0.0
H76 H 0.37488 0.80596 0.54576 0.0
H77 H 0.35983 0.78659 0.43236 0.0
H78 H 0.19988 0.77882 0.44776 0.0
H79 H 0.21459 0.799 0.56083 0.0
La80 La 0.52485 0.98132 0.09748 0.0
La81 La 0.50216 0.04281 0.96488 0.0
C82 C 0.56061 0.94807 0.21218 0.0
C83 C 0.55273 0.96262 0.27766 0.0
C84 C 0.5405 0.92554 0.32677 0.0
C85 C 0.53144 0.93882 0.38814 0.0
C86 C 0.53481 0.98946 0.40193 0.0
C87 C 0.54734 0.02656 0.353 0.0
C88 C 0.55589 0.01335 0.29144 0.0
C89 C 0.44624 0.95062 1.02334 0.0
C90 C 0.44262 0.06828 0.08299 0.0
C91 C 0.4703 0.08044 0.85008 0.0
C92 C 0.47926 0.06832 0.7836 0.0
C93 C 0.52172 0.08665 0.75425 0.0
C94 C 0.53029 0.07448 0.69223 0.0
C95 C 0.49666 0.04374 0.65799 0.0
C96 C 0.45397 0.02583 0.68671 0.0
C97 C 0.44524 0.03814 0.74862 0.0
C98 C 0.57742 0.07476 0.04559 0.0
C99 C 0.58082 0.95365 0.97634 0.0
O100 O 0.52195 0.92826 0.18017 0.0
O101 O 0.58379 0.98049 0.174 0.0
O102 O 0.45097 0.94681 0.08642 0.0
O103 O 0.48712 0.96695 1.00412 0.0
O104 O 0.47685 0.04064 0.12316 0.0
O105 O 0.44252 0.07135 1.01861 0.0
O106 O 0.50823 0.09832 0.88569 0.0
O107 O 0.44565 0.04722 0.8849 0.0
O108 O 0.57635 0.07917 0.98271 0.0
O109 O 0.53626 0.05651 0.05911 0.0
O110 O 0.54771 0.98289 0.93698 0.0
O111 O 0.58165 0.95016 0.04098 0.0
H112 H 0.53759 0.88624 0.31749 0.0
H113 H 0.52179 0.90955 0.42499 0.0
H114 H 0.55013 0.06584 0.36237 0.0
H115 H 0.5647 0.04287 0.25449 0.0
H116 H 0.54858 0.11027 0.77927 0.0
H117 H 0.5634 0.08885 0.67103 0.0
H118 H 0.42743 1.00218 0.66118 0.0
H119 H 0.41194 0.02372 0.7693 0.0
La120 La 0.23658 0.26883 0.23311 0.0
La121 La 0.30514 0.23979 0.35759 0.0
C122 C 0.21024 0.30005 0.11476 0.0
C123 C 0.22569 0.28894 0.05083 0.0
C124 C 0.201 0.25169 1.01644 0.0
C125 C 0.21439 0.2422 0.95545 0.0
C126 C 0.25246 0.26998 0.92716 0.0
C127 C 0.27739 0.30703 0.96131 0.0
C128 C 0.26412 0.31648 1.02244 0.0
C129 C 0.20011 0.19707 0.31158 0.0
C130 C 0.3261 0.18752 0.23412 0.0
C131 C 0.33657 0.21079 0.4759 0.0
C132 C 0.32371 0.22013 0.54137 0.0
C133 C 0.31372 0.26928 0.55693 0.0
C134 C 0.30238 0.2769 0.61959 0.0
C135 C 0.30049 0.23556 0.66776 0.0
C136 C 0.3098 0.18644 0.65189 0.0
C137 C 0.32148 0.17886 0.58943 0.0
C138 C 0.343 0.30744 0.27528 0.0
C139 C 0.21059 0.31817 0.35452 0.0
O140 O 0.18721 0.26418 0.14775 0.0
O141 O 0.24295 0.32305 0.15283 0.0
O142 O 0.17345 0.23301 0.27512 0.0
O143 O 0.24637 0.20185 0.30244 0.0
O144 O 0.28655 0.21325 0.20272 0.0
O145 O 0.33972 0.18896 0.29751 0.0
O146 O 0.35599 0.24801 0.44089 0.0
O147 O 0.30303 0.18709 0.44054 0.0
O148 O 0.36977 0.27649 0.31885 0.0
O149 O 0.29697 0.30391 0.28567 0.0
O150 O 0.24976 0.29207 0.38727 0.0
O151 O 0.19938 0.31739 0.29103 0.0
H152 H 0.17096 0.23006 1.03638 0.0
H153 H 0.19459 0.21355 0.92986 0.0
H154 H 0.30681 0.32896 0.94032 0.0
H155 H 0.28379 0.34562 0.04724 0.0
H156 H 0.31466 0.30181 0.52075 0.0
H157 H 0.29498 0.31508 0.63055 0.0
H158 H 0.30825 0.15398 0.68803 0.0
H159 H 0.32886 0.14062 0.5786 0.0
La160 La 0.73794 0.23068 0.35359 0.0
La161 La 0.78148 0.27854 0.2305 0.0
C162 C 0.72955 0.18697 0.46546 0.0
C163 C 0.73304 0.20091 0.53275 0.0
C164 C 0.6896 0.21681 0.55858 0.0
C165 C 0.69296 0.2299 0.62221 0.0
C166 C 0.73964 0.22677 0.66114 0.0
C167 C 0.78293 0.21023 0.63606 0.0
C168 C 0.77968 0.19729 0.5724 0.0
C169 C 0.68035 0.30061 0.27884 0.0
C170 C 0.81311 0.32418 0.36305 0.0
C171 C 0.78706 0.32307 0.11845 0.0
C172 C 0.77802 0.30829 0.05198 0.0
C173 C 0.8003 0.26382 1.03556 0.0
C174 C 0.79202 0.25087 0.972 0.0
C175 C 0.7609 0.28176 0.92426 0.0
C176 C 0.73761 0.32549 0.94086 0.0
C177 C 0.74631 0.33878 1.00434 0.0
C178 C 0.84037 0.20889 0.30301 0.0
C179 C 0.70949 0.18221 0.224 0.0
O180 O 0.69103 0.206 0.42485 0.0
O181 O 0.77166 0.18768 0.43817 0.0
O182 O 0.66306 0.26379 0.31588 0.0
O183 O 0.72784 0.30003 0.29082 0.0
O184 O 0.78568 0.28941 0.39285 0.0
O185 O 0.81346 0.33013 0.29872 0.0
O186 O 0.82582 0.30117 0.15586 0.0
O187 O 0.74706 0.3258 0.14938 0.0
O188 O 0.85621 0.24305 0.26096 0.0
O189 O 0.79265 0.21008 0.29417 0.0
O190 O 0.72904 0.22222 0.19237 0.0
O191 O 0.71597 0.17366 0.28841 0.0
H192 H 0.65303 0.21928 0.52963 0.0
H193 H 0.65923 0.24251 0.64113 0.0
H194 H 0.81921 0.20755 0.66574 0.0
H195 H 0.81371 0.18453 0.55429 0.0
H196 H 0.82433 0.23919 0.07159 0.0
H197 H 0.81006 0.21689 0.95989 0.0
H198 H 0.71332 0.34957 0.90446 0.0
H199 H 0.72842 0.37292 1.01624 0.0
La200 La 0.72537 0.77008 0.71501 0.0
La201 La 0.79385 0.75144 0.84368 0.0
C202 C 0.69345 0.79113 0.59523 0.0
C203 C 0.70952 0.78645 0.52958 0.0
C204 C 0.67866 0.76054 0.48522 0.0
C205 C 0.69235 0.75542 0.42295 0.0
C206 C 0.73749 0.77579 0.40366 0.0
C207 C 0.76819 0.80234 0.44744 0.0
C208 C 0.75414 0.80805 0.50959 0.0
C209 C 0.68707 0.70901 0.80472 0.0
C210 C 0.82333 0.69722 0.72526 0.0
C211 C 0.83123 0.71498 0.9562 0.0
C212 C 0.81867 0.72388 1.02246 0.0
C213 C 0.8528 0.7485 0.06466 0.0
C214 C 0.84061 0.75804 0.1264 0.0
C215 C 0.79416 0.74284 0.14739 0.0
C216 C 0.7601 0.71806 0.10565 0.0
C217 C 0.77209 0.70876 0.0439 0.0
C218 C 0.81148 0.83521 0.7674 0.0
C219 C 0.70048 0.82454 0.83801 0.0
O220 O 0.6841 0.74886 0.63008 0.0
O221 O 0.71699 0.82315 0.63115 0.0
O222 O 0.66063 0.73654 0.75711 0.0
O223 O 0.73323 0.71268 0.79573 0.0
O224 O 0.77806 0.71124 0.69479 0.0
O225 O 0.83943 0.71165 0.78308 0.0
O226 O 0.85138 0.7525 0.92228 0.0
O227 O 0.79698 0.69235 0.91993 0.0
O228 O 0.81636 0.83086 0.83081 0.0
O229 O 0.79901 0.79264 0.75012 0.0
O230 O 0.73369 0.79377 0.87444 0.0
O231 O 0.69516 0.82697 0.77285 0.0
H232 H 0.64379 0.74407 0.49886 0.0
H233 H 0.66804 0.7349 0.39002 0.0
H234 H 0.80313 0.81845 0.43357 0.0
H235 H 0.77857 0.82872 0.5422 0.0
H236 H 0.88888 0.76061 0.04975 0.0
H237 H 0.86747 0.77714 0.15792 0.0
H238 H 0.72408 0.70601 0.12085 0.0
H239 H 0.74462 0.68986 1.01297 0.0
La240 La 0.50225 0.47842 0.97399 0.0
La241 La 0.53015 0.52624 0.09777 0.0
C242 C 0.47363 0.45937 0.85986 0.0
C243 C 0.47632 0.48303 0.79303 0.0
C244 C 0.44072 0.47045 0.74268 0.0
C245 C 0.44614 0.48759 0.67781 0.0
C246 C 0.48726 0.51748 0.66281 0.0
C247 C 0.52161 0.53202 0.71326 0.0
C248 C 0.51616 0.51494 0.77806 0.0
C249 C 0.56825 0.4245 0.06058 0.0
C250 C 0.58411 0.56459 0.97359 0.0
C251 C 0.56888 0.55675 0.20221 0.0
C252 C 0.55165 0.56 0.26625 0.0
C253 C 0.57919 0.58772 0.31131 0.0
C254 C 0.56627 0.58622 0.37492 0.0
C255 C 0.52597 0.55662 0.3939 0.0
C256 C 0.49715 0.5306 0.34805 0.0
C257 C 0.50975 0.5325 0.28439 0.0
C258 C 0.4464 0.56321 1.0246 0.0
C259 C 0.44871 0.44183 0.09766 0.0
O260 O 0.51686 0.44335 0.89256 0.0
O261 O 0.44468 0.48228 0.89534 0.0
O262 O 0.53293 0.40612 1.0228 0.0
O263 O 0.56587 0.47205 0.04814 0.0
O264 O 0.55465 0.53517 0.93914 0.0
O265 O 0.58322 0.56524 1.03713 0.0
O266 O 0.54568 0.5869 0.15358 0.0
O267 O 0.57473 0.51052 0.18725 0.0
O268 O 0.4528 0.55928 0.08775 0.0
O269 O 0.48704 0.54932 1.00623 0.0
O270 O 0.48598 0.46218 0.13293 0.0
O271 O 0.44298 0.44971 1.03309 0.0
H272 H 0.40981 0.44584 0.75336 0.0
H273 H 0.41955 0.47585 0.63921 0.0
H274 H 0.5537 0.55485 0.70225 0.0
H275 H 0.54418 0.52503 0.81604 0.0
H276 H 0.6116 0.60911 0.29794 0.0
H277 H 0.58895 0.60627 0.41004 0.0
H278 H 0.46606 0.5075 0.36219 0.0
H279 H 0.48797 0.51103 0.25003 0.0
La280 La 0.01857 0.47109 0.60616 0.0
La281 La 1.00987 0.53699 0.47721 0.0
C282 C 0.0474 0.43276 0.7214 0.0
C283 C 0.04189 0.44843 0.7871 0.0
C284 C 0.02347 0.41404 0.83487 0.0
C285 C 0.01693 0.42842 0.89657 0.0
C286 C 0.02868 0.47752 0.91183 0.0
C287 C 0.04728 0.51195 0.86435 0.0
C288 C 0.0539 0.49758 0.80267 0.0
C289 C 0.94184 0.45032 0.52164 0.0
C290 C 0.95057 0.57049 0.59308 0.0
C291 C 0.97997 0.57476 0.36193 0.0
C292 C 0.98609 0.56065 0.29557 0.0
C293 C 1.0061 0.59557 0.24975 0.0
C294 C 1.01268 0.58281 0.18729 0.0
C295 C 0.99936 0.53479 0.16927 0.0
C296 C 0.97906 0.49991 0.21469 0.0
C297 C 0.97238 0.51268 0.2771 0.0
C298 C 0.08635 0.55795 0.56208 0.0
C299 C 0.07974 0.43893 0.49088 0.0
O300 O 1.00595 0.41994 0.68761 0.0
O301 O 0.07595 0.46055 0.68483 0.0
O302 O 0.94186 0.4448 0.58449 0.0
O303 O 0.98557 0.46299 0.50912 0.0
O304 O 0.97176 0.53133 0.63151 0.0
O305 O 0.95928 0.5795 0.53097 0.0
O306 O 0.02059 0.58922 0.39596 0.0
O307 O 0.95274 0.54504 0.39813 0.0
O308 O 0.08646 0.56387 0.4992 0.0
O309 O 0.04265 0.54494 0.57402 0.0
O310 O 0.05964 0.47899 0.45334 0.0
O311 O 0.06935 0.42866 0.5522 0.0
H312 H 0.01391 0.37601 0.82433 0.0
H313 H 1.00255 0.40126 0.93243 0.0
H314 H 0.05659 0.55 0.87503 0.0
H315 H 0.06822 0.52505 0.76714 0.0
H316 H 0.01682 0.63281 0.26239 0.0
H317 H 0.02838 0.61031 0.15304 0.0
H318 H 0.96854 0.46267 0.20189 0.0
H319 H 0.9567 0.48482 0.31092 0.0
C320 C 0.16993 0.08948 0.43778 0.0
C321 C 0.11668 0.0868 0.4207 0.0
C322 C 0.12531 0.14017 0.31783 0.0
C323 C 0.17577 0.15032 0.34113 0.0
N324 N 0.25057 0.1089 0.39896 0.0
N325 N 0.04314 0.11261 0.34279 0.0
C326 C 0.1998 0.11786 0.39447 0.0
C327 C 0.09434 0.11216 0.35967 0.0
N328 N 0.19241 0.06537 0.49541 0.0
N329 N 0.10845 0.15338 0.2535 0.0
H330 H 0.0176 0.09463 0.37142 0.0
H331 H 0.02488 0.13575 0.30314 0.0
H332 H 0.13238 0.16813 0.21996 0.0
H333 H 0.07365 0.14289 0.23146 0.0
H334 H 0.22944 0.07199 0.51404 0.0
H335 H 0.17354 0.04085 0.52642 0.0
H336 H 0.26996 0.08157 0.4328 0.0
H337 H 0.2721 0.12404 0.36312 0.0
C338 C 0.06777 0.85108 0.64601 0.0
C339 C 0.08794 0.89553 0.61457 0.0
C340 C 0.16389 0.88279 0.69367 0.0
C341 C 0.14768 0.83415 0.71747 0.0
N342 N 0.08632 0.76781 0.70244 0.0
N343 N 0.16274 0.94403 0.59873 0.0
C344 C 0.10024 0.81705 0.6898 0.0
C345 C 0.13824 0.90865 0.63548 0.0
N346 N 0.01727 0.84156 0.63653 0.0
N347 N 0.20159 0.90608 0.72827 0.0
H348 H 0.14718 0.96012 0.55277 0.0
H349 H 0.20077 0.95196 0.61017 0.0
H350 H 0.21677 0.8913 0.77492 0.0
H351 H 0.21209 0.94314 0.7147 0.0
H352 H 1.0005 0.81252 0.66398 0.0
H353 H 0.9907 0.86614 0.6086 0.0
H354 H 0.05446 0.75303 0.67795 0.0
H355 H 0.10961 0.73946 0.72909 0.0
C356 C 0.37306 0.8363 0.97056 0.0
C357 C 0.34329 0.85806 0.91243 0.0
C358 C 0.37386 0.9419 0.93627 0.0
C359 C 0.41036 0.91892 0.98583 0.0
N360 N 0.44909 0.84213 0.04453 0.0
N361 N 0.31982 0.93326 0.83718 0.0
C362 C 0.41104 0.86557 1.00163 0.0
C363 C 0.34538 0.91128 0.89412 0.0
N364 N 0.36557 0.78793 0.99713 0.0
N365 N 0.36355 0.99266 0.93228 0.0
H366 H 0.29583 0.91362 0.80645 0.0
H367 H 0.32524 0.97063 0.81847 0.0
H368 H 0.38094 0.01534 0.96563 0.0
H369 H 0.33383 0.01084 0.90111 0.0
H370 H 0.38139 0.77366 0.04385 0.0
H371 H 0.34181 0.76253 0.97508 0.0
H372 H 0.45475 0.80291 0.05161 0.0
H373 H 0.47787 0.86165 0.06855 0.0
C374 C 0.40097 0.15194 0.09779 0.0
C375 C 0.40647 0.09867 0.11362 0.0
C376 C 0.36305 0.10395 0.21124 0.0
C377 C 0.35532 0.15697 0.19416 0.0
N378 N 0.35754 0.22941 0.1116 0.0
N379 N 0.37888 0.02296 0.17309 0.0
C380 C 0.37097 0.1802 0.13429 0.0
C381 C 0.3835 0.07446 0.16688 0.0
N382 N 0.42667 0.17653 0.05065 0.0
N383 N 0.35035 0.08119 0.26922 0.0
H384 H 0.39038 1.00062 0.13893 0.0
H385 H 0.35831 1.00323 0.2071 0.0
H386 H 0.33161 0.09993 0.30117 0.0
H387 H 0.36142 0.04415 0.28763 0.0
H388 H 0.42991 0.21578 0.04402 0.0
H389 H 0.44826 0.1583 1.02106 0.0
H390 H 0.3613 0.24519 0.06425 0.0
H391 H 0.34067 0.25452 0.13815 0.0
C392 C 0.92801 0.90107 0.7096 0.0
C393 C 0.90668 0.93083 0.65122 0.0
C394 C 0.82196 0.90362 0.67575 0.0
C395 C 0.84395 0.86949 0.72891 0.0
N396 N 0.91939 0.8273 0.78644 0.0
N397 N 0.83238 0.95486 0.57491 0.0
C398 C 0.89732 0.86613 0.74343 0.0
C399 C 0.85342 0.93031 0.63307 0.0
N400 N 0.97778 0.90487 0.73292 0.0
N401 N 0.77087 0.912 0.66712 0.0
H402 H 0.85259 0.97759 0.54361 0.0
H403 H 0.7952 0.94988 0.55549 0.0
H404 H 0.74679 0.89252 0.69663 0.0
H405 H 0.75286 0.94092 0.63442 0.0
H406 H 0.99244 0.89001 0.77991 0.0
H407 H 1.00443 0.92426 0.70751 0.0
H408 H 0.95817 0.81941 0.79275 0.0
H409 H 0.89897 0.79945 0.81072 0.0
C410 C 0.95435 0.16529 0.4272 0.0
C411 C 0.9358 0.12066 0.46036 0.0
C412 C 0.8585 0.13002 0.38348 0.0
C413 C 0.87353 0.17831 0.35674 0.0
N414 N 0.93255 0.24708 0.36789 0.0
N415 N 0.86202 0.07251 0.48211 0.0
C416 C 0.92058 0.19747 0.38254 0.0
C417 C 0.8855 0.10634 0.44199 0.0
N418 N 1.00439 0.17684 0.43621 0.0
N419 N 0.81983 0.10547 0.35231 0.0
H420 H 0.87842 0.05902 0.5288 0.0
H421 H 0.82394 0.06395 0.47264 0.0
H422 H 0.80199 0.11906 0.30639 0.0
H423 H 0.81031 0.06856 0.36834 0.0
H424 H 0.02009 0.20605 0.40778 0.0
H425 H 0.03185 0.15371 0.46488 0.0
H426 H 0.96411 0.26344 0.39087 0.0
H427 H 0.90791 0.27425 0.3412 0.0
C428 C 0.69843 0.12752 0.13081 0.0
C429 C 0.67917 0.14655 0.18497 0.0
C430 C 0.59419 0.1239 0.14286 0.0
C431 C 0.61318 0.10047 0.09196 0.0
N432 N 0.68619 0.07055 0.04677 0.0
N433 N 0.61053 0.14389 0.25321 0.0
C434 C 0.66621 0.09967 0.08834 0.0
C435 C 0.62797 0.1379 0.19505 0.0
N436 N 0.74768 0.1352 0.12049 0.0
N437 N 0.54427 0.13747 0.13878 0.0
H438 H 0.63299 0.1539 0.29379 0.0
H439 H 0.57399 0.13438 0.26278 0.0
H440 H 0.51988 0.13576 0.09646 0.0
H441 H 0.52935 0.15792 0.17263 0.0
H442 H 0.76201 0.12839 0.0775 0.0
H443 H 0.7738 0.15016 0.15417 0.0
H444 H 0.72489 0.06474 0.04628 0.0
H445 H 0.66416 0.0481 1.0172 0.0
C446 C 0.64595 0.83661 0.92884 0.0
C447 C 0.66996 0.85786 0.87394 0.0
C448 C 0.64338 0.94307 0.89627 0.0
C449 C 0.61439 0.92085 0.945 0.0
N450 N 0.57906 0.84565 0.9965 0.0
N451 N 0.69315 0.93262 0.80775 0.0
C452 C 0.61348 0.86752 0.95855 0.0
C453 C 0.66858 0.91147 0.85794 0.0
N454 N 0.65427 0.78713 0.95439 0.0
N455 N 0.64901 0.99449 0.88893 0.0
H456 H 0.71967 0.91262 0.78696 0.0
H457 H 0.68686 0.96979 0.78625 0.0
H458 H 0.63197 0.01877 0.91663 0.0
H459 H 0.67376 0.01308 0.8595 0.0
H460 H 0.64381 0.773 0.99969 0.0
H461 H 0.6739 0.76033 0.9336 0.0
H462 H 0.57219 0.8069 1.00083 0.0
H463 H 0.55358 0.86642 1.01824 0.0
C464 C 0.59731 0.65293 0.92463 0.0
C465 C 0.61494 0.60203 0.93766 0.0
C466 C 0.68465 0.62171 0.87093 0.0
C467 C 0.66408 0.67202 0.85269 0.0
N468 N 0.59462 0.73201 0.85586 0.0
N469 N 0.67257 0.53582 0.92062 0.0
C470 C 0.61863 0.68644 0.87753 0.0
C471 C 0.65808 0.58595 0.91048 0.0
N472 N 0.56051 0.66997 0.95842 0.0
N473 N 0.72872 0.6071 0.8495 0.0
H474 H 0.65576 0.5094 0.95201 0.0
H475 H 0.69922 0.51962 0.89559 0.0
H476 H 0.7458 0.62738 0.81258 0.0
H477 H 0.74957 0.57466 0.86972 0.0
H478 H 0.55083 0.70819 0.95774 0.0
H479 H 0.54284 0.64655 0.99207 0.0
H480 H 0.55728 0.73986 0.8628 0.0
H481 H 0.61093 0.7622 0.83032 0.0
C482 C 0.65936 0.38588 0.21444 0.0
C483 C 0.65072 0.33293 0.22348 0.0
C484 C 0.60141 0.33968 0.11568 0.0
C485 C 0.60462 0.39316 0.11017 0.0
N486 N 0.65759 0.46223 0.13855 0.0
N487 N 0.6026 0.26221 0.18697 0.0
C488 C 0.63947 0.41523 0.15514 0.0
C489 C 0.61855 0.31064 0.17554 0.0
N490 N 0.68362 0.40884 0.26447 0.0
N491 N 0.587 0.31585 0.0617 0.0
H492 H 0.61237 0.23938 0.23023 0.0
H493 H 0.57459 0.24688 0.15622 0.0
H494 H 0.58234 0.33502 1.01479 0.0
H495 H 0.58825 0.27656 0.06185 0.0
H496 H 0.68627 0.44802 0.26374 0.0
H497 H 0.69621 0.38903 0.30969 0.0
H498 H 0.68643 0.47851 0.16684 0.0
H499 H 0.64901 0.48196 0.0924 0.0
C500 C 0.86959 0.44152 0.43457 0.0
C501 C 0.90917 0.4188 0.48009 0.0
C502 C 0.88112 0.33453 0.45583 0.0
C503 C 0.84526 0.35715 0.40418 0.0
N504 N 0.80853 0.43341 0.34096 0.0
N505 N 0.95875 0.34408 0.52547 0.0
C506 C 0.84075 0.41105 0.39218 0.0
C507 C 0.91663 0.36546 0.48828 0.0
N508 N 0.858 0.49186 0.43392 0.0
N509 N 0.88144 0.28357 0.47514 0.0
H510 H 0.98564 0.365 0.55079 0.0
H511 H 0.96949 0.30611 0.52635 0.0
H512 H 0.8597 0.25769 0.45097 0.0
H513 H 0.90171 0.26695 0.5182 0.0
H514 H 0.82622 0.50984 0.40691 0.0
H515 H 0.87789 0.51481 0.46505 0.0
H516 H 0.80846 0.472 0.32497 0.0
H517 H 0.78367 0.41319 0.31187 0.0
C518 C 0.85339 0.67128 0.62138 0.0
C519 C 0.85781 0.66686 0.69089 0.0
C520 C 0.93288 0.61294 0.69144 0.0
C521 C 0.9204 0.60717 0.62418 0.0
N522 N 0.85846 0.62462 0.52919 0.0
N523 N 0.89687 0.61988 0.79138 0.0
C524 C 0.87766 0.63446 0.59005 0.0
C525 C 0.89616 0.63378 0.72603 0.0
N526 N 0.82917 0.71204 0.58471 0.0
N527 N 0.98025 0.6009 0.72201 0.0
H528 H 0.86763 0.62881 0.81786 0.0
H529 H 0.92322 0.5935 0.81693 0.0
H530 H 1.01017 0.59151 0.69679 0.0
H531 H 0.99113 0.60751 0.77014 0.0
H532 H 0.82808 0.7174 0.53404 0.0
H533 H 0.81752 0.74378 0.60503 0.0
H534 H 0.82441 0.64102 0.50646 0.0
H535 H 0.87248 0.59605 0.5052 0.0
C536 C 0.34837 0.39342 0.20717 0.0
C537 C 0.36524 0.34178 0.22356 0.0
C538 C 0.42547 0.35465 0.14139 0.0
C539 C 0.41422 0.40716 0.13257 0.0
N540 N 0.36544 0.47785 0.15696 0.0
N541 N 0.42735 0.27619 0.2109 0.0
C542 C 0.37544 0.42681 0.16503 0.0
C543 C 0.40609 0.32343 0.19237 0.0
N544 N 0.30742 0.41132 0.23271 0.0
N545 N 0.45324 0.33383 0.09912 0.0
H546 H 0.41178 0.24789 0.24039 0.0
H547 H 0.4621 0.26524 0.19748 0.0
H548 H 0.46454 0.35497 0.05833 0.0
H549 H 0.45899 0.29492 0.09928 0.0
H550 H 0.28918 0.44587 0.21552 0.0
H551 H 0.28983 0.39121 0.26934 0.0
H552 H 0.34294 0.49616 0.18554 0.0
H553 H 0.38159 0.50239 0.12283 0.0
C554 C 0.42482 0.65321 0.97897 0.0
C555 C 0.41223 0.60136 0.98311 0.0
C556 C 0.35145 0.61847 0.885 0.0
C557 C 0.36415 0.67058 0.88014 0.0
N558 N 0.42282 0.73449 0.91424 0.0
N559 N 0.35505 0.53702 0.95135 0.0
C560 C 0.40352 0.68717 0.9248 0.0
C561 C 0.37295 0.58476 0.93942 0.0
N562 N 0.45538 0.67075 1.02863 0.0
N563 N 0.32325 0.59999 0.8341 0.0
H564 H 0.36905 0.51244 0.99219 0.0
H565 H 0.32305 0.52394 0.92528 0.0
H566 H 0.31101 0.62228 0.79057 0.0
H567 H 0.31722 0.56154 0.83147 0.0
H568 H 0.46083 0.7091 1.03278 0.0
H569 H 0.47206 0.64737 0.06904 0.0
H570 H 0.45677 0.74515 0.93842 0.0
H571 H 0.40666 0.76305 0.87978 0.0
C572 C 0.14446 0.67424 0.62961 0.0
C573 C 0.17622 0.65196 0.68561 0.0
C574 C 0.15419 0.56749 0.65413 0.0
C575 C 0.11774 0.58998 0.60415 0.0
N576 N 0.07079 0.66489 0.55298 0.0
N577 N 0.2051 0.57595 0.75612 0.0
C578 C 0.11082 0.64337 0.59427 0.0
C579 C 0.17896 0.59814 0.69966 0.0
N580 N 0.14608 0.72488 0.60933 0.0
N581 N 0.16689 0.51728 0.65634 0.0
H582 H 0.22507 0.59638 0.79004 0.0
H583 H 0.20355 0.5374 0.77177 0.0
H584 H 0.15069 0.49439 0.62221 0.0
H585 H 0.1968 0.4997 0.68772 0.0
H586 H 0.12902 0.7411 0.56407 0.0
H587 H 0.1663 0.75063 0.63558 0.0
H588 H 0.0605 0.70314 0.55013 0.0
H589 H 0.04483 0.64397 0.52618 0.0
C590 C 0.17398 0.33523 0.45927 0.0
C591 C 0.1772 0.34797 0.39118 0.0
C592 C 0.10547 0.4059 0.38967 0.0
C593 C 0.11139 0.40363 0.45901 0.0
N594 N 0.16366 0.37094 0.55895 0.0
N595 N 0.15341 0.41091 0.2982 0.0
C596 C 0.14935 0.36983 0.49399 0.0
C597 C 0.14535 0.38806 0.35814 0.0
N598 N 0.19061 0.28918 0.49053 0.0
N599 N 0.06114 0.4221 0.35348 0.0
H600 H 0.18602 0.40455 0.27653 0.0
H601 H 0.13115 0.44173 0.2752 0.0
H602 H 0.02803 0.4277 0.37454 0.0
H603 H 0.05581 0.42196 0.30293 0.0
H604 H 0.18526 0.27831 0.53896 0.0
H605 H 0.20179 0.25931 0.46638 0.0
H606 H 0.19368 0.34848 0.58375 0.0
H607 H 0.15053 0.39808 0.58591 0.0
C608 C 0.98612 0.98341 0.98865 0.0
C609 C 0.02608 0.01585 0.97295 0.0
C610 C 0.04027 0.03622 0.08608 0.0
C611 C 1.00051 1.0035 0.10181 0.0
N612 N 0.93896 0.94174 0.07223 0.0
N613 N 0.08879 0.07642 1.00276 0.0
C614 C 0.97416 0.9761 0.05409 0.0
C615 C 0.0527 0.04303 1.02074 0.0
N616 N 0.95881 0.96082 0.9403 0.0
N617 N 0.06675 0.05968 0.13429 0.0
H618 H 0.09956 0.0814 0.95575 0.0
H619 H 0.10694 0.101 1.0329 0.0
H620 H 0.05753 0.05675 0.18205 0.0
H621 H 0.09906 0.08053 0.12857 0.0
H622 H 0.92577 0.94117 0.94613 0.0
H623 H 0.96768 0.96383 0.89237 0.0
H624 H 0.92193 0.91645 0.04218 0.0
H625 H 0.9284 0.93626 0.11933 0.0
C626 C 0.26531 0.80767 0.31178 0.0
C627 C 0.27026 0.76827 0.36423 0.0
C628 C 0.2568 0.70452 0.28741 0.0
C629 C 0.25524 0.7437 0.23489 0.0
N630 N 0.2651 0.83148 0.19553 0.0
N631 N 0.278 0.67925 0.40322 0.0
C632 C 0.26151 0.79505 0.24664 0.0
C633 C 0.26807 0.71664 0.3524 0.0
N634 N 0.263 0.85711 0.32437 0.0
N635 N 0.24607 0.65598 0.27514 0.0
H636 H 0.28518 0.68665 0.45167 0.0
H637 H 0.28277 0.64112 0.39726 0.0
H638 H 0.23874 0.64547 0.2281 0.0
H639 H 0.24086 0.62675 0.31131 0.0
H640 H 0.2538 0.88738 0.28852 0.0
H641 H 0.26665 0.86779 0.37151 0.0
H642 H 0.27517 0.86866 0.20114 0.0
H643 H 0.2618 0.8237 0.14709 0.0
C644 C 0.54715 0.99616 0.5867 0.0
C645 C 0.50642 0.02994 0.59224 0.0
C646 C 0.48155 0.03348 0.47392 0.0
C647 C 0.52508 1.00363 0.46758 0.0
N648 N 0.60432 0.96418 0.51667 0.0
N649 N 0.43998 0.08777 0.53961 0.0
C650 C 0.55928 0.98706 0.5237 0.0
C651 C 0.47503 0.05057 0.53535 0.0
N652 N 0.57328 0.97135 0.64172 0.0
N653 N 0.44543 0.04401 0.42179 0.0
H654 H 0.43423 0.10145 0.58349 0.0
H655 H 0.41973 0.10818 0.49908 0.0
H656 H 0.44847 0.03178 0.37631 0.0
H657 H 0.41044 0.06092 0.42505 0.0
H658 H 0.59965 0.94221 0.64089 0.0
H659 H 0.56542 0.97666 0.68864 0.0
H660 H 0.63313 0.95614 0.55481 0.0
H661 H 0.61489 0.95736 0.47148 0.0
C662 C 0.22999 0.2761 0.80521 0.0
C663 C 0.26513 0.26115 0.86083 0.0
C664 C 0.32538 0.23344 0.78949 0.0
C665 C 0.28825 0.24371 0.73466 0.0
N666 N 0.20129 0.26402 0.69331 0.0
N667 N 0.34258 0.21685 0.9072 0.0
C668 C 0.23942 0.2621 0.74337 0.0
C669 C 0.31185 0.23731 0.85334 0.0
N670 N 0.18822 0.30496 0.81101 0.0
N671 N 0.37404 0.22164 0.78052 0.0
H672 H 0.33368 0.21849 0.95458 0.0
H673 H 0.37445 0.19428 0.90484 0.0
H674 H 0.38565 0.21912 0.73463 0.0
H675 H 0.40382 0.21883 0.8179 0.0
H676 H 0.16421 0.32151 0.77105 0.0
H677 H 0.18011 0.31637 0.8553 0.0
H678 H 0.16375 0.27252 0.69848 0.0
H679 H 0.20624 0.25182 0.64841 0.0
C680 C 0.77653 0.29848 0.80707 0.0
C681 C 0.75374 0.26867 0.85635 0.0
C682 C 0.72441 0.20939 0.77855 0.0
C683 C 0.74349 0.24157 0.7282 0.0
N684 N 0.77904 0.3214 0.69138 0.0
N685 N 0.69847 0.20101 0.88737 0.0
C686 C 0.76701 0.28755 0.74153 0.0
C687 C 0.72543 0.22558 0.84162 0.0
N688 N 0.80894 0.33589 0.82321 0.0
N689 N 0.70693 0.16266 0.76665 0.0
H690 H 0.69808 0.21201 0.93403 0.0
H691 H 0.67305 0.17258 0.87742 0.0
H692 H 0.70558 0.14946 0.72101 0.0
H693 H 0.69772 0.13533 0.80309 0.0
H694 H 0.83094 0.35504 0.79043 0.0
H695 H 0.81739 0.34484 0.87082 0.0
H696 H 0.79122 0.35788 0.6976 0.0
H697 H 0.77256 0.31478 0.64257 0.0
C698 C 0.74304 0.80668 0.28488 0.0
C699 C 0.75301 0.76806 0.33807 0.0
C700 C 0.79421 0.71523 0.26765 0.0
C701 C 0.78111 0.75228 0.21346 0.0
N702 N 0.73837 0.83072 0.16783 0.0
N703 N 0.78178 0.68287 0.37853 0.0
C704 C 0.75429 0.7974 0.22142 0.0
C705 C 0.7769 0.72158 0.32895 0.0
N706 N 0.7232 0.85246 0.29528 0.0
N707 N 0.82407 0.67433 0.26074 0.0
H708 H 0.77052 0.68645 0.42431 0.0
H709 H 0.79344 0.64615 0.37322 0.0
H710 H 0.83623 0.66764 0.21632 0.0
H711 H 0.83994 0.64895 0.29964 0.0
H712 H 0.72014 0.88422 0.26082 0.0
H713 H 0.71247 0.85983 0.34019 0.0
H714 H 0.71374 0.86134 0.1685 0.0
H715 H 0.74722 0.82597 0.12115 0.0
C716 C 0.53188 0.49665 0.56912 0.0
C717 C 0.4976 0.52874 0.59417 0.0
C718 C 0.48051 0.57864 0.48719 0.0
C719 C 0.51706 0.54839 0.46335 0.0
N720 N 0.58264 0.48318 0.4824 0.0
N721 N 0.44379 0.60355 0.5813 0.0
C722 C 0.54433 0.50878 0.50465 0.0
C723 C 0.47312 0.57073 0.55436 0.0
N724 N 0.55113 0.45352 0.6063 0.0
N725 N 0.45226 0.61412 0.44522 0.0
H726 H 0.43698 0.59824 0.63006 0.0
H727 H 0.42897 0.63775 0.55691 0.0
H728 H 0.45801 0.62205 0.3963 0.0
H729 H 0.42118 0.63359 0.45751 0.0
H730 H 0.57142 0.42542 0.58837 0.0
H731 H 0.5437 0.44362 0.65425 0.0
H732 H 0.608 0.45832 0.51229 0.0
H733 H 0.59163 0.48933 0.43461 0.0
C734 C 0.06095 0.48387 1.02987 0.0
C735 C 0.02143 0.49295 0.97765 0.0
C736 C 0.96776 0.53025 0.05056 0.0
C737 C 1.00709 0.52073 0.10293 0.0
N738 N 0.09285 0.49425 0.14215 0.0
N739 N 0.93573 0.51971 0.93839 0.0
C740 C 0.05415 0.49894 0.09247 0.0
C741 C 0.97447 0.51502 0.98802 0.0
N742 N 0.10442 0.45936 1.01979 0.0
N743 N 0.92456 0.55534 0.06043 0.0
H744 H 0.93963 0.50988 0.8919 0.0
H745 H 0.89888 0.53065 0.94341 0.0
H746 H 0.91794 0.56586 0.10575 0.0
H747 H 0.89629 0.56851 1.02359 0.0
H748 H 0.13294 0.44653 0.05645 0.0
H749 H 0.11125 0.44927 0.97434 0.0
H750 H 0.12972 0.48331 0.13727 0.0
H751 H 0.08888 0.50412 0.18859 0.0
loop_
_geom_bond_atom_site_label_1
_geom_bond_atom_site_label_2
_geom_bond_distance
_geom_bond_site_symmetry_2
_ccdc_geom_bond_type
La0 C2 2.928 1_655 S
La0 O20 2.521 1_655 S
La0 O21 2.628 1_565 S
La0 O22 2.554 1_655 S
La0 O23 2.757 1_655 S
La0 O24 2.470 1_665 S
La0 O29 2.482 1_565 S
La0 O31 2.503 . S
La1 C11 2.928 1_455 S
La1 O23 2.482 1_545 S
La1 O25 2.503 . S
La1 O26 2.521 1_455 S
La1 O27 2.628 1_545 S
La1 O28 2.554 1_455 S
La1 O29 2.757 1_455 S
La1 O30 2.470 1_445 S
C2 La0 2.928 1_455 S
C2 C3 1.503 . S
C2 O20 1.261 . S
C2 O21 1.243 1_465 S
C3 C2 1.503 . S
C3 C4 1.394 . S
C3 C8 1.373 1_565 S
C4 C3 1.394 . S
C4 C5 1.380 . S
C4 H32 0.930 . S
C5 C4 1.380 . S
C5 C6 1.376 . S
C5 H33 0.930 . S
C6 C5 1.376 . S
C6 C7 1.370 1_565 S
C7 C6 1.370 1_545 S
C7 C8 1.396 . S
C7 H34 0.929 . S
C8 C3 1.373 1_545 S
C8 C7 1.396 . S
C8 H35 0.929 1_455 S
C9 O22 1.240 . S
C9 O23 1.289 . S
C10 O24 1.258 . S
C10 O25 1.256 . S
C11 La1 2.928 1_655 S
C11 C12 1.503 . S
C11 O26 1.261 . S
C11 O27 1.243 1_645 S
C12 C11 1.503 . S
C12 C13 1.394 . S
C12 C17 1.373 1_545 S
C13 C12 1.394 . S
C13 C14 1.380 . S
C13 H36 0.930 . S
C14 C13 1.380 . S
C14 C15 1.376 . S
C14 H37 0.930 . S
C15 C14 1.376 . S
C15 C16 1.370 1_545 S
C16 C15 1.370 1_565 S
C16 C17 1.396 . S
C16 H38 0.929 . S
C17 C12 1.373 1_565 S
C17 C16 1.396 . S
C17 H39 0.929 1_655 S
C18 O28 1.240 . S
C18 O29 1.289 . S
C19 O30 1.258 . S
C19 O31 1.256 . S
O20 La0 2.521 1_455 S
O20 C2 1.261 . S
O21 La0 2.628 1_545 S
O21 C2 1.243 1_645 S
O22 La0 2.554 1_455 S
O22 C9 1.240 . S
O23 La0 2.757 1_455 S
O23 La1 2.482 1_565 S
O23 C9 1.289 . S
O24 La0 2.470 1_445 S
O24 C10 1.258 . S
O25 La1 2.503 . S
O25 C10 1.256 . S
O26 La1 2.521 1_655 S
O26 C11 1.261 . S
O27 La1 2.628 1_565 S
O27 C11 1.243 1_465 S
O28 La1 2.554 1_655 S
O28 C18 1.240 . S
O29 La0 2.482 1_545 S
O29 La1 2.757 1_655 S
O29 C18 1.289 . S
O30 La1 2.470 1_665 S
O30 C19 1.258 . S
O31 La0 2.503 . S
O31 C19 1.256 . S
H32 C4 0.930 . S
H33 C5 0.930 . S
H34 C7 0.929 . S
H35 C8 0.929 1_655 S
H36 C13 0.930 . S
H37 C14 0.930 . S
H38 C16 0.929 . S
H39 C17 0.929 1_455 S
La40 C42 2.928 . S
La40 O60 2.521 . S
La40 O61 2.628 . S
La40 O62 2.554 . S
La40 O63 2.757 . S
La40 O64 2.470 . S
La40 O69 2.482 . S
La40 O71 2.503 . S
La41 C51 2.928 . S
La41 O63 2.482 . S
La41 O65 2.503 . S
La41 O66 2.521 . S
La41 O67 2.628 . S
La41 O68 2.554 . S
La41 O69 2.757 . S
La41 O70 2.470 . S
C42 La40 2.928 . S
C42 C43 1.503 1_556 S
C42 O60 1.261 . S
C42 O61 1.243 . S
C43 C42 1.503 1_554 S
C43 C44 1.394 . S
C43 C48 1.373 . S
C44 C43 1.394 . S
C44 C45 1.380 . S
C44 H72 0.930 1_554 S
C45 C44 1.380 . S
C45 C46 1.376 . S
C45 H73 0.930 . S
C46 C45 1.376 . S
C46 C47 1.370 . S
C47 C46 1.370 . S
C47 C48 1.396 . S
C47 H74 0.929 . S
C48 C43 1.373 . S
C48 C47 1.396 . S
C48 H75 0.929 . S
C49 O62 1.240 . S
C49 O63 1.289 . S
C50 O64 1.258 . S
C50 O65 1.256 . S
C51 La41 2.928 . S
C51 C52 1.503 . S
C51 O66 1.261 . S
C51 O67 1.243 . S
C52 C51 1.503 . S
C52 C53 1.394 . S
C52 C57 1.373 . S
C53 C52 1.394 . S
C53 C54 1.380 . S
C53 H76 0.930 . S
C54 C53 1.380 . S
C54 C55 1.376 . S
C54 H77 0.930 . S
C55 C54 1.376 . S
C55 C56 1.370 . S
C56 C55 1.370 . S
C56 C57 1.396 . S
C56 H78 0.929 . S
C57 C52 1.373 . S
C57 C56 1.396 . S
C57 H79 0.929 . S
C58 O68 1.240 . S
C58 O69 1.289 . S
C59 O70 1.258 . S
C59 O71 1.256 . S
O60 La40 2.521 . S
O60 C42 1.261 . S
O61 La40 2.628 . S
O61 C42 1.243 . S
O62 La40 2.554 . S
O62 C49 1.240 . S
O63 La40 2.757 . S
O63 La41 2.482 . S
O63 C49 1.289 . S
O64 La40 2.470 . S
O64 C50 1.258 . S
O65 La41 2.503 . S
O65 C50 1.256 . S
O66 La41 2.521 . S
O66 C51 1.261 . S
O67 La41 2.628 . S
O67 C51 1.243 . S
O68 La41 2.554 . S
O68 C58 1.240 . S
O69 La40 2.482 . S
O69 La41 2.757 . S
O69 C58 1.289 . S
O70 La41 2.470 . S
O70 C59 1.258 . S
O71 La40 2.503 . S
O71 C59 1.256 . S
H72 C44 0.930 1_556 S
H73 C45 0.930 . S
H74 C47 0.929 . S
H75 C48 0.929 . S
H76 C53 0.930 . S
H77 C54 0.930 . S
H78 C56 0.929 . S
H79 C57 0.929 . S
La80 C82 2.928 . S
La80 O100 2.521 . S
La80 O101 2.628 . S
La80 O102 2.554 . S
La80 O103 2.757 1_554 S
La80 O104 2.470 1_565 S
La80 O109 2.482 1_565 S
La80 O111 2.503 . S
La81 C91 2.928 . S
La81 O103 2.482 1_545 S
La81 O105 2.503 . S
La81 O106 2.521 . S
La81 O107 2.628 . S
La81 O108 2.554 . S
La81 O109 2.757 1_556 S
La81 O110 2.470 1_545 S
C82 La80 2.928 . S
C82 C83 1.503 . S
C82 O100 1.261 . S
C82 O101 1.243 . S
C83 C82 1.503 . S
C83 C84 1.394 . S
C83 C88 1.373 . S
C84 C83 1.394 . S
C84 C85 1.380 . S
C84 H112 0.930 . S
C85 C84 1.380 . S
C85 C86 1.376 . S
C85 H113 0.930 . S
C86 C85 1.376 . S
C86 C87 1.370 . S
C87 C86 1.370 . S
C87 C88 1.396 . S
C87 H114 0.929 1_565 S
C88 C83 1.373 . S
C88 C87 1.396 . S
C88 H115 0.929 1_565 S
C89 O102 1.240 1_556 S
C89 O103 1.289 . S
C90 O104 1.258 . S
C90 O105 1.256 1_554 S
C91 La81 2.928 . S
C91 C92 1.503 . S
C91 O106 1.261 . S
C91 O107 1.243 . S
C92 C91 1.503 . S
C92 C93 1.394 . S
C92 C97 1.373 . S
C93 C92 1.394 . S
C93 C94 1.380 . S
C93 H116 0.930 . S
C94 C93 1.380 . S
C94 C95 1.376 . S
C94 H117 0.930 . S
C95 C94 1.376 . S
C95 C96 1.370 . S
C96 C95 1.370 . S
C96 C97 1.396 . S
C96 H118 0.929 1_545 S
C97 C92 1.373 . S
C97 C96 1.396 . S
C97 H119 0.929 1_545 S
C98 O108 1.240 1_554 S
C98 O109 1.289 . S
C99 O110 1.258 . S
C99 O111 1.256 1_556 S
O100 La80 2.521 . S
O100 C82 1.261 . S
O101 La80 2.628 . S
O101 C82 1.243 . S
O102 La80 2.554 . S
O102 C89 1.240 1_554 S
O103 La80 2.757 1_556 S
O103 La81 2.482 1_565 S
O103 C89 1.289 . S
O104 La80 2.470 1_545 S
O104 C90 1.258 . S
O105 La81 2.503 . S
O105 C90 1.256 1_556 S
O106 La81 2.521 . S
O106 C91 1.261 . S
O107 La81 2.628 . S
O107 C91 1.243 . S
O108 La81 2.554 . S
O108 C98 1.240 1_556 S
O109 La80 2.482 1_545 S
O109 La81 2.757 1_554 S
O109 C98 1.289 . S
O110 La81 2.470 1_565 S
O110 C99 1.258 . S
O111 La80 2.503 . S
O111 C99 1.256 1_554 S
H112 C84 0.930 . S
H113 C85 0.930 . S
H114 C87 0.929 1_545 S
H115 C88 0.929 1_545 S
H116 C93 0.930 . S
H117 C94 0.930 . S
H118 C96 0.929 1_565 S
H119 C97 0.929 1_565 S
La120 C122 2.928 . S
La120 O140 2.521 . S
La120 O141 2.628 . S
La120 O142 2.554 . S
La120 O143 2.757 . S
La120 O144 2.470 . S
La120 O149 2.482 . S
La120 O151 2.503 . S
La121 C131 2.928 . S
La121 O143 2.482 . S
La121 O145 2.503 . S
La121 O146 2.521 . S
La121 O147 2.628 . S
La121 O148 2.554 . S
La121 O149 2.757 . S
La121 O150 2.470 . S
C122 La120 2.928 . S
C122 C123 1.503 1_554 S
C122 O140 1.261 . S
C122 O141 1.243 . S
C123 C122 1.503 1_556 S
C123 C124 1.394 . S
C123 C128 1.373 . S
C124 C123 1.394 . S
C124 C125 1.380 . S
C124 H152 0.930 . S
C125 C124 1.380 . S
C125 C126 1.376 . S
C125 H153 0.930 . S
C126 C125 1.376 . S
C126 C127 1.370 . S
C127 C126 1.370 . S
C127 C128 1.396 . S
C127 H154 0.929 . S
C128 C123 1.373 . S
C128 C127 1.396 . S
C128 H155 0.929 . S
C129 O142 1.240 . S
C129 O143 1.289 . S
C130 O144 1.258 . S
C130 O145 1.256 . S
C131 La121 2.928 . S
C131 C132 1.503 . S
C131 O146 1.261 . S
C131 O147 1.243 . S
C132 C131 1.503 . S
C132 C133 1.394 . S
C132 C137 1.373 . S
C133 C132 1.394 . S
C133 C134 1.380 . S
C133 H156 0.930 . S
C134 C133 1.380 . S
C134 C135 1.376 . S
C134 H157 0.930 . S
C135 C134 1.376 . S
C135 C136 1.370 . S
C136 C135 1.370 . S
C136 C137 1.396 . S
C136 H158 0.929 . S
C137 C132 1.373 . S
C137 C136 1.396 . S
C137 H159 0.929 . S
C138 O148 1.240 . S
C138 O149 1.289 . S
C139 O150 1.258 . S
C139 O151 1.256 . S
O140 La120 2.521 . S
O140 C122 1.261 . S
O141 La120 2.628 . S
O141 C122 1.243 . S
O142 La120 2.554 . S
O142 C129 1.240 . S
O143 La120 2.757 . S
O143 La121 2.482 . S
O143 C129 1.289 . S
O144 La120 2.470 . S
O144 C130 1.258 . S
O145 La121 2.503 . S
O145 C130 1.256 . S
O146 La121 2.521 . S
O146 C131 1.261 . S
O147 La121 2.628 . S
O147 C131 1.243 . S
O148 La121 2.554 . S
O148 C138 1.240 . S
O149 La120 2.482 . S
O149 La121 2.757 . S
O149 C138 1.289 . S
O150 La121 2.470 . S
O150 C139 1.258 . S
O151 La120 2.503 . S
O151 C139 1.256 . S
H152 C124 0.930 . S
H153 C125 0.930 . S
H154 C127 0.929 . S
H155 C128 0.929 . S
H156 C133 0.930 . S
H157 C134 0.930 . S
H158 C136 0.929 . S
H159 C137 0.929 . S
La160 C162 2.928 . S
La160 O180 2.521 . S
La160 O181 2.628 . S
La160 O182 2.554 . S
La160 O183 2.757 . S
La160 O184 2.470 . S
La160 O189 2.482 . S
La160 O191 2.503 . S
La161 C171 2.928 . S
La161 O183 2.482 . S
La161 O185 2.503 . S
La161 O186 2.521 . S
La161 O187 2.628 . S
La161 O188 2.554 . S
La161 O189 2.757 . S
La161 O190 2.470 . S
C162 La160 2.928 . S
C162 C163 1.503 . S
C162 O180 1.261 . S
C162 O181 1.243 . S
C163 C162 1.503 . S
C163 C164 1.394 . S
C163 C168 1.373 . S
C164 C163 1.394 . S
C164 C165 1.380 . S
C164 H192 0.930 . S
C165 C164 1.380 . S
C165 C166 1.376 . S
C165 H193 0.930 . S
C166 C165 1.376 . S
C166 C167 1.370 . S
C167 C166 1.370 . S
C167 C168 1.396 . S
C167 H194 0.929 . S
C168 C163 1.373 . S
C168 C167 1.396 . S
C168 H195 0.929 . S
C169 O182 1.240 . S
C169 O183 1.289 . S
C170 O184 1.258 . S
C170 O185 1.256 . S
C171 La161 2.928 . S
C171 C172 1.503 1_554 S
C171 O186 1.261 . S
C171 O187 1.243 . S
C172 C171 1.503 1_556 S
C172 C173 1.394 . S
C172 C177 1.373 . S
C173 C172 1.394 . S
C173 C174 1.380 . S
C173 H196 0.930 1_556 S
C174 C173 1.380 . S
C174 C175 1.376 . S
C174 H197 0.930 . S
C175 C174 1.376 . S
C175 C176 1.370 . S
C176 C175 1.370 . S
C176 C177 1.396 . S
C176 H198 0.929 . S
C177 C172 1.373 . S
C177 C176 1.396 . S
C177 H199 0.929 . S
C178 O188 1.240 . S
C178 O189 1.289 . S
C179 O190 1.258 . S
C179 O191 1.256 . S
O180 La160 2.521 . S
O180 C162 1.261 . S
O181 La160 2.628 . S
O181 C162 1.243 . S
O182 La160 2.554 . S
O182 C169 1.240 . S
O183 La160 2.757 . S
O183 La161 2.482 . S
O183 C169 1.289 . S
O184 La160 2.470 . S
O184 C170 1.258 . S
O185 La161 2.503 . S
O185 C170 1.256 . S
O186 La161 2.521 . S
O186 C171 1.261 . S
O187 La161 2.628 . S
O187 C171 1.243 . S
O188 La161 2.554 . S
O188 C178 1.240 . S
O189 La160 2.482 . S
O189 La161 2.757 . S
O189 C178 1.289 . S
O190 La161 2.470 . S
O190 C179 1.258 . S
O191 La160 2.503 . S
O191 C179 1.256 . S
H192 C164 0.930 . S
H193 C165 0.930 . S
H194 C167 0.929 . S
H195 C168 0.929 . S
H196 C173 0.930 1_554 S
H197 C174 0.930 . S
H198 C176 0.929 . S
H199 C177 0.929 . S
La200 C202 2.928 . S
La200 O220 2.521 . S
La200 O221 2.628 . S
La200 O222 2.554 . S
La200 O223 2.757 . S
La200 O224 2.470 . S
La200 O229 2.482 . S
La200 O231 2.503 . S
La201 C211 2.928 . S
La201 O223 2.482 . S
La201 O225 2.503 . S
La201 O226 2.521 . S
La201 O227 2.628 . S
La201 O228 2.554 . S
La201 O229 2.757 . S
La201 O230 2.470 . S
C202 La200 2.928 . S
C202 C203 1.503 . S
C202 O220 1.261 . S
C202 O221 1.243 . S
C203 C202 1.503 . S
C203 C204 1.394 . S
C203 C208 1.373 . S
C204 C203 1.394 . S
C204 C205 1.380 . S
C204 H232 0.930 . S
C205 C204 1.380 . S
C205 C206 1.376 . S
C205 H233 0.930 . S
C206 C205 1.376 . S
C206 C207 1.370 . S
C207 C206 1.370 . S
C207 C208 1.396 . S
C207 H234 0.929 . S
C208 C203 1.373 . S
C208 C207 1.396 . S
C208 H235 0.929 . S
C209 O222 1.240 . S
C209 O223 1.289 . S
C210 O224 1.258 . S
C210 O225 1.256 . S
C211 La201 2.928 . S
C211 C212 1.503 1_556 S
C211 O226 1.261 . S
C211 O227 1.243 . S
C212 C211 1.503 1_554 S
C212 C213 1.394 . S
C212 C217 1.373 . S
C213 C212 1.394 . S
C213 C214 1.380 . S
C213 H236 0.930 . S
C214 C213 1.380 . S
C214 C215 1.376 . S
C214 H237 0.930 . S
C215 C214 1.376 . S
C215 C216 1.370 . S
C216 C215 1.370 . S
C216 C217 1.396 . S
C216 H238 0.929 . S
C217 C212 1.373 . S
C217 C216 1.396 . S
C217 H239 0.929 . S
C218 O228 1.240 . S
C218 O229 1.289 . S
C219 O230 1.258 . S
C219 O231 1.256 . S
O220 La200 2.521 . S
O220 C202 1.261 . S
O221 La200 2.628 . S
O221 C202 1.243 . S
O222 La200 2.554 . S
O222 C209 1.240 . S
O223 La200 2.757 . S
O223 La201 2.482 . S
O223 C209 1.289 . S
O224 La200 2.470 . S
O224 C210 1.258 . S
O225 La201 2.503 . S
O225 C210 1.256 . S
O226 La201 2.521 . S
O226 C211 1.261 . S
O227 La201 2.628 . S
O227 C211 1.243 . S
O228 La201 2.554 . S
O228 C218 1.240 . S
O229 La200 2.482 . S
O229 La201 2.757 . S
O229 C218 1.289 . S
O230 La201 2.470 . S
O230 C219 1.258 . S
O231 La200 2.503 . S
O231 C219 1.256 . S
H232 C204 0.930 . S
H233 C205 0.930 . S
H234 C207 0.929 . S
H235 C208 0.929 . S
H236 C213 0.930 . S
H237 C214 0.930 . S
H238 C216 0.929 . S
H239 C217 0.929 . S
La240 C242 2.928 . S
La240 O260 2.521 . S
La240 O261 2.628 . S
La240 O262 2.554 . S
La240 O263 2.757 1_556 S
La240 O264 2.470 . S
La240 O269 2.482 . S
La240 O271 2.503 1_556 S
La241 C251 2.928 . S
La241 O263 2.482 . S
La241 O265 2.503 1_554 S
La241 O266 2.521 . S
La241 O267 2.628 . S
La241 O268 2.554 . S
La241 O269 2.757 1_554 S
La241 O270 2.470 . S
C242 La240 2.928 . S
C242 C243 1.503 . S
C242 O260 1.261 . S
C242 O261 1.243 . S
C243 C242 1.503 . S
C243 C244 1.394 . S
C243 C248 1.373 . S
C244 C243 1.394 . S
C244 C245 1.380 . S
C244 H272 0.930 . S
C245 C244 1.380 . S
C245 C246 1.376 . S
C245 H273 0.930 . S
C246 C245 1.376 . S
C246 C247 1.370 . S
C247 C246 1.370 . S
C247 C248 1.396 . S
C247 H274 0.929 . S
C248 C243 1.373 . S
C248 C247 1.396 . S
C248 H275 0.929 . S
C249 O262 1.240 1_554 S
C249 O263 1.289 . S
C250 O264 1.258 . S
C250 O265 1.256 . S
C251 La241 2.928 . S
C251 C252 1.503 . S
C251 O266 1.261 . S
C251 O267 1.243 . S
C252 C251 1.503 . S
C252 C253 1.394 . S
C252 C257 1.373 . S
C253 C252 1.394 . S
C253 C254 1.380 . S
C253 H276 0.930 . S
C254 C253 1.380 . S
C254 C255 1.376 . S
C254 H277 0.930 . S
C255 C254 1.376 . S
C255 C256 1.370 . S
C256 C255 1.370 . S
C256 C257 1.396 . S
C256 H278 0.929 . S
C257 C252 1.373 . S
C257 C256 1.396 . S
C257 H279 0.929 . S
C258 O268 1.240 1_556 S
C258 O269 1.289 . S
C259 O270 1.258 . S
C259 O271 1.256 . S
O260 La240 2.521 . S
O260 C242 1.261 . S
O261 La240 2.628 . S
O261 C242 1.243 . S
O262 La240 2.554 . S
O262 C249 1.240 1_556 S
O263 La240 2.757 1_554 S
O263 La241 2.482 . S
O263 C249 1.289 . S
O264 La240 2.470 . S
O264 C250 1.258 . S
O265 La241 2.503 1_556 S
O265 C250 1.256 . S
O266 La241 2.521 . S
O266 C251 1.261 . S
O267 La241 2.628 . S
O267 C251 1.243 . S
O268 La241 2.554 . S
O268 C258 1.240 1_554 S
O269 La240 2.482 . S
O269 La241 2.757 1_556 S
O269 C258 1.289 . S
O270 La241 2.470 . S
O270 C259 1.258 . S
O271 La240 2.503 1_554 S
O271 C259 1.256 . S
H272 C244 0.930 . S
H273 C245 0.930 . S
H274 C247 0.929 . S
H275 C248 0.929 . S
H276 C253 0.930 . S
H277 C254 0.930 . S
H278 C256 0.929 . S
H279 C257 0.929 . S
La280 C282 2.928 1_455 S
La280 O300 2.521 1_455 S
La280 O301 2.628 . S
La280 O302 2.554 1_455 S
La280 O303 2.757 1_455 S
La280 O304 2.470 1_455 S
La280 O309 2.482 . S
La280 O311 2.503 . S
La281 C291 2.928 1_655 S
La281 O303 2.482 . S
La281 O305 2.503 . S
La281 O306 2.521 1_655 S
La281 O307 2.628 . S
La281 O308 2.554 1_655 S
La281 O309 2.757 1_655 S
La281 O310 2.470 1_655 S
C282 La280 2.928 1_655 S
C282 C283 1.503 . S
C282 O300 1.261 . S
C282 O301 1.243 1_655 S
C283 C282 1.503 . S
C283 C284 1.394 . S
C283 C288 1.373 . S
C284 C283 1.394 . S
C284 C285 1.380 . S
C284 H312 0.930 . S
C285 C284 1.380 . S
C285 C286 1.376 . S
C285 H313 0.930 . S
C286 C285 1.376 . S
C286 C287 1.370 . S
C287 C286 1.370 . S
C287 C288 1.396 . S
C287 H314 0.929 . S
C288 C283 1.373 . S
C288 C287 1.396 . S
C288 H315 0.929 1_655 S
C289 O302 1.240 . S
C289 O303 1.289 . S
C290 O304 1.258 . S
C290 O305 1.256 . S
C291 La281 2.928 1_455 S
C291 C292 1.503 . S
C291 O306 1.261 . S
C291 O307 1.243 1_455 S
C292 C291 1.503 . S
C292 C293 1.394 . S
C292 C297 1.373 . S
C293 C292 1.394 . S
C293 C294 1.380 . S
C293 H316 0.930 . S
C294 C293 1.380 . S
C294 C295 1.376 . S
C294 H317 0.930 . S
C295 C294 1.376 . S
C295 C296 1.370 . S
C296 C295 1.370 . S
C296 C297 1.396 . S
C296 H318 0.929 . S
C297 C292 1.373 . S
C297 C296 1.396 . S
C297 H319 0.929 1_455 S
C298 O308 1.240 . S
C298 O309 1.289 . S
C299 O310 1.258 . S
C299 O311 1.256 . S
O300 La280 2.521 1_655 S
O300 C282 1.261 . S
O301 La280 2.628 . S
O301 C282 1.243 1_455 S
O302 La280 2.554 1_655 S
O302 C289 1.240 . S
O303 La280 2.757 1_655 S
O303 La281 2.482 . S
O303 C289 1.289 . S
O304 La280 2.470 1_655 S
O304 C290 1.258 . S
O305 La281 2.503 . S
O305 C290 1.256 . S
O306 La281 2.521 1_455 S
O306 C291 1.261 . S
O307 La281 2.628 . S
O307 C291 1.243 1_655 S
O308 La281 2.554 1_455 S
O308 C298 1.240 . S
O309 La280 2.482 . S
O309 La281 2.757 1_455 S
O309 C298 1.289 . S
O310 La281 2.470 1_455 S
O310 C299 1.258 . S
O311 La280 2.503 . S
O311 C299 1.256 . S
H312 C284 0.930 . S
H313 C285 0.930 . S
H314 C287 0.929 . S
H315 C288 0.929 1_455 S
H316 C293 0.930 . S
H317 C294 0.930 . S
H318 C296 0.929 . S
H319 C297 0.929 1_655 S
C320 C321 1.363 . S
C320 C326 1.379 . S
C320 N328 1.356 . S
C321 C320 1.363 . S
C321 C327 1.363 . S
C322 C323 1.363 . S
C322 C327 1.379 . S
C322 N329 1.356 . S
C323 C322 1.363 . S
C323 C326 1.363 . S
N324 C326 1.356 . S
N324 H336 0.984 . S
N324 H337 0.985 . S
N325 C327 1.356 . S
N325 H330 0.984 . S
N325 H331 0.985 . S
C326 C320 1.379 . S
C326 C323 1.363 . S
C326 N324 1.356 . S
C327 C321 1.363 . S
C327 C322 1.379 . S
C327 N325 1.356 . S
N328 C320 1.356 . S
N328 H334 0.984 . S
N328 H335 0.984 . S
N329 C322 1.356 . S
N329 H332 0.984 . S
N329 H333 0.985 . S
H330 N325 0.984 . S
H331 N325 0.985 . S
H332 N329 0.984 . S
H333 N329 0.985 . S
H334 N328 0.984 . S
H335 N328 0.984 . S
H336 N324 0.984 . S
H337 N324 0.985 . S
C338 C339 1.363 . S
C338 C344 1.379 . S
C338 N346 1.356 . S
C339 C338 1.363 . S
C339 C345 1.363 . S
C340 C341 1.363 . S
C340 C345 1.379 . S
C340 N347 1.356 . S
C341 C340 1.363 . S
C341 C344 1.363 . S
N342 C344 1.356 . S
N342 H354 0.984 . S
N342 H355 0.985 . S
N343 C345 1.356 . S
N343 H348 0.984 . S
N343 H349 0.985 . S
C344 C338 1.379 . S
C344 C341 1.363 . S
C344 N342 1.356 . S
C345 C339 1.363 . S
C345 C340 1.379 . S
C345 N343 1.356 . S
N346 C338 1.356 . S
N346 H352 0.984 . S
N346 H353 0.984 . S
N347 C340 1.356 . S
N347 H350 0.984 . S
N347 H351 0.985 . S
H348 N343 0.984 . S
H349 N343 0.985 . S
H350 N347 0.984 . S
H351 N347 0.985 . S
H352 N346 0.984 . S
H353 N346 0.984 . S
H354 N342 0.984 . S
H355 N342 0.985 . S
C356 C357 1.363 . S
C356 C362 1.379 . S
C356 N364 1.356 . S
C357 C356 1.363 . S
C357 C363 1.363 . S
C358 C359 1.363 . S
C358 C363 1.379 . S
C358 N365 1.356 . S
C359 C358 1.363 . S
C359 C362 1.363 . S
N360 C362 1.356 1_554 S
N360 H372 0.984 . S
N360 H373 0.985 . S
N361 C363 1.356 . S
N361 H366 0.984 . S
N361 H367 0.985 . S
C362 C356 1.379 . S
C362 C359 1.363 . S
C362 N360 1.356 1_556 S
C363 C357 1.363 . S
C363 C358 1.379 . S
C363 N361 1.356 . S
N364 C356 1.356 . S
N364 H370 0.984 . S
N364 H371 0.984 . S
N365 C358 1.356 . S
N365 H368 0.984 . S
N365 H369 0.985 1_565 S
H366 N361 0.984 . S
H367 N361 0.985 . S
H368 N365 0.984 . S
H369 N365 0.985 1_545 S
H370 N364 0.984 . S
H371 N364 0.984 . S
H372 N360 0.984 . S
H373 N360 0.985 . S
C374 C375 1.363 . S
C374 C380 1.379 . S
C374 N382 1.356 . S
C375 C374 1.363 . S
C375 C381 1.363 . S
C376 C377 1.363 . S
C376 C381 1.379 . S
C376 N383 1.356 . S
C377 C376 1.363 . S
C377 C380 1.363 . S
N378 C380 1.356 . S
N378 H390 0.984 . S
N378 H391 0.985 . S
N379 C381 1.356 . S
N379 H384 0.984 . S
N379 H385 0.985 . S
C380 C374 1.379 . S
C380 C377 1.363 . S
C380 N378 1.356 . S
C381 C375 1.363 . S
C381 C376 1.379 . S
C381 N379 1.356 . S
N382 C374 1.356 . S
N382 H388 0.984 . S
N382 H389 0.984 . S
N383 C376 1.356 . S
N383 H386 0.984 . S
N383 H387 0.985 . S
H384 N379 0.984 . S
H385 N379 0.985 . S
H386 N383 0.984 . S
H387 N383 0.985 . S
H388 N382 0.984 . S
H389 N382 0.984 . S
H390 N378 0.984 . S
H391 N378 0.985 . S
C392 C393 1.363 . S
C392 C398 1.379 . S
C392 N400 1.356 . S
C393 C392 1.363 . S
C393 C399 1.363 . S
C394 C395 1.363 . S
C394 C399 1.379 . S
C394 N401 1.356 . S
C395 C394 1.363 . S
C395 C398 1.363 . S
N396 C398 1.356 . S
N396 H408 0.984 . S
N396 H409 0.985 . S
N397 C399 1.356 . S
N397 H402 0.984 . S
N397 H403 0.985 . S
C398 C392 1.379 . S
C398 C395 1.363 . S
C398 N396 1.356 . S
C399 C393 1.363 . S
C399 C394 1.379 . S
C399 N397 1.356 . S
N400 C392 1.356 . S
N400 H406 0.984 . S
N400 H407 0.984 . S
N401 C394 1.356 . S
N401 H404 0.984 . S
N401 H405 0.985 . S
H402 N397 0.984 . S
H403 N397 0.985 . S
H404 N401 0.984 . S
H405 N401 0.985 . S
H406 N400 0.984 . S
H407 N400 0.984 . S
H408 N396 0.984 . S
H409 N396 0.985 . S
C410 C411 1.363 . S
C410 C416 1.379 . S
C410 N418 1.356 . S
C411 C410 1.363 . S
C411 C417 1.363 . S
C412 C413 1.363 . S
C412 C417 1.379 . S
C412 N419 1.356 . S
C413 C412 1.363 . S
C413 C416 1.363 . S
N414 C416 1.356 . S
N414 H426 0.984 . S
N414 H427 0.985 . S
N415 C417 1.356 . S
N415 H420 0.984 . S
N415 H421 0.985 . S
C416 C410 1.379 . S
C416 C413 1.363 . S
C416 N414 1.356 . S
C417 C411 1.363 . S
C417 C412 1.379 . S
C417 N415 1.356 . S
N418 C410 1.356 . S
N418 H424 0.984 . S
N418 H425 0.984 . S
N419 C412 1.356 . S
N419 H422 0.984 . S
N419 H423 0.985 . S
H420 N415 0.984 . S
H421 N415 0.985 . S
H422 N419 0.984 . S
H423 N419 0.985 . S
H424 N418 0.984 . S
H425 N418 0.984 . S
H426 N414 0.984 . S
H427 N414 0.985 . S
C428 C429 1.363 . S
C428 C434 1.379 . S
C428 N436 1.356 . S
C429 C428 1.363 . S
C429 C435 1.363 . S
C430 C431 1.363 . S
C430 C435 1.379 . S
C430 N437 1.351 1_554 S
C431 C430 1.363 . S
C431 C434 1.363 . S
N432 C434 1.356 . S
N432 H444 0.984 1_545 S
N432 H445 0.985 . S
N433 C435 1.356 . S
N433 H438 0.984 . S
N433 H439 0.985 . S
C434 C428 1.379 . S
C434 C431 1.363 . S
C434 N432 1.356 . S
C435 C429 1.363 . S
C435 C430 1.379 . S
C435 N433 1.356 . S
N436 C428 1.356 . S
N436 H442 0.984 . S
N436 H443 0.984 . S
N437 C430 1.351 1_556 S
N437 H440 0.988 . S
N437 H441 0.986 . S
H438 N433 0.984 . S
H439 N433 0.985 . S
H440 N437 0.988 . S
H441 N437 0.986 . S
H442 N436 0.984 . S
H443 N436 0.984 . S
H444 N432 0.984 1_565 S
H445 N432 0.985 . S
C446 C447 1.363 . S
C446 C452 1.379 . S
C446 N454 1.356 . S
C447 C446 1.363 . S
C447 C453 1.363 . S
C448 C449 1.363 . S
C448 C453 1.379 . S
C448 N455 1.356 . S
C449 C448 1.363 . S
C449 C452 1.363 . S
N450 C452 1.356 . S
N450 H462 0.984 . S
N450 H463 0.985 . S
N451 C453 1.356 . S
N451 H456 0.984 . S
N451 H457 0.985 . S
C452 C446 1.379 . S
C452 C449 1.363 . S
C452 N450 1.356 . S
C453 C447 1.363 . S
C453 C448 1.379 . S
C453 N451 1.356 . S
N454 C446 1.356 . S
N454 H460 0.984 . S
N454 H461 0.984 . S
N455 C448 1.356 . S
N455 H458 0.984 . S
N455 H459 0.985 1_565 S
H456 N451 0.984 . S
H457 N451 0.985 . S
H458 N455 0.984 . S
H459 N455 0.985 1_545 S
H460 N454 0.984 . S
H461 N454 0.984 . S
H462 N450 0.984 . S
H463 N450 0.985 . S
C464 C465 1.363 . S
C464 C470 1.379 . S
C464 N472 1.356 . S
C465 C464 1.363 . S
C465 C471 1.363 . S
C466 C467 1.363 . S
C466 C471 1.379 . S
C466 N473 1.356 . S
C467 C466 1.363 . S
C467 C470 1.363 . S
N468 C470 1.356 . S
N468 H480 0.984 . S
N468 H481 0.985 . S
N469 C471 1.356 . S
N469 H474 0.984 . S
N469 H475 0.985 . S
C470 C464 1.379 . S
C470 C467 1.363 . S
C470 N468 1.356 . S
C471 C465 1.363 . S
C471 C466 1.379 . S
C471 N469 1.356 . S
N472 C464 1.356 . S
N472 H478 0.984 . S
N472 H479 0.984 . S
N473 C466 1.356 . S
N473 H476 0.984 . S
N473 H477 0.985 . S
H474 N469 0.984 . S
H475 N469 0.985 . S
H476 N473 0.984 . S
H477 N473 0.985 . S
H478 N472 0.984 . S
H479 N472 0.984 . S
H480 N468 0.984 . S
H481 N468 0.985 . S
C482 C483 1.363 . S
C482 C488 1.379 . S
C482 N490 1.356 . S
C483 C482 1.363 . S
C483 C489 1.363 . S
C484 C485 1.363 . S
C484 C489 1.379 . S
C484 N491 1.356 . S
C485 C484 1.363 . S
C485 C488 1.363 . S
N486 C488 1.356 . S
N486 H498 0.984 . S
N486 H499 0.985 . S
N487 C489 1.356 . S
N487 H492 0.984 . S
N487 H493 0.985 . S
C488 C482 1.379 . S
C488 C485 1.363 . S
C488 N486 1.356 . S
C489 C483 1.363 . S
C489 C484 1.379 . S
C489 N487 1.356 . S
N490 C482 1.356 . S
N490 H496 0.984 . S
N490 H497 0.984 . S
N491 C484 1.356 . S
N491 H494 0.984 1_554 S
N491 H495 0.985 1_554 S
H492 N487 0.984 . S
H493 N487 0.985 . S
H494 N491 0.984 1_556 S
H495 N491 0.985 1_556 S
H496 N490 0.984 . S
H497 N490 0.984 . S
H498 N486 0.984 . S
H499 N486 0.985 . S
C500 C501 1.363 . S
C500 C506 1.379 . S
C500 N508 1.356 . S
C501 C500 1.363 . S
C501 C507 1.363 . S
C502 C503 1.363 . S
C502 C507 1.379 . S
C502 N509 1.356 . S
C503 C502 1.363 . S
C503 C506 1.363 . S
N504 C506 1.356 . S
N504 H516 0.984 . S
N504 H517 0.985 . S
N505 C507 1.356 . S
N505 H510 0.984 . S
N505 H511 0.985 . S
C506 C500 1.379 . S
C506 C503 1.363 . S
C506 N504 1.356 . S
C507 C501 1.363 . S
C507 C502 1.379 . S
C507 N505 1.356 . S
N508 C500 1.356 . S
N508 H514 0.984 . S
N508 H515 0.984 . S
N509 C502 1.356 . S
N509 H512 0.984 . S
N509 H513 0.985 . S
H510 N505 0.984 . S
H511 N505 0.985 . S
H512 N509 0.984 . S
H513 N509 0.985 . S
H514 N508 0.984 . S
H515 N508 0.984 . S
H516 N504 0.984 . S
H517 N504 0.985 . S
C518 C519 1.363 . S
C518 C524 1.379 . S
C518 N526 1.356 . S
C519 C518 1.363 . S
C519 C525 1.363 . S
C520 C521 1.363 . S
C520 C525 1.379 . S
C520 N527 1.356 . S
C521 C520 1.363 . S
C521 C524 1.363 . S
N522 C524 1.356 . S
N522 H534 0.984 . S
N522 H535 0.985 . S
N523 C525 1.356 . S
N523 H528 0.984 . S
N523 H529 0.985 . S
C524 C518 1.379 . S
C524 C521 1.363 . S
C524 N522 1.356 . S
C525 C519 1.363 . S
C525 C520 1.379 . S
C525 N523 1.356 . S
N526 C518 1.356 . S
N526 H532 0.984 . S
N526 H533 0.984 . S
N527 C520 1.356 . S
N527 H530 0.984 . S
N527 H531 0.985 . S
H528 N523 0.984 . S
H529 N523 0.985 . S
H530 N527 0.984 . S
H531 N527 0.985 . S
H532 N526 0.984 . S
H533 N526 0.984 . S
H534 N522 0.984 . S
H535 N522 0.985 . S
C536 C537 1.363 . S
C536 C542 1.379 . S
C536 N544 1.356 . S
C537 C536 1.363 . S
C537 C543 1.363 . S
C538 C539 1.363 . S
C538 C543 1.379 . S
C538 N545 1.356 . S
C539 C538 1.363 . S
C539 C542 1.363 . S
N540 C542 1.356 . S
N540 H552 0.984 . S
N540 H553 0.985 . S
N541 C543 1.356 . S
N541 H546 0.984 . S
N541 H547 0.985 . S
C542 C536 1.379 . S
C542 C539 1.363 . S
C542 N540 1.356 . S
C543 C537 1.363 . S
C543 C538 1.379 . S
C543 N541 1.356 . S
N544 C536 1.356 . S
N544 H550 0.984 . S
N544 H551 0.984 . S
N545 C538 1.356 . S
N545 H548 0.984 . S
N545 H549 0.985 . S
H546 N541 0.984 . S
H547 N541 0.985 . S
H548 N545 0.984 . S
H549 N545 0.985 . S
H550 N544 0.984 . S
H551 N544 0.984 . S
H552 N540 0.984 . S
H553 N540 0.985 . S
C554 C555 1.363 . S
C554 C560 1.379 . S
C554 N562 1.356 . S
C555 C554 1.363 . S
C555 C561 1.363 . S
C556 C557 1.363 . S
C556 C561 1.379 . S
C556 N563 1.356 . S
C557 C556 1.363 . S
C557 C560 1.363 . S
N558 C560 1.356 . S
N558 H570 0.984 . S
N558 H571 0.985 . S
N559 C561 1.356 . S
N559 H564 0.984 . S
N559 H565 0.985 . S
C560 C554 1.379 . S
C560 C557 1.363 . S
C560 N558 1.356 . S
C561 C555 1.363 . S
C561 C556 1.379 . S
C561 N559 1.356 . S
N562 C554 1.356 . S
N562 H568 0.984 . S
N562 H569 0.984 . S
N563 C556 1.356 . S
N563 H566 0.984 . S
N563 H567 0.985 . S
H564 N559 0.984 . S
H565 N559 0.985 . S
H566 N563 0.984 . S
H567 N563 0.985 . S
H568 N562 0.984 . S
H569 N562 0.984 . S
H570 N558 0.984 . S
H571 N558 0.985 . S
C572 C573 1.363 . S
C572 C578 1.379 . S
C572 N580 1.356 . S
C573 C572 1.363 . S
C573 C579 1.363 . S
C574 C575 1.363 . S
C574 C579 1.379 . S
C574 N581 1.356 . S
C575 C574 1.363 . S
C575 C578 1.363 . S
N576 C578 1.356 . S
N576 H588 0.984 . S
N576 H589 0.985 . S
N577 C579 1.356 . S
N577 H582 0.984 . S
N577 H583 0.985 . S
C578 C572 1.379 . S
C578 C575 1.363 . S
C578 N576 1.356 . S
C579 C573 1.363 . S
C579 C574 1.379 . S
C579 N577 1.356 . S
N580 C572 1.356 . S
N580 H586 0.984 . S
N580 H587 0.984 . S
N581 C574 1.356 . S
N581 H584 0.984 . S
N581 H585 0.985 . S
H582 N577 0.984 . S
H583 N577 0.985 . S
H584 N581 0.984 . S
H585 N581 0.985 . S
H586 N580 0.984 . S
H587 N580 0.984 . S
H588 N576 0.984 . S
H589 N576 0.985 . S
C590 C591 1.363 . S
C590 C596 1.379 . S
C590 N598 1.356 . S
C591 C590 1.363 . S
C591 C597 1.363 . S
C592 C593 1.363 . S
C592 C597 1.379 . S
C592 N599 1.356 . S
C593 C592 1.363 . S
C593 C596 1.363 . S
N594 C596 1.356 . S
N594 H606 0.984 . S
N594 H607 0.985 . S
N595 C597 1.356 . S
N595 H600 0.984 . S
N595 H601 0.985 . S
C596 C590 1.379 . S
C596 C593 1.363 . S
C596 N594 1.356 . S
C597 C591 1.363 . S
C597 C592 1.379 . S
C597 N595 1.356 . S
N598 C590 1.356 . S
N598 H604 0.984 . S
N598 H605 0.984 . S
N599 C592 1.356 . S
N599 H602 0.984 . S
N599 H603 0.985 . S
H600 N595 0.984 . S
H601 N595 0.985 . S
H602 N599 0.984 . S
H603 N599 0.985 . S
H604 N598 0.984 . S
H605 N598 0.984 . S
H606 N594 0.984 . S
H607 N594 0.985 . S
C608 C609 1.363 1_565 S
C608 C614 1.379 1_556 S
C608 N616 1.356 . S
C609 C608 1.363 1_545 S
C609 C615 1.363 1_655 S
C610 C611 1.363 1_545 S
C610 C615 1.379 1_554 S
C610 N617 1.356 . S
C611 C610 1.363 1_565 S
C611 C614 1.363 1_455 S
N612 C614 1.356 . S
N612 H624 0.984 . S
N612 H625 0.985 1_655 S
N613 C615 1.356 . S
N613 H618 0.984 1_455 S
N613 H619 0.985 . S
C614 C608 1.379 1_554 S
C614 C611 1.363 1_655 S
C614 N612 1.356 . S
C615 C609 1.363 1_455 S
C615 C610 1.379 1_556 S
C615 N613 1.356 . S
N616 C608 1.356 . S
N616 H622 0.984 . S
N616 H623 0.984 . S
N617 C610 1.356 . S
N617 H620 0.984 . S
N617 H621 0.985 . S
H618 N613 0.984 1_655 S
H619 N613 0.985 . S
H620 N617 0.984 . S
H621 N617 0.985 . S
H622 N616 0.984 . S
H623 N616 0.984 . S
H624 N612 0.984 . S
H625 N612 0.985 1_455 S
C626 C627 1.363 . S
C626 C632 1.379 . S
C626 N634 1.356 . S
C627 C626 1.363 . S
C627 C633 1.363 . S
C628 C629 1.363 . S
C628 C633 1.379 . S
C628 N635 1.356 . S
C629 C628 1.363 . S
C629 C632 1.363 . S
N630 C632 1.356 . S
N630 H642 0.984 . S
N630 H643 0.985 . S
N631 C633 1.356 . S
N631 H636 0.984 . S
N631 H637 0.985 . S
C632 C626 1.379 . S
C632 C629 1.363 . S
C632 N630 1.356 . S
C633 C627 1.363 . S
C633 C628 1.379 . S
C633 N631 1.356 . S
N634 C626 1.356 . S
N634 H640 0.984 . S
N634 H641 0.984 . S
N635 C628 1.356 . S
N635 H638 0.984 . S
N635 H639 0.985 . S
H636 N631 0.984 . S
H637 N631 0.985 . S
H638 N635 0.984 . S
H639 N635 0.985 . S
H640 N634 0.984 . S
H641 N634 0.984 . S
H642 N630 0.984 . S
H643 N630 0.985 . S
C644 C645 1.363 1_565 S
C644 C650 1.379 . S
C644 N652 1.356 . S
C645 C644 1.363 1_545 S
C645 C651 1.363 . S
C646 C647 1.363 1_545 S
C646 C651 1.379 . S
C646 N653 1.356 . S
C647 C646 1.363 1_565 S
C647 C650 1.363 . S
N648 C650 1.356 . S
N648 H660 0.984 . S
N648 H661 0.985 . S
N649 C651 1.356 . S
N649 H654 0.984 . S
N649 H655 0.985 . S
C650 C644 1.379 . S
C650 C647 1.363 . S
C650 N648 1.356 . S
C651 C645 1.363 . S
C651 C646 1.379 . S
C651 N649 1.356 . S
N652 C644 1.356 . S
N652 H658 0.984 . S
N652 H659 0.984 1_565 S
N653 C646 1.356 . S
N653 H656 0.984 1_545 S
N653 H657 0.985 . S
H654 N649 0.984 . S
H655 N649 0.985 . S
H656 N653 0.984 1_565 S
H657 N653 0.985 . S
H658 N652 0.984 . S
H659 N652 0.984 1_545 S
H660 N648 0.984 . S
H661 N648 0.985 . S
C662 C663 1.363 . S
C662 C668 1.379 . S
C662 N670 1.356 . S
C663 C662 1.363 . S
C663 C669 1.363 . S
C664 C665 1.363 . S
C664 C669 1.379 . S
C664 N671 1.356 . S
C665 C664 1.363 . S
C665 C668 1.363 . S
N666 C668 1.356 . S
N666 H678 0.984 . S
N666 H679 0.985 . S
N667 C669 1.356 . S
N667 H672 0.984 . S
N667 H673 0.985 . S
C668 C662 1.379 . S
C668 C665 1.363 . S
C668 N666 1.356 . S
C669 C663 1.363 . S
C669 C664 1.379 . S
C669 N667 1.356 . S
N670 C662 1.356 . S
N670 H676 0.984 . S
N670 H677 0.984 . S
N671 C664 1.356 . S
N671 H674 0.984 . S
N671 H675 0.985 . S
H672 N667 0.984 . S
H673 N667 0.985 . S
H674 N671 0.984 . S
H675 N671 0.985 . S
H676 N670 0.984 . S
H677 N670 0.984 . S
H678 N666 0.984 . S
H679 N666 0.985 . S
C680 C681 1.363 . S
C680 C686 1.379 . S
C680 N688 1.356 . S
C681 C680 1.363 . S
C681 C687 1.363 . S
C682 C683 1.363 . S
C682 C687 1.379 . S
C682 N689 1.356 . S
C683 C682 1.363 . S
C683 C686 1.363 . S
N684 C686 1.356 . S
N684 H696 0.984 . S
N684 H697 0.985 . S
N685 C687 1.356 . S
N685 H690 0.984 . S
N685 H691 0.985 . S
C686 C680 1.379 . S
C686 C683 1.363 . S
C686 N684 1.356 . S
C687 C681 1.363 . S
C687 C682 1.379 . S
C687 N685 1.356 . S
N688 C680 1.356 . S
N688 H694 0.984 . S
N688 H695 0.984 . S
N689 C682 1.356 . S
N689 H692 0.984 . S
N689 H693 0.985 . S
H690 N685 0.984 . S
H691 N685 0.985 . S
H692 N689 0.984 . S
H693 N689 0.985 . S
H694 N688 0.984 . S
H695 N688 0.984 . S
H696 N684 0.984 . S
H697 N684 0.985 . S
C698 C699 1.363 . S
C698 C704 1.379 . S
C698 N706 1.356 . S
C699 C698 1.363 . S
C699 C705 1.363 . S
C700 C701 1.363 . S
C700 C705 1.379 . S
C700 N707 1.356 . S
C701 C700 1.363 . S
C701 C704 1.363 . S
N702 C704 1.356 . S
N702 H714 0.984 . S
N702 H715 0.985 . S
N703 C705 1.356 . S
N703 H708 0.984 . S
N703 H709 0.985 . S
C704 C698 1.379 . S
C704 C701 1.363 . S
C704 N702 1.356 . S
C705 C699 1.363 . S
C705 C700 1.379 . S
C705 N703 1.356 . S
N706 C698 1.356 . S
N706 H712 0.984 . S
N706 H713 0.984 . S
N707 C700 1.356 . S
N707 H710 0.984 . S
N707 H711 0.985 . S
H708 N703 0.984 . S
H709 N703 0.985 . S
H710 N707 0.984 . S
H711 N707 0.985 . S
H712 N706 0.984 . S
H713 N706 0.984 . S
H714 N702 0.984 . S
H715 N702 0.985 . S
C716 C717 1.363 . S
C716 C722 1.379 . S
C716 N724 1.356 . S
C717 C716 1.363 . S
C717 C723 1.363 . S
C718 C719 1.363 . S
C718 C723 1.379 . S
C718 N725 1.356 . S
C719 C718 1.363 . S
C719 C722 1.363 . S
N720 C722 1.356 . S
N720 H732 0.984 . S
N720 H733 0.985 . S
N721 C723 1.356 . S
N721 H726 0.984 . S
N721 H727 0.985 . S
C722 C716 1.379 . S
C722 C719 1.363 . S
C722 N720 1.356 . S
C723 C717 1.363 . S
C723 C718 1.379 . S
C723 N721 1.356 . S
N724 C716 1.356 . S
N724 H730 0.984 . S
N724 H731 0.984 . S
N725 C718 1.356 . S
N725 H728 0.984 . S
N725 H729 0.985 . S
H726 N721 0.984 . S
H727 N721 0.985 . S
H728 N725 0.984 . S
H729 N725 0.985 . S
H730 N724 0.984 . S
H731 N724 0.984 . S
H732 N720 0.984 . S
H733 N720 0.985 . S
C734 C735 1.363 1_455 S
C734 C740 1.379 . S
C734 N742 1.356 . S
C735 C734 1.363 1_655 S
C735 C741 1.363 1_556 S
C736 C737 1.363 1_655 S
C736 C741 1.379 . S
C736 N743 1.356 . S
C737 C736 1.363 1_455 S
C737 C740 1.363 1_554 S
N738 C740 1.356 . S
N738 H750 0.984 . S
N738 H751 0.985 1_556 S
N739 C741 1.356 . S
N739 H744 0.984 1_554 S
N739 H745 0.985 . S
C740 C734 1.379 . S
C740 C737 1.363 1_556 S
C740 N738 1.356 . S
C741 C735 1.363 1_554 S
C741 C736 1.379 . S
C741 N739 1.356 . S
N742 C734 1.356 . S
N742 H748 0.984 . S
N742 H749 0.984 1_455 S
N743 C736 1.356 . S
N743 H746 0.984 1_655 S
N743 H747 0.985 . S
H744 N739 0.984 1_556 S
H745 N739 0.985 . S
H746 N743 0.984 1_455 S
H747 N743 0.985 . S
H748 N742 0.984 . S
H749 N742 0.984 1_655 S
H750 N738 0.984 . S
H751 N738 0.985 1_554 S
C321 C10 1.569 . S
C323 C129 1.549 . S
C339 C9 1.052 . S
C341 C49 1.053 . S
C357 C50 1.569 . S
C359 C89 1.554 . S
C375 C90 1.980 . S
C377 C130 1.977 . S
C393 C19 1.569 . S
C395 C218 1.554 . S
C411 C18 1.052 . S
C413 C178 1.051 . S
C429 C179 1.569 . S
C431 C98 1.549 . S
C447 C219 1.980 . S
C449 C99 1.983 . S
C465 C250 1.568 . S
C467 C209 1.553 . S
C483 C169 1.052 . S
C485 C249 1.051 . S
C501 C289 1.552 . S
C503 C170 1.569 . S
C519 C210 1.980 . S
C521 C290 1.981 . S
C537 C138 1.552 . S
C539 C259 1.567 . S
C555 C258 1.052 . S
C557 C58 1.053 . S
C573 C59 1.569 . S
C575 C298 1.551 . S
C591 C139 1.980 . S
C593 C299 1.979 . S
C609 C15 1.507 . S
C611 C6 1.507 . S
C627 C55 1.507 . S
C629 C46 1.507 . S
C645 C95 1.929 . S
C647 C86 1.929 . S
C663 C126 1.929 . S
C665 C135 1.929 . S
C681 C175 1.507 . S
C683 C166 1.507 . S
C699 C206 1.929 . S
C701 C215 1.929 . S
C717 C246 1.507 . S
C719 C255 1.507 . S
C735 C286 1.929 . S
C737 C295 1.929 . S
