# Generated by pormake.
# Topology fcp, (5)-cn, num edge types: 1
# Building blocks:
#     Node 0, Type 0, BuildingBlock: XOMCOT_clean_sbu_0, # of connection points: 5
#     Node 1, Type 0, BuildingBlock: XOMCOT_clean_sbu_0, # of connection points: 5
#     Node 2, Type 0, BuildingBlock: XOMCOT_clean_sbu_0, # of connection points: 5
#     Node 3, Type 0, BuildingBlock: XOMCOT_clean_sbu_0, # of connection points: 5
#     Node 4, Type 0, BuildingBlock: XOMCOT_clean_sbu_0, # of connection points: 5
#     Node 5, Type 0, BuildingBlock: XOMCOT_clean_sbu_0, # of connection points: 5
#     Node 6, Type 0, BuildingBlock: XOMCOT_clean_sbu_0, # of connection points: 5
#     Node 7, Type 0, BuildingBlock: XOMCOT_clean_sbu_0, # of connection points: 5
#     Node 8, Type 0, BuildingBlock: XOMCOT_clean_sbu_0, # of connection points: 5
#     Node 9, Type 0, BuildingBlock: XOMCOT_clean_sbu_0, # of connection points: 5
#     Node 10, Type 0, BuildingBlock: XOMCOT_clean_sbu_0, # of connection points: 5
#     Node 11, Type 0, BuildingBlock: XOMCOT_clean_sbu_0, # of connection points: 5
#     Node 12, Type 0, BuildingBlock: XOMCOT_clean_sbu_0, # of connection points: 5
#     Node 13, Type 0, BuildingBlock: XOMCOT_clean_sbu_0, # of connection points: 5
#     Node 14, Type 0, BuildingBlock: XOMCOT_clean_sbu_0, # of connection points: 5
#     Node 15, Type 0, BuildingBlock: XOMCOT_clean_sbu_0, # of connection points: 5
#     Node 16, Type 0, BuildingBlock: XOMCOT_clean_sbu_0, # of connection points: 5
#     Node 17, Type 0, BuildingBlock: XOMCOT_clean_sbu_0, # of connection points: 5
#     Node 18, Type 0, BuildingBlock: XOMCOT_clean_sbu_0, # of connection points: 5
#     Node 19, Type 0, BuildingBlock: XOMCOT_clean_sbu_0, # of connection points: 5
#     Node 20, Type 0, BuildingBlock: XOMCOT_clean_sbu_0, # of connection points: 5
#     Node 21, Type 0, BuildingBlock: XOMCOT_clean_sbu_0, # of connection points: 5
#     Node 22, Type 0, BuildingBlock: XOMCOT_clean_sbu_0, # of connection points: 5
#     Node 23, Type 0, BuildingBlock: XOMCOT_clean_sbu_0, # of connection points: 5
#     Edge 24, Type (0, 0), BuildingBlock: EZIPEK_clean_linker_0, # of connection points: 2
#     Edge 25, Type (0, 0), BuildingBlock: EZIPEK_clean_linker_0, # of connection points: 2
#     Edge 26, Type (0, 0), BuildingBlock: EZIPEK_clean_linker_0, # of connection points: 2
#     Edge 27, Type (0, 0), BuildingBlock: EZIPEK_clean_linker_0, # of connection points: 2
#     Edge 28, Type (0, 0), BuildingBlock: EZIPEK_clean_linker_0, # of connection points: 2
#     Edge 29, Type (0, 0), BuildingBlock: EZIPEK_clean_linker_0, # of connection points: 2
#     Edge 30, Type (0, 0), BuildingBlock: EZIPEK_clean_linker_0, # of connection points: 2
#     Edge 31, Type (0, 0), BuildingBlock: EZIPEK_clean_linker_0, # of connection points: 2
#     Edge 32, Type (0, 0), BuildingBlock: EZIPEK_clean_linker_0, # of connection points: 2
#     Edge 33, Type (0, 0), BuildingBlock: EZIPEK_clean_linker_0, # of connection points: 2
#     Edge 34, Type (0, 0), BuildingBlock: EZIPEK_clean_linker_0, # of connection points: 2
#     Edge 35, Type (0, 0), BuildingBlock: EZIPEK_clean_linker_0, # of connection points: 2
#     Edge 36, Type (0, 0), BuildingBlock: EZIPEK_clean_linker_0, # of connection points: 2
#     Edge 37, Type (0, 0), BuildingBlock: EZIPEK_clean_linker_0, # of connection points: 2
#     Edge 38, Type (0, 0), BuildingBlock: EZIPEK_clean_linker_0, # of connection points: 2
#     Edge 39, Type (0, 0), BuildingBlock: EZIPEK_clean_linker_0, # of connection points: 2
#     Edge 40, Type (0, 0), BuildingBlock: EZIPEK_clean_linker_0, # of connection points: 2
#     Edge 41, Type (0, 0), BuildingBlock: EZIPEK_clean_linker_0, # of connection points: 2
#     Edge 42, Type (0, 0), BuildingBlock: EZIPEK_clean_linker_0, # of connection points: 2
#     Edge 43, Type (0, 0), BuildingBlock: EZIPEK_clean_linker_0, # of connection points: 2
#     Edge 44, Type (0, 0), BuildingBlock: EZIPEK_clean_linker_0, # of connection points: 2
#     Edge 45, Type (0, 0), BuildingBlock: EZIPEK_clean_linker_0, # of connection points: 2
#     Edge 46, Type (0, 0), BuildingBlock: EZIPEK_clean_linker_0, # of connection points: 2
#     Edge 47, Type (0, 0), BuildingBlock: EZIPEK_clean_linker_0, # of connection points: 2
#     Edge 48, Type (0, 0), BuildingBlock: EZIPEK_clean_linker_0, # of connection points: 2
#     Edge 49, Type (0, 0), BuildingBlock: EZIPEK_clean_linker_0, # of connection points: 2
#     Edge 50, Type (0, 0), BuildingBlock: EZIPEK_clean_linker_0, # of connection points: 2
#     Edge 51, Type (0, 0), BuildingBlock: EZIPEK_clean_linker_0, # of connection points: 2
#     Edge 52, Type (0, 0), BuildingBlock: EZIPEK_clean_linker_0, # of connection points: 2
#     Edge 53, Type (0, 0), BuildingBlock: EZIPEK_clean_linker_0, # of connection points: 2
#     Edge 54, Type (0, 0), BuildingBlock: EZIPEK_clean_linker_0, # of connection points: 2
#     Edge 55, Type (0, 0), BuildingBlock: EZIPEK_clean_linker_0, # of connection points: 2
#     Edge 56, Type (0, 0), BuildingBlock: EZIPEK_clean_linker_0, # of connection points: 2
#     Edge 57, Type (0, 0), BuildingBlock: EZIPEK_clean_linker_0, # of connection points: 2
#     Edge 58, Type (0, 0), BuildingBlock: EZIPEK_clean_linker_0, # of connection points: 2
#     Edge 59, Type (0, 0), BuildingBlock: EZIPEK_clean_linker_0, # of connection points: 2
#     Edge 60, Type (0, 0), BuildingBlock: EZIPEK_clean_linker_0, # of connection points: 2
#     Edge 61, Type (0, 0), BuildingBlock: EZIPEK_clean_linker_0, # of connection points: 2
#     Edge 62, Type (0, 0), BuildingBlock: EZIPEK_clean_linker_0, # of connection points: 2
#     Edge 63, Type (0, 0), BuildingBlock: EZIPEK_clean_linker_0, # of connection points: 2
#     Edge 64, Type (0, 0), BuildingBlock: EZIPEK_clean_linker_0, # of connection points: 2
#     Edge 65, Type (0, 0), BuildingBlock: EZIPEK_clean_linker_0, # of connection points: 2
#     Edge 66, Type (0, 0), BuildingBlock: EZIPEK_clean_linker_0, # of connection points: 2
#     Edge 67, Type (0, 0), BuildingBlock: EZIPEK_clean_linker_0, # of connection points: 2
#     Edge 68, Type (0, 0), BuildingBlock: EZIPEK_clean_linker_0, # of connection points: 2
#     Edge 69, Type (0, 0), BuildingBlock: EZIPEK_clean_linker_0, # of connection points: 2
#     Edge 70, Type (0, 0), BuildingBlock: EZIPEK_clean_linker_0, # of connection points: 2
#     Edge 71, Type (0, 0), BuildingBlock: EZIPEK_clean_linker_0, # of connection points: 2
#     Edge 72, Type (0, 0), BuildingBlock: EZIPEK_clean_linker_0, # of connection points: 2
#     Edge 73, Type (0, 0), BuildingBlock: EZIPEK_clean_linker_0, # of connection points: 2
#     Edge 74, Type (0, 0), BuildingBlock: EZIPEK_clean_linker_0, # of connection points: 2
#     Edge 75, Type (0, 0), BuildingBlock: EZIPEK_clean_linker_0, # of connection points: 2
#     Edge 76, Type (0, 0), BuildingBlock: EZIPEK_clean_linker_0, # of connection points: 2
#     Edge 77, Type (0, 0), BuildingBlock: EZIPEK_clean_linker_0, # of connection points: 2
#     Edge 78, Type (0, 0), BuildingBlock: EZIPEK_clean_linker_0, # of connection points: 2
#     Edge 79, Type (0, 0), BuildingBlock: EZIPEK_clean_linker_0, # of connection points: 2
#     Edge 80, Type (0, 0), BuildingBlock: EZIPEK_clean_linker_0, # of connection points: 2
#     Edge 81, Type (0, 0), BuildingBlock: EZIPEK_clean_linker_0, # of connection points: 2
#     Edge 82, Type (0, 0), BuildingBlock: EZIPEK_clean_linker_0, # of connection points: 2
#     Edge 83, Type (0, 0), BuildingBlock: EZIPEK_clean_linker_0, # of connection points: 2
# Relax obj value: 0.051
# Max RMSD: 0.111
# Mean RMSD: 0.111
data_MOF--net-fcp--node1-XOMCOT_clean_sbu_0--edge1-EZIPEK_clean_linker_0
_symmetry_space_group_name_H-M    P1
_symmetry_Int_Tables_number       1
_symmetry_cell_setting            triclinic
loop_
_symmetry_equiv_pos_as_xyz
'x, y, z'
_cell_length_a     39.35686
_cell_length_b     39.310584
_cell_length_c     39.290131
_cell_angle_alpha  90.038186
_cell_angle_beta   89.846492
_cell_angle_gamma 90.118138
loop_
_atom_site_label
_atom_site_type_symbol
_atom_site_fract_x
_atom_site_fract_y
_atom_site_fract_z
_atom_type_partial_charge
Co0 Co 0.08177 0.33664 0.18974 0.0
C1 C 0.14066 0.31154 0.14711 0.0
C2 C 0.15496 0.32692 0.19743 0.0
C3 C 0.18298 0.31326 0.1817 0.0
N4 N 0.12825 0.32603 0.17588 0.0
N5 N 0.1739 0.30349 0.15025 0.0
H6 H 0.1259 0.30523 0.12494 0.0
H7 H 0.15392 0.33585 0.22341 0.0
C8 C 0.12063 0.40276 0.19439 0.0
O9 O 0.14065 0.39391 0.16912 0.0
N10 N 0.0365 0.34698 0.20519 0.0
C11 C 1.00641 0.3386 0.19114 0.0
C12 C 0.98076 0.34953 0.21261 0.0
C13 C 0.02897 0.36257 0.23481 0.0
N14 N 0.99522 0.36447 0.23989 0.0
C15 C 0.06253 0.32203 0.12129 0.0
C16 C 0.04819 0.38774 0.10108 0.0
C17 C 0.04256 0.36086 0.0783 0.0
C18 C 0.05004 0.32778 0.08865 0.0
C19 C 0.06117 0.3809 0.13363 0.0
N20 N 0.06865 0.34831 0.14325 0.0
H21 H 0.06705 0.29609 0.12893 0.0
H22 H 0.0639 0.40175 0.15125 0.0
H23 H 1.00332 0.32489 0.16748 0.0
H24 H 0.04781 0.37151 0.25276 0.0
O25 O 0.07094 0.28847 0.18939 0.0
O26 O 0.09111 0.31664 0.23358 0.0
O27 O 0.09476 0.38474 0.20203 0.0
C28 C 0.08107 0.28786 0.22082 0.0
H29 H 0.20782 0.30956 0.19287 0.0
H30 H 0.95372 0.34608 0.20899 0.0
H31 H 0.04199 0.41361 0.09398 0.0
H32 H 0.04547 0.3064 0.07184 0.0
Co33 Co 0.83714 0.42948 0.34523 0.0
C34 C 0.80278 0.36688 0.37225 0.0
C35 C 0.85288 0.37276 0.3924 0.0
C36 C 0.83851 0.34411 0.40661 0.0
N37 N 0.83088 0.38679 0.37014 0.0
N38 N 0.8071 0.34059 0.39381 0.0
H39 H 0.77923 0.37149 0.35901 0.0
H40 H 0.87715 0.38323 0.39926 0.0
C41 C 0.91545 0.4158 0.34908 0.0
O42 O 0.92116 0.42304 0.38117 0.0
N43 N 0.84328 0.47177 0.32081 0.0
C44 C 0.82717 0.50131 0.32729 0.0
C45 C 0.83788 0.52526 0.30401 0.0
C46 C 0.86353 0.47799 0.29367 0.0
N47 N 0.86069 0.51053 0.28311 0.0
C48 C 0.82228 0.44827 0.41387 0.0
C49 C 0.8767 0.49182 0.42372 0.0
C50 C 0.85373 0.48644 0.45057 0.0
C51 C 0.82615 0.46454 0.44526 0.0
C52 C 0.87171 0.47518 0.39249 0.0
N53 N 0.84532 0.45293 0.38824 0.0
H54 H 0.80058 0.43183 0.41004 0.0
H55 H 0.88901 0.48026 0.37168 0.0
H56 H 0.80883 0.50507 0.34749 0.0
H57 H 0.87976 0.45921 0.28178 0.0
O58 O 0.78798 0.43465 0.34147 0.0
O59 O 0.82116 0.40889 0.30393 0.0
O60 O 0.88603 0.41795 0.33588 0.0
C61 C 0.79084 0.41848 0.31247 0.0
H62 H 0.84997 0.32738 0.42518 0.0
H63 H 0.82959 0.55145 0.30243 0.0
H64 H 0.89805 0.50896 0.42679 0.0
H65 H 0.80765 0.46015 0.46526 0.0
Co66 Co 0.93378 0.67727 0.19344 0.0
C67 C 0.87555 0.70961 0.15753 0.0
C68 C 0.86225 0.6599 0.17525 0.0
C69 C 0.83415 0.67402 0.16001 0.0
N70 N 0.88876 0.68167 0.17278 0.0
N71 N 0.84259 0.70538 0.14921 0.0
H72 H 0.88893 0.73345 0.15436 0.0
H73 H 0.86196 0.63666 0.1897 0.0
C74 C 0.91714 0.60142 0.18593 0.0
O75 O 0.91556 0.60319 0.15261 0.0
N76 N 0.97783 0.67365 0.21436 0.0
C77 C 1.0063 0.69013 0.20462 0.0
C78 C 0.03197 0.68204 0.22689 0.0
C79 C 0.98629 0.65596 0.24248 0.0
N80 N 0.01928 0.66059 0.25043 0.0
C81 C 0.95104 0.69159 0.12345 0.0
C82 C 0.99442 0.63705 0.11415 0.0
C83 C 0.99004 0.66024 0.08749 0.0
C84 C 0.96802 0.68771 0.09235 0.0
C85 C 0.97684 0.64181 0.14487 0.0
N86 N 0.95482 0.66843 0.14906 0.0
H87 H 0.93587 0.71399 0.12723 0.0
H88 H 0.98155 0.62446 0.16564 0.0
H89 H 1.00808 0.70715 0.18306 0.0
H90 H 0.96871 0.64051 0.25704 0.0
O91 O 0.9376 0.72669 0.19545 0.0
O92 O 0.9158 0.69397 0.23583 0.0
O93 O 0.9254 0.62749 0.20355 0.0
C94 C 0.92337 0.72441 0.22542 0.0
H95 H 0.80875 0.66341 0.15959 0.0
H96 H 0.05785 0.6914 0.22618 0.0
H97 H 1.01175 0.61585 0.11144 0.0
H98 H 0.96463 0.70652 0.07251 0.0
Co99 Co 0.19053 0.59571 0.33377 0.0
C100 C 0.21992 0.65419 0.37164 0.0
C101 C 0.17619 0.66883 0.34289 0.0
C102 C 0.19043 0.6976 0.35693 0.0
N103 N 0.19417 0.64137 0.35272 0.0
N104 N 0.21782 0.68822 0.37505 0.0
H105 H 0.24186 0.63995 0.37964 0.0
H106 H 0.156 0.66852 0.32431 0.0
C107 C 0.11704 0.61503 0.34509 0.0
O108 O 0.12289 0.62225 0.37719 0.0
N109 N 0.18766 0.55074 0.31459 0.0
C110 C 0.20763 0.52426 0.32293 0.0
C111 C 0.19875 0.49683 0.30312 0.0
C112 C 0.16679 0.53923 0.2899 0.0
N113 N 0.17325 0.50635 0.2824 0.0
C114 C 0.21124 0.57686 0.40141 0.0
C115 C 0.15177 0.54395 0.4196 0.0
C116 C 0.17789 0.54684 0.44355 0.0
C117 C 0.20814 0.56297 0.43398 0.0
C118 C 0.15619 0.5578 0.38711 0.0
N119 N 0.18481 0.57588 0.379 0.0
H120 H 0.23537 0.5874 0.39397 0.0
H121 H 0.13663 0.55365 0.36841 0.0
H122 H 0.22724 0.52492 0.34215 0.0
H123 H 0.14728 0.55435 0.27785 0.0
O124 O 0.23969 0.59458 0.32934 0.0
O125 O 0.20404 0.61293 0.29 0.0
O126 O 0.14028 0.60193 0.32654 0.0
C127 C 0.23524 0.6079 0.29927 0.0
H128 H 0.18312 0.72362 0.35177 0.0
H129 H 0.2097 0.47161 0.30415 0.0
H130 H 0.12849 0.53056 0.4258 0.0
H131 H 0.22934 0.56446 0.45146 0.0
Co132 Co 0.0937 0.68255 0.84258 0.0
C133 C 0.14945 0.72168 0.87556 0.0
C134 C 0.16828 0.68177 0.84329 0.0
C135 C 0.1956 0.69925 0.8564 0.0
N136 N 0.13936 0.69564 0.85546 0.0
N137 N 0.18367 0.72422 0.87653 0.0
H138 H 0.13232 0.73892 0.88844 0.0
H139 H 0.16958 0.66107 0.82522 0.0
C140 C 0.09705 0.60701 0.82516 0.0
O141 O 0.06443 0.60256 0.83034 0.0
N142 N 0.04784 0.66942 0.82924 0.0
C143 C 0.0214 0.66131 0.84975 0.0
C144 C 0.99431 0.65156 0.83003 0.0
C145 C 0.03594 0.66503 0.79724 0.0
N146 N 1.00349 0.65396 0.79709 0.0
C147 C 0.07106 0.69966 0.90961 0.0
C148 C 0.0733 0.63548 0.93808 0.0
C149 C 0.05906 0.66225 0.95688 0.0
C150 C 0.05884 0.69474 0.94261 0.0
C151 C 0.08557 0.64153 0.90498 0.0
N152 N 0.08317 0.67314 0.89056 0.0
H153 H 0.06956 0.7249 0.89912 0.0
H154 H 0.09613 0.6205 0.89108 0.0
H155 H 0.02134 0.66201 0.87718 0.0
H156 H 0.05049 0.66962 0.7744 0.0
O157 O 0.08046 0.73021 0.84045 0.0
O158 O 0.10218 0.70124 0.79766 0.0
O159 O 0.1116 0.63521 0.83236 0.0
C160 C 0.09135 0.73024 0.80924 0.0
H161 H 0.22217 0.69475 0.8508 0.0
H162 H 0.96941 0.64401 0.83911 0.0
H163 H 0.0743 0.61006 0.94863 0.0
H164 H 0.04835 0.71607 0.95658 0.0
Co165 Co 0.19721 0.43184 0.68309 0.0
C166 C 0.22359 0.36289 0.66433 0.0
C167 C 0.18747 0.38074 0.62797 0.0
C168 C 0.20119 0.35095 0.61597 0.0
N169 N 0.2017 0.38873 0.65829 0.0
N170 N 0.22425 0.34012 0.63862 0.0
H171 H 0.23958 0.36094 0.68644 0.0
H172 H 0.17049 0.39669 0.61365 0.0
C173 C 0.12117 0.41355 0.67684 0.0
O174 O 0.12042 0.41447 0.64351 0.0
N175 N 0.19276 0.47441 0.70726 0.0
C176 C 0.21161 0.50254 0.70178 0.0
C177 C 0.2003 0.52793 0.72305 0.0
C178 C 0.17027 0.48292 0.73185 0.0
N179 N 0.1744 0.51552 0.74183 0.0
C180 C 0.21262 0.45378 0.61608 0.0
C181 C 0.1549 0.49223 0.60504 0.0
C182 C 0.17903 0.48897 0.57889 0.0
C183 C 0.20838 0.46996 0.58488 0.0
C184 C 0.16038 0.47583 0.63621 0.0
N185 N 0.18821 0.45565 0.64075 0.0
H186 H 0.23526 0.43884 0.62024 0.0
H187 H 0.14221 0.47912 0.65657 0.0
H188 H 0.2316 0.50466 0.68296 0.0
H189 H 0.15089 0.46606 0.74172 0.0
O190 O 0.24637 0.43729 0.68406 0.0
O191 O 0.21553 0.41159 0.7238 0.0
O192 O 0.14799 0.42108 0.69348 0.0
C193 C 0.24521 0.42194 0.71339 0.0
H194 H 0.1964 0.33937 0.59143 0.0
H195 H 0.20934 0.55396 0.72373 0.0
H196 H 0.13219 0.50728 0.60135 0.0
H197 H 0.2277 0.46731 0.56536 0.0
Co198 Co 0.93918 0.3472 0.83181 0.0
C199 C 0.87952 0.31209 0.86248 0.0
C200 C 0.87692 0.36619 0.86897 0.0
C201 C 0.84951 0.35175 0.88535 0.0
N202 N 0.89555 0.34139 0.85418 0.0
N203 N 0.85139 0.31788 0.88114 0.0
H204 H 0.88786 0.28695 0.85508 0.0
H205 H 0.883 0.39293 0.8686 0.0
C206 C 0.94449 0.42329 0.8166 0.0
O207 O 0.97717 0.42453 0.82305 0.0
N208 N 0.98341 0.35252 0.81041 0.0
C209 C 0.01343 0.34228 0.8234 0.0
C210 C 0.03895 0.35009 0.80077 0.0
C211 C 0.99104 0.36557 0.77947 0.0
N212 N 0.02486 0.36488 0.77341 0.0
C213 C 0.96902 0.3268 0.89503 0.0
C214 C 0.97375 0.39032 0.92482 0.0
C215 C 0.98516 0.36196 0.94287 0.0
C216 C 0.98247 0.32986 0.92781 0.0
C217 C 0.96024 0.38612 0.89215 0.0
N218 N 0.95886 0.35477 0.87705 0.0
H219 H 0.96703 0.30173 0.88406 0.0
H220 H 0.95027 0.40821 0.87988 0.0
H221 H 0.01686 0.32986 0.8476 0.0
H222 H 0.9724 0.37564 0.76201 0.0
O223 O 0.94404 0.29787 0.82747 0.0
O224 O 0.92058 0.33142 0.78915 0.0
O225 O 0.9272 0.39653 0.82308 0.0
C226 C 0.92885 0.30085 0.79816 0.0
H227 H 0.82953 0.36498 0.89892 0.0
H228 H 0.06587 0.34576 0.80425 0.0
H229 H 0.97478 0.41544 0.93613 0.0
H230 H 0.99067 0.30732 0.94132 0.0
Co231 Co 0.82962 0.59919 0.69246 0.0
C232 C 0.79692 0.65431 0.65306 0.0
C233 C 0.83958 0.67367 0.68057 0.0
C234 C 0.82253 0.70063 0.66657 0.0
N235 N 0.82368 0.6443 0.67227 0.0
N236 N 0.79551 0.68842 0.64973 0.0
H237 H 0.77722 0.63756 0.64388 0.0
H238 H 0.86098 0.67638 0.69709 0.0
C239 C 0.90354 0.62525 0.69461 0.0
O240 O 0.9035 0.63858 0.66397 0.0
N241 N 0.8349 0.55475 0.71252 0.0
C242 C 0.82226 0.52508 0.70084 0.0
C243 C 0.83663 0.49882 0.7191 0.0
C244 C 0.85621 0.54634 0.738 0.0
N245 N 0.85788 0.5124 0.74227 0.0
C246 C 0.81474 0.57639 0.62494 0.0
C247 C 0.87875 0.55304 0.60792 0.0
C248 C 0.85247 0.55011 0.58402 0.0
C249 C 0.82017 0.56186 0.59296 0.0
C250 C 0.87214 0.56761 0.63994 0.0
N251 N 0.8406 0.58002 0.64778 0.0
H252 H 0.78927 0.58386 0.63155 0.0
H253 H 0.89222 0.56798 0.65854 0.0
H254 H 0.80526 0.52262 0.67939 0.0
H255 H 0.87173 0.56437 0.75184 0.0
O256 O 0.78035 0.59372 0.69291 0.0
O257 O 0.81098 0.61578 0.7346 0.0
O258 O 0.8782 0.60842 0.70559 0.0
C259 C 0.78122 0.60787 0.72293 0.0
H260 H 0.82855 0.72732 0.66979 0.0
H261 H 0.8331 0.47187 0.71466 0.0
H262 H 0.90393 0.54357 0.6021 0.0
H263 H 0.7991 0.55938 0.57543 0.0
Co264 Co 0.17992 0.09837 0.33943 0.0
C265 C 0.14267 0.15518 0.306 0.0
C266 C 0.16451 0.17209 0.3527 0.0
C267 C 0.14875 0.19924 0.33766 0.0
N268 N 0.16108 0.14412 0.33291 0.0
N269 N 0.13481 0.1885 0.30845 0.0
H270 H 0.1355 0.13958 0.28457 0.0
H271 H 0.17704 0.17368 0.37668 0.0
C272 C 0.18798 0.12188 0.41356 0.0
O273 O 0.15551 0.1283 0.41779 0.0
N274 N 0.19853 0.05339 0.34564 0.0
C275 C 0.18165 0.02376 0.3423 0.0
C276 C 0.20217 0.99793 0.35341 0.0
C277 C 0.22968 0.04506 0.35732 0.0
N278 N 0.23254 1.01118 0.3624 0.0
C279 C 0.10914 0.08378 0.33564 0.0
C280 C 0.10321 0.04829 0.39608 0.0
C281 C 0.07558 0.04926 0.37369 0.0
C282 C 0.07854 0.06781 0.34358 0.0
C283 C 0.13354 0.0649 0.38719 0.0
N284 N 0.13628 0.08237 0.35715 0.0
H285 H 0.11153 0.09534 0.31099 0.0
H286 H 0.1555 0.06158 0.40324 0.0
H287 H 0.15587 0.02113 0.33318 0.0
H288 H 0.24973 0.06335 0.36206 0.0
O289 O 0.17368 0.08832 0.29123 0.0
O290 O 0.21966 0.11132 0.31382 0.0
O291 O 0.19927 0.11051 0.38538 0.0
C292 C 0.20418 0.1005 0.28672 0.0
H293 H 0.14738 0.22494 0.34751 0.0
H294 H 0.19565 0.97116 0.35404 0.0
H295 H 0.10187 0.0335 0.41929 0.0
H296 H 0.05784 0.06846 0.32546 0.0
Co297 Co 0.59349 0.33949 0.18939 0.0
C298 C 0.65463 0.36704 0.22487 0.0
C299 C 0.65515 0.37844 0.17151 0.0
C300 C 0.68315 0.39346 0.18624 0.0
N301 N 0.63748 0.36132 0.19561 0.0
N302 N 0.68257 0.38617 0.21965 0.0
H303 H 0.64713 0.35762 0.24962 0.0
H304 H 0.64791 0.38067 0.14508 0.0
C305 C 0.59508 0.32133 0.11224 0.0
O306 O 0.56225 0.31797 0.10782 0.0
N307 N 0.54857 0.31916 0.18464 0.0
C308 C 0.52135 0.33105 0.20182 0.0
C309 C 0.49354 0.31129 0.19451 0.0
C310 C 0.53691 0.29139 0.16785 0.0
N311 N 0.50318 0.28677 0.17259 0.0
C312 C 0.57659 0.40817 0.2068 0.0
C313 C 0.54308 0.42429 0.14712 0.0
C314 C 0.54563 0.44892 0.17272 0.0
C315 C 0.56264 0.44067 0.20285 0.0
C316 C 0.55738 0.39212 0.15211 0.0
N317 N 0.57403 0.3844 0.18156 0.0
H318 H 0.58941 0.40194 0.23026 0.0
H319 H 0.5544 0.37343 0.13249 0.0
H320 H 0.52166 0.35305 0.21836 0.0
H321 H 0.55203 0.2752 0.15184 0.0
O322 O 0.58815 0.33505 0.23871 0.0
O323 O 0.61125 0.29664 0.20464 0.0
O324 O 0.60744 0.3322 0.14019 0.0
C325 C 0.6029 0.30546 0.23529 0.0
H326 H 0.70255 0.40833 0.17351 0.0
H327 H 0.46775 0.31566 0.20309 0.0
H328 H 0.52982 0.42981 0.12365 0.0
H329 H 0.5649 0.45912 0.2232 0.0
Co330 Co 0.84246 0.92688 0.34002 0.0
C331 C 0.87395 0.86634 0.30634 0.0
C332 C 0.87915 0.86486 0.36064 0.0
C333 C 0.89458 0.83644 0.34717 0.0
N334 N 0.86572 0.88347 0.33512 0.0
N335 N 0.8911 0.83749 0.31315 0.0
H336 H 0.867 0.87407 0.2809 0.0
H337 H 0.87779 0.87123 0.38736 0.0
C338 C 0.8201 0.92839 0.4146 0.0
O339 O 0.82714 0.96075 0.41861 0.0
N340 N 0.82011 0.9711 0.34419 0.0
C341 C 0.83153 1.00042 0.33029 0.0
C342 C 0.81026 0.02664 0.33942 0.0
C343 C 0.79096 0.9799 0.36034 0.0
N344 N 0.78502 0.01366 0.35854 0.0
C345 C 0.9055 0.96106 0.3276 0.0
C346 C 0.92954 0.96125 0.39363 0.0
C347 C 0.9487 0.97703 0.36811 0.0
C348 C 0.93668 0.97644 0.33471 0.0
C349 C 0.89846 0.94599 0.38539 0.0
N350 N 0.88606 0.9471 0.35288 0.0
H351 H 0.89685 0.96077 0.30158 0.0
H352 H 0.88518 0.93275 0.40527 0.0
H353 H 0.85411 1.003 0.3149 0.0
H354 H 0.77519 0.96269 0.3747 0.0
O355 O 0.8432 0.93318 0.29065 0.0
O356 O 0.80196 0.90854 0.3199 0.0
O357 O 0.82907 0.91262 0.3877 0.0
C358 C 0.81366 0.91803 0.29062 0.0
H359 H 0.9064 0.81599 0.36124 0.0
H360 H 0.8139 0.05338 0.33395 0.0
H361 H 0.93871 0.96046 0.41959 0.0
H362 H 0.95128 0.98788 0.31428 0.0
Co363 Co 0.43812 0.6926 0.18803 0.0
C364 C 0.37541 0.66339 0.22005 0.0
C365 C 0.37803 0.65309 0.16657 0.0
C366 C 0.34895 0.63832 0.1792 0.0
N367 N 0.39497 0.66861 0.19219 0.0
N368 N 0.3475 0.64493 0.2127 0.0
H369 H 0.38074 0.67319 0.24503 0.0
H370 H 0.38561 0.65294 0.14018 0.0
C371 C 0.43679 0.70838 0.11065 0.0
O372 O 0.46778 0.69771 0.10426 0.0
N373 N 0.48163 0.71649 0.184 0.0
C374 C 0.50765 0.71384 0.20626 0.0
C375 C 0.53372 0.73486 0.19624 0.0
C376 C 0.4924 0.73991 0.16108 0.0
N377 N 0.52405 0.75102 0.16774 0.0
C378 C 0.47873 0.63417 0.20126 0.0
C379 C 0.46917 0.59991 0.14071 0.0
C380 C 0.48788 0.58432 0.16665 0.0
C381 C 0.49287 0.60197 0.197 0.0
C382 C 0.45542 0.63248 0.14599 0.0
N383 N 0.46018 0.64937 0.17612 0.0
H384 H 0.48213 0.64627 0.22555 0.0
H385 H 0.44012 0.64315 0.12611 0.0
H386 H 0.50803 0.69775 0.22848 0.0
H387 H 0.47835 0.74879 0.13956 0.0
O388 O 0.44449 0.69157 0.23721 0.0
O389 O 0.41886 0.73272 0.20921 0.0
O390 O 0.42378 0.70536 0.14025 0.0
C391 C 0.4297 0.72106 0.23814 0.0
H392 H 0.32983 0.62467 0.16487 0.0
H393 H 0.55848 0.73701 0.20799 0.0
H394 H 0.46457 0.58671 0.11696 0.0
H395 H 0.50695 0.59052 0.21769 0.0
Co396 Co 0.18032 0.91734 0.68187 0.0
C397 C 0.14015 0.86044 0.71093 0.0
C398 C 0.17992 0.84283 0.678 0.0
C399 C 0.16583 0.81514 0.69425 0.0
N400 N 0.16394 0.87129 0.68859 0.0
N401 N 0.14106 0.82643 0.71504 0.0
H402 H 0.12457 0.87685 0.72639 0.0
H403 H 0.20211 0.84248 0.66171 0.0
C404 C 0.17531 0.88845 0.61083 0.0
O405 O 0.14489 0.8761 0.6171 0.0
N406 N 0.1974 0.96323 0.67492 0.0
C407 C 0.17911 0.99219 0.67372 0.0
C408 C 0.1999 0.01837 0.66389 0.0
C409 C 0.22956 0.97266 0.66691 0.0
N410 N 0.2317 1.0063 0.65994 0.0
C411 C 0.11364 0.93917 0.70181 0.0
C412 C 0.0906 0.95865 0.63841 0.0
C413 C 0.06996 0.96437 0.66689 0.0
C414 C 0.08168 0.95423 0.69883 0.0
C415 C 0.12261 0.94369 0.64253 0.0
N416 N 0.13373 0.93346 0.67391 0.0
H417 H 0.12274 0.93357 0.72702 0.0
H418 H 0.139 0.94265 0.6207 0.0
H419 H 0.15244 0.99472 0.67954 0.0
H420 H 0.2509 0.95536 0.66606 0.0
O421 O 0.18311 0.92303 0.73104 0.0
O422 O 0.22445 0.9034 0.69847 0.0
O423 O 0.19011 0.90752 0.63254 0.0
C424 C 0.21384 0.91097 0.72884 0.0
H425 H 0.17436 0.78903 0.69254 0.0
H426 H 0.19243 0.04469 0.66081 0.0
H427 H 0.08265 0.96703 0.61342 0.0
H428 H 0.06665 0.95894 0.72149 0.0
Co429 Co 0.43609 0.33247 0.83525 0.0
C430 C 0.37938 0.37123 0.805 0.0
C431 C 0.36254 0.34003 0.84664 0.0
C432 C 0.33457 0.35514 0.8322 0.0
N433 N 0.39062 0.35016 0.82961 0.0
N434 N 0.34527 0.37452 0.80607 0.0
H435 H 0.39547 0.38239 0.78559 0.0
H436 H 0.36202 0.32153 0.86697 0.0
C437 C 0.43261 0.32495 0.91357 0.0
O438 O 0.45793 0.34567 0.92041 0.0
N439 N 0.48212 0.3139 0.84017 0.0
C440 C 0.50499 0.30993 0.81457 0.0
C441 C 0.53233 0.29161 0.82599 0.0
C442 C 0.4968 0.29828 0.86708 0.0
N443 N 0.5268 0.28413 0.85882 0.0
C444 C 0.47857 0.39091 0.82813 0.0
C445 C 0.44671 0.43143 0.87608 0.0
C446 C 0.47398 0.44483 0.85729 0.0
C447 C 0.48999 0.42415 0.8332 0.0
C448 C 0.43603 0.39783 0.87019 0.0
N449 N 0.45233 0.37785 0.84682 0.0
H450 H 0.4903 0.37598 0.80836 0.0
H451 H 0.41425 0.3881 0.88392 0.0
H452 H 0.502 0.31883 0.78876 0.0
H453 H 0.48653 0.29672 0.89227 0.0
O454 O 0.44233 0.33343 0.78617 0.0
O455 O 0.42151 0.29023 0.81576 0.0
O456 O 0.42322 0.31962 0.88311 0.0
C457 C 0.4302 0.30252 0.78635 0.0
H458 H 0.30825 0.35077 0.83904 0.0
H459 H 0.55451 0.28423 0.81141 0.0
H460 H 0.43348 0.44698 0.8946 0.0
H461 H 0.51076 0.4339 0.81788 0.0
Co462 Co 0.841 0.10169 0.68208 0.0
C463 C 0.87103 0.16387 0.71451 0.0
C464 C 0.88682 0.15919 0.66261 0.0
C465 C 0.90242 0.18741 0.6764 0.0
N466 N 0.86659 0.14446 0.68625 0.0
N467 N 0.8924 0.19015 0.70897 0.0
H468 H 0.85952 0.15892 0.739 0.0
H469 H 0.89125 0.14981 0.6374 0.0
C470 C 0.84636 0.111 0.60333 0.0
O471 O 0.87848 0.10275 0.59994 0.0
N472 N 0.81579 0.05943 0.67872 0.0
C473 C 0.82226 0.0311 0.69683 0.0
C474 C 0.79995 1.00604 0.68706 0.0
C475 C 0.78944 0.05132 0.65821 0.0
N476 N 0.77943 0.0187 0.66277 0.0
C477 C 0.90965 0.08254 0.69558 0.0
C478 C 0.91528 0.0332 0.64562 0.0
C479 C 0.94282 0.03907 0.66739 0.0
C480 C 0.93976 0.06402 0.69264 0.0
C481 C 0.88544 0.05214 0.64964 0.0
N482 N 0.88319 0.07707 0.67384 0.0
H483 H 0.90733 0.10096 0.71587 0.0
H484 H 0.86401 0.0466 0.6334 0.0
H485 H 0.84252 0.02861 0.71521 0.0
H486 H 0.77835 0.0685 0.63989 0.0
O487 O 0.83873 0.0981 0.73139 0.0
O488 O 0.8005 0.12343 0.69882 0.0
O489 O 0.83143 0.1109 0.63228 0.0
C490 C 0.80989 0.11434 0.72914 0.0
H491 H 0.91994 0.20445 0.66366 0.0
H492 H 0.79977 0.97995 0.69589 0.0
H493 H 0.91668 0.01379 0.62609 0.0
H494 H 0.96041 0.06886 0.71018 0.0
Co495 Co 0.57986 0.68978 0.8399 0.0
C496 C 0.63991 0.66027 0.80324 0.0
C497 C 0.63941 0.64794 0.85639 0.0
C498 C 0.66708 0.63245 0.84167 0.0
N499 N 0.62264 0.66605 0.83251 0.0
N500 N 0.66726 0.64034 0.80842 0.0
H501 H 0.63308 0.67047 0.77865 0.0
H502 H 0.6319 0.64555 0.88276 0.0
C503 C 0.58331 0.71136 0.91478 0.0
O504 O 0.55142 0.72043 0.91643 0.0
N505 N 0.53595 0.71215 0.84655 0.0
C506 C 0.50537 0.69767 0.84045 0.0
C507 C 0.48006 0.72075 0.8474 0.0
C508 C 0.52858 0.74467 0.85538 0.0
N509 N 0.49474 0.75005 0.8571 0.0
C510 C 0.55803 0.62307 0.82152 0.0
C511 C 0.53065 0.60471 0.88384 0.0
C512 C 0.5294 0.58148 0.8568 0.0
C513 C 0.5433 0.59092 0.82537 0.0
C514 C 0.54566 0.63671 0.87892 0.0
N515 N 0.55901 0.64554 0.848 0.0
H516 H 0.56877 0.63004 0.79716 0.0
H517 H 0.54593 0.65448 0.8998 0.0
H518 H 0.50141 0.67194 0.83161 0.0
H519 H 0.54719 0.76386 0.86124 0.0
O520 O 0.5735 0.6948 0.79081 0.0
O521 O 0.59931 0.73196 0.82429 0.0
O522 O 0.59498 0.69573 0.88886 0.0
C523 C 0.5899 0.72358 0.79386 0.0
H524 H 0.68598 0.61707 0.85439 0.0
H525 H 0.45295 0.71616 0.84636 0.0
H526 H 0.51997 0.59819 0.90842 0.0
H527 H 0.54275 0.57353 0.80397 0.0
Co528 Co 0.32666 0.19316 0.09568 0.0
C529 C 0.29218 0.15255 0.14907 0.0
C530 C 0.32175 0.19367 0.16978 0.0
C531 C 0.30456 0.17805 0.196 0.0
N532 N 0.31399 0.17771 0.14046 0.0
N533 N 0.2859 0.15248 0.18289 0.0
H534 H 0.28012 0.13565 0.13099 0.0
H535 H 0.33779 0.21596 0.17177 0.0
C536 C 0.40308 0.20619 0.10208 0.0
O537 O 0.40975 0.19396 0.07168 0.0
N538 N 0.33856 0.20949 0.05036 0.0
C539 C 0.32443 0.19907 0.02084 0.0
C540 C 0.33687 0.21855 0.99457 0.0
C541 C 0.35857 0.23613 0.0415 0.0
N542 N 0.35831 0.24174 1.00768 0.0
C543 C 0.31492 0.12859 0.06405 0.0
C544 C 0.37484 0.09709 0.08221 0.0
C545 C 0.35186 0.07971 0.0612 0.0
C546 C 0.32139 0.0956 0.0527 0.0
C547 C 0.36717 0.13021 0.09337 0.0
N548 N 0.3382 0.14628 0.08288 0.0
H549 H 0.29088 0.13981 0.05747 0.0
H550 H 0.38443 0.1424 0.11075 0.0
H551 H 0.30571 0.17921 0.01825 0.0
H552 H 0.37341 0.25105 0.05891 0.0
O553 O 0.27909 0.19382 0.08288 0.0
O554 O 0.30665 0.23689 0.10563 0.0
O555 O 0.37319 0.2044 0.11456 0.0
C556 C 0.27824 0.22505 0.09364 0.0
H557 H 0.305 0.18533 0.22258 0.0
H558 H 0.33113 0.21562 0.96779 0.0
H559 H 0.3983 0.08511 0.09004 0.0
H560 H 0.30272 0.08262 0.03714 0.0
Co561 Co 0.33166 0.84686 0.93451 0.0
C562 C 0.30479 0.86585 0.86585 0.0
C563 C 0.33921 0.90356 0.8846 0.0
C564 C 0.32551 0.91519 0.85465 0.0
N565 N 0.32607 0.87259 0.89207 0.0
N566 N 0.30347 0.89168 0.84326 0.0
H567 H 0.28979 0.843 0.86341 0.0
H568 H 0.35596 0.91816 0.90068 0.0
C569 C 0.40615 0.85144 0.91073 0.0
O570 O 0.40722 0.88475 0.90963 0.0
N571 N 0.33717 0.82173 0.97648 0.0
C572 C 0.31786 0.82545 1.00462 0.0
C573 C 0.33027 0.80453 0.02969 0.0
C574 C 0.36124 0.79873 0.98484 0.0
N575 N 0.35753 0.78788 0.01726 0.0
C576 C 0.31873 0.91354 0.95988 0.0
C577 C 0.37813 0.92165 0.99656 0.0
C578 C 0.35417 0.94803 0.99641 0.0
C579 C 0.32415 0.94365 0.97797 0.0
C580 C 0.37178 0.89186 0.97784 0.0
N581 N 0.34276 0.88853 0.95908 0.0
H582 H 0.2953 0.9104 0.94593 0.0
H583 H 0.38992 0.87134 0.97878 0.0
H584 H 0.29679 0.8429 1.00704 0.0
H585 H 0.38156 0.79073 0.96813 0.0
O586 O 0.28249 0.84638 0.94142 0.0
O587 O 0.31191 0.80685 0.91405 0.0
O588 O 0.37999 0.83558 0.9216 0.0
C589 C 0.28271 0.81736 0.92537 0.0
H590 H 0.32984 0.93984 0.84312 0.0
H591 H 0.32109 0.80286 0.05564 0.0
H592 H 0.40136 0.92403 1.01108 0.0
H593 H 0.30495 0.96335 0.97768 0.0
Co594 Co 0.34067 0.17738 0.6 0.0
C595 C 0.38224 0.20446 0.65568 0.0
C596 C 0.34782 0.16708 0.67505 0.0
C597 C 0.36289 0.18324 0.70214 0.0
N598 N 0.35975 0.18043 0.64565 0.0
N599 N 0.38407 0.20701 0.68974 0.0
H600 H 0.3945 0.22235 0.63892 0.0
H601 H 0.32817 0.14842 0.67741 0.0
C602 C 0.33481 0.10375 0.62424 0.0
O603 O 0.36428 0.10434 0.63982 0.0
N604 N 0.32228 0.17532 0.55458 0.0
C605 C 0.33936 0.18113 0.52537 0.0
C606 C 0.31882 0.17281 0.49853 0.0
C607 C 0.29108 0.16461 0.54509 0.0
N608 N 0.28847 0.1626 0.51086 0.0
C609 C 0.40834 0.19184 0.57744 0.0
C610 C 0.42411 0.12807 0.55249 0.0
C611 C 0.44767 0.15458 0.54872 0.0
C612 C 0.43961 0.18663 0.56159 0.0
C613 C 0.39301 0.13429 0.56895 0.0
N614 N 0.38555 0.16586 0.58164 0.0
H615 H 0.40183 0.21747 0.58445 0.0
H616 H 0.37448 0.11411 0.5697 0.0
H617 H 0.36515 0.1903 0.52339 0.0
H618 H 0.271 0.15794 0.56276 0.0
O619 O 0.34205 0.22696 0.59733 0.0
O620 O 0.29874 0.19665 0.61649 0.0
O621 O 0.32528 0.12873 0.60605 0.0
C622 C 0.31155 0.2264 0.61035 0.0
H623 H 0.35727 0.1793 0.72884 0.0
H624 H 0.32546 0.1745 0.47182 0.0
H625 H 0.42931 0.10314 0.54198 0.0
H626 H 0.45686 0.20788 0.55819 0.0
Co627 Co 0.69982 0.19252 0.93431 0.0
C628 C 0.73055 0.16542 0.87036 0.0
C629 C 0.67728 0.15427 0.87381 0.0
C630 C 0.68966 0.14017 0.84418 0.0
N631 N 0.7028 0.17062 0.89002 0.0
N632 N 0.723 0.14739 0.84226 0.0
H633 H 0.75586 0.17439 0.87618 0.0
H634 H 0.65148 0.15207 0.88306 0.0
C635 C 0.62324 0.21092 0.93979 0.0
O636 O 0.62102 0.21157 0.97309 0.0
N637 N 0.69765 0.21374 0.97888 0.0
C638 C 0.71382 0.20225 1.00678 0.0
C639 C 0.70552 0.22271 0.03398 0.0
C640 C 0.68113 0.24203 0.98921 0.0
N641 N 0.68422 0.24715 0.02297 0.0
C642 C 0.71881 0.12432 0.94928 0.0
C643 C 0.66285 0.10667 0.98817 0.0
C644 C 0.68838 0.08253 0.98265 0.0
C645 C 0.7166 0.09157 0.96293 0.0
C646 C 0.66597 0.13915 0.97384 0.0
N647 N 0.69363 0.14763 0.95454 0.0
H648 H 0.7409 0.13106 0.93434 0.0
H649 H 0.6464 0.15736 0.97882 0.0
H650 H 0.72947 0.17969 1.00756 0.0
H651 H 0.66527 0.25747 0.97319 0.0
O652 O 0.7492 0.1964 0.93644 0.0
O653 O 0.71443 0.23502 0.91511 0.0
O654 O 0.64976 0.20004 0.92442 0.0
C655 C 0.7453 0.2259 0.92169 0.0
H656 H 0.67544 0.12584 0.82547 0.0
H657 H 0.71217 0.21828 0.06033 0.0
H658 H 0.64081 0.10048 1.00356 0.0
H659 H 0.73686 0.07352 0.95834 0.0
Co660 Co 0.67844 0.84336 0.59972 0.0
C661 C 0.63632 0.81551 0.65571 0.0
C662 C 0.66604 0.85829 0.67221 0.0
C663 C 0.65021 0.84422 0.70012 0.0
N664 N 0.65755 0.84013 0.64436 0.0
N665 N 0.63184 0.81719 0.68976 0.0
H666 H 0.62629 0.79537 0.63991 0.0
H667 H 0.6845 0.87866 0.67285 0.0
C668 C 0.69159 0.92097 0.59865 0.0
O669 O 0.67416 0.92649 0.57073 0.0
N670 N 0.69975 0.84556 0.5544 0.0
C671 C 0.70077 0.81957 0.53168 0.0
C672 C 0.72137 0.82813 0.50478 0.0
C673 C 0.71987 0.86976 0.54021 0.0
N674 N 0.73339 0.85956 0.5104 0.0
C675 C 0.62126 0.83662 0.55574 0.0
C676 C 0.58353 0.8901 0.5814 0.0
C677 C 0.56989 0.87004 0.55523 0.0
C678 C 0.58915 0.84313 0.54239 0.0
C679 C 0.61606 0.88273 0.59405 0.0
N680 N 0.63477 0.85663 0.58069 0.0
H681 H 0.63481 0.81468 0.54661 0.0
H682 H 0.62587 0.89751 0.61505 0.0
H683 H 0.68846 0.79518 0.53461 0.0
H684 H 0.72536 0.89423 0.55081 0.0
O685 O 0.67527 0.79406 0.59506 0.0
O686 O 0.71876 0.82204 0.61723 0.0
O687 O 0.69323 0.89127 0.61148 0.0
C688 C 0.70539 0.79305 0.60878 0.0
H689 H 0.65437 0.85129 0.72642 0.0
H690 H 0.72724 0.81251 0.48284 0.0
H691 H 0.56896 0.91078 0.5923 0.0
H692 H 0.57905 0.82672 0.52267 0.0
Co693 Co 0.69925 0.83692 0.08956 0.0
C694 C 0.7334 0.86893 0.1493 0.0
C695 C 0.67959 0.87735 0.14988 0.0
C696 C 0.69351 0.89342 0.17769 0.0
N697 N 0.70451 0.86154 0.13221 0.0
N698 N 0.72719 0.88795 0.17714 0.0
H699 H 0.75843 0.85998 0.14234 0.0
H700 H 0.65295 0.87729 0.14333 0.0
C701 C 0.62161 0.82497 0.08766 0.0
O702 O 0.6175 0.83202 0.05524 0.0
N703 N 0.69468 0.81305 0.04622 0.0
C704 C 0.71501 0.81782 0.01888 0.0
C705 C 0.70419 0.79731 0.99266 0.0
C706 C 0.6725 0.78861 0.03634 0.0
N707 N 0.67725 0.77929 1.00371 0.0
C708 C 0.72038 0.8958 0.05225 0.0
C709 C 0.65963 0.93088 0.05474 0.0
C710 C 0.68777 0.94613 0.03916 0.0
C711 C 0.71841 0.92829 0.03795 0.0
C712 C 0.66271 0.89835 0.06892 0.0
N713 N 0.69269 0.88084 0.0671 0.0
H714 H 0.74458 0.88303 0.05196 0.0
H715 H 0.64117 0.88825 0.08239 0.0
H716 H 0.73599 0.83548 0.01763 0.0
H717 H 0.65224 0.77847 0.05158 0.0
O718 O 0.74869 0.83161 0.08625 0.0
O719 O 0.71342 0.79514 0.11028 0.0
O720 O 0.65005 0.82962 0.10228 0.0
C721 C 0.74439 0.80298 0.10252 0.0
H722 H 0.67993 0.90702 0.19744 0.0
H723 H 0.71397 0.7971 0.96688 0.0
H724 H 0.63573 0.94437 0.0567 0.0
H725 H 0.7408 0.93963 0.02652 0.0
Co726 Co 0.3374 0.84163 0.4302 0.0
C727 C 0.38101 0.81166 0.37643 0.0
C728 C 0.35644 0.85608 0.35744 0.0
C729 C 0.37178 0.83967 0.33068 0.0
N730 N 0.36144 0.83831 0.38641 0.0
N731 N 0.38686 0.81146 0.34254 0.0
H732 H 0.38894 0.79132 0.393 0.0
H733 H 0.34202 0.87886 0.35476 0.0
C734 C 0.33377 0.91688 0.40868 0.0
O735 O 0.36588 0.91918 0.39978 0.0
N736 N 0.31435 0.84339 0.47343 0.0
C737 C 0.32554 0.82955 0.5027 0.0
C738 C 0.30173 0.83524 0.52771 0.0
C739 C 0.28375 0.85699 0.48076 0.0
N740 N 0.27571 0.85251 0.51386 0.0
C741 C 0.4043 0.82969 0.45613 0.0
C742 C 0.41359 0.89231 0.48686 0.0
C743 C 0.43935 0.86788 0.48916 0.0
C744 C 0.43438 0.83623 0.47374 0.0
C745 C 0.3837 0.88465 0.469 0.0
N746 N 0.37972 0.85395 0.45305 0.0
H747 H 0.40035 0.80455 0.44605 0.0
H748 H 0.36341 0.90305 0.46908 0.0
H749 H 0.34919 0.81591 0.50554 0.0
H750 H 0.26767 0.8696 0.46238 0.0
O751 O 0.33822 0.79201 0.43361 0.0
O752 O 0.29748 0.82259 0.40983 0.0
O753 O 0.3221 0.88988 0.42216 0.0
C754 C 0.30907 0.79292 0.41781 0.0
H755 H 0.37107 0.84734 0.30422 0.0
H756 H 0.30313 0.82707 0.55398 0.0
H757 H 0.41631 0.91675 0.49931 0.0
H758 H 0.45343 0.81649 0.4758 0.0
Co759 Co 0.68565 0.18 0.42949 0.0
C760 C 0.65477 0.21606 0.37057 0.0
C761 C 0.6507 0.16189 0.36538 0.0
C762 C 0.63519 0.17686 0.33779 0.0
N763 N 0.66333 0.18644 0.38585 0.0
N764 N 0.63788 0.2108 0.34125 0.0
H765 H 0.66113 0.24108 0.38009 0.0
H766 H 0.65253 0.13489 0.36996 0.0
C767 C 0.69985 0.10403 0.43456 0.0
O768 O 0.68969 0.10304 0.46642 0.0
N769 N 0.7075 0.17417 0.47345 0.0
C770 C 0.696 0.18472 0.50411 0.0
C771 C 0.71943 0.17646 0.52863 0.0
C772 C 0.73838 0.1606 0.47972 0.0
N773 N 0.74581 0.16109 0.51327 0.0
C774 C 0.62388 0.1967 0.46468 0.0
C775 C 0.59308 0.13361 0.46067 0.0
C776 C 0.57662 0.15975 0.4783 0.0
C777 C 0.59203 0.19176 0.47974 0.0
C778 C 0.62485 0.13974 0.44574 0.0
N779 N 0.6408 0.1705 0.44927 0.0
H780 H 0.63523 0.22166 0.46613 0.0
H781 H 0.63592 0.11974 0.43088 0.0
H782 H 0.67249 0.19788 0.50881 0.0
H783 H 0.75493 0.15037 0.46022 0.0
O784 O 0.68831 0.22917 0.43593 0.0
O785 O 0.72774 0.19758 0.41129 0.0
O786 O 0.6959 0.13097 0.41678 0.0
C787 C 0.71787 0.22751 0.42095 0.0
H788 H 0.62368 0.16394 0.31637 0.0
H789 H 0.71715 0.18088 0.55574 0.0
H790 H 0.58129 0.10881 0.45818 0.0
H791 H 0.57962 0.21273 0.49262 0.0
C792 C 0.15802 0.48737 0.22415 0.0
C793 C 0.15488 0.48409 0.25988 0.0
C794 C 0.12896 0.42811 0.2531 0.0
C795 C 0.13022 0.4318 0.21695 0.0
N796 N 0.13754 0.46937 0.16884 0.0
N797 N 0.12824 0.45697 0.30759 0.0
C798 C 0.14219 0.46284 0.20264 0.0
C799 C 0.13708 0.45634 0.27397 0.0
N800 N 0.17728 0.51303 0.21084 0.0
N801 N 0.12289 0.3972 0.26786 0.0
H802 H 0.13375 0.47771 0.32326 0.0
H803 H 0.11241 0.43881 0.31873 0.0
H804 H 0.11978 0.37476 0.25426 0.0
H805 H 0.12503 0.39301 0.29395 0.0
H806 H 0.18352 0.51464 0.1851 0.0
H807 H 0.18912 0.5313 0.22601 0.0
H808 H 0.14319 0.49276 0.15772 0.0
H809 H 0.12464 0.45272 0.1527 0.0
C810 C 0.97508 0.41309 0.27416 0.0
C811 C 0.97837 0.3775 0.26972 0.0
C812 C 0.94692 0.36728 0.32272 0.0
C813 C 0.94288 0.40292 0.32671 0.0
N814 N 0.95852 0.4599 0.31112 0.0
N815 N 0.97275 0.32067 0.29132 0.0
C816 C 0.95887 0.42589 0.30395 0.0
C817 C 0.96594 0.35457 0.29462 0.0
N818 N 0.98612 0.43438 0.24898 0.0
N819 N 0.93145 0.3457 0.34521 0.0
H820 H 0.98539 0.31068 0.27023 0.0
H821 H 0.96767 0.30264 0.31003 0.0
H822 H 0.9197 0.35432 0.36738 0.0
H823 H 0.92951 0.31953 0.34175 0.0
H824 H 0.98168 0.46047 0.24869 0.0
H825 H 0.99803 0.42548 0.22696 0.0
H826 H 0.97198 0.47804 0.29727 0.0
H827 H 0.94694 0.46965 0.33297 0.0
C828 C 0.85986 0.53245 0.22442 0.0
C829 C 0.87773 0.52689 0.25503 0.0
C830 C 0.92599 0.55927 0.2326 0.0
C831 C 0.90573 0.57046 0.20493 0.0
N832 N 0.85211 0.56761 0.17458 0.0
N833 N 0.9269 0.53606 0.28979 0.0
C834 C 0.87254 0.55647 0.20033 0.0
C835 C 0.9108 0.54018 0.25935 0.0
N836 N 0.83055 0.51472 0.21869 0.0
N837 N 0.95989 0.56669 0.23298 0.0
H838 H 0.91622 0.5222 0.30977 0.0
H839 H 0.94958 0.54825 0.29601 0.0
H840 H 0.97175 0.57967 0.21305 0.0
H841 H 0.97665 0.55696 0.25097 0.0
H842 H 0.81776 0.51477 0.19553 0.0
H843 H 0.82073 0.49745 0.23635 0.0
H844 H 0.82634 0.56182 0.173 0.0
H845 H 0.86003 0.58424 0.1556 0.0
C846 C 0.07015 0.60104 0.30491 0.0
C847 C 0.08467 0.62469 0.32808 0.0
C848 C 0.04634 0.66871 0.3061 0.0
C849 C 0.03756 0.64695 0.27892 0.0
N850 N 0.04245 0.59315 0.25045 0.0
N851 N 0.08708 0.6826 0.34977 0.0
C852 C 0.04939 0.61309 0.27803 0.0
C853 C 0.07241 0.65883 0.32906 0.0
N854 N 0.07626 0.56707 0.30874 0.0
N855 N 0.02977 0.699 0.3096 0.0
H856 H 0.10576 0.67721 0.36756 0.0
H857 H 0.08217 0.70855 0.34785 0.0
H858 H 1.01083 0.70668 0.29273 0.0
H859 H 0.03244 0.71478 0.33073 0.0
H860 H 0.06432 0.54836 0.29425 0.0
H861 H 0.09055 0.55752 0.32889 0.0
H862 H 0.05333 0.56933 0.24654 0.0
H863 H 0.02777 0.60167 0.23012 0.0
C864 C 0.13218 0.56094 0.7477 0.0
C865 C 0.15209 0.53541 0.76301 0.0
C866 C 0.13192 0.55343 0.81941 0.0
C867 C 0.11583 0.58187 0.80415 0.0
N868 N 0.10571 0.61585 0.75396 0.0
N869 N 0.17351 0.5081 0.81316 0.0
C870 C 0.11727 0.58646 0.76831 0.0
C871 C 0.15246 0.53162 0.79886 0.0
N872 N 0.12705 0.56028 0.71334 0.0
N873 N 0.12748 0.5473 0.85334 0.0
H874 H 0.18849 0.49179 0.79854 0.0
H875 H 0.17776 0.5062 0.83922 0.0
H876 H 0.11322 0.56326 0.86905 0.0
H877 H 0.13587 0.5253 0.8654 0.0
H878 H 0.11005 0.57629 0.70093 0.0
H879 H 0.13714 0.54127 0.69777 0.0
H880 H 0.10919 0.62194 0.72839 0.0
H881 H 0.09566 0.63567 0.76826 0.0
C882 C 0.05191 0.35849 0.71716 0.0
C883 C 0.04344 0.37928 0.74528 0.0
C884 C 0.07752 0.42568 0.72141 0.0
C885 C 0.09058 0.40312 0.69647 0.0
N886 N 0.09185 0.34694 0.67149 0.0
N887 N 0.0511 0.43115 0.77679 0.0
C888 C 0.07778 0.36932 0.69409 0.0
C889 C 0.05677 0.41264 0.74795 0.0
N890 N 0.03558 0.32809 0.71313 0.0
N891 N 0.08464 0.45964 0.71939 0.0
H892 H 0.03632 0.42202 0.79684 0.0
H893 H 0.06316 0.4542 0.78191 0.0
H894 H 0.09906 0.46998 0.69962 0.0
H895 H 0.07354 0.4778 0.7352 0.0
H896 H 0.03814 0.31286 0.69159 0.0
H897 H 0.01726 0.31947 0.73035 0.0
H898 H 0.08629 0.32104 0.6712 0.0
H899 H 0.11093 0.3537 0.65432 0.0
C900 C 0.93593 0.46337 0.76694 0.0
C901 C 0.92671 0.45254 0.80034 0.0
C902 C 0.87306 0.48406 0.79606 0.0
C903 C 0.88201 0.49419 0.76275 0.0
N904 N 0.92411 0.50039 0.71889 0.0
N905 N 0.89181 0.46085 0.85 0.0
C906 C 0.91428 0.48613 0.74907 0.0
C907 C 0.8968 0.46546 0.81591 0.0
N908 N 0.96422 0.45048 0.75144 0.0
N909 N 0.84144 0.4916 0.80824 0.0
H910 H 0.90979 0.44898 0.86534 0.0
H911 H 0.87189 0.47176 0.86362 0.0
H912 H 0.82409 0.50607 0.7944 0.0
H913 H 0.8317 0.48189 0.8309 0.0
H914 H 0.96967 0.45356 0.72568 0.0
H915 H 0.98177 0.43527 0.76385 0.0
H916 H 0.9487 0.49888 0.70919 0.0
H917 H 0.90821 0.51604 0.70463 0.0
C918 C 0.98794 0.62479 0.7428 0.0
C919 C 0.98122 0.64951 0.7683 0.0
C920 C 0.9234 0.65555 0.74755 0.0
C921 C 0.93079 0.63386 0.71942 0.0
N922 N 0.972 0.60097 0.68798 0.0
N923 N 0.94679 0.69626 0.78711 0.0
C924 C 0.96388 0.61981 0.71604 0.0
C925 C 0.95034 0.66753 0.76792 0.0
N926 N 0.01607 0.60472 0.74528 0.0
N927 N 0.89077 0.66323 0.75658 0.0
H928 H 0.9668 0.70638 0.80129 0.0
H929 H 0.92551 0.71194 0.7856 0.0
H930 H 0.86957 0.65221 0.74543 0.0
H931 H 0.88481 0.67692 0.77853 0.0
H932 H 0.02071 0.58407 0.72933 0.0
H933 H 0.03332 0.60691 0.76522 0.0
H934 H 0.99661 0.59281 0.68266 0.0
H935 H 0.95451 0.59546 0.66883 0.0
C936 C 0.23333 0.16149 0.43495 0.0
C937 C 0.21284 0.13216 0.44 0.0
C938 C 0.24295 0.12161 0.49358 0.0
C939 C 0.25948 0.15364 0.4903 0.0
N940 N 0.26062 0.20851 0.46326 0.0
N941 N 0.19505 0.08636 0.47694 0.0
C942 C 0.25112 0.17512 0.46285 0.0
C943 C 0.21632 0.11307 0.47049 0.0
N944 N 0.23819 0.17506 0.40336 0.0
N945 N 0.25408 0.09847 0.51688 0.0
H946 H 0.1763 0.07856 0.45993 0.0
H947 H 0.19454 0.07363 0.5002 0.0
H948 H 0.27463 0.103 0.5329 0.0
H949 H 0.24505 0.07356 0.51798 0.0
H950 H 0.25462 0.19544 0.39894 0.0
H951 H 0.23052 0.16285 0.3812 0.0
H952 H 0.25309 0.22568 0.44452 0.0
H953 H 0.27246 0.21955 0.48431 0.0
C954 C 0.6231 0.26779 0.09285 0.0
C955 C 0.61858 0.30331 0.08878 0.0
C956 C 0.66025 0.30259 0.0421 0.0
C957 C 0.66116 0.26654 0.04394 0.0
N958 N 0.63444 0.21501 0.06392 0.0
N959 N 0.63064 0.35471 0.0577 0.0
C960 C 0.63977 0.24919 0.06711 0.0
C961 C 0.63645 0.32086 0.06271 0.0
N962 N 0.61345 0.25196 0.12221 0.0
N963 N 0.68283 0.31919 0.02157 0.0
H964 H 0.61411 0.3687 0.07308 0.0
H965 H 0.64046 0.36831 0.03717 0.0
H966 H 0.70057 0.30626 1.00664 0.0
H967 H 0.68567 0.34552 0.02124 0.0
H968 H 0.61848 0.22639 0.12708 0.0
H969 H 0.60531 0.26543 0.14348 0.0
H970 H 0.61678 0.20183 0.07875 0.0
H971 H 0.64437 0.20079 0.04383 0.0
C972 C 0.78855 0.88728 0.4971 0.0
C973 C 0.75482 0.87882 0.48777 0.0
C974 C 0.7652 0.89905 0.43002 0.0
C975 C 0.79816 0.91056 0.43982 0.0
N976 N 0.84001 0.91885 0.48391 0.0
N977 N 0.70839 0.88463 0.44888 0.0
C978 C 0.80937 0.90595 0.47389 0.0
C979 C 0.74241 0.88714 0.45526 0.0
N980 N 0.80111 0.87596 0.5274 0.0
N981 N 0.75558 0.8985 0.39664 0.0
H982 H 0.69093 0.87682 0.46734 0.0
H983 H 0.69712 0.89377 0.42674 0.0
H984 H 0.77092 0.90653 0.37673 0.0
H985 H 0.73336 0.88678 0.38825 0.0
H986 H 0.82648 0.87828 0.53445 0.0
H987 H 0.7866 0.86173 0.5445 0.0
H988 H 0.84782 0.91968 0.5092 0.0
H989 H 0.85699 0.9305 0.46714 0.0
C990 C 0.39731 0.78424 0.06498 0.0
C991 C 0.38115 0.76831 0.03726 0.0
C992 C 0.40639 0.71374 0.05416 0.0
C993 C 0.41804 0.72895 0.08491 0.0
N994 N 0.41705 0.77831 0.12243 0.0
N995 N 0.36742 0.71749 1.00628 0.0
C996 C 0.41145 0.76409 0.09118 0.0
C997 C 0.3852 0.73293 0.03178 0.0
N998 N 0.39948 0.8189 0.06595 0.0
N999 N 0.41489 0.68089 0.04671 0.0
H1000 H 0.35175 0.73101 0.98976 0.0
H1001 H 0.36631 0.69124 1.00297 0.0
H1002 H 0.42862 0.6655 0.06331 0.0
H1003 H 0.41012 0.66957 0.02323 0.0
H1004 H 0.41387 0.83203 0.08393 0.0
H1005 H 0.39011 0.83422 0.04643 0.0
H1006 H 0.40943 0.80292 0.12865 0.0
H1007 H 0.42552 0.76489 0.14349 0.0
C1008 C 0.22281 0.83711 0.54323 0.0
C1009 C 0.24528 0.86256 0.53147 0.0
C1010 C 0.21242 0.90563 0.56193 0.0
C1011 C 0.19432 0.87945 0.57925 0.0
N1012 N 0.18446 0.81896 0.58766 0.0
N1013 N 0.26329 0.92097 0.5305 0.0
C1014 C 0.19948 0.84479 0.56979 0.0
C1015 C 0.24029 0.89694 0.54062 0.0
N1016 N 0.22423 0.80544 0.52901 0.0
N1017 N 0.20271 0.93877 0.56569 0.0
H1018 H 0.28396 0.91532 0.51485 0.0
H1019 H 0.26324 0.94589 0.53952 0.0
H1020 H 0.18169 0.94582 0.58022 0.0
H1021 H 0.21315 0.9587 0.55165 0.0
H1022 H 0.20647 0.7864 0.53402 0.0
H1023 H 0.24132 0.79948 0.50953 0.0
H1024 H 0.19095 0.79349 0.58444 0.0
H1025 H 0.16738 0.82261 0.60752 0.0
C1026 C 0.39649 0.31995 0.96655 0.0
C1027 C 0.41645 0.30407 0.94081 0.0
C1028 C 0.40464 0.24849 0.96663 0.0
C1029 C 0.38056 0.2636 0.9884 0.0
N1030 N 0.35126 0.31324 1.00836 0.0
N1031 N 0.4331 0.25135 0.91268 0.0
C1032 C 0.37614 0.29933 0.98855 0.0
C1033 C 0.41891 0.26783 0.93983 0.0
N1034 N 0.39618 0.3546 0.96938 0.0
N1035 N 0.41393 0.21544 0.97179 0.0
H1036 H 0.44217 0.26349 0.89109 0.0
H1037 H 0.43227 0.22502 0.90974 0.0
H1038 H 0.40413 0.20091 0.99177 0.0
H1039 H 0.43395 0.20389 0.9588 0.0
H1040 H 0.38494 0.36742 0.98967 0.0
H1041 H 0.40904 0.37061 0.95256 0.0
H1042 H 0.34403 0.33867 1.00712 0.0
H1043 H 0.33616 0.29859 0.02454 0.0
C1044 C 0.83023 0.15233 0.55689 0.0
C1045 C 0.82573 0.12034 0.57317 0.0
C1046 C 0.77006 0.11375 0.54646 0.0
C1047 C 0.77422 0.14573 0.53037 0.0
N1048 N 0.80978 0.19284 0.5148 0.0
N1049 N 0.79734 0.06618 0.57438 0.0
C1050 C 0.80507 0.16401 0.53359 0.0
C1051 C 0.79749 0.09962 0.56497 0.0
N1052 N 0.85754 0.1722 0.56503 0.0
N1053 N 0.73935 0.09761 0.54526 0.0
H1054 H 0.81775 0.05507 0.58711 0.0
H1055 H 0.77875 0.0489 0.56676 0.0
H1056 H 0.71889 0.107 0.53135 0.0
H1057 H 0.73356 0.07615 0.55972 0.0
H1058 H 0.86031 0.19738 0.55735 0.0
H1059 H 0.87709 0.1638 0.58071 0.0
H1060 H 0.83273 0.20597 0.5134 0.0
H1061 H 0.79111 0.20238 0.49862 0.0
C1062 C 0.63476 0.78031 0.95808 0.0
C1063 C 0.65299 0.76169 0.98267 0.0
C1064 C 0.62328 0.70948 0.96515 0.0
C1065 C 0.60802 0.72781 0.93811 0.0
N1066 N 0.60794 0.77837 0.90324 0.0
N1067 N 0.66754 0.70832 1.00839 0.0
C1068 C 0.61613 0.76262 0.93302 0.0
C1069 C 0.64799 0.72611 0.986 0.0
N1070 N 0.6345 0.81503 0.95921 0.0
N1071 N 0.61391 0.67653 0.97099 0.0
H1072 H 0.68559 0.72015 0.02383 0.0
H1073 H 0.66753 0.6819 1.01008 0.0
H1074 H 0.59656 0.66367 0.95556 0.0
H1075 H 0.62167 0.66266 0.99214 0.0
H1076 H 0.61896 0.82978 0.94367 0.0
H1077 H 0.64685 0.82887 0.97817 0.0
H1078 H 0.61575 0.80298 0.89718 0.0
H1079 H 0.59761 0.76517 0.88284 0.0
C1080 C 0.48272 0.22982 0.15316 0.0
C1081 C 0.48038 0.26581 0.15278 0.0
C1082 C 0.42561 0.26198 0.12409 0.0
C1083 C 0.42939 0.22616 0.12069 0.0
N1084 N 0.46403 0.17619 0.12862 0.0
N1085 N 0.45555 0.31549 0.12735 0.0
C1086 C 0.45894 0.21013 0.13391 0.0
C1087 C 0.45365 0.28165 0.13492 0.0
N1088 N 0.50651 0.2145 0.17313 0.0
N1089 N 0.39514 0.27751 0.11836 0.0
H1090 H 0.4769 0.3302 0.13302 0.0
H1091 H 0.43794 0.32769 0.1118 0.0
H1092 H 0.37285 0.26436 0.1131 0.0
H1093 H 0.39109 0.30325 0.12326 0.0
H1094 H 0.50746 0.18833 0.17712 0.0
H1095 H 0.52361 0.2283 0.18796 0.0
H1096 H 0.48664 0.16388 0.13463 0.0
H1097 H 0.44638 0.16074 0.11624 0.0
C1098 C 0.4432 0.83031 0.86255 0.0
C1099 C 0.43502 0.83071 0.89787 0.0
C1100 C 0.46836 0.77891 0.90638 0.0
C1101 C 0.47729 0.77893 0.87144 0.0
N1102 N 0.47902 0.80726 0.8175 0.0
N1103 N 0.44745 0.81129 0.95455 0.0
C1104 C 0.46677 0.80576 0.85 0.0
C1105 C 0.45017 0.80688 0.92016 0.0
N1106 N 0.42685 0.85177 0.8407 0.0
N1107 N 0.47573 0.75127 0.926 0.0
H1108 H 0.43492 0.83208 0.96526 0.0
H1109 H 0.46034 0.79641 0.97221 0.0
H1110 H 0.4883 0.73003 0.91642 0.0
H1111 H 0.46675 0.74812 0.95077 0.0
H1112 H 0.42882 0.85004 0.81433 0.0
H1113 H 0.40947 0.87005 0.84876 0.0
H1114 H 0.475 0.82779 0.80128 0.0
H1115 H 0.49553 0.78892 0.80772 0.0
C1116 C 0.26438 0.05813 0.67118 0.0
C1117 C 0.26132 0.02716 0.65329 0.0
C1118 C 0.31089 0.04393 0.61879 0.0
C1119 C 0.30924 0.07715 0.63294 0.0
N1120 N 0.27352 0.11767 0.66286 0.0
N1121 N 0.27874 0.99291 0.60523 0.0
C1122 C 0.28296 0.08493 0.65643 0.0
C1123 C 0.28402 0.02033 0.62586 0.0
N1124 N 0.24913 0.06213 0.70213 0.0
N1125 N 0.3373 0.03525 0.59799 0.0
H1126 H 0.25841 0.97623 0.60845 0.0
H1127 H 0.29269 0.98862 0.58307 0.0
H1128 H 0.35642 0.05244 0.5913 0.0
H1129 H 0.34131 1.01049 0.58942 0.0
H1130 H 0.25242 0.084 0.71684 0.0
H1131 H 0.23681 0.04208 0.71449 0.0
H1132 H 0.253 0.12371 0.67859 0.0
H1133 H 0.28246 0.13813 0.64865 0.0
C1134 C 0.58065 0.28167 0.88959 0.0
C1135 C 0.54955 0.26626 0.881 0.0
C1136 C 0.56469 0.21575 0.91434 0.0
C1137 C 0.5976 0.22965 0.91947 0.0
N1138 N 0.63867 0.27401 0.9067 0.0
N1139 N 0.51246 0.21766 0.88142 0.0
C1140 C 0.60611 0.26208 0.90558 0.0
C1141 C 0.54152 0.23305 0.89255 0.0
N1142 N 0.58538 0.31553 0.88326 0.0
N1143 N 0.55573 0.18604 0.93005 0.0
H1144 H 0.49542 0.2297 0.86512 0.0
H1145 H 0.50647 0.1923 0.88618 0.0
H1146 H 0.57261 0.17206 0.94492 0.0
H1147 H 0.53108 0.17638 0.93013 0.0
H1148 H 0.60613 0.32933 0.89225 0.0
H1149 H 0.56676 0.33064 0.87201 0.0
H1150 H 0.64687 0.29548 0.89347 0.0
H1151 H 0.65832 0.26093 0.91818 0.0
C1152 C 0.77099 0.97163 0.62286 0.0
C1153 C 0.75694 0.99853 0.6419 0.0
C1154 C 0.69965 0.97827 0.62728 0.0
C1155 C 0.714 0.94817 0.61305 0.0
N1156 N 0.76475 0.91357 0.60501 0.0
N1157 N 0.70809 0.02701 0.66468 0.0
C1158 C 0.75006 0.94407 0.61285 0.0
C1159 C 0.72124 1.00204 0.64444 0.0
N1160 N 0.80466 0.97255 0.61442 0.0
N1161 N 0.66545 0.98373 0.62522 0.0
H1162 H 0.72342 0.04469 0.67719 0.0
H1163 H 0.6824 0.02891 0.67076 0.0
H1164 H 0.64862 0.96602 0.61489 0.0
H1165 H 0.65401 1.00663 0.63195 0.0
H1166 H 0.81584 0.95527 0.59769 0.0
H1167 H 0.82036 0.99291 0.62113 0.0
H1168 H 0.79069 0.90905 0.60765 0.0
H1169 H 0.75128 0.89146 0.59993 0.0
C1170 C 0.57439 0.7524 0.13114 0.0
C1171 C 0.54606 0.76936 0.14489 0.0
C1172 C 0.56386 0.82185 0.11596 0.0
C1173 C 0.59501 0.80595 0.10683 0.0
N1174 N 0.63264 0.75731 0.11421 0.0
N1175 N 0.51415 0.82071 0.15304 0.0
C1176 C 0.60113 0.77159 0.11678 0.0
C1177 C 0.54062 0.80425 0.13778 0.0
N1178 N 0.57541 0.71767 0.13121 0.0
N1179 N 0.5568 0.85383 0.10441 0.0
H1180 H 0.49707 0.80829 0.16916 0.0
H1181 H 0.51051 0.8469 0.15168 0.0
H1182 H 0.57394 0.86799 0.08987 0.0
H1183 H 0.53324 0.86544 0.10745 0.0
H1184 H 0.59409 0.70381 0.11848 0.0
H1185 H 0.55543 0.70281 0.14047 0.0
H1186 H 0.63844 0.73353 0.12436 0.0
H1187 H 0.65403 0.77024 0.10587 0.0
C1188 C 0.26969 0.96202 0.35325 0.0
C1189 C 0.26201 0.99159 0.37217 0.0
C1190 C 0.30607 0.97498 0.41332 0.0
C1191 C 0.30881 0.94281 0.39703 0.0
N1192 N 0.28289 0.90315 0.35714 0.0
N1193 N 0.26934 0.0233 0.42441 0.0
C1194 C 0.2876 0.9355 0.36877 0.0
C1195 C 0.27951 0.99767 0.40329 0.0
N1196 N 0.25923 0.95799 0.32052 0.0
N1197 N 0.32799 0.98344 0.43883 0.0
H1198 H 0.24892 0.03916 0.41896 0.0
H1199 H 0.2791 0.02673 0.44879 0.0
H1200 H 0.34659 0.96678 0.44767 0.0
H1201 H 0.32912 1.00772 0.44943 0.0
H1202 H 0.24757 0.97723 0.30647 0.0
H1203 H 0.24757 0.97723 0.30647 0.0
H1204 H 0.26786 0.89781 0.33591 0.0
H1205 H 0.28984 0.88181 0.37107 0.0
C1206 C 0.72893 0.04021 0.36785 0.0
C1207 C 0.76205 0.03301 0.37957 0.0
C1208 C 0.75171 0.06629 0.43146 0.0
C1209 C 0.71882 0.07491 0.41907 0.0
N1210 N 0.67317 0.06387 0.38004 0.0
N1211 N 0.80489 0.0361 0.42277 0.0
C1212 C 0.70657 0.05998 0.38852 0.0
C1213 C 0.77327 0.04502 0.41161 0.0
N1214 N 0.71948 0.02891 0.33638 0.0
N1215 N 0.76291 0.07968 0.46148 0.0
H1216 H 0.82239 0.02346 0.40742 0.0
H1217 H 0.8138 0.0401 0.44733 0.0
H1218 H 0.74703 0.09231 0.47827 0.0
H1219 H 0.78786 0.07873 0.47003 0.0
H1220 H 0.69702 0.03579 0.32434 0.0
H1221 H 0.73534 0.0138 0.32135 0.0
H1222 H 0.6616 0.05196 0.35945 0.0
H1223 H 0.65607 0.07679 0.39566 0.0
C1224 C 0.03504 0.36982 0.98213 0.0
C1225 C 0.99945 0.3656 0.97777 0.0
C1226 C 0.99167 0.362 0.03974 0.0
C1227 C 0.02723 0.36639 0.04411 0.0
N1228 N 0.08212 0.38028 0.02075 0.0
N1229 N 0.94308 0.36345 1.00171 0.0
C1230 C 0.0487 0.37222 0.01562 0.0
C1231 C 0.9775 0.36356 1.00643 0.0
N1232 N 0.05582 0.37038 0.95417 0.0
N1233 N 0.97165 0.35519 0.06744 0.0
H1234 H 0.93188 0.36358 0.97768 0.0
H1235 H 0.92548 0.36561 0.0214 0.0
H1236 H 0.98082 0.35553 0.09233 0.0
H1237 H 0.94639 0.34752 0.06587 0.0
H1238 H 0.0822 0.36942 0.95537 0.0
H1239 H 0.04662 0.36989 0.92929 0.0
H1240 H 0.09855 0.38815 1.00151 0.0
H1241 H 0.09298 0.38159 0.04491 0.0
C1242 C 0.86563 0.48389 0.51353 0.0
C1243 C 0.85794 0.50365 0.4843 0.0
C1244 C 0.85531 0.55485 0.52017 0.0
C1245 C 0.85786 0.53431 0.54977 0.0
N1246 N 0.86151 0.47841 0.57486 0.0
N1247 N 0.8414 0.55756 0.46017 0.0
C1248 C 0.86226 0.49859 0.54654 0.0
C1249 C 0.85197 0.53913 0.48765 0.0
N1250 N 0.87673 0.45119 0.50968 0.0
N1251 N 0.85658 0.58947 0.52314 0.0
H1252 H 0.83836 0.54707 0.43599 0.0
H1253 H 0.83293 0.58259 0.46189 0.0
H1254 H 0.8593 0.60177 0.54653 0.0
H1255 H 0.85826 0.6058 0.50234 0.0
H1256 H 0.88598 0.43658 0.52971 0.0
H1257 H 0.87978 0.43975 0.4859 0.0
H1258 H 0.86061 0.45195 0.57381 0.0
H1259 H 0.85901 0.48804 0.59947 0.0
C1260 C 0.06103 0.66613 0.02081 0.0
C1261 C 0.04305 0.65675 0.99097 0.0
C1262 C 0.99265 0.64334 0.02568 0.0
C1263 C 1.00925 0.65673 0.0548 0.0
N1264 N 0.05828 0.68338 0.08013 0.0
N1265 N 0.991 0.63887 0.96407 0.0
C1266 C 0.04333 0.66854 0.05245 0.0
C1267 C 1.00871 0.64571 0.99319 0.0
N1268 N 0.09516 0.67236 0.01885 0.0
N1269 N 0.96169 0.62789 0.02925 0.0
H1270 H 1.00206 0.6394 0.93992 0.0
H1271 H 0.96487 0.63478 0.96351 0.0
H1272 H 0.94912 0.62602 0.0526 0.0
H1273 H 0.94972 0.61448 1.00981 0.0
H1274 H 0.11058 0.67601 0.04003 0.0
H1275 H 0.10872 0.671 0.99603 0.0
H1276 H 0.08149 0.69607 0.07916 0.0
H1277 H 0.0464 0.68508 0.10383 0.0
C1278 C 0.1768 0.54022 0.54024 0.0
C1279 C 0.17386 0.50451 0.54476 0.0
C1280 C 0.17315 0.49636 0.48288 0.0
C1281 C 0.17428 0.53217 0.47832 0.0
N1282 N 0.16905 0.58834 0.50249 0.0
N1283 N 0.16067 0.44951 0.521 0.0
C1284 C 0.17354 0.55417 0.507 0.0
C1285 C 0.16925 0.48289 0.51621 0.0
N1286 N 0.18433 0.56066 0.56735 0.0
N1287 N 0.1776 0.47513 0.45565 0.0
H1288 H 0.1572 0.43891 0.54511 0.0
H1289 H 0.15371 0.43332 0.50121 0.0
H1290 H 0.18123 0.48386 0.43086 0.0
H1291 H 0.18075 0.44894 0.45805 0.0
H1292 H 0.19062 0.5863 0.56491 0.0
H1293 H 0.18697 0.55149 0.59209 0.0
H1294 H 0.16491 0.60522 0.52251 0.0
H1295 H 0.1662 0.59938 0.47853 0.0
C1296 C 1.01237 0.97588 0.36954 0.0
C1297 C 0.98173 0.99375 0.3758 0.0
C1298 C 0.01429 0.04498 0.3906 0.0
C1299 C 0.04438 0.02862 0.37943 0.0
N1300 N 0.07259 0.97911 0.35667 0.0
N1301 N 0.95259 0.04537 0.39133 0.0
C1302 C 0.04367 0.99404 0.36892 0.0
C1303 C 0.98243 0.02825 0.38651 0.0
N1304 N 1.01144 0.94149 0.36435 0.0
N1305 N 0.01638 0.07648 0.40521 0.0
H1306 H 0.92884 0.03368 0.38949 0.0
H1307 H 0.95114 0.07152 0.39523 0.0
H1308 H 0.03944 0.08924 0.40839 0.0
H1309 H 0.99594 0.08871 0.41675 0.0
H1310 H 0.03304 0.92632 0.36303 0.0
H1311 H 0.98884 0.92756 0.36424 0.0
H1312 H 0.07296 0.95551 0.34465 0.0
H1313 H 0.0962 0.9912 0.35665 0.0
C1314 C 0.54956 0.51032 0.15472 0.0
C1315 C 0.52991 0.48315 0.16831 0.0
C1316 C 0.48095 0.52136 0.17546 0.0
C1317 C 0.5011 0.54891 0.16341 0.0
N1318 N 0.55432 0.57088 0.14254 0.0
N1319 N 0.47599 0.46068 0.18685 0.0
C1320 C 0.53526 0.54362 0.15292 0.0
C1321 C 0.49527 0.48808 0.17725 0.0
N1322 N 0.58163 0.5039 0.14283 0.0
N1323 N 0.44856 0.52751 0.18662 0.0
H1324 H 0.48589 0.43624 0.1895 0.0
H1325 H 0.44983 0.46137 0.19049 0.0
H1326 H 0.43683 0.55117 0.18438 0.0
H1327 H 0.43348 0.50985 0.19934 0.0
H1328 H 0.59652 0.52142 0.12972 0.0
H1329 H 0.59302 0.48002 0.14438 0.0
H1330 H 0.58034 0.57009 0.13801 0.0
H1331 H 0.54419 0.5952 0.13955 0.0
C1332 C 1.00608 0.96533 0.6703 0.0
C1333 C 0.03702 0.98284 0.66396 0.0
C1334 C 1.00516 0.03545 0.65361 0.0
C1335 C 0.97482 0.01901 0.66432 0.0
N1336 N 0.94706 0.96935 0.68758 0.0
N1337 N 0.06668 0.03591 0.65471 0.0
C1338 C 0.97538 0.98414 0.67378 0.0
C1339 C 0.03676 0.01827 0.65682 0.0
N1340 N 1.00595 0.93062 0.67233 0.0
N1341 N 1.00366 0.06725 0.63965 0.0
H1342 H 0.09041 0.02448 0.6573 0.0
H1343 H 0.06793 0.06234 0.65339 0.0
H1344 H 0.98092 0.08049 0.6366 0.0
H1345 H 0.02441 0.07913 0.62818 0.0
H1346 H 0.98377 0.91615 0.67343 0.0
H1347 H 0.02793 0.91604 0.66973 0.0
H1348 H 0.94705 0.94519 0.69844 0.0
H1349 H 0.92417 0.98226 0.69088 0.0
C1350 C 0.48028 0.54148 0.84767 0.0
C1351 C 0.5133 0.54732 0.86091 0.0
C1352 C 0.51654 0.4875 0.87874 0.0
C1353 C 0.48557 0.48076 0.86154 0.0
N1354 N 0.43909 0.50045 0.82693 0.0
N1355 N 0.56438 0.52573 0.88674 0.0
C1356 C 0.46754 0.50759 0.84552 0.0
C1357 C 0.53176 0.52033 0.87611 0.0
N1358 N 0.46092 0.56848 0.83758 0.0
N1359 N 0.53109 0.46254 0.898 0.0
H1360 H 0.57617 0.54951 0.88577 0.0
H1361 H 0.58062 0.50632 0.89433 0.0
H1362 H 0.52057 0.43826 0.90038 0.0
H1363 H 0.55181 0.46662 0.91391 0.0
H1364 H 0.4354 0.56642 0.831 0.0
H1365 H 0.46957 0.59358 0.8386 0.0
H1366 H 0.42712 0.5181 0.8113 0.0
H1367 H 0.42863 0.47612 0.82519 0.0
C1368 C 0.37223 0.04164 0.01383 0.0
C1369 C 0.35909 0.04505 0.04738 0.0
C1370 C 0.34733 0.9836 0.04944 0.0
C1371 C 0.35977 0.98035 0.01562 0.0
N1372 N 0.39029 1.00406 0.96805 0.0
N1373 N 0.34044 0.01918 0.0997 0.0
C1374 C 0.37433 1.00873 0.99865 0.0
C1375 C 0.3488 0.01588 0.06606 0.0
N1376 N 0.38147 0.07012 0.99608 0.0
N1377 N 0.33287 0.95606 0.06508 0.0
H1378 H 0.34064 0.04254 0.11231 0.0
H1379 H 0.33579 0.99872 0.11584 0.0
H1380 H 0.33263 0.93184 0.0542 0.0
H1381 H 0.31968 0.9573 0.08803 0.0
H1382 H 0.38724 0.0702 0.97022 0.0
H1383 H 0.38187 0.09434 1.00695 0.0
H1384 H 0.4043 0.02282 0.95567 0.0
H1385 H 0.39177 0.9804 0.95608 0.0
C1386 C 0.481 0.15887 0.49421 0.0
C1387 C 0.47992 0.15018 0.52929 0.0
C1388 C 0.5421 0.14515 0.5303 0.0
C1389 C 0.5432 0.15391 0.49523 0.0
N1390 N 0.51423 0.16328 0.44215 0.0
N1391 N 0.50786 0.12909 0.57938 0.0
C1392 C 0.51273 0.15884 0.47665 0.0
C1393 C 0.51006 0.14134 0.54688 0.0
N1394 N 0.45177 0.16839 0.47808 0.0
N1395 N 0.5718 0.14158 0.54795 0.0
H1396 H 0.4848 0.12651 0.59229 0.0
H1397 H 0.52831 0.11905 0.59272 0.0
H1398 H 0.59566 0.14283 0.53638 0.0
H1399 H 0.57309 0.13919 0.57428 0.0
H1400 H 0.45112 0.17908 0.45387 0.0
H1401 H 0.4279 0.16718 0.48964 0.0
H1402 H 0.493 0.16348 0.42643 0.0
H1403 H 0.53707 0.16441 0.42866 0.0
C1404 C 0.67361 0.02039 0.97806 0.0
C1405 C 0.68606 0.0479 0.9979 0.0
C1406 C 0.69515 1.0093 0.04619 0.0
C1407 C 0.68575 0.98134 0.0253 0.0
N1408 N 0.66883 0.95918 0.97073 0.0
N1409 N 0.71173 0.06875 0.0495 0.0
C1410 C 0.67561 0.98661 0.99107 0.0
C1411 C 0.69752 0.04243 0.03169 0.0
N1412 N 0.65925 0.02674 0.94706 0.0
N1413 N 0.70124 1.00417 0.08006 0.0
H1414 H 0.71312 0.09352 0.04009 0.0
H1415 H 0.72419 0.06577 0.07263 0.0
H1416 H 0.70051 0.98018 0.09138 0.0
H1417 H 0.70454 0.02379 0.09754 0.0
H1418 H 0.64643 1.00848 0.9328 0.0
H1419 H 0.65787 0.05107 0.93657 0.0
H1420 H 0.66513 0.96084 0.94457 0.0
H1421 H 0.66903 0.9342 0.97965 0.0
C1422 C 0.4995 0.88981 0.4923 0.0
C1423 C 0.47119 0.87438 0.50864 0.0
C1424 C 0.50663 0.86042 0.55808 0.0
C1425 C 0.535 0.87567 0.54165 0.0
N1426 N 0.55734 0.91116 0.497 0.0
N1427 N 0.44547 0.85181 0.55951 0.0
C1428 C 0.53098 0.89249 0.50997 0.0
C1429 C 0.47404 0.86196 0.54242 0.0
N1430 N 0.49662 0.90058 0.45935 0.0
N1431 N 0.51118 0.84308 0.58788 0.0
H1432 H 0.42134 0.8523 0.54859 0.0
H1433 H 0.44512 0.84563 0.58527 0.0
H1434 H 0.53439 0.84227 0.6006 0.0
H1435 H 0.4926 0.82786 0.59907 0.0
H1436 H 0.51716 0.9083 0.44449 0.0
H1437 H 0.47373 0.9 0.44603 0.0
H1438 H 0.55531 0.92669 0.47566 0.0
H1439 H 0.58068 0.9134 0.50935 0.0
C1440 C 0.10416 0.22901 0.22751 0.0
C1441 C 0.08453 0.256 0.24082 0.0
C1442 C 0.0885 0.22942 0.29704 0.0
C1443 C 0.11561 0.20896 0.28495 0.0
N1444 N 0.15357 0.19513 0.23861 0.0
N1445 N 0.05548 0.28073 0.28892 0.0
C1446 C 0.1244 0.20987 0.25005 0.0
C1447 C 0.07573 0.25576 0.27588 0.0
N1448 N 0.10341 0.2211 0.19379 0.0
N1449 N 0.07457 0.22308 0.32824 0.0
H1450 H 0.04383 0.29883 0.27352 0.0
H1451 H 0.05137 0.2841 0.31491 0.0
H1452 H 0.08233 0.20268 0.34329 0.0
H1453 H 0.05307 0.23556 0.33738 0.0
H1454 H 0.11559 0.19956 0.18418 0.0
H1455 H 0.08728 0.23301 0.1766 0.0
H1456 H 0.16222 0.19862 0.21375 0.0
H1457 H 0.17101 0.18346 0.2547 0.0
C1458 C 0.75902 0.37657 0.27563 0.0
C1459 C 0.76127 0.40974 0.29037 0.0
C1460 C 0.7084 0.42555 0.26113 0.0
C1461 C 0.70858 0.39395 0.24404 0.0
N1462 N 0.73624 0.34141 0.23037 0.0
N1463 N 0.74102 0.46787 0.29168 0.0
C1464 C 0.7345 0.37004 0.25004 0.0
C1465 C 0.73654 0.43479 0.28193 0.0
N1466 N 0.77937 0.35075 0.28677 0.0
N1467 N 0.68115 0.44663 0.2574 0.0
H1468 H 0.76194 0.47628 0.30547 0.0
H1469 H 0.7257 0.48771 0.28327 0.0
H1470 H 0.66071 0.4406 0.2416 0.0
H1471 H 0.67757 0.46855 0.27187 0.0
H1472 H 0.7757 0.32539 0.28 0.0
H1473 H 0.79806 0.3537 0.30512 0.0
H1474 H 0.75681 0.32479 0.23057 0.0
H1475 H 0.71836 0.33578 0.21164 0.0
C1476 C 0.92988 0.81006 0.27199 0.0
C1477 C 0.89863 0.8103 0.28977 0.0
C1478 C 0.88207 0.75687 0.26232 0.0
C1479 C 0.91473 0.7548 0.24663 0.0
N1480 N 0.97204 0.77665 0.24191 0.0
N1481 N 0.84633 0.78302 0.30545 0.0
C1482 C 0.93924 0.78083 0.25261 0.0
C1483 C 0.87516 0.78337 0.28596 0.0
N1484 N 0.95059 0.8379 0.27383 0.0
N1485 N 0.85708 0.73435 0.25363 0.0
H1486 H 0.83971 0.80295 0.32166 0.0
H1487 H 0.83012 0.76217 0.30741 0.0
H1488 H 0.86038 0.7152 0.23568 0.0
H1489 H 0.83199 0.73637 0.26179 0.0
H1490 H 0.97213 0.84112 0.25872 0.0
H1491 H 0.94465 0.85902 0.28879 0.0
H1492 H 0.99174 0.79308 0.24849 0.0
H1493 H 0.98048 0.75502 0.22918 0.0
C1494 C 0.32192 0.60676 0.25526 0.0
C1495 C 0.31998 0.63644 0.23521 0.0
C1496 C 0.2635 0.64893 0.25821 0.0
C1497 C 0.26424 0.61762 0.27672 0.0
N1498 N 0.29102 0.56294 0.28544 0.0
N1499 N 0.28842 0.68376 0.21356 0.0
C1500 C 0.29273 0.59555 0.27347 0.0
C1501 C 0.2905 0.65682 0.23542 0.0
N1502 N 0.35176 0.58916 0.25659 0.0
N1503 N 0.23804 0.67201 0.26344 0.0
H1504 H 0.30873 0.69151 0.1983 0.0
H1505 H 0.26608 0.69706 0.20884 0.0
H1506 H 0.21847 0.66879 0.28095 0.0
H1507 H 0.23817 0.69647 0.25333 0.0
H1508 H 0.35617 0.56939 0.27365 0.0
H1509 H 0.37307 0.59613 0.24234 0.0
H1510 H 0.30975 0.54481 0.28096 0.0
H1511 H 0.26924 0.55262 0.29643 0.0
C1512 C 0.11269 0.79043 0.79965 0.0
C1513 C 0.09421 0.76162 0.78797 0.0
C1514 C 0.09953 0.78159 0.72907 0.0
C1515 C 0.12294 0.80661 0.74006 0.0
N1516 N 0.15214 0.83595 0.7852 0.0
N1517 N 0.05823 0.73831 0.74484 0.0
C1518 C 0.12905 0.81187 0.7753 0.0
C1519 C 0.08415 0.75971 0.75346 0.0
N1520 N 0.11446 0.79732 0.8337 0.0
N1521 N 0.09254 0.77867 0.69515 0.0
H1522 H 0.04414 0.72572 0.76347 0.0
H1523 H 0.04812 0.73601 0.72053 0.0
H1524 H 0.10172 0.79597 0.67719 0.0
H1525 H 0.07854 0.75888 0.68454 0.0
H1526 H 0.12566 0.81898 0.84393 0.0
H1527 H 0.10157 0.7833 0.85204 0.0
H1528 H 0.15806 0.84165 0.81029 0.0
H1529 H 0.16723 0.84947 0.76809 0.0
C1530 C 0.30464 0.41918 0.78961 0.0
C1531 C 0.32373 0.39001 0.781 0.0
C1532 C 0.29945 0.39048 0.72386 0.0
C1533 C 0.27592 0.41563 0.73427 0.0
N1534 N 0.2558 0.4546 0.77727 0.0
N1535 N 0.33355 0.34329 0.74279 0.0
C1536 C 0.27853 0.43036 0.76724 0.0
C1537 C 0.31989 0.37457 0.74877 0.0
N1538 N 0.31176 0.43609 0.8191 0.0
N1539 N 0.30256 0.38177 0.69037 0.0
H1540 H 0.34787 0.33026 0.76085 0.0
H1541 H 0.32716 0.32891 0.72148 0.0
H1542 H 0.28903 0.39393 0.67116 0.0
H1543 H 0.32117 0.36509 0.68152 0.0
H1544 H 0.30088 0.45928 0.82576 0.0
H1545 H 0.33081 0.42805 0.83568 0.0
H1546 H 0.2538 0.46351 0.80215 0.0
H1547 H 0.23792 0.46493 0.76075 0.0
C1548 C 0.94403 0.24639 0.76715 0.0
C1549 C 0.9193 0.27101 0.77665 0.0
C1550 C 0.87756 0.24284 0.73955 0.0
C1551 C 0.9013 0.21691 0.73245 0.0
N1552 N 0.95502 0.1904 0.74318 0.0
N1553 N 0.86026 0.28842 0.77692 0.0
C1554 C 0.93393 0.21761 0.74745 0.0
C1555 C 0.8854 0.26804 0.76426 0.0
N1556 N 0.97744 0.25141 0.77517 0.0
N1557 N 0.84793 0.2441 0.72156 0.0
H1558 H 0.86445 0.30719 0.79508 0.0
H1559 H 0.83458 0.28462 0.77176 0.0
H1560 H 0.84174 0.22619 0.70297 0.0
H1561 H 0.83105 0.26443 0.72278 0.0
H1562 H 0.99701 0.23617 0.76594 0.0
H1563 H 0.98612 0.27264 0.78849 0.0
H1564 H 0.97788 0.18759 0.75616 0.0
H1565 H 0.94814 0.16922 0.72869 0.0
C1566 C 0.72123 0.65645 0.78128 0.0
C1567 C 0.69419 0.63309 0.78477 0.0
C1568 C 0.72393 0.59233 0.74812 0.0
C1569 C 0.75006 0.61681 0.74252 0.0
N1570 N 0.76922 0.67522 0.74794 0.0
N1571 N 0.6664 0.58143 0.76823 0.0
C1572 C 0.74748 0.64976 0.75747 0.0
C1573 C 0.69444 0.60188 0.76694 0.0
N1574 N 0.72231 0.68461 0.80165 0.0
N1575 N 0.72816 0.55948 0.73754 0.0
H1576 H 0.64493 0.58776 0.78255 0.0
H1577 H 0.66337 0.55984 0.75317 0.0
H1578 H 0.74991 0.55096 0.72503 0.0
H1579 H 0.71151 0.53986 0.74388 0.0
H1580 H 0.74333 0.70067 0.80321 0.0
H1581 H 0.70323 0.69036 0.81917 0.0
H1582 H 0.76614 0.7005 0.75527 0.0
H1583 H 0.78801 0.67214 0.72956 0.0
C1584 C 0.25674 0.09347 0.2516 0.0
C1585 C 0.22179 0.10227 0.25299 0.0
C1586 C 0.2278 0.13521 0.20035 0.0
C1587 C 0.26348 0.1307 0.20211 0.0
N1588 N 0.31152 0.10011 0.22312 0.0
N1589 N 0.17202 0.11832 0.22112 0.0
C1590 C 0.27773 0.10767 0.22567 0.0
C1591 C 0.20651 0.1187 0.22474 0.0
N1592 N 0.26935 0.07131 0.27515 0.0
N1593 N 0.21464 0.1568 0.1766 0.0
H1594 H 0.15603 0.10489 0.23739 0.0
H1595 H 0.15938 0.12792 0.20001 0.0
H1596 H 0.22967 0.16988 0.15909 0.0
H1597 H 0.18906 0.16299 0.17486 0.0
H1598 H 0.29477 0.06458 0.27739 0.0
H1599 H 0.25348 0.05828 0.292 0.0
H1600 H 0.32451 0.08384 0.23931 0.0
H1601 H 0.32664 0.10962 0.20342 0.0
C1602 C 0.6533 0.24381 0.29036 0.0
C1603 C 0.62946 0.23596 0.31607 0.0
C1604 C 0.58761 0.27364 0.2894 0.0
C1605 C 0.61227 0.28327 0.26462 0.0
N1606 N 0.67107 0.2822 0.2459 0.0
N1607 N 0.57621 0.24628 0.34383 0.0
C1608 C 0.64582 0.26966 0.26634 0.0
C1609 C 0.59733 0.25197 0.3168 0.0
N1610 N 0.68287 0.22574 0.2884 0.0
N1611 N 0.55449 0.28331 0.28565 0.0
H1612 H 0.58253 0.22967 0.36354 0.0
H1613 H 0.55382 0.25973 0.34798 0.0
H1614 H 0.54602 0.2982 0.26548 0.0
H1615 H 0.53478 0.27421 0.30085 0.0
H1616 H 0.69959 0.22713 0.26786 0.0
H1617 H 0.68949 0.20724 0.30617 0.0
H1618 H 0.69666 0.27638 0.24911 0.0
H1619 H 0.66721 0.30077 0.22755 0.0
C1620 C 0.78 0.87674 0.25554 0.0
C1621 C 0.79441 0.90984 0.25912 0.0
C1622 C 0.76785 0.92667 0.20516 0.0
C1623 C 0.75053 0.89518 0.20423 0.0
N1624 N 0.73512 0.84252 0.23109 0.0
N1625 N 0.79768 0.96816 0.23963 0.0
C1626 C 0.75527 0.87083 0.23012 0.0
C1627 C 0.78752 0.93532 0.23434 0.0
N1628 N 0.7906 0.85049 0.27568 0.0
N1629 N 0.76527 0.94825 0.17809 0.0
H1630 H 0.81106 0.97596 0.26108 0.0
H1631 H 0.79029 0.98834 0.2242 0.0
H1632 H 0.75019 0.94266 0.15698 0.0
H1633 H 0.7799 0.97019 0.17543 0.0
H1634 H 0.78388 0.82521 0.27133 0.0
H1635 H 0.80868 0.85319 0.2947 0.0
H1636 H 0.7347 0.82558 0.25147 0.0
H1637 H 0.71646 0.83762 0.21296 0.0
C1638 C 0.43742 0.77599 0.27015 0.0
C1639 C 0.42639 0.74154 0.26992 0.0
C1640 C 0.39368 0.7514 0.32205 0.0
C1641 C 0.40387 0.78617 0.32181 0.0
N1642 N 0.44459 0.8277 0.30318 0.0
N1643 N 0.40684 0.69413 0.30407 0.0
C1644 C 0.42875 0.79718 0.29817 0.0
C1645 C 0.40881 0.72838 0.29862 0.0
N1646 N 0.45612 0.78854 0.24363 0.0
N1647 N 0.3682 0.74039 0.34293 0.0
H1648 H 0.4192 0.67636 0.28887 0.0
H1649 H 0.39664 0.68363 0.32621 0.0
H1650 H 0.35639 0.75565 0.36088 0.0
H1651 H 0.35688 0.71651 0.34052 0.0
H1652 H 0.46108 0.81435 0.24023 0.0
H1653 H 0.46577 0.77318 0.22429 0.0
H1654 H 0.46501 0.83619 0.28854 0.0
H1655 H 0.43959 0.84283 0.32445 0.0
C1656 C 0.2803 0.87235 0.78804 0.0
C1657 C 0.2799 0.89558 0.81545 0.0
C1658 C 0.23801 0.93041 0.78532 0.0
C1659 C 0.23574 0.90533 0.75934 0.0
N1660 N 0.2486 0.84768 0.74176 0.0
N1661 N 0.25146 0.94145 0.84439 0.0
C1662 C 0.25517 0.8749 0.76229 0.0
C1663 C 0.25663 0.92306 0.81537 0.0
N1664 N 0.30537 0.84849 0.78597 0.0
N1665 N 0.22415 0.96191 0.78076 0.0
H1666 H 0.26341 0.93558 0.86731 0.0
H1667 H 0.23255 0.95985 0.84661 0.0
H1668 H 0.21216 0.96932 0.75835 0.0
H1669 H 0.22796 0.9819 0.79777 0.0
H1670 H 0.30889 0.83302 0.76471 0.0
H1671 H 0.32461 0.84651 0.80405 0.0
H1672 H 0.25987 0.82396 0.74512 0.0
H1673 H 0.22902 0.84752 0.7241 0.0
C1674 C 0.40895 0.29212 0.72666 0.0
C1675 C 0.42739 0.28076 0.7555 0.0
C1676 C 0.42625 0.22255 0.73284 0.0
C1677 C 0.40136 0.2327 0.70922 0.0
N1678 N 0.3675 0.2769 0.68373 0.0
N1679 N 0.45759 0.23554 0.78406 0.0
C1680 C 0.39274 0.26755 0.70561 0.0
C1681 C 0.43757 0.24608 0.75775 0.0
N1682 N 0.40649 0.32602 0.71953 0.0
N1683 N 0.43935 0.19045 0.73084 0.0
H1684 H 0.46921 0.25239 0.80085 0.0
H1685 H 0.46198 0.2101 0.78987 0.0
H1686 H 0.43165 0.17311 0.71225 0.0
H1687 H 0.45981 0.18203 0.74526 0.0
H1688 H 0.39601 0.3354 0.69713 0.0
H1689 H 0.41803 0.34486 0.73404 0.0
H1690 H 0.35889 0.30171 0.68088 0.0
H1691 H 0.35304 0.25949 0.67005 0.0
C1692 C 0.78138 0.09823 0.78477 0.0
C1693 C 0.78891 0.12321 0.75954 0.0
C1694 C 0.75067 0.16332 0.78846 0.0
C1695 C 0.74558 0.13937 0.81469 0.0
N1696 N 0.75966 0.0866 0.84155 0.0
N1697 N 0.78574 0.18223 0.74171 0.0
C1698 C 0.7622 0.10764 0.81402 0.0
C1699 C 0.77492 0.15654 0.76255 0.0
N1700 N 0.79048 0.06506 0.77992 0.0
N1701 N 0.73156 0.19228 0.78796 0.0
H1702 H 0.80365 0.17898 0.72252 0.0
H1703 H 0.77937 0.20765 0.7455 0.0
H1704 H 0.71386 0.19802 0.80692 0.0
H1705 H 0.73117 0.20912 0.76751 0.0
H1706 H 0.78248 0.0453 0.79568 0.0
H1707 H 0.80325 0.05653 0.7584 0.0
H1708 H 0.77412 0.06463 0.84441 0.0
H1709 H 0.74498 0.09269 0.86286 0.0
C1710 C 0.57507 0.76113 0.74371 0.0
C1711 C 0.60011 0.74498 0.76419 0.0
C1712 C 0.64498 0.77038 0.7288 0.0
C1713 C 0.62045 0.79008 0.71173 0.0
N1714 N 0.56249 0.80595 0.70272 0.0
N1715 N 0.65966 0.73963 0.7795 0.0
C1716 C 0.58547 0.78563 0.71883 0.0
C1717 C 0.63528 0.75098 0.75759 0.0
N1718 N 0.54146 0.75377 0.74864 0.0
N1719 N 0.67772 0.77008 0.71715 0.0
H1720 H 0.65447 0.72573 0.80135 0.0
H1721 H 0.6851 0.74683 0.77778 0.0
H1722 H 0.68556 0.78408 0.69599 0.0
H1723 H 0.6961 0.75329 0.7261 0.0
H1724 H 0.52221 0.76213 0.73259 0.0
H1725 H 0.53278 0.73773 0.76792 0.0
H1726 H 0.53678 0.80687 0.7089 0.0
H1727 H 0.56974 0.82343 0.68407 0.0
C1728 C 0.24914 0.28189 0.09557 0.0
C1729 C 0.24644 0.24583 0.09548 0.0
C1730 C 0.19065 0.2494 0.12261 0.0
C1731 C 0.19528 0.28489 0.12692 0.0
N1732 N 0.22487 0.33631 0.11308 0.0
N1733 N 0.20727 0.19846 0.09236 0.0
C1734 C 0.2232 0.30163 0.11152 0.0
C1735 C 0.21484 0.23044 0.10366 0.0
N1736 N 0.27614 0.29683 0.07951 0.0
N1737 N 0.16417 0.2335 0.13839 0.0
H1738 H 0.22233 0.18549 0.07489 0.0
H1739 H 0.1837 0.18693 0.09597 0.0
H1740 H 0.14606 0.24677 0.15231 0.0
H1741 H 0.16152 0.20718 0.13966 0.0
H1742 H 0.28071 0.32286 0.07862 0.0
H1743 H 0.29325 0.28269 0.06496 0.0
H1744 H 0.2449 0.35088 0.10382 0.0
H1745 H 0.2053 0.35082 0.12363 0.0
C1746 C 0.24858 0.76389 0.934 0.0
C1747 C 0.2516 0.7968 0.91925 0.0
C1748 C 0.20804 0.7821 0.87759 0.0
C1749 C 0.20398 0.74987 0.89294 0.0
N1750 N 0.21517 0.71197 0.93927 0.0
N1751 N 0.22609 0.84046 0.8846 0.0
C1752 C 0.22254 0.74148 0.92249 0.0
C1753 C 0.22855 0.80705 0.89364 0.0
N1754 N 0.27114 0.75378 0.95832 0.0
N1755 N 0.1945 0.78801 0.84628 0.0
H1756 H 0.23977 0.85958 0.89686 0.0
H1757 H 0.20792 0.84935 0.86752 0.0
H1758 H 0.17969 0.77006 0.83353 0.0
H1759 H 0.20134 0.80909 0.83174 0.0
H1760 H 0.27287 0.72892 0.96724 0.0
H1761 H 0.28928 0.77014 0.96856 0.0
H1762 H 0.22563 0.70545 0.96268 0.0
H1763 H 0.19631 0.69526 0.93088 0.0
C1764 C 0.27422 0.25941 0.6506 0.0
C1765 C 0.29213 0.25775 0.61907 0.0
C1766 C 0.27099 0.31461 0.60508 0.0
C1767 C 0.24862 0.31326 0.63337 0.0
N1768 N 0.22568 0.28231 0.68088 0.0
N1769 N 0.30259 0.28219 0.56346 0.0
C1770 C 0.24944 0.28514 0.65566 0.0
C1771 C 0.28946 0.28505 0.59556 0.0
N1772 N 0.28173 0.2373 0.67629 0.0
N1773 N 0.27521 0.34446 0.58784 0.0
H1774 H 0.31478 0.26042 0.55458 0.0
H1775 H 0.29824 0.30016 0.54448 0.0
H1776 H 0.26312 0.3669 0.5952 0.0
H1777 H 0.29345 0.34776 0.56884 0.0
H1778 H 0.27166 0.2395 0.70074 0.0
H1779 H 0.30097 0.2193 0.6744 0.0
H1780 H 0.22283 0.26053 0.69573 0.0
H1781 H 0.20682 0.30049 0.68485 0.0
C1782 C 0.82786 0.27747 0.92299 0.0
C1783 C 0.82608 0.29339 0.89083 0.0
C1784 C 0.77472 0.26128 0.87712 0.0
C1785 C 0.77429 0.2477 0.9108 0.0
N1786 N 0.79773 0.24735 0.96764 0.0
N1787 N 0.79637 0.30458 0.83885 0.0
C1788 C 0.80034 0.25669 0.93422 0.0
C1789 C 0.79912 0.28638 0.86833 0.0
N1790 N 0.85598 0.28237 0.94268 0.0
N1791 N 0.75267 0.24945 0.85301 0.0
H1792 H 0.81435 0.3226 0.83133 0.0
H1793 H 0.77509 0.30383 0.82317 0.0
H1794 H 0.73385 0.23156 0.85788 0.0
H1795 H 0.75481 0.25522 0.82723 0.0
H1796 H 0.86071 0.26884 0.96494 0.0
H1797 H 0.8759 0.29831 0.93523 0.0
H1798 H 0.81409 0.25607 0.98652 0.0
H1799 H 0.77743 0.2333 0.9773 0.0
C1800 C 0.713 0.73469 0.63444 0.0
C1801 C 0.72519 0.76109 0.61291 0.0
C1802 C 0.77943 0.73084 0.60718 0.0
C1803 C 0.7697 0.70889 0.63386 0.0
N1804 N 0.72768 0.69063 0.67474 0.0
N1805 N 0.77064 0.78423 0.5782 0.0
C1806 C 0.73639 0.71056 0.64765 0.0
C1807 C 0.75852 0.75898 0.59883 0.0
N1808 N 0.67931 0.7326 0.64251 0.0
N1809 N 0.8088 0.72438 0.58976 0.0
H1810 H 0.75578 0.80431 0.5697 0.0
H1811 H 0.796 0.78626 0.57085 0.0
H1812 H 0.82412 0.70348 0.59538 0.0
H1813 H 0.81614 0.73744 0.56789 0.0
H1814 H 0.66865 0.71215 0.65559 0.0
H1815 H 0.6613 0.74942 0.6332 0.0
H1816 H 0.70554 0.69401 0.68893 0.0
H1817 H 0.74362 0.67208 0.68459 0.0
C1818 C 0.82024 0.74196 0.10322 0.0
C1819 C 0.81951 0.73138 0.13766 0.0
C1820 C 0.77243 0.77037 0.14958 0.0
C1821 C 0.77279 0.78117 0.11491 0.0
N1822 N 0.79891 0.7797 0.05919 0.0
N1823 N 0.79857 0.73786 0.19468 0.0
C1824 C 0.79755 0.76797 0.09191 0.0
C1825 C 0.79657 0.74626 0.16104 0.0
N1826 N 0.84165 0.72571 0.08114 0.0
N1827 N 0.7484 0.78258 0.17162 0.0
H1828 H 0.81383 0.71828 0.2035 0.0
H1829 H 0.78664 0.75122 0.2142 0.0
H1830 H 0.73276 0.80307 0.16617 0.0
H1831 H 0.74289 0.77175 0.19515 0.0
H1832 H 0.84194 0.72946 0.05496 0.0
H1833 H 0.85826 0.70661 0.08899 0.0
H1834 H 0.81822 0.77386 0.04206 0.0
H1835 H 0.78139 0.79671 0.04915 0.0
C1836 C 0.24895 0.71698 0.42174 0.0
C1837 C 0.24441 0.71063 0.38661 0.0
C1838 C 0.28382 0.75636 0.37226 0.0
C1839 C 0.28987 0.76217 0.40746 0.0
N1840 N 0.28158 0.74534 0.46599 0.0
N1841 N 0.2655 0.71612 0.32968 0.0
C1842 C 0.27379 0.74131 0.43236 0.0
C1843 C 0.26438 0.72787 0.36229 0.0
N1844 N 0.22845 0.70072 0.44464 0.0
N1845 N 0.29567 0.77851 0.34818 0.0
H1846 H 0.25274 0.69406 0.32261 0.0
H1847 H 0.2821 0.72557 0.31123 0.0
H1848 H 0.31143 0.79901 0.35373 0.0
H1849 H 0.28827 0.77752 0.32275 0.0
H1850 H 0.22774 0.70643 0.4705 0.0
H1851 H 0.21055 0.68257 0.43721 0.0
H1852 H 0.27296 0.72913 0.48509 0.0
H1853 H 0.29852 0.76377 0.47469 0.0
C1854 C 0.7529 0.26287 0.38055 0.0
C1855 C 0.73912 0.25811 0.41377 0.0
C1856 C 0.76706 0.31091 0.43233 0.0
C1857 C 0.78363 0.31321 0.40043 0.0
N1858 N 0.7976 0.28825 0.34643 0.0
N1859 N 0.73818 0.27467 0.47306 0.0
C1860 C 0.77794 0.28834 0.37512 0.0
C1861 C 0.74736 0.28148 0.44018 0.0
N1862 N 0.7413 0.24393 0.3538 0.0
N1863 N 0.76982 0.33721 0.45486 0.0
H1864 H 0.72487 0.25287 0.4802 0.0
H1865 H 0.74654 0.289 0.49372 0.0
H1866 H 0.78415 0.35896 0.44958 0.0
H1867 H 0.75567 0.33876 0.47725 0.0
H1868 H 0.74773 0.249 0.32857 0.0
H1869 H 0.72267 0.22529 0.35628 0.0
H1870 H 0.79715 0.2687 0.32852 0.0
H1871 H 0.81677 0.30613 0.34219 0.0
loop_
_geom_bond_atom_site_label_1
_geom_bond_atom_site_label_2
_geom_bond_distance
_geom_bond_site_symmetry_2
_ccdc_geom_bond_type
Co0 N4 2.148 . S
Co0 N10 2.128 . S
Co0 N20 2.194 . S
Co0 O25 2.351 . S
Co0 O26 2.155 . S
Co0 O27 2.096 . S
C1 N4 1.301 . S
C1 N5 1.328 . S
C1 H6 0.930 . S
C2 C3 1.333 . S
C2 N4 1.317 . S
C2 H7 0.930 . S
C3 C2 1.333 . S
C3 N5 1.350 . S
C3 H29 0.931 . S
N4 Co0 2.148 . S
N4 C1 1.301 . S
N4 C2 1.317 . S
N5 C1 1.328 . S
N5 C3 1.350 . S
H6 C1 0.930 . S
H7 C2 0.930 . S
C8 O9 1.224 . S
C8 O27 1.247 . S
O9 C8 1.224 . S
N10 Co0 2.128 . S
N10 C11 1.355 . S
N10 C13 1.311 . S
C11 N10 1.355 . S
C11 C12 1.363 1_455 S
C11 H23 0.929 . S
C12 C11 1.363 1_655 S
C12 N14 1.375 . S
C12 H30 0.931 . S
C13 N10 1.311 . S
C13 N14 1.347 1_455 S
C13 H24 0.929 . S
N14 C12 1.375 . S
N14 C13 1.347 1_655 S
C15 C18 1.365 . S
C15 N20 1.328 . S
C15 H21 0.929 . S
C16 C17 1.362 . S
C16 C19 1.378 . S
C16 H31 0.929 . S
C17 C16 1.362 . S
C17 C18 1.366 . S
C18 C15 1.365 . S
C18 C17 1.366 . S
C18 H32 0.930 . S
C19 C16 1.378 . S
C19 N20 1.315 . S
C19 H22 0.930 . S
N20 Co0 2.194 . S
N20 C15 1.328 . S
N20 C19 1.315 . S
H21 C15 0.929 . S
H22 C19 0.930 . S
H23 C11 0.929 . S
H24 C13 0.929 . S
O25 Co0 2.351 . S
O25 C28 1.244 . S
O26 Co0 2.155 . S
O26 C28 1.240 . S
O27 Co0 2.096 . S
O27 C8 1.247 . S
C28 O25 1.244 . S
C28 O26 1.240 . S
H29 C3 0.931 . S
H30 C12 0.931 . S
H31 C16 0.929 . S
H32 C18 0.930 . S
Co33 N37 2.148 . S
Co33 N43 2.128 . S
Co33 N53 2.194 . S
Co33 O58 2.351 . S
Co33 O59 2.155 . S
Co33 O60 2.096 . S
C34 N37 1.301 . S
C34 N38 1.328 . S
C34 H39 0.930 . S
C35 C36 1.333 . S
C35 N37 1.317 . S
C35 H40 0.930 . S
C36 C35 1.333 . S
C36 N38 1.350 . S
C36 H62 0.931 . S
N37 Co33 2.148 . S
N37 C34 1.301 . S
N37 C35 1.317 . S
N38 C34 1.328 . S
N38 C36 1.350 . S
H39 C34 0.930 . S
H40 C35 0.930 . S
C41 O42 1.224 . S
C41 O60 1.247 . S
O42 C41 1.224 . S
N43 Co33 2.128 . S
N43 C44 1.355 . S
N43 C46 1.311 . S
C44 N43 1.355 . S
C44 C45 1.363 . S
C44 H56 0.929 . S
C45 C44 1.363 . S
C45 N47 1.375 . S
C45 H63 0.931 . S
C46 N43 1.311 . S
C46 N47 1.347 . S
C46 H57 0.929 . S
N47 C45 1.375 . S
N47 C46 1.347 . S
C48 C51 1.365 . S
C48 N53 1.328 . S
C48 H54 0.929 . S
C49 C50 1.362 . S
C49 C52 1.378 . S
C49 H64 0.929 . S
C50 C49 1.362 . S
C50 C51 1.366 . S
C51 C48 1.365 . S
C51 C50 1.366 . S
C51 H65 0.930 . S
C52 C49 1.378 . S
C52 N53 1.315 . S
C52 H55 0.930 . S
N53 Co33 2.194 . S
N53 C48 1.328 . S
N53 C52 1.315 . S
H54 C48 0.929 . S
H55 C52 0.930 . S
H56 C44 0.929 . S
H57 C46 0.929 . S
O58 Co33 2.351 . S
O58 C61 1.244 . S
O59 Co33 2.155 . S
O59 C61 1.240 . S
O60 Co33 2.096 . S
O60 C41 1.247 . S
C61 O58 1.244 . S
C61 O59 1.240 . S
H62 C36 0.931 . S
H63 C45 0.931 . S
H64 C49 0.929 . S
H65 C51 0.930 . S
Co66 N70 2.148 . S
Co66 N76 2.128 . S
Co66 N86 2.194 . S
Co66 O91 2.351 . S
Co66 O92 2.155 . S
Co66 O93 2.096 . S
C67 N70 1.301 . S
C67 N71 1.328 . S
C67 H72 0.930 . S
C68 C69 1.333 . S
C68 N70 1.317 . S
C68 H73 0.930 . S
C69 C68 1.333 . S
C69 N71 1.350 . S
C69 H95 0.931 . S
N70 Co66 2.148 . S
N70 C67 1.301 . S
N70 C68 1.317 . S
N71 C67 1.328 . S
N71 C69 1.350 . S
H72 C67 0.930 . S
H73 C68 0.930 . S
C74 O75 1.224 . S
C74 O93 1.247 . S
O75 C74 1.224 . S
N76 Co66 2.128 . S
N76 C77 1.355 . S
N76 C79 1.311 . S
C77 N76 1.355 . S
C77 C78 1.363 1_655 S
C77 H89 0.929 . S
C78 C77 1.363 1_455 S
C78 N80 1.375 . S
C78 H96 0.931 . S
C79 N76 1.311 . S
C79 N80 1.347 1_655 S
C79 H90 0.929 . S
N80 C78 1.375 . S
N80 C79 1.347 1_455 S
C81 C84 1.365 . S
C81 N86 1.328 . S
C81 H87 0.929 . S
C82 C83 1.362 . S
C82 C85 1.378 . S
C82 H97 0.929 . S
C83 C82 1.362 . S
C83 C84 1.366 . S
C84 C81 1.365 . S
C84 C83 1.366 . S
C84 H98 0.930 . S
C85 C82 1.378 . S
C85 N86 1.315 . S
C85 H88 0.930 . S
N86 Co66 2.194 . S
N86 C81 1.328 . S
N86 C85 1.315 . S
H87 C81 0.929 . S
H88 C85 0.930 . S
H89 C77 0.929 . S
H90 C79 0.929 . S
O91 Co66 2.351 . S
O91 C94 1.244 . S
O92 Co66 2.155 . S
O92 C94 1.240 . S
O93 Co66 2.096 . S
O93 C74 1.247 . S
C94 O91 1.244 . S
C94 O92 1.240 . S
H95 C69 0.931 . S
H96 C78 0.931 . S
H97 C82 0.929 . S
H98 C84 0.930 . S
Co99 N103 2.148 . S
Co99 N109 2.128 . S
Co99 N119 2.194 . S
Co99 O124 2.351 . S
Co99 O125 2.155 . S
Co99 O126 2.096 . S
C100 N103 1.301 . S
C100 N104 1.328 . S
C100 H105 0.930 . S
C101 C102 1.333 . S
C101 N103 1.317 . S
C101 H106 0.930 . S
C102 C101 1.333 . S
C102 N104 1.350 . S
C102 H128 0.931 . S
N103 Co99 2.148 . S
N103 C100 1.301 . S
N103 C101 1.317 . S
N104 C100 1.328 . S
N104 C102 1.350 . S
H105 C100 0.930 . S
H106 C101 0.930 . S
C107 O108 1.224 . S
C107 O126 1.247 . S
O108 C107 1.224 . S
N109 Co99 2.128 . S
N109 C110 1.355 . S
N109 C112 1.311 . S
C110 N109 1.355 . S
C110 C111 1.363 . S
C110 H122 0.929 . S
C111 C110 1.363 . S
C111 N113 1.375 . S
C111 H129 0.931 . S
C112 N109 1.311 . S
C112 N113 1.347 . S
C112 H123 0.929 . S
N113 C111 1.375 . S
N113 C112 1.347 . S
C114 C117 1.365 . S
C114 N119 1.328 . S
C114 H120 0.929 . S
C115 C116 1.362 . S
C115 C118 1.378 . S
C115 H130 0.929 . S
C116 C115 1.362 . S
C116 C117 1.366 . S
C117 C114 1.365 . S
C117 C116 1.366 . S
C117 H131 0.930 . S
C118 C115 1.378 . S
C118 N119 1.315 . S
C118 H121 0.930 . S
N119 Co99 2.194 . S
N119 C114 1.328 . S
N119 C118 1.315 . S
H120 C114 0.929 . S
H121 C118 0.930 . S
H122 C110 0.929 . S
H123 C112 0.929 . S
O124 Co99 2.351 . S
O124 C127 1.244 . S
O125 Co99 2.155 . S
O125 C127 1.240 . S
O126 Co99 2.096 . S
O126 C107 1.247 . S
C127 O124 1.244 . S
C127 O125 1.240 . S
H128 C102 0.931 . S
H129 C111 0.931 . S
H130 C115 0.929 . S
H131 C117 0.930 . S
Co132 N136 2.148 . S
Co132 N142 2.128 . S
Co132 N152 2.194 . S
Co132 O157 2.351 . S
Co132 O158 2.155 . S
Co132 O159 2.096 . S
C133 N136 1.301 . S
C133 N137 1.328 . S
C133 H138 0.930 . S
C134 C135 1.333 . S
C134 N136 1.317 . S
C134 H139 0.930 . S
C135 C134 1.333 . S
C135 N137 1.350 . S
C135 H161 0.931 . S
N136 Co132 2.148 . S
N136 C133 1.301 . S
N136 C134 1.317 . S
N137 C133 1.328 . S
N137 C135 1.350 . S
H138 C133 0.930 . S
H139 C134 0.930 . S
C140 O141 1.224 . S
C140 O159 1.247 . S
O141 C140 1.224 . S
N142 Co132 2.128 . S
N142 C143 1.355 . S
N142 C145 1.311 . S
C143 N142 1.355 . S
C143 C144 1.363 1_455 S
C143 H155 0.929 . S
C144 C143 1.363 1_655 S
C144 N146 1.375 . S
C144 H162 0.931 . S
C145 N142 1.311 . S
C145 N146 1.347 1_455 S
C145 H156 0.929 . S
N146 C144 1.375 . S
N146 C145 1.347 1_655 S
C147 C150 1.365 . S
C147 N152 1.328 . S
C147 H153 0.929 . S
C148 C149 1.362 . S
C148 C151 1.378 . S
C148 H163 0.929 . S
C149 C148 1.362 . S
C149 C150 1.366 . S
C150 C147 1.365 . S
C150 C149 1.366 . S
C150 H164 0.930 . S
C151 C148 1.378 . S
C151 N152 1.315 . S
C151 H154 0.930 . S
N152 Co132 2.194 . S
N152 C147 1.328 . S
N152 C151 1.315 . S
H153 C147 0.929 . S
H154 C151 0.930 . S
H155 C143 0.929 . S
H156 C145 0.929 . S
O157 Co132 2.351 . S
O157 C160 1.244 . S
O158 Co132 2.155 . S
O158 C160 1.240 . S
O159 Co132 2.096 . S
O159 C140 1.247 . S
C160 O157 1.244 . S
C160 O158 1.240 . S
H161 C135 0.931 . S
H162 C144 0.931 . S
H163 C148 0.929 . S
H164 C150 0.930 . S
Co165 N169 2.148 . S
Co165 N175 2.128 . S
Co165 N185 2.194 . S
Co165 O190 2.351 . S
Co165 O191 2.155 . S
Co165 O192 2.096 . S
C166 N169 1.301 . S
C166 N170 1.328 . S
C166 H171 0.930 . S
C167 C168 1.333 . S
C167 N169 1.317 . S
C167 H172 0.930 . S
C168 C167 1.333 . S
C168 N170 1.350 . S
C168 H194 0.931 . S
N169 Co165 2.148 . S
N169 C166 1.301 . S
N169 C167 1.317 . S
N170 C166 1.328 . S
N170 C168 1.350 . S
H171 C166 0.930 . S
H172 C167 0.930 . S
C173 O174 1.224 . S
C173 O192 1.247 . S
O174 C173 1.224 . S
N175 Co165 2.128 . S
N175 C176 1.355 . S
N175 C178 1.311 . S
C176 N175 1.355 . S
C176 C177 1.363 . S
C176 H188 0.929 . S
C177 C176 1.363 . S
C177 N179 1.375 . S
C177 H195 0.931 . S
C178 N175 1.311 . S
C178 N179 1.347 . S
C178 H189 0.929 . S
N179 C177 1.375 . S
N179 C178 1.347 . S
C180 C183 1.365 . S
C180 N185 1.328 . S
C180 H186 0.929 . S
C181 C182 1.362 . S
C181 C184 1.378 . S
C181 H196 0.929 . S
C182 C181 1.362 . S
C182 C183 1.366 . S
C183 C180 1.365 . S
C183 C182 1.366 . S
C183 H197 0.930 . S
C184 C181 1.378 . S
C184 N185 1.315 . S
C184 H187 0.930 . S
N185 Co165 2.194 . S
N185 C180 1.328 . S
N185 C184 1.315 . S
H186 C180 0.929 . S
H187 C184 0.930 . S
H188 C176 0.929 . S
H189 C178 0.929 . S
O190 Co165 2.351 . S
O190 C193 1.244 . S
O191 Co165 2.155 . S
O191 C193 1.240 . S
O192 Co165 2.096 . S
O192 C173 1.247 . S
C193 O190 1.244 . S
C193 O191 1.240 . S
H194 C168 0.931 . S
H195 C177 0.931 . S
H196 C181 0.929 . S
H197 C183 0.930 . S
Co198 N202 2.148 . S
Co198 N208 2.128 . S
Co198 N218 2.194 . S
Co198 O223 2.351 . S
Co198 O224 2.155 . S
Co198 O225 2.096 . S
C199 N202 1.301 . S
C199 N203 1.328 . S
C199 H204 0.930 . S
C200 C201 1.333 . S
C200 N202 1.317 . S
C200 H205 0.930 . S
C201 C200 1.333 . S
C201 N203 1.350 . S
C201 H227 0.931 . S
N202 Co198 2.148 . S
N202 C199 1.301 . S
N202 C200 1.317 . S
N203 C199 1.328 . S
N203 C201 1.350 . S
H204 C199 0.930 . S
H205 C200 0.930 . S
C206 O207 1.224 . S
C206 O225 1.247 . S
O207 C206 1.224 . S
N208 Co198 2.128 . S
N208 C209 1.355 . S
N208 C211 1.311 . S
C209 N208 1.355 . S
C209 C210 1.363 1_655 S
C209 H221 0.929 . S
C210 C209 1.363 1_455 S
C210 N212 1.375 . S
C210 H228 0.931 . S
C211 N208 1.311 . S
C211 N212 1.347 1_655 S
C211 H222 0.929 . S
N212 C210 1.375 . S
N212 C211 1.347 1_455 S
C213 C216 1.365 . S
C213 N218 1.328 . S
C213 H219 0.929 . S
C214 C215 1.362 . S
C214 C217 1.378 . S
C214 H229 0.929 . S
C215 C214 1.362 . S
C215 C216 1.366 . S
C216 C213 1.365 . S
C216 C215 1.366 . S
C216 H230 0.930 . S
C217 C214 1.378 . S
C217 N218 1.315 . S
C217 H220 0.930 . S
N218 Co198 2.194 . S
N218 C213 1.328 . S
N218 C217 1.315 . S
H219 C213 0.929 . S
H220 C217 0.930 . S
H221 C209 0.929 . S
H222 C211 0.929 . S
O223 Co198 2.351 . S
O223 C226 1.244 . S
O224 Co198 2.155 . S
O224 C226 1.240 . S
O225 Co198 2.096 . S
O225 C206 1.247 . S
C226 O223 1.244 . S
C226 O224 1.240 . S
H227 C201 0.931 . S
H228 C210 0.931 . S
H229 C214 0.929 . S
H230 C216 0.930 . S
Co231 N235 2.148 . S
Co231 N241 2.128 . S
Co231 N251 2.194 . S
Co231 O256 2.351 . S
Co231 O257 2.155 . S
Co231 O258 2.096 . S
C232 N235 1.301 . S
C232 N236 1.328 . S
C232 H237 0.930 . S
C233 C234 1.333 . S
C233 N235 1.317 . S
C233 H238 0.930 . S
C234 C233 1.333 . S
C234 N236 1.350 . S
C234 H260 0.931 . S
N235 Co231 2.148 . S
N235 C232 1.301 . S
N235 C233 1.317 . S
N236 C232 1.328 . S
N236 C234 1.350 . S
H237 C232 0.930 . S
H238 C233 0.930 . S
C239 O240 1.224 . S
C239 O258 1.247 . S
O240 C239 1.224 . S
N241 Co231 2.128 . S
N241 C242 1.355 . S
N241 C244 1.311 . S
C242 N241 1.355 . S
C242 C243 1.363 . S
C242 H254 0.929 . S
C243 C242 1.363 . S
C243 N245 1.375 . S
C243 H261 0.931 . S
C244 N241 1.311 . S
C244 N245 1.347 . S
C244 H255 0.929 . S
N245 C243 1.375 . S
N245 C244 1.347 . S
C246 C249 1.365 . S
C246 N251 1.328 . S
C246 H252 0.929 . S
C247 C248 1.362 . S
C247 C250 1.378 . S
C247 H262 0.929 . S
C248 C247 1.362 . S
C248 C249 1.366 . S
C249 C246 1.365 . S
C249 C248 1.366 . S
C249 H263 0.930 . S
C250 C247 1.378 . S
C250 N251 1.315 . S
C250 H253 0.930 . S
N251 Co231 2.194 . S
N251 C246 1.328 . S
N251 C250 1.315 . S
H252 C246 0.929 . S
H253 C250 0.930 . S
H254 C242 0.929 . S
H255 C244 0.929 . S
O256 Co231 2.351 . S
O256 C259 1.244 . S
O257 Co231 2.155 . S
O257 C259 1.240 . S
O258 Co231 2.096 . S
O258 C239 1.247 . S
C259 O256 1.244 . S
C259 O257 1.240 . S
H260 C234 0.931 . S
H261 C243 0.931 . S
H262 C247 0.929 . S
H263 C249 0.930 . S
Co264 N268 2.148 . S
Co264 N274 2.128 . S
Co264 N284 2.194 . S
Co264 O289 2.351 . S
Co264 O290 2.155 . S
Co264 O291 2.096 . S
C265 N268 1.301 . S
C265 N269 1.328 . S
C265 H270 0.930 . S
C266 C267 1.333 . S
C266 N268 1.317 . S
C266 H271 0.930 . S
C267 C266 1.333 . S
C267 N269 1.350 . S
C267 H293 0.931 . S
N268 Co264 2.148 . S
N268 C265 1.301 . S
N268 C266 1.317 . S
N269 C265 1.328 . S
N269 C267 1.350 . S
H270 C265 0.930 . S
H271 C266 0.930 . S
C272 O273 1.224 . S
C272 O291 1.247 . S
O273 C272 1.224 . S
N274 Co264 2.128 . S
N274 C275 1.355 . S
N274 C277 1.311 . S
C275 N274 1.355 . S
C275 C276 1.363 1_545 S
C275 H287 0.929 . S
C276 C275 1.363 1_565 S
C276 N278 1.375 . S
C276 H294 0.931 . S
C277 N274 1.311 . S
C277 N278 1.347 1_545 S
C277 H288 0.929 . S
N278 C276 1.375 . S
N278 C277 1.347 1_565 S
C279 C282 1.365 . S
C279 N284 1.328 . S
C279 H285 0.929 . S
C280 C281 1.362 . S
C280 C283 1.378 . S
C280 H295 0.929 . S
C281 C280 1.362 . S
C281 C282 1.366 . S
C282 C279 1.365 . S
C282 C281 1.366 . S
C282 H296 0.930 . S
C283 C280 1.378 . S
C283 N284 1.315 . S
C283 H286 0.930 . S
N284 Co264 2.194 . S
N284 C279 1.328 . S
N284 C283 1.315 . S
H285 C279 0.929 . S
H286 C283 0.930 . S
H287 C275 0.929 . S
H288 C277 0.929 . S
O289 Co264 2.351 . S
O289 C292 1.244 . S
O290 Co264 2.155 . S
O290 C292 1.240 . S
O291 Co264 2.096 . S
O291 C272 1.247 . S
C292 O289 1.244 . S
C292 O290 1.240 . S
H293 C267 0.931 . S
H294 C276 0.931 . S
H295 C280 0.929 . S
H296 C282 0.930 . S
Co297 N301 2.148 . S
Co297 N307 2.128 . S
Co297 N317 2.194 . S
Co297 O322 2.351 . S
Co297 O323 2.155 . S
Co297 O324 2.096 . S
C298 N301 1.301 . S
C298 N302 1.328 . S
C298 H303 0.930 . S
C299 C300 1.333 . S
C299 N301 1.317 . S
C299 H304 0.930 . S
C300 C299 1.333 . S
C300 N302 1.350 . S
C300 H326 0.931 . S
N301 Co297 2.148 . S
N301 C298 1.301 . S
N301 C299 1.317 . S
N302 C298 1.328 . S
N302 C300 1.350 . S
H303 C298 0.930 . S
H304 C299 0.930 . S
C305 O306 1.224 . S
C305 O324 1.247 . S
O306 C305 1.224 . S
N307 Co297 2.128 . S
N307 C308 1.355 . S
N307 C310 1.311 . S
C308 N307 1.355 . S
C308 C309 1.363 . S
C308 H320 0.929 . S
C309 C308 1.363 . S
C309 N311 1.375 . S
C309 H327 0.931 . S
C310 N307 1.311 . S
C310 N311 1.347 . S
C310 H321 0.929 . S
N311 C309 1.375 . S
N311 C310 1.347 . S
C312 C315 1.365 . S
C312 N317 1.328 . S
C312 H318 0.929 . S
C313 C314 1.362 . S
C313 C316 1.378 . S
C313 H328 0.929 . S
C314 C313 1.362 . S
C314 C315 1.366 . S
C315 C312 1.365 . S
C315 C314 1.366 . S
C315 H329 0.930 . S
C316 C313 1.378 . S
C316 N317 1.315 . S
C316 H319 0.930 . S
N317 Co297 2.194 . S
N317 C312 1.328 . S
N317 C316 1.315 . S
H318 C312 0.929 . S
H319 C316 0.930 . S
H320 C308 0.929 . S
H321 C310 0.929 . S
O322 Co297 2.351 . S
O322 C325 1.244 . S
O323 Co297 2.155 . S
O323 C325 1.240 . S
O324 Co297 2.096 . S
O324 C305 1.247 . S
C325 O322 1.244 . S
C325 O323 1.240 . S
H326 C300 0.931 . S
H327 C309 0.931 . S
H328 C313 0.929 . S
H329 C315 0.930 . S
Co330 N334 2.148 . S
Co330 N340 2.128 . S
Co330 N350 2.194 . S
Co330 O355 2.351 . S
Co330 O356 2.155 . S
Co330 O357 2.096 . S
C331 N334 1.301 . S
C331 N335 1.328 . S
C331 H336 0.930 . S
C332 C333 1.333 . S
C332 N334 1.317 . S
C332 H337 0.930 . S
C333 C332 1.333 . S
C333 N335 1.350 . S
C333 H359 0.931 . S
N334 Co330 2.148 . S
N334 C331 1.301 . S
N334 C332 1.317 . S
N335 C331 1.328 . S
N335 C333 1.350 . S
H336 C331 0.930 . S
H337 C332 0.930 . S
C338 O339 1.224 . S
C338 O357 1.247 . S
O339 C338 1.224 . S
N340 Co330 2.128 . S
N340 C341 1.355 . S
N340 C343 1.311 . S
C341 N340 1.355 . S
C341 C342 1.363 1_565 S
C341 H353 0.929 . S
C342 C341 1.363 1_545 S
C342 N344 1.375 . S
C342 H360 0.931 . S
C343 N340 1.311 . S
C343 N344 1.347 1_565 S
C343 H354 0.929 . S
N344 C342 1.375 . S
N344 C343 1.347 1_545 S
C345 C348 1.365 . S
C345 N350 1.328 . S
C345 H351 0.929 . S
C346 C347 1.362 . S
C346 C349 1.378 . S
C346 H361 0.929 . S
C347 C346 1.362 . S
C347 C348 1.366 . S
C348 C345 1.365 . S
C348 C347 1.366 . S
C348 H362 0.930 . S
C349 C346 1.378 . S
C349 N350 1.315 . S
C349 H352 0.930 . S
N350 Co330 2.194 . S
N350 C345 1.328 . S
N350 C349 1.315 . S
H351 C345 0.929 . S
H352 C349 0.930 . S
H353 C341 0.929 . S
H354 C343 0.929 . S
O355 Co330 2.351 . S
O355 C358 1.244 . S
O356 Co330 2.155 . S
O356 C358 1.240 . S
O357 Co330 2.096 . S
O357 C338 1.247 . S
C358 O355 1.244 . S
C358 O356 1.240 . S
H359 C333 0.931 . S
H360 C342 0.931 . S
H361 C346 0.929 . S
H362 C348 0.930 . S
Co363 N367 2.148 . S
Co363 N373 2.128 . S
Co363 N383 2.194 . S
Co363 O388 2.351 . S
Co363 O389 2.155 . S
Co363 O390 2.096 . S
C364 N367 1.301 . S
C364 N368 1.328 . S
C364 H369 0.930 . S
C365 C366 1.333 . S
C365 N367 1.317 . S
C365 H370 0.930 . S
C366 C365 1.333 . S
C366 N368 1.350 . S
C366 H392 0.931 . S
N367 Co363 2.148 . S
N367 C364 1.301 . S
N367 C365 1.317 . S
N368 C364 1.328 . S
N368 C366 1.350 . S
H369 C364 0.930 . S
H370 C365 0.930 . S
C371 O372 1.224 . S
C371 O390 1.247 . S
O372 C371 1.224 . S
N373 Co363 2.128 . S
N373 C374 1.355 . S
N373 C376 1.311 . S
C374 N373 1.355 . S
C374 C375 1.363 . S
C374 H386 0.929 . S
C375 C374 1.363 . S
C375 N377 1.375 . S
C375 H393 0.931 . S
C376 N373 1.311 . S
C376 N377 1.347 . S
C376 H387 0.929 . S
N377 C375 1.375 . S
N377 C376 1.347 . S
C378 C381 1.365 . S
C378 N383 1.328 . S
C378 H384 0.929 . S
C379 C380 1.362 . S
C379 C382 1.378 . S
C379 H394 0.929 . S
C380 C379 1.362 . S
C380 C381 1.366 . S
C381 C378 1.365 . S
C381 C380 1.366 . S
C381 H395 0.930 . S
C382 C379 1.378 . S
C382 N383 1.315 . S
C382 H385 0.930 . S
N383 Co363 2.194 . S
N383 C378 1.328 . S
N383 C382 1.315 . S
H384 C378 0.929 . S
H385 C382 0.930 . S
H386 C374 0.929 . S
H387 C376 0.929 . S
O388 Co363 2.351 . S
O388 C391 1.244 . S
O389 Co363 2.155 . S
O389 C391 1.240 . S
O390 Co363 2.096 . S
O390 C371 1.247 . S
C391 O388 1.244 . S
C391 O389 1.240 . S
H392 C366 0.931 . S
H393 C375 0.931 . S
H394 C379 0.929 . S
H395 C381 0.930 . S
Co396 N400 2.148 . S
Co396 N406 2.128 . S
Co396 N416 2.194 . S
Co396 O421 2.351 . S
Co396 O422 2.155 . S
Co396 O423 2.096 . S
C397 N400 1.301 . S
C397 N401 1.328 . S
C397 H402 0.930 . S
C398 C399 1.333 . S
C398 N400 1.317 . S
C398 H403 0.930 . S
C399 C398 1.333 . S
C399 N401 1.350 . S
C399 H425 0.931 . S
N400 Co396 2.148 . S
N400 C397 1.301 . S
N400 C398 1.317 . S
N401 C397 1.328 . S
N401 C399 1.350 . S
H402 C397 0.930 . S
H403 C398 0.930 . S
C404 O405 1.224 . S
C404 O423 1.247 . S
O405 C404 1.224 . S
N406 Co396 2.128 . S
N406 C407 1.355 . S
N406 C409 1.311 . S
C407 N406 1.355 . S
C407 C408 1.363 1_565 S
C407 H419 0.929 . S
C408 C407 1.363 1_545 S
C408 N410 1.375 . S
C408 H426 0.931 . S
C409 N406 1.311 . S
C409 N410 1.347 1_565 S
C409 H420 0.929 . S
N410 C408 1.375 . S
N410 C409 1.347 1_545 S
C411 C414 1.365 . S
C411 N416 1.328 . S
C411 H417 0.929 . S
C412 C413 1.362 . S
C412 C415 1.378 . S
C412 H427 0.929 . S
C413 C412 1.362 . S
C413 C414 1.366 . S
C414 C411 1.365 . S
C414 C413 1.366 . S
C414 H428 0.930 . S
C415 C412 1.378 . S
C415 N416 1.315 . S
C415 H418 0.930 . S
N416 Co396 2.194 . S
N416 C411 1.328 . S
N416 C415 1.315 . S
H417 C411 0.929 . S
H418 C415 0.930 . S
H419 C407 0.929 . S
H420 C409 0.929 . S
O421 Co396 2.351 . S
O421 C424 1.244 . S
O422 Co396 2.155 . S
O422 C424 1.240 . S
O423 Co396 2.096 . S
O423 C404 1.247 . S
C424 O421 1.244 . S
C424 O422 1.240 . S
H425 C399 0.931 . S
H426 C408 0.931 . S
H427 C412 0.929 . S
H428 C414 0.930 . S
Co429 N433 2.148 . S
Co429 N439 2.128 . S
Co429 N449 2.194 . S
Co429 O454 2.351 . S
Co429 O455 2.155 . S
Co429 O456 2.096 . S
C430 N433 1.301 . S
C430 N434 1.328 . S
C430 H435 0.930 . S
C431 C432 1.333 . S
C431 N433 1.317 . S
C431 H436 0.930 . S
C432 C431 1.333 . S
C432 N434 1.350 . S
C432 H458 0.931 . S
N433 Co429 2.148 . S
N433 C430 1.301 . S
N433 C431 1.317 . S
N434 C430 1.328 . S
N434 C432 1.350 . S
H435 C430 0.930 . S
H436 C431 0.930 . S
C437 O438 1.224 . S
C437 O456 1.247 . S
O438 C437 1.224 . S
N439 Co429 2.128 . S
N439 C440 1.355 . S
N439 C442 1.311 . S
C440 N439 1.355 . S
C440 C441 1.363 . S
C440 H452 0.929 . S
C441 C440 1.363 . S
C441 N443 1.375 . S
C441 H459 0.931 . S
C442 N439 1.311 . S
C442 N443 1.347 . S
C442 H453 0.929 . S
N443 C441 1.375 . S
N443 C442 1.347 . S
C444 C447 1.365 . S
C444 N449 1.328 . S
C444 H450 0.929 . S
C445 C446 1.362 . S
C445 C448 1.378 . S
C445 H460 0.929 . S
C446 C445 1.362 . S
C446 C447 1.366 . S
C447 C444 1.365 . S
C447 C446 1.366 . S
C447 H461 0.930 . S
C448 C445 1.378 . S
C448 N449 1.315 . S
C448 H451 0.930 . S
N449 Co429 2.194 . S
N449 C444 1.328 . S
N449 C448 1.315 . S
H450 C444 0.929 . S
H451 C448 0.930 . S
H452 C440 0.929 . S
H453 C442 0.929 . S
O454 Co429 2.351 . S
O454 C457 1.244 . S
O455 Co429 2.155 . S
O455 C457 1.240 . S
O456 Co429 2.096 . S
O456 C437 1.247 . S
C457 O454 1.244 . S
C457 O455 1.240 . S
H458 C432 0.931 . S
H459 C441 0.931 . S
H460 C445 0.929 . S
H461 C447 0.930 . S
Co462 N466 2.148 . S
Co462 N472 2.128 . S
Co462 N482 2.194 . S
Co462 O487 2.351 . S
Co462 O488 2.155 . S
Co462 O489 2.096 . S
C463 N466 1.301 . S
C463 N467 1.328 . S
C463 H468 0.930 . S
C464 C465 1.333 . S
C464 N466 1.317 . S
C464 H469 0.930 . S
C465 C464 1.333 . S
C465 N467 1.350 . S
C465 H491 0.931 . S
N466 Co462 2.148 . S
N466 C463 1.301 . S
N466 C464 1.317 . S
N467 C463 1.328 . S
N467 C465 1.350 . S
H468 C463 0.930 . S
H469 C464 0.930 . S
C470 O471 1.224 . S
C470 O489 1.247 . S
O471 C470 1.224 . S
N472 Co462 2.128 . S
N472 C473 1.355 . S
N472 C475 1.311 . S
C473 N472 1.355 . S
C473 C474 1.363 1_545 S
C473 H485 0.929 . S
C474 C473 1.363 1_565 S
C474 N476 1.375 . S
C474 H492 0.931 . S
C475 N472 1.311 . S
C475 N476 1.347 1_545 S
C475 H486 0.929 . S
N476 C474 1.375 . S
N476 C475 1.347 1_565 S
C477 C480 1.365 . S
C477 N482 1.328 . S
C477 H483 0.929 . S
C478 C479 1.362 . S
C478 C481 1.378 . S
C478 H493 0.929 . S
C479 C478 1.362 . S
C479 C480 1.366 . S
C480 C477 1.365 . S
C480 C479 1.366 . S
C480 H494 0.930 . S
C481 C478 1.378 . S
C481 N482 1.315 . S
C481 H484 0.930 . S
N482 Co462 2.194 . S
N482 C477 1.328 . S
N482 C481 1.315 . S
H483 C477 0.929 . S
H484 C481 0.930 . S
H485 C473 0.929 . S
H486 C475 0.929 . S
O487 Co462 2.351 . S
O487 C490 1.244 . S
O488 Co462 2.155 . S
O488 C490 1.240 . S
O489 Co462 2.096 . S
O489 C470 1.247 . S
C490 O487 1.244 . S
C490 O488 1.240 . S
H491 C465 0.931 . S
H492 C474 0.931 . S
H493 C478 0.929 . S
H494 C480 0.930 . S
Co495 N499 2.148 . S
Co495 N505 2.128 . S
Co495 N515 2.194 . S
Co495 O520 2.351 . S
Co495 O521 2.155 . S
Co495 O522 2.096 . S
C496 N499 1.301 . S
C496 N500 1.328 . S
C496 H501 0.930 . S
C497 C498 1.333 . S
C497 N499 1.317 . S
C497 H502 0.930 . S
C498 C497 1.333 . S
C498 N500 1.350 . S
C498 H524 0.931 . S
N499 Co495 2.148 . S
N499 C496 1.301 . S
N499 C497 1.317 . S
N500 C496 1.328 . S
N500 C498 1.350 . S
H501 C496 0.930 . S
H502 C497 0.930 . S
C503 O504 1.224 . S
C503 O522 1.247 . S
O504 C503 1.224 . S
N505 Co495 2.128 . S
N505 C506 1.355 . S
N505 C508 1.311 . S
C506 N505 1.355 . S
C506 C507 1.363 . S
C506 H518 0.929 . S
C507 C506 1.363 . S
C507 N509 1.375 . S
C507 H525 0.931 . S
C508 N505 1.311 . S
C508 N509 1.347 . S
C508 H519 0.929 . S
N509 C507 1.375 . S
N509 C508 1.347 . S
C510 C513 1.365 . S
C510 N515 1.328 . S
C510 H516 0.929 . S
C511 C512 1.362 . S
C511 C514 1.378 . S
C511 H526 0.929 . S
C512 C511 1.362 . S
C512 C513 1.366 . S
C513 C510 1.365 . S
C513 C512 1.366 . S
C513 H527 0.930 . S
C514 C511 1.378 . S
C514 N515 1.315 . S
C514 H517 0.930 . S
N515 Co495 2.194 . S
N515 C510 1.328 . S
N515 C514 1.315 . S
H516 C510 0.929 . S
H517 C514 0.930 . S
H518 C506 0.929 . S
H519 C508 0.929 . S
O520 Co495 2.351 . S
O520 C523 1.244 . S
O521 Co495 2.155 . S
O521 C523 1.240 . S
O522 Co495 2.096 . S
O522 C503 1.247 . S
C523 O520 1.244 . S
C523 O521 1.240 . S
H524 C498 0.931 . S
H525 C507 0.931 . S
H526 C511 0.929 . S
H527 C513 0.930 . S
Co528 N532 2.148 . S
Co528 N538 2.128 . S
Co528 N548 2.194 . S
Co528 O553 2.351 . S
Co528 O554 2.155 . S
Co528 O555 2.096 . S
C529 N532 1.301 . S
C529 N533 1.328 . S
C529 H534 0.930 . S
C530 C531 1.333 . S
C530 N532 1.317 . S
C530 H535 0.930 . S
C531 C530 1.333 . S
C531 N533 1.350 . S
C531 H557 0.931 . S
N532 Co528 2.148 . S
N532 C529 1.301 . S
N532 C530 1.317 . S
N533 C529 1.328 . S
N533 C531 1.350 . S
H534 C529 0.930 . S
H535 C530 0.930 . S
C536 O537 1.224 . S
C536 O555 1.247 . S
O537 C536 1.224 . S
N538 Co528 2.128 . S
N538 C539 1.355 . S
N538 C541 1.311 . S
C539 N538 1.355 . S
C539 C540 1.363 1_554 S
C539 H551 0.929 . S
C540 C539 1.363 1_556 S
C540 N542 1.375 . S
C540 H558 0.931 . S
C541 N538 1.311 . S
C541 N542 1.347 1_554 S
C541 H552 0.929 . S
N542 C540 1.375 . S
N542 C541 1.347 1_556 S
C543 C546 1.365 . S
C543 N548 1.328 . S
C543 H549 0.929 . S
C544 C545 1.362 . S
C544 C547 1.378 . S
C544 H559 0.929 . S
C545 C544 1.362 . S
C545 C546 1.366 . S
C546 C543 1.365 . S
C546 C545 1.366 . S
C546 H560 0.930 . S
C547 C544 1.378 . S
C547 N548 1.315 . S
C547 H550 0.930 . S
N548 Co528 2.194 . S
N548 C543 1.328 . S
N548 C547 1.315 . S
H549 C543 0.929 . S
H550 C547 0.930 . S
H551 C539 0.929 . S
H552 C541 0.929 . S
O553 Co528 2.351 . S
O553 C556 1.244 . S
O554 Co528 2.155 . S
O554 C556 1.240 . S
O555 Co528 2.096 . S
O555 C536 1.247 . S
C556 O553 1.244 . S
C556 O554 1.240 . S
H557 C531 0.931 . S
H558 C540 0.931 . S
H559 C544 0.929 . S
H560 C546 0.930 . S
Co561 N565 2.148 . S
Co561 N571 2.128 . S
Co561 N581 2.194 . S
Co561 O586 2.351 . S
Co561 O587 2.155 . S
Co561 O588 2.096 . S
C562 N565 1.301 . S
C562 N566 1.328 . S
C562 H567 0.930 . S
C563 C564 1.333 . S
C563 N565 1.317 . S
C563 H568 0.930 . S
C564 C563 1.333 . S
C564 N566 1.350 . S
C564 H590 0.931 . S
N565 Co561 2.148 . S
N565 C562 1.301 . S
N565 C563 1.317 . S
N566 C562 1.328 . S
N566 C564 1.350 . S
H567 C562 0.930 . S
H568 C563 0.930 . S
C569 O570 1.224 . S
C569 O588 1.247 . S
O570 C569 1.224 . S
N571 Co561 2.128 . S
N571 C572 1.355 . S
N571 C574 1.311 . S
C572 N571 1.355 . S
C572 C573 1.363 1_556 S
C572 H584 0.929 . S
C573 C572 1.363 1_554 S
C573 N575 1.375 . S
C573 H591 0.931 . S
C574 N571 1.311 . S
C574 N575 1.347 1_556 S
C574 H585 0.929 . S
N575 C573 1.375 . S
N575 C574 1.347 1_554 S
C576 C579 1.365 . S
C576 N581 1.328 . S
C576 H582 0.929 . S
C577 C578 1.362 . S
C577 C580 1.378 . S
C577 H592 0.929 . S
C578 C577 1.362 . S
C578 C579 1.366 . S
C579 C576 1.365 . S
C579 C578 1.366 . S
C579 H593 0.930 . S
C580 C577 1.378 . S
C580 N581 1.315 . S
C580 H583 0.930 . S
N581 Co561 2.194 . S
N581 C576 1.328 . S
N581 C580 1.315 . S
H582 C576 0.929 . S
H583 C580 0.930 . S
H584 C572 0.929 . S
H585 C574 0.929 . S
O586 Co561 2.351 . S
O586 C589 1.244 . S
O587 Co561 2.155 . S
O587 C589 1.240 . S
O588 Co561 2.096 . S
O588 C569 1.247 . S
C589 O586 1.244 . S
C589 O587 1.240 . S
H590 C564 0.931 . S
H591 C573 0.931 . S
H592 C577 0.929 . S
H593 C579 0.930 . S
Co594 N598 2.148 . S
Co594 N604 2.128 . S
Co594 N614 2.194 . S
Co594 O619 2.351 . S
Co594 O620 2.155 . S
Co594 O621 2.096 . S
C595 N598 1.301 . S
C595 N599 1.328 . S
C595 H600 0.930 . S
C596 C597 1.333 . S
C596 N598 1.317 . S
C596 H601 0.930 . S
C597 C596 1.333 . S
C597 N599 1.350 . S
C597 H623 0.931 . S
N598 Co594 2.148 . S
N598 C595 1.301 . S
N598 C596 1.317 . S
N599 C595 1.328 . S
N599 C597 1.350 . S
H600 C595 0.930 . S
H601 C596 0.930 . S
C602 O603 1.224 . S
C602 O621 1.247 . S
O603 C602 1.224 . S
N604 Co594 2.128 . S
N604 C605 1.355 . S
N604 C607 1.311 . S
C605 N604 1.355 . S
C605 C606 1.363 . S
C605 H617 0.929 . S
C606 C605 1.363 . S
C606 N608 1.375 . S
C606 H624 0.931 . S
C607 N604 1.311 . S
C607 N608 1.347 . S
C607 H618 0.929 . S
N608 C606 1.375 . S
N608 C607 1.347 . S
C609 C612 1.365 . S
C609 N614 1.328 . S
C609 H615 0.929 . S
C610 C611 1.362 . S
C610 C613 1.378 . S
C610 H625 0.929 . S
C611 C610 1.362 . S
C611 C612 1.366 . S
C612 C609 1.365 . S
C612 C611 1.366 . S
C612 H626 0.930 . S
C613 C610 1.378 . S
C613 N614 1.315 . S
C613 H616 0.930 . S
N614 Co594 2.194 . S
N614 C609 1.328 . S
N614 C613 1.315 . S
H615 C609 0.929 . S
H616 C613 0.930 . S
H617 C605 0.929 . S
H618 C607 0.929 . S
O619 Co594 2.351 . S
O619 C622 1.244 . S
O620 Co594 2.155 . S
O620 C622 1.240 . S
O621 Co594 2.096 . S
O621 C602 1.247 . S
C622 O619 1.244 . S
C622 O620 1.240 . S
H623 C597 0.931 . S
H624 C606 0.931 . S
H625 C610 0.929 . S
H626 C612 0.930 . S
Co627 N631 2.148 . S
Co627 N637 2.128 . S
Co627 N647 2.194 . S
Co627 O652 2.351 . S
Co627 O653 2.155 . S
Co627 O654 2.096 . S
C628 N631 1.301 . S
C628 N632 1.328 . S
C628 H633 0.930 . S
C629 C630 1.333 . S
C629 N631 1.317 . S
C629 H634 0.930 . S
C630 C629 1.333 . S
C630 N632 1.350 . S
C630 H656 0.931 . S
N631 Co627 2.148 . S
N631 C628 1.301 . S
N631 C629 1.317 . S
N632 C628 1.328 . S
N632 C630 1.350 . S
H633 C628 0.930 . S
H634 C629 0.930 . S
C635 O636 1.224 . S
C635 O654 1.247 . S
O636 C635 1.224 . S
N637 Co627 2.128 . S
N637 C638 1.355 . S
N637 C640 1.311 . S
C638 N637 1.355 . S
C638 C639 1.363 1_556 S
C638 H650 0.929 . S
C639 C638 1.363 1_554 S
C639 N641 1.375 . S
C639 H657 0.931 . S
C640 N637 1.311 . S
C640 N641 1.347 1_556 S
C640 H651 0.929 . S
N641 C639 1.375 . S
N641 C640 1.347 1_554 S
C642 C645 1.365 . S
C642 N647 1.328 . S
C642 H648 0.929 . S
C643 C644 1.362 . S
C643 C646 1.378 . S
C643 H658 0.929 . S
C644 C643 1.362 . S
C644 C645 1.366 . S
C645 C642 1.365 . S
C645 C644 1.366 . S
C645 H659 0.930 . S
C646 C643 1.378 . S
C646 N647 1.315 . S
C646 H649 0.930 . S
N647 Co627 2.194 . S
N647 C642 1.328 . S
N647 C646 1.315 . S
H648 C642 0.929 . S
H649 C646 0.930 . S
H650 C638 0.929 . S
H651 C640 0.929 . S
O652 Co627 2.351 . S
O652 C655 1.244 . S
O653 Co627 2.155 . S
O653 C655 1.240 . S
O654 Co627 2.096 . S
O654 C635 1.247 . S
C655 O652 1.244 . S
C655 O653 1.240 . S
H656 C630 0.931 . S
H657 C639 0.931 . S
H658 C643 0.929 . S
H659 C645 0.930 . S
Co660 N664 2.148 . S
Co660 N670 2.128 . S
Co660 N680 2.194 . S
Co660 O685 2.351 . S
Co660 O686 2.155 . S
Co660 O687 2.096 . S
C661 N664 1.301 . S
C661 N665 1.328 . S
C661 H666 0.930 . S
C662 C663 1.333 . S
C662 N664 1.317 . S
C662 H667 0.930 . S
C663 C662 1.333 . S
C663 N665 1.350 . S
C663 H689 0.931 . S
N664 Co660 2.148 . S
N664 C661 1.301 . S
N664 C662 1.317 . S
N665 C661 1.328 . S
N665 C663 1.350 . S
H666 C661 0.930 . S
H667 C662 0.930 . S
C668 O669 1.224 . S
C668 O687 1.247 . S
O669 C668 1.224 . S
N670 Co660 2.128 . S
N670 C671 1.355 . S
N670 C673 1.311 . S
C671 N670 1.355 . S
C671 C672 1.363 . S
C671 H683 0.929 . S
C672 C671 1.363 . S
C672 N674 1.375 . S
C672 H690 0.931 . S
C673 N670 1.311 . S
C673 N674 1.347 . S
C673 H684 0.929 . S
N674 C672 1.375 . S
N674 C673 1.347 . S
C675 C678 1.365 . S
C675 N680 1.328 . S
C675 H681 0.929 . S
C676 C677 1.362 . S
C676 C679 1.378 . S
C676 H691 0.929 . S
C677 C676 1.362 . S
C677 C678 1.366 . S
C678 C675 1.365 . S
C678 C677 1.366 . S
C678 H692 0.930 . S
C679 C676 1.378 . S
C679 N680 1.315 . S
C679 H682 0.930 . S
N680 Co660 2.194 . S
N680 C675 1.328 . S
N680 C679 1.315 . S
H681 C675 0.929 . S
H682 C679 0.930 . S
H683 C671 0.929 . S
H684 C673 0.929 . S
O685 Co660 2.351 . S
O685 C688 1.244 . S
O686 Co660 2.155 . S
O686 C688 1.240 . S
O687 Co660 2.096 . S
O687 C668 1.247 . S
C688 O685 1.244 . S
C688 O686 1.240 . S
H689 C663 0.931 . S
H690 C672 0.931 . S
H691 C676 0.929 . S
H692 C678 0.930 . S
Co693 N697 2.148 . S
Co693 N703 2.128 . S
Co693 N713 2.194 . S
Co693 O718 2.351 . S
Co693 O719 2.155 . S
Co693 O720 2.096 . S
C694 N697 1.301 . S
C694 N698 1.328 . S
C694 H699 0.930 . S
C695 C696 1.333 . S
C695 N697 1.317 . S
C695 H700 0.930 . S
C696 C695 1.333 . S
C696 N698 1.350 . S
C696 H722 0.931 . S
N697 Co693 2.148 . S
N697 C694 1.301 . S
N697 C695 1.317 . S
N698 C694 1.328 . S
N698 C696 1.350 . S
H699 C694 0.930 . S
H700 C695 0.930 . S
C701 O702 1.224 . S
C701 O720 1.247 . S
O702 C701 1.224 . S
N703 Co693 2.128 . S
N703 C704 1.355 . S
N703 C706 1.311 . S
C704 N703 1.355 . S
C704 C705 1.363 1_554 S
C704 H716 0.929 . S
C705 C704 1.363 1_556 S
C705 N707 1.375 . S
C705 H723 0.931 . S
C706 N703 1.311 . S
C706 N707 1.347 1_554 S
C706 H717 0.929 . S
N707 C705 1.375 . S
N707 C706 1.347 1_556 S
C708 C711 1.365 . S
C708 N713 1.328 . S
C708 H714 0.929 . S
C709 C710 1.362 . S
C709 C712 1.378 . S
C709 H724 0.929 . S
C710 C709 1.362 . S
C710 C711 1.366 . S
C711 C708 1.365 . S
C711 C710 1.366 . S
C711 H725 0.930 . S
C712 C709 1.378 . S
C712 N713 1.315 . S
C712 H715 0.930 . S
N713 Co693 2.194 . S
N713 C708 1.328 . S
N713 C712 1.315 . S
H714 C708 0.929 . S
H715 C712 0.930 . S
H716 C704 0.929 . S
H717 C706 0.929 . S
O718 Co693 2.351 . S
O718 C721 1.244 . S
O719 Co693 2.155 . S
O719 C721 1.240 . S
O720 Co693 2.096 . S
O720 C701 1.247 . S
C721 O718 1.244 . S
C721 O719 1.240 . S
H722 C696 0.931 . S
H723 C705 0.931 . S
H724 C709 0.929 . S
H725 C711 0.930 . S
Co726 N730 2.148 . S
Co726 N736 2.128 . S
Co726 N746 2.194 . S
Co726 O751 2.351 . S
Co726 O752 2.155 . S
Co726 O753 2.096 . S
C727 N730 1.301 . S
C727 N731 1.328 . S
C727 H732 0.930 . S
C728 C729 1.333 . S
C728 N730 1.317 . S
C728 H733 0.930 . S
C729 C728 1.333 . S
C729 N731 1.350 . S
C729 H755 0.931 . S
N730 Co726 2.148 . S
N730 C727 1.301 . S
N730 C728 1.317 . S
N731 C727 1.328 . S
N731 C729 1.350 . S
H732 C727 0.930 . S
H733 C728 0.930 . S
C734 O735 1.224 . S
C734 O753 1.247 . S
O735 C734 1.224 . S
N736 Co726 2.128 . S
N736 C737 1.355 . S
N736 C739 1.311 . S
C737 N736 1.355 . S
C737 C738 1.363 . S
C737 H749 0.929 . S
C738 C737 1.363 . S
C738 N740 1.375 . S
C738 H756 0.931 . S
C739 N736 1.311 . S
C739 N740 1.347 . S
C739 H750 0.929 . S
N740 C738 1.375 . S
N740 C739 1.347 . S
C741 C744 1.365 . S
C741 N746 1.328 . S
C741 H747 0.929 . S
C742 C743 1.362 . S
C742 C745 1.378 . S
C742 H757 0.929 . S
C743 C742 1.362 . S
C743 C744 1.366 . S
C744 C741 1.365 . S
C744 C743 1.366 . S
C744 H758 0.930 . S
C745 C742 1.378 . S
C745 N746 1.315 . S
C745 H748 0.930 . S
N746 Co726 2.194 . S
N746 C741 1.328 . S
N746 C745 1.315 . S
H747 C741 0.929 . S
H748 C745 0.930 . S
H749 C737 0.929 . S
H750 C739 0.929 . S
O751 Co726 2.351 . S
O751 C754 1.244 . S
O752 Co726 2.155 . S
O752 C754 1.240 . S
O753 Co726 2.096 . S
O753 C734 1.247 . S
C754 O751 1.244 . S
C754 O752 1.240 . S
H755 C729 0.931 . S
H756 C738 0.931 . S
H757 C742 0.929 . S
H758 C744 0.930 . S
Co759 N763 2.148 . S
Co759 N769 2.128 . S
Co759 N779 2.194 . S
Co759 O784 2.351 . S
Co759 O785 2.155 . S
Co759 O786 2.096 . S
C760 N763 1.301 . S
C760 N764 1.328 . S
C760 H765 0.930 . S
C761 C762 1.333 . S
C761 N763 1.317 . S
C761 H766 0.930 . S
C762 C761 1.333 . S
C762 N764 1.350 . S
C762 H788 0.931 . S
N763 Co759 2.148 . S
N763 C760 1.301 . S
N763 C761 1.317 . S
N764 C760 1.328 . S
N764 C762 1.350 . S
H765 C760 0.930 . S
H766 C761 0.930 . S
C767 O768 1.224 . S
C767 O786 1.247 . S
O768 C767 1.224 . S
N769 Co759 2.128 . S
N769 C770 1.355 . S
N769 C772 1.311 . S
C770 N769 1.355 . S
C770 C771 1.363 . S
C770 H782 0.929 . S
C771 C770 1.363 . S
C771 N773 1.375 . S
C771 H789 0.931 . S
C772 N769 1.311 . S
C772 N773 1.347 . S
C772 H783 0.929 . S
N773 C771 1.375 . S
N773 C772 1.347 . S
C774 C777 1.365 . S
C774 N779 1.328 . S
C774 H780 0.929 . S
C775 C776 1.362 . S
C775 C778 1.378 . S
C775 H790 0.929 . S
C776 C775 1.362 . S
C776 C777 1.366 . S
C777 C774 1.365 . S
C777 C776 1.366 . S
C777 H791 0.930 . S
C778 C775 1.378 . S
C778 N779 1.315 . S
C778 H781 0.930 . S
N779 Co759 2.194 . S
N779 C774 1.328 . S
N779 C778 1.315 . S
H780 C774 0.929 . S
H781 C778 0.930 . S
H782 C770 0.929 . S
H783 C772 0.929 . S
O784 Co759 2.351 . S
O784 C787 1.244 . S
O785 Co759 2.155 . S
O785 C787 1.240 . S
O786 Co759 2.096 . S
O786 C767 1.247 . S
C787 O784 1.244 . S
C787 O785 1.240 . S
H788 C762 0.931 . S
H789 C771 0.931 . S
H790 C775 0.929 . S
H791 C777 0.930 . S
C792 C793 1.363 . S
C792 C798 1.379 . S
C792 N800 1.356 . S
C793 C792 1.363 . S
C793 C799 1.363 . S
C794 C795 1.363 . S
C794 C799 1.379 . S
C794 N801 1.356 . S
C795 C794 1.363 . S
C795 C798 1.363 . S
N796 C798 1.356 . S
N796 H808 0.984 . S
N796 H809 0.985 . S
N797 C799 1.356 . S
N797 H802 0.984 . S
N797 H803 0.985 . S
C798 C792 1.379 . S
C798 C795 1.363 . S
C798 N796 1.356 . S
C799 C793 1.363 . S
C799 C794 1.379 . S
C799 N797 1.356 . S
N800 C792 1.356 . S
N800 H806 0.984 . S
N800 H807 0.984 . S
N801 C794 1.356 . S
N801 H804 0.984 . S
N801 H805 0.985 . S
H802 N797 0.984 . S
H803 N797 0.985 . S
H804 N801 0.984 . S
H805 N801 0.985 . S
H806 N800 0.984 . S
H807 N800 0.984 . S
H808 N796 0.984 . S
H809 N796 0.985 . S
C810 C811 1.363 . S
C810 C816 1.379 . S
C810 N818 1.356 . S
C811 C810 1.363 . S
C811 C817 1.363 . S
C812 C813 1.363 . S
C812 C817 1.379 . S
C812 N819 1.356 . S
C813 C812 1.363 . S
C813 C816 1.363 . S
N814 C816 1.356 . S
N814 H826 0.984 . S
N814 H827 0.985 . S
N815 C817 1.356 . S
N815 H820 0.984 . S
N815 H821 0.985 . S
C816 C810 1.379 . S
C816 C813 1.363 . S
C816 N814 1.356 . S
C817 C811 1.363 . S
C817 C812 1.379 . S
C817 N815 1.356 . S
N818 C810 1.356 . S
N818 H824 0.986 . S
N818 H825 0.984 1_655 S
N819 C812 1.356 . S
N819 H822 0.984 . S
N819 H823 0.985 . S
H820 N815 0.984 . S
H821 N815 0.985 . S
H822 N819 0.984 . S
H823 N819 0.985 . S
H824 N818 0.986 . S
H825 N818 0.984 1_455 S
H826 N814 0.984 . S
H827 N814 0.985 . S
C828 C829 1.363 . S
C828 C834 1.379 . S
C828 N836 1.356 . S
C829 C828 1.363 . S
C829 C835 1.363 . S
C830 C831 1.363 . S
C830 C835 1.379 . S
C830 N837 1.356 . S
C831 C830 1.363 . S
C831 C834 1.363 . S
N832 C834 1.356 . S
N832 H844 0.984 . S
N832 H845 0.985 . S
N833 C835 1.356 . S
N833 H838 0.984 . S
N833 H839 0.985 . S
C834 C828 1.379 . S
C834 C831 1.363 . S
C834 N832 1.356 . S
C835 C829 1.363 . S
C835 C830 1.379 . S
C835 N833 1.356 . S
N836 C828 1.356 . S
N836 H842 0.984 . S
N836 H843 0.984 . S
N837 C830 1.356 . S
N837 H840 0.984 . S
N837 H841 0.985 . S
H838 N833 0.984 . S
H839 N833 0.985 . S
H840 N837 0.984 . S
H841 N837 0.985 . S
H842 N836 0.984 . S
H843 N836 0.984 . S
H844 N832 0.984 . S
H845 N832 0.985 . S
C846 C847 1.363 . S
C846 C852 1.379 . S
C846 N854 1.356 . S
C847 C846 1.363 . S
C847 C853 1.363 . S
C848 C849 1.363 . S
C848 C853 1.379 . S
C848 N855 1.356 . S
C849 C848 1.363 . S
C849 C852 1.363 . S
N850 C852 1.356 . S
N850 H862 0.984 . S
N850 H863 0.985 . S
N851 C853 1.356 . S
N851 H856 0.984 . S
N851 H857 0.985 . S
C852 C846 1.379 . S
C852 C849 1.363 . S
C852 N850 1.356 . S
C853 C847 1.363 . S
C853 C848 1.379 . S
C853 N851 1.356 . S
N854 C846 1.356 . S
N854 H860 0.984 . S
N854 H861 0.984 . S
N855 C848 1.356 . S
N855 H858 0.984 . S
N855 H859 0.985 . S
H856 N851 0.984 . S
H857 N851 0.985 . S
H858 N855 0.984 . S
H859 N855 0.985 . S
H860 N854 0.984 . S
H861 N854 0.984 . S
H862 N850 0.984 . S
H863 N850 0.985 . S
C864 C865 1.363 . S
C864 C870 1.379 . S
C864 N872 1.356 . S
C865 C864 1.363 . S
C865 C871 1.363 . S
C866 C867 1.363 . S
C866 C871 1.379 . S
C866 N873 1.356 . S
C867 C866 1.363 . S
C867 C870 1.363 . S
N868 C870 1.356 . S
N868 H880 0.984 . S
N868 H881 0.985 . S
N869 C871 1.356 . S
N869 H874 0.984 . S
N869 H875 0.985 . S
C870 C864 1.379 . S
C870 C867 1.363 . S
C870 N868 1.356 . S
C871 C865 1.363 . S
C871 C866 1.379 . S
C871 N869 1.356 . S
N872 C864 1.356 . S
N872 H878 0.984 . S
N872 H879 0.984 . S
N873 C866 1.356 . S
N873 H876 0.984 . S
N873 H877 0.985 . S
H874 N869 0.984 . S
H875 N869 0.985 . S
H876 N873 0.984 . S
H877 N873 0.985 . S
H878 N872 0.984 . S
H879 N872 0.984 . S
H880 N868 0.984 . S
H881 N868 0.985 . S
C882 C883 1.363 . S
C882 C888 1.379 . S
C882 N890 1.356 . S
C883 C882 1.363 . S
C883 C889 1.363 . S
C884 C885 1.363 . S
C884 C889 1.379 . S
C884 N891 1.356 . S
C885 C884 1.363 . S
C885 C888 1.363 . S
N886 C888 1.356 . S
N886 H898 0.984 . S
N886 H899 0.985 . S
N887 C889 1.356 . S
N887 H892 0.984 1_455 S
N887 H893 0.985 . S
C888 C882 1.379 . S
C888 C885 1.363 . S
C888 N886 1.356 . S
C889 C883 1.363 . S
C889 C884 1.379 . S
C889 N887 1.356 . S
N890 C882 1.356 . S
N890 H896 0.984 . S
N890 H897 0.984 . S
N891 C884 1.356 . S
N891 H894 0.984 . S
N891 H895 0.985 . S
H892 N887 0.984 1_655 S
H893 N887 0.985 . S
H894 N891 0.984 . S
H895 N891 0.985 . S
H896 N890 0.984 . S
H897 N890 0.984 . S
H898 N886 0.984 . S
H899 N886 0.985 . S
C900 C901 1.363 . S
C900 C906 1.379 . S
C900 N908 1.356 . S
C901 C900 1.363 . S
C901 C907 1.363 . S
C902 C903 1.363 . S
C902 C907 1.379 . S
C902 N909 1.356 . S
C903 C902 1.363 . S
C903 C906 1.363 . S
N904 C906 1.356 . S
N904 H916 0.984 . S
N904 H917 0.985 . S
N905 C907 1.356 . S
N905 H910 0.984 . S
N905 H911 0.985 . S
C906 C900 1.379 . S
C906 C903 1.363 . S
C906 N904 1.356 . S
C907 C901 1.363 . S
C907 C902 1.379 . S
C907 N905 1.356 . S
N908 C900 1.356 . S
N908 H914 0.984 . S
N908 H915 0.984 . S
N909 C902 1.356 . S
N909 H912 0.984 . S
N909 H913 0.985 . S
H910 N905 0.984 . S
H911 N905 0.985 . S
H912 N909 0.984 . S
H913 N909 0.985 . S
H914 N908 0.984 . S
H915 N908 0.984 . S
H916 N904 0.984 . S
H917 N904 0.985 . S
C918 C919 1.363 . S
C918 C924 1.379 . S
C918 N926 1.356 . S
C919 C918 1.363 . S
C919 C925 1.363 . S
C920 C921 1.363 . S
C920 C925 1.379 . S
C920 N927 1.356 . S
C921 C920 1.363 . S
C921 C924 1.363 . S
N922 C924 1.356 . S
N922 H934 0.984 . S
N922 H935 0.985 . S
N923 C925 1.356 . S
N923 H928 0.984 . S
N923 H929 0.985 . S
C924 C918 1.379 . S
C924 C921 1.363 . S
C924 N922 1.356 . S
C925 C919 1.363 . S
C925 C920 1.379 . S
C925 N923 1.356 . S
N926 C918 1.356 . S
N926 H932 0.984 . S
N926 H933 0.976 1_655 S
N927 C920 1.356 . S
N927 H930 0.984 . S
N927 H931 0.985 . S
H928 N923 0.984 . S
H929 N923 0.985 . S
H930 N927 0.984 . S
H931 N927 0.985 . S
H932 N926 0.984 . S
H933 N926 0.976 1_455 S
H934 N922 0.984 . S
H935 N922 0.985 . S
C936 C937 1.363 . S
C936 C942 1.379 . S
C936 N944 1.356 . S
C937 C936 1.363 . S
C937 C943 1.363 . S
C938 C939 1.363 . S
C938 C943 1.379 . S
C938 N945 1.356 . S
C939 C938 1.363 . S
C939 C942 1.363 . S
N940 C942 1.356 . S
N940 H952 0.984 . S
N940 H953 0.985 . S
N941 C943 1.356 . S
N941 H946 0.984 . S
N941 H947 0.985 . S
C942 C936 1.379 . S
C942 C939 1.363 . S
C942 N940 1.356 . S
C943 C937 1.363 . S
C943 C938 1.379 . S
C943 N941 1.356 . S
N944 C936 1.356 . S
N944 H950 0.984 . S
N944 H951 0.984 . S
N945 C938 1.356 . S
N945 H948 0.984 . S
N945 H949 0.985 . S
H946 N941 0.984 . S
H947 N941 0.985 . S
H948 N945 0.984 . S
H949 N945 0.985 . S
H950 N944 0.984 . S
H951 N944 0.984 . S
H952 N940 0.984 . S
H953 N940 0.985 . S
C954 C955 1.363 . S
C954 C960 1.379 . S
C954 N962 1.356 . S
C955 C954 1.363 . S
C955 C961 1.363 . S
C956 C957 1.363 . S
C956 C961 1.379 . S
C956 N963 1.356 1_554 S
C957 C956 1.363 . S
C957 C960 1.363 . S
N958 C960 1.356 . S
N958 H970 0.984 . S
N958 H971 0.985 . S
N959 C961 1.356 . S
N959 H964 0.984 . S
N959 H965 0.985 . S
C960 C954 1.379 . S
C960 C957 1.363 . S
C960 N958 1.356 . S
C961 C955 1.363 . S
C961 C956 1.379 . S
C961 N959 1.356 . S
N962 C954 1.356 . S
N962 H968 0.984 . S
N962 H969 0.984 . S
N963 C956 1.356 1_556 S
N963 H966 0.984 . S
N963 H967 0.985 . S
H964 N959 0.984 . S
H965 N959 0.985 . S
H966 N963 0.984 . S
H967 N963 0.985 . S
H968 N962 0.984 . S
H969 N962 0.984 . S
H970 N958 0.984 . S
H971 N958 0.985 . S
C972 C973 1.363 . S
C972 C978 1.379 . S
C972 N980 1.356 . S
C973 C972 1.363 . S
C973 C979 1.363 . S
C974 C975 1.363 . S
C974 C979 1.379 . S
C974 N981 1.356 . S
C975 C974 1.363 . S
C975 C978 1.363 . S
N976 C978 1.356 . S
N976 H988 0.984 . S
N976 H989 0.985 . S
N977 C979 1.356 . S
N977 H982 0.984 . S
N977 H983 0.985 . S
C978 C972 1.379 . S
C978 C975 1.363 . S
C978 N976 1.356 . S
C979 C973 1.363 . S
C979 C974 1.379 . S
C979 N977 1.356 . S
N980 C972 1.356 . S
N980 H986 0.984 . S
N980 H987 0.984 . S
N981 C974 1.356 . S
N981 H984 0.984 . S
N981 H985 0.985 . S
H982 N977 0.984 . S
H983 N977 0.985 . S
H984 N981 0.984 . S
H985 N981 0.985 . S
H986 N980 0.984 . S
H987 N980 0.984 . S
H988 N976 0.984 . S
H989 N976 0.985 . S
C990 C991 1.363 . S
C990 C996 1.379 . S
C990 N998 1.356 . S
C991 C990 1.363 . S
C991 C997 1.363 . S
C992 C993 1.363 . S
C992 C997 1.379 . S
C992 N999 1.356 . S
C993 C992 1.363 . S
C993 C996 1.363 . S
N994 C996 1.356 . S
N994 H1006 0.984 . S
N994 H1007 0.985 . S
N995 C997 1.356 . S
N995 H1000 0.984 1_554 S
N995 H1001 0.985 . S
C996 C990 1.379 . S
C996 C993 1.363 . S
C996 N994 1.356 . S
C997 C991 1.363 . S
C997 C992 1.379 . S
C997 N995 1.356 . S
N998 C990 1.356 . S
N998 H1004 0.984 . S
N998 H1005 0.984 . S
N999 C992 1.356 . S
N999 H1002 0.984 . S
N999 H1003 0.985 . S
H1000 N995 0.984 1_556 S
H1001 N995 0.985 . S
H1002 N999 0.984 . S
H1003 N999 0.985 . S
H1004 N998 0.984 . S
H1005 N998 0.984 . S
H1006 N994 0.984 . S
H1007 N994 0.985 . S
C1008 C1009 1.363 . S
C1008 C1014 1.379 . S
C1008 N1016 1.356 . S
C1009 C1008 1.363 . S
C1009 C1015 1.363 . S
C1010 C1011 1.363 . S
C1010 C1015 1.379 . S
C1010 N1017 1.356 . S
C1011 C1010 1.363 . S
C1011 C1014 1.363 . S
N1012 C1014 1.356 . S
N1012 H1024 0.984 . S
N1012 H1025 0.985 . S
N1013 C1015 1.356 . S
N1013 H1018 0.984 . S
N1013 H1019 0.985 . S
C1014 C1008 1.379 . S
C1014 C1011 1.363 . S
C1014 N1012 1.356 . S
C1015 C1009 1.363 . S
C1015 C1010 1.379 . S
C1015 N1013 1.356 . S
N1016 C1008 1.356 . S
N1016 H1022 0.984 . S
N1016 H1023 0.984 . S
N1017 C1010 1.356 . S
N1017 H1020 0.984 . S
N1017 H1021 0.985 . S
H1018 N1013 0.984 . S
H1019 N1013 0.985 . S
H1020 N1017 0.984 . S
H1021 N1017 0.985 . S
H1022 N1016 0.984 . S
H1023 N1016 0.984 . S
H1024 N1012 0.984 . S
H1025 N1012 0.985 . S
C1026 C1027 1.363 . S
C1026 C1032 1.379 . S
C1026 N1034 1.356 . S
C1027 C1026 1.363 . S
C1027 C1033 1.363 . S
C1028 C1029 1.363 . S
C1028 C1033 1.379 . S
C1028 N1035 1.356 . S
C1029 C1028 1.363 . S
C1029 C1032 1.363 . S
N1030 C1032 1.356 1_554 S
N1030 H1042 0.984 . S
N1030 H1043 0.985 . S
N1031 C1033 1.356 . S
N1031 H1036 0.984 . S
N1031 H1037 0.985 . S
C1032 C1026 1.379 . S
C1032 C1029 1.363 . S
C1032 N1030 1.356 1_556 S
C1033 C1027 1.363 . S
C1033 C1028 1.379 . S
C1033 N1031 1.356 . S
N1034 C1026 1.356 . S
N1034 H1040 0.984 . S
N1034 H1041 0.984 . S
N1035 C1028 1.356 . S
N1035 H1038 0.984 . S
N1035 H1039 0.985 . S
H1036 N1031 0.984 . S
H1037 N1031 0.985 . S
H1038 N1035 0.984 . S
H1039 N1035 0.985 . S
H1040 N1034 0.984 . S
H1041 N1034 0.984 . S
H1042 N1030 0.984 . S
H1043 N1030 0.985 . S
C1044 C1045 1.363 . S
C1044 C1050 1.379 . S
C1044 N1052 1.356 . S
C1045 C1044 1.363 . S
C1045 C1051 1.363 . S
C1046 C1047 1.363 . S
C1046 C1051 1.379 . S
C1046 N1053 1.356 . S
C1047 C1046 1.363 . S
C1047 C1050 1.363 . S
N1048 C1050 1.356 . S
N1048 H1060 0.984 . S
N1048 H1061 0.985 . S
N1049 C1051 1.356 . S
N1049 H1054 0.984 . S
N1049 H1055 0.985 . S
C1050 C1044 1.379 . S
C1050 C1047 1.363 . S
C1050 N1048 1.356 . S
C1051 C1045 1.363 . S
C1051 C1046 1.379 . S
C1051 N1049 1.356 . S
N1052 C1044 1.356 . S
N1052 H1058 0.984 . S
N1052 H1059 0.984 . S
N1053 C1046 1.356 . S
N1053 H1056 0.984 . S
N1053 H1057 0.985 . S
H1054 N1049 0.984 . S
H1055 N1049 0.985 . S
H1056 N1053 0.984 . S
H1057 N1053 0.985 . S
H1058 N1052 0.984 . S
H1059 N1052 0.984 . S
H1060 N1048 0.984 . S
H1061 N1048 0.985 . S
C1062 C1063 1.363 . S
C1062 C1068 1.379 . S
C1062 N1070 1.356 . S
C1063 C1062 1.363 . S
C1063 C1069 1.363 . S
C1064 C1065 1.363 . S
C1064 C1069 1.379 . S
C1064 N1071 1.356 . S
C1065 C1064 1.363 . S
C1065 C1068 1.363 . S
N1066 C1068 1.356 . S
N1066 H1078 0.984 . S
N1066 H1079 0.985 . S
N1067 C1069 1.356 . S
N1067 H1072 0.984 1_556 S
N1067 H1073 0.985 . S
C1068 C1062 1.379 . S
C1068 C1065 1.363 . S
C1068 N1066 1.356 . S
C1069 C1063 1.363 . S
C1069 C1064 1.379 . S
C1069 N1067 1.356 . S
N1070 C1062 1.356 . S
N1070 H1076 0.984 . S
N1070 H1077 0.984 . S
N1071 C1064 1.356 . S
N1071 H1074 0.984 . S
N1071 H1075 0.985 . S
H1072 N1067 0.984 1_554 S
H1073 N1067 0.985 . S
H1074 N1071 0.984 . S
H1075 N1071 0.985 . S
H1076 N1070 0.984 . S
H1077 N1070 0.984 . S
H1078 N1066 0.984 . S
H1079 N1066 0.985 . S
C1080 C1081 1.363 . S
C1080 C1086 1.379 . S
C1080 N1088 1.356 . S
C1081 C1080 1.363 . S
C1081 C1087 1.363 . S
C1082 C1083 1.363 . S
C1082 C1087 1.379 . S
C1082 N1089 1.356 . S
C1083 C1082 1.363 . S
C1083 C1086 1.363 . S
N1084 C1086 1.356 . S
N1084 H1096 0.984 . S
N1084 H1097 0.985 . S
N1085 C1087 1.356 . S
N1085 H1090 0.984 . S
N1085 H1091 0.985 . S
C1086 C1080 1.379 . S
C1086 C1083 1.363 . S
C1086 N1084 1.356 . S
C1087 C1081 1.363 . S
C1087 C1082 1.379 . S
C1087 N1085 1.356 . S
N1088 C1080 1.356 . S
N1088 H1094 0.984 . S
N1088 H1095 0.984 . S
N1089 C1082 1.356 . S
N1089 H1092 0.984 . S
N1089 H1093 0.985 . S
H1090 N1085 0.984 . S
H1091 N1085 0.985 . S
H1092 N1089 0.984 . S
H1093 N1089 0.985 . S
H1094 N1088 0.984 . S
H1095 N1088 0.984 . S
H1096 N1084 0.984 . S
H1097 N1084 0.985 . S
C1098 C1099 1.363 . S
C1098 C1104 1.379 . S
C1098 N1106 1.356 . S
C1099 C1098 1.363 . S
C1099 C1105 1.363 . S
C1100 C1101 1.363 . S
C1100 C1105 1.379 . S
C1100 N1107 1.356 . S
C1101 C1100 1.363 . S
C1101 C1104 1.363 . S
N1102 C1104 1.356 . S
N1102 H1114 0.984 . S
N1102 H1115 0.985 . S
N1103 C1105 1.356 . S
N1103 H1108 0.984 . S
N1103 H1109 0.985 . S
C1104 C1098 1.379 . S
C1104 C1101 1.363 . S
C1104 N1102 1.356 . S
C1105 C1099 1.363 . S
C1105 C1100 1.379 . S
C1105 N1103 1.356 . S
N1106 C1098 1.356 . S
N1106 H1112 0.984 . S
N1106 H1113 0.984 . S
N1107 C1100 1.356 . S
N1107 H1110 0.984 . S
N1107 H1111 0.985 . S
H1108 N1103 0.984 . S
H1109 N1103 0.985 . S
H1110 N1107 0.984 . S
H1111 N1107 0.985 . S
H1112 N1106 0.984 . S
H1113 N1106 0.984 . S
H1114 N1102 0.984 . S
H1115 N1102 0.985 . S
C1116 C1117 1.363 . S
C1116 C1122 1.379 . S
C1116 N1124 1.356 . S
C1117 C1116 1.363 . S
C1117 C1123 1.363 . S
C1118 C1119 1.363 . S
C1118 C1123 1.379 . S
C1118 N1125 1.356 . S
C1119 C1118 1.363 . S
C1119 C1122 1.363 . S
N1120 C1122 1.356 . S
N1120 H1132 0.984 . S
N1120 H1133 0.985 . S
N1121 C1123 1.356 1_565 S
N1121 H1126 0.984 . S
N1121 H1127 0.985 . S
C1122 C1116 1.379 . S
C1122 C1119 1.363 . S
C1122 N1120 1.356 . S
C1123 C1117 1.363 . S
C1123 C1118 1.379 . S
C1123 N1121 1.356 1_545 S
N1124 C1116 1.356 . S
N1124 H1130 0.984 . S
N1124 H1131 0.984 . S
N1125 C1118 1.356 . S
N1125 H1128 0.984 . S
N1125 H1129 0.985 . S
H1126 N1121 0.984 . S
H1127 N1121 0.985 . S
H1128 N1125 0.984 . S
H1129 N1125 0.985 . S
H1130 N1124 0.984 . S
H1131 N1124 0.984 . S
H1132 N1120 0.984 . S
H1133 N1120 0.985 . S
C1134 C1135 1.363 . S
C1134 C1140 1.379 . S
C1134 N1142 1.356 . S
C1135 C1134 1.363 . S
C1135 C1141 1.363 . S
C1136 C1137 1.363 . S
C1136 C1141 1.379 . S
C1136 N1143 1.356 . S
C1137 C1136 1.363 . S
C1137 C1140 1.363 . S
N1138 C1140 1.356 . S
N1138 H1150 0.984 . S
N1138 H1151 0.985 . S
N1139 C1141 1.356 . S
N1139 H1144 0.984 . S
N1139 H1145 0.985 . S
C1140 C1134 1.379 . S
C1140 C1137 1.363 . S
C1140 N1138 1.356 . S
C1141 C1135 1.363 . S
C1141 C1136 1.379 . S
C1141 N1139 1.356 . S
N1142 C1134 1.356 . S
N1142 H1148 0.984 . S
N1142 H1149 0.984 . S
N1143 C1136 1.356 . S
N1143 H1146 0.984 . S
N1143 H1147 0.985 . S
H1144 N1139 0.984 . S
H1145 N1139 0.985 . S
H1146 N1143 0.984 . S
H1147 N1143 0.985 . S
H1148 N1142 0.984 . S
H1149 N1142 0.984 . S
H1150 N1138 0.984 . S
H1151 N1138 0.985 . S
C1152 C1153 1.363 . S
C1152 C1158 1.379 . S
C1152 N1160 1.356 . S
C1153 C1152 1.363 . S
C1153 C1159 1.363 . S
C1154 C1155 1.363 . S
C1154 C1159 1.379 . S
C1154 N1161 1.356 . S
C1155 C1154 1.363 . S
C1155 C1158 1.363 . S
N1156 C1158 1.356 . S
N1156 H1168 0.984 . S
N1156 H1169 0.985 . S
N1157 C1159 1.356 1_545 S
N1157 H1162 0.984 . S
N1157 H1163 0.985 . S
C1158 C1152 1.379 . S
C1158 C1155 1.363 . S
C1158 N1156 1.356 . S
C1159 C1153 1.363 . S
C1159 C1154 1.379 . S
C1159 N1157 1.356 1_565 S
N1160 C1152 1.356 . S
N1160 H1166 0.984 . S
N1160 H1167 0.984 . S
N1161 C1154 1.356 . S
N1161 H1164 0.984 . S
N1161 H1165 0.985 . S
H1162 N1157 0.984 . S
H1163 N1157 0.985 . S
H1164 N1161 0.984 . S
H1165 N1161 0.985 . S
H1166 N1160 0.984 . S
H1167 N1160 0.984 . S
H1168 N1156 0.984 . S
H1169 N1156 0.985 . S
C1170 C1171 1.363 . S
C1170 C1176 1.379 . S
C1170 N1178 1.356 . S
C1171 C1170 1.363 . S
C1171 C1177 1.363 . S
C1172 C1173 1.363 . S
C1172 C1177 1.379 . S
C1172 N1179 1.356 . S
C1173 C1172 1.363 . S
C1173 C1176 1.363 . S
N1174 C1176 1.356 . S
N1174 H1186 0.984 . S
N1174 H1187 0.985 . S
N1175 C1177 1.356 . S
N1175 H1180 0.984 . S
N1175 H1181 0.985 . S
C1176 C1170 1.379 . S
C1176 C1173 1.363 . S
C1176 N1174 1.356 . S
C1177 C1171 1.363 . S
C1177 C1172 1.379 . S
C1177 N1175 1.356 . S
N1178 C1170 1.356 . S
N1178 H1184 0.984 . S
N1178 H1185 0.984 . S
N1179 C1172 1.356 . S
N1179 H1182 0.984 . S
N1179 H1183 0.985 . S
H1180 N1175 0.984 . S
H1181 N1175 0.985 . S
H1182 N1179 0.984 . S
H1183 N1179 0.985 . S
H1184 N1178 0.984 . S
H1185 N1178 0.984 . S
H1186 N1174 0.984 . S
H1187 N1174 0.985 . S
C1188 C1189 1.363 . S
C1188 C1194 1.379 . S
C1188 N1196 1.356 . S
C1189 C1188 1.363 . S
C1189 C1195 1.363 . S
C1190 C1191 1.363 . S
C1190 C1195 1.379 . S
C1190 N1197 1.356 . S
C1191 C1190 1.363 . S
C1191 C1194 1.363 . S
N1192 C1194 1.356 . S
N1192 H1204 0.984 . S
N1192 H1205 0.985 . S
N1193 C1195 1.356 1_545 S
N1193 H1198 0.984 . S
N1193 H1199 0.985 . S
C1194 C1188 1.379 . S
C1194 C1191 1.363 . S
C1194 N1192 1.356 . S
C1195 C1189 1.363 . S
C1195 C1190 1.379 . S
C1195 N1193 1.356 1_565 S
N1196 C1188 1.356 . S
N1196 H1202 0.984 . S
N1196 H1203 0.984 . S
N1197 C1190 1.356 . S
N1197 H1200 0.984 . S
N1197 H1201 0.985 . S
H1198 N1193 0.984 . S
H1199 N1193 0.985 . S
H1200 N1197 0.984 . S
H1201 N1197 0.985 . S
H1202 N1196 0.984 . S
H1203 N1196 0.984 . S
H1204 N1192 0.984 . S
H1205 N1192 0.985 . S
C1206 C1207 1.363 . S
C1206 C1212 1.379 . S
C1206 N1214 1.356 . S
C1207 C1206 1.363 . S
C1207 C1213 1.363 . S
C1208 C1209 1.363 . S
C1208 C1213 1.379 . S
C1208 N1215 1.356 . S
C1209 C1208 1.363 . S
C1209 C1212 1.363 . S
N1210 C1212 1.356 . S
N1210 H1222 0.984 . S
N1210 H1223 0.985 . S
N1211 C1213 1.356 . S
N1211 H1216 0.984 . S
N1211 H1217 0.985 . S
C1212 C1206 1.379 . S
C1212 C1209 1.363 . S
C1212 N1210 1.356 . S
C1213 C1207 1.363 . S
C1213 C1208 1.379 . S
C1213 N1211 1.356 . S
N1214 C1206 1.356 . S
N1214 H1220 0.984 . S
N1214 H1221 0.964 1_545 S
N1215 C1208 1.356 . S
N1215 H1218 0.984 . S
N1215 H1219 0.985 . S
H1216 N1211 0.984 . S
H1217 N1211 0.985 . S
H1218 N1215 0.984 . S
H1219 N1215 0.985 . S
H1220 N1214 0.984 . S
H1221 N1214 0.964 1_565 S
H1222 N1210 0.984 . S
H1223 N1210 0.985 . S
C1224 C1225 1.363 1_455 S
C1224 C1230 1.379 1_556 S
C1224 N1232 1.356 . S
C1225 C1224 1.363 1_655 S
C1225 C1231 1.363 . S
C1226 C1227 1.363 1_655 S
C1226 C1231 1.379 1_554 S
C1226 N1233 1.356 . S
C1227 C1226 1.363 1_455 S
C1227 C1230 1.363 . S
N1228 C1230 1.356 . S
N1228 H1240 0.984 . S
N1228 H1241 0.985 . S
N1229 C1231 1.356 . S
N1229 H1234 0.984 . S
N1229 H1235 0.985 . S
C1230 C1224 1.379 1_554 S
C1230 C1227 1.363 . S
C1230 N1228 1.356 . S
C1231 C1225 1.363 . S
C1231 C1226 1.379 1_556 S
C1231 N1229 1.356 . S
N1232 C1224 1.356 . S
N1232 H1238 0.984 . S
N1232 H1239 1.002 . S
N1233 C1226 1.356 . S
N1233 H1236 1.002 . S
N1233 H1237 0.985 . S
H1234 N1229 0.984 . S
H1235 N1229 0.985 . S
H1236 N1233 1.002 . S
H1237 N1233 0.985 . S
H1238 N1232 0.984 . S
H1239 N1232 1.002 . S
H1240 N1228 0.984 . S
H1241 N1228 0.985 . S
C1242 C1243 1.363 . S
C1242 C1248 1.379 . S
C1242 N1250 1.356 . S
C1243 C1242 1.363 . S
C1243 C1249 1.363 . S
C1244 C1245 1.363 . S
C1244 C1249 1.379 . S
C1244 N1251 1.356 . S
C1245 C1244 1.363 . S
C1245 C1248 1.363 . S
N1246 C1248 1.356 . S
N1246 H1258 0.984 . S
N1246 H1259 0.985 . S
N1247 C1249 1.356 . S
N1247 H1252 0.984 . S
N1247 H1253 0.985 . S
C1248 C1242 1.379 . S
C1248 C1245 1.363 . S
C1248 N1246 1.356 . S
C1249 C1243 1.363 . S
C1249 C1244 1.379 . S
C1249 N1247 1.356 . S
N1250 C1242 1.356 . S
N1250 H1256 0.984 . S
N1250 H1257 0.984 . S
N1251 C1244 1.356 . S
N1251 H1254 0.984 . S
N1251 H1255 0.985 . S
H1252 N1247 0.984 . S
H1253 N1247 0.985 . S
H1254 N1251 0.984 . S
H1255 N1251 0.985 . S
H1256 N1250 0.984 . S
H1257 N1250 0.984 . S
H1258 N1246 0.984 . S
H1259 N1246 0.985 . S
C1260 C1261 1.363 . S
C1260 C1266 1.379 1_556 S
C1260 N1268 1.356 . S
C1261 C1260 1.363 . S
C1261 C1267 1.363 1_455 S
C1262 C1263 1.363 . S
C1262 C1267 1.379 1_554 S
C1262 N1269 1.356 . S
C1263 C1262 1.363 . S
C1263 C1266 1.363 1_655 S
N1264 C1266 1.356 . S
N1264 H1276 0.984 . S
N1264 H1277 1.002 . S
N1265 C1267 1.356 . S
N1265 H1270 1.002 . S
N1265 H1271 0.985 . S
C1266 C1260 1.379 1_554 S
C1266 C1263 1.363 1_455 S
C1266 N1264 1.356 . S
C1267 C1261 1.363 1_655 S
C1267 C1262 1.379 1_556 S
C1267 N1265 1.356 . S
N1268 C1260 1.356 . S
N1268 H1274 0.984 . S
N1268 H1275 0.984 . S
N1269 C1262 1.356 . S
N1269 H1272 0.984 . S
N1269 H1273 0.985 . S
H1270 N1265 1.002 . S
H1271 N1265 0.985 . S
H1272 N1269 0.984 . S
H1273 N1269 0.985 . S
H1274 N1268 0.984 . S
H1275 N1268 0.984 . S
H1276 N1264 0.984 . S
H1277 N1264 1.002 . S
C1278 C1279 1.363 . S
C1278 C1284 1.379 . S
C1278 N1286 1.356 . S
C1279 C1278 1.363 . S
C1279 C1285 1.363 . S
C1280 C1281 1.363 . S
C1280 C1285 1.379 . S
C1280 N1287 1.356 . S
C1281 C1280 1.363 . S
C1281 C1284 1.363 . S
N1282 C1284 1.356 . S
N1282 H1294 0.984 . S
N1282 H1295 0.985 . S
N1283 C1285 1.356 . S
N1283 H1288 0.984 . S
N1283 H1289 0.985 . S
C1284 C1278 1.379 . S
C1284 C1281 1.363 . S
C1284 N1282 1.356 . S
C1285 C1279 1.363 . S
C1285 C1280 1.379 . S
C1285 N1283 1.356 . S
N1286 C1278 1.356 . S
N1286 H1292 0.984 . S
N1286 H1293 0.984 . S
N1287 C1280 1.356 . S
N1287 H1290 0.984 . S
N1287 H1291 0.985 . S
H1288 N1283 0.984 . S
H1289 N1283 0.985 . S
H1290 N1287 0.984 . S
H1291 N1287 0.985 . S
H1292 N1286 0.984 . S
H1293 N1286 0.984 . S
H1294 N1282 0.984 . S
H1295 N1282 0.985 . S
C1296 C1297 1.363 . S
C1296 C1302 1.379 1_655 S
C1296 N1304 1.356 . S
C1297 C1296 1.363 . S
C1297 C1303 1.363 1_565 S
C1298 C1299 1.363 . S
C1298 C1303 1.379 1_455 S
C1298 N1305 1.356 . S
C1299 C1298 1.363 . S
C1299 C1302 1.363 1_545 S
N1300 C1302 1.356 . S
N1300 H1312 0.984 . S
N1300 H1313 1.002 . S
N1301 C1303 1.356 . S
N1301 H1306 1.002 . S
N1301 H1307 0.985 . S
C1302 C1296 1.379 1_455 S
C1302 C1299 1.363 1_565 S
C1302 N1300 1.356 . S
C1303 C1297 1.363 1_545 S
C1303 C1298 1.379 1_655 S
C1303 N1301 1.356 . S
N1304 C1296 1.356 . S
N1304 H1310 0.984 . S
N1304 H1311 0.984 . S
N1305 C1298 1.356 . S
N1305 H1308 0.984 . S
N1305 H1309 0.985 . S
H1306 N1301 1.002 . S
H1307 N1301 0.985 . S
H1308 N1305 0.984 . S
H1309 N1305 0.985 . S
H1310 N1304 0.984 . S
H1311 N1304 0.984 . S
H1312 N1300 0.984 . S
H1313 N1300 1.002 . S
C1314 C1315 1.363 . S
C1314 C1320 1.379 . S
C1314 N1322 1.356 . S
C1315 C1314 1.363 . S
C1315 C1321 1.363 . S
C1316 C1317 1.363 . S
C1316 C1321 1.379 . S
C1316 N1323 1.356 . S
C1317 C1316 1.363 . S
C1317 C1320 1.363 . S
N1318 C1320 1.356 . S
N1318 H1330 0.984 . S
N1318 H1331 0.985 . S
N1319 C1321 1.356 . S
N1319 H1324 0.984 . S
N1319 H1325 0.985 . S
C1320 C1314 1.379 . S
C1320 C1317 1.363 . S
C1320 N1318 1.356 . S
C1321 C1315 1.363 . S
C1321 C1316 1.379 . S
C1321 N1319 1.356 . S
N1322 C1314 1.356 . S
N1322 H1328 0.984 . S
N1322 H1329 0.984 . S
N1323 C1316 1.356 . S
N1323 H1326 0.984 . S
N1323 H1327 0.985 . S
H1324 N1319 0.984 . S
H1325 N1319 0.985 . S
H1326 N1323 0.984 . S
H1327 N1323 0.985 . S
H1328 N1322 0.984 . S
H1329 N1322 0.984 . S
H1330 N1318 0.984 . S
H1331 N1318 0.985 . S
C1332 C1333 1.363 . S
C1332 C1338 1.379 1_455 S
C1332 N1340 1.356 . S
C1333 C1332 1.363 . S
C1333 C1339 1.363 1_565 S
C1334 C1335 1.363 . S
C1334 C1339 1.379 1_655 S
C1334 N1341 1.356 . S
C1335 C1334 1.363 . S
C1335 C1338 1.363 1_545 S
N1336 C1338 1.356 . S
N1336 H1348 0.984 . S
N1336 H1349 1.002 . S
N1337 C1339 1.356 . S
N1337 H1342 1.002 . S
N1337 H1343 0.985 . S
C1338 C1332 1.379 1_655 S
C1338 C1335 1.363 1_565 S
C1338 N1336 1.356 . S
C1339 C1333 1.363 1_545 S
C1339 C1334 1.379 1_455 S
C1339 N1337 1.356 . S
N1340 C1332 1.356 . S
N1340 H1346 0.984 . S
N1340 H1347 0.984 . S
N1341 C1334 1.356 . S
N1341 H1344 0.984 . S
N1341 H1345 0.985 . S
H1342 N1337 1.002 . S
H1343 N1337 0.985 . S
H1344 N1341 0.984 . S
H1345 N1341 0.985 . S
H1346 N1340 0.984 . S
H1347 N1340 0.984 . S
H1348 N1336 0.984 . S
H1349 N1336 1.002 . S
C1350 C1351 1.363 . S
C1350 C1356 1.379 . S
C1350 N1358 1.356 . S
C1351 C1350 1.363 . S
C1351 C1357 1.363 . S
C1352 C1353 1.363 . S
C1352 C1357 1.379 . S
C1352 N1359 1.356 . S
C1353 C1352 1.363 . S
C1353 C1356 1.363 . S
N1354 C1356 1.356 . S
N1354 H1366 0.984 . S
N1354 H1367 0.985 . S
N1355 C1357 1.356 . S
N1355 H1360 0.984 . S
N1355 H1361 0.985 . S
C1356 C1350 1.379 . S
C1356 C1353 1.363 . S
C1356 N1354 1.356 . S
C1357 C1351 1.363 . S
C1357 C1352 1.379 . S
C1357 N1355 1.356 . S
N1358 C1350 1.356 . S
N1358 H1364 0.984 . S
N1358 H1365 0.984 . S
N1359 C1352 1.356 . S
N1359 H1362 0.984 . S
N1359 H1363 0.985 . S
H1360 N1355 0.984 . S
H1361 N1355 0.985 . S
H1362 N1359 0.984 . S
H1363 N1359 0.985 . S
H1364 N1358 0.984 . S
H1365 N1358 0.984 . S
H1366 N1354 0.984 . S
H1367 N1354 0.985 . S
C1368 C1369 1.363 1_556 S
C1368 C1374 1.379 1_545 S
C1368 N1376 1.356 . S
C1369 C1368 1.363 1_554 S
C1369 C1375 1.363 . S
C1370 C1371 1.363 1_554 S
C1370 C1375 1.379 1_565 S
C1370 N1377 1.356 . S
C1371 C1370 1.363 1_556 S
C1371 C1374 1.363 . S
N1372 C1374 1.356 . S
N1372 H1384 0.984 . S
N1372 H1385 0.985 . S
N1373 C1375 1.356 . S
N1373 H1378 0.984 . S
N1373 H1379 0.985 . S
C1374 C1368 1.379 1_565 S
C1374 C1371 1.363 . S
C1374 N1372 1.356 . S
C1375 C1369 1.363 . S
C1375 C1370 1.379 1_545 S
C1375 N1373 1.356 . S
N1376 C1368 1.356 . S
N1376 H1382 0.984 . S
N1376 H1383 0.984 . S
N1377 C1370 1.356 . S
N1377 H1380 0.984 . S
N1377 H1381 0.985 . S
H1378 N1373 0.984 . S
H1379 N1373 0.985 . S
H1380 N1377 0.984 . S
H1381 N1377 0.985 . S
H1382 N1376 0.984 . S
H1383 N1376 0.984 . S
H1384 N1372 0.984 . S
H1385 N1372 0.985 . S
C1386 C1387 1.363 . S
C1386 C1392 1.379 . S
C1386 N1394 1.356 . S
C1387 C1386 1.363 . S
C1387 C1393 1.363 . S
C1388 C1389 1.363 . S
C1388 C1393 1.379 . S
C1388 N1395 1.356 . S
C1389 C1388 1.363 . S
C1389 C1392 1.363 . S
N1390 C1392 1.356 . S
N1390 H1402 0.984 . S
N1390 H1403 0.985 . S
N1391 C1393 1.356 . S
N1391 H1396 0.984 . S
N1391 H1397 0.985 . S
C1392 C1386 1.379 . S
C1392 C1389 1.363 . S
C1392 N1390 1.356 . S
C1393 C1387 1.363 . S
C1393 C1388 1.379 . S
C1393 N1391 1.356 . S
N1394 C1386 1.356 . S
N1394 H1400 0.984 . S
N1394 H1401 0.984 . S
N1395 C1388 1.356 . S
N1395 H1398 0.984 . S
N1395 H1399 0.985 . S
H1396 N1391 0.984 . S
H1397 N1391 0.985 . S
H1398 N1395 0.984 . S
H1399 N1395 0.985 . S
H1400 N1394 0.984 . S
H1401 N1394 0.984 . S
H1402 N1390 0.984 . S
H1403 N1390 0.985 . S
C1404 C1405 1.363 . S
C1404 C1410 1.379 1_545 S
C1404 N1412 1.356 . S
C1405 C1404 1.363 . S
C1405 C1411 1.363 1_556 S
C1406 C1407 1.363 . S
C1406 C1411 1.379 1_565 S
C1406 N1413 1.356 . S
C1407 C1406 1.363 . S
C1407 C1410 1.363 1_554 S
N1408 C1410 1.356 . S
N1408 H1420 0.984 . S
N1408 H1421 0.985 . S
N1409 C1411 1.356 . S
N1409 H1414 0.984 . S
N1409 H1415 0.985 . S
C1410 C1404 1.379 1_565 S
C1410 C1407 1.363 1_556 S
C1410 N1408 1.356 . S
C1411 C1405 1.363 1_554 S
C1411 C1406 1.379 1_545 S
C1411 N1409 1.356 . S
N1412 C1404 1.356 . S
N1412 H1418 0.984 . S
N1412 H1419 0.984 . S
N1413 C1406 1.356 . S
N1413 H1416 0.984 . S
N1413 H1417 0.985 . S
H1414 N1409 0.984 . S
H1415 N1409 0.985 . S
H1416 N1413 0.984 . S
H1417 N1413 0.985 . S
H1418 N1412 0.984 . S
H1419 N1412 0.984 . S
H1420 N1408 0.984 . S
H1421 N1408 0.985 . S
C1422 C1423 1.363 . S
C1422 C1428 1.379 . S
C1422 N1430 1.356 . S
C1423 C1422 1.363 . S
C1423 C1429 1.363 . S
C1424 C1425 1.363 . S
C1424 C1429 1.379 . S
C1424 N1431 1.356 . S
C1425 C1424 1.363 . S
C1425 C1428 1.363 . S
N1426 C1428 1.356 . S
N1426 H1438 0.984 . S
N1426 H1439 0.985 . S
N1427 C1429 1.356 . S
N1427 H1432 0.984 . S
N1427 H1433 0.985 . S
C1428 C1422 1.379 . S
C1428 C1425 1.363 . S
C1428 N1426 1.356 . S
C1429 C1423 1.363 . S
C1429 C1424 1.379 . S
C1429 N1427 1.356 . S
N1430 C1422 1.356 . S
N1430 H1436 0.984 . S
N1430 H1437 0.984 . S
N1431 C1424 1.356 . S
N1431 H1434 0.984 . S
N1431 H1435 0.985 . S
H1432 N1427 0.984 . S
H1433 N1427 0.985 . S
H1434 N1431 0.984 . S
H1435 N1431 0.985 . S
H1436 N1430 0.984 . S
H1437 N1430 0.984 . S
H1438 N1426 0.984 . S
H1439 N1426 0.985 . S
C1440 C1441 1.363 . S
C1440 C1446 1.379 . S
C1440 N1448 1.356 . S
C1441 C1440 1.363 . S
C1441 C1447 1.363 . S
C1442 C1443 1.363 . S
C1442 C1447 1.379 . S
C1442 N1449 1.356 . S
C1443 C1442 1.363 . S
C1443 C1446 1.363 . S
N1444 C1446 1.356 . S
N1444 H1456 0.984 . S
N1444 H1457 0.985 . S
N1445 C1447 1.356 . S
N1445 H1450 0.984 . S
N1445 H1451 0.985 . S
C1446 C1440 1.379 . S
C1446 C1443 1.363 . S
C1446 N1444 1.356 . S
C1447 C1441 1.363 . S
C1447 C1442 1.379 . S
C1447 N1445 1.356 . S
N1448 C1440 1.356 . S
N1448 H1454 0.984 . S
N1448 H1455 0.984 . S
N1449 C1442 1.356 . S
N1449 H1452 0.984 . S
N1449 H1453 0.985 . S
H1450 N1445 0.984 . S
H1451 N1445 0.985 . S
H1452 N1449 0.984 . S
H1453 N1449 0.985 . S
H1454 N1448 0.984 . S
H1455 N1448 0.984 . S
H1456 N1444 0.984 . S
H1457 N1444 0.985 . S
C1458 C1459 1.363 . S
C1458 C1464 1.379 . S
C1458 N1466 1.356 . S
C1459 C1458 1.363 . S
C1459 C1465 1.363 . S
C1460 C1461 1.363 . S
C1460 C1465 1.379 . S
C1460 N1467 1.356 . S
C1461 C1460 1.363 . S
C1461 C1464 1.363 . S
N1462 C1464 1.356 . S
N1462 H1474 0.984 . S
N1462 H1475 0.985 . S
N1463 C1465 1.356 . S
N1463 H1468 0.984 . S
N1463 H1469 0.985 . S
C1464 C1458 1.379 . S
C1464 C1461 1.363 . S
C1464 N1462 1.356 . S
C1465 C1459 1.363 . S
C1465 C1460 1.379 . S
C1465 N1463 1.356 . S
N1466 C1458 1.356 . S
N1466 H1472 0.984 . S
N1466 H1473 0.984 . S
N1467 C1460 1.356 . S
N1467 H1470 0.984 . S
N1467 H1471 0.985 . S
H1468 N1463 0.984 . S
H1469 N1463 0.985 . S
H1470 N1467 0.984 . S
H1471 N1467 0.985 . S
H1472 N1466 0.984 . S
H1473 N1466 0.984 . S
H1474 N1462 0.984 . S
H1475 N1462 0.985 . S
C1476 C1477 1.363 . S
C1476 C1482 1.379 . S
C1476 N1484 1.356 . S
C1477 C1476 1.363 . S
C1477 C1483 1.363 . S
C1478 C1479 1.363 . S
C1478 C1483 1.379 . S
C1478 N1485 1.356 . S
C1479 C1478 1.363 . S
C1479 C1482 1.363 . S
N1480 C1482 1.356 . S
N1480 H1492 0.984 . S
N1480 H1493 0.985 . S
N1481 C1483 1.356 . S
N1481 H1486 0.984 . S
N1481 H1487 0.985 . S
C1482 C1476 1.379 . S
C1482 C1479 1.363 . S
C1482 N1480 1.356 . S
C1483 C1477 1.363 . S
C1483 C1478 1.379 . S
C1483 N1481 1.356 . S
N1484 C1476 1.356 . S
N1484 H1490 0.984 . S
N1484 H1491 0.984 . S
N1485 C1478 1.356 . S
N1485 H1488 0.984 . S
N1485 H1489 0.985 . S
H1486 N1481 0.984 . S
H1487 N1481 0.985 . S
H1488 N1485 0.984 . S
H1489 N1485 0.985 . S
H1490 N1484 0.984 . S
H1491 N1484 0.984 . S
H1492 N1480 0.984 . S
H1493 N1480 0.985 . S
C1494 C1495 1.363 . S
C1494 C1500 1.379 . S
C1494 N1502 1.356 . S
C1495 C1494 1.363 . S
C1495 C1501 1.363 . S
C1496 C1497 1.363 . S
C1496 C1501 1.379 . S
C1496 N1503 1.356 . S
C1497 C1496 1.363 . S
C1497 C1500 1.363 . S
N1498 C1500 1.356 . S
N1498 H1510 0.984 . S
N1498 H1511 0.985 . S
N1499 C1501 1.356 . S
N1499 H1504 0.984 . S
N1499 H1505 0.985 . S
C1500 C1494 1.379 . S
C1500 C1497 1.363 . S
C1500 N1498 1.356 . S
C1501 C1495 1.363 . S
C1501 C1496 1.379 . S
C1501 N1499 1.356 . S
N1502 C1494 1.356 . S
N1502 H1508 0.984 . S
N1502 H1509 0.984 . S
N1503 C1496 1.356 . S
N1503 H1506 0.984 . S
N1503 H1507 0.985 . S
H1504 N1499 0.984 . S
H1505 N1499 0.985 . S
H1506 N1503 0.984 . S
H1507 N1503 0.985 . S
H1508 N1502 0.984 . S
H1509 N1502 0.984 . S
H1510 N1498 0.984 . S
H1511 N1498 0.985 . S
C1512 C1513 1.363 . S
C1512 C1518 1.379 . S
C1512 N1520 1.356 . S
C1513 C1512 1.363 . S
C1513 C1519 1.363 . S
C1514 C1515 1.363 . S
C1514 C1519 1.379 . S
C1514 N1521 1.356 . S
C1515 C1514 1.363 . S
C1515 C1518 1.363 . S
N1516 C1518 1.356 . S
N1516 H1528 0.984 . S
N1516 H1529 0.985 . S
N1517 C1519 1.356 . S
N1517 H1522 0.984 . S
N1517 H1523 0.985 . S
C1518 C1512 1.379 . S
C1518 C1515 1.363 . S
C1518 N1516 1.356 . S
C1519 C1513 1.363 . S
C1519 C1514 1.379 . S
C1519 N1517 1.356 . S
N1520 C1512 1.356 . S
N1520 H1526 0.984 . S
N1520 H1527 0.984 . S
N1521 C1514 1.356 . S
N1521 H1524 0.984 . S
N1521 H1525 0.985 . S
H1522 N1517 0.984 . S
H1523 N1517 0.985 . S
H1524 N1521 0.984 . S
H1525 N1521 0.985 . S
H1526 N1520 0.984 . S
H1527 N1520 0.984 . S
H1528 N1516 0.984 . S
H1529 N1516 0.985 . S
C1530 C1531 1.363 . S
C1530 C1536 1.379 . S
C1530 N1538 1.356 . S
C1531 C1530 1.363 . S
C1531 C1537 1.363 . S
C1532 C1533 1.363 . S
C1532 C1537 1.379 . S
C1532 N1539 1.356 . S
C1533 C1532 1.363 . S
C1533 C1536 1.363 . S
N1534 C1536 1.356 . S
N1534 H1546 0.984 . S
N1534 H1547 0.985 . S
N1535 C1537 1.356 . S
N1535 H1540 0.984 . S
N1535 H1541 0.985 . S
C1536 C1530 1.379 . S
C1536 C1533 1.363 . S
C1536 N1534 1.356 . S
C1537 C1531 1.363 . S
C1537 C1532 1.379 . S
C1537 N1535 1.356 . S
N1538 C1530 1.356 . S
N1538 H1544 0.984 . S
N1538 H1545 0.984 . S
N1539 C1532 1.356 . S
N1539 H1542 0.984 . S
N1539 H1543 0.985 . S
H1540 N1535 0.984 . S
H1541 N1535 0.985 . S
H1542 N1539 0.984 . S
H1543 N1539 0.985 . S
H1544 N1538 0.984 . S
H1545 N1538 0.984 . S
H1546 N1534 0.984 . S
H1547 N1534 0.985 . S
C1548 C1549 1.363 . S
C1548 C1554 1.379 . S
C1548 N1556 1.356 . S
C1549 C1548 1.363 . S
C1549 C1555 1.363 . S
C1550 C1551 1.363 . S
C1550 C1555 1.379 . S
C1550 N1557 1.356 . S
C1551 C1550 1.363 . S
C1551 C1554 1.363 . S
N1552 C1554 1.356 . S
N1552 H1564 0.984 . S
N1552 H1565 0.985 . S
N1553 C1555 1.356 . S
N1553 H1558 0.984 . S
N1553 H1559 0.985 . S
C1554 C1548 1.379 . S
C1554 C1551 1.363 . S
C1554 N1552 1.356 . S
C1555 C1549 1.363 . S
C1555 C1550 1.379 . S
C1555 N1553 1.356 . S
N1556 C1548 1.356 . S
N1556 H1562 0.984 . S
N1556 H1563 0.984 . S
N1557 C1550 1.356 . S
N1557 H1560 0.984 . S
N1557 H1561 0.985 . S
H1558 N1553 0.984 . S
H1559 N1553 0.985 . S
H1560 N1557 0.984 . S
H1561 N1557 0.985 . S
H1562 N1556 0.984 . S
H1563 N1556 0.984 . S
H1564 N1552 0.984 . S
H1565 N1552 0.985 . S
C1566 C1567 1.363 . S
C1566 C1572 1.379 . S
C1566 N1574 1.356 . S
C1567 C1566 1.363 . S
C1567 C1573 1.363 . S
C1568 C1569 1.363 . S
C1568 C1573 1.379 . S
C1568 N1575 1.356 . S
C1569 C1568 1.363 . S
C1569 C1572 1.363 . S
N1570 C1572 1.356 . S
N1570 H1582 0.984 . S
N1570 H1583 0.985 . S
N1571 C1573 1.356 . S
N1571 H1576 0.984 . S
N1571 H1577 0.985 . S
C1572 C1566 1.379 . S
C1572 C1569 1.363 . S
C1572 N1570 1.356 . S
C1573 C1567 1.363 . S
C1573 C1568 1.379 . S
C1573 N1571 1.356 . S
N1574 C1566 1.356 . S
N1574 H1580 0.984 . S
N1574 H1581 0.984 . S
N1575 C1568 1.356 . S
N1575 H1578 0.984 . S
N1575 H1579 0.985 . S
H1576 N1571 0.984 . S
H1577 N1571 0.985 . S
H1578 N1575 0.984 . S
H1579 N1575 0.985 . S
H1580 N1574 0.984 . S
H1581 N1574 0.984 . S
H1582 N1570 0.984 . S
H1583 N1570 0.985 . S
C1584 C1585 1.363 . S
C1584 C1590 1.379 . S
C1584 N1592 1.356 . S
C1585 C1584 1.363 . S
C1585 C1591 1.363 . S
C1586 C1587 1.363 . S
C1586 C1591 1.379 . S
C1586 N1593 1.356 . S
C1587 C1586 1.363 . S
C1587 C1590 1.363 . S
N1588 C1590 1.356 . S
N1588 H1600 0.984 . S
N1588 H1601 0.985 . S
N1589 C1591 1.356 . S
N1589 H1594 0.984 . S
N1589 H1595 0.985 . S
C1590 C1584 1.379 . S
C1590 C1587 1.363 . S
C1590 N1588 1.356 . S
C1591 C1585 1.363 . S
C1591 C1586 1.379 . S
C1591 N1589 1.356 . S
N1592 C1584 1.356 . S
N1592 H1598 0.984 . S
N1592 H1599 0.984 . S
N1593 C1586 1.356 . S
N1593 H1596 0.984 . S
N1593 H1597 0.985 . S
H1594 N1589 0.984 . S
H1595 N1589 0.985 . S
H1596 N1593 0.984 . S
H1597 N1593 0.985 . S
H1598 N1592 0.984 . S
H1599 N1592 0.984 . S
H1600 N1588 0.984 . S
H1601 N1588 0.985 . S
C1602 C1603 1.363 . S
C1602 C1608 1.379 . S
C1602 N1610 1.356 . S
C1603 C1602 1.363 . S
C1603 C1609 1.363 . S
C1604 C1605 1.363 . S
C1604 C1609 1.379 . S
C1604 N1611 1.356 . S
C1605 C1604 1.363 . S
C1605 C1608 1.363 . S
N1606 C1608 1.356 . S
N1606 H1618 0.984 . S
N1606 H1619 0.985 . S
N1607 C1609 1.356 . S
N1607 H1612 0.984 . S
N1607 H1613 0.985 . S
C1608 C1602 1.379 . S
C1608 C1605 1.363 . S
C1608 N1606 1.356 . S
C1609 C1603 1.363 . S
C1609 C1604 1.379 . S
C1609 N1607 1.356 . S
N1610 C1602 1.356 . S
N1610 H1616 0.984 . S
N1610 H1617 0.984 . S
N1611 C1604 1.356 . S
N1611 H1614 0.984 . S
N1611 H1615 0.985 . S
H1612 N1607 0.984 . S
H1613 N1607 0.985 . S
H1614 N1611 0.984 . S
H1615 N1611 0.985 . S
H1616 N1610 0.984 . S
H1617 N1610 0.984 . S
H1618 N1606 0.984 . S
H1619 N1606 0.985 . S
C1620 C1621 1.363 . S
C1620 C1626 1.379 . S
C1620 N1628 1.356 . S
C1621 C1620 1.363 . S
C1621 C1627 1.363 . S
C1622 C1623 1.363 . S
C1622 C1627 1.379 . S
C1622 N1629 1.356 . S
C1623 C1622 1.363 . S
C1623 C1626 1.363 . S
N1624 C1626 1.356 . S
N1624 H1636 0.984 . S
N1624 H1637 0.985 . S
N1625 C1627 1.356 . S
N1625 H1630 0.984 . S
N1625 H1631 0.985 . S
C1626 C1620 1.379 . S
C1626 C1623 1.363 . S
C1626 N1624 1.356 . S
C1627 C1621 1.363 . S
C1627 C1622 1.379 . S
C1627 N1625 1.356 . S
N1628 C1620 1.356 . S
N1628 H1634 0.984 . S
N1628 H1635 0.984 . S
N1629 C1622 1.356 . S
N1629 H1632 0.984 . S
N1629 H1633 0.985 . S
H1630 N1625 0.984 . S
H1631 N1625 0.985 . S
H1632 N1629 0.984 . S
H1633 N1629 0.985 . S
H1634 N1628 0.984 . S
H1635 N1628 0.984 . S
H1636 N1624 0.984 . S
H1637 N1624 0.985 . S
C1638 C1639 1.363 . S
C1638 C1644 1.379 . S
C1638 N1646 1.356 . S
C1639 C1638 1.363 . S
C1639 C1645 1.363 . S
C1640 C1641 1.363 . S
C1640 C1645 1.379 . S
C1640 N1647 1.356 . S
C1641 C1640 1.363 . S
C1641 C1644 1.363 . S
N1642 C1644 1.356 . S
N1642 H1654 0.984 . S
N1642 H1655 0.985 . S
N1643 C1645 1.356 . S
N1643 H1648 0.984 . S
N1643 H1649 0.985 . S
C1644 C1638 1.379 . S
C1644 C1641 1.363 . S
C1644 N1642 1.356 . S
C1645 C1639 1.363 . S
C1645 C1640 1.379 . S
C1645 N1643 1.356 . S
N1646 C1638 1.356 . S
N1646 H1652 0.984 . S
N1646 H1653 0.984 . S
N1647 C1640 1.356 . S
N1647 H1650 0.984 . S
N1647 H1651 0.985 . S
H1648 N1643 0.984 . S
H1649 N1643 0.985 . S
H1650 N1647 0.984 . S
H1651 N1647 0.985 . S
H1652 N1646 0.984 . S
H1653 N1646 0.984 . S
H1654 N1642 0.984 . S
H1655 N1642 0.985 . S
C1656 C1657 1.363 . S
C1656 C1662 1.379 . S
C1656 N1664 1.356 . S
C1657 C1656 1.363 . S
C1657 C1663 1.363 . S
C1658 C1659 1.363 . S
C1658 C1663 1.379 . S
C1658 N1665 1.356 . S
C1659 C1658 1.363 . S
C1659 C1662 1.363 . S
N1660 C1662 1.356 . S
N1660 H1672 0.984 . S
N1660 H1673 0.985 . S
N1661 C1663 1.356 . S
N1661 H1666 0.984 . S
N1661 H1667 0.985 . S
C1662 C1656 1.379 . S
C1662 C1659 1.363 . S
C1662 N1660 1.356 . S
C1663 C1657 1.363 . S
C1663 C1658 1.379 . S
C1663 N1661 1.356 . S
N1664 C1656 1.356 . S
N1664 H1670 0.984 . S
N1664 H1671 0.984 . S
N1665 C1658 1.356 . S
N1665 H1668 0.984 . S
N1665 H1669 0.985 . S
H1666 N1661 0.984 . S
H1667 N1661 0.985 . S
H1668 N1665 0.984 . S
H1669 N1665 0.985 . S
H1670 N1664 0.984 . S
H1671 N1664 0.984 . S
H1672 N1660 0.984 . S
H1673 N1660 0.985 . S
C1674 C1675 1.363 . S
C1674 C1680 1.379 . S
C1674 N1682 1.356 . S
C1675 C1674 1.363 . S
C1675 C1681 1.363 . S
C1676 C1677 1.363 . S
C1676 C1681 1.379 . S
C1676 N1683 1.356 . S
C1677 C1676 1.363 . S
C1677 C1680 1.363 . S
N1678 C1680 1.356 . S
N1678 H1690 0.984 . S
N1678 H1691 0.985 . S
N1679 C1681 1.356 . S
N1679 H1684 0.984 . S
N1679 H1685 0.985 . S
C1680 C1674 1.379 . S
C1680 C1677 1.363 . S
C1680 N1678 1.356 . S
C1681 C1675 1.363 . S
C1681 C1676 1.379 . S
C1681 N1679 1.356 . S
N1682 C1674 1.356 . S
N1682 H1688 0.984 . S
N1682 H1689 0.984 . S
N1683 C1676 1.356 . S
N1683 H1686 0.984 . S
N1683 H1687 0.985 . S
H1684 N1679 0.984 . S
H1685 N1679 0.985 . S
H1686 N1683 0.984 . S
H1687 N1683 0.985 . S
H1688 N1682 0.984 . S
H1689 N1682 0.984 . S
H1690 N1678 0.984 . S
H1691 N1678 0.985 . S
C1692 C1693 1.363 . S
C1692 C1698 1.379 . S
C1692 N1700 1.356 . S
C1693 C1692 1.363 . S
C1693 C1699 1.363 . S
C1694 C1695 1.363 . S
C1694 C1699 1.379 . S
C1694 N1701 1.356 . S
C1695 C1694 1.363 . S
C1695 C1698 1.363 . S
N1696 C1698 1.356 . S
N1696 H1708 0.984 . S
N1696 H1709 0.985 . S
N1697 C1699 1.356 . S
N1697 H1702 0.984 . S
N1697 H1703 0.985 . S
C1698 C1692 1.379 . S
C1698 C1695 1.363 . S
C1698 N1696 1.356 . S
C1699 C1693 1.363 . S
C1699 C1694 1.379 . S
C1699 N1697 1.356 . S
N1700 C1692 1.356 . S
N1700 H1706 0.984 . S
N1700 H1707 0.984 . S
N1701 C1694 1.356 . S
N1701 H1704 0.984 . S
N1701 H1705 0.985 . S
H1702 N1697 0.984 . S
H1703 N1697 0.985 . S
H1704 N1701 0.984 . S
H1705 N1701 0.985 . S
H1706 N1700 0.984 . S
H1707 N1700 0.984 . S
H1708 N1696 0.984 . S
H1709 N1696 0.985 . S
C1710 C1711 1.363 . S
C1710 C1716 1.379 . S
C1710 N1718 1.356 . S
C1711 C1710 1.363 . S
C1711 C1717 1.363 . S
C1712 C1713 1.363 . S
C1712 C1717 1.379 . S
C1712 N1719 1.356 . S
C1713 C1712 1.363 . S
C1713 C1716 1.363 . S
N1714 C1716 1.356 . S
N1714 H1726 0.984 . S
N1714 H1727 0.985 . S
N1715 C1717 1.356 . S
N1715 H1720 0.984 . S
N1715 H1721 0.985 . S
C1716 C1710 1.379 . S
C1716 C1713 1.363 . S
C1716 N1714 1.356 . S
C1717 C1711 1.363 . S
C1717 C1712 1.379 . S
C1717 N1715 1.356 . S
N1718 C1710 1.356 . S
N1718 H1724 0.984 . S
N1718 H1725 0.984 . S
N1719 C1712 1.356 . S
N1719 H1722 0.984 . S
N1719 H1723 0.985 . S
H1720 N1715 0.984 . S
H1721 N1715 0.985 . S
H1722 N1719 0.984 . S
H1723 N1719 0.985 . S
H1724 N1718 0.984 . S
H1725 N1718 0.984 . S
H1726 N1714 0.984 . S
H1727 N1714 0.985 . S
C1728 C1729 1.363 . S
C1728 C1734 1.379 . S
C1728 N1736 1.356 . S
C1729 C1728 1.363 . S
C1729 C1735 1.363 . S
C1730 C1731 1.363 . S
C1730 C1735 1.379 . S
C1730 N1737 1.356 . S
C1731 C1730 1.363 . S
C1731 C1734 1.363 . S
N1732 C1734 1.356 . S
N1732 H1744 0.984 . S
N1732 H1745 0.985 . S
N1733 C1735 1.356 . S
N1733 H1738 0.984 . S
N1733 H1739 0.985 . S
C1734 C1728 1.379 . S
C1734 C1731 1.363 . S
C1734 N1732 1.356 . S
C1735 C1729 1.363 . S
C1735 C1730 1.379 . S
C1735 N1733 1.356 . S
N1736 C1728 1.356 . S
N1736 H1742 0.984 . S
N1736 H1743 0.984 . S
N1737 C1730 1.356 . S
N1737 H1740 0.984 . S
N1737 H1741 0.985 . S
H1738 N1733 0.984 . S
H1739 N1733 0.985 . S
H1740 N1737 0.984 . S
H1741 N1737 0.985 . S
H1742 N1736 0.984 . S
H1743 N1736 0.984 . S
H1744 N1732 0.984 . S
H1745 N1732 0.985 . S
C1746 C1747 1.363 . S
C1746 C1752 1.379 . S
C1746 N1754 1.356 . S
C1747 C1746 1.363 . S
C1747 C1753 1.363 . S
C1748 C1749 1.363 . S
C1748 C1753 1.379 . S
C1748 N1755 1.356 . S
C1749 C1748 1.363 . S
C1749 C1752 1.363 . S
N1750 C1752 1.356 . S
N1750 H1762 0.984 . S
N1750 H1763 0.985 . S
N1751 C1753 1.356 . S
N1751 H1756 0.984 . S
N1751 H1757 0.985 . S
C1752 C1746 1.379 . S
C1752 C1749 1.363 . S
C1752 N1750 1.356 . S
C1753 C1747 1.363 . S
C1753 C1748 1.379 . S
C1753 N1751 1.356 . S
N1754 C1746 1.356 . S
N1754 H1760 0.984 . S
N1754 H1761 0.984 . S
N1755 C1748 1.356 . S
N1755 H1758 0.984 . S
N1755 H1759 0.985 . S
H1756 N1751 0.984 . S
H1757 N1751 0.985 . S
H1758 N1755 0.984 . S
H1759 N1755 0.985 . S
H1760 N1754 0.984 . S
H1761 N1754 0.984 . S
H1762 N1750 0.984 . S
H1763 N1750 0.985 . S
C1764 C1765 1.363 . S
C1764 C1770 1.379 . S
C1764 N1772 1.356 . S
C1765 C1764 1.363 . S
C1765 C1771 1.363 . S
C1766 C1767 1.363 . S
C1766 C1771 1.379 . S
C1766 N1773 1.356 . S
C1767 C1766 1.363 . S
C1767 C1770 1.363 . S
N1768 C1770 1.356 . S
N1768 H1780 0.984 . S
N1768 H1781 0.985 . S
N1769 C1771 1.356 . S
N1769 H1774 0.984 . S
N1769 H1775 0.985 . S
C1770 C1764 1.379 . S
C1770 C1767 1.363 . S
C1770 N1768 1.356 . S
C1771 C1765 1.363 . S
C1771 C1766 1.379 . S
C1771 N1769 1.356 . S
N1772 C1764 1.356 . S
N1772 H1778 0.984 . S
N1772 H1779 0.984 . S
N1773 C1766 1.356 . S
N1773 H1776 0.984 . S
N1773 H1777 0.985 . S
H1774 N1769 0.984 . S
H1775 N1769 0.985 . S
H1776 N1773 0.984 . S
H1777 N1773 0.985 . S
H1778 N1772 0.984 . S
H1779 N1772 0.984 . S
H1780 N1768 0.984 . S
H1781 N1768 0.985 . S
C1782 C1783 1.363 . S
C1782 C1788 1.379 . S
C1782 N1790 1.356 . S
C1783 C1782 1.363 . S
C1783 C1789 1.363 . S
C1784 C1785 1.363 . S
C1784 C1789 1.379 . S
C1784 N1791 1.356 . S
C1785 C1784 1.363 . S
C1785 C1788 1.363 . S
N1786 C1788 1.356 . S
N1786 H1798 0.984 . S
N1786 H1799 0.985 . S
N1787 C1789 1.356 . S
N1787 H1792 0.984 . S
N1787 H1793 0.985 . S
C1788 C1782 1.379 . S
C1788 C1785 1.363 . S
C1788 N1786 1.356 . S
C1789 C1783 1.363 . S
C1789 C1784 1.379 . S
C1789 N1787 1.356 . S
N1790 C1782 1.356 . S
N1790 H1796 0.984 . S
N1790 H1797 0.984 . S
N1791 C1784 1.356 . S
N1791 H1794 0.984 . S
N1791 H1795 0.985 . S
H1792 N1787 0.984 . S
H1793 N1787 0.985 . S
H1794 N1791 0.984 . S
H1795 N1791 0.985 . S
H1796 N1790 0.984 . S
H1797 N1790 0.984 . S
H1798 N1786 0.984 . S
H1799 N1786 0.985 . S
C1800 C1801 1.363 . S
C1800 C1806 1.379 . S
C1800 N1808 1.356 . S
C1801 C1800 1.363 . S
C1801 C1807 1.363 . S
C1802 C1803 1.363 . S
C1802 C1807 1.379 . S
C1802 N1809 1.356 . S
C1803 C1802 1.363 . S
C1803 C1806 1.363 . S
N1804 C1806 1.356 . S
N1804 H1816 0.984 . S
N1804 H1817 0.985 . S
N1805 C1807 1.356 . S
N1805 H1810 0.984 . S
N1805 H1811 0.985 . S
C1806 C1800 1.379 . S
C1806 C1803 1.363 . S
C1806 N1804 1.356 . S
C1807 C1801 1.363 . S
C1807 C1802 1.379 . S
C1807 N1805 1.356 . S
N1808 C1800 1.356 . S
N1808 H1814 0.984 . S
N1808 H1815 0.984 . S
N1809 C1802 1.356 . S
N1809 H1812 0.984 . S
N1809 H1813 0.985 . S
H1810 N1805 0.984 . S
H1811 N1805 0.985 . S
H1812 N1809 0.984 . S
H1813 N1809 0.985 . S
H1814 N1808 0.984 . S
H1815 N1808 0.984 . S
H1816 N1804 0.984 . S
H1817 N1804 0.985 . S
C1818 C1819 1.363 . S
C1818 C1824 1.379 . S
C1818 N1826 1.356 . S
C1819 C1818 1.363 . S
C1819 C1825 1.363 . S
C1820 C1821 1.363 . S
C1820 C1825 1.379 . S
C1820 N1827 1.356 . S
C1821 C1820 1.363 . S
C1821 C1824 1.363 . S
N1822 C1824 1.356 . S
N1822 H1834 0.984 . S
N1822 H1835 0.985 . S
N1823 C1825 1.356 . S
N1823 H1828 0.984 . S
N1823 H1829 0.985 . S
C1824 C1818 1.379 . S
C1824 C1821 1.363 . S
C1824 N1822 1.356 . S
C1825 C1819 1.363 . S
C1825 C1820 1.379 . S
C1825 N1823 1.356 . S
N1826 C1818 1.356 . S
N1826 H1832 0.984 . S
N1826 H1833 0.984 . S
N1827 C1820 1.356 . S
N1827 H1830 0.984 . S
N1827 H1831 0.985 . S
H1828 N1823 0.984 . S
H1829 N1823 0.985 . S
H1830 N1827 0.984 . S
H1831 N1827 0.985 . S
H1832 N1826 0.984 . S
H1833 N1826 0.984 . S
H1834 N1822 0.984 . S
H1835 N1822 0.985 . S
C1836 C1837 1.363 . S
C1836 C1842 1.379 . S
C1836 N1844 1.356 . S
C1837 C1836 1.363 . S
C1837 C1843 1.363 . S
C1838 C1839 1.363 . S
C1838 C1843 1.379 . S
C1838 N1845 1.356 . S
C1839 C1838 1.363 . S
C1839 C1842 1.363 . S
N1840 C1842 1.356 . S
N1840 H1852 0.984 . S
N1840 H1853 0.985 . S
N1841 C1843 1.356 . S
N1841 H1846 0.984 . S
N1841 H1847 0.985 . S
C1842 C1836 1.379 . S
C1842 C1839 1.363 . S
C1842 N1840 1.356 . S
C1843 C1837 1.363 . S
C1843 C1838 1.379 . S
C1843 N1841 1.356 . S
N1844 C1836 1.356 . S
N1844 H1850 0.984 . S
N1844 H1851 0.984 . S
N1845 C1838 1.356 . S
N1845 H1848 0.984 . S
N1845 H1849 0.985 . S
H1846 N1841 0.984 . S
H1847 N1841 0.985 . S
H1848 N1845 0.984 . S
H1849 N1845 0.985 . S
H1850 N1844 0.984 . S
H1851 N1844 0.984 . S
H1852 N1840 0.984 . S
H1853 N1840 0.985 . S
C1854 C1855 1.363 . S
C1854 C1860 1.379 . S
C1854 N1862 1.356 . S
C1855 C1854 1.363 . S
C1855 C1861 1.363 . S
C1856 C1857 1.363 . S
C1856 C1861 1.379 . S
C1856 N1863 1.356 . S
C1857 C1856 1.363 . S
C1857 C1860 1.363 . S
N1858 C1860 1.356 . S
N1858 H1870 0.984 . S
N1858 H1871 0.985 . S
N1859 C1861 1.356 . S
N1859 H1864 0.984 . S
N1859 H1865 0.985 . S
C1860 C1854 1.379 . S
C1860 C1857 1.363 . S
C1860 N1858 1.356 . S
C1861 C1855 1.363 . S
C1861 C1856 1.379 . S
C1861 N1859 1.356 . S
N1862 C1854 1.356 . S
N1862 H1868 0.984 . S
N1862 H1869 0.984 . S
N1863 C1856 1.356 . S
N1863 H1866 0.984 . S
N1863 H1867 0.985 . S
H1864 N1859 0.984 . S
H1865 N1859 0.985 . S
H1866 N1863 0.984 . S
H1867 N1863 0.985 . S
H1868 N1862 0.984 . S
H1869 N1862 0.984 . S
H1870 N1858 0.984 . S
H1871 N1858 0.985 . S
C793 N113 1.428 . S
C795 C8 1.451 . S
C811 N14 1.428 . S
C813 C41 1.451 . S
C829 N47 1.428 . S
C831 C74 1.451 . S
C847 C107 1.451 . S
C849 N80 1.428 . S
C865 N179 1.428 . S
C867 C140 1.451 . S
C883 N212 1.428 . S
C885 C173 1.451 . S
C901 C206 1.451 . S
C903 N245 1.428 . S
C919 N146 1.428 . S
C921 C239 1.451 . S
C937 C272 1.451 . S
C939 N608 1.428 . S
C955 C305 1.451 . S
C957 N641 1.428 . S
C973 N674 1.428 . S
C975 C338 1.451 . S
C991 N575 1.428 . S
C993 C371 1.451 . S
C1009 N740 1.428 . S
C1011 C404 1.451 . S
C1027 C437 1.451 . S
C1029 N542 1.428 . S
C1045 C470 1.451 . S
C1047 N773 1.428 . S
C1063 N707 1.428 . S
C1065 C503 1.451 . S
C1081 N311 1.428 . S
C1083 C536 1.451 . S
C1099 C569 1.451 . S
C1101 N509 1.428 . S
C1117 N410 1.428 . S
C1119 C602 1.451 . S
C1135 N443 1.428 . S
C1137 C635 1.451 . S
C1153 N476 1.428 . S
C1155 C668 1.451 . S
C1171 N377 1.428 . S
C1173 C701 1.451 . S
C1189 N278 1.428 . S
C1191 C734 1.451 . S
C1207 N344 1.428 . S
C1209 C767 1.451 . S
C1225 C215 1.586 . S
C1227 C17 1.586 . S
C1243 C50 1.586 . S
C1245 C248 1.586 . S
C1261 C149 1.586 . S
C1263 C83 1.586 . S
C1279 C182 1.586 . S
C1281 C116 1.586 . S
C1297 C347 1.586 . S
C1299 C281 1.586 . S
C1315 C314 1.586 . S
C1317 C380 1.586 . S
C1333 C413 1.586 . S
C1335 C479 1.586 . S
C1351 C512 1.586 . S
C1353 C446 1.586 . S
C1369 C545 1.586 . S
C1371 C578 1.586 . S
C1387 C611 1.586 . S
C1389 C776 1.586 . S
C1405 C644 1.586 . S
C1407 C710 1.586 . S
C1423 C743 1.586 . S
C1425 C677 1.586 . S
C1441 C28 1.329 . S
C1443 N269 1.359 . S
C1459 C61 1.329 . S
C1461 N302 1.359 . S
C1477 N335 1.359 . S
C1479 C94 1.329 . S
C1495 N368 1.359 . S
C1497 C127 1.329 . S
C1513 C160 1.329 . S
C1515 N401 1.359 . S
C1531 N434 1.359 . S
C1533 C193 1.329 . S
C1549 C226 1.329 . S
C1551 N467 1.359 . S
C1567 N500 1.359 . S
C1569 C259 1.329 . S
C1585 C292 1.329 . S
C1587 N533 1.359 . S
C1603 N764 1.359 . S
C1605 C325 1.329 . S
C1621 C358 1.329 . S
C1623 N698 1.359 . S
C1639 C391 1.329 . S
C1641 N731 1.359 . S
C1657 N566 1.359 . S
C1659 C424 1.329 . S
C1675 C457 1.329 . S
C1677 N599 1.359 . S
C1693 C490 1.329 . S
C1695 N632 1.359 . S
C1711 C523 1.329 . S
C1713 N665 1.359 . S
C1729 C556 1.329 . S
C1731 N5 1.359 . S
C1747 C589 1.329 . S
C1749 N137 1.359 . S
C1765 C622 1.329 . S
C1767 N170 1.359 . S
C1783 N203 1.359 . S
C1785 C655 1.329 . S
C1801 C688 1.329 . S
C1803 N236 1.359 . S
C1819 N71 1.359 . S
C1821 C721 1.329 . S
C1837 N104 1.359 . S
C1839 C754 1.329 . S
C1855 C787 1.329 . S
C1857 N38 1.359 . S
