# Generated by pormake.
# Topology uof, (4)-cn, num edge types: 1
# Building blocks:
#     Node 0, Type 0, BuildingBlock: GALJAG_clean_sbu_0, # of connection points: 4
#     Node 1, Type 0, BuildingBlock: GALJAG_clean_sbu_0, # of connection points: 4
#     Node 2, Type 0, BuildingBlock: GALJAG_clean_sbu_0, # of connection points: 4
#     Node 3, Type 0, BuildingBlock: GALJAG_clean_sbu_0, # of connection points: 4
#     Node 4, Type 0, BuildingBlock: GALJAG_clean_sbu_0, # of connection points: 4
#     Node 5, Type 0, BuildingBlock: GALJAG_clean_sbu_0, # of connection points: 4
#     Node 6, Type 0, BuildingBlock: GALJAG_clean_sbu_0, # of connection points: 4
#     Node 7, Type 0, BuildingBlock: GALJAG_clean_sbu_0, # of connection points: 4
#     Node 8, Type 0, BuildingBlock: GALJAG_clean_sbu_0, # of connection points: 4
#     Node 9, Type 0, BuildingBlock: GALJAG_clean_sbu_0, # of connection points: 4
#     Node 10, Type 0, BuildingBlock: GALJAG_clean_sbu_0, # of connection points: 4
#     Node 11, Type 0, BuildingBlock: GALJAG_clean_sbu_0, # of connection points: 4
#     Edge 12, Type (0, 0), BuildingBlock: XIVTED_clean_linker_0, # of connection points: 2
#     Edge 13, Type (0, 0), BuildingBlock: XIVTED_clean_linker_0, # of connection points: 2
#     Edge 14, Type (0, 0), BuildingBlock: XIVTED_clean_linker_0, # of connection points: 2
#     Edge 15, Type (0, 0), BuildingBlock: XIVTED_clean_linker_0, # of connection points: 2
#     Edge 16, Type (0, 0), BuildingBlock: XIVTED_clean_linker_0, # of connection points: 2
#     Edge 17, Type (0, 0), BuildingBlock: XIVTED_clean_linker_0, # of connection points: 2
#     Edge 18, Type (0, 0), BuildingBlock: XIVTED_clean_linker_0, # of connection points: 2
#     Edge 19, Type (0, 0), BuildingBlock: XIVTED_clean_linker_0, # of connection points: 2
#     Edge 20, Type (0, 0), BuildingBlock: XIVTED_clean_linker_0, # of connection points: 2
#     Edge 21, Type (0, 0), BuildingBlock: XIVTED_clean_linker_0, # of connection points: 2
#     Edge 22, Type (0, 0), BuildingBlock: XIVTED_clean_linker_0, # of connection points: 2
#     Edge 23, Type (0, 0), BuildingBlock: XIVTED_clean_linker_0, # of connection points: 2
#     Edge 24, Type (0, 0), BuildingBlock: XIVTED_clean_linker_0, # of connection points: 2
#     Edge 25, Type (0, 0), BuildingBlock: XIVTED_clean_linker_0, # of connection points: 2
#     Edge 26, Type (0, 0), BuildingBlock: XIVTED_clean_linker_0, # of connection points: 2
#     Edge 27, Type (0, 0), BuildingBlock: XIVTED_clean_linker_0, # of connection points: 2
#     Edge 28, Type (0, 0), BuildingBlock: XIVTED_clean_linker_0, # of connection points: 2
#     Edge 29, Type (0, 0), BuildingBlock: XIVTED_clean_linker_0, # of connection points: 2
#     Edge 30, Type (0, 0), BuildingBlock: XIVTED_clean_linker_0, # of connection points: 2
#     Edge 31, Type (0, 0), BuildingBlock: XIVTED_clean_linker_0, # of connection points: 2
#     Edge 32, Type (0, 0), BuildingBlock: XIVTED_clean_linker_0, # of connection points: 2
#     Edge 33, Type (0, 0), BuildingBlock: XIVTED_clean_linker_0, # of connection points: 2
#     Edge 34, Type (0, 0), BuildingBlock: XIVTED_clean_linker_0, # of connection points: 2
#     Edge 35, Type (0, 0), BuildingBlock: XIVTED_clean_linker_0, # of connection points: 2
# Relax obj value: 0.137
# Max RMSD: 0.110
# Mean RMSD: 0.110
data_MOF--net-uof--node1-GALJAG_clean_sbu_0--edge1-XIVTED_clean_linker_0
_symmetry_space_group_name_H-M    P1
_symmetry_Int_Tables_number       1
_symmetry_cell_setting            triclinic
loop_
_symmetry_equiv_pos_as_xyz
'x, y, z'
_cell_length_a     31.32858
_cell_length_b     31.338403
_cell_length_c     68.100776
_cell_angle_alpha  89.996089
_cell_angle_beta   90.024274
_cell_angle_gamma 119.90909
loop_
_atom_site_label
_atom_site_type_symbol
_atom_site_fract_x
_atom_site_fract_y
_atom_site_fract_z
_atom_type_partial_charge
In0 In 0.22855 0.31837 0.23438 0.0
O1 O 0.29265 0.39916 0.23648 0.0
O2 O 0.30868 0.34312 0.22863 0.0
C3 C 0.15274 0.32523 0.21773 0.0
C4 C 0.22819 0.29598 0.27283 0.0
C5 C 0.2148 0.24285 0.21176 0.0
O6 O 0.19596 0.34699 0.211 0.0
O7 O 0.14874 0.30429 0.23401 0.0
O8 O 0.19674 0.23679 0.22878 0.0
O9 O 0.23976 0.28702 0.20619 0.0
C10 C 0.32526 0.38806 0.23217 0.0
O11 O 0.22766 0.26933 0.25889 0.0
O12 O 0.22648 0.33389 0.26754 0.0
In13 In 0.91444 0.22521 0.56794 0.0
O14 O 0.90104 0.29131 0.56753 0.0
O15 O 0.97286 0.30403 0.56117 0.0
C16 C 0.83061 0.15067 0.55149 0.0
C17 C 0.9255 0.22152 0.60727 0.0
C18 C 0.98217 0.2147 0.54774 0.0
O19 O 0.85062 0.19466 0.54569 0.0
O20 O 0.84972 0.14508 0.56688 0.0
O21 O 0.98164 0.21583 0.56623 0.0
O22 O 0.94895 0.2196 0.53941 0.0
C23 C 0.94533 0.32231 0.56339 0.0
O24 O 0.93411 0.19627 0.59518 0.0
O25 O 0.9069 0.2454 0.59973 0.0
In26 In 0.69208 0.91432 0.89711 0.0
O27 O 0.73515 0.96975 0.92087 0.0
O28 O 0.68281 0.89777 0.93048 0.0
C29 C 0.7688 0.97458 0.87473 0.0
C30 C 0.61932 0.93692 0.89379 0.0
C31 C 0.68576 0.8311 0.88142 0.0
O32 O 0.77411 0.96334 0.892 0.0
O33 O 0.72489 0.95529 0.86881 0.0
O34 O 0.66215 0.85082 0.87477 0.0
O35 O 0.70852 0.85021 0.89719 0.0
C36 C 0.71454 0.94144 0.9352 0.0
O37 O 0.61107 0.89613 0.90088 0.0
O38 O 0.66276 0.96414 0.88793 0.0
In39 In 0.78787 0.6931 0.23546 0.0
O40 O 0.79427 0.74281 0.26064 0.0
O41 O 0.78892 0.6746 0.26835 0.0
C42 C 0.80109 0.7689 0.2131 0.0
C43 C 0.69046 0.6253 0.23351 0.0
C44 C 0.86253 0.6851 0.21834 0.0
O45 O 0.8166 0.7744 0.23052 0.0
O46 O 0.77882 0.72509 0.20695 0.0
O47 O 0.81869 0.66231 0.21228 0.0
O48 O 0.86794 0.70794 0.23424 0.0
C49 C 0.79115 0.71407 0.2742 0.0
O50 O 0.7226 0.61297 0.23688 0.0
O51 O 0.70771 0.67069 0.23083 0.0
In52 In 0.10868 0.78529 0.56759 0.0
O53 O 0.12253 0.71942 0.56725 0.0
O54 O 0.05048 0.7063 0.56105 0.0
C55 C 0.19229 0.85947 0.55087 0.0
C56 C 0.0974 0.78932 0.60686 0.0
C57 C 0.04054 0.79611 0.5478 0.0
O58 O 0.16967 0.81626 0.54419 0.0
O59 O 0.17596 0.86424 0.56716 0.0
O60 O 0.04204 0.79579 0.56627 0.0
O61 O 0.073 0.79034 0.53929 0.0
C62 C 0.0782 0.68822 0.56322 0.0
O63 O 0.08971 0.81516 0.59472 0.0
O64 O 0.11522 0.76463 0.5994 0.0
In65 In 0.31637 0.09686 0.90168 0.0
O66 O 0.39591 0.11043 0.90086 0.0
O67 O 0.33639 0.037 0.89834 0.0
C68 C 0.32554 0.18091 0.8854 0.0
C69 C 0.29948 0.08419 0.94079 0.0
C70 C 0.24187 0.03079 0.87953 0.0
O71 O 0.34737 0.15933 0.87885 0.0
O72 O 0.30312 0.16319 0.90133 0.0
O73 O 0.23739 0.03511 0.8977 0.0
O74 O 0.28389 0.05962 0.8726 0.0
C75 C 0.38235 0.06517 0.89903 0.0
O76 O 0.26565 0.07222 0.92828 0.0
O77 O 0.34258 0.10655 0.93375 0.0
In78 In 0.6926 0.78064 0.44941 0.0
O79 O 0.64976 0.70738 0.46517 0.0
O80 O 0.61666 0.71717 0.43965 0.0
C81 C 0.68629 0.85899 0.46364 0.0
C82 C 0.716 0.77023 0.41216 0.0
C83 C 0.77078 0.79511 0.47064 0.0
O84 O 0.66038 0.81579 0.47005 0.0
O85 O 0.71147 0.86187 0.44875 0.0
O86 O 0.77517 0.81368 0.45382 0.0
O87 O 0.72716 0.76924 0.47661 0.0
C88 C 0.61458 0.68846 0.45315 0.0
O89 O 0.72856 0.75508 0.42704 0.0
O90 O 0.69166 0.79164 0.41596 0.0
In91 In 0.91246 0.69021 0.77659 0.0
O92 O 0.89828 0.61038 0.77662 0.0
O93 O 0.97088 0.66901 0.78204 0.0
C94 C 0.8291 0.68333 0.79262 0.0
C95 C 0.92647 0.70693 0.73745 0.0
C96 C 0.97878 0.76431 0.7988 0.0
O97 O 0.84692 0.65703 0.79808 0.0
O98 O 0.85003 0.70919 0.7777 0.0
O99 O 0.97655 0.76782 0.78044 0.0
O100 O 0.94786 0.72323 0.80594 0.0
C101 C 0.94285 0.62329 0.78008 0.0
O102 O 0.93929 0.74083 0.74995 0.0
O103 O 0.90257 0.66392 0.74447 0.0
In104 In 0.22729 0.9103 0.11184 0.0
O105 O 0.29253 0.89552 0.11224 0.0
O106 O 0.30725 0.96879 0.11657 0.0
C107 C 0.15277 0.82797 0.12916 0.0
C108 C 0.22136 0.9196 0.07256 0.0
C109 C 0.21877 0.97905 0.13212 0.0
O110 O 0.19655 0.84935 0.13528 0.0
O111 O 0.14738 0.84487 0.11312 0.0
O112 O 0.21661 0.97676 0.11365 0.0
O113 O 0.22594 0.94714 0.14033 0.0
C114 C 0.32455 0.94025 0.11503 0.0
O115 O 0.19851 0.9309 0.08484 0.0
O116 O 0.24385 0.89931 0.07995 0.0
In117 In 0.32692 0.22803 0.44797 0.0
O118 O 0.28909 0.25117 0.42549 0.0
O119 O 0.32894 0.21765 0.41447 0.0
C120 C 0.2492 0.21331 0.46952 0.0
C121 C 0.40366 0.32099 0.45166 0.0
C122 C 0.33432 0.15054 0.4625 0.0
O123 O 0.24443 0.19498 0.45263 0.0
O124 O 0.29295 0.23899 0.47541 0.0
O125 O 0.3608 0.19415 0.46841 0.0
O126 O 0.30793 0.14673 0.44788 0.0
C127 C 0.30302 0.23735 0.41063 0.0
O128 O 0.40286 0.29209 0.43851 0.0
O129 O 0.3678 0.30199 0.46335 0.0
In130 In 0.10529 0.32218 0.77758 0.0
O131 O 0.08327 0.27285 0.75054 0.0
O132 O 0.1155 0.34968 0.74565 0.0
C133 C 0.03747 0.24527 0.7982 0.0
C134 C 0.0745 0.38876 0.78135 0.0
C135 C 0.18819 0.33003 0.79447 0.0
O136 O 0.03889 0.24543 0.77971 0.0
O137 O 0.06977 0.28426 0.8063 0.0
O138 O 0.16914 0.3553 0.79983 0.0
O139 O 0.16873 0.30477 0.77925 0.0
C140 C 0.09451 0.30695 0.73828 0.0
O141 O 0.11894 0.40174 0.77759 0.0
O142 O 0.04676 0.34308 0.78359 0.0
In143 In 0.78652 0.09706 0.11175 0.0
O144 O 0.77898 0.04528 0.08722 0.0
O145 O 0.79244 0.11603 0.07855 0.0
C146 C 0.80145 0.03565 0.13416 0.0
C147 C 0.69054 0.07235 0.11514 0.0
C148 C 0.86323 0.1795 0.12796 0.0
O149 O 0.81596 0.04493 0.11659 0.0
O150 O 0.77945 0.05742 0.14043 0.0
O151 O 0.81908 0.1625 0.13322 0.0
O152 O 0.86818 0.15813 0.11316 0.0
C153 C 0.78401 0.07372 0.07326 0.0
O154 O 0.72287 0.11433 0.10899 0.0
O155 O 0.70711 0.04461 0.11997 0.0
H156 H 0.86079 0.21704 0.16406 0.0
H157 H 0.05571 0.28206 0.22896 0.0
H158 H 0.96234 0.21938 0.12077 0.0
H159 H 0.15043 0.34551 0.17872 0.0
H160 H 0.98402 0.25473 0.20756 0.0
H161 H 0.92948 0.26122 0.18685 0.0
C162 C 0.89765 0.22743 0.15923 0.0
C163 C 0.9056 0.21406 0.14046 0.0
C164 C 0.02038 0.27584 0.20123 0.0
C165 C 0.98468 0.26359 0.16683 0.0
C166 C 0.06147 0.29137 0.2135 0.0
C167 C 0.10931 0.31645 0.2057 0.0
C168 C 0.027 0.28491 0.18088 0.0
C169 C 0.11434 0.32669 0.18545 0.0
C170 C 0.93688 0.25209 0.1724 0.0
C171 C 0.95433 0.22867 0.13509 0.0
N172 N 0.07382 0.31023 0.17374 0.0
N173 N 0.99187 0.25238 0.14821 0.0
H174 H 0.79768 0.15365 0.5145 0.0
H175 H 0.73503 0.95566 0.45196 0.0
H176 H 0.78517 0.05154 0.55965 0.0
H177 H 0.65918 0.8632 0.50155 0.0
H178 H 0.76156 0.02823 0.47272 0.0
H179 H 0.75349 0.08462 0.49188 0.0
C180 C 0.785 0.11663 0.51977 0.0
C181 C 0.79561 0.10856 0.53902 0.0
C182 C 0.73792 0.99223 0.47899 0.0
C183 C 0.74605 0.02907 0.5129 0.0
C184 C 0.72285 0.95065 0.4671 0.0
C185 C 0.69452 0.90316 0.47494 0.0
C186 C 0.72516 0.98645 0.49903 0.0
C187 C 0.68058 0.89904 0.49479 0.0
C188 C 0.76033 0.07719 0.50672 0.0
C189 C 0.77808 0.05963 0.54495 0.0
N190 N 0.69673 0.94 0.50621 0.0
N191 N 0.75445 0.02185 0.53193 0.0
H192 H 0.73117 0.77947 0.8929 0.0
H193 H 0.79341 0.64543 0.82913 0.0
H194 H 0.66241 0.80477 0.84284 0.0
H195 H 0.78738 0.74079 0.78491 0.0
H196 H 0.74976 0.67088 0.85183 0.0
H197 H 0.75768 0.73385 0.87182 0.0
C198 C 0.72055 0.77435 0.87757 0.0
C199 C 0.6942 0.79578 0.86971 0.0
C200 C 0.75793 0.68631 0.83718 0.0
C201 C 0.72479 0.74359 0.84526 0.0
C202 C 0.78228 0.6712 0.82407 0.0
C203 C 0.7945 0.69123 0.80507 0.0
C204 C 0.74558 0.72184 0.8313 0.0
C205 C 0.77898 0.7245 0.79942 0.0
C206 C 0.73559 0.74807 0.86549 0.0
C207 C 0.68225 0.78855 0.84961 0.0
N208 N 0.7556 0.73889 0.81248 0.0
N209 N 0.6983 0.76386 0.83806 0.0
H210 H 0.8607 0.65847 0.17991 0.0
H211 H 0.15457 0.80457 0.16779 0.0
H212 H 0.96099 0.73098 0.22792 0.0
H213 H 0.05434 0.77524 0.11958 0.0
H214 H 0.08407 0.76105 0.18988 0.0
H215 H 0.93117 0.68428 0.15788 0.0
C216 C 0.89753 0.67891 0.18594 0.0
C217 C 0.90481 0.69262 0.20585 0.0
C218 C 0.07748 0.76352 0.17442 0.0
C219 C 0.98589 0.72259 0.18056 0.0
C220 C 0.11774 0.78805 0.16173 0.0
C221 C 0.11049 0.79374 0.14174 0.0
C222 C 0.02937 0.74394 0.1671 0.0
C223 C 0.06177 0.77182 0.13485 0.0
C224 C 0.93778 0.69396 0.17329 0.0
C225 C 0.95354 0.71955 0.21271 0.0
N226 N 0.02316 0.74814 0.1475 0.0
N227 N 0.99213 0.7338 0.2001 0.0
H228 H 0.28506 0.05301 0.45183 0.0
H229 H 0.24798 0.95682 0.56163 0.0
H230 H 0.36404 0.14892 0.50021 0.0
H231 H 0.21381 0.85995 0.51189 0.0
H232 H 0.2923 0.0277 0.53967 0.0
H233 H 0.26007 0.98177 0.4734 0.0
C234 C 0.29798 0.05908 0.46688 0.0
C235 C 0.32678 0.10711 0.47417 0.0
C236 C 0.27582 0.99091 0.53361 0.0
C237 C 0.29712 0.02558 0.49917 0.0
C238 C 0.25063 0.95039 0.54617 0.0
C239 C 0.22708 0.90225 0.53864 0.0
C240 C 0.27673 0.98338 0.51327 0.0
C241 C 0.23147 0.8963 0.5184 0.0
C242 C 0.28356 0.01836 0.47923 0.0
C243 C 0.34204 0.11263 0.4939 0.0
N244 N 0.25501 0.93626 0.50642 0.0
N245 N 0.32641 0.07251 0.50576 0.0
H246 H 0.28184 0.23459 0.89627 0.0
H247 H 0.22226 0.36806 0.83113 0.0
H248 H 0.35015 0.20635 0.84685 0.0
H249 H 0.23049 0.27283 0.78743 0.0
H250 H 0.26486 0.34266 0.85438 0.0
H251 H 0.25706 0.28081 0.87472 0.0
C252 C 0.29277 0.23921 0.88098 0.0
C253 C 0.31839 0.2167 0.87344 0.0
C254 C 0.25739 0.32721 0.83974 0.0
C255 C 0.28986 0.26968 0.84844 0.0
C256 C 0.23365 0.34231 0.82631 0.0
C257 C 0.22233 0.3223 0.80729 0.0
C258 C 0.26994 0.29164 0.83417 0.0
C259 C 0.23819 0.28911 0.80194 0.0
C260 C 0.27871 0.26585 0.86862 0.0
C261 C 0.33079 0.22334 0.85338 0.0
N262 N 0.26087 0.27465 0.81532 0.0
N263 N 0.31574 0.24845 0.84156 0.0
H264 H 0.61681 0.64747 0.23137 0.0
H265 H 0.3993 0.36751 0.2271 0.0
H266 H 0.64134 0.5239 0.23493 0.0
H267 H 0.37381 0.48902 0.23689 0.0
H268 H 0.48781 0.42465 0.22747 0.0
H269 H 0.52807 0.5906 0.23102 0.0
C270 C 0.60353 0.60828 0.23203 0.0
C271 C 0.63664 0.5904 0.23315 0.0
C272 C 0.46298 0.43892 0.22955 0.0
C273 C 0.53472 0.52495 0.23269 0.0
C274 C 0.41231 0.40633 0.22927 0.0
C275 C 0.37897 0.42351 0.23195 0.0
C276 C 0.4808 0.48936 0.23237 0.0
C277 C 0.39814 0.47419 0.23475 0.0
C278 C 0.55278 0.57585 0.23189 0.0
C279 C 0.6172 0.53929 0.23406 0.0
N280 N 0.44781 0.50537 0.23484 0.0
N281 N 0.56753 0.50836 0.23373 0.0
H282 H 0.98262 0.6158 0.55878 0.0
H283 H 0.04096 0.3946 0.55878 0.0
H284 H 0.12928 0.63784 0.56522 0.0
H285 H 0.89447 0.37285 0.56542 0.0
H286 H 0.0738 0.48352 0.55803 0.0
H287 H 0.9499 0.52693 0.5581 0.0
C288 C 1.00805 0.60195 0.55996 0.0
C289 C 0.05886 0.63439 0.56206 0.0
C290 C 0.03448 0.45937 0.55962 0.0
C291 C 0.02141 0.53231 0.56128 0.0
C292 C 0.0156 0.40852 0.55998 0.0
C293 C 0.9648 0.37616 0.56217 0.0
C294 C 1.00237 0.47825 0.5613 0.0
C295 C 0.93384 0.3964 0.56372 0.0
C296 C 0.98924 0.55112 0.55963 0.0
C297 C 0.0899 0.61422 0.56358 0.0
N298 N 0.9531 0.44614 0.56323 0.0
N299 N 0.0707 0.56448 0.56313 0.0
H300 H 0.35974 0.96924 0.90112 0.0
H301 H 0.63515 0.02691 0.88254 0.0
H302 H 0.48311 0.11638 0.89484 0.0
H303 H 0.52125 0.88697 0.90459 0.0
H304 H 0.57774 0.05799 0.88371 0.0
H305 H 0.41618 0.9367 0.89949 0.0
C306 C 0.39876 0.99476 0.89937 0.0
C307 C 0.41677 0.04569 0.89809 0.0
C308 C 0.56518 0.02047 0.88828 0.0
C309 C 0.48157 0.00847 0.8961 0.0
C310 C 0.59788 1.00251 0.88753 0.0
C311 C 0.583 0.95415 0.89348 0.0
C312 C 0.51688 0.98985 0.89489 0.0
C313 C 0.53426 0.92443 0.89985 0.0
C314 C 0.43094 0.97609 0.89849 0.0
C315 C 0.46766 0.07692 0.8959 0.0
N316 N 0.50287 0.94274 0.90036 0.0
N317 N 0.49825 0.05779 0.89488 0.0
H318 H 0.58637 0.62702 0.48469 0.0
H319 H 0.45926 0.38036 0.42134 0.0
H320 H 0.56331 0.62831 0.42232 0.0
H321 H 0.42731 0.38342 0.48274 0.0
H322 H 0.50847 0.47081 0.42156 0.0
H323 H 0.53668 0.53707 0.48446 0.0
C324 C 0.57021 0.60833 0.47099 0.0
C325 C 0.57854 0.63512 0.45353 0.0
C326 C 0.4909 0.45153 0.43499 0.0
C327 C 0.52306 0.53213 0.45304 0.0
C328 C 0.46339 0.4 0.43493 0.0
C329 C 0.43941 0.37444 0.45208 0.0
C330 C 0.49507 0.47747 0.45239 0.0
C331 C 0.44529 0.40171 0.46922 0.0
C332 C 0.54207 0.55703 0.47085 0.0
C333 C 0.55718 0.60904 0.43614 0.0
N334 N 0.47261 0.45167 0.46896 0.0
N335 N 0.53087 0.55889 0.43628 0.0
H336 H 0.03849 0.64589 0.78377 0.0
H337 H 0.97887 0.36613 0.78547 0.0
H338 H 0.89133 0.52189 0.77859 0.0
H339 H 0.12568 0.48993 0.7789 0.0
H340 H 0.94631 0.42255 0.78565 0.0
H341 H 0.07088 0.5894 0.78464 0.0
C342 C 0.01289 0.60669 0.78288 0.0
C343 C 0.96203 0.58859 0.7811 0.0
C344 C 0.98564 0.43745 0.78419 0.0
C345 C 0.99909 0.52353 0.78213 0.0
C346 C 1.00435 0.40527 0.78416 0.0
C347 C 0.05517 0.42335 0.78218 0.0
C348 C 0.01792 0.48828 0.78237 0.0
C349 C 0.0863 0.4744 0.78046 0.0
C350 C 0.03151 0.57446 0.78333 0.0
C351 C 0.93075 0.53744 0.77997 0.0
N352 N 0.06719 0.50507 0.78063 0.0
N353 N 0.94978 0.50669 0.78053 0.0
H354 H 0.3729 0.88726 0.11549 0.0
H355 H 0.64279 0.12486 0.1084 0.0
H356 H 0.39871 0.03595 0.11576 0.0
H357 H 0.61622 0.9797 0.12312 0.0
H358 H 0.55341 0.09282 0.10869 0.0
H359 H 0.46223 0.92007 0.11587 0.0
C360 C 0.39733 0.92675 0.11567 0.0
C361 C 0.37831 0.95887 0.11566 0.0
C362 C 0.56726 0.06809 0.11192 0.0
C363 C 0.48052 0.99676 0.11591 0.0
C364 C 0.61822 0.08638 0.11174 0.0
C365 C 0.63702 0.05499 0.11579 0.0
C366 C 0.53492 0.01795 0.11594 0.0
C367 C 0.60345 0.00534 0.11998 0.0
C368 C 0.44831 0.9455 0.11591 0.0
C369 C 0.41174 0.0098 0.11584 0.0
N370 N 0.55418 0.98837 0.11986 0.0
N371 N 0.46111 0.02714 0.11588 0.0
H372 H 0.21804 0.05991 0.11782 0.0
H373 H 0.17893 0.14751 0.22297 0.0
H374 H 0.20791 0.98261 0.17165 0.0
H375 H 0.2382 0.24495 0.17314 0.0
H376 H 0.17516 0.08075 0.20306 0.0
H377 H 0.21175 0.12278 0.13684 0.0
C378 C 0.21431 0.05615 0.13363 0.0
C379 C 0.21381 0.01638 0.14325 0.0
C380 C 0.18878 0.11672 0.19649 0.0
C381 C 0.20628 0.08754 0.16494 0.0
C382 C 0.19076 0.15468 0.20779 0.0
C383 C 0.20921 0.20169 0.19966 0.0
C384 C 0.20492 0.12592 0.17693 0.0
C385 C 0.22407 0.2092 0.17996 0.0
C386 C 0.21082 0.09198 0.14445 0.0
C387 C 0.2088 0.013 0.16372 0.0
N388 N 0.22166 0.17162 0.16922 0.0
N389 N 0.2052 0.04822 0.17393 0.0
H390 H 0.06395 0.21627 0.56223 0.0
H391 H 0.1538 0.17573 0.45772 0.0
H392 H 0.98459 0.20029 0.50836 0.0
H393 H 0.24954 0.23668 0.50797 0.0
H394 H 0.08574 0.17063 0.47724 0.0
H395 H 0.12712 0.21001 0.54351 0.0
C396 C 0.05978 0.21123 0.54646 0.0
C397 C 0.01937 0.20917 0.53675 0.0
C398 C 0.12164 0.1849 0.48398 0.0
C399 C 0.09105 0.20178 0.51536 0.0
C400 C 0.16032 0.18765 0.4729 0.0
C401 C 0.20722 0.20697 0.48127 0.0
C402 C 0.13006 0.20113 0.50354 0.0
C403 C 0.21392 0.22191 0.50096 0.0
C404 C 0.0958 0.20774 0.53581 0.0
C405 C 0.0155 0.20244 0.51635 0.0
N406 N 0.1757 0.21873 0.51145 0.0
N407 N 0.05103 0.19903 0.50628 0.0
H408 H 0.03401 0.23144 0.83781 0.0
H409 H 0.76819 0.99382 0.8358 0.0
H410 H 0.95712 0.16332 0.78403 0.0
H411 H 0.86346 0.03555 0.8865 0.0
H412 H 0.83608 0.05728 0.81666 0.0
H413 H 0.97061 0.16164 0.85626 0.0
C414 C 1.0038 0.2017 0.82991 0.0
C415 C 1.00046 0.20306 0.80942 0.0
C416 C 0.84226 0.05225 0.83192 0.0
C417 C 0.92812 0.12356 0.83032 0.0
C418 C 0.80356 0.01618 0.84284 0.0
C419 C 0.81037 0.0098 0.86273 0.0
C420 C 0.88775 0.08248 0.84107 0.0
C421 C 0.85683 0.03945 0.87117 0.0
C422 C 0.96784 0.16185 0.84041 0.0
C423 C 0.96087 0.16362 0.79984 0.0
N424 N 0.89376 0.07497 0.86032 0.0
N425 N 0.92594 0.12554 0.81041 0.0
H426 H 0.79183 0.02364 0.17382 0.0
H427 H 0.78961 0.77065 0.17351 0.0
H428 H 0.82434 0.96702 0.12161 0.0
H429 H 0.82519 0.86075 0.22555 0.0
H430 H 0.79526 0.83899 0.15407 0.0
H431 H 0.79711 0.96071 0.19324 0.0
C432 C 0.80034 0.99808 0.1665 0.0
C433 C 0.80753 1.0002 0.14614 0.0
C434 C 0.80224 0.84385 0.16972 0.0
C435 C 0.81305 0.92829 0.16809 0.0
C436 C 0.79881 0.80492 0.1808 0.0
C437 C 0.80682 0.81027 0.20111 0.0
C438 C 0.81282 0.88787 0.17914 0.0
C439 C 0.81881 0.85533 0.20989 0.0
C440 C 0.80353 0.96243 0.17756 0.0
C441 C 0.81862 0.9665 0.13731 0.0
N442 N 0.82094 0.89237 0.19886 0.0
N443 N 0.8205 0.93143 0.14833 0.0
H444 H 0.86594 0.83309 0.45852 0.0
H445 H 0.9594 0.79516 0.56268 0.0
H446 H 0.77138 0.77175 0.50904 0.0
H447 H 0.03674 0.80954 0.50843 0.0
H448 H 0.89545 0.80074 0.5442 0.0
H449 H 0.93467 0.83889 0.47779 0.0
C450 C 0.85982 0.82122 0.4737 0.0
C451 C 0.81306 0.80161 0.48223 0.0
C452 C 0.92651 0.80282 0.53637 0.0
C453 C 0.891 0.80828 0.50423 0.0
C454 C 0.96298 0.79974 0.54689 0.0
C455 C 1.00302 0.80151 0.53699 0.0
C456 C 0.93049 0.80812 0.51589 0.0
C457 C 1.00613 0.80763 0.51655 0.0
C458 C 0.89888 0.82438 0.48464 0.0
C459 C 0.80688 0.78674 0.50192 0.0
N460 N 0.97019 0.81067 0.50663 0.0
N461 N 0.84549 0.79034 0.51228 0.0
H462 H 0.24016 0.02116 0.83977 0.0
H463 H 0.98504 0.76866 0.83874 0.0
H464 H 0.15263 0.95665 0.89179 0.0
H465 H 0.05554 0.85151 0.78635 0.0
H466 H 0.04774 0.83553 0.8586 0.0
H467 H 0.17425 0.9575 0.81993 0.0
C468 C 0.20694 0.99364 0.84699 0.0
C469 C 0.2017 0.9939 0.86741 0.0
C470 C 0.04932 0.83916 0.84276 0.0
C471 C 0.12651 0.92108 0.8449 0.0
C472 C 0.0137 0.80101 0.83144 0.0
C473 C 0.01539 0.80469 0.81092 0.0
C474 C 0.087 0.88093 0.83343 0.0
C475 C 0.05306 0.84732 0.80215 0.0
C476 C 0.16934 0.95743 0.83567 0.0
C477 C 0.158 0.95762 0.87606 0.0
N478 N 0.08763 0.88377 0.81348 0.0
N479 N 0.12208 0.92237 0.86475 0.0
H480 H 0.26089 0.2916 0.39955 0.0
H481 H 0.24361 0.2226 0.28578 0.0
H482 H 0.31634 0.20106 0.37575 0.0
H483 H 0.22899 0.34458 0.30679 0.0
H484 H 0.26083 0.20755 0.3192 0.0
H485 H 0.24041 0.30508 0.36632 0.0
C486 C 0.26867 0.27441 0.38732 0.0
C487 C 0.2904 0.2451 0.39044 0.0
C488 C 0.25374 0.23753 0.31655 0.0
C489 C 0.26667 0.26026 0.35232 0.0
C490 C 0.24361 0.24606 0.29746 0.0
C491 C 0.23481 0.285 0.29344 0.0
C492 C 0.25473 0.26783 0.3319 0.0
C493 C 0.23551 0.31416 0.30921 0.0
C494 C 0.25707 0.28229 0.36835 0.0
C495 C 0.29972 0.22395 0.37403 0.0
N496 N 0.24526 0.30496 0.32777 0.0
N497 N 0.28763 0.23178 0.35569 0.0
H498 H 0.95572 0.16663 0.62806 0.0
H499 H 0.08634 0.36913 0.71221 0.0
H500 H 0.94138 0.29622 0.63243 0.0
H501 H 0.05794 0.22017 0.71814 0.0
H502 H 0.04254 0.34678 0.68071 0.0
H503 H 0.99958 0.18798 0.6595 0.0
C504 C 0.96111 0.19917 0.63579 0.0
C505 C 0.94455 0.2295 0.62767 0.0
C506 C 0.04622 0.3191 0.68885 0.0
C507 C 0.99609 0.25498 0.66338 0.0
C508 C 0.07175 0.33199 0.70671 0.0
C509 C 0.07595 0.2965 0.7178 0.0
C510 C 0.02518 0.2705 0.68191 0.0
C511 C 0.05568 0.24873 0.71006 0.0
C512 C 0.98641 0.21148 0.65368 0.0
C513 C 0.95304 0.2715 0.63825 0.0
N514 N 0.03119 0.23713 0.69262 0.0
N515 N 0.97866 0.28328 0.65544 0.0
H516 H 0.79715 0.12663 0.03915 0.0
H517 H 0.68564 0.88836 0.96967 0.0
H518 H 0.7539 0.98084 0.06033 0.0
H519 H 0.76859 0.03666 0.94739 0.0
H520 H 0.70409 0.9213 1.00326 0.0
H521 H 0.78107 0.09434 1.00541 0.0
C522 C 0.78453 0.08799 0.03671 0.0
C523 C 0.777 0.05648 0.05259 0.0
C524 C 0.71835 0.94658 0.99099 0.0
C525 C 0.7579 0.01915 0.01415 0.0
C526 C 0.70776 0.92776 0.97184 0.0
C527 C 0.72572 0.95974 0.95571 0.0
C528 C 0.74652 0.99778 0.99402 0.0
C529 C 0.75416 0.01057 0.95938 0.0
C530 C 0.77534 0.06954 0.01747 0.0
C531 C 0.76038 0.00659 0.04856 0.0
N532 N 0.76344 0.028 0.9781 0.0
N533 N 0.75115 0.98948 0.02981 0.0
H534 H 0.78512 0.79215 0.28824 0.0
H535 H 0.75225 0.71091 0.40086 0.0
H536 H 0.78286 0.6598 0.30742 0.0
H537 H 0.70859 0.81147 0.37759 0.0
H538 H 0.77326 0.69789 0.36763 0.0
H539 H 0.76796 0.80641 0.32176 0.0
C540 C 0.78148 0.76624 0.29955 0.0
C541 C 0.7854 0.7246 0.29497 0.0
C542 C 0.75906 0.72276 0.36979 0.0
C543 C 0.7655 0.74084 0.33354 0.0
C544 C 0.74716 0.73036 0.38875 0.0
C545 C 0.7286 0.76237 0.39201 0.0
C546 C 0.75303 0.74785 0.35393 0.0
C547 C 0.72266 0.78642 0.37576 0.0
C548 C 0.77136 0.77432 0.31869 0.0
C549 C 0.78018 0.69236 0.31029 0.0
N550 N 0.73506 0.77885 0.35744 0.0
N551 N 0.77051 0.70117 0.32891 0.0
H552 H 0.06942 0.84603 0.62764 0.0
H553 H 0.93188 0.64361 0.71114 0.0
H554 H 0.0789 0.7137 0.63195 0.0
H555 H 0.96737 0.79466 0.71781 0.0
H556 H 0.97625 0.66519 0.67976 0.0
H557 H 0.02535 0.82564 0.65902 0.0
C558 C 0.06291 0.81308 0.63534 0.0
C559 C 0.07819 0.78171 0.62722 0.0
C560 C 0.974 0.69351 0.68804 0.0
C561 C 0.02639 0.75735 0.66285 0.0
C562 C 0.94817 0.68109 0.70583 0.0
C563 C 0.94577 0.71736 0.71708 0.0
C564 C 0.99711 0.74243 0.68133 0.0
C565 C 0.96821 0.76552 0.70959 0.0
C566 C 0.03751 0.80132 0.6532 0.0
C567 C 0.06828 0.73921 0.63776 0.0
N568 N 0.99289 0.77664 0.69221 0.0
N569 N 0.04256 0.728 0.65491 0.0
H570 H 0.29215 0.929 0.04654 0.0
H571 H 0.21286 0.04942 0.96087 0.0
H572 H 0.16873 0.95322 0.05218 0.0
H573 H 0.36042 0.07369 0.96673 0.0
H574 H 0.19162 0.0066 0.99255 0.0
H575 H 0.31202 0.97167 0.01482 0.0
C576 C 0.26864 0.9424 0.04093 0.0
C577 C 0.22861 0.93739 0.05199 0.0
C578 C 0.22877 0.02172 0.98699 0.0
C579 C 0.25152 0.98679 0.01584 0.0
C580 C 0.241 0.04639 0.96897 0.0
C581 C 0.28859 0.06547 0.96121 0.0
C582 C 0.26408 0.01514 0.99716 0.0
C583 C 0.32345 0.06003 0.97225 0.0
C584 C 0.28038 0.9673 0.02294 0.0
C585 C 0.19985 0.95616 0.04411 0.0
N586 N 0.31037 0.0349 0.98956 0.0
N587 N 0.21183 0.97999 0.02653 0.0
loop_
_geom_bond_atom_site_label_1
_geom_bond_atom_site_label_2
_geom_bond_distance
_geom_bond_site_symmetry_2
_ccdc_geom_bond_type
In0 O1 2.294 . S
In0 O2 2.326 . S
In0 O6 2.266 . S
In0 O7 2.326 . S
In0 O8 2.266 . S
In0 O9 2.326 . S
In0 O11 2.294 . S
In0 O12 2.326 . S
O1 In0 2.294 . S
O1 C10 1.240 . S
O2 In0 2.326 . S
O2 C10 1.252 . S
C3 O6 1.252 . S
C3 O7 1.260 . S
C4 O11 1.240 . S
C4 O12 1.252 . S
C5 O8 1.252 . S
C5 O9 1.260 . S
O6 In0 2.266 . S
O6 C3 1.252 . S
O7 In0 2.326 . S
O7 C3 1.260 . S
O8 In0 2.266 . S
O8 C5 1.252 . S
O9 In0 2.326 . S
O9 C5 1.260 . S
C10 O1 1.240 . S
C10 O2 1.252 . S
O11 In0 2.294 . S
O11 C4 1.240 . S
O12 In0 2.326 . S
O12 C4 1.252 . S
In13 O14 2.294 . S
In13 O15 2.326 . S
In13 O19 2.266 . S
In13 O20 2.326 . S
In13 O21 2.266 1_655 S
In13 O22 2.326 . S
In13 O24 2.294 . S
In13 O25 2.326 . S
O14 In13 2.294 . S
O14 C23 1.240 . S
O15 In13 2.326 . S
O15 C23 1.252 . S
C16 O19 1.252 . S
C16 O20 1.260 . S
C17 O24 1.240 . S
C17 O25 1.252 . S
C18 O21 1.252 . S
C18 O22 1.260 1_455 S
O19 In13 2.266 . S
O19 C16 1.252 . S
O20 In13 2.326 . S
O20 C16 1.260 . S
O21 In13 2.266 1_455 S
O21 C18 1.252 . S
O22 In13 2.326 . S
O22 C18 1.260 1_655 S
C23 O14 1.240 . S
C23 O15 1.252 . S
O24 In13 2.294 . S
O24 C17 1.240 . S
O25 In13 2.326 . S
O25 C17 1.252 . S
In26 O27 2.294 . S
In26 O28 2.326 . S
In26 O32 2.266 1_565 S
In26 O33 2.326 . S
In26 O34 2.266 . S
In26 O35 2.326 . S
In26 O37 2.294 . S
In26 O38 2.326 . S
O27 In26 2.294 . S
O27 C36 1.240 . S
O28 In26 2.326 . S
O28 C36 1.252 . S
C29 O32 1.252 . S
C29 O33 1.260 1_545 S
C30 O37 1.240 . S
C30 O38 1.252 . S
C31 O34 1.252 . S
C31 O35 1.260 . S
O32 In26 2.266 1_545 S
O32 C29 1.252 . S
O33 In26 2.326 . S
O33 C29 1.260 1_565 S
O34 In26 2.266 . S
O34 C31 1.252 . S
O35 In26 2.326 . S
O35 C31 1.260 . S
C36 O27 1.240 . S
C36 O28 1.252 . S
O37 In26 2.294 . S
O37 C30 1.240 . S
O38 In26 2.326 . S
O38 C30 1.252 . S
In39 O40 2.294 . S
In39 O41 2.326 . S
In39 O45 2.266 . S
In39 O46 2.326 . S
In39 O47 2.266 . S
In39 O48 2.326 . S
In39 O50 2.294 . S
In39 O51 2.326 . S
O40 In39 2.294 . S
O40 C49 1.240 . S
O41 In39 2.326 . S
O41 C49 1.252 . S
C42 O45 1.252 . S
C42 O46 1.260 . S
C43 O50 1.240 . S
C43 O51 1.252 . S
C44 O47 1.252 . S
C44 O48 1.260 . S
O45 In39 2.266 . S
O45 C42 1.252 . S
O46 In39 2.326 . S
O46 C42 1.260 . S
O47 In39 2.266 . S
O47 C44 1.252 . S
O48 In39 2.326 . S
O48 C44 1.260 . S
C49 O40 1.240 . S
C49 O41 1.252 . S
O50 In39 2.294 . S
O50 C43 1.240 . S
O51 In39 2.326 . S
O51 C43 1.252 . S
In52 O53 2.294 . S
In52 O54 2.326 . S
In52 O58 2.266 . S
In52 O59 2.326 . S
In52 O60 2.266 1_455 S
In52 O61 2.326 . S
In52 O63 2.294 . S
In52 O64 2.326 . S
O53 In52 2.294 . S
O53 C62 1.240 . S
O54 In52 2.326 . S
O54 C62 1.252 . S
C55 O58 1.252 . S
C55 O59 1.260 . S
C56 O63 1.240 . S
C56 O64 1.252 . S
C57 O60 1.252 . S
C57 O61 1.260 1_655 S
O58 In52 2.266 . S
O58 C55 1.252 . S
O59 In52 2.326 . S
O59 C55 1.260 . S
O60 In52 2.266 1_655 S
O60 C57 1.252 . S
O61 In52 2.326 . S
O61 C57 1.260 1_455 S
C62 O53 1.240 . S
C62 O54 1.252 . S
O63 In52 2.294 . S
O63 C56 1.240 . S
O64 In52 2.326 . S
O64 C56 1.252 . S
In65 O66 2.294 . S
In65 O67 2.326 . S
In65 O71 2.266 . S
In65 O72 2.326 . S
In65 O73 2.266 1_545 S
In65 O74 2.326 . S
In65 O76 2.294 . S
In65 O77 2.326 . S
O66 In65 2.294 . S
O66 C75 1.240 . S
O67 In65 2.326 . S
O67 C75 1.252 . S
C68 O71 1.252 . S
C68 O72 1.260 . S
C69 O76 1.240 . S
C69 O77 1.252 . S
C70 O73 1.252 . S
C70 O74 1.260 1_565 S
O71 In65 2.266 . S
O71 C68 1.252 . S
O72 In65 2.326 . S
O72 C68 1.260 . S
O73 In65 2.266 1_565 S
O73 C70 1.252 . S
O74 In65 2.326 . S
O74 C70 1.260 1_545 S
C75 O66 1.240 . S
C75 O67 1.252 . S
O76 In65 2.294 . S
O76 C69 1.240 . S
O77 In65 2.326 . S
O77 C69 1.252 . S
In78 O79 2.294 . S
In78 O80 2.326 . S
In78 O84 2.266 . S
In78 O85 2.326 . S
In78 O86 2.266 . S
In78 O87 2.326 . S
In78 O89 2.294 . S
In78 O90 2.326 . S
O79 In78 2.294 . S
O79 C88 1.240 . S
O80 In78 2.326 . S
O80 C88 1.252 . S
C81 O84 1.252 . S
C81 O85 1.260 . S
C82 O89 1.240 . S
C82 O90 1.252 . S
C83 O86 1.252 . S
C83 O87 1.260 . S
O84 In78 2.266 . S
O84 C81 1.252 . S
O85 In78 2.326 . S
O85 C81 1.260 . S
O86 In78 2.266 . S
O86 C83 1.252 . S
O87 In78 2.326 . S
O87 C83 1.260 . S
C88 O79 1.240 . S
C88 O80 1.252 . S
O89 In78 2.294 . S
O89 C82 1.240 . S
O90 In78 2.326 . S
O90 C82 1.252 . S
In91 O92 2.294 . S
In91 O93 2.326 . S
In91 O97 2.266 . S
In91 O98 2.326 . S
In91 O99 2.266 1_655 S
In91 O100 2.326 . S
In91 O102 2.294 . S
In91 O103 2.326 . S
O92 In91 2.294 . S
O92 C101 1.240 . S
O93 In91 2.326 . S
O93 C101 1.252 . S
C94 O97 1.252 . S
C94 O98 1.260 . S
C95 O102 1.240 . S
C95 O103 1.252 . S
C96 O99 1.252 . S
C96 O100 1.260 1_455 S
O97 In91 2.266 . S
O97 C94 1.252 . S
O98 In91 2.326 . S
O98 C94 1.260 . S
O99 In91 2.266 1_455 S
O99 C96 1.252 . S
O100 In91 2.326 . S
O100 C96 1.260 1_655 S
C101 O92 1.240 . S
C101 O93 1.252 . S
O102 In91 2.294 . S
O102 C95 1.240 . S
O103 In91 2.326 . S
O103 C95 1.252 . S
In104 O105 2.294 . S
In104 O106 2.326 . S
In104 O110 2.266 . S
In104 O111 2.326 . S
In104 O112 2.266 1_565 S
In104 O113 2.326 . S
In104 O115 2.294 . S
In104 O116 2.326 . S
O105 In104 2.294 . S
O105 C114 1.240 . S
O106 In104 2.326 . S
O106 C114 1.252 . S
C107 O110 1.252 . S
C107 O111 1.260 . S
C108 O115 1.240 . S
C108 O116 1.252 . S
C109 O112 1.252 . S
C109 O113 1.260 1_545 S
O110 In104 2.266 . S
O110 C107 1.252 . S
O111 In104 2.326 . S
O111 C107 1.260 . S
O112 In104 2.266 1_545 S
O112 C109 1.252 . S
O113 In104 2.326 . S
O113 C109 1.260 1_565 S
C114 O105 1.240 . S
C114 O106 1.252 . S
O115 In104 2.294 . S
O115 C108 1.240 . S
O116 In104 2.326 . S
O116 C108 1.252 . S
In117 O118 2.294 . S
In117 O119 2.326 . S
In117 O123 2.266 . S
In117 O124 2.326 . S
In117 O125 2.266 . S
In117 O126 2.326 . S
In117 O128 2.294 . S
In117 O129 2.326 . S
O118 In117 2.294 . S
O118 C127 1.240 . S
O119 In117 2.326 . S
O119 C127 1.252 . S
C120 O123 1.252 . S
C120 O124 1.260 . S
C121 O128 1.240 . S
C121 O129 1.252 . S
C122 O125 1.252 . S
C122 O126 1.260 . S
O123 In117 2.266 . S
O123 C120 1.252 . S
O124 In117 2.326 . S
O124 C120 1.260 . S
O125 In117 2.266 . S
O125 C122 1.252 . S
O126 In117 2.326 . S
O126 C122 1.260 . S
C127 O118 1.240 . S
C127 O119 1.252 . S
O128 In117 2.294 . S
O128 C121 1.240 . S
O129 In117 2.326 . S
O129 C121 1.252 . S
In130 O131 2.294 . S
In130 O132 2.326 . S
In130 O136 2.266 1_455 S
In130 O137 2.326 . S
In130 O138 2.266 . S
In130 O139 2.326 . S
In130 O141 2.294 . S
In130 O142 2.326 . S
O131 In130 2.294 . S
O131 C140 1.240 . S
O132 In130 2.326 . S
O132 C140 1.252 . S
C133 O136 1.252 . S
C133 O137 1.260 1_655 S
C134 O141 1.240 . S
C134 O142 1.252 . S
C135 O138 1.252 . S
C135 O139 1.260 . S
O136 In130 2.266 1_655 S
O136 C133 1.252 . S
O137 In130 2.326 . S
O137 C133 1.260 1_455 S
O138 In130 2.266 . S
O138 C135 1.252 . S
O139 In130 2.326 . S
O139 C135 1.260 . S
C140 O131 1.240 . S
C140 O132 1.252 . S
O141 In130 2.294 . S
O141 C134 1.240 . S
O142 In130 2.326 . S
O142 C134 1.252 . S
In143 O144 2.294 . S
In143 O145 2.326 . S
In143 O149 2.266 1_545 S
In143 O150 2.326 . S
In143 O151 2.266 . S
In143 O152 2.326 . S
In143 O154 2.294 . S
In143 O155 2.326 . S
O144 In143 2.294 . S
O144 C153 1.240 . S
O145 In143 2.326 . S
O145 C153 1.252 . S
C146 O149 1.252 . S
C146 O150 1.260 1_565 S
C147 O154 1.240 . S
C147 O155 1.252 . S
C148 O151 1.252 . S
C148 O152 1.260 . S
O149 In143 2.266 1_565 S
O149 C146 1.252 . S
O150 In143 2.326 . S
O150 C146 1.260 1_545 S
O151 In143 2.266 . S
O151 C148 1.252 . S
O152 In143 2.326 . S
O152 C148 1.260 . S
C153 O144 1.240 . S
C153 O145 1.252 . S
O154 In143 2.294 . S
O154 C147 1.240 . S
O155 In143 2.326 . S
O155 C147 1.252 . S
H156 C162 0.930 . S
H157 C166 0.930 . S
H158 C171 0.929 . S
H159 C169 0.929 . S
H160 C164 0.929 . S
H161 C170 0.929 . S
C162 H156 0.930 . S
C162 C163 1.367 . S
C162 C170 1.378 . S
C163 C162 1.367 . S
C163 C171 1.433 . S
C164 H160 0.929 . S
C164 C166 1.378 . S
C164 C168 1.350 . S
C165 C168 1.463 1_655 S
C165 C170 1.350 . S
C165 N173 1.427 . S
C166 H157 0.930 . S
C166 C164 1.378 . S
C166 C167 1.367 . S
C167 C166 1.367 . S
C167 C169 1.433 . S
C168 C164 1.350 . S
C168 C165 1.463 1_455 S
C168 N172 1.427 . S
C169 H159 0.929 . S
C169 C167 1.433 . S
C169 N172 1.384 . S
C170 H161 0.929 . S
C170 C162 1.378 . S
C170 C165 1.350 . S
C171 H158 0.929 . S
C171 C163 1.433 . S
C171 N173 1.384 . S
N172 C168 1.427 . S
N172 C169 1.384 . S
N173 C165 1.427 . S
N173 C171 1.384 . S
H174 C180 0.930 . S
H175 C184 0.930 . S
H176 C189 0.929 . S
H177 C187 0.929 . S
H178 C182 0.925 1_545 S
H179 C188 0.925 1_565 S
C180 H174 0.930 . S
C180 C181 1.367 . S
C180 C188 1.378 . S
C181 C180 1.367 . S
C181 C189 1.433 . S
C182 H178 0.925 1_565 S
C182 C184 1.378 . S
C182 C186 1.350 . S
C183 C186 1.463 1_545 S
C183 C188 1.350 . S
C183 N191 1.427 . S
C184 H175 0.930 . S
C184 C182 1.378 . S
C184 C185 1.367 . S
C185 C184 1.367 . S
C185 C187 1.433 . S
C186 C182 1.350 . S
C186 C183 1.463 1_565 S
C186 N190 1.427 . S
C187 H177 0.929 . S
C187 C185 1.433 . S
C187 N190 1.384 . S
C188 H179 0.925 1_545 S
C188 C180 1.378 . S
C188 C183 1.350 . S
C189 H176 0.929 . S
C189 C181 1.433 . S
C189 N191 1.384 . S
N190 C186 1.427 . S
N190 C187 1.384 . S
N191 C183 1.427 . S
N191 C189 1.384 . S
H192 C198 0.930 . S
H193 C202 0.930 . S
H194 C207 0.929 . S
H195 C205 0.929 . S
H196 C200 0.929 . S
H197 C206 0.929 . S
C198 H192 0.930 . S
C198 C199 1.367 . S
C198 C206 1.378 . S
C199 C198 1.367 . S
C199 C207 1.433 . S
C200 H196 0.929 . S
C200 C202 1.378 . S
C200 C204 1.350 . S
C201 C204 1.463 . S
C201 C206 1.350 . S
C201 N209 1.427 . S
C202 H193 0.930 . S
C202 C200 1.378 . S
C202 C203 1.367 . S
C203 C202 1.367 . S
C203 C205 1.433 . S
C204 C200 1.350 . S
C204 C201 1.463 . S
C204 N208 1.427 . S
C205 H195 0.929 . S
C205 C203 1.433 . S
C205 N208 1.384 . S
C206 H197 0.929 . S
C206 C198 1.378 . S
C206 C201 1.350 . S
C207 H194 0.929 . S
C207 C199 1.433 . S
C207 N209 1.384 . S
N208 C204 1.427 . S
N208 C205 1.384 . S
N209 C201 1.427 . S
N209 C207 1.384 . S
H210 C216 0.930 . S
H211 C220 0.930 . S
H212 C225 0.929 . S
H213 C223 0.929 . S
H214 C218 0.929 . S
H215 C224 0.929 . S
C216 H210 0.930 . S
C216 C217 1.367 . S
C216 C224 1.378 . S
C217 C216 1.367 . S
C217 C225 1.433 . S
C218 H214 0.929 . S
C218 C220 1.378 . S
C218 C222 1.350 . S
C219 C222 1.463 1_655 S
C219 C224 1.350 . S
C219 N227 1.427 . S
C220 H211 0.930 . S
C220 C218 1.378 . S
C220 C221 1.367 . S
C221 C220 1.367 . S
C221 C223 1.433 . S
C222 C218 1.350 . S
C222 C219 1.463 1_455 S
C222 N226 1.427 . S
C223 H213 0.929 . S
C223 C221 1.433 . S
C223 N226 1.384 . S
C224 H215 0.929 . S
C224 C216 1.378 . S
C224 C219 1.350 . S
C225 H212 0.929 . S
C225 C217 1.433 . S
C225 N227 1.384 . S
N226 C222 1.427 . S
N226 C223 1.384 . S
N227 C219 1.427 . S
N227 C225 1.384 . S
H228 C234 0.930 . S
H229 C238 0.930 . S
H230 C243 0.929 . S
H231 C241 0.929 . S
H232 C236 0.929 1_545 S
H233 C242 0.929 1_565 S
C234 H228 0.930 . S
C234 C235 1.367 . S
C234 C242 1.378 . S
C235 C234 1.367 . S
C235 C243 1.433 . S
C236 H232 0.929 1_565 S
C236 C238 1.378 . S
C236 C240 1.350 . S
C237 C240 1.463 1_545 S
C237 C242 1.350 . S
C237 N245 1.427 . S
C238 H229 0.930 . S
C238 C236 1.378 . S
C238 C239 1.367 . S
C239 C238 1.367 . S
C239 C241 1.433 . S
C240 C236 1.350 . S
C240 C237 1.463 1_565 S
C240 N244 1.427 . S
C241 H231 0.929 . S
C241 C239 1.433 . S
C241 N244 1.384 . S
C242 H233 0.929 1_545 S
C242 C234 1.378 . S
C242 C237 1.350 . S
C243 H230 0.929 . S
C243 C235 1.433 . S
C243 N245 1.384 . S
N244 C240 1.427 . S
N244 C241 1.384 . S
N245 C237 1.427 . S
N245 C243 1.384 . S
H246 C252 0.930 . S
H247 C256 0.930 . S
H248 C261 0.929 . S
H249 C259 0.929 . S
H250 C254 0.929 . S
H251 C260 0.929 . S
C252 H246 0.930 . S
C252 C253 1.367 . S
C252 C260 1.378 . S
C253 C252 1.367 . S
C253 C261 1.433 . S
C254 H250 0.929 . S
C254 C256 1.378 . S
C254 C258 1.350 . S
C255 C258 1.463 . S
C255 C260 1.350 . S
C255 N263 1.427 . S
C256 H247 0.930 . S
C256 C254 1.378 . S
C256 C257 1.367 . S
C257 C256 1.367 . S
C257 C259 1.433 . S
C258 C254 1.350 . S
C258 C255 1.463 . S
C258 N262 1.427 . S
C259 H249 0.929 . S
C259 C257 1.433 . S
C259 N262 1.384 . S
C260 H251 0.929 . S
C260 C252 1.378 . S
C260 C255 1.350 . S
C261 H248 0.929 . S
C261 C253 1.433 . S
C261 N263 1.384 . S
N262 C258 1.427 . S
N262 C259 1.384 . S
N263 C255 1.427 . S
N263 C261 1.384 . S
H264 C270 0.930 . S
H265 C274 0.930 . S
H266 C279 0.929 . S
H267 C277 0.929 . S
H268 C272 0.929 . S
H269 C278 0.929 . S
C270 H264 0.930 . S
C270 C271 1.367 . S
C270 C278 1.378 . S
C271 C270 1.367 . S
C271 C279 1.433 . S
C272 H268 0.929 . S
C272 C274 1.378 . S
C272 C276 1.350 . S
C273 C276 1.463 . S
C273 C278 1.350 . S
C273 N281 1.427 . S
C274 H265 0.930 . S
C274 C272 1.378 . S
C274 C275 1.367 . S
C275 C274 1.367 . S
C275 C277 1.433 . S
C276 C272 1.350 . S
C276 C273 1.463 . S
C276 N280 1.427 . S
C277 H267 0.929 . S
C277 C275 1.433 . S
C277 N280 1.384 . S
C278 H269 0.929 . S
C278 C270 1.378 . S
C278 C273 1.350 . S
C279 H266 0.929 . S
C279 C271 1.433 . S
C279 N281 1.384 . S
N280 C276 1.427 . S
N280 C277 1.384 . S
N281 C273 1.427 . S
N281 C279 1.384 . S
H282 C288 0.930 . S
H283 C292 0.930 . S
H284 C297 0.929 . S
H285 C295 0.929 . S
H286 C290 0.929 . S
H287 C296 0.929 . S
C288 H282 0.930 . S
C288 C289 1.367 1_655 S
C288 C296 1.378 . S
C289 C288 1.367 1_455 S
C289 C297 1.433 . S
C290 H286 0.929 . S
C290 C292 1.378 . S
C290 C294 1.350 1_455 S
C291 C294 1.463 1_455 S
C291 C296 1.350 1_455 S
C291 N299 1.427 . S
C292 H283 0.930 . S
C292 C290 1.378 . S
C292 C293 1.367 1_455 S
C293 C292 1.367 1_655 S
C293 C295 1.433 . S
C294 C290 1.350 1_655 S
C294 C291 1.463 1_655 S
C294 N298 1.427 . S
C295 H285 0.929 . S
C295 C293 1.433 . S
C295 N298 1.384 . S
C296 H287 0.929 . S
C296 C288 1.378 . S
C296 C291 1.350 1_655 S
C297 H284 0.929 . S
C297 C289 1.433 . S
C297 N299 1.384 . S
N298 C294 1.427 . S
N298 C295 1.384 . S
N299 C291 1.427 . S
N299 C297 1.384 . S
H300 C306 0.930 1_565 S
H301 C310 0.930 1_545 S
H302 C315 0.929 . S
H303 C313 0.929 . S
H304 C308 0.929 . S
H305 C314 0.929 . S
C306 H300 0.930 1_545 S
C306 C307 1.367 . S
C306 C314 1.378 1_545 S
C307 C306 1.367 . S
C307 C315 1.433 . S
C308 H304 0.929 . S
C308 C310 1.378 1_545 S
C308 C312 1.350 1_545 S
C309 C312 1.463 1_545 S
C309 C314 1.350 1_545 S
C309 N317 1.427 . S
C310 H301 0.930 1_565 S
C310 C308 1.378 1_565 S
C310 C311 1.367 . S
C311 C310 1.367 . S
C311 C313 1.433 . S
C312 C308 1.350 1_565 S
C312 C309 1.463 1_565 S
C312 N316 1.427 . S
C313 H303 0.929 . S
C313 C311 1.433 . S
C313 N316 1.384 . S
C314 H305 0.929 . S
C314 C306 1.378 1_565 S
C314 C309 1.350 1_565 S
C315 H302 0.929 . S
C315 C307 1.433 . S
C315 N317 1.384 . S
N316 C312 1.427 . S
N316 C313 1.384 . S
N317 C309 1.427 . S
N317 C315 1.384 . S
H318 C324 0.930 . S
H319 C328 0.930 . S
H320 C333 0.929 . S
H321 C331 0.929 . S
H322 C326 0.929 . S
H323 C332 0.929 . S
C324 H318 0.930 . S
C324 C325 1.367 . S
C324 C332 1.378 . S
C325 C324 1.367 . S
C325 C333 1.433 . S
C326 H322 0.929 . S
C326 C328 1.378 . S
C326 C330 1.350 . S
C327 C330 1.463 . S
C327 C332 1.350 . S
C327 N335 1.427 . S
C328 H319 0.930 . S
C328 C326 1.378 . S
C328 C329 1.367 . S
C329 C328 1.367 . S
C329 C331 1.433 . S
C330 C326 1.350 . S
C330 C327 1.463 . S
C330 N334 1.427 . S
C331 H321 0.929 . S
C331 C329 1.433 . S
C331 N334 1.384 . S
C332 H323 0.929 . S
C332 C324 1.378 . S
C332 C327 1.350 . S
C333 H320 0.929 . S
C333 C325 1.433 . S
C333 N335 1.384 . S
N334 C330 1.427 . S
N334 C331 1.384 . S
N335 C327 1.427 . S
N335 C333 1.384 . S
H336 C342 0.930 . S
H337 C346 0.930 . S
H338 C351 0.929 . S
H339 C349 0.929 . S
H340 C344 0.929 . S
H341 C350 0.929 . S
C342 H336 0.930 . S
C342 C343 1.367 . S
C342 C350 1.378 1_655 S
C343 C342 1.367 . S
C343 C351 1.433 . S
C344 H340 0.929 . S
C344 C346 1.378 1_655 S
C344 C348 1.350 1_655 S
C345 C348 1.463 1_655 S
C345 C350 1.350 1_655 S
C345 N353 1.427 . S
C346 H337 0.930 . S
C346 C344 1.378 1_455 S
C346 C347 1.367 . S
C347 C346 1.367 . S
C347 C349 1.433 . S
C348 C344 1.350 1_455 S
C348 C345 1.463 1_455 S
C348 N352 1.427 . S
C349 H339 0.929 . S
C349 C347 1.433 . S
C349 N352 1.384 . S
C350 H341 0.929 . S
C350 C342 1.378 1_455 S
C350 C345 1.350 1_455 S
C351 H338 0.929 . S
C351 C343 1.433 . S
C351 N353 1.384 . S
N352 C348 1.427 . S
N352 C349 1.384 . S
N353 C345 1.427 . S
N353 C351 1.384 . S
H354 C360 0.930 . S
H355 C364 0.930 . S
H356 C369 0.929 . S
H357 C367 0.929 . S
H358 C362 0.929 . S
H359 C368 0.929 . S
C360 H354 0.930 . S
C360 C361 1.367 . S
C360 C368 1.378 . S
C361 C360 1.367 . S
C361 C369 1.433 1_565 S
C362 H358 0.929 . S
C362 C364 1.378 . S
C362 C366 1.350 . S
C363 C366 1.463 1_565 S
C363 C368 1.350 . S
C363 N371 1.427 1_565 S
C364 H355 0.930 . S
C364 C362 1.378 . S
C364 C365 1.367 . S
C365 C364 1.367 . S
C365 C367 1.433 1_545 S
C366 C362 1.350 . S
C366 C363 1.463 1_545 S
C366 N370 1.427 1_545 S
C367 H357 0.929 . S
C367 C365 1.433 1_565 S
C367 N370 1.384 . S
C368 H359 0.929 . S
C368 C360 1.378 . S
C368 C363 1.350 . S
C369 H356 0.929 . S
C369 C361 1.433 1_545 S
C369 N371 1.384 . S
N370 C366 1.427 1_565 S
N370 C367 1.384 . S
N371 C363 1.427 1_545 S
N371 C369 1.384 . S
H372 C378 0.930 . S
H373 C382 0.930 . S
H374 C387 0.929 1_565 S
H375 C385 0.929 . S
H376 C380 0.929 . S
H377 C386 0.929 . S
C378 H372 0.930 . S
C378 C379 1.367 . S
C378 C386 1.378 . S
C379 C378 1.367 . S
C379 C387 1.433 . S
C380 H376 0.929 . S
C380 C382 1.378 . S
C380 C384 1.350 . S
C381 C384 1.463 . S
C381 C386 1.350 . S
C381 N389 1.427 . S
C382 H373 0.930 . S
C382 C380 1.378 . S
C382 C383 1.367 . S
C383 C382 1.367 . S
C383 C385 1.433 . S
C384 C380 1.350 . S
C384 C381 1.463 . S
C384 N388 1.427 . S
C385 H375 0.929 . S
C385 C383 1.433 . S
C385 N388 1.384 . S
C386 H377 0.929 . S
C386 C378 1.378 . S
C386 C381 1.350 . S
C387 H374 0.929 1_545 S
C387 C379 1.433 . S
C387 N389 1.384 . S
N388 C384 1.427 . S
N388 C385 1.384 . S
N389 C381 1.427 . S
N389 C387 1.384 . S
H390 C396 0.930 . S
H391 C400 0.930 . S
H392 C405 0.929 1_655 S
H393 C403 0.929 . S
H394 C398 0.929 . S
H395 C404 0.929 . S
C396 H390 0.930 . S
C396 C397 1.367 . S
C396 C404 1.378 . S
C397 C396 1.367 . S
C397 C405 1.433 . S
C398 H394 0.929 . S
C398 C400 1.378 . S
C398 C402 1.350 . S
C399 C402 1.463 . S
C399 C404 1.350 . S
C399 N407 1.427 . S
C400 H391 0.930 . S
C400 C398 1.378 . S
C400 C401 1.367 . S
C401 C400 1.367 . S
C401 C403 1.433 . S
C402 C398 1.350 . S
C402 C399 1.463 . S
C402 N406 1.427 . S
C403 H393 0.929 . S
C403 C401 1.433 . S
C403 N406 1.384 . S
C404 H395 0.929 . S
C404 C396 1.378 . S
C404 C399 1.350 . S
C405 H392 0.929 1_455 S
C405 C397 1.433 . S
C405 N407 1.384 . S
N406 C402 1.427 . S
N406 C403 1.384 . S
N407 C399 1.427 . S
N407 C405 1.384 . S
H408 C414 0.930 . S
H409 C418 0.930 1_565 S
H410 C423 0.929 . S
H411 C421 0.929 . S
H412 C416 0.929 . S
H413 C422 0.929 . S
C414 H408 0.930 . S
C414 C415 1.367 . S
C414 C422 1.378 . S
C415 C414 1.367 . S
C415 C423 1.433 . S
C416 H412 0.929 . S
C416 C418 1.378 . S
C416 C420 1.350 . S
C417 C420 1.463 . S
C417 C422 1.350 . S
C417 N425 1.427 . S
C418 H409 0.930 1_545 S
C418 C416 1.378 . S
C418 C419 1.367 . S
C419 C418 1.367 . S
C419 C421 1.433 . S
C420 C416 1.350 . S
C420 C417 1.463 . S
C420 N424 1.427 . S
C421 H411 0.929 . S
C421 C419 1.433 . S
C421 N424 1.384 . S
C422 H413 0.929 . S
C422 C414 1.378 . S
C422 C417 1.350 . S
C423 H410 0.929 . S
C423 C415 1.433 . S
C423 N425 1.384 . S
N424 C420 1.427 . S
N424 C421 1.384 . S
N425 C417 1.427 . S
N425 C423 1.384 . S
H426 C432 0.930 1_545 S
H427 C436 0.930 . S
H428 C441 0.929 . S
H429 C439 0.929 . S
H430 C434 0.929 . S
H431 C440 0.929 . S
C432 H426 0.930 1_565 S
C432 C433 1.367 . S
C432 C440 1.378 . S
C433 C432 1.367 . S
C433 C441 1.433 . S
C434 H430 0.929 . S
C434 C436 1.378 . S
C434 C438 1.350 . S
C435 C438 1.463 . S
C435 C440 1.350 . S
C435 N443 1.427 . S
C436 H427 0.930 . S
C436 C434 1.378 . S
C436 C437 1.367 . S
C437 C436 1.367 . S
C437 C439 1.433 . S
C438 C434 1.350 . S
C438 C435 1.463 . S
C438 N442 1.427 . S
C439 H429 0.929 . S
C439 C437 1.433 . S
C439 N442 1.384 . S
C440 H431 0.929 . S
C440 C432 1.378 . S
C440 C435 1.350 . S
C441 H428 0.929 . S
C441 C433 1.433 . S
C441 N443 1.384 . S
N442 C438 1.427 . S
N442 C439 1.384 . S
N443 C435 1.427 . S
N443 C441 1.384 . S
H444 C450 0.930 . S
H445 C454 0.930 . S
H446 C459 0.929 . S
H447 C457 0.929 . S
H448 C452 0.929 . S
H449 C458 0.929 . S
C450 H444 0.930 . S
C450 C451 1.367 . S
C450 C458 1.378 . S
C451 C450 1.367 . S
C451 C459 1.433 . S
C452 H448 0.929 . S
C452 C454 1.378 . S
C452 C456 1.350 . S
C453 C456 1.463 . S
C453 C458 1.350 . S
C453 N461 1.427 . S
C454 H445 0.930 . S
C454 C452 1.378 . S
C454 C455 1.367 . S
C455 C454 1.367 . S
C455 C457 1.433 . S
C456 C452 1.350 . S
C456 C453 1.463 . S
C456 N460 1.427 . S
C457 H447 0.929 . S
C457 C455 1.433 . S
C457 N460 1.384 . S
C458 H449 0.929 . S
C458 C450 1.378 . S
C458 C453 1.350 . S
C459 H446 0.929 . S
C459 C451 1.433 . S
C459 N461 1.384 . S
N460 C456 1.427 . S
N460 C457 1.384 . S
N461 C453 1.427 . S
N461 C459 1.384 . S
H462 C468 0.930 . S
H463 C472 0.930 . S
H464 C477 0.929 . S
H465 C475 0.929 . S
H466 C470 0.929 . S
H467 C476 0.929 . S
C468 H462 0.930 . S
C468 C469 1.367 . S
C468 C476 1.378 . S
C469 C468 1.367 . S
C469 C477 1.433 . S
C470 H466 0.929 . S
C470 C472 1.378 . S
C470 C474 1.350 . S
C471 C474 1.463 . S
C471 C476 1.350 . S
C471 N479 1.427 . S
C472 H463 0.930 . S
C472 C470 1.378 . S
C472 C473 1.367 . S
C473 C472 1.367 . S
C473 C475 1.433 . S
C474 C470 1.350 . S
C474 C471 1.463 . S
C474 N478 1.427 . S
C475 H465 0.929 . S
C475 C473 1.433 . S
C475 N478 1.384 . S
C476 H467 0.929 . S
C476 C468 1.378 . S
C476 C471 1.350 . S
C477 H464 0.929 . S
C477 C469 1.433 . S
C477 N479 1.384 . S
N478 C474 1.427 . S
N478 C475 1.384 . S
N479 C471 1.427 . S
N479 C477 1.384 . S
H480 C486 0.930 . S
H481 C490 0.930 . S
H482 C495 0.929 . S
H483 C493 0.929 . S
H484 C488 0.929 . S
H485 C494 0.929 . S
C486 H480 0.930 . S
C486 C487 1.367 . S
C486 C494 1.378 . S
C487 C486 1.367 . S
C487 C495 1.433 . S
C488 H484 0.929 . S
C488 C490 1.378 . S
C488 C492 1.350 . S
C489 C492 1.463 . S
C489 C494 1.350 . S
C489 N497 1.427 . S
C490 H481 0.930 . S
C490 C488 1.378 . S
C490 C491 1.367 . S
C491 C490 1.367 . S
C491 C493 1.433 . S
C492 C488 1.350 . S
C492 C489 1.463 . S
C492 N496 1.427 . S
C493 H483 0.929 . S
C493 C491 1.433 . S
C493 N496 1.384 . S
C494 H485 0.929 . S
C494 C486 1.378 . S
C494 C489 1.350 . S
C495 H482 0.929 . S
C495 C487 1.433 . S
C495 N497 1.384 . S
N496 C492 1.427 . S
N496 C493 1.384 . S
N497 C489 1.427 . S
N497 C495 1.384 . S
H498 C504 0.930 . S
H499 C508 0.930 . S
H500 C513 0.929 . S
H501 C511 0.929 . S
H502 C506 0.929 . S
H503 C512 0.929 . S
C504 H498 0.930 . S
C504 C505 1.367 . S
C504 C512 1.378 . S
C505 C504 1.367 . S
C505 C513 1.433 . S
C506 H502 0.929 . S
C506 C508 1.378 . S
C506 C510 1.350 . S
C507 C510 1.463 1_655 S
C507 C512 1.350 . S
C507 N515 1.427 . S
C508 H499 0.930 . S
C508 C506 1.378 . S
C508 C509 1.367 . S
C509 C508 1.367 . S
C509 C511 1.433 . S
C510 C506 1.350 . S
C510 C507 1.463 1_455 S
C510 N514 1.427 . S
C511 H501 0.929 . S
C511 C509 1.433 . S
C511 N514 1.384 . S
C512 H503 0.929 . S
C512 C504 1.378 . S
C512 C507 1.350 . S
C513 H500 0.929 . S
C513 C505 1.433 . S
C513 N515 1.384 . S
N514 C510 1.427 . S
N514 C511 1.384 . S
N515 C507 1.427 . S
N515 C513 1.384 . S
H516 C522 0.930 . S
H517 C526 0.930 . S
H518 C531 0.929 . S
H519 C529 0.929 . S
H520 C524 0.929 . S
H521 C530 0.929 . S
C522 H516 0.930 . S
C522 C523 1.367 . S
C522 C530 1.378 . S
C523 C522 1.367 . S
C523 C531 1.433 1_545 S
C524 H520 0.929 . S
C524 C526 1.378 . S
C524 C528 1.350 . S
C525 C528 1.463 1_544 S
C525 C530 1.350 . S
C525 N533 1.427 1_545 S
C526 H517 0.930 . S
C526 C524 1.378 . S
C526 C527 1.367 . S
C527 C526 1.367 . S
C527 C529 1.433 1_565 S
C528 C524 1.350 . S
C528 C525 1.463 1_566 S
C528 N532 1.427 1_565 S
C529 H519 0.929 . S
C529 C527 1.433 1_545 S
C529 N532 1.384 . S
C530 H521 0.929 . S
C530 C522 1.378 . S
C530 C525 1.350 . S
C531 H518 0.929 . S
C531 C523 1.433 1_565 S
C531 N533 1.384 . S
N532 C528 1.427 1_545 S
N532 C529 1.384 . S
N533 C525 1.427 1_565 S
N533 C531 1.384 . S
H534 C540 0.930 . S
H535 C544 0.930 . S
H536 C549 0.929 . S
H537 C547 0.929 . S
H538 C542 0.929 . S
H539 C548 0.929 . S
C540 H534 0.930 . S
C540 C541 1.367 . S
C540 C548 1.378 . S
C541 C540 1.367 . S
C541 C549 1.433 . S
C542 H538 0.929 . S
C542 C544 1.378 . S
C542 C546 1.350 . S
C543 C546 1.463 . S
C543 C548 1.350 . S
C543 N551 1.427 . S
C544 H535 0.930 . S
C544 C542 1.378 . S
C544 C545 1.367 . S
C545 C544 1.367 . S
C545 C547 1.433 . S
C546 C542 1.350 . S
C546 C543 1.463 . S
C546 N550 1.427 . S
C547 H537 0.929 . S
C547 C545 1.433 . S
C547 N550 1.384 . S
C548 H539 0.929 . S
C548 C540 1.378 . S
C548 C543 1.350 . S
C549 H536 0.929 . S
C549 C541 1.433 . S
C549 N551 1.384 . S
N550 C546 1.427 . S
N550 C547 1.384 . S
N551 C543 1.427 . S
N551 C549 1.384 . S
H552 C558 0.930 . S
H553 C562 0.930 . S
H554 C567 0.929 . S
H555 C565 0.929 . S
H556 C560 0.929 . S
H557 C566 0.929 . S
C558 H552 0.930 . S
C558 C559 1.367 . S
C558 C566 1.378 . S
C559 C558 1.367 . S
C559 C567 1.433 . S
C560 H556 0.929 . S
C560 C562 1.378 . S
C560 C564 1.350 . S
C561 C564 1.463 1_455 S
C561 C566 1.350 . S
C561 N569 1.427 . S
C562 H553 0.930 . S
C562 C560 1.378 . S
C562 C563 1.367 . S
C563 C562 1.367 . S
C563 C565 1.433 . S
C564 C560 1.350 . S
C564 C561 1.463 1_655 S
C564 N568 1.427 . S
C565 H555 0.929 . S
C565 C563 1.433 . S
C565 N568 1.384 . S
C566 H557 0.929 . S
C566 C558 1.378 . S
C566 C561 1.350 . S
C567 H554 0.929 . S
C567 C559 1.433 . S
C567 N569 1.384 . S
N568 C564 1.427 . S
N568 C565 1.384 . S
N569 C561 1.427 . S
N569 C567 1.384 . S
H570 C576 0.930 . S
H571 C580 0.930 . S
H572 C585 0.929 . S
H573 C583 0.929 . S
H574 C578 0.929 1_565 S
H575 C584 0.929 1_545 S
C576 H570 0.930 . S
C576 C577 1.367 . S
C576 C584 1.378 . S
C577 C576 1.367 . S
C577 C585 1.433 . S
C578 H574 0.929 1_545 S
C578 C580 1.378 . S
C578 C582 1.350 . S
C579 C582 1.463 1_564 S
C579 C584 1.350 . S
C579 N587 1.427 . S
C580 H571 0.930 . S
C580 C578 1.378 . S
C580 C581 1.367 . S
C581 C580 1.367 . S
C581 C583 1.433 . S
C582 C578 1.350 . S
C582 C579 1.463 1_546 S
C582 N586 1.427 . S
C583 H573 0.929 . S
C583 C581 1.433 . S
C583 N586 1.384 . S
C584 H575 0.929 1_565 S
C584 C576 1.378 . S
C584 C579 1.350 . S
C585 H572 0.929 . S
C585 C577 1.433 . S
C585 N587 1.384 . S
N586 C582 1.427 . S
N586 C583 1.384 . S
N587 C579 1.427 . S
N587 C585 1.384 . S
C163 C148 1.798 . S
C167 C3 1.793 . S
C181 C16 1.799 . S
C185 C81 1.794 . S
C199 C31 1.791 . S
C203 C94 1.796 . S
C217 C44 1.793 . S
C221 C107 1.790 . S
C235 C122 1.799 . S
C239 C55 1.797 . S
C253 C68 1.792 . S
C257 C135 1.798 . S
C271 C43 1.450 . S
C275 C10 1.451 . S
C289 C62 1.449 . S
C293 C23 1.449 . S
C307 C75 1.449 . S
C311 C30 1.450 . S
C325 C88 1.453 . S
C329 C121 1.452 . S
C343 C101 1.451 . S
C347 C134 1.450 . S
C361 C114 1.454 . S
C365 C147 1.454 . S
C379 C109 0.529 . S
C383 C5 0.527 . S
C397 C18 0.534 . S
C401 C120 0.529 . S
C415 C133 0.540 . S
C419 C29 0.536 . S
C433 C146 0.539 . S
C437 C42 0.540 . S
C451 C83 0.530 . S
C455 C57 0.527 . S
C469 C70 0.540 . S
C473 C96 0.540 . S
C487 C127 1.641 . S
C491 C4 1.642 . S
C505 C17 1.646 . S
C509 C140 1.645 . S
C523 C153 1.650 . S
C527 C36 1.650 . S
C541 C49 1.642 . S
C545 C82 1.641 . S
C559 C56 1.646 . S
C563 C95 1.645 . S
C577 C108 1.645 . S
C581 C69 1.646 . S
