# Generated by pormake.
# Topology whw, (6)-cn, num edge types: 1
# Building blocks:
#     Node 0, Type 0, BuildingBlock: GEDQOX_clean_sbu_0, # of connection points: 6
#     Node 1, Type 0, BuildingBlock: GEDQOX_clean_sbu_0, # of connection points: 6
#     Node 2, Type 0, BuildingBlock: GEDQOX_clean_sbu_0, # of connection points: 6
#     Node 3, Type 0, BuildingBlock: GEDQOX_clean_sbu_0, # of connection points: 6
#     Node 4, Type 0, BuildingBlock: GEDQOX_clean_sbu_0, # of connection points: 6
#     Node 5, Type 0, BuildingBlock: GEDQOX_clean_sbu_0, # of connection points: 6
#     Node 6, Type 0, BuildingBlock: GEDQOX_clean_sbu_0, # of connection points: 6
#     Node 7, Type 0, BuildingBlock: GEDQOX_clean_sbu_0, # of connection points: 6
#     Node 8, Type 0, BuildingBlock: GEDQOX_clean_sbu_0, # of connection points: 6
#     Node 9, Type 0, BuildingBlock: GEDQOX_clean_sbu_0, # of connection points: 6
#     Node 10, Type 0, BuildingBlock: GEDQOX_clean_sbu_0, # of connection points: 6
#     Node 11, Type 0, BuildingBlock: GEDQOX_clean_sbu_0, # of connection points: 6
#     Node 12, Type 0, BuildingBlock: GEDQOX_clean_sbu_0, # of connection points: 6
#     Node 13, Type 0, BuildingBlock: GEDQOX_clean_sbu_0, # of connection points: 6
#     Node 14, Type 0, BuildingBlock: GEDQOX_clean_sbu_0, # of connection points: 6
#     Node 15, Type 0, BuildingBlock: GEDQOX_clean_sbu_0, # of connection points: 6
#     Edge 16, Type (0, 0), BuildingBlock: MIFKUJ_clean_linker_0, # of connection points: 2
#     Edge 17, Type (0, 0), BuildingBlock: MIFKUJ_clean_linker_0, # of connection points: 2
#     Edge 18, Type (0, 0), BuildingBlock: MIFKUJ_clean_linker_0, # of connection points: 2
#     Edge 19, Type (0, 0), BuildingBlock: MIFKUJ_clean_linker_0, # of connection points: 2
#     Edge 20, Type (0, 0), BuildingBlock: MIFKUJ_clean_linker_0, # of connection points: 2
#     Edge 21, Type (0, 0), BuildingBlock: MIFKUJ_clean_linker_0, # of connection points: 2
#     Edge 22, Type (0, 0), BuildingBlock: MIFKUJ_clean_linker_0, # of connection points: 2
#     Edge 23, Type (0, 0), BuildingBlock: MIFKUJ_clean_linker_0, # of connection points: 2
#     Edge 24, Type (0, 0), BuildingBlock: MIFKUJ_clean_linker_0, # of connection points: 2
#     Edge 25, Type (0, 0), BuildingBlock: MIFKUJ_clean_linker_0, # of connection points: 2
#     Edge 26, Type (0, 0), BuildingBlock: MIFKUJ_clean_linker_0, # of connection points: 2
#     Edge 27, Type (0, 0), BuildingBlock: MIFKUJ_clean_linker_0, # of connection points: 2
#     Edge 28, Type (0, 0), BuildingBlock: MIFKUJ_clean_linker_0, # of connection points: 2
#     Edge 29, Type (0, 0), BuildingBlock: MIFKUJ_clean_linker_0, # of connection points: 2
#     Edge 30, Type (0, 0), BuildingBlock: MIFKUJ_clean_linker_0, # of connection points: 2
#     Edge 31, Type (0, 0), BuildingBlock: MIFKUJ_clean_linker_0, # of connection points: 2
#     Edge 32, Type (0, 0), BuildingBlock: MIFKUJ_clean_linker_0, # of connection points: 2
#     Edge 33, Type (0, 0), BuildingBlock: MIFKUJ_clean_linker_0, # of connection points: 2
#     Edge 34, Type (0, 0), BuildingBlock: MIFKUJ_clean_linker_0, # of connection points: 2
#     Edge 35, Type (0, 0), BuildingBlock: MIFKUJ_clean_linker_0, # of connection points: 2
#     Edge 36, Type (0, 0), BuildingBlock: MIFKUJ_clean_linker_0, # of connection points: 2
#     Edge 37, Type (0, 0), BuildingBlock: MIFKUJ_clean_linker_0, # of connection points: 2
#     Edge 38, Type (0, 0), BuildingBlock: MIFKUJ_clean_linker_0, # of connection points: 2
#     Edge 39, Type (0, 0), BuildingBlock: MIFKUJ_clean_linker_0, # of connection points: 2
#     Edge 40, Type (0, 0), BuildingBlock: MIFKUJ_clean_linker_0, # of connection points: 2
#     Edge 41, Type (0, 0), BuildingBlock: MIFKUJ_clean_linker_0, # of connection points: 2
#     Edge 42, Type (0, 0), BuildingBlock: MIFKUJ_clean_linker_0, # of connection points: 2
#     Edge 43, Type (0, 0), BuildingBlock: MIFKUJ_clean_linker_0, # of connection points: 2
#     Edge 44, Type (0, 0), BuildingBlock: MIFKUJ_clean_linker_0, # of connection points: 2
#     Edge 45, Type (0, 0), BuildingBlock: MIFKUJ_clean_linker_0, # of connection points: 2
#     Edge 46, Type (0, 0), BuildingBlock: MIFKUJ_clean_linker_0, # of connection points: 2
#     Edge 47, Type (0, 0), BuildingBlock: MIFKUJ_clean_linker_0, # of connection points: 2
#     Edge 48, Type (0, 0), BuildingBlock: MIFKUJ_clean_linker_0, # of connection points: 2
#     Edge 49, Type (0, 0), BuildingBlock: MIFKUJ_clean_linker_0, # of connection points: 2
#     Edge 50, Type (0, 0), BuildingBlock: MIFKUJ_clean_linker_0, # of connection points: 2
#     Edge 51, Type (0, 0), BuildingBlock: MIFKUJ_clean_linker_0, # of connection points: 2
#     Edge 52, Type (0, 0), BuildingBlock: MIFKUJ_clean_linker_0, # of connection points: 2
#     Edge 53, Type (0, 0), BuildingBlock: MIFKUJ_clean_linker_0, # of connection points: 2
#     Edge 54, Type (0, 0), BuildingBlock: MIFKUJ_clean_linker_0, # of connection points: 2
#     Edge 55, Type (0, 0), BuildingBlock: MIFKUJ_clean_linker_0, # of connection points: 2
#     Edge 56, Type (0, 0), BuildingBlock: MIFKUJ_clean_linker_0, # of connection points: 2
#     Edge 57, Type (0, 0), BuildingBlock: MIFKUJ_clean_linker_0, # of connection points: 2
#     Edge 58, Type (0, 0), BuildingBlock: MIFKUJ_clean_linker_0, # of connection points: 2
#     Edge 59, Type (0, 0), BuildingBlock: MIFKUJ_clean_linker_0, # of connection points: 2
#     Edge 60, Type (0, 0), BuildingBlock: MIFKUJ_clean_linker_0, # of connection points: 2
#     Edge 61, Type (0, 0), BuildingBlock: MIFKUJ_clean_linker_0, # of connection points: 2
#     Edge 62, Type (0, 0), BuildingBlock: MIFKUJ_clean_linker_0, # of connection points: 2
#     Edge 63, Type (0, 0), BuildingBlock: MIFKUJ_clean_linker_0, # of connection points: 2
# Relax obj value: 0.237
# Max RMSD: 0.185
# Mean RMSD: 0.185
data_MOF--net-whw--node1-GEDQOX_clean_sbu_0--edge1-MIFKUJ_clean_linker_0
_symmetry_space_group_name_H-M    P1
_symmetry_Int_Tables_number       1
_symmetry_cell_setting            triclinic
loop_
_symmetry_equiv_pos_as_xyz
'x, y, z'
_cell_length_a     60.026332
_cell_length_b     59.95421
_cell_length_c     43.584816
_cell_angle_alpha  89.956106
_cell_angle_beta   90.07961
_cell_angle_gamma 89.960728
loop_
_atom_site_label
_atom_site_type_symbol
_atom_site_fract_x
_atom_site_fract_y
_atom_site_fract_z
_atom_type_partial_charge
Nd0 Nd 0.98798 0.12209 0.1328 0.0
Nd1 Nd 0.03625 0.12182 0.15815 0.0
C2 C 0.95312 0.11888 0.09588 0.0
C3 C 0.94855 0.12895 0.06565 0.0
C4 C 0.93133 0.12079 0.04709 0.0
C5 C 0.92744 0.13013 0.01808 0.0
C6 C 0.94073 0.14776 1.00718 0.0
C7 C 0.95775 0.15611 0.02612 0.0
C8 C 0.96158 0.14682 0.05508 0.0
C9 C -0.00211 0.15776 0.16872 0.0
C10 C 0.03018 0.14145 0.09052 0.0
C11 C 0.07199 0.12517 0.19317 0.0
C12 C 0.07611 0.13277 0.22502 0.0
C13 C 0.0837 0.15456 0.23057 0.0
C14 C 0.08659 0.16226 0.26056 0.0
C15 C 0.08224 0.14822 0.28567 0.0
C16 C 0.07502 0.1263 0.28018 0.0
C17 C 0.07194 0.11866 0.25018 0.0
C18 C 0.02546 0.08629 0.12179 0.0
C19 C 0.99349 0.10972 0.20316 0.0
O20 O 0.96903 0.10395 0.09671 0.0
O21 O 0.95422 0.13291 0.11875 0.0
O22 O 0.97792 0.14978 0.16604 0.0
O23 O 0.01122 0.14882 0.14994 0.0
O24 O 0.00961 0.13374 0.09223 0.0
O25 O 0.04378 0.14121 0.11432 0.0
O26 O 0.06617 0.14052 0.17329 0.0
O27 O 0.06083 0.10657 0.18975 0.0
O28 O 0.04499 0.09552 0.12226 0.0
O29 O 0.01277 0.09477 0.14174 0.0
O30 O 0.01366 0.11825 0.20024 0.0
O31 O 0.98071 0.10546 0.17906 0.0
H32 H 0.92099 0.10713 0.05495 0.0
H33 H 0.91398 0.12359 1.00416 0.0
H34 H 0.96837 0.16957 0.01835 0.0
H35 H 0.97479 0.15359 0.06918 0.0
H36 H 0.08721 0.16575 0.21169 0.0
H37 H 0.09245 0.17916 0.26408 0.0
H38 H 0.07143 0.11516 0.29911 0.0
H39 H 0.0661 0.10175 0.24678 0.0
Nd40 Nd 0.12925 0.73556 0.37406 0.0
Nd41 Nd 0.126 0.78233 0.40535 0.0
C42 C 0.13685 0.70308 0.33442 0.0
C43 C 0.1312 0.69953 0.30169 0.0
C44 C 0.13739 0.71496 0.27893 0.0
C45 C 0.13035 0.71213 0.24852 0.0
C46 C 0.11691 0.69387 0.2402 0.0
C47 C 0.11104 0.67831 0.26301 0.0
C48 C 0.11817 0.68109 0.29333 0.0
C49 C 0.0911 0.74229 0.40621 0.0
C50 C 0.11106 0.77965 0.33442 0.0
C51 C 0.11948 0.81629 0.44298 0.0
C52 C 0.11181 0.81992 0.47494 0.0
C53 C 0.089 0.82173 0.48179 0.0
C54 C 0.08195 0.82564 0.51187 0.0
C55 C 0.0975 0.828 0.53581 0.0
C56 C 0.12031 0.82614 0.52896 0.0
C57 C 0.12738 0.8222 0.49888 0.0
C58 C 0.16413 0.77465 0.37282 0.0
C59 C 0.13695 0.73676 0.44647 0.0
O60 O 0.15155 0.71852 0.34091 0.0
O61 O 0.11999 0.7031 0.35335 0.0
O62 O 0.09987 0.72273 0.4022 0.0
O63 O 0.1009 0.75705 0.39053 0.0
O64 O 0.1193 0.75918 0.33462 0.0
O65 O 0.10957 0.79178 0.35967 0.0
O66 O 0.10466 0.80975 0.4228 0.0
O67 O 0.13881 0.80648 0.43946 0.0
O68 O 0.15435 0.79393 0.37408 0.0
O69 O 0.15454 0.76061 0.38986 0.0
O70 O 0.1284 0.75708 0.44507 0.0
O71 O 0.14266 0.72558 0.42145 0.0
H72 H 0.14738 0.7294 0.28465 0.0
H73 H 0.13548 0.7242 0.23148 0.0
H74 H 0.10047 0.66422 0.25764 0.0
H75 H 0.11306 0.66903 0.31046 0.0
H76 H 0.07656 0.82025 0.4639 0.0
H77 H 0.06431 0.8273 0.5163 0.0
H78 H 0.13274 0.82765 0.54687 0.0
H79 H 0.14508 0.82105 0.49438 0.0
Nd80 Nd 0.52546 0.87111 0.6204 0.0
Nd81 Nd 0.47899 0.86734 0.65175 0.0
C82 C 0.5582 0.87726 0.5807 0.0
C83 C 0.56164 0.87046 0.5485 0.0
C84 C 0.54356 0.86865 0.52822 0.0
C85 C 0.54649 0.85979 0.4988 0.0
C86 C 0.56769 0.85295 0.48878 0.0
C87 C 0.58588 0.85525 0.50899 0.0
C88 C 0.58285 0.86382 0.53859 0.0
C89 C 0.52093 0.83612 0.65927 0.0
C90 C 0.48219 0.84904 0.58224 0.0
C91 C 0.44609 0.85906 0.69064 0.0
C92 C 0.44251 0.85178 0.72291 0.0
C93 C 0.4477 0.82996 0.73255 0.0
C94 C 0.44256 0.82283 0.76234 0.0
C95 C 0.43222 0.83734 0.78332 0.0
C96 C 0.42757 0.85932 0.77392 0.0
C97 C 0.43255 0.8664 0.74404 0.0
C98 C 0.48522 0.90428 0.61548 0.0
C99 C 0.52356 0.88463 0.6911 0.0
O100 O 0.54271 0.89221 0.58593 0.0
O101 O 0.55787 0.86091 0.60054 0.0
O102 O 0.53957 0.84664 0.65513 0.0
O103 O 0.50591 0.84264 0.64095 0.0
O104 O 0.50266 0.85722 0.58218 0.0
O105 O 0.46963 0.84929 0.60713 0.0
O106 O 0.45397 0.8443 0.67133 0.0
O107 O 0.4542 0.87908 0.68611 0.0
O108 O 0.46618 0.8941 0.61787 0.0
O109 O 0.49936 0.89593 0.63349 0.0
O110 O 0.50377 0.87483 0.69105 0.0
O111 O 0.5345 0.88881 0.66534 0.0
H112 H 0.52708 0.87389 0.53524 0.0
H113 H 0.53207 0.8581 0.48403 0.0
H114 H 0.60249 0.85045 0.50194 0.0
H115 H 0.59702 0.86497 0.55392 0.0
H116 H 0.45544 0.81822 0.71697 0.0
H117 H 0.44664 0.80589 0.76894 0.0
H118 H 0.41944 0.87088 0.78937 0.0
H119 H 0.4282 0.88323 0.73725 0.0
Nd120 Nd 0.36854 0.2452 0.86504 0.0
Nd121 Nd 0.3691 0.20149 0.90152 0.0
C122 C 0.36409 0.28164 0.83141 0.0
C123 C 0.37303 0.28759 0.80094 0.0
C124 C 0.3818 0.27102 0.78165 0.0
C125 C 0.39041 0.27659 0.75281 0.0
C126 C 0.39065 0.29891 0.74272 0.0
C127 C 0.38219 0.3155 0.76244 0.0
C128 C 0.3734 0.30987 0.79121 0.0
C129 C 0.41044 0.22833 0.87696 0.0
C130 C 0.37556 0.19919 0.82836 0.0
C131 C 0.37467 0.16914 0.94212 0.0
C132 C 0.38304 0.16647 0.97409 0.0
C133 C 0.40462 0.15825 0.97963 0.0
C134 C 0.41228 0.15493 1.00968 0.0
C135 C 0.39847 0.15954 0.03498 0.0
C136 C 0.37692 0.16786 0.02943 0.0
C137 C 0.3693 0.17127 0.99941 0.0
C138 C 0.32952 0.2112 0.87256 0.0
C139 C 0.36867 0.24941 0.93952 0.0
O140 O 0.34925 0.26563 0.83186 0.0
O141 O 0.37889 0.27968 0.85329 0.0
O142 O 0.40405 0.23583 0.85046 0.0
O143 O 0.39421 0.22862 0.89504 0.0
O144 O 0.36496 0.21845 0.82806 0.0
O145 O 0.38285 0.19034 0.8544 0.0
O146 O 0.38932 0.17368 0.92065 0.0
O147 O 0.35587 0.17996 0.93845 0.0
O148 O 0.33781 0.19128 0.87455 0.0
O149 O 0.34153 0.22498 0.88678 0.0
O150 O 0.37088 0.22749 0.94002 0.0
O151 O 0.36552 0.26044 0.91353 0.0
H152 H 0.38177 0.2537 0.78875 0.0
H153 H 0.39632 0.26332 0.73808 0.0
H154 H 0.38235 0.33288 0.75564 0.0
H155 H 0.36693 0.32292 0.80589 0.0
H156 H 0.41555 0.15414 0.9607 0.0
H157 H 0.42886 0.14822 0.01306 0.0
H158 H 0.36593 0.17181 0.04835 0.0
H159 H 0.35254 0.17754 0.99611 0.0
Nd160 Nd 0.96256 0.87457 0.87628 0.0
Nd161 Nd 0.01075 0.87811 0.90322 0.0
C162 C 0.92698 0.86957 0.84099 0.0
C163 C 0.92172 0.86137 0.80966 0.0
C164 C 0.92166 0.83846 0.80279 0.0
C165 C 0.9168 0.83101 0.7731 0.0
C166 C 0.91137 0.84622 0.74961 0.0
C167 C 0.91116 0.86914 0.75668 0.0
C168 C 0.9163 0.87659 0.78629 0.0
C169 C 0.97198 0.91215 0.90943 0.0
C170 C 0.00617 0.8841 0.83115 0.0
C171 C 0.04372 0.88721 0.94121 0.0
C172 C 0.04778 0.88099 0.97355 0.0
C173 C 0.03085 0.88257 0.99571 0.0
C174 C 0.03442 0.87482 0.02562 0.0
C175 C 0.05497 0.86526 0.03406 0.0
C176 C 0.07182 0.86369 1.01168 0.0
C177 C 0.06828 0.87154 0.98185 0.0
C178 C 0.00364 0.84013 0.87096 0.0
C179 C 0.96904 0.85726 0.94545 0.0
O180 O 0.93313 0.85486 0.8616 0.0
O181 O 0.93824 0.88823 0.84285 0.0
O182 O 0.95293 0.90202 0.91053 0.0
O183 O 0.98475 0.90308 0.89026 0.0
O184 O 0.98601 0.8756 0.8348 0.0
O185 O 0.01822 0.89109 0.85477 0.0
O186 O 0.0274 0.9012 0.93574 0.0
O187 O 0.04436 0.87068 0.92167 0.0
O188 O 0.02322 0.84906 0.87428 0.0
O189 O 0.98922 0.84958 0.88776 0.0
O190 O 0.9895 0.86538 0.94368 0.0
O191 O 0.95536 0.85695 0.92167 0.0
H192 H 0.92539 0.82622 0.82032 0.0
H193 H 0.91746 0.81326 0.7686 0.0
H194 H 0.90662 0.8814 0.73953 0.0
H195 H 0.91586 0.89433 0.79095 0.0
H196 H 0.01474 0.88959 0.98991 0.0
H197 H 0.0211 0.87649 0.04211 0.0
H198 H 0.08769 0.85599 0.01694 0.0
H199 H 0.08144 0.86982 0.96503 0.0
Nd200 Nd 0.36444 0.70173 0.1145 0.0
Nd201 Nd 0.3733 0.74585 0.15294 0.0
C202 C 0.36513 0.66914 0.07353 0.0
C203 C 0.37419 0.66478 0.04255 0.0
C204 C 0.38401 0.68175 0.02491 0.0
C205 C 0.39343 0.67691 0.99619 0.0
C206 C 0.39302 0.65502 0.98434 0.0
C207 C 0.38269 0.63824 1.00198 0.0
C208 C 0.37351 0.64307 0.03075 0.0
C209 C 0.32986 0.7156 0.15065 0.0
C210 C 0.3663 0.75093 0.07863 0.0
C211 C 0.37362 0.78161 0.18833 0.0
C212 C 0.38152 0.78624 0.21994 0.0
C213 C 0.37809 0.77083 0.24383 0.0
C214 C 0.38602 0.77521 0.27348 0.0
C215 C 0.39776 0.79498 0.27989 0.0
C216 C 0.40128 0.8103 0.25586 0.0
C217 C 0.39319 0.80598 0.22626 0.0
C218 C 0.40952 0.72255 0.13204 0.0
C219 C 0.37827 0.69814 0.18669 0.0
O220 O 0.37974 0.67094 0.09579 0.0
O221 O 0.34883 0.68365 0.07562 0.0
O222 O 0.33406 0.69478 0.14489 0.0
O223 O 0.34257 0.72827 0.1356 0.0
O224 O 0.3651 0.72888 0.07711 0.0
O225 O 0.36816 0.76174 0.1051 0.0
O226 O 0.35632 0.76839 0.18564 0.0
O227 O 0.38904 0.77764 0.16779 0.0
O228 O 0.40969 0.73261 0.15846 0.0
O229 O 0.39171 0.72616 0.11828 0.0
O230 O 0.3706 0.71868 0.18946 0.0
O231 O 0.38109 0.68871 0.15936 0.0
H232 H 0.38459 0.6987 0.03342 0.0
H233 H 0.40138 0.69028 0.98357 0.0
H234 H 0.38154 0.62131 0.99353 0.0
H235 H 0.36591 0.62974 0.04388 0.0
H236 H 0.36941 0.75529 0.23958 0.0
H237 H 0.38329 0.76291 0.29129 0.0
H238 H 0.41008 0.82577 0.26003 0.0
H239 H 0.39612 0.81807 0.20822 0.0
Nd240 Nd 0.54377 0.117 0.36695 0.0
Nd241 Nd 0.4974 0.11721 0.40189 0.0
C242 C 0.57631 0.12426 0.32743 0.0
C243 C 0.57905 0.13291 0.29566 0.0
C244 C 0.59211 0.15197 0.29056 0.0
C245 C 0.59548 0.16015 0.26081 0.0
C246 C 0.58591 0.14948 0.23519 0.0
C247 C 0.5726 0.13048 0.24043 0.0
C248 C 0.56919 0.12232 0.27025 0.0
C249 C 0.53532 0.08058 0.40319 0.0
C250 C 0.49657 0.10818 0.32794 0.0
C251 C 0.46095 0.11046 0.43448 0.0
C252 C 0.45381 0.11875 0.46474 0.0
C253 C 0.43152 0.11699 0.47394 0.0
C254 C 0.42491 0.12464 0.50292 0.0
C255 C 0.44054 0.13406 0.52329 0.0
C256 C 0.46281 0.13609 0.51364 0.0
C257 C 0.46935 0.12857 0.48467 0.0
C258 C 0.51203 0.15727 0.37832 0.0
C259 C 0.54222 0.13222 0.43859 0.0
O260 O 0.57037 0.13881 0.34839 0.0
O261 O 0.56676 0.1047 0.33097 0.0
O262 O 0.55518 0.08863 0.39901 0.0
O263 O 0.52126 0.09057 0.38667 0.0
O264 O 0.51829 0.11225 0.32783 0.0
O265 O 0.48491 0.10701 0.35376 0.0
O266 O 0.47803 0.09685 0.43476 0.0
O267 O 0.46219 0.12543 0.41264 0.0
O268 O 0.50078 0.15592 0.40376 0.0
O269 O 0.51387 0.13833 0.36698 0.0
O270 O 0.52302 0.12154 0.44036 0.0
O271 O 0.55199 0.13615 0.4118 0.0
H272 H 0.59985 0.16055 0.30967 0.0
H273 H 0.60556 0.17496 0.25801 0.0
H274 H 0.56516 0.12153 0.22146 0.0
H275 H 0.55898 0.1076 0.2733 0.0
H276 H 0.41929 0.10949 0.45885 0.0
H277 H 0.40769 0.12254 0.5097 0.0
H278 H 0.47524 0.14354 0.52848 0.0
H279 H 0.48661 0.1303 0.47788 0.0
Nd280 Nd 0.1234 0.28868 0.62413 0.0
Nd281 Nd 0.11994 0.24187 0.65484 0.0
C282 C 0.12266 0.32335 0.58654 0.0
C283 C 0.11362 0.32872 0.55571 0.0
C284 C 0.091 0.33405 0.55159 0.0
C285 C 0.08263 0.33893 0.52239 0.0
C286 C 0.09672 0.33901 0.49661 0.0
C287 C 0.11942 0.33394 0.50087 0.0
C288 C 0.12774 0.32885 0.53004 0.0
C289 C 0.1597 0.27565 0.65798 0.0
C290 C 0.12753 0.24276 0.58267 0.0
C291 C 0.12283 0.20739 0.69263 0.0
C292 C 0.11624 0.20352 0.72469 0.0
C293 C 0.11429 0.22142 0.74521 0.0
C294 C 0.10676 0.21791 0.77514 0.0
C295 C 0.10114 0.19636 0.78509 0.0
C296 C 0.10285 0.17846 0.76436 0.0
C297 C 0.11037 0.18203 0.73439 0.0
C298 C 0.08352 0.25301 0.62072 0.0
C299 C 0.10649 0.28788 0.69377 0.0
O300 O 0.10835 0.32062 0.60891 0.0
O301 O 0.13914 0.30905 0.58767 0.0
O302 O 0.15254 0.29603 0.65671 0.0
O303 O 0.14866 0.2632 0.64031 0.0
O304 O 0.12129 0.26385 0.5844 0.0
O305 O 0.13286 0.23111 0.60747 0.0
O306 O 0.13925 0.22136 0.68796 0.0
O307 O 0.10633 0.21033 0.67351 0.0
O308 O 0.08982 0.23262 0.62562 0.0
O309 O 0.09472 0.26655 0.63687 0.0
O310 O 0.11274 0.2667 0.69414 0.0
O311 O 0.10631 0.29983 0.66832 0.0
H312 H 0.07963 0.33426 0.57086 0.0
H313 H 0.065 0.3424 0.52006 0.0
H314 H 0.13093 0.33428 0.48177 0.0
H315 H 0.14532 0.32515 0.53251 0.0
H316 H 0.11862 0.2381 0.73809 0.0
H317 H 0.10541 0.23203 0.79053 0.0
H318 H 0.09875 0.16165 0.77152 0.0
H319 H 0.11153 0.16804 0.71876 0.0
Nd320 Nd 0.89191 0.22636 0.6319 0.0
Nd321 Nd 0.87763 0.27209 0.66083 0.0
C322 C 0.90781 0.19474 0.59576 0.0
C323 C 0.91424 0.1913 0.56325 0.0
C324 C 0.93453 0.19943 0.55159 0.0
C325 C 0.9408 0.195 0.52127 0.0
C326 C 0.92698 0.18224 0.50198 0.0
C327 C 0.90662 0.17432 0.51363 0.0
C328 C 0.90037 0.17875 0.54388 0.0
C329 C 0.85318 0.22569 0.66483 0.0
C330 C 0.86725 0.26559 0.58951 0.0
C331 C 0.8645 0.30326 0.69954 0.0
C332 C 0.86949 0.30724 0.7324 0.0
C333 C 0.86503 0.291 0.75491 0.0
C334 C 0.87232 0.294 0.78517 0.0
C335 C 0.88453 0.31308 0.79344 0.0
C336 C 0.88844 0.32955 0.77112 0.0
C337 C 0.88089 0.32672 0.741 0.0
C338 C 0.91438 0.2737 0.62446 0.0
C339 C 0.90462 0.23378 0.70272 0.0
O340 O 0.92048 0.20768 0.61259 0.0
O341 O 0.88654 0.19721 0.60155 0.0
O342 O 0.86701 0.20903 0.66411 0.0
O343 O 0.85928 0.24114 0.64709 0.0
O344 O 0.88054 0.24801 0.5913 0.0
O345 O 0.86021 0.27636 0.61427 0.0
O346 O 0.85222 0.28589 0.69261 0.0
O347 O 0.88137 0.3058 0.68091 0.0
O348 O 0.90071 0.2903 0.62779 0.0
O349 O 0.90981 0.25807 0.643 0.0
O350 O 0.89267 0.25227 0.70128 0.0
O351 O 0.90882 0.22147 0.67829 0.0
H352 H 0.94574 0.20895 0.56596 0.0
H353 H 0.9565 0.2015 0.51296 0.0
H354 H 0.89575 0.16411 0.49963 0.0
H355 H 0.88479 0.172 0.55229 0.0
H356 H 0.85654 0.27567 0.74898 0.0
H357 H 0.86917 0.28104 0.80189 0.0
H358 H 0.89757 0.34456 0.7769 0.0
H359 H 0.88458 0.33947 0.72413 0.0
Nd360 Nd 0.62953 0.76767 0.11972 0.0
Nd361 Nd 0.64158 0.72209 0.15059 0.0
C362 C 0.61689 0.79955 0.08115 0.0
C363 C 0.61179 0.80339 0.04806 0.0
C364 C 0.59112 0.79724 0.03534 0.0
C365 C 0.58576 0.80279 1.00494 0.0
C366 C 0.6009 0.81464 0.98641 0.0
C367 C 0.62178 0.82027 0.99893 0.0
C368 C 0.62709 0.81482 0.02937 0.0
C369 C 0.66807 0.76632 0.15355 0.0
C370 C 0.6517 0.72608 0.07898 0.0
C371 C 0.65354 0.69138 0.19095 0.0
C372 C 0.64775 0.68679 0.22344 0.0
C373 C 0.64916 0.70337 0.24615 0.0
C374 C 0.64266 0.69884 0.27644 0.0
C375 C 0.63467 0.67757 0.28485 0.0
C376 C 0.63311 0.66114 0.26182 0.0
C377 C 0.63962 0.66568 0.23162 0.0
C378 C 0.6049 0.72133 0.1146 0.0
C379 C 0.61418 0.76195 0.18969 0.0
O380 O 0.6029 0.7875 0.09721 0.0
O381 O 0.63771 0.79598 0.08877 0.0
O382 O 0.65471 0.7834 0.15351 0.0
O383 O 0.66136 0.7515 0.13541 0.0
O384 O 0.63901 0.74414 0.08014 0.0
O385 O 0.65874 0.71588 0.10424 0.0
O386 O 0.66566 0.70907 0.18504 0.0
O387 O 0.63738 0.68855 0.17119 0.0
O388 O 0.61793 0.70424 0.11824 0.0
O389 O 0.6099 0.73721 0.13244 0.0
O390 O 0.62619 0.7434 0.18948 0.0
O391 O 0.61075 0.7738 0.16454 0.0
H392 H 0.57886 0.78847 0.04899 0.0
H393 H 0.56964 0.79793 0.99599 0.0
H394 H 0.63376 0.82962 0.98555 0.0
H395 H 0.64305 0.82005 0.03851 0.0
H396 H 0.65543 0.71982 0.24059 0.0
H397 H 0.64448 0.71192 0.29337 0.0
H398 H 0.62652 0.64475 0.26689 0.0
H399 H 0.63811 0.65268 0.21449 0.0
Nd400 Nd 0.63787 0.25437 0.8657 0.0
Nd401 Nd 0.6452 0.29729 0.90626 0.0
C402 C 0.63982 0.21855 0.8304 0.0
C403 C 0.63306 0.2124 0.79867 0.0
C404 C 0.64897 0.20386 0.77816 0.0
C405 C 0.64304 0.19832 0.74797 0.0
C406 C 0.62094 0.20083 0.73772 0.0
C407 C 0.60498 0.20923 0.75834 0.0
C408 C 0.61098 0.21508 0.78838 0.0
C409 C 0.60136 0.28109 0.87401 0.0
C410 C 0.63981 0.30292 0.83264 0.0
C411 C 0.64556 0.32914 0.94836 0.0
C412 C 0.63536 0.33391 0.97852 0.0
C413 C 0.61499 0.3243 0.9872 0.0
C414 C 0.60532 0.32961 0.01551 0.0
C415 C 0.616 0.34423 0.036 0.0
C416 C 0.63668 0.35337 0.02753 0.0
C417 C 0.64619 0.34834 0.999 0.0
C418 C 0.68241 0.28007 0.87833 0.0
C419 C 0.63451 0.24874 0.94028 0.0
O420 O 0.6563 0.23279 0.83297 0.0
O421 O 0.62393 0.22198 0.85052 0.0
O422 O 0.60461 0.26962 0.84917 0.0
O423 O 0.61578 0.27654 0.89392 0.0
O424 O 0.64639 0.28187 0.83097 0.0
O425 O 0.63524 0.31248 0.85938 0.0
O426 O 0.63231 0.32933 0.92439 0.0
O427 O 0.66021 0.31294 0.94756 0.0
O428 O 0.67885 0.30125 0.88179 0.0
O429 O 0.66715 0.26885 0.89072 0.0
O430 O 0.63586 0.27074 0.94225 0.0
O431 O 0.63653 0.23811 0.91376 0.0
H432 H 0.66609 0.20163 0.78546 0.0
H433 H 0.6557 0.19175 0.73277 0.0
H434 H 0.58787 0.21155 0.7511 0.0
H435 H 0.59831 0.22175 0.80348 0.0
H436 H 0.60654 0.3127 0.97221 0.0
H437 H 0.58958 0.32209 0.02158 0.0
H438 H 0.64532 0.36475 0.04273 0.0
H439 H 0.662 0.35582 0.99287 0.0
Nd440 Nd 0.87709 0.76162 0.38215 0.0
Nd441 Nd 0.87531 0.71463 0.41239 0.0
C442 C 0.87414 0.79601 0.34429 0.0
C443 C 0.88157 0.80043 0.31274 0.0
C444 C 0.89608 0.78559 0.29793 0.0
C445 C 0.90333 0.78987 0.26809 0.0
C446 C 0.89621 0.80912 0.25251 0.0
C447 C 0.8818 0.82406 0.26747 0.0
C448 C 0.87457 0.81975 0.29742 0.0
C449 C 0.90943 0.75373 0.42447 0.0
C450 C 0.89666 0.71727 0.34449 0.0
C451 C 0.87878 0.67965 0.44908 0.0
C452 C 0.8851 0.67378 0.48096 0.0
C453 C 0.9073 0.6755 0.49107 0.0
C454 C 0.9134 0.66793 0.52022 0.0
C455 C 0.89746 0.65857 0.54003 0.0
C456 C 0.87515 0.6575 0.53032 0.0
C457 C 0.86907 0.6649 0.501 0.0
C458 C 0.84145 0.72411 0.37235 0.0
C459 C 0.86009 0.75965 0.45145 0.0
O460 O 0.85825 0.78123 0.34747 0.0
O461 O 0.89006 0.79366 0.36454 0.0
O462 O 0.90096 0.77332 0.41941 0.0
O463 O 0.90262 0.73952 0.40515 0.0
O464 O 0.8912 0.73862 0.34438 0.0
O465 O 0.89365 0.70433 0.36866 0.0
O466 O 0.89473 0.68633 0.43074 0.0
O467 O 0.86005 0.69052 0.44496 0.0
O468 O 0.84991 0.70433 0.37559 0.0
O469 O 0.84955 0.73748 0.39161 0.0
O470 O 0.86826 0.73913 0.45199 0.0
O471 O 0.85784 0.77099 0.42555 0.0
H472 H 0.90193 0.77074 0.30948 0.0
H473 H 0.91436 0.77801 0.25708 0.0
H474 H 0.87626 0.83914 0.25607 0.0
H475 H 0.86351 0.83149 0.30861 0.0
H476 H 0.92011 0.68231 0.4763 0.0
H477 H 0.93066 0.66926 0.52718 0.0
H478 H 0.86253 0.65026 0.54501 0.0
H479 H 0.85188 0.66322 0.49374 0.0
Nd480 Nd 0.50788 0.61818 0.61861 0.0
Nd481 Nd 0.54969 0.60527 0.65888 0.0
C482 C 0.47244 0.61978 0.58235 0.0
C483 C 0.46715 0.62542 0.5498 0.0
C484 C 0.47161 0.61026 0.52589 0.0
C485 C 0.46582 0.61534 0.49549 0.0
C486 C 0.45534 0.63567 0.48809 0.0
C487 C 0.45105 0.65087 0.51202 0.0
C488 C 0.4568 0.64577 0.54243 0.0
C489 C 0.53346 0.65263 0.64057 0.0
C490 C 0.55642 0.61908 0.58726 0.0
C491 C 0.58238 0.60197 0.69943 0.0
C492 C 0.58815 0.60984 0.73043 0.0
C493 C 0.57331 0.62287 0.74768 0.0
C494 C 0.5797 0.63114 0.77644 0.0
C495 C 0.6009 0.62627 0.78868 0.0
C496 C 0.61554 0.61298 0.7713 0.0
C497 C 0.60922 0.60491 0.74248 0.0
C498 C 0.53387 0.57243 0.62117 0.0
C499 C 0.50019 0.60997 0.69258 0.0
O500 O 0.48401 0.60159 0.58734 0.0
O501 O 0.47811 0.63617 0.6007 0.0
O502 O 0.52373 0.65339 0.61388 0.0
O503 O 0.52828 0.6352 0.65463 0.0
O504 O 0.53541 0.61349 0.58292 0.0
O505 O 0.56511 0.62107 0.61512 0.0
O506 O 0.58173 0.61723 0.67789 0.0
O507 O 0.56622 0.58735 0.69722 0.0
O508 O 0.55486 0.57504 0.62729 0.0
O509 O 0.52213 0.58591 0.63625 0.0
O510 O 0.52186 0.60616 0.69547 0.0
O511 O 0.49068 0.61455 0.66577 0.0
H512 H 0.47936 0.59431 0.53062 0.0
H513 H 0.46911 0.60304 0.47789 0.0
H514 H 0.44329 0.66681 0.50727 0.0
H515 H 0.45301 0.65777 0.56025 0.0
H516 H 0.55689 0.62679 0.73885 0.0
H517 H 0.56801 0.64126 0.78913 0.0
H518 H 0.63212 0.6092 0.77964 0.0
H519 H 0.62095 0.595 0.72939 0.0
Nd520 Nd 0.01583 0.38205 0.12954 0.0
Nd521 Nd 0.97037 0.37329 0.16152 0.0
C522 C 0.04533 0.39327 0.08742 0.0
C523 C 0.04846 0.3859 0.05537 0.0
C524 C 0.0526 0.40155 0.0321 0.0
C525 C 0.05483 0.39464 1.00154 0.0
C526 C 0.05304 0.37192 0.99378 0.0
C527 C 0.04855 0.35637 0.01711 0.0
C528 C 0.0462 0.36328 0.04752 0.0
C529 C 0.01659 0.34713 0.16894 0.0
C530 C 0.97557 0.35372 0.09328 0.0
C531 C 0.93697 0.36392 0.19891 0.0
C532 C 0.93165 0.35992 0.23151 0.0
C533 C 0.94405 0.34502 0.24968 0.0
C534 C 0.93746 0.34039 0.27985 0.0
C535 C 0.91839 0.35059 0.29243 0.0
C536 C 0.90651 0.36601 0.27438 0.0
C537 C 0.91304 0.37056 0.24426 0.0
C538 C 0.97273 0.4103 0.12453 0.0
C539 C 0.01264 0.39535 0.20016 0.0
O540 O 0.02735 0.40496 0.09275 0.0
O541 O 0.04928 0.37841 0.10879 0.0
O542 O 0.03397 0.35919 0.16263 0.0
O543 O 0.00023 0.35172 0.15147 0.0
O544 O 0.99495 0.36416 0.09252 0.0
O545 O 0.96319 0.35306 0.11826 0.0
O546 O 0.94855 0.34867 0.18445 0.0
O547 O 0.94236 0.38429 0.1911 0.0
O548 O 0.95535 0.39745 0.12562 0.0
O549 O 0.98738 0.40379 0.14311 0.0
O550 O 0.99399 0.3836 0.20058 0.0
O551 O 0.02298 0.40062 0.17431 0.0
H552 H 0.05408 0.41912 0.03757 0.0
H553 H 0.05834 0.40702 0.98408 0.0
H554 H 0.04663 0.33883 1.01181 0.0
H555 H 0.04246 0.35089 0.06486 0.0
H556 H 0.95855 0.33663 0.24044 0.0
H557 H 0.94692 0.3283 0.29295 0.0
H558 H 0.89202 0.37452 0.28344 0.0
H559 H 0.90329 0.38217 0.2307 0.0
Nd560 Nd 0.46809 0.36964 0.3683 0.0
Nd561 Nd 0.51455 0.37727 0.4007 0.0
C562 C 0.43601 0.35763 0.32986 0.0
C563 C 0.43304 0.35203 0.29715 0.0
C564 C 0.45017 0.35521 0.27568 0.0
C565 C 0.44658 0.35053 0.2445 0.0
C566 C 0.4258 0.34247 0.23426 0.0
C567 C 0.40896 0.33881 0.25622 0.0
C568 C 0.41254 0.3436 0.28722 0.0
C569 C 0.47246 0.4088 0.39949 0.0
C570 C 0.51278 0.38677 0.32868 0.0
C571 C 0.54626 0.38752 0.44062 0.0
C572 C 0.55098 0.38287 0.47339 0.0
C573 C 0.56109 0.39925 0.49171 0.0
C574 C 0.56658 0.39474 0.52239 0.0
C575 C 0.56222 0.37367 0.53534 0.0
C576 C 0.55161 0.35747 0.51709 0.0
C577 C 0.54594 0.36205 0.48652 0.0
C578 C 0.50966 0.3389 0.36786 0.0
C579 C 0.47129 0.35645 0.44014 0.0
O580 O 0.44733 0.34341 0.34652 0.0
O581 O 0.44073 0.37844 0.33628 0.0
O582 O 0.45379 0.39785 0.39779 0.0
O583 O 0.48746 0.39984 0.38339 0.0
O584 O 0.49321 0.3765 0.32912 0.0
O585 O 0.52341 0.39249 0.35416 0.0
O586 O 0.52942 0.40074 0.43462 0.0
O587 O 0.54743 0.37055 0.4218 0.0
O588 O 0.52851 0.34947 0.36978 0.0
O589 O 0.4953 0.3476 0.38508 0.0
O590 O 0.49132 0.3657 0.43981 0.0
O591 O 0.45922 0.35408 0.41488 0.0
H592 H 0.46622 0.36147 0.28297 0.0
H593 H 0.45998 0.35356 0.22843 0.0
H594 H 0.393 0.33192 0.24958 0.0
H595 H 0.3992 0.34074 0.30348 0.0
H596 H 0.56505 0.41545 0.48214 0.0
H597 H 0.57485 0.40754 0.53571 0.0
H598 H 0.54771 0.34119 0.52646 0.0
H599 H 0.53786 0.34921 0.47306 0.0
Nd600 Nd 0.03075 0.62025 0.87416 0.0
Nd601 Nd 0.98477 0.61631 0.9074 0.0
C602 C 0.06412 0.62838 0.83607 0.0
C603 C 0.06881 0.63557 0.80423 0.0
C604 C 0.06086 0.65598 0.79265 0.0
C605 C 0.06695 0.66317 0.76327 0.0
C606 C 0.08088 0.65001 0.74458 0.0
C607 C 0.08855 0.62947 0.75622 0.0
C608 C 0.08262 0.62239 0.78569 0.0
C609 C 0.02418 0.58223 0.90806 0.0
C610 C 0.98547 0.60448 0.83588 0.0
C611 C 0.9545 0.60843 0.95001 0.0
C612 C 0.9521 0.61619 0.98206 0.0
C613 C 0.9425 0.60228 1.00427 0.0
C614 C 0.9404 0.6095 0.03473 0.0
C615 C 0.94785 0.63085 0.04365 0.0
C616 C 0.9577 0.64462 0.02128 0.0
C617 C 0.95985 0.63735 0.9909 0.0
C618 C 0.98885 0.65236 0.87032 0.0
C619 C 0.02865 0.63858 0.94362 0.0
O620 O 0.05586 0.64325 0.85488 0.0
O621 O 0.05564 0.60846 0.84002 0.0
O622 O 0.0433 0.59231 0.90649 0.0
O623 O 0.01001 0.59162 0.8912 0.0
O624 O 0.00531 0.61417 0.83537 0.0
O625 O 0.97487 0.59993 0.86185 0.0
O626 O 0.97117 0.59488 0.94461 0.0
O627 O 0.9521 0.62363 0.92865 0.0
O628 O 0.9699 0.64264 0.87578 0.0
O629 O 0.00421 0.64477 0.8873 0.0
O630 O 0.00824 0.63036 0.94465 0.0
O631 O 0.04067 0.63826 0.9183 0.0
H632 H 0.05017 0.66655 0.80637 0.0
H633 H 0.06054 0.679 0.75518 0.0
H634 H 0.09965 0.61906 0.7429 0.0
H635 H 0.08917 0.60672 0.79422 0.0
H636 H 0.93667 0.58578 0.99807 0.0
H637 H 0.93311 0.59824 0.05133 0.0
H638 H 0.96344 0.66122 0.02705 0.0
H639 H 0.96754 0.64835 0.97427 0.0
H640 H 0.06812 0.16541 0.07736 0.0
H641 H 0.08128 0.1771 0.02645 0.0
H642 H 0.02337 0.14714 0.98484 0.0
H643 H 0.01011 0.13557 0.0351 0.0
H644 H 0.06387 0.13429 0.95787 0.0
H645 H 0.02513 0.2009 0.98947 0.0
H646 H 0.017 0.23267 0.02355 0.0
H647 H 0.08395 0.25654 1.01262 0.0
H648 H 0.09258 0.22469 0.97881 0.0
H649 H 0.06552 0.17233 0.80537 0.0
H650 H 0.05472 0.16499 0.85854 0.0
H651 H 0.11059 0.20387 0.8905 0.0
H652 H 0.12121 0.21159 0.83725 0.0
H653 H 0.07405 0.21265 0.92396 0.0
H654 H 0.11279 0.14727 0.89114 0.0
H655 H 0.12147 0.11557 0.85719 0.0
H656 H 0.05582 0.08909 0.87125 0.0
H657 H 0.04663 0.12084 0.90494 0.0
C658 C 0.05816 0.16144 0.05736 0.0
C659 C 0.03808 0.14956 0.06033 0.0
C660 C 0.06565 0.16818 0.02835 0.0
C661 C 0.05327 0.16297 1.00194 0.0
C662 C 0.03318 0.15129 1.00493 0.0
C663 C 0.02559 0.14478 0.03378 0.0
C664 C 0.06145 0.16883 0.97092 0.0
C665 C 0.06592 0.15143 0.95035 0.0
C666 C 0.06472 0.19116 0.9615 0.0
C667 C 0.05959 0.21025 0.98194 0.0
C668 C 0.03819 0.21278 0.9946 0.0
C669 C 0.03348 0.23083 0.01381 0.0
C670 C 0.04997 0.24657 0.02034 0.0
C671 C 0.07121 0.24431 1.0076 0.0
C672 C 0.07602 0.22626 0.98841 0.0
C673 C 0.0755 0.17926 0.82376 0.0
C674 C 0.09425 0.19242 0.81725 0.0
C675 C 0.06934 0.17507 0.85411 0.0
C676 C 0.08205 0.18361 0.87851 0.0
C677 C 0.10057 0.19709 0.87205 0.0
C678 C 0.1066 0.20148 0.84166 0.0
C679 C 0.07616 0.17809 0.91071 0.0
C680 C 0.07217 0.19551 0.93153 0.0
C681 C 0.07347 0.15573 0.9205 0.0
C682 C 0.07896 0.13654 0.90036 0.0
C683 C 0.10015 0.13478 0.88682 0.0
C684 C 0.10516 0.11679 0.86764 0.0
C685 C 0.08919 0.10035 0.86201 0.0
C686 C 0.06817 0.10185 0.87561 0.0
C687 C 0.06305 0.11983 0.89477 0.0
H688 H 0.0931 0.08643 0.84717 0.0
H689 H 0.04629 0.26055 0.03519 0.0
H690 H 0.11681 0.76151 0.27757 0.0
H691 H 0.10528 0.77653 0.2282 0.0
H692 H 0.07593 0.83333 0.27357 0.0
H693 H 0.08807 0.81862 0.32334 0.0
H694 H 0.06695 0.78509 0.20281 0.0
H695 H 0.08051 0.87901 0.22757 0.0
H696 H 0.10422 0.903 0.26001 0.0
H697 H 0.1545 0.85203 0.26263 0.0
H698 H 0.13122 0.8279 0.22994 0.0
H699 H 0.02525 0.84488 0.07341 0.0
H700 H 0.03213 0.83147 0.12548 0.0
H701 H 0.10089 0.85176 0.11826 0.0
H702 H 0.0937 0.8669 0.06748 0.0
H703 H 0.08839 0.86156 0.17111 0.0
H704 H 0.08125 0.79454 0.11077 0.0
H705 H 0.06328 0.76727 0.07633 0.0
H706 H 0.00905 0.76019 0.13972 0.0
H707 H 0.02663 0.78754 0.17444 0.0
C708 C 0.10791 0.77721 0.2772 0.0
C709 C 0.10348 0.7889 0.30454 0.0
C710 C 0.1012 0.78573 0.24884 0.0
C711 C 0.08981 0.80613 0.24702 0.0
C712 C 0.08498 0.8177 0.2743 0.0
C713 C 0.09189 0.80925 0.30277 0.0
C714 C 0.0835 0.81537 0.21646 0.0
C715 C 0.07154 0.80186 0.1959 0.0
C716 C 0.08981 0.83708 0.20715 0.0
C717 C 0.104 0.85157 0.22662 0.0
C718 C 0.09665 0.87296 0.23502 0.0
C719 C 0.11001 0.88658 0.25346 0.0
C720 C 0.13082 0.87901 0.26348 0.0
C721 C 0.13835 0.85784 0.25498 0.0
C722 C 0.12507 0.84418 0.23652 0.0
C723 C 0.04176 0.84686 0.08306 0.0
C724 C 0.05894 0.85694 0.06595 0.0
C725 C 0.04576 0.83881 0.11276 0.0
C726 C 0.06717 0.84016 0.1258 0.0
C727 C 0.08423 0.8504 0.10885 0.0
C728 C 0.08015 0.85882 0.07949 0.0
C729 C 0.07199 0.83121 0.1571 0.0
C730 C 0.08359 0.84484 0.17796 0.0
C731 C 0.06601 0.80931 0.16624 0.0
C732 C 0.05514 0.79329 0.14503 0.0
C733 C 0.06539 0.78733 0.11722 0.0
C734 C 0.05531 0.77181 0.0977 0.0
C735 C 0.03501 0.76205 0.1058 0.0
C736 C 0.02476 0.76778 0.13346 0.0
C737 C 0.03478 0.78328 0.15307 0.0
H738 H 0.02725 0.75003 0.09069 0.0
H739 H 0.14112 0.88957 0.27776 0.0
H740 H 0.43854 0.81183 0.29659 0.0
H741 H 0.45245 0.81936 0.34841 0.0
H742 H 0.3905 0.7959 0.38654 0.0
H743 H 0.37636 0.78859 0.33476 0.0
H744 H 0.405 0.83575 0.4129 0.0
H745 H 0.43625 0.76336 0.38783 0.0
H746 H 0.45768 0.73792 0.35467 0.0
H747 H 0.51591 0.77863 0.36596 0.0
H748 H 0.49469 0.80465 0.39864 0.0
H749 H 0.43924 0.83566 0.56846 0.0
H750 H 0.42465 0.82397 0.51847 0.0
H751 H 0.49002 0.83188 0.47882 0.0
H752 H 0.5048 0.84174 0.52884 0.0
H753 H 0.4732 0.79901 0.45284 0.0
H754 H 0.44561 0.87221 0.47204 0.0
H755 H 0.42646 0.90214 0.50045 0.0
H756 H 0.36503 0.86563 0.49568 0.0
H757 H 0.3839 0.8353 0.4676 0.0
C758 C 0.42781 0.80841 0.31599 0.0
C759 C 0.40632 0.79958 0.31147 0.0
C760 C 0.43585 0.81257 0.34564 0.0
C761 C 0.4226 0.80803 0.37146 0.0
C762 C 0.40106 0.79948 0.36701 0.0
C763 C 0.39306 0.79516 0.33739 0.0
C764 C 0.43113 0.81225 0.4031 0.0
C765 C 0.41971 0.82746 0.42185 0.0
C766 C 0.45083 0.8021 0.41437 0.0
C767 C 0.46381 0.78605 0.39554 0.0
C768 C 0.45359 0.76696 0.38314 0.0
C769 C 0.46571 0.75244 0.36441 0.0
C770 C 0.48814 0.75666 0.35821 0.0
C771 C 0.49853 0.77539 0.37079 0.0
C772 C 0.48646 0.79004 0.38942 0.0
C773 C 0.45054 0.83466 0.54917 0.0
C774 C 0.47317 0.84025 0.55268 0.0
C775 C 0.44213 0.82818 0.52041 0.0
C776 C 0.45603 0.82759 0.49435 0.0
C777 C 0.47877 0.83232 0.49822 0.0
C778 C 0.48721 0.83833 0.52696 0.0
C779 C 0.44703 0.82258 0.46297 0.0
C780 C 0.45839 0.80725 0.44414 0.0
C781 C 0.42766 0.83317 0.45121 0.0
C782 C 0.41622 0.85137 0.46803 0.0
C783 C 0.42805 0.87049 0.47725 0.0
C784 C 0.41724 0.88753 0.49326 0.0
C785 C 0.39455 0.88576 0.49994 0.0
C786 C 0.38261 0.86696 0.49054 0.0
C787 C 0.39335 0.84984 0.47457 0.0
H788 H 0.38621 0.89898 0.51234 0.0
H789 H 0.49749 0.74539 0.34371 0.0
H790 H 0.41072 0.17205 0.81327 0.0
H791 H 0.42165 0.1601 0.76148 0.0
H792 H 0.3631 0.19175 0.72397 0.0
H793 H 0.35226 0.20391 0.77532 0.0
H794 H 0.37181 0.14927 0.6987 0.0
H795 H 0.40901 0.21874 0.71857 0.0
H796 H 0.43284 0.24452 0.74807 0.0
H797 H 0.48815 0.19964 0.73871 0.0
H798 H 0.46456 0.17338 0.70962 0.0
H799 H 0.40229 0.15556 0.54128 0.0
H800 H 0.39108 0.16577 0.5934 0.0
H801 H 0.45246 0.13858 0.62885 0.0
H802 H 0.46367 0.12807 0.57694 0.0
H803 H 0.44238 0.1787 0.65546 0.0
H804 H 0.40496 0.10937 0.63477 0.0
H805 H 0.38088 0.08382 0.60536 0.0
H806 H 0.32568 0.12871 0.61616 0.0
H807 H 0.34953 0.15471 0.64526 0.0
C808 C 0.39999 0.17606 0.79404 0.0
C809 C 0.38065 0.18889 0.79834 0.0
C810 C 0.40633 0.1694 0.76447 0.0
C811 C 0.39327 0.17522 0.73887 0.0
C812 C 0.37342 0.1871 0.74336 0.0
C813 C 0.36727 0.19403 0.77274 0.0
C814 C 0.40061 0.16972 0.70723 0.0
C815 C 0.38714 0.15584 0.68914 0.0
C816 C 0.42072 0.17814 0.69489 0.0
C817 C 0.43495 0.19396 0.71224 0.0
C818 C 0.42619 0.21426 0.72305 0.0
C819 C 0.43966 0.22898 0.73964 0.0
C820 C 0.46195 0.22369 0.74532 0.0
C821 C 0.47086 0.20369 0.73434 0.0
C822 C 0.45745 0.18888 0.7178 0.0
C823 C 0.41335 0.15162 0.56017 0.0
C824 C 0.43387 0.14094 0.55486 0.0
C825 C 0.40695 0.15754 0.58995 0.0
C826 C 0.42084 0.15277 0.61509 0.0
C827 C 0.4415 0.1425 0.60982 0.0
C828 C 0.44791 0.13656 0.58008 0.0
C829 C 0.41367 0.15805 0.64694 0.0
C830 C 0.42711 0.17201 0.66504 0.0
C831 C 0.39349 0.14974 0.65928 0.0
C832 C 0.37909 0.13408 0.64193 0.0
C833 C 0.38773 0.11388 0.63067 0.0
C834 C 0.37412 0.0993 0.61408 0.0
C835 C 0.35178 0.10466 0.60883 0.0
C836 C 0.34299 0.12459 0.62021 0.0
C837 C 0.35655 0.13925 0.63677 0.0
H838 H 0.34126 0.09335 0.59599 0.0
H839 H 0.47235 0.23511 0.75816 0.0
H840 H 0.87096 0.82119 0.20301 0.0
H841 H 0.88361 0.82753 0.1502 0.0
H842 H 0.95119 0.81322 0.17768 0.0
H843 H 0.93865 0.80685 0.23044 0.0
H844 H 0.94691 0.85158 0.14108 0.0
H845 H 0.92301 0.77597 0.14357 0.0
H846 H 0.89697 0.74499 0.15261 0.0
H847 H 0.85312 0.77073 0.08319 0.0
H848 H 0.87854 0.80237 0.07444 0.0
H849 H 0.99482 0.84551 0.99443 0.0
H850 H 0.98262 0.83502 0.04573 0.0
H851 H 0.91401 0.84008 0.01683 0.0
H852 H 0.92617 0.8501 0.96496 0.0
H853 H 0.91915 0.80551 0.05457 0.0
H854 H 0.94106 0.8826 0.05534 0.0
H855 H 0.9661 0.91474 0.0479 0.0
H856 H 0.01282 0.88655 0.11176 0.0
H857 H 0.98834 0.85395 0.11903 0.0
C858 C 0.88853 0.81956 0.19777 0.0
C859 C 0.90384 0.81351 0.22075 0.0
C860 C 0.8957 0.82305 0.16764 0.0
C861 C 0.91831 0.82071 0.16006 0.0
C862 C 0.93368 0.81508 0.18308 0.0
C863 C 0.92648 0.81132 0.21311 0.0
C864 C 0.92597 0.82406 0.12808 0.0
C865 C 0.94108 0.84134 0.12219 0.0
C866 C 0.91794 0.81091 0.10348 0.0
C867 C 0.90262 0.79177 0.10859 0.0
C868 C 0.90766 0.77527 0.13053 0.0
C869 C 0.893 0.75756 0.13561 0.0
C870 C 0.87338 0.7559 0.11852 0.0
C871 C 0.86833 0.77203 0.09642 0.0
C872 C 0.88285 0.7899 0.09144 0.0
C873 C 0.97711 0.84426 0.99886 0.0
C874 C 0.96144 0.84889 0.97566 0.0
C875 C 0.97016 0.83829 0.02828 0.0
C876 C 0.94738 0.83722 0.03537 0.0
C877 C 0.93168 0.8409 1.01194 0.0
C878 C 0.93864 0.84664 0.98231 0.0
C879 C 0.93999 0.83321 0.06746 0.0
C880 C 0.92498 0.81576 0.07344 0.0
C881 C 0.94802 0.84627 0.09223 0.0
C882 C 0.96292 0.86574 0.08755 0.0
C883 C 0.95677 0.88314 0.06758 0.0
C884 C 0.97085 0.90145 0.06342 0.0
C885 C 0.99098 0.90269 0.07943 0.0
C886 C -0.00284 0.88559 0.09949 0.0
C887 C 0.98322 0.86717 0.10357 0.0
H888 H 0.00181 0.91688 0.07628 0.0
H889 H 0.86211 0.7421 0.12236 0.0
H890 H 0.90622 0.25764 0.75623 0.0
H891 H 0.91445 0.24368 0.80779 0.0
H892 H 0.92679 0.17817 0.77075 0.0
H893 H 0.91881 0.19199 0.71901 0.0
H894 H 0.89543 0.18045 0.82091 0.0
H895 H 0.96811 0.20726 0.79209 0.0
H896 H 0.99465 0.23588 0.77458 0.0
H897 H 0.98144 0.27485 0.85512 0.0
H898 H 0.9548 0.24652 0.87305 0.0
H899 H 0.93448 0.12504 0.95357 0.0
H900 H 0.92962 0.14044 0.90202 0.0
H901 H 0.93392 0.20714 0.93872 0.0
H902 H 0.93928 0.19175 0.99028 0.0
H903 H 0.95722 0.20504 0.8885 0.0
H904 H 0.88381 0.1834 0.91624 0.0
H905 H 0.85349 0.159 0.93417 0.0
H906 H 0.86468 0.11486 0.8582 0.0
H907 H 0.89528 0.13889 0.83998 0.0
C908 C 0.91099 0.24032 0.75894 0.0
C909 C 0.91192 0.22593 0.73342 0.0
C910 C 0.91573 0.2324 0.78844 0.0
C911 C 0.92132 0.20993 0.79302 0.0
C912 C 0.92257 0.1956 0.76762 0.0
C913 C 0.91813 0.20356 0.73806 0.0
C914 C 0.92463 0.20104 0.82446 0.0
C915 C 0.9091 0.18559 0.8356 0.0
C916 C 0.94206 0.20843 0.84386 0.0
C917 C 0.95885 0.22503 0.83351 0.0
C918 C 0.97061 0.22205 0.8059 0.0
C919 C 0.9858 0.23818 0.79596 0.0
C920 C 0.98953 0.2573 0.81355 0.0
C921 C 0.97839 0.26013 0.84137 0.0
C922 C 0.96323 0.24404 0.85143 0.0
C923 C 0.93419 0.14299 0.95067 0.0
C924 C 0.93716 0.15718 0.97599 0.0
C925 C 0.9314 0.15179 0.92119 0.0
C926 C 0.93112 0.17499 0.91644 0.0
C927 C 0.93413 0.1892 0.94173 0.0
C928 C 0.93717 0.18039 0.97118 0.0
C929 C 0.92797 0.18437 0.88506 0.0
C930 C 0.94353 0.19988 0.87388 0.0
C931 C 0.91022 0.17752 0.8658 0.0
C932 C 0.892 0.16286 0.8769 0.0
C933 C 0.87994 0.16842 0.90347 0.0
C934 C 0.86267 0.15466 0.91366 0.0
C935 C 0.85719 0.13536 0.89738 0.0
C936 C 0.86896 0.1298 0.87082 0.0
C937 C 0.88626 0.14349 0.86054 0.0
H938 H 0.84381 0.12474 0.9053 0.0
H939 H 0.00108 0.26989 0.80569 0.0
H940 H 0.58478 0.17641 0.7194 0.0
H941 H 0.57428 0.16551 0.66721 0.0
H942 H 0.63173 0.19986 0.63147 0.0
H943 H 0.64239 0.21079 0.68379 0.0
H944 H 0.59195 0.20822 0.59764 0.0
H945 H 0.63406 0.14595 0.63474 0.0
H946 H 0.64441 0.11623 0.6712 0.0
H947 H 0.57944 0.08707 0.66183 0.0
H948 H 0.56858 0.11682 0.62563 0.0
H949 H 0.57884 0.15953 0.4473 0.0
H950 H 0.59477 0.17197 0.49639 0.0
H951 H 0.54486 0.13439 0.54518 0.0
H952 H 0.5291 0.12184 0.4968 0.0
H953 H 0.58453 0.12816 0.57089 0.0
H954 H 0.54119 0.19097 0.53733 0.0
H955 H 0.52951 0.22091 0.50197 0.0
H956 H 0.59518 0.24919 0.5055 0.0
H957 H 0.60734 0.21919 0.54056 0.0
C958 C 0.59512 0.18176 0.70043 0.0
C959 C 0.61446 0.19444 0.7058 0.0
C960 C 0.58916 0.17541 0.6706 0.0
C961 C 0.60227 0.18174 0.64536 0.0
C962 C 0.62137 0.19475 0.65055 0.0
C963 C 0.62752 0.20085 0.68047 0.0
C964 C 0.59605 0.17451 0.61372 0.0
C965 C 0.5907 0.19072 0.5916 0.0
C966 C 0.59398 0.15168 0.60594 0.0
C967 C 0.60044 0.13375 0.62769 0.0
C968 C 0.62191 0.13332 0.64066 0.0
C969 C 0.62788 0.11644 0.66124 0.0
C970 C 0.61257 0.0998 0.66889 0.0
C971 C 0.59127 0.09998 0.65591 0.0
C972 C 0.58521 0.11684 0.63534 0.0
C973 C 0.57132 0.15387 0.46849 0.0
C974 C 0.55263 0.13971 0.46793 0.0
C975 C 0.58038 0.16109 0.49657 0.0
C976 C 0.57095 0.15426 0.52463 0.0
C977 C 0.5525 0.13991 0.52399 0.0
C978 C 0.54343 0.1328 0.49611 0.0
C979 C 0.58008 0.16185 0.55481 0.0
C980 C 0.58598 0.14568 0.57674 0.0
C981 C 0.58248 0.18471 0.56243 0.0
C982 C 0.57525 0.20267 0.54124 0.0
C983 C 0.5532 0.20344 0.53032 0.0
C984 C 0.54648 0.22045 0.51038 0.0
C985 C 0.56162 0.2369 0.5014 0.0
C986 C 0.58349 0.2364 0.51241 0.0
C987 C 0.5903 0.21941 0.53232 0.0
H988 H 0.55638 0.25006 0.48599 0.0
H989 H 0.61723 0.08674 0.68481 0.0
H990 H 0.59391 0.81761 0.47183 0.0
H991 H 0.59932 0.80223 0.42049 0.0
H992 H 0.55367 0.85086 0.38339 0.0
H993 H 0.5483 0.86651 0.43473 0.0
H994 H 0.54629 0.80969 0.35917 0.0
H995 H 0.60943 0.85743 0.3748 0.0
H996 H 0.64228 0.8719 0.40234 0.0
H997 H 0.67363 0.80764 0.39659 0.0
H998 H 0.64081 0.79269 0.36939 0.0
H999 H 0.58488 0.7965 0.20124 0.0
H1000 H 0.57337 0.81094 0.25158 0.0
H1001 H 0.61287 0.76036 0.29628 0.0
H1002 H 0.62408 0.74574 0.2466 0.0
H1003 H 0.62237 0.80384 0.31567 0.0
H1004 H 0.55995 0.75579 0.30057 0.0
H1005 H 0.52635 0.73977 0.2767 0.0
H1006 H 0.49321 0.80306 0.28327 0.0
H1007 H 0.52679 0.8196 0.30665 0.0
C1008 C 0.58517 0.82521 0.45274 0.0
C1009 C 0.57079 0.84342 0.45746 0.0
C1010 C 0.58823 0.81633 0.42338 0.0
C1011 C 0.57711 0.82555 0.39797 0.0
C1012 C 0.56242 0.84346 0.40262 0.0
C1013 C 0.55934 0.85236 0.43202 0.0
C1014 C 0.58106 0.81661 0.36656 0.0
C1015 C 0.56287 0.80875 0.34938 0.0
C1016 C 0.60276 0.81491 0.3541 0.0
C1017 C 0.62257 0.82389 0.37029 0.0
C1018 C 0.62326 0.84634 0.3796 0.0
C1019 C 0.64188 0.85464 0.39513 0.0
C1020 C 0.66001 0.84069 0.40127 0.0
C1021 C 0.65956 0.81842 0.39184 0.0
C1022 C 0.64096 0.81003 0.37635 0.0
C1023 C 0.59089 0.7883 0.22179 0.0
C1024 C 0.60554 0.77 0.21974 0.0
C1025 C 0.58421 0.79651 0.25054 0.0
C1026 C 0.59226 0.78672 0.2777 0.0
C1027 C 0.60644 0.76819 0.27566 0.0
C1028 C 0.61285 0.75984 0.24711 0.0
C1029 C 0.58761 0.79677 0.30824 0.0
C1030 C 0.60573 0.80491 0.32527 0.0
C1031 C 0.56585 0.79864 0.32051 0.0
C1032 C 0.54609 0.78906 0.30482 0.0
C1033 C 0.54568 0.76643 0.29636 0.0
C1034 C 0.52658 0.75722 0.28305 0.0
C1035 C 0.50771 0.77043 0.27829 0.0
C1036 C 0.50789 0.79288 0.2868 0.0
C1037 C 0.52696 0.80219 0.30005 0.0
H1038 H 0.49289 0.76323 0.26816 0.0
H1039 H 0.67441 0.84714 0.41329 0.0
H1040 H 0.63867 0.63773 0.31609 0.0
H1041 H 0.62649 0.62889 0.36805 0.0
H1042 H 0.60488 0.69676 0.38071 0.0
H1043 H 0.61581 0.70563 0.32804 0.0
H1044 H 0.63195 0.67686 0.43119 0.0
H1045 H 0.56685 0.66273 0.369 0.0
H1046 H 0.54631 0.64569 0.32598 0.0
H1047 H 0.56182 0.58035 0.36025 0.0
H1048 H 0.58301 0.59697 0.40303 0.0
H1049 H 0.5717 0.65998 0.57077 0.0
H1050 H 0.58653 0.67096 0.52066 0.0
H1051 H 0.58516 0.60209 0.49162 0.0
H1052 H 0.56873 0.59156 0.54098 0.0
H1053 H 0.56981 0.62391 0.44859 0.0
H1054 H 0.63579 0.63559 0.50869 0.0
H1055 H 0.65844 0.65065 0.55114 0.0
H1056 H 0.64414 0.71743 0.52133 0.0
H1057 H 0.62117 0.70277 0.47891 0.0
C1058 C 0.631 0.6508 0.32954 0.0
C1059 C 0.62809 0.67242 0.31735 0.0
C1060 C 0.62423 0.6457 0.35947 0.0
C1061 C 0.61471 0.66213 0.37825 0.0
C1062 C 0.61227 0.68384 0.36665 0.0
C1063 C 0.61868 0.68889 0.33648 0.0
C1064 C 0.60699 0.65642 0.40976 0.0
C1065 C 0.6182 0.66548 0.43512 0.0
C1066 C 0.58947 0.64108 0.41482 0.0
C1067 C 0.57676 0.6311 0.38904 0.0
C1068 C 0.56612 0.64473 0.36718 0.0
C1069 C 0.5543 0.63515 0.34288 0.0
C1070 C 0.55276 0.61197 0.34037 0.0
C1071 C 0.56305 0.59831 0.36218 0.0
C1072 C 0.57499 0.60779 0.38644 0.0
C1073 C 0.57512 0.6472 0.55385 0.0
C1074 C 0.56954 0.62489 0.5598 0.0
C1075 C 0.58365 0.65344 0.52515 0.0
C1076 C 0.58741 0.63738 0.50211 0.0
C1077 C 0.58246 0.61492 0.50871 0.0
C1078 C 0.57332 0.60881 0.53705 0.0
C1079 C 0.59502 0.644 0.47058 0.0
C1080 C 0.58368 0.63519 0.44502 0.0
C1081 C 0.61274 0.65923 0.46538 0.0
C1082 C 0.62659 0.66808 0.49081 0.0
C1083 C 0.63735 0.65349 0.51131 0.0
C1084 C 0.65027 0.66195 0.53535 0.0
C1085 C 0.65268 0.68498 0.53897 0.0
C1086 C 0.64223 0.6996 0.51852 0.0
C1087 C 0.62929 0.69122 0.49446 0.0
H1088 H 0.66268 0.6915 0.5576 0.0
H1089 H 0.54357 0.60459 0.32157 0.0
H1090 H 0.61827 0.34309 0.82375 0.0
H1091 H 0.60587 0.35907 0.77476 0.0
H1092 H 0.63665 0.3045 0.72634 0.0
H1093 H 0.64959 0.28888 0.77472 0.0
H1094 H 0.64298 0.34084 0.6953 0.0
H1095 H 0.57994 0.3058 0.74296 0.0
H1096 H 0.55299 0.29925 0.78465 0.0
H1097 H 0.53088 0.36723 0.77838 0.0
H1098 H 0.55792 0.37426 0.73684 0.0
H1099 H 0.58303 0.33584 0.55575 0.0
H1100 H 0.59636 0.3275 0.60757 0.0
H1101 H 0.57154 0.3909 0.63923 0.0
H1102 H 0.55804 0.39938 0.58727 0.0
H1103 H 0.56216 0.35429 0.67987 0.0
H1104 H 0.62458 0.38683 0.62701 0.0
H1105 H 0.65139 0.39065 0.58453 0.0
H1106 H 0.67426 0.32368 0.59985 0.0
H1107 H 0.64733 0.31933 0.64214 0.0
C1108 C 0.62279 0.33474 0.80262 0.0
C1109 C 0.6349 0.31464 0.80328 0.0
C1110 C 0.61549 0.34379 0.77461 0.0
C1111 C 0.62 0.3328 0.74675 0.0
C1112 C 0.63293 0.31331 0.7474 0.0
C1113 C 0.64029 0.30435 0.77522 0.0
C1114 C 0.61073 0.34089 0.7169 0.0
C1115 C 0.62529 0.34366 0.69198 0.0
C1116 C 0.58765 0.34488 0.71244 0.0
C1117 C 0.57113 0.34063 0.73705 0.0
C1118 C 0.56943 0.31939 0.75061 0.0
C1119 C 0.55413 0.31559 0.7742 0.0
C1120 C 0.5403 0.33283 0.78427 0.0
C1121 C 0.54165 0.35389 0.77062 0.0
C1122 C 0.55694 0.3578 0.74702 0.0
C1123 C 0.58017 0.34793 0.57378 0.0
C1124 C 0.56949 0.36831 0.5673 0.0
C1125 C 0.58793 0.34319 0.60338 0.0
C1126 C 0.58511 0.35864 0.62728 0.0
C1127 C 0.57394 0.37875 0.62115 0.0
C1128 C 0.56638 0.38363 0.5914 0.0
C1129 C 0.59443 0.35391 0.65835 0.0
C1130 C 0.57988 0.35174 0.6834 0.0
C1131 C 0.61748 0.35007 0.66286 0.0
C1132 C 0.6338 0.3527 0.63758 0.0
C1133 C 0.6352 0.37286 0.62117 0.0
C1134 C 0.65044 0.37513 0.59714 0.0
C1135 C 0.66448 0.3574 0.58945 0.0
C1136 C 0.66335 0.33739 0.60581 0.0
C1137 C 0.64812 0.33502 0.62983 0.0
H1138 H 0.67627 0.35919 0.57084 0.0
H1139 H 0.5285 0.32986 0.80258 0.0
H1140 H -0.00162 0.34749 0.03977 0.0
H1141 H 0.98343 0.33659 0.99 0.0
H1142 H 0.91853 0.32738 0.03034 0.0
H1143 H 0.93347 0.33807 0.08061 0.0
H1144 H 0.92848 0.29533 0.98495 0.0
H1145 H 0.93 0.37559 0.99671 0.0
H1146 H 0.94867 0.41108 1.00902 0.0
H1147 H 0.99533 0.40032 0.93593 0.0
H1148 H 0.97718 0.3645 0.92354 0.0
H1149 H 0.86366 0.30592 0.84848 0.0
H1150 H 0.87943 0.30988 0.90008 0.0
H1151 H 0.94264 0.32869 0.86076 0.0
H1152 H 0.92677 0.3253 0.8093 0.0
H1153 H 0.93396 0.35494 0.90625 0.0
H1154 H 0.93057 0.27671 0.89029 0.0
H1155 H 0.91319 0.24049 0.87822 0.0
H1156 H 0.87248 0.24544 0.95873 0.0
H1157 H 0.8889 0.28211 0.97067 0.0
C1158 C 0.98099 0.34285 0.03829 0.0
C1159 C 0.96707 0.34395 0.06421 0.0
C1160 C 0.97247 0.3366 1.00973 0.0
C1161 C 0.94977 0.33154 1.00632 0.0
C1162 C 0.93609 0.33128 0.03244 0.0
C1163 C 0.94465 0.33745 0.06115 0.0
C1164 C 0.94005 0.32853 0.97519 0.0
C1165 C 0.92938 0.3084 0.96778 0.0
C1166 C 0.9418 0.34542 0.9526 0.0
C1167 C 0.95231 0.36729 0.95934 0.0
C1168 C 0.94431 0.38075 0.98335 0.0
C1169 C 0.95482 0.40091 0.99037 0.0
C1170 C 0.97325 0.40792 0.97336 0.0
C1171 C 0.98111 0.39482 0.94917 0.0
C1172 C 0.9707 0.3746 0.9421 0.0
C1173 C 0.88093 0.31084 0.85091 0.0
C1174 C 0.89395 0.31539 0.82485 0.0
C1175 C 0.88996 0.31305 0.8804 0.0
C1176 C 0.91234 0.31938 0.88442 0.0
C1177 C 0.92533 0.32389 0.85836 0.0
C1178 C 0.91623 0.32197 0.82893 0.0
C1179 C 0.9222 0.32165 0.9157 0.0
C1180 C 0.93296 0.34173 0.92323 0.0
C1181 C 0.92067 0.30457 0.9382 0.0
C1182 C 0.91087 0.28234 0.93123 0.0
C1183 C 0.91778 0.27018 0.90531 0.0
C1184 C 0.90811 0.24956 0.89848 0.0
C1185 C 0.89182 0.24064 0.91774 0.0
C1186 C 0.88511 0.25237 0.94383 0.0
C1187 C 0.89454 0.27313 0.95058 0.0
H1188 H 0.88438 0.22468 0.9124 0.0
H1189 H 0.98139 0.42353 0.97888 0.0
H1190 H 0.88414 0.67817 0.31814 0.0
H1191 H 0.89492 0.66374 0.26795 0.0
H1192 H 0.93971 0.71945 0.25592 0.0
H1193 H 0.92728 0.73483 0.30505 0.0
H1194 H 0.92384 0.71343 0.20544 0.0
H1195 H 0.95641 0.6609 0.27303 0.0
H1196 H 0.95909 0.63404 0.31575 0.0
H1197 H 0.9108 0.59189 0.27193 0.0
H1198 H 0.90761 0.61864 0.22912 0.0
H1199 H 0.97641 0.65674 0.07813 0.0
H1200 H 0.9706 0.67119 0.1301 0.0
H1201 H 0.90744 0.63732 0.13474 0.0
H1202 H 0.91269 0.62329 0.08263 0.0
H1203 H 0.93654 0.63262 0.18852 0.0
H1204 H 0.90767 0.68987 0.11878 0.0
H1205 H 0.91253 0.71642 0.07607 0.0
H1206 H 0.96408 0.75012 0.12622 0.0
H1207 H 0.95986 0.72348 0.16899 0.0
C1208 C 0.89649 0.68715 0.30488 0.0
C1209 C 0.90512 0.70743 0.31563 0.0
C1210 C 0.90281 0.67883 0.27616 0.0
C1211 C 0.9187 0.69005 0.25806 0.0
C1212 C 0.92748 0.7103 0.26913 0.0
C1213 C 0.92052 0.71904 0.29738 0.0
C1214 C 0.92552 0.68109 0.22728 0.0
C1215 C 0.92697 0.69578 0.2021 0.0
C1216 C 0.92979 0.65806 0.2223 0.0
C1217 C 0.93163 0.64189 0.24799 0.0
C1218 C 0.94625 0.64598 0.2726 0.0
C1219 C 0.94788 0.63076 0.29682 0.0
C1220 C 0.93509 0.6113 0.29659 0.0
C1221 C 0.92068 0.60699 0.27209 0.0
C1222 C 0.91898 0.62216 0.24782 0.0
C1223 C 0.96115 0.65252 0.09001 0.0
C1224 C 0.94495 0.63891 0.07591 0.0
C1225 C 0.95794 0.66073 0.11979 0.0
C1226 C 0.93851 0.65551 0.13615 0.0
C1227 C 0.92258 0.64153 0.12254 0.0
C1228 C 0.92569 0.63343 0.09273 0.0
C1229 C 0.93445 0.66489 0.16724 0.0
C1230 C 0.93354 0.65025 0.19231 0.0
C1231 C 0.93169 0.68804 0.17231 0.0
C1232 C 0.93364 0.70448 0.14695 0.0
C1233 C 0.92019 0.70281 0.12059 0.0
C1234 C 0.92285 0.71785 0.09635 0.0
C1235 C 0.93872 0.73483 0.09833 0.0
C1236 C 0.95186 0.7369 0.12467 0.0
C1237 C 0.94933 0.72183 0.14892 0.0
H1238 H 0.94071 0.74651 0.07958 0.0
H1239 H 0.93637 0.59954 0.31537 0.0
H1240 H 0.43138 0.33544 0.45272 0.0
H1241 H 0.41685 0.32453 0.50322 0.0
H1242 H 0.47667 0.34919 0.5462 0.0
H1243 H 0.49123 0.36014 0.49634 0.0
H1244 H 0.43315 0.296 0.54978 0.0
H1245 H 0.46178 0.3757 0.61242 0.0
H1246 H 0.47032 0.415 0.60021 0.0
H1247 H 0.4247 0.41293 0.52432 0.0
H1248 H 0.41557 0.3738 0.5364 0.0
H1249 H 0.42692 0.28179 0.71221 0.0
H1250 H 0.43965 0.2906 0.6603 0.0
H1251 H 0.38591 0.33781 0.65014 0.0
H1252 H 0.373 0.32901 0.70192 0.0
H1253 H 0.42391 0.355 0.62859 0.0
H1254 H 0.38403 0.28563 0.61685 0.0
H1255 H 0.37595 0.24631 0.62926 0.0
H1256 H 0.44226 0.22776 0.60268 0.0
H1257 H 0.45085 0.26703 0.59051 0.0
C1258 C 0.44148 0.33846 0.4729 0.0
C1259 C 0.46243 0.34884 0.47032 0.0
C1260 C 0.43319 0.33212 0.50175 0.0
C1261 C 0.44557 0.33623 0.52856 0.0
C1262 C 0.46668 0.34607 0.52593 0.0
C1263 C 0.47499 0.35232 0.49725 0.0
C1264 C 0.43626 0.33108 0.55946 0.0
C1265 C 0.43108 0.30889 0.56699 0.0
C1266 C 0.43344 0.34791 0.58194 0.0
C1267 C 0.43816 0.37173 0.57517 0.0
C1268 C 0.45345 0.38368 0.59327 0.0
C1269 C 0.45841 0.40592 0.58635 0.0
C1270 C 0.44811 0.41641 0.56144 0.0
C1271 C 0.43271 0.40476 0.54355 0.0
C1272 C 0.42764 0.38255 0.55042 0.0
C1273 C 0.4177 0.29395 0.69889 0.0
C1274 C 0.3989 0.30468 0.71135 0.0
C1275 C 0.42503 0.29899 0.66917 0.0
C1276 C 0.41362 0.31472 0.65108 0.0
C1277 C 0.39504 0.32566 0.6636 0.0
C1278 C 0.38773 0.32066 0.69332 0.0
C1279 C 0.421 0.31985 0.61914 0.0
C1280 C 0.4259 0.34207 0.6114 0.0
C1281 C 0.42348 0.30304 0.5965 0.0
C1282 C 0.41813 0.27932 0.60297 0.0
C1283 C 0.39692 0.27318 0.61376 0.0
C1284 C 0.39225 0.2509 0.62076 0.0
C1285 C 0.4086 0.23455 0.61683 0.0
C1286 C 0.42962 0.24044 0.60574 0.0
C1287 C 0.43439 0.26271 0.59875 0.0
H1288 H 0.40498 0.21731 0.62234 0.0
H1289 H 0.45205 0.43357 0.55601 0.0
H1290 H 0.47753 0.62594 0.43433 0.0
H1291 H 0.46549 0.63333 0.38165 0.0
H1292 H 0.40586 0.66489 0.41564 0.0
H1293 H 0.41731 0.65677 0.46821 0.0
H1294 H 0.39541 0.63892 0.37001 0.0
H1295 H 0.4512 0.69415 0.38731 0.0
H1296 H 0.48813 0.70946 0.4002 0.0
H1297 H 0.51698 0.6746 0.324 0.0
H1298 H 0.48035 0.65845 0.31121 0.0
H1299 H 0.36223 0.7054 0.24398 0.0
H1300 H 0.37673 0.69121 0.29251 0.0
H1301 H 0.42513 0.6517 0.24397 0.0
H1302 H 0.41067 0.66599 0.19475 0.0
H1303 H 0.44278 0.67824 0.29414 0.0
H1304 H 0.38436 0.62553 0.27574 0.0
H1305 H 0.34618 0.61363 0.26288 0.0
H1306 H 0.32108 0.64788 0.34209 0.0
H1307 H 0.35902 0.66059 0.35494 0.0
C1308 C 0.46176 0.63431 0.43065 0.0
C1309 C 0.44845 0.64076 0.45575 0.0
C1310 C 0.455 0.63874 0.40042 0.0
C1311 C 0.43482 0.64988 0.39448 0.0
C1312 C 0.42151 0.65631 0.41947 0.0
C1313 C 0.42822 0.65184 0.44965 0.0
C1314 C 0.42725 0.65452 0.36236 0.0
C1315 C 0.40577 0.64768 0.35357 0.0
C1316 C 0.44085 0.66553 0.34047 0.0
C1317 C 0.46304 0.67478 0.34859 0.0
C1318 C 0.46548 0.68941 0.37361 0.0
C1319 C 0.48637 0.69824 0.3809 0.0
C1320 C 0.50493 0.69286 0.36307 0.0
C1321 C 0.50263 0.6786 0.33794 0.0
C1322 C 0.48181 0.66956 0.33069 0.0
C1323 C 0.37576 0.69343 0.24347 0.0
C1324 C 0.38522 0.68673 0.21542 0.0
C1325 C 0.38399 0.68532 0.27131 0.0
C1326 C 0.4019 0.67032 0.27196 0.0
C1327 C 0.41124 0.66324 0.24402 0.0
C1328 C 0.40283 0.67122 0.21592 0.0
C1329 C 0.41099 0.66278 0.30211 0.0
C1330 C 0.43265 0.66917 0.31054 0.0
C1331 C 0.39745 0.6517 0.32389 0.0
C1332 C 0.37456 0.64414 0.31619 0.0
C1333 C 0.37068 0.63074 0.29024 0.0
C1334 C 0.34907 0.62387 0.28294 0.0
C1335 C 0.3312 0.6301 0.30157 0.0
C1336 C 0.33492 0.64318 0.32758 0.0
C1337 C 0.35648 0.65023 0.33488 0.0
H1338 H 0.31448 0.62472 0.29592 0.0
H1339 H 0.52106 0.69984 0.36863 0.0
H1340 H 0.11259 0.6551 0.20737 0.0
H1341 H 0.09841 0.65038 0.15539 0.0
H1342 H 0.08952 0.72155 0.14723 0.0
H1343 H 0.1027 0.72634 0.19998 0.0
H1344 H 0.05512 0.70144 0.123 0.0
H1345 H 0.13332 0.69456 0.11149 0.0
H1346 H 0.17122 0.68087 0.12264 0.0
H1347 H 0.15115 0.61417 0.09986 0.0
H1348 H 0.11303 0.62741 0.08899 0.0
H1349 H 0.0687 0.66012 0.9513 0.0
H1350 H 0.08439 0.675 0.99895 0.0
H1351 H 0.02603 0.65327 0.04831 0.0
H1352 H 0.01013 0.63882 1.00095 0.0
H1353 H 0.09686 0.65506 0.04837 0.0
H1354 H 0.01593 0.68543 0.10991 0.0
H1355 H 0.9802 0.70322 0.09644 0.0
H1356 H 0.00921 0.73021 0.01453 0.0
H1357 H 0.04524 0.71285 0.02764 0.0
C1358 C 0.10744 0.66978 0.19472 0.0
C1359 C 0.10886 0.69112 0.20799 0.0
C1360 C 0.09956 0.66707 0.16477 0.0
C1361 C 0.09321 0.68563 0.1471 0.0
C1362 C 0.09443 0.70697 0.16029 0.0
C1363 C 0.1022 0.70969 0.19039 0.0
C1364 C 0.08511 0.68256 0.11504 0.0
C1365 C 0.06427 0.69135 0.10665 0.0
C1366 C 0.09733 0.67002 0.09325 0.0
C1367 C 0.12026 0.66197 0.09963 0.0
C1368 C 0.13695 0.67695 0.10905 0.0
C1369 C 0.15848 0.66927 0.1153 0.0
C1370 C 0.16358 0.64666 0.11201 0.0
C1371 C 0.14717 0.63168 0.10241 0.0
C1372 C 0.1256 0.63927 0.09616 0.0
C1373 C 0.05913 0.65866 0.97225 0.0
C1374 C 0.03813 0.64827 0.97218 0.0
C1375 C 0.06813 0.66718 0.99951 0.0
C1376 C 0.05633 0.66552 0.02727 0.0
C1377 C 0.03531 0.65524 0.02718 0.0
C1378 C 0.02628 0.64683 0.99998 0.0
C1379 C 0.06648 0.67321 0.05666 0.0
C1380 C 0.08774 0.66529 0.06458 0.0
C1381 C 0.05489 0.68707 0.07763 0.0
C1382 C 0.03327 0.69764 0.06965 0.0
C1383 C 0.01474 0.69524 0.08909 0.0
C1384 C 0.99442 0.70525 0.08152 0.0
C1385 C 0.99241 0.71778 0.05464 0.0
C1386 C 0.01075 0.7204 0.03529 0.0
C1387 C 0.03113 0.71045 0.04275 0.0
H1388 H 0.97664 0.72549 0.04884 0.0
H1389 H 0.18026 0.64075 0.11686 0.0
H1390 H 0.11925 0.27566 0.7513 0.0
H1391 H 0.10697 0.2911 0.80009 0.0
H1392 H 0.06661 0.33943 0.75205 0.0
H1393 H 0.07902 0.32394 0.70278 0.0
H1394 H 0.08794 0.35832 0.7995 0.0
H1395 H 0.04499 0.29256 0.78392 0.0
H1396 H 0.03804 0.25279 0.77353 0.0
H1397 H 0.07138 0.23494 0.85717 0.0
H1398 H 0.07969 0.27445 0.86728 0.0
H1399 H 0.03625 0.39024 0.94083 0.0
H1400 H 0.04168 0.37712 0.88809 0.0
H1401 H 0.083 0.32342 0.92162 0.0
H1402 H 0.07724 0.33617 0.97417 0.0
H1403 H 0.05605 0.30838 0.87887 0.0
H1404 H 0.10468 0.37249 0.8891 0.0
H1405 H 0.11259 0.41203 0.90033 0.0
H1406 H 0.06802 0.43218 0.82832 0.0
H1407 H 0.05963 0.39274 0.81693 0.0
C1408 C 0.10753 0.28937 0.75103 0.0
C1409 C 0.0997 0.29823 0.72316 0.0
C1410 C 0.10059 0.29827 0.779 0.0
C1411 C 0.08545 0.31611 0.77981 0.0
C1412 C 0.07815 0.32553 0.752 0.0
C1413 C 0.08525 0.31668 0.72388 0.0
C1414 C 0.07738 0.3248 0.80978 0.0
C1415 C 0.08063 0.34745 0.81665 0.0
C1416 C 0.06808 0.31055 0.83238 0.0
C1417 C 0.06319 0.2866 0.82621 0.0
C1418 C 0.05121 0.28017 0.79987 0.0
C1419 C 0.0471 0.25762 0.79396 0.0
C1420 C 0.05438 0.24132 0.81459 0.0
C1421 C 0.06591 0.24754 0.84107 0.0
C1422 C 0.07041 0.27002 0.84684 0.0
C1423 C 0.04651 0.37567 0.93687 0.0
C1424 C 0.0563 0.36424 0.96165 0.0
C1425 C 0.04962 0.36819 0.90674 0.0
C1426 C 0.06295 0.34938 0.90078 0.0
C1427 C 0.07257 0.33789 0.92557 0.0
C1428 C 0.06927 0.34521 0.95563 0.0
C1429 C 0.0673 0.34167 0.86886 0.0
C1430 C 0.06323 0.31922 0.86157 0.0
C1431 C 0.07596 0.35601 0.84597 0.0
C1432 C 0.08136 0.37969 0.85237 0.0
C1433 C 0.09649 0.38536 0.87577 0.0
C1434 C 0.10106 0.40775 0.88216 0.0
C1435 C 0.09076 0.42461 0.86511 0.0
C1436 C 0.07595 0.41911 0.84154 0.0
C1437 C 0.0713 0.39674 0.83509 0.0
H1438 H 0.0943 0.44193 0.8701 0.0
H1439 H 0.05099 0.2239 0.8101 0.0
H1440 H 0.984 0.31733 0.18519 0.0
H1441 H 0.98746 0.28751 0.22326 0.0
H1442 H 0.0519 0.31267 0.25021 0.0
H1443 H 0.04849 0.34245 0.21238 0.0
H1444 H 0.05448 0.27299 0.22256 0.0
H1445 H 0.02087 0.29891 0.30781 0.0
H1446 H 0.99679 0.31711 0.34595 0.0
H1447 H 0.94273 0.27389 0.32112 0.0
H1448 H 0.96629 0.2556 0.28242 0.0
H1449 H 0.03594 0.15999 0.20292 0.0
H1450 H 0.04626 0.18922 0.23966 0.0
H1451 H 0.98298 0.22154 0.22346 0.0
H1452 H 0.97241 0.19174 0.18843 0.0
H1453 H -0.00285 0.23104 0.28036 0.0
H1454 H 0.03427 0.23044 0.17352 0.0
H1455 H 0.06037 0.21168 0.1381 0.0
H1456 H 0.10972 0.20863 0.20946 0.0
H1457 H 0.08376 0.22714 0.2453 0.0
C1458 C -0.00144 0.31685 0.19987 0.0
C1459 C 0.01629 0.33162 0.19515 0.0
C1460 C 0.00041 0.30005 0.22202 0.0
C1461 C 0.02004 0.29782 0.23951 0.0
C1462 C 0.03664 0.31411 0.23704 0.0
C1463 C 0.03478 0.33088 0.21502 0.0
C1464 C 0.02568 0.27557 0.2519 0.0
C1465 C 0.04248 0.26391 0.23637 0.0
C1466 C 0.01064 0.26375 0.27071 0.0
C1467 C 0.99555 0.27566 0.29226 0.0
C1468 C 0.0038 0.29337 0.31019 0.0
C1469 C 0.99023 0.30369 0.33202 0.0
C1470 C 0.96832 0.29649 0.33616 0.0
C1471 C 0.95979 0.27928 0.31807 0.0
C1472 C 0.97328 0.26889 0.2962 0.0
C1473 C 0.02437 0.17335 0.20743 0.0
C1474 C 0.00389 0.17434 0.19197 0.0
C1475 C 0.03007 0.18982 0.22872 0.0
C1476 C 0.01566 0.20791 0.23376 0.0
C1477 C 0.99445 0.2078 0.22005 0.0
C1478 C 0.98854 0.19101 0.19957 0.0
C1479 C 0.02367 0.22908 0.24732 0.0
C1480 C 0.0098 0.24038 0.26814 0.0
C1481 C 0.04151 0.24077 0.23355 0.0
C1482 C 0.05715 0.23002 0.21198 0.0
C1483 C 0.05072 0.22578 0.18153 0.0
C1484 C 0.06544 0.21515 0.16145 0.0
C1485 C 0.08669 0.20897 0.17152 0.0
C1486 C 0.09327 0.21346 0.20168 0.0
C1487 C 0.07856 0.22395 0.2219 0.0
H1488 H 0.09805 0.20071 0.15597 0.0
H1489 H 0.95796 0.30423 0.35341 0.0
H1490 H 0.93752 0.71859 0.43434 0.0
H1491 H 0.96632 0.71685 0.47369 0.0
H1492 H 0.93867 0.77533 0.5173 0.0
H1493 H 0.91043 0.77749 0.47723 0.0
H1494 H 0.9755 0.78584 0.49461 0.0
H1495 H 0.96001 0.7323 0.56462 0.0
H1496 H 0.94708 0.69895 0.59239 0.0
H1497 H 0.99155 0.65793 0.53994 0.0
H1498 H 0.00442 0.69079 0.51126 0.0
H1499 H 0.08899 0.77556 0.44906 0.0
H1500 H 0.06091 0.77987 0.48958 0.0
H1501 H 0.0264 0.72198 0.45475 0.0
H1502 H 0.05503 0.71704 0.41581 0.0
H1503 H 0.02599 0.72277 0.51781 0.0
H1504 H 0.01577 0.7785 0.43117 0.0
H1505 H 0.02764 0.81257 0.40386 0.0
H1506 H 0.02886 0.84857 0.48899 0.0
H1507 H 0.01744 0.81455 0.51683 0.0
C1508 C 0.93721 0.73059 0.45291 0.0
C1509 C 0.9226 0.74876 0.45207 0.0
C1510 C 0.95343 0.7294 0.47587 0.0
C1511 C 0.95505 0.74633 0.49823 0.0
C1512 C 0.93801 0.76229 0.50012 0.0
C1513 C 0.92209 0.7637 0.47689 0.0
C1514 C 0.97745 0.75172 0.51055 0.0
C1515 C 0.98647 0.77221 0.50098 0.0
C1516 C 0.99202 0.73461 0.52032 0.0
C1517 C 0.98345 0.71426 0.53597 0.0
C1518 C 0.96693 0.71617 0.55873 0.0
C1519 C 0.95963 0.69731 0.57471 0.0
C1520 C 0.96869 0.67641 0.56817 0.0
C1521 C 0.98472 0.6742 0.5452 0.0
C1522 C 0.99207 0.69298 0.5291 0.0
C1523 C 0.07531 0.76395 0.4501 0.0
C1524 C 0.07372 0.74633 0.42903 0.0
C1525 C 0.05952 0.76619 0.47347 0.0
C1526 C 0.04167 0.75115 0.47533 0.0
C1527 C 0.04025 0.73356 0.45417 0.0
C1528 C 0.05636 0.73093 0.43161 0.0
C1529 C 0.02261 0.75479 0.49611 0.0
C1530 C 0.01475 0.7365 0.51309 0.0
C1531 C 0.00888 0.77375 0.49273 0.0
C1532 C 0.01615 0.79398 0.47608 0.0
C1533 C 0.01878 0.79365 0.44404 0.0
C1534 C 0.02542 0.81293 0.42849 0.0
C1535 C 0.02908 0.8327 0.4447 0.0
C1536 C 0.02607 0.83323 0.47648 0.0
C1537 C 0.01962 0.81394 0.49218 0.0
H1538 H 0.0342 0.84762 0.43262 0.0
H1539 H 0.9633 0.66191 0.5809 0.0
H1540 H 0.55671 0.65043 0.69362 0.0
H1541 H 0.57002 0.68157 0.72449 0.0
H1542 H 0.54972 0.72716 0.65304 0.0
H1543 H 0.53754 0.69581 0.62136 0.0
H1544 H 0.58552 0.74397 0.69107 0.0
H1545 H 0.50542 0.70763 0.70741 0.0
H1546 H 0.4874 0.67216 0.72178 0.0
H1547 H 0.53346 0.66446 0.79657 0.0
H1548 H 0.55162 0.69979 0.78259 0.0
H1549 H 0.49892 0.79651 0.65867 0.0
H1550 H 0.50808 0.76546 0.69268 0.0
H1551 H 0.54457 0.80997 0.75199 0.0
H1552 H 0.5369 0.84046 0.71683 0.0
H1553 H 0.5175 0.74803 0.75551 0.0
H1554 H 0.58749 0.79435 0.75144 0.0
H1555 H 0.60451 0.82988 0.73493 0.0
H1556 H 0.58252 0.81808 0.64252 0.0
H1557 H 0.56521 0.78257 0.65869 0.0
C1558 C 0.55604 0.66701 0.68395 0.0
C1559 C 0.54579 0.67083 0.65539 0.0
C1560 C 0.56366 0.68479 0.70164 0.0
C1561 C 0.56044 0.70666 0.69133 0.0
C1562 C 0.55242 0.71034 0.66139 0.0
C1563 C 0.54521 0.69248 0.64341 0.0
C1564 C 0.55946 0.72537 0.71328 0.0
C1565 C 0.57147 0.74476 0.70665 0.0
C1566 C 0.54167 0.72642 0.7345 0.0
C1567 C 0.5297 0.70621 0.74413 0.0
C1568 C 0.51145 0.69839 0.72712 0.0
C1569 C 0.50132 0.67824 0.7351 0.0
C1570 C 0.50934 0.66591 0.76002 0.0
C1571 C 0.52728 0.67388 0.77726 0.0
C1572 C 0.53745 0.69399 0.7694 0.0
C1573 C 0.50796 0.79981 0.67971 0.0
C1574 C 0.51788 0.82055 0.68475 0.0
C1575 C 0.51301 0.78214 0.69941 0.0
C1576 C 0.52781 0.78538 0.72414 0.0
C1577 C 0.53368 0.80707 0.73257 0.0
C1578 C 0.52929 0.82451 0.71238 0.0
C1579 C 0.54277 0.76668 0.73175 0.0
C1580 C 0.53318 0.74716 0.74319 0.0
C1581 C 0.56361 0.7655 0.71656 0.0
C1582 C 0.57526 0.78586 0.70619 0.0
C1583 C 0.58655 0.79927 0.72756 0.0
C1584 C 0.59611 0.81944 0.7183 0.0
C1585 C 0.59464 0.82621 0.68767 0.0
C1586 C 0.58371 0.81277 0.6662 0.0
C1587 C 0.57405 0.79262 0.67538 0.0
H1588 H 0.60192 0.84189 0.68058 0.0
H1589 H 0.50175 0.65018 0.766 0.0
H1590 H 0.59475 0.30885 0.9222 0.0
H1591 H 0.55895 0.32332 0.9398 0.0
H1592 H 0.5281 0.29796 0.85727 0.0
H1593 H 0.56399 0.28473 0.83927 0.0
H1594 H 0.50106 0.32897 0.88457 0.0
H1595 H 0.55001 0.26044 0.92946 0.0
H1596 H 0.58167 0.25246 0.96404 0.0
H1597 H 0.55628 0.29973 0.02932 0.0
H1598 H 0.52493 0.30841 0.99461 0.0
H1599 H 0.44693 0.23923 0.84333 0.0
H1600 H 0.47665 0.26367 0.8612 0.0
H1601 H 0.45308 0.25714 0.95429 0.0
H1602 H 0.4235 0.23235 0.93667 0.0
H1603 H 0.49759 0.26263 0.95268 0.0
H1604 H 0.43702 0.303 0.91864 0.0
H1605 H 0.40435 0.31294 0.88727 0.0
H1606 H 0.44672 0.32521 0.8098 0.0
H1607 H 0.4797 0.31517 0.84061 0.0
C1608 C 0.58045 0.30735 0.90736 0.0
C1609 C 0.58176 0.29495 0.88012 0.0
C1610 C 0.56001 0.31572 0.91731 0.0
C1611 C 0.54067 0.31085 0.90057 0.0
C1612 C 0.54272 0.30167 0.87096 0.0
C1613 C 0.56322 0.29376 0.86077 0.0
C1614 C 0.51901 0.30802 0.91616 0.0
C1615 C 0.4999 0.315 0.9003 0.0
C1616 C 0.51695 0.29098 0.93854 0.0
C1617 C 0.53535 0.28513 0.95951 0.0
C1618 C 0.55128 0.26908 0.9512 0.0
C1619 C 0.5693 0.26466 0.97064 0.0
C1620 C 0.57121 0.27587 0.99866 0.0
C1621 C 0.55503 0.29139 1.00737 0.0
C1622 C 0.53721 0.29612 0.9878 0.0
C1623 C 0.44856 0.24235 0.86772 0.0
C1624 C 0.43253 0.23459 0.88846 0.0
C1625 C 0.46528 0.25658 0.87786 0.0
C1626 C 0.46608 0.2632 0.90875 0.0
C1627 C 0.45215 0.25289 0.93019 0.0
C1628 C 0.43544 0.2385 0.92008 0.0
C1629 C 0.48087 0.28167 0.91756 0.0
C1630 C 0.49799 0.27753 0.93853 0.0
C1631 C 0.48056 0.30194 0.9009 0.0
C1632 C 0.46091 0.30849 0.88212 0.0
C1633 C 0.43941 0.30784 0.89494 0.0
C1634 C 0.42082 0.31347 0.87722 0.0
C1635 C 0.42347 0.31976 0.84658 0.0
C1636 C 0.44472 0.32044 0.83359 0.0
C1637 C 0.4634 0.31488 0.85123 0.0
H1638 H 0.40906 0.32412 0.83291 0.0
H1639 H 0.58498 0.27233 0.01389 0.0
H1640 H 0.03279 0.81078 0.84738 0.0
H1641 H 0.02562 0.78173 0.81019 0.0
H1642 H 0.9579 0.80512 0.79991 0.0
H1643 H 0.96492 0.83333 0.83945 0.0
H1644 H 0.95455 0.76659 0.81142 0.0
H1645 H 0.99413 0.79535 0.73296 0.0
H1646 H 0.02159 0.81653 0.70282 0.0
H1647 H 0.07327 0.7715 0.73116 0.0
H1648 H 0.04631 0.75011 0.7618 0.0
H1649 H 0.96294 0.6549 0.81966 0.0
H1650 H 0.96298 0.68442 0.78122 0.0
H1651 H 0.02159 0.71286 0.82308 0.0
H1652 H 0.02209 0.68272 0.86104 0.0
H1653 H 0.01539 0.72579 0.75886 0.0
H1654 H 0.97014 0.7228 0.85955 0.0
H1655 H 0.94154 0.70298 0.88981 0.0
H1656 H 0.89813 0.70196 0.81137 0.0
H1657 H 0.92661 0.72165 0.78069 0.0
C1658 C 0.01639 0.80978 0.83704 0.0
C1659 C -0.00092 0.82363 0.847 0.0
C1660 C 0.0124 0.7935 0.81502 0.0
C1661 C 0.99114 0.79118 0.80176 0.0
C1662 C 0.97436 0.80641 0.80991 0.0
C1663 C 0.9782 0.82226 0.83279 0.0
C1664 C 0.98544 0.76985 0.78634 0.0
C1665 C 0.96734 0.758 0.79844 0.0
C1666 C 0.00135 0.7584 0.76824 0.0
C1667 C 0.018 0.77094 0.74966 0.0
C1668 C 0.01135 0.78993 0.7329 0.0
C1669 C 0.02685 0.80202 0.71572 0.0
C1670 C 0.04913 0.79537 0.71511 0.0
C1671 C 0.05596 0.77657 0.73159 0.0
C1672 C 0.04052 0.76437 0.74877 0.0
C1673 C 0.97631 0.667 0.81999 0.0
C1674 C 0.99207 0.66717 0.84387 0.0
C1675 C 0.97647 0.68366 0.79773 0.0
C1676 C 0.99196 0.70105 0.79971 0.0
C1677 C 0.00944 0.69958 0.82117 0.0
C1678 C 0.00953 0.68261 0.84317 0.0
C1679 C 0.98629 0.72327 0.78736 0.0
C1680 C 0.00197 0.73494 0.76971 0.0
C1681 C 0.96769 0.7348 0.7994 0.0
C1682 C 0.95042 0.72353 0.81792 0.0
C1683 C 0.95445 0.71837 0.84888 0.0
C1684 C 0.93831 0.70713 0.86604 0.0
C1685 C 0.91804 0.7012 0.85251 0.0
C1686 C 0.91385 0.70655 0.82181 0.0
C1687 C 0.92996 0.71773 0.80453 0.0
H1688 H 0.90557 0.69248 0.86582 0.0
H1689 H 0.06109 0.80478 0.70187 0.0
H1690 H 0.568 0.74774 0.11282 0.0
H1691 H 0.53448 0.73977 0.083 0.0
H1692 H 0.56954 0.6884 0.03332 0.0
H1693 H 0.60319 0.69644 0.06314 0.0
H1694 H 0.5152 0.73005 0.02472 0.0
H1695 H 0.53628 0.64125 0.04815 0.0
H1696 H 0.56369 0.61679 0.07388 0.0
H1697 H 0.57386 0.66638 0.14357 0.0
H1698 H 0.54596 0.69073 0.11877 0.0
H1699 H 0.40843 0.70194 0.07725 0.0
H1700 H 0.43985 0.68763 0.04796 0.0
H1701 H 0.48358 0.70285 0.12381 0.0
H1702 H 0.45187 0.71657 0.15365 0.0
H1703 H 0.49609 0.66383 0.08783 0.0
H1704 H 0.47632 0.74919 0.07017 0.0
H1705 H 0.44622 0.77462 0.05334 0.0
H1706 H 0.43203 0.73163 0.97698 0.0
H1707 H 0.46202 0.70601 0.99349 0.0
C1708 C 0.56877 0.73542 0.09467 0.0
C1709 C 0.58753 0.72187 0.09112 0.0
C1710 C 0.54974 0.73101 0.07737 0.0
C1711 C 0.54951 0.71305 0.0566 0.0
C1712 C 0.56942 0.70207 0.04954 0.0
C1713 C 0.58841 0.70643 0.06691 0.0
C1714 C 0.52799 0.7022 0.05062 0.0
C1715 C 0.51102 0.71492 0.03712 0.0
C1716 C 0.52252 0.68223 0.06637 0.0
C1717 C 0.53948 0.66794 0.08126 0.0
C1718 C 0.54441 0.64689 0.06894 0.0
C1719 C 0.55989 0.63299 0.08348 0.0
C1720 C 0.57061 0.64008 0.11025 0.0
C1721 C 0.56564 0.66095 0.12277 0.0
C1722 C 0.54993 0.67476 0.10856 0.0
C1723 C 0.42462 0.70147 0.08808 0.0
C1724 C 0.4279 0.71053 0.11752 0.0
C1725 C 0.4425 0.69328 0.07128 0.0
C1726 C 0.46392 0.69438 0.08365 0.0
C1727 C 0.467 0.70174 0.11404 0.0
C1728 C 0.44902 0.70976 0.13097 0.0
C1729 C 0.48359 0.69255 0.06383 0.0
C1730 C 0.50021 0.67752 0.07255 0.0
C1731 C 0.48871 0.71015 0.04347 0.0
C1732 C 0.4714 0.72589 0.03286 0.0
C1733 C 0.46686 0.74534 0.04966 0.0
C1734 C 0.4498 0.7597 0.04027 0.0
C1735 C 0.43729 0.75477 0.01407 0.0
C1736 C 0.44178 0.73546 0.99721 0.0
C1737 C 0.45881 0.72104 1.00654 0.0
H1738 H 0.42413 0.76592 1.00687 0.0
H1739 H 0.58273 0.62938 0.12131 0.0
H1740 H 0.53097 0.15976 0.32223 0.0
H1741 H 0.52525 0.1887 0.28361 0.0
H1742 H 0.48753 0.22722 0.34914 0.0
H1743 H 0.49262 0.19794 0.38771 0.0
H1744 H 0.46711 0.22454 0.28917 0.0
H1745 H 0.54576 0.23827 0.33463 0.0
H1746 H 0.58427 0.22407 0.33947 0.0
H1747 H 0.5867 0.21265 0.24223 0.0
H1748 H 0.54816 0.22662 0.23699 0.0
H1749 H 0.47757 0.30769 0.36727 0.0
H1750 H 0.47031 0.28046 0.32794 0.0
H1751 H 0.5192 0.31184 0.26912 0.0
H1752 H 0.5277 0.33821 0.31031 0.0
H1753 H 0.53161 0.27445 0.27232 0.0
H1754 H 0.4619 0.28188 0.22827 0.0
H1755 H 0.42287 0.29226 0.21749 0.0
H1756 H 0.40215 0.26308 0.30254 0.0
H1757 H 0.4407 0.25118 0.31307 0.0
C1758 C 0.52165 0.17455 0.32852 0.0
C1759 C 0.51223 0.17674 0.35798 0.0
C1760 C 0.51822 0.19089 0.30629 0.0
C1761 C 0.50562 0.20979 0.31338 0.0
C1762 C 0.49691 0.21241 0.34312 0.0
C1763 C 0.50017 0.19597 0.36532 0.0
C1764 C 0.50275 0.22805 0.29116 0.0
C1765 C 0.48111 0.23554 0.28491 0.0
C1766 C 0.52102 0.2413 0.2823 0.0
C1767 C 0.54421 0.23339 0.28545 0.0
C1768 C 0.55458 0.23274 0.31434 0.0
C1769 C 0.57636 0.2247 0.31715 0.0
C1770 C 0.58792 0.21745 0.29118 0.0
C1771 C 0.57773 0.21826 0.26233 0.0
C1772 C 0.55594 0.22622 0.25943 0.0
C1773 C 0.48651 0.30891 0.34574 0.0
C1774 C 0.5037 0.32434 0.34214 0.0
C1775 C 0.4819 0.29367 0.32258 0.0
C1776 C 0.49412 0.29381 0.29493 0.0
C1777 C 0.50964 0.31106 0.29015 0.0
C1778 C 0.51474 0.32592 0.31385 0.0
C1779 C 0.4957 0.27269 0.2771 0.0
C1780 C 0.51726 0.2636 0.27451 0.0
C1781 C 0.47739 0.25783 0.2767 0.0
C1782 C 0.45429 0.26583 0.27157 0.0
C1783 C 0.44907 0.27785 0.24483 0.0
C1784 C 0.42701 0.2839 0.23867 0.0
C1785 C 0.41016 0.2788 0.25957 0.0
C1786 C 0.41523 0.26714 0.28642 0.0
C1787 C 0.43713 0.26043 0.29228 0.0
H1788 H 0.39314 0.28369 0.25479 0.0
H1789 H 0.60477 0.21122 0.29341 0.0
H1790 H 0.05318 0.22623 0.59456 0.0
H1791 H 0.02818 0.23451 0.55279 0.0
H1792 H 0.05806 0.29972 0.54297 0.0
H1793 H 0.08205 0.29172 0.58718 0.0
H1794 H 0.02047 0.30811 0.54311 0.0
H1795 H 0.04738 0.26133 0.47354 0.0
H1796 H 0.06633 0.23129 0.44529 0.0
H1797 H 0.01722 0.18432 0.47576 0.0
H1798 H -0.00192 0.21379 0.50464 0.0
H1799 H 0.90936 0.29623 0.57084 0.0
H1800 H 0.93406 0.29567 0.52641 0.0
H1801 H 0.97458 0.24565 0.57085 0.0
H1802 H 0.94922 0.24537 0.61473 0.0
H1803 H 0.97623 0.2452 0.50183 0.0
H1804 H 0.98732 0.30672 0.59373 0.0
H1805 H 0.96847 0.33906 0.61744 0.0
H1806 H 0.94588 0.36071 0.52874 0.0
H1807 H 0.96477 0.32854 0.50459 0.0
C1808 C 0.05445 0.24235 0.58344 0.0
C1809 C 0.06899 0.25867 0.59467 0.0
C1810 C 0.04051 0.24693 0.55873 0.0
C1811 C 0.04117 0.26783 0.54395 0.0
C1812 C 0.05699 0.28358 0.55392 0.0
C1813 C 0.07049 0.27918 0.57943 0.0
C1814 C 0.02188 0.27465 0.52448 0.0
C1815 C 0.0112 0.29465 0.53253 0.0
C1816 C 0.00957 0.25844 0.50794 0.0
C1817 C 0.02109 0.24005 0.49123 0.0
C1818 C 0.04063 0.24459 0.47447 0.0
C1819 C 0.05145 0.22761 0.45834 0.0
C1820 C 0.04304 0.20593 0.45888 0.0
C1821 C 0.02371 0.20116 0.4754 0.0
C1822 C 0.01277 0.21806 0.49154 0.0
C1823 C 0.92326 0.2847 0.57078 0.0
C1824 C 0.92785 0.27122 0.59651 0.0
C1825 C 0.93718 0.28425 0.5452 0.0
C1826 C 0.9563 0.27087 0.54546 0.0
C1827 C 0.95978 0.25601 0.57004 0.0
C1828 C 0.94555 0.25608 0.59534 0.0
C1829 C 0.97564 0.27639 0.52597 0.0
C1830 C 0.98617 0.25908 0.50992 0.0
C1831 C 0.98798 0.29573 0.53318 0.0
C1832 C 0.97738 0.31539 0.54746 0.0
C1833 C 0.97846 0.31852 0.57935 0.0
C1834 C 0.96774 0.33675 0.59284 0.0
C1835 C 0.956 0.35194 0.57459 0.0
C1836 C 0.95501 0.34896 0.54281 0.0
C1837 C 0.96572 0.33077 0.52922 0.0
H1838 H 0.94767 0.36601 0.58508 0.0
H1839 H 0.05145 0.19285 0.44639 0.0
H1840 H 0.05121 0.06935 0.0767 0.0
H1841 H 0.04216 0.03965 0.04068 0.0
H1842 H 0.97717 0.03281 0.08182 0.0
H1843 H 0.98623 0.0628 0.11823 0.0
H1844 H 0.03275 0.99679 0.05229 0.0
H1845 H 0.94077 0.01494 0.02195 0.0
H1846 H 0.91443 0.04614 0.0153 0.0
H1847 H 0.96895 0.09111 1.00013 0.0
H1848 H 0.99565 0.06007 1.00607 0.0
H1849 H 0.95598 0.91824 0.96704 0.0
H1850 H 0.9674 0.94668 1.00431 0.0
H1851 H 0.01466 0.97285 0.93919 0.0
H1852 H 0.00403 0.94378 0.9023 0.0
H1853 H 0.96855 -0.00163 0.98062 0.0
H1854 H 0.04546 0.9661 0.97274 0.0
H1855 H 0.07251 0.93526 0.97662 0.0
H1856 H 0.04922 0.92027 0.06742 0.0
H1857 H 0.02178 0.9509 0.06377 0.0
C1858 C 0.03497 0.06155 0.07813 0.0
C1859 C 0.01941 0.06834 0.10026 0.0
C1860 C 0.02984 0.04457 0.05752 0.0
C1861 C 0.00899 0.03408 0.05848 0.0
C1862 C 0.99329 0.04087 0.08049 0.0
C1863 C -0.00153 0.05791 0.10129 0.0
C1864 C 0.00422 0.01564 0.03687 0.0
C1865 C 0.01874 0.99724 0.03653 0.0
C1866 C 0.98585 0.01607 0.01651 0.0
C1867 C 0.97021 0.03519 0.01476 0.0
C1868 C 0.94715 0.0315 0.01731 0.0
C1869 C 0.93217 0.04912 0.01357 0.0
C1870 C 0.94003 0.07053 1.00719 0.0
C1871 C 0.96292 0.07447 1.00504 0.0
C1872 C 0.978 0.05687 1.00867 0.0
C1873 C 0.96898 0.92994 0.96085 0.0
C1874 C 0.97912 0.92899 0.93186 0.0
C1875 C 0.97558 0.94599 0.98219 0.0
C1876 C 0.99222 0.96144 0.97469 0.0
C1877 C 0.0023 0.96058 0.9457 0.0
C1878 C 0.99606 0.9442 0.92458 0.0
C1879 C -0.00281 0.97991 0.99592 0.0
C1880 C 0.98254 -0.00191 0.99642 0.0
C1881 C 0.01549 0.9794 0.01625 0.0
C1882 C 0.03112 0.96032 0.01762 0.0
C1883 C 0.0457 0.95587 0.99318 0.0
C1884 C 0.06127 0.9386 0.99548 0.0
C1885 C 0.06261 0.92586 0.02228 0.0
C1886 C 0.04819 0.93018 0.04669 0.0
C1887 C 0.03258 0.94743 0.04447 0.0
H1888 H 0.07487 0.9127 0.02417 0.0
H1889 H 0.92832 0.08396 1.00363 0.0
H1890 H 0.18346 0.80289 0.33216 0.0
H1891 H 0.21311 0.79458 0.29566 0.0
H1892 H 0.21611 0.72689 0.32932 0.0
H1893 H 0.18734 0.73562 0.36727 0.0
H1894 H 0.25616 0.74158 0.31936 0.0
H1895 H 0.1876 0.74291 0.26195 0.0
H1896 H 0.15253 0.75984 0.24359 0.0
H1897 H 0.18919 0.8125 0.20026 0.0
H1898 H 0.22448 0.79632 0.21902 0.0
H1899 H 0.30864 0.68996 0.19267 0.0
H1900 H 0.28195 0.70191 0.23161 0.0
H1901 H 0.28781 0.76988 0.20008 0.0
H1902 H 0.31451 0.75791 0.16072 0.0
H1903 H 0.24419 0.75699 0.20871 0.0
H1904 H 0.31302 0.75397 0.26475 0.0
H1905 H 0.34755 0.73783 0.28604 0.0
H1906 H 0.30956 0.68745 0.33237 0.0
H1907 H 0.27487 0.70285 0.31079 0.0
C1908 C 0.19057 0.78628 0.33193 0.0
C1909 C 0.18282 0.76972 0.35207 0.0
C1910 C 0.20738 0.7815 0.31088 0.0
C1911 C 0.21642 0.75994 0.30914 0.0
C1912 C 0.20921 0.74359 0.33001 0.0
C1913 C 0.19266 0.7485 0.35148 0.0
C1914 C 0.23332 0.7544 0.28554 0.0
C1915 C 0.25341 0.74466 0.29511 0.0
C1916 C 0.22995 0.75902 0.25397 0.0
C1917 C 0.20871 0.76849 0.24213 0.0
C1918 C 0.1882 0.75818 0.24866 0.0
C1919 C 0.16828 0.76763 0.2382 0.0
C1920 C 0.16864 0.78717 0.22076 0.0
C1921 C 0.18894 0.79735 0.21377 0.0
C1922 C 0.20891 0.78807 0.22434 0.0
C1923 C 0.30422 0.70745 0.19401 0.0
C1924 C 0.31364 0.72306 0.1738 0.0
C1925 C 0.28909 0.71426 0.21637 0.0
C1926 C 0.2831 0.73681 0.21893 0.0
C1927 C 0.2923 0.75242 0.19853 0.0
C1928 C 0.30757 0.7456 0.17619 0.0
C1929 C 0.26687 0.74387 0.24255 0.0
C1930 C 0.24691 0.75393 0.23296 0.0
C1931 C 0.27026 0.73935 0.27408 0.0
C1932 C 0.29131 0.72949 0.28594 0.0
C1933 C 0.31204 0.73924 0.27909 0.0
C1934 C 0.33165 0.73023 0.29126 0.0
C1935 C 0.33074 0.7116 0.3105 0.0
C1936 C 0.31026 0.70181 0.31738 0.0
C1937 C 0.29062 0.71066 0.30518 0.0
H1938 H 0.34586 0.70486 0.32034 0.0
H1939 H 0.15319 0.79438 0.21261 0.0
H1940 H 0.49561 0.0592 0.41093 0.0
H1941 H 0.48642 0.03088 0.44944 0.0
H1942 H 0.5534 0.0346 0.48513 0.0
H1943 H 0.56256 0.06307 0.44689 0.0
H1944 H 0.54071 0.99224 0.47503 0.0
H1945 H 0.51071 0.05625 0.52491 0.0
H1946 H 0.4878 0.08989 0.5329 0.0
H1947 H 0.42828 0.05148 0.5194 0.0
H1948 H 0.45081 0.01765 0.51077 0.0
H1949 H 0.52342 0.92854 0.61083 0.0
H1950 H 0.53168 0.95846 0.57437 0.0
H1951 H 0.46571 0.95226 0.53596 0.0
H1952 H 0.45752 0.9219 0.57201 0.0
H1953 H 0.47771 0.99632 0.54834 0.0
H1954 H 0.50782 0.93482 0.48919 0.0
H1955 H 0.53068 0.90191 0.47685 0.0
H1956 H 0.58936 0.93595 0.50831 0.0
H1957 H 0.56683 0.96939 0.51991 0.0
C1958 C 0.50826 0.05415 0.42725 0.0
C1959 C 0.52975 0.06337 0.42609 0.0
C1960 C 0.50299 0.03803 0.44927 0.0
C1961 C 0.51916 0.03082 0.47037 0.0
C1962 C 0.54065 0.03999 0.46913 0.0
C1963 C 0.54589 0.05618 0.44724 0.0
C1964 C 0.51411 0.01272 0.49248 0.0
C1965 C 0.52716 0.99334 0.49142 0.0
C1966 C 0.49603 0.01387 0.51325 0.0
C1967 C 0.48248 0.03441 0.51695 0.0
C1968 C 0.49276 0.05502 0.52318 0.0
C1969 C 0.47983 0.07411 0.52793 0.0
C1970 C 0.45662 0.07277 0.52674 0.0
C1971 C 0.44627 0.05244 0.52036 0.0
C1972 C 0.4591 0.03331 0.51554 0.0
C1973 C 0.51076 0.93339 0.59439 0.0
C1974 C 0.48991 0.92276 0.59403 0.0
C1975 C 0.5155 0.95047 0.57358 0.0
C1976 C 0.49939 0.95742 0.55225 0.0
C1977 C 0.4784 0.94708 0.55217 0.0
C1978 C 0.47374 0.92979 0.57278 0.0
C1979 C 0.5043 0.97593 0.53072 0.0
C1980 C 0.49127 0.99536 0.53196 0.0
C1981 C 0.52239 0.97493 0.51009 0.0
C1982 C 0.53565 0.95441 0.50572 0.0
C1983 C 0.52555 0.93515 0.49384 0.0
C1984 C 0.53848 0.91648 0.48675 0.0
C1985 C 0.56147 0.91677 0.49196 0.0
C1986 C 0.57156 0.93574 0.50431 0.0
C1987 C 0.55875 0.9546 0.51096 0.0
H1988 H 0.57151 0.90239 0.48623 0.0
H1989 H 0.44662 0.0874 0.53103 0.0
H1990 H 0.30837 0.18379 0.83248 0.0
H1991 H 0.28065 0.19393 0.79379 0.0
H1992 H 0.28358 0.2625 0.82352 0.0
H1993 H 0.31129 0.25236 0.86254 0.0
H1994 H 0.23981 0.21115 0.80113 0.0
H1995 H 0.27526 0.2963 0.75889 0.0
H1996 H 0.3112 0.31443 0.74766 0.0
H1997 H 0.34267 0.25035 0.73998 0.0
H1998 H 0.30688 0.2318 0.75067 0.0
H1999 H 0.18107 0.30035 0.70099 0.0
H2000 H 0.20988 0.28811 0.73695 0.0
H2001 H 0.20669 0.22164 0.6994 0.0
H2002 H 0.17811 0.23397 0.66275 0.0
H2003 H 0.25139 0.27045 0.72341 0.0
H2004 H 0.21553 0.18566 0.75803 0.0
H2005 H 0.17994 0.16687 0.76974 0.0
H2006 H 0.15069 0.22989 0.79374 0.0
H2007 H 0.18588 0.249 0.78151 0.0
C2008 C 0.30303 0.20101 0.83087 0.0
C2009 C 0.31198 0.21733 0.85041 0.0
C2010 C 0.28726 0.20678 0.8087 0.0
C2011 C 0.28028 0.22899 0.80553 0.0
C2012 C 0.28904 0.24532 0.82524 0.0
C2013 C 0.30475 0.23951 0.84759 0.0
C2014 C 0.2631 0.23486 0.78247 0.0
C2015 C 0.24251 0.22387 0.7838 0.0
C2016 C 0.26646 0.25172 0.76025 0.0
C2017 C 0.28838 0.26267 0.75581 0.0
C2018 C 0.28986 0.28607 0.75493 0.0
C2019 C 0.31019 0.29642 0.74859 0.0
C2020 C 0.32912 0.28354 0.74298 0.0
C2021 C 0.32794 0.26029 0.74431 0.0
C2022 C 0.30764 0.24984 0.7506 0.0
C2023 C 0.18653 0.28313 0.70034 0.0
C2024 C 0.17727 0.26804 0.67924 0.0
C2025 C 0.20295 0.27616 0.72093 0.0
C2026 C 0.21024 0.25394 0.72102 0.0
C2027 C 0.20104 0.2388 0.69996 0.0
C2028 C 0.18476 0.24584 0.67907 0.0
C2029 C 0.2281 0.24696 0.74243 0.0
C2030 C 0.24882 0.25768 0.74069 0.0
C2031 C 0.22496 0.22978 0.76417 0.0
C2032 C 0.2032 0.21873 0.76858 0.0
C2033 C 0.20136 0.19549 0.76539 0.0
C2034 C 0.18127 0.1848 0.77208 0.0
C2035 C 0.16304 0.19717 0.78237 0.0
C2036 C 0.16471 0.22032 0.78544 0.0
C2037 C 0.18468 0.23112 0.77842 0.0
H2038 H 0.14773 0.18875 0.78825 0.0
H2039 H 0.34463 0.29161 0.73729 0.0
H2040 H 0.70682 0.30287 0.83663 0.0
H2041 H 0.73408 0.28795 0.80048 0.0
H2042 H 0.72402 0.22187 0.83707 0.0
H2043 H 0.69631 0.23675 0.87328 0.0
H2044 H 0.7709 0.23651 0.8282 0.0
H2045 H 0.701 0.23095 0.77471 0.0
H2046 H 0.66517 0.24462 0.75415 0.0
H2047 H 0.69947 0.29317 0.69955 0.0
H2048 H 0.73548 0.28039 0.72041 0.0
H2049 H 0.8398 0.19525 0.70756 0.0
H2050 H 0.80877 0.19877 0.74368 0.0
H2051 H 0.79269 0.26325 0.7053 0.0
H2052 H 0.82257 0.25899 0.6679 0.0
H2053 H 0.75657 0.24281 0.71641 0.0
H2054 H 0.825 0.25342 0.77279 0.0
H2055 H 0.86189 0.24225 0.79266 0.0
H2056 H 0.83198 0.1885 0.84287 0.0
H2057 H 0.79503 0.19868 0.82222 0.0
C2058 C 0.71048 0.28518 0.83711 0.0
C2059 C 0.69948 0.27092 0.85765 0.0
C2060 C 0.72598 0.27669 0.8164 0.0
C2061 C 0.7309 0.25383 0.81607 0.0
C2062 C 0.72036 0.23956 0.83705 0.0
C2063 C 0.70457 0.24804 0.85758 0.0
C2064 C 0.74694 0.24511 0.79337 0.0
C2065 C 0.76772 0.23743 0.80372 0.0
C2066 C 0.74277 0.24687 0.76154 0.0
C2067 C 0.721 0.25474 0.74928 0.0
C2068 C 0.70093 0.2447 0.75858 0.0
C2069 C 0.68058 0.25224 0.74681 0.0
C2070 C 0.68008 0.2696 0.72545 0.0
C2071 C 0.6999 0.27966 0.71603 0.0
C2072 C 0.72028 0.2723 0.72785 0.0
C2073 C 0.82945 0.21004 0.70669 0.0
C2074 C 0.83381 0.22709 0.68541 0.0
C2075 C 0.81184 0.21211 0.72747 0.0
C2076 C 0.79868 0.23151 0.72773 0.0
C2077 C 0.80266 0.24818 0.70573 0.0
C2078 C 0.81989 0.24587 0.68457 0.0
C2079 C 0.78099 0.2349 0.75105 0.0
C2080 C 0.75979 0.24154 0.74085 0.0
C2081 C 0.78499 0.23265 0.783 0.0
C2082 C 0.80724 0.22665 0.79561 0.0
C2083 C 0.8263 0.23908 0.7878 0.0
C2084 C 0.84722 0.23295 0.79923 0.0
C2085 C 0.84924 0.21478 0.8191 0.0
C2086 C 0.83038 0.20258 0.82744 0.0
C2087 C 0.80945 0.20846 0.81578 0.0
H2088 H 0.86542 0.2102 0.8281 0.0
H2089 H 0.66434 0.27523 0.71616 0.0
H2090 H 0.83023 0.69959 0.3226 0.0
H2091 H 0.80255 0.70845 0.28337 0.0
H2092 H 0.7882 0.77076 0.32884 0.0
H2093 H 0.81639 0.76211 0.36791 0.0
H2094 H 0.76003 0.71245 0.29128 0.0
H2095 H 0.76655 0.80819 0.27585 0.0
H2096 H 0.79459 0.83821 0.27458 0.0
H2097 H 0.84539 0.79063 0.2516 0.0
H2098 H 0.81763 0.76035 0.25249 0.0
H2099 H 0.67481 0.7873 0.20842 0.0
H2100 H 0.70447 0.77962 0.24594 0.0
H2101 H 0.73221 0.73018 0.18521 0.0
H2102 H 0.70218 0.737 0.14843 0.0
H2103 H 0.75309 0.78196 0.23036 0.0
H2104 H 0.73631 0.69782 0.21404 0.0
H2105 H 0.71127 0.66526 0.21559 0.0
H2106 H 0.68587 0.68675 0.30274 0.0
H2107 H 0.70969 0.72024 0.3006 0.0
C2108 C 0.82126 0.71525 0.32412 0.0
C2109 C 0.82526 0.73011 0.34834 0.0
C2110 C 0.8055 0.72032 0.30166 0.0
C2111 C 0.79334 0.7403 0.30306 0.0
C2112 C 0.79762 0.75541 0.32699 0.0
C2113 C 0.81358 0.7504 0.34939 0.0
C2114 C 0.77498 0.74425 0.2809 0.0
C2115 C 0.75875 0.72759 0.27772 0.0
C2116 C 0.77295 0.76415 0.26363 0.0
C2117 C 0.79003 0.78198 0.26453 0.0
C2118 C 0.78372 0.80412 0.27064 0.0
C2119 C 0.79955 0.82119 0.26996 0.0
C2120 C 0.82173 0.81634 0.26302 0.0
C2121 C 0.8282 0.79436 0.25708 0.0
C2122 C 0.81243 0.77722 0.25777 0.0
C2123 C 0.68719 0.77471 0.20326 0.0
C2124 C 0.68626 0.76268 0.17567 0.0
C2125 C 0.70397 0.77022 0.22473 0.0
C2126 C 0.72003 0.75375 0.21879 0.0
C2127 C 0.71939 0.74217 0.19089 0.0
C2128 C 0.70246 0.74636 0.16968 0.0
C2129 C 0.73856 0.75001 0.24054 0.0
C2130 C 0.7546 0.76684 0.2439 0.0
C2131 C 0.7407 0.73014 0.25768 0.0
C2132 C 0.72412 0.71195 0.25655 0.0
C2133 C 0.72468 0.69612 0.23283 0.0
C2134 C 0.71082 0.6774 0.23393 0.0
C2135 C 0.69687 0.67401 0.25914 0.0
C2136 C 0.69648 0.68952 0.28304 0.0
C2137 C 0.7099 0.70853 0.28168 0.0
H2138 H 0.68645 0.65931 0.26024 0.0
H2139 H 0.83382 0.82967 0.26207 0.0
H2140 H 0.49102 0.55825 0.61338 0.0
H2141 H 0.47719 0.53214 0.57434 0.0
H2142 H 0.54366 0.52583 0.53778 0.0
H2143 H 0.55752 0.55173 0.57669 0.0
H2144 H 0.51069 0.5329 0.4929 0.0
H2145 H 0.52484 0.48601 0.5813 0.0
H2146 H 0.52067 0.47339 0.63484 0.0
H2147 H 0.45037 0.46474 0.62098 0.0
H2148 H 0.45407 0.47774 0.56751 0.0
H2149 H 0.50941 0.43497 0.4032 0.0
H2150 H 0.51641 0.46514 0.43963 0.0
H2151 H 0.45026 0.4569 0.47675 0.0
H2152 H 0.44356 0.42611 0.44112 0.0
H2153 H 0.47898 0.45933 0.52119 0.0
H2154 H 0.46483 0.50259 0.43154 0.0
H2155 H 0.4686 0.51462 0.3777 0.0
H2156 H 0.53745 0.53051 0.39311 0.0
H2157 H 0.53421 0.51823 0.44693 0.0
C2158 C 0.50261 0.55128 0.59694 0.0
C2159 C 0.5253 0.55687 0.59797 0.0
C2160 C 0.49473 0.53638 0.57479 0.0
C2161 C 0.50946 0.52706 0.55335 0.0
C2162 C 0.53207 0.53289 0.55417 0.0
C2163 C 0.53996 0.54755 0.57646 0.0
C2164 C 0.50151 0.51109 0.53002 0.0
C2165 C 0.50387 0.51673 0.49897 0.0
C2166 C 0.49199 0.49037 0.53815 0.0
C2167 C 0.48969 0.48314 0.57054 0.0
C2168 C 0.50845 0.48171 0.58979 0.0
C2169 C 0.50618 0.47443 0.62011 0.0
C2170 C 0.48525 0.46835 0.63135 0.0
C2171 C 0.46655 0.46954 0.61229 0.0
C2172 C 0.46873 0.47689 0.582 0.0
C2173 C 0.49637 0.43966 0.4191 0.0
C2174 C 0.47604 0.42814 0.4196 0.0
C2175 C 0.50028 0.45704 0.43968 0.0
C2176 C 0.48375 0.46347 0.46068 0.0
C2177 C 0.46323 0.45225 0.4607 0.0
C2178 C 0.45939 0.43474 0.4403 0.0
C2179 C 0.48841 0.48094 0.48383 0.0
C2180 C 0.48546 0.4756 0.51493 0.0
C2181 C 0.49725 0.50202 0.4757 0.0
C2182 C 0.49931 0.5093 0.44325 0.0
C2183 C 0.48083 0.50846 0.42339 0.0
C2184 C 0.48287 0.51536 0.39288 0.0
C2185 C 0.50326 0.52327 0.38197 0.0
C2186 C 0.52167 0.52434 0.40157 0.0
C2187 C 0.51973 0.51743 0.4321 0.0
H2188 H 0.5048 0.52862 0.35835 0.0
H2189 H 0.48354 0.46265 0.65479 0.0
H2190 H 0.05111 0.5622 0.95057 0.0
H2191 H 0.04177 0.53058 0.98388 0.0
H2192 H 0.97703 0.52605 0.94115 0.0
H2193 H 0.98623 0.55763 0.90808 0.0
H2194 H 0.97293 0.52576 1.00105 0.0
H2195 H 0.01668 0.48654 0.92839 0.0
H2196 H 0.04879 0.47683 0.8958 0.0
H2197 H 0.08954 0.46794 0.97592 0.0
H2198 H 0.05777 0.47792 1.00901 0.0
H2199 H 0.94681 0.4208 0.07493 0.0
H2200 H 0.95457 0.44906 0.03549 0.0
H2201 H 0.01481 0.46753 0.08307 0.0
H2202 H 0.00679 0.43999 0.12299 0.0
H2203 H 0.0196 0.4585 0.0177 0.0
H2204 H 0.97433 0.50076 0.08931 0.0
H2205 H 0.94057 0.50793 0.11993 0.0
H2206 H 0.90093 0.50847 0.03784 0.0
H2207 H 0.93445 0.50097 1.00676 0.0
C2208 C 0.03499 0.55428 0.94814 0.0
C2209 C 0.01933 0.56242 0.92696 0.0
C2210 C 0.0297 0.53617 0.96704 0.0
C2211 C 0.00873 0.52586 0.96488 0.0
C2212 C 0.99328 0.53375 0.94325 0.0
C2213 C -0.00144 0.5518 0.9244 0.0
C2214 C 0.00229 0.50789 0.98655 0.0
C2215 C 0.98299 0.5109 1.00428 0.0
C2216 C 0.0155 0.48857 0.99104 0.0
C2217 C 0.03488 0.48328 0.97119 0.0
C2218 C 0.03256 0.48282 0.93907 0.0
C2219 C 0.05069 0.47719 0.9205 0.0
C2220 C 0.07121 0.47185 0.93377 0.0
C2221 C 0.07365 0.47213 0.96566 0.0
C2222 C 0.05558 0.47777 0.98433 0.0
C2223 C 0.96155 0.43109 0.07711 0.0
C2224 C 0.97633 0.42813 0.10179 0.0
C2225 C 0.966 0.44709 0.05455 0.0
C2226 C 0.98535 0.46016 0.05634 0.0
C2227 C -9e-05 0.45744 0.08122 0.0
C2228 C 0.99528 0.44176 0.10398 0.0
C2229 C 0.99059 0.47671 0.03228 0.0
C2230 C 0.0096 0.47338 0.01417 0.0
C2231 C 0.97698 0.49556 0.02709 0.0
C2232 C 0.95685 0.50003 0.04577 0.0
C2233 C 0.95839 0.50218 0.07783 0.0
C2234 C 0.9393 0.50636 0.09525 0.0
C2235 C 0.91861 0.50858 0.08085 0.0
C2236 C 0.91697 0.50669 0.04897 0.0
C2237 C 0.936 0.50249 0.03144 0.0
H2238 H 0.90385 0.51183 0.09438 0.0
H2239 H 0.08521 0.46744 0.91937 0.0
H2240 H 0.10332 0.12702 0.33303 0.0
H2241 H 0.11038 0.14132 0.38466 0.0
H2242 H 0.07541 0.20205 0.36175 0.0
H2243 H 0.06861 0.1879 0.30997 0.0
H2244 H 0.11196 0.21204 0.38829 0.0
H2245 H 0.05386 0.16081 0.41017 0.0
H2246 H 0.03376 0.12507 0.41122 0.0
H2247 H 0.08678 0.09556 0.46362 0.0
H2248 H 0.10735 0.13116 0.46263 0.0
H2249 H 0.10356 0.25844 0.53455 0.0
H2250 H 0.09561 0.24051 0.48627 0.0
H2251 H 0.13554 0.18386 0.51307 0.0
H2252 H 0.14293 0.2016 0.56304 0.0
H2253 H 0.09762 0.17084 0.48498 0.0
H2254 H 0.15434 0.22615 0.46277 0.0
H2255 H 0.17022 0.26409 0.46256 0.0
H2256 H 0.11451 0.28775 0.40982 0.0
H2257 H 0.09799 0.25019 0.41051 0.0
C2258 C 0.09689 0.14329 0.33918 0.0
C2259 C 0.08548 0.15638 0.31748 0.0
C2260 C 0.10087 0.15143 0.36873 0.0
C2261 C 0.09321 0.17268 0.37729 0.0
C2262 C 0.08149 0.18561 0.35573 0.0
C2263 C 0.07767 0.17756 0.32613 0.0
C2264 C 0.09852 0.18201 0.40805 0.0
C2265 C 0.10855 0.2031 0.40942 0.0
C2266 C 0.09451 0.17018 0.43566 0.0
C2267 C 0.08226 0.14866 0.43609 0.0
C2268 C 0.06134 0.14669 0.42174 0.0
C2269 C 0.04983 0.12645 0.42236 0.0
C2270 C 0.05901 0.10802 0.43741 0.0
C2271 C 0.0797 0.10984 0.45193 0.0
C2272 C 0.09128 0.13007 0.45138 0.0
C2273 C 0.11093 0.24224 0.53037 0.0
C2274 C 0.12429 0.23163 0.55263 0.0
C2275 C 0.10629 0.23197 0.50251 0.0
C2276 C 0.11538 0.21105 0.49559 0.0
C2277 C 0.1285 0.20014 0.51782 0.0
C2278 C 0.13285 0.21031 0.54624 0.0
C2279 C 0.11101 0.20085 0.46509 0.0
C2280 C 0.10117 0.17962 0.46377 0.0
C2281 C 0.11471 0.21275 0.43744 0.0
C2282 C 0.12485 0.23534 0.4369 0.0
C2283 C 0.14539 0.23949 0.45136 0.0
C2284 C 0.15449 0.26096 0.45121 0.0
C2285 C 0.14333 0.27837 0.43637 0.0
C2286 C 0.12308 0.27432 0.42153 0.0
C2287 C 0.11384 0.25295 0.42181 0.0
H2288 H 0.1504 0.29497 0.43627 0.0
H2289 H 0.05008 0.09235 0.43788 0.0
H2290 H 0.11599 0.85711 0.57708 0.0
H2291 H 0.1024 0.86672 0.62821 0.0
H2292 H 0.04811 0.82027 0.61749 0.0
H2293 H 0.06169 0.81042 0.5664 0.0
H2294 H 0.03346 0.85952 0.63715 0.0
H2295 H 0.09196 0.80948 0.66448 0.0
H2296 H 0.13004 0.79423 0.66609 0.0
H2297 H 0.15365 0.85455 0.70804 0.0
H2298 H 0.11569 0.8703 0.7064 0.0
H2299 H 0.9911 0.85748 0.78541 0.0
H2300 H 0.0086 0.84874 0.73721 0.0
H2301 H 0.06211 0.89441 0.7577 0.0
H2302 H 0.04501 0.90247 0.80786 0.0
H2303 H 0.07818 0.85732 0.73291 0.0
H2304 H 0.01848 0.90734 0.70366 0.0
H2305 H 0.97964 0.92084 0.70266 0.0
H2306 H 0.95813 0.85846 0.6644 0.0
H2307 H 0.99677 0.84446 0.66584 0.0
C2308 C 0.10138 0.84864 0.58578 0.0
C2309 C 0.08992 0.833 0.56758 0.0
C2310 C 0.09362 0.85418 0.61504 0.0
C2311 C 0.07431 0.84413 0.62679 0.0
C2312 C 0.06301 0.82829 0.60886 0.0
C2313 C 0.07075 0.82274 0.57961 0.0
C2314 C 0.06519 0.85096 0.65703 0.0
C2315 C 0.04321 0.85884 0.65812 0.0
C2316 C 0.07806 0.85057 0.6843 0.0
C2317 C 0.10096 0.84118 0.68507 0.0
C2318 C 0.10526 0.8196 0.67384 0.0
C2319 C 0.12684 0.81083 0.67481 0.0
C2320 C 0.14426 0.82343 0.68709 0.0
C2321 C 0.14013 0.84481 0.69849 0.0
C2322 C 0.11858 0.85366 0.69759 0.0
C2323 C 0.00647 0.86601 0.77982 0.0
C2324 C 0.01645 0.88105 0.8005 0.0
C2325 C 0.01647 0.86096 0.75195 0.0
C2326 C 0.0364 0.87133 0.74326 0.0
C2327 C 0.04659 0.88635 0.76377 0.0
C2328 C 0.03675 0.89109 0.7923 0.0
C2329 C 0.04648 0.86596 0.71296 0.0
C2330 C 0.06859 0.85828 0.71185 0.0
C2331 C 0.03373 0.86642 0.68557 0.0
C2332 C 0.0105 0.87488 0.68476 0.0
C2333 C 0.00544 0.89649 0.69516 0.0
C2334 C 0.98346 0.90421 0.69457 0.0
C2335 C 0.96642 0.89052 0.68348 0.0
C2336 C 0.97132 0.86906 0.67298 0.0
C2337 C 0.99326 0.86124 0.67361 0.0
H2338 H 0.94943 0.89657 0.68299 0.0
H2339 H 0.16096 0.81662 0.68782 0.0
H2340 H 0.38222 0.79346 0.06878 0.0
H2341 H 0.39216 0.8103 0.01938 0.0
H2342 H 0.36641 0.75255 0.97224 0.0
H2343 H 0.35677 0.7356 0.02121 0.0
H2344 H 0.40652 0.76138 0.95267 0.0
H2345 H 0.34037 0.80506 0.9698 0.0
H2346 H 0.31572 0.83042 0.9986 0.0
H2347 H 0.36662 0.8807 0.99852 0.0
H2348 H 0.39169 0.85553 0.97004 0.0
H2349 H 0.41232 0.79779 0.79865 0.0
H2350 H 0.4006 0.78501 0.84932 0.0
H2351 H 0.42539 0.8459 0.88946 0.0
H2352 H 0.43679 0.85896 0.83857 0.0
H2353 H 0.38711 0.83668 0.91397 0.0
H2354 H 0.453 0.79404 0.89578 0.0
H2355 H 0.47859 0.76862 0.86871 0.0
H2356 H 0.42985 0.71632 0.87302 0.0
H2357 H 0.40381 0.74153 0.89963 0.0
C2358 C 0.37817 0.7846 0.04786 0.0
C2359 C 0.36869 0.76315 0.04907 0.0
C2360 C 0.38388 0.79425 0.01957 0.0
C2361 C 0.38002 0.78274 0.99192 0.0
C2362 C 0.36967 0.76177 0.99314 0.0
C2363 C 0.36408 0.75212 0.02128 0.0
C2364 C 0.38823 0.79152 0.9619 0.0
C2365 C 0.40204 0.77776 0.94407 0.0
C2366 C 0.38305 0.81317 0.951 0.0
C2367 C 0.36799 0.82832 0.96806 0.0
C2368 C 0.34637 0.82146 0.97614 0.0
C2369 C 0.33231 0.83581 0.99236 0.0
C2370 C 0.33962 0.85713 1.00046 0.0
C2371 C 0.36099 0.86417 0.99227 0.0
C2372 C 0.37513 0.84988 0.97606 0.0
C2373 C 0.41551 0.80838 0.81829 0.0
C2374 C 0.42563 0.82936 0.81451 0.0
C2375 C 0.4088 0.80103 0.84735 0.0
C2376 C 0.41238 0.81429 0.8735 0.0
C2377 C 0.42241 0.83531 0.86976 0.0
C2378 C 0.42893 0.84277 0.84062 0.0
C2379 C 0.40524 0.8064 0.90455 0.0
C2380 C 0.39168 0.82033 0.92261 0.0
C2381 C 0.4108 0.78491 0.91584 0.0
C2382 C 0.42633 0.7698 0.89939 0.0
C2383 C 0.44763 0.7772 0.89066 0.0
C2384 C 0.46224 0.76281 0.87544 0.0
C2385 C 0.45582 0.7409 0.86904 0.0
C2386 C 0.43479 0.73331 0.8779 0.0
C2387 C 0.42009 0.74765 0.89305 0.0
H2388 H 0.46717 0.72978 0.8573 0.0
H2389 H 0.32871 0.86822 0.01302 0.0
H2390 H 0.45193 0.10123 0.3156 0.0
H2391 H 0.4323 0.10912 0.26725 0.0
H2392 H 0.49457 0.12688 0.22468 0.0
H2393 H 0.51428 0.11871 0.27214 0.0
H2394 H 0.45973 0.15985 0.21924 0.0
H2395 H 0.47244 0.08045 0.20483 0.0
H2396 H 0.4693 0.04083 0.21941 0.0
H2397 H 0.39795 0.04606 0.21872 0.0
H2398 H 0.40069 0.08583 0.20454 0.0
H2399 H 0.43956 0.16838 0.05982 0.0
H2400 H 0.45287 0.15975 0.11154 0.0
H2401 H 0.38853 0.13251 0.13448 0.0
H2402 H 0.37526 0.14066 0.08254 0.0
H2403 H 0.42018 0.10522 0.15343 0.0
H2404 H 0.40537 0.18209 0.1643 0.0
H2405 H 0.40571 0.2225 0.15385 0.0
H2406 H 0.47674 0.2238 0.16543 0.0
H2407 H 0.4769 0.18331 0.17547 0.0
C2408 C 0.4615 0.10636 0.29577 0.0
C2409 C 0.48472 0.10927 0.29792 0.0
C2410 C 0.45024 0.11096 0.2682 0.0
C2411 C 0.46198 0.11877 0.24246 0.0
C2412 C 0.48517 0.12101 0.2443 0.0
C2413 C 0.49643 0.11614 0.27154 0.0
C2414 C 0.45026 0.12547 0.21382 0.0
C2415 C 0.45125 0.1479 0.20462 0.0
C2416 C 0.4384 0.11005 0.19553 0.0
C2417 C 0.43678 0.08617 0.204 0.0
C2418 C 0.45609 0.07321 0.20808 0.0
C2419 C 0.45438 0.05071 0.2162 0.0
C2420 C 0.43344 0.04095 0.22009 0.0
C2421 C 0.41416 0.05365 0.21576 0.0
C2422 C 0.41578 0.07616 0.20767 0.0
C2423 C 0.42824 0.16053 0.07584 0.0
C2424 C 0.40634 0.1552 0.06695 0.0
C2425 C 0.4358 0.1558 0.10555 0.0
C2426 C 0.42166 0.14565 0.12711 0.0
C2427 C 0.39975 0.14041 0.11835 0.0
C2428 C 0.39214 0.14523 0.08868 0.0
C2429 C 0.43012 0.1396 0.15823 0.0
C2430 C 0.42849 0.1173 0.168 0.0
C2431 C 0.44103 0.15528 0.17737 0.0
C2432 C 0.44117 0.17954 0.1703 0.0
C2433 C 0.42111 0.19091 0.16422 0.0
C2434 C 0.4212 0.21386 0.15847 0.0
C2435 C 0.44124 0.2257 0.1589 0.0
C2436 C 0.46123 0.2146 0.16505 0.0
C2437 C 0.46124 0.19164 0.17078 0.0
H2438 H 0.44127 0.24348 0.15455 0.0
H2439 H 0.43215 0.02353 0.22637 0.0
H2440 H 0.85221 0.74134 0.50763 0.0
H2441 H 0.85797 0.75902 0.55759 0.0
H2442 H 0.87169 0.82165 0.51282 0.0
H2443 H 0.86551 0.80417 0.46269 0.0
H2444 H 0.90585 0.80564 0.55473 0.0
H2445 H 0.82711 0.81975 0.55197 0.0
H2446 H 0.78755 0.80968 0.5457 0.0
H2447 H 0.79273 0.7635 0.62073 0.0
H2448 H 0.83242 0.77306 0.62716 0.0
H2449 H 0.92053 0.86612 0.69406 0.0
H2450 H 0.90971 0.85364 0.64293 0.0
H2451 H 0.8788 0.79531 0.6822 0.0
H2452 H 0.88848 0.80827 0.73346 0.0
H2453 H 0.85256 0.81135 0.64122 0.0
H2454 H 0.93048 0.79458 0.64355 0.0
H2455 H 0.97092 0.80089 0.64856 0.0
H2456 H 0.9687 0.84812 0.57454 0.0
H2457 H 0.92817 0.84241 0.56942 0.0
C2458 C 0.85577 0.75905 0.50845 0.0
C2459 C 0.85824 0.77139 0.48121 0.0
C2460 C 0.85916 0.7691 0.537 0.0
C2461 C 0.86536 0.79162 0.53888 0.0
C2462 C 0.86691 0.80425 0.51183 0.0
C2463 C 0.86311 0.79429 0.48324 0.0
C2464 C 0.87182 0.80135 0.56891 0.0
C2465 C 0.89416 0.80736 0.57355 0.0
C2466 C 0.85669 0.80274 0.59363 0.0
C2467 C 0.8328 0.79699 0.58987 0.0
C2468 C 0.81987 0.80731 0.56696 0.0
C2469 C 0.79741 0.80172 0.56341 0.0
C2470 C 0.78764 0.78592 0.58276 0.0
C2471 C 0.80032 0.77572 0.60574 0.0
C2472 C 0.82279 0.78124 0.60937 0.0
C2473 C 0.9113 0.85071 0.69193 0.0
C2474 C 0.9055 0.83823 0.71812 0.0
C2475 C 0.90533 0.84344 0.66252 0.0
C2476 C 0.89363 0.82335 0.65852 0.0
C2477 C 0.88787 0.81083 0.68457 0.0
C2478 C 0.89367 0.81817 0.71397 0.0
C2479 C 0.88678 0.81565 0.62737 0.0
C2480 C 0.86433 0.80991 0.62246 0.0
C2481 C 0.90195 0.81418 0.60252 0.0
C2482 C 0.92621 0.81824 0.60632 0.0
C2483 C 0.93855 0.80653 0.62859 0.0
C2484 C 0.96151 0.80994 0.63138 0.0
C2485 C 0.97237 0.82486 0.61183 0.0
C2486 C 0.96027 0.83655 0.58964 0.0
C2487 C 0.9373 0.83324 0.5868 0.0
H2488 H 0.99017 0.82735 0.61385 0.0
H2489 H 0.77025 0.78162 0.57998 0.0
H2490 H 0.96848 0.16957 0.48223 0.0
H2491 H 0.97909 0.15668 0.43111 0.0
H2492 H 0.91209 0.16838 0.39887 0.0
H2493 H 0.90138 0.1813 0.44992 0.0
H2494 H 0.92551 0.12848 0.38182 0.0
H2495 H 0.95592 0.20194 0.37746 0.0
H2496 H 0.97823 0.2343 0.394 0.0
H2497 H 0.03798 0.19531 0.3875 0.0
H2498 H 0.01605 0.16251 0.37146 0.0
H2499 H 0.95024 0.11676 0.22085 0.0
H2500 H 0.93789 0.12753 0.27235 0.0
H2501 H 0.00392 0.1149 0.30758 0.0
H2502 H 0.01633 0.10442 0.25633 0.0
H2503 H 0.99049 0.15575 0.3226 0.0
H2504 H 0.95904 0.08198 0.32737 0.0
H2505 H 0.93604 0.05048 0.30948 0.0
H2506 H 0.87749 0.09154 0.31373 0.0
H2507 H 0.90019 0.12338 0.33127 0.0
C2508 C 0.95609 0.16978 0.46414 0.0
C2509 C 0.93402 0.17634 0.47025 0.0
C2510 C 0.96218 0.16237 0.43488 0.0
C2511 C 0.9464 0.16157 0.41106 0.0
C2512 C 0.92453 0.16868 0.41691 0.0
C2513 C 0.91841 0.17602 0.44614 0.0
C2514 C 0.95236 0.15232 0.38048 0.0
C2515 C 0.93955 0.13467 0.36868 0.0
C2516 C 0.97095 0.16006 0.36358 0.0
C2517 C 0.98426 0.17966 0.37357 0.0
C2518 C 0.9738 0.20016 0.37987 0.0
C2519 C 0.98639 0.2186 0.38911 0.0
C2520 C 0.00951 0.21681 0.39189 0.0
C2521 C 0.02008 0.19661 0.38538 0.0
C2522 C 0.00757 0.17809 0.37623 0.0
C2523 C 0.96186 0.11546 0.2398 0.0
C2524 C 0.98422 0.10968 0.23457 0.0
C2525 C 0.95485 0.12179 0.26922 0.0
C2526 C 0.97003 0.12219 0.29385 0.0
C2527 C 0.99195 0.11493 0.28894 0.0
C2528 C -0.00104 0.10873 0.25966 0.0
C2529 C 0.96374 0.1318 0.3241 0.0
C2530 C 0.97648 0.14955 0.3358 0.0
C2531 C 0.94503 0.12426 0.34082 0.0
C2532 C 0.93135 0.10512 0.33034 0.0
C2533 C 0.94128 0.08434 0.32425 0.0
C2534 C 0.9283 0.06642 0.31423 0.0
C2535 C 0.90533 0.06903 0.31039 0.0
C2536 C 0.89529 0.08955 0.31667 0.0
C2537 C 0.9082 0.10754 0.32668 0.0
H2538 H 0.8953 0.05513 0.30263 0.0
H2539 H 0.01923 0.2311 0.39905 0.0
H2540 H 0.63086 0.20314 0.94846 0.0
H2541 H 0.62066 0.18315 0.99565 0.0
H2542 H 0.6153 0.24569 0.04371 0.0
H2543 H 0.62596 0.26567 0.99731 0.0
H2544 H 0.64144 0.18251 0.05319 0.0
H2545 H 0.56806 0.24103 0.09153 0.0
H2546 H 0.53559 0.26037 0.06917 0.0
H2547 H 0.53887 0.21835 0.98964 0.0
H2548 H 0.57116 0.19855 1.01161 0.0
H2549 H 0.62395 0.169 0.21204 0.0
H2550 H 0.63049 0.18324 0.16054 0.0
H2551 H 0.56465 0.16231 0.13328 0.0
H2552 H 0.55735 0.14943 0.18543 0.0
H2553 H 0.5715 0.1998 0.10882 0.0
H2554 H 0.61416 0.13339 0.11196 0.0
H2555 H 0.64136 0.10616 0.13196 0.0
H2556 H 0.69383 0.15426 0.122 0.0
H2557 H 0.66688 0.18189 0.10233 0.0
C2558 C 0.62763 0.21264 0.9691 0.0
C2559 C 0.62922 0.23607 0.96889 0.0
C2560 C 0.62175 0.20118 0.99606 0.0
C2561 C 0.61691 0.21293 0.02317 0.0
C2562 C 0.61865 0.23625 0.02304 0.0
C2563 C 0.62489 0.24765 0.99638 0.0
C2564 C 0.61075 0.20105 0.05205 0.0
C2565 C 0.62614 0.18627 0.06536 0.0
C2566 C 0.59048 0.20537 0.06755 0.0
C2567 C 0.57221 0.21843 0.05315 0.0
C2568 C 0.56192 0.23596 0.06922 0.0
C2569 C 0.54345 0.24692 0.0567 0.0
C2570 C 0.53506 0.24047 0.02814 0.0
C2571 C 0.54532 0.22325 1.01184 0.0
C2572 C 0.5638 0.21225 0.02424 0.0
C2573 C 0.61065 0.16766 0.19534 0.0
C2574 C 0.59006 0.15795 0.20326 0.0
C2575 C 0.6146 0.17553 0.16557 0.0
C2576 C 0.59827 0.17353 0.14257 0.0
C2577 C 0.57765 0.164 0.1504 0.0
C2578 C 0.57357 0.15636 0.1803 0.0
C2579 C 0.60255 0.18184 0.11066 0.0
C2580 C 0.58683 0.19602 0.09677 0.0
C2581 C 0.62216 0.17633 0.09415 0.0
C2582 C 0.63846 0.15977 0.10591 0.0
C2583 C 0.63147 0.13821 0.11424 0.0
C2584 C 0.64685 0.1227 0.12549 0.0
C2585 C 0.6693 0.12849 0.12832 0.0
C2586 C 0.67643 0.1498 0.11983 0.0
C2587 C 0.66111 0.16539 0.10859 0.0
H2588 H 0.68118 0.11646 0.13703 0.0
H2589 H 0.52076 0.24897 0.01849 0.0
H2590 H 0.50476 0.88935 0.74744 0.0
H2591 H 0.5219 0.88065 0.7968 0.0
H2592 H 0.58546 0.87185 0.75243 0.0
H2593 H 0.56834 0.88078 0.70272 0.0
H2594 H 0.57342 0.83552 0.78823 0.0
H2595 H 0.57879 0.91435 0.80126 0.0
H2596 H 0.56546 0.95325 0.80124 0.0
H2597 H 0.51691 0.93698 0.86995 0.0
H2598 H 0.52973 0.89788 0.87008 0.0
H2599 H 0.62659 0.81472 0.93404 0.0
H2600 H 0.61657 0.82884 0.88305 0.0
H2601 H 0.55091 0.84536 0.916 0.0
H2602 H 0.56092 0.83171 0.96702 0.0
H2603 H 0.56801 0.87934 0.8844 0.0
H2604 H 0.56027 0.80065 0.86933 0.0
H2605 H 0.57124 0.76104 0.86777 0.0
H2606 H 0.62224 0.77617 0.80203 0.0
H2607 H 0.61182 0.81597 0.80355 0.0
C2608 C 0.52256 0.88637 0.74828 0.0
C2609 C 0.5352 0.88596 0.72113 0.0
C2610 C 0.53234 0.88128 0.77656 0.0
C2611 C 0.55499 0.87555 0.77842 0.0
C2612 C 0.56796 0.87626 0.75159 0.0
C2613 C 0.55823 0.88172 0.72324 0.0
C2614 C 0.5644 0.86716 0.80796 0.0
C2615 C 0.57275 0.84527 0.80917 0.0
C2616 C 0.56287 0.87961 0.83545 0.0
C2617 C 0.55513 0.90313 0.83551 0.0
C2618 C 0.56515 0.91902 0.8162 0.0
C2619 C 0.55771 0.94111 0.8162 0.0
C2620 C 0.54033 0.94757 0.83554 0.0
C2621 C 0.53037 0.93195 0.85497 0.0
C2622 C 0.53774 0.90982 0.85504 0.0
C2623 C 0.61001 0.82137 0.93044 0.0
C2624 C 0.59457 0.82203 0.95475 0.0
C2625 C 0.60424 0.82928 0.90116 0.0
C2626 C 0.58292 0.83811 0.89551 0.0
C2627 C 0.56746 0.83864 0.91968 0.0
C2628 C 0.57316 0.83063 0.94885 0.0
C2629 C 0.57685 0.84756 0.86486 0.0
C2630 C 0.56904 0.86965 0.86344 0.0
C2631 C 0.57876 0.83521 0.83723 0.0
C2632 C 0.58551 0.81139 0.83697 0.0
C2633 C 0.57405 0.79561 0.85489 0.0
C2634 C 0.58011 0.7731 0.85392 0.0
C2635 C 0.59748 0.76611 0.83491 0.0
C2636 C 0.60884 0.78162 0.81683 0.0
C2637 C 0.60288 0.80416 0.81776 0.0
H2638 H 0.60207 0.74865 0.8341 0.0
H2639 H 0.53459 0.96469 0.83551 0.0
H2640 H 0.59258 0.66774 0.81299 0.0
H2641 H 0.60547 0.68279 0.86199 0.0
H2642 H 0.63874 0.62067 0.88197 0.0
H2643 H 0.62522 0.60519 0.83354 0.0
H2644 H 0.61826 0.63604 0.9319 0.0
H2645 H 0.66768 0.6667 0.85651 0.0
H2646 H 0.67763 0.68678 0.80908 0.0
H2647 H 0.64602 0.74602 0.84319 0.0
H2648 H 0.63545 0.72617 0.89057 0.0
H2649 H 0.6687 0.68444 0.0643 0.0
H2650 H 0.66602 0.66556 0.01442 0.0
H2651 H 0.63588 0.7245 0.97536 0.0
H2652 H 0.63973 0.74362 0.02384 0.0
H2653 H 0.65971 0.70754 0.93433 0.0
H2654 H 0.60614 0.67625 1.0061 0.0
H2655 H 0.59523 0.65662 0.05352 0.0
H2656 H 0.63311 0.59931 0.02606 0.0
H2657 H 0.64463 0.61876 0.97873 0.0
C2658 C 0.6024 0.65715 0.82794 0.0
C2659 C 0.60799 0.63527 0.8191 0.0
C2660 C 0.60999 0.66588 0.85585 0.0
C2661 C 0.62346 0.65302 0.87548 0.0
C2662 C 0.62855 0.631 0.86714 0.0
C2663 C 0.62094 0.62223 0.83927 0.0
C2664 C 0.63223 0.66255 0.90469 0.0
C2665 C 0.62761 0.65152 0.9324 0.0
C2666 C 0.64424 0.68286 0.90547 0.0
C2667 C 0.65064 0.69487 0.87701 0.0
C2668 C 0.66269 0.68395 0.8538 0.0
C2669 C 0.66844 0.6953 0.82692 0.0
C2670 C 0.66239 0.71764 0.82308 0.0
C2671 C 0.65062 0.7287 0.84615 0.0
C2672 C 0.64476 0.71741 0.87303 0.0
C2673 C 0.66207 0.69352 0.04483 0.0
C2674 C 0.65426 0.7155 0.04831 0.0
C2675 C 0.66026 0.68262 0.01638 0.0
C2676 C 0.65016 0.69335 0.99113 0.0
C2677 C 0.64363 0.71569 0.99429 0.0
C2678 C 0.64579 0.72664 0.02232 0.0
C2679 C 0.64512 0.68145 0.96177 0.0
C2680 C 0.65052 0.69197 0.9339 0.0
C2681 C 0.6336 0.6608 0.96087 0.0
C2682 C 0.62645 0.64905 0.98911 0.0
C2683 C 0.61223 0.65951 1.01028 0.0
C2684 C 0.60594 0.64842 0.03712 0.0
C2685 C 0.61349 0.62677 0.04283 0.0
C2686 C 0.62731 0.61611 0.02165 0.0
C2687 C 0.63375 0.62716 0.99483 0.0
H2688 H 0.60861 0.61823 0.06366 0.0
H2689 H 0.66687 0.7264 0.80227 0.0
H2690 H 0.55751 0.38452 0.31722 0.0
H2691 H 0.57545 0.37934 0.26738 0.0
H2692 H 0.51181 0.38693 0.22232 0.0
H2693 H 0.4938 0.39128 0.27218 0.0
H2694 H 0.53099 0.3528 0.19977 0.0
H2695 H 0.55618 0.42749 0.21933 0.0
H2696 H 0.57398 0.4576 0.24909 0.0
H2697 H 0.63573 0.4214 0.24941 0.0
H2698 H 0.61822 0.39095 0.21997 0.0
H2699 H 0.5726 0.35568 0.04715 0.0
H2700 H 0.55544 0.36522 0.0963 0.0
H2701 H 0.61843 0.35484 0.14197 0.0
H2702 H 0.63577 0.34588 0.09267 0.0
H2703 H 0.59965 0.39061 0.16403 0.0
H2704 H 0.57364 0.31607 0.14285 0.0
H2705 H 0.55515 0.28667 0.11255 0.0
H2706 H 0.49378 0.32346 0.1149 0.0
H2707 H 0.51199 0.3533 0.14466 0.0
C2708 C 0.54745 0.38569 0.29663 0.0
C2709 C 0.52424 0.38842 0.29864 0.0
C2710 C 0.55773 0.38267 0.26805 0.0
C2711 C 0.54508 0.38286 0.24081 0.0
C2712 C 0.522 0.38657 0.24284 0.0
C2713 C 0.51171 0.38921 0.27139 0.0
C2714 C 0.55553 0.37786 0.21042 0.0
C2715 C 0.5458 0.36137 0.19179 0.0
C2716 C 0.57524 0.3885 0.20014 0.0
C2717 C 0.58583 0.40686 0.21767 0.0
C2718 C 0.57352 0.42589 0.22592 0.0
C2719 C 0.58356 0.44303 0.2427 0.0
C2720 C 0.60596 0.44139 0.25119 0.0
C2721 C 0.61838 0.42264 0.24284 0.0
C2722 C 0.60841 0.40545 0.22607 0.0
C2723 C 0.58276 0.35532 0.0677 0.0
C2724 C 0.60554 0.34994 0.06601 0.0
C2725 C 0.57291 0.36073 0.09585 0.0
C2726 C 0.5855 0.36042 0.1231 0.0
C2727 C 0.60831 0.35522 0.12138 0.0
C2728 C 0.61823 0.3501 0.09316 0.0
C2729 C 0.575 0.36569 0.15334 0.0
C2730 C 0.58478 0.38213 0.17199 0.0
C2731 C 0.55523 0.3551 0.16354 0.0
C2732 C 0.54427 0.33705 0.14573 0.0
C2733 C 0.55625 0.31799 0.13669 0.0
C2734 C 0.54581 0.30123 0.11961 0.0
C2735 C 0.52333 0.30323 0.11173 0.0
C2736 C 0.51121 0.32196 0.12095 0.0
C2737 C 0.52159 0.3388 0.13792 0.0
H2738 H 0.51525 0.29025 0.09856 0.0
H2739 H 0.6137 0.45467 0.2642 0.0
H2740 H 0.87529 0.34463 0.31129 0.0
H2741 H 0.86195 0.33418 0.36208 0.0
H2742 H 0.92975 0.33071 0.39478 0.0
H2743 H 0.94313 0.34272 0.34445 0.0
H2744 H 0.86646 0.29821 0.39253 0.0
H2745 H 0.93267 0.33949 0.47075 0.0
H2746 H 0.95652 0.373 0.4716 0.0
H2747 H 0.90982 0.40749 0.41383 0.0
H2748 H 0.88562 0.37427 0.41289 0.0
H2749 H 0.8756 0.24536 0.53501 0.0
H2750 H 0.87935 0.26283 0.48523 0.0
H2751 H 0.85588 0.32516 0.52262 0.0
H2752 H 0.85307 0.30784 0.57356 0.0
H2753 H 0.89182 0.3322 0.49023 0.0
H2754 H 0.82403 0.29317 0.47001 0.0
H2755 H 0.79866 0.26083 0.46937 0.0
H2756 H 0.84407 0.2252 0.41123 0.0
H2757 H 0.86984 0.25721 0.4118 0.0
C2758 C 0.88739 0.34215 0.32943 0.0
C2759 C 0.91033 0.34456 0.32371 0.0
C2760 C 0.87971 0.33593 0.35846 0.0
C2761 C 0.89476 0.33182 0.3825 0.0
C2762 C 0.91771 0.33418 0.37687 0.0
C2763 C 0.92539 0.3407 0.3479 0.0
C2764 C 0.88643 0.32412 0.41293 0.0
C2765 C 0.87189 0.30579 0.41386 0.0
C2766 C 0.89317 0.33415 0.44088 0.0
C2767 C 0.90744 0.35433 0.44159 0.0
C2768 C 0.92746 0.35427 0.45836 0.0
C2769 C 0.94105 0.37319 0.45882 0.0
C2770 C 0.93471 0.39235 0.44274 0.0
C2771 C 0.91474 0.39262 0.4262 0.0
C2772 C 0.90111 0.37373 0.42566 0.0
C2773 C 0.87074 0.26269 0.53273 0.0
C2774 C 0.86399 0.27519 0.55843 0.0
C2775 C 0.87282 0.27266 0.50401 0.0
C2776 C 0.86769 0.29529 0.49992 0.0
C2777 C 0.8599 0.30764 0.52518 0.0
C2778 C 0.85803 0.29767 0.55422 0.0
C2779 C 0.8721 0.30613 0.46976 0.0
C2780 C 0.88605 0.32492 0.46887 0.0
C2781 C 0.86451 0.29678 0.44179 0.0
C2782 C 0.8489 0.27758 0.44105 0.0
C2783 C 0.82864 0.2784 0.45719 0.0
C2784 C 0.81419 0.26013 0.45683 0.0
C2785 C 0.81976 0.24097 0.44029 0.0
C2786 C 0.83977 0.24006 0.42401 0.0
C2787 C 0.85428 0.25828 0.42429 0.0
H2788 H 0.80856 0.22683 0.44008 0.0
H2789 H 0.94524 0.40699 0.44311 0.0
H2790 H 0.00328 0.59205 0.78124 0.0
H2791 H 0.98654 0.59643 0.73046 0.0
H2792 H 0.92564 0.61961 0.77239 0.0
H2793 H 0.94191 0.61358 0.82324 0.0
H2794 H 0.9145 0.59903 0.72493 0.0
H2795 H 0.97119 0.65525 0.74126 0.0
H2796 H 0.00818 0.67264 0.74869 0.0
H2797 H 0.03305 0.63845 0.66939 0.0
H2798 H 0.99644 0.62067 0.66168 0.0
H2799 H 0.8773 0.66436 0.59593 0.0
H2800 H 0.88992 0.65038 0.64593 0.0
H2801 H 0.94555 0.61782 0.60216 0.0
H2802 H 0.93308 0.6318 0.55234 0.0
H2803 H 0.95876 0.6422 0.64955 0.0
H2804 H 0.90152 0.58799 0.63146 0.0
H2805 H 0.86341 0.57524 0.61971 0.0
H2806 H 0.83895 0.60804 0.70048 0.0
H2807 H 0.87689 0.62126 0.7125 0.0
C2808 C 0.98608 0.59744 0.77955 0.0
C2809 C 0.97384 0.60239 0.80613 0.0
C2810 C 0.97663 0.60033 0.75049 0.0
C2811 C 0.95504 0.60919 0.74732 0.0
C2812 C 0.94236 0.61291 0.774 0.0
C2813 C 0.9516 0.60931 0.80314 0.0
C2814 C 0.94597 0.61527 0.71645 0.0
C2815 C 0.92417 0.60869 0.70865 0.0
C2816 C 0.95859 0.62747 0.6946 0.0
C2817 C 0.98111 0.63653 0.70106 0.0
C2818 C 0.98466 0.65118 0.72575 0.0
C2819 C 0.00551 0.66117 0.72992 0.0
C2820 C 0.02282 0.65672 0.70943 0.0
C2821 C 0.01957 0.64191 0.68517 0.0
C2822 C -0.00119 0.63186 0.68092 0.0
C2823 C 0.89206 0.65398 0.59699 0.0
C2824 C 0.90433 0.64935 0.57026 0.0
C2825 C 0.89921 0.64594 0.62554 0.0
C2826 C 0.91863 0.63292 0.62781 0.0
C2827 C 0.93055 0.62785 0.60101 0.0
C2828 C 0.92347 0.63594 0.57257 0.0
C2829 C 0.92754 0.62591 0.6582 0.0
C2830 C 0.94924 0.63241 0.66587 0.0
C2831 C 0.91482 0.6138 0.67984 0.0
C2832 C 0.89202 0.60578 0.67272 0.0
C2833 C 0.88799 0.59263 0.64659 0.0
C2834 C 0.86642 0.58529 0.6399 0.0
C2835 C 0.84876 0.59087 0.6593 0.0
C2836 C 0.85265 0.60375 0.68546 0.0
C2837 C 0.87418 0.61115 0.69224 0.0
H2838 H 0.83208 0.58517 0.65408 0.0
H2839 H 0.03869 0.66495 0.71204 0.0
H2840 H 0.38712 0.34847 0.20158 0.0
H2841 H 0.37852 0.3355 0.14995 0.0
H2842 H 0.44607 0.31238 0.13926 0.0
H2843 H 0.4548 0.32489 0.19139 0.0
H2844 H 0.42937 0.33119 0.08525 0.0
H2845 H 0.40908 0.27384 0.15581 0.0
H2846 H 0.39178 0.25747 0.20188 0.0
H2847 H 0.32747 0.28005 0.1717 0.0
H2848 H 0.34441 0.29633 0.12518 0.0
H2849 H 0.37634 0.23122 0.99584 0.0
H2850 H 0.38748 0.2498 0.04269 0.0
H2851 H 0.38173 0.31372 0.99776 0.0
H2852 H 0.37133 0.29493 0.94977 0.0
H2853 H 0.36865 0.27523 0.07962 0.0
H2854 H 0.41564 0.3512 0.03056 0.0
H2855 H 0.43899 0.36154 0.98615 0.0
H2856 H 0.45912 0.29331 0.97571 0.0
H2857 H 0.43562 0.28247 0.01963 0.0
C2858 C 0.40023 0.34062 0.1884 0.0
C2859 C 0.42157 0.33736 0.20112 0.0
C2860 C 0.39528 0.33333 0.15872 0.0
C2861 C 0.41154 0.32266 0.14086 0.0
C2862 C 0.43324 0.32057 0.15261 0.0
C2863 C 0.43823 0.32786 0.18244 0.0
C2864 C 0.40526 0.31235 0.11098 0.0
C2865 C 0.41604 0.31902 0.08392 0.0
C2866 C 0.38831 0.29602 0.10926 0.0
C2867 C 0.37802 0.28648 0.13723 0.0
C2868 C 0.39127 0.27543 0.15911 0.0
C2869 C 0.38153 0.26613 0.18526 0.0
C2870 C 0.35857 0.26788 0.18985 0.0
C2871 C 0.34527 0.27877 0.16815 0.0
C2872 C 0.35491 0.28795 0.14182 0.0
C2873 C 0.37728 0.24926 0.9957 0.0
C2874 C 0.37282 0.26154 0.96881 0.0
C2875 C 0.38371 0.25992 0.02274 0.0
C2876 C 0.38572 0.28323 0.02397 0.0
C2877 C 0.38074 0.29569 0.9974 0.0
C2878 C 0.37448 0.28494 0.97003 0.0
C2879 C 0.39261 0.29408 0.0534 0.0
C2880 C 0.38186 0.28755 0.0806 0.0
C2881 C 0.4102 0.30983 0.05524 0.0
C2882 C 0.4237 0.31603 0.02813 0.0
C2883 C 0.42495 0.33839 0.01862 0.0
C2884 C 0.43816 0.34431 0.99349 0.0
C2885 C 0.4504 0.32803 0.97795 0.0
C2886 C 0.44941 0.30581 0.98748 0.0
C2887 C 0.43607 0.29975 1.01239 0.0
H2888 H 0.46073 0.33264 0.95861 0.0
H2889 H 0.35106 0.26072 0.21016 0.0
H2890 H 0.39441 0.68056 0.93153 0.0
H2891 H 0.41138 0.67111 0.88225 0.0
H2892 H 0.43153 0.60723 0.91843 0.0
H2893 H 0.41569 0.61696 0.96809 0.0
H2894 H 0.46403 0.62379 0.88681 0.0
H2895 H 0.38599 0.61371 0.86786 0.0
H2896 H 0.34644 0.62482 0.86639 0.0
H2897 H 0.36206 0.67801 0.80401 0.0
H2898 H 0.40177 0.66739 0.8054 0.0
H2899 H 0.50375 0.58401 0.74394 0.0
H2900 H 0.48351 0.58771 0.79205 0.0
H2901 H 0.44805 0.64448 0.75508 0.0
H2902 H 0.466 0.63847 0.70563 0.0
H2903 H 0.42211 0.62913 0.78908 0.0
H2904 H 0.50188 0.64461 0.8225 0.0
H2905 H 0.54158 0.6341 0.82881 0.0
H2906 H 0.52221 0.5707 0.86562 0.0
H2907 H 0.48255 0.58101 0.86015 0.0
C2908 C 0.40263 0.66457 0.92918 0.0
C2909 C 0.40343 0.64949 0.95399 0.0
C2910 C 0.4121 0.65906 0.90074 0.0
C2911 C 0.42244 0.63824 0.89625 0.0
C2912 C 0.42354 0.62333 0.92108 0.0
C2913 C 0.41422 0.62886 0.9495 0.0
C2914 C 0.43258 0.6321 0.86604 0.0
C2915 C 0.4548 0.62486 0.86543 0.0
C2916 C 0.42076 0.63356 0.83798 0.0
C2917 C 0.39687 0.63986 0.83694 0.0
C2918 C 0.38101 0.62786 0.85398 0.0
C2919 C 0.35856 0.63406 0.85313 0.0
C2920 C 0.35175 0.65214 0.83517 0.0
C2921 C 0.36736 0.66402 0.81793 0.0
C2922 C 0.38984 0.6579 0.81871 0.0
C2923 C 0.49138 0.59707 0.74608 0.0
C2924 C 0.48665 0.6111 0.72108 0.0
C2925 C 0.48012 0.59962 0.77406 0.0
C2926 C 0.46487 0.61723 0.77855 0.0
C2927 C 0.45967 0.63075 0.75296 0.0
C2928 C 0.47006 0.62742 0.7245 0.0
C2929 C 0.45415 0.62165 0.80932 0.0
C2930 C 0.43161 0.62836 0.81022 0.0
C2931 C 0.46571 0.61975 0.83777 0.0
C2932 C 0.48942 0.61333 0.84005 0.0
C2933 C 0.5062 0.62831 0.83137 0.0
C2934 C 0.52863 0.62245 0.83496 0.0
C2935 C 0.53439 0.60164 0.84703 0.0
C2936 C 0.51774 0.58674 0.85602 0.0
C2937 C 0.49532 0.59263 0.85286 0.0
H2938 H 0.55176 0.59716 0.84971 0.0
H2939 H 0.33436 0.65691 0.83455 0.0
H2940 H 0.13822 0.69179 0.45989 0.0
H2941 H 0.13152 0.67435 0.51007 0.0
H2942 H 0.12739 0.73945 0.55177 0.0
H2943 H 0.13439 0.75682 0.50227 0.0
H2944 H 0.14933 0.71197 0.58835 0.0
H2945 H 0.07974 0.70918 0.53132 0.0
H2946 H 0.0549 0.69848 0.48874 0.0
H2947 H 0.06943 0.62938 0.50456 0.0
H2948 H 0.09446 0.6396 0.54727 0.0
H2949 H 0.09024 0.69276 0.72545 0.0
H2950 H 0.10178 0.70514 0.67463 0.0
H2951 H 0.09966 0.63723 0.64215 0.0
H2952 H 0.08669 0.62488 0.6924 0.0
H2953 H 0.08342 0.6629 0.60022 0.0
H2954 H 0.15018 0.6653 0.66042 0.0
H2955 H 0.17378 0.67571 0.70449 0.0
H2956 H 0.16487 0.74507 0.68307 0.0
H2957 H 0.14099 0.73508 0.63907 0.0
C2958 C 0.13639 0.70234 0.47989 0.0
C2959 C 0.13684 0.7257 0.477 0.0
C2960 C 0.13229 0.69236 0.50852 0.0
C2961 C 0.12857 0.70559 0.5347 0.0
C2962 C 0.13013 0.72885 0.532 0.0
C2963 C 0.13415 0.73877 0.50356 0.0
C2964 C 0.12236 0.69557 0.56485 0.0
C2965 C 0.13484 0.70133 0.59095 0.0
C2966 C 0.10378 0.68124 0.56831 0.0
C2967 C 0.08919 0.67516 0.54219 0.0
C2968 C 0.07782 0.69172 0.52552 0.0
C2969 C 0.06366 0.68575 0.50142 0.0
C2970 C 0.06066 0.66332 0.49382 0.0
C2971 C 0.0718 0.64676 0.51039 0.0
C2972 C 0.08596 0.65262 0.53457 0.0
C2973 C 0.09191 0.68043 0.70746 0.0
C2974 C 0.08769 0.65773 0.71332 0.0
C2975 C 0.09887 0.68753 0.67842 0.0
C2976 C 0.10218 0.67208 0.6546 0.0
C2977 C 0.0975 0.64949 0.66015 0.0
C2978 C 0.09029 0.6424 0.68909 0.0
C2979 C 0.11022 0.67952 0.62384 0.0
C2980 C 0.09808 0.6733 0.59763 0.0
C2981 C 0.12917 0.69338 0.62027 0.0
C2982 C 0.14366 0.69944 0.64658 0.0
C2983 C 0.15315 0.68277 0.66521 0.0
C2984 C 0.16659 0.6886 0.69017 0.0
C2985 C 0.17079 0.71104 0.69661 0.0
C2986 C 0.1616 0.7277 0.67806 0.0
C2987 C 0.14813 0.72196 0.65308 0.0
H2988 H 0.18119 0.71551 0.71594 0.0
H2989 H 0.04964 0.65878 0.47517 0.0
H2990 H 0.99425 0.4047 0.25553 0.0
H2991 H 0.01115 0.3975 0.30581 0.0
H2992 H 0.07327 0.38085 0.26194 0.0
H2993 H 0.05669 0.38884 0.2116 0.0
H2994 H 0.04611 0.34632 0.30589 0.0
H2995 H 0.0821 0.4188 0.29696 0.0
H2996 H 0.08199 0.45942 0.28805 0.0
H2997 H 0.03657 0.46835 0.36309 0.0
H2998 H 0.03617 0.42771 0.37213 0.0
H2999 H 0.10903 0.32173 0.44072 0.0
H3000 H 0.09595 0.33283 0.3899 0.0
H3001 H 0.05068 0.37991 0.43128 0.0
H3002 H 0.06455 0.36984 0.48194 0.0
H3003 H 0.07039 0.39921 0.38673 0.0
H3004 H 0.03354 0.32921 0.39799 0.0
H3005 H 0.02919 0.28886 0.40712 0.0
H3006 H 0.07047 0.27467 0.32918 0.0
H3007 H 0.07539 0.31496 0.31985 0.0
C3008 C 0.01177 0.40042 0.25673 0.0
C3009 C 0.02427 0.39764 0.22976 0.0
C3010 C 0.02132 0.39611 0.28537 0.0
C3011 C 0.04335 0.38853 0.28742 0.0
C3012 C 0.05623 0.38677 0.2607 0.0
C3013 C 0.04685 0.39163 0.23205 0.0
C3014 C 0.05215 0.38071 0.31724 0.0
C3015 C 0.05187 0.35775 0.32349 0.0
C3016 C 0.05866 0.3958 0.34036 0.0
C3017 C 0.0589 0.42021 0.33497 0.0
C3018 C 0.0719 0.4294 0.31133 0.0
C3019 C 0.07198 0.45244 0.30631 0.0
C3020 C 0.05923 0.46646 0.32493 0.0
C3021 C 0.04641 0.45747 0.34865 0.0
C3022 C 0.04627 0.43444 0.35375 0.0
C3023 C 0.09638 0.33453 0.43903 0.0
C3024 C 0.08791 0.34485 0.46558 0.0
C3025 C 0.08869 0.34067 0.4099 0.0
C3026 C 0.07213 0.35708 0.40665 0.0
C3027 C 0.06344 0.36719 0.43311 0.0
C3028 C 0.07125 0.36121 0.46219 0.0
C3029 C 0.06463 0.36458 0.37575 0.0
C3030 C 0.06492 0.38756 0.36924 0.0
C3031 C 0.05771 0.34945 0.3526 0.0
C3032 C 0.05512 0.32517 0.35851 0.0
C3033 C 0.04195 0.31751 0.38303 0.0
C3034 C 0.03932 0.29463 0.38819 0.0
C3035 C 0.04965 0.27921 0.36885 0.0
C3036 C 0.06258 0.28664 0.34425 0.0
C3037 C 0.06529 0.3095 0.33901 0.0
H3038 H 0.04756 0.26151 0.37284 0.0
H3039 H 0.05932 0.48429 0.32102 0.0
loop_
_geom_bond_atom_site_label_1
_geom_bond_atom_site_label_2
_geom_bond_distance
_geom_bond_site_symmetry_2
_ccdc_geom_bond_type
Nd0 C2 2.836 . S
Nd0 O20 2.500 . S
Nd0 O21 2.492 . S
Nd0 O22 2.487 . S
Nd0 O23 2.682 1_655 S
Nd0 O24 2.410 1_655 S
Nd0 O29 2.414 . S
Nd0 O31 2.424 . S
Nd1 C11 2.836 . S
Nd1 O23 2.414 . S
Nd1 O25 2.424 . S
Nd1 O26 2.500 . S
Nd1 O27 2.492 . S
Nd1 O28 2.487 . S
Nd1 O29 2.682 1_455 S
Nd1 O30 2.390 1_455 S
C2 Nd0 2.836 . S
C2 C3 1.498 . S
C2 O20 1.258 . S
C2 O21 1.239 . S
C3 C2 1.498 . S
C3 C4 1.366 1_554 S
C3 C8 1.407 1_554 S
C4 C3 1.366 1_556 S
C4 C5 1.392 . S
C4 H32 0.930 . S
C5 C4 1.392 . S
C5 C6 1.398 . S
C5 H33 0.929 . S
C6 C5 1.398 . S
C6 C7 1.352 . S
C7 C6 1.352 . S
C7 C8 1.384 . S
C7 H34 0.930 . S
C8 C3 1.407 1_556 S
C8 C7 1.384 . S
C8 H35 0.929 1_556 S
C9 O22 1.241 . S
C9 O23 1.273 1_655 S
C10 O24 1.251 . S
C10 O25 1.268 . S
C11 Nd1 2.836 . S
C11 C12 1.498 . S
C11 O26 1.258 . S
C11 O27 1.239 . S
C12 C11 1.498 . S
C12 C13 1.366 . S
C12 C17 1.407 . S
C13 C12 1.366 . S
C13 C14 1.392 . S
C13 H36 0.930 . S
C14 C13 1.392 . S
C14 C15 1.398 . S
C14 H37 0.929 . S
C15 C14 1.398 . S
C15 C16 1.352 . S
C16 C15 1.352 . S
C16 C17 1.384 . S
C16 H38 0.930 . S
C17 C12 1.407 . S
C17 C16 1.384 . S
C17 H39 0.929 . S
C18 O28 1.241 . S
C18 O29 1.273 1_455 S
C19 O30 1.273 . S
C19 O31 1.268 . S
O20 Nd0 2.500 . S
O20 C2 1.258 . S
O21 Nd0 2.492 . S
O21 C2 1.239 . S
O22 Nd0 2.487 . S
O22 C9 1.241 . S
O23 Nd0 2.682 1_455 S
O23 Nd1 2.414 . S
O23 C9 1.273 1_455 S
O24 Nd0 2.410 1_455 S
O24 C10 1.251 . S
O25 Nd1 2.424 . S
O25 C10 1.268 . S
O26 Nd1 2.500 . S
O26 C11 1.258 . S
O27 Nd1 2.492 . S
O27 C11 1.239 . S
O28 Nd1 2.487 . S
O28 C18 1.241 . S
O29 Nd0 2.414 . S
O29 Nd1 2.682 1_655 S
O29 C18 1.273 1_655 S
O30 Nd1 2.390 1_655 S
O30 C19 1.273 . S
O31 Nd0 2.424 . S
O31 C19 1.268 . S
H32 C4 0.930 . S
H33 C5 0.929 . S
H34 C7 0.930 . S
H35 C8 0.929 1_554 S
H36 C13 0.930 . S
H37 C14 0.929 . S
H38 C16 0.930 . S
H39 C17 0.929 . S
Nd40 C42 2.836 . S
Nd40 O60 2.500 . S
Nd40 O61 2.492 . S
Nd40 O62 2.487 . S
Nd40 O63 2.682 . S
Nd40 O64 2.410 . S
Nd40 O69 2.414 . S
Nd40 O71 2.424 . S
Nd41 C51 2.836 . S
Nd41 O63 2.414 . S
Nd41 O65 2.424 . S
Nd41 O66 2.500 . S
Nd41 O67 2.492 . S
Nd41 O68 2.487 . S
Nd41 O69 2.682 . S
Nd41 O70 2.410 . S
C42 Nd40 2.836 . S
C42 C43 1.498 . S
C42 O60 1.258 . S
C42 O61 1.239 . S
C43 C42 1.498 . S
C43 C44 1.366 . S
C43 C48 1.407 . S
C44 C43 1.366 . S
C44 C45 1.392 . S
C44 H72 0.930 . S
C45 C44 1.392 . S
C45 C46 1.398 . S
C45 H73 0.929 . S
C46 C45 1.398 . S
C46 C47 1.352 . S
C47 C46 1.352 . S
C47 C48 1.384 . S
C47 H74 0.930 . S
C48 C43 1.407 . S
C48 C47 1.384 . S
C48 H75 0.929 . S
C49 O62 1.241 . S
C49 O63 1.273 . S
C50 O64 1.251 . S
C50 O65 1.268 . S
C51 Nd41 2.836 . S
C51 C52 1.498 . S
C51 O66 1.258 . S
C51 O67 1.239 . S
C52 C51 1.498 . S
C52 C53 1.366 . S
C52 C57 1.407 . S
C53 C52 1.366 . S
C53 C54 1.392 . S
C53 H76 0.930 . S
C54 C53 1.392 . S
C54 C55 1.398 . S
C54 H77 0.929 . S
C55 C54 1.398 . S
C55 C56 1.352 . S
C56 C55 1.352 . S
C56 C57 1.384 . S
C56 H78 0.930 . S
C57 C52 1.407 . S
C57 C56 1.384 . S
C57 H79 0.929 . S
C58 O68 1.241 . S
C58 O69 1.273 . S
C59 O70 1.251 . S
C59 O71 1.268 . S
O60 Nd40 2.500 . S
O60 C42 1.258 . S
O61 Nd40 2.492 . S
O61 C42 1.239 . S
O62 Nd40 2.487 . S
O62 C49 1.241 . S
O63 Nd40 2.682 . S
O63 Nd41 2.414 . S
O63 C49 1.273 . S
O64 Nd40 2.410 . S
O64 C50 1.251 . S
O65 Nd41 2.424 . S
O65 C50 1.268 . S
O66 Nd41 2.500 . S
O66 C51 1.258 . S
O67 Nd41 2.492 . S
O67 C51 1.239 . S
O68 Nd41 2.487 . S
O68 C58 1.241 . S
O69 Nd40 2.414 . S
O69 Nd41 2.682 . S
O69 C58 1.273 . S
O70 Nd41 2.410 . S
O70 C59 1.251 . S
O71 Nd40 2.424 . S
O71 C59 1.268 . S
H72 C44 0.930 . S
H73 C45 0.929 . S
H74 C47 0.930 . S
H75 C48 0.929 . S
H76 C53 0.930 . S
H77 C54 0.929 . S
H78 C56 0.930 . S
H79 C57 0.929 . S
Nd80 C82 2.836 . S
Nd80 O100 2.500 . S
Nd80 O101 2.492 . S
Nd80 O102 2.487 . S
Nd80 O103 2.682 . S
Nd80 O104 2.410 . S
Nd80 O109 2.414 . S
Nd80 O111 2.424 . S
Nd81 C91 2.836 . S
Nd81 O103 2.414 . S
Nd81 O105 2.424 . S
Nd81 O106 2.500 . S
Nd81 O107 2.492 . S
Nd81 O108 2.487 . S
Nd81 O109 2.682 . S
Nd81 O110 2.410 . S
C82 Nd80 2.836 . S
C82 C83 1.498 . S
C82 O100 1.258 . S
C82 O101 1.239 . S
C83 C82 1.498 . S
C83 C84 1.366 . S
C83 C88 1.407 . S
C84 C83 1.366 . S
C84 C85 1.392 . S
C84 H112 0.930 . S
C85 C84 1.392 . S
C85 C86 1.398 . S
C85 H113 0.929 . S
C86 C85 1.398 . S
C86 C87 1.352 . S
C87 C86 1.352 . S
C87 C88 1.384 . S
C87 H114 0.930 . S
C88 C83 1.407 . S
C88 C87 1.384 . S
C88 H115 0.929 . S
C89 O102 1.241 . S
C89 O103 1.273 . S
C90 O104 1.251 . S
C90 O105 1.268 . S
C91 Nd81 2.836 . S
C91 C92 1.498 . S
C91 O106 1.258 . S
C91 O107 1.239 . S
C92 C91 1.498 . S
C92 C93 1.366 . S
C92 C97 1.407 . S
C93 C92 1.366 . S
C93 C94 1.392 . S
C93 H116 0.930 . S
C94 C93 1.392 . S
C94 C95 1.398 . S
C94 H117 0.929 . S
C95 C94 1.398 . S
C95 C96 1.352 . S
C96 C95 1.352 . S
C96 C97 1.384 . S
C96 H118 0.930 . S
C97 C92 1.407 . S
C97 C96 1.384 . S
C97 H119 0.929 . S
C98 O108 1.241 . S
C98 O109 1.273 . S
C99 O110 1.251 . S
C99 O111 1.268 . S
O100 Nd80 2.500 . S
O100 C82 1.258 . S
O101 Nd80 2.492 . S
O101 C82 1.239 . S
O102 Nd80 2.487 . S
O102 C89 1.241 . S
O103 Nd80 2.682 . S
O103 Nd81 2.414 . S
O103 C89 1.273 . S
O104 Nd80 2.410 . S
O104 C90 1.251 . S
O105 Nd81 2.424 . S
O105 C90 1.268 . S
O106 Nd81 2.500 . S
O106 C91 1.258 . S
O107 Nd81 2.492 . S
O107 C91 1.239 . S
O108 Nd81 2.487 . S
O108 C98 1.241 . S
O109 Nd80 2.414 . S
O109 Nd81 2.682 . S
O109 C98 1.273 . S
O110 Nd81 2.410 . S
O110 C99 1.251 . S
O111 Nd80 2.424 . S
O111 C99 1.268 . S
H112 C84 0.930 . S
H113 C85 0.929 . S
H114 C87 0.930 . S
H115 C88 0.929 . S
H116 C93 0.930 . S
H117 C94 0.929 . S
H118 C96 0.930 . S
H119 C97 0.929 . S
Nd120 C122 2.836 . S
Nd120 O140 2.500 . S
Nd120 O141 2.492 . S
Nd120 O142 2.487 . S
Nd120 O143 2.682 . S
Nd120 O144 2.410 . S
Nd120 O149 2.414 . S
Nd120 O151 2.424 . S
Nd121 C131 2.836 . S
Nd121 O143 2.414 . S
Nd121 O145 2.424 . S
Nd121 O146 2.500 . S
Nd121 O147 2.492 . S
Nd121 O148 2.487 . S
Nd121 O149 2.682 . S
Nd121 O150 2.410 . S
C122 Nd120 2.836 . S
C122 C123 1.498 . S
C122 O140 1.258 . S
C122 O141 1.239 . S
C123 C122 1.498 . S
C123 C124 1.366 . S
C123 C128 1.407 . S
C124 C123 1.366 . S
C124 C125 1.392 . S
C124 H152 0.930 . S
C125 C124 1.392 . S
C125 C126 1.398 . S
C125 H153 0.929 . S
C126 C125 1.398 . S
C126 C127 1.352 . S
C127 C126 1.352 . S
C127 C128 1.384 . S
C127 H154 0.930 . S
C128 C123 1.407 . S
C128 C127 1.384 . S
C128 H155 0.929 . S
C129 O142 1.241 . S
C129 O143 1.273 . S
C130 O144 1.251 . S
C130 O145 1.268 . S
C131 Nd121 2.836 . S
C131 C132 1.498 . S
C131 O146 1.258 . S
C131 O147 1.239 . S
C132 C131 1.498 . S
C132 C133 1.366 . S
C132 C137 1.407 . S
C133 C132 1.366 . S
C133 C134 1.392 1_556 S
C133 H156 0.930 . S
C134 C133 1.392 1_554 S
C134 C135 1.398 . S
C134 H157 0.929 . S
C135 C134 1.398 . S
C135 C136 1.352 . S
C136 C135 1.352 . S
C136 C137 1.384 1_554 S
C136 H158 0.930 . S
C137 C132 1.407 . S
C137 C136 1.384 1_556 S
C137 H159 0.929 . S
C138 O148 1.241 . S
C138 O149 1.273 . S
C139 O150 1.251 . S
C139 O151 1.268 . S
O140 Nd120 2.500 . S
O140 C122 1.258 . S
O141 Nd120 2.492 . S
O141 C122 1.239 . S
O142 Nd120 2.487 . S
O142 C129 1.241 . S
O143 Nd120 2.682 . S
O143 Nd121 2.414 . S
O143 C129 1.273 . S
O144 Nd120 2.410 . S
O144 C130 1.251 . S
O145 Nd121 2.424 . S
O145 C130 1.268 . S
O146 Nd121 2.500 . S
O146 C131 1.258 . S
O147 Nd121 2.492 . S
O147 C131 1.239 . S
O148 Nd121 2.487 . S
O148 C138 1.241 . S
O149 Nd120 2.414 . S
O149 Nd121 2.682 . S
O149 C138 1.273 . S
O150 Nd121 2.410 . S
O150 C139 1.251 . S
O151 Nd120 2.424 . S
O151 C139 1.268 . S
H152 C124 0.930 . S
H153 C125 0.929 . S
H154 C127 0.930 . S
H155 C128 0.929 . S
H156 C133 0.930 . S
H157 C134 0.929 . S
H158 C136 0.930 . S
H159 C137 0.929 . S
Nd160 C162 2.836 . S
Nd160 O180 2.500 . S
Nd160 O181 2.492 . S
Nd160 O182 2.487 . S
Nd160 O183 2.682 1_655 S
Nd160 O184 2.410 1_655 S
Nd160 O189 2.414 1_655 S
Nd160 O191 2.424 . S
Nd161 C171 2.836 . S
Nd161 O183 2.414 . S
Nd161 O185 2.424 . S
Nd161 O186 2.500 . S
Nd161 O187 2.492 . S
Nd161 O188 2.487 . S
Nd161 O189 2.682 . S
Nd161 O190 2.410 . S
C162 Nd160 2.836 . S
C162 C163 1.498 . S
C162 O180 1.258 . S
C162 O181 1.239 . S
C163 C162 1.498 . S
C163 C164 1.366 . S
C163 C168 1.407 . S
C164 C163 1.366 . S
C164 C165 1.392 . S
C164 H192 0.930 . S
C165 C164 1.392 . S
C165 C166 1.398 . S
C165 H193 0.929 . S
C166 C165 1.398 . S
C166 C167 1.352 . S
C167 C166 1.352 . S
C167 C168 1.384 . S
C167 H194 0.930 . S
C168 C163 1.407 . S
C168 C167 1.384 . S
C168 H195 0.929 . S
C169 O182 1.241 1_455 S
C169 O183 1.273 . S
C170 O184 1.251 . S
C170 O185 1.268 . S
C171 Nd161 2.836 . S
C171 C172 1.498 . S
C171 O186 1.258 . S
C171 O187 1.239 . S
C172 C171 1.498 . S
C172 C173 1.366 1_556 S
C172 C177 1.407 1_556 S
C173 C172 1.366 1_554 S
C173 C174 1.392 . S
C173 H196 0.930 . S
C174 C173 1.392 . S
C174 C175 1.398 . S
C174 H197 0.929 . S
C175 C174 1.398 . S
C175 C176 1.352 . S
C176 C175 1.352 . S
C176 C177 1.384 . S
C176 H198 0.930 . S
C177 C172 1.407 1_554 S
C177 C176 1.384 . S
C177 H199 0.929 1_554 S
C178 O188 1.241 . S
C178 O189 1.273 . S
C179 O190 1.251 1_655 S
C179 O191 1.268 . S
O180 Nd160 2.500 . S
O180 C162 1.258 . S
O181 Nd160 2.492 . S
O181 C162 1.239 . S
O182 Nd160 2.487 . S
O182 C169 1.241 1_655 S
O183 Nd160 2.682 1_455 S
O183 Nd161 2.414 . S
O183 C169 1.273 . S
O184 Nd160 2.410 1_455 S
O184 C170 1.251 . S
O185 Nd161 2.424 . S
O185 C170 1.268 . S
O186 Nd161 2.500 . S
O186 C171 1.258 . S
O187 Nd161 2.492 . S
O187 C171 1.239 . S
O188 Nd161 2.487 . S
O188 C178 1.241 . S
O189 Nd160 2.414 1_455 S
O189 Nd161 2.682 . S
O189 C178 1.273 . S
O190 Nd161 2.410 . S
O190 C179 1.251 1_455 S
O191 Nd160 2.424 . S
O191 C179 1.268 . S
H192 C164 0.930 . S
H193 C165 0.929 . S
H194 C167 0.930 . S
H195 C168 0.929 . S
H196 C173 0.930 . S
H197 C174 0.929 . S
H198 C176 0.930 . S
H199 C177 0.929 1_556 S
Nd200 C202 2.836 . S
Nd200 O220 2.500 . S
Nd200 O221 2.492 . S
Nd200 O222 2.487 . S
Nd200 O223 2.682 . S
Nd200 O224 2.410 . S
Nd200 O229 2.414 . S
Nd200 O231 2.424 . S
Nd201 C211 2.836 . S
Nd201 O223 2.414 . S
Nd201 O225 2.424 . S
Nd201 O226 2.500 . S
Nd201 O227 2.492 . S
Nd201 O228 2.487 . S
Nd201 O229 2.682 . S
Nd201 O230 2.410 . S
C202 Nd200 2.836 . S
C202 C203 1.498 . S
C202 O220 1.258 . S
C202 O221 1.239 . S
C203 C202 1.498 . S
C203 C204 1.366 . S
C203 C208 1.407 . S
C204 C203 1.366 . S
C204 C205 1.392 1_554 S
C204 H232 0.930 . S
C205 C204 1.392 1_556 S
C205 C206 1.398 . S
C205 H233 0.929 . S
C206 C205 1.398 . S
C206 C207 1.352 . S
C207 C206 1.352 . S
C207 C208 1.384 1_556 S
C207 H234 0.930 . S
C208 C203 1.407 . S
C208 C207 1.384 1_554 S
C208 H235 0.929 . S
C209 O222 1.241 . S
C209 O223 1.273 . S
C210 O224 1.251 . S
C210 O225 1.268 . S
C211 Nd201 2.836 . S
C211 C212 1.498 . S
C211 O226 1.258 . S
C211 O227 1.239 . S
C212 C211 1.498 . S
C212 C213 1.366 . S
C212 C217 1.407 . S
C213 C212 1.366 . S
C213 C214 1.392 . S
C213 H236 0.930 . S
C214 C213 1.392 . S
C214 C215 1.398 . S
C214 H237 0.929 . S
C215 C214 1.398 . S
C215 C216 1.352 . S
C216 C215 1.352 . S
C216 C217 1.384 . S
C216 H238 0.930 . S
C217 C212 1.407 . S
C217 C216 1.384 . S
C217 H239 0.929 . S
C218 O228 1.241 . S
C218 O229 1.273 . S
C219 O230 1.251 . S
C219 O231 1.268 . S
O220 Nd200 2.500 . S
O220 C202 1.258 . S
O221 Nd200 2.492 . S
O221 C202 1.239 . S
O222 Nd200 2.487 . S
O222 C209 1.241 . S
O223 Nd200 2.682 . S
O223 Nd201 2.414 . S
O223 C209 1.273 . S
O224 Nd200 2.410 . S
O224 C210 1.251 . S
O225 Nd201 2.424 . S
O225 C210 1.268 . S
O226 Nd201 2.500 . S
O226 C211 1.258 . S
O227 Nd201 2.492 . S
O227 C211 1.239 . S
O228 Nd201 2.487 . S
O228 C218 1.241 . S
O229 Nd200 2.414 . S
O229 Nd201 2.682 . S
O229 C218 1.273 . S
O230 Nd201 2.410 . S
O230 C219 1.251 . S
O231 Nd200 2.424 . S
O231 C219 1.268 . S
H232 C204 0.930 . S
H233 C205 0.929 . S
H234 C207 0.930 . S
H235 C208 0.929 . S
H236 C213 0.930 . S
H237 C214 0.929 . S
H238 C216 0.930 . S
H239 C217 0.929 . S
Nd240 C242 2.836 . S
Nd240 O260 2.500 . S
Nd240 O261 2.492 . S
Nd240 O262 2.487 . S
Nd240 O263 2.682 . S
Nd240 O264 2.410 . S
Nd240 O269 2.414 . S
Nd240 O271 2.424 . S
Nd241 C251 2.836 . S
Nd241 O263 2.414 . S
Nd241 O265 2.424 . S
Nd241 O266 2.500 . S
Nd241 O267 2.492 . S
Nd241 O268 2.487 . S
Nd241 O269 2.682 . S
Nd241 O270 2.410 . S
C242 Nd240 2.836 . S
C242 C243 1.498 . S
C242 O260 1.258 . S
C242 O261 1.239 . S
C243 C242 1.498 . S
C243 C244 1.366 . S
C243 C248 1.407 . S
C244 C243 1.366 . S
C244 C245 1.392 . S
C244 H272 0.930 . S
C245 C244 1.392 . S
C245 C246 1.398 . S
C245 H273 0.929 . S
C246 C245 1.398 . S
C246 C247 1.352 . S
C247 C246 1.352 . S
C247 C248 1.384 . S
C247 H274 0.930 . S
C248 C243 1.407 . S
C248 C247 1.384 . S
C248 H275 0.929 . S
C249 O262 1.241 . S
C249 O263 1.273 . S
C250 O264 1.251 . S
C250 O265 1.268 . S
C251 Nd241 2.836 . S
C251 C252 1.498 . S
C251 O266 1.258 . S
C251 O267 1.239 . S
C252 C251 1.498 . S
C252 C253 1.366 . S
C252 C257 1.407 . S
C253 C252 1.366 . S
C253 C254 1.392 . S
C253 H276 0.930 . S
C254 C253 1.392 . S
C254 C255 1.398 . S
C254 H277 0.929 . S
C255 C254 1.398 . S
C255 C256 1.352 . S
C256 C255 1.352 . S
C256 C257 1.384 . S
C256 H278 0.930 . S
C257 C252 1.407 . S
C257 C256 1.384 . S
C257 H279 0.929 . S
C258 O268 1.241 . S
C258 O269 1.273 . S
C259 O270 1.251 . S
C259 O271 1.268 . S
O260 Nd240 2.500 . S
O260 C242 1.258 . S
O261 Nd240 2.492 . S
O261 C242 1.239 . S
O262 Nd240 2.487 . S
O262 C249 1.241 . S
O263 Nd240 2.682 . S
O263 Nd241 2.414 . S
O263 C249 1.273 . S
O264 Nd240 2.410 . S
O264 C250 1.251 . S
O265 Nd241 2.424 . S
O265 C250 1.268 . S
O266 Nd241 2.500 . S
O266 C251 1.258 . S
O267 Nd241 2.492 . S
O267 C251 1.239 . S
O268 Nd241 2.487 . S
O268 C258 1.241 . S
O269 Nd240 2.414 . S
O269 Nd241 2.682 . S
O269 C258 1.273 . S
O270 Nd241 2.410 . S
O270 C259 1.251 . S
O271 Nd240 2.424 . S
O271 C259 1.268 . S
H272 C244 0.930 . S
H273 C245 0.929 . S
H274 C247 0.930 . S
H275 C248 0.929 . S
H276 C253 0.930 . S
H277 C254 0.929 . S
H278 C256 0.930 . S
H279 C257 0.929 . S
Nd280 C282 2.836 . S
Nd280 O300 2.500 . S
Nd280 O301 2.492 . S
Nd280 O302 2.487 . S
Nd280 O303 2.682 . S
Nd280 O304 2.410 . S
Nd280 O309 2.414 . S
Nd280 O311 2.424 . S
Nd281 C291 2.836 . S
Nd281 O303 2.414 . S
Nd281 O305 2.424 . S
Nd281 O306 2.500 . S
Nd281 O307 2.492 . S
Nd281 O308 2.487 . S
Nd281 O309 2.682 . S
Nd281 O310 2.410 . S
C282 Nd280 2.836 . S
C282 C283 1.498 . S
C282 O300 1.258 . S
C282 O301 1.239 . S
C283 C282 1.498 . S
C283 C284 1.366 . S
C283 C288 1.407 . S
C284 C283 1.366 . S
C284 C285 1.392 . S
C284 H312 0.930 . S
C285 C284 1.392 . S
C285 C286 1.398 . S
C285 H313 0.929 . S
C286 C285 1.398 . S
C286 C287 1.352 . S
C287 C286 1.352 . S
C287 C288 1.384 . S
C287 H314 0.930 . S
C288 C283 1.407 . S
C288 C287 1.384 . S
C288 H315 0.929 . S
C289 O302 1.241 . S
C289 O303 1.273 . S
C290 O304 1.251 . S
C290 O305 1.268 . S
C291 Nd281 2.836 . S
C291 C292 1.498 . S
C291 O306 1.258 . S
C291 O307 1.239 . S
C292 C291 1.498 . S
C292 C293 1.366 . S
C292 C297 1.407 . S
C293 C292 1.366 . S
C293 C294 1.392 . S
C293 H316 0.930 . S
C294 C293 1.392 . S
C294 C295 1.398 . S
C294 H317 0.929 . S
C295 C294 1.398 . S
C295 C296 1.352 . S
C296 C295 1.352 . S
C296 C297 1.384 . S
C296 H318 0.930 . S
C297 C292 1.407 . S
C297 C296 1.384 . S
C297 H319 0.929 . S
C298 O308 1.241 . S
C298 O309 1.273 . S
C299 O310 1.251 . S
C299 O311 1.268 . S
O300 Nd280 2.500 . S
O300 C282 1.258 . S
O301 Nd280 2.492 . S
O301 C282 1.239 . S
O302 Nd280 2.487 . S
O302 C289 1.241 . S
O303 Nd280 2.682 . S
O303 Nd281 2.414 . S
O303 C289 1.273 . S
O304 Nd280 2.410 . S
O304 C290 1.251 . S
O305 Nd281 2.424 . S
O305 C290 1.268 . S
O306 Nd281 2.500 . S
O306 C291 1.258 . S
O307 Nd281 2.492 . S
O307 C291 1.239 . S
O308 Nd281 2.487 . S
O308 C298 1.241 . S
O309 Nd280 2.414 . S
O309 Nd281 2.682 . S
O309 C298 1.273 . S
O310 Nd281 2.410 . S
O310 C299 1.251 . S
O311 Nd280 2.424 . S
O311 C299 1.268 . S
H312 C284 0.930 . S
H313 C285 0.929 . S
H314 C287 0.930 . S
H315 C288 0.929 . S
H316 C293 0.930 . S
H317 C294 0.929 . S
H318 C296 0.930 . S
H319 C297 0.929 . S
Nd320 C322 2.836 . S
Nd320 O340 2.500 . S
Nd320 O341 2.492 . S
Nd320 O342 2.487 . S
Nd320 O343 2.682 . S
Nd320 O344 2.410 . S
Nd320 O349 2.414 . S
Nd320 O351 2.424 . S
Nd321 C331 2.836 . S
Nd321 O343 2.414 . S
Nd321 O345 2.424 . S
Nd321 O346 2.500 . S
Nd321 O347 2.492 . S
Nd321 O348 2.487 . S
Nd321 O349 2.682 . S
Nd321 O350 2.410 . S
C322 Nd320 2.836 . S
C322 C323 1.498 . S
C322 O340 1.258 . S
C322 O341 1.239 . S
C323 C322 1.498 . S
C323 C324 1.366 . S
C323 C328 1.407 . S
C324 C323 1.366 . S
C324 C325 1.392 . S
C324 H352 0.930 . S
C325 C324 1.392 . S
C325 C326 1.398 . S
C325 H353 0.929 . S
C326 C325 1.398 . S
C326 C327 1.352 . S
C327 C326 1.352 . S
C327 C328 1.384 . S
C327 H354 0.930 . S
C328 C323 1.407 . S
C328 C327 1.384 . S
C328 H355 0.929 . S
C329 O342 1.241 . S
C329 O343 1.273 . S
C330 O344 1.251 . S
C330 O345 1.268 . S
C331 Nd321 2.836 . S
C331 C332 1.498 . S
C331 O346 1.258 . S
C331 O347 1.239 . S
C332 C331 1.498 . S
C332 C333 1.366 . S
C332 C337 1.407 . S
C333 C332 1.366 . S
C333 C334 1.392 . S
C333 H356 0.930 . S
C334 C333 1.392 . S
C334 C335 1.398 . S
C334 H357 0.929 . S
C335 C334 1.398 . S
C335 C336 1.352 . S
C336 C335 1.352 . S
C336 C337 1.384 . S
C336 H358 0.930 . S
C337 C332 1.407 . S
C337 C336 1.384 . S
C337 H359 0.929 . S
C338 O348 1.241 . S
C338 O349 1.273 . S
C339 O350 1.251 . S
C339 O351 1.268 . S
O340 Nd320 2.500 . S
O340 C322 1.258 . S
O341 Nd320 2.492 . S
O341 C322 1.239 . S
O342 Nd320 2.487 . S
O342 C329 1.241 . S
O343 Nd320 2.682 . S
O343 Nd321 2.414 . S
O343 C329 1.273 . S
O344 Nd320 2.410 . S
O344 C330 1.251 . S
O345 Nd321 2.424 . S
O345 C330 1.268 . S
O346 Nd321 2.500 . S
O346 C331 1.258 . S
O347 Nd321 2.492 . S
O347 C331 1.239 . S
O348 Nd321 2.487 . S
O348 C338 1.241 . S
O349 Nd320 2.414 . S
O349 Nd321 2.682 . S
O349 C338 1.273 . S
O350 Nd321 2.410 . S
O350 C339 1.251 . S
O351 Nd320 2.424 . S
O351 C339 1.268 . S
H352 C324 0.930 . S
H353 C325 0.929 . S
H354 C327 0.930 . S
H355 C328 0.929 . S
H356 C333 0.930 . S
H357 C334 0.929 . S
H358 C336 0.930 . S
H359 C337 0.929 . S
Nd360 C362 2.836 . S
Nd360 O380 2.500 . S
Nd360 O381 2.492 . S
Nd360 O382 2.487 . S
Nd360 O383 2.682 . S
Nd360 O384 2.410 . S
Nd360 O389 2.414 . S
Nd360 O391 2.424 . S
Nd361 C371 2.836 . S
Nd361 O383 2.414 . S
Nd361 O385 2.424 . S
Nd361 O386 2.500 . S
Nd361 O387 2.492 . S
Nd361 O388 2.487 . S
Nd361 O389 2.682 . S
Nd361 O390 2.410 . S
C362 Nd360 2.836 . S
C362 C363 1.498 . S
C362 O380 1.258 . S
C362 O381 1.239 . S
C363 C362 1.498 . S
C363 C364 1.366 . S
C363 C368 1.407 . S
C364 C363 1.366 . S
C364 C365 1.392 1_554 S
C364 H392 0.930 . S
C365 C364 1.392 1_556 S
C365 C366 1.398 . S
C365 H393 0.929 . S
C366 C365 1.398 . S
C366 C367 1.352 . S
C367 C366 1.352 . S
C367 C368 1.384 1_556 S
C367 H394 0.930 . S
C368 C363 1.407 . S
C368 C367 1.384 1_554 S
C368 H395 0.929 . S
C369 O382 1.241 . S
C369 O383 1.273 . S
C370 O384 1.251 . S
C370 O385 1.268 . S
C371 Nd361 2.836 . S
C371 C372 1.498 . S
C371 O386 1.258 . S
C371 O387 1.239 . S
C372 C371 1.498 . S
C372 C373 1.366 . S
C372 C377 1.407 . S
C373 C372 1.366 . S
C373 C374 1.392 . S
C373 H396 0.930 . S
C374 C373 1.392 . S
C374 C375 1.398 . S
C374 H397 0.929 . S
C375 C374 1.398 . S
C375 C376 1.352 . S
C376 C375 1.352 . S
C376 C377 1.384 . S
C376 H398 0.930 . S
C377 C372 1.407 . S
C377 C376 1.384 . S
C377 H399 0.929 . S
C378 O388 1.241 . S
C378 O389 1.273 . S
C379 O390 1.251 . S
C379 O391 1.268 . S
O380 Nd360 2.500 . S
O380 C362 1.258 . S
O381 Nd360 2.492 . S
O381 C362 1.239 . S
O382 Nd360 2.487 . S
O382 C369 1.241 . S
O383 Nd360 2.682 . S
O383 Nd361 2.414 . S
O383 C369 1.273 . S
O384 Nd360 2.410 . S
O384 C370 1.251 . S
O385 Nd361 2.424 . S
O385 C370 1.268 . S
O386 Nd361 2.500 . S
O386 C371 1.258 . S
O387 Nd361 2.492 . S
O387 C371 1.239 . S
O388 Nd361 2.487 . S
O388 C378 1.241 . S
O389 Nd360 2.414 . S
O389 Nd361 2.682 . S
O389 C378 1.273 . S
O390 Nd361 2.410 . S
O390 C379 1.251 . S
O391 Nd360 2.424 . S
O391 C379 1.268 . S
H392 C364 0.930 . S
H393 C365 0.929 . S
H394 C367 0.930 . S
H395 C368 0.929 . S
H396 C373 0.930 . S
H397 C374 0.929 . S
H398 C376 0.930 . S
H399 C377 0.929 . S
Nd400 C402 2.836 . S
Nd400 O420 2.500 . S
Nd400 O421 2.492 . S
Nd400 O422 2.487 . S
Nd400 O423 2.682 . S
Nd400 O424 2.410 . S
Nd400 O429 2.414 . S
Nd400 O431 2.424 . S
Nd401 C411 2.836 . S
Nd401 O423 2.414 . S
Nd401 O425 2.424 . S
Nd401 O426 2.500 . S
Nd401 O427 2.492 . S
Nd401 O428 2.487 . S
Nd401 O429 2.682 . S
Nd401 O430 2.410 . S
C402 Nd400 2.836 . S
C402 C403 1.498 . S
C402 O420 1.258 . S
C402 O421 1.239 . S
C403 C402 1.498 . S
C403 C404 1.366 . S
C403 C408 1.407 . S
C404 C403 1.366 . S
C404 C405 1.392 . S
C404 H432 0.930 . S
C405 C404 1.392 . S
C405 C406 1.398 . S
C405 H433 0.929 . S
C406 C405 1.398 . S
C406 C407 1.352 . S
C407 C406 1.352 . S
C407 C408 1.384 . S
C407 H434 0.930 . S
C408 C403 1.407 . S
C408 C407 1.384 . S
C408 H435 0.929 . S
C409 O422 1.241 . S
C409 O423 1.273 . S
C410 O424 1.251 . S
C410 O425 1.268 . S
C411 Nd401 2.836 . S
C411 C412 1.498 . S
C411 O426 1.258 . S
C411 O427 1.239 . S
C412 C411 1.498 . S
C412 C413 1.366 . S
C412 C417 1.407 . S
C413 C412 1.366 . S
C413 C414 1.392 1_556 S
C413 H436 0.930 . S
C414 C413 1.392 1_554 S
C414 C415 1.398 . S
C414 H437 0.929 . S
C415 C414 1.398 . S
C415 C416 1.352 . S
C416 C415 1.352 . S
C416 C417 1.384 1_554 S
C416 H438 0.930 . S
C417 C412 1.407 . S
C417 C416 1.384 1_556 S
C417 H439 0.929 . S
C418 O428 1.241 . S
C418 O429 1.273 . S
C419 O430 1.251 . S
C419 O431 1.268 . S
O420 Nd400 2.500 . S
O420 C402 1.258 . S
O421 Nd400 2.492 . S
O421 C402 1.239 . S
O422 Nd400 2.487 . S
O422 C409 1.241 . S
O423 Nd400 2.682 . S
O423 Nd401 2.414 . S
O423 C409 1.273 . S
O424 Nd400 2.410 . S
O424 C410 1.251 . S
O425 Nd401 2.424 . S
O425 C410 1.268 . S
O426 Nd401 2.500 . S
O426 C411 1.258 . S
O427 Nd401 2.492 . S
O427 C411 1.239 . S
O428 Nd401 2.487 . S
O428 C418 1.241 . S
O429 Nd400 2.414 . S
O429 Nd401 2.682 . S
O429 C418 1.273 . S
O430 Nd401 2.410 . S
O430 C419 1.251 . S
O431 Nd400 2.424 . S
O431 C419 1.268 . S
H432 C404 0.930 . S
H433 C405 0.929 . S
H434 C407 0.930 . S
H435 C408 0.929 . S
H436 C413 0.930 . S
H437 C414 0.929 . S
H438 C416 0.930 . S
H439 C417 0.929 . S
Nd440 C442 2.836 . S
Nd440 O460 2.500 . S
Nd440 O461 2.492 . S
Nd440 O462 2.487 . S
Nd440 O463 2.682 . S
Nd440 O464 2.410 . S
Nd440 O469 2.414 . S
Nd440 O471 2.424 . S
Nd441 C451 2.836 . S
Nd441 O463 2.414 . S
Nd441 O465 2.424 . S
Nd441 O466 2.500 . S
Nd441 O467 2.492 . S
Nd441 O468 2.487 . S
Nd441 O469 2.682 . S
Nd441 O470 2.410 . S
C442 Nd440 2.836 . S
C442 C443 1.498 . S
C442 O460 1.258 . S
C442 O461 1.239 . S
C443 C442 1.498 . S
C443 C444 1.366 . S
C443 C448 1.407 . S
C444 C443 1.366 . S
C444 C445 1.392 . S
C444 H472 0.930 . S
C445 C444 1.392 . S
C445 C446 1.398 . S
C445 H473 0.929 . S
C446 C445 1.398 . S
C446 C447 1.352 . S
C447 C446 1.352 . S
C447 C448 1.384 . S
C447 H474 0.930 . S
C448 C443 1.407 . S
C448 C447 1.384 . S
C448 H475 0.929 . S
C449 O462 1.241 . S
C449 O463 1.273 . S
C450 O464 1.251 . S
C450 O465 1.268 . S
C451 Nd441 2.836 . S
C451 C452 1.498 . S
C451 O466 1.258 . S
C451 O467 1.239 . S
C452 C451 1.498 . S
C452 C453 1.366 . S
C452 C457 1.407 . S
C453 C452 1.366 . S
C453 C454 1.392 . S
C453 H476 0.930 . S
C454 C453 1.392 . S
C454 C455 1.398 . S
C454 H477 0.929 . S
C455 C454 1.398 . S
C455 C456 1.352 . S
C456 C455 1.352 . S
C456 C457 1.384 . S
C456 H478 0.930 . S
C457 C452 1.407 . S
C457 C456 1.384 . S
C457 H479 0.929 . S
C458 O468 1.241 . S
C458 O469 1.273 . S
C459 O470 1.251 . S
C459 O471 1.268 . S
O460 Nd440 2.500 . S
O460 C442 1.258 . S
O461 Nd440 2.492 . S
O461 C442 1.239 . S
O462 Nd440 2.487 . S
O462 C449 1.241 . S
O463 Nd440 2.682 . S
O463 Nd441 2.414 . S
O463 C449 1.273 . S
O464 Nd440 2.410 . S
O464 C450 1.251 . S
O465 Nd441 2.424 . S
O465 C450 1.268 . S
O466 Nd441 2.500 . S
O466 C451 1.258 . S
O467 Nd441 2.492 . S
O467 C451 1.239 . S
O468 Nd441 2.487 . S
O468 C458 1.241 . S
O469 Nd440 2.414 . S
O469 Nd441 2.682 . S
O469 C458 1.273 . S
O470 Nd441 2.410 . S
O470 C459 1.251 . S
O471 Nd440 2.424 . S
O471 C459 1.268 . S
H472 C444 0.930 . S
H473 C445 0.929 . S
H474 C447 0.930 . S
H475 C448 0.929 . S
H476 C453 0.930 . S
H477 C454 0.929 . S
H478 C456 0.930 . S
H479 C457 0.929 . S
Nd480 C482 2.836 . S
Nd480 O500 2.500 . S
Nd480 O501 2.492 . S
Nd480 O502 2.487 . S
Nd480 O503 2.682 . S
Nd480 O504 2.410 . S
Nd480 O509 2.414 . S
Nd480 O511 2.424 . S
Nd481 C491 2.836 . S
Nd481 O503 2.414 . S
Nd481 O505 2.424 . S
Nd481 O506 2.500 . S
Nd481 O507 2.492 . S
Nd481 O508 2.487 . S
Nd481 O509 2.682 . S
Nd481 O510 2.410 . S
C482 Nd480 2.836 . S
C482 C483 1.498 . S
C482 O500 1.258 . S
C482 O501 1.239 . S
C483 C482 1.498 . S
C483 C484 1.366 . S
C483 C488 1.407 . S
C484 C483 1.366 . S
C484 C485 1.392 . S
C484 H512 0.930 . S
C485 C484 1.392 . S
C485 C486 1.398 . S
C485 H513 0.929 . S
C486 C485 1.398 . S
C486 C487 1.352 . S
C487 C486 1.352 . S
C487 C488 1.384 . S
C487 H514 0.930 . S
C488 C483 1.407 . S
C488 C487 1.384 . S
C488 H515 0.929 . S
C489 O502 1.241 . S
C489 O503 1.273 . S
C490 O504 1.251 . S
C490 O505 1.268 . S
C491 Nd481 2.836 . S
C491 C492 1.498 . S
C491 O506 1.258 . S
C491 O507 1.239 . S
C492 C491 1.498 . S
C492 C493 1.366 . S
C492 C497 1.407 . S
C493 C492 1.366 . S
C493 C494 1.392 . S
C493 H516 0.930 . S
C494 C493 1.392 . S
C494 C495 1.398 . S
C494 H517 0.929 . S
C495 C494 1.398 . S
C495 C496 1.352 . S
C496 C495 1.352 . S
C496 C497 1.384 . S
C496 H518 0.930 . S
C497 C492 1.407 . S
C497 C496 1.384 . S
C497 H519 0.929 . S
C498 O508 1.241 . S
C498 O509 1.273 . S
C499 O510 1.251 . S
C499 O511 1.268 . S
O500 Nd480 2.500 . S
O500 C482 1.258 . S
O501 Nd480 2.492 . S
O501 C482 1.239 . S
O502 Nd480 2.487 . S
O502 C489 1.241 . S
O503 Nd480 2.682 . S
O503 Nd481 2.414 . S
O503 C489 1.273 . S
O504 Nd480 2.410 . S
O504 C490 1.251 . S
O505 Nd481 2.424 . S
O505 C490 1.268 . S
O506 Nd481 2.500 . S
O506 C491 1.258 . S
O507 Nd481 2.492 . S
O507 C491 1.239 . S
O508 Nd481 2.487 . S
O508 C498 1.241 . S
O509 Nd480 2.414 . S
O509 Nd481 2.682 . S
O509 C498 1.273 . S
O510 Nd481 2.410 . S
O510 C499 1.251 . S
O511 Nd480 2.424 . S
O511 C499 1.268 . S
H512 C484 0.930 . S
H513 C485 0.929 . S
H514 C487 0.930 . S
H515 C488 0.929 . S
H516 C493 0.930 . S
H517 C494 0.929 . S
H518 C496 0.930 . S
H519 C497 0.929 . S
Nd520 C522 2.836 . S
Nd520 O540 2.500 . S
Nd520 O541 2.492 . S
Nd520 O542 2.487 . S
Nd520 O543 2.682 . S
Nd520 O544 2.410 . S
Nd520 O549 2.414 . S
Nd520 O551 2.424 . S
Nd521 C531 2.836 . S
Nd521 O543 2.414 1_655 S
Nd521 O545 2.424 . S
Nd521 O546 2.500 . S
Nd521 O547 2.492 . S
Nd521 O548 2.487 . S
Nd521 O549 2.682 1_655 S
Nd521 O550 2.410 1_655 S
C522 Nd520 2.836 . S
C522 C523 1.498 . S
C522 O540 1.258 . S
C522 O541 1.239 . S
C523 C522 1.498 . S
C523 C524 1.366 1_554 S
C523 C528 1.407 1_554 S
C524 C523 1.366 1_556 S
C524 C525 1.392 . S
C524 H552 0.930 . S
C525 C524 1.392 . S
C525 C526 1.398 . S
C525 H553 0.929 . S
C526 C525 1.398 . S
C526 C527 1.352 . S
C527 C526 1.352 . S
C527 C528 1.384 . S
C527 H554 0.930 . S
C528 C523 1.407 1_556 S
C528 C527 1.384 . S
C528 H555 0.929 1_556 S
C529 O542 1.241 . S
C529 O543 1.273 . S
C530 O544 1.251 1_655 S
C530 O545 1.268 . S
C531 Nd521 2.836 . S
C531 C532 1.498 . S
C531 O546 1.258 . S
C531 O547 1.239 . S
C532 C531 1.498 . S
C532 C533 1.366 . S
C532 C537 1.407 . S
C533 C532 1.366 . S
C533 C534 1.392 . S
C533 H556 0.930 . S
C534 C533 1.392 . S
C534 C535 1.398 . S
C534 H557 0.929 . S
C535 C534 1.398 . S
C535 C536 1.352 . S
C536 C535 1.352 . S
C536 C537 1.384 . S
C536 H558 0.930 . S
C537 C532 1.407 . S
C537 C536 1.384 . S
C537 H559 0.929 . S
C538 O548 1.241 1_455 S
C538 O549 1.273 . S
C539 O550 1.251 . S
C539 O551 1.268 . S
O540 Nd520 2.500 . S
O540 C522 1.258 . S
O541 Nd520 2.492 . S
O541 C522 1.239 . S
O542 Nd520 2.487 . S
O542 C529 1.241 . S
O543 Nd520 2.682 . S
O543 Nd521 2.414 1_455 S
O543 C529 1.273 . S
O544 Nd520 2.410 . S
O544 C530 1.251 1_455 S
O545 Nd521 2.424 . S
O545 C530 1.268 . S
O546 Nd521 2.500 . S
O546 C531 1.258 . S
O547 Nd521 2.492 . S
O547 C531 1.239 . S
O548 Nd521 2.487 . S
O548 C538 1.241 1_655 S
O549 Nd520 2.414 . S
O549 Nd521 2.682 1_455 S
O549 C538 1.273 . S
O550 Nd521 2.410 1_455 S
O550 C539 1.251 . S
O551 Nd520 2.424 . S
O551 C539 1.268 . S
H552 C524 0.930 . S
H553 C525 0.929 . S
H554 C527 0.930 . S
H555 C528 0.929 1_554 S
H556 C533 0.930 . S
H557 C534 0.929 . S
H558 C536 0.930 . S
H559 C537 0.929 . S
Nd560 C562 2.836 . S
Nd560 O580 2.500 . S
Nd560 O581 2.492 . S
Nd560 O582 2.487 . S
Nd560 O583 2.682 . S
Nd560 O584 2.410 . S
Nd560 O589 2.414 . S
Nd560 O591 2.424 . S
Nd561 C571 2.836 . S
Nd561 O583 2.414 . S
Nd561 O585 2.424 . S
Nd561 O586 2.500 . S
Nd561 O587 2.492 . S
Nd561 O588 2.487 . S
Nd561 O589 2.682 . S
Nd561 O590 2.410 . S
C562 Nd560 2.836 . S
C562 C563 1.498 . S
C562 O580 1.258 . S
C562 O581 1.239 . S
C563 C562 1.498 . S
C563 C564 1.366 . S
C563 C568 1.407 . S
C564 C563 1.366 . S
C564 C565 1.392 . S
C564 H592 0.930 . S
C565 C564 1.392 . S
C565 C566 1.398 . S
C565 H593 0.929 . S
C566 C565 1.398 . S
C566 C567 1.352 . S
C567 C566 1.352 . S
C567 C568 1.384 . S
C567 H594 0.930 . S
C568 C563 1.407 . S
C568 C567 1.384 . S
C568 H595 0.929 . S
C569 O582 1.241 . S
C569 O583 1.273 . S
C570 O584 1.251 . S
C570 O585 1.268 . S
C571 Nd561 2.836 . S
C571 C572 1.498 . S
C571 O586 1.258 . S
C571 O587 1.239 . S
C572 C571 1.498 . S
C572 C573 1.366 . S
C572 C577 1.407 . S
C573 C572 1.366 . S
C573 C574 1.392 . S
C573 H596 0.930 . S
C574 C573 1.392 . S
C574 C575 1.398 . S
C574 H597 0.929 . S
C575 C574 1.398 . S
C575 C576 1.352 . S
C576 C575 1.352 . S
C576 C577 1.384 . S
C576 H598 0.930 . S
C577 C572 1.407 . S
C577 C576 1.384 . S
C577 H599 0.929 . S
C578 O588 1.241 . S
C578 O589 1.273 . S
C579 O590 1.251 . S
C579 O591 1.268 . S
O580 Nd560 2.500 . S
O580 C562 1.258 . S
O581 Nd560 2.492 . S
O581 C562 1.239 . S
O582 Nd560 2.487 . S
O582 C569 1.241 . S
O583 Nd560 2.682 . S
O583 Nd561 2.414 . S
O583 C569 1.273 . S
O584 Nd560 2.410 . S
O584 C570 1.251 . S
O585 Nd561 2.424 . S
O585 C570 1.268 . S
O586 Nd561 2.500 . S
O586 C571 1.258 . S
O587 Nd561 2.492 . S
O587 C571 1.239 . S
O588 Nd561 2.487 . S
O588 C578 1.241 . S
O589 Nd560 2.414 . S
O589 Nd561 2.682 . S
O589 C578 1.273 . S
O590 Nd561 2.410 . S
O590 C579 1.251 . S
O591 Nd560 2.424 . S
O591 C579 1.268 . S
H592 C564 0.930 . S
H593 C565 0.929 . S
H594 C567 0.930 . S
H595 C568 0.929 . S
H596 C573 0.930 . S
H597 C574 0.929 . S
H598 C576 0.930 . S
H599 C577 0.929 . S
Nd600 C602 2.836 . S
Nd600 O620 2.500 . S
Nd600 O621 2.492 . S
Nd600 O622 2.487 . S
Nd600 O623 2.682 1_455 S
Nd600 O624 2.390 1_455 S
Nd600 O629 2.414 . S
Nd600 O631 2.424 . S
Nd601 C611 2.836 . S
Nd601 O623 2.414 . S
Nd601 O625 2.424 . S
Nd601 O626 2.500 . S
Nd601 O627 2.492 . S
Nd601 O628 2.487 . S
Nd601 O629 2.682 1_655 S
Nd601 O630 2.410 1_655 S
C602 Nd600 2.836 . S
C602 C603 1.498 . S
C602 O620 1.258 . S
C602 O621 1.239 . S
C603 C602 1.498 . S
C603 C604 1.366 . S
C603 C608 1.407 . S
C604 C603 1.366 . S
C604 C605 1.392 . S
C604 H632 0.930 . S
C605 C604 1.392 . S
C605 C606 1.398 . S
C605 H633 0.929 . S
C606 C605 1.398 . S
C606 C607 1.352 . S
C607 C606 1.352 . S
C607 C608 1.384 . S
C607 H634 0.930 . S
C608 C603 1.407 . S
C608 C607 1.384 . S
C608 H635 0.929 . S
C609 O622 1.241 . S
C609 O623 1.273 1_455 S
C610 O624 1.273 . S
C610 O625 1.268 . S
C611 Nd601 2.836 . S
C611 C612 1.498 . S
C611 O626 1.258 . S
C611 O627 1.239 . S
C612 C611 1.498 . S
C612 C613 1.366 1_556 S
C612 C617 1.407 1_556 S
C613 C612 1.366 1_554 S
C613 C614 1.392 . S
C613 H636 0.930 . S
C614 C613 1.392 . S
C614 C615 1.398 . S
C614 H637 0.929 . S
C615 C614 1.398 . S
C615 C616 1.352 . S
C616 C615 1.352 . S
C616 C617 1.384 . S
C616 H638 0.930 . S
C617 C612 1.407 1_554 S
C617 C616 1.384 . S
C617 H639 0.929 1_554 S
C618 O628 1.241 . S
C618 O629 1.273 1_655 S
C619 O630 1.251 . S
C619 O631 1.268 . S
O620 Nd600 2.500 . S
O620 C602 1.258 . S
O621 Nd600 2.492 . S
O621 C602 1.239 . S
O622 Nd600 2.487 . S
O622 C609 1.241 . S
O623 Nd600 2.682 1_655 S
O623 Nd601 2.414 . S
O623 C609 1.273 1_655 S
O624 Nd600 2.390 1_655 S
O624 C610 1.273 . S
O625 Nd601 2.424 . S
O625 C610 1.268 . S
O626 Nd601 2.500 . S
O626 C611 1.258 . S
O627 Nd601 2.492 . S
O627 C611 1.239 . S
O628 Nd601 2.487 . S
O628 C618 1.241 . S
O629 Nd600 2.414 . S
O629 Nd601 2.682 1_455 S
O629 C618 1.273 1_455 S
O630 Nd601 2.410 1_455 S
O630 C619 1.251 . S
O631 Nd600 2.424 . S
O631 C619 1.268 . S
H632 C604 0.930 . S
H633 C605 0.929 . S
H634 C607 0.930 . S
H635 C608 0.929 . S
H636 C613 0.930 . S
H637 C614 0.929 . S
H638 C616 0.930 . S
H639 C617 0.929 1_556 S
H640 C658 0.951 . S
H641 C660 0.951 . S
H642 C662 0.950 . S
H643 C663 0.950 . S
H644 C665 0.950 . S
H645 C668 0.950 . S
H646 C669 0.950 . S
H647 C671 0.950 . S
H648 C672 0.950 . S
H649 C673 0.951 . S
H650 C675 0.951 . S
H651 C677 0.950 . S
H652 C678 0.950 . S
H653 C680 0.950 . S
H654 C683 0.950 . S
H655 C684 0.950 . S
H656 C686 0.950 . S
H657 C687 0.950 . S
C658 H640 0.951 . S
C658 C659 1.366 . S
C658 C660 1.388 . S
C659 C658 1.366 . S
C659 C663 1.385 . S
C660 H641 0.951 . S
C660 C658 1.388 . S
C660 C661 1.366 1_554 S
C661 C660 1.366 1_556 S
C661 C662 1.414 . S
C661 C664 1.499 . S
C662 H642 0.950 . S
C662 C661 1.414 . S
C662 C663 1.374 1_556 S
C663 H643 0.950 . S
C663 C659 1.385 . S
C663 C662 1.374 1_554 S
C664 C661 1.499 . S
C664 C665 1.373 . S
C664 C666 1.389 . S
C665 H644 0.950 . S
C665 C664 1.373 . S
C665 C681 1.377 . S
C666 C664 1.389 . S
C666 C667 1.524 . S
C666 C680 1.377 . S
C667 C666 1.524 . S
C667 C668 1.397 . S
C667 C672 1.363 . S
C668 H645 0.950 . S
C668 C667 1.397 . S
C668 C669 1.334 . S
C669 H646 0.950 . S
C669 C668 1.334 . S
C669 C670 1.287 . S
C670 C669 1.287 . S
C670 C671 1.524 . S
C670 H689 0.913 1_556 S
C671 H647 0.950 . S
C671 C670 1.524 . S
C671 C672 1.415 . S
C672 H648 0.950 . S
C672 C667 1.363 . S
C672 C671 1.415 . S
C673 H649 0.951 . S
C673 C674 1.366 . S
C673 C675 1.388 . S
C674 C673 1.366 . S
C674 C678 1.385 . S
C675 H650 0.951 . S
C675 C673 1.388 . S
C675 C676 1.366 . S
C676 C675 1.366 . S
C676 C677 1.414 . S
C676 C679 1.499 . S
C677 H651 0.950 . S
C677 C676 1.414 . S
C677 C678 1.374 . S
C678 H652 0.950 . S
C678 C674 1.385 . S
C678 C677 1.374 . S
C679 C676 1.499 . S
C679 C680 1.373 . S
C679 C681 1.389 . S
C680 H653 0.950 . S
C680 C666 1.377 . S
C680 C679 1.373 . S
C681 C665 1.377 . S
C681 C679 1.389 . S
C681 C682 1.524 . S
C682 C681 1.524 . S
C682 C683 1.397 . S
C682 C687 1.363 . S
C683 H654 0.950 . S
C683 C682 1.397 . S
C683 C684 1.334 . S
C684 H655 0.950 . S
C684 C683 1.334 . S
C684 C685 1.287 . S
C685 C684 1.287 . S
C685 C686 1.524 . S
C685 H688 0.999 . S
C686 H656 0.950 . S
C686 C685 1.524 . S
C686 C687 1.415 . S
C687 H657 0.950 . S
C687 C682 1.363 . S
C687 C686 1.415 . S
H688 C685 0.999 . S
H689 C670 0.913 1_554 S
H690 C708 0.951 . S
H691 C710 0.951 . S
H692 C712 0.950 . S
H693 C713 0.950 . S
H694 C715 0.950 . S
H695 C718 0.950 . S
H696 C719 0.950 . S
H697 C721 0.950 . S
H698 C722 0.950 . S
H699 C723 0.951 . S
H700 C725 0.951 . S
H701 C727 0.950 . S
H702 C728 0.950 . S
H703 C730 0.950 . S
H704 C733 0.950 . S
H705 C734 0.950 . S
H706 C736 0.950 . S
H707 C737 0.950 . S
C708 H690 0.951 . S
C708 C709 1.366 . S
C708 C710 1.388 . S
C709 C708 1.366 . S
C709 C713 1.385 . S
C710 H691 0.951 . S
C710 C708 1.388 . S
C710 C711 1.366 . S
C711 C710 1.366 . S
C711 C712 1.414 . S
C711 C714 1.499 . S
C712 H692 0.950 . S
C712 C711 1.414 . S
C712 C713 1.374 . S
C713 H693 0.950 . S
C713 C709 1.385 . S
C713 C712 1.374 . S
C714 C711 1.499 . S
C714 C715 1.373 . S
C714 C716 1.389 . S
C715 H694 0.950 . S
C715 C714 1.373 . S
C715 C731 1.377 . S
C716 C714 1.389 . S
C716 C717 1.524 . S
C716 C730 1.377 . S
C717 C716 1.524 . S
C717 C718 1.397 . S
C717 C722 1.363 . S
C718 H695 0.950 . S
C718 C717 1.397 . S
C718 C719 1.334 . S
C719 H696 0.950 . S
C719 C718 1.334 . S
C719 C720 1.287 . S
C720 C719 1.287 . S
C720 C721 1.524 . S
C720 H739 0.913 . S
C721 H697 0.950 . S
C721 C720 1.524 . S
C721 C722 1.415 . S
C722 H698 0.950 . S
C722 C717 1.363 . S
C722 C721 1.415 . S
C723 H699 0.951 . S
C723 C724 1.366 . S
C723 C725 1.388 . S
C724 C723 1.366 . S
C724 C728 1.385 . S
C725 H700 0.951 . S
C725 C723 1.388 . S
C725 C726 1.366 . S
C726 C725 1.366 . S
C726 C727 1.414 . S
C726 C729 1.499 . S
C727 H701 0.950 . S
C727 C726 1.414 . S
C727 C728 1.374 . S
C728 H702 0.950 . S
C728 C724 1.385 . S
C728 C727 1.374 . S
C729 C726 1.499 . S
C729 C730 1.373 . S
C729 C731 1.389 . S
C730 H703 0.950 . S
C730 C716 1.377 . S
C730 C729 1.373 . S
C731 C715 1.377 . S
C731 C729 1.389 . S
C731 C732 1.524 . S
C732 C731 1.524 . S
C732 C733 1.397 . S
C732 C737 1.363 . S
C733 H704 0.950 . S
C733 C732 1.397 . S
C733 C734 1.334 . S
C734 H705 0.950 . S
C734 C733 1.334 . S
C734 C735 1.287 . S
C735 C734 1.287 . S
C735 C736 1.524 . S
C735 H738 0.999 . S
C736 H706 0.950 . S
C736 C735 1.524 . S
C736 C737 1.415 . S
C737 H707 0.950 . S
C737 C732 1.363 . S
C737 C736 1.415 . S
H738 C735 0.999 . S
H739 C720 0.913 . S
H740 C758 0.951 . S
H741 C760 0.951 . S
H742 C762 0.950 . S
H743 C763 0.950 . S
H744 C765 0.950 . S
H745 C768 0.950 . S
H746 C769 0.950 . S
H747 C771 0.950 . S
H748 C772 0.950 . S
H749 C773 0.951 . S
H750 C775 0.951 . S
H751 C777 0.950 . S
H752 C778 0.950 . S
H753 C780 0.950 . S
H754 C783 0.950 . S
H755 C784 0.950 . S
H756 C786 0.950 . S
H757 C787 0.950 . S
C758 H740 0.951 . S
C758 C759 1.366 . S
C758 C760 1.388 . S
C759 C758 1.366 . S
C759 C763 1.385 . S
C760 H741 0.951 . S
C760 C758 1.388 . S
C760 C761 1.366 . S
C761 C760 1.366 . S
C761 C762 1.414 . S
C761 C764 1.499 . S
C762 H742 0.950 . S
C762 C761 1.414 . S
C762 C763 1.374 . S
C763 H743 0.950 . S
C763 C759 1.385 . S
C763 C762 1.374 . S
C764 C761 1.499 . S
C764 C765 1.373 . S
C764 C766 1.389 . S
C765 H744 0.950 . S
C765 C764 1.373 . S
C765 C781 1.377 . S
C766 C764 1.389 . S
C766 C767 1.524 . S
C766 C780 1.377 . S
C767 C766 1.524 . S
C767 C768 1.397 . S
C767 C772 1.363 . S
C768 H745 0.950 . S
C768 C767 1.397 . S
C768 C769 1.334 . S
C769 H746 0.950 . S
C769 C768 1.334 . S
C769 C770 1.287 . S
C770 C769 1.287 . S
C770 C771 1.524 . S
C770 H789 0.913 . S
C771 H747 0.950 . S
C771 C770 1.524 . S
C771 C772 1.415 . S
C772 H748 0.950 . S
C772 C767 1.363 . S
C772 C771 1.415 . S
C773 H749 0.951 . S
C773 C774 1.366 . S
C773 C775 1.388 . S
C774 C773 1.366 . S
C774 C778 1.385 . S
C775 H750 0.951 . S
C775 C773 1.388 . S
C775 C776 1.366 . S
C776 C775 1.366 . S
C776 C777 1.414 . S
C776 C779 1.499 . S
C777 H751 0.950 . S
C777 C776 1.414 . S
C777 C778 1.374 . S
C778 H752 0.950 . S
C778 C774 1.385 . S
C778 C777 1.374 . S
C779 C776 1.499 . S
C779 C780 1.373 . S
C779 C781 1.389 . S
C780 H753 0.950 . S
C780 C766 1.377 . S
C780 C779 1.373 . S
C781 C765 1.377 . S
C781 C779 1.389 . S
C781 C782 1.524 . S
C782 C781 1.524 . S
C782 C783 1.397 . S
C782 C787 1.363 . S
C783 H754 0.950 . S
C783 C782 1.397 . S
C783 C784 1.334 . S
C784 H755 0.950 . S
C784 C783 1.334 . S
C784 C785 1.287 . S
C785 C784 1.287 . S
C785 C786 1.524 . S
C785 H788 0.999 . S
C786 H756 0.950 . S
C786 C785 1.524 . S
C786 C787 1.415 . S
C787 H757 0.950 . S
C787 C782 1.363 . S
C787 C786 1.415 . S
H788 C785 0.999 . S
H789 C770 0.913 . S
H790 C808 0.951 . S
H791 C810 0.951 . S
H792 C812 0.950 . S
H793 C813 0.950 . S
H794 C815 0.950 . S
H795 C818 0.950 . S
H796 C819 0.950 . S
H797 C821 0.950 . S
H798 C822 0.950 . S
H799 C823 0.951 . S
H800 C825 0.951 . S
H801 C827 0.950 . S
H802 C828 0.950 . S
H803 C830 0.950 . S
H804 C833 0.950 . S
H805 C834 0.950 . S
H806 C836 0.950 . S
H807 C837 0.950 . S
C808 H790 0.951 . S
C808 C809 1.366 . S
C808 C810 1.388 . S
C809 C808 1.366 . S
C809 C813 1.385 . S
C810 H791 0.951 . S
C810 C808 1.388 . S
C810 C811 1.366 . S
C811 C810 1.366 . S
C811 C812 1.414 . S
C811 C814 1.499 . S
C812 H792 0.950 . S
C812 C811 1.414 . S
C812 C813 1.374 . S
C813 H793 0.950 . S
C813 C809 1.385 . S
C813 C812 1.374 . S
C814 C811 1.499 . S
C814 C815 1.373 . S
C814 C816 1.389 . S
C815 H794 0.950 . S
C815 C814 1.373 . S
C815 C831 1.377 . S
C816 C814 1.389 . S
C816 C817 1.524 . S
C816 C830 1.377 . S
C817 C816 1.524 . S
C817 C818 1.397 . S
C817 C822 1.363 . S
C818 H795 0.950 . S
C818 C817 1.397 . S
C818 C819 1.334 . S
C819 H796 0.950 . S
C819 C818 1.334 . S
C819 C820 1.287 . S
C820 C819 1.287 . S
C820 C821 1.524 . S
C820 H839 0.913 . S
C821 H797 0.950 . S
C821 C820 1.524 . S
C821 C822 1.415 . S
C822 H798 0.950 . S
C822 C817 1.363 . S
C822 C821 1.415 . S
C823 H799 0.951 . S
C823 C824 1.366 . S
C823 C825 1.388 . S
C824 C823 1.366 . S
C824 C828 1.385 . S
C825 H800 0.951 . S
C825 C823 1.388 . S
C825 C826 1.366 . S
C826 C825 1.366 . S
C826 C827 1.414 . S
C826 C829 1.499 . S
C827 H801 0.950 . S
C827 C826 1.414 . S
C827 C828 1.374 . S
C828 H802 0.950 . S
C828 C824 1.385 . S
C828 C827 1.374 . S
C829 C826 1.499 . S
C829 C830 1.373 . S
C829 C831 1.389 . S
C830 H803 0.950 . S
C830 C816 1.377 . S
C830 C829 1.373 . S
C831 C815 1.377 . S
C831 C829 1.389 . S
C831 C832 1.524 . S
C832 C831 1.524 . S
C832 C833 1.397 . S
C832 C837 1.363 . S
C833 H804 0.950 . S
C833 C832 1.397 . S
C833 C834 1.334 . S
C834 H805 0.950 . S
C834 C833 1.334 . S
C834 C835 1.287 . S
C835 C834 1.287 . S
C835 C836 1.524 . S
C835 H838 0.999 . S
C836 H806 0.950 . S
C836 C835 1.524 . S
C836 C837 1.415 . S
C837 H807 0.950 . S
C837 C832 1.363 . S
C837 C836 1.415 . S
H838 C835 0.999 . S
H839 C820 0.913 . S
H840 C858 0.951 . S
H841 C860 0.951 . S
H842 C862 0.950 . S
H843 C863 0.950 . S
H844 C865 0.950 . S
H845 C868 0.950 . S
H846 C869 0.950 . S
H847 C871 0.950 . S
H848 C872 0.950 . S
H849 C873 0.951 1_455 S
H850 C875 0.951 . S
H851 C877 0.950 . S
H852 C878 0.950 . S
H853 C880 0.950 . S
H854 C883 0.950 . S
H855 C884 0.950 . S
H856 C886 0.950 1_455 S
H857 C887 0.950 . S
C858 H840 0.951 . S
C858 C859 1.366 . S
C858 C860 1.388 . S
C859 C858 1.366 . S
C859 C863 1.385 . S
C860 H841 0.951 . S
C860 C858 1.388 . S
C860 C861 1.366 . S
C861 C860 1.366 . S
C861 C862 1.414 . S
C861 C864 1.499 . S
C862 H842 0.950 . S
C862 C861 1.414 . S
C862 C863 1.374 . S
C863 H843 0.950 . S
C863 C859 1.385 . S
C863 C862 1.374 . S
C864 C861 1.499 . S
C864 C865 1.373 . S
C864 C866 1.389 . S
C865 H844 0.950 . S
C865 C864 1.373 . S
C865 C881 1.377 . S
C866 C864 1.389 . S
C866 C867 1.524 . S
C866 C880 1.377 . S
C867 C866 1.524 . S
C867 C868 1.397 . S
C867 C872 1.363 . S
C868 H845 0.950 . S
C868 C867 1.397 . S
C868 C869 1.334 . S
C869 H846 0.950 . S
C869 C868 1.334 . S
C869 C870 1.287 . S
C870 C869 1.287 . S
C870 C871 1.524 . S
C870 H889 0.913 . S
C871 H847 0.950 . S
C871 C870 1.524 . S
C871 C872 1.415 . S
C872 H848 0.950 . S
C872 C867 1.363 . S
C872 C871 1.415 . S
C873 H849 0.951 1_655 S
C873 C874 1.366 . S
C873 C875 1.388 1_556 S
C874 C873 1.366 . S
C874 C878 1.385 . S
C875 H850 0.951 . S
C875 C873 1.388 1_554 S
C875 C876 1.366 . S
C876 C875 1.366 . S
C876 C877 1.414 1_554 S
C876 C879 1.499 . S
C877 H851 0.950 . S
C877 C876 1.414 1_556 S
C877 C878 1.374 . S
C878 H852 0.950 . S
C878 C874 1.385 . S
C878 C877 1.374 . S
C879 C876 1.499 . S
C879 C880 1.373 . S
C879 C881 1.389 . S
C880 H853 0.950 . S
C880 C866 1.377 . S
C880 C879 1.373 . S
C881 C865 1.377 . S
C881 C879 1.389 . S
C881 C882 1.524 . S
C882 C881 1.524 . S
C882 C883 1.397 . S
C882 C887 1.363 . S
C883 H854 0.950 . S
C883 C882 1.397 . S
C883 C884 1.334 . S
C884 H855 0.950 . S
C884 C883 1.334 . S
C884 C885 1.287 . S
C885 C884 1.287 . S
C885 C886 1.524 . S
C885 H888 0.999 . S
C886 H856 0.950 1_655 S
C886 C885 1.524 . S
C886 C887 1.415 . S
C887 H857 0.950 . S
C887 C882 1.363 . S
C887 C886 1.415 . S
H888 C885 0.999 . S
H889 C870 0.913 . S
H890 C908 0.951 . S
H891 C910 0.951 . S
H892 C912 0.950 . S
H893 C913 0.950 . S
H894 C915 0.950 . S
H895 C918 0.950 . S
H896 C919 0.950 . S
H897 C921 0.950 . S
H898 C922 0.950 . S
H899 C923 0.951 . S
H900 C925 0.951 . S
H901 C927 0.950 . S
H902 C928 0.950 . S
H903 C930 0.950 . S
H904 C933 0.950 . S
H905 C934 0.950 . S
H906 C936 0.950 . S
H907 C937 0.950 . S
C908 H890 0.951 . S
C908 C909 1.366 . S
C908 C910 1.388 . S
C909 C908 1.366 . S
C909 C913 1.385 . S
C910 H891 0.951 . S
C910 C908 1.388 . S
C910 C911 1.366 . S
C911 C910 1.366 . S
C911 C912 1.414 . S
C911 C914 1.499 . S
C912 H892 0.950 . S
C912 C911 1.414 . S
C912 C913 1.374 . S
C913 H893 0.950 . S
C913 C909 1.385 . S
C913 C912 1.374 . S
C914 C911 1.499 . S
C914 C915 1.373 . S
C914 C916 1.389 . S
C915 H894 0.950 . S
C915 C914 1.373 . S
C915 C931 1.377 . S
C916 C914 1.389 . S
C916 C917 1.524 . S
C916 C930 1.377 . S
C917 C916 1.524 . S
C917 C918 1.397 . S
C917 C922 1.363 . S
C918 H895 0.950 . S
C918 C917 1.397 . S
C918 C919 1.334 . S
C919 H896 0.950 . S
C919 C918 1.334 . S
C919 C920 1.287 . S
C920 C919 1.287 . S
C920 C921 1.524 . S
C920 H939 0.913 . S
C921 H897 0.950 . S
C921 C920 1.524 . S
C921 C922 1.415 . S
C922 H898 0.950 . S
C922 C917 1.363 . S
C922 C921 1.415 . S
C923 H899 0.951 . S
C923 C924 1.366 . S
C923 C925 1.388 . S
C924 C923 1.366 . S
C924 C928 1.385 . S
C925 H900 0.951 . S
C925 C923 1.388 . S
C925 C926 1.366 . S
C926 C925 1.366 . S
C926 C927 1.414 . S
C926 C929 1.499 . S
C927 H901 0.950 . S
C927 C926 1.414 . S
C927 C928 1.374 . S
C928 H902 0.950 . S
C928 C924 1.385 . S
C928 C927 1.374 . S
C929 C926 1.499 . S
C929 C930 1.373 . S
C929 C931 1.389 . S
C930 H903 0.950 . S
C930 C916 1.377 . S
C930 C929 1.373 . S
C931 C915 1.377 . S
C931 C929 1.389 . S
C931 C932 1.524 . S
C932 C931 1.524 . S
C932 C933 1.397 . S
C932 C937 1.363 . S
C933 H904 0.950 . S
C933 C932 1.397 . S
C933 C934 1.334 . S
C934 H905 0.950 . S
C934 C933 1.334 . S
C934 C935 1.287 . S
C935 C934 1.287 . S
C935 C936 1.524 . S
C935 H938 0.999 . S
C936 H906 0.950 . S
C936 C935 1.524 . S
C936 C937 1.415 . S
C937 H907 0.950 . S
C937 C932 1.363 . S
C937 C936 1.415 . S
H938 C935 0.999 . S
H939 C920 0.913 . S
H940 C958 0.951 . S
H941 C960 0.951 . S
H942 C962 0.950 . S
H943 C963 0.950 . S
H944 C965 0.950 . S
H945 C968 0.950 . S
H946 C969 0.950 . S
H947 C971 0.950 . S
H948 C972 0.950 . S
H949 C973 0.951 . S
H950 C975 0.951 . S
H951 C977 0.950 . S
H952 C978 0.950 . S
H953 C980 0.950 . S
H954 C983 0.950 . S
H955 C984 0.950 . S
H956 C986 0.950 . S
H957 C987 0.950 . S
C958 H940 0.951 . S
C958 C959 1.366 . S
C958 C960 1.388 . S
C959 C958 1.366 . S
C959 C963 1.385 . S
C960 H941 0.951 . S
C960 C958 1.388 . S
C960 C961 1.366 . S
C961 C960 1.366 . S
C961 C962 1.414 . S
C961 C964 1.499 . S
C962 H942 0.950 . S
C962 C961 1.414 . S
C962 C963 1.374 . S
C963 H943 0.950 . S
C963 C959 1.385 . S
C963 C962 1.374 . S
C964 C961 1.499 . S
C964 C965 1.373 . S
C964 C966 1.389 . S
C965 H944 0.950 . S
C965 C964 1.373 . S
C965 C981 1.377 . S
C966 C964 1.389 . S
C966 C967 1.524 . S
C966 C980 1.377 . S
C967 C966 1.524 . S
C967 C968 1.397 . S
C967 C972 1.363 . S
C968 H945 0.950 . S
C968 C967 1.397 . S
C968 C969 1.334 . S
C969 H946 0.950 . S
C969 C968 1.334 . S
C969 C970 1.287 . S
C970 C969 1.287 . S
C970 C971 1.524 . S
C970 H989 0.913 . S
C971 H947 0.950 . S
C971 C970 1.524 . S
C971 C972 1.415 . S
C972 H948 0.950 . S
C972 C967 1.363 . S
C972 C971 1.415 . S
C973 H949 0.951 . S
C973 C974 1.366 . S
C973 C975 1.388 . S
C974 C973 1.366 . S
C974 C978 1.385 . S
C975 H950 0.951 . S
C975 C973 1.388 . S
C975 C976 1.366 . S
C976 C975 1.366 . S
C976 C977 1.414 . S
C976 C979 1.499 . S
C977 H951 0.950 . S
C977 C976 1.414 . S
C977 C978 1.374 . S
C978 H952 0.950 . S
C978 C974 1.385 . S
C978 C977 1.374 . S
C979 C976 1.499 . S
C979 C980 1.373 . S
C979 C981 1.389 . S
C980 H953 0.950 . S
C980 C966 1.377 . S
C980 C979 1.373 . S
C981 C965 1.377 . S
C981 C979 1.389 . S
C981 C982 1.524 . S
C982 C981 1.524 . S
C982 C983 1.397 . S
C982 C987 1.363 . S
C983 H954 0.950 . S
C983 C982 1.397 . S
C983 C984 1.334 . S
C984 H955 0.950 . S
C984 C983 1.334 . S
C984 C985 1.287 . S
C985 C984 1.287 . S
C985 C986 1.524 . S
C985 H988 0.999 . S
C986 H956 0.950 . S
C986 C985 1.524 . S
C986 C987 1.415 . S
C987 H957 0.950 . S
C987 C982 1.363 . S
C987 C986 1.415 . S
H988 C985 0.999 . S
H989 C970 0.913 . S
H990 C1008 0.951 . S
H991 C1010 0.951 . S
H992 C1012 0.950 . S
H993 C1013 0.950 . S
H994 C1015 0.950 . S
H995 C1018 0.950 . S
H996 C1019 0.950 . S
H997 C1021 0.950 . S
H998 C1022 0.950 . S
H999 C1023 0.951 . S
H1000 C1025 0.951 . S
H1001 C1027 0.950 . S
H1002 C1028 0.950 . S
H1003 C1030 0.950 . S
H1004 C1033 0.950 . S
H1005 C1034 0.950 . S
H1006 C1036 0.950 . S
H1007 C1037 0.950 . S
C1008 H990 0.951 . S
C1008 C1009 1.366 . S
C1008 C1010 1.388 . S
C1009 C1008 1.366 . S
C1009 C1013 1.385 . S
C1010 H991 0.951 . S
C1010 C1008 1.388 . S
C1010 C1011 1.366 . S
C1011 C1010 1.366 . S
C1011 C1012 1.414 . S
C1011 C1014 1.499 . S
C1012 H992 0.950 . S
C1012 C1011 1.414 . S
C1012 C1013 1.374 . S
C1013 H993 0.950 . S
C1013 C1009 1.385 . S
C1013 C1012 1.374 . S
C1014 C1011 1.499 . S
C1014 C1015 1.373 . S
C1014 C1016 1.389 . S
C1015 H994 0.950 . S
C1015 C1014 1.373 . S
C1015 C1031 1.377 . S
C1016 C1014 1.389 . S
C1016 C1017 1.524 . S
C1016 C1030 1.377 . S
C1017 C1016 1.524 . S
C1017 C1018 1.397 . S
C1017 C1022 1.363 . S
C1018 H995 0.950 . S
C1018 C1017 1.397 . S
C1018 C1019 1.334 . S
C1019 H996 0.950 . S
C1019 C1018 1.334 . S
C1019 C1020 1.287 . S
C1020 C1019 1.287 . S
C1020 C1021 1.524 . S
C1020 H1039 0.913 . S
C1021 H997 0.950 . S
C1021 C1020 1.524 . S
C1021 C1022 1.415 . S
C1022 H998 0.950 . S
C1022 C1017 1.363 . S
C1022 C1021 1.415 . S
C1023 H999 0.951 . S
C1023 C1024 1.366 . S
C1023 C1025 1.388 . S
C1024 C1023 1.366 . S
C1024 C1028 1.385 . S
C1025 H1000 0.951 . S
C1025 C1023 1.388 . S
C1025 C1026 1.366 . S
C1026 C1025 1.366 . S
C1026 C1027 1.414 . S
C1026 C1029 1.499 . S
C1027 H1001 0.950 . S
C1027 C1026 1.414 . S
C1027 C1028 1.374 . S
C1028 H1002 0.950 . S
C1028 C1024 1.385 . S
C1028 C1027 1.374 . S
C1029 C1026 1.499 . S
C1029 C1030 1.373 . S
C1029 C1031 1.389 . S
C1030 H1003 0.950 . S
C1030 C1016 1.377 . S
C1030 C1029 1.373 . S
C1031 C1015 1.377 . S
C1031 C1029 1.389 . S
C1031 C1032 1.524 . S
C1032 C1031 1.524 . S
C1032 C1033 1.397 . S
C1032 C1037 1.363 . S
C1033 H1004 0.950 . S
C1033 C1032 1.397 . S
C1033 C1034 1.334 . S
C1034 H1005 0.950 . S
C1034 C1033 1.334 . S
C1034 C1035 1.287 . S
C1035 C1034 1.287 . S
C1035 C1036 1.524 . S
C1035 H1038 0.999 . S
C1036 H1006 0.950 . S
C1036 C1035 1.524 . S
C1036 C1037 1.415 . S
C1037 H1007 0.950 . S
C1037 C1032 1.363 . S
C1037 C1036 1.415 . S
H1038 C1035 0.999 . S
H1039 C1020 0.913 . S
H1040 C1058 0.951 . S
H1041 C1060 0.951 . S
H1042 C1062 0.950 . S
H1043 C1063 0.950 . S
H1044 C1065 0.950 . S
H1045 C1068 0.950 . S
H1046 C1069 0.950 . S
H1047 C1071 0.950 . S
H1048 C1072 0.950 . S
H1049 C1073 0.951 . S
H1050 C1075 0.951 . S
H1051 C1077 0.950 . S
H1052 C1078 0.950 . S
H1053 C1080 0.950 . S
H1054 C1083 0.950 . S
H1055 C1084 0.950 . S
H1056 C1086 0.950 . S
H1057 C1087 0.950 . S
C1058 H1040 0.951 . S
C1058 C1059 1.366 . S
C1058 C1060 1.388 . S
C1059 C1058 1.366 . S
C1059 C1063 1.385 . S
C1060 H1041 0.951 . S
C1060 C1058 1.388 . S
C1060 C1061 1.366 . S
C1061 C1060 1.366 . S
C1061 C1062 1.414 . S
C1061 C1064 1.499 . S
C1062 H1042 0.950 . S
C1062 C1061 1.414 . S
C1062 C1063 1.374 . S
C1063 H1043 0.950 . S
C1063 C1059 1.385 . S
C1063 C1062 1.374 . S
C1064 C1061 1.499 . S
C1064 C1065 1.373 . S
C1064 C1066 1.389 . S
C1065 H1044 0.950 . S
C1065 C1064 1.373 . S
C1065 C1081 1.377 . S
C1066 C1064 1.389 . S
C1066 C1067 1.524 . S
C1066 C1080 1.377 . S
C1067 C1066 1.524 . S
C1067 C1068 1.397 . S
C1067 C1072 1.363 . S
C1068 H1045 0.950 . S
C1068 C1067 1.397 . S
C1068 C1069 1.334 . S
C1069 H1046 0.950 . S
C1069 C1068 1.334 . S
C1069 C1070 1.287 . S
C1070 C1069 1.287 . S
C1070 C1071 1.524 . S
C1070 H1089 0.913 . S
C1071 H1047 0.950 . S
C1071 C1070 1.524 . S
C1071 C1072 1.415 . S
C1072 H1048 0.950 . S
C1072 C1067 1.363 . S
C1072 C1071 1.415 . S
C1073 H1049 0.951 . S
C1073 C1074 1.366 . S
C1073 C1075 1.388 . S
C1074 C1073 1.366 . S
C1074 C1078 1.385 . S
C1075 H1050 0.951 . S
C1075 C1073 1.388 . S
C1075 C1076 1.366 . S
C1076 C1075 1.366 . S
C1076 C1077 1.414 . S
C1076 C1079 1.499 . S
C1077 H1051 0.950 . S
C1077 C1076 1.414 . S
C1077 C1078 1.374 . S
C1078 H1052 0.950 . S
C1078 C1074 1.385 . S
C1078 C1077 1.374 . S
C1079 C1076 1.499 . S
C1079 C1080 1.373 . S
C1079 C1081 1.389 . S
C1080 H1053 0.950 . S
C1080 C1066 1.377 . S
C1080 C1079 1.373 . S
C1081 C1065 1.377 . S
C1081 C1079 1.389 . S
C1081 C1082 1.524 . S
C1082 C1081 1.524 . S
C1082 C1083 1.397 . S
C1082 C1087 1.363 . S
C1083 H1054 0.950 . S
C1083 C1082 1.397 . S
C1083 C1084 1.334 . S
C1084 H1055 0.950 . S
C1084 C1083 1.334 . S
C1084 C1085 1.287 . S
C1085 C1084 1.287 . S
C1085 C1086 1.524 . S
C1085 H1088 0.999 . S
C1086 H1056 0.950 . S
C1086 C1085 1.524 . S
C1086 C1087 1.415 . S
C1087 H1057 0.950 . S
C1087 C1082 1.363 . S
C1087 C1086 1.415 . S
H1088 C1085 0.999 . S
H1089 C1070 0.913 . S
H1090 C1108 0.951 . S
H1091 C1110 0.951 . S
H1092 C1112 0.950 . S
H1093 C1113 0.950 . S
H1094 C1115 0.950 . S
H1095 C1118 0.950 . S
H1096 C1119 0.950 . S
H1097 C1121 0.950 . S
H1098 C1122 0.950 . S
H1099 C1123 0.951 . S
H1100 C1125 0.951 . S
H1101 C1127 0.950 . S
H1102 C1128 0.950 . S
H1103 C1130 0.950 . S
H1104 C1133 0.950 . S
H1105 C1134 0.950 . S
H1106 C1136 0.950 . S
H1107 C1137 0.950 . S
C1108 H1090 0.951 . S
C1108 C1109 1.366 . S
C1108 C1110 1.388 . S
C1109 C1108 1.366 . S
C1109 C1113 1.385 . S
C1110 H1091 0.951 . S
C1110 C1108 1.388 . S
C1110 C1111 1.366 . S
C1111 C1110 1.366 . S
C1111 C1112 1.414 . S
C1111 C1114 1.499 . S
C1112 H1092 0.950 . S
C1112 C1111 1.414 . S
C1112 C1113 1.374 . S
C1113 H1093 0.950 . S
C1113 C1109 1.385 . S
C1113 C1112 1.374 . S
C1114 C1111 1.499 . S
C1114 C1115 1.373 . S
C1114 C1116 1.389 . S
C1115 H1094 0.950 . S
C1115 C1114 1.373 . S
C1115 C1131 1.377 . S
C1116 C1114 1.389 . S
C1116 C1117 1.524 . S
C1116 C1130 1.377 . S
C1117 C1116 1.524 . S
C1117 C1118 1.397 . S
C1117 C1122 1.363 . S
C1118 H1095 0.950 . S
C1118 C1117 1.397 . S
C1118 C1119 1.334 . S
C1119 H1096 0.950 . S
C1119 C1118 1.334 . S
C1119 C1120 1.287 . S
C1120 C1119 1.287 . S
C1120 C1121 1.524 . S
C1120 H1139 0.913 . S
C1121 H1097 0.950 . S
C1121 C1120 1.524 . S
C1121 C1122 1.415 . S
C1122 H1098 0.950 . S
C1122 C1117 1.363 . S
C1122 C1121 1.415 . S
C1123 H1099 0.951 . S
C1123 C1124 1.366 . S
C1123 C1125 1.388 . S
C1124 C1123 1.366 . S
C1124 C1128 1.385 . S
C1125 H1100 0.951 . S
C1125 C1123 1.388 . S
C1125 C1126 1.366 . S
C1126 C1125 1.366 . S
C1126 C1127 1.414 . S
C1126 C1129 1.499 . S
C1127 H1101 0.950 . S
C1127 C1126 1.414 . S
C1127 C1128 1.374 . S
C1128 H1102 0.950 . S
C1128 C1124 1.385 . S
C1128 C1127 1.374 . S
C1129 C1126 1.499 . S
C1129 C1130 1.373 . S
C1129 C1131 1.389 . S
C1130 H1103 0.950 . S
C1130 C1116 1.377 . S
C1130 C1129 1.373 . S
C1131 C1115 1.377 . S
C1131 C1129 1.389 . S
C1131 C1132 1.524 . S
C1132 C1131 1.524 . S
C1132 C1133 1.397 . S
C1132 C1137 1.363 . S
C1133 H1104 0.950 . S
C1133 C1132 1.397 . S
C1133 C1134 1.334 . S
C1134 H1105 0.950 . S
C1134 C1133 1.334 . S
C1134 C1135 1.287 . S
C1135 C1134 1.287 . S
C1135 C1136 1.524 . S
C1135 H1138 0.999 . S
C1136 H1106 0.950 . S
C1136 C1135 1.524 . S
C1136 C1137 1.415 . S
C1137 H1107 0.950 . S
C1137 C1132 1.363 . S
C1137 C1136 1.415 . S
H1138 C1135 0.999 . S
H1139 C1120 0.913 . S
H1140 C1158 0.951 1_455 S
H1141 C1160 0.951 . S
H1142 C1162 0.950 . S
H1143 C1163 0.950 . S
H1144 C1165 0.950 . S
H1145 C1168 0.950 . S
H1146 C1169 0.950 . S
H1147 C1171 0.950 . S
H1148 C1172 0.950 . S
H1149 C1173 0.951 . S
H1150 C1175 0.951 . S
H1151 C1177 0.950 . S
H1152 C1178 0.950 . S
H1153 C1180 0.950 . S
H1154 C1183 0.950 . S
H1155 C1184 0.950 . S
H1156 C1186 0.950 . S
H1157 C1187 0.950 . S
C1158 H1140 0.951 1_655 S
C1158 C1159 1.366 . S
C1158 C1160 1.388 1_554 S
C1159 C1158 1.366 . S
C1159 C1163 1.385 . S
C1160 H1141 0.951 . S
C1160 C1158 1.388 1_556 S
C1160 C1161 1.366 . S
C1161 C1160 1.366 . S
C1161 C1162 1.414 1_556 S
C1161 C1164 1.499 . S
C1162 H1142 0.950 . S
C1162 C1161 1.414 1_554 S
C1162 C1163 1.374 . S
C1163 H1143 0.950 . S
C1163 C1159 1.385 . S
C1163 C1162 1.374 . S
C1164 C1161 1.499 . S
C1164 C1165 1.373 . S
C1164 C1166 1.389 . S
C1165 H1144 0.950 . S
C1165 C1164 1.373 . S
C1165 C1181 1.377 . S
C1166 C1164 1.389 . S
C1166 C1167 1.524 . S
C1166 C1180 1.377 . S
C1167 C1166 1.524 . S
C1167 C1168 1.397 . S
C1167 C1172 1.363 . S
C1168 H1145 0.950 . S
C1168 C1167 1.397 . S
C1168 C1169 1.334 . S
C1169 H1146 0.950 . S
C1169 C1168 1.334 . S
C1169 C1170 1.287 1_655 S
C1170 C1169 1.287 1_455 S
C1170 C1171 1.524 . S
C1170 H1189 0.913 . S
C1171 H1147 0.950 . S
C1171 C1170 1.524 . S
C1171 C1172 1.415 1_455 S
C1172 H1148 0.950 . S
C1172 C1167 1.363 . S
C1172 C1171 1.415 1_655 S
C1173 H1149 0.951 . S
C1173 C1174 1.366 . S
C1173 C1175 1.388 . S
C1174 C1173 1.366 . S
C1174 C1178 1.385 . S
C1175 H1150 0.951 . S
C1175 C1173 1.388 . S
C1175 C1176 1.366 . S
C1176 C1175 1.366 . S
C1176 C1177 1.414 . S
C1176 C1179 1.499 . S
C1177 H1151 0.950 . S
C1177 C1176 1.414 . S
C1177 C1178 1.374 . S
C1178 H1152 0.950 . S
C1178 C1174 1.385 . S
C1178 C1177 1.374 . S
C1179 C1176 1.499 . S
C1179 C1180 1.373 . S
C1179 C1181 1.389 . S
C1180 H1153 0.950 . S
C1180 C1166 1.377 . S
C1180 C1179 1.373 . S
C1181 C1165 1.377 . S
C1181 C1179 1.389 . S
C1181 C1182 1.524 . S
C1182 C1181 1.524 . S
C1182 C1183 1.397 . S
C1182 C1187 1.363 . S
C1183 H1154 0.950 . S
C1183 C1182 1.397 . S
C1183 C1184 1.334 . S
C1184 H1155 0.950 . S
C1184 C1183 1.334 . S
C1184 C1185 1.287 . S
C1185 C1184 1.287 . S
C1185 C1186 1.524 . S
C1185 H1188 0.999 . S
C1186 H1156 0.950 . S
C1186 C1185 1.524 . S
C1186 C1187 1.415 . S
C1187 H1157 0.950 . S
C1187 C1182 1.363 . S
C1187 C1186 1.415 . S
H1188 C1185 0.999 . S
H1189 C1170 0.913 . S
H1190 C1208 0.951 . S
H1191 C1210 0.951 . S
H1192 C1212 0.950 . S
H1193 C1213 0.950 . S
H1194 C1215 0.950 . S
H1195 C1218 0.950 . S
H1196 C1219 0.950 . S
H1197 C1221 0.950 . S
H1198 C1222 0.950 . S
H1199 C1223 0.951 . S
H1200 C1225 0.951 . S
H1201 C1227 0.950 . S
H1202 C1228 0.950 . S
H1203 C1230 0.950 . S
H1204 C1233 0.950 . S
H1205 C1234 0.950 . S
H1206 C1236 0.950 . S
H1207 C1237 0.950 . S
C1208 H1190 0.951 . S
C1208 C1209 1.366 . S
C1208 C1210 1.388 . S
C1209 C1208 1.366 . S
C1209 C1213 1.385 . S
C1210 H1191 0.951 . S
C1210 C1208 1.388 . S
C1210 C1211 1.366 . S
C1211 C1210 1.366 . S
C1211 C1212 1.414 . S
C1211 C1214 1.499 . S
C1212 H1192 0.950 . S
C1212 C1211 1.414 . S
C1212 C1213 1.374 . S
C1213 H1193 0.950 . S
C1213 C1209 1.385 . S
C1213 C1212 1.374 . S
C1214 C1211 1.499 . S
C1214 C1215 1.373 . S
C1214 C1216 1.389 . S
C1215 H1194 0.950 . S
C1215 C1214 1.373 . S
C1215 C1231 1.377 . S
C1216 C1214 1.389 . S
C1216 C1217 1.524 . S
C1216 C1230 1.377 . S
C1217 C1216 1.524 . S
C1217 C1218 1.397 . S
C1217 C1222 1.363 . S
C1218 H1195 0.950 . S
C1218 C1217 1.397 . S
C1218 C1219 1.334 . S
C1219 H1196 0.950 . S
C1219 C1218 1.334 . S
C1219 C1220 1.287 . S
C1220 C1219 1.287 . S
C1220 C1221 1.524 . S
C1220 H1239 0.913 . S
C1221 H1197 0.950 . S
C1221 C1220 1.524 . S
C1221 C1222 1.415 . S
C1222 H1198 0.950 . S
C1222 C1217 1.363 . S
C1222 C1221 1.415 . S
C1223 H1199 0.951 . S
C1223 C1224 1.366 . S
C1223 C1225 1.388 . S
C1224 C1223 1.366 . S
C1224 C1228 1.385 . S
C1225 H1200 0.951 . S
C1225 C1223 1.388 . S
C1225 C1226 1.366 . S
C1226 C1225 1.366 . S
C1226 C1227 1.414 . S
C1226 C1229 1.499 . S
C1227 H1201 0.950 . S
C1227 C1226 1.414 . S
C1227 C1228 1.374 . S
C1228 H1202 0.950 . S
C1228 C1224 1.385 . S
C1228 C1227 1.374 . S
C1229 C1226 1.499 . S
C1229 C1230 1.373 . S
C1229 C1231 1.389 . S
C1230 H1203 0.950 . S
C1230 C1216 1.377 . S
C1230 C1229 1.373 . S
C1231 C1215 1.377 . S
C1231 C1229 1.389 . S
C1231 C1232 1.524 . S
C1232 C1231 1.524 . S
C1232 C1233 1.397 . S
C1232 C1237 1.363 . S
C1233 H1204 0.950 . S
C1233 C1232 1.397 . S
C1233 C1234 1.334 . S
C1234 H1205 0.950 . S
C1234 C1233 1.334 . S
C1234 C1235 1.287 . S
C1235 C1234 1.287 . S
C1235 C1236 1.524 . S
C1235 H1238 0.999 . S
C1236 H1206 0.950 . S
C1236 C1235 1.524 . S
C1236 C1237 1.415 . S
C1237 H1207 0.950 . S
C1237 C1232 1.363 . S
C1237 C1236 1.415 . S
H1238 C1235 0.999 . S
H1239 C1220 0.913 . S
H1240 C1258 0.951 . S
H1241 C1260 0.951 . S
H1242 C1262 0.950 . S
H1243 C1263 0.950 . S
H1244 C1265 0.950 . S
H1245 C1268 0.950 . S
H1246 C1269 0.950 . S
H1247 C1271 0.950 . S
H1248 C1272 0.950 . S
H1249 C1273 0.951 . S
H1250 C1275 0.951 . S
H1251 C1277 0.950 . S
H1252 C1278 0.950 . S
H1253 C1280 0.950 . S
H1254 C1283 0.950 . S
H1255 C1284 0.950 . S
H1256 C1286 0.950 . S
H1257 C1287 0.950 . S
C1258 H1240 0.951 . S
C1258 C1259 1.366 . S
C1258 C1260 1.388 . S
C1259 C1258 1.366 . S
C1259 C1263 1.385 . S
C1260 H1241 0.951 . S
C1260 C1258 1.388 . S
C1260 C1261 1.366 . S
C1261 C1260 1.366 . S
C1261 C1262 1.414 . S
C1261 C1264 1.499 . S
C1262 H1242 0.950 . S
C1262 C1261 1.414 . S
C1262 C1263 1.374 . S
C1263 H1243 0.950 . S
C1263 C1259 1.385 . S
C1263 C1262 1.374 . S
C1264 C1261 1.499 . S
C1264 C1265 1.373 . S
C1264 C1266 1.389 . S
C1265 H1244 0.950 . S
C1265 C1264 1.373 . S
C1265 C1281 1.377 . S
C1266 C1264 1.389 . S
C1266 C1267 1.524 . S
C1266 C1280 1.377 . S
C1267 C1266 1.524 . S
C1267 C1268 1.397 . S
C1267 C1272 1.363 . S
C1268 H1245 0.950 . S
C1268 C1267 1.397 . S
C1268 C1269 1.334 . S
C1269 H1246 0.950 . S
C1269 C1268 1.334 . S
C1269 C1270 1.287 . S
C1270 C1269 1.287 . S
C1270 C1271 1.524 . S
C1270 H1289 0.913 . S
C1271 H1247 0.950 . S
C1271 C1270 1.524 . S
C1271 C1272 1.415 . S
C1272 H1248 0.950 . S
C1272 C1267 1.363 . S
C1272 C1271 1.415 . S
C1273 H1249 0.951 . S
C1273 C1274 1.366 . S
C1273 C1275 1.388 . S
C1274 C1273 1.366 . S
C1274 C1278 1.385 . S
C1275 H1250 0.951 . S
C1275 C1273 1.388 . S
C1275 C1276 1.366 . S
C1276 C1275 1.366 . S
C1276 C1277 1.414 . S
C1276 C1279 1.499 . S
C1277 H1251 0.950 . S
C1277 C1276 1.414 . S
C1277 C1278 1.374 . S
C1278 H1252 0.950 . S
C1278 C1274 1.385 . S
C1278 C1277 1.374 . S
C1279 C1276 1.499 . S
C1279 C1280 1.373 . S
C1279 C1281 1.389 . S
C1280 H1253 0.950 . S
C1280 C1266 1.377 . S
C1280 C1279 1.373 . S
C1281 C1265 1.377 . S
C1281 C1279 1.389 . S
C1281 C1282 1.524 . S
C1282 C1281 1.524 . S
C1282 C1283 1.397 . S
C1282 C1287 1.363 . S
C1283 H1254 0.950 . S
C1283 C1282 1.397 . S
C1283 C1284 1.334 . S
C1284 H1255 0.950 . S
C1284 C1283 1.334 . S
C1284 C1285 1.287 . S
C1285 C1284 1.287 . S
C1285 C1286 1.524 . S
C1285 H1288 0.999 . S
C1286 H1256 0.950 . S
C1286 C1285 1.524 . S
C1286 C1287 1.415 . S
C1287 H1257 0.950 . S
C1287 C1282 1.363 . S
C1287 C1286 1.415 . S
H1288 C1285 0.999 . S
H1289 C1270 0.913 . S
H1290 C1308 0.951 . S
H1291 C1310 0.951 . S
H1292 C1312 0.950 . S
H1293 C1313 0.950 . S
H1294 C1315 0.950 . S
H1295 C1318 0.950 . S
H1296 C1319 0.950 . S
H1297 C1321 0.950 . S
H1298 C1322 0.950 . S
H1299 C1323 0.951 . S
H1300 C1325 0.951 . S
H1301 C1327 0.950 . S
H1302 C1328 0.950 . S
H1303 C1330 0.950 . S
H1304 C1333 0.950 . S
H1305 C1334 0.950 . S
H1306 C1336 0.950 . S
H1307 C1337 0.950 . S
C1308 H1290 0.951 . S
C1308 C1309 1.366 . S
C1308 C1310 1.388 . S
C1309 C1308 1.366 . S
C1309 C1313 1.385 . S
C1310 H1291 0.951 . S
C1310 C1308 1.388 . S
C1310 C1311 1.366 . S
C1311 C1310 1.366 . S
C1311 C1312 1.414 . S
C1311 C1314 1.499 . S
C1312 H1292 0.950 . S
C1312 C1311 1.414 . S
C1312 C1313 1.374 . S
C1313 H1293 0.950 . S
C1313 C1309 1.385 . S
C1313 C1312 1.374 . S
C1314 C1311 1.499 . S
C1314 C1315 1.373 . S
C1314 C1316 1.389 . S
C1315 H1294 0.950 . S
C1315 C1314 1.373 . S
C1315 C1331 1.377 . S
C1316 C1314 1.389 . S
C1316 C1317 1.524 . S
C1316 C1330 1.377 . S
C1317 C1316 1.524 . S
C1317 C1318 1.397 . S
C1317 C1322 1.363 . S
C1318 H1295 0.950 . S
C1318 C1317 1.397 . S
C1318 C1319 1.334 . S
C1319 H1296 0.950 . S
C1319 C1318 1.334 . S
C1319 C1320 1.287 . S
C1320 C1319 1.287 . S
C1320 C1321 1.524 . S
C1320 H1339 0.913 . S
C1321 H1297 0.950 . S
C1321 C1320 1.524 . S
C1321 C1322 1.415 . S
C1322 H1298 0.950 . S
C1322 C1317 1.363 . S
C1322 C1321 1.415 . S
C1323 H1299 0.951 . S
C1323 C1324 1.366 . S
C1323 C1325 1.388 . S
C1324 C1323 1.366 . S
C1324 C1328 1.385 . S
C1325 H1300 0.951 . S
C1325 C1323 1.388 . S
C1325 C1326 1.366 . S
C1326 C1325 1.366 . S
C1326 C1327 1.414 . S
C1326 C1329 1.499 . S
C1327 H1301 0.950 . S
C1327 C1326 1.414 . S
C1327 C1328 1.374 . S
C1328 H1302 0.950 . S
C1328 C1324 1.385 . S
C1328 C1327 1.374 . S
C1329 C1326 1.499 . S
C1329 C1330 1.373 . S
C1329 C1331 1.389 . S
C1330 H1303 0.950 . S
C1330 C1316 1.377 . S
C1330 C1329 1.373 . S
C1331 C1315 1.377 . S
C1331 C1329 1.389 . S
C1331 C1332 1.524 . S
C1332 C1331 1.524 . S
C1332 C1333 1.397 . S
C1332 C1337 1.363 . S
C1333 H1304 0.950 . S
C1333 C1332 1.397 . S
C1333 C1334 1.334 . S
C1334 H1305 0.950 . S
C1334 C1333 1.334 . S
C1334 C1335 1.287 . S
C1335 C1334 1.287 . S
C1335 C1336 1.524 . S
C1335 H1338 0.999 . S
C1336 H1306 0.950 . S
C1336 C1335 1.524 . S
C1336 C1337 1.415 . S
C1337 H1307 0.950 . S
C1337 C1332 1.363 . S
C1337 C1336 1.415 . S
H1338 C1335 0.999 . S
H1339 C1320 0.913 . S
H1340 C1358 0.951 . S
H1341 C1360 0.951 . S
H1342 C1362 0.950 . S
H1343 C1363 0.950 . S
H1344 C1365 0.950 . S
H1345 C1368 0.950 . S
H1346 C1369 0.950 . S
H1347 C1371 0.950 . S
H1348 C1372 0.950 . S
H1349 C1373 0.951 . S
H1350 C1375 0.951 1_554 S
H1351 C1377 0.946 1_554 S
H1352 C1378 0.950 . S
H1353 C1380 0.950 . S
H1354 C1383 0.950 . S
H1355 C1384 0.950 . S
H1356 C1386 0.950 . S
H1357 C1387 0.950 . S
C1358 H1340 0.951 . S
C1358 C1359 1.366 . S
C1358 C1360 1.388 . S
C1359 C1358 1.366 . S
C1359 C1363 1.385 . S
C1360 H1341 0.951 . S
C1360 C1358 1.388 . S
C1360 C1361 1.366 . S
C1361 C1360 1.366 . S
C1361 C1362 1.414 . S
C1361 C1364 1.499 . S
C1362 H1342 0.950 . S
C1362 C1361 1.414 . S
C1362 C1363 1.374 . S
C1363 H1343 0.950 . S
C1363 C1359 1.385 . S
C1363 C1362 1.374 . S
C1364 C1361 1.499 . S
C1364 C1365 1.373 . S
C1364 C1366 1.389 . S
C1365 H1344 0.950 . S
C1365 C1364 1.373 . S
C1365 C1381 1.377 . S
C1366 C1364 1.389 . S
C1366 C1367 1.524 . S
C1366 C1380 1.377 . S
C1367 C1366 1.524 . S
C1367 C1368 1.397 . S
C1367 C1372 1.363 . S
C1368 H1345 0.950 . S
C1368 C1367 1.397 . S
C1368 C1369 1.334 . S
C1369 H1346 0.950 . S
C1369 C1368 1.334 . S
C1369 C1370 1.287 . S
C1370 C1369 1.287 . S
C1370 C1371 1.524 . S
C1370 H1389 0.913 . S
C1371 H1347 0.950 . S
C1371 C1370 1.524 . S
C1371 C1372 1.415 . S
C1372 H1348 0.950 . S
C1372 C1367 1.363 . S
C1372 C1371 1.415 . S
C1373 H1349 0.951 . S
C1373 C1374 1.366 . S
C1373 C1375 1.388 . S
C1374 C1373 1.366 . S
C1374 C1378 1.385 . S
C1375 H1350 0.951 1_556 S
C1375 C1373 1.388 . S
C1375 C1376 1.366 1_556 S
C1376 C1375 1.366 1_554 S
C1376 C1377 1.410 1_554 S
C1376 C1379 1.499 . S
C1377 H1351 0.946 1_556 S
C1377 C1376 1.410 1_556 S
C1377 C1378 1.382 . S
C1378 H1352 0.950 . S
C1378 C1374 1.385 . S
C1378 C1377 1.382 . S
C1379 C1376 1.499 . S
C1379 C1380 1.373 . S
C1379 C1381 1.389 . S
C1380 H1353 0.950 . S
C1380 C1366 1.377 . S
C1380 C1379 1.373 . S
C1381 C1365 1.377 . S
C1381 C1379 1.389 . S
C1381 C1382 1.524 . S
C1382 C1381 1.524 . S
C1382 C1383 1.397 . S
C1382 C1387 1.363 . S
C1383 H1354 0.950 . S
C1383 C1382 1.397 . S
C1383 C1384 1.334 1_455 S
C1384 H1355 0.950 . S
C1384 C1383 1.334 1_655 S
C1384 C1385 1.287 . S
C1385 C1384 1.287 . S
C1385 C1386 1.524 . S
C1385 H1388 0.999 . S
C1386 H1356 0.950 . S
C1386 C1385 1.524 . S
C1386 C1387 1.415 1_655 S
C1387 H1357 0.950 . S
C1387 C1382 1.363 . S
C1387 C1386 1.415 1_455 S
H1388 C1385 0.999 . S
H1389 C1370 0.913 . S
H1390 C1408 0.951 . S
H1391 C1410 0.951 . S
H1392 C1412 0.950 . S
H1393 C1413 0.950 . S
H1394 C1415 0.950 . S
H1395 C1418 0.950 . S
H1396 C1419 0.950 . S
H1397 C1421 0.950 . S
H1398 C1422 0.950 . S
H1399 C1423 0.951 . S
H1400 C1425 0.951 . S
H1401 C1427 0.950 . S
H1402 C1428 0.950 . S
H1403 C1430 0.950 . S
H1404 C1433 0.950 . S
H1405 C1434 0.950 . S
H1406 C1436 0.950 . S
H1407 C1437 0.950 . S
C1408 H1390 0.951 . S
C1408 C1409 1.366 . S
C1408 C1410 1.388 . S
C1409 C1408 1.366 . S
C1409 C1413 1.385 . S
C1410 H1391 0.951 . S
C1410 C1408 1.388 . S
C1410 C1411 1.366 . S
C1411 C1410 1.366 . S
C1411 C1412 1.414 . S
C1411 C1414 1.499 . S
C1412 H1392 0.950 . S
C1412 C1411 1.414 . S
C1412 C1413 1.374 . S
C1413 H1393 0.950 . S
C1413 C1409 1.385 . S
C1413 C1412 1.374 . S
C1414 C1411 1.499 . S
C1414 C1415 1.373 . S
C1414 C1416 1.389 . S
C1415 H1394 0.950 . S
C1415 C1414 1.373 . S
C1415 C1431 1.377 . S
C1416 C1414 1.389 . S
C1416 C1417 1.524 . S
C1416 C1430 1.377 . S
C1417 C1416 1.524 . S
C1417 C1418 1.397 . S
C1417 C1422 1.363 . S
C1418 H1395 0.950 . S
C1418 C1417 1.397 . S
C1418 C1419 1.334 . S
C1419 H1396 0.950 . S
C1419 C1418 1.334 . S
C1419 C1420 1.287 . S
C1420 C1419 1.287 . S
C1420 C1421 1.524 . S
C1420 H1439 0.913 . S
C1421 H1397 0.950 . S
C1421 C1420 1.524 . S
C1421 C1422 1.415 . S
C1422 H1398 0.950 . S
C1422 C1417 1.363 . S
C1422 C1421 1.415 . S
C1423 H1399 0.951 . S
C1423 C1424 1.366 . S
C1423 C1425 1.388 . S
C1424 C1423 1.366 . S
C1424 C1428 1.385 . S
C1425 H1400 0.951 . S
C1425 C1423 1.388 . S
C1425 C1426 1.366 . S
C1426 C1425 1.366 . S
C1426 C1427 1.414 . S
C1426 C1429 1.499 . S
C1427 H1401 0.950 . S
C1427 C1426 1.414 . S
C1427 C1428 1.374 . S
C1428 H1402 0.950 . S
C1428 C1424 1.385 . S
C1428 C1427 1.374 . S
C1429 C1426 1.499 . S
C1429 C1430 1.373 . S
C1429 C1431 1.389 . S
C1430 H1403 0.950 . S
C1430 C1416 1.377 . S
C1430 C1429 1.373 . S
C1431 C1415 1.377 . S
C1431 C1429 1.389 . S
C1431 C1432 1.524 . S
C1432 C1431 1.524 . S
C1432 C1433 1.397 . S
C1432 C1437 1.363 . S
C1433 H1404 0.950 . S
C1433 C1432 1.397 . S
C1433 C1434 1.334 . S
C1434 H1405 0.950 . S
C1434 C1433 1.334 . S
C1434 C1435 1.287 . S
C1435 C1434 1.287 . S
C1435 C1436 1.524 . S
C1435 H1438 0.999 . S
C1436 H1406 0.950 . S
C1436 C1435 1.524 . S
C1436 C1437 1.415 . S
C1437 H1407 0.950 . S
C1437 C1432 1.363 . S
C1437 C1436 1.415 . S
H1438 C1435 0.999 . S
H1439 C1420 0.913 . S
H1440 C1458 0.951 . S
H1441 C1460 0.951 . S
H1442 C1462 0.950 . S
H1443 C1463 0.950 . S
H1444 C1465 0.950 . S
H1445 C1468 0.950 . S
H1446 C1469 0.950 . S
H1447 C1471 0.950 . S
H1448 C1472 0.950 . S
H1449 C1473 0.951 . S
H1450 C1475 0.951 . S
H1451 C1477 0.950 . S
H1452 C1478 0.950 . S
H1453 C1480 0.950 . S
H1454 C1483 0.950 1_655 S
H1455 C1484 0.950 1_655 S
H1456 C1486 0.950 . S
H1457 C1487 0.950 . S
C1458 H1440 0.951 . S
C1458 C1459 1.366 1_655 S
C1458 C1460 1.388 . S
C1459 C1458 1.366 1_455 S
C1459 C1463 1.385 . S
C1460 H1441 0.951 . S
C1460 C1458 1.388 . S
C1460 C1461 1.366 1_655 S
C1461 C1460 1.366 1_455 S
C1461 C1462 1.414 . S
C1461 C1464 1.499 . S
C1462 H1442 0.950 . S
C1462 C1461 1.414 . S
C1462 C1463 1.374 . S
C1463 H1443 0.950 . S
C1463 C1459 1.385 . S
C1463 C1462 1.374 . S
C1464 C1461 1.499 . S
C1464 C1465 1.373 . S
C1464 C1466 1.402 . S
C1465 H1444 0.950 . S
C1465 C1464 1.373 . S
C1465 C1481 1.377 . S
C1466 C1464 1.402 . S
C1466 C1467 1.517 1_455 S
C1466 C1480 1.373 1_455 S
C1467 C1466 1.517 1_655 S
C1467 C1468 1.397 1_655 S
C1467 C1472 1.363 . S
C1468 H1445 0.950 . S
C1468 C1467 1.397 1_455 S
C1468 C1469 1.334 . S
C1469 H1446 0.950 . S
C1469 C1468 1.334 . S
C1469 C1470 1.287 1_455 S
C1470 C1469 1.287 1_655 S
C1470 C1471 1.524 . S
C1470 H1489 0.913 . S
C1471 H1447 0.950 . S
C1471 C1470 1.524 . S
C1471 C1472 1.415 . S
C1472 H1448 0.950 . S
C1472 C1467 1.363 . S
C1472 C1471 1.415 . S
C1473 H1449 0.951 . S
C1473 C1474 1.366 . S
C1473 C1475 1.388 . S
C1474 C1473 1.366 . S
C1474 C1478 1.385 1_455 S
C1475 H1450 0.951 . S
C1475 C1473 1.388 . S
C1475 C1476 1.366 . S
C1476 C1475 1.366 . S
C1476 C1477 1.414 1_455 S
C1476 C1479 1.499 . S
C1477 H1451 0.950 . S
C1477 C1476 1.414 1_655 S
C1477 C1478 1.374 . S
C1478 H1452 0.950 . S
C1478 C1474 1.385 1_655 S
C1478 C1477 1.374 . S
C1479 C1476 1.499 . S
C1479 C1480 1.373 1_455 S
C1479 C1481 1.389 . S
C1480 H1453 0.950 . S
C1480 C1466 1.373 1_655 S
C1480 C1479 1.373 1_655 S
C1481 C1465 1.377 . S
C1481 C1479 1.389 . S
C1481 C1482 1.524 . S
C1482 C1481 1.524 . S
C1482 C1483 1.397 . S
C1482 C1487 1.363 . S
C1483 H1454 0.950 1_455 S
C1483 C1482 1.397 . S
C1483 C1484 1.334 . S
C1484 H1455 0.950 1_455 S
C1484 C1483 1.334 . S
C1484 C1485 1.287 . S
C1485 C1484 1.287 . S
C1485 C1486 1.524 . S
C1485 H1488 0.999 . S
C1486 H1456 0.950 . S
C1486 C1485 1.524 . S
C1486 C1487 1.415 . S
C1487 H1457 0.950 . S
C1487 C1482 1.363 . S
C1487 C1486 1.415 . S
H1488 C1485 0.999 . S
H1489 C1470 0.913 . S
H1490 C1508 0.951 . S
H1491 C1510 0.951 . S
H1492 C1512 0.950 . S
H1493 C1513 0.950 . S
H1494 C1515 0.950 . S
H1495 C1518 0.950 . S
H1496 C1519 0.950 . S
H1497 C1521 0.950 . S
H1498 C1522 0.950 . S
H1499 C1523 0.951 . S
H1500 C1525 0.951 . S
H1501 C1527 0.950 . S
H1502 C1528 0.950 . S
H1503 C1530 0.950 . S
H1504 C1533 0.950 . S
H1505 C1534 0.950 . S
H1506 C1536 0.950 . S
H1507 C1537 0.950 . S
C1508 H1490 0.951 . S
C1508 C1509 1.366 . S
C1508 C1510 1.388 . S
C1509 C1508 1.366 . S
C1509 C1513 1.385 . S
C1510 H1491 0.951 . S
C1510 C1508 1.388 . S
C1510 C1511 1.366 . S
C1511 C1510 1.366 . S
C1511 C1512 1.414 . S
C1511 C1514 1.499 . S
C1512 H1492 0.950 . S
C1512 C1511 1.414 . S
C1512 C1513 1.374 . S
C1513 H1493 0.950 . S
C1513 C1509 1.385 . S
C1513 C1512 1.374 . S
C1514 C1511 1.499 . S
C1514 C1515 1.373 . S
C1514 C1516 1.389 . S
C1515 H1494 0.950 . S
C1515 C1514 1.373 . S
C1515 C1531 1.377 1_655 S
C1516 C1514 1.389 . S
C1516 C1517 1.524 . S
C1516 C1530 1.377 1_655 S
C1517 C1516 1.524 . S
C1517 C1518 1.397 . S
C1517 C1522 1.363 . S
C1518 H1495 0.950 . S
C1518 C1517 1.397 . S
C1518 C1519 1.334 . S
C1519 H1496 0.950 . S
C1519 C1518 1.334 . S
C1519 C1520 1.287 . S
C1520 C1519 1.287 . S
C1520 C1521 1.524 . S
C1520 H1539 0.913 . S
C1521 H1497 0.950 . S
C1521 C1520 1.524 . S
C1521 C1522 1.415 . S
C1522 H1498 0.950 . S
C1522 C1517 1.363 . S
C1522 C1521 1.415 . S
C1523 H1499 0.951 . S
C1523 C1524 1.366 . S
C1523 C1525 1.388 . S
C1524 C1523 1.366 . S
C1524 C1528 1.385 . S
C1525 H1500 0.951 . S
C1525 C1523 1.388 . S
C1525 C1526 1.366 . S
C1526 C1525 1.366 . S
C1526 C1527 1.414 . S
C1526 C1529 1.499 . S
C1527 H1501 0.950 . S
C1527 C1526 1.414 . S
C1527 C1528 1.374 . S
C1528 H1502 0.950 . S
C1528 C1524 1.385 . S
C1528 C1527 1.374 . S
C1529 C1526 1.499 . S
C1529 C1530 1.373 . S
C1529 C1531 1.389 . S
C1530 H1503 0.950 . S
C1530 C1516 1.377 1_455 S
C1530 C1529 1.373 . S
C1531 C1515 1.377 1_455 S
C1531 C1529 1.389 . S
C1531 C1532 1.524 . S
C1532 C1531 1.524 . S
C1532 C1533 1.397 . S
C1532 C1537 1.363 . S
C1533 H1504 0.950 . S
C1533 C1532 1.397 . S
C1533 C1534 1.334 . S
C1534 H1505 0.950 . S
C1534 C1533 1.334 . S
C1534 C1535 1.287 . S
C1535 C1534 1.287 . S
C1535 C1536 1.524 . S
C1535 H1538 0.999 . S
C1536 H1506 0.950 . S
C1536 C1535 1.524 . S
C1536 C1537 1.415 . S
C1537 H1507 0.950 . S
C1537 C1532 1.363 . S
C1537 C1536 1.415 . S
H1538 C1535 0.999 . S
H1539 C1520 0.913 . S
H1540 C1558 0.951 . S
H1541 C1560 0.951 . S
H1542 C1562 0.950 . S
H1543 C1563 0.950 . S
H1544 C1565 0.950 . S
H1545 C1568 0.950 . S
H1546 C1569 0.950 . S
H1547 C1571 0.950 . S
H1548 C1572 0.950 . S
H1549 C1573 0.951 . S
H1550 C1575 0.951 . S
H1551 C1577 0.950 . S
H1552 C1578 0.950 . S
H1553 C1580 0.950 . S
H1554 C1583 0.950 . S
H1555 C1584 0.950 . S
H1556 C1586 0.950 . S
H1557 C1587 0.950 . S
C1558 H1540 0.951 . S
C1558 C1559 1.366 . S
C1558 C1560 1.388 . S
C1559 C1558 1.366 . S
C1559 C1563 1.385 . S
C1560 H1541 0.951 . S
C1560 C1558 1.388 . S
C1560 C1561 1.366 . S
C1561 C1560 1.366 . S
C1561 C1562 1.414 . S
C1561 C1564 1.499 . S
C1562 H1542 0.950 . S
C1562 C1561 1.414 . S
C1562 C1563 1.374 . S
C1563 H1543 0.950 . S
C1563 C1559 1.385 . S
C1563 C1562 1.374 . S
C1564 C1561 1.499 . S
C1564 C1565 1.373 . S
C1564 C1566 1.389 . S
C1565 H1544 0.950 . S
C1565 C1564 1.373 . S
C1565 C1581 1.377 . S
C1566 C1564 1.389 . S
C1566 C1567 1.524 . S
C1566 C1580 1.377 . S
C1567 C1566 1.524 . S
C1567 C1568 1.397 . S
C1567 C1572 1.363 . S
C1568 H1545 0.950 . S
C1568 C1567 1.397 . S
C1568 C1569 1.334 . S
C1569 H1546 0.950 . S
C1569 C1568 1.334 . S
C1569 C1570 1.287 . S
C1570 C1569 1.287 . S
C1570 C1571 1.524 . S
C1570 H1589 0.913 . S
C1571 H1547 0.950 . S
C1571 C1570 1.524 . S
C1571 C1572 1.415 . S
C1572 H1548 0.950 . S
C1572 C1567 1.363 . S
C1572 C1571 1.415 . S
C1573 H1549 0.951 . S
C1573 C1574 1.366 . S
C1573 C1575 1.388 . S
C1574 C1573 1.366 . S
C1574 C1578 1.385 . S
C1575 H1550 0.951 . S
C1575 C1573 1.388 . S
C1575 C1576 1.366 . S
C1576 C1575 1.366 . S
C1576 C1577 1.414 . S
C1576 C1579 1.499 . S
C1577 H1551 0.950 . S
C1577 C1576 1.414 . S
C1577 C1578 1.374 . S
C1578 H1552 0.950 . S
C1578 C1574 1.385 . S
C1578 C1577 1.374 . S
C1579 C1576 1.499 . S
C1579 C1580 1.373 . S
C1579 C1581 1.389 . S
C1580 H1553 0.950 . S
C1580 C1566 1.377 . S
C1580 C1579 1.373 . S
C1581 C1565 1.377 . S
C1581 C1579 1.389 . S
C1581 C1582 1.524 . S
C1582 C1581 1.524 . S
C1582 C1583 1.397 . S
C1582 C1587 1.363 . S
C1583 H1554 0.950 . S
C1583 C1582 1.397 . S
C1583 C1584 1.334 . S
C1584 H1555 0.950 . S
C1584 C1583 1.334 . S
C1584 C1585 1.287 . S
C1585 C1584 1.287 . S
C1585 C1586 1.524 . S
C1585 H1588 0.999 . S
C1586 H1556 0.950 . S
C1586 C1585 1.524 . S
C1586 C1587 1.415 . S
C1587 H1557 0.950 . S
C1587 C1582 1.363 . S
C1587 C1586 1.415 . S
H1588 C1585 0.999 . S
H1589 C1570 0.913 . S
H1590 C1608 0.951 . S
H1591 C1610 0.951 . S
H1592 C1612 0.950 . S
H1593 C1613 0.950 . S
H1594 C1615 0.950 . S
H1595 C1618 0.950 . S
H1596 C1619 0.950 . S
H1597 C1621 0.950 . S
H1598 C1622 0.950 . S
H1599 C1623 0.951 . S
H1600 C1625 0.951 . S
H1601 C1627 0.950 . S
H1602 C1628 0.950 . S
H1603 C1630 0.950 . S
H1604 C1633 0.950 . S
H1605 C1634 0.950 . S
H1606 C1636 0.950 . S
H1607 C1637 0.950 . S
C1608 H1590 0.951 . S
C1608 C1609 1.366 . S
C1608 C1610 1.388 . S
C1609 C1608 1.366 . S
C1609 C1613 1.385 . S
C1610 H1591 0.951 . S
C1610 C1608 1.388 . S
C1610 C1611 1.366 . S
C1611 C1610 1.366 . S
C1611 C1612 1.414 . S
C1611 C1614 1.499 . S
C1612 H1592 0.950 . S
C1612 C1611 1.414 . S
C1612 C1613 1.374 . S
C1613 H1593 0.950 . S
C1613 C1609 1.385 . S
C1613 C1612 1.374 . S
C1614 C1611 1.499 . S
C1614 C1615 1.373 . S
C1614 C1616 1.389 . S
C1615 H1594 0.950 . S
C1615 C1614 1.373 . S
C1615 C1631 1.377 . S
C1616 C1614 1.389 . S
C1616 C1617 1.524 . S
C1616 C1630 1.377 . S
C1617 C1616 1.524 . S
C1617 C1618 1.397 . S
C1617 C1622 1.363 . S
C1618 H1595 0.950 . S
C1618 C1617 1.397 . S
C1618 C1619 1.334 . S
C1619 H1596 0.950 . S
C1619 C1618 1.334 . S
C1619 C1620 1.287 . S
C1620 C1619 1.287 . S
C1620 C1621 1.524 . S
C1620 H1639 0.913 . S
C1621 H1597 0.950 . S
C1621 C1620 1.524 . S
C1621 C1622 1.415 . S
C1622 H1598 0.950 . S
C1622 C1617 1.363 . S
C1622 C1621 1.415 . S
C1623 H1599 0.951 . S
C1623 C1624 1.366 . S
C1623 C1625 1.388 . S
C1624 C1623 1.366 . S
C1624 C1628 1.385 . S
C1625 H1600 0.951 . S
C1625 C1623 1.388 . S
C1625 C1626 1.366 . S
C1626 C1625 1.366 . S
C1626 C1627 1.414 . S
C1626 C1629 1.499 . S
C1627 H1601 0.950 . S
C1627 C1626 1.414 . S
C1627 C1628 1.374 . S
C1628 H1602 0.950 . S
C1628 C1624 1.385 . S
C1628 C1627 1.374 . S
C1629 C1626 1.499 . S
C1629 C1630 1.373 . S
C1629 C1631 1.389 . S
C1630 H1603 0.950 . S
C1630 C1616 1.377 . S
C1630 C1629 1.373 . S
C1631 C1615 1.377 . S
C1631 C1629 1.389 . S
C1631 C1632 1.524 . S
C1632 C1631 1.524 . S
C1632 C1633 1.397 . S
C1632 C1637 1.363 . S
C1633 H1604 0.950 . S
C1633 C1632 1.397 . S
C1633 C1634 1.334 . S
C1634 H1605 0.950 . S
C1634 C1633 1.334 . S
C1634 C1635 1.287 . S
C1635 C1634 1.287 . S
C1635 C1636 1.524 . S
C1635 H1638 0.999 . S
C1636 H1606 0.950 . S
C1636 C1635 1.524 . S
C1636 C1637 1.415 . S
C1637 H1607 0.950 . S
C1637 C1632 1.363 . S
C1637 C1636 1.415 . S
H1638 C1635 0.999 . S
H1639 C1620 0.913 . S
H1640 C1658 0.951 . S
H1641 C1660 0.951 . S
H1642 C1662 0.950 . S
H1643 C1663 0.950 . S
H1644 C1665 0.950 . S
H1645 C1668 0.947 1_655 S
H1646 C1669 0.950 . S
H1647 C1671 0.950 . S
H1648 C1672 0.950 . S
H1649 C1673 0.951 . S
H1650 C1675 0.951 . S
H1651 C1677 0.950 . S
H1652 C1678 0.950 . S
H1653 C1680 0.950 . S
H1654 C1683 0.977 . S
H1655 C1684 0.950 1_455 S
H1656 C1686 0.950 . S
H1657 C1687 0.950 . S
C1658 H1640 0.951 . S
C1658 C1659 1.366 . S
C1658 C1660 1.388 . S
C1659 C1658 1.366 . S
C1659 C1663 1.385 1_455 S
C1660 H1641 0.951 . S
C1660 C1658 1.388 . S
C1660 C1661 1.366 . S
C1661 C1660 1.366 . S
C1661 C1662 1.414 1_455 S
C1661 C1664 1.499 . S
C1662 H1642 0.950 . S
C1662 C1661 1.414 1_655 S
C1662 C1663 1.374 . S
C1663 H1643 0.950 . S
C1663 C1659 1.385 1_655 S
C1663 C1662 1.374 . S
C1664 C1661 1.499 . S
C1664 C1665 1.373 1_455 S
C1664 C1666 1.389 . S
C1665 H1644 0.950 . S
C1665 C1664 1.373 1_655 S
C1665 C1681 1.377 . S
C1666 C1664 1.389 . S
C1666 C1667 1.524 . S
C1666 C1680 1.377 . S
C1667 C1666 1.524 . S
C1667 C1668 1.397 . S
C1667 C1672 1.363 . S
C1668 H1645 0.947 1_455 S
C1668 C1667 1.397 . S
C1668 C1669 1.334 . S
C1669 H1646 0.950 . S
C1669 C1668 1.334 . S
C1669 C1670 1.287 . S
C1670 C1669 1.287 . S
C1670 C1671 1.524 . S
C1670 H1689 0.913 . S
C1671 H1647 0.950 . S
C1671 C1670 1.524 . S
C1671 C1672 1.415 . S
C1672 H1648 0.950 . S
C1672 C1667 1.363 . S
C1672 C1671 1.415 . S
C1673 H1649 0.951 . S
C1673 C1674 1.366 1_655 S
C1673 C1675 1.388 . S
C1674 C1673 1.366 1_455 S
C1674 C1678 1.385 . S
C1675 H1650 0.951 . S
C1675 C1673 1.388 . S
C1675 C1676 1.366 1_655 S
C1676 C1675 1.366 1_455 S
C1676 C1677 1.414 . S
C1676 C1679 1.499 . S
C1677 H1651 0.950 . S
C1677 C1676 1.414 . S
C1677 C1678 1.374 . S
C1678 H1652 0.950 . S
C1678 C1674 1.385 . S
C1678 C1677 1.374 . S
C1679 C1676 1.499 . S
C1679 C1680 1.373 . S
C1679 C1681 1.389 1_455 S
C1680 H1653 0.950 . S
C1680 C1666 1.377 . S
C1680 C1679 1.373 . S
C1681 C1665 1.377 . S
C1681 C1679 1.389 1_655 S
C1681 C1682 1.524 . S
C1682 C1681 1.524 . S
C1682 C1683 1.380 1_655 S
C1682 C1687 1.363 . S
C1683 H1654 0.977 . S
C1683 C1682 1.380 1_455 S
C1683 C1684 1.325 1_455 S
C1684 H1655 0.950 1_655 S
C1684 C1683 1.325 1_655 S
C1684 C1685 1.287 . S
C1685 C1684 1.287 . S
C1685 C1686 1.524 . S
C1685 H1688 0.999 . S
C1686 H1656 0.950 . S
C1686 C1685 1.524 . S
C1686 C1687 1.415 . S
C1687 H1657 0.950 . S
C1687 C1682 1.363 . S
C1687 C1686 1.415 . S
H1688 C1685 0.999 . S
H1689 C1670 0.913 . S
H1690 C1708 0.951 . S
H1691 C1710 0.951 . S
H1692 C1712 0.950 . S
H1693 C1713 0.950 . S
H1694 C1715 0.950 . S
H1695 C1718 0.950 . S
H1696 C1719 0.950 . S
H1697 C1721 0.950 . S
H1698 C1722 0.950 . S
H1699 C1723 0.951 . S
H1700 C1725 0.951 . S
H1701 C1727 0.950 . S
H1702 C1728 0.950 . S
H1703 C1730 0.950 . S
H1704 C1733 0.950 . S
H1705 C1734 0.950 . S
H1706 C1736 0.950 1_556 S
H1707 C1737 0.950 . S
C1708 H1690 0.951 . S
C1708 C1709 1.366 . S
C1708 C1710 1.388 . S
C1709 C1708 1.366 . S
C1709 C1713 1.385 . S
C1710 H1691 0.951 . S
C1710 C1708 1.388 . S
C1710 C1711 1.366 . S
C1711 C1710 1.366 . S
C1711 C1712 1.414 . S
C1711 C1714 1.499 . S
C1712 H1692 0.950 . S
C1712 C1711 1.414 . S
C1712 C1713 1.374 . S
C1713 H1693 0.950 . S
C1713 C1709 1.385 . S
C1713 C1712 1.374 . S
C1714 C1711 1.499 . S
C1714 C1715 1.373 . S
C1714 C1716 1.389 . S
C1715 H1694 0.950 . S
C1715 C1714 1.373 . S
C1715 C1731 1.377 . S
C1716 C1714 1.389 . S
C1716 C1717 1.524 . S
C1716 C1730 1.377 . S
C1717 C1716 1.524 . S
C1717 C1718 1.397 . S
C1717 C1722 1.363 . S
C1718 H1695 0.950 . S
C1718 C1717 1.397 . S
C1718 C1719 1.334 . S
C1719 H1696 0.950 . S
C1719 C1718 1.334 . S
C1719 C1720 1.287 . S
C1720 C1719 1.287 . S
C1720 C1721 1.524 . S
C1720 H1739 0.913 . S
C1721 H1697 0.950 . S
C1721 C1720 1.524 . S
C1721 C1722 1.415 . S
C1722 H1698 0.950 . S
C1722 C1717 1.363 . S
C1722 C1721 1.415 . S
C1723 H1699 0.951 . S
C1723 C1724 1.366 . S
C1723 C1725 1.388 . S
C1724 C1723 1.366 . S
C1724 C1728 1.385 . S
C1725 H1700 0.951 . S
C1725 C1723 1.388 . S
C1725 C1726 1.366 . S
C1726 C1725 1.366 . S
C1726 C1727 1.414 . S
C1726 C1729 1.499 . S
C1727 H1701 0.950 . S
C1727 C1726 1.414 . S
C1727 C1728 1.374 . S
C1728 H1702 0.950 . S
C1728 C1724 1.385 . S
C1728 C1727 1.374 . S
C1729 C1726 1.499 . S
C1729 C1730 1.373 . S
C1729 C1731 1.389 . S
C1730 H1703 0.950 . S
C1730 C1716 1.377 . S
C1730 C1729 1.373 . S
C1731 C1715 1.377 . S
C1731 C1729 1.389 . S
C1731 C1732 1.524 . S
C1732 C1731 1.524 . S
C1732 C1733 1.397 . S
C1732 C1737 1.363 . S
C1733 H1704 0.950 . S
C1733 C1732 1.397 . S
C1733 C1734 1.334 . S
C1734 H1705 0.950 . S
C1734 C1733 1.334 . S
C1734 C1735 1.287 . S
C1735 C1734 1.287 . S
C1735 C1736 1.524 . S
C1735 H1738 0.999 . S
C1736 H1706 0.950 1_554 S
C1736 C1735 1.524 . S
C1736 C1737 1.415 . S
C1737 H1707 0.950 . S
C1737 C1732 1.363 . S
C1737 C1736 1.415 . S
H1738 C1735 0.999 . S
H1739 C1720 0.913 . S
H1740 C1758 0.951 . S
H1741 C1760 0.951 . S
H1742 C1762 0.950 . S
H1743 C1763 0.950 . S
H1744 C1765 0.950 . S
H1745 C1768 0.950 . S
H1746 C1769 0.950 . S
H1747 C1771 0.950 . S
H1748 C1772 0.950 . S
H1749 C1773 0.951 . S
H1750 C1775 0.951 . S
H1751 C1777 0.950 . S
H1752 C1778 0.950 . S
H1753 C1780 0.950 . S
H1754 C1783 0.950 . S
H1755 C1784 0.950 . S
H1756 C1786 0.950 . S
H1757 C1787 0.950 . S
C1758 H1740 0.951 . S
C1758 C1759 1.366 . S
C1758 C1760 1.388 . S
C1759 C1758 1.366 . S
C1759 C1763 1.385 . S
C1760 H1741 0.951 . S
C1760 C1758 1.388 . S
C1760 C1761 1.366 . S
C1761 C1760 1.366 . S
C1761 C1762 1.414 . S
C1761 C1764 1.499 . S
C1762 H1742 0.950 . S
C1762 C1761 1.414 . S
C1762 C1763 1.374 . S
C1763 H1743 0.950 . S
C1763 C1759 1.385 . S
C1763 C1762 1.374 . S
C1764 C1761 1.499 . S
C1764 C1765 1.373 . S
C1764 C1766 1.389 . S
C1765 H1744 0.950 . S
C1765 C1764 1.373 . S
C1765 C1781 1.377 . S
C1766 C1764 1.389 . S
C1766 C1767 1.524 . S
C1766 C1780 1.377 . S
C1767 C1766 1.524 . S
C1767 C1768 1.397 . S
C1767 C1772 1.363 . S
C1768 H1745 0.950 . S
C1768 C1767 1.397 . S
C1768 C1769 1.334 . S
C1769 H1746 0.950 . S
C1769 C1768 1.334 . S
C1769 C1770 1.287 . S
C1770 C1769 1.287 . S
C1770 C1771 1.524 . S
C1770 H1789 0.913 . S
C1771 H1747 0.950 . S
C1771 C1770 1.524 . S
C1771 C1772 1.415 . S
C1772 H1748 0.950 . S
C1772 C1767 1.363 . S
C1772 C1771 1.415 . S
C1773 H1749 0.951 . S
C1773 C1774 1.366 . S
C1773 C1775 1.388 . S
C1774 C1773 1.366 . S
C1774 C1778 1.385 . S
C1775 H1750 0.951 . S
C1775 C1773 1.388 . S
C1775 C1776 1.366 . S
C1776 C1775 1.366 . S
C1776 C1777 1.414 . S
C1776 C1779 1.499 . S
C1777 H1751 0.950 . S
C1777 C1776 1.414 . S
C1777 C1778 1.374 . S
C1778 H1752 0.950 . S
C1778 C1774 1.385 . S
C1778 C1777 1.374 . S
C1779 C1776 1.499 . S
C1779 C1780 1.373 . S
C1779 C1781 1.389 . S
C1780 H1753 0.950 . S
C1780 C1766 1.377 . S
C1780 C1779 1.373 . S
C1781 C1765 1.377 . S
C1781 C1779 1.389 . S
C1781 C1782 1.524 . S
C1782 C1781 1.524 . S
C1782 C1783 1.397 . S
C1782 C1787 1.363 . S
C1783 H1754 0.950 . S
C1783 C1782 1.397 . S
C1783 C1784 1.334 . S
C1784 H1755 0.950 . S
C1784 C1783 1.334 . S
C1784 C1785 1.287 . S
C1785 C1784 1.287 . S
C1785 C1786 1.524 . S
C1785 H1788 0.999 . S
C1786 H1756 0.950 . S
C1786 C1785 1.524 . S
C1786 C1787 1.415 . S
C1787 H1757 0.950 . S
C1787 C1782 1.363 . S
C1787 C1786 1.415 . S
H1788 C1785 0.999 . S
H1789 C1770 0.913 . S
H1790 C1808 0.951 . S
H1791 C1810 0.951 . S
H1792 C1812 0.950 . S
H1793 C1813 0.950 . S
H1794 C1815 0.950 . S
H1795 C1818 0.950 . S
H1796 C1819 0.950 . S
H1797 C1821 0.950 . S
H1798 C1822 0.950 . S
H1799 C1823 0.951 . S
H1800 C1825 0.951 . S
H1801 C1827 0.950 . S
H1802 C1828 0.950 . S
H1803 C1830 0.950 . S
H1804 C1833 0.950 . S
H1805 C1834 0.950 . S
H1806 C1836 0.950 . S
H1807 C1837 0.950 1_455 S
C1808 H1790 0.951 . S
C1808 C1809 1.366 . S
C1808 C1810 1.388 . S
C1809 C1808 1.366 . S
C1809 C1813 1.385 . S
C1810 H1791 0.951 . S
C1810 C1808 1.388 . S
C1810 C1811 1.366 . S
C1811 C1810 1.366 . S
C1811 C1812 1.414 . S
C1811 C1814 1.499 . S
C1812 H1792 0.950 . S
C1812 C1811 1.414 . S
C1812 C1813 1.374 . S
C1813 H1793 0.950 . S
C1813 C1809 1.385 . S
C1813 C1812 1.374 . S
C1814 C1811 1.499 . S
C1814 C1815 1.373 . S
C1814 C1816 1.389 . S
C1815 H1794 0.950 . S
C1815 C1814 1.373 . S
C1815 C1831 1.377 1_455 S
C1816 C1814 1.389 . S
C1816 C1817 1.524 . S
C1816 C1830 1.377 1_455 S
C1817 C1816 1.524 . S
C1817 C1818 1.397 . S
C1817 C1822 1.363 . S
C1818 H1795 0.950 . S
C1818 C1817 1.397 . S
C1818 C1819 1.334 . S
C1819 H1796 0.950 . S
C1819 C1818 1.334 . S
C1819 C1820 1.287 . S
C1820 C1819 1.287 . S
C1820 C1821 1.524 . S
C1820 H1839 0.913 . S
C1821 H1797 0.950 . S
C1821 C1820 1.524 . S
C1821 C1822 1.415 . S
C1822 H1798 0.950 . S
C1822 C1817 1.363 . S
C1822 C1821 1.415 . S
C1823 H1799 0.951 . S
C1823 C1824 1.366 . S
C1823 C1825 1.388 . S
C1824 C1823 1.366 . S
C1824 C1828 1.385 . S
C1825 H1800 0.951 . S
C1825 C1823 1.388 . S
C1825 C1826 1.366 . S
C1826 C1825 1.366 . S
C1826 C1827 1.414 . S
C1826 C1829 1.499 . S
C1827 H1801 0.950 . S
C1827 C1826 1.414 . S
C1827 C1828 1.374 . S
C1828 H1802 0.950 . S
C1828 C1824 1.385 . S
C1828 C1827 1.374 . S
C1829 C1826 1.499 . S
C1829 C1830 1.373 . S
C1829 C1831 1.389 . S
C1830 H1803 0.950 . S
C1830 C1816 1.377 1_655 S
C1830 C1829 1.373 . S
C1831 C1815 1.377 1_655 S
C1831 C1829 1.389 . S
C1831 C1832 1.524 . S
C1832 C1831 1.524 . S
C1832 C1833 1.397 . S
C1832 C1837 1.363 . S
C1833 H1804 0.950 . S
C1833 C1832 1.397 . S
C1833 C1834 1.334 . S
C1834 H1805 0.950 . S
C1834 C1833 1.334 . S
C1834 C1835 1.287 . S
C1835 C1834 1.287 . S
C1835 C1836 1.524 . S
C1835 H1838 0.999 . S
C1836 H1806 0.950 . S
C1836 C1835 1.524 . S
C1836 C1837 1.415 . S
C1837 H1807 0.950 1_655 S
C1837 C1832 1.363 . S
C1837 C1836 1.415 . S
H1838 C1835 0.999 . S
H1839 C1820 0.913 . S
H1840 C1858 0.951 . S
H1841 C1860 0.951 . S
H1842 C1862 0.950 . S
H1843 C1863 0.950 . S
H1844 C1865 0.950 . S
H1845 C1868 0.950 . S
H1846 C1869 0.950 . S
H1847 C1871 0.950 1_556 S
H1848 C1872 0.950 . S
H1849 C1873 0.951 . S
H1850 C1875 0.951 . S
H1851 C1877 0.950 1_655 S
H1852 C1878 0.950 1_655 S
H1853 C1880 0.950 . S
H1854 C1883 0.950 . S
H1855 C1884 0.950 . S
H1856 C1886 0.950 1_554 S
H1857 C1887 0.950 . S
C1858 H1840 0.951 . S
C1858 C1859 1.366 1_655 S
C1858 C1860 1.388 . S
C1859 C1858 1.366 1_455 S
C1859 C1863 1.385 . S
C1860 H1841 0.951 . S
C1860 C1858 1.388 . S
C1860 C1861 1.366 1_655 S
C1861 C1860 1.366 1_455 S
C1861 C1862 1.414 . S
C1861 C1864 1.499 . S
C1862 H1842 0.950 . S
C1862 C1861 1.414 . S
C1862 C1863 1.374 . S
C1863 H1843 0.950 . S
C1863 C1859 1.385 . S
C1863 C1862 1.374 . S
C1864 C1861 1.499 . S
C1864 C1865 1.373 . S
C1864 C1866 1.389 1_455 S
C1865 H1844 0.950 . S
C1865 C1864 1.373 . S
C1865 C1881 1.377 1_544 S
C1866 C1864 1.389 1_655 S
C1866 C1867 1.524 . S
C1866 C1880 1.377 1_544 S
C1867 C1866 1.524 . S
C1867 C1868 1.397 . S
C1867 C1872 1.363 1_554 S
C1868 H1845 0.950 . S
C1868 C1867 1.397 . S
C1868 C1869 1.334 . S
C1869 H1846 0.950 . S
C1869 C1868 1.334 . S
C1869 C1870 1.287 . S
C1870 C1869 1.287 . S
C1870 C1871 1.524 . S
C1870 H1889 0.913 . S
C1871 H1847 0.950 1_554 S
C1871 C1870 1.524 . S
C1871 C1872 1.415 1_554 S
C1872 H1848 0.950 . S
C1872 C1867 1.363 1_556 S
C1872 C1871 1.415 1_556 S
C1873 H1849 0.951 . S
C1873 C1874 1.366 . S
C1873 C1875 1.388 . S
C1874 C1873 1.366 . S
C1874 C1878 1.385 . S
C1875 H1850 0.951 . S
C1875 C1873 1.388 . S
C1875 C1876 1.366 . S
C1876 C1875 1.366 . S
C1876 C1877 1.414 . S
C1876 C1879 1.499 . S
C1877 H1851 0.950 1_455 S
C1877 C1876 1.414 . S
C1877 C1878 1.374 . S
C1878 H1852 0.950 1_455 S
C1878 C1874 1.385 . S
C1878 C1877 1.374 . S
C1879 C1876 1.499 . S
C1879 C1880 1.373 1_455 S
C1879 C1881 1.389 . S
C1880 H1853 0.950 . S
C1880 C1866 1.377 1_566 S
C1880 C1879 1.373 1_655 S
C1881 C1865 1.377 1_566 S
C1881 C1879 1.389 . S
C1881 C1882 1.524 . S
C1882 C1881 1.524 . S
C1882 C1883 1.397 . S
C1882 C1887 1.363 1_556 S
C1883 H1854 0.950 . S
C1883 C1882 1.397 . S
C1883 C1884 1.334 . S
C1884 H1855 0.950 . S
C1884 C1883 1.334 . S
C1884 C1885 1.287 . S
C1885 C1884 1.287 . S
C1885 C1886 1.524 . S
C1885 H1888 0.999 . S
C1886 H1856 0.950 1_556 S
C1886 C1885 1.524 . S
C1886 C1887 1.415 1_556 S
C1887 H1857 0.950 . S
C1887 C1882 1.363 1_554 S
C1887 C1886 1.415 1_554 S
H1888 C1885 0.999 . S
H1889 C1870 0.913 . S
H1890 C1908 0.951 . S
H1891 C1910 0.951 . S
H1892 C1912 0.950 . S
H1893 C1913 0.950 . S
H1894 C1915 0.950 . S
H1895 C1918 0.950 . S
H1896 C1919 0.950 . S
H1897 C1921 0.950 . S
H1898 C1922 0.950 . S
H1899 C1923 0.951 . S
H1900 C1925 0.951 . S
H1901 C1927 0.950 . S
H1902 C1928 0.950 . S
H1903 C1930 0.950 . S
H1904 C1933 0.950 . S
H1905 C1934 0.950 . S
H1906 C1936 0.950 . S
H1907 C1937 0.950 . S
C1908 H1890 0.951 . S
C1908 C1909 1.366 . S
C1908 C1910 1.388 . S
C1909 C1908 1.366 . S
C1909 C1913 1.385 . S
C1910 H1891 0.951 . S
C1910 C1908 1.388 . S
C1910 C1911 1.366 . S
C1911 C1910 1.366 . S
C1911 C1912 1.414 . S
C1911 C1914 1.499 . S
C1912 H1892 0.950 . S
C1912 C1911 1.414 . S
C1912 C1913 1.374 . S
C1913 H1893 0.950 . S
C1913 C1909 1.385 . S
C1913 C1912 1.374 . S
C1914 C1911 1.499 . S
C1914 C1915 1.373 . S
C1914 C1916 1.389 . S
C1915 H1894 0.950 . S
C1915 C1914 1.373 . S
C1915 C1931 1.377 . S
C1916 C1914 1.389 . S
C1916 C1917 1.524 . S
C1916 C1930 1.377 . S
C1917 C1916 1.524 . S
C1917 C1918 1.397 . S
C1917 C1922 1.363 . S
C1918 H1895 0.950 . S
C1918 C1917 1.397 . S
C1918 C1919 1.334 . S
C1919 H1896 0.950 . S
C1919 C1918 1.334 . S
C1919 C1920 1.287 . S
C1920 C1919 1.287 . S
C1920 C1921 1.524 . S
C1920 H1939 0.913 . S
C1921 H1897 0.950 . S
C1921 C1920 1.524 . S
C1921 C1922 1.415 . S
C1922 H1898 0.950 . S
C1922 C1917 1.363 . S
C1922 C1921 1.415 . S
C1923 H1899 0.951 . S
C1923 C1924 1.366 . S
C1923 C1925 1.388 . S
C1924 C1923 1.366 . S
C1924 C1928 1.385 . S
C1925 H1900 0.951 . S
C1925 C1923 1.388 . S
C1925 C1926 1.366 . S
C1926 C1925 1.366 . S
C1926 C1927 1.414 . S
C1926 C1929 1.499 . S
C1927 H1901 0.950 . S
C1927 C1926 1.414 . S
C1927 C1928 1.374 . S
C1928 H1902 0.950 . S
C1928 C1924 1.385 . S
C1928 C1927 1.374 . S
C1929 C1926 1.499 . S
C1929 C1930 1.373 . S
C1929 C1931 1.389 . S
C1930 H1903 0.950 . S
C1930 C1916 1.377 . S
C1930 C1929 1.373 . S
C1931 C1915 1.377 . S
C1931 C1929 1.389 . S
C1931 C1932 1.524 . S
C1932 C1931 1.524 . S
C1932 C1933 1.397 . S
C1932 C1937 1.363 . S
C1933 H1904 0.950 . S
C1933 C1932 1.397 . S
C1933 C1934 1.334 . S
C1934 H1905 0.950 . S
C1934 C1933 1.334 . S
C1934 C1935 1.287 . S
C1935 C1934 1.287 . S
C1935 C1936 1.524 . S
C1935 H1938 0.999 . S
C1936 H1906 0.950 . S
C1936 C1935 1.524 . S
C1936 C1937 1.415 . S
C1937 H1907 0.950 . S
C1937 C1932 1.363 . S
C1937 C1936 1.415 . S
H1938 C1935 0.999 . S
H1939 C1920 0.913 . S
H1940 C1958 0.951 . S
H1941 C1960 0.951 . S
H1942 C1962 0.950 . S
H1943 C1963 0.950 . S
H1944 C1965 0.950 . S
H1945 C1968 0.950 . S
H1946 C1969 0.950 . S
H1947 C1971 0.950 . S
H1948 C1972 0.950 . S
H1949 C1973 0.951 . S
H1950 C1975 0.951 . S
H1951 C1977 0.950 . S
H1952 C1978 0.950 . S
H1953 C1980 0.950 . S
H1954 C1983 0.950 . S
H1955 C1984 0.950 . S
H1956 C1986 0.950 . S
H1957 C1987 0.950 . S
C1958 H1940 0.951 . S
C1958 C1959 1.366 . S
C1958 C1960 1.388 . S
C1959 C1958 1.366 . S
C1959 C1963 1.385 . S
C1960 H1941 0.951 . S
C1960 C1958 1.388 . S
C1960 C1961 1.366 . S
C1961 C1960 1.366 . S
C1961 C1962 1.414 . S
C1961 C1964 1.499 . S
C1962 H1942 0.950 . S
C1962 C1961 1.414 . S
C1962 C1963 1.374 . S
C1963 H1943 0.950 . S
C1963 C1959 1.385 . S
C1963 C1962 1.374 . S
C1964 C1961 1.499 . S
C1964 C1965 1.373 . S
C1964 C1966 1.389 . S
C1965 H1944 0.950 . S
C1965 C1964 1.373 . S
C1965 C1981 1.377 1_545 S
C1966 C1964 1.389 . S
C1966 C1967 1.524 . S
C1966 C1980 1.377 1_545 S
C1967 C1966 1.524 . S
C1967 C1968 1.397 . S
C1967 C1972 1.363 1_545 S
C1968 H1945 0.950 . S
C1968 C1967 1.397 . S
C1968 C1969 1.334 . S
C1969 H1946 0.950 . S
C1969 C1968 1.334 . S
C1969 C1970 1.287 . S
C1970 C1969 1.287 . S
C1970 C1971 1.524 1_545 S
C1970 H1989 0.913 . S
C1971 H1947 0.950 . S
C1971 C1970 1.524 1_565 S
C1971 C1972 1.415 . S
C1972 H1948 0.950 . S
C1972 C1967 1.363 1_565 S
C1972 C1971 1.415 . S
C1973 H1949 0.951 . S
C1973 C1974 1.366 . S
C1973 C1975 1.388 . S
C1974 C1973 1.366 . S
C1974 C1978 1.385 . S
C1975 H1950 0.951 . S
C1975 C1973 1.388 . S
C1975 C1976 1.366 . S
C1976 C1975 1.366 . S
C1976 C1977 1.414 . S
C1976 C1979 1.499 . S
C1977 H1951 0.950 . S
C1977 C1976 1.414 . S
C1977 C1978 1.374 . S
C1978 H1952 0.950 . S
C1978 C1974 1.385 . S
C1978 C1977 1.374 . S
C1979 C1976 1.499 . S
C1979 C1980 1.373 . S
C1979 C1981 1.389 . S
C1980 H1953 0.950 . S
C1980 C1966 1.377 1_565 S
C1980 C1979 1.373 . S
C1981 C1965 1.377 1_565 S
C1981 C1979 1.389 . S
C1981 C1982 1.524 . S
C1982 C1981 1.524 . S
C1982 C1983 1.397 . S
C1982 C1987 1.363 1_565 S
C1983 H1954 0.950 . S
C1983 C1982 1.397 . S
C1983 C1984 1.334 . S
C1984 H1955 0.950 . S
C1984 C1983 1.334 . S
C1984 C1985 1.287 . S
C1985 C1984 1.287 . S
C1985 C1986 1.524 1_565 S
C1985 H1988 0.999 . S
C1986 H1956 0.950 . S
C1986 C1985 1.524 1_545 S
C1986 C1987 1.415 . S
C1987 H1957 0.950 . S
C1987 C1982 1.363 1_545 S
C1987 C1986 1.415 . S
H1988 C1985 0.999 . S
H1989 C1970 0.913 . S
H1990 C2008 0.951 . S
H1991 C2010 0.951 . S
H1992 C2012 0.950 . S
H1993 C2013 0.950 . S
H1994 C2015 0.950 . S
H1995 C2018 0.950 . S
H1996 C2019 0.950 . S
H1997 C2021 0.950 . S
H1998 C2022 0.950 . S
H1999 C2023 0.951 . S
H2000 C2025 0.951 . S
H2001 C2027 0.950 . S
H2002 C2028 0.950 . S
H2003 C2030 0.950 . S
H2004 C2033 0.950 . S
H2005 C2034 0.950 . S
H2006 C2036 0.950 . S
H2007 C2037 0.950 . S
C2008 H1990 0.951 . S
C2008 C2009 1.366 . S
C2008 C2010 1.388 . S
C2009 C2008 1.366 . S
C2009 C2013 1.385 . S
C2010 H1991 0.951 . S
C2010 C2008 1.388 . S
C2010 C2011 1.366 . S
C2011 C2010 1.366 . S
C2011 C2012 1.414 . S
C2011 C2014 1.499 . S
C2012 H1992 0.950 . S
C2012 C2011 1.414 . S
C2012 C2013 1.374 . S
C2013 H1993 0.950 . S
C2013 C2009 1.385 . S
C2013 C2012 1.374 . S
C2014 C2011 1.499 . S
C2014 C2015 1.373 . S
C2014 C2016 1.389 . S
C2015 H1994 0.950 . S
C2015 C2014 1.373 . S
C2015 C2031 1.377 . S
C2016 C2014 1.389 . S
C2016 C2017 1.524 . S
C2016 C2030 1.377 . S
C2017 C2016 1.524 . S
C2017 C2018 1.397 . S
C2017 C2022 1.363 . S
C2018 H1995 0.950 . S
C2018 C2017 1.397 . S
C2018 C2019 1.334 . S
C2019 H1996 0.950 . S
C2019 C2018 1.334 . S
C2019 C2020 1.287 . S
C2020 C2019 1.287 . S
C2020 C2021 1.524 . S
C2020 H2039 0.913 . S
C2021 H1997 0.950 . S
C2021 C2020 1.524 . S
C2021 C2022 1.415 . S
C2022 H1998 0.950 . S
C2022 C2017 1.363 . S
C2022 C2021 1.415 . S
C2023 H1999 0.951 . S
C2023 C2024 1.366 . S
C2023 C2025 1.388 . S
C2024 C2023 1.366 . S
C2024 C2028 1.385 . S
C2025 H2000 0.951 . S
C2025 C2023 1.388 . S
C2025 C2026 1.366 . S
C2026 C2025 1.366 . S
C2026 C2027 1.414 . S
C2026 C2029 1.499 . S
C2027 H2001 0.950 . S
C2027 C2026 1.414 . S
C2027 C2028 1.374 . S
C2028 H2002 0.950 . S
C2028 C2024 1.385 . S
C2028 C2027 1.374 . S
C2029 C2026 1.499 . S
C2029 C2030 1.373 . S
C2029 C2031 1.389 . S
C2030 H2003 0.950 . S
C2030 C2016 1.377 . S
C2030 C2029 1.373 . S
C2031 C2015 1.377 . S
C2031 C2029 1.389 . S
C2031 C2032 1.524 . S
C2032 C2031 1.524 . S
C2032 C2033 1.397 . S
C2032 C2037 1.363 . S
C2033 H2004 0.950 . S
C2033 C2032 1.397 . S
C2033 C2034 1.334 . S
C2034 H2005 0.950 . S
C2034 C2033 1.334 . S
C2034 C2035 1.287 . S
C2035 C2034 1.287 . S
C2035 C2036 1.524 . S
C2035 H2038 0.999 . S
C2036 H2006 0.950 . S
C2036 C2035 1.524 . S
C2036 C2037 1.415 . S
C2037 H2007 0.950 . S
C2037 C2032 1.363 . S
C2037 C2036 1.415 . S
H2038 C2035 0.999 . S
H2039 C2020 0.913 . S
H2040 C2058 0.951 . S
H2041 C2060 0.951 . S
H2042 C2062 0.950 . S
H2043 C2063 0.950 . S
H2044 C2065 0.950 . S
H2045 C2068 0.950 . S
H2046 C2069 0.950 . S
H2047 C2071 0.950 . S
H2048 C2072 0.950 . S
H2049 C2073 0.951 . S
H2050 C2075 0.951 . S
H2051 C2077 0.950 . S
H2052 C2078 0.950 . S
H2053 C2080 0.950 . S
H2054 C2083 0.950 . S
H2055 C2084 0.950 . S
H2056 C2086 0.950 . S
H2057 C2087 0.950 . S
C2058 H2040 0.951 . S
C2058 C2059 1.366 . S
C2058 C2060 1.388 . S
C2059 C2058 1.366 . S
C2059 C2063 1.385 . S
C2060 H2041 0.951 . S
C2060 C2058 1.388 . S
C2060 C2061 1.366 . S
C2061 C2060 1.366 . S
C2061 C2062 1.414 . S
C2061 C2064 1.499 . S
C2062 H2042 0.950 . S
C2062 C2061 1.414 . S
C2062 C2063 1.374 . S
C2063 H2043 0.950 . S
C2063 C2059 1.385 . S
C2063 C2062 1.374 . S
C2064 C2061 1.499 . S
C2064 C2065 1.373 . S
C2064 C2066 1.389 . S
C2065 H2044 0.950 . S
C2065 C2064 1.373 . S
C2065 C2081 1.377 . S
C2066 C2064 1.389 . S
C2066 C2067 1.524 . S
C2066 C2080 1.377 . S
C2067 C2066 1.524 . S
C2067 C2068 1.397 . S
C2067 C2072 1.363 . S
C2068 H2045 0.950 . S
C2068 C2067 1.397 . S
C2068 C2069 1.334 . S
C2069 H2046 0.950 . S
C2069 C2068 1.334 . S
C2069 C2070 1.287 . S
C2070 C2069 1.287 . S
C2070 C2071 1.524 . S
C2070 H2089 0.913 . S
C2071 H2047 0.950 . S
C2071 C2070 1.524 . S
C2071 C2072 1.415 . S
C2072 H2048 0.950 . S
C2072 C2067 1.363 . S
C2072 C2071 1.415 . S
C2073 H2049 0.951 . S
C2073 C2074 1.366 . S
C2073 C2075 1.388 . S
C2074 C2073 1.366 . S
C2074 C2078 1.385 . S
C2075 H2050 0.951 . S
C2075 C2073 1.388 . S
C2075 C2076 1.366 . S
C2076 C2075 1.366 . S
C2076 C2077 1.414 . S
C2076 C2079 1.499 . S
C2077 H2051 0.950 . S
C2077 C2076 1.414 . S
C2077 C2078 1.374 . S
C2078 H2052 0.950 . S
C2078 C2074 1.385 . S
C2078 C2077 1.374 . S
C2079 C2076 1.499 . S
C2079 C2080 1.373 . S
C2079 C2081 1.389 . S
C2080 H2053 0.950 . S
C2080 C2066 1.377 . S
C2080 C2079 1.373 . S
C2081 C2065 1.377 . S
C2081 C2079 1.389 . S
C2081 C2082 1.524 . S
C2082 C2081 1.524 . S
C2082 C2083 1.397 . S
C2082 C2087 1.363 . S
C2083 H2054 0.950 . S
C2083 C2082 1.397 . S
C2083 C2084 1.334 . S
C2084 H2055 0.950 . S
C2084 C2083 1.334 . S
C2084 C2085 1.287 . S
C2085 C2084 1.287 . S
C2085 C2086 1.524 . S
C2085 H2088 0.999 . S
C2086 H2056 0.950 . S
C2086 C2085 1.524 . S
C2086 C2087 1.415 . S
C2087 H2057 0.950 . S
C2087 C2082 1.363 . S
C2087 C2086 1.415 . S
H2088 C2085 0.999 . S
H2089 C2070 0.913 . S
H2090 C2108 0.951 . S
H2091 C2110 0.951 . S
H2092 C2112 0.950 . S
H2093 C2113 0.950 . S
H2094 C2115 0.950 . S
H2095 C2118 0.950 . S
H2096 C2119 0.950 . S
H2097 C2121 0.950 . S
H2098 C2122 0.950 . S
H2099 C2123 0.951 . S
H2100 C2125 0.951 . S
H2101 C2127 0.950 . S
H2102 C2128 0.950 . S
H2103 C2130 0.950 . S
H2104 C2133 0.950 . S
H2105 C2134 0.950 . S
H2106 C2136 0.950 . S
H2107 C2137 0.950 . S
C2108 H2090 0.951 . S
C2108 C2109 1.366 . S
C2108 C2110 1.388 . S
C2109 C2108 1.366 . S
C2109 C2113 1.385 . S
C2110 H2091 0.951 . S
C2110 C2108 1.388 . S
C2110 C2111 1.366 . S
C2111 C2110 1.366 . S
C2111 C2112 1.414 . S
C2111 C2114 1.499 . S
C2112 H2092 0.950 . S
C2112 C2111 1.414 . S
C2112 C2113 1.374 . S
C2113 H2093 0.950 . S
C2113 C2109 1.385 . S
C2113 C2112 1.374 . S
C2114 C2111 1.499 . S
C2114 C2115 1.373 . S
C2114 C2116 1.389 . S
C2115 H2094 0.950 . S
C2115 C2114 1.373 . S
C2115 C2131 1.377 . S
C2116 C2114 1.389 . S
C2116 C2117 1.524 . S
C2116 C2130 1.377 . S
C2117 C2116 1.524 . S
C2117 C2118 1.397 . S
C2117 C2122 1.363 . S
C2118 H2095 0.950 . S
C2118 C2117 1.397 . S
C2118 C2119 1.334 . S
C2119 H2096 0.950 . S
C2119 C2118 1.334 . S
C2119 C2120 1.287 . S
C2120 C2119 1.287 . S
C2120 C2121 1.524 . S
C2120 H2139 0.913 . S
C2121 H2097 0.950 . S
C2121 C2120 1.524 . S
C2121 C2122 1.415 . S
C2122 H2098 0.950 . S
C2122 C2117 1.363 . S
C2122 C2121 1.415 . S
C2123 H2099 0.951 . S
C2123 C2124 1.366 . S
C2123 C2125 1.388 . S
C2124 C2123 1.366 . S
C2124 C2128 1.385 . S
C2125 H2100 0.951 . S
C2125 C2123 1.388 . S
C2125 C2126 1.366 . S
C2126 C2125 1.366 . S
C2126 C2127 1.414 . S
C2126 C2129 1.499 . S
C2127 H2101 0.950 . S
C2127 C2126 1.414 . S
C2127 C2128 1.374 . S
C2128 H2102 0.950 . S
C2128 C2124 1.385 . S
C2128 C2127 1.374 . S
C2129 C2126 1.499 . S
C2129 C2130 1.373 . S
C2129 C2131 1.389 . S
C2130 H2103 0.950 . S
C2130 C2116 1.377 . S
C2130 C2129 1.373 . S
C2131 C2115 1.377 . S
C2131 C2129 1.389 . S
C2131 C2132 1.524 . S
C2132 C2131 1.524 . S
C2132 C2133 1.397 . S
C2132 C2137 1.363 . S
C2133 H2104 0.950 . S
C2133 C2132 1.397 . S
C2133 C2134 1.334 . S
C2134 H2105 0.950 . S
C2134 C2133 1.334 . S
C2134 C2135 1.287 . S
C2135 C2134 1.287 . S
C2135 C2136 1.524 . S
C2135 H2138 0.999 . S
C2136 H2106 0.950 . S
C2136 C2135 1.524 . S
C2136 C2137 1.415 . S
C2137 H2107 0.950 . S
C2137 C2132 1.363 . S
C2137 C2136 1.415 . S
H2138 C2135 0.999 . S
H2139 C2120 0.913 . S
H2140 C2158 0.951 . S
H2141 C2160 0.951 . S
H2142 C2162 0.950 . S
H2143 C2163 0.950 . S
H2144 C2165 0.950 . S
H2145 C2168 0.950 . S
H2146 C2169 0.950 . S
H2147 C2171 0.950 . S
H2148 C2172 0.950 . S
H2149 C2173 0.951 . S
H2150 C2175 0.951 . S
H2151 C2177 0.950 . S
H2152 C2178 0.950 . S
H2153 C2180 0.950 . S
H2154 C2183 0.950 . S
H2155 C2184 0.950 . S
H2156 C2186 0.950 . S
H2157 C2187 0.950 . S
C2158 H2140 0.951 . S
C2158 C2159 1.366 . S
C2158 C2160 1.388 . S
C2159 C2158 1.366 . S
C2159 C2163 1.385 . S
C2160 H2141 0.951 . S
C2160 C2158 1.388 . S
C2160 C2161 1.366 . S
C2161 C2160 1.366 . S
C2161 C2162 1.414 . S
C2161 C2164 1.499 . S
C2162 H2142 0.950 . S
C2162 C2161 1.414 . S
C2162 C2163 1.374 . S
C2163 H2143 0.950 . S
C2163 C2159 1.385 . S
C2163 C2162 1.374 . S
C2164 C2161 1.499 . S
C2164 C2165 1.373 . S
C2164 C2166 1.389 . S
C2165 H2144 0.950 . S
C2165 C2164 1.373 . S
C2165 C2181 1.377 . S
C2166 C2164 1.389 . S
C2166 C2167 1.524 . S
C2166 C2180 1.377 . S
C2167 C2166 1.524 . S
C2167 C2168 1.397 . S
C2167 C2172 1.363 . S
C2168 H2145 0.950 . S
C2168 C2167 1.397 . S
C2168 C2169 1.334 . S
C2169 H2146 0.950 . S
C2169 C2168 1.334 . S
C2169 C2170 1.287 . S
C2170 C2169 1.287 . S
C2170 C2171 1.524 . S
C2170 H2189 0.913 . S
C2171 H2147 0.950 . S
C2171 C2170 1.524 . S
C2171 C2172 1.415 . S
C2172 H2148 0.950 . S
C2172 C2167 1.363 . S
C2172 C2171 1.415 . S
C2173 H2149 0.951 . S
C2173 C2174 1.366 . S
C2173 C2175 1.388 . S
C2174 C2173 1.366 . S
C2174 C2178 1.385 . S
C2175 H2150 0.951 . S
C2175 C2173 1.388 . S
C2175 C2176 1.366 . S
C2176 C2175 1.366 . S
C2176 C2177 1.414 . S
C2176 C2179 1.499 . S
C2177 H2151 0.950 . S
C2177 C2176 1.414 . S
C2177 C2178 1.374 . S
C2178 H2152 0.950 . S
C2178 C2174 1.385 . S
C2178 C2177 1.374 . S
C2179 C2176 1.499 . S
C2179 C2180 1.373 . S
C2179 C2181 1.389 . S
C2180 H2153 0.950 . S
C2180 C2166 1.377 . S
C2180 C2179 1.373 . S
C2181 C2165 1.377 . S
C2181 C2179 1.389 . S
C2181 C2182 1.524 . S
C2182 C2181 1.524 . S
C2182 C2183 1.397 . S
C2182 C2187 1.363 . S
C2183 H2154 0.950 . S
C2183 C2182 1.397 . S
C2183 C2184 1.334 . S
C2184 H2155 0.950 . S
C2184 C2183 1.334 . S
C2184 C2185 1.287 . S
C2185 C2184 1.287 . S
C2185 C2186 1.524 . S
C2185 H2188 0.999 . S
C2186 H2156 0.950 . S
C2186 C2185 1.524 . S
C2186 C2187 1.415 . S
C2187 H2157 0.950 . S
C2187 C2182 1.363 . S
C2187 C2186 1.415 . S
H2188 C2185 0.999 . S
H2189 C2170 0.913 . S
H2190 C2208 0.951 . S
H2191 C2210 0.947 1_655 S
H2192 C2212 0.950 . S
H2193 C2213 0.950 . S
H2194 C2215 0.950 . S
H2195 C2218 0.950 . S
H2196 C2219 0.950 . S
H2197 C2221 0.950 . S
H2198 C2222 0.950 . S
H2199 C2223 0.951 . S
H2200 C2225 0.951 . S
H2201 C2227 0.950 . S
H2202 C2228 0.950 . S
H2203 C2230 0.950 . S
H2204 C2233 0.950 . S
H2205 C2234 0.950 . S
H2206 C2236 0.950 . S
H2207 C2237 0.950 . S
C2208 H2190 0.951 . S
C2208 C2209 1.366 1_655 S
C2208 C2210 1.386 1_655 S
C2209 C2208 1.366 1_455 S
C2209 C2213 1.385 . S
C2210 H2191 0.947 1_455 S
C2210 C2208 1.386 1_455 S
C2210 C2211 1.372 . S
C2211 C2210 1.372 . S
C2211 C2212 1.414 . S
C2211 C2214 1.499 . S
C2212 H2192 0.950 . S
C2212 C2211 1.414 . S
C2212 C2213 1.374 . S
C2213 H2193 0.950 . S
C2213 C2209 1.385 . S
C2213 C2212 1.374 . S
C2214 C2211 1.499 . S
C2214 C2215 1.373 1_455 S
C2214 C2216 1.389 1_556 S
C2215 H2194 0.950 . S
C2215 C2214 1.373 1_655 S
C2215 C2231 1.377 . S
C2216 C2214 1.389 1_554 S
C2216 C2217 1.524 . S
C2216 C2230 1.377 . S
C2217 C2216 1.524 . S
C2217 C2218 1.397 1_554 S
C2217 C2222 1.363 . S
C2218 H2195 0.950 . S
C2218 C2217 1.397 1_556 S
C2218 C2219 1.334 . S
C2219 H2196 0.950 . S
C2219 C2218 1.334 . S
C2219 C2220 1.287 1_556 S
C2220 C2219 1.287 1_554 S
C2220 C2221 1.524 . S
C2220 H2239 0.913 . S
C2221 H2197 0.950 . S
C2221 C2220 1.524 . S
C2221 C2222 1.415 . S
C2222 H2198 0.950 . S
C2222 C2217 1.363 . S
C2222 C2221 1.415 . S
C2223 H2199 0.951 . S
C2223 C2224 1.366 . S
C2223 C2225 1.388 . S
C2224 C2223 1.366 . S
C2224 C2228 1.385 . S
C2225 H2200 0.951 . S
C2225 C2223 1.388 . S
C2225 C2226 1.366 . S
C2226 C2225 1.366 . S
C2226 C2227 1.414 . S
C2226 C2229 1.499 . S
C2227 H2201 0.950 . S
C2227 C2226 1.414 . S
C2227 C2228 1.374 . S
C2228 H2202 0.950 . S
C2228 C2224 1.385 . S
C2228 C2227 1.374 . S
C2229 C2226 1.499 . S
C2229 C2230 1.373 . S
C2229 C2231 1.389 1_454 S
C2230 H2203 0.950 . S
C2230 C2216 1.377 . S
C2230 C2229 1.373 . S
C2231 C2215 1.377 . S
C2231 C2229 1.389 1_656 S
C2231 C2232 1.524 . S
C2232 C2231 1.524 . S
C2232 C2233 1.397 1_556 S
C2232 C2237 1.363 . S
C2233 H2204 0.950 . S
C2233 C2232 1.397 1_554 S
C2233 C2234 1.334 . S
C2234 H2205 0.950 . S
C2234 C2233 1.334 . S
C2234 C2235 1.287 1_554 S
C2235 C2234 1.287 1_556 S
C2235 C2236 1.524 . S
C2235 H2238 0.999 . S
C2236 H2206 0.950 . S
C2236 C2235 1.524 . S
C2236 C2237 1.415 . S
C2237 H2207 0.950 . S
C2237 C2232 1.363 . S
C2237 C2236 1.415 . S
H2238 C2235 0.999 . S
H2239 C2220 0.913 . S
H2240 C2258 0.951 . S
H2241 C2260 0.951 . S
H2242 C2262 0.950 . S
H2243 C2263 0.950 . S
H2244 C2265 0.950 . S
H2245 C2268 0.950 . S
H2246 C2269 0.950 . S
H2247 C2271 0.950 . S
H2248 C2272 0.950 . S
H2249 C2273 0.951 . S
H2250 C2275 0.951 . S
H2251 C2277 0.950 . S
H2252 C2278 0.950 . S
H2253 C2280 0.950 . S
H2254 C2283 0.950 . S
H2255 C2284 0.950 . S
H2256 C2286 0.950 . S
H2257 C2287 0.950 . S
C2258 H2240 0.951 . S
C2258 C2259 1.366 . S
C2258 C2260 1.388 . S
C2259 C2258 1.366 . S
C2259 C2263 1.385 . S
C2260 H2241 0.951 . S
C2260 C2258 1.388 . S
C2260 C2261 1.366 . S
C2261 C2260 1.366 . S
C2261 C2262 1.414 . S
C2261 C2264 1.499 . S
C2262 H2242 0.950 . S
C2262 C2261 1.414 . S
C2262 C2263 1.374 . S
C2263 H2243 0.950 . S
C2263 C2259 1.385 . S
C2263 C2262 1.374 . S
C2264 C2261 1.499 . S
C2264 C2265 1.373 . S
C2264 C2266 1.389 . S
C2265 H2244 0.950 . S
C2265 C2264 1.373 . S
C2265 C2281 1.377 . S
C2266 C2264 1.389 . S
C2266 C2267 1.524 . S
C2266 C2280 1.377 . S
C2267 C2266 1.524 . S
C2267 C2268 1.397 . S
C2267 C2272 1.363 . S
C2268 H2245 0.950 . S
C2268 C2267 1.397 . S
C2268 C2269 1.334 . S
C2269 H2246 0.950 . S
C2269 C2268 1.334 . S
C2269 C2270 1.287 . S
C2270 C2269 1.287 . S
C2270 C2271 1.524 . S
C2270 H2289 0.913 . S
C2271 H2247 0.950 . S
C2271 C2270 1.524 . S
C2271 C2272 1.415 . S
C2272 H2248 0.950 . S
C2272 C2267 1.363 . S
C2272 C2271 1.415 . S
C2273 H2249 0.951 . S
C2273 C2274 1.366 . S
C2273 C2275 1.388 . S
C2274 C2273 1.366 . S
C2274 C2278 1.385 . S
C2275 H2250 0.951 . S
C2275 C2273 1.388 . S
C2275 C2276 1.366 . S
C2276 C2275 1.366 . S
C2276 C2277 1.414 . S
C2276 C2279 1.499 . S
C2277 H2251 0.950 . S
C2277 C2276 1.414 . S
C2277 C2278 1.374 . S
C2278 H2252 0.950 . S
C2278 C2274 1.385 . S
C2278 C2277 1.374 . S
C2279 C2276 1.499 . S
C2279 C2280 1.373 . S
C2279 C2281 1.389 . S
C2280 H2253 0.950 . S
C2280 C2266 1.377 . S
C2280 C2279 1.373 . S
C2281 C2265 1.377 . S
C2281 C2279 1.389 . S
C2281 C2282 1.524 . S
C2282 C2281 1.524 . S
C2282 C2283 1.397 . S
C2282 C2287 1.363 . S
C2283 H2254 0.950 . S
C2283 C2282 1.397 . S
C2283 C2284 1.334 . S
C2284 H2255 0.950 . S
C2284 C2283 1.334 . S
C2284 C2285 1.287 . S
C2285 C2284 1.287 . S
C2285 C2286 1.524 . S
C2285 H2288 0.999 . S
C2286 H2256 0.950 . S
C2286 C2285 1.524 . S
C2286 C2287 1.415 . S
C2287 H2257 0.950 . S
C2287 C2282 1.363 . S
C2287 C2286 1.415 . S
H2288 C2285 0.999 . S
H2289 C2270 0.913 . S
H2290 C2308 0.951 . S
H2291 C2310 0.951 . S
H2292 C2312 0.950 . S
H2293 C2313 0.950 . S
H2294 C2315 0.950 . S
H2295 C2318 0.950 . S
H2296 C2319 0.950 . S
H2297 C2321 0.950 . S
H2298 C2322 0.950 . S
H2299 C2323 0.951 . S
H2300 C2325 0.951 . S
H2301 C2327 0.950 . S
H2302 C2328 0.950 . S
H2303 C2330 0.950 . S
H2304 C2333 0.950 . S
H2305 C2334 0.951 1_655 S
H2306 C2336 0.949 . S
H2307 C2337 0.950 . S
C2308 H2290 0.951 . S
C2308 C2309 1.366 . S
C2308 C2310 1.388 . S
C2309 C2308 1.366 . S
C2309 C2313 1.385 . S
C2310 H2291 0.951 . S
C2310 C2308 1.388 . S
C2310 C2311 1.366 . S
C2311 C2310 1.366 . S
C2311 C2312 1.414 . S
C2311 C2314 1.499 . S
C2312 H2292 0.950 . S
C2312 C2311 1.414 . S
C2312 C2313 1.374 . S
C2313 H2293 0.950 . S
C2313 C2309 1.385 . S
C2313 C2312 1.374 . S
C2314 C2311 1.499 . S
C2314 C2315 1.373 . S
C2314 C2316 1.389 . S
C2315 H2294 0.950 . S
C2315 C2314 1.373 . S
C2315 C2331 1.377 . S
C2316 C2314 1.389 . S
C2316 C2317 1.524 . S
C2316 C2330 1.377 . S
C2317 C2316 1.524 . S
C2317 C2318 1.397 . S
C2317 C2322 1.363 . S
C2318 H2295 0.950 . S
C2318 C2317 1.397 . S
C2318 C2319 1.334 . S
C2319 H2296 0.950 . S
C2319 C2318 1.334 . S
C2319 C2320 1.287 . S
C2320 C2319 1.287 . S
C2320 C2321 1.524 . S
C2320 H2339 0.913 . S
C2321 H2297 0.950 . S
C2321 C2320 1.524 . S
C2321 C2322 1.415 . S
C2322 H2298 0.950 . S
C2322 C2317 1.363 . S
C2322 C2321 1.415 . S
C2323 H2299 0.951 . S
C2323 C2324 1.366 . S
C2323 C2325 1.388 . S
C2324 C2323 1.366 . S
C2324 C2328 1.385 . S
C2325 H2300 0.951 . S
C2325 C2323 1.388 . S
C2325 C2326 1.366 . S
C2326 C2325 1.366 . S
C2326 C2327 1.414 . S
C2326 C2329 1.499 . S
C2327 H2301 0.950 . S
C2327 C2326 1.414 . S
C2327 C2328 1.374 . S
C2328 H2302 0.950 . S
C2328 C2324 1.385 . S
C2328 C2327 1.374 . S
C2329 C2326 1.499 . S
C2329 C2330 1.373 . S
C2329 C2331 1.389 . S
C2330 H2303 0.950 . S
C2330 C2316 1.377 . S
C2330 C2329 1.373 . S
C2331 C2315 1.377 . S
C2331 C2329 1.389 . S
C2331 C2332 1.524 . S
C2332 C2331 1.524 . S
C2332 C2333 1.397 . S
C2332 C2337 1.363 . S
C2333 H2304 0.950 . S
C2333 C2332 1.397 . S
C2333 C2334 1.334 . S
C2334 H2305 0.951 1_455 S
C2334 C2333 1.334 . S
C2334 C2335 1.287 1_455 S
C2335 C2334 1.287 1_655 S
C2335 C2336 1.524 1_655 S
C2335 H2338 0.999 . S
C2336 H2306 0.949 . S
C2336 C2335 1.524 1_455 S
C2336 C2337 1.415 . S
C2337 H2307 0.950 . S
C2337 C2332 1.363 . S
C2337 C2336 1.415 . S
H2338 C2335 0.999 . S
H2339 C2320 0.913 . S
H2340 C2358 0.951 . S
H2341 C2360 0.951 . S
H2342 C2362 0.950 . S
H2343 C2363 0.950 . S
H2344 C2365 0.950 . S
H2345 C2368 0.950 . S
H2346 C2369 0.950 . S
H2347 C2371 0.950 . S
H2348 C2372 0.950 . S
H2349 C2373 0.951 . S
H2350 C2375 0.951 . S
H2351 C2377 0.950 . S
H2352 C2378 0.950 . S
H2353 C2380 0.950 . S
H2354 C2383 0.950 . S
H2355 C2384 0.950 . S
H2356 C2386 0.950 . S
H2357 C2387 0.950 . S
C2358 H2340 0.951 . S
C2358 C2359 1.366 . S
C2358 C2360 1.388 . S
C2359 C2358 1.366 . S
C2359 C2363 1.385 . S
C2360 H2341 0.951 . S
C2360 C2358 1.388 . S
C2360 C2361 1.366 1_554 S
C2361 C2360 1.366 1_556 S
C2361 C2362 1.414 . S
C2361 C2364 1.499 . S
C2362 H2342 0.950 . S
C2362 C2361 1.414 . S
C2362 C2363 1.374 1_556 S
C2363 H2343 0.950 . S
C2363 C2359 1.385 . S
C2363 C2362 1.374 1_554 S
C2364 C2361 1.499 . S
C2364 C2365 1.373 . S
C2364 C2366 1.389 . S
C2365 H2344 0.950 . S
C2365 C2364 1.373 . S
C2365 C2381 1.377 . S
C2366 C2364 1.389 . S
C2366 C2367 1.524 . S
C2366 C2380 1.377 . S
C2367 C2366 1.524 . S
C2367 C2368 1.397 . S
C2367 C2372 1.363 . S
C2368 H2345 0.950 . S
C2368 C2367 1.397 . S
C2368 C2369 1.334 . S
C2369 H2346 0.950 . S
C2369 C2368 1.334 . S
C2369 C2370 1.287 . S
C2370 C2369 1.287 . S
C2370 C2371 1.524 . S
C2370 H2389 0.913 1_556 S
C2371 H2347 0.950 . S
C2371 C2370 1.524 . S
C2371 C2372 1.415 . S
C2372 H2348 0.950 . S
C2372 C2367 1.363 . S
C2372 C2371 1.415 . S
C2373 H2349 0.951 . S
C2373 C2374 1.366 . S
C2373 C2375 1.388 . S
C2374 C2373 1.366 . S
C2374 C2378 1.385 . S
C2375 H2350 0.951 . S
C2375 C2373 1.388 . S
C2375 C2376 1.366 . S
C2376 C2375 1.366 . S
C2376 C2377 1.414 . S
C2376 C2379 1.499 . S
C2377 H2351 0.950 . S
C2377 C2376 1.414 . S
C2377 C2378 1.374 . S
C2378 H2352 0.950 . S
C2378 C2374 1.385 . S
C2378 C2377 1.374 . S
C2379 C2376 1.499 . S
C2379 C2380 1.373 . S
C2379 C2381 1.389 . S
C2380 H2353 0.950 . S
C2380 C2366 1.377 . S
C2380 C2379 1.373 . S
C2381 C2365 1.377 . S
C2381 C2379 1.389 . S
C2381 C2382 1.524 . S
C2382 C2381 1.524 . S
C2382 C2383 1.397 . S
C2382 C2387 1.363 . S
C2383 H2354 0.950 . S
C2383 C2382 1.397 . S
C2383 C2384 1.334 . S
C2384 H2355 0.950 . S
C2384 C2383 1.334 . S
C2384 C2385 1.287 . S
C2385 C2384 1.287 . S
C2385 C2386 1.524 . S
C2385 H2388 0.999 . S
C2386 H2356 0.950 . S
C2386 C2385 1.524 . S
C2386 C2387 1.415 . S
C2387 H2357 0.950 . S
C2387 C2382 1.363 . S
C2387 C2386 1.415 . S
H2388 C2385 0.999 . S
H2389 C2370 0.913 1_554 S
H2390 C2408 0.951 . S
H2391 C2410 0.951 . S
H2392 C2412 0.950 . S
H2393 C2413 0.950 . S
H2394 C2415 0.950 . S
H2395 C2418 0.950 . S
H2396 C2419 0.950 . S
H2397 C2421 0.950 . S
H2398 C2422 0.950 . S
H2399 C2423 0.951 . S
H2400 C2425 0.951 . S
H2401 C2427 0.950 . S
H2402 C2428 0.950 . S
H2403 C2430 0.950 . S
H2404 C2433 0.950 . S
H2405 C2434 0.950 . S
H2406 C2436 0.950 . S
H2407 C2437 0.950 . S
C2408 H2390 0.951 . S
C2408 C2409 1.366 . S
C2408 C2410 1.388 . S
C2409 C2408 1.366 . S
C2409 C2413 1.385 . S
C2410 H2391 0.951 . S
C2410 C2408 1.388 . S
C2410 C2411 1.366 . S
C2411 C2410 1.366 . S
C2411 C2412 1.414 . S
C2411 C2414 1.499 . S
C2412 H2392 0.950 . S
C2412 C2411 1.414 . S
C2412 C2413 1.374 . S
C2413 H2393 0.950 . S
C2413 C2409 1.385 . S
C2413 C2412 1.374 . S
C2414 C2411 1.499 . S
C2414 C2415 1.373 . S
C2414 C2416 1.389 . S
C2415 H2394 0.950 . S
C2415 C2414 1.373 . S
C2415 C2431 1.377 . S
C2416 C2414 1.389 . S
C2416 C2417 1.524 . S
C2416 C2430 1.377 . S
C2417 C2416 1.524 . S
C2417 C2418 1.397 . S
C2417 C2422 1.363 . S
C2418 H2395 0.950 . S
C2418 C2417 1.397 . S
C2418 C2419 1.334 . S
C2419 H2396 0.950 . S
C2419 C2418 1.334 . S
C2419 C2420 1.287 . S
C2420 C2419 1.287 . S
C2420 C2421 1.524 . S
C2420 H2439 0.913 . S
C2421 H2397 0.950 . S
C2421 C2420 1.524 . S
C2421 C2422 1.415 . S
C2422 H2398 0.950 . S
C2422 C2417 1.363 . S
C2422 C2421 1.415 . S
C2423 H2399 0.951 . S
C2423 C2424 1.366 . S
C2423 C2425 1.388 . S
C2424 C2423 1.366 . S
C2424 C2428 1.385 . S
C2425 H2400 0.951 . S
C2425 C2423 1.388 . S
C2425 C2426 1.366 . S
C2426 C2425 1.366 . S
C2426 C2427 1.414 . S
C2426 C2429 1.499 . S
C2427 H2401 0.950 . S
C2427 C2426 1.414 . S
C2427 C2428 1.374 . S
C2428 H2402 0.950 . S
C2428 C2424 1.385 . S
C2428 C2427 1.374 . S
C2429 C2426 1.499 . S
C2429 C2430 1.373 . S
C2429 C2431 1.389 . S
C2430 H2403 0.950 . S
C2430 C2416 1.377 . S
C2430 C2429 1.373 . S
C2431 C2415 1.377 . S
C2431 C2429 1.389 . S
C2431 C2432 1.524 . S
C2432 C2431 1.524 . S
C2432 C2433 1.397 . S
C2432 C2437 1.363 . S
C2433 H2404 0.950 . S
C2433 C2432 1.397 . S
C2433 C2434 1.334 . S
C2434 H2405 0.950 . S
C2434 C2433 1.334 . S
C2434 C2435 1.287 . S
C2435 C2434 1.287 . S
C2435 C2436 1.524 . S
C2435 H2438 0.999 . S
C2436 H2406 0.950 . S
C2436 C2435 1.524 . S
C2436 C2437 1.415 . S
C2437 H2407 0.950 . S
C2437 C2432 1.363 . S
C2437 C2436 1.415 . S
H2438 C2435 0.999 . S
H2439 C2420 0.913 . S
H2440 C2458 0.951 . S
H2441 C2460 0.951 . S
H2442 C2462 0.950 . S
H2443 C2463 0.950 . S
H2444 C2465 0.950 . S
H2445 C2468 0.950 . S
H2446 C2469 0.950 . S
H2447 C2471 0.950 . S
H2448 C2472 0.950 . S
H2449 C2473 0.951 . S
H2450 C2475 0.951 . S
H2451 C2477 0.950 . S
H2452 C2478 0.950 . S
H2453 C2480 0.950 . S
H2454 C2483 0.950 . S
H2455 C2484 0.950 . S
H2456 C2486 0.950 . S
H2457 C2487 0.950 . S
C2458 H2440 0.951 . S
C2458 C2459 1.366 . S
C2458 C2460 1.388 . S
C2459 C2458 1.366 . S
C2459 C2463 1.385 . S
C2460 H2441 0.951 . S
C2460 C2458 1.388 . S
C2460 C2461 1.366 . S
C2461 C2460 1.366 . S
C2461 C2462 1.414 . S
C2461 C2464 1.499 . S
C2462 H2442 0.950 . S
C2462 C2461 1.414 . S
C2462 C2463 1.374 . S
C2463 H2443 0.950 . S
C2463 C2459 1.385 . S
C2463 C2462 1.374 . S
C2464 C2461 1.499 . S
C2464 C2465 1.373 . S
C2464 C2466 1.389 . S
C2465 H2444 0.950 . S
C2465 C2464 1.373 . S
C2465 C2481 1.377 . S
C2466 C2464 1.389 . S
C2466 C2467 1.524 . S
C2466 C2480 1.377 . S
C2467 C2466 1.524 . S
C2467 C2468 1.397 . S
C2467 C2472 1.363 . S
C2468 H2445 0.950 . S
C2468 C2467 1.397 . S
C2468 C2469 1.334 . S
C2469 H2446 0.950 . S
C2469 C2468 1.334 . S
C2469 C2470 1.287 . S
C2470 C2469 1.287 . S
C2470 C2471 1.524 . S
C2470 H2489 0.913 . S
C2471 H2447 0.950 . S
C2471 C2470 1.524 . S
C2471 C2472 1.415 . S
C2472 H2448 0.950 . S
C2472 C2467 1.363 . S
C2472 C2471 1.415 . S
C2473 H2449 0.951 . S
C2473 C2474 1.366 . S
C2473 C2475 1.388 . S
C2474 C2473 1.366 . S
C2474 C2478 1.385 . S
C2475 H2450 0.951 . S
C2475 C2473 1.388 . S
C2475 C2476 1.366 . S
C2476 C2475 1.366 . S
C2476 C2477 1.414 . S
C2476 C2479 1.499 . S
C2477 H2451 0.950 . S
C2477 C2476 1.414 . S
C2477 C2478 1.374 . S
C2478 H2452 0.950 . S
C2478 C2474 1.385 . S
C2478 C2477 1.374 . S
C2479 C2476 1.499 . S
C2479 C2480 1.373 . S
C2479 C2481 1.389 . S
C2480 H2453 0.950 . S
C2480 C2466 1.377 . S
C2480 C2479 1.373 . S
C2481 C2465 1.377 . S
C2481 C2479 1.389 . S
C2481 C2482 1.524 . S
C2482 C2481 1.524 . S
C2482 C2483 1.397 . S
C2482 C2487 1.363 . S
C2483 H2454 0.950 . S
C2483 C2482 1.397 . S
C2483 C2484 1.334 . S
C2484 H2455 0.950 . S
C2484 C2483 1.334 . S
C2484 C2485 1.287 . S
C2485 C2484 1.287 . S
C2485 C2486 1.524 . S
C2485 H2488 0.999 . S
C2486 H2456 0.950 . S
C2486 C2485 1.524 . S
C2486 C2487 1.415 . S
C2487 H2457 0.950 . S
C2487 C2482 1.363 . S
C2487 C2486 1.415 . S
H2488 C2485 0.999 . S
H2489 C2470 0.913 . S
H2490 C2508 0.951 . S
H2491 C2510 0.951 . S
H2492 C2512 0.950 . S
H2493 C2513 0.950 . S
H2494 C2515 0.950 . S
H2495 C2518 0.950 . S
H2496 C2519 0.950 . S
H2497 C2521 0.944 1_455 S
H2498 C2522 0.950 . S
H2499 C2523 0.951 . S
H2500 C2525 0.951 . S
H2501 C2527 0.950 . S
H2502 C2528 0.950 . S
H2503 C2530 0.950 . S
H2504 C2533 0.950 . S
H2505 C2534 0.950 . S
H2506 C2536 0.950 . S
H2507 C2537 0.950 . S
C2508 H2490 0.951 . S
C2508 C2509 1.366 . S
C2508 C2510 1.388 . S
C2509 C2508 1.366 . S
C2509 C2513 1.385 . S
C2510 H2491 0.951 . S
C2510 C2508 1.388 . S
C2510 C2511 1.366 . S
C2511 C2510 1.366 . S
C2511 C2512 1.414 . S
C2511 C2514 1.499 . S
C2512 H2492 0.950 . S
C2512 C2511 1.414 . S
C2512 C2513 1.374 . S
C2513 H2493 0.950 . S
C2513 C2509 1.385 . S
C2513 C2512 1.374 . S
C2514 C2511 1.499 . S
C2514 C2515 1.373 . S
C2514 C2516 1.389 . S
C2515 H2494 0.950 . S
C2515 C2514 1.373 . S
C2515 C2531 1.377 . S
C2516 C2514 1.389 . S
C2516 C2517 1.524 . S
C2516 C2530 1.377 . S
C2517 C2516 1.524 . S
C2517 C2518 1.397 . S
C2517 C2522 1.363 . S
C2518 H2495 0.950 . S
C2518 C2517 1.397 . S
C2518 C2519 1.334 . S
C2519 H2496 0.950 . S
C2519 C2518 1.334 . S
C2519 C2520 1.287 . S
C2520 C2519 1.287 . S
C2520 C2521 1.524 . S
C2520 H2539 0.913 . S
C2521 H2497 0.944 1_655 S
C2521 C2520 1.524 . S
C2521 C2522 1.415 . S
C2522 H2498 0.950 . S
C2522 C2517 1.363 . S
C2522 C2521 1.415 . S
C2523 H2499 0.951 . S
C2523 C2524 1.366 . S
C2523 C2525 1.388 . S
C2524 C2523 1.366 . S
C2524 C2528 1.385 . S
C2525 H2500 0.951 . S
C2525 C2523 1.388 . S
C2525 C2526 1.366 . S
C2526 C2525 1.366 . S
C2526 C2527 1.414 . S
C2526 C2529 1.499 . S
C2527 H2501 0.950 . S
C2527 C2526 1.414 . S
C2527 C2528 1.374 . S
C2528 H2502 0.950 . S
C2528 C2524 1.385 . S
C2528 C2527 1.374 . S
C2529 C2526 1.499 . S
C2529 C2530 1.373 . S
C2529 C2531 1.389 . S
C2530 H2503 0.950 . S
C2530 C2516 1.377 . S
C2530 C2529 1.373 . S
C2531 C2515 1.377 . S
C2531 C2529 1.389 . S
C2531 C2532 1.524 . S
C2532 C2531 1.524 . S
C2532 C2533 1.397 . S
C2532 C2537 1.363 . S
C2533 H2504 0.950 . S
C2533 C2532 1.397 . S
C2533 C2534 1.334 . S
C2534 H2505 0.950 . S
C2534 C2533 1.334 . S
C2534 C2535 1.287 . S
C2535 C2534 1.287 . S
C2535 C2536 1.524 . S
C2535 H2538 0.999 . S
C2536 H2506 0.950 . S
C2536 C2535 1.524 . S
C2536 C2537 1.415 . S
C2537 H2507 0.950 . S
C2537 C2532 1.363 . S
C2537 C2536 1.415 . S
H2538 C2535 0.999 . S
H2539 C2520 0.913 . S
H2540 C2558 0.951 . S
H2541 C2560 0.951 . S
H2542 C2562 0.950 . S
H2543 C2563 0.950 . S
H2544 C2565 0.950 . S
H2545 C2568 0.950 . S
H2546 C2569 0.950 . S
H2547 C2571 0.950 1_556 S
H2548 C2572 0.950 . S
H2549 C2573 0.951 . S
H2550 C2575 0.951 . S
H2551 C2577 0.950 . S
H2552 C2578 0.950 . S
H2553 C2580 0.950 . S
H2554 C2583 0.950 . S
H2555 C2584 0.950 . S
H2556 C2586 0.950 . S
H2557 C2587 0.950 . S
C2558 H2540 0.951 . S
C2558 C2559 1.366 . S
C2558 C2560 1.388 . S
C2559 C2558 1.366 . S
C2559 C2563 1.385 . S
C2560 H2541 0.951 . S
C2560 C2558 1.388 . S
C2560 C2561 1.366 1_556 S
C2561 C2560 1.366 1_554 S
C2561 C2562 1.414 . S
C2561 C2564 1.499 . S
C2562 H2542 0.950 . S
C2562 C2561 1.414 . S
C2562 C2563 1.374 1_554 S
C2563 H2543 0.950 . S
C2563 C2559 1.385 . S
C2563 C2562 1.374 1_556 S
C2564 C2561 1.499 . S
C2564 C2565 1.373 . S
C2564 C2566 1.389 . S
C2565 H2544 0.950 . S
C2565 C2564 1.373 . S
C2565 C2581 1.377 . S
C2566 C2564 1.389 . S
C2566 C2567 1.524 . S
C2566 C2580 1.377 . S
C2567 C2566 1.524 . S
C2567 C2568 1.397 . S
C2567 C2572 1.363 . S
C2568 H2545 0.950 . S
C2568 C2567 1.397 . S
C2568 C2569 1.334 . S
C2569 H2546 0.950 . S
C2569 C2568 1.334 . S
C2569 C2570 1.287 . S
C2570 C2569 1.287 . S
C2570 C2571 1.524 . S
C2570 H2589 0.913 1_554 S
C2571 H2547 0.950 1_554 S
C2571 C2570 1.524 . S
C2571 C2572 1.415 . S
C2572 H2548 0.950 . S
C2572 C2567 1.363 . S
C2572 C2571 1.415 . S
C2573 H2549 0.951 . S
C2573 C2574 1.366 . S
C2573 C2575 1.388 . S
C2574 C2573 1.366 . S
C2574 C2578 1.385 . S
C2575 H2550 0.951 . S
C2575 C2573 1.388 . S
C2575 C2576 1.366 . S
C2576 C2575 1.366 . S
C2576 C2577 1.414 . S
C2576 C2579 1.499 . S
C2577 H2551 0.950 . S
C2577 C2576 1.414 . S
C2577 C2578 1.374 . S
C2578 H2552 0.950 . S
C2578 C2574 1.385 . S
C2578 C2577 1.374 . S
C2579 C2576 1.499 . S
C2579 C2580 1.373 . S
C2579 C2581 1.389 . S
C2580 H2553 0.950 . S
C2580 C2566 1.377 . S
C2580 C2579 1.373 . S
C2581 C2565 1.377 . S
C2581 C2579 1.389 . S
C2581 C2582 1.524 . S
C2582 C2581 1.524 . S
C2582 C2583 1.397 . S
C2582 C2587 1.363 . S
C2583 H2554 0.950 . S
C2583 C2582 1.397 . S
C2583 C2584 1.334 . S
C2584 H2555 0.950 . S
C2584 C2583 1.334 . S
C2584 C2585 1.287 . S
C2585 C2584 1.287 . S
C2585 C2586 1.524 . S
C2585 H2588 0.999 . S
C2586 H2556 0.950 . S
C2586 C2585 1.524 . S
C2586 C2587 1.415 . S
C2587 H2557 0.950 . S
C2587 C2582 1.363 . S
C2587 C2586 1.415 . S
H2588 C2585 0.999 . S
H2589 C2570 0.913 1_556 S
H2590 C2608 0.951 . S
H2591 C2610 0.951 . S
H2592 C2612 0.950 . S
H2593 C2613 0.950 . S
H2594 C2615 0.950 . S
H2595 C2618 0.950 . S
H2596 C2619 0.950 . S
H2597 C2621 0.950 . S
H2598 C2622 0.950 . S
H2599 C2623 0.951 . S
H2600 C2625 0.951 . S
H2601 C2627 0.950 . S
H2602 C2628 0.950 . S
H2603 C2630 0.950 . S
H2604 C2633 0.950 . S
H2605 C2634 0.950 . S
H2606 C2636 0.950 . S
H2607 C2637 0.950 . S
C2608 H2590 0.951 . S
C2608 C2609 1.366 . S
C2608 C2610 1.388 . S
C2609 C2608 1.366 . S
C2609 C2613 1.385 . S
C2610 H2591 0.951 . S
C2610 C2608 1.388 . S
C2610 C2611 1.366 . S
C2611 C2610 1.366 . S
C2611 C2612 1.414 . S
C2611 C2614 1.499 . S
C2612 H2592 0.950 . S
C2612 C2611 1.414 . S
C2612 C2613 1.374 . S
C2613 H2593 0.950 . S
C2613 C2609 1.385 . S
C2613 C2612 1.374 . S
C2614 C2611 1.499 . S
C2614 C2615 1.373 . S
C2614 C2616 1.389 . S
C2615 H2594 0.950 . S
C2615 C2614 1.373 . S
C2615 C2631 1.377 . S
C2616 C2614 1.389 . S
C2616 C2617 1.524 . S
C2616 C2630 1.377 . S
C2617 C2616 1.524 . S
C2617 C2618 1.397 . S
C2617 C2622 1.363 . S
C2618 H2595 0.950 . S
C2618 C2617 1.397 . S
C2618 C2619 1.334 . S
C2619 H2596 0.950 . S
C2619 C2618 1.334 . S
C2619 C2620 1.287 . S
C2620 C2619 1.287 . S
C2620 C2621 1.524 . S
C2620 H2639 0.913 . S
C2621 H2597 0.950 . S
C2621 C2620 1.524 . S
C2621 C2622 1.415 . S
C2622 H2598 0.950 . S
C2622 C2617 1.363 . S
C2622 C2621 1.415 . S
C2623 H2599 0.951 . S
C2623 C2624 1.366 . S
C2623 C2625 1.388 . S
C2624 C2623 1.366 . S
C2624 C2628 1.385 . S
C2625 H2600 0.951 . S
C2625 C2623 1.388 . S
C2625 C2626 1.366 . S
C2626 C2625 1.366 . S
C2626 C2627 1.414 . S
C2626 C2629 1.499 . S
C2627 H2601 0.950 . S
C2627 C2626 1.414 . S
C2627 C2628 1.374 . S
C2628 H2602 0.950 . S
C2628 C2624 1.385 . S
C2628 C2627 1.374 . S
C2629 C2626 1.499 . S
C2629 C2630 1.373 . S
C2629 C2631 1.389 . S
C2630 H2603 0.950 . S
C2630 C2616 1.377 . S
C2630 C2629 1.373 . S
C2631 C2615 1.377 . S
C2631 C2629 1.389 . S
C2631 C2632 1.524 . S
C2632 C2631 1.524 . S
C2632 C2633 1.397 . S
C2632 C2637 1.363 . S
C2633 H2604 0.950 . S
C2633 C2632 1.397 . S
C2633 C2634 1.334 . S
C2634 H2605 0.950 . S
C2634 C2633 1.334 . S
C2634 C2635 1.287 . S
C2635 C2634 1.287 . S
C2635 C2636 1.524 . S
C2635 H2638 0.999 . S
C2636 H2606 0.950 . S
C2636 C2635 1.524 . S
C2636 C2637 1.415 . S
C2637 H2607 0.950 . S
C2637 C2632 1.363 . S
C2637 C2636 1.415 . S
H2638 C2635 0.999 . S
H2639 C2620 0.913 . S
H2640 C2658 0.951 . S
H2641 C2660 0.951 . S
H2642 C2662 0.950 . S
H2643 C2663 0.950 . S
H2644 C2665 0.950 . S
H2645 C2668 0.950 . S
H2646 C2669 0.950 . S
H2647 C2671 0.950 . S
H2648 C2672 0.950 . S
H2649 C2673 0.951 . S
H2650 C2675 0.951 . S
H2651 C2677 0.950 . S
H2652 C2678 0.950 . S
H2653 C2680 0.950 . S
H2654 C2683 0.950 1_556 S
H2655 C2684 0.950 . S
H2656 C2686 0.950 . S
H2657 C2687 0.950 . S
C2658 H2640 0.951 . S
C2658 C2659 1.366 . S
C2658 C2660 1.388 . S
C2659 C2658 1.366 . S
C2659 C2663 1.385 . S
C2660 H2641 0.951 . S
C2660 C2658 1.388 . S
C2660 C2661 1.366 . S
C2661 C2660 1.366 . S
C2661 C2662 1.414 . S
C2661 C2664 1.499 . S
C2662 H2642 0.950 . S
C2662 C2661 1.414 . S
C2662 C2663 1.374 . S
C2663 H2643 0.950 . S
C2663 C2659 1.385 . S
C2663 C2662 1.374 . S
C2664 C2661 1.499 . S
C2664 C2665 1.373 . S
C2664 C2666 1.389 . S
C2665 H2644 0.950 . S
C2665 C2664 1.373 . S
C2665 C2681 1.377 . S
C2666 C2664 1.389 . S
C2666 C2667 1.524 . S
C2666 C2680 1.377 . S
C2667 C2666 1.524 . S
C2667 C2668 1.397 . S
C2667 C2672 1.363 . S
C2668 H2645 0.950 . S
C2668 C2667 1.397 . S
C2668 C2669 1.334 . S
C2669 H2646 0.950 . S
C2669 C2668 1.334 . S
C2669 C2670 1.287 . S
C2670 C2669 1.287 . S
C2670 C2671 1.524 . S
C2670 H2689 0.913 . S
C2671 H2647 0.950 . S
C2671 C2670 1.524 . S
C2671 C2672 1.415 . S
C2672 H2648 0.950 . S
C2672 C2667 1.363 . S
C2672 C2671 1.415 . S
C2673 H2649 0.951 . S
C2673 C2674 1.366 . S
C2673 C2675 1.388 . S
C2674 C2673 1.366 . S
C2674 C2678 1.385 . S
C2675 H2650 0.951 . S
C2675 C2673 1.388 . S
C2675 C2676 1.366 1_554 S
C2676 C2675 1.366 1_556 S
C2676 C2677 1.414 . S
C2676 C2679 1.499 . S
C2677 H2651 0.950 . S
C2677 C2676 1.414 . S
C2677 C2678 1.374 1_556 S
C2678 H2652 0.950 . S
C2678 C2674 1.385 . S
C2678 C2677 1.374 1_554 S
C2679 C2676 1.499 . S
C2679 C2680 1.373 . S
C2679 C2681 1.389 . S
C2680 H2653 0.950 . S
C2680 C2666 1.377 . S
C2680 C2679 1.373 . S
C2681 C2665 1.377 . S
C2681 C2679 1.389 . S
C2681 C2682 1.524 . S
C2682 C2681 1.524 . S
C2682 C2683 1.397 1_556 S
C2682 C2687 1.363 . S
C2683 H2654 0.950 1_554 S
C2683 C2682 1.397 1_554 S
C2683 C2684 1.334 . S
C2684 H2655 0.950 . S
C2684 C2683 1.334 . S
C2684 C2685 1.287 . S
C2685 C2684 1.287 . S
C2685 C2686 1.524 . S
C2685 H2688 0.999 . S
C2686 H2656 0.950 . S
C2686 C2685 1.524 . S
C2686 C2687 1.415 1_554 S
C2687 H2657 0.950 . S
C2687 C2682 1.363 . S
C2687 C2686 1.415 1_556 S
H2688 C2685 0.999 . S
H2689 C2670 0.913 . S
H2690 C2708 0.951 . S
H2691 C2710 0.951 . S
H2692 C2712 0.950 . S
H2693 C2713 0.950 . S
H2694 C2715 0.950 . S
H2695 C2718 0.950 . S
H2696 C2719 0.950 . S
H2697 C2721 0.950 . S
H2698 C2722 0.950 . S
H2699 C2723 0.951 . S
H2700 C2725 0.951 . S
H2701 C2727 0.950 . S
H2702 C2728 0.950 . S
H2703 C2730 0.950 . S
H2704 C2733 0.950 . S
H2705 C2734 0.950 . S
H2706 C2736 0.950 . S
H2707 C2737 0.950 . S
C2708 H2690 0.951 . S
C2708 C2709 1.366 . S
C2708 C2710 1.388 . S
C2709 C2708 1.366 . S
C2709 C2713 1.385 . S
C2710 H2691 0.951 . S
C2710 C2708 1.388 . S
C2710 C2711 1.366 . S
C2711 C2710 1.366 . S
C2711 C2712 1.414 . S
C2711 C2714 1.499 . S
C2712 H2692 0.950 . S
C2712 C2711 1.414 . S
C2712 C2713 1.374 . S
C2713 H2693 0.950 . S
C2713 C2709 1.385 . S
C2713 C2712 1.374 . S
C2714 C2711 1.499 . S
C2714 C2715 1.373 . S
C2714 C2716 1.389 . S
C2715 H2694 0.950 . S
C2715 C2714 1.373 . S
C2715 C2731 1.377 . S
C2716 C2714 1.389 . S
C2716 C2717 1.524 . S
C2716 C2730 1.377 . S
C2717 C2716 1.524 . S
C2717 C2718 1.397 . S
C2717 C2722 1.363 . S
C2718 H2695 0.950 . S
C2718 C2717 1.397 . S
C2718 C2719 1.334 . S
C2719 H2696 0.950 . S
C2719 C2718 1.334 . S
C2719 C2720 1.287 . S
C2720 C2719 1.287 . S
C2720 C2721 1.524 . S
C2720 H2739 0.913 . S
C2721 H2697 0.950 . S
C2721 C2720 1.524 . S
C2721 C2722 1.415 . S
C2722 H2698 0.950 . S
C2722 C2717 1.363 . S
C2722 C2721 1.415 . S
C2723 H2699 0.951 . S
C2723 C2724 1.366 . S
C2723 C2725 1.388 . S
C2724 C2723 1.366 . S
C2724 C2728 1.385 . S
C2725 H2700 0.951 . S
C2725 C2723 1.388 . S
C2725 C2726 1.366 . S
C2726 C2725 1.366 . S
C2726 C2727 1.414 . S
C2726 C2729 1.499 . S
C2727 H2701 0.950 . S
C2727 C2726 1.414 . S
C2727 C2728 1.374 . S
C2728 H2702 0.950 . S
C2728 C2724 1.385 . S
C2728 C2727 1.374 . S
C2729 C2726 1.499 . S
C2729 C2730 1.373 . S
C2729 C2731 1.389 . S
C2730 H2703 0.950 . S
C2730 C2716 1.377 . S
C2730 C2729 1.373 . S
C2731 C2715 1.377 . S
C2731 C2729 1.389 . S
C2731 C2732 1.524 . S
C2732 C2731 1.524 . S
C2732 C2733 1.397 . S
C2732 C2737 1.363 . S
C2733 H2704 0.950 . S
C2733 C2732 1.397 . S
C2733 C2734 1.334 . S
C2734 H2705 0.950 . S
C2734 C2733 1.334 . S
C2734 C2735 1.287 . S
C2735 C2734 1.287 . S
C2735 C2736 1.524 . S
C2735 H2738 0.999 . S
C2736 H2706 0.950 . S
C2736 C2735 1.524 . S
C2736 C2737 1.415 . S
C2737 H2707 0.950 . S
C2737 C2732 1.363 . S
C2737 C2736 1.415 . S
H2738 C2735 0.999 . S
H2739 C2720 0.913 . S
H2740 C2758 0.951 . S
H2741 C2760 0.951 . S
H2742 C2762 0.950 . S
H2743 C2763 0.950 . S
H2744 C2765 0.950 . S
H2745 C2768 0.950 . S
H2746 C2769 0.950 . S
H2747 C2771 0.950 . S
H2748 C2772 0.950 . S
H2749 C2773 0.951 . S
H2750 C2775 0.951 . S
H2751 C2777 0.950 . S
H2752 C2778 0.950 . S
H2753 C2780 0.950 . S
H2754 C2783 0.950 . S
H2755 C2784 0.950 . S
H2756 C2786 0.950 . S
H2757 C2787 0.950 . S
C2758 H2740 0.951 . S
C2758 C2759 1.366 . S
C2758 C2760 1.388 . S
C2759 C2758 1.366 . S
C2759 C2763 1.385 . S
C2760 H2741 0.951 . S
C2760 C2758 1.388 . S
C2760 C2761 1.366 . S
C2761 C2760 1.366 . S
C2761 C2762 1.414 . S
C2761 C2764 1.499 . S
C2762 H2742 0.950 . S
C2762 C2761 1.414 . S
C2762 C2763 1.374 . S
C2763 H2743 0.950 . S
C2763 C2759 1.385 . S
C2763 C2762 1.374 . S
C2764 C2761 1.499 . S
C2764 C2765 1.373 . S
C2764 C2766 1.389 . S
C2765 H2744 0.950 . S
C2765 C2764 1.373 . S
C2765 C2781 1.377 . S
C2766 C2764 1.389 . S
C2766 C2767 1.524 . S
C2766 C2780 1.377 . S
C2767 C2766 1.524 . S
C2767 C2768 1.397 . S
C2767 C2772 1.363 . S
C2768 H2745 0.950 . S
C2768 C2767 1.397 . S
C2768 C2769 1.334 . S
C2769 H2746 0.950 . S
C2769 C2768 1.334 . S
C2769 C2770 1.287 . S
C2770 C2769 1.287 . S
C2770 C2771 1.524 . S
C2770 H2789 0.913 . S
C2771 H2747 0.950 . S
C2771 C2770 1.524 . S
C2771 C2772 1.415 . S
C2772 H2748 0.950 . S
C2772 C2767 1.363 . S
C2772 C2771 1.415 . S
C2773 H2749 0.951 . S
C2773 C2774 1.366 . S
C2773 C2775 1.388 . S
C2774 C2773 1.366 . S
C2774 C2778 1.385 . S
C2775 H2750 0.951 . S
C2775 C2773 1.388 . S
C2775 C2776 1.366 . S
C2776 C2775 1.366 . S
C2776 C2777 1.414 . S
C2776 C2779 1.499 . S
C2777 H2751 0.950 . S
C2777 C2776 1.414 . S
C2777 C2778 1.374 . S
C2778 H2752 0.950 . S
C2778 C2774 1.385 . S
C2778 C2777 1.374 . S
C2779 C2776 1.499 . S
C2779 C2780 1.373 . S
C2779 C2781 1.389 . S
C2780 H2753 0.950 . S
C2780 C2766 1.377 . S
C2780 C2779 1.373 . S
C2781 C2765 1.377 . S
C2781 C2779 1.389 . S
C2781 C2782 1.524 . S
C2782 C2781 1.524 . S
C2782 C2783 1.397 . S
C2782 C2787 1.363 . S
C2783 H2754 0.950 . S
C2783 C2782 1.397 . S
C2783 C2784 1.334 . S
C2784 H2755 0.950 . S
C2784 C2783 1.334 . S
C2784 C2785 1.287 . S
C2785 C2784 1.287 . S
C2785 C2786 1.524 . S
C2785 H2788 0.999 . S
C2786 H2756 0.950 . S
C2786 C2785 1.524 . S
C2786 C2787 1.415 . S
C2787 H2757 0.950 . S
C2787 C2782 1.363 . S
C2787 C2786 1.415 . S
H2788 C2785 0.999 . S
H2789 C2770 0.913 . S
H2790 C2808 0.951 . S
H2791 C2810 0.951 . S
H2792 C2812 0.950 . S
H2793 C2813 0.950 . S
H2794 C2815 0.950 . S
H2795 C2818 0.950 . S
H2796 C2819 0.950 . S
H2797 C2821 0.950 . S
H2798 C2822 0.950 . S
H2799 C2823 0.951 . S
H2800 C2825 0.951 . S
H2801 C2827 0.950 . S
H2802 C2828 0.950 . S
H2803 C2830 0.950 . S
H2804 C2833 0.950 . S
H2805 C2834 0.950 . S
H2806 C2836 0.950 . S
H2807 C2837 0.950 . S
C2808 H2790 0.951 . S
C2808 C2809 1.366 . S
C2808 C2810 1.388 . S
C2809 C2808 1.366 . S
C2809 C2813 1.385 . S
C2810 H2791 0.951 . S
C2810 C2808 1.388 . S
C2810 C2811 1.366 . S
C2811 C2810 1.366 . S
C2811 C2812 1.414 . S
C2811 C2814 1.499 . S
C2812 H2792 0.950 . S
C2812 C2811 1.414 . S
C2812 C2813 1.374 . S
C2813 H2793 0.950 . S
C2813 C2809 1.385 . S
C2813 C2812 1.374 . S
C2814 C2811 1.499 . S
C2814 C2815 1.373 . S
C2814 C2816 1.389 . S
C2815 H2794 0.950 . S
C2815 C2814 1.373 . S
C2815 C2831 1.377 . S
C2816 C2814 1.389 . S
C2816 C2817 1.524 . S
C2816 C2830 1.377 . S
C2817 C2816 1.524 . S
C2817 C2818 1.397 . S
C2817 C2822 1.363 . S
C2818 H2795 0.950 . S
C2818 C2817 1.397 . S
C2818 C2819 1.334 . S
C2819 H2796 0.950 . S
C2819 C2818 1.334 . S
C2819 C2820 1.287 1_655 S
C2820 C2819 1.287 1_455 S
C2820 C2821 1.524 . S
C2820 H2839 0.913 . S
C2821 H2797 0.950 . S
C2821 C2820 1.524 . S
C2821 C2822 1.415 1_455 S
C2822 H2798 0.950 . S
C2822 C2817 1.363 . S
C2822 C2821 1.415 1_655 S
C2823 H2799 0.951 . S
C2823 C2824 1.366 . S
C2823 C2825 1.388 . S
C2824 C2823 1.366 . S
C2824 C2828 1.385 . S
C2825 H2800 0.951 . S
C2825 C2823 1.388 . S
C2825 C2826 1.366 . S
C2826 C2825 1.366 . S
C2826 C2827 1.414 . S
C2826 C2829 1.499 . S
C2827 H2801 0.950 . S
C2827 C2826 1.414 . S
C2827 C2828 1.374 . S
C2828 H2802 0.950 . S
C2828 C2824 1.385 . S
C2828 C2827 1.374 . S
C2829 C2826 1.499 . S
C2829 C2830 1.373 . S
C2829 C2831 1.389 . S
C2830 H2803 0.950 . S
C2830 C2816 1.377 . S
C2830 C2829 1.373 . S
C2831 C2815 1.377 . S
C2831 C2829 1.389 . S
C2831 C2832 1.524 . S
C2832 C2831 1.524 . S
C2832 C2833 1.397 . S
C2832 C2837 1.363 . S
C2833 H2804 0.950 . S
C2833 C2832 1.397 . S
C2833 C2834 1.334 . S
C2834 H2805 0.950 . S
C2834 C2833 1.334 . S
C2834 C2835 1.287 . S
C2835 C2834 1.287 . S
C2835 C2836 1.524 . S
C2835 H2838 0.999 . S
C2836 H2806 0.950 . S
C2836 C2835 1.524 . S
C2836 C2837 1.415 . S
C2837 H2807 0.950 . S
C2837 C2832 1.363 . S
C2837 C2836 1.415 . S
H2838 C2835 0.999 . S
H2839 C2820 0.913 . S
H2840 C2858 0.951 . S
H2841 C2860 0.951 . S
H2842 C2862 0.950 . S
H2843 C2863 0.950 . S
H2844 C2865 0.950 . S
H2845 C2868 0.950 . S
H2846 C2869 0.950 . S
H2847 C2871 0.950 . S
H2848 C2872 0.950 . S
H2849 C2873 0.951 . S
H2850 C2875 0.951 . S
H2851 C2877 0.950 . S
H2852 C2878 0.950 . S
H2853 C2880 0.950 . S
H2854 C2883 0.941 1_556 S
H2855 C2884 0.950 . S
H2856 C2886 0.950 . S
H2857 C2887 0.950 . S
C2858 H2840 0.951 . S
C2858 C2859 1.366 . S
C2858 C2860 1.388 . S
C2859 C2858 1.366 . S
C2859 C2863 1.385 . S
C2860 H2841 0.951 . S
C2860 C2858 1.388 . S
C2860 C2861 1.366 . S
C2861 C2860 1.366 . S
C2861 C2862 1.414 . S
C2861 C2864 1.499 . S
C2862 H2842 0.950 . S
C2862 C2861 1.414 . S
C2862 C2863 1.374 . S
C2863 H2843 0.950 . S
C2863 C2859 1.385 . S
C2863 C2862 1.374 . S
C2864 C2861 1.499 . S
C2864 C2865 1.373 . S
C2864 C2866 1.389 . S
C2865 H2844 0.950 . S
C2865 C2864 1.373 . S
C2865 C2881 1.377 . S
C2866 C2864 1.389 . S
C2866 C2867 1.524 . S
C2866 C2880 1.377 . S
C2867 C2866 1.524 . S
C2867 C2868 1.397 . S
C2867 C2872 1.363 . S
C2868 H2845 0.950 . S
C2868 C2867 1.397 . S
C2868 C2869 1.334 . S
C2869 H2846 0.950 . S
C2869 C2868 1.334 . S
C2869 C2870 1.287 . S
C2870 C2869 1.287 . S
C2870 C2871 1.524 . S
C2870 H2889 0.913 . S
C2871 H2847 0.950 . S
C2871 C2870 1.524 . S
C2871 C2872 1.415 . S
C2872 H2848 0.950 . S
C2872 C2867 1.363 . S
C2872 C2871 1.415 . S
C2873 H2849 0.951 . S
C2873 C2874 1.366 . S
C2873 C2875 1.388 1_556 S
C2874 C2873 1.366 . S
C2874 C2878 1.385 . S
C2875 H2850 0.951 . S
C2875 C2873 1.388 1_554 S
C2875 C2876 1.366 . S
C2876 C2875 1.366 . S
C2876 C2877 1.414 1_554 S
C2876 C2879 1.499 . S
C2877 H2851 0.950 . S
C2877 C2876 1.414 1_556 S
C2877 C2878 1.374 . S
C2878 H2852 0.950 . S
C2878 C2874 1.385 . S
C2878 C2877 1.374 . S
C2879 C2876 1.499 . S
C2879 C2880 1.373 . S
C2879 C2881 1.389 . S
C2880 H2853 0.950 . S
C2880 C2866 1.377 . S
C2880 C2879 1.373 . S
C2881 C2865 1.377 . S
C2881 C2879 1.389 . S
C2881 C2882 1.524 . S
C2882 C2881 1.524 . S
C2882 C2883 1.422 . S
C2882 C2887 1.363 . S
C2883 H2854 0.941 1_554 S
C2883 C2882 1.422 . S
C2883 C2884 1.318 1_554 S
C2884 H2855 0.950 . S
C2884 C2883 1.318 1_556 S
C2884 C2885 1.287 . S
C2885 C2884 1.287 . S
C2885 C2886 1.524 1_556 S
C2885 H2888 0.999 . S
C2886 H2856 0.950 . S
C2886 C2885 1.524 1_554 S
C2886 C2887 1.415 . S
C2887 H2857 0.950 . S
C2887 C2882 1.363 . S
C2887 C2886 1.415 . S
H2888 C2885 0.999 . S
H2889 C2870 0.913 . S
H2890 C2908 0.951 . S
H2891 C2910 0.951 . S
H2892 C2912 0.950 . S
H2893 C2913 0.950 . S
H2894 C2915 0.950 . S
H2895 C2918 0.950 . S
H2896 C2919 0.950 . S
H2897 C2921 0.950 . S
H2898 C2922 0.950 . S
H2899 C2923 0.951 . S
H2900 C2925 0.951 . S
H2901 C2927 0.950 . S
H2902 C2928 0.950 . S
H2903 C2930 0.950 . S
H2904 C2933 0.950 . S
H2905 C2934 0.950 . S
H2906 C2936 0.950 . S
H2907 C2937 0.950 . S
C2908 H2890 0.951 . S
C2908 C2909 1.366 . S
C2908 C2910 1.388 . S
C2909 C2908 1.366 . S
C2909 C2913 1.385 . S
C2910 H2891 0.951 . S
C2910 C2908 1.388 . S
C2910 C2911 1.366 . S
C2911 C2910 1.366 . S
C2911 C2912 1.414 . S
C2911 C2914 1.499 . S
C2912 H2892 0.950 . S
C2912 C2911 1.414 . S
C2912 C2913 1.374 . S
C2913 H2893 0.950 . S
C2913 C2909 1.385 . S
C2913 C2912 1.374 . S
C2914 C2911 1.499 . S
C2914 C2915 1.373 . S
C2914 C2916 1.389 . S
C2915 H2894 0.950 . S
C2915 C2914 1.373 . S
C2915 C2931 1.377 . S
C2916 C2914 1.389 . S
C2916 C2917 1.524 . S
C2916 C2930 1.377 . S
C2917 C2916 1.524 . S
C2917 C2918 1.397 . S
C2917 C2922 1.363 . S
C2918 H2895 0.950 . S
C2918 C2917 1.397 . S
C2918 C2919 1.334 . S
C2919 H2896 0.950 . S
C2919 C2918 1.334 . S
C2919 C2920 1.287 . S
C2920 C2919 1.287 . S
C2920 C2921 1.524 . S
C2920 H2939 0.913 . S
C2921 H2897 0.950 . S
C2921 C2920 1.524 . S
C2921 C2922 1.415 . S
C2922 H2898 0.950 . S
C2922 C2917 1.363 . S
C2922 C2921 1.415 . S
C2923 H2899 0.951 . S
C2923 C2924 1.366 . S
C2923 C2925 1.388 . S
C2924 C2923 1.366 . S
C2924 C2928 1.385 . S
C2925 H2900 0.951 . S
C2925 C2923 1.388 . S
C2925 C2926 1.366 . S
C2926 C2925 1.366 . S
C2926 C2927 1.414 . S
C2926 C2929 1.499 . S
C2927 H2901 0.950 . S
C2927 C2926 1.414 . S
C2927 C2928 1.374 . S
C2928 H2902 0.950 . S
C2928 C2924 1.385 . S
C2928 C2927 1.374 . S
C2929 C2926 1.499 . S
C2929 C2930 1.373 . S
C2929 C2931 1.389 . S
C2930 H2903 0.950 . S
C2930 C2916 1.377 . S
C2930 C2929 1.373 . S
C2931 C2915 1.377 . S
C2931 C2929 1.389 . S
C2931 C2932 1.524 . S
C2932 C2931 1.524 . S
C2932 C2933 1.397 . S
C2932 C2937 1.363 . S
C2933 H2904 0.950 . S
C2933 C2932 1.397 . S
C2933 C2934 1.334 . S
C2934 H2905 0.950 . S
C2934 C2933 1.334 . S
C2934 C2935 1.287 . S
C2935 C2934 1.287 . S
C2935 C2936 1.524 . S
C2935 H2938 0.999 . S
C2936 H2906 0.950 . S
C2936 C2935 1.524 . S
C2936 C2937 1.415 . S
C2937 H2907 0.950 . S
C2937 C2932 1.363 . S
C2937 C2936 1.415 . S
H2938 C2935 0.999 . S
H2939 C2920 0.913 . S
H2940 C2958 0.951 . S
H2941 C2960 0.951 . S
H2942 C2962 0.950 . S
H2943 C2963 0.950 . S
H2944 C2965 0.950 . S
H2945 C2968 0.950 . S
H2946 C2969 0.950 . S
H2947 C2971 0.950 . S
H2948 C2972 0.950 . S
H2949 C2973 0.951 . S
H2950 C2975 0.951 . S
H2951 C2977 0.950 . S
H2952 C2978 0.950 . S
H2953 C2980 0.950 . S
H2954 C2983 0.950 . S
H2955 C2984 0.950 . S
H2956 C2986 0.950 . S
H2957 C2987 0.950 . S
C2958 H2940 0.951 . S
C2958 C2959 1.366 . S
C2958 C2960 1.388 . S
C2959 C2958 1.366 . S
C2959 C2963 1.385 . S
C2960 H2941 0.951 . S
C2960 C2958 1.388 . S
C2960 C2961 1.366 . S
C2961 C2960 1.366 . S
C2961 C2962 1.414 . S
C2961 C2964 1.499 . S
C2962 H2942 0.950 . S
C2962 C2961 1.414 . S
C2962 C2963 1.374 . S
C2963 H2943 0.950 . S
C2963 C2959 1.385 . S
C2963 C2962 1.374 . S
C2964 C2961 1.499 . S
C2964 C2965 1.373 . S
C2964 C2966 1.389 . S
C2965 H2944 0.950 . S
C2965 C2964 1.373 . S
C2965 C2981 1.377 . S
C2966 C2964 1.389 . S
C2966 C2967 1.524 . S
C2966 C2980 1.377 . S
C2967 C2966 1.524 . S
C2967 C2968 1.397 . S
C2967 C2972 1.363 . S
C2968 H2945 0.950 . S
C2968 C2967 1.397 . S
C2968 C2969 1.334 . S
C2969 H2946 0.950 . S
C2969 C2968 1.334 . S
C2969 C2970 1.287 . S
C2970 C2969 1.287 . S
C2970 C2971 1.524 . S
C2970 H2989 0.913 . S
C2971 H2947 0.950 . S
C2971 C2970 1.524 . S
C2971 C2972 1.415 . S
C2972 H2948 0.950 . S
C2972 C2967 1.363 . S
C2972 C2971 1.415 . S
C2973 H2949 0.951 . S
C2973 C2974 1.366 . S
C2973 C2975 1.388 . S
C2974 C2973 1.366 . S
C2974 C2978 1.385 . S
C2975 H2950 0.951 . S
C2975 C2973 1.388 . S
C2975 C2976 1.366 . S
C2976 C2975 1.366 . S
C2976 C2977 1.414 . S
C2976 C2979 1.499 . S
C2977 H2951 0.950 . S
C2977 C2976 1.414 . S
C2977 C2978 1.374 . S
C2978 H2952 0.950 . S
C2978 C2974 1.385 . S
C2978 C2977 1.374 . S
C2979 C2976 1.499 . S
C2979 C2980 1.373 . S
C2979 C2981 1.389 . S
C2980 H2953 0.950 . S
C2980 C2966 1.377 . S
C2980 C2979 1.373 . S
C2981 C2965 1.377 . S
C2981 C2979 1.389 . S
C2981 C2982 1.524 . S
C2982 C2981 1.524 . S
C2982 C2983 1.397 . S
C2982 C2987 1.363 . S
C2983 H2954 0.950 . S
C2983 C2982 1.397 . S
C2983 C2984 1.334 . S
C2984 H2955 0.950 . S
C2984 C2983 1.334 . S
C2984 C2985 1.287 . S
C2985 C2984 1.287 . S
C2985 C2986 1.524 . S
C2985 H2988 0.999 . S
C2986 H2956 0.950 . S
C2986 C2985 1.524 . S
C2986 C2987 1.415 . S
C2987 H2957 0.950 . S
C2987 C2982 1.363 . S
C2987 C2986 1.415 . S
H2988 C2985 0.999 . S
H2989 C2970 0.913 . S
H2990 C3008 0.951 . S
H2991 C3010 0.951 . S
H2992 C3012 0.950 . S
H2993 C3013 0.950 . S
H2994 C3015 0.950 . S
H2995 C3018 0.950 . S
H2996 C3019 0.950 . S
H2997 C3021 0.950 . S
H2998 C3022 0.950 . S
H2999 C3023 0.951 . S
H3000 C3025 0.951 . S
H3001 C3027 0.950 . S
H3002 C3028 0.950 . S
H3003 C3030 0.950 . S
H3004 C3033 0.950 . S
H3005 C3034 0.950 . S
H3006 C3036 0.950 . S
H3007 C3037 0.950 . S
C3008 H2990 0.951 . S
C3008 C3009 1.366 . S
C3008 C3010 1.388 . S
C3009 C3008 1.366 . S
C3009 C3013 1.385 . S
C3010 H2991 0.951 . S
C3010 C3008 1.388 . S
C3010 C3011 1.366 . S
C3011 C3010 1.366 . S
C3011 C3012 1.414 . S
C3011 C3014 1.499 . S
C3012 H2992 0.950 . S
C3012 C3011 1.414 . S
C3012 C3013 1.374 . S
C3013 H2993 0.950 . S
C3013 C3009 1.385 . S
C3013 C3012 1.374 . S
C3014 C3011 1.499 . S
C3014 C3015 1.373 . S
C3014 C3016 1.389 . S
C3015 H2994 0.950 . S
C3015 C3014 1.373 . S
C3015 C3031 1.377 . S
C3016 C3014 1.389 . S
C3016 C3017 1.524 . S
C3016 C3030 1.377 . S
C3017 C3016 1.524 . S
C3017 C3018 1.397 . S
C3017 C3022 1.363 . S
C3018 H2995 0.950 . S
C3018 C3017 1.397 . S
C3018 C3019 1.334 . S
C3019 H2996 0.950 . S
C3019 C3018 1.334 . S
C3019 C3020 1.287 . S
C3020 C3019 1.287 . S
C3020 C3021 1.524 . S
C3020 H3039 0.913 . S
C3021 H2997 0.950 . S
C3021 C3020 1.524 . S
C3021 C3022 1.415 . S
C3022 H2998 0.950 . S
C3022 C3017 1.363 . S
C3022 C3021 1.415 . S
C3023 H2999 0.951 . S
C3023 C3024 1.366 . S
C3023 C3025 1.388 . S
C3024 C3023 1.366 . S
C3024 C3028 1.385 . S
C3025 H3000 0.951 . S
C3025 C3023 1.388 . S
C3025 C3026 1.366 . S
C3026 C3025 1.366 . S
C3026 C3027 1.414 . S
C3026 C3029 1.499 . S
C3027 H3001 0.950 . S
C3027 C3026 1.414 . S
C3027 C3028 1.374 . S
C3028 H3002 0.950 . S
C3028 C3024 1.385 . S
C3028 C3027 1.374 . S
C3029 C3026 1.499 . S
C3029 C3030 1.373 . S
C3029 C3031 1.389 . S
C3030 H3003 0.950 . S
C3030 C3016 1.377 . S
C3030 C3029 1.373 . S
C3031 C3015 1.377 . S
C3031 C3029 1.389 . S
C3031 C3032 1.524 . S
C3032 C3031 1.524 . S
C3032 C3033 1.397 . S
C3032 C3037 1.363 . S
C3033 H3004 0.950 . S
C3033 C3032 1.397 . S
C3033 C3034 1.334 . S
C3034 H3005 0.950 . S
C3034 C3033 1.334 . S
C3034 C3035 1.287 . S
C3035 C3034 1.287 . S
C3035 C3036 1.524 . S
C3035 H3038 0.999 . S
C3036 H3006 0.950 . S
C3036 C3035 1.524 . S
C3036 C3037 1.415 . S
C3037 H3007 0.950 . S
C3037 C3032 1.363 . S
C3037 C3036 1.415 . S
H3038 C3035 0.999 . S
H3039 C3020 0.913 . S
C659 C10 0.934 . S
C674 C295 0.929 . S
C709 C50 0.933 . S
C724 C175 0.930 . S
C759 C215 0.929 . S
C774 C90 0.933 . S
C809 C130 0.932 . S
C824 C255 0.928 . S
C859 C446 0.929 . S
C874 C179 0.932 . S
C909 C339 0.933 . S
C924 C6 0.928 . S
C959 C406 0.928 . S
C974 C259 0.933 . S
C1009 C86 0.929 . S
C1024 C379 0.934 . S
C1059 C375 0.930 . S
C1074 C490 0.933 . S
C1109 C410 0.933 . S
C1124 C575 0.928 . S
C1159 C530 0.932 . S
C1174 C335 0.929 . S
C1209 C450 0.933 . S
C1224 C615 0.929 . S
C1259 C579 0.933 . S
C1274 C126 0.928 . S
C1309 C486 0.930 . S
C1324 C219 0.933 . S
C1359 C46 0.929 . S
C1374 C619 0.933 . S
C1409 C299 0.933 . S
C1424 C526 0.928 . S
C1459 C529 0.986 . S
C1474 C9 0.988 1_455 S
C1509 C449 0.985 . S
C1524 C49 0.987 . S
C1559 C489 0.987 . S
C1574 C89 0.988 . S
C1609 C409 0.987 . S
C1624 C129 0.987 . S
C1659 C178 0.987 . S
C1674 C618 0.988 1_455 S
C1709 C378 0.987 . S
C1724 C218 0.986 . S
C1759 C258 0.987 . S
C1774 C578 0.986 . S
C1809 C298 0.985 . S
C1824 C338 0.987 . S
C1859 C18 1.321 . S
C1874 C169 1.321 . S
C1909 C58 1.323 . S
C1924 C209 1.323 . S
C1959 C249 1.321 . S
C1974 C98 1.321 . S
C2009 C138 1.322 . S
C2024 C289 1.322 . S
C2059 C418 1.322 . S
C2074 C329 1.322 . S
C2109 C458 1.321 . S
C2124 C369 1.321 . S
C2159 C498 1.321 . S
C2174 C569 1.321 . S
C2209 C609 1.322 . S
C2224 C538 1.322 . S
C2259 C15 1.855 . S
C2274 C290 1.906 . S
C2309 C55 1.855 . S
C2324 C170 1.906 . S
C2359 C210 1.907 . S
C2374 C95 1.856 . S
C2409 C250 1.906 . S
C2424 C135 1.856 . S
C2459 C459 1.907 . S
C2474 C166 1.857 . S
C2509 C326 1.856 . S
C2524 C19 1.907 . S
C2559 C419 1.907 . S
C2574 C246 1.856 . S
C2609 C99 1.906 . S
C2624 C366 1.856 . S
C2659 C495 1.856 . S
C2674 C370 1.907 . S
C2709 C570 1.906 . S
C2724 C415 1.856 . S
C2759 C535 1.856 . S
C2774 C330 1.907 . S
C2809 C610 1.907 . S
C2824 C455 1.856 . S
C2859 C566 1.856 . S
C2874 C139 1.907 . S
C2909 C206 1.855 . S
C2924 C499 1.906 . S
C2959 C59 1.907 . S
C2974 C606 1.856 . S
C3009 C539 1.906 . S
C3024 C286 1.856 . S
