# Generated by pormake.
# Topology wkf, (6)-cn, num edge types: 1
# Building blocks:
#     Node 0, Type 0, BuildingBlock: CUWYAW_clean_sbu_0, # of connection points: 6
#     Node 1, Type 0, BuildingBlock: CUWYAW_clean_sbu_0, # of connection points: 6
#     Node 2, Type 0, BuildingBlock: CUWYAW_clean_sbu_0, # of connection points: 6
#     Node 3, Type 0, BuildingBlock: CUWYAW_clean_sbu_0, # of connection points: 6
#     Node 4, Type 0, BuildingBlock: CUWYAW_clean_sbu_0, # of connection points: 6
#     Node 5, Type 0, BuildingBlock: CUWYAW_clean_sbu_0, # of connection points: 6
#     Node 6, Type 0, BuildingBlock: CUWYAW_clean_sbu_0, # of connection points: 6
#     Node 7, Type 0, BuildingBlock: CUWYAW_clean_sbu_0, # of connection points: 6
#     Node 8, Type 0, BuildingBlock: CUWYAW_clean_sbu_0, # of connection points: 6
#     Node 9, Type 0, BuildingBlock: CUWYAW_clean_sbu_0, # of connection points: 6
#     Node 10, Type 0, BuildingBlock: CUWYAW_clean_sbu_0, # of connection points: 6
#     Node 11, Type 0, BuildingBlock: CUWYAW_clean_sbu_0, # of connection points: 6
#     Edge 12, Type (0, 0), BuildingBlock: AJUNOK_clean_linker_0, # of connection points: 2
#     Edge 13, Type (0, 0), BuildingBlock: AJUNOK_clean_linker_0, # of connection points: 2
#     Edge 14, Type (0, 0), BuildingBlock: AJUNOK_clean_linker_0, # of connection points: 2
#     Edge 15, Type (0, 0), BuildingBlock: AJUNOK_clean_linker_0, # of connection points: 2
#     Edge 16, Type (0, 0), BuildingBlock: AJUNOK_clean_linker_0, # of connection points: 2
#     Edge 17, Type (0, 0), BuildingBlock: AJUNOK_clean_linker_0, # of connection points: 2
#     Edge 18, Type (0, 0), BuildingBlock: AJUNOK_clean_linker_0, # of connection points: 2
#     Edge 19, Type (0, 0), BuildingBlock: AJUNOK_clean_linker_0, # of connection points: 2
#     Edge 20, Type (0, 0), BuildingBlock: AJUNOK_clean_linker_0, # of connection points: 2
#     Edge 21, Type (0, 0), BuildingBlock: AJUNOK_clean_linker_0, # of connection points: 2
#     Edge 22, Type (0, 0), BuildingBlock: AJUNOK_clean_linker_0, # of connection points: 2
#     Edge 23, Type (0, 0), BuildingBlock: AJUNOK_clean_linker_0, # of connection points: 2
#     Edge 24, Type (0, 0), BuildingBlock: AJUNOK_clean_linker_0, # of connection points: 2
#     Edge 25, Type (0, 0), BuildingBlock: AJUNOK_clean_linker_0, # of connection points: 2
#     Edge 26, Type (0, 0), BuildingBlock: AJUNOK_clean_linker_0, # of connection points: 2
#     Edge 27, Type (0, 0), BuildingBlock: AJUNOK_clean_linker_0, # of connection points: 2
#     Edge 28, Type (0, 0), BuildingBlock: AJUNOK_clean_linker_0, # of connection points: 2
#     Edge 29, Type (0, 0), BuildingBlock: AJUNOK_clean_linker_0, # of connection points: 2
#     Edge 30, Type (0, 0), BuildingBlock: AJUNOK_clean_linker_0, # of connection points: 2
#     Edge 31, Type (0, 0), BuildingBlock: AJUNOK_clean_linker_0, # of connection points: 2
#     Edge 32, Type (0, 0), BuildingBlock: AJUNOK_clean_linker_0, # of connection points: 2
#     Edge 33, Type (0, 0), BuildingBlock: AJUNOK_clean_linker_0, # of connection points: 2
#     Edge 34, Type (0, 0), BuildingBlock: AJUNOK_clean_linker_0, # of connection points: 2
#     Edge 35, Type (0, 0), BuildingBlock: AJUNOK_clean_linker_0, # of connection points: 2
#     Edge 36, Type (0, 0), BuildingBlock: AJUNOK_clean_linker_0, # of connection points: 2
#     Edge 37, Type (0, 0), BuildingBlock: AJUNOK_clean_linker_0, # of connection points: 2
#     Edge 38, Type (0, 0), BuildingBlock: AJUNOK_clean_linker_0, # of connection points: 2
#     Edge 39, Type (0, 0), BuildingBlock: AJUNOK_clean_linker_0, # of connection points: 2
#     Edge 40, Type (0, 0), BuildingBlock: AJUNOK_clean_linker_0, # of connection points: 2
#     Edge 41, Type (0, 0), BuildingBlock: AJUNOK_clean_linker_0, # of connection points: 2
#     Edge 42, Type (0, 0), BuildingBlock: AJUNOK_clean_linker_0, # of connection points: 2
#     Edge 43, Type (0, 0), BuildingBlock: AJUNOK_clean_linker_0, # of connection points: 2
#     Edge 44, Type (0, 0), BuildingBlock: AJUNOK_clean_linker_0, # of connection points: 2
#     Edge 45, Type (0, 0), BuildingBlock: AJUNOK_clean_linker_0, # of connection points: 2
#     Edge 46, Type (0, 0), BuildingBlock: AJUNOK_clean_linker_0, # of connection points: 2
#     Edge 47, Type (0, 0), BuildingBlock: AJUNOK_clean_linker_0, # of connection points: 2
# Relax obj value: 0.429
# Max RMSD: 0.280
# Mean RMSD: 0.270
data_MOF--net-wkf--node1-CUWYAW_clean_sbu_0--edge1-AJUNOK_clean_linker_0
_symmetry_space_group_name_H-M    P1
_symmetry_Int_Tables_number       1
_symmetry_cell_setting            triclinic
loop_
_symmetry_equiv_pos_as_xyz
'x, y, z'
_cell_length_a     21.673972
_cell_length_b     21.913773
_cell_length_c     75.487055
_cell_angle_alpha  90.356945
_cell_angle_beta   89.958017
_cell_angle_gamma 119.39298
loop_
_atom_site_label
_atom_site_type_symbol
_atom_site_fract_x
_atom_site_fract_y
_atom_site_fract_z
_atom_type_partial_charge
C0 C 0.36592 0.86621 0.37268 0.0
Eu1 Eu 0.46932 0.93188 0.39595 0.0
C2 C 0.31673 0.85497 0.35735 0.0
C3 C 0.34098 0.89267 0.34143 0.0
C4 C 0.29762 0.873 0.32612 0.0
C5 C 0.22854 0.81445 0.32608 0.0
C6 C 0.20407 0.77799 0.34222 0.0
C7 C 0.24714 0.79816 0.35754 0.0
C8 C 0.54949 0.07603 0.38851 0.0
C9 C 0.56212 0.84437 0.39214 0.0
C10 C 0.69891 1.04535 0.43333 0.0
Eu11 Eu 0.5818 0.97345 0.41524 0.0
C12 C 0.74108 0.11906 0.43909 0.0
C13 C 0.81497 0.15451 0.437 0.0
C14 C 0.85497 0.22586 0.44123 0.0
C15 C 0.82134 0.26237 0.44751 0.0
C16 C 0.7479 0.22661 0.45012 0.0
C17 C 0.70804 0.15551 0.44599 0.0
C18 C 0.47122 0.8546 0.43182 0.0
C19 C 0.48487 1.03444 0.42794 0.0
O20 O 0.35435 0.87948 0.38893 0.0
O21 O 0.4331 0.89019 0.36943 0.0
O22 O 0.48163 1.03762 0.38941 0.0
O23 O 0.57615 1.03404 0.39056 0.0
O24 O 0.49814 0.83939 0.39184 0.0
O25 O 0.61239 0.90443 0.39838 0.0
O26 O 0.69759 1.0336 0.41632 0.0
O27 O 0.63668 1.00906 0.44053 0.0
O28 O 0.53529 0.86637 0.42934 0.0
O29 O 0.46667 0.90396 0.42444 0.0
O30 O 0.55084 1.05067 0.42553 0.0
O31 O 0.43499 0.97832 0.41942 0.0
H32 H 0.39447 0.93618 0.34061 0.0
H33 H 0.31911 0.90299 0.31415 0.0
H34 H 0.1528 0.73123 0.34287 0.0
H35 H 0.22713 0.76671 0.36937 0.0
H36 H 0.84146 0.12738 0.43173 0.0
H37 H 0.91165 0.253 0.43903 0.0
H38 H 0.7213 0.25418 0.45503 0.0
H39 H 0.65132 0.12964 0.44791 0.0
C40 C 0.54457 0.33372 0.53681 0.0
Eu41 Eu 0.58102 0.42567 0.56254 0.0
C42 C 0.52271 0.28613 0.52091 0.0
C43 C 0.51298 0.31011 0.50443 0.0
C44 C 0.4978 0.26878 0.48903 0.0
C45 C 0.49287 0.20225 0.48945 0.0
C46 C 0.50009 0.17713 0.50609 0.0
C47 C 0.51468 0.21844 0.5216 0.0
C48 C 0.51025 0.50377 0.55715 0.0
C49 C 0.75933 0.52122 0.5586 0.0
C50 C 0.68979 0.6557 0.59968 0.0
Eu51 Eu 0.6457 0.54002 0.5822 0.0
C52 C 0.6624 0.65839 0.61752 0.0
C53 C 0.67939 0.62991 0.63212 0.0
C54 C 0.64081 0.61527 0.64772 0.0
C55 C 0.58256 0.62597 0.64875 0.0
C56 C 0.56165 0.65485 0.6342 0.0
C57 C 0.60778 0.67528 0.61907 0.0
C58 C 0.63915 0.43235 0.60261 0.0
C59 C 0.49339 0.42586 0.59611 0.0
O60 O 0.52997 0.31408 0.55341 0.0
O61 O 0.57889 0.40161 0.53463 0.0
O62 O 0.48268 0.43725 0.55955 0.0
O63 O 0.57879 0.52969 0.55775 0.0
O64 O 0.70174 0.45864 0.55646 0.0
O65 O 0.74838 0.56892 0.56655 0.0
O66 O 0.64343 0.63726 0.58686 0.0
O67 O 0.72702 0.62365 0.59849 0.0
O68 O 0.63109 0.48373 0.60816 0.0
O69 O 0.652 0.43899 0.5859 0.0
O70 O 0.53599 0.49343 0.59412 0.0
O71 O 0.50502 0.38142 0.58648 0.0
H72 H 0.51774 0.36153 0.50339 0.0
H73 H 0.49033 0.28939 0.47671 0.0
H74 H 0.49669 0.12629 0.50704 0.0
H75 H 0.52177 0.19822 0.53403 0.0
H76 H 0.72153 0.61694 0.63136 0.0
H77 H 0.65567 0.59467 0.65895 0.0
H78 H 0.45552 0.66767 0.64175 0.0
H79 H 0.5986 0.70064 0.6079 0.0
C80 C 0.29055 0.52254 0.70418 0.0
Eu81 Eu 0.22262 0.56061 0.72671 0.0
C82 C 0.30235 0.48138 0.68986 0.0
C83 C 0.2574 0.45512 0.67497 0.0
C84 C 0.27665 0.4292 0.66001 0.0
C85 C 0.34164 0.42884 0.65937 0.0
C86 C 0.38524 0.45296 0.67459 0.0
C87 C 0.36583 0.47859 0.68955 0.0
C88 C 1.07527 0.48763 0.71987 0.0
C89 C 0.30624 0.73788 0.72388 0.0
C90 C 0.10366 0.68983 0.75525 0.0
Eu91 Eu 0.17089 0.62412 0.74566 0.0
C92 C 1.02997 0.67422 0.75464 0.0
C93 C 1.0031 0.69618 0.76863 0.0
C94 C 0.93189 0.67806 0.76878 0.0
C95 C 0.88671 0.63786 0.75489 0.0
C96 C 0.91403 0.61681 0.74072 0.0
C97 C 0.9853 0.63478 0.74064 0.0
C98 C 0.27333 0.6195 0.76649 0.0
C99 C 0.12364 0.47551 0.75952 0.0
O100 O 0.2849 0.50639 0.72106 0.0
O101 O 0.25791 0.55721 0.7 0.0
O102 O 0.1174 0.46253 0.72212 0.0
O103 O 0.1143 0.55562 0.72111 0.0
O104 O 0.30002 0.67835 0.71732 0.0
O105 O 0.25979 0.73027 0.73603 0.0
O106 O 0.13512 0.69877 0.73996 0.0
O107 O 0.11698 0.65138 0.766 0.0
O108 O 0.21375 0.61245 0.77201 0.0
O109 O 0.27965 0.63237 0.74983 0.0
O110 O 0.09767 0.51698 0.75609 0.0
O111 O 0.18368 0.48808 0.7515 0.0
H112 H 0.20848 0.45713 0.67458 0.0
H113 H 0.24132 0.41124 0.64869 0.0
H114 H 0.43666 0.45612 0.67462 0.0
H115 H 0.40261 0.49991 0.70055 0.0
H116 H 1.03694 0.72642 0.77956 0.0
H117 H 0.91191 0.69503 0.77982 0.0
H118 H 0.88005 0.58487 0.73001 0.0
H119 H 1.00541 0.61719 0.72978 0.0
C120 C 0.8603 0.25851 0.87385 0.0
Eu121 Eu 0.7412 0.19401 0.89243 0.0
C122 C 0.89161 0.28312 0.85576 0.0
C123 C 0.88647 0.23601 0.84223 0.0
C124 C 0.92337 0.26045 0.82611 0.0
C125 C 0.96701 0.33271 0.82305 0.0
C126 C 0.97117 0.37956 0.8365 0.0
C127 C 0.9342 0.35521 0.85254 0.0
C128 C 0.66196 1.05052 0.88312 0.0
C129 C 0.64324 0.27544 0.88417 0.0
C130 C 0.51648 0.0783 0.92674 0.0
Eu131 Eu 0.62893 0.15388 0.90857 0.0
C132 C 0.50613 1.01666 0.93669 0.0
C133 C 0.55089 1.02459 0.95108 0.0
C134 C 0.54943 0.96651 0.95875 0.0
C135 C 0.50191 0.89905 0.95259 0.0
C136 C 0.45844 0.89132 0.9379 0.0
C137 C 0.46064 0.94954 0.93003 0.0
C138 C 0.73269 0.27073 0.92721 0.0
C139 C 0.72207 0.09723 0.92555 0.0
O140 O 0.83187 0.29079 0.88215 0.0
O141 O 0.82567 0.19173 0.87689 0.0
O142 O 0.72841 0.08689 0.88676 0.0
O143 O 0.63685 0.09421 0.88387 0.0
O144 O 0.70585 0.27754 0.8825 0.0
O145 O 0.59497 0.2197 0.89227 0.0
O146 O 0.51757 0.07285 0.90953 0.0
O147 O 0.56727 0.13784 0.93252 0.0
O148 O 0.67225 0.26233 0.92184 0.0
O149 O 0.73974 0.22107 0.9208 0.0
O150 O 0.65725 0.07665 0.92061 0.0
O151 O 0.77137 0.15708 0.91853 0.0
H152 H 0.85523 0.18004 0.84424 0.0
H153 H 0.9194 0.22254 0.81627 0.0
H154 H 1.00356 0.43552 0.83466 0.0
H155 H 0.94036 0.39308 0.86266 0.0
H156 H 0.58834 0.07581 0.95628 0.0
H157 H 0.58364 0.97441 0.96995 0.0
H158 H 0.41989 0.84004 0.93297 0.0
H159 H 0.42699 0.94212 0.91869 0.0
C160 C 0.67154 0.81652 1.03829 0.0
Eu161 Eu 0.61132 0.70932 1.06061 0.0
C162 C 0.67374 0.85285 1.02111 0.0
C163 C 0.69913 0.83677 1.00552 0.0
C164 C 0.7118 0.87627 0.98995 0.0
C165 C 0.69943 0.93361 0.98919 0.0
C166 C 0.67347 0.94961 1.00472 0.0
C167 C 0.66112 0.91012 1.02042 0.0
C168 C 0.67073 0.62201 1.05484 0.0
C169 C 0.43155 0.61235 1.05361 0.0
C170 C 0.50135 0.4922 0.09912 0.0
Eu171 Eu 0.53826 0.6002 0.07928 0.0
C172 C 0.53981 0.48911 0.11479 0.0
C173 C 0.50811 0.4792 0.13143 0.0
C174 C 0.54421 0.47817 0.14653 0.0
C175 C 0.61303 0.48695 0.14529 0.0
C176 C 0.64741 0.5043 0.12881 0.0
C177 C 0.61056 0.50363 0.11363 0.0
C178 C 0.52981 0.71099 0.09592 0.0
C179 C 0.68946 0.69614 0.09612 0.0
O180 O 0.63499 0.8164 1.0521 0.0
O181 O 0.67446 0.75887 1.03723 0.0
O182 O 0.70328 0.68817 1.05835 0.0
O183 O 0.60287 0.60154 1.05478 0.0
O184 O 0.49017 0.67532 1.05235 0.0
O185 O 0.44142 0.56461 1.06146 0.0
O186 O 0.53196 0.49905 0.08383 0.0
O187 O 0.47423 0.53328 0.10079 0.0
O188 O 0.47771 0.64852 0.09305 0.0
O189 O 0.58446 0.71493 0.08876 0.0
O190 O 0.63916 0.63171 0.09415 0.0
O191 O 0.6867 0.7441 0.08572 0.0
H192 H 0.71166 0.79462 1.00544 0.0
H193 H 0.73345 0.86283 0.97861 0.0
H194 H 0.66275 0.99294 1.00477 0.0
H195 H 0.64306 0.92542 1.03214 0.0
H196 H 0.45441 0.47001 0.13271 0.0
H197 H 0.51507 0.46372 0.15885 0.0
H198 H 0.70056 0.51207 0.12744 0.0
H199 H 0.63731 0.51335 0.10098 0.0
C200 C 0.92364 0.61112 0.20418 0.0
Eu201 Eu 0.98152 0.57194 0.22935 0.0
C202 C 0.89268 0.63202 0.18884 0.0
C203 C 0.90562 0.62006 0.17116 0.0
C204 C 0.87798 0.63943 0.15664 0.0
C205 C 0.83643 0.6722 0.15908 0.0
C206 C 0.82293 0.68365 0.17681 0.0
C207 C 0.85069 0.6642 0.19139 0.0
C208 C 0.12906 0.63781 0.22407 0.0
C209 C 0.90704 0.39383 0.22558 0.0
C210 C 0.11469 0.48712 0.27033 0.0
Eu211 Eu 1.02946 0.50614 0.2498 0.0
C212 C 0.16857 0.54145 0.28225 0.0
C213 C 0.14657 0.56622 0.29682 0.0
C214 C 0.19426 0.62561 0.30612 0.0
C215 C 0.26447 0.66323 0.3006 0.0
C216 C 0.29135 0.64121 0.28569 0.0
C217 C 0.24066 0.57593 0.27751 0.0
C218 C 0.90145 0.48407 0.2643 0.0
C219 C 1.06862 0.66003 0.26348 0.0
O220 O 0.91694 0.62138 0.22105 0.0
O221 O 0.96011 0.57911 0.20138 0.0
O222 O 1.08979 0.6664 0.22599 0.0
O223 O 1.08675 0.57014 0.22497 0.0
O224 O 0.89911 0.45048 0.22389 0.0
O225 O 0.96618 0.40504 0.23343 0.0
O226 O 0.12568 0.49797 0.25334 0.0
O227 O 1.0489 0.46621 0.27433 0.0
O228 O 0.92086 0.43718 0.26222 0.0
O229 O 0.94883 0.54092 0.25753 0.0
O230 O 1.08836 0.6125 0.26284 0.0
O231 O 1.01673 0.65289 0.25267 0.0
H232 H 0.93714 0.59511 0.16845 0.0
H233 H 0.88808 0.62703 0.14343 0.0
H234 H 0.7911 0.7083 0.17947 0.0
H235 H 0.83917 0.67441 0.20469 0.0
H236 H 1.09167 0.54048 0.30092 0.0
H237 H 0.17632 0.64293 0.3175 0.0
H238 H 0.42117 0.72291 0.28073 0.0
H239 H 0.25632 0.55324 0.26683 0.0
C240 C 0.2755 0.81186 0.54882 0.0
Eu241 Eu 0.21402 0.69588 0.52899 0.0
C242 C 0.30575 0.84579 0.56654 0.0
C243 C 0.26678 0.82173 0.58239 0.0
C244 C 0.29209 0.8594 0.59845 0.0
C245 C 0.35726 0.92264 0.59931 0.0
C246 C 0.39614 0.94647 0.58344 0.0
C247 C 0.37088 0.90871 0.56738 0.0
C248 C 1.06881 0.61453 0.53661 0.0
C249 C 0.29099 0.59381 0.53586 0.0
C250 C 1.09515 0.4735 0.48951 0.0
Eu251 Eu 0.17028 0.58238 0.50984 0.0
C252 C 1.03097 0.45443 0.47876 0.0
C253 C 1.03988 0.45829 0.45962 0.0
C254 C 0.99166 0.46445 0.44797 0.0
C255 C 0.92645 0.47931 0.46029 0.0
C256 C 0.84341 0.41952 0.47466 0.0
C257 C 0.96604 0.44114 0.48833 0.0
C258 C 0.29366 0.69038 0.49416 0.0
C259 C 0.11775 0.68165 0.49528 0.0
O260 O 0.31034 0.79195 0.53836 0.0
O261 O 0.20783 0.7693 0.54771 0.0
O262 O 0.10513 0.68103 0.53407 0.0
O263 O 0.11301 0.58992 0.53522 0.0
O264 O 0.29279 0.65499 0.53894 0.0
O265 O 0.23734 0.54841 0.52615 0.0
O266 O 1.08912 0.47188 0.50677 0.0
O267 O 0.15154 0.52958 0.48429 0.0
O268 O 0.28216 0.62782 0.49768 0.0
O269 O 0.24226 0.69552 0.50056 0.0
O270 O 1.09527 0.61603 0.49881 0.0
O271 O 0.17721 0.72835 0.50335 0.0
H272 H 0.21576 0.77441 0.58233 0.0
H273 H 0.25953 0.83956 0.61017 0.0
H274 H 0.4466 0.99445 0.58343 0.0
H275 H 0.40184 0.92972 0.55546 0.0
H276 H 1.08845 0.46418 0.45396 0.0
H277 H 1.00736 0.48212 0.43451 0.0
H278 H 0.79966 0.42863 0.47848 0.0
H279 H 0.94087 0.43658 0.48619 0.0
C280 C 0.54735 0.25189 0.71895 0.0
Eu281 Eu 0.5861 0.18644 0.69583 0.0
C282 C 0.50915 0.2638 0.73417 0.0
C283 C 0.49386 0.22458 0.7499 0.0
C284 C 0.47241 0.24527 0.76544 0.0
C285 C 0.46638 0.30665 0.76597 0.0
C286 C 0.47717 0.34304 0.74985 0.0
C287 C 0.49864 0.32232 0.73431 0.0
C288 C 0.51895 1.04196 0.70332 0.0
C289 C 0.76621 0.27269 0.69934 0.0
C290 C 0.71919 0.06854 0.66671 0.0
Eu291 Eu 0.65505 0.13642 0.67722 0.0
C292 C 0.69338 0.99418 0.66307 0.0
C293 C 0.73335 0.96327 0.66852 0.0
C294 C 0.70406 0.89058 0.6679 0.0
C295 C 0.6341 0.84786 0.66194 0.0
C296 C 0.59611 0.87972 0.65538 0.0
C297 C 0.62531 0.95215 0.65604 0.0
C298 C 0.64332 0.23189 0.65566 0.0
C299 C 0.50205 0.0823 0.66344 0.0
O300 O 0.52666 0.24348 0.7023 0.0
O301 O 0.58679 0.22364 0.72249 0.0
O302 O 0.48991 0.08057 0.70124 0.0
O303 O 0.58718 0.08295 0.70184 0.0
O304 O 0.70543 0.26905 0.70446 0.0
O305 O 0.75996 0.2233 0.68838 0.0
O306 O 0.71597 0.08409 0.68328 0.0
O307 O 0.6972 0.10017 0.65595 0.0
O308 O 0.63809 0.17291 0.65077 0.0
O309 O 0.65677 0.24093 0.67239 0.0
O310 O 0.5466 1.06021 0.66742 0.0
O311 O 0.51166 0.14179 0.67101 0.0
H312 H 0.50106 0.17908 0.75042 0.0
H313 H 0.46193 0.21359 0.77717 0.0
H314 H 0.47266 0.39004 0.7494 0.0
H315 H 0.5105 0.35438 0.72258 0.0
H316 H 0.78605 0.9951 0.67395 0.0
H317 H 0.73546 0.86791 0.67263 0.0
H318 H 0.54187 0.84871 0.65088 0.0
H319 H 0.59319 0.97484 0.65186 0.0
C320 C 0.37327 0.52146 0.88679 0.0
Eu321 Eu 0.46819 0.56046 0.86135 0.0
C322 C 0.32317 0.49632 0.90231 0.0
C323 C 0.34018 0.47152 0.91769 0.0
C324 C 0.29593 0.45128 0.93271 0.0
C325 C 0.23351 0.45645 0.93311 0.0
C326 C 0.21568 0.47976 0.91749 0.0
C327 C 0.2596 0.49908 0.90234 0.0
C328 C 0.55082 0.49472 0.86612 0.0
C329 C 0.56819 0.73871 0.86456 0.0
C330 C 0.67555 0.6513 0.81778 0.0
Eu331 Eu 0.57517 0.6248 0.84033 0.0
C332 C 0.66838 0.60729 0.80239 0.0
C333 C 0.59245 0.57272 0.79091 0.0
C334 C 0.56398 0.51507 0.7742 0.0
C335 C 0.61813 0.49218 0.76293 0.0
C336 C 0.68343 0.47542 0.77089 0.0
C337 C 0.73057 0.58489 0.7993 0.0
C338 C 0.46342 0.63716 0.82565 0.0
C339 C 0.46566 0.46828 0.82779 0.0
O340 O 0.35518 0.51371 0.87002 0.0
O341 O 0.44149 0.55083 0.88939 0.0
O342 O 0.48283 0.46615 0.86531 0.0
O343 O 0.57601 0.56253 0.86486 0.0
O344 O 0.50326 0.68282 0.8659 0.0
O345 O 0.61533 0.72423 0.85754 0.0
O346 O 0.67222 0.62294 0.83311 0.0
O347 O 0.63716 0.68174 0.81733 0.0
O348 O 0.52765 0.6875 0.82774 0.0
O349 O 0.45865 0.5831 0.83294 0.0
O350 O 0.53155 0.51834 0.82745 0.0
O351 O 0.42169 0.47485 0.83903 0.0
H352 H 0.38815 0.46774 0.91815 0.0
H353 H 0.31093 0.4314 0.94404 0.0
H354 H 0.16853 0.48493 0.91711 0.0
H355 H 0.2447 0.51798 0.89078 0.0
H356 H 0.55435 0.58803 0.79521 0.0
H357 H 0.5128 0.50075 0.7685 0.0
H358 H 0.71044 0.4524 0.76352 0.0
H359 H 0.77858 0.60795 0.80746 0.0
C360 C 0.9238 0.32857 1.05263 0.0
Eu361 Eu 0.96903 0.4281 1.02861 0.0
C362 C 0.88231 0.2781 0.06698 0.0
C363 C 0.90051 0.22742 0.07229 0.0
C364 C 0.87133 0.18721 0.08768 0.0
C365 C 0.82315 0.19668 0.0983 0.0
C366 C 0.8024 0.24514 0.09241 0.0
C367 C 0.83208 0.28575 0.07711 0.0
C368 C 0.1169 0.51125 1.03412 0.0
C369 C 0.88303 0.52256 1.03354 0.0
C370 C 1.07876 0.63727 0.98846 0.0
Eu371 Eu 1.00456 0.53263 1.00879 0.0
C372 C 0.15247 0.6574 0.98479 0.0
C373 C 0.18115 0.6773 0.96784 0.0
C374 C 0.24956 0.68908 0.96451 0.0
C375 C 0.28888 0.67954 0.97803 0.0
C376 C 0.25707 0.65303 0.99434 0.0
C377 C 0.19034 0.64387 0.9978 0.0
C378 C 0.88171 0.42454 0.99359 0.0
C379 C 1.06155 0.4342 0.99501 0.0
O380 O 0.91039 0.31494 1.03573 0.0
O381 O 0.95652 0.39546 1.05619 0.0
O382 O 1.08007 0.44433 1.03212 0.0
O383 O 1.07218 0.53512 1.03298 0.0
O384 O 0.87941 0.46006 1.03546 0.0
O385 O 0.93963 0.56906 1.02515 0.0
O386 O 1.06502 0.64577 1.00489 0.0
O387 O 1.03425 0.57561 0.98222 0.0
O388 O 0.89372 0.48757 0.9967 0.0
O389 O 0.93171 0.41837 1.00048 0.0
O390 O 1.07891 0.49958 0.99712 0.0
O391 O 1.00811 0.38744 1.00472 0.0
H392 H 0.93986 0.22096 0.06492 0.0
H393 H 0.88879 0.15073 0.09167 0.0
H394 H 0.76389 0.25271 0.09983 0.0
H395 H 0.81713 0.32446 0.07346 0.0
H396 H 0.15141 0.68491 0.95739 0.0
H397 H 0.27344 0.71027 0.95179 0.0
H398 H 0.28628 0.64509 1.00486 0.0
H399 H 0.1678 0.62557 1.01071 0.0
C400 C 0.67601 0.8987 0.21958 0.0
Eu401 Eu 0.61494 0.94552 0.19747 0.0
C402 C 0.68549 0.85729 0.23407 0.0
C403 C 0.72275 0.89351 0.24944 0.0
C404 C 0.73296 0.85851 0.26371 0.0
C405 C 0.70604 0.78567 0.2632 0.0
C406 C 0.6691 0.74917 0.24772 0.0
C407 C 0.65941 0.78456 0.23327 0.0
C408 C 0.68555 0.09133 0.20385 0.0
C409 C 0.43673 0.84841 0.20218 0.0
C410 C 0.45814 1.03846 0.17938 0.0
Eu411 Eu 0.54189 0.98542 0.1815 0.0
C412 C 0.4679 0.1085 0.1826 0.0
C413 C 0.44568 0.13849 0.16956 0.0
C414 C 0.47389 0.2107 0.16921 0.0
C415 C 0.52449 0.2532 0.18188 0.0
C416 C 0.53778 0.2225 0.1965 0.0
C417 C 0.51035 0.15006 0.19674 0.0
C418 C 0.54902 0.89398 0.15752 0.0
C419 C 0.68691 1.04525 0.16345 0.0
O420 O 0.66554 0.87984 0.20281 0.0
O421 O 0.64963 0.93877 0.22397 0.0
O422 O 0.71358 1.0535 0.19934 0.0
O423 O 0.61714 1.04931 0.20445 0.0
O424 O 0.49935 0.8671 0.20987 0.0
O425 O 0.44113 0.88533 0.18831 0.0
O426 O 0.46188 1.00525 0.19331 0.0
O427 O 0.49322 1.03355 0.16584 0.0
O428 O 0.5495 0.95194 0.15377 0.0
O429 O 0.54311 0.88344 0.17444 0.0
O430 O 0.63994 1.06395 0.16776 0.0
O431 O 0.68333 0.98959 0.17165 0.0
H432 H 0.74371 0.9496 0.25051 0.0
H433 H 0.76009 0.88843 0.27543 0.0
H434 H 0.64731 0.69297 0.24682 0.0
H435 H 0.63074 0.75496 0.22167 0.0
H436 H 0.41242 0.10708 0.15868 0.0
H437 H 0.46241 0.2339 0.15792 0.0
H438 H 0.57555 0.25464 0.20658 0.0
H439 H 0.52764 0.12774 0.20708 0.0
C440 C 0.85559 0.61153 0.37857 0.0
Eu441 Eu 0.73358 0.56115 0.36121 0.0
C442 C 0.89068 0.6272 0.39645 0.0
C443 C 0.88641 0.67383 0.40871 0.0
C444 C 0.92483 0.69117 0.4248 0.0
C445 C 0.96886 0.66261 0.42911 0.0
C446 C 0.9728 0.61616 0.41672 0.0
C447 C 0.9344 0.59875 0.40076 0.0
C448 C 0.65355 0.62474 0.37183 0.0
C449 C 0.63907 0.38367 0.36871 0.0
C450 C 0.49711 0.45073 0.32905 0.0
Eu451 Eu 0.61781 0.49036 0.3448 0.0
C452 C 0.4615 0.49234 0.32694 0.0
C453 C 0.4129 0.4788 0.31322 0.0
C454 C 0.38633 0.52472 0.31034 0.0
C455 C 0.40878 0.58469 0.32109 0.0
C456 C 0.45631 0.59697 0.33498 0.0
C457 C 0.48246 0.55132 0.33783 0.0
C458 C 0.7239 0.47706 0.32617 0.0
C459 C 0.70713 0.63618 0.32817 0.0
O460 O 0.81703 0.54633 0.37375 0.0
O461 O 0.82896 0.64948 0.37283 0.0
O462 O 0.7205 0.65355 0.36899 0.0
O463 O 0.6282 0.55686 0.37007 0.0
O464 O 0.70048 0.4435 0.37081 0.0
O465 O 0.59015 0.39063 0.36022 0.0
O466 O 0.50232 0.43404 0.34536 0.0
O467 O 0.5569 0.47514 0.32058 0.0
O468 O 0.66186 0.42622 0.33027 0.0
O469 O 0.72913 0.53209 0.33291 0.0
O470 O 0.64385 0.59591 0.33435 0.0
O471 O 0.75779 0.62501 0.33479 0.0
H472 H 0.85413 0.6977 0.40578 0.0
H473 H 0.92116 0.72825 0.43367 0.0
H474 H 1.00502 0.59207 0.41944 0.0
H475 H 0.93964 0.56329 0.3916 0.0
H476 H 0.39674 0.43382 0.30457 0.0
H477 H 0.34859 0.51345 0.29973 0.0
H478 H 0.47514 0.64324 0.3433 0.0
H479 H 0.52108 0.56327 0.34821 0.0
C480 C 0.18029 0.75239 0.27763 0.0
C481 C 0.10556 0.71664 0.27721 0.0
C482 C 0.2191 0.78798 0.29293 0.0
C483 C 0.18545 0.78755 0.30901 0.0
H484 H 0.20926 0.74924 0.26627 0.0
H485 H 0.27614 0.81182 0.29242 0.0
S486 S 0.99047 0.70993 0.31438 0.0
N487 N 0.99961 0.68983 0.29378 0.0
N488 N 1.07149 0.75529 0.32253 0.0
C489 C 0.11061 0.75594 0.3084 0.0
C490 C 1.07114 0.72084 0.2926 0.0
C491 C 0.43657 0.08759 0.47187 0.0
C492 C 0.48318 0.16067 0.47258 0.0
C493 C 0.43141 1.04716 0.45666 0.0
C494 C 0.47233 0.07769 0.44144 0.0
H495 H 0.40512 1.06093 0.48336 0.0
H496 H 0.39887 0.99119 0.45735 0.0
S497 S 0.6016 0.26657 0.43594 0.0
N498 N 0.57057 0.26153 0.45618 0.0
N499 N 0.55964 0.18605 0.42788 0.0
C500 C 0.51705 0.15091 0.44173 0.0
C501 C 0.52269 0.19211 0.45714 0.0
C502 C 0.35886 0.43759 0.62598 0.0
C503 C 0.36765 0.41172 0.64234 0.0
C504 C 0.39486 0.43593 0.61056 0.0
C505 C 0.43873 0.4052 0.61038 0.0
H506 H 0.32873 0.46493 0.62536 0.0
H507 H 0.39154 0.46272 0.59888 0.0
S508 S 0.46841 0.31633 0.6484 0.0
N509 N 0.41659 0.34525 0.65651 0.0
N510 N 0.48165 0.34016 0.6274 0.0
C511 C 0.44252 0.3729 0.62607 0.0
C512 C 0.40753 0.37638 0.642 0.0
C513 C 0.1201 0.44638 0.79169 0.0
C514 C 1.09057 0.42609 0.77462 0.0
C515 C 1.08095 0.41394 0.80707 0.0
C516 C 1.00965 0.3601 0.80622 0.0
H517 H 0.17208 0.49131 0.79334 0.0
H518 H 0.10615 0.43318 0.81983 0.0
S519 S 0.90662 0.2879 0.76465 0.0
N520 N 0.9854 0.34851 0.75779 0.0
N521 N 0.91166 0.28744 0.78649 0.0
C522 C 0.98002 0.33773 0.78916 0.0
C523 C 1.02019 0.37099 0.77349 0.0
C524 C 0.75591 0.09048 0.95741 0.0
C525 C 0.73238 1.05862 0.94065 0.0
C526 C 0.74663 1.0503 0.97287 0.0
C527 C 0.71361 0.97624 0.97233 0.0
H528 H 0.77777 0.14649 0.95881 0.0
H529 H 0.76419 0.07756 0.98544 0.0
S530 S 0.64225 0.86746 0.93156 0.0
N531 N 0.6748 0.94861 0.9245 0.0
N532 N 0.65794 0.87363 0.95309 0.0
C533 C 0.69206 0.94423 0.95547 0.0
C534 C 0.70102 0.98511 0.93984 0.0
C535 C 0.73344 0.67669 0.1439 0.0
C536 C 0.8043 0.69056 0.14333 0.0
C537 C 0.69949 0.68569 0.12893 0.0
C538 C 0.73438 0.71019 0.11253 0.0
H539 H 0.70225 0.65474 0.15574 0.0
H540 H 0.64361 0.66932 0.12994 0.0
S541 S 0.92198 0.76134 0.10401 0.0
N542 N 0.90999 0.7364 0.12494 0.0
N543 N 0.84543 0.75156 0.09699 0.0
C544 C 0.80604 0.72761 0.11193 0.0
C545 C 0.84094 0.71827 0.1272 0.0
C546 C 0.44772 0.07579 0.63313 0.0
C547 C 0.45019 1.04252 0.64883 0.0
C548 C 0.41628 1.03696 0.61739 0.0
C549 C 0.38534 0.96299 0.61662 0.0
H550 H 0.47418 0.13245 0.63266 0.0
H551 H 0.41776 0.06542 0.60557 0.0
S552 S 0.37678 0.85084 0.65435 0.0
N553 N 0.41715 0.93101 0.66267 0.0
N554 N 0.35884 0.85891 0.63352 0.0
C555 C 0.38524 0.9293 0.6325 0.0
C556 C 0.41737 0.9687 0.6484 0.0
C557 C 0.41168 0.36844 0.78382 0.0
C558 C 0.45399 0.33555 0.78327 0.0
C559 C 0.40828 0.40496 0.79908 0.0
C560 C 0.44624 0.40968 0.81467 0.0
H561 H 0.38333 0.36882 0.77205 0.0
H562 H 0.37974 0.43377 0.79818 0.0
S563 S 0.56015 0.32901 0.82126 0.0
N564 N 0.53166 0.30793 0.80065 0.0
N565 N 0.52375 0.37458 0.82895 0.0
C566 C 0.48502 0.3736 0.81468 0.0
C567 C 0.48905 0.33695 0.7992 0.0
C568 C 1.07122 0.39527 0.96408 0.0
C569 C 0.10142 0.41914 0.98099 0.0
C570 C 0.11365 0.40514 0.94888 0.0
C571 C 0.18857 0.43997 0.94979 0.0
H572 H 1.01466 0.37304 0.96232 0.0
H573 H 1.08738 0.38713 0.9362 0.0
S574 S 0.29378 0.51202 0.99115 0.0
N575 N 0.21077 0.47771 0.99773 0.0
N576 N 0.29013 0.49732 0.9696 0.0
C577 C 0.21901 0.46188 0.96681 0.0
C578 C 0.17573 0.45143 0.9822 0.0
C579 C 0.74319 1.04973 0.13346 0.0
C580 C 0.73591 0.08437 0.14845 0.0
C581 C 0.77308 0.08616 0.11745 0.0
C582 C 0.79683 0.15873 0.11576 0.0
H583 H 0.72208 0.99358 0.13375 0.0
H584 H 0.77475 1.0566 0.10609 0.0
S585 S 0.80166 0.27558 0.1522 0.0
N586 N 0.76306 0.19686 0.16111 0.0
N587 N 0.81987 0.26467 0.13159 0.0
C588 C 0.79429 0.1943 0.13111 0.0
C589 C 0.76384 0.15741 0.14725 0.0
C590 C 0.65009 0.65479 0.3013 0.0
C591 C 0.7124 0.67584 0.31144 0.0
C592 C 0.64951 0.68911 0.28568 0.0
C593 C 0.71094 0.74748 0.27932 0.0
H594 H 0.60033 0.61074 0.30541 0.0
H595 H 0.59963 0.67064 0.27876 0.0
S596 S 0.88912 0.82403 0.30031 0.0
N597 N 0.83817 0.75836 0.31347 0.0
N598 N 0.83715 0.8243 0.28432 0.0
C599 C 0.7741 0.76927 0.28917 0.0
C600 C 0.77488 0.73314 0.30507 0.0
C601 C 0.11574 0.6935 0.4624 0.0
C602 C 1.08749 0.69579 0.47903 0.0
C603 C 1.07912 0.68725 0.44648 0.0
C604 C 1.0106 0.67987 0.4463 0.0
H605 H 0.16465 0.6917 0.46166 0.0
H606 H 0.10385 0.68526 0.43418 0.0
S607 S 0.90915 0.67486 0.48656 0.0
N608 N 0.98537 0.68677 0.49445 0.0
N609 N 0.91503 0.67244 0.46477 0.0
C610 C 0.98161 0.68222 0.46293 0.0
C611 C 1.01987 0.68988 0.47916 0.0
C612 C 0.67013 0.74773 0.37928 0.0
C613 C 0.62214 0.67409 0.37772 0.0
C614 C 0.64997 0.79942 0.38369 0.0
C615 C 0.57908 0.78383 0.38673 0.0
H616 H 0.72598 0.76701 0.37701 0.0
H617 H 0.69169 0.85346 0.38459 0.0
S618 S 0.42822 0.60014 0.38527 0.0
N619 N 0.49702 0.58953 0.38067 0.0
N620 N 0.45925 0.68522 0.38805 0.0
C621 C 0.52941 0.71038 0.38527 0.0
C622 C 0.55047 0.65674 0.38107 0.0
C623 C 0.88888 0.60935 0.54906 0.0
C624 C 0.83665 0.53925 0.55261 0.0
C625 C 0.96043 0.62988 0.54412 0.0
C626 C 0.98854 0.58307 0.54253 0.0
H627 H 0.87427 0.64995 0.54998 0.0
H628 H 0.99475 0.685 0.54152 0.0
S629 S 0.87765 0.3922 0.55159 0.0
N630 N 0.82133 0.42179 0.55463 0.0
N631 N 0.95417 0.46034 0.54593 0.0
C632 C 0.93735 0.51232 0.54631 0.0
C633 C 0.86305 0.49086 0.55113 0.0
C634 C 0.40618 0.94358 0.71802 0.0
C635 C 0.47212 0.96366 0.70952 0.0
C636 C 0.35539 0.87273 0.72242 0.0
C637 C 0.36428 0.81412 0.71832 0.0
H638 H 0.39281 0.98379 0.72138 0.0
H639 H 0.30735 0.86393 0.72901 0.0
S640 S 0.52682 0.83299 0.6965 0.0
N641 N 0.5427 0.91485 0.69756 0.0
N642 N 0.44801 0.78358 0.70534 0.0
C643 C 0.42999 0.83273 0.70984 0.0
C644 C 0.48296 0.9059 0.70561 0.0
C645 C 0.53964 0.38187 0.88003 0.0
C646 C 0.58405 0.44701 0.87153 0.0
C647 C 0.55956 0.32959 0.88364 0.0
C648 C 0.62609 0.33591 0.879 0.0
H649 H 0.48689 0.37005 0.88397 0.0
H650 H 0.52094 0.28258 0.89027 0.0
S651 S 0.76461 0.49339 0.85548 0.0
N652 N 0.69992 0.51225 0.85792 0.0
N653 N 0.73726 0.416 0.86469 0.0
C654 C 0.67195 0.40081 0.87039 0.0
C655 C 0.65131 0.45493 0.8667 0.0
C656 C 0.22797 0.4994 1.0411 0.0
C657 C 0.19866 0.54497 1.03926 0.0
C658 C 0.30084 0.52203 1.04522 0.0
C659 C 0.35358 0.59322 1.04766 0.0
H660 H 0.19355 0.44361 1.03935 0.0
H661 H 0.31596 0.48195 1.04652 0.0
S662 S 0.31044 0.73847 1.04521 0.0
N663 N 0.2329 0.66838 1.04122 0.0
N664 N 0.3681 0.71053 1.04808 0.0
C665 C 0.32607 0.64049 1.04584 0.0
C666 C 0.25035 0.61693 1.04196 0.0
C667 C 0.84708 0.25585 0.22675 0.0
C668 C 0.84744 0.31706 0.22032 0.0
C669 C 0.79348 0.18536 0.22214 0.0
C670 C 0.73418 0.16883 0.21092 0.0
H671 H 0.88948 0.26218 0.23547 0.0
H672 H 0.79946 0.14263 0.22736 0.0
S673 S 0.71352 0.30805 0.18826 0.0
N674 N 0.78415 0.35377 0.20069 0.0
N675 N 0.68588 0.22444 0.19214 0.0
C676 C 0.73451 0.22958 0.20418 0.0
C677 C 0.78952 0.30169 0.20884 0.0
C678 C 0.34285 0.50868 0.53818 0.0
C679 C 0.35033 0.57574 0.54187 0.0
C680 C 0.39515 0.48901 0.54264 0.0
C681 C 0.46133 0.53456 0.55094 0.0
H682 H 0.29496 0.46959 0.53171 0.0
H683 H 0.38277 0.43593 0.53948 0.0
S684 S 0.51091 0.71692 0.56447 0.0
N685 N 0.43238 0.6884 0.55513 0.0
N686 N 0.52896 0.65194 0.56319 0.0
C687 C 0.47033 0.60227 0.55477 0.0
C688 C 0.41612 0.62239 0.55036 0.0
C689 C 0.86621 0.40228 0.70898 0.0
C690 C 0.84291 0.32976 0.70561 0.0
C691 C 0.93938 0.45372 0.71318 0.0
C692 C 0.99492 0.43656 0.71456 0.0
H693 H 0.82786 0.4202 0.70801 0.0
H694 H 0.95208 0.50739 0.71538 0.0
S695 S 0.96316 0.25371 0.70812 0.0
N696 N 0.88434 0.24551 0.70473 0.0
N697 N 1.01602 0.33737 0.71255 0.0
C698 C 0.97102 0.3638 0.7115 0.0
C699 C 0.89772 0.31246 0.7071 0.0
C700 C 0.56136 0.91366 0.87976 0.0
C701 C 0.63113 0.97097 0.8768 0.0
C702 C 0.54086 0.84047 0.87601 0.0
C703 C 0.58833 0.81788 0.86914 0.0
H704 H 0.52223 0.92487 0.88553 0.0
H705 H 0.48682 0.80095 0.87875 0.0
S706 S 0.77697 0.9445 0.85855 0.0
N707 N 0.7466 0.99559 0.866 0.0
N708 N 0.7097 0.86404 0.85947 0.0
C709 C 0.65754 0.87493 0.86608 0.0
C710 C 0.67811 0.94852 0.86976 0.0
C711 C 0.78317 0.63169 1.04013 0.0
C712 C 0.71603 0.58771 1.04807 0.0
C713 C 0.83389 0.60981 1.03574 0.0
C714 C 0.82374 0.54165 1.03907 0.0
H715 H 0.79786 0.68554 1.03733 0.0
H716 H 0.8829 0.64824 1.02969 0.0
S717 S 0.6592 0.40309 1.06045 0.0
N718 N 0.64424 0.47013 1.0595 0.0
N719 N 0.73784 0.42941 1.05144 0.0
C720 C 0.75672 0.49624 1.04706 0.0
C721 C 0.70415 0.51877 1.05147 0.0
C722 C 0.3402 0.72557 0.2165 0.0
C723 C 0.36007 0.792 0.20862 0.0
C724 C 0.26713 0.6741 0.22082 0.0
C725 C 0.20827 0.68512 0.21759 0.0
H726 H 0.38136 0.71251 0.21919 0.0
H727 H 0.25715 0.62581 0.22707 0.0
S728 S 0.22876 0.84883 0.19696 0.0
N729 N 0.31064 0.86283 0.19786 0.0
N730 N 0.1793 0.77042 0.20544 0.0
C731 C 0.22832 0.75112 0.20959 0.0
C732 C 0.30145 0.80253 0.20526 0.0
C733 C 0.55299 0.2498 0.37281 0.0
C734 C 0.62285 0.30734 0.37452 0.0
C735 C 0.53335 0.17863 0.37692 0.0
C736 C 0.58121 0.15599 0.38301 0.0
H737 H 0.51141 0.2596 0.36818 0.0
H738 H 0.47802 0.1401 0.37525 0.0
S739 S 0.77277 0.28284 0.39032 0.0
N740 N 0.74168 0.33384 0.38319 0.0
N741 N 0.70504 0.20211 0.39077 0.0
C742 C 0.65198 0.21265 0.38487 0.0
C743 C 0.67232 0.28649 0.38072 0.0
C744 C 0.39587 0.72496 0.47174 0.0
C745 C 0.34004 0.73424 0.47859 0.0
C746 C 0.43735 0.76312 0.45682 0.0
C747 C 0.42427 0.81146 0.44739 0.0
H748 H 0.40816 0.68796 0.47805 0.0
H749 H 0.48003 0.75422 0.45257 0.0
S750 S 0.28191 0.85309 0.45892 0.0
N751 N 0.27603 0.79807 0.47451 0.0
N752 N 0.34696 0.86225 0.44584 0.0
C753 C 0.36736 0.81967 0.45383 0.0
C754 C 0.32745 0.78338 0.46947 0.0
C755 C 0.6549 0.39823 0.63398 0.0
C756 C 0.6448 0.38201 0.61557 0.0
C757 C 0.65538 0.35105 0.64682 0.0
C758 C 0.64499 0.2843 0.64205 0.0
H759 H 0.66193 0.4481 0.63863 0.0
H760 H 0.66306 0.36682 0.66062 0.0
S761 S 0.61234 0.21351 0.59581 0.0
N762 N 0.62239 0.29278 0.59356 0.0
N763 N 0.62212 0.2044 0.61716 0.0
C764 C 0.63437 0.26736 0.62365 0.0
C765 C 0.63465 0.31578 0.61062 0.0
C766 C 0.36356 0.56978 0.80325 0.0
C767 C 0.41729 0.63448 0.81003 0.0
C768 C 0.32153 0.56554 0.78836 0.0
C769 C 0.32971 0.62566 0.77947 0.0
H770 H 0.35354 0.52156 0.80955 0.0
H771 H 0.28135 0.51426 0.7839 0.0
S772 S 0.46225 0.80833 0.79148 0.0
N773 N 0.47677 0.76066 0.80602 0.0
N774 N 0.3965 0.75241 0.77873 0.0
C775 C 0.38356 0.69063 0.78593 0.0
C776 C 0.42727 0.69507 0.80096 0.0
C777 C 0.82242 0.30021 0.95252 0.0
C778 C 0.77056 0.31137 0.94402 0.0
C779 C 0.8557 0.33445 0.96867 0.0
C780 C 0.8404 0.38325 0.97718 0.0
H781 H 0.83754 0.26429 0.94666 0.0
H782 H 0.89477 0.32322 0.9744 0.0
S783 S 0.70883 0.43216 0.96079 0.0
N784 N 0.70537 0.37504 0.94588 0.0
N785 N 0.76847 0.43996 0.97558 0.0
C786 C 0.78877 0.39499 0.96882 0.0
C787 C 0.7541 0.35932 0.95251 0.0
C788 C 0.57131 0.87176 0.12562 0.0
C789 C 0.54487 0.84414 0.14265 0.0
C790 C 0.56703 0.82904 0.1109 0.0
C791 C 0.53349 0.75544 0.11202 0.0
H792 H 0.59604 0.92772 0.12356 0.0
H793 H 0.58921 0.85408 0.09837 0.0
S794 S 0.45614 0.65465 0.15334 0.0
N795 N 0.48561 0.73683 0.15959 0.0
N796 N 0.47478 0.65682 0.13204 0.0
C797 C 0.50672 0.7267 0.12894 0.0
C798 C 0.513 0.77063 0.14413 0.0
C799 C 0.81056 0.53915 0.30067 0.0
C800 C 0.76744 0.47689 0.3102 0.0
C801 C 0.85097 0.54051 0.28564 0.0
C802 C 0.85239 0.48019 0.27943 0.0
H803 H 0.81277 0.58765 0.30474 0.0
H804 H 0.88199 0.58973 0.27888 0.0
S805 S 0.74818 0.30295 0.29917 0.0
N806 N 0.72767 0.35257 0.31166 0.0
N807 N 0.8043 0.35533 0.28413 0.0
C808 C 0.80894 0.41746 0.28874 0.0
C809 C 0.76674 0.41583 0.30385 0.0
C810 C 0.86226 0.45641 0.43819 0.0
C811 C 0.90521 0.51194 0.45091 0.0
C812 C 0.84398 0.38117 0.43758 0.0
C813 C 0.86102 0.33882 0.44979 0.0
H814 H 0.8401 0.47264 0.42758 0.0
H815 H 0.81031 0.35257 0.42649 0.0
S816 S 0.86069 0.41481 0.50535 0.0
N817 N 0.91704 0.51285 0.48989 0.0
N818 N 0.86128 0.33751 0.48638 0.0
C819 C 0.90056 0.36807 0.46602 0.0
C820 C 0.94175 0.50198 0.46782 0.0
C821 C 0.61474 0.73857 0.67814 0.0
C822 C 0.59805 0.77088 0.66416 0.0
C823 C 0.58715 0.66502 0.67912 0.0
C824 C 0.54467 0.61917 0.66558 0.0
H825 H 0.65193 0.77058 0.68832 0.0
H826 H 0.60625 0.64453 0.68948 0.0
S827 S 0.4637 0.64269 0.61709 0.0
N828 N 0.53368 0.74001 0.6314 0.0
N829 N 0.44859 0.58095 0.64078 0.0
C830 C 0.49325 0.63088 0.65876 0.0
C831 C 0.54298 0.72644 0.65314 0.0
C832 C 0.69647 0.5842 0.7412 0.0
C833 C 0.65637 0.56358 0.75687 0.0
C834 C 0.77105 0.61425 0.74092 0.0
C835 C 0.81084 0.61584 0.75587 0.0
H836 H 0.66881 0.5775 0.72879 0.0
H837 H 0.79749 0.63218 0.7283 0.0
S838 S 0.71494 0.47034 0.80071 0.0
N839 N 0.63811 0.49516 0.7926 0.0
N840 N 0.79136 0.54016 0.78436 0.0
C841 C 0.77488 0.58881 0.77151 0.0
C842 C 0.68786 0.57379 0.77306 0.0
C843 C 0.45934 0.77187 0.955 0.0
C844 C 0.48419 0.83708 0.96358 0.0
C845 C 0.39948 0.71272 0.96143 0.0
C846 C 0.36646 0.71775 0.97693 0.0
H847 H 0.47728 0.76949 0.94174 0.0
H848 H 0.37322 0.66671 0.953 0.0
S849 S 0.43292 0.86779 1.00823 0.0
N850 N 0.48748 0.89651 0.99125 0.0
N851 N 0.37701 0.78505 1.0036 0.0
C852 C 0.40266 0.77726 0.9878 0.0
C853 C 0.46234 0.83756 0.98109 0.0
C854 C 0.61378 0.3345 0.16114 0.0
C855 C 0.57525 0.32517 0.17681 0.0
C856 C 0.64606 0.39877 0.15264 0.0
C857 C 0.63542 0.45348 0.15892 0.0
H858 H 0.61374 0.2902 0.15464 0.0
H859 H 0.66709 0.40022 0.13954 0.0
S860 S 0.56904 0.46419 0.20336 0.0
N861 N 0.55105 0.38182 0.20148 0.0
N862 N 0.61032 0.50355 0.18493 0.0
C863 C 0.61237 0.44962 0.17652 0.0
C864 C 0.5803 0.38411 0.18543 0.0
C865 C 0.35986 0.66183 0.33151 0.0
C866 C 0.38567 0.63652 0.31773 0.0
C867 C 0.32917 0.70497 0.32834 0.0
C868 C 0.31894 0.72253 0.31108 0.0
H869 H 0.35882 0.64424 0.34495 0.0
H870 H 0.30466 0.71697 0.33929 0.0
S871 S 0.36223 0.67928 0.2596 0.0
N872 N 0.38619 0.62776 0.28122 0.0
N873 N 0.35671 0.75338 0.27796 0.0
C874 C 0.37306 0.7408 0.29942 0.0
C875 C 0.39214 0.66623 0.30122 0.0
loop_
_geom_bond_atom_site_label_1
_geom_bond_atom_site_label_2
_geom_bond_distance
_geom_bond_site_symmetry_2
_ccdc_geom_bond_type
C0 Eu1 2.835 . S
C0 C2 1.500 . S
C0 O20 1.257 . S
C0 O21 1.260 . S
Eu1 C0 2.835 . S
Eu1 O20 2.473 . S
Eu1 O21 2.480 . S
Eu1 O22 2.430 1_565 S
Eu1 O23 2.670 1_565 S
Eu1 O24 2.394 . S
Eu1 O29 2.355 . S
Eu1 O31 2.374 1_565 S
C2 C0 1.500 . S
C2 C3 1.377 . S
C2 C7 1.377 . S
C3 C2 1.377 . S
C3 C4 1.395 . S
C3 H32 0.931 . S
C4 C3 1.395 . S
C4 C5 1.383 . S
C4 H33 0.931 . S
C5 C4 1.383 . S
C5 C6 1.394 . S
C6 C5 1.394 . S
C6 C7 1.378 . S
C6 H34 0.931 . S
C7 C2 1.377 . S
C7 C6 1.378 . S
C7 H35 0.931 . S
C8 O22 1.259 . S
C8 O23 1.270 . S
C9 O24 1.251 . S
C9 O25 1.251 . S
C10 Eu11 2.835 . S
C10 C12 1.500 . S
C10 O26 1.257 . S
C10 O27 1.260 . S
Eu11 C10 2.835 . S
Eu11 O23 2.355 . S
Eu11 O25 2.374 1_545 S
Eu11 O26 2.473 . S
Eu11 O27 2.480 . S
Eu11 O28 2.430 1_545 S
Eu11 O29 2.670 1_545 S
Eu11 O30 2.394 . S
C12 C10 1.500 . S
C12 C13 1.377 . S
C12 C17 1.377 . S
C13 C12 1.377 . S
C13 C14 1.395 . S
C13 H36 0.931 . S
C14 C13 1.395 . S
C14 C15 1.383 . S
C14 H37 0.931 . S
C15 C14 1.383 . S
C15 C16 1.394 . S
C16 C15 1.394 . S
C16 C17 1.378 . S
C16 H38 0.931 . S
C17 C12 1.377 . S
C17 C16 1.378 . S
C17 H39 0.931 . S
C18 O28 1.259 . S
C18 O29 1.270 . S
C19 O30 1.251 . S
C19 O31 1.251 . S
O20 C0 1.257 . S
O20 Eu1 2.473 . S
O21 C0 1.260 . S
O21 Eu1 2.480 . S
O22 Eu1 2.430 1_545 S
O22 C8 1.259 . S
O23 Eu1 2.670 1_545 S
O23 C8 1.270 . S
O23 Eu11 2.355 . S
O24 Eu1 2.394 . S
O24 C9 1.251 . S
O25 C9 1.251 . S
O25 Eu11 2.374 1_565 S
O26 C10 1.257 . S
O26 Eu11 2.473 . S
O27 C10 1.260 . S
O27 Eu11 2.480 . S
O28 Eu11 2.430 1_565 S
O28 C18 1.259 . S
O29 Eu1 2.355 . S
O29 Eu11 2.670 1_565 S
O29 C18 1.270 . S
O30 Eu11 2.394 . S
O30 C19 1.251 . S
O31 Eu1 2.374 1_545 S
O31 C19 1.251 . S
H32 C3 0.931 . S
H33 C4 0.931 . S
H34 C6 0.931 . S
H35 C7 0.931 . S
H36 C13 0.931 . S
H37 C14 0.931 . S
H38 C16 0.931 . S
H39 C17 0.931 . S
C40 Eu41 2.835 . S
C40 C42 1.500 . S
C40 O60 1.257 . S
C40 O61 1.260 . S
Eu41 C40 2.835 . S
Eu41 O60 2.473 . S
Eu41 O61 2.480 . S
Eu41 O62 2.430 . S
Eu41 O63 2.670 . S
Eu41 O64 2.394 . S
Eu41 O69 2.355 . S
Eu41 O71 2.374 . S
C42 C40 1.500 . S
C42 C43 1.377 . S
C42 C47 1.377 . S
C43 C42 1.377 . S
C43 C44 1.395 . S
C43 H72 0.931 . S
C44 C43 1.395 . S
C44 C45 1.383 . S
C44 H73 0.931 . S
C45 C44 1.383 . S
C45 C46 1.394 . S
C46 C45 1.394 . S
C46 C47 1.378 . S
C46 H74 0.931 . S
C47 C42 1.377 . S
C47 C46 1.378 . S
C47 H75 0.931 . S
C48 O62 1.259 . S
C48 O63 1.270 . S
C49 O64 1.251 . S
C49 O65 1.251 . S
C50 Eu51 2.835 . S
C50 C52 1.500 . S
C50 O66 1.257 . S
C50 O67 1.260 . S
Eu51 C50 2.835 . S
Eu51 O63 2.355 . S
Eu51 O65 2.374 . S
Eu51 O66 2.473 . S
Eu51 O67 2.480 . S
Eu51 O68 2.430 . S
Eu51 O69 2.670 . S
Eu51 O70 2.394 . S
C52 C50 1.500 . S
C52 C53 1.377 . S
C52 C57 1.377 . S
C53 C52 1.377 . S
C53 C54 1.395 . S
C53 H76 0.931 . S
C54 C53 1.395 . S
C54 C55 1.383 . S
C54 H77 0.931 . S
C55 C54 1.383 . S
C55 C56 1.394 . S
C56 C55 1.394 . S
C56 C57 1.378 . S
C56 H78 0.931 . S
C57 C52 1.377 . S
C57 C56 1.378 . S
C57 H79 0.931 . S
C58 O68 1.259 . S
C58 O69 1.270 . S
C59 O70 1.251 . S
C59 O71 1.251 . S
O60 C40 1.257 . S
O60 Eu41 2.473 . S
O61 C40 1.260 . S
O61 Eu41 2.480 . S
O62 Eu41 2.430 . S
O62 C48 1.259 . S
O63 Eu41 2.670 . S
O63 C48 1.270 . S
O63 Eu51 2.355 . S
O64 Eu41 2.394 . S
O64 C49 1.251 . S
O65 C49 1.251 . S
O65 Eu51 2.374 . S
O66 C50 1.257 . S
O66 Eu51 2.473 . S
O67 C50 1.260 . S
O67 Eu51 2.480 . S
O68 Eu51 2.430 . S
O68 C58 1.259 . S
O69 Eu41 2.355 . S
O69 Eu51 2.670 . S
O69 C58 1.270 . S
O70 Eu51 2.394 . S
O70 C59 1.251 . S
O71 Eu41 2.374 . S
O71 C59 1.251 . S
H72 C43 0.931 . S
H73 C44 0.931 . S
H74 C46 0.931 . S
H75 C47 0.931 . S
H76 C53 0.931 . S
H77 C54 0.931 . S
H78 C56 0.931 . S
H79 C57 0.931 . S
C80 Eu81 2.835 . S
C80 C82 1.500 . S
C80 O100 1.257 . S
C80 O101 1.260 . S
Eu81 C80 2.835 . S
Eu81 O100 2.473 . S
Eu81 O101 2.480 . S
Eu81 O102 2.430 1_455 S
Eu81 O103 2.670 1_455 S
Eu81 O104 2.394 . S
Eu81 O109 2.355 . S
Eu81 O111 2.374 1_455 S
C82 C80 1.500 . S
C82 C83 1.377 . S
C82 C87 1.377 . S
C83 C82 1.377 . S
C83 C84 1.395 . S
C83 H112 0.931 . S
C84 C83 1.395 . S
C84 C85 1.383 . S
C84 H113 0.931 . S
C85 C84 1.383 . S
C85 C86 1.394 . S
C86 C85 1.394 . S
C86 C87 1.378 . S
C86 H114 0.931 . S
C87 C82 1.377 . S
C87 C86 1.378 . S
C87 H115 0.931 . S
C88 O102 1.259 . S
C88 O103 1.270 . S
C89 O104 1.251 . S
C89 O105 1.251 . S
C90 Eu91 2.835 . S
C90 C92 1.500 . S
C90 O106 1.257 . S
C90 O107 1.260 . S
Eu91 C90 2.835 . S
Eu91 O103 2.355 . S
Eu91 O105 2.374 1_655 S
Eu91 O106 2.473 . S
Eu91 O107 2.480 . S
Eu91 O108 2.430 1_655 S
Eu91 O109 2.670 1_655 S
Eu91 O110 2.394 . S
C92 C90 1.500 . S
C92 C93 1.377 . S
C92 C97 1.377 . S
C93 C92 1.377 . S
C93 C94 1.395 . S
C93 H116 0.931 . S
C94 C93 1.395 . S
C94 C95 1.383 . S
C94 H117 0.931 . S
C95 C94 1.383 . S
C95 C96 1.394 . S
C96 C95 1.394 . S
C96 C97 1.378 . S
C96 H118 0.931 . S
C97 C92 1.377 . S
C97 C96 1.378 . S
C97 H119 0.931 . S
C98 O108 1.259 . S
C98 O109 1.270 . S
C99 O110 1.251 . S
C99 O111 1.251 . S
O100 C80 1.257 . S
O100 Eu81 2.473 . S
O101 C80 1.260 . S
O101 Eu81 2.480 . S
O102 Eu81 2.430 1_655 S
O102 C88 1.259 . S
O103 Eu81 2.670 1_655 S
O103 C88 1.270 . S
O103 Eu91 2.355 . S
O104 Eu81 2.394 . S
O104 C89 1.251 . S
O105 C89 1.251 . S
O105 Eu91 2.374 1_455 S
O106 C90 1.257 . S
O106 Eu91 2.473 . S
O107 C90 1.260 . S
O107 Eu91 2.480 . S
O108 Eu91 2.430 1_455 S
O108 C98 1.259 . S
O109 Eu81 2.355 . S
O109 Eu91 2.670 1_455 S
O109 C98 1.270 . S
O110 Eu91 2.394 . S
O110 C99 1.251 . S
O111 Eu81 2.374 1_655 S
O111 C99 1.251 . S
H112 C83 0.931 . S
H113 C84 0.931 . S
H114 C86 0.931 . S
H115 C87 0.931 . S
H116 C93 0.931 . S
H117 C94 0.931 . S
H118 C96 0.931 . S
H119 C97 0.931 . S
C120 Eu121 2.835 . S
C120 C122 1.500 . S
C120 O140 1.257 . S
C120 O141 1.260 . S
Eu121 C120 2.835 . S
Eu121 O140 2.473 . S
Eu121 O141 2.480 . S
Eu121 O142 2.430 1_545 S
Eu121 O143 2.670 1_545 S
Eu121 O144 2.394 . S
Eu121 O149 2.355 . S
Eu121 O151 2.374 1_545 S
C122 C120 1.500 . S
C122 C123 1.377 . S
C122 C127 1.377 . S
C123 C122 1.377 . S
C123 C124 1.395 . S
C123 H152 0.931 . S
C124 C123 1.395 . S
C124 C125 1.383 . S
C124 H153 0.931 . S
C125 C124 1.383 . S
C125 C126 1.394 . S
C126 C125 1.394 . S
C126 C127 1.378 . S
C126 H154 0.931 . S
C127 C122 1.377 . S
C127 C126 1.378 . S
C127 H155 0.931 . S
C128 O142 1.259 . S
C128 O143 1.270 . S
C129 O144 1.251 . S
C129 O145 1.251 . S
C130 Eu131 2.835 . S
C130 C132 1.500 . S
C130 O146 1.257 . S
C130 O147 1.260 . S
Eu131 C130 2.835 . S
Eu131 O143 2.355 . S
Eu131 O145 2.374 1_565 S
Eu131 O146 2.473 . S
Eu131 O147 2.480 . S
Eu131 O148 2.430 1_565 S
Eu131 O149 2.670 1_565 S
Eu131 O150 2.394 . S
C132 C130 1.500 . S
C132 C133 1.377 . S
C132 C137 1.377 . S
C133 C132 1.377 . S
C133 C134 1.395 . S
C133 H156 0.931 . S
C134 C133 1.395 . S
C134 C135 1.383 . S
C134 H157 0.931 . S
C135 C134 1.383 . S
C135 C136 1.394 . S
C136 C135 1.394 . S
C136 C137 1.378 . S
C136 H158 0.931 . S
C137 C132 1.377 . S
C137 C136 1.378 . S
C137 H159 0.931 . S
C138 O148 1.259 . S
C138 O149 1.270 . S
C139 O150 1.251 . S
C139 O151 1.251 . S
O140 C120 1.257 . S
O140 Eu121 2.473 . S
O141 C120 1.260 . S
O141 Eu121 2.480 . S
O142 Eu121 2.430 1_565 S
O142 C128 1.259 . S
O143 Eu121 2.670 1_565 S
O143 C128 1.270 . S
O143 Eu131 2.355 . S
O144 Eu121 2.394 . S
O144 C129 1.251 . S
O145 C129 1.251 . S
O145 Eu131 2.374 1_545 S
O146 C130 1.257 . S
O146 Eu131 2.473 . S
O147 C130 1.260 . S
O147 Eu131 2.480 . S
O148 Eu131 2.430 1_545 S
O148 C138 1.259 . S
O149 Eu121 2.355 . S
O149 Eu131 2.670 1_545 S
O149 C138 1.270 . S
O150 Eu131 2.394 . S
O150 C139 1.251 . S
O151 Eu121 2.374 1_565 S
O151 C139 1.251 . S
H152 C123 0.931 . S
H153 C124 0.931 . S
H154 C126 0.931 . S
H155 C127 0.931 . S
H156 C133 0.931 . S
H157 C134 0.931 . S
H158 C136 0.931 . S
H159 C137 0.931 . S
C160 Eu161 2.835 1_556 S
C160 C162 1.500 . S
C160 O180 1.257 . S
C160 O181 1.260 . S
Eu161 C160 2.835 1_554 S
Eu161 O180 2.473 1_554 S
Eu161 O181 2.480 1_554 S
Eu161 O182 2.430 1_554 S
Eu161 O183 2.670 . S
Eu161 O184 2.394 1_554 S
Eu161 O189 2.355 . S
Eu161 O191 2.374 . S
C162 C160 1.500 . S
C162 C163 1.377 . S
C162 C167 1.377 . S
C163 C162 1.377 . S
C163 C164 1.395 . S
C163 H192 0.931 . S
C164 C163 1.395 . S
C164 C165 1.383 . S
C164 H193 0.931 . S
C165 C164 1.383 . S
C165 C166 1.394 . S
C166 C165 1.394 . S
C166 C167 1.378 . S
C166 H194 0.931 . S
C167 C162 1.377 . S
C167 C166 1.378 . S
C167 H195 0.931 . S
C168 O182 1.259 . S
C168 O183 1.270 1_556 S
C169 O184 1.251 . S
C169 O185 1.251 1_556 S
C170 Eu171 2.835 . S
C170 C172 1.500 . S
C170 O186 1.257 . S
C170 O187 1.260 . S
Eu171 C170 2.835 . S
Eu171 O183 2.355 . S
Eu171 O185 2.374 . S
Eu171 O186 2.473 . S
Eu171 O187 2.480 . S
Eu171 O188 2.430 . S
Eu171 O189 2.670 . S
Eu171 O190 2.394 . S
C172 C170 1.500 . S
C172 C173 1.377 . S
C172 C177 1.377 . S
C173 C172 1.377 . S
C173 C174 1.395 . S
C173 H196 0.931 . S
C174 C173 1.395 . S
C174 C175 1.383 . S
C174 H197 0.931 . S
C175 C174 1.383 . S
C175 C176 1.394 . S
C176 C175 1.394 . S
C176 C177 1.378 . S
C176 H198 0.931 . S
C177 C172 1.377 . S
C177 C176 1.378 . S
C177 H199 0.931 . S
C178 O188 1.259 . S
C178 O189 1.270 . S
C179 O190 1.251 . S
C179 O191 1.251 . S
O180 C160 1.257 . S
O180 Eu161 2.473 1_556 S
O181 C160 1.260 . S
O181 Eu161 2.480 1_556 S
O182 Eu161 2.430 1_556 S
O182 C168 1.259 . S
O183 Eu161 2.670 . S
O183 C168 1.270 1_554 S
O183 Eu171 2.355 . S
O184 Eu161 2.394 1_556 S
O184 C169 1.251 . S
O185 C169 1.251 1_554 S
O185 Eu171 2.374 . S
O186 C170 1.257 . S
O186 Eu171 2.473 . S
O187 C170 1.260 . S
O187 Eu171 2.480 . S
O188 Eu171 2.430 . S
O188 C178 1.259 . S
O189 Eu161 2.355 . S
O189 Eu171 2.670 . S
O189 C178 1.270 . S
O190 Eu171 2.394 . S
O190 C179 1.251 . S
O191 Eu161 2.374 . S
O191 C179 1.251 . S
H192 C163 0.931 . S
H193 C164 0.931 . S
H194 C166 0.931 . S
H195 C167 0.931 . S
H196 C173 0.931 . S
H197 C174 0.931 . S
H198 C176 0.931 . S
H199 C177 0.931 . S
C200 Eu201 2.835 . S
C200 C202 1.500 . S
C200 O220 1.257 . S
C200 O221 1.260 . S
Eu201 C200 2.835 . S
Eu201 O220 2.473 . S
Eu201 O221 2.480 . S
Eu201 O222 2.430 1_655 S
Eu201 O223 2.670 1_655 S
Eu201 O224 2.394 . S
Eu201 O229 2.355 . S
Eu201 O231 2.374 1_655 S
C202 C200 1.500 . S
C202 C203 1.377 . S
C202 C207 1.377 . S
C203 C202 1.377 . S
C203 C204 1.395 . S
C203 H232 0.931 . S
C204 C203 1.395 . S
C204 C205 1.383 . S
C204 H233 0.931 . S
C205 C204 1.383 . S
C205 C206 1.394 . S
C206 C205 1.394 . S
C206 C207 1.378 . S
C206 H234 0.931 . S
C207 C202 1.377 . S
C207 C206 1.378 . S
C207 H235 0.931 . S
C208 O222 1.259 . S
C208 O223 1.270 . S
C209 O224 1.251 . S
C209 O225 1.251 . S
C210 Eu211 2.835 . S
C210 C212 1.500 . S
C210 O226 1.257 . S
C210 O227 1.260 . S
Eu211 C210 2.835 . S
Eu211 O223 2.355 . S
Eu211 O225 2.374 1_455 S
Eu211 O226 2.473 . S
Eu211 O227 2.480 . S
Eu211 O228 2.430 1_455 S
Eu211 O229 2.670 1_455 S
Eu211 O230 2.394 . S
C212 C210 1.500 . S
C212 C213 1.377 . S
C212 C217 1.377 . S
C213 C212 1.377 . S
C213 C214 1.395 . S
C213 H236 0.931 . S
C214 C213 1.395 . S
C214 C215 1.383 . S
C214 H237 0.931 . S
C215 C214 1.383 . S
C215 C216 1.394 . S
C216 C215 1.394 . S
C216 C217 1.378 . S
C216 H238 0.931 . S
C217 C212 1.377 . S
C217 C216 1.378 . S
C217 H239 0.931 . S
C218 O228 1.259 . S
C218 O229 1.270 . S
C219 O230 1.251 . S
C219 O231 1.251 . S
O220 C200 1.257 . S
O220 Eu201 2.473 . S
O221 C200 1.260 . S
O221 Eu201 2.480 . S
O222 Eu201 2.430 1_455 S
O222 C208 1.259 . S
O223 Eu201 2.670 1_455 S
O223 C208 1.270 . S
O223 Eu211 2.355 . S
O224 Eu201 2.394 . S
O224 C209 1.251 . S
O225 C209 1.251 . S
O225 Eu211 2.374 1_655 S
O226 C210 1.257 . S
O226 Eu211 2.473 . S
O227 C210 1.260 . S
O227 Eu211 2.480 . S
O228 Eu211 2.430 1_655 S
O228 C218 1.259 . S
O229 Eu201 2.355 . S
O229 Eu211 2.670 1_655 S
O229 C218 1.270 . S
O230 Eu211 2.394 . S
O230 C219 1.251 . S
O231 Eu201 2.374 1_455 S
O231 C219 1.251 . S
H232 C203 0.931 . S
H233 C204 0.931 . S
H234 C206 0.931 . S
H235 C207 0.931 . S
H236 C213 0.931 . S
H237 C214 0.931 . S
H238 C216 0.931 . S
H239 C217 0.931 . S
C240 Eu241 2.835 . S
C240 C242 1.500 . S
C240 O260 1.257 . S
C240 O261 1.260 . S
Eu241 C240 2.835 . S
Eu241 O260 2.473 . S
Eu241 O261 2.480 . S
Eu241 O262 2.430 1_455 S
Eu241 O263 2.670 1_455 S
Eu241 O264 2.394 . S
Eu241 O269 2.355 . S
Eu241 O271 2.374 1_455 S
C242 C240 1.500 . S
C242 C243 1.377 . S
C242 C247 1.377 . S
C243 C242 1.377 . S
C243 C244 1.395 . S
C243 H272 0.931 . S
C244 C243 1.395 . S
C244 C245 1.383 . S
C244 H273 0.931 . S
C245 C244 1.383 . S
C245 C246 1.394 . S
C246 C245 1.394 . S
C246 C247 1.378 . S
C246 H274 0.931 . S
C247 C242 1.377 . S
C247 C246 1.378 . S
C247 H275 0.931 . S
C248 O262 1.259 . S
C248 O263 1.270 . S
C249 O264 1.251 . S
C249 O265 1.251 . S
C250 Eu251 2.835 . S
C250 C252 1.500 . S
C250 O266 1.257 . S
C250 O267 1.260 . S
Eu251 C250 2.835 . S
Eu251 O263 2.355 . S
Eu251 O265 2.374 1_655 S
Eu251 O266 2.473 . S
Eu251 O267 2.480 . S
Eu251 O268 2.430 1_655 S
Eu251 O269 2.670 1_655 S
Eu251 O270 2.394 . S
C252 C250 1.500 . S
C252 C253 1.377 . S
C252 C257 1.377 . S
C253 C252 1.377 . S
C253 C254 1.395 . S
C253 H276 0.931 . S
C254 C253 1.395 . S
C254 C255 1.383 . S
C254 H277 0.931 . S
C255 C254 1.383 . S
C255 C256 1.394 . S
C256 C255 1.394 . S
C256 C257 1.378 . S
C256 H278 0.931 . S
C257 C252 1.377 . S
C257 C256 1.378 . S
C257 H279 0.931 . S
C258 O268 1.259 . S
C258 O269 1.270 . S
C259 O270 1.251 . S
C259 O271 1.251 . S
O260 C240 1.257 . S
O260 Eu241 2.473 . S
O261 C240 1.260 . S
O261 Eu241 2.480 . S
O262 Eu241 2.430 1_655 S
O262 C248 1.259 . S
O263 Eu241 2.670 1_655 S
O263 C248 1.270 . S
O263 Eu251 2.355 . S
O264 Eu241 2.394 . S
O264 C249 1.251 . S
O265 C249 1.251 . S
O265 Eu251 2.374 1_455 S
O266 C250 1.257 . S
O266 Eu251 2.473 . S
O267 C250 1.260 . S
O267 Eu251 2.480 . S
O268 Eu251 2.430 1_455 S
O268 C258 1.259 . S
O269 Eu241 2.355 . S
O269 Eu251 2.670 1_455 S
O269 C258 1.270 . S
O270 Eu251 2.394 . S
O270 C259 1.251 . S
O271 Eu241 2.374 1_655 S
O271 C259 1.251 . S
H272 C243 0.931 . S
H273 C244 0.931 . S
H274 C246 0.931 . S
H275 C247 0.931 . S
H276 C253 0.931 . S
H277 C254 0.931 . S
H278 C256 0.931 . S
H279 C257 0.931 . S
C280 Eu281 2.835 . S
C280 C282 1.500 . S
C280 O300 1.257 . S
C280 O301 1.260 . S
Eu281 C280 2.835 . S
Eu281 O300 2.473 . S
Eu281 O301 2.480 . S
Eu281 O302 2.430 1_545 S
Eu281 O303 2.670 1_545 S
Eu281 O304 2.394 . S
Eu281 O309 2.355 . S
Eu281 O311 2.374 1_545 S
C282 C280 1.500 . S
C282 C283 1.377 . S
C282 C287 1.377 . S
C283 C282 1.377 . S
C283 C284 1.395 . S
C283 H312 0.931 . S
C284 C283 1.395 . S
C284 C285 1.383 . S
C284 H313 0.931 . S
C285 C284 1.383 . S
C285 C286 1.394 . S
C286 C285 1.394 . S
C286 C287 1.378 . S
C286 H314 0.931 . S
C287 C282 1.377 . S
C287 C286 1.378 . S
C287 H315 0.931 . S
C288 O302 1.259 . S
C288 O303 1.270 . S
C289 O304 1.251 . S
C289 O305 1.251 . S
C290 Eu291 2.835 . S
C290 C292 1.500 . S
C290 O306 1.257 . S
C290 O307 1.260 . S
Eu291 C290 2.835 . S
Eu291 O303 2.355 . S
Eu291 O305 2.374 1_565 S
Eu291 O306 2.473 . S
Eu291 O307 2.480 . S
Eu291 O308 2.430 1_565 S
Eu291 O309 2.670 1_565 S
Eu291 O310 2.394 . S
C292 C290 1.500 . S
C292 C293 1.377 . S
C292 C297 1.377 . S
C293 C292 1.377 . S
C293 C294 1.395 . S
C293 H316 0.931 . S
C294 C293 1.395 . S
C294 C295 1.383 . S
C294 H317 0.931 . S
C295 C294 1.383 . S
C295 C296 1.394 . S
C296 C295 1.394 . S
C296 C297 1.378 . S
C296 H318 0.931 . S
C297 C292 1.377 . S
C297 C296 1.378 . S
C297 H319 0.931 . S
C298 O308 1.259 . S
C298 O309 1.270 . S
C299 O310 1.251 . S
C299 O311 1.251 . S
O300 C280 1.257 . S
O300 Eu281 2.473 . S
O301 C280 1.260 . S
O301 Eu281 2.480 . S
O302 Eu281 2.430 1_565 S
O302 C288 1.259 . S
O303 Eu281 2.670 1_565 S
O303 C288 1.270 . S
O303 Eu291 2.355 . S
O304 Eu281 2.394 . S
O304 C289 1.251 . S
O305 C289 1.251 . S
O305 Eu291 2.374 1_545 S
O306 C290 1.257 . S
O306 Eu291 2.473 . S
O307 C290 1.260 . S
O307 Eu291 2.480 . S
O308 Eu291 2.430 1_545 S
O308 C298 1.259 . S
O309 Eu281 2.355 . S
O309 Eu291 2.670 1_545 S
O309 C298 1.270 . S
O310 Eu291 2.394 . S
O310 C299 1.251 . S
O311 Eu281 2.374 1_565 S
O311 C299 1.251 . S
H312 C283 0.931 . S
H313 C284 0.931 . S
H314 C286 0.931 . S
H315 C287 0.931 . S
H316 C293 0.931 . S
H317 C294 0.931 . S
H318 C296 0.931 . S
H319 C297 0.931 . S
C320 Eu321 2.835 . S
C320 C322 1.500 . S
C320 O340 1.257 . S
C320 O341 1.260 . S
Eu321 C320 2.835 . S
Eu321 O340 2.473 . S
Eu321 O341 2.480 . S
Eu321 O342 2.430 . S
Eu321 O343 2.670 . S
Eu321 O344 2.394 . S
Eu321 O349 2.355 . S
Eu321 O351 2.374 . S
C322 C320 1.500 . S
C322 C323 1.377 . S
C322 C327 1.377 . S
C323 C322 1.377 . S
C323 C324 1.395 . S
C323 H352 0.931 . S
C324 C323 1.395 . S
C324 C325 1.383 . S
C324 H353 0.931 . S
C325 C324 1.383 . S
C325 C326 1.394 . S
C326 C325 1.394 . S
C326 C327 1.378 . S
C326 H354 0.931 . S
C327 C322 1.377 . S
C327 C326 1.378 . S
C327 H355 0.931 . S
C328 O342 1.259 . S
C328 O343 1.270 . S
C329 O344 1.251 . S
C329 O345 1.251 . S
C330 Eu331 2.835 . S
C330 C332 1.500 . S
C330 O346 1.257 . S
C330 O347 1.260 . S
Eu331 C330 2.835 . S
Eu331 O343 2.355 . S
Eu331 O345 2.374 . S
Eu331 O346 2.473 . S
Eu331 O347 2.480 . S
Eu331 O348 2.430 . S
Eu331 O349 2.670 . S
Eu331 O350 2.394 . S
C332 C330 1.500 . S
C332 C333 1.377 . S
C332 C337 1.377 . S
C333 C332 1.377 . S
C333 C334 1.395 . S
C333 H356 0.931 . S
C334 C333 1.395 . S
C334 C335 1.383 . S
C334 H357 0.931 . S
C335 C334 1.383 . S
C335 C336 1.394 . S
C336 C335 1.394 . S
C336 C337 1.378 . S
C336 H358 0.931 . S
C337 C332 1.377 . S
C337 C336 1.378 . S
C337 H359 0.931 . S
C338 O348 1.259 . S
C338 O349 1.270 . S
C339 O350 1.251 . S
C339 O351 1.251 . S
O340 C320 1.257 . S
O340 Eu321 2.473 . S
O341 C320 1.260 . S
O341 Eu321 2.480 . S
O342 Eu321 2.430 . S
O342 C328 1.259 . S
O343 Eu321 2.670 . S
O343 C328 1.270 . S
O343 Eu331 2.355 . S
O344 Eu321 2.394 . S
O344 C329 1.251 . S
O345 C329 1.251 . S
O345 Eu331 2.374 . S
O346 C330 1.257 . S
O346 Eu331 2.473 . S
O347 C330 1.260 . S
O347 Eu331 2.480 . S
O348 Eu331 2.430 . S
O348 C338 1.259 . S
O349 Eu321 2.355 . S
O349 Eu331 2.670 . S
O349 C338 1.270 . S
O350 Eu331 2.394 . S
O350 C339 1.251 . S
O351 Eu321 2.374 . S
O351 C339 1.251 . S
H352 C323 0.931 . S
H353 C324 0.931 . S
H354 C326 0.931 . S
H355 C327 0.931 . S
H356 C333 0.931 . S
H357 C334 0.931 . S
H358 C336 0.931 . S
H359 C337 0.931 . S
C360 Eu361 2.835 . S
C360 C362 1.500 1_556 S
C360 O380 1.257 . S
C360 O381 1.260 1_556 S
Eu361 C360 2.835 . S
Eu361 O380 2.473 . S
Eu361 O381 2.480 1_556 S
Eu361 O382 2.430 1_655 S
Eu361 O383 2.670 1_655 S
Eu361 O384 2.394 . S
Eu361 O389 2.355 . S
Eu361 O391 2.374 1_655 S
C362 C360 1.500 1_554 S
C362 C363 1.377 . S
C362 C367 1.377 . S
C363 C362 1.377 . S
C363 C364 1.395 . S
C363 H392 0.931 . S
C364 C363 1.395 . S
C364 C365 1.383 . S
C364 H393 0.931 . S
C365 C364 1.383 . S
C365 C366 1.394 . S
C366 C365 1.394 . S
C366 C367 1.378 . S
C366 H394 0.931 . S
C367 C362 1.377 . S
C367 C366 1.378 . S
C367 H395 0.931 1_554 S
C368 O382 1.259 . S
C368 O383 1.270 . S
C369 O384 1.251 . S
C369 O385 1.251 . S
C370 Eu371 2.835 . S
C370 C372 1.500 . S
C370 O386 1.257 . S
C370 O387 1.260 . S
Eu371 C370 2.835 . S
Eu371 O383 2.355 . S
Eu371 O385 2.374 1_455 S
Eu371 O386 2.473 . S
Eu371 O387 2.480 . S
Eu371 O388 2.430 1_455 S
Eu371 O389 2.670 1_455 S
Eu371 O390 2.394 . S
C372 C370 1.500 . S
C372 C373 1.377 . S
C372 C377 1.377 . S
C373 C372 1.377 . S
C373 C374 1.395 . S
C373 H396 0.931 . S
C374 C373 1.395 . S
C374 C375 1.383 . S
C374 H397 0.931 . S
C375 C374 1.383 . S
C375 C376 1.394 . S
C376 C375 1.394 . S
C376 C377 1.378 . S
C376 H398 0.931 . S
C377 C372 1.377 . S
C377 C376 1.378 . S
C377 H399 0.931 . S
C378 O388 1.259 . S
C378 O389 1.270 . S
C379 O390 1.251 . S
C379 O391 1.251 . S
O380 C360 1.257 . S
O380 Eu361 2.473 . S
O381 C360 1.260 1_554 S
O381 Eu361 2.480 1_554 S
O382 Eu361 2.430 1_455 S
O382 C368 1.259 . S
O383 Eu361 2.670 1_455 S
O383 C368 1.270 . S
O383 Eu371 2.355 . S
O384 Eu361 2.394 . S
O384 C369 1.251 . S
O385 C369 1.251 . S
O385 Eu371 2.374 1_655 S
O386 C370 1.257 . S
O386 Eu371 2.473 . S
O387 C370 1.260 . S
O387 Eu371 2.480 . S
O388 Eu371 2.430 1_655 S
O388 C378 1.259 . S
O389 Eu361 2.355 . S
O389 Eu371 2.670 1_655 S
O389 C378 1.270 . S
O390 Eu371 2.394 . S
O390 C379 1.251 . S
O391 Eu361 2.374 1_455 S
O391 C379 1.251 . S
H392 C363 0.931 . S
H393 C364 0.931 . S
H394 C366 0.931 . S
H395 C367 0.931 1_556 S
H396 C373 0.931 . S
H397 C374 0.931 . S
H398 C376 0.931 . S
H399 C377 0.931 . S
C400 Eu401 2.835 . S
C400 C402 1.500 . S
C400 O420 1.257 . S
C400 O421 1.260 . S
Eu401 C400 2.835 . S
Eu401 O420 2.473 . S
Eu401 O421 2.480 . S
Eu401 O422 2.430 1_565 S
Eu401 O423 2.670 1_565 S
Eu401 O424 2.394 . S
Eu401 O429 2.355 . S
Eu401 O431 2.374 1_565 S
C402 C400 1.500 . S
C402 C403 1.377 . S
C402 C407 1.377 . S
C403 C402 1.377 . S
C403 C404 1.395 . S
C403 H432 0.931 . S
C404 C403 1.395 . S
C404 C405 1.383 . S
C404 H433 0.931 . S
C405 C404 1.383 . S
C405 C406 1.394 . S
C406 C405 1.394 . S
C406 C407 1.378 . S
C406 H434 0.931 . S
C407 C402 1.377 . S
C407 C406 1.378 . S
C407 H435 0.931 . S
C408 O422 1.259 . S
C408 O423 1.270 . S
C409 O424 1.251 . S
C409 O425 1.251 . S
C410 Eu411 2.835 . S
C410 C412 1.500 . S
C410 O426 1.257 . S
C410 O427 1.260 . S
Eu411 C410 2.835 . S
Eu411 O423 2.355 . S
Eu411 O425 2.374 1_545 S
Eu411 O426 2.473 . S
Eu411 O427 2.480 . S
Eu411 O428 2.430 1_545 S
Eu411 O429 2.670 1_545 S
Eu411 O430 2.394 . S
C412 C410 1.500 . S
C412 C413 1.377 . S
C412 C417 1.377 . S
C413 C412 1.377 . S
C413 C414 1.395 . S
C413 H436 0.931 . S
C414 C413 1.395 . S
C414 C415 1.383 . S
C414 H437 0.931 . S
C415 C414 1.383 . S
C415 C416 1.394 . S
C416 C415 1.394 . S
C416 C417 1.378 . S
C416 H438 0.931 . S
C417 C412 1.377 . S
C417 C416 1.378 . S
C417 H439 0.931 . S
C418 O428 1.259 . S
C418 O429 1.270 . S
C419 O430 1.251 . S
C419 O431 1.251 . S
O420 C400 1.257 . S
O420 Eu401 2.473 . S
O421 C400 1.260 . S
O421 Eu401 2.480 . S
O422 Eu401 2.430 1_545 S
O422 C408 1.259 . S
O423 Eu401 2.670 1_545 S
O423 C408 1.270 . S
O423 Eu411 2.355 . S
O424 Eu401 2.394 . S
O424 C409 1.251 . S
O425 C409 1.251 . S
O425 Eu411 2.374 1_565 S
O426 C410 1.257 . S
O426 Eu411 2.473 . S
O427 C410 1.260 . S
O427 Eu411 2.480 . S
O428 Eu411 2.430 1_565 S
O428 C418 1.259 . S
O429 Eu401 2.355 . S
O429 Eu411 2.670 1_565 S
O429 C418 1.270 . S
O430 Eu411 2.394 . S
O430 C419 1.251 . S
O431 Eu401 2.374 1_545 S
O431 C419 1.251 . S
H432 C403 0.931 . S
H433 C404 0.931 . S
H434 C406 0.931 . S
H435 C407 0.931 . S
H436 C413 0.931 . S
H437 C414 0.931 . S
H438 C416 0.931 . S
H439 C417 0.931 . S
C440 Eu441 2.835 . S
C440 C442 1.500 . S
C440 O460 1.257 . S
C440 O461 1.260 . S
Eu441 C440 2.835 . S
Eu441 O460 2.473 . S
Eu441 O461 2.480 . S
Eu441 O462 2.430 . S
Eu441 O463 2.670 . S
Eu441 O464 2.394 . S
Eu441 O469 2.355 . S
Eu441 O471 2.374 . S
C442 C440 1.500 . S
C442 C443 1.377 . S
C442 C447 1.377 . S
C443 C442 1.377 . S
C443 C444 1.395 . S
C443 H472 0.931 . S
C444 C443 1.395 . S
C444 C445 1.383 . S
C444 H473 0.931 . S
C445 C444 1.383 . S
C445 C446 1.394 . S
C446 C445 1.394 . S
C446 C447 1.378 . S
C446 H474 0.931 . S
C447 C442 1.377 . S
C447 C446 1.378 . S
C447 H475 0.931 . S
C448 O462 1.259 . S
C448 O463 1.270 . S
C449 O464 1.251 . S
C449 O465 1.251 . S
C450 Eu451 2.835 . S
C450 C452 1.500 . S
C450 O466 1.257 . S
C450 O467 1.260 . S
Eu451 C450 2.835 . S
Eu451 O463 2.355 . S
Eu451 O465 2.374 . S
Eu451 O466 2.473 . S
Eu451 O467 2.480 . S
Eu451 O468 2.430 . S
Eu451 O469 2.670 . S
Eu451 O470 2.394 . S
C452 C450 1.500 . S
C452 C453 1.377 . S
C452 C457 1.377 . S
C453 C452 1.377 . S
C453 C454 1.395 . S
C453 H476 0.931 . S
C454 C453 1.395 . S
C454 C455 1.383 . S
C454 H477 0.931 . S
C455 C454 1.383 . S
C455 C456 1.394 . S
C456 C455 1.394 . S
C456 C457 1.378 . S
C456 H478 0.931 . S
C457 C452 1.377 . S
C457 C456 1.378 . S
C457 H479 0.931 . S
C458 O468 1.259 . S
C458 O469 1.270 . S
C459 O470 1.251 . S
C459 O471 1.251 . S
O460 C440 1.257 . S
O460 Eu441 2.473 . S
O461 C440 1.260 . S
O461 Eu441 2.480 . S
O462 Eu441 2.430 . S
O462 C448 1.259 . S
O463 Eu441 2.670 . S
O463 C448 1.270 . S
O463 Eu451 2.355 . S
O464 Eu441 2.394 . S
O464 C449 1.251 . S
O465 C449 1.251 . S
O465 Eu451 2.374 . S
O466 C450 1.257 . S
O466 Eu451 2.473 . S
O467 C450 1.260 . S
O467 Eu451 2.480 . S
O468 Eu451 2.430 . S
O468 C458 1.259 . S
O469 Eu441 2.355 . S
O469 Eu451 2.670 . S
O469 C458 1.270 . S
O470 Eu451 2.394 . S
O470 C459 1.251 . S
O471 Eu441 2.374 . S
O471 C459 1.251 . S
H472 C443 0.931 . S
H473 C444 0.931 . S
H474 C446 0.931 . S
H475 C447 0.931 . S
H476 C453 0.931 . S
H477 C454 0.931 . S
H478 C456 0.931 . S
H479 C457 0.931 . S
C480 C481 1.369 . S
C480 C482 1.419 . S
C480 H484 0.930 . S
C481 C480 1.369 . S
C481 C490 1.429 . S
C482 C480 1.419 . S
C482 C483 1.363 . S
C482 H485 0.929 . S
C483 C482 1.363 . S
C483 C489 1.428 . S
H484 C480 0.930 . S
H485 C482 0.929 . S
S486 N487 1.613 . S
S486 N488 1.610 . S
N487 S486 1.613 . S
N487 C490 1.350 . S
N488 S486 1.610 . S
N488 C489 1.351 . S
C489 C483 1.428 . S
C489 N488 1.351 . S
C489 C490 1.434 . S
C490 C481 1.429 . S
C490 N487 1.350 . S
C490 C489 1.434 . S
C491 C492 1.369 . S
C491 C493 1.419 . S
C491 H495 0.930 1_545 S
C492 C491 1.369 . S
C492 C501 1.429 . S
C493 C491 1.419 . S
C493 C494 1.363 . S
C493 H496 0.929 1_545 S
C494 C493 1.363 . S
C494 C500 1.428 . S
H495 C491 0.930 1_565 S
H496 C493 0.929 1_565 S
S497 N498 1.613 . S
S497 N499 1.610 . S
N498 S497 1.613 . S
N498 C501 1.350 . S
N499 S497 1.610 . S
N499 C500 1.351 . S
C500 C494 1.428 . S
C500 N499 1.351 . S
C500 C501 1.434 . S
C501 C492 1.429 . S
C501 N498 1.350 . S
C501 C500 1.434 . S
C502 C503 1.369 . S
C502 C504 1.419 . S
C502 H506 0.930 . S
C503 C502 1.369 . S
C503 C512 1.429 . S
C504 C502 1.419 . S
C504 C505 1.363 . S
C504 H507 0.929 . S
C505 C504 1.363 . S
C505 C511 1.428 . S
H506 C502 0.930 . S
H507 C504 0.929 . S
S508 N509 1.613 . S
S508 N510 1.610 . S
N509 S508 1.613 . S
N509 C512 1.350 . S
N510 S508 1.610 . S
N510 C511 1.351 . S
C511 C505 1.428 . S
C511 N510 1.351 . S
C511 C512 1.434 . S
C512 C503 1.429 . S
C512 N509 1.350 . S
C512 C511 1.434 . S
C513 C514 1.369 . S
C513 C515 1.419 . S
C513 H517 0.930 . S
C514 C513 1.369 . S
C514 C523 1.429 . S
C515 C513 1.419 . S
C515 C516 1.363 . S
C515 H518 0.929 . S
C516 C515 1.363 . S
C516 C522 1.428 . S
H517 C513 0.930 . S
H518 C515 0.929 . S
S519 N520 1.613 . S
S519 N521 1.610 . S
N520 S519 1.613 . S
N520 C523 1.350 . S
N521 S519 1.610 . S
N521 C522 1.351 . S
C522 C516 1.428 . S
C522 N521 1.351 . S
C522 C523 1.434 . S
C523 C514 1.429 . S
C523 N520 1.350 . S
C523 C522 1.434 . S
C524 C525 1.369 . S
C524 C526 1.419 . S
C524 H528 0.930 1_565 S
C525 C524 1.369 . S
C525 C534 1.429 . S
C526 C524 1.419 . S
C526 C527 1.363 . S
C526 H529 0.929 1_565 S
C527 C526 1.363 . S
C527 C533 1.428 . S
H528 C524 0.930 1_545 S
H529 C526 0.929 1_545 S
S530 N531 1.613 . S
S530 N532 1.610 . S
N531 S530 1.613 . S
N531 C534 1.350 . S
N532 S530 1.610 . S
N532 C533 1.351 . S
C533 C527 1.428 . S
C533 N532 1.351 . S
C533 C534 1.434 . S
C534 C525 1.429 . S
C534 N531 1.350 . S
C534 C533 1.434 . S
C535 C536 1.369 . S
C535 C537 1.419 . S
C535 H539 0.930 . S
C536 C535 1.369 . S
C536 C545 1.429 . S
C537 C535 1.419 . S
C537 C538 1.363 . S
C537 H540 0.929 . S
C538 C537 1.363 . S
C538 C544 1.428 . S
H539 C535 0.930 . S
H540 C537 0.929 . S
S541 N542 1.613 . S
S541 N543 1.610 . S
N542 S541 1.613 . S
N542 C545 1.350 . S
N543 S541 1.610 . S
N543 C544 1.351 . S
C544 C538 1.428 . S
C544 N543 1.351 . S
C544 C545 1.434 . S
C545 C536 1.429 . S
C545 N542 1.350 . S
C545 C544 1.434 . S
C546 C547 1.369 . S
C546 C548 1.419 . S
C546 H550 0.930 . S
C547 C546 1.369 . S
C547 C556 1.429 . S
C548 C546 1.419 . S
C548 C549 1.363 . S
C548 H551 0.929 . S
C549 C548 1.363 . S
C549 C555 1.428 . S
H550 C546 0.930 . S
H551 C548 0.929 . S
S552 N553 1.613 . S
S552 N554 1.610 . S
N553 S552 1.613 . S
N553 C556 1.350 . S
N554 S552 1.610 . S
N554 C555 1.351 . S
C555 C549 1.428 . S
C555 N554 1.351 . S
C555 C556 1.434 . S
C556 C547 1.429 . S
C556 N553 1.350 . S
C556 C555 1.434 . S
C557 C558 1.369 . S
C557 C559 1.419 . S
C557 H561 0.930 . S
C558 C557 1.369 . S
C558 C567 1.429 . S
C559 C557 1.419 . S
C559 C560 1.363 . S
C559 H562 0.929 . S
C560 C559 1.363 . S
C560 C566 1.428 . S
H561 C557 0.930 . S
H562 C559 0.929 . S
S563 N564 1.613 . S
S563 N565 1.610 . S
N564 S563 1.613 . S
N564 C567 1.350 . S
N565 S563 1.610 . S
N565 C566 1.351 . S
C566 C560 1.428 . S
C566 N565 1.351 . S
C566 C567 1.434 . S
C567 C558 1.429 . S
C567 N564 1.350 . S
C567 C566 1.434 . S
C568 C569 1.369 . S
C568 C570 1.419 . S
C568 H572 0.930 1_455 S
C569 C568 1.369 . S
C569 C578 1.429 . S
C570 C568 1.419 . S
C570 C571 1.363 . S
C570 H573 0.929 1_455 S
C571 C570 1.363 . S
C571 C577 1.428 . S
H572 C568 0.930 1_655 S
H573 C570 0.929 1_655 S
S574 N575 1.613 . S
S574 N576 1.610 . S
N575 S574 1.613 . S
N575 C578 1.350 . S
N576 S574 1.610 . S
N576 C577 1.351 . S
C577 C571 1.428 . S
C577 N576 1.351 . S
C577 C578 1.434 . S
C578 C569 1.429 . S
C578 N575 1.350 . S
C578 C577 1.434 . S
C579 C580 1.369 . S
C579 C581 1.419 . S
C579 H583 0.930 . S
C580 C579 1.369 . S
C580 C589 1.429 . S
C581 C579 1.419 . S
C581 C582 1.363 . S
C581 H584 0.929 . S
C582 C581 1.363 . S
C582 C588 1.428 . S
H583 C579 0.930 . S
H584 C581 0.929 . S
S585 N586 1.613 . S
S585 N587 1.610 . S
N586 S585 1.613 . S
N586 C589 1.350 . S
N587 S585 1.610 . S
N587 C588 1.351 . S
C588 C582 1.428 . S
C588 N587 1.351 . S
C588 C589 1.434 . S
C589 C580 1.429 . S
C589 N586 1.350 . S
C589 C588 1.434 . S
C590 C591 1.369 . S
C590 C592 1.419 . S
C590 H594 0.930 . S
C591 C590 1.369 . S
C591 C600 1.429 . S
C592 C590 1.419 . S
C592 C593 1.363 . S
C592 H595 0.929 . S
C593 C592 1.363 . S
C593 C599 1.428 . S
H594 C590 0.930 . S
H595 C592 0.929 . S
S596 N597 1.613 . S
S596 N598 1.610 . S
N597 S596 1.613 . S
N597 C600 1.350 . S
N598 S596 1.610 . S
N598 C599 1.351 . S
C599 C593 1.428 . S
C599 N598 1.351 . S
C599 C600 1.434 . S
C600 C591 1.429 . S
C600 N597 1.350 . S
C600 C599 1.434 . S
C601 C602 1.369 . S
C601 C603 1.419 . S
C601 H605 0.930 . S
C602 C601 1.369 . S
C602 C611 1.429 . S
C603 C601 1.419 . S
C603 C604 1.363 . S
C603 H606 0.929 1_655 S
C604 C603 1.363 . S
C604 C610 1.428 . S
H605 C601 0.930 . S
H606 C603 0.929 1_455 S
S607 N608 1.613 . S
S607 N609 1.610 . S
N608 S607 1.613 . S
N608 C611 1.350 . S
N609 S607 1.610 . S
N609 C610 1.351 . S
C610 C604 1.428 . S
C610 N609 1.351 . S
C610 C611 1.434 . S
C611 C602 1.429 . S
C611 N608 1.350 . S
C611 C610 1.434 . S
C612 C613 1.369 . S
C612 C614 1.419 . S
C612 H616 0.930 . S
C613 C612 1.369 . S
C613 C622 1.429 . S
C614 C612 1.419 . S
C614 C615 1.363 . S
C614 H617 0.929 . S
C615 C614 1.363 . S
C615 C621 1.428 . S
H616 C612 0.930 . S
H617 C614 0.929 . S
S618 N619 1.613 . S
S618 N620 1.610 . S
N619 S618 1.613 . S
N619 C622 1.350 . S
N620 S618 1.610 . S
N620 C621 1.351 . S
C621 C615 1.428 . S
C621 N620 1.351 . S
C621 C622 1.434 . S
C622 C613 1.429 . S
C622 N619 1.350 . S
C622 C621 1.434 . S
C623 C624 1.369 . S
C623 C625 1.419 . S
C623 H627 0.930 . S
C624 C623 1.369 . S
C624 C633 1.429 . S
C625 C623 1.419 . S
C625 C626 1.363 . S
C625 H628 0.929 . S
C626 C625 1.363 . S
C626 C632 1.428 . S
H627 C623 0.930 . S
H628 C625 0.929 . S
S629 N630 1.613 . S
S629 N631 1.610 . S
N630 S629 1.613 . S
N630 C633 1.350 . S
N631 S629 1.610 . S
N631 C632 1.351 . S
C632 C626 1.428 . S
C632 N631 1.351 . S
C632 C633 1.434 . S
C633 C624 1.429 . S
C633 N630 1.350 . S
C633 C632 1.434 . S
C634 C635 1.369 . S
C634 C636 1.419 . S
C634 H638 0.930 . S
C635 C634 1.369 . S
C635 C644 1.429 . S
C636 C634 1.419 . S
C636 C637 1.363 . S
C636 H639 0.929 . S
C637 C636 1.363 . S
C637 C643 1.428 . S
H638 C634 0.930 . S
H639 C636 0.929 . S
S640 N641 1.613 . S
S640 N642 1.610 . S
N641 S640 1.613 . S
N641 C644 1.350 . S
N642 S640 1.610 . S
N642 C643 1.351 . S
C643 C637 1.428 . S
C643 N642 1.351 . S
C643 C644 1.434 . S
C644 C635 1.429 . S
C644 N641 1.350 . S
C644 C643 1.434 . S
C645 C646 1.369 . S
C645 C647 1.419 . S
C645 H649 0.930 . S
C646 C645 1.369 . S
C646 C655 1.429 . S
C647 C645 1.419 . S
C647 C648 1.363 . S
C647 H650 0.929 . S
C648 C647 1.363 . S
C648 C654 1.428 . S
H649 C645 0.930 . S
H650 C647 0.929 . S
S651 N652 1.613 . S
S651 N653 1.610 . S
N652 S651 1.613 . S
N652 C655 1.350 . S
N653 S651 1.610 . S
N653 C654 1.351 . S
C654 C648 1.428 . S
C654 N653 1.351 . S
C654 C655 1.434 . S
C655 C646 1.429 . S
C655 N652 1.350 . S
C655 C654 1.434 . S
C656 C657 1.369 . S
C656 C658 1.419 . S
C656 H660 0.930 . S
C657 C656 1.369 . S
C657 C666 1.429 . S
C658 C656 1.419 . S
C658 C659 1.363 . S
C658 H661 0.929 . S
C659 C658 1.363 . S
C659 C665 1.428 . S
H660 C656 0.930 . S
H661 C658 0.929 . S
S662 N663 1.613 . S
S662 N664 1.610 . S
N663 S662 1.613 . S
N663 C666 1.350 . S
N664 S662 1.610 . S
N664 C665 1.351 . S
C665 C659 1.428 . S
C665 N664 1.351 . S
C665 C666 1.434 . S
C666 C657 1.429 . S
C666 N663 1.350 . S
C666 C665 1.434 . S
C667 C668 1.369 . S
C667 C669 1.419 . S
C667 H671 0.930 . S
C668 C667 1.369 . S
C668 C677 1.429 . S
C669 C667 1.419 . S
C669 C670 1.363 . S
C669 H672 0.929 . S
C670 C669 1.363 . S
C670 C676 1.428 . S
H671 C667 0.930 . S
H672 C669 0.929 . S
S673 N674 1.613 . S
S673 N675 1.610 . S
N674 S673 1.613 . S
N674 C677 1.350 . S
N675 S673 1.610 . S
N675 C676 1.351 . S
C676 C670 1.428 . S
C676 N675 1.351 . S
C676 C677 1.434 . S
C677 C668 1.429 . S
C677 N674 1.350 . S
C677 C676 1.434 . S
C678 C679 1.369 . S
C678 C680 1.419 . S
C678 H682 0.930 . S
C679 C678 1.369 . S
C679 C688 1.429 . S
C680 C678 1.419 . S
C680 C681 1.363 . S
C680 H683 0.929 . S
C681 C680 1.363 . S
C681 C687 1.428 . S
H682 C678 0.930 . S
H683 C680 0.929 . S
S684 N685 1.613 . S
S684 N686 1.610 . S
N685 S684 1.613 . S
N685 C688 1.350 . S
N686 S684 1.610 . S
N686 C687 1.351 . S
C687 C681 1.428 . S
C687 N686 1.351 . S
C687 C688 1.434 . S
C688 C679 1.429 . S
C688 N685 1.350 . S
C688 C687 1.434 . S
C689 C690 1.369 . S
C689 C691 1.419 . S
C689 H693 0.930 . S
C690 C689 1.369 . S
C690 C699 1.429 . S
C691 C689 1.419 . S
C691 C692 1.363 . S
C691 H694 0.929 . S
C692 C691 1.363 . S
C692 C698 1.428 . S
H693 C689 0.930 . S
H694 C691 0.929 . S
S695 N696 1.613 . S
S695 N697 1.610 . S
N696 S695 1.613 . S
N696 C699 1.350 . S
N697 S695 1.610 . S
N697 C698 1.351 . S
C698 C692 1.428 . S
C698 N697 1.351 . S
C698 C699 1.434 . S
C699 C690 1.429 . S
C699 N696 1.350 . S
C699 C698 1.434 . S
C700 C701 1.369 . S
C700 C702 1.419 . S
C700 H704 0.930 . S
C701 C700 1.369 . S
C701 C710 1.429 . S
C702 C700 1.419 . S
C702 C703 1.363 . S
C702 H705 0.929 . S
C703 C702 1.363 . S
C703 C709 1.428 . S
H704 C700 0.930 . S
H705 C702 0.929 . S
S706 N707 1.613 . S
S706 N708 1.610 . S
N707 S706 1.613 . S
N707 C710 1.350 . S
N708 S706 1.610 . S
N708 C709 1.351 . S
C709 C703 1.428 . S
C709 N708 1.351 . S
C709 C710 1.434 . S
C710 C701 1.429 . S
C710 N707 1.350 . S
C710 C709 1.434 . S
C711 C712 1.369 . S
C711 C713 1.419 . S
C711 H715 0.930 . S
C712 C711 1.369 . S
C712 C721 1.429 . S
C713 C711 1.419 . S
C713 C714 1.363 . S
C713 H716 0.929 . S
C714 C713 1.363 . S
C714 C720 1.428 . S
H715 C711 0.930 . S
H716 C713 0.929 . S
S717 N718 1.612 1_554 S
S717 N719 1.608 1_554 S
N718 S717 1.612 1_556 S
N718 C721 1.350 . S
N719 S717 1.608 1_556 S
N719 C720 1.351 . S
C720 C714 1.428 . S
C720 N719 1.351 . S
C720 C721 1.434 . S
C721 C712 1.429 . S
C721 N718 1.350 . S
C721 C720 1.434 . S
C722 C723 1.369 . S
C722 C724 1.419 . S
C722 H726 0.930 . S
C723 C722 1.369 . S
C723 C732 1.429 . S
C724 C722 1.419 . S
C724 C725 1.363 . S
C724 H727 0.929 . S
C725 C724 1.363 . S
C725 C731 1.428 . S
H726 C722 0.930 . S
H727 C724 0.929 . S
S728 N729 1.613 . S
S728 N730 1.610 . S
N729 S728 1.613 . S
N729 C732 1.350 . S
N730 S728 1.610 . S
N730 C731 1.351 . S
C731 C725 1.428 . S
C731 N730 1.351 . S
C731 C732 1.434 . S
C732 C723 1.429 . S
C732 N729 1.350 . S
C732 C731 1.434 . S
C733 C734 1.369 . S
C733 C735 1.419 . S
C733 H737 0.930 . S
C734 C733 1.369 . S
C734 C743 1.429 . S
C735 C733 1.419 . S
C735 C736 1.363 . S
C735 H738 0.929 . S
C736 C735 1.363 . S
C736 C742 1.428 . S
H737 C733 0.930 . S
H738 C735 0.929 . S
S739 N740 1.613 . S
S739 N741 1.610 . S
N740 S739 1.613 . S
N740 C743 1.350 . S
N741 S739 1.610 . S
N741 C742 1.351 . S
C742 C736 1.428 . S
C742 N741 1.351 . S
C742 C743 1.434 . S
C743 C734 1.429 . S
C743 N740 1.350 . S
C743 C742 1.434 . S
C744 C745 1.369 . S
C744 C746 1.419 . S
C744 H748 0.930 . S
C745 C744 1.369 . S
C745 C754 1.429 . S
C746 C744 1.419 . S
C746 C747 1.363 . S
C746 H749 0.929 . S
C747 C746 1.363 . S
C747 C753 1.428 . S
H748 C744 0.930 . S
H749 C746 0.929 . S
S750 N751 1.613 . S
S750 N752 1.610 . S
N751 S750 1.613 . S
N751 C754 1.350 . S
N752 S750 1.610 . S
N752 C753 1.351 . S
C753 C747 1.428 . S
C753 N752 1.351 . S
C753 C754 1.434 . S
C754 C745 1.429 . S
C754 N751 1.350 . S
C754 C753 1.434 . S
C755 C756 1.369 . S
C755 C757 1.419 . S
C755 H759 0.930 . S
C756 C755 1.369 . S
C756 C765 1.429 . S
C757 C755 1.419 . S
C757 C758 1.363 . S
C757 H760 0.929 . S
C758 C757 1.363 . S
C758 C764 1.428 . S
H759 C755 0.930 . S
H760 C757 0.929 . S
S761 N762 1.613 . S
S761 N763 1.610 . S
N762 S761 1.613 . S
N762 C765 1.350 . S
N763 S761 1.610 . S
N763 C764 1.351 . S
C764 C758 1.428 . S
C764 N763 1.351 . S
C764 C765 1.434 . S
C765 C756 1.429 . S
C765 N762 1.350 . S
C765 C764 1.434 . S
C766 C767 1.369 . S
C766 C768 1.419 . S
C766 H770 0.930 . S
C767 C766 1.369 . S
C767 C776 1.429 . S
C768 C766 1.419 . S
C768 C769 1.363 . S
C768 H771 0.929 . S
C769 C768 1.363 . S
C769 C775 1.428 . S
H770 C766 0.930 . S
H771 C768 0.929 . S
S772 N773 1.613 . S
S772 N774 1.610 . S
N773 S772 1.613 . S
N773 C776 1.350 . S
N774 S772 1.610 . S
N774 C775 1.351 . S
C775 C769 1.428 . S
C775 N774 1.351 . S
C775 C776 1.434 . S
C776 C767 1.429 . S
C776 N773 1.350 . S
C776 C775 1.434 . S
C777 C778 1.369 . S
C777 C779 1.419 . S
C777 H781 0.930 . S
C778 C777 1.369 . S
C778 C787 1.429 . S
C779 C777 1.419 . S
C779 C780 1.363 . S
C779 H782 0.929 . S
C780 C779 1.363 . S
C780 C786 1.428 . S
H781 C777 0.930 . S
H782 C779 0.929 . S
S783 N784 1.613 . S
S783 N785 1.610 . S
N784 S783 1.613 . S
N784 C787 1.350 . S
N785 S783 1.610 . S
N785 C786 1.351 . S
C786 C780 1.428 . S
C786 N785 1.351 . S
C786 C787 1.434 . S
C787 C778 1.429 . S
C787 N784 1.350 . S
C787 C786 1.434 . S
C788 C789 1.369 . S
C788 C790 1.419 . S
C788 H792 0.930 . S
C789 C788 1.369 . S
C789 C798 1.429 . S
C790 C788 1.419 . S
C790 C791 1.363 . S
C790 H793 0.929 . S
C791 C790 1.363 . S
C791 C797 1.428 . S
H792 C788 0.930 . S
H793 C790 0.929 . S
S794 N795 1.613 . S
S794 N796 1.610 . S
N795 S794 1.613 . S
N795 C798 1.350 . S
N796 S794 1.610 . S
N796 C797 1.351 . S
C797 C791 1.428 . S
C797 N796 1.351 . S
C797 C798 1.434 . S
C798 C789 1.429 . S
C798 N795 1.350 . S
C798 C797 1.434 . S
C799 C800 1.369 . S
C799 C801 1.419 . S
C799 H803 0.930 . S
C800 C799 1.369 . S
C800 C809 1.429 . S
C801 C799 1.419 . S
C801 C802 1.363 . S
C801 H804 0.929 . S
C802 C801 1.363 . S
C802 C808 1.428 . S
H803 C799 0.930 . S
H804 C801 0.929 . S
S805 N806 1.613 . S
S805 N807 1.610 . S
N806 S805 1.613 . S
N806 C809 1.350 . S
N807 S805 1.610 . S
N807 C808 1.351 . S
C808 C802 1.428 . S
C808 N807 1.351 . S
C808 C809 1.434 . S
C809 C800 1.429 . S
C809 N806 1.350 . S
C809 C808 1.434 . S
C810 C811 1.369 . S
C810 C812 1.419 . S
C810 H814 0.930 . S
C811 C810 1.369 . S
C811 C820 1.429 . S
C812 C810 1.419 . S
C812 C813 1.363 . S
C812 H815 0.929 . S
C813 C812 1.363 . S
C813 C819 1.428 . S
H814 C810 0.930 . S
H815 C812 0.929 . S
S816 N817 1.613 . S
S816 N818 1.610 . S
N817 S816 1.613 . S
N817 C820 1.350 . S
N818 S816 1.610 . S
N818 C819 1.351 . S
C819 C813 1.428 . S
C819 N818 1.351 . S
C819 C820 1.434 . S
C820 C811 1.429 . S
C820 N817 1.350 . S
C820 C819 1.434 . S
C821 C822 1.369 . S
C821 C823 1.419 . S
C821 H825 0.930 . S
C822 C821 1.369 . S
C822 C831 1.429 . S
C823 C821 1.419 . S
C823 C824 1.363 . S
C823 H826 0.929 . S
C824 C823 1.363 . S
C824 C830 1.428 . S
H825 C821 0.930 . S
H826 C823 0.929 . S
S827 N828 1.613 . S
S827 N829 1.610 . S
N828 S827 1.613 . S
N828 C831 1.350 . S
N829 S827 1.610 . S
N829 C830 1.351 . S
C830 C824 1.428 . S
C830 N829 1.351 . S
C830 C831 1.434 . S
C831 C822 1.429 . S
C831 N828 1.350 . S
C831 C830 1.434 . S
C832 C833 1.369 . S
C832 C834 1.419 . S
C832 H836 0.930 . S
C833 C832 1.369 . S
C833 C842 1.429 . S
C834 C832 1.419 . S
C834 C835 1.363 . S
C834 H837 0.929 . S
C835 C834 1.363 . S
C835 C841 1.428 . S
H836 C832 0.930 . S
H837 C834 0.929 . S
S838 N839 1.613 . S
S838 N840 1.610 . S
N839 S838 1.613 . S
N839 C842 1.350 . S
N840 S838 1.610 . S
N840 C841 1.351 . S
C841 C835 1.428 . S
C841 N840 1.351 . S
C841 C842 1.434 . S
C842 C833 1.429 . S
C842 N839 1.350 . S
C842 C841 1.434 . S
C843 C844 1.369 . S
C843 C845 1.419 . S
C843 H847 0.930 . S
C844 C843 1.369 . S
C844 C853 1.429 . S
C845 C843 1.419 . S
C845 C846 1.363 . S
C845 H848 0.929 . S
C846 C845 1.363 . S
C846 C852 1.428 . S
H847 C843 0.930 . S
H848 C845 0.929 . S
S849 N850 1.613 . S
S849 N851 1.610 . S
N850 S849 1.613 . S
N850 C853 1.350 . S
N851 S849 1.610 . S
N851 C852 1.351 . S
C852 C846 1.428 . S
C852 N851 1.351 . S
C852 C853 1.434 . S
C853 C844 1.429 . S
C853 N850 1.350 . S
C853 C852 1.434 . S
C854 C855 1.369 . S
C854 C856 1.419 . S
C854 H858 0.930 . S
C855 C854 1.369 . S
C855 C864 1.429 . S
C856 C854 1.419 . S
C856 C857 1.363 . S
C856 H859 0.929 . S
C857 C856 1.363 . S
C857 C863 1.428 . S
H858 C854 0.930 . S
H859 C856 0.929 . S
S860 N861 1.613 . S
S860 N862 1.610 . S
N861 S860 1.613 . S
N861 C864 1.350 . S
N862 S860 1.610 . S
N862 C863 1.351 . S
C863 C857 1.428 . S
C863 N862 1.351 . S
C863 C864 1.434 . S
C864 C855 1.429 . S
C864 N861 1.350 . S
C864 C863 1.434 . S
C865 C866 1.369 . S
C865 C867 1.419 . S
C865 H869 0.930 . S
C866 C865 1.369 . S
C866 C875 1.429 . S
C867 C865 1.419 . S
C867 C868 1.363 . S
C867 H870 0.929 . S
C868 C867 1.363 . S
C868 C874 1.428 . S
H869 C865 0.930 . S
H870 C867 0.929 . S
S871 N872 1.613 . S
S871 N873 1.610 . S
N872 S871 1.613 . S
N872 C875 1.350 . S
N873 S871 1.610 . S
N873 C874 1.351 . S
C874 C868 1.428 . S
C874 N873 1.351 . S
C874 C875 1.434 . S
C875 C866 1.429 . S
C875 N872 1.350 . S
C875 C874 1.434 . S
C481 C219 1.787 . S
C483 C5 1.834 . S
C492 C45 2.190 . S
C494 C19 2.130 . S
C503 C85 2.043 . S
C505 C59 2.004 . S
C514 C99 1.790 . S
C516 C125 1.832 . S
C525 C139 2.131 . S
C527 C165 2.191 . S
C536 C205 2.038 . S
C538 C179 2.008 . S
C547 C299 1.789 . S
C549 C245 1.832 . S
C558 C285 2.036 . S
C560 C339 2.009 . S
C569 C379 2.128 . S
C571 C325 2.194 . S
C580 C419 1.784 . S
C582 C365 1.835 . S
C591 C459 2.010 . S
C593 C405 2.038 . S
C602 C259 2.125 . S
C604 C445 2.195 . S
C613 C448 3.626 . S
C615 C9 3.743 . S
C624 C49 2.843 . S
C626 C248 2.782 . S
C635 C288 3.171 . S
C637 C89 3.297 . S
C646 C328 3.627 . S
C648 C129 3.742 . S
C657 C368 2.783 . S
C659 C169 2.843 . S
C668 C209 3.299 . S
C670 C408 3.171 . S
C679 C249 3.741 . S
C681 C48 3.629 . S
C690 C289 3.298 . S
C692 C88 3.170 . S
C701 C128 2.779 . S
C703 C329 2.839 . S
C712 C168 3.627 . S
C714 C369 3.743 . S
C723 C409 3.296 . S
C725 C208 3.170 . S
C734 C449 2.844 . S
C736 C8 2.782 . S
C745 C258 3.566 . S
C747 C18 3.570 . S
C756 C58 2.457 . S
C758 C298 2.466 . S
C767 C338 2.458 . S
C769 C98 2.466 . S
C778 C138 3.567 . S
C780 C378 3.569 . S
C789 C418 2.469 . S
C791 C178 2.454 . S
C800 C458 2.456 . S
C802 C218 2.468 . S
C811 C255 0.755 . S
C813 C15 0.781 . S
C822 C295 0.854 . S
C824 C55 0.815 . S
C833 C335 0.811 . S
C835 C95 0.853 . S
C844 C135 0.768 . S
C846 C375 0.773 . S
C855 C415 0.828 . S
C857 C175 0.836 . S
C866 C455 0.837 . S
C868 C215 0.832 . S
