# Generated by pormake.
# Topology wji, (4)-cn, num edge types: 1
# Building blocks:
#     Node 0, Type 0, BuildingBlock: UXUYUI_clean_sbu_0, # of connection points: 4
#     Node 1, Type 0, BuildingBlock: UXUYUI_clean_sbu_0, # of connection points: 4
#     Node 2, Type 0, BuildingBlock: UXUYUI_clean_sbu_0, # of connection points: 4
#     Node 3, Type 0, BuildingBlock: UXUYUI_clean_sbu_0, # of connection points: 4
#     Node 4, Type 0, BuildingBlock: UXUYUI_clean_sbu_0, # of connection points: 4
#     Node 5, Type 0, BuildingBlock: UXUYUI_clean_sbu_0, # of connection points: 4
#     Node 6, Type 0, BuildingBlock: UXUYUI_clean_sbu_0, # of connection points: 4
#     Node 7, Type 0, BuildingBlock: UXUYUI_clean_sbu_0, # of connection points: 4
#     Node 8, Type 0, BuildingBlock: UXUYUI_clean_sbu_0, # of connection points: 4
#     Node 9, Type 0, BuildingBlock: UXUYUI_clean_sbu_0, # of connection points: 4
#     Node 10, Type 0, BuildingBlock: UXUYUI_clean_sbu_0, # of connection points: 4
#     Node 11, Type 0, BuildingBlock: UXUYUI_clean_sbu_0, # of connection points: 4
#     Edge 12, Type (0, 0), BuildingBlock: OJICUG_clean_linker_0, # of connection points: 2
#     Edge 13, Type (0, 0), BuildingBlock: OJICUG_clean_linker_0, # of connection points: 2
#     Edge 14, Type (0, 0), BuildingBlock: OJICUG_clean_linker_0, # of connection points: 2
#     Edge 15, Type (0, 0), BuildingBlock: OJICUG_clean_linker_0, # of connection points: 2
#     Edge 16, Type (0, 0), BuildingBlock: OJICUG_clean_linker_0, # of connection points: 2
#     Edge 17, Type (0, 0), BuildingBlock: OJICUG_clean_linker_0, # of connection points: 2
#     Edge 18, Type (0, 0), BuildingBlock: OJICUG_clean_linker_0, # of connection points: 2
#     Edge 19, Type (0, 0), BuildingBlock: OJICUG_clean_linker_0, # of connection points: 2
#     Edge 20, Type (0, 0), BuildingBlock: OJICUG_clean_linker_0, # of connection points: 2
#     Edge 21, Type (0, 0), BuildingBlock: OJICUG_clean_linker_0, # of connection points: 2
#     Edge 22, Type (0, 0), BuildingBlock: OJICUG_clean_linker_0, # of connection points: 2
#     Edge 23, Type (0, 0), BuildingBlock: OJICUG_clean_linker_0, # of connection points: 2
#     Edge 24, Type (0, 0), BuildingBlock: OJICUG_clean_linker_0, # of connection points: 2
#     Edge 25, Type (0, 0), BuildingBlock: OJICUG_clean_linker_0, # of connection points: 2
#     Edge 26, Type (0, 0), BuildingBlock: OJICUG_clean_linker_0, # of connection points: 2
#     Edge 27, Type (0, 0), BuildingBlock: OJICUG_clean_linker_0, # of connection points: 2
#     Edge 28, Type (0, 0), BuildingBlock: OJICUG_clean_linker_0, # of connection points: 2
#     Edge 29, Type (0, 0), BuildingBlock: OJICUG_clean_linker_0, # of connection points: 2
#     Edge 30, Type (0, 0), BuildingBlock: OJICUG_clean_linker_0, # of connection points: 2
#     Edge 31, Type (0, 0), BuildingBlock: OJICUG_clean_linker_0, # of connection points: 2
#     Edge 32, Type (0, 0), BuildingBlock: OJICUG_clean_linker_0, # of connection points: 2
#     Edge 33, Type (0, 0), BuildingBlock: OJICUG_clean_linker_0, # of connection points: 2
#     Edge 34, Type (0, 0), BuildingBlock: OJICUG_clean_linker_0, # of connection points: 2
#     Edge 35, Type (0, 0), BuildingBlock: OJICUG_clean_linker_0, # of connection points: 2
# Relax obj value: 0.267
# Max RMSD: 0.141
# Mean RMSD: 0.141
data_MOF--net-wji--node1-UXUYUI_clean_sbu_0--edge1-OJICUG_clean_linker_0
_symmetry_space_group_name_H-M    P1
_symmetry_Int_Tables_number       1
_symmetry_cell_setting            triclinic
loop_
_symmetry_equiv_pos_as_xyz
'x, y, z'
_cell_length_a     68.406894
_cell_length_b     68.38677
_cell_length_c     27.283466
_cell_angle_alpha  89.998377
_cell_angle_beta   89.999981
_cell_angle_gamma 120.00557
loop_
_atom_site_label
_atom_site_type_symbol
_atom_site_fract_x
_atom_site_fract_y
_atom_site_fract_z
_atom_type_partial_charge
Li0 Li 0.40976 0.32642 0.45212 0.0
Li1 Li 0.41667 0.29658 0.41992 0.0
Li2 Li 0.44415 0.33785 0.40316 0.0
Li3 Li 0.40729 0.31883 0.36136 0.0
C4 C 0.44153 0.32546 0.5145 0.0
N5 N 0.45414 0.33361 0.61198 0.0
C6 C 0.43514 0.30745 0.54703 0.0
C7 C 0.45445 0.34761 0.53162 0.0
C8 C 0.44166 0.31192 0.59614 0.0
C9 C 0.46061 0.35138 0.58101 0.0
C10 C 0.36832 0.27948 0.41803 0.0
C11 C 0.33829 0.24641 0.37912 0.0
N12 N 0.32693 0.24026 0.42244 0.0
C13 C 0.35631 0.2729 0.4621 0.0
C14 C 0.35922 0.26621 0.37611 0.0
C15 C 0.33543 0.25298 0.4636 0.0
C16 C 0.39026 0.3497 0.49561 0.0
N17 N 0.39677 0.33422 0.50417 0.0
C18 C 0.38585 0.33123 0.5881 0.0
C19 C 0.39405 0.32444 0.54884 0.0
C20 C 0.37967 0.34777 0.58095 0.0
C21 C 0.38154 0.35669 0.53359 0.0
H22 H 0.39194 0.35668 0.45928 0.0
H23 H 0.39831 0.3114 0.55416 0.0
C24 C 0.4356 0.2716 0.45579 0.0
N25 N 0.41539 0.26931 0.44247 0.0
C26 C 0.43644 0.25534 0.48542 0.0
C27 C 0.39572 0.23375 0.4839 0.0
C28 C 0.39566 0.25045 0.45447 0.0
C29 C 0.41628 0.23648 0.50136 0.0
H30 H 0.45104 0.2869 0.44644 0.0
H31 H 0.37976 0.24883 0.44386 0.0
C32 C 0.43179 0.37089 0.39366 0.0
N33 N 0.4526 0.41737 0.38688 0.0
C34 C 0.4329 0.38113 0.34862 0.0
C35 C 0.44096 0.38427 0.43538 0.0
C36 C 0.44357 0.40466 0.3459 0.0
C37 C 0.45149 0.40774 0.43118 0.0
C38 C 0.42937 0.29969 0.31437 0.0
C39 C 0.44258 0.31033 0.27317 0.0
C40 C 0.41296 0.27684 0.31217 0.0
C41 C 0.43892 0.29794 0.23005 0.0
C42 C 0.40982 0.26503 0.26839 0.0
N43 N 0.42274 0.27574 0.22856 0.0
C44 C 0.48977 0.36065 0.43278 0.0
C45 C 0.48224 0.3771 0.36424 0.0
C46 C 0.51177 0.37886 0.43591 0.0
N47 N 0.47527 0.36052 0.39853 0.0
C48 C 0.50412 0.39566 0.36597 0.0
C49 C 0.51901 0.39701 0.40308 0.0
H50 H 0.48404 0.34693 0.45874 0.0
H51 H 0.47059 0.37632 0.33654 0.0
C52 C 0.36953 0.31508 0.31178 0.0
N53 N 0.39131 0.3203 0.30496 0.0
C54 C 0.35814 0.31993 0.27551 0.0
C55 C 0.3917 0.33529 0.22542 0.0
C56 C 0.40239 0.32998 0.26257 0.0
C57 C 0.36938 0.33073 0.232 0.0
H58 H 0.36129 0.3081 0.34638 0.0
H59 H 0.41998 0.33488 0.25875 0.0
O60 O 0.43536 0.32141 0.46614 0.0
O61 O 0.38876 0.29894 0.41591 0.0
O62 O 0.42153 0.34788 0.39692 0.0
O63 O 0.43263 0.3116 0.35673 0.0
H64 H 0.42486 0.2902 0.53485 0.0
H65 H 0.45983 0.36176 0.50702 0.0
H66 H 0.4367 0.29814 0.62171 0.0
H67 H 0.4706 0.36844 0.59468 0.0
H68 H 0.33105 0.23596 0.34699 0.0
H69 H 0.3631 0.28301 0.49483 0.0
H70 H 0.36818 0.27118 0.34158 0.0
H71 H 0.32598 0.24763 0.49749 0.0
H72 H 0.38483 0.32387 0.62379 0.0
H73 H 0.37635 0.36895 0.52581 0.0
H74 H 0.45269 0.25798 0.49727 0.0
H75 H 0.37974 0.21956 0.49532 0.0
H76 H 0.42576 0.37105 0.31601 0.0
H77 H 0.4398 0.37663 0.47069 0.0
H78 H 0.44469 0.41281 0.31121 0.0
H79 H 0.45873 0.41829 0.46316 0.0
H80 H 0.45543 0.32801 0.27446 0.0
H81 H 0.40278 0.26831 0.34391 0.0
H82 H 0.44893 0.30598 0.19777 0.0
H83 H 0.39713 0.24734 0.26608 0.0
H84 H 0.52286 0.37894 0.46435 0.0
H85 H 0.50894 0.40925 0.33987 0.0
H86 H 0.34089 0.31581 0.28218 0.0
H87 H 0.40127 0.344 0.19308 0.0
Li88 Li 0.11546 0.4144 0.59498 0.0
Li89 Li 0.07896 0.40873 0.62218 0.0
Li90 Li 0.08476 0.40404 0.53456 0.0
Li91 Li 0.10283 0.44178 0.57105 0.0
C92 C 0.08767 0.36856 0.5744 0.0
N93 N 0.09205 0.33317 0.53848 0.0
C94 C 0.07343 0.3466 0.59123 0.0
C95 C 0.10412 0.37254 0.53924 0.0
C96 C 0.07591 0.32893 0.57264 0.0
C97 C 0.10607 0.35442 0.52156 0.0
C98 C 0.11211 0.44443 0.68059 0.0
C99 C 0.10431 0.467 0.73645 0.0
N100 N 0.11758 0.46492 0.77077 0.0
C101 C 0.12583 0.44268 0.71625 0.0
C102 C 0.10138 0.45681 0.69061 0.0
C103 C 0.12832 0.45309 0.76168 0.0
C104 C 0.16145 0.42778 0.61745 0.0
N105 N 0.13947 0.41147 0.62274 0.0
C106 C 0.14926 0.39338 0.68528 0.0
C107 C 0.1332 0.39437 0.65548 0.0
C108 C 0.17205 0.4103 0.68189 0.0
C109 C 0.17813 0.42748 0.64673 0.0
H110 H 0.16588 0.44155 0.59211 0.0
H111 H 0.11552 0.38213 0.66038 0.0
C112 C 0.03596 0.38889 0.6656 0.0
N113 N 0.05833 0.39748 0.67453 0.0
C114 C 0.02049 0.38046 0.70413 0.0
C115 C 0.05142 0.3897 0.75995 0.0
C116 C 0.06619 0.39753 0.72029 0.0
C117 C 0.02832 0.38111 0.75195 0.0
H118 H 0.03016 0.38857 0.62858 0.0
H119 H 0.0839 0.4035 0.726 0.0
C120 C 0.12317 0.43832 0.48328 0.0
N121 N 0.13433 0.45816 0.39171 0.0
C122 C 0.10839 0.44339 0.45855 0.0
C123 C 0.14365 0.44332 0.46151 0.0
C124 C 0.11432 0.45343 0.41228 0.0
C125 C 0.14898 0.45335 0.41515 0.0
C126 C 0.05553 0.42717 0.55612 0.0
C127 C 0.04653 0.42545 0.50923 0.0
C128 C 0.04909 0.43642 0.59421 0.0
C129 C 0.03157 0.43341 0.50107 0.0
C130 C 0.03408 0.44419 0.58457 0.0
N131 N 0.02572 0.44256 0.53858 0.0
C132 C 0.04508 0.37272 0.49163 0.0
C133 C 0.07456 0.38828 0.43299 0.0
C134 C 0.02908 0.3614 0.45501 0.0
N135 N 0.06721 0.3863 0.48004 0.0
C136 C 0.05904 0.37737 0.39502 0.0
C137 C 0.03586 0.36414 0.40574 0.0
H138 H 0.03971 0.37157 0.52934 0.0
H139 H 0.09226 0.39894 0.4246 0.0
C140 C 0.12896 0.48827 0.5928 0.0
N141 N 0.11183 0.4731 0.56398 0.0
C142 C 0.13371 0.51064 0.59556 0.0
C143 C 0.10419 0.5018 0.53635 0.0
C144 C 0.09991 0.4796 0.53501 0.0
C145 C 0.12089 0.51752 0.56788 0.0
H146 H 0.13835 0.48277 0.61519 0.0
H147 H 0.0865 0.46745 0.51205 0.0
O148 O 0.08529 0.38596 0.59215 0.0
O149 O 0.1094 0.4342 0.63601 0.0
O150 O 0.11776 0.42849 0.5286 0.0
O151 O 0.07027 0.41952 0.56471 0.0
H152 H 0.06058 0.34326 0.61837 0.0
H153 H 0.1153 0.38939 0.52572 0.0
H154 H 0.06501 0.31184 0.58534 0.0
H155 H 0.11873 0.35724 0.49438 0.0
H156 H 0.09607 0.47662 0.7447 0.0
H157 H 0.13437 0.43326 0.70905 0.0
H158 H 0.09108 0.45871 0.66316 0.0
H159 H 0.13878 0.45177 0.78971 0.0
H160 H 0.14366 0.38008 0.71239 0.0
H161 H 0.19551 0.44078 0.64256 0.0
H162 H 0.0027 0.37382 0.69685 0.0
H163 H 0.0579 0.39003 0.79636 0.0
H164 H 0.09239 0.43932 0.47464 0.0
H165 H 0.15527 0.43947 0.48025 0.0
H166 H 0.10299 0.45737 0.39267 0.0
H167 H 0.16476 0.45731 0.39781 0.0
H168 H 0.05115 0.41819 0.47931 0.0
H169 H 0.05544 0.43742 0.63092 0.0
H170 H 0.0246 0.43231 0.46491 0.0
H171 H 0.02901 0.45144 0.6137 0.0
H172 H 0.01142 0.3516 0.46504 0.0
H173 H 0.06505 0.37968 0.35757 0.0
H174 H 0.14696 0.5223 0.61982 0.0
H175 H 0.09377 0.50629 0.51461 0.0
Li176 Li 0.70233 0.11748 0.76006 0.0
Li177 Li 0.67144 0.08065 0.78601 0.0
Li178 Li 0.68087 0.08732 0.69786 0.0
Li179 Li 0.66137 0.10473 0.73918 0.0
C180 C 0.72015 0.08878 0.74156 0.0
N181 N 0.76072 0.09172 0.71704 0.0
C182 C 0.72994 0.07991 0.7729 0.0
C183 C 0.73087 0.09895 0.69758 0.0
C184 C 0.7505 0.08163 0.75991 0.0
C185 C 0.7514 0.10032 0.68587 0.0
C186 C 0.67346 0.10964 0.85363 0.0
C187 C 0.64928 0.10053 0.92439 0.0
N188 N 0.66735 0.10642 0.95409 0.0
C189 C 0.69182 0.11573 0.8849 0.0
C190 C 0.65203 0.1021 0.87354 0.0
C191 C 0.68838 0.11395 0.93556 0.0
C192 C 0.72631 0.16003 0.80202 0.0
N193 N 0.72917 0.1428 0.78596 0.0
C194 C 0.76446 0.15821 0.82834 0.0
C195 C 0.74807 0.14192 0.79749 0.0
C196 C 0.7613 0.17545 0.84798 0.0
C197 C 0.74221 0.1766 0.83314 0.0
H198 H 0.71087 0.16002 0.7934 0.0
H199 H 0.74999 0.12801 0.78519 0.0
C200 C 0.64149 0.04142 0.83908 0.0
N201 N 0.66282 0.05931 0.83711 0.0
C202 C 0.63479 0.02649 0.87843 0.0
C203 C 0.67247 0.04807 0.91188 0.0
C204 C 0.67844 0.06256 0.87174 0.0
C205 C 0.65027 0.02995 0.91588 0.0
H206 H 0.62963 0.03872 0.81028 0.0
H207 H 0.69544 0.07668 0.8686 0.0
C208 C 0.69605 0.13038 0.65252 0.0
N209 N 0.7108 0.15206 0.5634 0.0
C210 C 0.6805 0.12949 0.6181 0.0
C211 C 0.71913 0.14274 0.64212 0.0
C212 C 0.68828 0.14043 0.5731 0.0
C213 C 0.72625 0.15346 0.59671 0.0
C214 C 0.62809 0.06095 0.72155 0.0
C215 C 0.61931 0.04979 0.67712 0.0
C216 C 0.61341 0.06081 0.75741 0.0
C217 C 0.59603 0.03889 0.66913 0.0
C218 C 0.59024 0.04976 0.748 0.0
N219 N 0.5821 0.03913 0.7044 0.0
C220 C 0.68467 0.05377 0.64636 0.0
C221 C 0.67046 0.07265 0.59798 0.0
C222 C 0.67911 0.03742 0.60999 0.0
N223 N 0.68 0.07077 0.64015 0.0
C224 C 0.66434 0.05649 0.5609 0.0
C225 C 0.66811 0.03823 0.56727 0.0
H226 H 0.69138 0.05201 0.68089 0.0
H227 H 0.66597 0.08563 0.59454 0.0
C228 C 0.63826 0.12718 0.76915 0.0
N229 N 0.63937 0.114 0.73318 0.0
C230 C 0.61996 0.1309 0.77136 0.0
C231 C 0.60491 0.10832 0.69813 0.0
C232 C 0.62372 0.10544 0.69676 0.0
C233 C 0.60266 0.12071 0.7365 0.0
H234 H 0.65104 0.13395 0.79742 0.0
H235 H 0.62514 0.09528 0.66819 0.0
O236 O 0.70003 0.0872 0.75382 0.0
O237 O 0.67644 0.11097 0.80384 0.0
O238 O 0.68878 0.12008 0.69705 0.0
O239 O 0.65092 0.0721 0.72962 0.0
H240 H 0.72178 0.07186 0.80697 0.0
H241 H 0.7233 0.10547 0.67254 0.0
H242 H 0.75833 0.07493 0.78389 0.0
H243 H 0.75988 0.10815 0.65193 0.0
H244 H 0.63277 0.09464 0.94025 0.0
H245 H 0.7085 0.12139 0.87034 0.0
H246 H 0.63766 0.09754 0.85008 0.0
H247 H 0.70241 0.11844 0.96012 0.0
H248 H 0.77909 0.15685 0.83798 0.0
H249 H 0.73885 0.18936 0.84765 0.0
H250 H 0.61767 0.01238 0.87953 0.0
H251 H 0.6849 0.05135 0.94003 0.0
H252 H 0.6626 0.1203 0.62592 0.0
H253 H 0.73143 0.14416 0.66895 0.0
H254 H 0.67642 0.1397 0.54593 0.0
H255 H 0.74405 0.16298 0.58805 0.0
H256 H 0.6303 0.04948 0.64911 0.0
H257 H 0.61988 0.0693 0.79198 0.0
H258 H 0.58903 0.03023 0.63485 0.0
H259 H 0.57875 0.04969 0.77532 0.0
H260 H 0.68201 0.02347 0.61672 0.0
H261 H 0.6559 0.05773 0.52847 0.0
H262 H 0.61871 0.14053 0.80149 0.0
H263 H 0.59192 0.10037 0.67044 0.0
Li264 Li 0.59191 0.67419 0.95307 0.0
Li265 Li 0.58563 0.70447 0.92132 0.0
Li266 Li 0.55776 0.66274 0.90425 0.0
Li267 Li 0.59472 0.68183 0.86322 0.0
C268 C 0.56144 0.67561 0.01596 0.0
N269 N 0.55155 0.66787 0.11474 0.0
C270 C 0.56761 0.69374 0.04801 0.0
C271 C 0.55003 0.65355 0.03413 0.0
C272 C 0.56251 0.68947 0.09782 0.0
C273 C 0.54525 0.64999 0.08418 0.0
C274 C 0.63339 0.7209 0.90746 0.0
C275 C 0.65653 0.75202 0.85378 0.0
N276 N 0.67399 0.75908 0.88588 0.0
C277 C 0.65158 0.72836 0.9398 0.0
C278 C 0.63586 0.73273 0.86401 0.0
C279 C 0.67196 0.74775 0.92829 0.0
C280 C 0.60841 0.64926 0.00214 0.0
N281 N 0.60469 0.66694 0.00617 0.0
C282 C 0.6186 0.67406 0.08822 0.0
C283 C 0.6102 0.67973 0.04747 0.0
C284 C 0.62209 0.65558 0.08541 0.0
C285 C 0.61728 0.6433 0.04162 0.0
H286 H 0.60443 0.63978 0.96836 0.0
H287 H 0.608 0.69429 0.0488 0.0
C288 C 0.56809 0.73206 0.95025 0.0
N289 N 0.58775 0.7319 0.94429 0.0
C290 C 0.5674 0.74845 0.97973 0.0
C291 C 0.60743 0.76498 0.99404 0.0
C292 C 0.60731 0.74819 0.96466 0.0
C293 C 0.58714 0.76483 0.00328 0.0
H294 H 0.55264 0.71852 0.9349 0.0
H295 H 0.62257 0.74734 0.96116 0.0
C296 C 0.56951 0.62989 0.89004 0.0
N297 N 0.54732 0.58388 0.87313 0.0
C298 C 0.56913 0.6216 0.843 0.0
C299 C 0.55887 0.61476 0.92859 0.0
C300 C 0.55776 0.59829 0.83517 0.0
C301 C 0.54765 0.59157 0.91927 0.0
C302 C 0.56689 0.69534 0.81285 0.0
C303 C 0.55169 0.679 0.78038 0.0
C304 C 0.57865 0.718 0.7986 0.0
C305 C 0.54898 0.68554 0.73352 0.0
C306 C 0.57547 0.72386 0.75142 0.0
N307 N 0.56086 0.70765 0.72011 0.0
C308 C 0.51245 0.63967 0.9357 0.0
C309 C 0.51912 0.62392 0.86475 0.0
C310 C 0.49037 0.6216 0.93891 0.0
N311 N 0.52654 0.64014 0.89999 0.0
C312 C 0.49717 0.60549 0.86659 0.0
C313 C 0.48264 0.60386 0.90483 0.0
H314 H 0.51856 0.65302 0.96265 0.0
H315 H 0.53045 0.62485 0.83613 0.0
C316 C 0.63188 0.68291 0.81831 0.0
N317 N 0.61145 0.6807 0.80751 0.0
C318 C 0.64371 0.67807 0.78317 0.0
C319 C 0.61353 0.66907 0.72577 0.0
C320 C 0.60234 0.67427 0.76199 0.0
C321 C 0.63431 0.67041 0.73645 0.0
H322 H 0.63855 0.68744 0.85507 0.0
H323 H 0.58577 0.67178 0.7545 0.0
O324 O 0.56642 0.67945 0.96705 0.0
O325 O 0.61336 0.70194 0.91823 0.0
O326 O 0.58043 0.65267 0.8983 0.0
O327 O 0.56952 0.68931 0.85908 0.0
H328 H 0.57648 0.71093 0.03481 0.0
H329 H 0.54483 0.63933 0.00985 0.0
H330 H 0.56731 0.70335 0.12304 0.0
H331 H 0.53649 0.633 0.09872 0.0
H332 H 0.6587 0.76134 0.82026 0.0
H333 H 0.64991 0.71929 0.97351 0.0
H334 H 0.62207 0.72692 0.83828 0.0
H335 H 0.68617 0.75378 0.95304 0.0
H336 H 0.62251 0.68404 0.12138 0.0
H337 H 0.61993 0.629 0.03841 0.0
H338 H 0.55142 0.74781 0.98549 0.0
H339 H 0.62298 0.77703 0.01194 0.0
H340 H 0.57734 0.63302 0.81277 0.0
H341 H 0.55933 0.62084 0.96534 0.0
H342 H 0.55722 0.59165 0.79889 0.0
H343 H 0.53926 0.57969 0.94875 0.0
H344 H 0.54225 0.66144 0.79111 0.0
H345 H 0.58995 0.73094 0.82384 0.0
H346 H 0.53743 0.67305 0.70783 0.0
H347 H 0.58454 0.74132 0.73978 0.0
H348 H 0.47961 0.62132 0.96833 0.0
H349 H 0.49203 0.59221 0.83959 0.0
H350 H 0.65979 0.67971 0.79308 0.0
H351 H 0.60535 0.66288 0.69068 0.0
Li352 Li 0.92226 0.5933 0.1225 0.0
Li353 Li 0.88429 0.58633 0.09225 0.0
Li354 Li 0.89836 0.55857 0.07362 0.0
Li355 Li 0.91582 0.59562 0.0359 0.0
C356 C 0.88938 0.55791 0.18185 0.0
N357 N 0.8852 0.53815 0.27241 0.0
C358 C 0.87439 0.55796 0.21656 0.0
C359 C 0.90221 0.54778 0.1931 0.0
C360 C 0.87253 0.5479 0.26218 0.0
C361 C 0.89985 0.53788 0.2391 0.0
C362 C 0.92154 0.63433 0.06696 0.0
C363 C 0.91546 0.65721 0.0086 0.0
N364 N 0.93707 0.67415 0.01555 0.0
C365 C 0.94364 0.65197 0.07377 0.0
C366 C 0.90727 0.63694 0.03433 0.0
C367 C 0.95119 0.67198 0.04734 0.0
C368 C 0.96533 0.61558 0.16429 0.0
N369 N 0.94295 0.60578 0.17445 0.0
C370 C 0.95054 0.61395 0.25954 0.0
C371 C 0.93538 0.60527 0.22068 0.0
C372 C 0.97384 0.62393 0.25054 0.0
C373 C 0.98117 0.62491 0.20194 0.0
H374 H 0.97084 0.61618 0.12687 0.0
H375 H 0.91754 0.59806 0.22751 0.0
C376 C 0.83887 0.56976 0.12204 0.0
N377 N 0.85958 0.58851 0.11783 0.0
C378 C 0.82234 0.57008 0.15173 0.0
C379 C 0.84856 0.60917 0.1708 0.0
C380 C 0.86455 0.60809 0.14083 0.0
C381 C 0.82726 0.58985 0.17759 0.0
H382 H 0.83561 0.55422 0.10451 0.0
H383 H 0.8814 0.62252 0.13819 0.0
C384 C 0.94491 0.573 0.05642 0.0
N385 N 0.97384 0.55713 0.03359 0.0
C386 C 0.95024 0.57166 0.00752 0.0
C387 C 0.95445 0.56647 0.09372 0.0
C388 C 0.96486 0.56354 0.99673 0.0
C389 C 0.96899 0.55843 0.08142 0.0
C390 C 0.87783 0.56812 0.98106 0.0
C391 C 0.88546 0.5571 0.94999 0.0
C392 C 0.86435 0.57641 0.9624 0.0
C393 C 0.8796 0.55471 0.9004 0.0
C394 C 0.85885 0.57365 0.91259 0.0
N395 N 0.86654 0.56297 0.88289 0.0
C396 C 0.87344 0.51258 0.10159 0.0
C397 C 0.89988 0.51998 0.03821 0.0
C398 C 0.86871 0.49024 0.10506 0.0
N399 N 0.88936 0.52714 0.06968 0.0
C400 C 0.89562 0.49779 0.04025 0.0
C401 C 0.88026 0.48273 0.07487 0.0
H402 H 0.86484 0.51847 0.12544 0.0
H403 H 0.91202 0.53156 0.01228 0.0
C404 C 0.95647 0.62397 0.99165 0.0
N405 N 0.93407 0.61282 0.98054 0.0
C406 C 0.97266 0.63529 0.9554 0.0
C407 C 0.94258 0.62418 0.89656 0.0
C408 C 0.92688 0.6133 0.93426 0.0
C409 C 0.96584 0.63504 0.90683 0.0
H410 H 0.96181 0.62342 0.02869 0.0
H411 H 0.9091 0.60488 0.92608 0.0
O412 O 0.89155 0.56785 0.13716 0.0
O413 O 0.91401 0.61438 0.09133 0.0
O414 O 0.93081 0.58114 0.06777 0.0
O415 O 0.88311 0.57038 0.02975 0.0
H416 H 0.86439 0.56581 0.20847 0.0
H417 H 0.91377 0.5475 0.1665 0.0
H418 H 0.86104 0.54785 0.28947 0.0
H419 H 0.90967 0.52996 0.24831 0.0
H420 H 0.90466 0.65945 0.98301 0.0
H421 H 0.95488 0.65011 0.09883 0.0
H422 H 0.89013 0.62336 0.02862 0.0
H423 H 0.9683 0.68575 0.05198 0.0
H424 H 0.94397 0.61252 0.29626 0.0
H425 H 0.99894 0.63291 0.19293 0.0
H426 H 0.80609 0.55485 0.15537 0.0
H427 H 0.85331 0.62467 0.19047 0.0
H428 H 0.94292 0.57653 0.97814 0.0
H429 H 0.95077 0.5677 0.13177 0.0
H430 H 0.96903 0.56228 0.95905 0.0
H431 H 0.97646 0.55327 0.10991 0.0
H432 H 0.89592 0.55064 0.96395 0.0
H433 H 0.85823 0.58486 0.98615 0.0
H434 H 0.88547 0.54632 0.87583 0.0
H435 H 0.84847 0.58001 0.89755 0.0
H436 H 0.8564 0.47908 0.13159 0.0
H437 H 0.90498 0.49279 0.0163 0.0
H438 H 0.99038 0.64326 0.96496 0.0
H439 H 0.93661 0.62385 0.85964 0.0
Li440 Li 0.32959 0.92061 0.28631 0.0
Li441 Li 0.29873 0.88361 0.2607 0.0
Li442 Li 0.33969 0.89645 0.23964 0.0
Li443 Li 0.32001 0.91363 0.19817 0.0
C444 C 0.32769 0.89154 0.35421 0.0
N445 N 0.33376 0.89431 0.45469 0.0
C446 C 0.30932 0.88528 0.38553 0.0
C447 C 0.34911 0.89899 0.37409 0.0
C448 C 0.31273 0.88685 0.43619 0.0
C449 C 0.35185 0.90034 0.42494 0.0
C450 C 0.28073 0.91229 0.24305 0.0
C451 C 0.24907 0.90098 0.18867 0.0
N452 N 0.23996 0.9094 0.22085 0.0
C453 C 0.27115 0.92098 0.27544 0.0
C454 C 0.26969 0.90232 0.19919 0.0
C455 C 0.25049 0.91929 0.26362 0.0
C456 C 0.35935 0.96051 0.33753 0.0
N457 N 0.33828 0.94216 0.337 0.0
C458 C 0.32915 0.95336 0.41248 0.0
C459 C 0.323 0.93867 0.37266 0.0
C460 C 0.35115 0.97193 0.41505 0.0
C461 C 0.36621 0.97566 0.3765 0.0
H462 H 0.37089 0.96341 0.30787 0.0
H463 H 0.30615 0.92424 0.37057 0.0
C464 C 0.27495 0.84109 0.30296 0.0
N465 N 0.27198 0.85825 0.28688 0.0
C466 C 0.25913 0.82449 0.33413 0.0
C467 C 0.2367 0.84269 0.32935 0.0
C468 C 0.25302 0.85901 0.29844 0.0
C469 C 0.23998 0.82552 0.349 0.0
H470 H 0.29044 0.84119 0.29429 0.0
H471 H 0.25099 0.87285 0.28607 0.0
C472 C 0.37287 0.94025 0.22216 0.0
N473 N 0.41894 0.96217 0.20609 0.0
C474 C 0.38184 0.95131 0.17773 0.0
C475 C 0.3874 0.94055 0.25859 0.0
C476 C 0.40516 0.96226 0.17028 0.0
C477 C 0.41061 0.95164 0.24972 0.0
C478 C 0.30471 0.87074 0.15311 0.0
C479 C 0.32003 0.87144 0.11832 0.0
C480 C 0.28159 0.85874 0.14298 0.0
C481 C 0.312 0.86069 0.07323 0.0
C482 C 0.27422 0.84819 0.09748 0.0
N483 N 0.28945 0.8494 0.06381 0.0
C484 C 0.36299 0.87419 0.26965 0.0
C485 C 0.37741 0.89591 0.1972 0.0
C486 C 0.38134 0.87055 0.27177 0.0
N487 N 0.36178 0.88731 0.23368 0.0
C488 C 0.39627 0.89313 0.19851 0.0
C489 C 0.3986 0.88078 0.23685 0.0
H490 H 0.35022 0.86738 0.29795 0.0
H491 H 0.37589 0.90601 0.16859 0.0
C492 C 0.31571 0.94678 0.14596 0.0
N493 N 0.32078 0.93004 0.14027 0.0
C494 C 0.32125 0.96308 0.10949 0.0
C495 C 0.33682 0.94449 0.06137 0.0
C496 C 0.33071 0.92836 0.09852 0.0
C497 C 0.33264 0.9625 0.06723 0.0
H498 H 0.30872 0.94842 0.1802 0.0
H499 H 0.33553 0.91561 0.09554 0.0
O500 O 0.32473 0.89037 0.30442 0.0
O501 O 0.30094 0.91382 0.25416 0.0
O502 O 0.35001 0.92903 0.2297 0.0
O503 O 0.31223 0.88089 0.19769 0.0
H504 H 0.29264 0.87968 0.37101 0.0
H505 H 0.3635 0.90365 0.3506 0.0
H506 H 0.29868 0.88223 0.46078 0.0
H507 H 0.36835 0.90616 0.44077 0.0
H508 H 0.24035 0.8933 0.15484 0.0
H509 H 0.27956 0.92887 0.30944 0.0
H510 H 0.2771 0.89593 0.17334 0.0
H511 H 0.24282 0.92586 0.28843 0.0
H512 H 0.31702 0.94987 0.44148 0.0
H513 H 0.38313 0.99012 0.37648 0.0
H514 H 0.26257 0.81179 0.34864 0.0
H515 H 0.22202 0.84396 0.33902 0.0
H516 H 0.37095 0.95149 0.14928 0.0
H517 H 0.38079 0.93217 0.29319 0.0
H518 H 0.4123 0.97083 0.136 0.0
H519 H 0.422 0.95184 0.27749 0.0
H520 H 0.33796 0.88034 0.12594 0.0
H521 H 0.26945 0.85746 0.1701 0.0
H522 H 0.32369 0.86127 0.04578 0.0
H523 H 0.25638 0.83895 0.08903 0.0
H524 H 0.38265 0.86094 0.30188 0.0
H525 H 0.40923 0.9011 0.17075 0.0
H526 H 0.31803 0.97686 0.11583 0.0
H527 H 0.34558 0.94343 0.02932 0.0
Li528 Li 0.68141 0.5944 0.46633 0.0
Li529 Li 0.66103 0.55721 0.42579 0.0
Li530 Li 0.70164 0.58502 0.40389 0.0
Li531 Li 0.67138 0.59183 0.37679 0.0
C532 C 0.69328 0.56603 0.51487 0.0
N533 N 0.70241 0.55962 0.61024 0.0
C534 C 0.67623 0.54952 0.54407 0.0
C535 C 0.71506 0.579 0.53381 0.0
C536 C 0.68116 0.54661 0.5923 0.0
C537 C 0.71931 0.57559 0.58223 0.0
C538 C 0.62939 0.5739 0.44211 0.0
C539 C 0.59238 0.56359 0.41135 0.0
N540 N 0.58493 0.5622 0.45813 0.0
C541 C 0.6214 0.57258 0.48986 0.0
C542 C 0.61481 0.56955 0.4025 0.0
C543 C 0.59886 0.56655 0.49721 0.0
C544 C 0.68568 0.63233 0.51496 0.0
N545 N 0.68135 0.61092 0.52343 0.0
C546 C 0.66829 0.61185 0.60437 0.0
C547 C 0.67326 0.60077 0.56751 0.0
C548 C 0.67158 0.6336 0.59587 0.0
C549 C 0.68107 0.64407 0.55085 0.0
H550 H 0.69161 0.63989 0.47929 0.0
H551 H 0.66908 0.5835 0.57302 0.0
C552 C 0.63981 0.51069 0.40186 0.0
N553 N 0.63839 0.52601 0.43124 0.0
C554 C 0.62184 0.48851 0.39904 0.0
C555 C 0.602 0.49779 0.45961 0.0
C556 C 0.62029 0.5198 0.46101 0.0
C557 C 0.60237 0.48196 0.42735 0.0
H558 H 0.65457 0.5159 0.37922 0.0
H559 H 0.61975 0.53206 0.48496 0.0
C560 C 0.7215 0.6308 0.41247 0.0
N561 N 0.76541 0.66622 0.41664 0.0
C562 C 0.73112 0.6448 0.37179 0.0
C563 C 0.73408 0.63492 0.45542 0.0
C564 C 0.75339 0.66259 0.37457 0.0
C565 C 0.75628 0.65289 0.45677 0.0
C566 C 0.66554 0.55389 0.31943 0.0
C567 C 0.67833 0.55083 0.28349 0.0
C568 C 0.64224 0.54417 0.31322 0.0
C569 C 0.66758 0.53827 0.24161 0.0
C570 C 0.63211 0.53169 0.2709 0.0
N571 N 0.64489 0.52905 0.23622 0.0
C572 C 0.74127 0.57974 0.3917 0.0
C573 C 0.73242 0.59844 0.32999 0.0
C574 C 0.75871 0.58078 0.36262 0.0
N575 N 0.72849 0.5884 0.37467 0.0
C576 C 0.74959 0.59992 0.3 0.0
C577 C 0.76289 0.59079 0.31577 0.0
H578 H 0.73751 0.57144 0.42702 0.0
H579 H 0.72149 0.60448 0.31672 0.0
C580 C 0.65352 0.6174 0.33637 0.0
N581 N 0.6633 0.60485 0.32569 0.0
C582 C 0.64761 0.62727 0.29871 0.0
C583 C 0.6622 0.61123 0.24013 0.0
C584 C 0.66816 0.60205 0.27888 0.0
C585 C 0.65174 0.62405 0.24967 0.0
H586 H 0.65035 0.61974 0.37417 0.0
H587 H 0.67669 0.59269 0.2715 0.0
O588 O 0.68884 0.56894 0.46744 0.0
O589 O 0.65151 0.58004 0.43424 0.0
O590 O 0.6998 0.61319 0.4103 0.0
O591 O 0.67585 0.56628 0.36052 0.0
H592 H 0.65934 0.5392 0.52977 0.0
H593 H 0.72857 0.59147 0.51127 0.0
H594 H 0.66809 0.53402 0.61547 0.0
H595 H 0.73607 0.58557 0.59748 0.0
H596 H 0.58093 0.56015 0.38101 0.0
H597 H 0.63237 0.57587 0.52096 0.0
H598 H 0.62072 0.57098 0.36525 0.0
H599 H 0.59243 0.56531 0.53399 0.0
H600 H 0.66065 0.60286 0.63801 0.0
H601 H 0.68425 0.66091 0.54273 0.0
H602 H 0.62301 0.47674 0.37438 0.0
H603 H 0.58735 0.49353 0.48207 0.0
H604 H 0.72151 0.64188 0.33837 0.0
H605 H 0.72675 0.62441 0.4874 0.0
H606 H 0.76111 0.67351 0.34329 0.0
H607 H 0.76625 0.65625 0.48975 0.0
H608 H 0.69636 0.55806 0.28784 0.0
H609 H 0.63206 0.54597 0.34109 0.0
H610 H 0.67728 0.53583 0.21343 0.0
H611 H 0.61407 0.52405 0.26569 0.0
H612 H 0.76861 0.5736 0.37638 0.0
H613 H 0.75175 0.60731 0.2639 0.0
H614 H 0.64006 0.63743 0.30802 0.0
H615 H 0.66551 0.60799 0.20309 0.0
Li616 Li 0.08897 0.68102 0.6337 0.0
Li617 Li 0.1066 0.66158 0.59625 0.0
Li618 Li 0.12166 0.7039 0.58069 0.0
Li619 Li 0.08434 0.67386 0.5465 0.0
C620 C 0.12619 0.69203 0.69118 0.0
N621 N 0.13689 0.7006 0.78934 0.0
C622 C 0.11962 0.67414 0.72403 0.0
C623 C 0.13833 0.71427 0.70806 0.0
C624 C 0.12516 0.67883 0.77358 0.0
C625 C 0.14354 0.71826 0.75789 0.0
C626 C 0.06125 0.62966 0.6114 0.0
C627 C 0.0399 0.59052 0.58741 0.0
N628 N 0.0349 0.58453 0.63527 0.0
C629 C 0.05581 0.62313 0.66035 0.0
C630 C 0.05314 0.61325 0.57458 0.0
C631 C 0.0425 0.60022 0.67166 0.0
C632 C 0.04758 0.66867 0.67316 0.0
N633 N 0.06958 0.6793 0.68738 0.0
C634 C 0.05867 0.68055 0.77029 0.0
C635 C 0.07542 0.68585 0.73476 0.0
C636 C 0.03569 0.66869 0.75686 0.0
C637 C 0.0304 0.66339 0.7071 0.0
H638 H 0.04331 0.66375 0.63526 0.0
H639 H 0.09291 0.69464 0.74553 0.0
C640 C 0.12931 0.63879 0.56502 0.0
N641 N 0.115 0.63868 0.59978 0.0
C642 C 0.13332 0.62073 0.56114 0.0
C643 C 0.10917 0.6035 0.63126 0.0
C644 C 0.1056 0.62189 0.63369 0.0
C645 C 0.1227 0.60246 0.59376 0.0
H646 H 0.13717 0.65263 0.53933 0.0
H647 H 0.09479 0.62237 0.66184 0.0
C648 C 0.08293 0.71395 0.60161 0.0
N649 N 0.06372 0.736 0.6485 0.0
C650 C 0.0611 0.70901 0.58941 0.0
C651 C 0.0951 0.73021 0.63729 0.0
C652 C 0.05166 0.72033 0.61363 0.0
C653 C 0.08506 0.74114 0.66069 0.0
C654 C 0.11653 0.67298 0.48673 0.0
C655 C 0.13057 0.68953 0.45317 0.0
C656 C 0.10378 0.6505 0.47161 0.0
C657 C 0.13154 0.68328 0.40486 0.0
C658 C 0.10521 0.64494 0.42299 0.0
N659 N 0.11893 0.66131 0.3909 0.0
C660 C 0.16672 0.73091 0.54955 0.0
C661 C 0.14375 0.74756 0.5404 0.0
C662 C 0.1834 0.74751 0.51971 0.0
N663 N 0.14718 0.73095 0.55822 0.0
C664 C 0.16002 0.76455 0.51063 0.0
C665 C 0.17984 0.76424 0.49853 0.0
H666 H 0.16868 0.71709 0.56292 0.0
H667 H 0.12774 0.74675 0.54646 0.0
C668 C 0.04252 0.65125 0.49932 0.0
N669 N 0.06468 0.66673 0.4928 0.0
C670 C 0.0275 0.64514 0.46013 0.0
C671 C 0.05842 0.67122 0.40858 0.0
C672 C 0.07271 0.6772 0.44902 0.0
C673 C 0.03559 0.65495 0.41406 0.0
H674 H 0.03655 0.64362 0.53493 0.0
H675 H 0.09021 0.69011 0.44543 0.0
O676 O 0.12134 0.68782 0.64246 0.0
O677 O 0.07412 0.65201 0.59949 0.0
O678 O 0.09225 0.70267 0.57923 0.0
O679 O 0.11517 0.67879 0.53408 0.0
H680 H 0.11026 0.65684 0.71144 0.0
H681 H 0.1437 0.72828 0.6829 0.0
H682 H 0.12011 0.66516 0.7995 0.0
H683 H 0.15288 0.73538 0.77156 0.0
H684 H 0.03355 0.57764 0.55929 0.0
H685 H 0.06208 0.63555 0.6894 0.0
H686 H 0.05695 0.61801 0.53649 0.0
H687 H 0.03827 0.59492 0.7094 0.0
H688 H 0.06371 0.685 0.80811 0.0
H689 H 0.0131 0.65488 0.69436 0.0
H690 H 0.14429 0.62088 0.53235 0.0
H691 H 0.10061 0.58981 0.65722 0.0
H692 H 0.05148 0.69642 0.56186 0.0
H693 H 0.11202 0.73417 0.64708 0.0
H694 H 0.03472 0.7166 0.60481 0.0
H695 H 0.09421 0.75368 0.6886 0.0
H696 H 0.14044 0.70703 0.46412 0.0
H697 H 0.09292 0.63751 0.49719 0.0
H698 H 0.14226 0.69592 0.37844 0.0
H699 H 0.09541 0.62762 0.41078 0.0
H700 H 0.19851 0.74674 0.51174 0.0
H701 H 0.15641 0.77691 0.49469 0.0
H702 H 0.00991 0.63257 0.46542 0.0
H703 H 0.06504 0.67931 0.37355 0.0
Li704 Li 0.44446 0.10507 0.76137 0.0
Li705 Li 0.40749 0.08761 0.80252 0.0
Li706 Li 0.4104 0.08092 0.71445 0.0
Li707 Li 0.41616 0.11771 0.7401 0.0
C708 C 0.43389 0.0612 0.77933 0.0
N709 N 0.45787 0.03923 0.79698 0.0
C710 C 0.43148 0.05015 0.82393 0.0
C711 C 0.44836 0.06086 0.74355 0.0
C712 C 0.44377 0.03917 0.83218 0.0
C713 C 0.46038 0.04974 0.75321 0.0
C714 C 0.43569 0.13083 0.84775 0.0
C715 C 0.4295 0.1545 0.90371 0.0
N716 N 0.44345 0.15277 0.93675 0.0
C717 C 0.45026 0.1296 0.88189 0.0
C718 C 0.42548 0.14366 0.85837 0.0
C719 C 0.45384 0.14067 0.92684 0.0
C720 C 0.49004 0.12755 0.73153 0.0
N721 N 0.47573 0.11434 0.76744 0.0
C722 C 0.50444 0.10848 0.80225 0.0
C723 C 0.48278 0.10566 0.80371 0.0
C724 C 0.51909 0.1209 0.76393 0.0
C725 C 0.51203 0.1312 0.72924 0.0
H726 H 0.48405 0.13439 0.70336 0.0
H727 H 0.47118 0.09546 0.83222 0.0
C728 C 0.37004 0.05407 0.85377 0.0
N729 N 0.39167 0.0711 0.86019 0.0
C730 C 0.35916 0.03776 0.89017 0.0
C731 C 0.39282 0.05691 0.93971 0.0
C732 C 0.40297 0.07305 0.90259 0.0
C733 C 0.37084 0.03864 0.93314 0.0
H734 H 0.36167 0.05225 0.81909 0.0
H735 H 0.42041 0.08605 0.90623 0.0
C736 C 0.43753 0.10996 0.64688 0.0
N737 N 0.44084 0.10677 0.54653 0.0
C738 C 0.42559 0.1163 0.61522 0.0
C739 C 0.45134 0.10223 0.62741 0.0
C740 C 0.42744 0.11451 0.56463 0.0
C741 C 0.45273 0.10067 0.57661 0.0
C742 C 0.36962 0.08873 0.75902 0.0
C743 C 0.35049 0.07881 0.72905 0.0
C744 C 0.36946 0.09969 0.80208 0.0
C745 C 0.33156 0.08029 0.74244 0.0
C746 C 0.3502 0.10079 0.81423 0.0
N747 N 0.33181 0.09117 0.78438 0.0
C748 C 0.401 0.04161 0.6615 0.0
C749 C 0.38549 0.06298 0.62862 0.0
C750 C 0.39271 0.02667 0.62217 0.0
N751 N 0.39773 0.0596 0.66336 0.0
C752 C 0.37692 0.0485 0.58849 0.0
C753 C 0.38081 0.03025 0.58462 0.0
H754 H 0.41007 0.03882 0.69039 0.0
H755 H 0.38274 0.07719 0.63171 0.0
C756 C 0.43445 0.16113 0.70165 0.0
N757 N 0.41435 0.1428 0.71391 0.0
C758 C 0.43518 0.1777 0.67038 0.0
C759 C 0.39446 0.15686 0.66692 0.0
C760 C 0.39451 0.14068 0.69815 0.0
C761 C 0.41501 0.17531 0.65128 0.0
H762 H 0.45001 0.16208 0.71344 0.0
H763 H 0.37873 0.12582 0.70711 0.0
O764 O 0.4223 0.07243 0.77101 0.0
O765 O 0.43226 0.12041 0.80325 0.0
O766 O 0.43567 0.11128 0.69661 0.0
O767 O 0.38826 0.08741 0.74634 0.0
H768 H 0.42024 0.05 0.85189 0.0
H769 H 0.4504 0.06926 0.70885 0.0
H770 H 0.44209 0.03061 0.86659 0.0
H771 H 0.47176 0.04952 0.72595 0.0
H772 H 0.42162 0.16438 0.91253 0.0
H773 H 0.45857 0.12004 0.87392 0.0
H774 H 0.41468 0.14534 0.83174 0.0
H775 H 0.46491 0.13968 0.9538 0.0
H776 H 0.50944 0.10043 0.82981 0.0
H777 H 0.52292 0.14086 0.69914 0.0
H778 H 0.34233 0.02379 0.88329 0.0
H779 H 0.40242 0.0582 0.97233 0.0
H780 H 0.41469 0.12217 0.62943 0.0
H781 H 0.46094 0.09752 0.65117 0.0
H782 H 0.41815 0.1192 0.53977 0.0
H783 H 0.46329 0.09462 0.5611 0.0
H784 H 0.35033 0.07015 0.6957 0.0
H785 H 0.38393 0.10701 0.8261 0.0
H786 H 0.31667 0.07279 0.7195 0.0
H787 H 0.34984 0.10922 0.84748 0.0
H788 H 0.39557 0.01247 0.62116 0.0
H789 H 0.36786 0.05187 0.56027 0.0
H790 H 0.45143 0.19148 0.659 0.0
H791 H 0.37848 0.15449 0.65376 0.0
Li792 Li 0.34019 0.44381 0.9251 0.0
Li793 Li 0.32022 0.40616 0.96384 0.0
Li794 Li 0.32983 0.40973 0.87497 0.0
Li795 Li 0.29921 0.41586 0.90349 0.0
C796 C 0.37217 0.42806 0.94012 0.0
N797 N 0.41705 0.44183 0.95724 0.0
C798 C 0.37962 0.42772 0.98766 0.0
C799 C 0.38751 0.43515 0.90122 0.0
C800 C 0.40239 0.43483 0.99559 0.0
C801 C 0.41013 0.44211 0.91064 0.0
C802 C 0.30893 0.43583 0.01435 0.0
C803 C 0.28364 0.4311 0.0807 0.0
N804 N 0.30159 0.44571 0.1084 0.0
C805 C 0.3271 0.451 0.04322 0.0
C806 C 0.28698 0.42599 0.03295 0.0
C807 C 0.32306 0.4557 0.09078 0.0
C808 C 0.36158 0.49034 0.90147 0.0
N809 N 0.36286 0.47498 0.93094 0.0
C810 C 0.39922 0.50309 0.9597 0.0
C811 C 0.38091 0.4811 0.96083 0.0
C812 C 0.39894 0.51903 0.92762 0.0
C813 C 0.37956 0.51254 0.89903 0.0
H814 H 0.34691 0.48517 0.87853 0.0
H815 H 0.38141 0.46878 0.98467 0.0
C816 C 0.32018 0.36951 0.00766 0.0
N817 N 0.32086 0.38916 0.01946 0.0
C818 C 0.3253 0.35782 0.04265 0.0
C819 C 0.3311 0.38638 0.10204 0.0
C820 C 0.3257 0.39746 0.06592 0.0
C821 C 0.33155 0.36656 0.09033 0.0
H822 H 0.31671 0.36346 0.97027 0.0
H823 H 0.32678 0.41335 0.07444 0.0
C824 C 0.33323 0.44614 0.81698 0.0
N825 N 0.3498 0.46788 0.72854 0.0
C826 C 0.31851 0.44641 0.7818 0.0
C827 C 0.35638 0.45709 0.80735 0.0
C828 C 0.32721 0.45743 0.73725 0.0
C829 C 0.36443 0.46795 0.7624 0.0
C830 C 0.2806 0.36978 0.91956 0.0
C831 C 0.26963 0.35149 0.88756 0.0
C832 C 0.27045 0.3697 0.96404 0.0
C833 C 0.24853 0.33341 0.90051 0.0
C834 C 0.24936 0.3513 0.97572 0.0
N835 N 0.23891 0.33369 0.94396 0.0
C836 C 0.35076 0.38764 0.83144 0.0
C837 C 0.33116 0.39877 0.77662 0.0
C838 C 0.35717 0.37871 0.79276 0.0
N839 N 0.33829 0.3977 0.82252 0.0
C840 C 0.33757 0.39051 0.73684 0.0
C841 C 0.35077 0.38043 0.74485 0.0
H842 H 0.35574 0.38662 0.86856 0.0
H843 H 0.32044 0.40595 0.77085 0.0
C844 C 0.26314 0.42579 0.88792 0.0
N845 N 0.27211 0.41259 0.87616 0.0
C846 C 0.24569 0.42499 0.85937 0.0
C847 C 0.2469 0.39677 0.8082 0.0
C848 C 0.26425 0.39816 0.83748 0.0
C849 C 0.23757 0.41054 0.81838 0.0
H850 H 0.27009 0.43754 0.91817 0.0
H851 H 0.27231 0.38855 0.82778 0.0
O852 O 0.3499 0.42107 0.9317 0.0
O853 O 0.31249 0.43132 0.96742 0.0
O854 O 0.32495 0.43524 0.86062 0.0
O855 O 0.30118 0.38768 0.9072 0.0
H856 H 0.36802 0.42228 0.01821 0.0
H857 H 0.382 0.43508 0.86407 0.0
H858 H 0.4084 0.43479 0.03224 0.0
H859 H 0.42218 0.44767 0.88088 0.0
H860 H 0.26676 0.42353 0.09567 0.0
H861 H 0.34416 0.45888 0.02927 0.0
H862 H 0.27267 0.41462 0.01065 0.0
H863 H 0.33698 0.46727 0.11368 0.0
H864 H 0.41381 0.50725 0.98227 0.0
H865 H 0.37845 0.52437 0.87443 0.0
H866 H 0.325 0.34243 0.03194 0.0
H867 H 0.33609 0.39402 0.13797 0.0
H868 H 0.30055 0.43813 0.78876 0.0
H869 H 0.36802 0.45736 0.83446 0.0
H870 H 0.31601 0.4577 0.7096 0.0
H871 H 0.38232 0.47649 0.75447 0.0
H872 H 0.27731 0.35133 0.85297 0.0
H873 H 0.27883 0.38362 0.98935 0.0
H874 H 0.23979 0.31916 0.87604 0.0
H875 H 0.2413 0.35101 0.01004 0.0
H876 H 0.36732 0.37093 0.8 0.0
H877 H 0.33207 0.39172 0.70029 0.0
H878 H 0.23892 0.43583 0.86874 0.0
H879 H 0.24161 0.38577 0.77651 0.0
Li880 Li 0.89425 0.33854 0.09903 0.0
Li881 Li 0.91219 0.31894 0.13438 0.0
Li882 Li 0.91689 0.32713 0.04754 0.0
Li883 Li 0.87958 0.29649 0.08112 0.0
C884 C 0.94049 0.37059 0.11265 0.0
N885 N 0.96878 0.41566 0.13456 0.0
C886 C 0.94667 0.3774 0.16123 0.0
C887 C 0.94885 0.38668 0.0752 0.0
C888 C 0.96096 0.40026 0.17156 0.0
C889 C 0.96308 0.40939 0.08703 0.0
C890 C 0.87544 0.30806 0.19297 0.0
C891 C 0.85836 0.28251 0.26089 0.0
N892 N 0.86593 0.30048 0.29178 0.0
C893 C 0.88296 0.32628 0.22527 0.0
C894 C 0.86297 0.286 0.21075 0.0
C895 C 0.87802 0.32209 0.27516 0.0
C896 C 0.87038 0.36077 0.07194 0.0
N897 N 0.88574 0.36129 0.10435 0.0
C898 C 0.89274 0.39694 0.13532 0.0
C899 C 0.89625 0.37851 0.13695 0.0
C900 C 0.87812 0.39758 0.10001 0.0
C901 C 0.86639 0.37887 0.06891 0.0
H902 H 0.86173 0.34662 0.04725 0.0
H903 H 0.90791 0.37836 0.1633 0.0
C904 C 0.95372 0.33166 0.17325 0.0
N905 N 0.93172 0.32041 0.18747 0.0
C906 C 0.97097 0.33696 0.20697 0.0
C907 C 0.94279 0.31828 0.26976 0.0
C908 C 0.92596 0.31309 0.23447 0.0
C909 C 0.96573 0.33088 0.25641 0.0
H910 H 0.95793 0.3371 0.1356 0.0
H911 H 0.90846 0.30377 0.24515 0.0
C912 C 0.8839 0.329 0.99017 0.0
N913 N 0.88001 0.34301 0.89754 0.0
C914 C 0.86946 0.31327 0.9557 0.0
C915 C 0.89631 0.35184 0.97758 0.0
C916 C 0.86774 0.3207 0.90904 0.0
C917 C 0.89412 0.35859 0.93055 0.0
C918 C 0.9181 0.28636 0.10112 0.0
C919 C 0.94 0.29121 0.08984 0.0
C920 C 0.90552 0.26991 0.13616 0.0
C921 C 0.94907 0.27961 0.11432 0.0
C922 C 0.91519 0.2587 0.15983 0.0
N923 N 0.93659 0.26375 0.14854 0.0
C924 C 0.95914 0.34918 0.0026 0.0
C925 C 0.92888 0.32722 0.94842 0.0
C926 C 0.97452 0.35623 0.96398 0.0
N927 N 0.93679 0.33527 0.99398 0.0
C928 C 0.94357 0.33417 0.90857 0.0
C929 C 0.96675 0.34902 0.91596 0.0
H930 H 0.96498 0.3548 0.03954 0.0
H931 H 0.91114 0.31552 0.94286 0.0
C932 C 0.83463 0.26966 0.04917 0.0
N933 N 0.85416 0.26958 0.05778 0.0
C934 C 0.81799 0.25316 0.0191 0.0
C935 C 0.84135 0.23613 0.00966 0.0
C936 C 0.8576 0.25303 0.03964 0.0
C937 C 0.82154 0.23649 0.99767 0.0
H938 H 0.83267 0.28343 0.06283 0.0
H939 H 0.87359 0.2538 0.04568 0.0
O940 O 0.92669 0.34825 0.10173 0.0
O941 O 0.87974 0.31179 0.14397 0.0
O942 O 0.88596 0.32202 0.03591 0.0
O943 O 0.90915 0.29795 0.07861 0.0
H944 H 0.94025 0.36521 0.19076 0.0
H945 H 0.9445 0.3817 0.03735 0.0
H946 H 0.96577 0.40578 0.209 0.0
H947 H 0.96964 0.42203 0.05841 0.0
H948 H 0.84876 0.26554 0.27525 0.0
H949 H 0.89261 0.34344 0.21198 0.0
H950 H 0.8569 0.27174 0.18605 0.0
H951 H 0.88381 0.33601 0.30065 0.0
H952 H 0.90219 0.41097 0.16003 0.0
H953 H 0.85459 0.37842 0.04186 0.0
H954 H 0.9883 0.3461 0.19439 0.0
H955 H 0.93784 0.31318 0.30738 0.0
H956 H 0.85985 0.2955 0.96469 0.0
H957 H 0.90746 0.36422 0.0039 0.0
H958 H 0.85669 0.30871 0.88194 0.0
H959 H 0.90363 0.37622 0.92031 0.0
H960 H 0.94995 0.30396 0.06285 0.0
H961 H 0.88855 0.26604 0.14529 0.0
H962 H 0.96605 0.28327 0.10622 0.0
H963 H 0.90571 0.24602 0.18727 0.0
H964 H 0.99228 0.36713 0.9718 0.0
H965 H 0.93669 0.32824 0.87234 0.0
H966 H 0.80289 0.25396 0.01122 0.0
H967 H 0.84495 0.2238 0.99353 0.0
Li968 Li 0.59351 0.91321 0.30224 0.0
Li969 Li 0.55677 0.8961 0.26044 0.0
Li970 Li 0.58478 0.88311 0.23996 0.0
Li971 Li 0.5911 0.92014 0.21389 0.0
C972 C 0.56636 0.87046 0.34733 0.0
N973 N 0.56137 0.8494 0.43658 0.0
C974 C 0.55179 0.87085 0.38267 0.0
C975 C 0.57799 0.85891 0.35687 0.0
C976 C 0.54961 0.86024 0.42773 0.0
C977 C 0.57535 0.84849 0.40236 0.0
C978 C 0.56729 0.93978 0.27768 0.0
C979 C 0.541 0.95116 0.24965 0.0
N980 N 0.54289 0.96147 0.29343 0.0
C981 C 0.56909 0.95063 0.32227 0.0
C982 C 0.55325 0.94019 0.24094 0.0
C983 C 0.55659 0.96146 0.32955 0.0
C984 C 0.63091 0.94642 0.35431 0.0
N985 N 0.60911 0.92967 0.36011 0.0
C986 C 0.60761 0.94411 0.43909 0.0
C987 C 0.59754 0.92799 0.40193 0.0
C988 C 0.6298 0.96211 0.43316 0.0
C989 C 0.64172 0.96271 0.39078 0.0
H990 H 0.63949 0.94805 0.32001 0.0
H991 H 0.57997 0.91524 0.40498 0.0
C992 C 0.51125 0.87408 0.23003 0.0
N993 N 0.52555 0.88704 0.26622 0.0
C994 C 0.48929 0.87051 0.22793 0.0
C995 C 0.49689 0.89279 0.30166 0.0
C996 C 0.51851 0.89551 0.30293 0.0
C997 C 0.48224 0.88062 0.26311 0.0
H998 H 0.51721 0.86734 0.20159 0.0
H999 H 0.53008 0.90543 0.33174 0.0
C1000 C 0.63156 0.9118 0.25704 0.0
N1001 N 0.66958 0.90898 0.27799 0.0
C1002 C 0.64939 0.91992 0.22356 0.0
C1003 C 0.63315 0.90244 0.30135 0.0
C1004 C 0.66845 0.91828 0.23477 0.0
C1005 C 0.65249 0.90112 0.31124 0.0
C1006 C 0.564 0.89107 0.14598 0.0
C1007 C 0.57614 0.88476 0.11487 0.0
C1008 C 0.55011 0.89856 0.12585 0.0
C1009 C 0.57437 0.88629 0.06417 0.0
C1010 C 0.5488 0.89987 0.07497 0.0
N1011 N 0.56087 0.89377 0.04543 0.0
C1012 C 0.56621 0.84093 0.19615 0.0
C1013 C 0.60585 0.85801 0.20472 0.0
C1014 C 0.56571 0.82445 0.16499 0.0
N1015 N 0.58615 0.85767 0.21412 0.0
C1016 C 0.60611 0.8418 0.17391 0.0
C1017 C 0.58596 0.82515 0.15218 0.0
H1018 H 0.55084 0.84131 0.20324 0.0
H1019 H 0.62157 0.87145 0.21879 0.0
C1020 C 0.60159 0.96017 0.16287 0.0
N1021 N 0.60412 0.9417 0.16321 0.0
C1022 C 0.61 0.97537 0.12401 0.0
C1023 C 0.62446 0.95286 0.08775 0.0
C1024 C 0.6158 0.93812 0.12746 0.0
C1025 C 0.62125 0.97157 0.08537 0.0
H1026 H 0.59303 0.96313 0.1926 0.0
H1027 H 0.61806 0.92359 0.1294 0.0
O1028 O 0.56847 0.88049 0.3028 0.0
O1029 O 0.57906 0.92868 0.27027 0.0
O1030 O 0.61281 0.9133 0.24655 0.0
O1031 O 0.5657 0.88992 0.19581 0.0
H1032 H 0.54238 0.8794 0.37549 0.0
H1033 H 0.58883 0.85789 0.32932 0.0
H1034 H 0.53855 0.86058 0.45562 0.0
H1035 H 0.58435 0.8396 0.41037 0.0
H1036 H 0.52995 0.95144 0.22163 0.0
H1037 H 0.58 0.95071 0.35097 0.0
H1038 H 0.55173 0.93199 0.2062 0.0
H1039 H 0.55778 0.96985 0.36395 0.0
H1040 H 0.59783 0.94304 0.47122 0.0
H1041 H 0.65871 0.97647 0.38437 0.0
H1042 H 0.4784 0.86104 0.19767 0.0
H1043 H 0.49188 0.90066 0.32962 0.0
H1044 H 0.64849 0.92734 0.18921 0.0
H1045 H 0.61971 0.89649 0.32801 0.0
H1046 H 0.68234 0.9244 0.20912 0.0
H1047 H 0.65394 0.89391 0.34539 0.0
H1048 H 0.58719 0.87916 0.12958 0.0
H1049 H 0.54037 0.90327 0.14917 0.0
H1050 H 0.58382 0.88162 0.03974 0.0
H1051 H 0.53817 0.90571 0.05895 0.0
H1052 H 0.54978 0.81213 0.14889 0.0
H1053 H 0.62208 0.84276 0.16595 0.0
H1054 H 0.6077 0.98993 0.12418 0.0
H1055 H 0.63301 0.94931 0.05868 0.0
C1056 C 0.35347 0.34697 0.11094 0.0
C1057 C 0.33996 0.356 0.12642 0.0
H1058 H 0.37288 0.33157 0.13148 0.0
C1059 C 0.33549 0.35576 0.1768 0.0
H1060 H 0.35761 0.34712 0.07259 0.0
C1061 C 0.34466 0.34721 0.21077 0.0
C1062 C 0.35849 0.33853 0.19536 0.0
H1063 H 0.32501 0.36234 0.19017 0.0
H1064 H 0.34137 0.34801 0.24932 0.0
C1065 C 0.36254 0.33831 0.14488 0.0
C1066 C 0.02053 0.36809 0.3251 0.0
C1067 C 0.01864 0.35475 0.36595 0.0
H1068 H 0.00529 0.37141 0.25975 0.0
C1069 C 0.99943 0.33312 0.36994 0.0
H1070 H 0.03483 0.385 0.32136 0.0
C1071 C 0.98242 0.32517 0.33422 0.0
C1072 C 0.98414 0.3387 0.29375 0.0
H1073 H 0.99752 0.32234 0.4008 0.0
H1074 H 0.96795 0.3084 0.33834 0.0
C1075 C 0.00351 0.36023 0.28966 0.0
C1076 C 0.66213 0.9907 0.48457 0.0
C1077 C 0.63968 0.98127 0.46841 0.0
H1078 H 0.68876 0.0161 0.52855 0.0
C1079 C 0.62689 0.99098 0.48436 0.0
H1080 H 0.6724 0.98359 0.47286 0.0
C1081 C 0.63631 0.00969 0.5156 0.0
C1082 C 0.65869 0.01904 0.53206 0.0
H1083 H 0.60966 0.98433 0.472 0.0
H1084 H 0.62591 0.01661 0.52754 0.0
C1085 C 0.67148 0.00927 0.51644 0.0
C1086 C 0.65331 0.65681 0.61611 0.0
C1087 C 0.66358 0.64449 0.63206 0.0
H1088 H 0.63649 0.67495 0.63605 0.0
C1089 C 0.66501 0.64169 0.68276 0.0
H1090 H 0.65156 0.65908 0.57741 0.0
C1091 C 0.65595 0.65046 0.71644 0.0
C1092 C 0.64528 0.6624 0.70047 0.0
H1093 H 0.67297 0.63253 0.69655 0.0
H1094 H 0.65677 0.64727 0.75504 0.0
C1095 C 0.64434 0.66567 0.64981 0.0
C1096 C 0.0198 0.67364 0.83679 0.0
C1097 C 0.0173 0.66086 0.79436 0.0
H1098 H 0.00545 0.67568 0.90525 0.0
C1099 C 0.99717 0.64003 0.78857 0.0
H1100 H 0.03481 0.6899 0.84235 0.0
C1101 C 0.98021 0.63213 0.82418 0.0
C1102 C 0.98298 0.64465 0.86698 0.0
H1103 H 0.99471 0.62937 0.75717 0.0
H1104 H 0.96526 0.61576 0.81904 0.0
C1105 C 0.0029 0.66557 0.87276 0.0
C1106 C 0.37396 0.01012 0.9852 0.0
C1107 C 0.36098 0.01948 0.96842 0.0
H1108 H 0.37512 0.98474 0.029 0.0
C1109 C 0.33838 0.00971 0.98375 0.0
H1110 H 0.39132 0.01704 0.97349 0.0
C1111 C 0.32906 0.99113 0.01561 0.0
C1112 C 0.34204 0.9817 0.03205 0.0
H1113 H 0.32796 0.01655 0.97138 0.0
H1114 H 0.31165 0.98402 0.02708 0.0
C1115 C 0.36458 0.9914 0.01642 0.0
C1116 C 0.56915 0.44726 0.46238 0.0
C1117 C 0.58208 0.45923 0.42146 0.0
H1118 H 0.53915 0.41838 0.48864 0.0
C1119 C 0.57476 0.44992 0.3745 0.0
H1120 H 0.57442 0.45388 0.49906 0.0
C1121 C 0.5546 0.42946 0.36851 0.0
C1122 C 0.54135 0.41779 0.40936 0.0
H1123 H 0.58421 0.45881 0.34217 0.0
H1124 H 0.54925 0.42289 0.33183 0.0
C1125 C 0.54904 0.42678 0.45641 0.0
C1126 C 0.12265 0.55245 0.5334 0.0
C1127 C 0.12376 0.54042 0.57405 0.0
H1128 H 0.1214 0.58136 0.50775 0.0
C1129 C 0.12605 0.54973 0.62111 0.0
H1130 H 0.12107 0.54583 0.49665 0.0
C1131 C 0.12638 0.57019 0.62748 0.0
C1132 C 0.12454 0.58186 0.58694 0.0
H1133 H 0.12673 0.5408 0.65325 0.0
H1134 H 0.12776 0.57672 0.66427 0.0
C1135 C 0.12307 0.57293 0.53975 0.0
C1136 C 0.54074 0.10079 0.75391 0.0
C1137 C 0.54072 0.12125 0.75756 0.0
H1138 H 0.56047 0.08473 0.74348 0.0
C1139 C 0.56121 0.14172 0.75359 0.0
H1140 H 0.5251 0.0848 0.75639 0.0
C1141 C 0.5815 0.14167 0.74692 0.0
C1142 C 0.58142 0.12116 0.74273 0.0
H1143 H 0.56153 0.15768 0.7562 0.0
H1144 H 0.59719 0.1576 0.74451 0.0
C1145 C 0.56088 0.10074 0.74612 0.0
C1146 C 0.45252 0.57384 0.95768 0.0
C1147 C 0.46018 0.58317 0.91085 0.0
H1148 H 0.42709 0.54657 0.9998 0.0
C1149 C 0.44677 0.5719 0.86989 0.0
H1150 H 0.46252 0.58191 0.99001 0.0
C1151 C 0.42654 0.55147 0.8755 0.0
C1152 C 0.41927 0.54179 0.9222 0.0
H1153 H 0.45203 0.57873 0.83336 0.0
H1154 H 0.41702 0.54286 0.84301 0.0
C1155 C 0.43232 0.55342 0.96327 0.0
C1156 C 0.87603 0.4306 0.13455 0.0
C1157 C 0.87632 0.41823 0.09369 0.0
H1158 H 0.87707 0.46062 0.16067 0.0
C1159 C 0.87635 0.42652 0.04648 0.0
H1160 H 0.87578 0.42458 0.17139 0.0
C1161 C 0.87691 0.44708 0.04032 0.0
C1162 C 0.87738 0.45983 0.08119 0.0
H1163 H 0.87681 0.41754 0.0142 0.0
H1164 H 0.87731 0.45318 0.00347 0.0
C1165 C 0.87652 0.45114 0.12838 0.0
C1166 C 0.44038 0.90078 0.24651 0.0
C1167 C 0.41986 0.88035 0.2429 0.0
H1168 H 0.47618 0.91672 0.25667 0.0
C1169 C 0.41982 0.85985 0.2466 0.0
H1170 H 0.44077 0.91679 0.24422 0.0
C1171 C 0.44012 0.85981 0.25298 0.0
C1172 C 0.4606 0.88028 0.25714 0.0
H1173 H 0.40414 0.84392 0.24401 0.0
H1174 H 0.43983 0.84385 0.25518 0.0
C1175 C 0.46054 0.90074 0.25403 0.0
C1176 C 0.35257 0.34934 0.70129 0.0
C1177 C 0.35799 0.37198 0.70309 0.0
H1178 H 0.35424 0.32363 0.66034 0.0
C1179 C 0.37022 0.38657 0.66463 0.0
H1180 H 0.34291 0.33779 0.73051 0.0
C1181 C 0.37727 0.37873 0.62508 0.0
C1182 C 0.37179 0.35598 0.62274 0.0
H1183 H 0.37469 0.40417 0.66565 0.0
H1184 H 0.38735 0.39065 0.59683 0.0
C1185 C 0.35919 0.34134 0.66122 0.0
C1186 C 0.00128 0.37924 0.87355 0.0
C1187 C 0.98266 0.35715 0.87385 0.0
H1188 H 0.03038 0.40403 0.83462 0.0
C1189 C 0.97923 0.34304 0.83329 0.0
H1190 H 0.00423 0.39077 0.90352 0.0
C1191 C 0.9939 0.35094 0.7933 0.0
C1192 C 0.01251 0.37289 0.79355 0.0
H1193 H 0.96537 0.3258 0.83254 0.0
H1194 H 0.99096 0.33977 0.76255 0.0
C1195 C 0.01618 0.38695 0.834 0.0
C1196 C 0.61505 0.9943 0.0221 0.0
C1197 C 0.62896 0.98671 0.04225 0.0
H1198 H 0.61101 0.0141 0.96682 0.0
C1199 C 0.65003 0.99345 0.02058 0.0
H1200 H 0.5986 0.98916 0.03762 0.0
C1201 C 0.65703 0.00753 0.97954 0.0
C1202 C 0.64305 0.01505 0.95937 0.0
H1203 H 0.66118 0.98798 0.03558 0.0
H1204 H 0.67326 0.01232 0.96327 0.0
C1205 C 0.62202 0.00834 0.98116 0.0
C1206 C 0.61788 0.64254 0.17185 0.0
C1207 C 0.63037 0.64886 0.12824 0.0
H1208 H 0.6144 0.62905 0.24393 0.0
C1209 C 0.65038 0.64805 0.12518 0.0
H1210 H 0.60229 0.64295 0.17463 0.0
C1211 C 0.65773 0.64074 0.16517 0.0
C1212 C 0.64487 0.63356 0.20856 0.0
H1213 H 0.66033 0.65311 0.09186 0.0
H1214 H 0.67345 0.64065 0.16188 0.0
C1215 C 0.62494 0.63475 0.21154 0.0
C1216 C 0.02493 0.63886 0.33012 0.0
C1217 C 0.02031 0.64792 0.37164 0.0
H1218 H 0.01355 0.62346 0.26004 0.0
C1219 C 0.00084 0.64978 0.37288 0.0
H1220 H 0.03984 0.63716 0.32878 0.0
C1221 C 0.98607 0.64258 0.33305 0.0
C1222 C 0.99025 0.63287 0.29171 0.0
H1223 H 0.99715 0.65696 0.40453 0.0
H1224 H 0.97141 0.64467 0.33477 0.0
C1225 C 0.00994 0.63119 0.2907 0.0
C1226 C 0.34442 0.99393 0.47985 0.0
C1227 C 0.35862 0.98701 0.45826 0.0
H1228 H 0.34025 0.01295 0.5371 0.0
C1229 C 0.38007 0.99438 0.47854 0.0
H1230 H 0.32787 0.98863 0.46476 0.0
C1231 C 0.38721 0.00841 0.5195 0.0
C1232 C 0.37303 0.01533 0.54118 0.0
H1233 H 0.39127 0.98909 0.46309 0.0
H1234 H 0.40394 0.01402 0.53392 0.0
C1235 C 0.35159 0.008 0.52091 0.0
C1236 C 0.40113 0.19737 0.53608 0.0
C1237 C 0.41653 0.22068 0.53872 0.0
H1238 H 0.38875 0.16486 0.56891 0.0
C1239 C 0.43149 0.22896 0.57876 0.0
H1240 H 0.38955 0.19036 0.50552 0.0
C1241 C 0.43097 0.21434 0.61533 0.0
C1242 C 0.41543 0.19106 0.61289 0.0
H1243 H 0.44328 0.24687 0.58256 0.0
H1244 H 0.4425 0.22135 0.64598 0.0
C1245 C 0.4006 0.18276 0.57263 0.0
C1246 C 0.22124 0.43077 0.77128 0.0
C1247 C 0.22034 0.41048 0.78474 0.0
H1248 H 0.20684 0.44667 0.72844 0.0
C1249 C 0.20349 0.39018 0.76385 0.0
H1250 H 0.23415 0.44675 0.78611 0.0
C1251 C 0.18807 0.39017 0.73019 0.0
C1252 C 0.18903 0.41046 0.71649 0.0
H1253 H 0.20216 0.37421 0.77362 0.0
H1254 H 0.1755 0.37423 0.71456 0.0
C1255 C 0.2058 0.43077 0.73754 0.0
C1256 C 0.80009 0.19792 0.95907 0.0
C1257 C 0.80564 0.22068 0.96018 0.0
H1258 H 0.78161 0.16584 0.92356 0.0
C1259 C 0.79665 0.22851 0.9238 0.0
H1260 H 0.80655 0.19128 0.98677 0.0
C1261 C 0.78252 0.21399 0.88717 0.0
C1262 C 0.77696 0.19121 0.88599 0.0
H1263 H 0.80094 0.24605 0.92293 0.0
H1264 H 0.7762 0.22071 0.85936 0.0
C1265 C 0.78589 0.18337 0.92256 0.0
C1266 C 0.60373 0.81749 0.07929 0.0
C1267 C 0.58622 0.8096 0.11413 0.0
H1268 H 0.61754 0.80979 0.01662 0.0
C1269 C 0.5687 0.78699 0.11123 0.0
H1270 H 0.61724 0.83491 0.0796 0.0
C1271 C 0.56878 0.77264 0.07472 0.0
C1272 C 0.5864 0.78051 0.04019 0.0
H1273 H 0.55507 0.78024 0.13767 0.0
H1274 H 0.5553 0.7552 0.07432 0.0
C1275 C 0.60384 0.80312 0.04291 0.0
C1276 C 0.7933 0.60965 0.25194 0.0
C1277 C 0.78015 0.59089 0.28218 0.0
H1278 H 0.81796 0.62389 0.19483 0.0
C1279 C 0.78277 0.57183 0.27796 0.0
H1280 H 0.79191 0.62471 0.25447 0.0
C1281 C 0.79789 0.57143 0.24391 0.0
C1282 C 0.81082 0.59009 0.21323 0.0
H1283 H 0.77276 0.55699 0.30022 0.0
H1284 H 0.79959 0.55653 0.24198 0.0
C1285 C 0.80839 0.60925 0.21792 0.0
C1286 C 0.20122 0.80286 0.46011 0.0
C1287 C 0.19574 0.78012 0.46112 0.0
H1288 H 0.2196 0.83498 0.4247 0.0
C1289 C 0.20478 0.77237 0.42466 0.0
H1290 H 0.19472 0.80944 0.48786 0.0
C1291 C 0.21888 0.78696 0.38808 0.0
C1292 C 0.22436 0.80971 0.38701 0.0
H1293 H 0.20054 0.75485 0.42369 0.0
H1294 H 0.22524 0.7803 0.36022 0.0
C1295 C 0.21538 0.81747 0.42363 0.0
loop_
_geom_bond_atom_site_label_1
_geom_bond_atom_site_label_2
_geom_bond_distance
_geom_bond_site_symmetry_2
_ccdc_geom_bond_type
Li0 N17 1.990 . S
Li0 O60 1.956 . S
Li0 O61 1.970 . S
Li0 O62 1.961 . S
Li1 N25 1.990 . S
Li1 O60 1.970 . S
Li1 O61 1.956 . S
Li1 O63 1.961 . S
Li2 N47 1.990 . S
Li2 O60 1.961 . S
Li2 O62 1.956 . S
Li2 O63 1.970 . S
Li3 N53 1.990 . S
Li3 O61 1.961 . S
Li3 O62 1.970 . S
Li3 O63 1.956 . S
C4 C6 1.348 . S
C4 C7 1.356 . S
C4 O60 1.325 . S
N5 C8 1.314 . S
N5 C9 1.279 . S
C6 C4 1.348 . S
C6 C8 1.353 . S
C6 H64 0.929 . S
C7 C4 1.356 . S
C7 C9 1.358 . S
C7 H65 0.930 . S
C8 N5 1.314 . S
C8 C6 1.353 . S
C8 H66 0.930 . S
C9 N5 1.279 . S
C9 C7 1.358 . S
C9 H67 0.930 . S
C10 C13 1.348 . S
C10 C14 1.356 . S
C10 O61 1.325 . S
C11 N12 1.279 . S
C11 C14 1.358 . S
C11 H68 0.930 . S
N12 C11 1.279 . S
N12 C15 1.314 . S
C13 C10 1.348 . S
C13 C15 1.353 . S
C13 H69 0.929 . S
C14 C10 1.356 . S
C14 C11 1.358 . S
C14 H70 0.930 . S
C15 N12 1.314 . S
C15 C13 1.353 . S
C15 H71 0.930 . S
C16 N17 1.314 . S
C16 C21 1.353 . S
C16 H22 0.930 . S
N17 Li0 1.990 . S
N17 C16 1.314 . S
N17 C19 1.279 . S
C18 C19 1.358 . S
C18 C20 1.356 . S
C18 H72 0.930 . S
C19 N17 1.279 . S
C19 C18 1.358 . S
C19 H23 0.930 . S
C20 C18 1.356 . S
C20 C21 1.348 . S
C21 C16 1.353 . S
C21 C20 1.348 . S
C21 H73 0.929 . S
H22 C16 0.930 . S
H23 C19 0.930 . S
C24 N25 1.314 . S
C24 C26 1.353 . S
C24 H30 0.930 . S
N25 Li1 1.990 . S
N25 C24 1.314 . S
N25 C28 1.279 . S
C26 C24 1.353 . S
C26 C29 1.348 . S
C26 H74 0.929 . S
C27 C28 1.358 . S
C27 C29 1.356 . S
C27 H75 0.930 . S
C28 N25 1.279 . S
C28 C27 1.358 . S
C28 H31 0.930 . S
C29 C26 1.348 . S
C29 C27 1.356 . S
H30 C24 0.930 . S
H31 C28 0.930 . S
C32 C34 1.348 . S
C32 C35 1.356 . S
C32 O62 1.325 . S
N33 C36 1.314 . S
N33 C37 1.279 . S
C34 C32 1.348 . S
C34 C36 1.353 . S
C34 H76 0.929 . S
C35 C32 1.356 . S
C35 C37 1.358 . S
C35 H77 0.930 . S
C36 N33 1.314 . S
C36 C34 1.353 . S
C36 H78 0.930 . S
C37 N33 1.279 . S
C37 C35 1.358 . S
C37 H79 0.930 . S
C38 C39 1.348 . S
C38 C40 1.356 . S
C38 O63 1.325 . S
C39 C38 1.348 . S
C39 C41 1.353 . S
C39 H80 0.929 . S
C40 C38 1.356 . S
C40 C42 1.358 . S
C40 H81 0.930 . S
C41 C39 1.353 . S
C41 N43 1.314 . S
C41 H82 0.930 . S
C42 C40 1.358 . S
C42 N43 1.279 . S
C42 H83 0.930 . S
N43 C41 1.314 . S
N43 C42 1.279 . S
C44 C46 1.353 . S
C44 N47 1.314 . S
C44 H50 0.930 . S
C45 N47 1.279 . S
C45 C48 1.358 . S
C45 H51 0.930 . S
C46 C44 1.353 . S
C46 C49 1.348 . S
C46 H84 0.929 . S
N47 Li2 1.990 . S
N47 C44 1.314 . S
N47 C45 1.279 . S
C48 C45 1.358 . S
C48 C49 1.356 . S
C48 H85 0.930 . S
C49 C46 1.348 . S
C49 C48 1.356 . S
H50 C44 0.930 . S
H51 C45 0.930 . S
C52 N53 1.314 . S
C52 C54 1.353 . S
C52 H58 0.930 . S
N53 Li3 1.990 . S
N53 C52 1.314 . S
N53 C56 1.279 . S
C54 C52 1.353 . S
C54 C57 1.348 . S
C54 H86 0.929 . S
C55 C56 1.358 . S
C55 C57 1.356 . S
C55 H87 0.930 . S
C56 N53 1.279 . S
C56 C55 1.358 . S
C56 H59 0.930 . S
C57 C54 1.348 . S
C57 C55 1.356 . S
H58 C52 0.930 . S
H59 C56 0.930 . S
O60 Li0 1.956 . S
O60 Li1 1.970 . S
O60 Li2 1.961 . S
O60 C4 1.325 . S
O61 Li0 1.970 . S
O61 Li1 1.956 . S
O61 Li3 1.961 . S
O61 C10 1.325 . S
O62 Li0 1.961 . S
O62 Li2 1.956 . S
O62 Li3 1.970 . S
O62 C32 1.325 . S
O63 Li1 1.961 . S
O63 Li2 1.970 . S
O63 Li3 1.956 . S
O63 C38 1.325 . S
H64 C6 0.929 . S
H65 C7 0.930 . S
H66 C8 0.930 . S
H67 C9 0.930 . S
H68 C11 0.930 . S
H69 C13 0.929 . S
H70 C14 0.930 . S
H71 C15 0.930 . S
H72 C18 0.930 . S
H73 C21 0.929 . S
H74 C26 0.929 . S
H75 C27 0.930 . S
H76 C34 0.929 . S
H77 C35 0.930 . S
H78 C36 0.930 . S
H79 C37 0.930 . S
H80 C39 0.929 . S
H81 C40 0.930 . S
H82 C41 0.930 . S
H83 C42 0.930 . S
H84 C46 0.929 . S
H85 C48 0.930 . S
H86 C54 0.929 . S
H87 C55 0.930 . S
Li88 N105 1.990 . S
Li88 O148 1.956 . S
Li88 O149 1.970 . S
Li88 O150 1.961 . S
Li89 N113 1.990 . S
Li89 O148 1.970 . S
Li89 O149 1.956 . S
Li89 O151 1.961 . S
Li90 N135 1.990 . S
Li90 O148 1.961 . S
Li90 O150 1.956 . S
Li90 O151 1.970 . S
Li91 N141 1.990 . S
Li91 O149 1.961 . S
Li91 O150 1.970 . S
Li91 O151 1.956 . S
C92 C94 1.348 . S
C92 C95 1.356 . S
C92 O148 1.325 . S
N93 C96 1.314 . S
N93 C97 1.279 . S
C94 C92 1.348 . S
C94 C96 1.353 . S
C94 H152 0.929 . S
C95 C92 1.356 . S
C95 C97 1.358 . S
C95 H153 0.930 . S
C96 N93 1.314 . S
C96 C94 1.353 . S
C96 H154 0.930 . S
C97 N93 1.279 . S
C97 C95 1.358 . S
C97 H155 0.930 . S
C98 C101 1.348 . S
C98 C102 1.356 . S
C98 O149 1.325 . S
C99 N100 1.279 . S
C99 C102 1.358 . S
C99 H156 0.930 . S
N100 C99 1.279 . S
N100 C103 1.314 . S
C101 C98 1.348 . S
C101 C103 1.353 . S
C101 H157 0.929 . S
C102 C98 1.356 . S
C102 C99 1.358 . S
C102 H158 0.930 . S
C103 N100 1.314 . S
C103 C101 1.353 . S
C103 H159 0.930 . S
C104 N105 1.314 . S
C104 C109 1.353 . S
C104 H110 0.930 . S
N105 Li88 1.990 . S
N105 C104 1.314 . S
N105 C107 1.279 . S
C106 C107 1.358 . S
C106 C108 1.356 . S
C106 H160 0.930 . S
C107 N105 1.279 . S
C107 C106 1.358 . S
C107 H111 0.930 . S
C108 C106 1.356 . S
C108 C109 1.348 . S
C109 C104 1.353 . S
C109 C108 1.348 . S
C109 H161 0.929 . S
H110 C104 0.930 . S
H111 C107 0.930 . S
C112 N113 1.314 . S
C112 C114 1.353 . S
C112 H118 0.930 . S
N113 Li89 1.990 . S
N113 C112 1.314 . S
N113 C116 1.279 . S
C114 C112 1.353 . S
C114 C117 1.348 . S
C114 H162 0.902 1_455 S
C115 C116 1.358 . S
C115 C117 1.356 . S
C115 H163 0.930 . S
C116 N113 1.279 . S
C116 C115 1.358 . S
C116 H119 0.930 . S
C117 C114 1.348 . S
C117 C115 1.356 . S
H118 C112 0.930 . S
H119 C116 0.930 . S
C120 C122 1.348 . S
C120 C123 1.356 . S
C120 O150 1.325 . S
N121 C124 1.314 . S
N121 C125 1.279 . S
C122 C120 1.348 . S
C122 C124 1.353 . S
C122 H164 0.929 . S
C123 C120 1.356 . S
C123 C125 1.358 . S
C123 H165 0.930 . S
C124 N121 1.314 . S
C124 C122 1.353 . S
C124 H166 0.930 . S
C125 N121 1.279 . S
C125 C123 1.358 . S
C125 H167 0.930 . S
C126 C127 1.348 . S
C126 C128 1.356 . S
C126 O151 1.325 . S
C127 C126 1.348 . S
C127 C129 1.353 . S
C127 H168 0.929 . S
C128 C126 1.356 . S
C128 C130 1.358 . S
C128 H169 0.930 . S
C129 C127 1.353 . S
C129 N131 1.314 . S
C129 H170 0.930 . S
C130 C128 1.358 . S
C130 N131 1.279 . S
C130 H171 0.930 . S
N131 C129 1.314 . S
N131 C130 1.279 . S
C132 C134 1.353 . S
C132 N135 1.314 . S
C132 H138 0.930 . S
C133 N135 1.279 . S
C133 C136 1.358 . S
C133 H139 0.930 . S
C134 C132 1.353 . S
C134 C137 1.348 . S
C134 H172 0.929 . S
N135 Li90 1.990 . S
N135 C132 1.314 . S
N135 C133 1.279 . S
C136 C133 1.358 . S
C136 C137 1.356 . S
C136 H173 0.930 . S
C137 C134 1.348 . S
C137 C136 1.356 . S
H138 C132 0.930 . S
H139 C133 0.930 . S
C140 N141 1.314 . S
C140 C142 1.353 . S
C140 H146 0.930 . S
N141 Li91 1.990 . S
N141 C140 1.314 . S
N141 C144 1.279 . S
C142 C140 1.353 . S
C142 C145 1.348 . S
C142 H174 0.929 . S
C143 C144 1.358 . S
C143 C145 1.356 . S
C143 H175 0.930 . S
C144 N141 1.279 . S
C144 C143 1.358 . S
C144 H147 0.930 . S
C145 C142 1.348 . S
C145 C143 1.356 . S
H146 C140 0.930 . S
H147 C144 0.930 . S
O148 Li88 1.956 . S
O148 Li89 1.970 . S
O148 Li90 1.961 . S
O148 C92 1.325 . S
O149 Li88 1.970 . S
O149 Li89 1.956 . S
O149 Li91 1.961 . S
O149 C98 1.325 . S
O150 Li88 1.961 . S
O150 Li90 1.956 . S
O150 Li91 1.970 . S
O150 C120 1.325 . S
O151 Li89 1.961 . S
O151 Li90 1.970 . S
O151 Li91 1.956 . S
O151 C126 1.325 . S
H152 C94 0.929 . S
H153 C95 0.930 . S
H154 C96 0.930 . S
H155 C97 0.930 . S
H156 C99 0.930 . S
H157 C101 0.929 . S
H158 C102 0.930 . S
H159 C103 0.930 . S
H160 C106 0.930 . S
H161 C109 0.929 . S
H162 C114 0.902 1_655 S
H163 C115 0.930 . S
H164 C122 0.929 . S
H165 C123 0.930 . S
H166 C124 0.930 . S
H167 C125 0.930 . S
H168 C127 0.929 . S
H169 C128 0.930 . S
H170 C129 0.930 . S
H171 C130 0.930 . S
H172 C134 0.929 . S
H173 C136 0.930 . S
H174 C142 0.929 . S
H175 C143 0.930 . S
Li176 N193 1.990 . S
Li176 O236 1.956 . S
Li176 O237 1.970 . S
Li176 O238 1.961 . S
Li177 N201 1.990 . S
Li177 O236 1.970 . S
Li177 O237 1.956 . S
Li177 O239 1.961 . S
Li178 N223 1.990 . S
Li178 O236 1.961 . S
Li178 O238 1.956 . S
Li178 O239 1.970 . S
Li179 N229 1.990 . S
Li179 O237 1.961 . S
Li179 O238 1.970 . S
Li179 O239 1.956 . S
C180 C182 1.348 . S
C180 C183 1.356 . S
C180 O236 1.325 . S
N181 C184 1.314 . S
N181 C185 1.279 . S
C182 C180 1.348 . S
C182 C184 1.353 . S
C182 H240 0.929 . S
C183 C180 1.356 . S
C183 C185 1.358 . S
C183 H241 0.930 . S
C184 N181 1.314 . S
C184 C182 1.353 . S
C184 H242 0.930 . S
C185 N181 1.279 . S
C185 C183 1.358 . S
C185 H243 0.930 . S
C186 C189 1.348 . S
C186 C190 1.356 . S
C186 O237 1.325 . S
C187 N188 1.279 . S
C187 C190 1.358 . S
C187 H244 0.930 . S
N188 C187 1.279 . S
N188 C191 1.314 . S
C189 C186 1.348 . S
C189 C191 1.353 . S
C189 H245 0.929 . S
C190 C186 1.356 . S
C190 C187 1.358 . S
C190 H246 0.930 . S
C191 N188 1.314 . S
C191 C189 1.353 . S
C191 H247 0.930 . S
C192 N193 1.314 . S
C192 C197 1.353 . S
C192 H198 0.930 . S
N193 Li176 1.990 . S
N193 C192 1.314 . S
N193 C195 1.279 . S
C194 C195 1.358 . S
C194 C196 1.356 . S
C194 H248 0.930 . S
C195 N193 1.279 . S
C195 C194 1.358 . S
C195 H199 0.930 . S
C196 C194 1.356 . S
C196 C197 1.348 . S
C197 C192 1.353 . S
C197 C196 1.348 . S
C197 H249 0.929 . S
H198 C192 0.930 . S
H199 C195 0.930 . S
C200 N201 1.314 . S
C200 C202 1.353 . S
C200 H206 0.930 . S
N201 Li177 1.990 . S
N201 C200 1.314 . S
N201 C204 1.279 . S
C202 C200 1.353 . S
C202 C205 1.348 . S
C202 H250 0.897 1_545 S
C203 C204 1.358 . S
C203 C205 1.356 . S
C203 H251 0.930 . S
C204 N201 1.279 . S
C204 C203 1.358 . S
C204 H207 0.930 . S
C205 C202 1.348 . S
C205 C203 1.356 . S
H206 C200 0.930 . S
H207 C204 0.930 . S
C208 C210 1.348 . S
C208 C211 1.356 . S
C208 O238 1.325 . S
N209 C212 1.314 . S
N209 C213 1.279 . S
C210 C208 1.348 . S
C210 C212 1.353 . S
C210 H252 0.929 . S
C211 C208 1.356 . S
C211 C213 1.358 . S
C211 H253 0.930 . S
C212 N209 1.314 . S
C212 C210 1.353 . S
C212 H254 0.930 . S
C213 N209 1.279 . S
C213 C211 1.358 . S
C213 H255 0.930 . S
C214 C215 1.348 . S
C214 C216 1.356 . S
C214 O239 1.325 . S
C215 C214 1.348 . S
C215 C217 1.353 . S
C215 H256 0.929 . S
C216 C214 1.356 . S
C216 C218 1.358 . S
C216 H257 0.930 . S
C217 C215 1.353 . S
C217 N219 1.314 . S
C217 H258 0.930 . S
C218 C216 1.358 . S
C218 N219 1.279 . S
C218 H259 0.930 . S
N219 C217 1.314 . S
N219 C218 1.279 . S
C220 C222 1.353 . S
C220 N223 1.314 . S
C220 H226 0.930 . S
C221 N223 1.279 . S
C221 C224 1.358 . S
C221 H227 0.930 . S
C222 C220 1.353 . S
C222 C225 1.348 . S
C222 H260 0.929 . S
N223 Li178 1.990 . S
N223 C220 1.314 . S
N223 C221 1.279 . S
C224 C221 1.358 . S
C224 C225 1.356 . S
C224 H261 0.930 . S
C225 C222 1.348 . S
C225 C224 1.356 . S
H226 C220 0.930 . S
H227 C221 0.930 . S
C228 N229 1.314 . S
C228 C230 1.353 . S
C228 H234 0.930 . S
N229 Li179 1.990 . S
N229 C228 1.314 . S
N229 C232 1.279 . S
C230 C228 1.353 . S
C230 C233 1.348 . S
C230 H262 0.929 . S
C231 C232 1.358 . S
C231 C233 1.356 . S
C231 H263 0.930 . S
C232 N229 1.279 . S
C232 C231 1.358 . S
C232 H235 0.930 . S
C233 C230 1.348 . S
C233 C231 1.356 . S
H234 C228 0.930 . S
H235 C232 0.930 . S
O236 Li176 1.956 . S
O236 Li177 1.970 . S
O236 Li178 1.961 . S
O236 C180 1.325 . S
O237 Li176 1.970 . S
O237 Li177 1.956 . S
O237 Li179 1.961 . S
O237 C186 1.325 . S
O238 Li176 1.961 . S
O238 Li178 1.956 . S
O238 Li179 1.970 . S
O238 C208 1.325 . S
O239 Li177 1.961 . S
O239 Li178 1.970 . S
O239 Li179 1.956 . S
O239 C214 1.325 . S
H240 C182 0.929 . S
H241 C183 0.930 . S
H242 C184 0.930 . S
H243 C185 0.930 . S
H244 C187 0.930 . S
H245 C189 0.929 . S
H246 C190 0.930 . S
H247 C191 0.930 . S
H248 C194 0.930 . S
H249 C197 0.929 . S
H250 C202 0.897 1_565 S
H251 C203 0.930 . S
H252 C210 0.929 . S
H253 C211 0.930 . S
H254 C212 0.930 . S
H255 C213 0.930 . S
H256 C215 0.929 . S
H257 C216 0.930 . S
H258 C217 0.930 . S
H259 C218 0.930 . S
H260 C222 0.929 . S
H261 C224 0.930 . S
H262 C230 0.929 . S
H263 C231 0.930 . S
Li264 N281 1.990 1_556 S
Li264 O324 1.956 . S
Li264 O325 1.970 . S
Li264 O326 1.961 . S
Li265 N289 1.990 . S
Li265 O324 1.970 . S
Li265 O325 1.956 . S
Li265 O327 1.961 . S
Li266 N311 1.990 . S
Li266 O324 1.961 . S
Li266 O326 1.956 . S
Li266 O327 1.970 . S
Li267 N317 1.990 . S
Li267 O325 1.961 . S
Li267 O326 1.970 . S
Li267 O327 1.956 . S
C268 C270 1.348 . S
C268 C271 1.356 . S
C268 O324 1.325 1_554 S
N269 C272 1.314 . S
N269 C273 1.279 . S
C270 C268 1.348 . S
C270 C272 1.353 . S
C270 H328 0.929 . S
C271 C268 1.356 . S
C271 C273 1.358 . S
C271 H329 0.930 . S
C272 N269 1.314 . S
C272 C270 1.353 . S
C272 H330 0.930 . S
C273 N269 1.279 . S
C273 C271 1.358 . S
C273 H331 0.930 . S
C274 C277 1.348 . S
C274 C278 1.356 . S
C274 O325 1.325 . S
C275 N276 1.279 . S
C275 C278 1.358 . S
C275 H332 0.930 . S
N276 C275 1.279 . S
N276 C279 1.314 . S
C277 C274 1.348 . S
C277 C279 1.353 . S
C277 H333 0.929 1_556 S
C278 C274 1.356 . S
C278 C275 1.358 . S
C278 H334 0.930 . S
C279 N276 1.314 . S
C279 C277 1.353 . S
C279 H335 0.930 1_556 S
C280 N281 1.314 . S
C280 C285 1.353 . S
C280 H286 0.930 1_554 S
N281 Li264 1.990 1_554 S
N281 C280 1.314 . S
N281 C283 1.279 . S
C282 C283 1.358 . S
C282 C284 1.356 . S
C282 H336 0.930 . S
C283 N281 1.279 . S
C283 C282 1.358 . S
C283 H287 0.930 . S
C284 C282 1.356 . S
C284 C285 1.348 . S
C285 C280 1.353 . S
C285 C284 1.348 . S
C285 H337 0.929 . S
H286 C280 0.930 1_556 S
H287 C283 0.930 . S
C288 N289 1.314 . S
C288 C290 1.353 . S
C288 H294 0.930 . S
N289 Li265 1.990 . S
N289 C288 1.314 . S
N289 C292 1.279 . S
C290 C288 1.353 . S
C290 C293 1.348 . S
C290 H338 0.929 . S
C291 C292 1.358 . S
C291 C293 1.356 . S
C291 H339 0.930 . S
C292 N289 1.279 . S
C292 C291 1.358 . S
C292 H295 0.930 . S
C293 C290 1.348 . S
C293 C291 1.356 . S
H294 C288 0.930 . S
H295 C292 0.930 . S
C296 C298 1.348 . S
C296 C299 1.356 . S
C296 O326 1.325 . S
N297 C300 1.314 . S
N297 C301 1.279 . S
C298 C296 1.348 . S
C298 C300 1.353 . S
C298 H340 0.929 . S
C299 C296 1.356 . S
C299 C301 1.358 . S
C299 H341 0.930 . S
C300 N297 1.314 . S
C300 C298 1.353 . S
C300 H342 0.930 . S
C301 N297 1.279 . S
C301 C299 1.358 . S
C301 H343 0.930 . S
C302 C303 1.348 . S
C302 C304 1.356 . S
C302 O327 1.325 . S
C303 C302 1.348 . S
C303 C305 1.353 . S
C303 H344 0.929 . S
C304 C302 1.356 . S
C304 C306 1.358 . S
C304 H345 0.930 . S
C305 C303 1.353 . S
C305 N307 1.314 . S
C305 H346 0.930 . S
C306 C304 1.358 . S
C306 N307 1.279 . S
C306 H347 0.930 . S
N307 C305 1.314 . S
N307 C306 1.279 . S
C308 C310 1.353 . S
C308 N311 1.314 . S
C308 H314 0.930 . S
C309 N311 1.279 . S
C309 C312 1.358 . S
C309 H315 0.930 . S
C310 C308 1.353 . S
C310 C313 1.348 . S
C310 H348 0.929 . S
N311 Li266 1.990 . S
N311 C308 1.314 . S
N311 C309 1.279 . S
C312 C309 1.358 . S
C312 C313 1.356 . S
C312 H349 0.930 . S
C313 C310 1.348 . S
C313 C312 1.356 . S
H314 C308 0.930 . S
H315 C309 0.930 . S
C316 N317 1.314 . S
C316 C318 1.353 . S
C316 H322 0.930 . S
N317 Li267 1.990 . S
N317 C316 1.314 . S
N317 C320 1.279 . S
C318 C316 1.353 . S
C318 C321 1.348 . S
C318 H350 0.929 . S
C319 C320 1.358 . S
C319 C321 1.356 . S
C319 H351 0.930 . S
C320 N317 1.279 . S
C320 C319 1.358 . S
C320 H323 0.930 . S
C321 C318 1.348 . S
C321 C319 1.356 . S
H322 C316 0.930 . S
H323 C320 0.930 . S
O324 Li264 1.956 . S
O324 Li265 1.970 . S
O324 Li266 1.961 . S
O324 C268 1.325 1_556 S
O325 Li264 1.970 . S
O325 Li265 1.956 . S
O325 Li267 1.961 . S
O325 C274 1.325 . S
O326 Li264 1.961 . S
O326 Li266 1.956 . S
O326 Li267 1.970 . S
O326 C296 1.325 . S
O327 Li265 1.961 . S
O327 Li266 1.970 . S
O327 Li267 1.956 . S
O327 C302 1.325 . S
H328 C270 0.929 . S
H329 C271 0.930 . S
H330 C272 0.930 . S
H331 C273 0.930 . S
H332 C275 0.930 . S
H333 C277 0.929 1_554 S
H334 C278 0.930 . S
H335 C279 0.930 1_554 S
H336 C282 0.930 . S
H337 C285 0.929 . S
H338 C290 0.929 . S
H339 C291 0.930 . S
H340 C298 0.929 . S
H341 C299 0.930 . S
H342 C300 0.930 . S
H343 C301 0.930 . S
H344 C303 0.929 . S
H345 C304 0.930 . S
H346 C305 0.930 . S
H347 C306 0.930 . S
H348 C310 0.929 . S
H349 C312 0.930 . S
H350 C318 0.929 . S
H351 C319 0.930 . S
Li352 N369 1.990 . S
Li352 O412 1.956 . S
Li352 O413 1.970 . S
Li352 O414 1.961 . S
Li353 N377 1.990 . S
Li353 O412 1.970 . S
Li353 O413 1.956 . S
Li353 O415 1.961 . S
Li354 N399 1.990 . S
Li354 O412 1.961 . S
Li354 O414 1.956 . S
Li354 O415 1.970 . S
Li355 N405 1.990 1_554 S
Li355 O413 1.961 . S
Li355 O414 1.970 . S
Li355 O415 1.956 . S
C356 C358 1.348 . S
C356 C359 1.356 . S
C356 O412 1.325 . S
N357 C360 1.314 . S
N357 C361 1.279 . S
C358 C356 1.348 . S
C358 C360 1.353 . S
C358 H416 0.929 . S
C359 C356 1.356 . S
C359 C361 1.358 . S
C359 H417 0.930 . S
C360 N357 1.314 . S
C360 C358 1.353 . S
C360 H418 0.930 . S
C361 N357 1.279 . S
C361 C359 1.358 . S
C361 H419 0.930 . S
C362 C365 1.348 . S
C362 C366 1.356 . S
C362 O413 1.325 . S
C363 N364 1.279 . S
C363 C366 1.358 . S
C363 H420 0.930 . S
N364 C363 1.279 . S
N364 C367 1.314 . S
C365 C362 1.348 . S
C365 C367 1.353 . S
C365 H421 0.929 . S
C366 C362 1.356 . S
C366 C363 1.358 . S
C366 H422 0.930 . S
C367 N364 1.314 . S
C367 C365 1.353 . S
C367 H423 0.930 . S
C368 N369 1.314 . S
C368 C373 1.353 . S
C368 H374 0.930 . S
N369 Li352 1.990 . S
N369 C368 1.314 . S
N369 C371 1.279 . S
C370 C371 1.358 . S
C370 C372 1.356 . S
C370 H424 0.930 . S
C371 N369 1.279 . S
C371 C370 1.358 . S
C371 H375 0.930 . S
C372 C370 1.356 . S
C372 C373 1.348 . S
C373 C368 1.353 . S
C373 C372 1.348 . S
C373 H425 0.902 1_655 S
H374 C368 0.930 . S
H375 C371 0.930 . S
C376 N377 1.314 . S
C376 C378 1.353 . S
C376 H382 0.930 . S
N377 Li353 1.990 . S
N377 C376 1.314 . S
N377 C380 1.279 . S
C378 C376 1.353 . S
C378 C381 1.348 . S
C378 H426 0.929 . S
C379 C380 1.358 . S
C379 C381 1.356 . S
C379 H427 0.930 . S
C380 N377 1.279 . S
C380 C379 1.358 . S
C380 H383 0.930 . S
C381 C378 1.348 . S
C381 C379 1.356 . S
H382 C376 0.930 . S
H383 C380 0.930 . S
C384 C386 1.348 . S
C384 C387 1.356 . S
C384 O414 1.325 . S
N385 C388 1.314 . S
N385 C389 1.279 . S
C386 C384 1.348 . S
C386 C388 1.353 . S
C386 H428 0.929 . S
C387 C384 1.356 . S
C387 C389 1.358 . S
C387 H429 0.930 . S
C388 N385 1.314 . S
C388 C386 1.353 . S
C388 H430 0.930 1_554 S
C389 N385 1.279 . S
C389 C387 1.358 . S
C389 H431 0.930 . S
C390 C391 1.348 1_554 S
C390 C392 1.356 1_554 S
C390 O415 1.325 . S
C391 C390 1.348 1_556 S
C391 C393 1.353 . S
C391 H432 0.929 1_556 S
C392 C390 1.356 1_556 S
C392 C394 1.358 . S
C392 H433 0.930 1_556 S
C393 C391 1.353 . S
C393 N395 1.314 . S
C393 H434 0.930 . S
C394 C392 1.358 . S
C394 N395 1.279 . S
C394 H435 0.930 . S
N395 C393 1.314 . S
N395 C394 1.279 . S
C396 C398 1.353 . S
C396 N399 1.314 . S
C396 H402 0.930 . S
C397 N399 1.279 . S
C397 C400 1.358 . S
C397 H403 0.930 . S
C398 C396 1.353 . S
C398 C401 1.348 . S
C398 H436 0.929 . S
N399 Li354 1.990 . S
N399 C396 1.314 . S
N399 C397 1.279 . S
C400 C397 1.358 . S
C400 C401 1.356 . S
C400 H437 0.930 . S
C401 C398 1.348 . S
C401 C400 1.356 . S
H402 C396 0.930 . S
H403 C397 0.930 . S
C404 N405 1.314 . S
C404 C406 1.353 . S
C404 H410 0.930 1_556 S
N405 Li355 1.990 1_556 S
N405 C404 1.314 . S
N405 C408 1.279 . S
C406 C404 1.353 . S
C406 C409 1.348 . S
C406 H438 0.929 . S
C407 C408 1.358 . S
C407 C409 1.356 . S
C407 H439 0.930 . S
C408 N405 1.279 . S
C408 C407 1.358 . S
C408 H411 0.930 . S
C409 C406 1.348 . S
C409 C407 1.356 . S
H410 C404 0.930 1_554 S
H411 C408 0.930 . S
O412 Li352 1.956 . S
O412 Li353 1.970 . S
O412 Li354 1.961 . S
O412 C356 1.325 . S
O413 Li352 1.970 . S
O413 Li353 1.956 . S
O413 Li355 1.961 . S
O413 C362 1.325 . S
O414 Li352 1.961 . S
O414 Li354 1.956 . S
O414 Li355 1.970 . S
O414 C384 1.325 . S
O415 Li353 1.961 . S
O415 Li354 1.970 . S
O415 Li355 1.956 . S
O415 C390 1.325 . S
H416 C358 0.929 . S
H417 C359 0.930 . S
H418 C360 0.930 . S
H419 C361 0.930 . S
H420 C363 0.930 . S
H421 C365 0.929 . S
H422 C366 0.930 . S
H423 C367 0.930 . S
H424 C370 0.930 . S
H425 C373 0.902 1_455 S
H426 C378 0.929 . S
H427 C379 0.930 . S
H428 C386 0.929 . S
H429 C387 0.930 . S
H430 C388 0.930 1_556 S
H431 C389 0.930 . S
H432 C391 0.929 1_554 S
H433 C392 0.930 1_554 S
H434 C393 0.930 . S
H435 C394 0.930 . S
H436 C398 0.929 . S
H437 C400 0.930 . S
H438 C406 0.929 . S
H439 C407 0.930 . S
Li440 N457 1.990 . S
Li440 O500 1.956 . S
Li440 O501 1.970 . S
Li440 O502 1.961 . S
Li441 N465 1.990 . S
Li441 O500 1.970 . S
Li441 O501 1.956 . S
Li441 O503 1.961 . S
Li442 N487 1.990 . S
Li442 O500 1.961 . S
Li442 O502 1.956 . S
Li442 O503 1.970 . S
Li443 N493 1.990 . S
Li443 O501 1.961 . S
Li443 O502 1.970 . S
Li443 O503 1.956 . S
C444 C446 1.348 . S
C444 C447 1.356 . S
C444 O500 1.325 . S
N445 C448 1.314 . S
N445 C449 1.279 . S
C446 C444 1.348 . S
C446 C448 1.353 . S
C446 H504 0.929 . S
C447 C444 1.356 . S
C447 C449 1.358 . S
C447 H505 0.930 . S
C448 N445 1.314 . S
C448 C446 1.353 . S
C448 H506 0.930 . S
C449 N445 1.279 . S
C449 C447 1.358 . S
C449 H507 0.930 . S
C450 C453 1.348 . S
C450 C454 1.356 . S
C450 O501 1.325 . S
C451 N452 1.279 . S
C451 C454 1.358 . S
C451 H508 0.930 . S
N452 C451 1.279 . S
N452 C455 1.314 . S
C453 C450 1.348 . S
C453 C455 1.353 . S
C453 H509 0.929 . S
C454 C450 1.356 . S
C454 C451 1.358 . S
C454 H510 0.930 . S
C455 N452 1.314 . S
C455 C453 1.353 . S
C455 H511 0.930 . S
C456 N457 1.314 . S
C456 C461 1.353 . S
C456 H462 0.930 . S
N457 Li440 1.990 . S
N457 C456 1.314 . S
N457 C459 1.279 . S
C458 C459 1.358 . S
C458 C460 1.356 . S
C458 H512 0.930 . S
C459 N457 1.279 . S
C459 C458 1.358 . S
C459 H463 0.930 . S
C460 C458 1.356 . S
C460 C461 1.348 . S
C461 C456 1.353 . S
C461 C460 1.348 . S
C461 H513 0.897 1_565 S
H462 C456 0.930 . S
H463 C459 0.930 . S
C464 N465 1.314 . S
C464 C466 1.353 . S
C464 H470 0.930 . S
N465 Li441 1.990 . S
N465 C464 1.314 . S
N465 C468 1.279 . S
C466 C464 1.353 . S
C466 C469 1.348 . S
C466 H514 0.929 . S
C467 C468 1.358 . S
C467 C469 1.356 . S
C467 H515 0.930 . S
C468 N465 1.279 . S
C468 C467 1.358 . S
C468 H471 0.930 . S
C469 C466 1.348 . S
C469 C467 1.356 . S
H470 C464 0.930 . S
H471 C468 0.930 . S
C472 C474 1.348 . S
C472 C475 1.356 . S
C472 O502 1.325 . S
N473 C476 1.314 . S
N473 C477 1.279 . S
C474 C472 1.348 . S
C474 C476 1.353 . S
C474 H516 0.929 . S
C475 C472 1.356 . S
C475 C477 1.358 . S
C475 H517 0.930 . S
C476 N473 1.314 . S
C476 C474 1.353 . S
C476 H518 0.930 . S
C477 N473 1.279 . S
C477 C475 1.358 . S
C477 H519 0.930 . S
C478 C479 1.348 . S
C478 C480 1.356 . S
C478 O503 1.325 . S
C479 C478 1.348 . S
C479 C481 1.353 . S
C479 H520 0.929 . S
C480 C478 1.356 . S
C480 C482 1.358 . S
C480 H521 0.930 . S
C481 C479 1.353 . S
C481 N483 1.314 . S
C481 H522 0.930 . S
C482 C480 1.358 . S
C482 N483 1.279 . S
C482 H523 0.930 . S
N483 C481 1.314 . S
N483 C482 1.279 . S
C484 C486 1.353 . S
C484 N487 1.314 . S
C484 H490 0.930 . S
C485 N487 1.279 . S
C485 C488 1.358 . S
C485 H491 0.930 . S
C486 C484 1.353 . S
C486 C489 1.348 . S
C486 H524 0.929 . S
N487 Li442 1.990 . S
N487 C484 1.314 . S
N487 C485 1.279 . S
C488 C485 1.358 . S
C488 C489 1.356 . S
C488 H525 0.930 . S
C489 C486 1.348 . S
C489 C488 1.356 . S
H490 C484 0.930 . S
H491 C485 0.930 . S
C492 N493 1.314 . S
C492 C494 1.353 . S
C492 H498 0.930 . S
N493 Li443 1.990 . S
N493 C492 1.314 . S
N493 C496 1.279 . S
C494 C492 1.353 . S
C494 C497 1.348 . S
C494 H526 0.929 . S
C495 C496 1.358 . S
C495 C497 1.356 . S
C495 H527 0.930 . S
C496 N493 1.279 . S
C496 C495 1.358 . S
C496 H499 0.930 . S
C497 C494 1.348 . S
C497 C495 1.356 . S
H498 C492 0.930 . S
H499 C496 0.930 . S
O500 Li440 1.956 . S
O500 Li441 1.970 . S
O500 Li442 1.961 . S
O500 C444 1.325 . S
O501 Li440 1.970 . S
O501 Li441 1.956 . S
O501 Li443 1.961 . S
O501 C450 1.325 . S
O502 Li440 1.961 . S
O502 Li442 1.956 . S
O502 Li443 1.970 . S
O502 C472 1.325 . S
O503 Li441 1.961 . S
O503 Li442 1.970 . S
O503 Li443 1.956 . S
O503 C478 1.325 . S
H504 C446 0.929 . S
H505 C447 0.930 . S
H506 C448 0.930 . S
H507 C449 0.930 . S
H508 C451 0.930 . S
H509 C453 0.929 . S
H510 C454 0.930 . S
H511 C455 0.930 . S
H512 C458 0.930 . S
H513 C461 0.897 1_545 S
H514 C466 0.929 . S
H515 C467 0.930 . S
H516 C474 0.929 . S
H517 C475 0.930 . S
H518 C476 0.930 . S
H519 C477 0.930 . S
H520 C479 0.929 . S
H521 C480 0.930 . S
H522 C481 0.930 . S
H523 C482 0.930 . S
H524 C486 0.929 . S
H525 C488 0.930 . S
H526 C494 0.929 . S
H527 C495 0.930 . S
Li528 N545 1.990 . S
Li528 O588 1.956 . S
Li528 O589 1.970 . S
Li528 O590 1.961 . S
Li529 N553 1.990 . S
Li529 O588 1.970 . S
Li529 O589 1.956 . S
Li529 O591 1.961 . S
Li530 N575 1.990 . S
Li530 O588 1.961 . S
Li530 O590 1.956 . S
Li530 O591 1.970 . S
Li531 N581 1.990 . S
Li531 O589 1.961 . S
Li531 O590 1.970 . S
Li531 O591 1.956 . S
C532 C534 1.348 . S
C532 C535 1.356 . S
C532 O588 1.325 . S
N533 C536 1.314 . S
N533 C537 1.279 . S
C534 C532 1.348 . S
C534 C536 1.353 . S
C534 H592 0.929 . S
C535 C532 1.356 . S
C535 C537 1.358 . S
C535 H593 0.930 . S
C536 N533 1.314 . S
C536 C534 1.353 . S
C536 H594 0.930 . S
C537 N533 1.279 . S
C537 C535 1.358 . S
C537 H595 0.930 . S
C538 C541 1.348 . S
C538 C542 1.356 . S
C538 O589 1.325 . S
C539 N540 1.279 . S
C539 C542 1.358 . S
C539 H596 0.930 . S
N540 C539 1.279 . S
N540 C543 1.314 . S
C541 C538 1.348 . S
C541 C543 1.353 . S
C541 H597 0.929 . S
C542 C538 1.356 . S
C542 C539 1.358 . S
C542 H598 0.930 . S
C543 N540 1.314 . S
C543 C541 1.353 . S
C543 H599 0.930 . S
C544 N545 1.314 . S
C544 C549 1.353 . S
C544 H550 0.930 . S
N545 Li528 1.990 . S
N545 C544 1.314 . S
N545 C547 1.279 . S
C546 C547 1.358 . S
C546 C548 1.356 . S
C546 H600 0.930 . S
C547 N545 1.279 . S
C547 C546 1.358 . S
C547 H551 0.930 . S
C548 C546 1.356 . S
C548 C549 1.348 . S
C549 C544 1.353 . S
C549 C548 1.348 . S
C549 H601 0.929 . S
H550 C544 0.930 . S
H551 C547 0.930 . S
C552 N553 1.314 . S
C552 C554 1.353 . S
C552 H558 0.930 . S
N553 Li529 1.990 . S
N553 C552 1.314 . S
N553 C556 1.279 . S
C554 C552 1.353 . S
C554 C557 1.348 . S
C554 H602 0.929 . S
C555 C556 1.358 . S
C555 C557 1.356 . S
C555 H603 0.930 . S
C556 N553 1.279 . S
C556 C555 1.358 . S
C556 H559 0.930 . S
C557 C554 1.348 . S
C557 C555 1.356 . S
H558 C552 0.930 . S
H559 C556 0.930 . S
C560 C562 1.348 . S
C560 C563 1.356 . S
C560 O590 1.325 . S
N561 C564 1.314 . S
N561 C565 1.279 . S
C562 C560 1.348 . S
C562 C564 1.353 . S
C562 H604 0.929 . S
C563 C560 1.356 . S
C563 C565 1.358 . S
C563 H605 0.930 . S
C564 N561 1.314 . S
C564 C562 1.353 . S
C564 H606 0.930 . S
C565 N561 1.279 . S
C565 C563 1.358 . S
C565 H607 0.930 . S
C566 C567 1.348 . S
C566 C568 1.356 . S
C566 O591 1.325 . S
C567 C566 1.348 . S
C567 C569 1.353 . S
C567 H608 0.929 . S
C568 C566 1.356 . S
C568 C570 1.358 . S
C568 H609 0.930 . S
C569 C567 1.353 . S
C569 N571 1.314 . S
C569 H610 0.930 . S
C570 C568 1.358 . S
C570 N571 1.279 . S
C570 H611 0.930 . S
N571 C569 1.314 . S
N571 C570 1.279 . S
C572 C574 1.353 . S
C572 N575 1.314 . S
C572 H578 0.930 . S
C573 N575 1.279 . S
C573 C576 1.358 . S
C573 H579 0.930 . S
C574 C572 1.353 . S
C574 C577 1.348 . S
C574 H612 0.929 . S
N575 Li530 1.990 . S
N575 C572 1.314 . S
N575 C573 1.279 . S
C576 C573 1.358 . S
C576 C577 1.356 . S
C576 H613 0.930 . S
C577 C574 1.348 . S
C577 C576 1.356 . S
H578 C572 0.930 . S
H579 C573 0.930 . S
C580 N581 1.314 . S
C580 C582 1.353 . S
C580 H586 0.930 . S
N581 Li531 1.990 . S
N581 C580 1.314 . S
N581 C584 1.279 . S
C582 C580 1.353 . S
C582 C585 1.348 . S
C582 H614 0.929 . S
C583 C584 1.358 . S
C583 C585 1.356 . S
C583 H615 0.930 . S
C584 N581 1.279 . S
C584 C583 1.358 . S
C584 H587 0.930 . S
C585 C582 1.348 . S
C585 C583 1.356 . S
H586 C580 0.930 . S
H587 C584 0.930 . S
O588 Li528 1.956 . S
O588 Li529 1.970 . S
O588 Li530 1.961 . S
O588 C532 1.325 . S
O589 Li528 1.970 . S
O589 Li529 1.956 . S
O589 Li531 1.961 . S
O589 C538 1.325 . S
O590 Li528 1.961 . S
O590 Li530 1.956 . S
O590 Li531 1.970 . S
O590 C560 1.325 . S
O591 Li529 1.961 . S
O591 Li530 1.970 . S
O591 Li531 1.956 . S
O591 C566 1.325 . S
H592 C534 0.929 . S
H593 C535 0.930 . S
H594 C536 0.930 . S
H595 C537 0.930 . S
H596 C539 0.930 . S
H597 C541 0.929 . S
H598 C542 0.930 . S
H599 C543 0.930 . S
H600 C546 0.930 . S
H601 C549 0.929 . S
H602 C554 0.929 . S
H603 C555 0.930 . S
H604 C562 0.929 . S
H605 C563 0.930 . S
H606 C564 0.930 . S
H607 C565 0.930 . S
H608 C567 0.929 . S
H609 C568 0.930 . S
H610 C569 0.930 . S
H611 C570 0.930 . S
H612 C574 0.929 . S
H613 C576 0.930 . S
H614 C582 0.929 . S
H615 C583 0.930 . S
Li616 N633 1.990 . S
Li616 O676 1.956 . S
Li616 O677 1.970 . S
Li616 O678 1.961 . S
Li617 N641 1.990 . S
Li617 O676 1.970 . S
Li617 O677 1.956 . S
Li617 O679 1.961 . S
Li618 N663 1.990 . S
Li618 O676 1.961 . S
Li618 O678 1.956 . S
Li618 O679 1.970 . S
Li619 N669 1.990 . S
Li619 O677 1.961 . S
Li619 O678 1.970 . S
Li619 O679 1.956 . S
C620 C622 1.348 . S
C620 C623 1.356 . S
C620 O676 1.325 . S
N621 C624 1.314 . S
N621 C625 1.279 . S
C622 C620 1.348 . S
C622 C624 1.353 . S
C622 H680 0.929 . S
C623 C620 1.356 . S
C623 C625 1.358 . S
C623 H681 0.930 . S
C624 N621 1.314 . S
C624 C622 1.353 . S
C624 H682 0.930 . S
C625 N621 1.279 . S
C625 C623 1.358 . S
C625 H683 0.930 . S
C626 C629 1.348 . S
C626 C630 1.356 . S
C626 O677 1.325 . S
C627 N628 1.279 . S
C627 C630 1.358 . S
C627 H684 0.930 . S
N628 C627 1.279 . S
N628 C631 1.314 . S
C629 C626 1.348 . S
C629 C631 1.353 . S
C629 H685 0.929 . S
C630 C626 1.356 . S
C630 C627 1.358 . S
C630 H686 0.930 . S
C631 N628 1.314 . S
C631 C629 1.353 . S
C631 H687 0.930 . S
C632 N633 1.314 . S
C632 C637 1.353 . S
C632 H638 0.930 . S
N633 Li616 1.990 . S
N633 C632 1.314 . S
N633 C635 1.279 . S
C634 C635 1.358 . S
C634 C636 1.356 . S
C634 H688 0.930 . S
C635 N633 1.279 . S
C635 C634 1.358 . S
C635 H639 0.930 . S
C636 C634 1.356 . S
C636 C637 1.348 . S
C637 C632 1.353 . S
C637 C636 1.348 . S
C637 H689 0.929 . S
H638 C632 0.930 . S
H639 C635 0.930 . S
C640 N641 1.314 . S
C640 C642 1.353 . S
C640 H646 0.930 . S
N641 Li617 1.990 . S
N641 C640 1.314 . S
N641 C644 1.279 . S
C642 C640 1.353 . S
C642 C645 1.348 . S
C642 H690 0.929 . S
C643 C644 1.358 . S
C643 C645 1.356 . S
C643 H691 0.930 . S
C644 N641 1.279 . S
C644 C643 1.358 . S
C644 H647 0.930 . S
C645 C642 1.348 . S
C645 C643 1.356 . S
H646 C640 0.930 . S
H647 C644 0.930 . S
C648 C650 1.348 . S
C648 C651 1.356 . S
C648 O678 1.325 . S
N649 C652 1.314 . S
N649 C653 1.279 . S
C650 C648 1.348 . S
C650 C652 1.353 . S
C650 H692 0.929 . S
C651 C648 1.356 . S
C651 C653 1.358 . S
C651 H693 0.930 . S
C652 N649 1.314 . S
C652 C650 1.353 . S
C652 H694 0.930 . S
C653 N649 1.279 . S
C653 C651 1.358 . S
C653 H695 0.930 . S
C654 C655 1.348 . S
C654 C656 1.356 . S
C654 O679 1.325 . S
C655 C654 1.348 . S
C655 C657 1.353 . S
C655 H696 0.929 . S
C656 C654 1.356 . S
C656 C658 1.358 . S
C656 H697 0.930 . S
C657 C655 1.353 . S
C657 N659 1.314 . S
C657 H698 0.930 . S
C658 C656 1.358 . S
C658 N659 1.279 . S
C658 H699 0.930 . S
N659 C657 1.314 . S
N659 C658 1.279 . S
C660 C662 1.353 . S
C660 N663 1.314 . S
C660 H666 0.930 . S
C661 N663 1.279 . S
C661 C664 1.358 . S
C661 H667 0.930 . S
C662 C660 1.353 . S
C662 C665 1.348 . S
C662 H700 0.929 . S
N663 Li618 1.990 . S
N663 C660 1.314 . S
N663 C661 1.279 . S
C664 C661 1.358 . S
C664 C665 1.356 . S
C664 H701 0.930 . S
C665 C662 1.348 . S
C665 C664 1.356 . S
H666 C660 0.930 . S
H667 C661 0.930 . S
C668 N669 1.314 . S
C668 C670 1.353 . S
C668 H674 0.930 . S
N669 Li619 1.990 . S
N669 C668 1.314 . S
N669 C672 1.279 . S
C670 C668 1.353 . S
C670 C673 1.348 . S
C670 H702 0.897 1_455 S
C671 C672 1.358 . S
C671 C673 1.356 . S
C671 H703 0.930 . S
C672 N669 1.279 . S
C672 C671 1.358 . S
C672 H675 0.930 . S
C673 C670 1.348 . S
C673 C671 1.356 . S
H674 C668 0.930 . S
H675 C672 0.930 . S
O676 Li616 1.956 . S
O676 Li617 1.970 . S
O676 Li618 1.961 . S
O676 C620 1.325 . S
O677 Li616 1.970 . S
O677 Li617 1.956 . S
O677 Li619 1.961 . S
O677 C626 1.325 . S
O678 Li616 1.961 . S
O678 Li618 1.956 . S
O678 Li619 1.970 . S
O678 C648 1.325 . S
O679 Li617 1.961 . S
O679 Li618 1.970 . S
O679 Li619 1.956 . S
O679 C654 1.325 . S
H680 C622 0.929 . S
H681 C623 0.930 . S
H682 C624 0.930 . S
H683 C625 0.930 . S
H684 C627 0.930 . S
H685 C629 0.929 . S
H686 C630 0.930 . S
H687 C631 0.930 . S
H688 C634 0.930 . S
H689 C637 0.929 . S
H690 C642 0.929 . S
H691 C643 0.930 . S
H692 C650 0.929 . S
H693 C651 0.930 . S
H694 C652 0.930 . S
H695 C653 0.930 . S
H696 C655 0.929 . S
H697 C656 0.930 . S
H698 C657 0.930 . S
H699 C658 0.930 . S
H700 C662 0.929 . S
H701 C664 0.930 . S
H702 C670 0.897 1_655 S
H703 C671 0.930 . S
Li704 N721 1.990 . S
Li704 O764 1.956 . S
Li704 O765 1.970 . S
Li704 O766 1.961 . S
Li705 N729 1.990 . S
Li705 O764 1.970 . S
Li705 O765 1.956 . S
Li705 O767 1.961 . S
Li706 N751 1.990 . S
Li706 O764 1.961 . S
Li706 O766 1.956 . S
Li706 O767 1.970 . S
Li707 N757 1.990 . S
Li707 O765 1.961 . S
Li707 O766 1.970 . S
Li707 O767 1.956 . S
C708 C710 1.348 . S
C708 C711 1.356 . S
C708 O764 1.325 . S
N709 C712 1.314 . S
N709 C713 1.279 . S
C710 C708 1.348 . S
C710 C712 1.353 . S
C710 H768 0.929 . S
C711 C708 1.356 . S
C711 C713 1.358 . S
C711 H769 0.930 . S
C712 N709 1.314 . S
C712 C710 1.353 . S
C712 H770 0.930 . S
C713 N709 1.279 . S
C713 C711 1.358 . S
C713 H771 0.930 . S
C714 C717 1.348 . S
C714 C718 1.356 . S
C714 O765 1.325 . S
C715 N716 1.279 . S
C715 C718 1.358 . S
C715 H772 0.930 . S
N716 C715 1.279 . S
N716 C719 1.314 . S
C717 C714 1.348 . S
C717 C719 1.353 . S
C717 H773 0.929 . S
C718 C714 1.356 . S
C718 C715 1.358 . S
C718 H774 0.930 . S
C719 N716 1.314 . S
C719 C717 1.353 . S
C719 H775 0.930 . S
C720 N721 1.314 . S
C720 C725 1.353 . S
C720 H726 0.930 . S
N721 Li704 1.990 . S
N721 C720 1.314 . S
N721 C723 1.279 . S
C722 C723 1.358 . S
C722 C724 1.356 . S
C722 H776 0.930 . S
C723 N721 1.279 . S
C723 C722 1.358 . S
C723 H727 0.930 . S
C724 C722 1.356 . S
C724 C725 1.348 . S
C725 C720 1.353 . S
C725 C724 1.348 . S
C725 H777 0.929 . S
H726 C720 0.930 . S
H727 C723 0.930 . S
C728 N729 1.314 . S
C728 C730 1.353 . S
C728 H734 0.930 . S
N729 Li705 1.990 . S
N729 C728 1.314 . S
N729 C732 1.279 . S
C730 C728 1.353 . S
C730 C733 1.348 . S
C730 H778 0.929 . S
C731 C732 1.358 . S
C731 C733 1.356 . S
C731 H779 0.930 . S
C732 N729 1.279 . S
C732 C731 1.358 . S
C732 H735 0.930 . S
C733 C730 1.348 . S
C733 C731 1.356 . S
H734 C728 0.930 . S
H735 C732 0.930 . S
C736 C738 1.348 . S
C736 C739 1.356 . S
C736 O766 1.325 . S
N737 C740 1.314 . S
N737 C741 1.279 . S
C738 C736 1.348 . S
C738 C740 1.353 . S
C738 H780 0.929 . S
C739 C736 1.356 . S
C739 C741 1.358 . S
C739 H781 0.930 . S
C740 N737 1.314 . S
C740 C738 1.353 . S
C740 H782 0.930 . S
C741 N737 1.279 . S
C741 C739 1.358 . S
C741 H783 0.930 . S
C742 C743 1.348 . S
C742 C744 1.356 . S
C742 O767 1.325 . S
C743 C742 1.348 . S
C743 C745 1.353 . S
C743 H784 0.929 . S
C744 C742 1.356 . S
C744 C746 1.358 . S
C744 H785 0.930 . S
C745 C743 1.353 . S
C745 N747 1.314 . S
C745 H786 0.930 . S
C746 C744 1.358 . S
C746 N747 1.279 . S
C746 H787 0.930 . S
N747 C745 1.314 . S
N747 C746 1.279 . S
C748 C750 1.353 . S
C748 N751 1.314 . S
C748 H754 0.930 . S
C749 N751 1.279 . S
C749 C752 1.358 . S
C749 H755 0.930 . S
C750 C748 1.353 . S
C750 C753 1.348 . S
C750 H788 0.902 1_545 S
N751 Li706 1.990 . S
N751 C748 1.314 . S
N751 C749 1.279 . S
C752 C749 1.358 . S
C752 C753 1.356 . S
C752 H789 0.930 . S
C753 C750 1.348 . S
C753 C752 1.356 . S
H754 C748 0.930 . S
H755 C749 0.930 . S
C756 N757 1.314 . S
C756 C758 1.353 . S
C756 H762 0.930 . S
N757 Li707 1.990 . S
N757 C756 1.314 . S
N757 C760 1.279 . S
C758 C756 1.353 . S
C758 C761 1.348 . S
C758 H790 0.929 . S
C759 C760 1.358 . S
C759 C761 1.356 . S
C759 H791 0.930 . S
C760 N757 1.279 . S
C760 C759 1.358 . S
C760 H763 0.930 . S
C761 C758 1.348 . S
C761 C759 1.356 . S
H762 C756 0.930 . S
H763 C760 0.930 . S
O764 Li704 1.956 . S
O764 Li705 1.970 . S
O764 Li706 1.961 . S
O764 C708 1.325 . S
O765 Li704 1.970 . S
O765 Li705 1.956 . S
O765 Li707 1.961 . S
O765 C714 1.325 . S
O766 Li704 1.961 . S
O766 Li706 1.956 . S
O766 Li707 1.970 . S
O766 C736 1.325 . S
O767 Li705 1.961 . S
O767 Li706 1.970 . S
O767 Li707 1.956 . S
O767 C742 1.325 . S
H768 C710 0.929 . S
H769 C711 0.930 . S
H770 C712 0.930 . S
H771 C713 0.930 . S
H772 C715 0.930 . S
H773 C717 0.929 . S
H774 C718 0.930 . S
H775 C719 0.930 . S
H776 C722 0.930 . S
H777 C725 0.929 . S
H778 C730 0.929 . S
H779 C731 0.930 . S
H780 C738 0.929 . S
H781 C739 0.930 . S
H782 C740 0.930 . S
H783 C741 0.930 . S
H784 C743 0.929 . S
H785 C744 0.930 . S
H786 C745 0.930 . S
H787 C746 0.930 . S
H788 C750 0.902 1_565 S
H789 C752 0.930 . S
H790 C758 0.929 . S
H791 C759 0.930 . S
Li792 N809 1.990 . S
Li792 O852 1.956 . S
Li792 O853 1.970 . S
Li792 O854 1.961 . S
Li793 N817 1.990 1_556 S
Li793 O852 1.970 . S
Li793 O853 1.956 . S
Li793 O855 1.961 . S
Li794 N839 1.990 . S
Li794 O852 1.961 . S
Li794 O854 1.956 . S
Li794 O855 1.970 . S
Li795 N845 1.990 . S
Li795 O853 1.961 . S
Li795 O854 1.970 . S
Li795 O855 1.956 . S
C796 C798 1.348 . S
C796 C799 1.356 . S
C796 O852 1.325 . S
N797 C800 1.314 . S
N797 C801 1.279 . S
C798 C796 1.348 . S
C798 C800 1.353 . S
C798 H856 0.929 . S
C799 C796 1.356 . S
C799 C801 1.358 . S
C799 H857 0.930 . S
C800 N797 1.314 . S
C800 C798 1.353 . S
C800 H858 0.930 1_556 S
C801 N797 1.279 . S
C801 C799 1.358 . S
C801 H859 0.930 . S
C802 C805 1.348 1_556 S
C802 C806 1.356 1_556 S
C802 O853 1.325 . S
C803 N804 1.279 . S
C803 C806 1.358 . S
C803 H860 0.930 . S
N804 C803 1.279 . S
N804 C807 1.314 . S
C805 C802 1.348 1_554 S
C805 C807 1.353 . S
C805 H861 0.929 1_554 S
C806 C802 1.356 1_554 S
C806 C803 1.358 . S
C806 H862 0.930 1_554 S
C807 N804 1.314 . S
C807 C805 1.353 . S
C807 H863 0.930 . S
C808 N809 1.314 . S
C808 C813 1.353 . S
C808 H814 0.930 . S
N809 Li792 1.990 . S
N809 C808 1.314 . S
N809 C811 1.279 . S
C810 C811 1.358 . S
C810 C812 1.356 . S
C810 H864 0.930 . S
C811 N809 1.279 . S
C811 C810 1.358 . S
C811 H815 0.930 . S
C812 C810 1.356 . S
C812 C813 1.348 . S
C813 C808 1.353 . S
C813 C812 1.348 . S
C813 H865 0.929 . S
H814 C808 0.930 . S
H815 C811 0.930 . S
C816 N817 1.314 . S
C816 C818 1.353 . S
C816 H822 0.930 1_554 S
N817 Li793 1.990 1_554 S
N817 C816 1.314 . S
N817 C820 1.279 . S
C818 C816 1.353 . S
C818 C821 1.348 . S
C818 H866 0.929 . S
C819 C820 1.358 . S
C819 C821 1.356 . S
C819 H867 0.930 . S
C820 N817 1.279 . S
C820 C819 1.358 . S
C820 H823 0.930 . S
C821 C818 1.348 . S
C821 C819 1.356 . S
H822 C816 0.930 1_556 S
H823 C820 0.930 . S
C824 C826 1.348 . S
C824 C827 1.356 . S
C824 O854 1.325 . S
N825 C828 1.314 . S
N825 C829 1.279 . S
C826 C824 1.348 . S
C826 C828 1.353 . S
C826 H868 0.929 . S
C827 C824 1.356 . S
C827 C829 1.358 . S
C827 H869 0.930 . S
C828 N825 1.314 . S
C828 C826 1.353 . S
C828 H870 0.930 . S
C829 N825 1.279 . S
C829 C827 1.358 . S
C829 H871 0.930 . S
C830 C831 1.348 . S
C830 C832 1.356 . S
C830 O855 1.325 . S
C831 C830 1.348 . S
C831 C833 1.353 . S
C831 H872 0.929 . S
C832 C830 1.356 . S
C832 C834 1.358 . S
C832 H873 0.930 . S
C833 C831 1.353 . S
C833 N835 1.314 . S
C833 H874 0.930 . S
C834 C832 1.358 . S
C834 N835 1.279 . S
C834 H875 0.930 . S
N835 C833 1.314 . S
N835 C834 1.279 . S
C836 C838 1.353 . S
C836 N839 1.314 . S
C836 H842 0.930 . S
C837 N839 1.279 . S
C837 C840 1.358 . S
C837 H843 0.930 . S
C838 C836 1.353 . S
C838 C841 1.348 . S
C838 H876 0.929 . S
N839 Li794 1.990 . S
N839 C836 1.314 . S
N839 C837 1.279 . S
C840 C837 1.358 . S
C840 C841 1.356 . S
C840 H877 0.930 . S
C841 C838 1.348 . S
C841 C840 1.356 . S
H842 C836 0.930 . S
H843 C837 0.930 . S
C844 N845 1.314 . S
C844 C846 1.353 . S
C844 H850 0.930 . S
N845 Li795 1.990 . S
N845 C844 1.314 . S
N845 C848 1.279 . S
C846 C844 1.353 . S
C846 C849 1.348 . S
C846 H878 0.929 . S
C847 C848 1.358 . S
C847 C849 1.356 . S
C847 H879 0.930 . S
C848 N845 1.279 . S
C848 C847 1.358 . S
C848 H851 0.930 . S
C849 C846 1.348 . S
C849 C847 1.356 . S
H850 C844 0.930 . S
H851 C848 0.930 . S
O852 Li792 1.956 . S
O852 Li793 1.970 . S
O852 Li794 1.961 . S
O852 C796 1.325 . S
O853 Li792 1.970 . S
O853 Li793 1.956 . S
O853 Li795 1.961 . S
O853 C802 1.325 . S
O854 Li792 1.961 . S
O854 Li794 1.956 . S
O854 Li795 1.970 . S
O854 C824 1.325 . S
O855 Li793 1.961 . S
O855 Li794 1.970 . S
O855 Li795 1.956 . S
O855 C830 1.325 . S
H856 C798 0.929 . S
H857 C799 0.930 . S
H858 C800 0.930 1_554 S
H859 C801 0.930 . S
H860 C803 0.930 . S
H861 C805 0.929 1_556 S
H862 C806 0.930 1_556 S
H863 C807 0.930 . S
H864 C810 0.930 . S
H865 C813 0.929 . S
H866 C818 0.929 . S
H867 C819 0.930 . S
H868 C826 0.929 . S
H869 C827 0.930 . S
H870 C828 0.930 . S
H871 C829 0.930 . S
H872 C831 0.929 . S
H873 C832 0.930 . S
H874 C833 0.930 . S
H875 C834 0.930 . S
H876 C838 0.929 . S
H877 C840 0.930 . S
H878 C846 0.929 . S
H879 C847 0.930 . S
Li880 N897 1.990 . S
Li880 O940 1.956 . S
Li880 O941 1.970 . S
Li880 O942 1.961 . S
Li881 N905 1.990 . S
Li881 O940 1.970 . S
Li881 O941 1.956 . S
Li881 O943 1.961 . S
Li882 N927 1.990 1_554 S
Li882 O940 1.961 . S
Li882 O942 1.956 . S
Li882 O943 1.970 . S
Li883 N933 1.990 . S
Li883 O941 1.961 . S
Li883 O942 1.970 . S
Li883 O943 1.956 . S
C884 C886 1.348 . S
C884 C887 1.356 . S
C884 O940 1.325 . S
N885 C888 1.314 . S
N885 C889 1.279 . S
C886 C884 1.348 . S
C886 C888 1.353 . S
C886 H944 0.929 . S
C887 C884 1.356 . S
C887 C889 1.358 . S
C887 H945 0.930 . S
C888 N885 1.314 . S
C888 C886 1.353 . S
C888 H946 0.930 . S
C889 N885 1.279 . S
C889 C887 1.358 . S
C889 H947 0.930 . S
C890 C893 1.348 . S
C890 C894 1.356 . S
C890 O941 1.325 . S
C891 N892 1.279 . S
C891 C894 1.358 . S
C891 H948 0.930 . S
N892 C891 1.279 . S
N892 C895 1.314 . S
C893 C890 1.348 . S
C893 C895 1.353 . S
C893 H949 0.929 . S
C894 C890 1.356 . S
C894 C891 1.358 . S
C894 H950 0.930 . S
C895 N892 1.314 . S
C895 C893 1.353 . S
C895 H951 0.930 . S
C896 N897 1.314 . S
C896 C901 1.353 . S
C896 H902 0.930 . S
N897 Li880 1.990 . S
N897 C896 1.314 . S
N897 C899 1.279 . S
C898 C899 1.358 . S
C898 C900 1.356 . S
C898 H952 0.930 . S
C899 N897 1.279 . S
C899 C898 1.358 . S
C899 H903 0.930 . S
C900 C898 1.356 . S
C900 C901 1.348 . S
C901 C896 1.353 . S
C901 C900 1.348 . S
C901 H953 0.929 . S
H902 C896 0.930 . S
H903 C899 0.930 . S
C904 N905 1.314 . S
C904 C906 1.353 . S
C904 H910 0.930 . S
N905 Li881 1.990 . S
N905 C904 1.314 . S
N905 C908 1.279 . S
C906 C904 1.353 . S
C906 C909 1.348 . S
C906 H954 0.929 . S
C907 C908 1.358 . S
C907 C909 1.356 . S
C907 H955 0.930 . S
C908 N905 1.279 . S
C908 C907 1.358 . S
C908 H911 0.930 . S
C909 C906 1.348 . S
C909 C907 1.356 . S
H910 C904 0.930 . S
H911 C908 0.930 . S
C912 C914 1.348 . S
C912 C915 1.356 . S
C912 O942 1.325 1_556 S
N913 C916 1.314 . S
N913 C917 1.279 . S
C914 C912 1.348 . S
C914 C916 1.353 . S
C914 H956 0.929 . S
C915 C912 1.356 . S
C915 C917 1.358 . S
C915 H957 0.930 . S
C916 N913 1.314 . S
C916 C914 1.353 . S
C916 H958 0.930 . S
C917 N913 1.279 . S
C917 C915 1.358 . S
C917 H959 0.930 . S
C918 C919 1.348 . S
C918 C920 1.356 . S
C918 O943 1.325 . S
C919 C918 1.348 . S
C919 C921 1.353 . S
C919 H960 0.929 1_554 S
C920 C918 1.356 . S
C920 C922 1.358 . S
C920 H961 0.930 . S
C921 C919 1.353 . S
C921 N923 1.314 . S
C921 H962 0.930 1_554 S
C922 C920 1.358 . S
C922 N923 1.279 . S
C922 H963 0.930 . S
N923 C921 1.314 . S
N923 C922 1.279 . S
C924 C926 1.353 . S
C924 N927 1.314 . S
C924 H930 0.930 1_556 S
C925 N927 1.279 . S
C925 C928 1.358 . S
C925 H931 0.930 . S
C926 C924 1.353 . S
C926 C929 1.348 . S
C926 H964 0.897 1_655 S
N927 Li882 1.990 1_556 S
N927 C924 1.314 . S
N927 C925 1.279 . S
C928 C925 1.358 . S
C928 C929 1.356 . S
C928 H965 0.930 . S
C929 C926 1.348 . S
C929 C928 1.356 . S
H930 C924 0.930 1_554 S
H931 C925 0.930 . S
C932 N933 1.314 . S
C932 C934 1.353 . S
C932 H938 0.930 . S
N933 Li883 1.990 . S
N933 C932 1.314 . S
N933 C936 1.279 . S
C934 C932 1.353 . S
C934 C937 1.348 . S
C934 H966 0.929 . S
C935 C936 1.358 . S
C935 C937 1.356 . S
C935 H967 0.930 . S
C936 N933 1.279 . S
C936 C935 1.358 . S
C936 H939 0.930 . S
C937 C934 1.348 . S
C937 C935 1.356 . S
H938 C932 0.930 . S
H939 C936 0.930 . S
O940 Li880 1.956 . S
O940 Li881 1.970 . S
O940 Li882 1.961 . S
O940 C884 1.325 . S
O941 Li880 1.970 . S
O941 Li881 1.956 . S
O941 Li883 1.961 . S
O941 C890 1.325 . S
O942 Li880 1.961 . S
O942 Li882 1.956 . S
O942 Li883 1.970 . S
O942 C912 1.325 1_554 S
O943 Li881 1.961 . S
O943 Li882 1.970 . S
O943 Li883 1.956 . S
O943 C918 1.325 . S
H944 C886 0.929 . S
H945 C887 0.930 . S
H946 C888 0.930 . S
H947 C889 0.930 . S
H948 C891 0.930 . S
H949 C893 0.929 . S
H950 C894 0.930 . S
H951 C895 0.930 . S
H952 C898 0.930 . S
H953 C901 0.929 . S
H954 C906 0.929 . S
H955 C907 0.930 . S
H956 C914 0.929 . S
H957 C915 0.930 . S
H958 C916 0.930 . S
H959 C917 0.930 . S
H960 C919 0.929 1_556 S
H961 C920 0.930 . S
H962 C921 0.930 1_556 S
H963 C922 0.930 . S
H964 C926 0.897 1_455 S
H965 C928 0.930 . S
H966 C934 0.929 . S
H967 C935 0.930 . S
Li968 N985 1.990 . S
Li968 O1028 1.956 . S
Li968 O1029 1.970 . S
Li968 O1030 1.961 . S
Li969 N993 1.990 . S
Li969 O1028 1.970 . S
Li969 O1029 1.956 . S
Li969 O1031 1.961 . S
Li970 N1015 1.990 . S
Li970 O1028 1.961 . S
Li970 O1030 1.956 . S
Li970 O1031 1.970 . S
Li971 N1021 1.990 . S
Li971 O1029 1.961 . S
Li971 O1030 1.970 . S
Li971 O1031 1.956 . S
C972 C974 1.348 . S
C972 C975 1.356 . S
C972 O1028 1.325 . S
N973 C976 1.314 . S
N973 C977 1.279 . S
C974 C972 1.348 . S
C974 C976 1.353 . S
C974 H1032 0.929 . S
C975 C972 1.356 . S
C975 C977 1.358 . S
C975 H1033 0.930 . S
C976 N973 1.314 . S
C976 C974 1.353 . S
C976 H1034 0.930 . S
C977 N973 1.279 . S
C977 C975 1.358 . S
C977 H1035 0.930 . S
C978 C981 1.348 . S
C978 C982 1.356 . S
C978 O1029 1.325 . S
C979 N980 1.279 . S
C979 C982 1.358 . S
C979 H1036 0.930 . S
N980 C979 1.279 . S
N980 C983 1.314 . S
C981 C978 1.348 . S
C981 C983 1.353 . S
C981 H1037 0.929 . S
C982 C978 1.356 . S
C982 C979 1.358 . S
C982 H1038 0.930 . S
C983 N980 1.314 . S
C983 C981 1.353 . S
C983 H1039 0.930 . S
C984 N985 1.314 . S
C984 C989 1.353 . S
C984 H990 0.930 . S
N985 Li968 1.990 . S
N985 C984 1.314 . S
N985 C987 1.279 . S
C986 C987 1.358 . S
C986 C988 1.356 . S
C986 H1040 0.930 . S
C987 N985 1.279 . S
C987 C986 1.358 . S
C987 H991 0.930 . S
C988 C986 1.356 . S
C988 C989 1.348 . S
C989 C984 1.353 . S
C989 C988 1.348 . S
C989 H1041 0.929 . S
H990 C984 0.930 . S
H991 C987 0.930 . S
C992 N993 1.314 . S
C992 C994 1.353 . S
C992 H998 0.930 . S
N993 Li969 1.990 . S
N993 C992 1.314 . S
N993 C996 1.279 . S
C994 C992 1.353 . S
C994 C997 1.348 . S
C994 H1042 0.929 . S
C995 C996 1.358 . S
C995 C997 1.356 . S
C995 H1043 0.930 . S
C996 N993 1.279 . S
C996 C995 1.358 . S
C996 H999 0.930 . S
C997 C994 1.348 . S
C997 C995 1.356 . S
H998 C992 0.930 . S
H999 C996 0.930 . S
C1000 C1002 1.348 . S
C1000 C1003 1.356 . S
C1000 O1030 1.325 . S
N1001 C1004 1.314 . S
N1001 C1005 1.279 . S
C1002 C1000 1.348 . S
C1002 C1004 1.353 . S
C1002 H1044 0.929 . S
C1003 C1000 1.356 . S
C1003 C1005 1.358 . S
C1003 H1045 0.930 . S
C1004 N1001 1.314 . S
C1004 C1002 1.353 . S
C1004 H1046 0.930 . S
C1005 N1001 1.279 . S
C1005 C1003 1.358 . S
C1005 H1047 0.930 . S
C1006 C1007 1.348 . S
C1006 C1008 1.356 . S
C1006 O1031 1.325 . S
C1007 C1006 1.348 . S
C1007 C1009 1.353 . S
C1007 H1048 0.929 . S
C1008 C1006 1.356 . S
C1008 C1010 1.358 . S
C1008 H1049 0.930 . S
C1009 C1007 1.353 . S
C1009 N1011 1.314 . S
C1009 H1050 0.930 . S
C1010 C1008 1.358 . S
C1010 N1011 1.279 . S
C1010 H1051 0.930 . S
N1011 C1009 1.314 . S
N1011 C1010 1.279 . S
C1012 C1014 1.353 . S
C1012 N1015 1.314 . S
C1012 H1018 0.930 . S
C1013 N1015 1.279 . S
C1013 C1016 1.358 . S
C1013 H1019 0.930 . S
C1014 C1012 1.353 . S
C1014 C1017 1.348 . S
C1014 H1052 0.929 . S
N1015 Li970 1.990 . S
N1015 C1012 1.314 . S
N1015 C1013 1.279 . S
C1016 C1013 1.358 . S
C1016 C1017 1.356 . S
C1016 H1053 0.930 . S
C1017 C1014 1.348 . S
C1017 C1016 1.356 . S
H1018 C1012 0.930 . S
H1019 C1013 0.930 . S
C1020 N1021 1.314 . S
C1020 C1022 1.353 . S
C1020 H1026 0.930 . S
N1021 Li971 1.990 . S
N1021 C1020 1.314 . S
N1021 C1024 1.279 . S
C1022 C1020 1.353 . S
C1022 C1025 1.348 . S
C1022 H1054 0.902 1_565 S
C1023 C1024 1.358 . S
C1023 C1025 1.356 . S
C1023 H1055 0.930 . S
C1024 N1021 1.279 . S
C1024 C1023 1.358 . S
C1024 H1027 0.930 . S
C1025 C1022 1.348 . S
C1025 C1023 1.356 . S
H1026 C1020 0.930 . S
H1027 C1024 0.930 . S
O1028 Li968 1.956 . S
O1028 Li969 1.970 . S
O1028 Li970 1.961 . S
O1028 C972 1.325 . S
O1029 Li968 1.970 . S
O1029 Li969 1.956 . S
O1029 Li971 1.961 . S
O1029 C978 1.325 . S
O1030 Li968 1.961 . S
O1030 Li970 1.956 . S
O1030 Li971 1.970 . S
O1030 C1000 1.325 . S
O1031 Li969 1.961 . S
O1031 Li970 1.970 . S
O1031 Li971 1.956 . S
O1031 C1006 1.325 . S
H1032 C974 0.929 . S
H1033 C975 0.930 . S
H1034 C976 0.930 . S
H1035 C977 0.930 . S
H1036 C979 0.930 . S
H1037 C981 0.929 . S
H1038 C982 0.930 . S
H1039 C983 0.930 . S
H1040 C986 0.930 . S
H1041 C989 0.929 . S
H1042 C994 0.929 . S
H1043 C995 0.930 . S
H1044 C1002 0.929 . S
H1045 C1003 0.930 . S
H1046 C1004 0.930 . S
H1047 C1005 0.930 . S
H1048 C1007 0.929 . S
H1049 C1008 0.930 . S
H1050 C1009 0.930 . S
H1051 C1010 0.930 . S
H1052 C1014 0.929 . S
H1053 C1016 0.930 . S
H1054 C1022 0.902 1_545 S
H1055 C1023 0.930 . S
C1056 C1057 1.387 . S
C1056 H1060 0.950 . S
C1056 C1065 1.390 . S
C1057 C1056 1.387 . S
C1057 C1059 1.387 . S
H1058 C1065 0.950 . S
C1059 C1057 1.387 . S
C1059 C1061 1.390 . S
C1059 H1063 0.950 . S
H1060 C1056 0.950 . S
C1061 C1059 1.390 . S
C1061 C1062 1.387 . S
C1061 H1064 0.950 . S
C1062 C1061 1.387 . S
C1062 C1065 1.387 . S
H1063 C1059 0.950 . S
H1064 C1061 0.950 . S
C1065 C1056 1.390 . S
C1065 H1058 0.950 . S
C1065 C1062 1.387 . S
C1066 C1067 1.387 . S
C1066 H1070 0.950 . S
C1066 C1075 1.390 1_455 S
C1067 C1066 1.387 . S
C1067 C1069 1.387 . S
H1068 C1075 0.950 . S
C1069 C1067 1.387 . S
C1069 C1071 1.390 1_455 S
C1069 H1073 0.950 . S
H1070 C1066 0.950 . S
C1071 C1069 1.390 1_655 S
C1071 C1072 1.387 . S
C1071 H1074 0.950 . S
C1072 C1071 1.387 . S
C1072 C1075 1.387 . S
H1073 C1069 0.950 . S
H1074 C1071 0.950 . S
C1075 C1066 1.390 1_655 S
C1075 H1068 0.950 . S
C1075 C1072 1.387 . S
C1076 C1077 1.387 . S
C1076 H1080 0.950 . S
C1076 C1085 1.390 1_565 S
C1077 C1076 1.387 . S
C1077 C1079 1.387 . S
H1078 C1085 0.950 . S
C1079 C1077 1.387 . S
C1079 C1081 1.390 1_565 S
C1079 H1083 0.950 . S
H1080 C1076 0.950 . S
C1081 C1079 1.390 1_545 S
C1081 C1082 1.387 . S
C1081 H1084 0.950 . S
C1082 C1081 1.387 . S
C1082 C1085 1.387 . S
H1083 C1079 0.950 . S
H1084 C1081 0.950 . S
C1085 C1076 1.390 1_545 S
C1085 H1078 0.950 . S
C1085 C1082 1.387 . S
C1086 C1087 1.387 . S
C1086 H1090 0.950 . S
C1086 C1095 1.390 . S
C1087 C1086 1.387 . S
C1087 C1089 1.387 . S
H1088 C1095 0.950 . S
C1089 C1087 1.387 . S
C1089 C1091 1.390 . S
C1089 H1093 0.950 . S
H1090 C1086 0.950 . S
C1091 C1089 1.390 . S
C1091 C1092 1.387 . S
C1091 H1094 0.950 . S
C1092 C1091 1.387 . S
C1092 C1095 1.387 . S
H1093 C1089 0.950 . S
H1094 C1091 0.950 . S
C1095 C1086 1.390 . S
C1095 H1088 0.950 . S
C1095 C1092 1.387 . S
C1096 C1097 1.387 . S
C1096 H1100 0.950 . S
C1096 C1105 1.390 1_455 S
C1097 C1096 1.387 . S
C1097 C1099 1.387 . S
H1098 C1105 0.950 . S
C1099 C1097 1.387 . S
C1099 C1101 1.390 1_455 S
C1099 H1103 0.950 . S
H1100 C1096 0.950 . S
C1101 C1099 1.390 1_655 S
C1101 C1102 1.387 . S
C1101 H1104 0.950 . S
C1102 C1101 1.387 . S
C1102 C1105 1.387 . S
H1103 C1099 0.950 . S
H1104 C1101 0.950 . S
C1105 C1096 1.390 1_655 S
C1105 H1098 0.950 . S
C1105 C1102 1.387 . S
C1106 C1107 1.387 . S
C1106 H1110 0.950 . S
C1106 C1115 1.390 1_546 S
C1107 C1106 1.387 . S
C1107 C1109 1.387 . S
H1108 C1115 0.950 . S
C1109 C1107 1.387 . S
C1109 C1111 1.390 1_546 S
C1109 H1113 0.950 . S
H1110 C1106 0.950 . S
C1111 C1109 1.390 1_564 S
C1111 C1112 1.387 . S
C1111 H1114 0.950 . S
C1112 C1111 1.387 . S
C1112 C1115 1.387 . S
H1113 C1109 0.950 . S
H1114 C1111 0.950 . S
C1115 C1106 1.390 1_564 S
C1115 H1108 0.950 . S
C1115 C1112 1.387 . S
C1116 C1117 1.387 . S
C1116 H1120 0.950 . S
C1116 C1125 1.390 . S
C1117 C1116 1.387 . S
C1117 C1119 1.387 . S
H1118 C1125 0.950 . S
C1119 C1117 1.387 . S
C1119 C1121 1.390 . S
C1119 H1123 0.950 . S
H1120 C1116 0.950 . S
C1121 C1119 1.390 . S
C1121 C1122 1.387 . S
C1121 H1124 0.950 . S
C1122 C1121 1.387 . S
C1122 C1125 1.387 . S
H1123 C1119 0.950 . S
H1124 C1121 0.950 . S
C1125 C1116 1.390 . S
C1125 H1118 0.950 . S
C1125 C1122 1.387 . S
C1126 C1127 1.387 . S
C1126 H1130 0.950 . S
C1126 C1135 1.390 . S
C1127 C1126 1.387 . S
C1127 C1129 1.387 . S
H1128 C1135 0.950 . S
C1129 C1127 1.387 . S
C1129 C1131 1.390 . S
C1129 H1133 0.950 . S
H1130 C1126 0.950 . S
C1131 C1129 1.390 . S
C1131 C1132 1.387 . S
C1131 H1134 0.950 . S
C1132 C1131 1.387 . S
C1132 C1135 1.387 . S
H1133 C1129 0.950 . S
H1134 C1131 0.950 . S
C1135 C1126 1.390 . S
C1135 H1128 0.950 . S
C1135 C1132 1.387 . S
C1136 C1137 1.387 . S
C1136 H1140 0.950 . S
C1136 C1145 1.390 . S
C1137 C1136 1.387 . S
C1137 C1139 1.387 . S
H1138 C1145 0.950 . S
C1139 C1137 1.387 . S
C1139 C1141 1.390 . S
C1139 H1143 0.950 . S
H1140 C1136 0.950 . S
C1141 C1139 1.390 . S
C1141 C1142 1.387 . S
C1141 H1144 0.950 . S
C1142 C1141 1.387 . S
C1142 C1145 1.387 . S
H1143 C1139 0.950 . S
H1144 C1141 0.950 . S
C1145 C1136 1.390 . S
C1145 H1138 0.950 . S
C1145 C1142 1.387 . S
C1146 C1147 1.387 . S
C1146 H1150 0.950 . S
C1146 C1155 1.390 . S
C1147 C1146 1.387 . S
C1147 C1149 1.387 . S
H1148 C1155 0.950 . S
C1149 C1147 1.387 . S
C1149 C1151 1.390 . S
C1149 H1153 0.950 . S
H1150 C1146 0.950 . S
C1151 C1149 1.390 . S
C1151 C1152 1.387 . S
C1151 H1154 0.950 . S
C1152 C1151 1.387 . S
C1152 C1155 1.387 . S
H1153 C1149 0.950 . S
H1154 C1151 0.950 . S
C1155 C1146 1.390 . S
C1155 H1148 0.950 . S
C1155 C1152 1.387 . S
C1156 C1157 1.387 . S
C1156 H1160 0.950 . S
C1156 C1165 1.390 . S
C1157 C1156 1.387 . S
C1157 C1159 1.387 . S
H1158 C1165 0.950 . S
C1159 C1157 1.387 . S
C1159 C1161 1.390 . S
C1159 H1163 0.950 . S
H1160 C1156 0.950 . S
C1161 C1159 1.390 . S
C1161 C1162 1.387 . S
C1161 H1164 0.950 . S
C1162 C1161 1.387 . S
C1162 C1165 1.387 . S
H1163 C1159 0.950 . S
H1164 C1161 0.950 . S
C1165 C1156 1.390 . S
C1165 H1158 0.950 . S
C1165 C1162 1.387 . S
C1166 C1167 1.387 . S
C1166 H1170 0.950 . S
C1166 C1175 1.390 . S
C1167 C1166 1.387 . S
C1167 C1169 1.387 . S
H1168 C1175 0.950 . S
C1169 C1167 1.387 . S
C1169 C1171 1.390 . S
C1169 H1173 0.950 . S
H1170 C1166 0.950 . S
C1171 C1169 1.390 . S
C1171 C1172 1.387 . S
C1171 H1174 0.950 . S
C1172 C1171 1.387 . S
C1172 C1175 1.387 . S
H1173 C1169 0.950 . S
H1174 C1171 0.950 . S
C1175 C1166 1.390 . S
C1175 H1168 0.950 . S
C1175 C1172 1.387 . S
C1176 C1177 1.387 . S
C1176 H1180 0.950 . S
C1176 C1185 1.390 . S
C1177 C1176 1.387 . S
C1177 C1179 1.387 . S
H1178 C1185 0.950 . S
C1179 C1177 1.387 . S
C1179 C1181 1.390 . S
C1179 H1183 0.950 . S
H1180 C1176 0.950 . S
C1181 C1179 1.390 . S
C1181 C1182 1.387 . S
C1181 H1184 0.950 . S
C1182 C1181 1.387 . S
C1182 C1185 1.387 . S
H1183 C1179 0.950 . S
H1184 C1181 0.950 . S
C1185 C1176 1.390 . S
C1185 H1178 0.950 . S
C1185 C1182 1.387 . S
C1186 C1187 1.385 1_455 S
C1186 H1190 0.959 . S
C1186 C1195 1.406 . S
C1187 C1186 1.385 1_655 S
C1187 C1189 1.387 . S
H1188 C1195 0.950 . S
C1189 C1187 1.387 . S
C1189 C1191 1.406 . S
C1189 H1193 0.950 . S
H1190 C1186 0.959 . S
C1191 C1189 1.406 . S
C1191 C1192 1.385 1_655 S
C1191 H1194 0.959 . S
C1192 C1191 1.385 1_455 S
C1192 C1195 1.387 . S
H1193 C1189 0.950 . S
H1194 C1191 0.959 . S
C1195 C1186 1.406 . S
C1195 H1188 0.950 . S
C1195 C1192 1.387 . S
C1196 C1197 1.387 . S
C1196 H1200 0.950 . S
C1196 C1205 1.390 1_564 S
C1197 C1196 1.387 . S
C1197 C1199 1.387 . S
H1198 C1205 0.950 . S
C1199 C1197 1.387 . S
C1199 C1201 1.390 1_564 S
C1199 H1203 0.950 . S
H1200 C1196 0.950 . S
C1201 C1199 1.390 1_546 S
C1201 C1202 1.387 . S
C1201 H1204 0.950 . S
C1202 C1201 1.387 . S
C1202 C1205 1.387 . S
H1203 C1199 0.950 . S
H1204 C1201 0.950 . S
C1205 C1196 1.390 1_546 S
C1205 H1198 0.950 . S
C1205 C1202 1.387 . S
C1206 C1207 1.387 . S
C1206 H1210 0.950 . S
C1206 C1215 1.390 . S
C1207 C1206 1.387 . S
C1207 C1209 1.387 . S
H1208 C1215 0.950 . S
C1209 C1207 1.387 . S
C1209 C1211 1.390 . S
C1209 H1213 0.950 . S
H1210 C1206 0.950 . S
C1211 C1209 1.390 . S
C1211 C1212 1.387 . S
C1211 H1214 0.950 . S
C1212 C1211 1.387 . S
C1212 C1215 1.387 . S
H1213 C1209 0.950 . S
H1214 C1211 0.950 . S
C1215 C1206 1.390 . S
C1215 H1208 0.950 . S
C1215 C1212 1.387 . S
C1216 C1217 1.387 . S
C1216 H1220 0.950 . S
C1216 C1225 1.390 1_455 S
C1217 C1216 1.387 . S
C1217 C1219 1.387 . S
H1218 C1225 0.950 . S
C1219 C1217 1.387 . S
C1219 C1221 1.390 1_455 S
C1219 H1223 0.950 . S
H1220 C1216 0.950 . S
C1221 C1219 1.390 1_655 S
C1221 C1222 1.387 . S
C1221 H1224 0.950 . S
C1222 C1221 1.387 . S
C1222 C1225 1.387 . S
H1223 C1219 0.950 . S
H1224 C1221 0.950 . S
C1225 C1216 1.390 1_655 S
C1225 H1218 0.950 . S
C1225 C1222 1.387 . S
C1226 C1227 1.387 . S
C1226 H1230 0.950 . S
C1226 C1235 1.390 1_565 S
C1227 C1226 1.387 . S
C1227 C1229 1.387 . S
H1228 C1235 0.950 . S
C1229 C1227 1.387 . S
C1229 C1231 1.390 1_565 S
C1229 H1233 0.950 . S
H1230 C1226 0.950 . S
C1231 C1229 1.390 1_545 S
C1231 C1232 1.387 . S
C1231 H1234 0.950 . S
C1232 C1231 1.387 . S
C1232 C1235 1.387 . S
H1233 C1229 0.950 . S
H1234 C1231 0.950 . S
C1235 C1226 1.390 1_545 S
C1235 H1228 0.950 . S
C1235 C1232 1.387 . S
C1236 C1237 1.387 . S
C1236 H1240 0.950 . S
C1236 C1245 1.390 . S
C1237 C1236 1.387 . S
C1237 C1239 1.387 . S
H1238 C1245 0.950 . S
C1239 C1237 1.387 . S
C1239 C1241 1.390 . S
C1239 H1243 0.950 . S
H1240 C1236 0.950 . S
C1241 C1239 1.390 . S
C1241 C1242 1.387 . S
C1241 H1244 0.950 . S
C1242 C1241 1.387 . S
C1242 C1245 1.387 . S
H1243 C1239 0.950 . S
H1244 C1241 0.950 . S
C1245 C1236 1.390 . S
C1245 H1238 0.950 . S
C1245 C1242 1.387 . S
C1246 C1247 1.387 . S
C1246 H1250 0.950 . S
C1246 C1255 1.390 . S
C1247 C1246 1.387 . S
C1247 C1249 1.387 . S
H1248 C1255 0.950 . S
C1249 C1247 1.387 . S
C1249 C1251 1.390 . S
C1249 H1253 0.950 . S
H1250 C1246 0.950 . S
C1251 C1249 1.390 . S
C1251 C1252 1.387 . S
C1251 H1254 0.950 . S
C1252 C1251 1.387 . S
C1252 C1255 1.387 . S
H1253 C1249 0.950 . S
H1254 C1251 0.950 . S
C1255 C1246 1.390 . S
C1255 H1248 0.950 . S
C1255 C1252 1.387 . S
C1256 C1257 1.387 . S
C1256 H1260 0.950 . S
C1256 C1265 1.390 . S
C1257 C1256 1.387 . S
C1257 C1259 1.387 . S
H1258 C1265 0.950 . S
C1259 C1257 1.387 . S
C1259 C1261 1.390 . S
C1259 H1263 0.950 . S
H1260 C1256 0.950 . S
C1261 C1259 1.390 . S
C1261 C1262 1.387 . S
C1261 H1264 0.950 . S
C1262 C1261 1.387 . S
C1262 C1265 1.387 . S
H1263 C1259 0.950 . S
H1264 C1261 0.950 . S
C1265 C1256 1.390 . S
C1265 H1258 0.950 . S
C1265 C1262 1.387 . S
C1266 C1267 1.387 . S
C1266 H1270 0.950 . S
C1266 C1275 1.390 . S
C1267 C1266 1.387 . S
C1267 C1269 1.387 . S
H1268 C1275 0.950 . S
C1269 C1267 1.387 . S
C1269 C1271 1.390 . S
C1269 H1273 0.950 . S
H1270 C1266 0.950 . S
C1271 C1269 1.390 . S
C1271 C1272 1.387 . S
C1271 H1274 0.950 . S
C1272 C1271 1.387 . S
C1272 C1275 1.387 . S
H1273 C1269 0.950 . S
H1274 C1271 0.950 . S
C1275 C1266 1.390 . S
C1275 H1268 0.950 . S
C1275 C1272 1.387 . S
C1276 C1277 1.387 . S
C1276 H1280 0.950 . S
C1276 C1285 1.390 . S
C1277 C1276 1.387 . S
C1277 C1279 1.387 . S
H1278 C1285 0.950 . S
C1279 C1277 1.387 . S
C1279 C1281 1.390 . S
C1279 H1283 0.950 . S
H1280 C1276 0.950 . S
C1281 C1279 1.390 . S
C1281 C1282 1.387 . S
C1281 H1284 0.950 . S
C1282 C1281 1.387 . S
C1282 C1285 1.387 . S
H1283 C1279 0.950 . S
H1284 C1281 0.950 . S
C1285 C1276 1.390 . S
C1285 H1278 0.950 . S
C1285 C1282 1.387 . S
C1286 C1287 1.387 . S
C1286 H1290 0.950 . S
C1286 C1295 1.390 . S
C1287 C1286 1.387 . S
C1287 C1289 1.387 . S
H1288 C1295 0.950 . S
C1289 C1287 1.387 . S
C1289 C1291 1.390 . S
C1289 H1293 0.950 . S
H1290 C1286 0.950 . S
C1291 C1289 1.390 . S
C1291 C1292 1.387 . S
C1291 H1294 0.950 . S
C1292 C1291 1.387 . S
C1292 C1295 1.387 . S
H1293 C1289 0.950 . S
H1294 C1291 0.950 . S
C1295 C1286 1.390 . S
C1295 H1288 0.950 . S
C1295 C1292 1.387 . S
C1057 C821 1.896 . S
C1062 C57 1.895 . S
C1067 C137 1.893 . S
C1072 C909 1.894 . S
C1077 C988 1.896 . S
C1082 C225 1.896 . S
C1087 C548 1.895 . S
C1092 C321 1.894 . S
C1097 C636 1.895 . S
C1102 C409 1.896 . S
C1107 C733 1.894 . S
C1112 C497 1.894 . S
C1117 C557 1.566 . S
C1122 C49 1.565 . S
C1127 C145 1.567 . S
C1132 C645 1.565 . S
C1137 C724 1.566 . S
C1142 C233 1.566 . S
C1147 C313 1.565 . S
C1152 C812 1.566 . S
C1157 C900 1.566 . S
C1162 C401 1.565 . S
C1167 C489 1.566 . S
C1172 C997 1.566 . S
C1177 C841 0.666 . S
C1182 C20 0.667 . S
C1187 C929 0.664 . S
C1192 C117 0.665 . S
C1197 C1025 0.664 . S
C1202 C205 0.664 . S
C1207 C284 0.665 . S
C1212 C585 0.664 . S
C1217 C673 0.664 . S
C1222 C372 0.664 . S
C1227 C460 0.666 . S
C1232 C753 0.666 . S
C1237 C29 2.018 . S
C1242 C761 2.018 . S
C1247 C849 2.021 . S
C1252 C108 2.021 . S
C1257 C937 2.018 1_556 S
C1262 C196 2.018 . S
C1267 C1017 2.017 . S
C1272 C293 2.017 1_554 S
C1277 C577 2.017 . S
C1282 C381 2.017 . S
C1287 C665 2.018 . S
C1292 C469 2.018 . S
