# Generated by pormake.
# Topology sxb, (6)-cn, num edge types: 1
# Building blocks:
#     Node 0, Type 0, BuildingBlock: FUNLAD_clean_sbu_0, # of connection points: 6
#     Node 1, Type 0, BuildingBlock: FUNLAD_clean_sbu_0, # of connection points: 6
#     Node 2, Type 0, BuildingBlock: FUNLAD_clean_sbu_0, # of connection points: 6
#     Node 3, Type 0, BuildingBlock: FUNLAD_clean_sbu_0, # of connection points: 6
#     Edge 4, Type (0, 0), BuildingBlock: XUDNAN_clean_linker_2, # of connection points: 2
#     Edge 5, Type (0, 0), BuildingBlock: XUDNAN_clean_linker_2, # of connection points: 2
#     Edge 6, Type (0, 0), BuildingBlock: XUDNAN_clean_linker_2, # of connection points: 2
#     Edge 7, Type (0, 0), BuildingBlock: XUDNAN_clean_linker_2, # of connection points: 2
#     Edge 8, Type (0, 0), BuildingBlock: XUDNAN_clean_linker_2, # of connection points: 2
#     Edge 9, Type (0, 0), BuildingBlock: XUDNAN_clean_linker_2, # of connection points: 2
#     Edge 10, Type (0, 0), BuildingBlock: XUDNAN_clean_linker_2, # of connection points: 2
#     Edge 11, Type (0, 0), BuildingBlock: XUDNAN_clean_linker_2, # of connection points: 2
#     Edge 12, Type (0, 0), BuildingBlock: XUDNAN_clean_linker_2, # of connection points: 2
#     Edge 13, Type (0, 0), BuildingBlock: XUDNAN_clean_linker_2, # of connection points: 2
#     Edge 14, Type (0, 0), BuildingBlock: XUDNAN_clean_linker_2, # of connection points: 2
#     Edge 15, Type (0, 0), BuildingBlock: XUDNAN_clean_linker_2, # of connection points: 2
# Relax obj value: 0.108
# Max RMSD: 0.152
# Mean RMSD: 0.152
data_MOF--net-sxb--node1-FUNLAD_clean_sbu_0--edge1-XUDNAN_clean_linker_2
_symmetry_space_group_name_H-M    P1
_symmetry_Int_Tables_number       1
_symmetry_cell_setting            triclinic
loop_
_symmetry_equiv_pos_as_xyz
'x, y, z'
_cell_length_a     14.85213
_cell_length_b     26.594227
_cell_length_c     43.351505
_cell_angle_alpha  89.820413
_cell_angle_beta   92.338494
_cell_angle_gamma 90.073129
loop_
_atom_site_label
_atom_site_type_symbol
_atom_site_fract_x
_atom_site_fract_y
_atom_site_fract_z
_atom_type_partial_charge
C0 C 0.14906 0.03178 0.02188 0.0
N1 N -0.03488 0.99949 0.94863 0.0
C2 C 0.01011 0.03748 0.9349 0.0
C3 C 0.0063 0.04285 0.90297 0.0
C4 C -0.04593 0.00949 0.88467 0.0
C5 C 0.90988 0.96971 0.89929 0.0
C6 C 0.91644 0.96536 0.93154 0.0
Zn7 Zn -0.03049 0.99956 0.99584 0.0
C8 C 0.04236 0.90501 0.02244 0.0
N9 N -0.01938 0.00722 0.09394 0.0
C10 C 0.02033 0.04865 0.10682 0.0
C11 C 0.94225 0.97151 0.11175 0.0
C12 C 0.94072 0.97761 0.14378 0.0
C13 C -0.0198 0.02053 0.15764 0.0
C14 C 0.02215 0.05564 0.13863 0.0
Zn15 Zn -0.0247 1.00302 0.04676 0.0
O16 O 0.10971 0.02005 0.99634 0.0
C17 C 0.903 0.09795 0.01811 0.0
O18 O 0.10421 0.032 0.04607 0.0
H19 H 0.91088 0.93886 0.10106 0.0
H20 H 0.04771 0.06458 0.94879 0.0
H21 H 0.0496 0.07699 0.09237 0.0
O22 O 0.92733 0.07456 0.99441 0.0
O23 O 0.91574 0.07748 0.04449 0.0
H24 H 0.88097 0.9355 0.94294 0.0
O25 O 0.84705 0.9739 0.04723 0.0
O26 O 0.82952 0.9787 0.99684 0.0
O27 O 0.03452 0.92851 0.0478 0.0
O28 O 0.01203 0.92486 0.99739 0.0
C29 C 0.79644 0.97063 0.02306 0.0
H30 H 0.04327 0.07338 0.89279 0.0
H31 H 0.86847 0.94326 0.88611 0.0
H32 H 0.90671 0.94969 0.15732 0.0
H33 H 0.05561 0.08867 0.1481 0.0
C34 C 0.75311 0.02782 0.5177 0.0
N35 N 0.92465 0.99815 0.59318 0.0
C36 C 0.87719 0.03613 0.60574 0.0
C37 C 0.87485 0.04145 0.63757 0.0
C38 C 0.924 0.00834 0.6571 0.0
C39 C -0.0291 0.9686 0.64365 0.0
C40 C -0.02995 0.96408 0.61143 0.0
Zn41 Zn 0.92992 0.99829 0.54594 0.0
C42 C 0.87665 0.90121 0.51761 0.0
N43 N 0.93501 0.00737 0.44772 0.0
C44 C 0.89028 0.04616 0.43354 0.0
C45 C -0.01587 0.9744 0.43135 0.0
C46 C -0.00881 0.98061 0.39947 0.0
C47 C 0.94658 0.02088 0.38431 0.0
C48 C 0.89423 0.05324 0.40181 0.0
Zn49 Zn 0.93057 1.0031 0.49466 0.0
O50 O 0.79706 0.01893 0.54269 0.0
C51 C -0.01289 0.09984 0.52455 0.0
O52 O 0.7916 0.02405 0.49222 0.0
H53 H 0.01939 0.94388 0.44312 0.0
H54 H 0.84244 0.06337 0.59106 0.0
H55 H 0.85237 0.0723 0.44694 0.0
O56 O -0.02988 0.07353 0.54806 0.0
O57 O -0.02598 0.08082 0.49784 0.0
H58 H 0.00763 0.93422 0.60102 0.0
O59 O 0.06975 0.98278 0.49833 0.0
O60 O 0.06275 0.97836 0.54876 0.0
O61 O 0.8881 0.92533 0.4926 0.0
O62 O 0.89146 0.92288 0.54342 0.0
C63 C 0.1086 0.97665 0.52478 0.0
H64 H 0.83576 0.0719 0.64672 0.0
H65 H 0.01023 0.94232 0.65774 0.0
H66 H 0.03303 0.95494 0.38706 0.0
H67 H 0.85679 0.08409 0.3912 0.0
C68 C 0.63893 0.52489 0.03001 0.0
N69 N 0.46608 0.51006 0.9527 0.0
C70 C 0.51249 0.54975 0.94142 0.0
C71 C 0.51442 0.55819 0.90967 0.0
C72 C 0.46661 0.52616 0.88908 0.0
C73 C 0.41976 0.48521 0.9014 0.0
C74 C 0.42088 0.47766 0.93336 0.0
Zn75 Zn 0.46225 0.50103 0.99971 0.0
C76 C 0.51768 0.3992 0.01974 0.0
N77 N 0.45667 0.48584 0.0979 0.0
C78 C 0.5003 0.51832 0.11758 0.0
C79 C 0.40977 0.44601 0.10873 0.0
C80 C 0.40547 0.43753 0.1404 0.0
C81 C 0.45122 0.46977 0.16139 0.0
C82 C 0.49882 0.51083 0.14953 0.0
Zn83 Zn 0.46124 0.4949 0.05102 0.0
O84 O 0.59507 0.52134 1.00445 0.0
C85 C 0.40836 0.59739 0.02914 0.0
O86 O 0.60026 0.5157 0.05504 0.0
H87 H 0.37573 0.42053 0.09273 0.0
H88 H 0.54772 0.57529 0.95708 0.0
H89 H 0.53715 0.54979 0.10849 0.0
O90 O 0.4239 0.57587 1.00382 0.0
O91 O 0.41894 0.57286 0.05434 0.0
H92 H 0.38443 0.44628 0.94274 0.0
O93 O 0.32175 0.47535 0.04579 0.0
O94 O 0.32884 0.48161 0.9955 0.0
O95 O 0.50452 0.41736 0.04637 0.0
O96 O 0.50139 0.42623 0.99598 0.0
C97 C 0.28283 0.47482 0.01911 0.0
H98 H 0.55326 0.58961 0.90146 0.0
H99 H 0.38087 0.45978 0.88665 0.0
H100 H 0.36624 0.40601 0.14827 0.0
H101 H 0.53608 0.53641 0.16466 0.0
C102 C 0.2651 0.52953 0.5212 0.0
N103 N 0.44157 0.51032 0.59755 0.0
C104 C 0.40226 0.55215 0.60892 0.0
C105 C 0.40306 0.56073 0.64066 0.0
C106 C 0.44629 0.5265 0.66113 0.0
C107 C 0.48579 0.48339 0.64871 0.0
C108 C 0.48215 0.47587 0.61677 0.0
Zn109 Zn 0.44193 0.50109 0.55054 0.0
C110 C 0.37244 0.40174 0.5311 0.0
N111 N 0.44209 0.48556 0.45253 0.0
C112 C 0.39997 0.519 0.43301 0.0
C113 C 0.48528 0.44471 0.44155 0.0
C114 C 0.48725 0.43614 0.40985 0.0
C115 C 0.44306 0.46944 0.38903 0.0
C116 C 0.39927 0.51152 0.40106 0.0
Zn117 Zn 0.44066 0.4948 0.49939 0.0
O118 O 0.3113 0.52772 0.54641 0.0
C119 C 0.51312 0.5935 0.52063 0.0
O120 O 0.3019 0.51817 0.49615 0.0
H121 H 0.51816 0.41849 0.45743 0.0
H122 H 0.37064 0.57926 0.59333 0.0
H123 H 0.36607 0.55127 0.44224 0.0
O124 O 0.49504 0.57299 0.54611 0.0
O125 O 0.49085 0.57121 0.49546 0.0
H126 H 0.51296 0.44281 0.60731 0.0
O127 O 0.58003 0.47252 0.50394 0.0
O128 O 0.57288 0.47509 0.55428 0.0
O129 O 0.39122 0.41838 0.5045 0.0
O130 O 0.39004 0.42882 0.55465 0.0
C131 C 0.61903 0.46961 0.53057 0.0
H132 H 0.36985 0.59396 0.64898 0.0
H133 H 0.52093 0.45617 0.66338 0.0
H134 H 0.52358 0.40376 0.40183 0.0
H135 H 0.36335 0.53795 0.38605 0.0
H136 H 0.29828 0.64665 0.06986 0.0
H137 H 0.4375 0.66535 0.98437 0.0
H138 H 0.36168 0.7462 0.97527 0.0
H139 H 0.09044 0.69534 0.04292 0.0
H140 H 0.06402 0.72887 0.07746 0.0
H141 H 0.13576 0.67434 0.07995 0.0
H142 H 0.26124 0.72643 0.10813 0.0
H143 H 0.18932 0.78101 0.10619 0.0
H144 H 0.30013 0.78378 0.09078 0.0
H145 H 0.25997 0.81756 0.97114 0.0
H146 H 0.14881 0.88485 0.97541 0.0
H147 H 0.07591 0.82711 0.0649 0.0
C148 C 0.31463 0.66863 0.04978 0.0
C149 C 0.37397 0.64965 0.02782 0.0
C150 C 0.39224 0.67896 1.00146 0.0
C151 C 0.34945 0.725 0.99604 0.0
C152 C 0.28883 0.74175 0.01731 0.0
C153 C 0.27228 0.71531 0.04397 0.0
C154 C 0.20085 0.74193 0.06218 0.0
C155 C 0.11787 0.70809 0.06584 0.0
C156 C 0.24025 0.75932 0.09369 0.0
C157 C 0.17886 0.78654 0.04109 0.0
C158 C 0.23053 0.78506 1.01531 0.0
C159 C 0.21993 0.81968 0.99139 0.0
C160 C 0.15572 0.8575 0.99394 0.0
C161 C 0.10322 0.86117 0.02041 0.0
C162 C 0.11528 0.82528 0.04446 0.0
H163 H 0.61055 0.34031 0.06351 0.0
H164 H 0.52557 0.34653 0.96646 0.0
H165 H 0.61687 0.27193 0.95647 0.0
H166 H 0.83614 0.30379 0.05238 0.0
H167 H 0.84545 0.26093 0.08464 0.0
H168 H 0.76883 0.31333 0.08552 0.0
H169 H 0.63603 0.25284 0.09524 0.0
H170 H 0.71251 0.2003 0.09495 0.0
H171 H 0.61407 0.2011 0.06921 0.0
H172 H 0.72636 0.20337 0.95519 0.0
H173 H 0.83299 0.13418 0.96377 0.0
H174 H 0.84575 0.16593 0.06219 0.0
C175 C 0.60954 0.32517 0.04034 0.0
C176 C 0.56075 0.34945 1.01575 0.0
C177 C 0.56234 0.32886 0.98567 0.0
C178 C 0.61431 0.2865 0.97969 0.0
C179 C 0.66408 0.26465 1.00405 0.0
C180 C 0.66112 0.28237 0.0339 0.0
C181 C 0.7226 0.25143 0.05556 0.0
C182 C 0.79769 0.28434 0.0704 0.0
C183 C 0.66803 0.22483 0.0802 0.0
C184 C 0.76055 0.21393 0.03305 0.0
C185 C 0.72631 0.22304 1.00346 0.0
C186 C 0.75287 0.19534 0.9783 0.0
C187 C 0.81428 0.1562 0.98347 0.0
C188 C 0.84802 0.14426 1.0137 0.0
C189 C 0.82123 0.17399 0.03884 0.0
H190 H 0.07013 0.16081 0.48176 0.0
H191 H 0.00844 0.15008 0.57873 0.0
H192 H 0.10318 0.22379 0.59005 0.0
H193 H 0.29821 0.19699 0.49272 0.0
H194 H 0.29902 0.24192 0.46151 0.0
H195 H 0.2218 0.18962 0.45965 0.0
H196 H 0.08674 0.25063 0.45203 0.0
H197 H 0.16378 0.30306 0.45323 0.0
H198 H 0.07254 0.3007 0.47936 0.0
H199 H 0.21354 0.29227 0.59258 0.0
H200 H 0.31751 0.36241 0.58509 0.0
H201 H 0.30616 0.33506 0.48617 0.0
C202 C 0.07502 0.17472 0.50521 0.0
C203 C 0.03184 0.14932 0.52935 0.0
C204 C 0.0408 0.16852 0.5598 0.0
C205 C 0.09485 0.21039 0.56656 0.0
C206 C 0.13902 0.23333 0.54262 0.0
C207 C 0.12847 0.21718 0.51244 0.0
C208 C 0.18429 0.24944 0.4913 0.0
C209 C 0.25501 0.21758 0.47536 0.0
C210 C 0.12318 0.27763 0.46758 0.0
C211 C 0.22856 0.28549 0.51453 0.0
C212 C 0.20167 0.27488 0.54397 0.0
C213 C 0.23432 0.30149 0.5696 0.0
C214 C 0.29398 0.34121 0.56505 0.0
C215 C 0.32012 0.35465 0.53501 0.0
C216 C 0.28777 0.32577 0.50942 0.0
H217 H 0.74931 0.85672 0.47809 0.0
H218 H 0.92629 0.8288 0.55842 0.0
H219 H 0.85765 0.74539 0.56479 0.0
H220 H 0.5569 0.80322 0.50866 0.0
H221 H 0.51278 0.77487 0.47347 0.0
H222 H 0.5832 0.8299 0.47182 0.0
H223 H 0.69264 0.78289 0.43701 0.0
H224 H 0.62194 0.72781 0.43817 0.0
H225 H 0.73971 0.72349 0.44966 0.0
H226 H 0.7625 0.67128 0.56673 0.0
H227 H 0.64831 0.60499 0.56279 0.0
H228 H 0.52779 0.67617 0.48075 0.0
C229 C 0.77525 0.83219 0.49634 0.0
C230 C 0.84387 0.84879 0.5176 0.0
C231 C 0.87426 0.81658 0.54185 0.0
C232 C 0.83572 0.76916 0.54563 0.0
C233 C 0.76644 0.75442 0.52503 0.0
C234 C 0.73654 0.78447 0.50068 0.0
C235 C 0.65618 0.76029 0.48347 0.0
C236 C 0.57233 0.79409 0.48442 0.0
C237 C 0.67901 0.74788 0.45009 0.0
C238 C 0.64482 0.71264 0.50247 0.0
C239 C 0.70979 0.71045 0.52622 0.0
C240 C 0.71179 0.67221 0.54809 0.0
C241 C 0.64583 0.63496 0.54577 0.0
C242 C 0.57847 0.63561 0.52164 0.0
C243 C 0.57856 0.67471 0.49938 0.0
H244 H 0.27571 0.0198 0.97713 0.0
H245 H 0.24709 0.0459 0.07528 0.0
H246 H 0.40607 0.02525 0.08512 0.0
H247 H 0.42511 0.91848 0.98273 0.0
H248 H 0.49695 0.93755 0.95226 0.0
H249 H 0.38057 0.95676 0.9513 0.0
H250 H 0.4272 0.05051 0.94807 0.0
H251 H 0.54359 0.03152 0.94788 0.0
H252 H 0.50745 0.07559 0.97635 0.0
H253 H 0.55627 0.98873 0.08615 0.0
H254 H 0.71246 0.9662 0.07734 0.0
H255 H 0.65755 0.97414 0.97806 0.0
C256 C 0.30365 0.02262 1.00053 0.0
C257 C 0.24827 0.03363 0.02547 0.0
C258 C 0.28749 0.03706 0.05577 0.0
C259 C 0.37774 0.02493 0.06172 0.0
C260 C 0.42877 0.01097 0.03705 0.0
C261 C 0.39506 0.01199 1.00691 0.0
C262 C 0.4675 0.99749 0.98482 0.0
C263 C 0.4409 0.94973 0.96671 0.0
C264 C 0.48764 0.0414 0.96299 0.0
C265 C 0.54617 0.98748 1.00751 0.0
C266 C 0.52058 0.99414 0.03748 0.0
C267 C 0.57829 0.98473 0.0628 0.0
C268 C 0.66692 0.97146 0.05743 0.0
C269 C 0.69811 0.96935 0.02695 0.0
C270 C 0.63595 0.9757 1.00159 0.0
H271 H 0.23742 0.9628 0.48122 0.0
H272 H 0.20152 1.00266 0.57721 0.0
H273 H 0.35817 0.03054 0.58206 0.0
H274 H 0.46688 0.91297 0.49643 0.0
H275 H 0.50593 0.93418 0.45978 0.0
H276 H 0.38922 0.91774 0.46349 0.0
H277 H 0.34377 0.00595 0.44243 0.0
H278 H 0.46057 0.0232 0.43968 0.0
H279 H 0.38683 0.06131 0.46191 0.0
H280 H 0.51002 0.06099 0.57634 0.0
H281 H 0.67004 0.0693 0.56536 0.0
H282 H 0.61865 1.0032 0.47482 0.0
C283 C 0.26331 0.97648 0.50336 0.0
C284 C 0.20695 0.98103 0.52869 0.0
C285 C 0.24315 0.99874 0.55742 0.0
C286 C 0.33184 0.01541 0.56037 0.0
C287 C 0.38417 0.01293 0.53466 0.0
C288 C 0.3532 0.99201 0.5071 0.0
C289 C 0.42745 0.99022 0.48412 0.0
C290 C 0.44864 0.93554 0.47546 0.0
C291 C 0.40316 0.02208 0.45533 0.0
C292 C 0.5042 0.01378 0.50321 0.0
C293 C 0.47616 0.02776 0.53194 0.0
C294 C 0.53352 0.04977 0.55409 0.0
C295 C 0.62402 0.05456 0.54756 0.0
C296 C 0.65622 0.0365 0.51939 0.0
C297 C 0.59519 0.01786 0.49634 0.0
H298 H 0.77303 0.4917 0.07081 0.0
H299 H 0.72288 0.57584 0.98581 0.0
H300 H 0.88278 0.56972 0.97431 0.0
H301 H 0.00588 0.54716 0.08766 0.0
H302 H 0.04776 0.48839 0.10327 0.0
H303 H 0.93121 0.50519 0.10707 0.0
H304 H 0.88411 0.42094 0.08117 0.0
H305 H 0.00024 0.40468 0.07621 0.0
H306 H 0.9223 0.40667 0.04325 0.0
H307 H 0.03402 0.54026 0.9663 0.0
H308 H 0.1901 0.51119 0.96896 0.0
H309 H 0.15372 0.45249 0.06143 0.0
C310 C 0.79679 0.51067 0.05055 0.0
C311 C 0.73604 0.53389 0.02903 0.0
C312 C 0.76863 0.55758 1.00242 0.0
C313 C 0.8591 0.55412 0.9956 0.0
C314 C 0.91614 0.52778 0.01598 0.0
C315 C 0.88788 0.50816 0.04351 0.0
C316 C -0.03564 0.4808 0.06071 0.0
C317 C -0.01123 0.50696 0.0915 0.0
C318 C 0.94132 0.42498 0.06561 0.0
C319 C 0.03848 0.48697 0.03794 0.0
C320 C 0.00785 0.51339 1.01213 0.0
C321 C 0.06012 0.52083 0.98673 0.0
C322 C 0.14848 0.50344 0.98837 0.0
C323 C 0.18446 0.48003 1.01559 0.0
C324 C 0.12805 0.47056 0.04045 0.0
H325 H 0.13018 0.49867 0.47953 0.0
H326 H 0.17847 0.57262 0.56792 0.0
H327 H 0.01945 0.5616 0.57955 0.0
H328 H 0.89605 0.55258 0.46573 0.0
H329 H 0.85542 0.49567 0.44746 0.0
H330 H -0.02845 0.51411 0.44443 0.0
H331 H 0.02081 0.42724 0.46639 0.0
H332 H 0.90504 0.40915 0.47053 0.0
H333 H -0.01707 0.40749 0.5035 0.0
H334 H 0.86802 0.52933 0.5863 0.0
H335 H 0.71227 0.49972 0.58222 0.0
H336 H 0.74957 0.45376 0.48736 0.0
C337 C 0.10631 0.51432 0.50073 0.0
C338 C 0.16687 0.53616 0.52295 0.0
C339 C 0.13348 0.5555 0.55066 0.0
C340 C 0.04335 0.54915 0.5576 0.0
C341 C -0.01313 0.52441 0.53629 0.0
C342 C 0.0154 0.50905 0.5079 0.0
C343 C 0.93918 0.48328 0.48953 0.0
C344 C 0.91405 0.5132 0.46004 0.0
C345 C -0.03651 0.42855 0.48206 0.0
C346 C 0.86472 0.48554 0.51251 0.0
C347 C 0.89511 0.50859 0.53948 0.0
C348 C 0.84232 0.51239 0.56504 0.0
C349 C 0.75398 0.49471 0.56254 0.0
C350 C 0.71802 0.47467 0.53434 0.0
C351 C 0.77498 0.46898 0.50917 0.0
H352 H -0.04011 0.95123 0.33736 0.0
H353 H -0.04402 0.11207 0.35494 0.0
H354 H -0.03801 0.12857 0.29929 0.0
H355 H 0.12065 0.95904 0.27591 0.0
H356 H 0.06772 0.90901 0.25382 0.0
H357 H 0.06204 0.90944 0.29525 0.0
H358 H 0.88781 0.90491 0.28996 0.0
H359 H 0.8929 0.90494 0.24853 0.0
H360 H 0.82722 0.95184 0.26736 0.0
H361 H -0.04063 0.12822 0.24211 0.0
H362 H -0.03776 0.11144 0.18655 0.0
H363 H -0.01566 0.95115 0.20558 0.0
C364 C -0.03853 0.98995 0.32963 0.0
C365 C -0.04432 0.03028 0.3507 0.0
C366 C -0.04253 0.08037 0.33936 0.0
C367 C -0.03833 0.09024 0.30775 0.0
C368 C -0.03434 0.04971 0.28768 0.0
C369 C -0.03298 1.00059 0.29809 0.0
C370 C -0.0267 0.96409 0.27145 0.0
C371 C 0.06117 0.9336 0.27428 0.0
C372 C 0.89035 0.92941 0.2692 0.0
C373 C -0.02591 1.00052 0.24449 0.0
C374 C -0.03095 0.04964 0.25446 0.0
C375 C -0.03482 0.08997 0.23398 0.0
C376 C -0.03235 0.07995 0.20238 0.0
C377 C -0.02453 0.02996 0.19141 0.0
C378 C -0.02179 0.98978 0.21296 0.0
H379 H 0.94746 0.93887 0.83775 0.0
H380 H 0.93563 0.09964 0.8548 0.0
H381 H 0.92928 0.11571 0.79895 0.0
H382 H 0.08325 0.94396 0.77197 0.0
H383 H 0.02366 0.89492 0.75101 0.0
H384 H 0.02674 0.89498 0.79259 0.0
H385 H 0.85227 0.89349 0.79204 0.0
H386 H 0.84865 0.89293 0.75045 0.0
H387 H 0.78944 0.94101 0.77067 0.0
H388 H 0.9332 0.11554 0.74221 0.0
H389 H 0.93279 0.09907 0.68658 0.0
H390 H 0.92908 0.93819 0.70469 0.0
C391 C 0.94245 0.97739 0.82974 0.0
C392 C 0.94384 0.01801 0.8508 0.0
C393 C 0.93736 0.0679 0.83925 0.0
C394 C 0.93306 0.07749 0.80752 0.0
C395 C 0.93393 0.03682 0.78749 0.0
C396 C 0.93714 0.98774 0.79797 0.0
C397 C 0.93607 0.95114 0.77114 0.0
C398 C 0.02259 0.91938 0.77173 0.0
C399 C 0.85156 0.91767 0.77107 0.0
C400 C 0.9327 0.98752 0.74408 0.0
C401 C 0.93203 0.03669 0.75421 0.0
C402 C 0.93196 0.07721 0.7339 0.0
C403 C 0.93104 0.06735 0.70226 0.0
C404 C 0.92881 0.01728 0.69101 0.0
C405 C 0.93062 0.97687 0.71239 0.0
H406 H 0.44911 0.53856 0.34128 0.0
H407 H 0.43296 0.3781 0.35964 0.0
H408 H 0.43651 0.36124 0.30396 0.0
H409 H 0.30153 0.53605 0.27246 0.0
H410 H 0.36385 0.58392 0.25291 0.0
H411 H 0.36223 0.58354 0.29444 0.0
H412 H 0.53679 0.58162 0.29764 0.0
H413 H 0.53894 0.58163 0.25613 0.0
H414 H 0.59542 0.5325 0.27811 0.0
H415 H 0.44621 0.36123 0.24658 0.0
H416 H 0.45246 0.37817 0.19091 0.0
H417 H 0.44929 0.53882 0.20905 0.0
C418 C 0.44529 0.49986 0.33367 0.0
C419 C 0.44194 0.45969 0.35514 0.0
C420 C 0.43794 0.40961 0.34394 0.0
C421 C 0.4392 0.39957 0.31225 0.0
C422 C 0.44339 0.43996 0.29188 0.0
C423 C 0.44544 0.48912 0.30205 0.0
C424 C 0.44813 0.52561 0.27514 0.0
C425 C 0.36391 0.55926 0.27365 0.0
C426 C 0.535 0.55719 0.27687 0.0
C427 C 0.4478 0.48918 0.24831 0.0
C428 C 0.44554 0.43999 0.25854 0.0
C429 C 0.44678 0.39962 0.23823 0.0
C430 C 0.44963 0.40972 0.20655 0.0
C431 C 0.45016 0.45989 0.19528 0.0
C432 C 0.44958 0.50003 0.21669 0.0
H433 H 0.442 0.45764 0.70909 0.0
H434 H 0.46376 0.6178 0.6904 0.0
H435 H 0.46796 0.63473 0.74617 0.0
H436 H 0.30524 0.46574 0.77468 0.0
H437 H 0.36245 0.41581 0.79571 0.0
H438 H 0.35864 0.41584 0.75413 0.0
H439 H 0.53297 0.41147 0.75442 0.0
H440 H 0.53729 0.41108 0.796 0.0
H441 H 0.59875 0.45808 0.7754 0.0
H442 H 0.46558 0.63485 0.80381 0.0
H443 H 0.46581 0.61791 0.85959 0.0
H444 H 0.46047 0.45727 0.84125 0.0
C445 C 0.44863 0.49629 0.71659 0.0
C446 C 0.45129 0.53636 0.69504 0.0
C447 C 0.45906 0.58638 0.70618 0.0
C448 C 0.4623 0.59645 0.73791 0.0
C449 C 0.4589 0.55615 0.75837 0.0
C450 C 0.45321 0.50704 0.74823 0.0
C451 C 0.45275 0.47057 0.77518 0.0
C452 C 0.36451 0.44021 0.7749 0.0
C453 C 0.53537 0.43575 0.77525 0.0
C454 C 0.45856 0.50696 0.80203 0.0
C455 C 0.46146 0.55612 0.79177 0.0
C456 C 0.46462 0.59646 0.81215 0.0
C457 C 0.46551 0.58634 0.8439 0.0
C458 C 0.46442 0.53616 0.85515 0.0
C459 C 0.4607 0.49608 0.83368 0.0
loop_
_geom_bond_atom_site_label_1
_geom_bond_atom_site_label_2
_geom_bond_distance
_geom_bond_site_symmetry_2
_ccdc_geom_bond_type
C0 O16 1.251 1_554 S
C0 O18 1.254 . S
N1 C2 1.335 1_655 S
N1 C6 1.304 1_545 S
N1 Zn7 2.020 1_545 S
C2 N1 1.335 1_455 S
C2 C3 1.379 . S
C2 H20 0.952 . S
C3 C2 1.379 . S
C3 C4 1.390 1_455 S
C3 H30 0.949 . S
C4 C3 1.390 1_655 S
C4 C5 1.357 1_545 S
C5 C4 1.357 1_565 S
C5 C6 1.370 . S
C5 H31 0.950 . S
C6 N1 1.304 1_565 S
C6 C5 1.370 . S
C6 H24 0.948 . S
Zn7 N1 2.020 1_565 S
Zn7 O16 2.039 1_665 S
Zn7 O22 2.034 1_565 S
Zn7 O26 2.025 . S
Zn7 O28 2.024 1_655 S
C8 O27 1.246 . S
C8 O28 1.249 1_554 S
N9 C10 1.307 1_565 S
N9 C11 1.333 1_455 S
N9 Zn15 2.020 1_565 S
C10 N9 1.307 1_545 S
C10 C14 1.370 . S
C10 H21 0.948 . S
C11 N9 1.333 1_655 S
C11 C12 1.379 . S
C11 H19 0.952 . S
C12 C11 1.379 . S
C12 C13 1.390 1_655 S
C12 H32 0.949 . S
C13 C12 1.390 1_455 S
C13 C14 1.357 1_565 S
C14 C10 1.370 . S
C14 C13 1.357 1_545 S
C14 H33 0.950 . S
Zn15 N9 2.020 1_545 S
Zn15 O18 2.025 . S
Zn15 O23 2.024 1_455 S
Zn15 O25 2.039 1_445 S
Zn15 O27 2.034 1_545 S
O16 C0 1.251 1_556 S
O16 Zn7 2.039 1_445 S
C17 O22 1.246 1_554 S
C17 O23 1.249 . S
O18 C0 1.254 . S
O18 Zn15 2.025 . S
H19 C11 0.952 . S
H20 C2 0.952 . S
H21 C10 0.948 . S
O22 Zn7 2.034 1_545 S
O22 C17 1.246 1_556 S
O23 Zn15 2.024 1_655 S
O23 C17 1.249 . S
H24 C6 0.948 . S
O25 Zn15 2.039 1_665 S
O25 C29 1.251 . S
O26 Zn7 2.025 . S
O26 C29 1.254 1_556 S
O27 C8 1.246 . S
O27 Zn15 2.034 1_565 S
O28 Zn7 2.024 1_455 S
O28 C8 1.249 1_556 S
C29 O25 1.251 . S
C29 O26 1.254 1_554 S
H30 C3 0.949 . S
H31 C5 0.950 . S
H32 C12 0.949 . S
H33 C14 0.950 . S
C34 O50 1.251 . S
C34 O52 1.254 . S
N35 C36 1.335 1_455 S
N35 C40 1.304 1_545 S
N35 Zn41 2.020 1_545 S
C36 N35 1.335 1_655 S
C36 C37 1.379 . S
C36 H54 0.952 . S
C37 C36 1.379 . S
C37 C38 1.390 1_655 S
C37 H64 0.949 . S
C38 C37 1.390 1_455 S
C38 C39 1.357 1_545 S
C39 C38 1.357 1_565 S
C39 C40 1.370 . S
C39 H65 0.950 . S
C40 N35 1.304 1_565 S
C40 C39 1.370 . S
C40 H58 0.948 . S
Zn41 N35 2.020 1_565 S
Zn41 O50 2.039 1_465 S
Zn41 O56 2.034 1_565 S
Zn41 O60 2.025 . S
Zn41 O62 2.024 1_455 S
C42 O61 1.246 . S
C42 O62 1.249 . S
N43 C44 1.307 1_565 S
N43 C45 1.333 1_655 S
N43 Zn49 2.020 1_565 S
C44 N43 1.307 1_545 S
C44 C48 1.370 . S
C44 H55 0.948 . S
C45 N43 1.333 1_455 S
C45 C46 1.379 . S
C45 H53 0.952 . S
C46 C45 1.379 . S
C46 C47 1.390 1_455 S
C46 H66 0.949 . S
C47 C46 1.390 1_655 S
C47 C48 1.357 1_565 S
C48 C44 1.370 . S
C48 C47 1.357 1_545 S
C48 H67 0.950 . S
Zn49 N43 2.020 1_545 S
Zn49 O52 2.025 . S
Zn49 O57 2.024 1_655 S
Zn49 O59 2.039 1_645 S
Zn49 O61 2.034 1_545 S
O50 C34 1.251 . S
O50 Zn41 2.039 1_645 S
C51 O56 1.246 . S
C51 O57 1.249 . S
O52 C34 1.254 . S
O52 Zn49 2.025 . S
H53 C45 0.952 . S
H54 C36 0.952 . S
H55 C44 0.948 . S
O56 Zn41 2.034 1_545 S
O56 C51 1.246 . S
O57 Zn49 2.024 1_455 S
O57 C51 1.249 . S
H58 C40 0.948 . S
O59 Zn49 2.039 1_465 S
O59 C63 1.251 . S
O60 Zn41 2.025 . S
O60 C63 1.254 . S
O61 C42 1.246 . S
O61 Zn49 2.034 1_565 S
O62 Zn41 2.024 1_655 S
O62 C42 1.249 . S
C63 O59 1.251 . S
C63 O60 1.254 . S
H64 C37 0.949 . S
H65 C39 0.950 . S
H66 C46 0.949 . S
H67 C48 0.950 . S
C68 O84 1.251 1_554 S
C68 O86 1.254 . S
N69 C70 1.333 . S
N69 C74 1.307 . S
N69 Zn75 2.020 . S
C70 N69 1.333 . S
C70 C71 1.379 . S
C70 H88 0.952 . S
C71 C70 1.379 . S
C71 C72 1.390 . S
C71 H98 0.949 . S
C72 C71 1.390 . S
C72 C73 1.357 . S
C73 C72 1.357 . S
C73 C74 1.370 . S
C73 H99 0.950 . S
C74 N69 1.307 . S
C74 C73 1.370 . S
C74 H92 0.948 . S
Zn75 N69 2.020 . S
Zn75 O84 2.039 . S
Zn75 O90 2.034 . S
Zn75 O94 2.025 . S
Zn75 O96 2.024 . S
C76 O95 1.246 . S
C76 O96 1.249 1_554 S
N77 C78 1.307 . S
N77 C79 1.333 . S
N77 Zn83 2.020 . S
C78 N77 1.307 . S
C78 C82 1.370 . S
C78 H89 0.948 . S
C79 N77 1.333 . S
C79 C80 1.379 . S
C79 H87 0.952 . S
C80 C79 1.379 . S
C80 C81 1.390 . S
C80 H100 0.949 . S
C81 C80 1.390 . S
C81 C82 1.357 . S
C82 C78 1.370 . S
C82 C81 1.357 . S
C82 H101 0.950 . S
Zn83 N77 2.020 . S
Zn83 O86 2.025 . S
Zn83 O91 2.024 . S
Zn83 O93 2.039 . S
Zn83 O95 2.034 . S
O84 C68 1.251 1_556 S
O84 Zn75 2.039 . S
C85 O90 1.246 1_554 S
C85 O91 1.249 . S
O86 C68 1.254 . S
O86 Zn83 2.025 . S
H87 C79 0.952 . S
H88 C70 0.952 . S
H89 C78 0.948 . S
O90 Zn75 2.034 . S
O90 C85 1.246 1_556 S
O91 Zn83 2.024 . S
O91 C85 1.249 . S
H92 C74 0.948 . S
O93 Zn83 2.039 . S
O93 C97 1.251 . S
O94 Zn75 2.025 . S
O94 C97 1.254 1_556 S
O95 C76 1.246 . S
O95 Zn83 2.034 . S
O96 Zn75 2.024 . S
O96 C76 1.249 1_556 S
C97 O93 1.251 . S
C97 O94 1.254 1_554 S
H98 C71 0.949 . S
H99 C73 0.950 . S
H100 C80 0.949 . S
H101 C82 0.950 . S
C102 O118 1.251 . S
C102 O120 1.254 . S
N103 C104 1.333 . S
N103 C108 1.307 . S
N103 Zn109 2.020 . S
C104 N103 1.333 . S
C104 C105 1.379 . S
C104 H122 0.952 . S
C105 C104 1.379 . S
C105 C106 1.390 . S
C105 H132 0.949 . S
C106 C105 1.390 . S
C106 C107 1.357 . S
C107 C106 1.357 . S
C107 C108 1.370 . S
C107 H133 0.950 . S
C108 N103 1.307 . S
C108 C107 1.370 . S
C108 H126 0.948 . S
Zn109 N103 2.020 . S
Zn109 O118 2.039 . S
Zn109 O124 2.034 . S
Zn109 O128 2.025 . S
Zn109 O130 2.024 . S
C110 O129 1.246 . S
C110 O130 1.249 . S
N111 C112 1.307 . S
N111 C113 1.333 . S
N111 Zn117 2.020 . S
C112 N111 1.307 . S
C112 C116 1.370 . S
C112 H123 0.948 . S
C113 N111 1.333 . S
C113 C114 1.379 . S
C113 H121 0.952 . S
C114 C113 1.379 . S
C114 C115 1.390 . S
C114 H134 0.949 . S
C115 C114 1.390 . S
C115 C116 1.357 . S
C116 C112 1.370 . S
C116 C115 1.357 . S
C116 H135 0.950 . S
Zn117 N111 2.020 . S
Zn117 O120 2.025 . S
Zn117 O125 2.024 . S
Zn117 O127 2.039 . S
Zn117 O129 2.034 . S
O118 C102 1.251 . S
O118 Zn109 2.039 . S
C119 O124 1.246 . S
C119 O125 1.249 . S
O120 C102 1.254 . S
O120 Zn117 2.025 . S
H121 C113 0.952 . S
H122 C104 0.952 . S
H123 C112 0.948 . S
O124 Zn109 2.034 . S
O124 C119 1.246 . S
O125 Zn117 2.024 . S
O125 C119 1.249 . S
H126 C108 0.948 . S
O127 Zn117 2.039 . S
O127 C131 1.251 . S
O128 Zn109 2.025 . S
O128 C131 1.254 . S
O129 C110 1.246 . S
O129 Zn117 2.034 . S
O130 Zn109 2.024 . S
O130 C110 1.249 . S
C131 O127 1.251 . S
C131 O128 1.254 . S
H132 C105 0.949 . S
H133 C107 0.950 . S
H134 C114 0.949 . S
H135 C116 0.950 . S
H136 C148 0.930 . S
H137 C150 0.930 . S
H138 C151 0.930 . S
H139 C155 0.959 . S
H140 C155 0.959 . S
H141 C155 0.961 . S
H142 C156 0.960 . S
H143 C156 0.961 . S
H144 C156 0.959 . S
H145 C159 0.929 . S
H146 C160 0.931 . S
H147 C162 0.930 . S
C148 H136 0.930 . S
C148 C149 1.399 . S
C148 C153 1.399 . S
C149 C148 1.399 . S
C149 C150 1.376 1_554 S
C150 H137 0.930 . S
C150 C149 1.376 1_556 S
C150 C151 1.388 . S
C151 H138 0.930 . S
C151 C150 1.388 . S
C151 C152 1.390 . S
C152 C151 1.390 . S
C152 C153 1.394 1_556 S
C152 C158 1.465 . S
C153 C148 1.399 . S
C153 C152 1.394 1_554 S
C153 C154 1.516 . S
C154 C153 1.516 . S
C154 C155 1.502 . S
C154 C156 1.561 . S
C154 C157 1.526 . S
C155 H139 0.959 . S
C155 H140 0.959 . S
C155 H141 0.961 . S
C155 C154 1.502 . S
C156 H142 0.960 . S
C156 H143 0.961 . S
C156 H144 0.959 . S
C156 C154 1.561 . S
C157 C154 1.526 . S
C157 C158 1.396 1_554 S
C157 C162 1.390 . S
C158 C152 1.465 . S
C158 C157 1.396 1_556 S
C158 C159 1.399 . S
C159 H145 0.929 . S
C159 C158 1.399 . S
C159 C160 1.385 . S
C160 H146 0.931 . S
C160 C159 1.385 . S
C160 C161 1.389 1_556 S
C161 C160 1.389 1_554 S
C161 C162 1.387 . S
C162 H147 0.930 . S
C162 C157 1.390 . S
C162 C161 1.387 . S
H163 C175 0.930 . S
H164 C177 0.930 . S
H165 C178 0.930 . S
H166 C182 0.959 . S
H167 C182 0.959 . S
H168 C182 0.961 . S
H169 C183 0.960 . S
H170 C183 0.961 . S
H171 C183 0.959 . S
H172 C186 0.929 . S
H173 C187 0.931 . S
H174 C189 0.930 . S
C175 H163 0.930 . S
C175 C176 1.399 . S
C175 C180 1.399 . S
C176 C175 1.399 . S
C176 C177 1.376 1_554 S
C177 H164 0.930 . S
C177 C176 1.376 1_556 S
C177 C178 1.388 . S
C178 H165 0.930 . S
C178 C177 1.388 . S
C178 C179 1.390 . S
C179 C178 1.390 . S
C179 C180 1.394 1_556 S
C179 C185 1.465 . S
C180 C175 1.399 . S
C180 C179 1.394 1_554 S
C180 C181 1.516 . S
C181 C180 1.516 . S
C181 C182 1.502 . S
C181 C183 1.561 . S
C181 C184 1.526 . S
C182 H166 0.959 . S
C182 H167 0.959 . S
C182 H168 0.961 . S
C182 C181 1.502 . S
C183 H169 0.960 . S
C183 H170 0.961 . S
C183 H171 0.959 . S
C183 C181 1.561 . S
C184 C181 1.526 . S
C184 C185 1.396 1_554 S
C184 C189 1.390 . S
C185 C179 1.465 . S
C185 C184 1.396 1_556 S
C185 C186 1.399 . S
C186 H172 0.929 . S
C186 C185 1.399 . S
C186 C187 1.385 . S
C187 H173 0.931 . S
C187 C186 1.385 . S
C187 C188 1.389 1_556 S
C188 C187 1.389 1_554 S
C188 C189 1.387 . S
C189 H174 0.930 . S
C189 C184 1.390 . S
C189 C188 1.387 . S
H190 C202 0.930 . S
H191 C204 0.930 . S
H192 C205 0.930 . S
H193 C209 0.959 . S
H194 C209 0.959 . S
H195 C209 0.961 . S
H196 C210 0.960 . S
H197 C210 0.961 . S
H198 C210 0.959 . S
H199 C213 0.929 . S
H200 C214 0.931 . S
H201 C216 0.930 . S
C202 H190 0.930 . S
C202 C203 1.399 . S
C202 C207 1.399 . S
C203 C202 1.399 . S
C203 C204 1.376 . S
C204 H191 0.930 . S
C204 C203 1.376 . S
C204 C205 1.388 . S
C205 H192 0.930 . S
C205 C204 1.388 . S
C205 C206 1.390 . S
C206 C205 1.390 . S
C206 C207 1.394 . S
C206 C212 1.465 . S
C207 C202 1.399 . S
C207 C206 1.394 . S
C207 C208 1.516 . S
C208 C207 1.516 . S
C208 C209 1.502 . S
C208 C210 1.561 . S
C208 C211 1.526 . S
C209 H193 0.959 . S
C209 H194 0.959 . S
C209 H195 0.961 . S
C209 C208 1.502 . S
C210 H196 0.960 . S
C210 H197 0.961 . S
C210 H198 0.959 . S
C210 C208 1.561 . S
C211 C208 1.526 . S
C211 C212 1.396 . S
C211 C216 1.390 . S
C212 C206 1.465 . S
C212 C211 1.396 . S
C212 C213 1.399 . S
C213 H199 0.929 . S
C213 C212 1.399 . S
C213 C214 1.385 . S
C214 H200 0.931 . S
C214 C213 1.385 . S
C214 C215 1.389 . S
C215 C214 1.389 . S
C215 C216 1.387 . S
C216 H201 0.930 . S
C216 C211 1.390 . S
C216 C215 1.387 . S
H217 C229 0.930 . S
H218 C231 0.930 1_455 S
H219 C232 0.930 . S
H220 C236 0.959 . S
H221 C236 0.959 . S
H222 C236 0.961 . S
H223 C237 0.960 . S
H224 C237 0.961 . S
H225 C237 0.959 . S
H226 C240 0.929 . S
H227 C241 0.931 . S
H228 C243 0.930 . S
C229 H217 0.930 . S
C229 C230 1.399 . S
C229 C234 1.399 . S
C230 C229 1.399 . S
C230 C231 1.376 . S
C231 H218 0.930 1_655 S
C231 C230 1.376 . S
C231 C232 1.388 . S
C232 H219 0.930 . S
C232 C231 1.388 . S
C232 C233 1.390 . S
C233 C232 1.390 . S
C233 C234 1.394 . S
C233 C239 1.465 . S
C234 C229 1.399 . S
C234 C233 1.394 . S
C234 C235 1.516 . S
C235 C234 1.516 . S
C235 C236 1.502 . S
C235 C237 1.561 . S
C235 C238 1.526 . S
C236 H220 0.959 . S
C236 H221 0.959 . S
C236 H222 0.961 . S
C236 C235 1.502 . S
C237 H223 0.960 . S
C237 H224 0.961 . S
C237 H225 0.959 . S
C237 C235 1.561 . S
C238 C235 1.526 . S
C238 C239 1.396 . S
C238 C243 1.390 . S
C239 C233 1.465 . S
C239 C238 1.396 . S
C239 C240 1.399 . S
C240 H226 0.929 . S
C240 C239 1.399 . S
C240 C241 1.385 . S
C241 H227 0.931 . S
C241 C240 1.385 . S
C241 C242 1.389 . S
C242 C241 1.389 . S
C242 C243 1.387 . S
C243 H228 0.930 . S
C243 C238 1.390 . S
C243 C242 1.387 . S
H244 C256 0.930 . S
H245 C258 0.930 . S
H246 C259 0.930 . S
H247 C263 0.959 . S
H248 C263 0.959 . S
H249 C263 0.961 . S
H250 C264 0.960 . S
H251 C264 0.961 . S
H252 C264 0.959 . S
H253 C267 0.929 . S
H254 C268 0.931 . S
H255 C270 0.931 . S
C256 H244 0.930 . S
C256 C257 1.399 1_566 S
C256 C261 1.399 . S
C257 C256 1.399 1_544 S
C257 C258 1.376 . S
C258 H245 0.930 . S
C258 C257 1.376 . S
C258 C259 1.388 . S
C259 H246 0.930 . S
C259 C258 1.388 . S
C259 C260 1.390 . S
C260 C259 1.390 . S
C260 C261 1.391 1_544 S
C260 C266 1.465 . S
C261 C256 1.399 . S
C261 C260 1.391 1_566 S
C261 C262 1.519 . S
C262 C261 1.519 . S
C262 C263 1.502 1_556 S
C262 C264 1.561 . S
C262 C265 1.523 1_556 S
C263 H247 0.959 . S
C263 H248 0.959 . S
C263 H249 0.961 . S
C263 C262 1.502 1_554 S
C264 H250 0.960 . S
C264 H251 0.961 . S
C264 H252 0.959 . S
C264 C262 1.561 . S
C265 C262 1.523 1_554 S
C265 C266 1.400 1_565 S
C265 C270 1.389 1_554 S
C266 C260 1.465 . S
C266 C265 1.400 1_545 S
C266 C267 1.399 . S
C267 H253 0.929 . S
C267 C266 1.399 . S
C267 C268 1.385 . S
C268 H254 0.931 . S
C268 C267 1.385 . S
C268 C269 1.389 1_545 S
C269 C268 1.389 1_565 S
C269 C270 1.386 1_554 S
C270 H255 0.931 . S
C270 C265 1.389 1_556 S
C270 C269 1.386 1_556 S
H271 C283 0.930 . S
H272 C285 0.930 . S
H273 C286 0.930 . S
H274 C290 0.959 . S
H275 C290 0.959 . S
H276 C290 0.961 . S
H277 C291 0.960 1_565 S
H278 C291 0.961 1_565 S
H279 C291 0.959 . S
H280 C294 0.929 . S
H281 C295 0.931 . S
H282 C297 0.930 1_565 S
C283 H271 0.930 . S
C283 C284 1.399 . S
C283 C288 1.399 . S
C284 C283 1.399 . S
C284 C285 1.376 1_565 S
C285 H272 0.930 . S
C285 C284 1.376 1_545 S
C285 C286 1.388 . S
C286 H273 0.930 . S
C286 C285 1.388 . S
C286 C287 1.390 . S
C287 C286 1.390 . S
C287 C288 1.394 1_545 S
C287 C293 1.465 . S
C288 C283 1.399 . S
C288 C287 1.394 1_565 S
C288 C289 1.516 . S
C289 C288 1.516 . S
C289 C290 1.502 . S
C289 C291 1.561 1_565 S
C289 C292 1.534 . S
C290 H274 0.959 . S
C290 H275 0.959 . S
C290 H276 0.961 . S
C290 C289 1.502 . S
C291 H277 0.960 1_545 S
C291 H278 0.961 1_545 S
C291 H279 0.959 . S
C291 C289 1.561 1_545 S
C292 C289 1.534 . S
C292 C293 1.387 1_565 S
C292 C297 1.389 1_565 S
C293 C287 1.465 . S
C293 C292 1.387 1_545 S
C293 C294 1.399 . S
C294 H280 0.929 . S
C294 C293 1.399 . S
C294 C295 1.385 . S
C295 H281 0.931 . S
C295 C294 1.385 . S
C295 C296 1.389 . S
C296 C295 1.389 . S
C296 C297 1.387 . S
C297 H282 0.930 1_545 S
C297 C292 1.389 1_545 S
C297 C296 1.387 . S
H298 C310 0.930 . S
H299 C312 0.930 . S
H300 C313 0.930 . S
H301 C317 0.959 . S
H302 C317 0.959 . S
H303 C317 0.961 1_655 S
H304 C318 0.960 . S
H305 C318 0.961 1_455 S
H306 C318 0.959 . S
H307 C321 0.929 . S
H308 C322 0.931 . S
H309 C324 0.930 . S
C310 H298 0.930 . S
C310 C311 1.399 . S
C310 C315 1.399 . S
C311 C310 1.399 . S
C311 C312 1.376 1_554 S
C312 H299 0.930 . S
C312 C311 1.376 1_556 S
C312 C313 1.388 . S
C313 H300 0.930 . S
C313 C312 1.388 . S
C313 C314 1.390 . S
C314 C313 1.390 . S
C314 C315 1.394 1_556 S
C314 C320 1.465 1_655 S
C315 C310 1.399 . S
C315 C314 1.394 1_554 S
C315 C316 1.516 1_655 S
C316 C315 1.516 1_455 S
C316 C317 1.502 . S
C316 C318 1.561 1_455 S
C316 C319 1.526 . S
C317 H301 0.959 . S
C317 H302 0.959 . S
C317 H303 0.961 1_455 S
C317 C316 1.502 . S
C318 H304 0.960 . S
C318 H305 0.961 1_655 S
C318 H306 0.959 . S
C318 C316 1.561 1_655 S
C319 C316 1.526 . S
C319 C320 1.396 1_554 S
C319 C324 1.390 . S
C320 C314 1.465 1_455 S
C320 C319 1.396 1_556 S
C320 C321 1.399 . S
C321 H307 0.929 . S
C321 C320 1.399 . S
C321 C322 1.385 . S
C322 H308 0.931 . S
C322 C321 1.385 . S
C322 C323 1.389 1_556 S
C323 C322 1.389 1_554 S
C323 C324 1.387 . S
C324 H309 0.930 . S
C324 C319 1.390 . S
C324 C323 1.387 . S
H325 C337 0.930 . S
H326 C339 0.930 . S
H327 C340 0.930 . S
H328 C344 0.959 . S
H329 C344 0.959 . S
H330 C344 0.961 1_455 S
H331 C345 0.960 . S
H332 C345 0.961 1_655 S
H333 C345 0.959 . S
H334 C348 0.929 . S
H335 C349 0.931 . S
H336 C351 0.930 . S
C337 H325 0.930 . S
C337 C338 1.399 . S
C337 C342 1.399 . S
C338 C337 1.399 . S
C338 C339 1.376 . S
C339 H326 0.930 . S
C339 C338 1.376 . S
C339 C340 1.388 . S
C340 H327 0.930 . S
C340 C339 1.388 . S
C340 C341 1.390 . S
C341 C340 1.390 . S
C341 C342 1.394 . S
C341 C347 1.465 1_455 S
C342 C337 1.399 . S
C342 C341 1.394 . S
C342 C343 1.516 1_455 S
C343 C342 1.516 1_655 S
C343 C344 1.502 . S
C343 C345 1.561 1_655 S
C343 C346 1.526 . S
C344 H328 0.959 . S
C344 H329 0.959 . S
C344 H330 0.961 1_655 S
C344 C343 1.502 . S
C345 H331 0.960 . S
C345 H332 0.961 1_455 S
C345 H333 0.959 . S
C345 C343 1.561 1_455 S
C346 C343 1.526 . S
C346 C347 1.396 . S
C346 C351 1.390 . S
C347 C341 1.465 1_655 S
C347 C346 1.396 . S
C347 C348 1.399 . S
C348 H334 0.929 . S
C348 C347 1.399 . S
C348 C349 1.385 . S
C349 H335 0.931 . S
C349 C348 1.385 . S
C349 C350 1.389 . S
C350 C349 1.389 . S
C350 C351 1.387 . S
C351 H336 0.930 . S
C351 C346 1.390 . S
C351 C350 1.387 . S
H352 C364 0.930 . S
H353 C366 0.930 . S
H354 C367 0.930 . S
H355 C371 0.959 . S
H356 C371 0.959 . S
H357 C371 0.961 . S
H358 C372 0.960 . S
H359 C372 0.961 . S
H360 C372 0.959 . S
H361 C375 0.929 . S
H362 C376 0.931 . S
H363 C378 0.930 . S
C364 H352 0.930 . S
C364 C365 1.408 1_455 S
C364 C369 1.399 . S
C365 C364 1.408 1_655 S
C365 C366 1.365 1_565 S
C366 H353 0.930 . S
C366 C365 1.365 1_545 S
C366 C367 1.388 . S
C367 H354 0.930 . S
C367 C366 1.388 . S
C367 C368 1.390 . S
C368 C367 1.390 . S
C368 C369 1.394 1_645 S
C368 C374 1.465 . S
C369 C364 1.399 . S
C369 C368 1.394 1_465 S
C369 C370 1.516 . S
C370 C369 1.516 . S
C370 C371 1.502 . S
C370 C372 1.561 1_455 S
C370 C373 1.526 . S
C371 H355 0.959 . S
C371 H356 0.959 . S
C371 H357 0.961 . S
C371 C370 1.502 . S
C372 H358 0.960 . S
C372 H359 0.961 . S
C372 H360 0.959 . S
C372 C370 1.561 1_655 S
C373 C370 1.526 . S
C373 C374 1.396 1_465 S
C373 C378 1.390 . S
C374 C368 1.465 . S
C374 C373 1.396 1_645 S
C374 C375 1.399 . S
C375 H361 0.929 . S
C375 C374 1.399 . S
C375 C376 1.385 . S
C376 H362 0.931 . S
C376 C375 1.385 . S
C376 C377 1.395 . S
C377 C376 1.395 . S
C377 C378 1.382 1_645 S
C378 H363 0.930 . S
C378 C373 1.390 . S
C378 C377 1.382 1_465 S
H379 C391 0.930 . S
H380 C393 0.930 . S
H381 C394 0.930 . S
H382 C398 0.959 . S
H383 C398 0.959 . S
H384 C398 0.961 . S
H385 C399 0.960 . S
H386 C399 0.961 . S
H387 C399 0.959 . S
H388 C402 0.929 . S
H389 C403 0.931 . S
H390 C405 0.930 . S
C391 H379 0.930 . S
C391 C392 1.399 1_465 S
C391 C396 1.399 . S
C392 C391 1.399 1_645 S
C392 C393 1.376 . S
C393 H380 0.930 . S
C393 C392 1.376 . S
C393 C394 1.388 . S
C394 H381 0.930 . S
C394 C393 1.388 . S
C394 C395 1.390 . S
C395 C394 1.390 . S
C395 C396 1.394 1_645 S
C395 C401 1.465 . S
C396 C391 1.399 . S
C396 C395 1.394 1_465 S
C396 C397 1.516 . S
C397 C396 1.516 . S
C397 C398 1.502 . S
C397 C399 1.561 1_455 S
C397 C400 1.526 . S
C398 H382 0.959 . S
C398 H383 0.959 . S
C398 H384 0.961 . S
C398 C397 1.502 . S
C399 H385 0.960 . S
C399 H386 0.961 . S
C399 H387 0.959 . S
C399 C397 1.561 1_655 S
C400 C397 1.526 . S
C400 C401 1.396 1_465 S
C400 C405 1.390 . S
C401 C395 1.465 . S
C401 C400 1.396 1_645 S
C401 C402 1.399 . S
C402 H388 0.929 . S
C402 C401 1.399 . S
C402 C403 1.385 . S
C403 H389 0.931 . S
C403 C402 1.385 . S
C403 C404 1.389 . S
C404 C403 1.389 . S
C404 C405 1.387 1_645 S
C405 H390 0.930 . S
C405 C400 1.390 . S
C405 C404 1.387 1_465 S
H406 C418 0.930 . S
H407 C420 0.930 . S
H408 C421 0.930 . S
H409 C425 0.959 . S
H410 C425 0.959 . S
H411 C425 0.961 . S
H412 C426 0.960 . S
H413 C426 0.961 . S
H414 C426 0.959 . S
H415 C429 0.929 . S
H416 C430 0.931 . S
H417 C432 0.930 . S
C418 H406 0.930 . S
C418 C419 1.399 . S
C418 C423 1.399 . S
C419 C418 1.399 . S
C419 C420 1.376 . S
C420 H407 0.930 . S
C420 C419 1.376 . S
C420 C421 1.388 . S
C421 H408 0.930 . S
C421 C420 1.388 . S
C421 C422 1.390 . S
C422 C421 1.390 . S
C422 C423 1.394 . S
C422 C428 1.465 . S
C423 C418 1.399 . S
C423 C422 1.394 . S
C423 C424 1.516 . S
C424 C423 1.516 . S
C424 C425 1.502 . S
C424 C426 1.561 . S
C424 C427 1.526 . S
C425 H409 0.959 . S
C425 H410 0.959 . S
C425 H411 0.961 . S
C425 C424 1.502 . S
C426 H412 0.960 . S
C426 H413 0.961 . S
C426 H414 0.959 . S
C426 C424 1.561 . S
C427 C424 1.526 . S
C427 C428 1.396 . S
C427 C432 1.390 . S
C428 C422 1.465 . S
C428 C427 1.396 . S
C428 C429 1.399 . S
C429 H415 0.929 . S
C429 C428 1.399 . S
C429 C430 1.385 . S
C430 H416 0.931 . S
C430 C429 1.385 . S
C430 C431 1.389 . S
C431 C430 1.389 . S
C431 C432 1.387 . S
C432 H417 0.930 . S
C432 C427 1.390 . S
C432 C431 1.387 . S
H433 C445 0.930 . S
H434 C447 0.930 . S
H435 C448 0.930 . S
H436 C452 0.959 . S
H437 C452 0.959 . S
H438 C452 0.961 . S
H439 C453 0.960 . S
H440 C453 0.961 . S
H441 C453 0.959 . S
H442 C456 0.929 . S
H443 C457 0.931 . S
H444 C459 0.930 . S
C445 H433 0.930 . S
C445 C446 1.399 . S
C445 C450 1.399 . S
C446 C445 1.399 . S
C446 C447 1.376 . S
C447 H434 0.930 . S
C447 C446 1.376 . S
C447 C448 1.388 . S
C448 H435 0.930 . S
C448 C447 1.388 . S
C448 C449 1.390 . S
C449 C448 1.390 . S
C449 C450 1.394 . S
C449 C455 1.465 . S
C450 C445 1.399 . S
C450 C449 1.394 . S
C450 C451 1.516 . S
C451 C450 1.516 . S
C451 C452 1.502 . S
C451 C453 1.561 . S
C451 C454 1.526 . S
C452 H436 0.959 . S
C452 H437 0.959 . S
C452 H438 0.961 . S
C452 C451 1.502 . S
C453 H439 0.960 . S
C453 H440 0.961 . S
C453 H441 0.959 . S
C453 C451 1.561 . S
C454 C451 1.526 . S
C454 C455 1.396 . S
C454 C459 1.390 . S
C455 C449 1.465 . S
C455 C454 1.396 . S
C455 C456 1.399 . S
C456 H442 0.929 . S
C456 C455 1.399 . S
C456 C457 1.385 . S
C457 H443 0.931 . S
C457 C456 1.385 . S
C457 C458 1.389 . S
C458 C457 1.389 . S
C458 C459 1.387 . S
C459 H444 0.930 . S
C459 C454 1.390 . S
C459 C458 1.387 . S
C149 C85 1.598 . S
C161 C8 1.573 . S
C176 C76 1.591 . S
C188 C17 1.579 . S
C203 C51 1.596 . S
C215 C110 1.572 . S
C230 C42 1.596 . S
C242 C119 1.577 . S
C257 C0 0.843 . S
C269 C29 0.755 . S
C284 C63 0.757 . S
C296 C34 0.830 . S
C311 C68 0.781 . S
C323 C97 0.803 . S
C338 C102 0.775 . S
C350 C131 0.809 . S
C365 C47 1.485 . S
C377 C13 1.493 1_645 S
C392 C4 1.488 . S
C404 C38 1.497 1_655 S
C419 C115 1.499 . S
C431 C81 1.489 . S
C446 C106 1.490 . S
C458 C72 1.495 . S
