# Generated by pormake.
# Topology umk, (4)-cn, num edge types: 1
# Building blocks:
#     Node 0, Type 0, BuildingBlock: CEKHIL_clean_sbu_0, # of connection points: 4
#     Node 1, Type 0, BuildingBlock: CEKHIL_clean_sbu_0, # of connection points: 4
#     Node 2, Type 0, BuildingBlock: CEKHIL_clean_sbu_0, # of connection points: 4
#     Node 3, Type 0, BuildingBlock: CEKHIL_clean_sbu_0, # of connection points: 4
#     Node 4, Type 0, BuildingBlock: CEKHIL_clean_sbu_0, # of connection points: 4
#     Node 5, Type 0, BuildingBlock: CEKHIL_clean_sbu_0, # of connection points: 4
#     Node 6, Type 0, BuildingBlock: CEKHIL_clean_sbu_0, # of connection points: 4
#     Node 7, Type 0, BuildingBlock: CEKHIL_clean_sbu_0, # of connection points: 4
#     Node 8, Type 0, BuildingBlock: CEKHIL_clean_sbu_0, # of connection points: 4
#     Node 9, Type 0, BuildingBlock: CEKHIL_clean_sbu_0, # of connection points: 4
#     Node 10, Type 0, BuildingBlock: CEKHIL_clean_sbu_0, # of connection points: 4
#     Node 11, Type 0, BuildingBlock: CEKHIL_clean_sbu_0, # of connection points: 4
#     Node 12, Type 0, BuildingBlock: CEKHIL_clean_sbu_0, # of connection points: 4
#     Node 13, Type 0, BuildingBlock: CEKHIL_clean_sbu_0, # of connection points: 4
#     Node 14, Type 0, BuildingBlock: CEKHIL_clean_sbu_0, # of connection points: 4
#     Node 15, Type 0, BuildingBlock: CEKHIL_clean_sbu_0, # of connection points: 4
#     Node 16, Type 0, BuildingBlock: CEKHIL_clean_sbu_0, # of connection points: 4
#     Node 17, Type 0, BuildingBlock: CEKHIL_clean_sbu_0, # of connection points: 4
#     Node 18, Type 0, BuildingBlock: CEKHIL_clean_sbu_0, # of connection points: 4
#     Node 19, Type 0, BuildingBlock: CEKHIL_clean_sbu_0, # of connection points: 4
#     Node 20, Type 0, BuildingBlock: CEKHIL_clean_sbu_0, # of connection points: 4
#     Node 21, Type 0, BuildingBlock: CEKHIL_clean_sbu_0, # of connection points: 4
#     Node 22, Type 0, BuildingBlock: CEKHIL_clean_sbu_0, # of connection points: 4
#     Node 23, Type 0, BuildingBlock: CEKHIL_clean_sbu_0, # of connection points: 4
#     Edge 24, Type (0, 0), BuildingBlock: CIFDUS_clean_linker_0, # of connection points: 2
#     Edge 25, Type (0, 0), BuildingBlock: CIFDUS_clean_linker_0, # of connection points: 2
#     Edge 26, Type (0, 0), BuildingBlock: CIFDUS_clean_linker_0, # of connection points: 2
#     Edge 27, Type (0, 0), BuildingBlock: CIFDUS_clean_linker_0, # of connection points: 2
#     Edge 28, Type (0, 0), BuildingBlock: CIFDUS_clean_linker_0, # of connection points: 2
#     Edge 29, Type (0, 0), BuildingBlock: CIFDUS_clean_linker_0, # of connection points: 2
#     Edge 30, Type (0, 0), BuildingBlock: CIFDUS_clean_linker_0, # of connection points: 2
#     Edge 31, Type (0, 0), BuildingBlock: CIFDUS_clean_linker_0, # of connection points: 2
#     Edge 32, Type (0, 0), BuildingBlock: CIFDUS_clean_linker_0, # of connection points: 2
#     Edge 33, Type (0, 0), BuildingBlock: CIFDUS_clean_linker_0, # of connection points: 2
#     Edge 34, Type (0, 0), BuildingBlock: CIFDUS_clean_linker_0, # of connection points: 2
#     Edge 35, Type (0, 0), BuildingBlock: CIFDUS_clean_linker_0, # of connection points: 2
#     Edge 36, Type (0, 0), BuildingBlock: CIFDUS_clean_linker_0, # of connection points: 2
#     Edge 37, Type (0, 0), BuildingBlock: CIFDUS_clean_linker_0, # of connection points: 2
#     Edge 38, Type (0, 0), BuildingBlock: CIFDUS_clean_linker_0, # of connection points: 2
#     Edge 39, Type (0, 0), BuildingBlock: CIFDUS_clean_linker_0, # of connection points: 2
#     Edge 40, Type (0, 0), BuildingBlock: CIFDUS_clean_linker_0, # of connection points: 2
#     Edge 41, Type (0, 0), BuildingBlock: CIFDUS_clean_linker_0, # of connection points: 2
#     Edge 42, Type (0, 0), BuildingBlock: CIFDUS_clean_linker_0, # of connection points: 2
#     Edge 43, Type (0, 0), BuildingBlock: CIFDUS_clean_linker_0, # of connection points: 2
#     Edge 44, Type (0, 0), BuildingBlock: CIFDUS_clean_linker_0, # of connection points: 2
#     Edge 45, Type (0, 0), BuildingBlock: CIFDUS_clean_linker_0, # of connection points: 2
#     Edge 46, Type (0, 0), BuildingBlock: CIFDUS_clean_linker_0, # of connection points: 2
#     Edge 47, Type (0, 0), BuildingBlock: CIFDUS_clean_linker_0, # of connection points: 2
#     Edge 48, Type (0, 0), BuildingBlock: CIFDUS_clean_linker_0, # of connection points: 2
#     Edge 49, Type (0, 0), BuildingBlock: CIFDUS_clean_linker_0, # of connection points: 2
#     Edge 50, Type (0, 0), BuildingBlock: CIFDUS_clean_linker_0, # of connection points: 2
#     Edge 51, Type (0, 0), BuildingBlock: CIFDUS_clean_linker_0, # of connection points: 2
#     Edge 52, Type (0, 0), BuildingBlock: CIFDUS_clean_linker_0, # of connection points: 2
#     Edge 53, Type (0, 0), BuildingBlock: CIFDUS_clean_linker_0, # of connection points: 2
#     Edge 54, Type (0, 0), BuildingBlock: CIFDUS_clean_linker_0, # of connection points: 2
#     Edge 55, Type (0, 0), BuildingBlock: CIFDUS_clean_linker_0, # of connection points: 2
#     Edge 56, Type (0, 0), BuildingBlock: CIFDUS_clean_linker_0, # of connection points: 2
#     Edge 57, Type (0, 0), BuildingBlock: CIFDUS_clean_linker_0, # of connection points: 2
#     Edge 58, Type (0, 0), BuildingBlock: CIFDUS_clean_linker_0, # of connection points: 2
#     Edge 59, Type (0, 0), BuildingBlock: CIFDUS_clean_linker_0, # of connection points: 2
#     Edge 60, Type (0, 0), BuildingBlock: CIFDUS_clean_linker_0, # of connection points: 2
#     Edge 61, Type (0, 0), BuildingBlock: CIFDUS_clean_linker_0, # of connection points: 2
#     Edge 62, Type (0, 0), BuildingBlock: CIFDUS_clean_linker_0, # of connection points: 2
#     Edge 63, Type (0, 0), BuildingBlock: CIFDUS_clean_linker_0, # of connection points: 2
#     Edge 64, Type (0, 0), BuildingBlock: CIFDUS_clean_linker_0, # of connection points: 2
#     Edge 65, Type (0, 0), BuildingBlock: CIFDUS_clean_linker_0, # of connection points: 2
#     Edge 66, Type (0, 0), BuildingBlock: CIFDUS_clean_linker_0, # of connection points: 2
#     Edge 67, Type (0, 0), BuildingBlock: CIFDUS_clean_linker_0, # of connection points: 2
#     Edge 68, Type (0, 0), BuildingBlock: CIFDUS_clean_linker_0, # of connection points: 2
#     Edge 69, Type (0, 0), BuildingBlock: CIFDUS_clean_linker_0, # of connection points: 2
#     Edge 70, Type (0, 0), BuildingBlock: CIFDUS_clean_linker_0, # of connection points: 2
#     Edge 71, Type (0, 0), BuildingBlock: CIFDUS_clean_linker_0, # of connection points: 2
# Relax obj value: 0.067
# Max RMSD: 0.047
# Mean RMSD: 0.047
data_MOF--net-umk--node1-CEKHIL_clean_sbu_0--edge1-CIFDUS_clean_linker_0
_symmetry_space_group_name_H-M    P1
_symmetry_Int_Tables_number       1
_symmetry_cell_setting            triclinic
loop_
_symmetry_equiv_pos_as_xyz
'x, y, z'
_cell_length_a     57.42252
_cell_length_b     57.437012
_cell_length_c     37.71988
_cell_angle_alpha  89.98458
_cell_angle_beta   89.924516
_cell_angle_gamma 120.06288
loop_
_atom_site_label
_atom_site_type_symbol
_atom_site_fract_x
_atom_site_fract_y
_atom_site_fract_z
_atom_type_partial_charge
Co0 Co 0.34685 0.47901 0.08445 0.0
O1 O 0.32475 0.49559 0.07937 0.0
O2 O 0.32193 0.46326 0.04481 0.0
C3 C 0.34181 0.47389 0.14417 0.0
O4 O 0.36555 0.45619 0.08173 0.0
Co5 Co 0.39837 0.50377 0.13195 0.0
O6 O 0.39562 0.46824 0.12614 0.0
C7 C 0.39741 0.53022 0.06489 0.0
C8 C 0.31307 0.47944 0.05295 0.0
C9 C 0.38219 0.45258 0.10084 0.0
O10 O 0.37595 0.50879 0.05416 0.0
O11 O 0.40722 0.53256 0.09601 0.0
O12 O 0.32333 0.45605 0.12355 0.0
O13 O 0.36118 0.49395 0.12818 0.0
Co14 Co 0.87769 0.34197 0.5892 0.0
O15 O 0.83921 0.31997 0.58283 0.0
O16 O 0.86954 0.31699 0.54997 0.0
C17 C 0.87713 0.33724 0.64898 0.0
O18 O 0.91911 0.36073 0.58863 0.0
Co19 Co 0.90195 0.39414 0.63501 0.0
O20 O 0.93477 0.39099 0.63303 0.0
C21 C 0.88017 0.3936 0.5638 0.0
C22 C 0.84432 0.30828 0.55705 0.0
C23 C 0.93833 0.37752 0.60895 0.0
O24 O 0.87822 0.37063 0.55681 0.0
O25 O 0.88692 0.40478 0.59432 0.0
O26 O 0.87649 0.31867 0.62861 0.0
O27 O 0.87597 0.35632 0.6327 0.0
Co28 Co 0.54627 0.87115 0.08122 0.0
O29 O 0.53321 0.83313 0.07346 0.0
O30 O 0.56381 0.86579 0.04025 0.0
C31 C 0.55083 0.86976 0.14093 0.0
O32 O 0.56592 0.91274 0.08197 0.0
Co33 Co 0.51549 0.89082 0.12984 0.0
O34 O 0.55002 0.92538 0.12829 0.0
C35 C 0.49472 0.86995 0.05816 0.0
C36 C 0.5495 0.8401 0.04664 0.0
C37 C 0.56708 0.93085 0.10345 0.0
O38 O 0.51642 0.86946 0.05024 0.0
O39 O 0.48995 0.8756 0.08918 0.0
O40 O 0.56978 0.87156 0.12013 0.0
O41 O 0.52992 0.86713 0.12497 0.0
Co42 Co 0.68347 0.54195 0.58739 0.0
O43 O 0.70564 0.52616 0.57757 0.0
O44 O 0.70759 0.56023 0.54768 0.0
C45 C 0.68929 0.54357 0.64696 0.0
O46 O 0.66412 0.56398 0.5904 0.0
Co47 Co 0.63242 0.51229 0.6356 0.0
O48 O 0.6341 0.54759 0.63516 0.0
C49 C 0.6322 0.4926 0.56298 0.0
C50 C 0.71655 0.54364 0.55229 0.0
C51 C 0.64704 0.5653 0.61148 0.0
O52 O 0.65439 0.51436 0.5552 0.0
O53 O 0.62203 0.48735 0.59419 0.0
O54 O 0.7073 0.56284 0.62733 0.0
O55 O 0.67001 0.5242 0.62991 0.0
Co56 Co 0.14969 0.67778 0.08413 0.0
O57 O 0.18714 0.70036 0.07115 0.0
O58 O 0.15338 0.70068 0.04364 0.0
C59 C 0.15663 0.68562 0.14309 0.0
O60 O 0.10834 0.65791 0.09135 0.0
Co61 Co 0.13226 0.62857 0.13491 0.0
O62 O 0.09884 0.6304 0.13847 0.0
C63 C 0.14742 0.62607 0.06057 0.0
C64 C 0.17923 0.71049 0.04651 0.0
C65 C 0.09193 0.64199 0.11536 0.0
O66 O 0.14714 0.64786 0.05248 0.0
O67 O 0.14445 0.61706 0.09227 0.0
O68 O 0.15405 0.7027 0.12318 0.0
O69 O 0.15659 0.66612 0.12649 0.0
Co70 Co 0.47188 0.14594 0.58452 0.0
O71 O 0.48371 0.18287 0.57248 0.0
O72 O 0.45536 0.14801 0.54024 0.0
C73 C 0.46407 0.15022 0.6424 0.0
O74 O 0.45394 0.10477 0.59049 0.0
Co75 Co 0.50398 0.13342 0.64056 0.0
O76 O 0.47021 0.09813 0.64146 0.0
C77 C 0.52562 0.14877 0.56804 0.0
C78 C 0.46839 0.17399 0.54483 0.0
C79 C 0.4533 0.08944 0.61605 0.0
O80 O 0.50359 0.14768 0.55781 0.0
O81 O 0.53028 0.14574 0.6004 0.0
O82 O 0.44581 0.14593 0.61888 0.0
O83 O 0.48641 0.15365 0.6298 0.0
Co84 Co 0.55055 0.68446 0.91293 0.0
O85 O 0.53646 0.70847 0.9212 0.0
O86 O 0.56254 0.70259 0.95864 0.0
C87 C 0.56226 0.69797 0.85594 0.0
O88 O 0.57037 0.66274 0.91309 0.0
Co89 Co 0.52847 0.64099 0.85328 0.0
O90 O 0.56226 0.6404 0.86145 0.0
C91 C 0.49758 0.63169 0.92013 0.0
C92 C 0.54945 0.715 0.95095 0.0
C93 C 0.57504 0.64857 0.89058 0.0
O94 O 0.51714 0.65291 0.93471 0.0
O95 O 0.49782 0.62535 0.88764 0.0
O96 O 0.5786 0.71191 0.88141 0.0
O97 O 0.53999 0.67759 0.86587 0.0
Co98 Co 0.87608 0.55414 0.41492 0.0
O99 O 0.83806 0.53957 0.42381 0.0
O100 O 0.87051 0.57091 0.45641 0.0
C101 C 0.87414 0.56019 0.35575 0.0
O102 O 0.91749 0.57487 0.41337 0.0
Co103 Co 0.89631 0.52506 0.36449 0.0
O104 O 0.9306 0.55988 0.36659 0.0
C105 C 0.87726 0.50337 0.43646 0.0
C106 C 0.84483 0.55591 0.45052 0.0
C107 C 0.93575 0.57662 0.39171 0.0
O108 O 0.87582 0.52447 0.44472 0.0
O109 O 0.8829 0.49906 0.40515 0.0
O110 O 0.87534 0.57808 0.37793 0.0
O111 O 0.87208 0.53888 0.37008 0.0
Co112 Co 0.33133 0.86967 0.91113 0.0
O113 O 0.30746 0.83192 0.92121 0.0
O114 O 0.30904 0.86491 0.95282 0.0
C115 C 0.32299 0.86657 0.85212 0.0
O116 O 0.35277 0.91125 0.90695 0.0
Co117 Co 0.38013 0.88651 0.86004 0.0
O118 O 0.37994 0.92088 0.85933 0.0
C119 C 0.38235 0.86899 0.93279 0.0
C120 C 0.29798 0.83909 0.94756 0.0
C121 C 0.36903 0.92788 0.88335 0.0
O122 O 0.3607 0.86943 0.94114 0.0
O123 O 0.3917 0.87288 0.90118 0.0
O124 O 0.30654 0.8685 0.87402 0.0
O125 O 0.34191 0.86418 0.86679 0.0
Co126 Co 0.47084 0.33107 0.4116 0.0
O127 O 0.48419 0.30643 0.41968 0.0
O128 O 0.45224 0.30741 0.45127 0.0
C129 C 0.4686 0.32651 0.35169 0.0
O130 O 0.45053 0.35217 0.41074 0.0
Co131 Co 0.50129 0.38271 0.36496 0.0
O132 O 0.46651 0.38216 0.36606 0.0
C133 C 0.52131 0.3812 0.43671 0.0
C134 C 0.46702 0.29651 0.44557 0.0
C135 C 0.44921 0.36949 0.39027 0.0
O136 O 0.49955 0.35889 0.4441 0.0
O137 O 0.52637 0.39205 0.40592 0.0
O138 O 0.44897 0.30861 0.37105 0.0
O139 O 0.48853 0.34481 0.36912 0.0
Co140 Co 0.14988 0.46257 0.91769 0.0
O141 O 0.18786 0.47891 0.92843 0.0
O142 O 0.15567 0.44572 0.9592 0.0
C143 C 0.15456 0.45843 0.85875 0.0
O144 O 0.10836 0.44002 0.91339 0.0
Co145 Co 0.12986 0.49124 0.86566 0.0
O146 O 0.0966 0.45562 0.8658 0.0
C147 C 0.14685 0.51228 0.93823 0.0
C148 C 0.18133 0.46207 0.95448 0.0
C149 C 0.09089 0.43823 0.89023 0.0
O150 O 0.14773 0.49101 0.94736 0.0
O151 O 0.14247 0.51684 0.90642 0.0
O152 O 0.15333 0.44027 0.88047 0.0
O153 O 0.15484 0.47873 0.87355 0.0
Co154 Co 0.6914 0.14588 0.42962 0.0
O155 O 0.71522 0.18381 0.43782 0.0
O156 O 0.71358 0.15161 0.47149 0.0
C157 C 0.6998 0.14721 0.37071 0.0
O158 O 0.66985 0.10436 0.428 0.0
Co159 Co 0.64273 0.12808 0.37813 0.0
O160 O 0.63824 0.09195 0.38536 0.0
C161 C 0.64074 0.14793 0.44941 0.0
C162 C 0.7246 0.17725 0.46487 0.0
C163 C 0.65055 0.08626 0.4089 0.0
O164 O 0.66201 0.14709 0.45871 0.0
O165 O 0.63189 0.14382 0.41758 0.0
O166 O 0.71619 0.14584 0.39321 0.0
O167 O 0.68095 0.15011 0.38464 0.0
Co168 Co 0.6849 0.54153 0.91585 0.0
O169 O 0.7085 0.52754 0.92695 0.0
O170 O 0.70334 0.55587 0.96098 0.0
C171 C 0.69803 0.55065 0.85834 0.0
O172 O 0.66374 0.56189 0.91126 0.0
Co173 Co 0.64098 0.51448 0.85704 0.0
O174 O 0.64207 0.54945 0.85885 0.0
C175 C 0.6327 0.4881 0.9269 0.0
C176 C 0.71543 0.54214 0.95534 0.0
C177 C 0.65052 0.56503 0.88566 0.0
O178 O 0.65323 0.50929 0.9401 0.0
O179 O 0.62646 0.48586 0.89403 0.0
O180 O 0.71245 0.56786 0.88275 0.0
O181 O 0.67804 0.52869 0.86989 0.0
Co182 Co 0.15153 0.68972 0.41216 0.0
O183 O 0.18889 0.71221 0.4244 0.0
O184 O 0.15529 0.71144 0.45392 0.0
C185 C 0.15706 0.69944 0.35362 0.0
O186 O 0.11031 0.66942 0.40555 0.0
Co187 Co 0.13561 0.64184 0.36009 0.0
O188 O 0.10197 0.6434 0.35713 0.0
C189 C 0.14958 0.63743 0.43403 0.0
C190 C 0.18117 0.72164 0.45018 0.0
C191 C 0.09445 0.65411 0.3808 0.0
O192 O 0.14975 0.65941 0.4421 0.0
O193 O 0.1465 0.62845 0.40231 0.0
O194 O 0.1547 0.7156 0.37552 0.0
O195 O 0.15837 0.67984 0.36817 0.0
Co196 Co 0.48215 0.1472 0.91152 0.0
O197 O 0.49812 0.18557 0.92052 0.0
O198 O 0.46737 0.15367 0.95449 0.0
C199 C 0.4766 0.15152 0.85277 0.0
O200 O 0.45941 0.10565 0.9106 0.0
Co201 Co 0.50468 0.12269 0.85693 0.0
O202 O 0.46875 0.09006 0.86114 0.0
C203 C 0.53161 0.14268 0.92674 0.0
C204 C 0.48261 0.17924 0.94812 0.0
C205 C 0.45438 0.08645 0.88858 0.0
O206 O 0.51226 0.14601 0.93856 0.0
O207 O 0.53271 0.13577 0.89478 0.0
O208 O 0.45854 0.14987 0.87515 0.0
O209 O 0.49658 0.15073 0.86653 0.0
Co210 Co 0.3341 0.4701 0.41328 0.0
O211 O 0.31094 0.48435 0.42491 0.0
O212 O 0.31252 0.45238 0.45533 0.0
C213 C 0.32455 0.46481 0.35459 0.0
O214 O 0.35494 0.44964 0.40729 0.0
Co215 Co 0.38208 0.50242 0.36138 0.0
O216 O 0.381 0.46746 0.35882 0.0
C217 C 0.38633 0.52115 0.43496 0.0
C218 C 0.3017 0.46744 0.45101 0.0
C219 C 0.37037 0.44923 0.38253 0.0
O220 O 0.36426 0.49933 0.44302 0.0
O221 O 0.39543 0.52694 0.40326 0.0
O222 O 0.3084 0.44664 0.37692 0.0
O223 O 0.34385 0.48621 0.36877 0.0
Co224 Co 0.8717 0.32545 0.91801 0.0
O225 O 0.83306 0.30235 0.92107 0.0
O226 O 0.86176 0.30152 0.95915 0.0
C227 C 0.87399 0.31941 0.85891 0.0
O228 O 0.91323 0.34534 0.9219 0.0
Co229 Co 0.89691 0.37655 0.86992 0.0
O230 O 0.92984 0.37389 0.87557 0.0
C231 C 0.87217 0.3772 0.93839 0.0
C232 C 0.8369 0.29154 0.94896 0.0
C233 C 0.93296 0.36154 0.90158 0.0
O234 O 0.86984 0.35432 0.94707 0.0
O235 O 0.88037 0.38801 0.90785 0.0
O236 O 0.87304 0.30164 0.88116 0.0
O237 O 0.87166 0.33855 0.87292 0.0
Co238 Co 0.55633 0.86934 0.4106 0.0
O239 O 0.5472 0.83238 0.41809 0.0
O240 O 0.57307 0.86602 0.45374 0.0
C241 C 0.56531 0.87023 0.35171 0.0
O242 O 0.57084 0.91026 0.41063 0.0
Co243 Co 0.52162 0.88155 0.35819 0.0
O244 O 0.54935 0.91941 0.36757 0.0
C245 C 0.50082 0.8615 0.42984 0.0
C246 C 0.56165 0.84044 0.44662 0.0
C247 C 0.56683 0.92693 0.39224 0.0
O248 O 0.52347 0.8634 0.43865 0.0
O249 O 0.49546 0.86536 0.3982 0.0
O250 O 0.58368 0.87394 0.37479 0.0
O251 O 0.54231 0.864 0.36505 0.0
Co252 Co 0.4789 0.33301 0.08286 0.0
O253 O 0.49351 0.3097 0.07323 0.0
O254 O 0.46607 0.31469 0.0373 0.0
C255 C 0.46784 0.31973 0.14012 0.0
O256 O 0.45831 0.35406 0.08567 0.0
Co257 Co 0.50457 0.37692 0.14183 0.0
O258 O 0.46981 0.37611 0.13789 0.0
C259 C 0.53231 0.38576 0.07313 0.0
C260 C 0.47984 0.3028 0.04404 0.0
C261 C 0.45483 0.3676 0.11054 0.0
O262 O 0.51159 0.36491 0.05967 0.0
O263 O 0.53396 0.39205 0.10592 0.0
O264 O 0.45164 0.30524 0.11488 0.0
O265 O 0.49024 0.33972 0.12955 0.0
Co266 Co 0.15387 0.47911 0.58948 0.0
O267 O 0.19148 0.495 0.57741 0.0
O268 O 0.15856 0.46035 0.54937 0.0
C269 C 0.15955 0.47768 0.64868 0.0
O270 O 0.11262 0.45683 0.59581 0.0
Co271 Co 0.13509 0.51045 0.63862 0.0
O272 O 0.10233 0.47457 0.64246 0.0
C273 C 0.15004 0.52755 0.56417 0.0
C274 C 0.18425 0.47708 0.55268 0.0
C275 C 0.09597 0.45599 0.61961 0.0
O276 O 0.15089 0.50593 0.55718 0.0
O277 O 0.14639 0.53376 0.59547 0.0
O278 O 0.15811 0.45861 0.62857 0.0
O279 O 0.15971 0.49732 0.63211 0.0
Co280 Co 0.68099 0.14864 0.10094 0.0
O281 O 0.70578 0.18673 0.09497 0.0
O282 O 0.70509 0.15532 0.06063 0.0
C283 C 0.68618 0.14883 0.16057 0.0
O284 O 0.65938 0.10697 0.10103 0.0
Co285 Co 0.62981 0.12884 0.14862 0.0
O286 O 0.63017 0.09458 0.14675 0.0
C287 C 0.63237 0.15301 0.07892 0.0
C288 C 0.71635 0.18073 0.06869 0.0
C289 C 0.64235 0.08906 0.1228 0.0
O290 O 0.65308 0.15099 0.06994 0.0
O291 O 0.6224 0.14804 0.1102 0.0
O292 O 0.7037 0.14765 0.13987 0.0
O293 O 0.66812 0.1518 0.1446 0.0
Co294 Co 0.54936 0.68227 0.58727 0.0
O295 O 0.53805 0.70747 0.57337 0.0
O296 O 0.56943 0.70286 0.54569 0.0
C297 C 0.55171 0.69208 0.64582 0.0
O298 O 0.5675 0.65952 0.59577 0.0
Co299 Co 0.51408 0.63521 0.63893 0.0
O300 O 0.54803 0.63446 0.6444 0.0
C301 C 0.49777 0.63156 0.56394 0.0
C302 C 0.55578 0.71532 0.54824 0.0
C303 C 0.56672 0.64404 0.6212 0.0
O304 O 0.5203 0.65304 0.55631 0.0
O305 O 0.49097 0.62273 0.59563 0.0
O306 O 0.57193 0.70715 0.62522 0.0
O307 O 0.53093 0.67327 0.6301 0.0
Co308 Co 0.87278 0.54112 0.08484 0.0
O309 O 0.83456 0.52763 0.07783 0.0
O310 O 0.86682 0.55862 0.04448 0.0
C311 C 0.87193 0.54536 0.14471 0.0
O312 O 0.91436 0.5614 0.08464 0.0
Co313 Co 0.89408 0.51113 0.13192 0.0
O314 O 0.92838 0.54593 0.12986 0.0
C315 C 0.87179 0.48995 0.06088 0.0
C316 C 0.8412 0.54404 0.05117 0.0
C317 C 0.93307 0.56297 0.10528 0.0
O318 O 0.87122 0.51162 0.05321 0.0
O319 O 0.87793 0.48529 0.09165 0.0
O320 O 0.87315 0.56422 0.12427 0.0
O321 O 0.86953 0.52466 0.12839 0.0
Co322 Co 0.3443 0.87046 0.5821 0.0
O323 O 0.32219 0.83207 0.57581 0.0
O324 O 0.31893 0.8624 0.54337 0.0
C325 C 0.34008 0.86964 0.64187 0.0
O326 O 0.36329 0.9119 0.58163 0.0
Co327 Co 0.39685 0.89436 0.62715 0.0
O328 O 0.39415 0.92742 0.62533 0.0
C329 C 0.39482 0.87118 0.55641 0.0
C330 C 0.31031 0.83717 0.5503 0.0
C331 C 0.38044 0.93108 0.60172 0.0
O332 O 0.37246 0.87051 0.54929 0.0
O333 O 0.40609 0.87774 0.58688 0.0
O334 O 0.32145 0.86937 0.62201 0.0
O335 O 0.35899 0.86852 0.62507 0.0
H336 H 0.30218 0.43817 0.19032 0.0
H337 H 0.38261 0.50713 0.18659 0.0
H338 H 0.38412 0.50967 0.2503 0.0
H339 H 0.3626 0.49472 0.30698 0.0
H340 H 0.28301 0.42557 0.31494 0.0
H341 H 0.28111 0.42086 0.24999 0.0
C342 C 0.32006 0.4535 0.20358 0.0
C343 C 0.34215 0.47246 0.18339 0.0
C344 C 0.32092 0.4551 0.24104 0.0
C345 C 0.3652 0.49223 0.20107 0.0
C346 C 0.36616 0.49385 0.23774 0.0
C347 C 0.34482 0.47847 0.29473 0.0
C348 C 0.32295 0.46067 0.31574 0.0
C349 C 0.34407 0.47575 0.25789 0.0
C350 C 0.30015 0.43964 0.29925 0.0
C351 C 0.29907 0.43695 0.26214 0.0
H352 H 0.87418 0.29778 0.69387 0.0
H353 H 0.88661 0.37847 0.69216 0.0
H354 H 0.88872 0.38035 0.75618 0.0
H355 H 0.88428 0.35882 0.8126 0.0
H356 H 0.87084 0.27803 0.81782 0.0
H357 H 0.87208 0.27651 0.75266 0.0
C358 C 0.87757 0.31579 0.70761 0.0
C359 C 0.88009 0.33789 0.68806 0.0
C360 C 0.87846 0.31672 0.74507 0.0
C361 C 0.88448 0.3611 0.70628 0.0
C362 C 0.88569 0.36225 0.74305 0.0
C363 C 0.88182 0.34086 0.79968 0.0
C364 C 0.87729 0.31851 0.82005 0.0
C365 C 0.88227 0.3401 0.76266 0.0
C366 C 0.87435 0.29553 0.80271 0.0
C367 C 0.87495 0.29464 0.76546 0.0
H368 H 0.53164 0.87163 0.30408 0.0
H369 H 0.60816 0.87506 0.31164 0.0
H370 H 0.61155 0.87619 0.24641 0.0
H371 H 0.5909 0.87406 0.18672 0.0
H372 H 0.5137 0.87015 0.18389 0.0
H373 H 0.5127 0.87156 0.24759 0.0
C374 C 0.54926 0.87282 0.29174 0.0
C375 C 0.56953 0.87313 0.31277 0.0
C376 C 0.55091 0.87332 0.25479 0.0
C377 C 0.59222 0.8748 0.29602 0.0
C378 C 0.59409 0.87536 0.25874 0.0
C379 C 0.57402 0.87368 0.20017 0.0
C380 C 0.55241 0.87195 0.18019 0.0
C381 C 0.5733 0.87429 0.23771 0.0
C382 C 0.53068 0.87148 0.19814 0.0
C383 C 0.52997 0.87225 0.23482 0.0
H384 H 0.66909 0.51553 0.80814 0.0
H385 H 0.73555 0.59624 0.82136 0.0
H386 H 0.73949 0.60182 0.75633 0.0
H387 H 0.72293 0.58287 0.69522 0.0
H388 H 0.65544 0.50176 0.68717 0.0
H389 H 0.65301 0.4975 0.75069 0.0
C390 C 0.68449 0.53452 0.79712 0.0
C391 C 0.70192 0.55546 0.81962 0.0
C392 C 0.68638 0.53752 0.76042 0.0
C393 C 0.72183 0.57977 0.80456 0.0
C394 C 0.72403 0.58293 0.76742 0.0
C395 C 0.70779 0.56435 0.70753 0.0
C396 C 0.68937 0.54273 0.6862 0.0
C397 C 0.70629 0.56185 0.74495 0.0
C398 C 0.66983 0.51885 0.7026 0.0
C399 C 0.66837 0.51626 0.73911 0.0
H400 H 0.16354 0.6686 0.30603 0.0
H401 H 0.14965 0.73554 0.31379 0.0
H402 H 0.1485 0.73786 0.24876 0.0
H403 H 0.15106 0.71995 0.1893 0.0
H404 H 0.16515 0.65279 0.18499 0.0
H405 H 0.16651 0.65152 0.24892 0.0
C406 C 0.16023 0.68374 0.29364 0.0
C407 C 0.15663 0.70181 0.31465 0.0
C408 C 0.15959 0.68489 0.25669 0.0
C409 C 0.15249 0.72138 0.29809 0.0
C410 C 0.15181 0.72268 0.26095 0.0
C411 C 0.15449 0.70516 0.20248 0.0
C412 C 0.15787 0.68645 0.18225 0.0
C413 C 0.1553 0.70444 0.23988 0.0
C414 C 0.16231 0.66737 0.19971 0.0
C415 C 0.16314 0.66658 0.23641 0.0
H416 H 0.43364 0.13715 0.80637 0.0
H417 H 0.5203 0.17523 0.81196 0.0
H418 H 0.52362 0.17888 0.74824 0.0
H419 H 0.50286 0.16944 0.69094 0.0
H420 H 0.41675 0.13157 0.68087 0.0
H421 H 0.41226 0.12993 0.74599 0.0
C422 C 0.45315 0.14653 0.79349 0.0
C423 C 0.47664 0.1556 0.81402 0.0
C424 C 0.45509 0.14849 0.75602 0.0
C425 C 0.50183 0.1677 0.79695 0.0
C426 C 0.50386 0.16989 0.76038 0.0
C427 C 0.48301 0.16084 0.70283 0.0
C428 C 0.46018 0.15039 0.68118 0.0
C429 C 0.4807 0.15995 0.73971 0.0
C430 C 0.43468 0.1397 0.69709 0.0
C431 C 0.43214 0.13871 0.73429 0.0
H432 H 0.59442 0.71652 0.69296 0.0
H433 H 0.50766 0.6748 0.68587 0.0
H434 H 0.50406 0.6754 0.74972 0.0
H435 H 0.52448 0.68456 0.80729 0.0
H436 H 0.61064 0.72473 0.81868 0.0
H437 H 0.61568 0.72844 0.75354 0.0
C438 C 0.57484 0.70789 0.70555 0.0
C439 C 0.55131 0.69539 0.68465 0.0
C440 C 0.57279 0.70794 0.74295 0.0
C441 C 0.52605 0.68424 0.70124 0.0
C442 C 0.52392 0.6846 0.73783 0.0
C443 C 0.54448 0.69428 0.79566 0.0
C444 C 0.56714 0.70405 0.81764 0.0
C445 C 0.54703 0.69587 0.75885 0.0
C446 C 0.59287 0.71704 0.8022 0.0
C447 C 0.59569 0.71898 0.76501 0.0
H448 H 0.87694 0.52712 0.30796 0.0
H449 H 0.87465 0.6008 0.31566 0.0
H450 H 0.8748 0.60385 0.25057 0.0
H451 H 0.87384 0.58397 0.19095 0.0
H452 H 0.87552 0.50959 0.18711 0.0
H453 H 0.87757 0.50868 0.25088 0.0
C454 C 0.87661 0.54399 0.29558 0.0
C455 C 0.87567 0.56361 0.31667 0.0
C456 C 0.87658 0.54549 0.25857 0.0
C457 C 0.87534 0.58536 0.29999 0.0
C458 C 0.87539 0.58707 0.26277 0.0
C459 C 0.87483 0.56773 0.20417 0.0
C460 C 0.87451 0.54691 0.18394 0.0
C461 C 0.87574 0.56704 0.24166 0.0
C462 C 0.87575 0.52596 0.20161 0.0
C463 C 0.87688 0.52531 0.23832 0.0
H464 H 0.30226 0.86956 0.68728 0.0
H465 H 0.37943 0.87355 0.68463 0.0
H466 H 0.38089 0.87371 0.7487 0.0
H467 H 0.36007 0.87072 0.80529 0.0
H468 H 0.28337 0.86715 0.81133 0.0
H469 H 0.28188 0.86876 0.74624 0.0
C470 C 0.31941 0.87065 0.70084 0.0
C471 C 0.34062 0.87141 0.68103 0.0
C472 C 0.32018 0.87063 0.73827 0.0
C473 C 0.36275 0.87286 0.69899 0.0
C474 C 0.36366 0.87291 0.73577 0.0
C475 C 0.34302 0.87044 0.79257 0.0
C476 C 0.32182 0.86869 0.81313 0.0
C477 C 0.34241 0.87147 0.7556 0.0
C478 C 0.29996 0.86845 0.79604 0.0
C479 C 0.29911 0.86934 0.75885 0.0
H480 H 0.43231 0.29057 0.30185 0.0
H481 H 0.50674 0.36637 0.31262 0.0
H482 H 0.51176 0.37059 0.24953 0.0
H483 H 0.49748 0.35296 0.19168 0.0
H484 H 0.42381 0.27807 0.17509 0.0
H485 H 0.41623 0.27322 0.2398 0.0
C486 C 0.44943 0.30801 0.29022 0.0
C487 C 0.46905 0.32806 0.31239 0.0
C488 C 0.45259 0.31046 0.25285 0.0
C489 C 0.49117 0.35055 0.29676 0.0
C490 C 0.49424 0.35307 0.26039 0.0
C491 C 0.47952 0.33557 0.20181 0.0
C492 C 0.4613 0.31593 0.17849 0.0
C493 C 0.47537 0.33312 0.23832 0.0
C494 C 0.43823 0.29354 0.19253 0.0
C495 C 0.43394 0.29079 0.22951 0.0
H496 H 0.15531 0.4376 0.69341 0.0
H497 H 0.16237 0.51615 0.69218 0.0
H498 H 0.16092 0.51643 0.75624 0.0
H499 H 0.1581 0.49535 0.81244 0.0
H500 H 0.15146 0.41724 0.81723 0.0
H501 H 0.15236 0.41583 0.75204 0.0
C502 C 0.15656 0.45472 0.70728 0.0
C503 C 0.1589 0.47678 0.68788 0.0
C504 C 0.15581 0.45489 0.74472 0.0
C505 C 0.16047 0.49883 0.70623 0.0
C506 C 0.15968 0.49909 0.743 0.0
C507 C 0.15676 0.47788 0.79941 0.0
C508 C 0.15468 0.45641 0.81965 0.0
C509 C 0.15738 0.47732 0.76242 0.0
C510 C 0.15307 0.43404 0.80218 0.0
C511 C 0.1536 0.43327 0.76495 0.0
H512 H 0.66306 0.14243 0.32342 0.0
H513 H 0.74029 0.14732 0.33059 0.0
H514 H 0.74285 0.14687 0.26542 0.0
H515 H 0.7234 0.14741 0.20602 0.0
H516 H 0.64619 0.14342 0.20322 0.0
H517 H 0.64336 0.14088 0.2669 0.0
C518 C 0.68046 0.14321 0.31096 0.0
C519 C 0.70149 0.14506 0.33181 0.0
C520 C 0.68179 0.14311 0.27403 0.0
C521 C 0.7238 0.14593 0.31503 0.0
C522 C 0.72528 0.14573 0.2778 0.0
C523 C 0.70594 0.14576 0.21947 0.0
C524 C 0.68508 0.14563 0.19959 0.0
C525 C 0.70446 0.14468 0.25692 0.0
C526 C 0.66259 0.14355 0.21746 0.0
C527 C 0.66089 0.14215 0.25411 0.0
H528 H 0.23194 0.5029 0.96812 0.0
H529 H 0.17845 0.41863 0.98879 0.0
H530 H 0.21478 0.41596 0.01923 0.0
H531 H 0.26246 0.43768 0.03921 0.0
H532 H 0.31414 0.52289 0.0235 0.0
H533 H 0.27814 0.52516 0.99176 0.0
C534 C 0.22819 0.48398 0.97948 0.0
C535 C 0.2025 0.46096 0.97603 0.0
C536 C 0.24903 0.48276 0.99758 0.0
C537 C 0.19794 0.43667 0.99122 0.0
C538 C 0.21879 0.43511 0.00845 0.0
C539 C 0.26578 0.45665 0.02859 0.0
C540 C 0.29106 0.48004 0.03308 0.0
C541 C 0.24453 0.45798 0.01156 0.0
C542 C 0.29494 0.50463 0.02005 0.0
C543 C 0.27433 0.50593 0.00198 0.0
H544 H 0.7426 0.23086 0.46568 0.0
H545 H 0.75829 0.17104 0.51062 0.0
H546 H 0.79778 0.20639 0.54152 0.0
H547 H 0.82819 0.25481 0.55563 0.0
H548 H 0.81014 0.31368 0.51348 0.0
H549 H 0.77151 0.27841 0.48135 0.0
C550 C 0.7546 0.2255 0.48231 0.0
C551 C 0.74749 0.19829 0.48572 0.0
C552 C 0.77706 0.24589 0.50024 0.0
C553 C 0.76319 0.19177 0.50763 0.0
C554 C 0.78588 0.21202 0.52516 0.0
C555 C 0.81587 0.2598 0.53907 0.0
C556 C 0.82216 0.28678 0.53627 0.0
C557 C 0.79312 0.2392 0.52153 0.0
C558 C 0.80579 0.29306 0.51556 0.0
C559 C 0.78366 0.2729 0.49735 0.0
H560 H 0.54594 0.79294 0.06771 0.0
H561 H 0.55668 0.84129 0.9751 0.0
H562 H 0.55669 0.80659 0.93731 0.0
H563 H 0.55286 0.76195 0.93041 0.0
H564 H 0.54736 0.71586 0.02336 0.0
H565 H 0.54614 0.75001 0.06119 0.0
C566 C 0.54837 0.79587 0.03925 0.0
C567 C 0.55108 0.8196 0.02418 0.0
C568 C 0.54924 0.77615 0.01777 0.0
C569 C 0.5546 0.82328 0.98734 0.0
C570 C 0.55451 0.80338 0.96572 0.0
C571 C 0.55142 0.75944 0.95897 0.0
C572 C 0.54988 0.73623 0.97407 0.0
C573 C 0.55171 0.77965 0.98059 0.0
C574 C 0.54852 0.73348 0.01112 0.0
C575 C 0.54778 0.753 0.03273 0.0
H576 H 0.76984 0.58133 0.54794 0.0
H577 H 0.70965 0.50471 0.50644 0.0
H578 H 0.74383 0.50179 0.47089 0.0
H579 H 0.79098 0.52053 0.45255 0.0
H580 H 0.85209 0.59565 0.49703 0.0
H581 H 0.81769 0.59961 0.53062 0.0
C582 C 0.76431 0.56422 0.53073 0.0
C583 C 0.73727 0.54346 0.52918 0.0
C584 C 0.7843 0.56229 0.51123 0.0
C585 C 0.73031 0.52103 0.5076 0.0
C586 C 0.74986 0.51932 0.48743 0.0
C587 C 0.79681 0.53778 0.4696 0.0
C588 C 0.82413 0.5578 0.47216 0.0
C589 C 0.77695 0.53973 0.4892 0.0
C590 C 0.83127 0.57989 0.49463 0.0
C591 C 0.81156 0.58223 0.51376 0.0
H592 H 0.27267 0.78461 0.94095 0.0
H593 H 0.27148 0.84709 0.00294 0.0
H594 H 0.23343 0.813 0.03752 0.0
H595 H 0.2009 0.7649 0.05118 0.0
H596 H 0.20336 0.703 0.98972 0.0
H597 H 0.24022 0.73722 0.95375 0.0
C598 C 0.26415 0.79087 0.96202 0.0
C599 C 0.27512 0.81851 0.96932 0.0
C600 C 0.24226 0.77113 0.98175 0.0
C601 C 0.26363 0.82605 0.99676 0.0
C602 C 0.24178 0.80651 0.01651 0.0
C603 C 0.20928 0.75905 0.02947 0.0
C604 C 0.19913 0.73151 0.02251 0.0
C605 C 0.23091 0.77895 0.0093 0.0
C606 C 0.21055 0.72407 0.99503 0.0
C607 C 0.23173 0.74364 0.97466 0.0
H608 H 0.46418 0.21702 0.56367 0.0
H609 H 0.46718 0.17374 0.47218 0.0
H610 H 0.4676 0.20818 0.43303 0.0
H611 H 0.46886 0.25183 0.42522 0.0
H612 H 0.46096 0.29207 0.51697 0.0
H613 H 0.46067 0.25771 0.55569 0.0
C614 C 0.46471 0.21505 0.53512 0.0
C615 C 0.46586 0.19303 0.52076 0.0
C616 C 0.46419 0.23449 0.51291 0.0
C617 C 0.4662 0.19048 0.48378 0.0
C618 C 0.46658 0.21025 0.46146 0.0
C619 C 0.46696 0.25293 0.45369 0.0
C620 C 0.46521 0.27459 0.46833 0.0
C621 C 0.46588 0.23253 0.47574 0.0
C622 C 0.46232 0.2756 0.50515 0.0
C623 C 0.46223 0.256 0.52728 0.0
H624 H 0.79443 0.54143 0.07264 0.0
H625 H 0.84163 0.54964 0.97961 0.0
H626 H 0.80673 0.5492 0.94188 0.0
H627 H 0.76222 0.54545 0.93511 0.0
H628 H 0.7171 0.54247 0.02799 0.0
H629 H 0.75161 0.54205 0.06604 0.0
C630 C 0.79705 0.54321 0.0441 0.0
C631 C 0.8205 0.54532 0.02888 0.0
C632 C 0.77723 0.54388 0.0226 0.0
C633 C 0.82382 0.54803 0.99194 0.0
C634 C 0.80382 0.54769 0.97036 0.0
C635 C 0.76002 0.5448 0.96372 0.0
C636 C 0.737 0.5437 0.97875 0.0
C637 C 0.78037 0.54547 0.98534 0.0
C638 C 0.73461 0.54332 0.01583 0.0
C639 C 0.75431 0.54299 0.03754 0.0
H640 H 0.23236 0.73372 0.46237 0.0
H641 H 0.17568 0.75967 0.48763 0.0
H642 H 0.21104 0.79888 0.51914 0.0
H643 H 0.25881 0.82637 0.53863 0.0
H644 H 0.31373 0.7976 0.51694 0.0
H645 H 0.27858 0.75916 0.48457 0.0
C646 C 0.22768 0.74788 0.47494 0.0
C647 C 0.20145 0.74384 0.47253 0.0
C648 C 0.24797 0.77008 0.4933 0.0
C649 C 0.19566 0.76222 0.48927 0.0
C650 C 0.21594 0.78475 0.50706 0.0
C651 C 0.26299 0.81174 0.52648 0.0
C652 C 0.28889 0.81496 0.5295 0.0
C653 C 0.24228 0.78905 0.50898 0.0
C654 C 0.294 0.79559 0.51456 0.0
C655 C 0.2739 0.7736 0.49619 0.0
H656 H 0.48164 0.22414 0.92679 0.0
H657 H 0.48174 0.18098 0.02017 0.0
H658 H 0.4818 0.21575 0.0579 0.0
H659 H 0.48203 0.25864 0.06442 0.0
H660 H 0.47662 0.29931 0.9715 0.0
H661 H 0.47822 0.26541 0.9335 0.0
C662 C 0.48171 0.22244 0.95542 0.0
C663 C 0.48201 0.20017 0.97072 0.0
C664 C 0.48069 0.24206 0.97697 0.0
C665 C 0.48156 0.19791 0.0078 0.0
C666 C 0.48162 0.21783 0.02936 0.0
C667 C 0.48118 0.26007 0.03582 0.0
C668 C 0.4795 0.28166 0.02077 0.0
C669 C 0.48123 0.24001 0.01426 0.0
C670 C 0.47794 0.28295 0.98373 0.0
C671 C 0.47893 0.26359 0.96202 0.0
H672 H 0.2013 0.44044 0.54989 0.0
H673 H 0.21414 0.51469 0.50414 0.0
H674 H 0.25158 0.51829 0.46878 0.0
H675 H 0.28139 0.50109 0.45201 0.0
H676 H 0.27081 0.42812 0.49958 0.0
H677 H 0.23208 0.42333 0.53333 0.0
C678 C 0.2121 0.4571 0.53169 0.0
C679 C 0.2047 0.47701 0.52891 0.0
C680 C 0.23423 0.45945 0.5122 0.0
C681 C 0.21925 0.49895 0.50615 0.0
C682 C 0.24075 0.50109 0.48614 0.0
C683 C 0.27068 0.48412 0.46979 0.0
C684 C 0.27907 0.46499 0.47321 0.0
C685 C 0.24857 0.48161 0.48917 0.0
C686 C 0.26493 0.44323 0.49654 0.0
C687 C 0.24267 0.44041 0.51572 0.0
H688 H 0.82698 0.28141 0.02007 0.0
H689 H 0.79466 0.2494 0.91697 0.0
H690 H 0.75549 0.21116 0.94426 0.0
H691 H 0.72927 0.18726 0.99783 0.0
H692 H 0.75908 0.22231 0.10052 0.0
H693 H 0.79997 0.2585 0.07345 0.0
C694 C 0.81143 0.26591 0.00369 0.0
C695 C 0.81386 0.26811 0.96655 0.0
C696 C 0.78831 0.24444 0.01962 0.0
C697 C 0.79329 0.24815 0.94563 0.0
C698 C 0.77085 0.22624 0.96123 0.0
C699 C 0.74484 0.20274 0.01419 0.0
C700 C 0.74121 0.20197 0.05117 0.0
C701 C 0.76797 0.22422 0.99824 0.0
C702 C 0.76136 0.22245 0.07199 0.0
C703 C 0.7848 0.24317 0.05652 0.0
H704 H 0.56425 0.79605 0.42779 0.0
H705 H 0.56319 0.84088 0.51879 0.0
H706 H 0.56142 0.80615 0.5583 0.0
H707 H 0.55778 0.76177 0.5668 0.0
H708 H 0.56335 0.71898 0.47642 0.0
H709 H 0.56593 0.75412 0.43675 0.0
C710 C 0.56389 0.79829 0.45631 0.0
C711 C 0.56364 0.8209 0.4704 0.0
C712 C 0.56359 0.77854 0.47888 0.0
C713 C 0.5635 0.82374 0.50735 0.0
C714 C 0.56235 0.8038 0.52992 0.0
C715 C 0.55979 0.7603 0.53841 0.0
C716 C 0.56011 0.73772 0.52444 0.0
C717 C 0.56202 0.78095 0.51597 0.0
C718 C 0.5631 0.73619 0.48773 0.0
C719 C 0.56446 0.75623 0.46508 0.0
H720 H 0.38157 0.41607 0.14605 0.0
H721 H 0.398 0.44178 0.03723 0.0
H722 H 0.41929 0.41425 0.02818 0.0
H723 H 0.43942 0.38824 0.05459 0.0
H724 H 0.42201 0.36328 0.1639 0.0
H725 H 0.39456 0.38443 0.16915 0.0
C726 C 0.3891 0.41499 0.12006 0.0
C727 C 0.38822 0.4309 0.09237 0.0
C728 C 0.40144 0.39935 0.11525 0.0
C729 C 0.39816 0.42945 0.05886 0.0
C730 C 0.4106 0.41391 0.05382 0.0
C731 C 0.42887 0.38672 0.07911 0.0
C732 C 0.43298 0.37436 0.10893 0.0
C733 C 0.41324 0.39948 0.08222 0.0
C734 C 0.41937 0.37282 0.14065 0.0
C735 C 0.40373 0.38503 0.14377 0.0
H736 H 0.0602 0.43164 0.56461 0.0
H737 H 0.06807 0.43083 0.67825 0.0
H738 H 0.01951 0.40274 0.68452 0.0
H739 H 0.9747 0.38481 0.65896 0.0
H740 H 0.96524 0.38545 0.54583 0.0
H741 H 0.0142 0.4067 0.53794 0.0
C742 C 0.05127 0.42455 0.59056 0.0
C743 C 0.06772 0.43351 0.62098 0.0
C744 C 0.02296 0.40872 0.59411 0.0
C745 C 0.05584 0.42438 0.65448 0.0
C746 C 0.02803 0.4084 0.65813 0.0
C747 C 0.98333 0.389 0.63251 0.0
C748 C 0.96646 0.3838 0.60307 0.0
C749 C 1.01136 0.40145 0.62833 0.0
C750 C 0.97782 0.38915 0.56892 0.0
C751 C 1.00586 0.40154 0.56446 0.0
H752 H 0.59476 0.96661 0.15477 0.0
H753 H 0.58437 0.96014 0.04152 0.0
H754 H 0.61017 0.00945 0.03612 0.0
H755 H 0.63041 0.05475 0.06529 0.0
H756 H 0.63963 0.05928 0.17899 0.0
H757 H 0.62015 0.01075 0.18246 0.0
C758 C 0.59865 0.97598 0.1288 0.0
C759 C 0.58753 0.95976 0.09864 0.0
C760 C 0.61321 1.00418 0.12604 0.0
C761 C 0.59286 0.97217 0.06515 0.0
C762 C 0.60742 1.0004 0.06213 0.0
C763 C 0.62882 0.04511 0.0906 0.0
C764 C 0.63628 0.06065 0.12191 0.0
C765 C 0.61699 0.01672 0.09256 0.0
C766 C 0.63385 0.0478 0.15457 0.0
C767 C 0.62261 0.01999 0.15663 0.0
H768 H 0.63311 0.5886 0.66284 0.0
H769 H 0.64367 0.58907 0.54973 0.0
H770 H 0.62219 0.61654 0.54226 0.0
H771 H 0.59489 0.63541 0.568 0.0
H772 H 0.58473 0.63349 0.68159 0.0
H773 H 0.61168 0.61202 0.68868 0.0
C774 C 0.63116 0.59512 0.63656 0.0
C775 C 0.63973 0.58658 0.60689 0.0
C776 C 0.61853 0.6105 0.63252 0.0
C777 C 0.63734 0.59545 0.57305 0.0
C778 C 0.62481 0.61097 0.56877 0.0
C779 C 0.59911 0.6308 0.59428 0.0
C780 C 0.58737 0.6357 0.62418 0.0
C781 C 0.61452 0.61792 0.59828 0.0
C782 C 0.59307 0.62957 0.65807 0.0
C783 C 0.60852 0.61726 0.66221 0.0
H784 H 0.97025 0.59037 0.15544 0.0
H785 H 0.96037 0.58183 0.0422 0.0
H786 H 1.00939 0.60907 0.0342 0.0
H787 H 0.05561 0.63016 0.06054 0.0
H788 H 0.06374 0.63783 0.17426 0.0
H789 H 0.01518 0.61673 0.18085 0.0
C790 C 0.97879 0.59493 0.12894 0.0
C791 C 0.96172 0.58389 0.0995 0.0
C792 C 1.00686 0.61042 0.12466 0.0
C793 C 0.97306 0.59016 0.06532 0.0
C794 C 1.00114 0.60559 0.06078 0.0
C795 C 0.04674 0.62792 0.08661 0.0
C796 C 0.06335 0.6354 0.11692 0.0
C797 C 0.01837 0.61516 0.09036 0.0
C798 C 0.05146 0.63209 0.15055 0.0
C799 C 0.02363 0.61989 0.15439 0.0
H800 H 0.43097 0.05349 0.56026 0.0
H801 H 0.43029 0.05955 0.67429 0.0
H802 H 0.40453 0.01087 0.67945 0.0
H803 H 0.38773 0.96667 0.65276 0.0
H804 H 0.38767 0.95872 0.53928 0.0
H805 H 0.40766 1.00767 0.53261 0.0
C806 C 0.42459 0.04411 0.5861 0.0
C807 C 0.43299 0.06023 0.61689 0.0
C808 C 0.40988 0.01568 0.58904 0.0
C809 C 0.42454 0.04769 0.6502 0.0
C810 C 0.40978 0.01979 0.65324 0.0
C811 C 0.39156 0.97561 0.62651 0.0
C812 C 0.38644 0.95918 0.5966 0.0
C813 C 0.40323 1.0036 0.62301 0.0
C814 C 0.39131 0.97095 0.56273 0.0
C815 C 0.40298 0.99899 0.55897 0.0
H816 H 0.60834 0.64309 0.84533 0.0
H817 H 0.58389 0.63157 0.95487 0.0
H818 H 0.60818 0.60705 0.9651 0.0
H819 H 0.63155 0.58362 0.94019 0.0
H820 H 0.65508 0.59608 0.83004 0.0
H821 H 0.63652 0.62568 0.82298 0.0
C822 C 0.60876 0.63567 0.87165 0.0
C823 C 0.59414 0.63896 0.89919 0.0
C824 C 0.62255 0.62151 0.87716 0.0
C825 C 0.59508 0.62943 0.93321 0.0
C826 C 0.6088 0.61519 0.93897 0.0
C827 C 0.63323 0.59344 0.915 0.0
C828 C 0.6445 0.58741 0.88557 0.0
C829 C 0.62197 0.61035 0.91083 0.0
C830 C 0.64631 0.60016 0.853 0.0
C831 C 0.63562 0.61706 0.84886 0.0
H832 H 0.97289 0.60283 0.34096 0.0
H833 H 0.96314 0.59618 0.45439 0.0
H834 H 1.01217 0.62307 0.46198 0.0
H835 H 0.05824 0.64326 0.43544 0.0
H836 H 0.06627 0.64883 0.32154 0.0
H837 H 0.01777 0.62811 0.31511 0.0
C838 C 0.98147 0.6077 0.36738 0.0
C839 C 0.96445 0.5973 0.39703 0.0
C840 C 1.00952 0.6229 0.37144 0.0
C841 C 0.97582 0.60401 0.43111 0.0
C842 C 1.00389 0.61922 0.43543 0.0
C843 C 0.04935 0.64058 0.40935 0.0
C844 C 0.06587 0.6473 0.37898 0.0
C845 C 0.02105 0.62808 0.4057 0.0
C846 C 0.05402 0.64355 0.34531 0.0
C847 C 0.02624 0.63163 0.34156 0.0
H848 H 0.42135 0.04906 0.84153 0.0
H849 H 0.44002 0.06038 0.95291 0.0
H850 H 0.41171 0.01174 0.96295 0.0
H851 H 0.38667 0.96509 0.93791 0.0
H852 H 0.36886 0.95541 0.82606 0.0
H853 H 0.39114 1.00399 0.81852 0.0
C854 C 0.41877 0.04095 0.86815 0.0
C855 C 0.43297 0.0583 0.89635 0.0
C856 C 0.40261 0.01306 0.8736 0.0
C857 C 0.42924 0.0475 0.93074 0.0
C858 C 0.41319 0.01961 0.93642 0.0
C859 C 0.38694 0.97368 0.91221 0.0
C860 C 0.37618 0.9566 0.88253 0.0
C861 C 0.40042 1.00202 0.90782 0.0
C862 C 0.37704 0.96807 0.84927 0.0
C863 C 0.38994 0.9959 0.84486 0.0
H864 H 0.38208 0.42416 0.43667 0.0
H865 H 0.37489 0.42616 0.323 0.0
H866 H 0.39604 0.3989 0.31558 0.0
H867 H 0.42227 0.38005 0.34038 0.0
H868 H 0.4301 0.37696 0.45354 0.0
H869 H 0.40291 0.39863 0.46225 0.0
C870 C 0.38448 0.41794 0.41043 0.0
C871 C 0.37722 0.42751 0.3804 0.0
C872 C 0.39719 0.40239 0.40619 0.0
C873 C 0.3806 0.41938 0.34652 0.0
C874 C 0.39278 0.40383 0.34219 0.0
C875 C 0.41756 0.38363 0.36698 0.0
C876 C 0.42837 0.37717 0.39623 0.0
C877 C 0.40209 0.39612 0.37169 0.0
C878 C 0.42192 0.38168 0.43057 0.0
C879 C 0.40653 0.39427 0.43553 0.0
H880 H 0.05507 0.41896 0.9464 0.0
H881 H 0.06274 0.40817 0.83471 0.0
H882 H 0.01411 0.38 0.82949 0.0
H883 H 0.96933 0.3645 0.85414 0.0
H884 H 0.95997 0.37496 0.96522 0.0
H885 H 1.00895 0.39671 0.97344 0.0
C886 C 0.04608 0.40965 0.92128 0.0
C887 C 0.06255 0.41572 0.89092 0.0
C888 C 0.01769 0.39376 0.91823 0.0
C889 C 0.05054 0.40385 0.85841 0.0
C890 C 0.02268 0.38785 0.85534 0.0
C891 C 0.97797 0.37091 0.88036 0.0
C892 C 0.96108 0.36822 0.90898 0.0
C893 C 1.00603 0.38359 0.88468 0.0
C894 C 0.97251 0.37659 0.94281 0.0
C895 C 1.00058 0.38927 0.9474 0.0
H896 H 0.6205 0.96373 0.40779 0.0
H897 H 0.5415 0.95491 0.39937 0.0
H898 H 0.56034 1.00289 0.40784 0.0
H899 H 0.59899 0.04774 0.41141 0.0
H900 H 0.67892 0.05937 0.41871 0.0
H901 H 0.66021 0.01022 0.41748 0.0
C902 C 0.60751 0.97237 0.40841 0.0
C903 C 0.57962 0.95575 0.40242 0.0
C904 C 0.61866 1.00054 0.41282 0.0
C905 C 0.56302 0.96725 0.4033 0.0
C906 C 0.57376 0.99473 0.40821 0.0
C907 C 0.61235 0.03954 0.41321 0.0
C908 C 0.64027 0.05713 0.41482 0.0
C909 C 0.60152 0.01161 0.41197 0.0
C910 C 0.65732 0.04622 0.41758 0.0
C911 C 0.64659 0.01812 0.41657 0.0
H912 H 0.48665 0.63503 0.99021 0.0
H913 H 0.45521 0.58383 0.89816 0.0
H914 H 0.41953 0.54897 0.93364 0.0
H915 H 0.39969 0.53072 0.99218 0.0
H916 H 0.43093 0.58205 0.08399 0.0
H917 H 0.46352 0.61878 0.04732 0.0
C918 C 0.47185 0.6164 0.97781 0.0
C919 C 0.47412 0.61212 0.94164 0.0
C920 C 0.45116 0.59613 0.99842 0.0
C921 C 0.45439 0.58782 0.92605 0.0
C922 C 0.43382 0.56768 0.94633 0.0
C923 C 0.41325 0.5501 0.00398 0.0
C924 C 0.41313 0.55336 0.04083 0.0
C925 C 0.43235 0.57129 0.98274 0.0
C926 C 0.43086 0.57873 0.0557 0.0
C927 C 0.4496 0.59985 0.03478 0.0
H928 H 0.87396 0.43723 0.57187 0.0
H929 H 0.87657 0.38487 0.49174 0.0
H930 H 0.87411 0.41341 0.4454 0.0
H931 H 0.87445 0.45481 0.42784 0.0
H932 H 0.87246 0.50731 0.50833 0.0
H933 H 0.87131 0.47686 0.5544 0.0
C934 C 0.87388 0.43187 0.54428 0.0
C935 C 0.87581 0.40901 0.53539 0.0
C936 C 0.87269 0.44847 0.51785 0.0
C937 C 0.87521 0.40232 0.49945 0.0
C938 C 0.8739 0.41871 0.47292 0.0
C939 C 0.8736 0.45961 0.45543 0.0
C940 C 0.87384 0.48362 0.46448 0.0
C941 C 0.87315 0.4421 0.48184 0.0
C942 C 0.87241 0.48915 0.50046 0.0
C943 C 0.87182 0.47175 0.52686 0.0
H944 H 0.42676 0.86404 0.92371 0.0
H945 H 0.37451 0.86576 0.00497 0.0
H946 H 0.40377 0.864 0.05063 0.0
H947 H 0.4455 0.86519 0.06728 0.0
H948 H 0.49851 0.86484 0.98612 0.0
H949 H 0.46721 0.86255 0.94045 0.0
C950 C 0.42156 0.86388 0.95138 0.0
C951 C 0.39848 0.86534 0.96078 0.0
C952 C 0.43862 0.86319 0.97747 0.0
C953 C 0.39211 0.86479 0.99686 0.0
C954 C 0.40889 0.86384 0.023 0.0
C955 C 0.45028 0.86446 0.03963 0.0
C956 C 0.47463 0.86551 0.03024 0.0
C957 C 0.43243 0.86355 0.01357 0.0
C958 C 0.48008 0.86417 0.99421 0.0
C959 C 0.46221 0.86296 0.96807 0.0
H960 H 0.57095 0.4251 0.42812 0.0
H961 H 0.51661 0.37225 0.50874 0.0
H962 H 0.54749 0.40132 0.55475 0.0
H963 H 0.58774 0.44331 0.57174 0.0
H964 H 0.64123 0.49692 0.49101 0.0
H965 H 0.61258 0.46561 0.44511 0.0
C966 C 0.56578 0.41972 0.45573 0.0
C967 C 0.54118 0.3966 0.4649 0.0
C968 C 0.58335 0.43672 0.48194 0.0
C969 C 0.53524 0.3899 0.50086 0.0
C970 C 0.55286 0.4066 0.52717 0.0
C971 C 0.59333 0.44824 0.54413 0.0
C972 C 0.61652 0.47276 0.5349 0.0
C973 C 0.57663 0.43034 0.51796 0.0
C974 C 0.62348 0.47839 0.49895 0.0
C975 C 0.60707 0.46049 0.4727 0.0
H976 H 0.14745 0.5595 0.92752 0.0
H977 H 0.15346 0.5106 0.01015 0.0
H978 H 0.1559 0.54266 0.05465 0.0
H979 H 0.15403 0.5829 0.07012 0.0
H980 H 0.14689 0.63141 0.98796 0.0
H981 H 0.1475 0.60099 0.94294 0.0
C982 C 0.14938 0.55576 0.95524 0.0
C983 C 0.15002 0.53239 0.96541 0.0
C984 C 0.15055 0.57414 0.98067 0.0
C985 C 0.15279 0.52823 0.00149 0.0
C986 C 0.15416 0.54657 0.02695 0.0
C987 C 0.15266 0.58702 0.04238 0.0
C988 C 0.1501 0.60938 0.03254 0.0
C989 C 0.15268 0.56934 0.01683 0.0
C990 C 0.14877 0.61439 0.99637 0.0
C991 C 0.14903 0.59694 0.97065 0.0
H992 H 0.57402 0.15197 0.58021 0.0
H993 H 0.52393 0.15324 0.49567 0.0
H994 H 0.55632 0.15516 0.45202 0.0
H995 H 0.59707 0.15363 0.43782 0.0
H996 H 0.64666 0.15104 0.52204 0.0
H997 H 0.61617 0.15281 0.56596 0.0
C998 C 0.57014 0.15283 0.55226 0.0
C999 C 0.54628 0.15222 0.54137 0.0
C1000 C 0.58872 0.15365 0.52726 0.0
C1001 C 0.54193 0.15356 0.50495 0.0
C1002 C 0.56046 0.15462 0.47994 0.0
C1003 C 0.60146 0.15361 0.46576 0.0
C1004 C 0.62415 0.15193 0.47649 0.0
C1005 C 0.58366 0.15423 0.4908 0.0
C1006 C 0.62941 0.15223 0.5129 0.0
C1007 C 0.6119 0.15315 0.53805 0.0
H1008 H 0.53686 0.38592 1.00052 0.0
H1009 H 0.57953 0.42929 0.09441 0.0
H1010 H 0.61486 0.46387 0.0582 0.0
H1011 H 0.63261 0.48394 0.99967 0.0
H1012 H 0.59019 0.44013 0.90587 0.0
H1013 H 0.55653 0.40412 0.94209 0.0
C1014 C 0.554 0.40275 0.01309 0.0
C1015 C 0.55509 0.40493 0.05022 0.0
C1016 C 0.57453 0.4229 0.99206 0.0
C1017 C 0.57773 0.42698 0.06588 0.0
C1018 C 0.59812 0.44695 0.04519 0.0
C1019 C 0.61617 0.46643 0.98714 0.0
C1020 C 0.61399 0.46521 0.95 0.0
C1021 C 0.59654 0.44545 0.0082 0.0
C1022 C 0.59248 0.44207 0.93439 0.0
C1023 C 0.57304 0.42126 0.95509 0.0
H1024 H 0.15154 0.59116 0.42656 0.0
H1025 H 0.15326 0.64632 0.50583 0.0
H1026 H 0.15483 0.6177 0.55253 0.0
H1027 H 0.15381 0.57645 0.57086 0.0
H1028 H 0.15154 0.52077 0.49205 0.0
H1029 H 0.15231 0.55053 0.445 0.0
C1030 C 0.15234 0.59708 0.45402 0.0
C1031 C 0.15207 0.6209 0.46255 0.0
C1032 C 0.1531 0.58045 0.48079 0.0
C1033 C 0.15333 0.62816 0.49837 0.0
C1034 C 0.15421 0.61176 0.52512 0.0
C1035 C 0.15354 0.57069 0.54342 0.0
C1036 C 0.15236 0.54614 0.53512 0.0
C1037 C 0.15379 0.58775 0.51662 0.0
C1038 C 0.15235 0.5394 0.49931 0.0
C1039 C 0.15273 0.55641 0.47239 0.0
H1040 H 0.62705 0.1413 0.00828 0.0
H1041 H 0.60229 0.17675 0.09016 0.0
H1042 H 0.5693 0.1776 0.0504 0.0
H1043 H 0.54437 0.16437 0.99389 0.0
H1044 H 0.56927 0.12838 0.91257 0.0
H1045 H 0.60484 0.13168 0.95035 0.0
C1046 C 0.6149 0.14981 0.01709 0.0
C1047 C 0.61703 0.15873 0.05216 0.0
C1048 C 0.59545 0.14971 0.99433 0.0
C1049 C 0.60092 0.16951 0.06328 0.0
C1050 C 0.5819 0.16989 0.04063 0.0
C1051 C 0.55762 0.15734 0.98442 0.0
C1052 C 0.55375 0.14593 0.95046 0.0
C1053 C 0.57837 0.15928 0.00639 0.0
C1054 C 0.57146 0.1372 0.93859 0.0
C1055 C 0.59199 0.13907 0.96019 0.0
H1056 H 0.44822 0.58696 0.57126 0.0
H1057 H 0.50452 0.63894 0.4917 0.0
H1058 H 0.47435 0.60993 0.44509 0.0
H1059 H 0.43317 0.56893 0.42716 0.0
H1060 H 0.37731 0.51665 0.50692 0.0
H1061 H 0.40634 0.54695 0.55332 0.0
C1062 C 0.454 0.59215 0.54375 0.0
C1063 C 0.47887 0.61518 0.53516 0.0
C1064 C 0.43668 0.57528 0.51714 0.0
C1065 C 0.48566 0.62143 0.49924 0.0
C1066 C 0.46841 0.60479 0.47255 0.0
C1067 C 0.42715 0.56409 0.45466 0.0
C1068 C 0.40299 0.54028 0.46338 0.0
C1069 C 0.44404 0.5815 0.48123 0.0
C1070 C 0.3957 0.53466 0.49927 0.0
C1071 C 0.41234 0.552 0.52586 0.0
H1072 H 0.86992 0.42298 0.92748 0.0
H1073 H 0.86252 0.36724 0.00969 0.0
H1074 H 0.85912 0.39625 0.05428 0.0
H1075 H 0.86222 0.43899 0.07029 0.0
H1076 H 0.87085 0.49543 0.98848 0.0
H1077 H 0.86941 0.4642 0.9432 0.0
C1078 C 0.86737 0.41697 0.95511 0.0
C1079 C 0.86687 0.39301 0.96517 0.0
C1080 C 0.86573 0.4339 0.98066 0.0
C1081 C 0.86314 0.38554 0.0011 0.0
C1082 C 0.86126 0.40218 0.02665 0.0
C1083 C 0.8636 0.4445 0.04254 0.0
C1084 C 0.86705 0.4698 0.0329 0.0
C1085 C 0.86317 0.42667 0.01678 0.0
C1086 C 0.86829 0.47622 0.99675 0.0
C1087 C 0.86761 0.45841 0.97085 0.0
H1088 H 0.45199 0.85804 0.42117 0.0
H1089 H 0.50483 0.85683 0.50175 0.0
H1090 H 0.47535 0.85771 0.5478 0.0
H1091 H 0.43715 0.86296 0.56497 0.0
H1092 H 0.38497 0.86559 0.48463 0.0
H1093 H 0.41176 0.85987 0.43858 0.0
C1094 C 0.45701 0.85764 0.44878 0.0
C1095 C 0.48091 0.85766 0.45784 0.0
C1096 C 0.44025 0.85868 0.47514 0.0
C1097 C 0.48675 0.85692 0.49386 0.0
C1098 C 0.46993 0.85756 0.52025 0.0
C1099 C 0.43145 0.86218 0.53741 0.0
C1100 C 0.40922 0.86514 0.52832 0.0
C1101 C 0.44706 0.85916 0.51115 0.0
C1102 C 0.40202 0.86357 0.49246 0.0
C1103 C 0.41738 0.86034 0.46611 0.0
loop_
_geom_bond_atom_site_label_1
_geom_bond_atom_site_label_2
_geom_bond_distance
_geom_bond_site_symmetry_2
_ccdc_geom_bond_type
Co0 O1 2.216 . S
Co0 O2 2.091 . S
Co0 O4 2.004 . S
Co0 O10 2.021 . S
Co0 O12 2.137 . S
Co0 O13 2.244 . S
O1 Co0 2.216 . S
O1 C8 1.247 . S
O2 Co0 2.091 . S
O2 C8 1.261 . S
C3 O12 1.247 . S
C3 O13 1.272 . S
O4 Co0 2.004 . S
O4 C9 1.259 . S
Co5 O6 2.061 . S
Co5 O11 2.052 . S
Co5 O13 2.135 . S
O6 Co5 2.061 . S
O6 C9 1.235 . S
C7 O10 1.238 . S
C7 O11 1.241 . S
C8 O1 1.247 . S
C8 O2 1.261 . S
C9 O4 1.259 . S
C9 O6 1.235 . S
O10 Co0 2.021 . S
O10 C7 1.238 . S
O11 Co5 2.052 . S
O11 C7 1.241 . S
O12 Co0 2.137 . S
O12 C3 1.247 . S
O13 Co0 2.244 . S
O13 C3 1.272 . S
O13 Co5 2.135 . S
Co14 O15 2.216 . S
Co14 O16 2.091 . S
Co14 O18 2.004 . S
Co14 O24 2.021 . S
Co14 O26 2.137 . S
Co14 O27 2.244 . S
O15 Co14 2.216 . S
O15 C22 1.247 . S
O16 Co14 2.091 . S
O16 C22 1.261 . S
C17 O26 1.247 . S
C17 O27 1.272 . S
O18 Co14 2.004 . S
O18 C23 1.259 . S
Co19 O20 2.061 . S
Co19 O25 2.052 . S
Co19 O27 2.135 . S
O20 Co19 2.061 . S
O20 C23 1.235 . S
C21 O24 1.238 . S
C21 O25 1.241 . S
C22 O15 1.247 . S
C22 O16 1.261 . S
C23 O18 1.259 . S
C23 O20 1.235 . S
O24 Co14 2.021 . S
O24 C21 1.238 . S
O25 Co19 2.052 . S
O25 C21 1.241 . S
O26 Co14 2.137 . S
O26 C17 1.247 . S
O27 Co14 2.244 . S
O27 C17 1.272 . S
O27 Co19 2.135 . S
Co28 O29 2.216 . S
Co28 O30 2.091 . S
Co28 O32 2.004 . S
Co28 O38 2.021 . S
Co28 O40 2.137 . S
Co28 O41 2.244 . S
O29 Co28 2.216 . S
O29 C36 1.247 . S
O30 Co28 2.091 . S
O30 C36 1.261 . S
C31 O40 1.247 . S
C31 O41 1.272 . S
O32 Co28 2.004 . S
O32 C37 1.259 . S
Co33 O34 2.061 . S
Co33 O39 2.052 . S
Co33 O41 2.135 . S
O34 Co33 2.061 . S
O34 C37 1.235 . S
C35 O38 1.238 . S
C35 O39 1.241 . S
C36 O29 1.247 . S
C36 O30 1.261 . S
C37 O32 1.259 . S
C37 O34 1.235 . S
O38 Co28 2.021 . S
O38 C35 1.238 . S
O39 Co33 2.052 . S
O39 C35 1.241 . S
O40 Co28 2.137 . S
O40 C31 1.247 . S
O41 Co28 2.244 . S
O41 C31 1.272 . S
O41 Co33 2.135 . S
Co42 O43 2.216 . S
Co42 O44 2.091 . S
Co42 O46 2.004 . S
Co42 O52 2.021 . S
Co42 O54 2.137 . S
Co42 O55 2.244 . S
O43 Co42 2.216 . S
O43 C50 1.247 . S
O44 Co42 2.091 . S
O44 C50 1.261 . S
C45 O54 1.247 . S
C45 O55 1.272 . S
O46 Co42 2.004 . S
O46 C51 1.259 . S
Co47 O48 2.061 . S
Co47 O53 2.052 . S
Co47 O55 2.135 . S
O48 Co47 2.061 . S
O48 C51 1.235 . S
C49 O52 1.238 . S
C49 O53 1.241 . S
C50 O43 1.247 . S
C50 O44 1.261 . S
C51 O46 1.259 . S
C51 O48 1.235 . S
O52 Co42 2.021 . S
O52 C49 1.238 . S
O53 Co47 2.052 . S
O53 C49 1.241 . S
O54 Co42 2.137 . S
O54 C45 1.247 . S
O55 Co42 2.244 . S
O55 C45 1.272 . S
O55 Co47 2.135 . S
Co56 O57 2.216 . S
Co56 O58 2.091 . S
Co56 O60 2.004 . S
Co56 O66 2.021 . S
Co56 O68 2.137 . S
Co56 O69 2.244 . S
O57 Co56 2.216 . S
O57 C64 1.247 . S
O58 Co56 2.091 . S
O58 C64 1.261 . S
C59 O68 1.247 . S
C59 O69 1.272 . S
O60 Co56 2.004 . S
O60 C65 1.259 . S
Co61 O62 2.061 . S
Co61 O67 2.052 . S
Co61 O69 2.135 . S
O62 Co61 2.061 . S
O62 C65 1.235 . S
C63 O66 1.238 . S
C63 O67 1.241 . S
C64 O57 1.247 . S
C64 O58 1.261 . S
C65 O60 1.259 . S
C65 O62 1.235 . S
O66 Co56 2.021 . S
O66 C63 1.238 . S
O67 Co61 2.052 . S
O67 C63 1.241 . S
O68 Co56 2.137 . S
O68 C59 1.247 . S
O69 Co56 2.244 . S
O69 C59 1.272 . S
O69 Co61 2.135 . S
Co70 O71 2.216 . S
Co70 O72 2.091 . S
Co70 O74 2.004 . S
Co70 O80 2.021 . S
Co70 O82 2.137 . S
Co70 O83 2.244 . S
O71 Co70 2.216 . S
O71 C78 1.247 . S
O72 Co70 2.091 . S
O72 C78 1.261 . S
C73 O82 1.247 . S
C73 O83 1.272 . S
O74 Co70 2.004 . S
O74 C79 1.259 . S
Co75 O76 2.061 . S
Co75 O81 2.052 . S
Co75 O83 2.135 . S
O76 Co75 2.061 . S
O76 C79 1.235 . S
C77 O80 1.238 . S
C77 O81 1.241 . S
C78 O71 1.247 . S
C78 O72 1.261 . S
C79 O74 1.259 . S
C79 O76 1.235 . S
O80 Co70 2.021 . S
O80 C77 1.238 . S
O81 Co75 2.052 . S
O81 C77 1.241 . S
O82 Co70 2.137 . S
O82 C73 1.247 . S
O83 Co70 2.244 . S
O83 C73 1.272 . S
O83 Co75 2.135 . S
Co84 O85 2.216 . S
Co84 O86 2.091 . S
Co84 O88 2.004 . S
Co84 O94 2.021 . S
Co84 O96 2.137 . S
Co84 O97 2.244 . S
O85 Co84 2.216 . S
O85 C92 1.247 . S
O86 Co84 2.091 . S
O86 C92 1.261 . S
C87 O96 1.247 . S
C87 O97 1.272 . S
O88 Co84 2.004 . S
O88 C93 1.259 . S
Co89 O90 2.061 . S
Co89 O95 2.052 . S
Co89 O97 2.135 . S
O90 Co89 2.061 . S
O90 C93 1.235 . S
C91 O94 1.238 . S
C91 O95 1.241 . S
C92 O85 1.247 . S
C92 O86 1.261 . S
C93 O88 1.259 . S
C93 O90 1.235 . S
O94 Co84 2.021 . S
O94 C91 1.238 . S
O95 Co89 2.052 . S
O95 C91 1.241 . S
O96 Co84 2.137 . S
O96 C87 1.247 . S
O97 Co84 2.244 . S
O97 C87 1.272 . S
O97 Co89 2.135 . S
Co98 O99 2.216 . S
Co98 O100 2.091 . S
Co98 O102 2.004 . S
Co98 O108 2.021 . S
Co98 O110 2.137 . S
Co98 O111 2.244 . S
O99 Co98 2.216 . S
O99 C106 1.247 . S
O100 Co98 2.091 . S
O100 C106 1.261 . S
C101 O110 1.247 . S
C101 O111 1.272 . S
O102 Co98 2.004 . S
O102 C107 1.259 . S
Co103 O104 2.061 . S
Co103 O109 2.052 . S
Co103 O111 2.135 . S
O104 Co103 2.061 . S
O104 C107 1.235 . S
C105 O108 1.238 . S
C105 O109 1.241 . S
C106 O99 1.247 . S
C106 O100 1.261 . S
C107 O102 1.259 . S
C107 O104 1.235 . S
O108 Co98 2.021 . S
O108 C105 1.238 . S
O109 Co103 2.052 . S
O109 C105 1.241 . S
O110 Co98 2.137 . S
O110 C101 1.247 . S
O111 Co98 2.244 . S
O111 C101 1.272 . S
O111 Co103 2.135 . S
Co112 O113 2.216 . S
Co112 O114 2.091 . S
Co112 O116 2.004 . S
Co112 O122 2.021 . S
Co112 O124 2.137 . S
Co112 O125 2.244 . S
O113 Co112 2.216 . S
O113 C120 1.247 . S
O114 Co112 2.091 . S
O114 C120 1.261 . S
C115 O124 1.247 . S
C115 O125 1.272 . S
O116 Co112 2.004 . S
O116 C121 1.259 . S
Co117 O118 2.061 . S
Co117 O123 2.052 . S
Co117 O125 2.135 . S
O118 Co117 2.061 . S
O118 C121 1.235 . S
C119 O122 1.238 . S
C119 O123 1.241 . S
C120 O113 1.247 . S
C120 O114 1.261 . S
C121 O116 1.259 . S
C121 O118 1.235 . S
O122 Co112 2.021 . S
O122 C119 1.238 . S
O123 Co117 2.052 . S
O123 C119 1.241 . S
O124 Co112 2.137 . S
O124 C115 1.247 . S
O125 Co112 2.244 . S
O125 C115 1.272 . S
O125 Co117 2.135 . S
Co126 O127 2.216 . S
Co126 O128 2.091 . S
Co126 O130 2.004 . S
Co126 O136 2.021 . S
Co126 O138 2.137 . S
Co126 O139 2.244 . S
O127 Co126 2.216 . S
O127 C134 1.247 . S
O128 Co126 2.091 . S
O128 C134 1.261 . S
C129 O138 1.247 . S
C129 O139 1.272 . S
O130 Co126 2.004 . S
O130 C135 1.259 . S
Co131 O132 2.061 . S
Co131 O137 2.052 . S
Co131 O139 2.135 . S
O132 Co131 2.061 . S
O132 C135 1.235 . S
C133 O136 1.238 . S
C133 O137 1.241 . S
C134 O127 1.247 . S
C134 O128 1.261 . S
C135 O130 1.259 . S
C135 O132 1.235 . S
O136 Co126 2.021 . S
O136 C133 1.238 . S
O137 Co131 2.052 . S
O137 C133 1.241 . S
O138 Co126 2.137 . S
O138 C129 1.247 . S
O139 Co126 2.244 . S
O139 C129 1.272 . S
O139 Co131 2.135 . S
Co140 O141 2.216 . S
Co140 O142 2.091 . S
Co140 O144 2.004 . S
Co140 O150 2.021 . S
Co140 O152 2.137 . S
Co140 O153 2.244 . S
O141 Co140 2.216 . S
O141 C148 1.247 . S
O142 Co140 2.091 . S
O142 C148 1.261 . S
C143 O152 1.247 . S
C143 O153 1.272 . S
O144 Co140 2.004 . S
O144 C149 1.259 . S
Co145 O146 2.061 . S
Co145 O151 2.052 . S
Co145 O153 2.135 . S
O146 Co145 2.061 . S
O146 C149 1.235 . S
C147 O150 1.238 . S
C147 O151 1.241 . S
C148 O141 1.247 . S
C148 O142 1.261 . S
C149 O144 1.259 . S
C149 O146 1.235 . S
O150 Co140 2.021 . S
O150 C147 1.238 . S
O151 Co145 2.052 . S
O151 C147 1.241 . S
O152 Co140 2.137 . S
O152 C143 1.247 . S
O153 Co140 2.244 . S
O153 C143 1.272 . S
O153 Co145 2.135 . S
Co154 O155 2.216 . S
Co154 O156 2.091 . S
Co154 O158 2.004 . S
Co154 O164 2.021 . S
Co154 O166 2.137 . S
Co154 O167 2.244 . S
O155 Co154 2.216 . S
O155 C162 1.247 . S
O156 Co154 2.091 . S
O156 C162 1.261 . S
C157 O166 1.247 . S
C157 O167 1.272 . S
O158 Co154 2.004 . S
O158 C163 1.259 . S
Co159 O160 2.061 . S
Co159 O165 2.052 . S
Co159 O167 2.135 . S
O160 Co159 2.061 . S
O160 C163 1.235 . S
C161 O164 1.238 . S
C161 O165 1.241 . S
C162 O155 1.247 . S
C162 O156 1.261 . S
C163 O158 1.259 . S
C163 O160 1.235 . S
O164 Co154 2.021 . S
O164 C161 1.238 . S
O165 Co159 2.052 . S
O165 C161 1.241 . S
O166 Co154 2.137 . S
O166 C157 1.247 . S
O167 Co154 2.244 . S
O167 C157 1.272 . S
O167 Co159 2.135 . S
Co168 O169 2.216 . S
Co168 O170 2.091 . S
Co168 O172 2.004 . S
Co168 O178 2.021 . S
Co168 O180 2.137 . S
Co168 O181 2.244 . S
O169 Co168 2.216 . S
O169 C176 1.247 . S
O170 Co168 2.091 . S
O170 C176 1.261 . S
C171 O180 1.247 . S
C171 O181 1.272 . S
O172 Co168 2.004 . S
O172 C177 1.259 . S
Co173 O174 2.061 . S
Co173 O179 2.052 . S
Co173 O181 2.135 . S
O174 Co173 2.061 . S
O174 C177 1.235 . S
C175 O178 1.238 . S
C175 O179 1.241 . S
C176 O169 1.247 . S
C176 O170 1.261 . S
C177 O172 1.259 . S
C177 O174 1.235 . S
O178 Co168 2.021 . S
O178 C175 1.238 . S
O179 Co173 2.052 . S
O179 C175 1.241 . S
O180 Co168 2.137 . S
O180 C171 1.247 . S
O181 Co168 2.244 . S
O181 C171 1.272 . S
O181 Co173 2.135 . S
Co182 O183 2.216 . S
Co182 O184 2.091 . S
Co182 O186 2.004 . S
Co182 O192 2.021 . S
Co182 O194 2.137 . S
Co182 O195 2.244 . S
O183 Co182 2.216 . S
O183 C190 1.247 . S
O184 Co182 2.091 . S
O184 C190 1.261 . S
C185 O194 1.247 . S
C185 O195 1.272 . S
O186 Co182 2.004 . S
O186 C191 1.259 . S
Co187 O188 2.061 . S
Co187 O193 2.052 . S
Co187 O195 2.135 . S
O188 Co187 2.061 . S
O188 C191 1.235 . S
C189 O192 1.238 . S
C189 O193 1.241 . S
C190 O183 1.247 . S
C190 O184 1.261 . S
C191 O186 1.259 . S
C191 O188 1.235 . S
O192 Co182 2.021 . S
O192 C189 1.238 . S
O193 Co187 2.052 . S
O193 C189 1.241 . S
O194 Co182 2.137 . S
O194 C185 1.247 . S
O195 Co182 2.244 . S
O195 C185 1.272 . S
O195 Co187 2.135 . S
Co196 O197 2.216 . S
Co196 O198 2.091 . S
Co196 O200 2.004 . S
Co196 O206 2.021 . S
Co196 O208 2.137 . S
Co196 O209 2.244 . S
O197 Co196 2.216 . S
O197 C204 1.247 . S
O198 Co196 2.091 . S
O198 C204 1.261 . S
C199 O208 1.247 . S
C199 O209 1.272 . S
O200 Co196 2.004 . S
O200 C205 1.259 . S
Co201 O202 2.061 . S
Co201 O207 2.052 . S
Co201 O209 2.135 . S
O202 Co201 2.061 . S
O202 C205 1.235 . S
C203 O206 1.238 . S
C203 O207 1.241 . S
C204 O197 1.247 . S
C204 O198 1.261 . S
C205 O200 1.259 . S
C205 O202 1.235 . S
O206 Co196 2.021 . S
O206 C203 1.238 . S
O207 Co201 2.052 . S
O207 C203 1.241 . S
O208 Co196 2.137 . S
O208 C199 1.247 . S
O209 Co196 2.244 . S
O209 C199 1.272 . S
O209 Co201 2.135 . S
Co210 O211 2.216 . S
Co210 O212 2.091 . S
Co210 O214 2.004 . S
Co210 O220 2.021 . S
Co210 O222 2.137 . S
Co210 O223 2.244 . S
O211 Co210 2.216 . S
O211 C218 1.247 . S
O212 Co210 2.091 . S
O212 C218 1.261 . S
C213 O222 1.247 . S
C213 O223 1.272 . S
O214 Co210 2.004 . S
O214 C219 1.259 . S
Co215 O216 2.061 . S
Co215 O221 2.052 . S
Co215 O223 2.135 . S
O216 Co215 2.061 . S
O216 C219 1.235 . S
C217 O220 1.238 . S
C217 O221 1.241 . S
C218 O211 1.247 . S
C218 O212 1.261 . S
C219 O214 1.259 . S
C219 O216 1.235 . S
O220 Co210 2.021 . S
O220 C217 1.238 . S
O221 Co215 2.052 . S
O221 C217 1.241 . S
O222 Co210 2.137 . S
O222 C213 1.247 . S
O223 Co210 2.244 . S
O223 C213 1.272 . S
O223 Co215 2.135 . S
Co224 O225 2.216 . S
Co224 O226 2.091 . S
Co224 O228 2.004 . S
Co224 O234 2.021 . S
Co224 O236 2.137 . S
Co224 O237 2.244 . S
O225 Co224 2.216 . S
O225 C232 1.247 . S
O226 Co224 2.091 . S
O226 C232 1.261 . S
C227 O236 1.247 . S
C227 O237 1.272 . S
O228 Co224 2.004 . S
O228 C233 1.259 . S
Co229 O230 2.061 . S
Co229 O235 2.052 . S
Co229 O237 2.135 . S
O230 Co229 2.061 . S
O230 C233 1.235 . S
C231 O234 1.238 . S
C231 O235 1.241 . S
C232 O225 1.247 . S
C232 O226 1.261 . S
C233 O228 1.259 . S
C233 O230 1.235 . S
O234 Co224 2.021 . S
O234 C231 1.238 . S
O235 Co229 2.052 . S
O235 C231 1.241 . S
O236 Co224 2.137 . S
O236 C227 1.247 . S
O237 Co224 2.244 . S
O237 C227 1.272 . S
O237 Co229 2.135 . S
Co238 O239 2.216 . S
Co238 O240 2.091 . S
Co238 O242 2.004 . S
Co238 O248 2.021 . S
Co238 O250 2.137 . S
Co238 O251 2.244 . S
O239 Co238 2.216 . S
O239 C246 1.247 . S
O240 Co238 2.091 . S
O240 C246 1.261 . S
C241 O250 1.247 . S
C241 O251 1.272 . S
O242 Co238 2.004 . S
O242 C247 1.259 . S
Co243 O244 2.061 . S
Co243 O249 2.052 . S
Co243 O251 2.135 . S
O244 Co243 2.061 . S
O244 C247 1.235 . S
C245 O248 1.238 . S
C245 O249 1.241 . S
C246 O239 1.247 . S
C246 O240 1.261 . S
C247 O242 1.259 . S
C247 O244 1.235 . S
O248 Co238 2.021 . S
O248 C245 1.238 . S
O249 Co243 2.052 . S
O249 C245 1.241 . S
O250 Co238 2.137 . S
O250 C241 1.247 . S
O251 Co238 2.244 . S
O251 C241 1.272 . S
O251 Co243 2.135 . S
Co252 O253 2.216 . S
Co252 O254 2.091 . S
Co252 O256 2.004 . S
Co252 O262 2.021 . S
Co252 O264 2.137 . S
Co252 O265 2.244 . S
O253 Co252 2.216 . S
O253 C260 1.247 . S
O254 Co252 2.091 . S
O254 C260 1.261 . S
C255 O264 1.247 . S
C255 O265 1.272 . S
O256 Co252 2.004 . S
O256 C261 1.259 . S
Co257 O258 2.061 . S
Co257 O263 2.052 . S
Co257 O265 2.135 . S
O258 Co257 2.061 . S
O258 C261 1.235 . S
C259 O262 1.238 . S
C259 O263 1.241 . S
C260 O253 1.247 . S
C260 O254 1.261 . S
C261 O256 1.259 . S
C261 O258 1.235 . S
O262 Co252 2.021 . S
O262 C259 1.238 . S
O263 Co257 2.052 . S
O263 C259 1.241 . S
O264 Co252 2.137 . S
O264 C255 1.247 . S
O265 Co252 2.244 . S
O265 C255 1.272 . S
O265 Co257 2.135 . S
Co266 O267 2.216 . S
Co266 O268 2.091 . S
Co266 O270 2.004 . S
Co266 O276 2.021 . S
Co266 O278 2.137 . S
Co266 O279 2.244 . S
O267 Co266 2.216 . S
O267 C274 1.247 . S
O268 Co266 2.091 . S
O268 C274 1.261 . S
C269 O278 1.247 . S
C269 O279 1.272 . S
O270 Co266 2.004 . S
O270 C275 1.259 . S
Co271 O272 2.061 . S
Co271 O277 2.052 . S
Co271 O279 2.135 . S
O272 Co271 2.061 . S
O272 C275 1.235 . S
C273 O276 1.238 . S
C273 O277 1.241 . S
C274 O267 1.247 . S
C274 O268 1.261 . S
C275 O270 1.259 . S
C275 O272 1.235 . S
O276 Co266 2.021 . S
O276 C273 1.238 . S
O277 Co271 2.052 . S
O277 C273 1.241 . S
O278 Co266 2.137 . S
O278 C269 1.247 . S
O279 Co266 2.244 . S
O279 C269 1.272 . S
O279 Co271 2.135 . S
Co280 O281 2.216 . S
Co280 O282 2.091 . S
Co280 O284 2.004 . S
Co280 O290 2.021 . S
Co280 O292 2.137 . S
Co280 O293 2.244 . S
O281 Co280 2.216 . S
O281 C288 1.247 . S
O282 Co280 2.091 . S
O282 C288 1.261 . S
C283 O292 1.247 . S
C283 O293 1.272 . S
O284 Co280 2.004 . S
O284 C289 1.259 . S
Co285 O286 2.061 . S
Co285 O291 2.052 . S
Co285 O293 2.135 . S
O286 Co285 2.061 . S
O286 C289 1.235 . S
C287 O290 1.238 . S
C287 O291 1.241 . S
C288 O281 1.247 . S
C288 O282 1.261 . S
C289 O284 1.259 . S
C289 O286 1.235 . S
O290 Co280 2.021 . S
O290 C287 1.238 . S
O291 Co285 2.052 . S
O291 C287 1.241 . S
O292 Co280 2.137 . S
O292 C283 1.247 . S
O293 Co280 2.244 . S
O293 C283 1.272 . S
O293 Co285 2.135 . S
Co294 O295 2.216 . S
Co294 O296 2.091 . S
Co294 O298 2.004 . S
Co294 O304 2.021 . S
Co294 O306 2.137 . S
Co294 O307 2.244 . S
O295 Co294 2.216 . S
O295 C302 1.247 . S
O296 Co294 2.091 . S
O296 C302 1.261 . S
C297 O306 1.247 . S
C297 O307 1.272 . S
O298 Co294 2.004 . S
O298 C303 1.259 . S
Co299 O300 2.061 . S
Co299 O305 2.052 . S
Co299 O307 2.135 . S
O300 Co299 2.061 . S
O300 C303 1.235 . S
C301 O304 1.238 . S
C301 O305 1.241 . S
C302 O295 1.247 . S
C302 O296 1.261 . S
C303 O298 1.259 . S
C303 O300 1.235 . S
O304 Co294 2.021 . S
O304 C301 1.238 . S
O305 Co299 2.052 . S
O305 C301 1.241 . S
O306 Co294 2.137 . S
O306 C297 1.247 . S
O307 Co294 2.244 . S
O307 C297 1.272 . S
O307 Co299 2.135 . S
Co308 O309 2.216 . S
Co308 O310 2.091 . S
Co308 O312 2.004 . S
Co308 O318 2.021 . S
Co308 O320 2.137 . S
Co308 O321 2.244 . S
O309 Co308 2.216 . S
O309 C316 1.247 . S
O310 Co308 2.091 . S
O310 C316 1.261 . S
C311 O320 1.247 . S
C311 O321 1.272 . S
O312 Co308 2.004 . S
O312 C317 1.259 . S
Co313 O314 2.061 . S
Co313 O319 2.052 . S
Co313 O321 2.135 . S
O314 Co313 2.061 . S
O314 C317 1.235 . S
C315 O318 1.238 . S
C315 O319 1.241 . S
C316 O309 1.247 . S
C316 O310 1.261 . S
C317 O312 1.259 . S
C317 O314 1.235 . S
O318 Co308 2.021 . S
O318 C315 1.238 . S
O319 Co313 2.052 . S
O319 C315 1.241 . S
O320 Co308 2.137 . S
O320 C311 1.247 . S
O321 Co308 2.244 . S
O321 C311 1.272 . S
O321 Co313 2.135 . S
Co322 O323 2.216 . S
Co322 O324 2.091 . S
Co322 O326 2.004 . S
Co322 O332 2.021 . S
Co322 O334 2.137 . S
Co322 O335 2.244 . S
O323 Co322 2.216 . S
O323 C330 1.247 . S
O324 Co322 2.091 . S
O324 C330 1.261 . S
C325 O334 1.247 . S
C325 O335 1.272 . S
O326 Co322 2.004 . S
O326 C331 1.259 . S
Co327 O328 2.061 . S
Co327 O333 2.052 . S
Co327 O335 2.135 . S
O328 Co327 2.061 . S
O328 C331 1.235 . S
C329 O332 1.238 . S
C329 O333 1.241 . S
C330 O323 1.247 . S
C330 O324 1.261 . S
C331 O326 1.259 . S
C331 O328 1.235 . S
O332 Co322 2.021 . S
O332 C329 1.238 . S
O333 Co327 2.052 . S
O333 C329 1.241 . S
O334 Co322 2.137 . S
O334 C325 1.247 . S
O335 Co322 2.244 . S
O335 C325 1.272 . S
O335 Co327 2.135 . S
H336 C342 0.930 . S
H337 C345 0.930 . S
H338 C346 0.930 . S
H339 C347 0.930 . S
H340 C350 0.930 . S
H341 C351 0.930 . S
C342 H336 0.930 . S
C342 C343 1.355 . S
C342 C344 1.415 . S
C343 C342 1.355 . S
C343 C345 1.419 . S
C344 C342 1.415 . S
C344 C349 1.425 . S
C344 C351 1.409 . S
C345 H337 0.930 . S
C345 C343 1.419 . S
C345 C346 1.362 . S
C346 H338 0.930 . S
C346 C345 1.362 . S
C346 C349 1.409 . S
C347 H339 0.930 . S
C347 C348 1.355 . S
C347 C349 1.415 . S
C348 C347 1.355 . S
C348 C350 1.419 . S
C349 C344 1.425 . S
C349 C346 1.409 . S
C349 C347 1.415 . S
C350 H340 0.930 . S
C350 C348 1.419 . S
C350 C351 1.362 . S
C351 H341 0.930 . S
C351 C344 1.409 . S
C351 C350 1.362 . S
H352 C358 0.930 . S
H353 C361 0.930 . S
H354 C362 0.930 . S
H355 C363 0.930 . S
H356 C366 0.930 . S
H357 C367 0.930 . S
C358 H352 0.930 . S
C358 C359 1.355 . S
C358 C360 1.415 . S
C359 C358 1.355 . S
C359 C361 1.419 . S
C360 C358 1.415 . S
C360 C365 1.425 . S
C360 C367 1.409 . S
C361 H353 0.930 . S
C361 C359 1.419 . S
C361 C362 1.362 . S
C362 H354 0.930 . S
C362 C361 1.362 . S
C362 C365 1.409 . S
C363 H355 0.930 . S
C363 C364 1.355 . S
C363 C365 1.415 . S
C364 C363 1.355 . S
C364 C366 1.419 . S
C365 C360 1.425 . S
C365 C362 1.409 . S
C365 C363 1.415 . S
C366 H356 0.930 . S
C366 C364 1.419 . S
C366 C367 1.362 . S
C367 H357 0.930 . S
C367 C360 1.409 . S
C367 C366 1.362 . S
H368 C374 0.930 . S
H369 C377 0.930 . S
H370 C378 0.930 . S
H371 C379 0.930 . S
H372 C382 0.930 . S
H373 C383 0.930 . S
C374 H368 0.930 . S
C374 C375 1.355 . S
C374 C376 1.415 . S
C375 C374 1.355 . S
C375 C377 1.419 . S
C376 C374 1.415 . S
C376 C381 1.425 . S
C376 C383 1.409 . S
C377 H369 0.930 . S
C377 C375 1.419 . S
C377 C378 1.362 . S
C378 H370 0.930 . S
C378 C377 1.362 . S
C378 C381 1.409 . S
C379 H371 0.930 . S
C379 C380 1.355 . S
C379 C381 1.415 . S
C380 C379 1.355 . S
C380 C382 1.419 . S
C381 C376 1.425 . S
C381 C378 1.409 . S
C381 C379 1.415 . S
C382 H372 0.930 . S
C382 C380 1.419 . S
C382 C383 1.362 . S
C383 H373 0.930 . S
C383 C376 1.409 . S
C383 C382 1.362 . S
H384 C390 0.930 . S
H385 C393 0.930 . S
H386 C394 0.930 . S
H387 C395 0.930 . S
H388 C398 0.930 . S
H389 C399 0.930 . S
C390 H384 0.930 . S
C390 C391 1.355 . S
C390 C392 1.415 . S
C391 C390 1.355 . S
C391 C393 1.419 . S
C392 C390 1.415 . S
C392 C397 1.425 . S
C392 C399 1.409 . S
C393 H385 0.930 . S
C393 C391 1.419 . S
C393 C394 1.362 . S
C394 H386 0.930 . S
C394 C393 1.362 . S
C394 C397 1.409 . S
C395 H387 0.930 . S
C395 C396 1.355 . S
C395 C397 1.415 . S
C396 C395 1.355 . S
C396 C398 1.419 . S
C397 C392 1.425 . S
C397 C394 1.409 . S
C397 C395 1.415 . S
C398 H388 0.930 . S
C398 C396 1.419 . S
C398 C399 1.362 . S
C399 H389 0.930 . S
C399 C392 1.409 . S
C399 C398 1.362 . S
H400 C406 0.930 . S
H401 C409 0.930 . S
H402 C410 0.930 . S
H403 C411 0.930 . S
H404 C414 0.930 . S
H405 C415 0.930 . S
C406 H400 0.930 . S
C406 C407 1.355 . S
C406 C408 1.415 . S
C407 C406 1.355 . S
C407 C409 1.419 . S
C408 C406 1.415 . S
C408 C413 1.425 . S
C408 C415 1.409 . S
C409 H401 0.930 . S
C409 C407 1.419 . S
C409 C410 1.362 . S
C410 H402 0.930 . S
C410 C409 1.362 . S
C410 C413 1.409 . S
C411 H403 0.930 . S
C411 C412 1.355 . S
C411 C413 1.415 . S
C412 C411 1.355 . S
C412 C414 1.419 . S
C413 C408 1.425 . S
C413 C410 1.409 . S
C413 C411 1.415 . S
C414 H404 0.930 . S
C414 C412 1.419 . S
C414 C415 1.362 . S
C415 H405 0.930 . S
C415 C408 1.409 . S
C415 C414 1.362 . S
H416 C422 0.930 . S
H417 C425 0.930 . S
H418 C426 0.930 . S
H419 C427 0.930 . S
H420 C430 0.930 . S
H421 C431 0.930 . S
C422 H416 0.930 . S
C422 C423 1.355 . S
C422 C424 1.415 . S
C423 C422 1.355 . S
C423 C425 1.419 . S
C424 C422 1.415 . S
C424 C429 1.425 . S
C424 C431 1.409 . S
C425 H417 0.930 . S
C425 C423 1.419 . S
C425 C426 1.362 . S
C426 H418 0.930 . S
C426 C425 1.362 . S
C426 C429 1.409 . S
C427 H419 0.930 . S
C427 C428 1.355 . S
C427 C429 1.415 . S
C428 C427 1.355 . S
C428 C430 1.419 . S
C429 C424 1.425 . S
C429 C426 1.409 . S
C429 C427 1.415 . S
C430 H420 0.930 . S
C430 C428 1.419 . S
C430 C431 1.362 . S
C431 H421 0.930 . S
C431 C424 1.409 . S
C431 C430 1.362 . S
H432 C438 0.930 . S
H433 C441 0.930 . S
H434 C442 0.930 . S
H435 C443 0.930 . S
H436 C446 0.930 . S
H437 C447 0.930 . S
C438 H432 0.930 . S
C438 C439 1.355 . S
C438 C440 1.415 . S
C439 C438 1.355 . S
C439 C441 1.419 . S
C440 C438 1.415 . S
C440 C445 1.425 . S
C440 C447 1.409 . S
C441 H433 0.930 . S
C441 C439 1.419 . S
C441 C442 1.362 . S
C442 H434 0.930 . S
C442 C441 1.362 . S
C442 C445 1.409 . S
C443 H435 0.930 . S
C443 C444 1.355 . S
C443 C445 1.415 . S
C444 C443 1.355 . S
C444 C446 1.419 . S
C445 C440 1.425 . S
C445 C442 1.409 . S
C445 C443 1.415 . S
C446 H436 0.930 . S
C446 C444 1.419 . S
C446 C447 1.362 . S
C447 H437 0.930 . S
C447 C440 1.409 . S
C447 C446 1.362 . S
H448 C454 0.930 . S
H449 C457 0.930 . S
H450 C458 0.930 . S
H451 C459 0.930 . S
H452 C462 0.930 . S
H453 C463 0.930 . S
C454 H448 0.930 . S
C454 C455 1.355 . S
C454 C456 1.415 . S
C455 C454 1.355 . S
C455 C457 1.419 . S
C456 C454 1.415 . S
C456 C461 1.425 . S
C456 C463 1.409 . S
C457 H449 0.930 . S
C457 C455 1.419 . S
C457 C458 1.362 . S
C458 H450 0.930 . S
C458 C457 1.362 . S
C458 C461 1.409 . S
C459 H451 0.930 . S
C459 C460 1.355 . S
C459 C461 1.415 . S
C460 C459 1.355 . S
C460 C462 1.419 . S
C461 C456 1.425 . S
C461 C458 1.409 . S
C461 C459 1.415 . S
C462 H452 0.930 . S
C462 C460 1.419 . S
C462 C463 1.362 . S
C463 H453 0.930 . S
C463 C456 1.409 . S
C463 C462 1.362 . S
H464 C470 0.930 . S
H465 C473 0.930 . S
H466 C474 0.930 . S
H467 C475 0.930 . S
H468 C478 0.930 . S
H469 C479 0.930 . S
C470 H464 0.930 . S
C470 C471 1.355 . S
C470 C472 1.415 . S
C471 C470 1.355 . S
C471 C473 1.419 . S
C472 C470 1.415 . S
C472 C477 1.425 . S
C472 C479 1.409 . S
C473 H465 0.930 . S
C473 C471 1.419 . S
C473 C474 1.362 . S
C474 H466 0.930 . S
C474 C473 1.362 . S
C474 C477 1.409 . S
C475 H467 0.930 . S
C475 C476 1.355 . S
C475 C477 1.415 . S
C476 C475 1.355 . S
C476 C478 1.419 . S
C477 C472 1.425 . S
C477 C474 1.409 . S
C477 C475 1.415 . S
C478 H468 0.930 . S
C478 C476 1.419 . S
C478 C479 1.362 . S
C479 H469 0.930 . S
C479 C472 1.409 . S
C479 C478 1.362 . S
H480 C486 0.930 . S
H481 C489 0.930 . S
H482 C490 0.930 . S
H483 C491 0.930 . S
H484 C494 0.930 . S
H485 C495 0.930 . S
C486 H480 0.930 . S
C486 C487 1.355 . S
C486 C488 1.415 . S
C487 C486 1.355 . S
C487 C489 1.419 . S
C488 C486 1.415 . S
C488 C493 1.425 . S
C488 C495 1.409 . S
C489 H481 0.930 . S
C489 C487 1.419 . S
C489 C490 1.362 . S
C490 H482 0.930 . S
C490 C489 1.362 . S
C490 C493 1.409 . S
C491 H483 0.930 . S
C491 C492 1.355 . S
C491 C493 1.415 . S
C492 C491 1.355 . S
C492 C494 1.419 . S
C493 C488 1.425 . S
C493 C490 1.409 . S
C493 C491 1.415 . S
C494 H484 0.930 . S
C494 C492 1.419 . S
C494 C495 1.362 . S
C495 H485 0.930 . S
C495 C488 1.409 . S
C495 C494 1.362 . S
H496 C502 0.930 . S
H497 C505 0.930 . S
H498 C506 0.930 . S
H499 C507 0.930 . S
H500 C510 0.930 . S
H501 C511 0.930 . S
C502 H496 0.930 . S
C502 C503 1.355 . S
C502 C504 1.415 . S
C503 C502 1.355 . S
C503 C505 1.419 . S
C504 C502 1.415 . S
C504 C509 1.425 . S
C504 C511 1.409 . S
C505 H497 0.930 . S
C505 C503 1.419 . S
C505 C506 1.362 . S
C506 H498 0.930 . S
C506 C505 1.362 . S
C506 C509 1.409 . S
C507 H499 0.930 . S
C507 C508 1.355 . S
C507 C509 1.415 . S
C508 C507 1.355 . S
C508 C510 1.419 . S
C509 C504 1.425 . S
C509 C506 1.409 . S
C509 C507 1.415 . S
C510 H500 0.930 . S
C510 C508 1.419 . S
C510 C511 1.362 . S
C511 H501 0.930 . S
C511 C504 1.409 . S
C511 C510 1.362 . S
H512 C518 0.930 . S
H513 C521 0.930 . S
H514 C522 0.930 . S
H515 C523 0.930 . S
H516 C526 0.930 . S
H517 C527 0.930 . S
C518 H512 0.930 . S
C518 C519 1.355 . S
C518 C520 1.415 . S
C519 C518 1.355 . S
C519 C521 1.419 . S
C520 C518 1.415 . S
C520 C525 1.425 . S
C520 C527 1.409 . S
C521 H513 0.930 . S
C521 C519 1.419 . S
C521 C522 1.362 . S
C522 H514 0.930 . S
C522 C521 1.362 . S
C522 C525 1.409 . S
C523 H515 0.930 . S
C523 C524 1.355 . S
C523 C525 1.415 . S
C524 C523 1.355 . S
C524 C526 1.419 . S
C525 C520 1.425 . S
C525 C522 1.409 . S
C525 C523 1.415 . S
C526 H516 0.930 . S
C526 C524 1.419 . S
C526 C527 1.362 . S
C527 H517 0.930 . S
C527 C520 1.409 . S
C527 C526 1.362 . S
H528 C534 0.930 1_554 S
H529 C537 0.930 . S
H530 C538 0.930 . S
H531 C539 0.930 1_556 S
H532 C542 0.930 . S
H533 C543 0.930 . S
C534 H528 0.930 1_556 S
C534 C535 1.355 . S
C534 C536 1.415 1_556 S
C535 C534 1.355 . S
C535 C537 1.419 . S
C536 C534 1.415 1_554 S
C536 C541 1.425 1_554 S
C536 C543 1.409 . S
C537 H529 0.930 . S
C537 C535 1.419 . S
C537 C538 1.362 . S
C538 H530 0.930 . S
C538 C537 1.362 . S
C538 C541 1.409 . S
C539 H531 0.930 1_554 S
C539 C540 1.355 . S
C539 C541 1.415 1_554 S
C540 C539 1.355 . S
C540 C542 1.419 . S
C541 C536 1.425 1_556 S
C541 C538 1.409 . S
C541 C539 1.415 1_556 S
C542 H532 0.930 . S
C542 C540 1.419 . S
C542 C543 1.362 . S
C543 H533 0.930 . S
C543 C536 1.409 . S
C543 C542 1.362 . S
H544 C550 0.930 . S
H545 C553 0.930 . S
H546 C554 0.930 . S
H547 C555 0.930 . S
H548 C558 0.930 . S
H549 C559 0.930 . S
C550 H544 0.930 . S
C550 C551 1.355 . S
C550 C552 1.415 . S
C551 C550 1.355 . S
C551 C553 1.419 . S
C552 C550 1.415 . S
C552 C557 1.425 . S
C552 C559 1.409 . S
C553 H545 0.930 . S
C553 C551 1.419 . S
C553 C554 1.362 . S
C554 H546 0.930 . S
C554 C553 1.362 . S
C554 C557 1.409 . S
C555 H547 0.930 . S
C555 C556 1.355 . S
C555 C557 1.415 . S
C556 C555 1.355 . S
C556 C558 1.419 . S
C557 C552 1.425 . S
C557 C554 1.409 . S
C557 C555 1.415 . S
C558 H548 0.930 . S
C558 C556 1.419 . S
C558 C559 1.362 . S
C559 H549 0.930 . S
C559 C552 1.409 . S
C559 C558 1.362 . S
H560 C566 0.930 . S
H561 C569 0.930 . S
H562 C570 0.930 . S
H563 C571 0.930 . S
H564 C574 0.930 . S
H565 C575 0.930 . S
C566 H560 0.930 . S
C566 C567 1.355 . S
C566 C568 1.415 . S
C567 C566 1.355 . S
C567 C569 1.419 . S
C568 C566 1.415 . S
C568 C573 1.425 1_554 S
C568 C575 1.409 . S
C569 H561 0.930 . S
C569 C567 1.419 . S
C569 C570 1.362 1_554 S
C570 H562 0.930 . S
C570 C569 1.362 1_556 S
C570 C573 1.409 . S
C571 H563 0.930 . S
C571 C572 1.355 . S
C571 C573 1.415 . S
C572 C571 1.355 . S
C572 C574 1.419 . S
C573 C568 1.425 1_556 S
C573 C570 1.409 . S
C573 C571 1.415 . S
C574 H564 0.930 . S
C574 C572 1.419 . S
C574 C575 1.362 1_556 S
C575 H565 0.930 . S
C575 C568 1.409 . S
C575 C574 1.362 1_554 S
H576 C582 0.930 . S
H577 C585 0.930 . S
H578 C586 0.930 . S
H579 C587 0.930 . S
H580 C590 0.930 . S
H581 C591 0.930 . S
C582 H576 0.930 . S
C582 C583 1.355 . S
C582 C584 1.415 . S
C583 C582 1.355 . S
C583 C585 1.419 . S
C584 C582 1.415 . S
C584 C589 1.425 . S
C584 C591 1.409 . S
C585 H577 0.930 . S
C585 C583 1.419 . S
C585 C586 1.362 . S
C586 H578 0.930 . S
C586 C585 1.362 . S
C586 C589 1.409 . S
C587 H579 0.930 . S
C587 C588 1.355 . S
C587 C589 1.415 . S
C588 C587 1.355 . S
C588 C590 1.419 . S
C589 C584 1.425 . S
C589 C586 1.409 . S
C589 C587 1.415 . S
C590 H580 0.930 . S
C590 C588 1.419 . S
C590 C591 1.362 . S
C591 H581 0.930 . S
C591 C584 1.409 . S
C591 C590 1.362 . S
H592 C598 0.930 1_554 S
H593 C601 0.930 . S
H594 C602 0.930 . S
H595 C603 0.930 1_556 S
H596 C606 0.930 . S
H597 C607 0.930 . S
C598 H592 0.930 1_556 S
C598 C599 1.355 . S
C598 C600 1.415 1_556 S
C599 C598 1.355 . S
C599 C601 1.419 . S
C600 C598 1.415 1_554 S
C600 C605 1.425 1_554 S
C600 C607 1.409 . S
C601 H593 0.930 . S
C601 C599 1.419 . S
C601 C602 1.362 . S
C602 H594 0.930 . S
C602 C601 1.362 . S
C602 C605 1.409 . S
C603 H595 0.930 1_554 S
C603 C604 1.355 . S
C603 C605 1.415 1_554 S
C604 C603 1.355 . S
C604 C606 1.419 . S
C605 C600 1.425 1_556 S
C605 C602 1.409 . S
C605 C603 1.415 1_556 S
C606 H596 0.930 . S
C606 C604 1.419 . S
C606 C607 1.362 . S
C607 H597 0.930 . S
C607 C600 1.409 . S
C607 C606 1.362 . S
H608 C614 0.930 . S
H609 C617 0.930 . S
H610 C618 0.930 . S
H611 C619 0.930 . S
H612 C622 0.930 . S
H613 C623 0.930 . S
C614 H608 0.930 . S
C614 C615 1.355 . S
C614 C616 1.415 . S
C615 C614 1.355 . S
C615 C617 1.419 . S
C616 C614 1.415 . S
C616 C621 1.425 . S
C616 C623 1.409 . S
C617 H609 0.930 . S
C617 C615 1.419 . S
C617 C618 1.362 . S
C618 H610 0.930 . S
C618 C617 1.362 . S
C618 C621 1.409 . S
C619 H611 0.930 . S
C619 C620 1.355 . S
C619 C621 1.415 . S
C620 C619 1.355 . S
C620 C622 1.419 . S
C621 C616 1.425 . S
C621 C618 1.409 . S
C621 C619 1.415 . S
C622 H612 0.930 . S
C622 C620 1.419 . S
C622 C623 1.362 . S
C623 H613 0.930 . S
C623 C616 1.409 . S
C623 C622 1.362 . S
H624 C630 0.930 . S
H625 C633 0.930 . S
H626 C634 0.930 . S
H627 C635 0.930 . S
H628 C638 0.930 . S
H629 C639 0.930 . S
C630 H624 0.930 . S
C630 C631 1.355 . S
C630 C632 1.415 . S
C631 C630 1.355 . S
C631 C633 1.419 1_554 S
C632 C630 1.415 . S
C632 C637 1.425 1_554 S
C632 C639 1.409 . S
C633 H625 0.930 . S
C633 C631 1.419 1_556 S
C633 C634 1.362 . S
C634 H626 0.930 . S
C634 C633 1.362 . S
C634 C637 1.409 . S
C635 H627 0.930 . S
C635 C636 1.355 . S
C635 C637 1.415 . S
C636 C635 1.355 . S
C636 C638 1.419 1_556 S
C637 C632 1.425 1_556 S
C637 C634 1.409 . S
C637 C635 1.415 . S
C638 H628 0.930 . S
C638 C636 1.419 1_554 S
C638 C639 1.362 . S
C639 H629 0.930 . S
C639 C632 1.409 . S
C639 C638 1.362 . S
H640 C646 0.930 . S
H641 C649 0.930 . S
H642 C650 0.930 . S
H643 C651 0.930 . S
H644 C654 0.930 . S
H645 C655 0.930 . S
C646 H640 0.930 . S
C646 C647 1.355 . S
C646 C648 1.415 . S
C647 C646 1.355 . S
C647 C649 1.419 . S
C648 C646 1.415 . S
C648 C653 1.425 . S
C648 C655 1.409 . S
C649 H641 0.930 . S
C649 C647 1.419 . S
C649 C650 1.362 . S
C650 H642 0.930 . S
C650 C649 1.362 . S
C650 C653 1.409 . S
C651 H643 0.930 . S
C651 C652 1.355 . S
C651 C653 1.415 . S
C652 C651 1.355 . S
C652 C654 1.419 . S
C653 C648 1.425 . S
C653 C650 1.409 . S
C653 C651 1.415 . S
C654 H644 0.930 . S
C654 C652 1.419 . S
C654 C655 1.362 . S
C655 H645 0.930 . S
C655 C648 1.409 . S
C655 C654 1.362 . S
H656 C662 0.930 . S
H657 C665 0.930 . S
H658 C666 0.930 1_554 S
H659 C667 0.930 . S
H660 C670 0.930 . S
H661 C671 0.930 1_556 S
C662 H656 0.930 . S
C662 C663 1.355 . S
C662 C664 1.415 . S
C663 C662 1.355 . S
C663 C665 1.419 . S
C664 C662 1.415 . S
C664 C669 1.425 1_556 S
C664 C671 1.409 1_556 S
C665 H657 0.930 . S
C665 C663 1.419 . S
C665 C666 1.362 . S
C666 H658 0.930 1_556 S
C666 C665 1.362 . S
C666 C669 1.409 1_556 S
C667 H659 0.930 . S
C667 C668 1.355 . S
C667 C669 1.415 . S
C668 C667 1.355 . S
C668 C670 1.419 . S
C669 C664 1.425 1_554 S
C669 C666 1.409 1_554 S
C669 C667 1.415 . S
C670 H660 0.930 . S
C670 C668 1.419 . S
C670 C671 1.362 . S
C671 H661 0.930 1_554 S
C671 C664 1.409 1_554 S
C671 C670 1.362 . S
H672 C678 0.930 . S
H673 C681 0.930 . S
H674 C682 0.930 . S
H675 C683 0.930 . S
H676 C686 0.930 . S
H677 C687 0.930 . S
C678 H672 0.930 . S
C678 C679 1.355 . S
C678 C680 1.415 . S
C679 C678 1.355 . S
C679 C681 1.419 . S
C680 C678 1.415 . S
C680 C685 1.425 . S
C680 C687 1.409 . S
C681 H673 0.930 . S
C681 C679 1.419 . S
C681 C682 1.362 . S
C682 H674 0.930 . S
C682 C681 1.362 . S
C682 C685 1.409 . S
C683 H675 0.930 . S
C683 C684 1.355 . S
C683 C685 1.415 . S
C684 C683 1.355 . S
C684 C686 1.419 . S
C685 C680 1.425 . S
C685 C682 1.409 . S
C685 C683 1.415 . S
C686 H676 0.930 . S
C686 C684 1.419 . S
C686 C687 1.362 . S
C687 H677 0.930 . S
C687 C680 1.409 . S
C687 C686 1.362 . S
H688 C694 0.930 1_554 S
H689 C697 0.930 . S
H690 C698 0.930 . S
H691 C699 0.930 1_556 S
H692 C702 0.930 . S
H693 C703 0.930 . S
C694 H688 0.930 1_556 S
C694 C695 1.355 . S
C694 C696 1.415 1_556 S
C695 C694 1.355 . S
C695 C697 1.419 . S
C696 C694 1.415 1_554 S
C696 C701 1.425 1_554 S
C696 C703 1.409 . S
C697 H689 0.930 . S
C697 C695 1.419 . S
C697 C698 1.362 . S
C698 H690 0.930 . S
C698 C697 1.362 . S
C698 C701 1.409 . S
C699 H691 0.930 1_554 S
C699 C700 1.355 . S
C699 C701 1.415 1_554 S
C700 C699 1.355 . S
C700 C702 1.419 . S
C701 C696 1.425 1_556 S
C701 C698 1.409 . S
C701 C699 1.415 1_556 S
C702 H692 0.930 . S
C702 C700 1.419 . S
C702 C703 1.362 . S
C703 H693 0.930 . S
C703 C696 1.409 . S
C703 C702 1.362 . S
H704 C710 0.930 . S
H705 C713 0.930 . S
H706 C714 0.930 . S
H707 C715 0.930 . S
H708 C718 0.930 . S
H709 C719 0.930 . S
C710 H704 0.930 . S
C710 C711 1.355 . S
C710 C712 1.415 . S
C711 C710 1.355 . S
C711 C713 1.419 . S
C712 C710 1.415 . S
C712 C717 1.425 . S
C712 C719 1.409 . S
C713 H705 0.930 . S
C713 C711 1.419 . S
C713 C714 1.362 . S
C714 H706 0.930 . S
C714 C713 1.362 . S
C714 C717 1.409 . S
C715 H707 0.930 . S
C715 C716 1.355 . S
C715 C717 1.415 . S
C716 C715 1.355 . S
C716 C718 1.419 . S
C717 C712 1.425 . S
C717 C714 1.409 . S
C717 C715 1.415 . S
C718 H708 0.930 . S
C718 C716 1.419 . S
C718 C719 1.362 . S
C719 H709 0.930 . S
C719 C712 1.409 . S
C719 C718 1.362 . S
H720 C726 0.930 . S
H721 C729 0.930 . S
H722 C730 0.930 . S
H723 C731 0.930 . S
H724 C734 0.930 . S
H725 C735 0.930 . S
C726 H720 0.930 . S
C726 C727 1.355 . S
C726 C728 1.415 . S
C727 C726 1.355 . S
C727 C729 1.419 . S
C728 C726 1.415 . S
C728 C733 1.425 . S
C728 C735 1.409 . S
C729 H721 0.930 . S
C729 C727 1.419 . S
C729 C730 1.362 . S
C730 H722 0.930 . S
C730 C729 1.362 . S
C730 C733 1.409 . S
C731 H723 0.930 . S
C731 C732 1.355 . S
C731 C733 1.415 . S
C732 C731 1.355 . S
C732 C734 1.419 . S
C733 C728 1.425 . S
C733 C730 1.409 . S
C733 C731 1.415 . S
C734 H724 0.930 . S
C734 C732 1.419 . S
C734 C735 1.362 . S
C735 H725 0.930 . S
C735 C728 1.409 . S
C735 C734 1.362 . S
H736 C742 0.930 . S
H737 C745 0.930 . S
H738 C746 0.930 . S
H739 C747 0.930 . S
H740 C750 0.930 . S
H741 C751 0.930 . S
C742 H736 0.930 . S
C742 C743 1.355 . S
C742 C744 1.415 . S
C743 C742 1.355 . S
C743 C745 1.419 . S
C744 C742 1.415 . S
C744 C749 1.425 1_455 S
C744 C751 1.409 1_455 S
C745 H737 0.930 . S
C745 C743 1.419 . S
C745 C746 1.362 . S
C746 H738 0.930 . S
C746 C745 1.362 . S
C746 C749 1.409 1_455 S
C747 H739 0.930 . S
C747 C748 1.355 . S
C747 C749 1.415 . S
C748 C747 1.355 . S
C748 C750 1.419 . S
C749 C744 1.425 1_655 S
C749 C746 1.409 1_655 S
C749 C747 1.415 . S
C750 H740 0.930 . S
C750 C748 1.419 . S
C750 C751 1.362 . S
C751 H741 0.930 . S
C751 C744 1.409 1_655 S
C751 C750 1.362 . S
H752 C758 0.930 . S
H753 C761 0.930 . S
H754 C762 0.930 . S
H755 C763 0.930 . S
H756 C766 0.930 . S
H757 C767 0.930 . S
C758 H752 0.930 . S
C758 C759 1.355 . S
C758 C760 1.415 . S
C759 C758 1.355 . S
C759 C761 1.419 . S
C760 C758 1.415 . S
C760 C765 1.425 1_565 S
C760 C767 1.409 1_565 S
C761 H753 0.930 . S
C761 C759 1.419 . S
C761 C762 1.362 . S
C762 H754 0.930 . S
C762 C761 1.362 . S
C762 C765 1.409 1_565 S
C763 H755 0.930 . S
C763 C764 1.355 . S
C763 C765 1.415 . S
C764 C763 1.355 . S
C764 C766 1.419 . S
C765 C760 1.425 1_545 S
C765 C762 1.409 1_545 S
C765 C763 1.415 . S
C766 H756 0.930 . S
C766 C764 1.419 . S
C766 C767 1.362 . S
C767 H757 0.930 . S
C767 C760 1.409 1_545 S
C767 C766 1.362 . S
H768 C774 0.930 . S
H769 C777 0.930 . S
H770 C778 0.930 . S
H771 C779 0.930 . S
H772 C782 0.930 . S
H773 C783 0.930 . S
C774 H768 0.930 . S
C774 C775 1.355 . S
C774 C776 1.415 . S
C775 C774 1.355 . S
C775 C777 1.419 . S
C776 C774 1.415 . S
C776 C781 1.425 . S
C776 C783 1.409 . S
C777 H769 0.930 . S
C777 C775 1.419 . S
C777 C778 1.362 . S
C778 H770 0.930 . S
C778 C777 1.362 . S
C778 C781 1.409 . S
C779 H771 0.930 . S
C779 C780 1.355 . S
C779 C781 1.415 . S
C780 C779 1.355 . S
C780 C782 1.419 . S
C781 C776 1.425 . S
C781 C778 1.409 . S
C781 C779 1.415 . S
C782 H772 0.930 . S
C782 C780 1.419 . S
C782 C783 1.362 . S
C783 H773 0.930 . S
C783 C776 1.409 . S
C783 C782 1.362 . S
H784 C790 0.930 . S
H785 C793 0.930 . S
H786 C794 0.930 . S
H787 C795 0.930 . S
H788 C798 0.930 . S
H789 C799 0.930 . S
C790 H784 0.930 . S
C790 C791 1.355 . S
C790 C792 1.415 . S
C791 C790 1.355 . S
C791 C793 1.419 . S
C792 C790 1.415 . S
C792 C797 1.425 1_655 S
C792 C799 1.409 1_655 S
C793 H785 0.930 . S
C793 C791 1.419 . S
C793 C794 1.362 . S
C794 H786 0.930 . S
C794 C793 1.362 . S
C794 C797 1.409 1_655 S
C795 H787 0.930 . S
C795 C796 1.355 . S
C795 C797 1.415 . S
C796 C795 1.355 . S
C796 C798 1.419 . S
C797 C792 1.425 1_455 S
C797 C794 1.409 1_455 S
C797 C795 1.415 . S
C798 H788 0.930 . S
C798 C796 1.419 . S
C798 C799 1.362 . S
C799 H789 0.930 . S
C799 C792 1.409 1_455 S
C799 C798 1.362 . S
H800 C806 0.930 . S
H801 C809 0.930 . S
H802 C810 0.930 . S
H803 C811 0.930 . S
H804 C814 0.930 . S
H805 C815 0.930 . S
C806 H800 0.930 . S
C806 C807 1.355 . S
C806 C808 1.415 . S
C807 C806 1.355 . S
C807 C809 1.419 . S
C808 C806 1.415 . S
C808 C813 1.425 1_545 S
C808 C815 1.409 1_545 S
C809 H801 0.930 . S
C809 C807 1.419 . S
C809 C810 1.362 . S
C810 H802 0.930 . S
C810 C809 1.362 . S
C810 C813 1.409 1_545 S
C811 H803 0.930 . S
C811 C812 1.355 . S
C811 C813 1.415 . S
C812 C811 1.355 . S
C812 C814 1.419 . S
C813 C808 1.425 1_565 S
C813 C810 1.409 1_565 S
C813 C811 1.415 . S
C814 H804 0.930 . S
C814 C812 1.419 . S
C814 C815 1.362 . S
C815 H805 0.930 . S
C815 C808 1.409 1_565 S
C815 C814 1.362 . S
H816 C822 0.930 . S
H817 C825 0.930 . S
H818 C826 0.930 . S
H819 C827 0.930 . S
H820 C830 0.930 . S
H821 C831 0.930 . S
C822 H816 0.930 . S
C822 C823 1.355 . S
C822 C824 1.415 . S
C823 C822 1.355 . S
C823 C825 1.419 . S
C824 C822 1.415 . S
C824 C829 1.425 . S
C824 C831 1.409 . S
C825 H817 0.930 . S
C825 C823 1.419 . S
C825 C826 1.362 . S
C826 H818 0.930 . S
C826 C825 1.362 . S
C826 C829 1.409 . S
C827 H819 0.930 . S
C827 C828 1.355 . S
C827 C829 1.415 . S
C828 C827 1.355 . S
C828 C830 1.419 . S
C829 C824 1.425 . S
C829 C826 1.409 . S
C829 C827 1.415 . S
C830 H820 0.930 . S
C830 C828 1.419 . S
C830 C831 1.362 . S
C831 H821 0.930 . S
C831 C824 1.409 . S
C831 C830 1.362 . S
H832 C838 0.930 . S
H833 C841 0.930 . S
H834 C842 0.930 . S
H835 C843 0.930 . S
H836 C846 0.930 . S
H837 C847 0.930 . S
C838 H832 0.930 . S
C838 C839 1.355 . S
C838 C840 1.415 . S
C839 C838 1.355 . S
C839 C841 1.419 . S
C840 C838 1.415 . S
C840 C845 1.425 1_655 S
C840 C847 1.409 1_655 S
C841 H833 0.930 . S
C841 C839 1.419 . S
C841 C842 1.362 . S
C842 H834 0.930 . S
C842 C841 1.362 . S
C842 C845 1.409 1_655 S
C843 H835 0.930 . S
C843 C844 1.355 . S
C843 C845 1.415 . S
C844 C843 1.355 . S
C844 C846 1.419 . S
C845 C840 1.425 1_455 S
C845 C842 1.409 1_455 S
C845 C843 1.415 . S
C846 H836 0.930 . S
C846 C844 1.419 . S
C846 C847 1.362 . S
C847 H837 0.930 . S
C847 C840 1.409 1_455 S
C847 C846 1.362 . S
H848 C854 0.930 . S
H849 C857 0.930 . S
H850 C858 0.930 . S
H851 C859 0.930 . S
H852 C862 0.930 . S
H853 C863 0.930 . S
C854 H848 0.930 . S
C854 C855 1.355 . S
C854 C856 1.415 . S
C855 C854 1.355 . S
C855 C857 1.419 . S
C856 C854 1.415 . S
C856 C861 1.425 1_545 S
C856 C863 1.409 1_545 S
C857 H849 0.930 . S
C857 C855 1.419 . S
C857 C858 1.362 . S
C858 H850 0.930 . S
C858 C857 1.362 . S
C858 C861 1.409 1_545 S
C859 H851 0.930 . S
C859 C860 1.355 . S
C859 C861 1.415 . S
C860 C859 1.355 . S
C860 C862 1.419 . S
C861 C856 1.425 1_565 S
C861 C858 1.409 1_565 S
C861 C859 1.415 . S
C862 H852 0.930 . S
C862 C860 1.419 . S
C862 C863 1.362 . S
C863 H853 0.930 . S
C863 C856 1.409 1_565 S
C863 C862 1.362 . S
H864 C870 0.930 . S
H865 C873 0.930 . S
H866 C874 0.930 . S
H867 C875 0.930 . S
H868 C878 0.930 . S
H869 C879 0.930 . S
C870 H864 0.930 . S
C870 C871 1.355 . S
C870 C872 1.415 . S
C871 C870 1.355 . S
C871 C873 1.419 . S
C872 C870 1.415 . S
C872 C877 1.425 . S
C872 C879 1.409 . S
C873 H865 0.930 . S
C873 C871 1.419 . S
C873 C874 1.362 . S
C874 H866 0.930 . S
C874 C873 1.362 . S
C874 C877 1.409 . S
C875 H867 0.930 . S
C875 C876 1.355 . S
C875 C877 1.415 . S
C876 C875 1.355 . S
C876 C878 1.419 . S
C877 C872 1.425 . S
C877 C874 1.409 . S
C877 C875 1.415 . S
C878 H868 0.930 . S
C878 C876 1.419 . S
C878 C879 1.362 . S
C879 H869 0.930 . S
C879 C872 1.409 . S
C879 C878 1.362 . S
H880 C886 0.930 . S
H881 C889 0.930 . S
H882 C890 0.930 . S
H883 C891 0.930 . S
H884 C894 0.930 . S
H885 C895 0.930 . S
C886 H880 0.930 . S
C886 C887 1.355 . S
C886 C888 1.415 . S
C887 C886 1.355 . S
C887 C889 1.419 . S
C888 C886 1.415 . S
C888 C893 1.425 1_455 S
C888 C895 1.409 1_455 S
C889 H881 0.930 . S
C889 C887 1.419 . S
C889 C890 1.362 . S
C890 H882 0.930 . S
C890 C889 1.362 . S
C890 C893 1.409 1_455 S
C891 H883 0.930 . S
C891 C892 1.355 . S
C891 C893 1.415 . S
C892 C891 1.355 . S
C892 C894 1.419 . S
C893 C888 1.425 1_655 S
C893 C890 1.409 1_655 S
C893 C891 1.415 . S
C894 H884 0.930 . S
C894 C892 1.419 . S
C894 C895 1.362 . S
C895 H885 0.930 . S
C895 C888 1.409 1_655 S
C895 C894 1.362 . S
H896 C902 0.930 . S
H897 C905 0.930 . S
H898 C906 0.930 . S
H899 C907 0.930 . S
H900 C910 0.930 . S
H901 C911 0.930 . S
C902 H896 0.930 . S
C902 C903 1.355 . S
C902 C904 1.415 . S
C903 C902 1.355 . S
C903 C905 1.419 . S
C904 C902 1.415 . S
C904 C909 1.425 1_565 S
C904 C911 1.409 1_565 S
C905 H897 0.930 . S
C905 C903 1.419 . S
C905 C906 1.362 . S
C906 H898 0.930 . S
C906 C905 1.362 . S
C906 C909 1.409 1_565 S
C907 H899 0.930 . S
C907 C908 1.355 . S
C907 C909 1.415 . S
C908 C907 1.355 . S
C908 C910 1.419 . S
C909 C904 1.425 1_545 S
C909 C906 1.409 1_545 S
C909 C907 1.415 . S
C910 H900 0.930 . S
C910 C908 1.419 . S
C910 C911 1.362 . S
C911 H901 0.930 . S
C911 C904 1.409 1_545 S
C911 C910 1.362 . S
H912 C918 0.930 . S
H913 C921 0.930 . S
H914 C922 0.930 . S
H915 C923 0.930 . S
H916 C926 0.930 . S
H917 C927 0.930 . S
C918 H912 0.930 . S
C918 C919 1.355 1_554 S
C918 C920 1.415 . S
C919 C918 1.355 1_556 S
C919 C921 1.419 . S
C920 C918 1.415 . S
C920 C925 1.425 1_554 S
C920 C927 1.409 . S
C921 H913 0.930 . S
C921 C919 1.419 . S
C921 C922 1.362 . S
C922 H914 0.930 . S
C922 C921 1.362 . S
C922 C925 1.409 . S
C923 H915 0.930 . S
C923 C924 1.355 1_556 S
C923 C925 1.415 . S
C924 C923 1.355 1_554 S
C924 C926 1.419 . S
C925 C920 1.425 1_556 S
C925 C922 1.409 . S
C925 C923 1.415 . S
C926 H916 0.930 . S
C926 C924 1.419 . S
C926 C927 1.362 . S
C927 H917 0.930 . S
C927 C920 1.409 . S
C927 C926 1.362 . S
H928 C934 0.930 . S
H929 C937 0.930 . S
H930 C938 0.930 . S
H931 C939 0.930 . S
H932 C942 0.930 . S
H933 C943 0.930 . S
C934 H928 0.930 . S
C934 C935 1.355 . S
C934 C936 1.415 . S
C935 C934 1.355 . S
C935 C937 1.419 . S
C936 C934 1.415 . S
C936 C941 1.425 . S
C936 C943 1.409 . S
C937 H929 0.930 . S
C937 C935 1.419 . S
C937 C938 1.362 . S
C938 H930 0.930 . S
C938 C937 1.362 . S
C938 C941 1.409 . S
C939 H931 0.930 . S
C939 C940 1.355 . S
C939 C941 1.415 . S
C940 C939 1.355 . S
C940 C942 1.419 . S
C941 C936 1.425 . S
C941 C938 1.409 . S
C941 C939 1.415 . S
C942 H932 0.930 . S
C942 C940 1.419 . S
C942 C943 1.362 . S
C943 H933 0.930 . S
C943 C936 1.409 . S
C943 C942 1.362 . S
H944 C950 0.930 . S
H945 C953 0.930 . S
H946 C954 0.930 . S
H947 C955 0.930 . S
H948 C958 0.930 . S
H949 C959 0.930 . S
C950 H944 0.930 . S
C950 C951 1.355 . S
C950 C952 1.415 1_556 S
C951 C950 1.355 . S
C951 C953 1.419 . S
C952 C950 1.415 1_554 S
C952 C957 1.425 1_554 S
C952 C959 1.409 . S
C953 H945 0.930 . S
C953 C951 1.419 . S
C953 C954 1.362 . S
C954 H946 0.930 . S
C954 C953 1.362 . S
C954 C957 1.409 . S
C955 H947 0.930 . S
C955 C956 1.355 . S
C955 C957 1.415 1_554 S
C956 C955 1.355 . S
C956 C958 1.419 . S
C957 C952 1.425 1_556 S
C957 C954 1.409 . S
C957 C955 1.415 1_556 S
C958 H948 0.930 . S
C958 C956 1.419 . S
C958 C959 1.362 . S
C959 H949 0.930 . S
C959 C952 1.409 . S
C959 C958 1.362 . S
H960 C966 0.930 . S
H961 C969 0.930 . S
H962 C970 0.930 . S
H963 C971 0.930 . S
H964 C974 0.930 . S
H965 C975 0.930 . S
C966 H960 0.930 . S
C966 C967 1.355 . S
C966 C968 1.415 . S
C967 C966 1.355 . S
C967 C969 1.419 . S
C968 C966 1.415 . S
C968 C973 1.425 . S
C968 C975 1.409 . S
C969 H961 0.930 . S
C969 C967 1.419 . S
C969 C970 1.362 . S
C970 H962 0.930 . S
C970 C969 1.362 . S
C970 C973 1.409 . S
C971 H963 0.930 . S
C971 C972 1.355 . S
C971 C973 1.415 . S
C972 C971 1.355 . S
C972 C974 1.419 . S
C973 C968 1.425 . S
C973 C970 1.409 . S
C973 C971 1.415 . S
C974 H964 0.930 . S
C974 C972 1.419 . S
C974 C975 1.362 . S
C975 H965 0.930 . S
C975 C968 1.409 . S
C975 C974 1.362 . S
H976 C982 0.930 . S
H977 C985 0.930 . S
H978 C986 0.930 . S
H979 C987 0.930 . S
H980 C990 0.930 . S
H981 C991 0.930 . S
C982 H976 0.930 . S
C982 C983 1.355 . S
C982 C984 1.415 . S
C983 C982 1.355 . S
C983 C985 1.419 1_556 S
C984 C982 1.415 . S
C984 C989 1.425 1_556 S
C984 C991 1.409 . S
C985 H977 0.930 . S
C985 C983 1.419 1_554 S
C985 C986 1.362 . S
C986 H978 0.930 . S
C986 C985 1.362 . S
C986 C989 1.409 . S
C987 H979 0.930 . S
C987 C988 1.355 . S
C987 C989 1.415 . S
C988 C987 1.355 . S
C988 C990 1.419 1_554 S
C989 C984 1.425 1_554 S
C989 C986 1.409 . S
C989 C987 1.415 . S
C990 H980 0.930 . S
C990 C988 1.419 1_556 S
C990 C991 1.362 . S
C991 H981 0.930 . S
C991 C984 1.409 . S
C991 C990 1.362 . S
H992 C998 0.930 . S
H993 C1001 0.930 . S
H994 C1002 0.930 . S
H995 C1003 0.930 . S
H996 C1006 0.930 . S
H997 C1007 0.930 . S
C998 H992 0.930 . S
C998 C999 1.355 . S
C998 C1000 1.415 . S
C999 C998 1.355 . S
C999 C1001 1.419 . S
C1000 C998 1.415 . S
C1000 C1005 1.425 . S
C1000 C1007 1.409 . S
C1001 H993 0.930 . S
C1001 C999 1.419 . S
C1001 C1002 1.362 . S
C1002 H994 0.930 . S
C1002 C1001 1.362 . S
C1002 C1005 1.409 . S
C1003 H995 0.930 . S
C1003 C1004 1.355 . S
C1003 C1005 1.415 . S
C1004 C1003 1.355 . S
C1004 C1006 1.419 . S
C1005 C1000 1.425 . S
C1005 C1002 1.409 . S
C1005 C1003 1.415 . S
C1006 H996 0.930 . S
C1006 C1004 1.419 . S
C1006 C1007 1.362 . S
C1007 H997 0.930 . S
C1007 C1000 1.409 . S
C1007 C1006 1.362 . S
H1008 C1014 0.930 . S
H1009 C1017 0.930 . S
H1010 C1018 0.930 . S
H1011 C1019 0.930 . S
H1012 C1022 0.930 . S
H1013 C1023 0.930 . S
C1014 H1008 0.930 . S
C1014 C1015 1.355 1_556 S
C1014 C1016 1.415 . S
C1015 C1014 1.355 1_554 S
C1015 C1017 1.419 . S
C1016 C1014 1.415 . S
C1016 C1021 1.425 1_556 S
C1016 C1023 1.409 . S
C1017 H1009 0.930 . S
C1017 C1015 1.419 . S
C1017 C1018 1.362 . S
C1018 H1010 0.930 . S
C1018 C1017 1.362 . S
C1018 C1021 1.409 . S
C1019 H1011 0.930 . S
C1019 C1020 1.355 1_554 S
C1019 C1021 1.415 . S
C1020 C1019 1.355 1_556 S
C1020 C1022 1.419 . S
C1021 C1016 1.425 1_554 S
C1021 C1018 1.409 . S
C1021 C1019 1.415 . S
C1022 H1012 0.930 . S
C1022 C1020 1.419 . S
C1022 C1023 1.362 . S
C1023 H1013 0.930 . S
C1023 C1016 1.409 . S
C1023 C1022 1.362 . S
H1024 C1030 0.930 . S
H1025 C1033 0.930 . S
H1026 C1034 0.930 . S
H1027 C1035 0.930 . S
H1028 C1038 0.930 . S
H1029 C1039 0.930 . S
C1030 H1024 0.930 . S
C1030 C1031 1.355 . S
C1030 C1032 1.415 . S
C1031 C1030 1.355 . S
C1031 C1033 1.419 . S
C1032 C1030 1.415 . S
C1032 C1037 1.425 . S
C1032 C1039 1.409 . S
C1033 H1025 0.930 . S
C1033 C1031 1.419 . S
C1033 C1034 1.362 . S
C1034 H1026 0.930 . S
C1034 C1033 1.362 . S
C1034 C1037 1.409 . S
C1035 H1027 0.930 . S
C1035 C1036 1.355 . S
C1035 C1037 1.415 . S
C1036 C1035 1.355 . S
C1036 C1038 1.419 . S
C1037 C1032 1.425 . S
C1037 C1034 1.409 . S
C1037 C1035 1.415 . S
C1038 H1028 0.930 . S
C1038 C1036 1.419 . S
C1038 C1039 1.362 . S
C1039 H1029 0.930 . S
C1039 C1032 1.409 . S
C1039 C1038 1.362 . S
H1040 C1046 0.930 . S
H1041 C1049 0.930 . S
H1042 C1050 0.930 . S
H1043 C1051 0.930 . S
H1044 C1054 0.930 . S
H1045 C1055 0.930 . S
C1046 H1040 0.930 . S
C1046 C1047 1.355 1_556 S
C1046 C1048 1.415 . S
C1047 C1046 1.355 1_554 S
C1047 C1049 1.419 . S
C1048 C1046 1.415 . S
C1048 C1053 1.425 1_556 S
C1048 C1055 1.409 . S
C1049 H1041 0.930 . S
C1049 C1047 1.419 . S
C1049 C1050 1.362 . S
C1050 H1042 0.930 . S
C1050 C1049 1.362 . S
C1050 C1053 1.409 . S
C1051 H1043 0.930 . S
C1051 C1052 1.355 1_554 S
C1051 C1053 1.415 . S
C1052 C1051 1.355 1_556 S
C1052 C1054 1.419 . S
C1053 C1048 1.425 1_554 S
C1053 C1050 1.409 . S
C1053 C1051 1.415 . S
C1054 H1044 0.930 . S
C1054 C1052 1.419 . S
C1054 C1055 1.362 . S
C1055 H1045 0.930 . S
C1055 C1048 1.409 . S
C1055 C1054 1.362 . S
H1056 C1062 0.930 . S
H1057 C1065 0.930 . S
H1058 C1066 0.930 . S
H1059 C1067 0.930 . S
H1060 C1070 0.930 . S
H1061 C1071 0.930 . S
C1062 H1056 0.930 . S
C1062 C1063 1.355 . S
C1062 C1064 1.415 . S
C1063 C1062 1.355 . S
C1063 C1065 1.419 . S
C1064 C1062 1.415 . S
C1064 C1069 1.425 . S
C1064 C1071 1.409 . S
C1065 H1057 0.930 . S
C1065 C1063 1.419 . S
C1065 C1066 1.362 . S
C1066 H1058 0.930 . S
C1066 C1065 1.362 . S
C1066 C1069 1.409 . S
C1067 H1059 0.930 . S
C1067 C1068 1.355 . S
C1067 C1069 1.415 . S
C1068 C1067 1.355 . S
C1068 C1070 1.419 . S
C1069 C1064 1.425 . S
C1069 C1066 1.409 . S
C1069 C1067 1.415 . S
C1070 H1060 0.930 . S
C1070 C1068 1.419 . S
C1070 C1071 1.362 . S
C1071 H1061 0.930 . S
C1071 C1064 1.409 . S
C1071 C1070 1.362 . S
H1072 C1078 0.930 1_554 S
H1073 C1081 0.930 . S
H1074 C1082 0.930 . S
H1075 C1083 0.930 1_556 S
H1076 C1086 0.930 . S
H1077 C1087 0.930 . S
C1078 H1072 0.930 1_556 S
C1078 C1079 1.355 . S
C1078 C1080 1.415 1_556 S
C1079 C1078 1.355 . S
C1079 C1081 1.419 . S
C1080 C1078 1.415 1_554 S
C1080 C1085 1.425 1_554 S
C1080 C1087 1.409 . S
C1081 H1073 0.930 . S
C1081 C1079 1.419 . S
C1081 C1082 1.362 . S
C1082 H1074 0.930 . S
C1082 C1081 1.362 . S
C1082 C1085 1.409 . S
C1083 H1075 0.930 1_554 S
C1083 C1084 1.355 . S
C1083 C1085 1.415 1_554 S
C1084 C1083 1.355 . S
C1084 C1086 1.419 . S
C1085 C1080 1.425 1_556 S
C1085 C1082 1.409 . S
C1085 C1083 1.415 1_556 S
C1086 H1076 0.930 . S
C1086 C1084 1.419 . S
C1086 C1087 1.362 . S
C1087 H1077 0.930 . S
C1087 C1080 1.409 . S
C1087 C1086 1.362 . S
H1088 C1094 0.930 . S
H1089 C1097 0.930 . S
H1090 C1098 0.930 . S
H1091 C1099 0.930 . S
H1092 C1102 0.930 . S
H1093 C1103 0.930 . S
C1094 H1088 0.930 . S
C1094 C1095 1.355 . S
C1094 C1096 1.415 . S
C1095 C1094 1.355 . S
C1095 C1097 1.419 . S
C1096 C1094 1.415 . S
C1096 C1101 1.425 . S
C1096 C1103 1.409 . S
C1097 H1089 0.930 . S
C1097 C1095 1.419 . S
C1097 C1098 1.362 . S
C1098 H1090 0.930 . S
C1098 C1097 1.362 . S
C1098 C1101 1.409 . S
C1099 H1091 0.930 . S
C1099 C1100 1.355 . S
C1099 C1101 1.415 . S
C1100 C1099 1.355 . S
C1100 C1102 1.419 . S
C1101 C1096 1.425 . S
C1101 C1098 1.409 . S
C1101 C1099 1.415 . S
C1102 H1092 0.930 . S
C1102 C1100 1.419 . S
C1102 C1103 1.362 . S
C1103 H1093 0.930 . S
C1103 C1096 1.409 . S
C1103 C1102 1.362 . S
C343 C3 1.503 . S
C348 C213 1.488 . S
C359 C17 1.496 . S
C364 C227 1.495 . S
C375 C241 1.496 . S
C380 C31 1.495 . S
C391 C171 1.502 . S
C396 C45 1.489 . S
C407 C185 1.503 . S
C412 C59 1.488 . S
C423 C199 1.490 . S
C428 C73 1.502 . S
C439 C297 1.495 . S
C444 C87 1.497 . S
C455 C101 1.502 . S
C460 C311 1.489 . S
C471 C325 1.488 . S
C476 C115 1.503 . S
C487 C129 1.499 . S
C492 C255 1.492 . S
C503 C269 1.495 . S
C508 C143 1.497 . S
C519 C157 1.489 . S
C524 C283 1.502 . S
C535 C148 1.400 . S
C540 C8 1.400 . S
C551 C162 1.393 . S
C556 C22 1.396 . S
C567 C36 1.384 . S
C572 C92 1.383 . S
C583 C50 1.386 . S
C588 C106 1.384 . S
C599 C120 1.399 . S
C604 C64 1.400 . S
C615 C78 1.386 . S
C620 C134 1.389 . S
C631 C316 1.383 . S
C636 C176 1.382 . S
C647 C190 1.395 . S
C652 C330 1.397 . S
C663 C204 1.394 . S
C668 C260 1.391 . S
C679 C274 1.400 . S
C684 C218 1.400 . S
C695 C232 1.399 . S
C700 C288 1.400 . S
C711 C246 1.387 . S
C716 C302 1.385 . S
C727 C9 1.379 . S
C732 C261 1.436 . S
C743 C275 1.424 . S
C748 C23 1.390 . S
C759 C37 1.433 . S
C764 C289 1.382 . S
C775 C51 1.379 . S
C780 C303 1.435 . S
C791 C317 1.435 . S
C796 C65 1.379 . S
C807 C79 1.435 . S
C812 C331 1.379 . S
C823 C93 1.433 . S
C828 C177 1.381 . S
C839 C107 1.392 . S
C844 C191 1.423 . S
C855 C205 1.387 . S
C860 C121 1.427 . S
C871 C219 1.386 . S
C876 C135 1.429 . S
C887 C149 1.432 . S
C892 C233 1.383 . S
C903 C247 1.380 . S
C908 C163 1.434 . S
C919 C91 1.408 . S
C924 C7 1.432 . S
C935 C21 1.446 . S
C940 C105 1.410 . S
C951 C119 1.426 . S
C956 C35 1.469 . S
C967 C133 1.458 . S
C972 C49 1.483 . S
C983 C147 1.463 . S
C988 C63 1.482 . S
C999 C77 1.424 . S
C1004 C161 1.468 . S
C1015 C259 1.419 . S
C1020 C175 1.412 . S
C1031 C189 1.457 . S
C1036 C273 1.415 . S
C1047 C287 1.419 . S
C1052 C203 1.412 . S
C1063 C301 1.408 . S
C1068 C217 1.432 . S
C1079 C231 1.462 . S
C1084 C315 1.419 . S
C1095 C245 1.473 . S
C1100 C329 1.479 . S
