# Generated by pormake.
# Topology ukv, (4)-cn, num edge types: 1
# Building blocks:
#     Node 0, Type 0, BuildingBlock: CEKHIL_clean_sbu_0, # of connection points: 4
#     Node 1, Type 0, BuildingBlock: CEKHIL_clean_sbu_0, # of connection points: 4
#     Node 2, Type 0, BuildingBlock: CEKHIL_clean_sbu_0, # of connection points: 4
#     Node 3, Type 0, BuildingBlock: CEKHIL_clean_sbu_0, # of connection points: 4
#     Node 4, Type 0, BuildingBlock: CEKHIL_clean_sbu_0, # of connection points: 4
#     Node 5, Type 0, BuildingBlock: CEKHIL_clean_sbu_0, # of connection points: 4
#     Node 6, Type 0, BuildingBlock: CEKHIL_clean_sbu_0, # of connection points: 4
#     Node 7, Type 0, BuildingBlock: CEKHIL_clean_sbu_0, # of connection points: 4
#     Node 8, Type 0, BuildingBlock: CEKHIL_clean_sbu_0, # of connection points: 4
#     Node 9, Type 0, BuildingBlock: CEKHIL_clean_sbu_0, # of connection points: 4
#     Node 10, Type 0, BuildingBlock: CEKHIL_clean_sbu_0, # of connection points: 4
#     Node 11, Type 0, BuildingBlock: CEKHIL_clean_sbu_0, # of connection points: 4
#     Node 12, Type 0, BuildingBlock: CEKHIL_clean_sbu_0, # of connection points: 4
#     Node 13, Type 0, BuildingBlock: CEKHIL_clean_sbu_0, # of connection points: 4
#     Node 14, Type 0, BuildingBlock: CEKHIL_clean_sbu_0, # of connection points: 4
#     Node 15, Type 0, BuildingBlock: CEKHIL_clean_sbu_0, # of connection points: 4
#     Node 16, Type 0, BuildingBlock: CEKHIL_clean_sbu_0, # of connection points: 4
#     Node 17, Type 0, BuildingBlock: CEKHIL_clean_sbu_0, # of connection points: 4
#     Node 18, Type 0, BuildingBlock: CEKHIL_clean_sbu_0, # of connection points: 4
#     Node 19, Type 0, BuildingBlock: CEKHIL_clean_sbu_0, # of connection points: 4
#     Node 20, Type 0, BuildingBlock: CEKHIL_clean_sbu_0, # of connection points: 4
#     Node 21, Type 0, BuildingBlock: CEKHIL_clean_sbu_0, # of connection points: 4
#     Node 22, Type 0, BuildingBlock: CEKHIL_clean_sbu_0, # of connection points: 4
#     Node 23, Type 0, BuildingBlock: CEKHIL_clean_sbu_0, # of connection points: 4
#     Node 24, Type 0, BuildingBlock: CEKHIL_clean_sbu_0, # of connection points: 4
#     Node 25, Type 0, BuildingBlock: CEKHIL_clean_sbu_0, # of connection points: 4
#     Node 26, Type 0, BuildingBlock: CEKHIL_clean_sbu_0, # of connection points: 4
#     Node 27, Type 0, BuildingBlock: CEKHIL_clean_sbu_0, # of connection points: 4
#     Node 28, Type 0, BuildingBlock: CEKHIL_clean_sbu_0, # of connection points: 4
#     Node 29, Type 0, BuildingBlock: CEKHIL_clean_sbu_0, # of connection points: 4
#     Node 30, Type 0, BuildingBlock: CEKHIL_clean_sbu_0, # of connection points: 4
#     Node 31, Type 0, BuildingBlock: CEKHIL_clean_sbu_0, # of connection points: 4
#     Node 32, Type 0, BuildingBlock: CEKHIL_clean_sbu_0, # of connection points: 4
#     Node 33, Type 0, BuildingBlock: CEKHIL_clean_sbu_0, # of connection points: 4
#     Node 34, Type 0, BuildingBlock: CEKHIL_clean_sbu_0, # of connection points: 4
#     Node 35, Type 0, BuildingBlock: CEKHIL_clean_sbu_0, # of connection points: 4
#     Edge 36, Type (0, 0), BuildingBlock: ZUJKAS_clean_linker_0, # of connection points: 2
#     Edge 37, Type (0, 0), BuildingBlock: ZUJKAS_clean_linker_0, # of connection points: 2
#     Edge 38, Type (0, 0), BuildingBlock: ZUJKAS_clean_linker_0, # of connection points: 2
#     Edge 39, Type (0, 0), BuildingBlock: ZUJKAS_clean_linker_0, # of connection points: 2
#     Edge 40, Type (0, 0), BuildingBlock: ZUJKAS_clean_linker_0, # of connection points: 2
#     Edge 41, Type (0, 0), BuildingBlock: ZUJKAS_clean_linker_0, # of connection points: 2
#     Edge 42, Type (0, 0), BuildingBlock: ZUJKAS_clean_linker_0, # of connection points: 2
#     Edge 43, Type (0, 0), BuildingBlock: ZUJKAS_clean_linker_0, # of connection points: 2
#     Edge 44, Type (0, 0), BuildingBlock: ZUJKAS_clean_linker_0, # of connection points: 2
#     Edge 45, Type (0, 0), BuildingBlock: ZUJKAS_clean_linker_0, # of connection points: 2
#     Edge 46, Type (0, 0), BuildingBlock: ZUJKAS_clean_linker_0, # of connection points: 2
#     Edge 47, Type (0, 0), BuildingBlock: ZUJKAS_clean_linker_0, # of connection points: 2
#     Edge 48, Type (0, 0), BuildingBlock: ZUJKAS_clean_linker_0, # of connection points: 2
#     Edge 49, Type (0, 0), BuildingBlock: ZUJKAS_clean_linker_0, # of connection points: 2
#     Edge 50, Type (0, 0), BuildingBlock: ZUJKAS_clean_linker_0, # of connection points: 2
#     Edge 51, Type (0, 0), BuildingBlock: ZUJKAS_clean_linker_0, # of connection points: 2
#     Edge 52, Type (0, 0), BuildingBlock: ZUJKAS_clean_linker_0, # of connection points: 2
#     Edge 53, Type (0, 0), BuildingBlock: ZUJKAS_clean_linker_0, # of connection points: 2
#     Edge 54, Type (0, 0), BuildingBlock: ZUJKAS_clean_linker_0, # of connection points: 2
#     Edge 55, Type (0, 0), BuildingBlock: ZUJKAS_clean_linker_0, # of connection points: 2
#     Edge 56, Type (0, 0), BuildingBlock: ZUJKAS_clean_linker_0, # of connection points: 2
#     Edge 57, Type (0, 0), BuildingBlock: ZUJKAS_clean_linker_0, # of connection points: 2
#     Edge 58, Type (0, 0), BuildingBlock: ZUJKAS_clean_linker_0, # of connection points: 2
#     Edge 59, Type (0, 0), BuildingBlock: ZUJKAS_clean_linker_0, # of connection points: 2
#     Edge 60, Type (0, 0), BuildingBlock: ZUJKAS_clean_linker_0, # of connection points: 2
#     Edge 61, Type (0, 0), BuildingBlock: ZUJKAS_clean_linker_0, # of connection points: 2
#     Edge 62, Type (0, 0), BuildingBlock: ZUJKAS_clean_linker_0, # of connection points: 2
#     Edge 63, Type (0, 0), BuildingBlock: ZUJKAS_clean_linker_0, # of connection points: 2
#     Edge 64, Type (0, 0), BuildingBlock: ZUJKAS_clean_linker_0, # of connection points: 2
#     Edge 65, Type (0, 0), BuildingBlock: ZUJKAS_clean_linker_0, # of connection points: 2
#     Edge 66, Type (0, 0), BuildingBlock: ZUJKAS_clean_linker_0, # of connection points: 2
#     Edge 67, Type (0, 0), BuildingBlock: ZUJKAS_clean_linker_0, # of connection points: 2
#     Edge 68, Type (0, 0), BuildingBlock: ZUJKAS_clean_linker_0, # of connection points: 2
#     Edge 69, Type (0, 0), BuildingBlock: ZUJKAS_clean_linker_0, # of connection points: 2
#     Edge 70, Type (0, 0), BuildingBlock: ZUJKAS_clean_linker_0, # of connection points: 2
#     Edge 71, Type (0, 0), BuildingBlock: ZUJKAS_clean_linker_0, # of connection points: 2
#     Edge 72, Type (0, 0), BuildingBlock: ZUJKAS_clean_linker_0, # of connection points: 2
#     Edge 73, Type (0, 0), BuildingBlock: ZUJKAS_clean_linker_0, # of connection points: 2
#     Edge 74, Type (0, 0), BuildingBlock: ZUJKAS_clean_linker_0, # of connection points: 2
#     Edge 75, Type (0, 0), BuildingBlock: ZUJKAS_clean_linker_0, # of connection points: 2
#     Edge 76, Type (0, 0), BuildingBlock: ZUJKAS_clean_linker_0, # of connection points: 2
#     Edge 77, Type (0, 0), BuildingBlock: ZUJKAS_clean_linker_0, # of connection points: 2
#     Edge 78, Type (0, 0), BuildingBlock: ZUJKAS_clean_linker_0, # of connection points: 2
#     Edge 79, Type (0, 0), BuildingBlock: ZUJKAS_clean_linker_0, # of connection points: 2
#     Edge 80, Type (0, 0), BuildingBlock: ZUJKAS_clean_linker_0, # of connection points: 2
#     Edge 81, Type (0, 0), BuildingBlock: ZUJKAS_clean_linker_0, # of connection points: 2
#     Edge 82, Type (0, 0), BuildingBlock: ZUJKAS_clean_linker_0, # of connection points: 2
#     Edge 83, Type (0, 0), BuildingBlock: ZUJKAS_clean_linker_0, # of connection points: 2
#     Edge 84, Type (0, 0), BuildingBlock: ZUJKAS_clean_linker_0, # of connection points: 2
#     Edge 85, Type (0, 0), BuildingBlock: ZUJKAS_clean_linker_0, # of connection points: 2
#     Edge 86, Type (0, 0), BuildingBlock: ZUJKAS_clean_linker_0, # of connection points: 2
#     Edge 87, Type (0, 0), BuildingBlock: ZUJKAS_clean_linker_0, # of connection points: 2
#     Edge 88, Type (0, 0), BuildingBlock: ZUJKAS_clean_linker_0, # of connection points: 2
#     Edge 89, Type (0, 0), BuildingBlock: ZUJKAS_clean_linker_0, # of connection points: 2
#     Edge 90, Type (0, 0), BuildingBlock: ZUJKAS_clean_linker_0, # of connection points: 2
#     Edge 91, Type (0, 0), BuildingBlock: ZUJKAS_clean_linker_0, # of connection points: 2
#     Edge 92, Type (0, 0), BuildingBlock: ZUJKAS_clean_linker_0, # of connection points: 2
#     Edge 93, Type (0, 0), BuildingBlock: ZUJKAS_clean_linker_0, # of connection points: 2
#     Edge 94, Type (0, 0), BuildingBlock: ZUJKAS_clean_linker_0, # of connection points: 2
#     Edge 95, Type (0, 0), BuildingBlock: ZUJKAS_clean_linker_0, # of connection points: 2
#     Edge 96, Type (0, 0), BuildingBlock: ZUJKAS_clean_linker_0, # of connection points: 2
#     Edge 97, Type (0, 0), BuildingBlock: ZUJKAS_clean_linker_0, # of connection points: 2
#     Edge 98, Type (0, 0), BuildingBlock: ZUJKAS_clean_linker_0, # of connection points: 2
#     Edge 99, Type (0, 0), BuildingBlock: ZUJKAS_clean_linker_0, # of connection points: 2
#     Edge 100, Type (0, 0), BuildingBlock: ZUJKAS_clean_linker_0, # of connection points: 2
#     Edge 101, Type (0, 0), BuildingBlock: ZUJKAS_clean_linker_0, # of connection points: 2
#     Edge 102, Type (0, 0), BuildingBlock: ZUJKAS_clean_linker_0, # of connection points: 2
#     Edge 103, Type (0, 0), BuildingBlock: ZUJKAS_clean_linker_0, # of connection points: 2
#     Edge 104, Type (0, 0), BuildingBlock: ZUJKAS_clean_linker_0, # of connection points: 2
#     Edge 105, Type (0, 0), BuildingBlock: ZUJKAS_clean_linker_0, # of connection points: 2
#     Edge 106, Type (0, 0), BuildingBlock: ZUJKAS_clean_linker_0, # of connection points: 2
#     Edge 107, Type (0, 0), BuildingBlock: ZUJKAS_clean_linker_0, # of connection points: 2
# Relax obj value: 0.236
# Max RMSD: 0.136
# Mean RMSD: 0.136
data_MOF--net-ukv--node1-CEKHIL_clean_sbu_0--edge1-ZUJKAS_clean_linker_0
_symmetry_space_group_name_H-M    P1
_symmetry_Int_Tables_number       1
_symmetry_cell_setting            triclinic
loop_
_symmetry_equiv_pos_as_xyz
'x, y, z'
_cell_length_a     122.31488
_cell_length_b     122.26818
_cell_length_c     27.570041
_cell_angle_alpha  89.981375
_cell_angle_beta   89.996644
_cell_angle_gamma 120.00188
loop_
_atom_site_label
_atom_site_type_symbol
_atom_site_fract_x
_atom_site_fract_y
_atom_site_fract_z
_atom_type_partial_charge
Co0 Co 0.25807 0.07407 0.07492 0.0
O1 O 0.25586 0.06408 0.13163 0.0
O2 O 0.2406 0.06096 0.08025 0.0
C3 C 0.27565 0.07442 0.04774 0.0
O4 O 0.25672 0.08219 0.01245 0.0
Co5 Co 0.28207 0.10038 0.06046 0.0
O6 O 0.27568 0.09866 0.99321 0.0
C7 C 0.26174 0.09761 0.12681 0.0
C8 C 0.24404 0.05757 0.11945 0.0
C9 C 0.26416 0.09096 0.98313 0.0
O10 O 0.25474 0.08596 0.11451 0.0
O11 O 0.27307 0.10457 0.11158 0.0
O12 O 0.26459 0.06481 0.03827 0.0
O13 O 0.27572 0.08283 0.07608 0.0
Co14 Co 0.92565 0.18293 0.06945 0.0
O15 O 0.93621 0.19139 0.12424 0.0
O16 O 0.93873 0.17853 0.07476 0.0
C17 C 0.92495 0.19979 0.03969 0.0
O18 O 0.91698 0.17275 0.00889 0.0
Co19 Co 0.89911 0.18032 0.0584 0.0
O20 O 0.8998 0.17429 0.99247 0.0
C21 C 0.90266 0.16348 0.12561 0.0
C22 C 0.94251 0.1858 0.11276 0.0
C23 C 0.9076 0.17064 0.98154 0.0
O24 O 0.91419 0.16812 0.1118 0.0
O25 O 0.89547 0.16762 0.11091 0.0
O26 O 0.93456 0.19834 0.03021 0.0
O27 O 0.91684 0.19176 0.06982 0.0
Co28 Co 0.81315 0.73991 0.06576 0.0
O29 O 0.80532 0.74181 0.123 0.0
O30 O 0.81723 0.75728 0.072 0.0
C31 C 0.79597 0.72224 0.03897 0.0
O32 O 0.82257 0.74166 0.00284 0.0
Co33 Co 0.81588 0.7163 0.04841 0.0
O34 O 0.8202 0.72289 0.98123 0.0
C35 C 0.83333 0.73643 0.11583 0.0
C36 C 0.81039 0.75364 0.11118 0.0
C37 C 0.82389 0.73445 0.97232 0.0
O38 O 0.82851 0.74336 0.10471 0.0
O39 O 0.82909 0.7252 0.09956 0.0
O40 O 0.79729 0.73326 0.02955 0.0
O41 O 0.80449 0.72224 0.06645 0.0
Co42 Co 0.07061 0.25814 0.42006 0.0
O43 O 0.05859 0.25532 0.3701 0.0
O44 O 0.05775 0.24049 0.41887 0.0
C45 C 0.07176 0.27576 0.45128 0.0
O46 O 0.08113 0.25762 0.47617 0.0
Co47 Co 0.09702 0.28258 0.41776 0.0
O48 O 0.09911 0.27634 0.48157 0.0
C49 C 0.09128 0.26196 0.34931 0.0
C50 C 0.05289 0.24352 0.3829 0.0
C51 C 0.09163 0.26522 0.49723 0.0
O52 O 0.08107 0.25469 0.37263 0.0
O53 O 0.09823 0.27375 0.35843 0.0
O54 O 0.06256 0.2647 0.46376 0.0
O55 O 0.07897 0.27574 0.41723 0.0
Co56 Co 0.74089 0.8157 0.42072 0.0
O57 O 0.74236 0.80814 0.36186 0.0
O58 O 0.75802 0.81915 0.41335 0.0
C59 C 0.72288 0.79876 0.44687 0.0
O60 O 0.74303 0.82465 0.48517 0.0
Co61 Co 0.71789 0.81937 0.44072 0.0
O62 O 0.72457 0.82286 0.50785 0.0
C63 C 0.73846 0.83704 0.3753 0.0
C64 C 0.75415 0.81268 0.37337 0.0
C65 C 0.73601 0.82602 0.51646 0.0
O66 O 0.74495 0.83162 0.38441 0.0
O67 O 0.72731 0.83308 0.39184 0.0
O68 O 0.73369 0.79945 0.45461 0.0
O69 O 0.72326 0.80768 0.42068 0.0
Co70 Co 0.18224 0.92521 0.42225 0.0
O71 O 0.19009 0.93475 0.36458 0.0
O72 O 0.17853 0.93874 0.41576 0.0
C73 C 0.1992 0.92429 0.44902 0.0
O74 O 0.17295 0.91788 0.48569 0.0
Co75 Co 0.17889 0.89862 0.44062 0.0
O76 O 0.17516 0.90143 0.50795 0.0
C77 C 0.16155 0.90161 0.37366 0.0
C78 C 0.1853 0.94176 0.37643 0.0
C79 C 0.1717 0.90948 0.51671 0.0
O80 O 0.16666 0.91343 0.38408 0.0
O81 O 0.16557 0.89447 0.39015 0.0
O82 O 0.19825 0.93423 0.4577 0.0
O83 O 0.19049 0.91584 0.4219 0.0
Co84 Co 0.73974 0.92507 0.91765 0.0
O85 O 0.74219 0.93504 0.86061 0.0
O86 O 0.75721 0.93819 0.91313 0.0
C87 C 0.72193 0.92465 0.94251 0.0
O88 O 0.74085 0.91714 0.98089 0.0
Co89 Co 0.71575 0.89873 0.93166 0.0
O90 O 0.72205 0.9003 -0.00099 0.0
C91 C 0.73657 0.90143 0.86829 0.0
C92 C 0.75395 0.94162 0.87356 0.0
C93 C 0.73347 0.90822 0.00977 0.0
O94 O 0.74341 0.91316 0.87978 0.0
O95 O 0.72515 0.89448 0.88261 0.0
O96 O 0.73291 0.93431 0.95272 0.0
O97 O 0.72211 0.91621 0.91503 0.0
Co98 Co 0.07133 0.81246 0.91753 0.0
O99 O 0.0596 0.80368 0.86626 0.0
O100 O 0.05845 0.81721 0.91653 0.0
C101 C 0.0722 0.79564 0.94648 0.0
O102 O 0.08147 0.82303 0.9751 0.0
Co103 Co 0.09769 0.81438 0.91787 0.0
O104 O 0.09931 0.82214 0.98265 0.0
C105 C 0.09262 0.83006 0.85061 0.0
C106 C 0.05379 0.80961 0.87965 0.0
C107 C 0.09173 0.82572 -0.00242 0.0
O108 O 0.08208 0.82675 0.87205 0.0
O109 O 0.09956 0.82524 0.86032 0.0
O110 O 0.06306 0.79753 0.95947 0.0
O111 O 0.07967 0.80319 0.91369 0.0
Co112 Co 0.18297 0.25755 0.9245 0.0
O113 O 0.19075 0.25568 0.86695 0.0
O114 O 0.17839 0.2401 0.91674 0.0
C115 C 0.20024 0.27493 0.95297 0.0
O116 O 0.17352 0.2557 0.98742 0.0
Co117 Co 0.18059 0.28135 0.9431 0.0
O118 O 0.17594 0.27444 0.00975 0.0
C119 C 0.16317 0.26168 0.87444 0.0
C120 C 0.18523 0.24373 0.87758 0.0
C121 C 0.17216 0.26284 0.01812 0.0
O122 O 0.16776 0.25457 0.88566 0.0
O123 O 0.16754 0.2729 0.89101 0.0
O124 O 0.19881 0.26379 0.96068 0.0
O125 O 0.19184 0.2752 0.92551 0.0
Co126 Co 0.9259 0.73992 0.56989 0.0
O127 O 0.93772 0.74258 0.6204 0.0
O128 O 0.93867 0.75762 0.5726 0.0
C129 C 0.92518 0.72254 0.5382 0.0
O130 O 0.91556 0.74054 0.51326 0.0
Co131 Co 0.89966 0.71526 0.56989 0.0
O132 O 0.89787 0.72164 0.50591 0.0
C133 C 0.90475 0.7356 0.63903 0.0
C134 C 0.94344 0.75442 0.60838 0.0
C135 C 0.90525 0.73288 0.49116 0.0
O136 O 0.91512 0.74302 0.61691 0.0
O137 O 0.89791 0.72384 0.62898 0.0
O138 O 0.9343 0.73371 0.52637 0.0
O139 O 0.91773 0.72232 0.57172 0.0
Co140 Co 0.2581 0.18762 0.57651 0.0
O141 O 0.25502 0.19704 0.62464 0.0
O142 O 0.24032 0.1823 0.57771 0.0
C143 C 0.2753 0.20417 0.54355 0.0
O144 O 0.25782 0.17624 0.52223 0.0
Co145 Co 0.28313 0.18676 0.57841 0.0
O146 O 0.27694 0.17796 0.51534 0.0
C147 C 0.2629 0.17167 0.64857 0.0
C148 C 0.24322 0.19056 0.61223 0.0
C149 C 0.26561 0.17368 0.50082 0.0
O150 O 0.2553 0.17432 0.62609 0.0
O151 O 0.27463 0.17666 0.63801 0.0
O152 O 0.26407 0.20168 0.53036 0.0
O153 O 0.27566 0.19742 0.57872 0.0
Co154 Co 0.81196 0.0722 0.57239 0.0
O155 O 0.80329 0.06106 0.62556 0.0
O156 O 0.81653 0.05922 0.57584 0.0
C157 C 0.7951 0.07293 0.5428 0.0
O158 O 0.82237 0.08154 0.51319 0.0
Co159 Co 0.81418 0.09866 0.56517 0.0
O160 O 0.82106 0.09897 0.4998 0.0
C161 C 0.83096 0.09477 0.63161 0.0
C162 C 0.809 0.05495 0.61303 0.0
C163 C 0.82478 0.0913 0.48769 0.0
O164 O 0.82656 0.08341 0.61602 0.0
O165 O 0.82659 0.10189 0.61839 0.0
O166 O 0.79675 0.06351 0.53195 0.0
O167 O 0.80291 0.0808 0.57401 0.0
Co168 Co 0.92259 0.40595 0.40216 0.0
O169 O 0.92081 0.39506 0.45532 0.0
O170 O 0.90529 0.39232 0.40618 0.0
C171 C 0.94054 0.40758 0.37207 0.0
O172 O 0.9209 0.41495 0.34289 0.0
Co173 Co 0.94608 0.43299 0.39498 0.0
O174 O 0.93924 0.4329 0.32988 0.0
C175 C 0.92506 0.42815 0.46108 0.0
C176 C 0.909 0.38841 0.4432 0.0
C177 C 0.92797 0.42487 0.3176 0.0
O178 O 0.91857 0.41667 0.44614 0.0
O179 O 0.9364 0.43574 0.44743 0.0
O180 O 0.92966 0.39782 0.36149 0.0
O181 O 0.94023 0.41525 0.40335 0.0
Co182 Co 0.59334 0.52024 0.41515 0.0
O183 O 0.6056 0.52905 0.46484 0.0
O184 O 0.60583 0.51495 0.41496 0.0
C185 C 0.59279 0.53716 0.38551 0.0
O186 O 0.58259 0.50958 0.35886 0.0
Co187 Co 0.5674 0.51923 0.41731 0.0
O188 O 0.56535 0.51157 0.35201 0.0
C189 C 0.5723 0.50344 0.4847 0.0
C190 C 0.61101 0.52277 0.45093 0.0
C191 C 0.57246 0.50745 0.33668 0.0
O192 O 0.58262 0.50631 0.46225 0.0
O193 O 0.5656 0.50855 0.47536 0.0
O194 O 0.60163 0.53489 0.37173 0.0
O195 O 0.5855 0.52996 0.41944 0.0
Co196 Co 0.48065 0.07392 0.4015 0.0
O197 O 0.47126 0.07617 0.4524 0.0
O198 O 0.48516 0.09146 0.40493 0.0
C199 C 0.4643 0.05643 0.369 0.0
O200 O 0.49183 0.07521 0.34474 0.0
Co201 Co 0.4831 0.04979 0.39732 0.0
O202 O 0.49053 0.05641 0.33247 0.0
C203 C 0.49732 0.06947 0.47039 0.0
C204 C 0.47717 0.08805 0.44068 0.0
C205 C 0.49433 0.0678 0.32003 0.0
O206 O 0.4945 0.07706 0.44881 0.0
O207 O 0.49269 0.05787 0.45837 0.0
O208 O 0.46603 0.06753 0.35783 0.0
O209 O 0.47168 0.05632 0.40211 0.0
Co210 Co 0.7393 0.59031 0.75249 0.0
O211 O 0.72969 0.58783 0.69432 0.0
O212 O 0.72653 0.57275 0.74664 0.0
C213 C 0.73918 0.60782 0.77773 0.0
O214 O 0.74687 0.58919 0.81667 0.0
Co215 Co 0.7653 0.61453 0.76915 0.0
O216 O 0.76297 0.60829 0.83696 0.0
C217 C 0.76338 0.5943 0.7043 0.0
C218 C 0.72329 0.57599 0.70656 0.0
C219 C 0.75523 0.59676 0.84693 0.0
O220 O 0.75171 0.58714 0.71582 0.0
O221 O 0.77003 0.60573 0.71904 0.0
O222 O 0.72955 0.59671 0.78659 0.0
O223 O 0.74788 0.60794 0.75093 0.0
Co224 Co 0.40682 0.14562 0.752 0.0
O225 O 0.40891 0.13793 0.69458 0.0
O226 O 0.42423 0.15001 0.74575 0.0
C227 C 0.38919 0.12836 0.77864 0.0
O228 O 0.4085 0.15487 0.81526 0.0
Co229 Co 0.38323 0.14827 0.77052 0.0
O230 O 0.38972 0.15222 0.83783 0.0
C231 C 0.40365 0.16645 0.70602 0.0
C232 C 0.42077 0.14329 0.70631 0.0
C233 C 0.4013 0.15598 0.84638 0.0
O234 O 0.4102 0.16103 0.71353 0.0
O235 O 0.39266 0.16259 0.72394 0.0
O236 O 0.40022 0.12968 0.78777 0.0
O237 O 0.38916 0.13691 0.75137 0.0
Co238 Co 0.85135 0.25922 0.75896 0.0
O239 O 0.8593 0.26909 0.70204 0.0
O240 O 0.84737 0.27257 0.75311 0.0
C241 C 0.86829 0.25829 0.78621 0.0
O242 O 0.84192 0.25146 0.8218 0.0
Co243 Co 0.84814 0.23252 0.77364 0.0
O244 O 0.84347 0.23441 0.84071 0.0
C245 C 0.83114 0.23595 0.70678 0.0
C246 C 0.85421 0.27583 0.71396 0.0
C247 C 0.8402 0.24253 0.85099 0.0
O248 O 0.83588 0.24754 0.72003 0.0
O249 O 0.8354 0.22883 0.72125 0.0
O250 O 0.8673 0.2682 0.79501 0.0
O251 O 0.85974 0.24998 0.75819 0.0
Co252 Co 0.40665 0.25791 0.24397 0.0
O253 O 0.41023 0.26971 0.1924 0.0
O254 O 0.42435 0.27076 0.24543 0.0
C255 C 0.38889 0.25727 0.27051 0.0
O256 O 0.40614 0.24748 0.30245 0.0
Co257 Co 0.3818 0.23179 0.23969 0.0
O258 O 0.38698 0.22994 0.30593 0.0
C259 C 0.40323 0.23683 0.17638 0.0
C260 C 0.42179 0.27551 0.2078 0.0
C261 C 0.39794 0.2372 0.32348 0.0
O262 O 0.41041 0.24708 0.19962 0.0
O263 O 0.39131 0.23015 0.18365 0.0
O264 O 0.39987 0.26635 0.28425 0.0
O265 O 0.38913 0.24988 0.23772 0.0
Co266 Co 0.74016 0.15024 0.26317 0.0
O267 O 0.73137 0.14266 0.20385 0.0
O268 O 0.72705 0.15437 0.25292 0.0
C269 C 0.74045 0.13304 0.29149 0.0
O270 O 0.74669 0.15929 0.3276 0.0
Co271 Co 0.76636 0.15321 0.28717 0.0
O272 O 0.76286 0.15702 0.35336 0.0
C273 C 0.7645 0.17078 0.218 0.0
C274 C 0.72448 0.14774 0.21339 0.0
C275 C 0.75474 0.16049 0.36014 0.0
O276 O 0.75263 0.16589 0.2269 0.0
O277 O 0.77128 0.16649 0.23586 0.0
O278 O 0.73044 0.13405 0.2973 0.0
O279 O 0.74933 0.1418 0.2659 0.0
Co280 Co 0.84931 0.59122 0.25746 0.0
O281 O 0.85641 0.59019 0.19659 0.0
O282 O 0.84556 0.5741 0.24661 0.0
C283 C 0.86659 0.60888 0.2841 0.0
O284 O 0.84082 0.58856 0.3233 0.0
Co285 Co 0.84619 0.61426 0.28409 0.0
O286 O 0.84306 0.60692 0.35021 0.0
C287 C 0.82851 0.59491 0.21482 0.0
C288 C 0.8518 0.57828 0.20627 0.0
C289 C 0.83982 0.59536 0.35664 0.0
O290 O 0.83328 0.58781 0.22353 0.0
O291 O 0.83296 0.60602 0.2326 0.0
O292 O 0.86581 0.59794 0.28926 0.0
O293 O 0.85752 0.60883 0.26014 0.0
Co294 Co 0.59545 0.07452 0.90278 0.0
O295 O 0.60735 0.07718 0.95304 0.0
O296 O 0.60827 0.09217 0.90504 0.0
C297 C 0.59468 0.05708 0.87165 0.0
O298 O 0.5852 0.07535 0.84632 0.0
Co299 Co 0.5692 0.04997 0.89873 0.0
O300 O 0.56836 0.05615 0.833 0.0
C301 C 0.57399 0.06997 0.97016 0.0
C302 C 0.61313 0.089 0.94056 0.0
C303 C 0.57556 0.06766 0.82099 0.0
O304 O 0.58468 0.07753 0.95024 0.0
O305 O 0.56707 0.0584 0.95747 0.0
O306 O 0.60371 0.06821 0.85891 0.0
O307 O 0.58719 0.05693 0.90478 0.0
Co308 Co 0.92439 0.51811 0.90355 0.0
O309 O 0.92252 0.5267 0.95845 0.0
O310 O 0.90713 0.51445 0.90784 0.0
C311 C 0.94232 0.53478 0.87501 0.0
O312 O 0.92268 0.50792 0.84287 0.0
Co313 Co 0.94788 0.51473 0.89251 0.0
O314 O 0.94101 0.50857 0.82682 0.0
C315 C 0.92707 0.49806 0.95896 0.0
C316 C 0.91077 0.52176 0.94574 0.0
C317 C 0.92966 0.50532 0.81587 0.0
O318 O 0.92042 0.50299 0.94516 0.0
O319 O 0.93843 0.50208 0.94481 0.0
O320 O 0.93143 0.53366 0.865 0.0
O321 O 0.94206 0.5265 0.9047 0.0
Co322 Co 0.48022 0.40707 0.91016 0.0
O323 O 0.47279 0.39772 0.96854 0.0
O324 O 0.48481 0.39418 0.91807 0.0
C325 C 0.46271 0.40689 0.8832 0.0
O326 O 0.48933 0.41451 0.84642 0.0
Co327 Co 0.48213 0.43302 0.8907 0.0
O328 O 0.48649 0.43057 0.82386 0.0
C329 C 0.49988 0.4312 0.95909 0.0
C330 C 0.47821 0.39122 0.95784 0.0
C331 C 0.49039 0.42285 0.8154 0.0
O332 O 0.49554 0.41952 0.94792 0.0
O333 O 0.49523 0.43781 0.94267 0.0
O334 O 0.46425 0.39728 0.87493 0.0
O335 O 0.4712 0.41569 0.90988 0.0
Co336 Co 0.5914 0.73888 0.74414 0.0
O337 O 0.58778 0.72674 0.79447 0.0
O338 O 0.57355 0.72655 0.74414 0.0
C339 C 0.60877 0.7391 0.71521 0.0
O340 O 0.59177 0.74967 0.68737 0.0
Co341 Co 0.61658 0.76463 0.74685 0.0
O342 O 0.61113 0.76681 0.68145 0.0
C343 C 0.59583 0.76006 0.81318 0.0
C344 C 0.57607 0.72147 0.78082 0.0
C345 C 0.59993 0.75982 0.66559 0.0
O346 O 0.58834 0.7498 0.79054 0.0
O347 O 0.60768 0.76662 0.80439 0.0
O348 O 0.59762 0.73034 0.70138 0.0
O349 O 0.60892 0.74648 0.74885 0.0
Co350 Co 0.26073 0.85376 0.74387 0.0
O351 O 0.27344 0.86236 0.79211 0.0
O352 O 0.27289 0.84803 0.74132 0.0
C353 C 0.26035 0.87086 0.71546 0.0
O354 O 0.24926 0.84326 0.68868 0.0
Co355 Co 0.23518 0.85344 0.75169 0.0
O356 O 0.23261 0.84634 0.68512 0.0
C357 C 0.24044 0.83753 0.81686 0.0
C358 C 0.27842 0.85575 0.77731 0.0
C359 C 0.2392 0.84181 0.66788 0.0
O360 O 0.25028 0.84001 0.79185 0.0
O361 O 0.23387 0.84289 0.80961 0.0
O362 O 0.26891 0.86834 0.70014 0.0
O363 O 0.25334 0.86382 0.75032 0.0
Co364 Co 0.14891 0.40816 0.73705 0.0
O365 O 0.14124 0.40988 0.79515 0.0
O366 O 0.15313 0.42552 0.7448 0.0
C367 C 0.13177 0.39051 0.70946 0.0
O368 O 0.15807 0.41003 0.6733 0.0
Co369 Co 0.15176 0.38456 0.71905 0.0
O370 O 0.1558 0.39126 0.65193 0.0
C371 C 0.16891 0.40444 0.78739 0.0
C372 C 0.14645 0.42179 0.78434 0.0
C373 C 0.15927 0.40276 0.6427 0.0
O374 O 0.16443 0.41155 0.77475 0.0
O375 O 0.16443 0.39309 0.77212 0.0
O376 O 0.13283 0.4015 0.70196 0.0
O377 O 0.14037 0.39054 0.73651 0.0
Co378 Co 0.4036 0.92255 0.08502 0.0
O379 O 0.39129 0.91977 0.03641 0.0
O380 O 0.39069 0.90492 0.08444 0.0
C381 C 0.40522 0.9403 0.11704 0.0
O382 O 0.4145 0.922 0.13946 0.0
Co383 Co 0.43009 0.94686 0.07803 0.0
O384 O 0.43366 0.93963 0.13629 0.0
C385 C 0.42337 0.92598 0.01044 0.0
C386 C 0.38573 0.90795 0.04881 0.0
C387 C 0.42586 0.92898 0.1549 0.0
O388 O 0.41359 0.91886 0.03616 0.0
O389 O 0.43034 0.93786 0.01768 0.0
O390 O 0.396 0.92931 0.13012 0.0
O391 O 0.41208 0.94013 0.08188 0.0
Co392 Co 0.07419 0.47903 0.08794 0.0
O393 O 0.07709 0.4691 0.04153 0.0
O394 O 0.0918 0.48363 0.08906 0.0
C395 C 0.05639 0.46303 0.12018 0.0
O396 O 0.07459 0.49081 0.14078 0.0
Co397 Co 0.04991 0.48116 0.08014 0.0
O398 O 0.05595 0.49031 0.14262 0.0
C399 C 0.07086 0.49511 0.01182 0.0
C400 C 0.08882 0.47521 0.05512 0.0
C401 C 0.06698 0.49406 0.15943 0.0
O402 O 0.07797 0.49236 0.03727 0.0
O403 O 0.05905 0.49047 0.01995 0.0
O404 O 0.06737 0.46501 0.13445 0.0
O405 O 0.0566 0.46986 0.08415 0.0
Co406 Co 0.51857 0.59376 0.07946 0.0
O407 O 0.5277 0.60605 0.03021 0.0
O408 O 0.51315 0.60615 0.07786 0.0
C409 C 0.53523 0.5932 0.1119 0.0
O410 O 0.50748 0.58285 0.13474 0.0
Co411 Co 0.51772 0.56785 0.07737 0.0
O412 O 0.50896 0.56528 0.14054 0.0
C413 C 0.50257 0.57295 0.00782 0.0
C414 C 0.52116 0.61132 0.04243 0.0
C415 C 0.50485 0.57242 0.15577 0.0
O416 O 0.50506 0.58306 0.03102 0.0
O417 O 0.50775 0.56633 0.01747 0.0
O418 O 0.53287 0.60207 0.12445 0.0
O419 O 0.52836 0.58599 0.07719 0.0
Co420 Co 0.07426 0.59213 0.59401 0.0
O421 O 0.07565 0.60179 0.53706 0.0
O422 O 0.09155 0.60541 0.5858 0.0
C423 C 0.0568 0.59154 0.62413 0.0
O424 O 0.07655 0.58446 0.656 0.0
Co425 Co 0.05081 0.56565 0.61258 0.0
O426 O 0.05803 0.56782 0.67858 0.0
C427 C 0.0703 0.56858 0.54149 0.0
C428 C 0.08759 0.60851 0.54727 0.0
C429 C 0.06962 0.57577 0.68651 0.0
O430 O 0.07739 0.58023 0.5536 0.0
O431 O 0.05916 0.56157 0.55847 0.0
O432 O 0.06786 0.60136 0.63168 0.0
O433 O 0.05663 0.58305 0.59596 0.0
Co434 Co 0.40557 0.47979 0.58257 0.0
O435 O 0.39524 0.47181 0.52675 0.0
O436 O 0.39262 0.48436 0.57764 0.0
C437 C 0.40568 0.4625 0.61053 0.0
O438 O 0.41395 0.48944 0.64431 0.0
Co439 Co 0.43167 0.48168 0.59695 0.0
O440 O 0.43018 0.48661 0.66409 0.0
C441 C 0.4291 0.49918 0.52934 0.0
C442 C 0.38885 0.47723 0.53927 0.0
C443 C 0.42264 0.49066 0.67379 0.0
O444 O 0.4175 0.49478 0.54189 0.0
O445 O 0.43591 0.49465 0.54487 0.0
O446 O 0.39624 0.4642 0.62031 0.0
O447 O 0.41408 0.47066 0.58161 0.0
Co448 Co 0.51676 0.92232 0.59603 0.0
O449 O 0.52487 0.92036 0.53968 0.0
O450 O 0.51286 0.90502 0.59093 0.0
C451 C 0.5337 0.9403 0.62225 0.0
O452 O 0.50711 0.92053 0.65833 0.0
Co453 Co 0.51342 0.9456 0.61267 0.0
O454 O 0.50914 0.93914 0.67994 0.0
C455 C 0.49625 0.92514 0.54569 0.0
C456 C 0.51977 0.90855 0.55197 0.0
C457 C 0.50558 0.9276 0.68875 0.0
O458 O 0.50144 0.91851 0.55614 0.0
O459 O 0.50007 0.93624 0.5625 0.0
O460 O 0.53262 0.92942 0.63266 0.0
O461 O 0.52505 0.93995 0.59456 0.0
Co462 Co 0.25747 0.40613 0.23321 0.0
O463 O 0.26597 0.40732 0.29332 0.0
O464 O 0.27088 0.42326 0.24289 0.0
C465 C 0.25688 0.38838 0.20626 0.0
O466 O 0.25129 0.40867 0.16807 0.0
Co467 Co 0.23111 0.38316 0.20905 0.0
O468 O 0.23472 0.39044 0.14277 0.0
C469 C 0.23329 0.40279 0.27785 0.0
C470 C 0.27316 0.41921 0.2831 0.0
C471 C 0.24312 0.40193 0.13566 0.0
O472 O 0.24514 0.40973 0.26821 0.0
O473 O 0.22644 0.39165 0.26074 0.0
O474 O 0.26703 0.3993 0.20043 0.0
O475 O 0.24802 0.3885 0.23115 0.0
Co476 Co 0.59113 0.85216 0.23769 0.0
O477 O 0.58896 0.8601 0.29406 0.0
O478 O 0.57355 0.84716 0.24485 0.0
C479 C 0.6082 0.86957 0.20863 0.0
O480 O 0.58959 0.8425 0.17568 0.0
Co481 Co 0.61539 0.8506 0.22001 0.0
O482 O 0.60862 0.84574 0.15326 0.0
C483 C 0.59594 0.83297 0.2891 0.0
C484 C 0.57703 0.85429 0.28325 0.0
C485 C 0.59693 0.84149 0.14495 0.0
O486 O 0.58861 0.83733 0.27813 0.0
O487 O 0.60712 0.83749 0.27201 0.0
O488 O 0.59694 0.86769 0.1998 0.0
O489 O 0.60875 0.86149 0.23704 0.0
Co490 Co 0.14637 0.73894 0.2359 0.0
O491 O 0.13783 0.72838 0.29051 0.0
O492 O 0.15236 0.72718 0.24638 0.0
C493 C 0.12893 0.73716 0.20086 0.0
O494 O 0.157 0.74791 0.17667 0.0
Co495 Co 0.1459 0.76372 0.21624 0.0
O496 O 0.15303 0.76311 0.15229 0.0
C497 C 0.16218 0.76282 0.29399 0.0
C498 C 0.14445 0.72295 0.28247 0.0
C499 C 0.15815 0.75635 0.14602 0.0
O500 O 0.15977 0.75177 0.28023 0.0
O501 O 0.15682 0.76858 0.27562 0.0
O502 O 0.13198 0.72853 0.19345 0.0
O503 O 0.1359 0.74595 0.231 0.0
H504 H 0.19585 0.948 0.2866 0.0
H505 H 0.20282 0.96779 0.24299 0.0
H506 H 0.18828 0.98093 0.35766 0.0
H507 H 0.18101 0.96097 0.40126 0.0
H508 H 0.18461 0.9878 0.26196 0.0
H509 H 0.234 -0.00048 0.29597 0.0
H510 H 0.22469 0.98469 0.26559 0.0
H511 H 0.22071 0.98672 0.32647 0.0
C512 C 0.19398 0.95502 0.30229 0.0
C513 C 0.18806 0.95303 0.34768 0.0
C514 C 0.19798 0.96632 0.27734 0.0
C515 C 0.19628 0.97588 0.29763 0.0
C516 C 0.18972 0.97366 0.34158 0.0
H517 H 0.24595 0.05349 0.21487 0.0
H518 H 0.23269 0.03434 0.26135 0.0
C519 C 0.18561 0.96228 0.36645 0.0
C520 C 0.20232 0.98852 0.27486 0.0
H521 H 0.23109 0.0128 0.2414 0.0
C522 C 0.19477 0.99335 0.25764 0.0
C523 C 0.21559 0.99581 0.27027 0.0
C524 C 0.22424 0.9915 0.29097 0.0
C525 C 0.20018 0.00519 0.2346 0.0
C526 C 0.21343 0.0122 0.228 0.0
C527 C 0.22093 0.00743 0.24624 0.0
C528 C 0.21992 0.02446 0.20203 0.0
C529 C 0.19168 0.01012 0.2182 0.0
C530 C 0.21694 0.02543 0.15356 0.0
C531 C 0.22441 0.0365 0.12714 0.0
C532 C 0.23512 0.0466 0.14851 0.0
C533 C 0.23781 0.04578 0.19742 0.0
C534 C 0.23022 0.03486 0.22401 0.0
H535 H 0.18272 0.00576 0.23912 0.0
H536 H 0.19639 0.02054 0.2221 0.0
H537 H 0.18927 0.00771 0.17941 0.0
H538 H 0.20923 0.01744 0.13542 0.0
H539 H 0.22219 0.03688 0.08936 0.0
H540 H 0.95751 0.17527 0.09916 0.0
H541 H 0.9759 0.17898 0.14763 0.0
H542 H 0.9705 0.20438 0.23993 0.0
H543 H 0.95216 0.2006 0.1926 0.0
H544 H 0.99748 0.20101 0.16029 0.0
H545 H 0.97589 0.18334 0.33936 0.0
H546 H 0.96663 0.17935 0.28438 0.0
H547 H 0.97096 0.19387 0.31599 0.0
C548 C 0.96019 0.18153 0.13014 0.0
C549 C 0.95339 0.18764 0.14212 0.0
C550 C 0.97065 0.1836 0.15784 0.0
C551 C 0.97438 0.19172 0.19808 0.0
C552 C 0.96756 0.19776 0.21001 0.0
H553 H 0.041 0.24785 0.30864 0.0
H554 H 0.02266 0.23251 0.26329 0.0
C555 C 0.95714 0.1957 0.18253 0.0
C556 C 0.98609 0.195 0.22511 0.0
H557 H 0.99786 0.2007 0.34025 0.0
C558 C 0.99755 0.20063 0.19959 0.0
C559 C 0.98623 0.19421 0.27629 0.0
C560 C 0.97423 0.18722 0.30546 0.0
C561 C 0.00913 0.20664 0.22418 0.0
C562 C 0.00919 0.20725 0.27543 0.0
C563 C 0.9978 0.20048 0.30091 0.0
C564 C 0.02064 0.21626 0.30253 0.0
C565 C 0.02117 0.21275 0.19495 0.0
C566 C 0.02535 0.21227 0.34094 0.0
C567 C 0.03584 0.2211 0.36751 0.0
C568 C 0.04166 0.23404 0.35621 0.0
C569 C 0.03679 0.23796 0.31811 0.0
C570 C 0.02637 0.22918 0.29176 0.0
H571 H 0.01996 0.20763 0.16028 0.0
H572 H 0.02368 0.22257 0.18587 0.0
H573 H 0.02912 0.21301 0.21544 0.0
H574 H 0.02093 0.20235 0.35024 0.0
H575 H 0.03938 0.21782 0.39673 0.0
H576 H 0.77678 0.81486 0.39866 0.0
H577 H 0.78907 0.80774 0.35175 0.0
H578 H 0.76277 0.79765 0.233 0.0
H579 H 0.75026 0.80433 0.28023 0.0
H580 H 0.7658 0.77851 0.25881 0.0
H581 H 0.81295 0.82114 0.23762 0.0
H582 H 0.80777 0.81793 0.29954 0.0
H583 H 0.79924 0.82194 0.25666 0.0
C584 C 0.77377 0.81133 0.36221 0.0
C585 C 0.76252 0.81004 0.3432 0.0
C586 C 0.78085 0.80736 0.33529 0.0
C587 C 0.77691 0.80227 0.28866 0.0
C588 C 0.76599 0.80155 0.26889 0.0
H589 H 0.81322 0.77641 0.08348 0.0
H590 H 0.80617 0.78914 0.12807 0.0
C591 C 0.75884 0.80535 0.29595 0.0
C592 C 0.78319 0.7963 0.26268 0.0
H593 H 0.81145 0.80132 0.21872 0.0
C594 C 0.77577 0.78354 0.24977 0.0
C595 C 0.79618 0.80289 0.25063 0.0
C596 C 0.80448 0.81677 0.26138 0.0
C597 C 0.78095 0.77714 0.22555 0.0
C598 C 0.79403 0.78356 0.21522 0.0
C599 C 0.80146 0.79639 0.22735 0.0
C600 C 0.79997 0.77701 0.19127 0.0
C601 C 0.77228 0.7636 0.21055 0.0
C602 C 0.79927 0.76629 0.21287 0.0
C603 C 0.80308 0.75893 0.18729 0.0
C604 C 0.80791 0.76231 0.14004 0.0
C605 C 0.80948 0.77356 0.11978 0.0
C606 C 0.80548 0.78084 0.14521 0.0
H607 H 0.76227 0.76128 0.20897 0.0
H608 H 0.77497 0.76163 0.1745 0.0
H609 H 0.77293 0.75722 0.23755 0.0
H610 H 0.79532 0.76335 0.24887 0.0
H611 H 0.80196 0.75041 0.2041 0.0
H612 H 0.77952 0.95642 0.88705 0.0
H613 H 0.79408 0.9755 0.84161 0.0
H614 H 0.76324 0.97093 0.75142 0.0
H615 H 0.74881 0.95181 0.79541 0.0
H616 H 0.78475 0.9779 0.69903 0.0
H617 H 0.79487 0.0088 0.8609 0.0
H618 H 0.79865 0.99641 0.86574 0.0
H619 H 0.78246 0.99251 0.86071 0.0
C620 C 0.77589 0.95946 0.85729 0.0
C621 C 0.76301 0.9527 0.84506 0.0
C622 C 0.7842 0.97037 0.83151 0.0
C623 C 0.7797 0.97473 0.79363 0.0
C624 C 0.76693 0.96774 0.78051 0.0
H625 H 0.79155 0.0426 0.6833 0.0
H626 H 0.78733 0.02352 0.7266 0.0
C627 C 0.75867 0.95683 0.80586 0.0
C628 C 0.7879 0.98688 0.76878 0.0
H629 H 0.80235 0.01874 0.78606 0.0
C630 C 0.78882 0.98686 0.71801 0.0
C631 C 0.79318 0.99853 0.79382 0.0
C632 C 0.79221 0.99916 0.84824 0.0
C633 C 0.79406 0.99813 0.69128 0.0
C634 C 0.79878 0.00973 0.71623 0.0
C635 C 0.7987 0.0098 0.76715 0.0
C636 C 0.80202 0.02162 0.69057 0.0
C637 C 0.79367 0.99744 0.63659 0.0
C638 C 0.81177 0.02696 0.65609 0.0
C639 C 0.81411 0.03784 0.63068 0.0
C640 C 0.80684 0.0436 0.63993 0.0
C641 C 0.79731 0.03838 0.67529 0.0
C642 C 0.79492 0.0275 0.70022 0.0
H643 H 0.78779 0.98761 0.62321 0.0
H644 H 0.78986 0.00328 0.62141 0.0
H645 H 0.80339 0.00119 0.62242 0.0
H646 H 0.81751 0.0227 0.64872 0.0
H647 H 0.82159 0.04174 0.60391 0.0
H648 H 0.03916 0.82041 0.89807 0.0
H649 H 0.02029 0.8169 0.85326 0.0
H650 H 0.0243 0.79132 0.75699 0.0
H651 H 0.04306 0.79485 0.8007 0.0
H652 H 0.01891 0.80866 0.70926 0.0
H653 H 0.9861 0.7836 0.86286 0.0
H654 H -0.00091 0.79928 0.87324 0.0
H655 H 0.00211 0.78656 0.86244 0.0
C656 C 0.03601 0.81407 0.86726 0.0
C657 C 0.04253 0.80783 0.85312 0.0
C658 C 0.02525 0.81208 0.84178 0.0
C659 C 0.02089 0.80381 0.802 0.0
C660 C 0.02754 0.79779 0.78746 0.0
H661 H 0.95711 0.74935 0.6723 0.0
H662 H 0.97539 0.76423 0.71912 0.0
C663 C 0.03823 0.79976 0.81272 0.0
C664 C 0.00908 0.8007 0.77622 0.0
H665 H 0.97717 0.78197 0.78645 0.0
C666 C 0.00973 0.80308 0.72618 0.0
C667 C 0.99718 0.79346 0.79866 0.0
C668 C 0.99597 0.79048 0.85219 0.0
C669 C -0.00116 0.79752 0.69719 0.0
C670 C 0.98702 0.78954 0.71918 0.0
C671 C 0.98628 0.78807 0.76981 0.0
C672 C 0.97579 0.78089 0.69019 0.0
C673 C 0.00018 0.79939 0.64295 0.0
C674 C 0.96998 0.78533 0.65799 0.0
C675 C 0.95953 0.77677 0.63048 0.0
C676 C 0.95472 0.7637 0.63537 0.0
C677 C 0.96056 0.75936 0.66778 0.0
C678 C 0.97099 0.76786 0.69475 0.0
H679 H 0.01022 0.80465 0.6313 0.0
H680 H 0.99542 0.79013 0.62409 0.0
H681 H 0.99559 0.8048 0.63114 0.0
H682 H 0.97345 0.79536 0.65439 0.0
H683 H 0.95513 0.78036 0.60603 0.0
H684 H 0.2473 0.20727 0.68425 0.0
H685 H 0.23184 0.21061 0.72699 0.0
H686 H 0.20195 0.18159 0.64105 0.0
H687 H 0.21755 0.17822 0.59722 0.0
H688 H 0.20059 0.20364 0.64823 0.0
H689 H 0.20649 0.18838 0.82983 0.0
H690 H 0.22153 0.19938 0.80426 0.0
H691 H 0.21185 0.18433 0.77527 0.0
C692 C 0.23745 0.20153 0.67444 0.0
C693 C 0.23364 0.19245 0.63746 0.0
C694 C 0.2286 0.20338 0.69925 0.0
C695 C 0.21573 0.19613 0.688 0.0
C696 C 0.21184 0.18715 0.65066 0.0
H697 H 0.17444 0.21813 0.88896 0.0
H698 H 0.17804 0.2036 0.83928 0.0
C699 C 0.22074 0.18527 0.62565 0.0
C700 C 0.20665 0.19869 0.71392 0.0
H701 H 0.19985 0.20416 0.82813 0.0
C702 C 0.20014 0.20345 0.68754 0.0
C703 C 0.20577 0.19812 0.7651 0.0
C704 C 0.21168 0.19213 0.79517 0.0
C705 C 0.1938 0.20882 0.71129 0.0
C706 C 0.19428 0.20967 0.76253 0.0
C707 C 0.1997 0.20375 0.78882 0.0
C708 C 0.19077 0.21799 0.78919 0.0
C709 C 0.18706 0.21393 0.6812 0.0
C710 C 0.19675 0.23089 0.77764 0.0
C711 C 0.19472 0.23917 0.80583 0.0
C712 C 0.18678 0.23476 0.84656 0.0
C713 C 0.18063 0.22181 0.8578 0.0
C714 C 0.18264 0.21349 0.82939 0.0
H715 H 0.18333 0.20842 0.64719 0.0
H716 H 0.17912 0.21374 0.70147 0.0
H717 H 0.19383 0.22384 0.67083 0.0
H718 H 0.20337 0.23466 0.74777 0.0
H719 H 0.19964 0.2491 0.7963 0.0
H720 H 0.87007 0.28599 0.63706 0.0
H721 H 0.8746 0.30477 0.59077 0.0
H722 H 0.84749 0.30914 0.67634 0.0
H723 H 0.84313 0.29043 0.724 0.0
H724 H 0.85975 0.31079 0.53513 0.0
H725 H 0.8794 0.34306 0.69389 0.0
H726 H 0.876 0.32692 0.69601 0.0
H727 H 0.86338 0.33039 0.69933 0.0
C728 C 0.86503 0.29091 0.64604 0.0
C729 C 0.85635 0.28682 0.68452 0.0
C730 C 0.86759 0.30162 0.61939 0.0
C731 C 0.8615 0.30844 0.63049 0.0
C732 C 0.85247 0.30414 0.6678 0.0
H733 H 0.88325 0.37375 0.43431 0.0
H734 H 0.8692 0.35451 0.48013 0.0
C735 C 0.84997 0.29345 0.69485 0.0
C736 C 0.86518 0.32033 0.60398 0.0
H737 H 0.88123 0.35234 0.61792 0.0
C738 C 0.86428 0.31989 0.55316 0.0
C739 C 0.87107 0.33216 0.62778 0.0
C740 C 0.87263 0.33325 0.6822 0.0
C741 C 0.86981 0.33099 0.52527 0.0
C742 C 0.87616 0.34281 0.54903 0.0
C743 C 0.87634 0.34324 0.59992 0.0
C744 C 0.88423 0.35469 0.52226 0.0
C745 C 0.86953 0.32993 0.47068 0.0
C746 C 0.89724 0.3613 0.53161 0.0
C747 C 0.9052 0.37228 0.50608 0.0
C748 C 0.90033 0.37688 0.47043 0.0
C749 C 0.88727 0.37035 0.46134 0.0
C750 C 0.87925 0.35936 0.48732 0.0
H751 H 0.86607 0.32008 0.45838 0.0
H752 H 0.86314 0.33309 0.45571 0.0
H753 H 0.87909 0.33608 0.45528 0.0
H754 H 0.90128 0.35784 0.55833 0.0
H755 H 0.91521 0.37708 0.51398 0.0
H756 H 0.62422 0.5104 0.43384 0.0
H757 H 0.6432 0.51348 0.4766 0.0
H758 H 0.64254 0.54212 0.56581 0.0
H759 H 0.62367 0.53901 0.52426 0.0
H760 H 0.66639 0.53486 0.48322 0.0
H761 H 0.64644 0.52024 0.66657 0.0
H762 H 0.63662 0.51636 0.61318 0.0
H763 H 0.64248 0.53145 0.6426 0.0
C764 C 0.6281 0.51728 0.46283 0.0
C765 C 0.62243 0.52443 0.47586 0.0
C766 C 0.6389 0.519 0.48724 0.0
C767 C 0.64408 0.5278 0.52517 0.0
C768 C 0.63848 0.535 0.5377 0.0
H769 H 0.71398 0.58075 0.62475 0.0
H770 H 0.6955 0.56605 0.57836 0.0
C771 C 0.62774 0.53329 0.51354 0.0
C772 C 0.65584 0.53031 0.55 0.0
H773 H 0.66888 0.53609 0.66291 0.0
C774 C 0.66692 0.53482 0.52249 0.0
C775 C 0.65651 0.5299 0.60113 0.0
C776 C 0.64483 0.52408 0.63247 0.0
C777 C 0.67877 0.54015 0.54503 0.0
C778 C 0.67952 0.54124 0.5962 0.0
C779 C 0.66836 0.53552 0.62364 0.0
C780 C 0.69155 0.54967 0.62152 0.0
C781 C 0.69039 0.54496 0.5137 0.0
C782 C 0.69536 0.54544 0.66202 0.0
C783 C 0.70587 0.55392 0.68928 0.0
C784 C 0.71267 0.56678 0.67653 0.0
C785 C 0.70898 0.57091 0.63541 0.0
C786 C 0.69848 0.56246 0.60844 0.0
H787 H 0.68831 0.53915 0.48032 0.0
H788 H 0.69348 0.55478 0.50222 0.0
H789 H 0.69827 0.54488 0.53341 0.0
H790 H 0.69006 0.53563 0.6731 0.0
H791 H 0.7085 0.55047 0.72078 0.0
H792 H 0.44636 0.15447 0.7182 0.0
H793 H 0.46115 0.15101 0.66954 0.0
H794 H 0.43033 0.12481 0.5791 0.0
H795 H 0.41565 0.12842 0.62655 0.0
H796 H 0.46135 0.12956 0.65944 0.0
H797 H 0.45618 0.14515 0.47782 0.0
H798 H 0.45065 0.1492 0.53192 0.0
H799 H 0.44091 0.13431 0.50188 0.0
C800 C 0.44279 0.1481 0.68752 0.0
C801 C 0.42985 0.14171 0.67616 0.0
C802 C 0.45125 0.14617 0.65971 0.0
C803 C 0.44689 0.13787 0.62004 0.0
C804 C 0.43399 0.13157 0.60854 0.0
H805 H 0.46101 0.08308 0.51583 0.0
H806 H 0.45687 0.09787 0.55991 0.0
C807 C 0.42556 0.13354 0.63607 0.0
C808 C 0.45544 0.13463 0.59359 0.0
H809 H 0.46183 0.12854 0.47958 0.0
C810 C 0.46173 0.12964 0.62012 0.0
C811 C 0.45625 0.13503 0.54236 0.0
C812 C 0.45074 0.14136 0.51198 0.0
C813 C 0.46776 0.12394 0.59664 0.0
C814 C 0.4672 0.12296 0.54549 0.0
C815 C 0.462 0.12904 0.51888 0.0
C816 C 0.4704 0.11433 0.51964 0.0
C817 C 0.47425 0.11859 0.62696 0.0
C818 C 0.47912 0.11861 0.48128 0.0
C819 C 0.48142 0.1101 0.45551 0.0
C820 C 0.47495 0.09719 0.46754 0.0
C821 C 0.4662 0.09297 0.50581 0.0
C822 C 0.46391 0.10144 0.5314 0.0
H823 H 0.47793 0.12399 0.66125 0.0
H824 H 0.46734 0.10868 0.63676 0.0
H825 H 0.4822 0.11871 0.60699 0.0
H826 H 0.48409 0.12851 0.47128 0.0
H827 H 0.4882 0.11361 0.4261 0.0
H828 H 0.44391 0.29465 0.24554 0.0
H829 H 0.45756 0.31548 0.2085 0.0
H830 H 0.43472 0.30335 0.0791 0.0
H831 H 0.42101 0.28278 0.11588 0.0
H832 H 0.47128 0.32436 0.11347 0.0
H833 H 0.43122 0.33309 0.13678 0.0
H834 H 0.43204 0.32053 0.16793 0.0
H835 H 0.42707 0.31863 0.10562 0.0
C836 C 0.44198 0.29639 0.20887 0.0
C837 C 0.43129 0.28722 0.18384 0.0
C838 C 0.44977 0.30825 0.18779 0.0
C839 C 0.44698 0.31096 0.14145 0.0
C840 C 0.43689 0.30147 0.11518 0.0
H841 H 0.48108 0.37108 0.93385 0.0
H842 H 0.47562 0.35249 0.98395 0.0
C843 C 0.42906 0.28974 0.13629 0.0
C844 C 0.45359 0.32396 0.12205 0.0
H845 H 0.44784 0.34718 0.08491 0.0
C846 C 0.46626 0.32947 0.1077 0.0
C847 C 0.44705 0.33065 0.11545 0.0
C848 C 0.43363 0.32549 0.13266 0.0
C849 C 0.47241 0.34136 0.08484 0.0
C850 C 0.46559 0.34768 0.07553 0.0
C851 C 0.45307 0.34232 0.09175 0.0
C852 C 0.47089 0.35965 0.04768 0.0
C853 C 0.48611 0.347 0.071 0.0
C854 C 0.47002 0.36985 0.06666 0.0
C855 C 0.47279 0.38027 0.03773 0.0
C856 C 0.47663 0.38079 0.9894 0.0
C857 C 0.47818 0.37093 0.97109 0.0
C858 C 0.47518 0.36036 -0.00014 0.0
H859 H 0.49094 0.34328 0.09428 0.0
H860 H 0.48674 0.34442 0.03293 0.0
H861 H 0.49121 0.35745 0.07388 0.0
H862 H 0.46672 0.36951 0.1034 0.0
H863 H 0.47165 0.38781 0.05293 0.0
H864 H 0.71021 0.15926 0.21721 0.0
H865 H 0.69193 0.15473 0.16657 0.0
H866 H 0.69663 0.12688 0.08772 0.0
H867 H 0.71504 0.13161 0.13691 0.0
H868 H 0.69054 0.14093 0.02789 0.0
H869 H 0.65814 0.12304 0.187 0.0
H870 H 0.67071 0.13916 0.19007 0.0
H871 H 0.6743 0.12659 0.19054 0.0
C872 C 0.70738 0.15225 0.18881 0.0
C873 C 0.71395 0.14569 0.18134 0.0
C874 C 0.69693 0.14965 0.16004 0.0
C875 C 0.6928 0.14032 0.12395 0.0
C876 C 0.69965 0.13411 0.11539 0.0
H877 H 0.62546 0.08424 0.01182 0.0
H878 H 0.6446 0.09923 0.05422 0.0
C879 C 0.71014 0.13679 0.14369 0.0
C880 C 0.68095 0.13629 0.09673 0.0
H881 H 0.64893 0.12004 0.11036 0.0
C882 C 0.68142 0.13656 0.04582 0.0
C883 C 0.66909 0.1306 0.12038 0.0
C884 C 0.66794 0.12972 0.17497 0.0
C885 C 0.67036 0.13055 0.01789 0.0
C886 C 0.65854 0.12434 0.04166 0.0
C887 C 0.65804 0.12483 0.0924 0.0
C888 C 0.64678 0.11562 0.01558 0.0
C889 C 0.67142 0.13014 0.96346 0.0
C890 C 0.64163 0.11988 0.97977 0.0
C891 C 0.63066 0.11125 0.95504 0.0
C892 C 0.62468 0.0983 0.96612 0.0
C893 C 0.62983 0.09415 0.00237 0.0
C894 C 0.64075 0.10271 0.02678 0.0
H895 H 0.68134 0.13398 0.95135 0.0
H896 H 0.66571 0.12029 0.95009 0.0
H897 H 0.66768 0.13582 0.9464 0.0
H898 H 0.64606 0.12983 0.97108 0.0
H899 H 0.62685 0.11472 0.92744 0.0
H900 H 0.85874 0.58239 0.11134 0.0
H901 H 0.8651 0.57021 0.06023 0.0
H902 H 0.85743 0.54406 0.17794 0.0
H903 H 0.85054 0.55592 0.22848 0.0
H904 H 0.88468 0.56791 0.07689 0.0
H905 H 0.84323 0.5198 0.06736 0.0
H906 H 0.84212 0.53315 0.08898 0.0
H907 H 0.84729 0.52496 0.12893 0.0
C908 C 0.85815 0.57389 0.12594 0.0
C909 C 0.8542 0.57011 0.17389 0.0
C910 C 0.86177 0.56693 0.0967 0.0
C911 C 0.86165 0.55614 0.115 0.0
C912 C 0.8573 0.55214 0.16248 0.0
H913 H 0.91464 0.53304 0.03392 0.0
H914 H 0.90167 0.54037 0.07383 0.0
C915 C 0.85347 0.55899 0.1915 0.0
C916 C 0.86752 0.5501 0.08668 0.0
H917 H 0.86338 0.52171 0.04806 0.0
C918 C 0.87992 0.55782 0.07008 0.0
C919 C 0.8613 0.53696 0.07726 0.0
C920 C 0.8477 0.52827 0.09113 0.0
C921 C 0.88642 0.55276 0.04572 0.0
C922 C 0.88052 0.53954 0.03911 0.0
C923 C 0.86795 0.53182 0.05401 0.0
C924 C 0.88743 0.53368 0.01758 0.0
C925 C 0.89957 0.56166 0.02719 0.0
C926 C 0.88336 0.52688 0.974 0.0
C927 C 0.89069 0.52251 0.95134 0.0
C928 C 0.90221 0.52494 0.97196 0.0
C929 C 0.90591 0.53118 0.01681 0.0
C930 C 0.89853 0.53542 0.03959 0.0
H931 H 0.90117 0.57137 0.02211 0.0
H932 H 0.90658 0.56218 0.05402 0.0
H933 H 0.90134 0.55834 0.99214 0.0
H934 H 0.87476 0.52536 0.95665 0.0
H935 H 0.88759 0.51768 0.91686 0.0
H936 H 0.55063 0.70756 0.761 0.0
H937 H 0.53462 0.68909 0.80609 0.0
H938 H 0.5634 0.69216 0.90472 0.0
H939 H 0.57924 0.71046 0.86075 0.0
H940 H 0.53388 0.6666 0.81973 0.0
H941 H 0.53593 0.68767 -0.00185 0.0
H942 H 0.54202 0.69711 0.94385 0.0
H943 H 0.55163 0.69248 0.97798 0.0
C944 C 0.55348 0.70433 0.79259 0.0
C945 C 0.56619 0.71045 0.80733 0.0
C946 C 0.54433 0.69384 0.81836 0.0
C947 C 0.54777 0.68946 0.85949 0.0
C948 C 0.56045 0.69561 0.87407 0.0
H949 H 0.5374 0.62365 0.96871 0.0
H950 H 0.53984 0.64173 0.92302 0.0
C951 C 0.56954 0.70599 0.84844 0.0
C952 C 0.53861 0.67776 0.88498 0.0
H953 H 0.53142 0.66564 -0.00053 0.0
C954 C 0.53299 0.66639 0.85891 0.0
C955 C 0.53711 0.67746 0.93594 0.0
C956 C 0.54188 0.68938 0.96544 0.0
C957 C 0.52722 0.65473 0.88303 0.0
C958 C 0.52735 0.65451 0.93435 0.0
C959 C 0.5316 0.66581 0.96013 0.0
C960 C 0.52512 0.64311 0.96134 0.0
C961 C 0.52164 0.64278 0.85334 0.0
C962 C 0.51634 0.63814 -0.00057 0.0
C963 C 0.51501 0.62779 0.02624 0.0
C964 C 0.52255 0.6224 0.01553 0.0
C965 C 0.5314 0.62752 0.97773 0.0
C966 C 0.53271 0.63779 0.95114 0.0
H967 H 0.51785 0.64402 0.81841 0.0
H968 H 0.52914 0.64051 0.84471 0.0
H969 H 0.51395 0.63468 0.87321 0.0
H970 H 0.51054 0.64225 0.00836 0.0
H971 H 0.50812 0.62404 0.05521 0.0
H972 H 0.37308 0.88213 0.05951 0.0
H973 H 0.3556 0.86654 0.00929 0.0
H974 H 0.35649 0.89676 0.92538 0.0
H975 H 0.37383 0.91223 0.9745 0.0
H976 H 0.33218 0.86375 0.9966 0.0
H977 H 0.35595 0.8735 0.81941 0.0
H978 H 0.3646 0.87847 0.87585 0.0
H979 H 0.35909 0.88806 0.84697 0.0
C980 C 0.36953 0.88541 0.03025 0.0
C981 C 0.37483 0.8984 0.02086 0.0
C982 C 0.35963 0.8765 0.00145 0.0
C983 C 0.35502 0.88049 0.9627 0.0
C984 C 0.3602 0.89345 0.95398 0.0
H985 H 0.29051 0.87042 0.85486 0.0
H986 H 0.30848 0.87201 0.89846 0.0
C987 C 0.37002 0.9023 0.98257 0.0
C988 C 0.34405 0.87141 0.93357 0.0
H989 H 0.33333 0.86711 0.81707 0.0
C990 C 0.33247 0.86412 0.95729 0.0
C991 C 0.34445 0.87156 0.88225 0.0
C992 C 0.35674 0.87822 0.85474 0.0
C993 C 0.32113 0.85833 0.93112 0.0
C994 C 0.32145 0.86012 0.88035 0.0
C995 C 0.33309 0.86599 0.85615 0.0
C996 C 0.31018 0.85837 0.8539 0.0
C997 C 0.30886 0.85112 0.95839 0.0
C998 C 0.30543 0.85047 0.81318 0.0
C999 C 0.29508 0.84957 0.78771 0.0
C1000 C 0.28953 0.85671 0.80239 0.0
C1001 C 0.2945 0.86474 0.84268 0.0
C1002 C 0.30471 0.86557 0.86802 0.0
H1003 H 0.31008 0.84665 0.99149 0.0
H1004 H 0.30566 0.85775 0.97007 0.0
H1005 H 0.30139 0.84368 0.93536 0.0
H1006 H 0.30969 0.845 0.80129 0.0
H1007 H 0.29145 0.84332 0.7567 0.0
H1008 H 0.13065 0.4158 0.86152 0.0
H1009 H 0.12659 0.42997 0.91048 0.0
H1010 H 0.15435 0.46187 0.82839 0.0
H1011 H 0.15823 0.44761 0.77799 0.0
H1012 H 0.14158 0.4504 0.96862 0.0
H1013 H 0.12286 0.46461 0.81111 0.0
H1014 H 0.12599 0.45171 0.80745 0.0
H1015 H 0.13882 0.46773 0.80662 0.0
C1016 C 0.13594 0.42583 0.8539 0.0
C1017 C 0.14464 0.43058 0.81551 0.0
C1018 C 0.13366 0.43393 0.88211 0.0
C1019 C 0.14006 0.44695 0.87274 0.0
C1020 C 0.14914 0.45182 0.83566 0.0
H1021 H 0.11459 0.48792 0.06753 0.0
H1022 H 0.12996 0.48399 0.02479 0.0
C1023 C 0.15136 0.44368 0.80699 0.0
C1024 C 0.13645 0.45507 0.90022 0.0
H1025 H 0.11995 0.47062 0.88815 0.0
C1026 C 0.13708 0.45507 0.9511 0.0
C1027 C 0.13062 0.46117 0.87711 0.0
C1028 C 0.12942 0.46129 0.82262 0.0
C1029 C 0.13121 0.46018 0.97958 0.0
C1030 C 0.12472 0.46556 0.95639 0.0
C1031 C 0.12495 0.46646 0.90563 0.0
C1032 C 0.11584 0.46825 0.98307 0.0
C1033 C 0.13117 0.45894 0.03404 0.0
C1034 C 0.10291 0.46076 0.97351 0.0
C1035 C 0.0942 0.46299 -0.00254 0.0
C1036 C 0.09824 0.47278 0.03159 0.0
C1037 C 0.11122 0.48027 0.04155 0.0
C1038 C 0.11999 0.47803 0.01728 0.0
H1039 H 0.1357 0.45348 0.04607 0.0
H1040 H 0.13634 0.46848 0.0506 0.0
H1041 H 0.12133 0.45422 0.04797 0.0
H1042 H 0.09952 0.45313 0.94738 0.0
H1043 H 0.08428 0.45704 0.98898 0.0
H1044 H 0.08421 0.61244 0.45298 0.0
H1045 H 0.09713 0.63126 0.40428 0.0
H1046 H 0.12272 0.64817 0.52475 0.0
H1047 H 0.11008 0.62906 0.57292 0.0
H1048 H 0.09993 0.6532 0.42388 0.0
H1049 H 0.14755 0.6585 0.41559 0.0
H1050 H 0.13385 0.64409 0.43546 0.0
H1051 H 0.142 0.65713 0.47673 0.0
C1052 C 0.09272 0.62008 0.46875 0.0
C1053 C 0.09612 0.61936 0.51675 0.0
C1054 C 0.10012 0.63082 0.44087 0.0
C1055 C 0.11096 0.64112 0.46064 0.0
C1056 C 0.11459 0.64025 0.50821 0.0
H1057 H 0.13512 0.71726 0.37385 0.0
H1058 H 0.12868 0.6977 0.41836 0.0
C1059 C 0.1073 0.62937 0.53587 0.0
C1060 C 0.11743 0.65322 0.4336 0.0
H1061 H 0.14614 0.67688 0.39473 0.0
C1062 C 0.11002 0.65828 0.41712 0.0
C1063 C 0.13058 0.65983 0.42439 0.0
C1064 C 0.13894 0.65455 0.43853 0.0
C1065 C 0.11537 0.66981 0.39248 0.0
C1066 C 0.1286 0.67676 0.38558 0.0
C1067 C 0.13603 0.67162 0.40087 0.0
C1068 C 0.13469 0.68939 0.36265 0.0
C1069 C 0.10675 0.67437 0.37367 0.0
C1070 C 0.14096 0.69151 0.31801 0.0
C1071 C 0.14487 0.70281 0.2928 0.0
C1072 C 0.14243 0.71203 0.31186 0.0
C1073 C 0.13692 0.71021 0.35799 0.0
C1074 C 0.13323 0.69905 0.3834 0.0
H1075 H 0.0969 0.66647 0.36945 0.0
H1076 H 0.10661 0.68119 0.39986 0.0
H1077 H 0.11005 0.67919 0.3381 0.0
H1078 H 0.14225 0.68418 0.30157 0.0
H1079 H 0.14914 0.70403 0.25733 0.0
H1080 H 0.36953 0.48067 0.57036 0.0
H1081 H 0.34907 0.47313 0.53036 0.0
H1082 H 0.36196 0.46069 0.40791 0.0
H1083 H 0.38222 0.46783 0.44807 0.0
H1084 H 0.34072 0.47724 0.44004 0.0
H1085 H 0.33159 0.42823 0.45812 0.0
H1086 H 0.34441 0.44138 0.48907 0.0
H1087 H 0.34598 0.43835 0.42632 0.0
C1088 C 0.36804 0.47649 0.5346 0.0
C1089 C 0.37735 0.47462 0.51261 0.0
C1090 C 0.35637 0.47221 0.51183 0.0
C1091 C 0.35394 0.4661 0.46675 0.0
C1092 C 0.36357 0.46511 0.44325 0.0
H1093 H 0.29352 0.44213 0.26071 0.0
H1094 H 0.31234 0.45454 0.31029 0.0
C1095 C 0.37514 0.46922 0.46617 0.0
C1096 C 0.34109 0.45986 0.44575 0.0
H1097 H 0.31771 0.4312 0.40664 0.0
C1098 C 0.3356 0.46716 0.43304 0.0
C1099 C 0.33433 0.44667 0.43784 0.0
C1100 C 0.33931 0.43817 0.45401 0.0
C1101 C 0.32368 0.46163 0.41071 0.0
C1102 C 0.31728 0.44855 0.40008 0.0
C1103 C 0.32263 0.44124 0.41444 0.0
C1104 C 0.30524 0.44215 0.37271 0.0
C1105 C 0.31804 0.46983 0.3991 0.0
C1106 C 0.295 0.43103 0.39112 0.0
C1107 C 0.28439 0.42377 0.36243 0.0
C1108 C 0.28377 0.42757 0.31494 0.0
C1109 C 0.29373 0.43901 0.29731 0.0
C1110 C 0.30445 0.44618 0.3258 0.0
H1111 H 0.32183 0.47819 0.42344 0.0
H1112 H 0.32052 0.47334 0.36131 0.0
H1113 H 0.30759 0.46448 0.40239 0.0
H1114 H 0.29541 0.42772 0.42717 0.0
H1115 H 0.2768 0.41503 0.37707 0.0
H1116 H 0.53479 0.91389 0.47256 0.0
H1117 H 0.53925 0.89953 0.42685 0.0
H1118 H 0.51403 0.86867 0.51937 0.0
H1119 H 0.5097 0.88313 0.56626 0.0
H1120 H 0.53617 0.86951 0.50899 0.0
H1121 H 0.51907 0.8728 0.32776 0.0
H1122 H 0.52952 0.88831 0.35075 0.0
H1123 H 0.51488 0.87822 0.38178 0.0
C1124 C 0.53008 0.90402 0.48295 0.0
C1125 C 0.5219 0.89964 0.52301 0.0
C1126 C 0.53254 0.89579 0.45643 0.0
C1127 C 0.52675 0.88296 0.46899 0.0
C1128 C 0.51848 0.8785 0.50876 0.0
H1129 H 0.55134 0.8427 0.27251 0.0
H1130 H 0.53658 0.84632 0.32069 0.0
C1131 C 0.51604 0.88677 0.53552 0.0
C1132 C 0.53035 0.87464 0.44304 0.0
H1133 H 0.53608 0.86781 0.32921 0.0
C1134 C 0.53588 0.86887 0.46972 0.0
C1135 C 0.52967 0.87348 0.39193 0.0
C1136 C 0.52282 0.87842 0.36153 0.0
C1137 C 0.54175 0.86299 0.44635 0.0
C1138 C 0.54237 0.86318 0.3951 0.0
C1139 C 0.53584 0.8679 0.36853 0.0
C1140 C 0.55093 0.85997 0.36863 0.0
C1141 C 0.54755 0.85697 0.47689 0.0
C1142 C 0.56388 0.86649 0.37941 0.0
C1143 C 0.57228 0.86443 0.35219 0.0
C1144 C 0.56793 0.85592 0.31313 0.0
C1145 C 0.55495 0.84931 0.30244 0.0
C1146 C 0.54651 0.85135 0.32994 0.0
H1147 H 0.54231 0.85331 0.51149 0.0
H1148 H 0.54769 0.84909 0.45741 0.0
H1149 H 0.5574 0.86419 0.48615 0.0
H1150 H 0.56756 0.87348 0.40808 0.0
H1151 H 0.58222 0.86973 0.36117 0.0
H1152 H 0.27586 0.16827 0.72149 0.0
H1153 H 0.26842 0.15003 0.77496 0.0
H1154 H 0.23119 0.13379 0.71281 0.0
H1155 H 0.23854 0.15219 0.65893 0.0
H1156 H 0.24383 0.13748 0.84156 0.0
H1157 H 0.24757 0.10911 0.69088 0.0
H1158 H 0.25697 0.12612 0.68952 0.0
H1159 H 0.24021 0.11859 0.68184 0.0
C1160 C 0.26603 0.16094 0.71962 0.0
C1161 C 0.25781 0.16162 0.68576 0.0
C1162 C 0.2618 0.15054 0.75026 0.0
C1163 C 0.24931 0.14059 0.7474 0.0
C1164 C 0.24087 0.14142 0.71531 0.0
H1165 H 0.23937 0.0834 0.96423 0.0
H1166 H 0.23151 0.09194 0.90146 0.0
C1167 C 0.24508 0.15194 0.68481 0.0
C1168 C 0.24571 0.12908 0.77595 0.0
H1169 H 0.2478 0.10231 0.77077 0.0
C1170 C 0.24422 0.12952 0.82614 0.0
C1171 C 0.2463 0.11881 0.75535 0.0
C1172 C 0.24783 0.11801 0.70142 0.0
C1173 C 0.24433 0.12043 0.85687 0.0
C1174 C 0.24598 0.11072 0.83658 0.0
C1175 C 0.24647 0.10974 0.78604 0.0
C1176 C 0.24972 0.10326 0.86741 0.0
C1177 C 0.24382 0.12191 0.91105 0.0
C1178 C 0.2624 0.1063 0.86724 0.0
C1179 C 0.26693 0.10151 0.90294 0.0
C1180 C 0.25882 0.09352 0.93933 0.0
C1181 C 0.24587 0.08957 0.93678 0.0
C1182 C 0.24136 0.09446 0.90111 0.0
H1183 H 0.24336 0.13048 0.92091 0.0
H1184 H 0.23536 0.11354 0.92609 0.0
H1185 H 0.25227 0.12248 0.92853 0.0
H1186 H 0.26899 0.11306 0.84138 0.0
H1187 H 0.27692 0.10462 0.90357 0.0
H1188 H 0.84456 0.11917 0.66191 0.0
H1189 H 0.86302 0.12864 0.71376 0.0
H1190 H 0.86133 0.0927 0.72798 0.0
H1191 H 0.84258 0.08295 0.6754 0.0
H1192 H 0.86378 0.10544 0.81669 0.0
H1193 H 0.89951 0.13759 0.68609 0.0
H1194 H 0.88536 0.13846 0.68049 0.0
H1195 H 0.88497 0.12382 0.66728 0.0
C1196 C 0.84806 0.1132 0.67572 0.0
C1197 C 0.84204 0.10027 0.66439 0.0
C1198 C 0.85875 0.1187 0.70495 0.0
C1199 C 0.86374 0.11145 0.72358 0.0
C1200 C 0.85773 0.09849 0.71314 0.0
H1201 H 0.91799 0.15604 0.9559 0.0
H1202 H 0.91067 0.14006 0.89129 0.0
C1203 C 0.847 0.09294 0.68336 0.0
C1204 C 0.87454 0.11752 0.75742 0.0
H1205 H 0.90187 0.14564 0.7699 0.0
C1206 C 0.8724 0.11394 0.80637 0.0
C1207 C 0.88586 0.1285 0.74381 0.0
C1208 C 0.88912 0.13223 0.69139 0.0
C1209 C 0.88049 0.12197 0.84256 0.0
C1210 C 0.89084 0.13377 0.82912 0.0
C1211 C 0.89382 0.13662 0.78001 0.0
C1212 C 0.89653 0.14419 0.86446 0.0
C1213 C 0.87721 0.11844 0.89512 0.0
C1214 C 0.89118 0.15193 0.8695 0.0
C1215 C 0.89527 0.16098 0.90603 0.0
C1216 C 0.90481 0.16248 0.93833 0.0
C1217 C 0.91063 0.15513 0.93158 0.0
C1218 C 0.90646 0.14598 0.89489 0.0
H1219 H 0.87008 0.10829 0.89959 0.0
H1220 H 0.8858 0.12054 0.91601 0.0
H1221 H 0.87335 0.12418 0.91078 0.0
H1222 H 0.8835 0.15064 0.84615 0.0
H1223 H 0.89062 0.1665 0.9099 0.0
H1224 H 0.90858 0.75963 0.64298 0.0
H1225 H 0.89782 0.76737 0.69652 0.0
H1226 H 0.87924 0.7314 0.76981 0.0
H1227 H 0.88966 0.72353 0.71616 0.0
H1228 H 0.86819 0.75162 0.70445 0.0
H1229 H 0.89475 0.76144 0.87723 0.0
H1230 H 0.9019 0.76261 0.81855 0.0
H1231 H 0.89217 0.74742 0.84599 0.0
C1232 C 0.90239 0.75348 0.67118 0.0
C1233 C 0.89989 0.74096 0.67536 0.0
C1234 C 0.89625 0.7579 0.70151 0.0
C1235 C 0.88782 0.74995 0.73703 0.0
C1236 C 0.8858 0.73768 0.74273 0.0
H1237 H 0.82374 0.72246 0.88877 0.0
H1238 H 0.83963 0.73076 0.82478 0.0
C1239 C 0.89172 0.73319 0.712 0.0
C1240 C 0.88006 0.75372 0.76558 0.0
H1241 H 0.87303 0.75611 0.88315 0.0
C1242 C 0.86941 0.75302 0.74336 0.0
C1243 C 0.88178 0.75569 0.81606 0.0
C1244 C 0.89333 0.75695 0.84098 0.0
C1245 C 0.85978 0.75295 0.77125 0.0
C1246 C 0.86089 0.75353 0.82231 0.0
C1247 C 0.87215 0.75558 0.84395 0.0
C1248 C 0.84983 0.7497 0.85416 0.0
C1249 C 0.84818 0.75149 0.74616 0.0
C1250 C 0.85012 0.75768 0.89124 0.0
C1251 C 0.84097 0.75297 0.92782 0.0
C1252 C 0.83159 0.74012 0.92836 0.0
C1253 C 0.83088 0.73238 0.88944 0.0
C1254 C 0.8399 0.73714 0.85262 0.0
H1255 H 0.85041 0.75541 0.70878 0.0
H1256 H 0.84106 0.7413 0.74342 0.0
H1257 H 0.84395 0.75627 0.76675 0.0
H1258 H 0.85779 0.76737 0.89325 0.0
H1259 H 0.8418 0.75916 0.95744 0.0
H1260 H 0.14879 0.27233 0.85277 0.0
H1261 H 0.13196 0.26532 0.79341 0.0
H1262 H 0.1358 0.23294 0.75992 0.0
H1263 H 0.15294 0.24001 0.8194 0.0
H1264 H 0.13664 0.24609 0.6797 0.0
H1265 H 0.09538 0.2377 0.78818 0.0
H1266 H 0.10869 0.25264 0.8043 0.0
H1267 H 0.10917 0.23833 0.81507 0.0
C1268 C 0.14601 0.26363 0.83333 0.0
C1269 C 0.15231 0.25679 0.84068 0.0
C1270 C 0.13623 0.25953 0.7998 0.0
C1271 C 0.13242 0.24846 0.77299 0.0
C1272 C 0.13848 0.24142 0.78078 0.0
H1273 H 0.07882 0.24218 0.54352 0.0
H1274 H 0.08672 0.23439 0.60917 0.0
C1275 C 0.14829 0.2455 0.81464 0.0
C1276 C 0.12335 0.24542 0.73268 0.0
H1277 H 0.09632 0.24575 0.70531 0.0
C1278 C 0.12763 0.24559 0.68531 0.0
C1279 C 0.11146 0.24449 0.73983 0.0
C1280 C 0.10586 0.24313 0.7897 0.0
C1281 C 0.121 0.24632 0.64516 0.0
C1282 C 0.10996 0.24706 0.65281 0.0
C1283 C 0.10494 0.24544 0.69967 0.0
C1284 C 0.10482 0.25154 0.61406 0.0
C1285 C 0.12627 0.24708 0.59502 0.0
C1286 C 0.11225 0.26386 0.59642 0.0
C1287 C 0.10779 0.26837 0.55955 0.0
C1288 C 0.09576 0.26065 0.53937 0.0
C1289 C 0.08815 0.24838 0.55811 0.0
C1290 C 0.09264 0.24388 0.59546 0.0
H1291 H 0.13209 0.24244 0.59367 0.0
H1292 H 0.11859 0.2426 0.56773 0.0
H1293 H 0.1324 0.25715 0.58496 0.0
H1294 H 0.12159 0.27 0.61111 0.0
H1295 H 0.11391 0.27788 0.54634 0.0
H1296 H 0.724 0.82569 0.60006 0.0
H1297 H 0.73277 0.84056 0.66737 0.0
H1298 H 0.76971 0.85752 0.60209 0.0
H1299 H 0.76102 0.84257 0.53433 0.0
H1300 H 0.75596 0.84903 0.73404 0.0
H1301 H 0.75759 0.88489 0.60425 0.0
H1302 H 0.74791 0.86824 0.59154 0.0
H1303 H 0.76477 0.87558 0.58871 0.0
C1304 C 0.73405 0.83237 0.60052 0.0
C1305 C 0.74178 0.83307 0.5616 0.0
C1306 C 0.73905 0.84082 0.63909 0.0
C1307 C 0.75184 0.85017 0.63928 0.0
C1308 C 0.75981 0.85036 0.60236 0.0
H1309 H 0.75937 0.91272 0.81992 0.0
H1310 H 0.76798 0.90227 0.7692 0.0
C1311 C 0.75482 0.84179 0.56383 0.0
C1312 C 0.75611 0.86056 0.6747 0.0
H1313 H 0.75702 0.88874 0.6871 0.0
C1314 C 0.75662 0.85791 0.72383 0.0
C1315 C 0.75716 0.8722 0.66113 0.0
C1316 C 0.75684 0.8755 0.6086 0.0
C1317 C 0.75698 0.86614 0.76003 0.0
C1318 C 0.75642 0.87702 0.74651 0.0
C1319 C 0.75733 0.88033 0.69737 0.0
C1320 C 0.75224 0.88344 0.78111 0.0
C1321 C 0.7572 0.86274 0.81244 0.0
C1322 C 0.74049 0.87634 0.80384 0.0
C1323 C 0.73552 0.88222 0.83217 0.0
C1324 C 0.74215 0.8954 0.83832 0.0
C1325 C 0.75402 0.90255 0.81593 0.0
C1326 C 0.75898 0.8966 0.78718 0.0
H1327 H 0.76264 0.85774 0.81683 0.0
H1328 H 0.76142 0.87124 0.83605 0.0
H1329 H 0.74741 0.85624 0.82481 0.0
H1330 H 0.73491 0.86622 0.79842 0.0
H1331 H 0.72638 0.87638 0.84886 0.0
H1332 H 0.15417 0.91672 0.53271 0.0
H1333 H 0.13863 0.90947 0.59846 0.0
H1334 H 0.15683 0.89096 0.66618 0.0
H1335 H 0.17228 0.89806 0.60073 0.0
H1336 H 0.1232 0.8833 0.60986 0.0
H1337 H 0.14681 0.90498 0.78287 0.0
H1338 H 0.15317 0.9122 0.72465 0.0
H1339 H 0.15589 0.89999 0.74782 0.0
C1340 C 0.15512 0.91148 0.56249 0.0
C1341 C 0.16435 0.90782 0.56134 0.0
C1342 C 0.14623 0.90735 0.59999 0.0
C1343 C 0.14664 0.89977 0.63731 0.0
C1344 C 0.15647 0.897 0.6382 0.0
H1345 H 0.10847 0.83412 0.77512 0.0
H1346 H 0.11871 0.85274 0.723 0.0
C1347 C 0.16524 0.90096 0.60052 0.0
C1348 C 0.13572 0.8927 0.66994 0.0
H1349 H 0.1291 0.88325 0.78782 0.0
C1350 C 0.1243 0.88358 0.64897 0.0
C1351 C 0.13712 0.89314 0.72088 0.0
C1352 C 0.14888 0.90321 0.74539 0.0
C1353 C 0.11482 0.87401 0.67723 0.0
C1354 C 0.11686 0.87364 0.72738 0.0
C1355 C 0.12764 0.88353 0.74913 0.0
C1356 C 0.10936 0.86198 0.75552 0.0
C1357 C 0.10314 0.86375 0.65291 0.0
C1358 C 0.10058 0.861 0.79034 0.0
C1359 C 0.09455 0.85025 0.8198 0.0
C1360 C 0.09749 0.84054 0.81538 0.0
C1361 C 0.10606 0.84147 0.77947 0.0
C1362 C 0.11188 0.85207 0.74965 0.0
H1363 H 0.10158 0.86681 0.61686 0.0
H1364 H 0.10421 0.85533 0.64763 0.0
H1365 H 0.09469 0.86091 0.67596 0.0
H1366 H 0.09861 0.86864 0.79538 0.0
H1367 H 0.08804 0.84981 0.84745 0.0
H1368 H 0.75842 0.91852 0.03492 0.0
H1369 H 0.767 0.91177 0.10151 0.0
H1370 H 0.72925 0.88614 0.15153 0.0
H1371 H 0.72056 0.89273 0.08549 0.0
H1372 H 0.75698 0.90663 0.22109 0.0
H1373 H 0.7523 0.86801 0.10064 0.0
H1374 H 0.75588 0.88331 0.07776 0.0
H1375 H 0.74011 0.87214 0.09649 0.0
C1376 C 0.75195 0.91167 0.06076 0.0
C1377 C 0.73878 0.90605 0.05456 0.0
C1378 C 0.75688 0.90783 0.09867 0.0
C1379 C 0.74872 0.89843 0.13092 0.0
C1380 C 0.73566 0.89341 0.12673 0.0
H1381 H 0.73019 0.85383 0.36509 0.0
H1382 H 0.73769 0.87137 0.30891 0.0
C1383 C 0.73072 0.89717 0.08891 0.0
C1384 C 0.75346 0.89273 0.16619 0.0
H1385 H 0.7528 0.86491 0.18555 0.0
C1386 C 0.75645 0.89769 0.21322 0.0
C1387 C 0.75302 0.88124 0.15537 0.0
C1388 C 0.75024 0.87584 0.10476 0.0
C1389 C 0.75788 0.89078 0.25091 0.0
C1390 C 0.7559 0.87855 0.24121 0.0
C1391 C 0.75422 0.87424 0.19313 0.0
C1392 C 0.75298 0.86919 0.28035 0.0
C1393 C 0.76086 0.89637 0.30118 0.0
C1394 C 0.75897 0.86195 0.28272 0.0
C1395 C 0.75458 0.8517 0.31475 0.0
C1396 C 0.74399 0.84844 0.34423 0.0
C1397 C 0.7383 0.85598 0.34269 0.0
C1398 C 0.74272 0.86619 0.31104 0.0
H1399 H 0.76704 0.9068 0.29949 0.0
H1400 H 0.75197 0.89438 0.31947 0.0
H1401 H 0.76559 0.89236 0.32342 0.0
H1402 H 0.7668 0.864 0.25879 0.0
H1403 H 0.75917 0.84608 0.31511 0.0
H1404 H 0.07909 0.83669 0.0392 0.0
H1405 H 0.0867 0.85251 0.1042 0.0
H1406 H 0.12046 0.84993 0.1167 0.0
H1407 H 0.11306 0.83422 0.05239 0.0
H1408 H 0.09479 0.85117 0.20327 0.0
H1409 H 0.13293 0.88818 0.09184 0.0
H1410 H 0.11942 0.87457 0.06572 0.0
H1411 H 0.1326 0.87336 0.08806 0.0
C1412 C 0.08809 0.83941 0.05606 0.0
C1413 C 0.09551 0.83424 0.04019 0.0
C1414 C 0.09241 0.84847 0.09305 0.0
C1415 C 0.10425 0.85256 0.11429 0.0
C1416 C 0.11142 0.84707 0.09992 0.0
H1417 H 0.14549 0.87656 0.35858 0.0
H1418 H 0.12883 0.8668 0.29868 0.0
C1419 C 0.10711 0.83802 0.06329 0.0
C1420 C 0.10935 0.86252 0.15179 0.0
H1421 H 0.13632 0.88989 0.17874 0.0
C1422 C 0.1037 0.85982 0.19776 0.0
C1423 C 0.12075 0.87397 0.14415 0.0
C1424 C 0.12671 0.87778 0.09459 0.0
C1425 C 0.1099 0.86766 0.23754 0.0
C1426 C 0.12211 0.87824 0.23101 0.0
C1427 C 0.12705 0.88167 0.18399 0.0
C1428 C 0.1308 0.88438 0.27232 0.0
C1429 C 0.1036 0.86418 0.28656 0.0
C1430 C 0.13761 0.89758 0.27728 0.0
C1431 C 0.14735 0.90327 0.31148 0.0
C1432 C 0.15053 0.89583 0.34064 0.0
C1433 C 0.14338 0.88261 0.33655 0.0
C1434 C 0.13368 0.87697 0.30272 0.0
H1435 H 0.09319 0.85968 0.28282 0.0
H1436 H 0.10563 0.85723 0.30419 0.0
H1437 H 0.10704 0.87257 0.31049 0.0
H1438 H 0.13565 0.90348 0.2537 0.0
H1439 H 0.15267 0.91348 0.31377 0.0
H1440 H 0.17213 0.27457 0.10212 0.0
H1441 H 0.15598 0.26617 0.16514 0.0
H1442 H 0.13779 0.22983 0.09462 0.0
H1443 H 0.15404 0.23814 0.03141 0.0
H1444 H 0.12276 0.24137 0.1045 0.0
H1445 H 0.1445 0.24098 0.27971 0.0
H1446 H 0.15413 0.25518 0.2459 0.0
H1447 H 0.15111 0.24022 0.22194 0.0
C1448 C 0.16493 0.26468 0.10082 0.0
C1449 C 0.16429 0.25706 0.06161 0.0
C1450 C 0.15575 0.25986 0.13708 0.0
C1451 C 0.14574 0.24736 0.13466 0.0
C1452 C 0.14552 0.23947 0.09731 0.0
H1453 H 0.08753 0.23795 0.34674 0.0
H1454 H 0.098 0.23 0.29274 0.0
C1455 C 0.15482 0.24424 0.0613 0.0
C1456 C 0.13458 0.24351 0.1659 0.0
H1457 H 0.12687 0.24498 0.28356 0.0
C1458 C 0.12347 0.24172 0.14375 0.0
C1459 C 0.13548 0.24384 0.21701 0.0
C1460 C 0.14692 0.24503 0.24256 0.0
C1461 C 0.11379 0.24162 0.17128 0.0
C1462 C 0.11532 0.24334 0.22192 0.0
C1463 C 0.1258 0.24377 0.24454 0.0
C1464 C 0.10757 0.24715 0.25042 0.0
C1465 C 0.10241 0.2406 0.14582 0.0
C1466 C 0.10943 0.25934 0.2439 0.0
C1467 C 0.10368 0.26395 0.27489 0.0
C1468 C 0.09585 0.2564 0.31266 0.0
C1469 C 0.09346 0.24394 0.31766 0.0
C1470 C 0.09944 0.23939 0.28705 0.0
H1471 H 0.10095 0.236 0.10979 0.0
H1472 H 0.09376 0.23515 0.16808 0.0
H1473 H 0.10383 0.25021 0.14019 0.0
H1474 H 0.11579 0.26549 0.21606 0.0
H1475 H 0.10565 0.27357 0.27012 0.0
H1476 H 0.84303 0.75779 0.17266 0.0
H1477 H 0.86022 0.76494 0.23203 0.0
H1478 H 0.86531 0.73356 0.19389 0.0
H1479 H 0.84845 0.72649 0.13469 0.0
H1480 H 0.85965 0.75135 0.31035 0.0
H1481 H 0.90153 0.76176 0.20184 0.0
H1482 H 0.8876 0.76088 0.17522 0.0
H1483 H 0.88854 0.74676 0.18424 0.0
C1484 C 0.84798 0.75255 0.17636 0.0
C1485 C 0.84429 0.74151 0.14916 0.0
C1486 C 0.85782 0.75668 0.21015 0.0
C1487 C 0.86422 0.74993 0.21668 0.0
C1488 C 0.86077 0.73914 0.18854 0.0
H1489 H 0.88357 0.71982 0.43876 0.0
H1490 H 0.87579 0.72769 0.37431 0.0
C1491 C 0.85097 0.735 0.15511 0.0
C1492 C 0.87325 0.75288 0.2571 0.0
H1493 H 0.90064 0.75316 0.28369 0.0
C1494 C 0.8688 0.75218 0.30455 0.0
C1495 C 0.88531 0.7542 0.24975 0.0
C1496 C 0.89106 0.75609 0.19992 0.0
C1497 C 0.87545 0.75134 0.34439 0.0
C1498 C 0.88671 0.75103 0.33636 0.0
C1499 C 0.89187 0.75314 0.28959 0.0
C1500 C 0.89201 0.74654 0.37447 0.0
C1501 C 0.86998 0.74995 0.39454 0.0
C1502 C 0.90394 0.75445 0.39471 0.0
C1503 C 0.90848 0.74997 0.43192 0.0
C1504 C 0.90118 0.73747 0.44891 0.0
C1505 C 0.88944 0.7295 0.42697 0.0
C1506 C 0.88492 0.734 0.39023 0.0
H1507 H 0.86377 0.75416 0.39663 0.0
H1508 H 0.8642 0.73977 0.40353 0.0
H1509 H 0.87756 0.7545 0.42216 0.0
H1510 H 0.90958 0.76413 0.38249 0.0
H1511 H 0.91757 0.75636 0.4479 0.0
H1512 H 0.2407 0.08572 0.18511 0.0
H1513 H 0.23359 0.09562 0.24533 0.0
H1514 H 0.2642 0.1323 0.20454 0.0
H1515 H 0.27124 0.12264 0.14459 0.0
H1516 H 0.24777 0.10905 0.32239 0.0
H1517 H 0.23539 0.13944 0.2162 0.0
H1518 H 0.23632 0.12645 0.18927 0.0
H1519 H 0.25032 0.14169 0.19631 0.0
C1520 C 0.24576 0.09592 0.18841 0.0
C1521 C 0.25661 0.10339 0.16035 0.0
C1522 C 0.24166 0.10154 0.22268 0.0
C1523 C 0.24822 0.11471 0.22875 0.0
C1524 C 0.25878 0.12216 0.19961 0.0
H1525 H 0.27875 0.16474 0.45056 0.0
H1526 H 0.27095 0.14876 0.3872 0.0
C1527 C 0.26291 0.11658 0.16576 0.0
C1528 C 0.2454 0.12073 0.26969 0.0
H1529 H 0.24459 0.14755 0.29687 0.0
C1530 C 0.24666 0.11723 0.31691 0.0
C1531 C 0.2437 0.13126 0.26276 0.0
C1532 C 0.24121 0.13482 0.21332 0.0
C1533 C 0.24767 0.12478 0.35677 0.0
C1534 C 0.24759 0.13617 0.34894 0.0
C1535 C 0.24493 0.13894 0.30258 0.0
C1536 C 0.25206 0.14604 0.38673 0.0
C1537 C 0.24955 0.12091 0.40661 0.0
C1538 C 0.24412 0.15012 0.40618 0.0
C1539 C 0.24856 0.15933 0.44261 0.0
C1540 C 0.26106 0.16468 0.45966 0.0
C1541 C 0.26906 0.16081 0.43865 0.0
C1542 C 0.2646 0.15161 0.40261 0.0
H1543 H 0.24542 0.1105 0.40911 0.0
H1544 H 0.25982 0.12537 0.41412 0.0
H1545 H 0.24524 0.12399 0.43499 0.0
H1546 H 0.23444 0.14602 0.39383 0.0
H1547 H 0.24216 0.16212 0.45784 0.0
H1548 H 0.83835 0.0801 0.45801 0.0
H1549 H 0.85511 0.08805 0.39647 0.0
H1550 H 0.84777 0.11817 0.36217 0.0
H1551 H 0.83108 0.11039 0.42279 0.0
H1552 H 0.85402 0.09492 0.28828 0.0
H1553 H 0.88657 0.13435 0.40741 0.0
H1554 H 0.87356 0.1198 0.43054 0.0
H1555 H 0.87079 0.13185 0.4063 0.0
C1556 C 0.84016 0.08829 0.43679 0.0
C1557 C 0.83345 0.09469 0.44574 0.0
C1558 C 0.84976 0.09282 0.40186 0.0
C1559 C 0.85277 0.1038 0.37571 0.0
C1560 C 0.84567 0.10978 0.3827 0.0
H1561 H 0.87781 0.14676 0.14029 0.0
H1562 H 0.86845 0.12978 0.1993 0.0
C1563 C 0.8361 0.10528 0.41728 0.0
C1564 C 0.86352 0.10951 0.34179 0.0
H1565 H 0.89003 0.13783 0.32119 0.0
C1566 C 0.86213 0.10413 0.29574 0.0
C1567 C 0.87423 0.12134 0.35209 0.0
C1568 C 0.87648 0.12714 0.40196 0.0
C1569 C 0.87048 0.11099 0.25805 0.0
C1570 C 0.88022 0.12353 0.26682 0.0
C1571 C 0.88246 0.12827 0.31431 0.0
C1572 C 0.88628 0.13265 0.22676 0.0
C1573 C 0.86835 0.10507 0.20848 0.0
C1574 C 0.89947 0.14007 0.22297 0.0
C1575 C 0.90491 0.14992 0.18909 0.0
C1576 C 0.8972 0.15264 0.15941 0.0
C1577 C 0.88403 0.14501 0.16283 0.0
C1578 C 0.87864 0.13514 0.1961 0.0
H1579 H 0.86429 0.09469 0.21135 0.0
H1580 H 0.86149 0.10678 0.18834 0.0
H1581 H 0.87726 0.10913 0.18732 0.0
H1582 H 0.90552 0.13842 0.24693 0.0
H1583 H 0.9151 0.15565 0.18727 0.0
H1584 H 0.93925 0.44624 0.26276 0.0
H1585 H 0.92986 0.4526 0.1992 0.0
H1586 H 0.89502 0.41719 0.21174 0.0
H1587 H 0.90433 0.41064 0.27675 0.0
H1588 H 0.90788 0.42843 0.10835 0.0
H1589 H 0.8984 0.4593 0.22677 0.0
H1590 H 0.9132 0.46007 0.23938 0.0
H1591 H 0.89867 0.4455 0.24894 0.0
C1592 C 0.92962 0.43969 0.25206 0.0
C1593 C 0.92254 0.42793 0.27519 0.0
C1594 C 0.92425 0.44339 0.21582 0.0
C1595 C 0.91173 0.43544 0.20155 0.0
C1596 C 0.90468 0.42348 0.22285 0.0
H1597 H 0.9035 0.48648 0.00173 0.0
H1598 H 0.8944 0.4679 0.05516 0.0
C1599 C 0.91004 0.41976 0.25975 0.0
C1600 C 0.90644 0.44002 0.16389 0.0
H1601 H 0.90391 0.46612 0.14314 0.0
C1602 C 0.90648 0.43636 0.1158 0.0
C1603 C 0.90434 0.45016 0.1738 0.0
C1604 C 0.90352 0.45393 0.22511 0.0
C1605 C 0.90614 0.44366 0.07722 0.0
C1606 C 0.90604 0.45495 0.08742 0.0
C1607 C 0.90421 0.45758 0.1353 0.0
C1608 C 0.91065 0.46533 0.05156 0.0
C1609 C 0.90689 0.43975 0.02603 0.0
C1610 C 0.92286 0.47018 0.03285 0.0
C1611 C 0.92811 0.48077 0.00303 0.0
C1612 C 0.9213 0.48688 0.99131 0.0
C1613 C 0.90901 0.48201 0.01002 0.0
C1614 C 0.90376 0.47136 0.04027 0.0
H1615 H 0.90186 0.4293 0.0228 0.0
H1616 H 0.9028 0.44358 -0.00035 0.0
H1617 H 0.91693 0.44333 0.0164 0.0
H1618 H 0.92853 0.46597 0.04242 0.0
H1619 H 0.93759 0.48421 0.98949 0.0
H1620 H 0.58326 0.4944 0.29742 0.0
H1621 H 0.57504 0.4791 0.23061 0.0
H1622 H 0.5442 0.48628 0.21206 0.0
H1623 H 0.55221 0.50149 0.27829 0.0
H1624 H 0.5385 0.45911 0.22625 0.0
H1625 H 0.57258 0.48641 0.0789 0.0
H1626 H 0.5781 0.48613 0.13935 0.0
H1627 H 0.56977 0.49446 0.12807 0.0
C1628 C 0.5748 0.49284 0.27875 0.0
C1629 C 0.56835 0.49914 0.29345 0.0
C1630 C 0.57015 0.4841 0.24066 0.0
C1631 C 0.55902 0.48159 0.21675 0.0
C1632 C 0.55279 0.4881 0.23036 0.0
H1633 H 0.51334 0.45619 0.98222 0.0
H1634 H 0.52981 0.46629 0.04288 0.0
C1635 C 0.55741 0.4968 0.26822 0.0
C1636 C 0.55337 0.47186 0.17866 0.0
H1637 H 0.55376 0.46812 0.0563 0.0
C1638 C 0.54196 0.46084 0.18921 0.0
C1639 C 0.55802 0.47422 0.13072 0.0
C1640 C 0.57029 0.48593 0.11812 0.0
C1641 C 0.53453 0.4526 0.15227 0.0
C1642 C 0.53872 0.45546 0.10367 0.0
C1643 C 0.55062 0.46596 0.09366 0.0
C1644 C 0.52992 0.44923 0.06286 0.0
C1645 C 0.52178 0.4415 0.16503 0.0
C1646 C 0.52469 0.43629 0.05324 0.0
C1647 C 0.51511 0.4304 0.01855 0.0
C1648 C 0.51066 0.43739 0.99308 0.0
C1649 C 0.51639 0.45045 0.00147 0.0
C1650 C 0.52591 0.45629 0.03592 0.0
H1651 H 0.51945 0.44139 0.20404 0.0
H1652 H 0.51427 0.4417 0.14305 0.0
H1653 H 0.5217 0.43258 0.15671 0.0
H1654 H 0.52778 0.43072 0.07337 0.0
H1655 H 0.51098 0.42034 0.01269 0.0
H1656 H 0.55546 0.05622 0.03535 0.0
H1657 H 0.54531 0.06373 0.09154 0.0
H1658 H 0.57054 0.10212 0.04706 0.0
H1659 H 0.58093 0.09468 0.99008 0.0
H1660 H 0.56157 0.08966 0.1665 0.0
H1661 H 0.52727 0.0863 0.02646 0.0
H1662 H 0.53273 0.07509 0.02308 0.0
H1663 H 0.54361 0.09152 0.01252 0.0
C1664 C 0.55898 0.06629 0.03762 0.0
C1665 C 0.56894 0.07485 0.00792 0.0
C1666 C 0.55317 0.07055 0.06985 0.0
C1667 C 0.55716 0.08343 0.073 0.0
C1668 C 0.56738 0.09213 0.04489 0.0
H1669 H 0.51091 0.09264 0.29835 0.0
H1670 H 0.52723 0.1007 0.23506 0.0
C1671 C 0.57329 0.08786 0.01258 0.0
C1672 C 0.54996 0.0873 0.10443 0.0
H1673 H 0.52072 0.08428 0.10907 0.0
C1674 C 0.55287 0.08904 0.15397 0.0
C1675 C 0.53864 0.08642 0.08764 0.0
C1676 C 0.53533 0.0848 0.03445 0.0
C1677 C 0.54415 0.08872 0.18781 0.0
C1678 C 0.53227 0.08654 0.17134 0.0
C1679 C 0.52985 0.08596 0.12144 0.0
C1680 C 0.52157 0.08227 0.20522 0.0
C1681 C 0.54714 0.08948 0.2412 0.0
C1682 C 0.51284 0.06932 0.20822 0.0
C1683 C 0.50361 0.06468 0.24427 0.0
C1684 C 0.50289 0.07294 0.27782 0.0
C1685 C 0.51122 0.08603 0.27299 0.0
C1686 C 0.52056 0.09066 0.23703 0.0
H1687 H 0.55686 0.0913 0.24798 0.0
H1688 H 0.54614 0.09716 0.25815 0.0
H1689 H 0.54033 0.0805 0.25928 0.0
H1690 H 0.5135 0.06272 0.18387 0.0
H1691 H 0.49729 0.05458 0.24672 0.0
H1692 H 0.74859 0.57232 0.86717 0.0
H1693 H 0.75499 0.5647 0.93793 0.0
H1694 H 0.77235 0.60197 0.00061 0.0
H1695 H 0.76616 0.60969 0.93004 0.0
H1696 H 0.78165 0.57645 0.96081 0.0
H1697 H 0.7537 0.57759 0.11639 0.0
H1698 H 0.74839 0.5761 0.05423 0.0
H1699 H 0.75956 0.59133 0.07839 0.0
C1700 C 0.75347 0.5788 0.89665 0.0
C1701 C 0.75696 0.59163 0.89297 0.0
C1702 C 0.75712 0.57443 0.93695 0.0
C1703 C 0.76402 0.58275 0.97457 0.0
C1704 C 0.76684 0.59536 0.97227 0.0
H1705 H 0.81679 0.60771 0.1851 0.0
H1706 H 0.79905 0.60066 0.13019 0.0
C1707 C 0.76338 0.59978 0.93178 0.0
C1708 C 0.76999 0.57901 0.01272 0.0
H1709 H 0.77439 0.58063 0.13506 0.0
C1710 C 0.77986 0.57695 -0.00094 0.0
C1711 C 0.76752 0.57959 0.06236 0.0
C1712 C 0.75663 0.58115 0.07881 0.0
C1713 C 0.78822 0.57684 0.03367 0.0
C1714 C 0.78643 0.57859 0.08316 0.0
C1715 C 0.77579 0.57938 0.09706 0.0
C1716 C 0.79659 0.58204 0.11929 0.0
C1717 C 0.79952 0.57603 0.01659 0.0
C1718 C 0.80107 0.57384 0.13184 0.0
C1719 C 0.81141 0.57792 0.16317 0.0
C1720 C 0.81734 0.59021 0.18263 0.0
C1721 C 0.81254 0.5982 0.17082 0.0
C1722 C 0.80232 0.59416 0.13954 0.0
H1723 H 0.80029 0.57624 0.97641 0.0
H1724 H 0.80835 0.58397 0.03163 0.0
H1725 H 0.79873 0.56708 0.02969 0.0
H1726 H 0.79666 0.56437 0.11709 0.0
H1727 H 0.8148 0.57148 0.17184 0.0
H1728 H 0.38911 0.15769 0.92638 0.0
H1729 H 0.39804 0.1737 0.98969 0.0
H1730 H 0.43529 0.18768 0.93012 0.0
H1731 H 0.42643 0.17168 0.86609 0.0
H1732 H 0.41869 0.18239 0.06076 0.0
H1733 H 0.42691 0.21671 0.91211 0.0
H1734 H 0.41702 0.19994 0.90284 0.0
H1735 H 0.43381 0.20675 0.90767 0.0
C1736 C 0.39924 0.16396 0.92727 0.0
C1737 C 0.40701 0.16358 0.89059 0.0
C1738 C 0.40434 0.17307 0.96366 0.0
C1739 C 0.41728 0.18197 0.964 0.0
C1740 C 0.42525 0.18095 0.93006 0.0
H1741 H 0.42761 0.2414 0.17419 0.0
H1742 H 0.43587 0.23061 0.12332 0.0
C1743 C 0.42016 0.17177 0.89362 0.0
C1744 C 0.42176 0.19318 0.99544 0.0
H1745 H 0.42571 0.22284 0.99129 0.0
C1746 C 0.42073 0.19143 0.04586 0.0
C1747 C 0.4244 0.20494 0.97565 0.0
C1748 C 0.42559 0.2073 0.92163 0.0
C1749 C 0.42112 0.20074 0.07669 0.0
C1750 C 0.42247 0.21195 0.05633 0.0
C1751 C 0.42472 0.21421 0.00653 0.0
C1752 C 0.41845 0.2197 0.08361 0.0
C1753 C 0.41884 0.19807 0.13026 0.0
C1754 C 0.40609 0.2173 0.077 0.0
C1755 C 0.40135 0.2233 0.1059 0.0
C1756 C 0.40893 0.23191 0.14177 0.0
C1757 C 0.42157 0.23483 0.14669 0.0
C1758 C 0.42629 0.22867 0.1179 0.0
H1759 H 0.41887 0.18933 0.14092 0.0
H1760 H 0.42621 0.20612 0.15135 0.0
H1761 H 0.40956 0.19704 0.14017 0.0
H1762 H 0.39994 0.21039 0.05057 0.0
H1763 H 0.39162 0.22093 0.10096 0.0
H1764 H 0.83955 0.22921 0.93119 0.0
H1765 H 0.82482 0.223 -0.00093 0.0
H1766 H 0.80921 0.24492 0.9402 0.0
H1767 H 0.82404 0.25132 0.87191 0.0
H1768 H 0.81793 0.23989 0.06794 0.0
H1769 H 0.7807 0.20463 0.94526 0.0
H1770 H 0.79714 0.21035 0.93203 0.0
H1771 H 0.79086 0.22075 0.92615 0.0
C1772 C 0.83317 0.23293 0.93307 0.0
C1773 C 0.83288 0.24065 0.89596 0.0
C1774 C 0.8248 0.22941 0.97195 0.0
C1775 C 0.81593 0.23346 0.97426 0.0
C1776 C 0.81603 0.24173 0.93885 0.0
H1777 H 0.75376 0.18212 0.16499 0.0
H1778 H 0.76455 0.20022 0.10985 0.0
C1779 C 0.82452 0.24538 0.90002 0.0
C1780 C 0.80588 0.22781 0.01113 0.0
H1781 H 0.77756 0.20106 0.02916 0.0
C1782 C 0.80892 0.23162 0.05951 0.0
C1783 C 0.79408 0.21716 -0.00021 0.0
C1784 C 0.79039 0.21291 0.94804 0.0
C1785 C 0.80086 0.22439 0.09731 0.0
C1786 C 0.78976 0.2129 0.08623 0.0
C1787 C 0.78614 0.20981 0.03762 0.0
C1788 C 0.78319 0.20296 0.12335 0.0
C1789 C 0.80464 0.22879 0.14885 0.0
C1790 C 0.79006 0.19843 0.14865 0.0
C1791 C 0.78398 0.18813 0.17971 0.0
C1792 C 0.77081 0.182 0.18599 0.0
C1793 C 0.76391 0.18663 0.16104 0.0
C1794 C 0.77006 0.19699 0.12969 0.0
H1795 H 0.80986 0.23927 0.15081 0.0
H1796 H 0.7963 0.22506 0.17319 0.0
H1797 H 0.81105 0.22548 0.16224 0.0
H1798 H 0.80014 0.20261 0.14316 0.0
H1799 H 0.78964 0.18487 0.1982 0.0
H1800 H 0.3845 0.21462 0.36979 0.0
H1801 H 0.39016 0.20743 0.4425 0.0
H1802 H 0.4248 0.24311 0.45373 0.0
H1803 H 0.41932 0.25042 0.37947 0.0
H1804 H 0.42823 0.22255 0.46972 0.0
H1805 H 0.38858 0.21804 0.58014 0.0
H1806 H 0.38293 0.20982 0.52375 0.0
H1807 H 0.39318 0.22672 0.52377 0.0
C1808 C 0.39329 0.22105 0.38768 0.0
C1809 C 0.4014 0.23317 0.3689 0.0
C1810 C 0.3965 0.21691 0.42948 0.0
C1811 C 0.40776 0.22483 0.4541 0.0
C1812 C 0.416 0.2369 0.43542 0.0
H1813 H 0.40595 0.18903 0.72794 0.0
H1814 H 0.41111 0.20654 0.67234 0.0
C1815 C 0.41283 0.24106 0.39311 0.0
C1816 C 0.4108 0.22015 0.49875 0.0
H1817 H 0.39708 0.20471 0.60362 0.0
C1818 C 0.42159 0.21889 0.49965 0.0
C1819 C 0.40235 0.2157 0.53838 0.0
C1820 C 0.3912 0.21778 0.54173 0.0
C1821 C 0.42361 0.21239 0.53753 0.0
C1822 C 0.41439 0.20672 0.57446 0.0
C1823 C 0.40412 0.20886 0.57516 0.0
C1824 C 0.41442 0.19766 0.61042 0.0
C1825 C 0.43551 0.21157 0.53709 0.0
C1826 C 0.41509 0.18705 0.59489 0.0
C1827 C 0.41252 0.17721 0.62715 0.0
C1828 C 0.40884 0.17768 0.67488 0.0
C1829 C 0.40873 0.1885 0.6911 0.0
C1830 C 0.41167 0.19848 0.65934 0.0
H1831 H 0.44344 0.22016 0.52048 0.0
H1832 H 0.43831 0.21041 0.5742 0.0
H1833 H 0.43396 0.20338 0.51468 0.0
H1834 H 0.4168 0.18595 0.55716 0.0
H1835 H 0.41252 0.16887 0.61391 0.0
H1836 H 0.81891 0.21202 0.67064 0.0
H1837 H 0.80031 0.20227 0.61943 0.0
H1838 H 0.79894 0.23682 0.61862 0.0
H1839 H 0.81784 0.24688 0.67023 0.0
H1840 H 0.77557 0.19956 0.63869 0.0
H1841 H 0.79922 0.2276 0.47255 0.0
H1842 H 0.8084 0.22688 0.52243 0.0
H1843 H 0.80025 0.23558 0.52875 0.0
C1844 C 0.81474 0.21763 0.65975 0.0
C1845 C 0.81994 0.23027 0.67454 0.0
C1846 C 0.80403 0.21199 0.63062 0.0
C1847 C 0.79825 0.21881 0.61541 0.0
C1848 C 0.80332 0.23143 0.62993 0.0
H1849 H 0.74828 0.17873 0.37255 0.0
H1850 H 0.75457 0.19375 0.44004 0.0
C1851 C 0.81411 0.23714 0.65932 0.0
C1852 C 0.78721 0.21249 0.58286 0.0
H1853 H 0.78049 0.20837 0.46208 0.0
C1854 C 0.77642 0.20169 0.6002 0.0
C1855 C 0.78828 0.2154 0.53287 0.0
C1856 C 0.79964 0.22697 0.51265 0.0
C1857 C 0.76732 0.19302 0.56816 0.0
C1858 C 0.76918 0.19518 0.51777 0.0
C1859 C 0.77916 0.2067 0.50084 0.0
C1860 C 0.76278 0.18478 0.48243 0.0
C1861 C 0.75626 0.18119 0.58827 0.0
C1862 C 0.76509 0.17464 0.48451 0.0
C1863 C 0.76169 0.16619 0.44593 0.0
C1864 C 0.75586 0.16769 0.40464 0.0
C1865 C 0.75271 0.1773 0.40408 0.0
C1866 C 0.7563 0.18589 0.44251 0.0
H1867 H 0.75364 0.1829 0.62491 0.0
H1868 H 0.74792 0.17762 0.56402 0.0
H1869 H 0.7589 0.17376 0.59177 0.0
H1870 H 0.7703 0.17375 0.51454 0.0
H1871 H 0.7642 0.15886 0.4474 0.0
H1872 H 0.78776 0.60661 0.67261 0.0
H1873 H 0.79834 0.59843 0.62233 0.0
H1874 H 0.76429 0.56211 0.61632 0.0
H1875 H 0.75341 0.57029 0.66669 0.0
H1876 H 0.80201 0.57726 0.63821 0.0
H1877 H 0.77364 0.57225 0.47244 0.0
H1878 H 0.77361 0.58136 0.52384 0.0
H1879 H 0.76559 0.56445 0.52747 0.0
C1880 C 0.78244 0.59687 0.66077 0.0
C1881 C 0.76968 0.58914 0.67351 0.0
C1882 C 0.78856 0.59219 0.63222 0.0
C1883 C 0.7821 0.57969 0.6156 0.0
C1884 C 0.76941 0.57183 0.62855 0.0
H1885 H 0.82201 0.57056 0.37051 0.0
H1886 H 0.80748 0.56179 0.43941 0.0
C1887 C 0.76322 0.57652 0.65728 0.0
C1888 C 0.7888 0.57545 0.58272 0.0
H1889 H 0.79278 0.57267 0.46194 0.0
C1890 C 0.79982 0.57587 0.5998 0.0
C1891 C 0.78581 0.57345 0.53281 0.0
C1892 C 0.77406 0.57287 0.51267 0.0
C1893 C 0.80855 0.57561 0.56759 0.0
C1894 C 0.80623 0.57505 0.51724 0.0
C1895 C 0.79456 0.57318 0.50064 0.0
C1896 C 0.81652 0.57904 0.48136 0.0
C1897 C 0.82055 0.57673 0.58746 0.0
C1898 C 0.82659 0.59153 0.48274 0.0
C1899 C 0.83477 0.5966 0.44337 0.0
C1900 C 0.83307 0.58925 0.40192 0.0
C1901 C 0.82359 0.57644 0.40209 0.0
C1902 C 0.81527 0.57141 0.44136 0.0
H1903 H 0.81898 0.57244 0.62417 0.0
H1904 H 0.82428 0.57211 0.56321 0.0
H1905 H 0.82779 0.58687 0.59079 0.0
H1906 H 0.82759 0.59767 0.5128 0.0
H1907 H 0.84201 0.60648 0.44432 0.0
H1908 H 0.56132 0.05438 0.74337 0.0
H1909 H 0.55271 0.06188 0.67999 0.0
H1910 H 0.57237 0.09937 0.74078 0.0
H1911 H 0.58124 0.09199 0.80414 0.0
H1912 H 0.54431 0.0868 0.72996 0.0
H1913 H 0.56908 0.08699 0.56124 0.0
H1914 H 0.5645 0.07342 0.59923 0.0
H1915 H 0.57596 0.08883 0.62087 0.0
C1916 C 0.56403 0.06428 0.7427 0.0
C1917 C 0.57191 0.07258 0.77881 0.0
C1918 C 0.55917 0.06856 0.70633 0.0
C1919 C 0.562 0.08118 0.70564 0.0
C1920 C 0.5702 0.08962 0.74056 0.0
H1921 H 0.51754 0.09337 0.48074 0.0
H1922 H 0.5348 0.10033 0.54007 0.0
C1923 C 0.57526 0.08539 0.7766 0.0
C1924 C 0.55507 0.08492 0.67195 0.0
H1925 H 0.54824 0.08426 0.55176 0.0
C1926 C 0.54539 0.08665 0.69095 0.0
C1927 C 0.55658 0.08482 0.62121 0.0
C1928 C 0.56717 0.08353 0.59929 0.0
C1929 C 0.53645 0.08706 0.66036 0.0
C1930 C 0.53728 0.08574 0.60987 0.0
C1931 C 0.54763 0.08523 0.59063 0.0
C1932 C 0.52642 0.08243 0.57778 0.0
C1933 C 0.52567 0.08803 0.68225 0.0
C1934 C 0.51605 0.07015 0.57993 0.0
C1935 C 0.50638 0.06612 0.54594 0.0
C1936 C 0.50683 0.07435 0.50947 0.0
C1937 C 0.51694 0.08687 0.50869 0.0
C1938 C 0.52679 0.09084 0.54236 0.0
H1939 H 0.52793 0.09201 0.71952 0.0
H1940 H 0.52328 0.09402 0.65934 0.0
H1941 H 0.51721 0.07846 0.68422 0.0
H1942 H 0.51569 0.06352 0.60684 0.0
H1943 H 0.49867 0.05644 0.54754 0.0
H1944 H 0.90468 0.41499 0.52184 0.0
H1945 H 0.89607 0.42399 0.58013 0.0
H1946 H 0.92352 0.46149 0.53271 0.0
H1947 H 0.93207 0.45273 0.47522 0.0
H1948 H 0.91017 0.43994 0.65478 0.0
H1949 H 0.89175 0.46416 0.5416 0.0
H1950 H 0.89385 0.45147 0.51865 0.0
H1951 H 0.90686 0.46749 0.51912 0.0
C1952 C 0.90871 0.42514 0.52347 0.0
C1953 C 0.91914 0.43316 0.49433 0.0
C1954 C 0.90376 0.43025 0.55652 0.0
C1955 C 0.90897 0.44339 0.55991 0.0
C1956 C 0.91911 0.45132 0.52978 0.0
H1957 H 0.94177 0.50005 0.74457 0.0
H1958 H 0.9323 0.48316 0.68479 0.0
C1959 C 0.92413 0.44628 0.49741 0.0
C1960 C 0.90538 0.44922 0.59919 0.0
H1961 H 0.90244 0.47523 0.61764 0.0
C1962 C 0.90794 0.44731 0.64703 0.0
C1963 C 0.90229 0.45871 0.5893 0.0
C1964 C 0.89839 0.46046 0.53935 0.0
C1965 C 0.90913 0.45571 0.68393 0.0
C1966 C 0.90781 0.46624 0.67237 0.0
C1967 C 0.90368 0.46725 0.62607 0.0
C1968 C 0.91305 0.4773 0.70478 0.0
C1969 C 0.91294 0.45395 0.73407 0.0
C1970 C 0.90527 0.47986 0.73428 0.0
C1971 C 0.91067 0.48958 0.76867 0.0
C1972 C 0.9239 0.4968 0.77385 0.0
C1973 C 0.93157 0.49463 0.74193 0.0
C1974 C 0.92619 0.48497 0.70778 0.0
H1975 H 0.91055 0.44402 0.74037 0.0
H1976 H 0.9233 0.46011 0.73827 0.0
H1977 H 0.90825 0.45668 0.76221 0.0
H1978 H 0.8951 0.47403 0.73211 0.0
H1979 H 0.90449 0.49099 0.79273 0.0
H1980 H 0.55756 0.50062 0.56268 0.0
H1981 H 0.54671 0.48216 0.6153 0.0
H1982 H 0.56422 0.4641 0.53931 0.0
H1983 H 0.5754 0.48276 0.48672 0.0
H1984 H 0.53484 0.45082 0.54782 0.0
H1985 H 0.56134 0.46665 0.721 0.0
H1986 H 0.55897 0.47834 0.69068 0.0
H1987 H 0.56855 0.4728 0.66256 0.0
C1988 C 0.55931 0.49283 0.55773 0.0
C1989 C 0.5673 0.4931 0.5206 0.0
C1990 C 0.55314 0.48232 0.58786 0.0
C1991 C 0.55473 0.47184 0.58113 0.0
C1992 C 0.56298 0.47217 0.54511 0.0
H1993 H 0.50843 0.41624 0.80011 0.0
H1994 H 0.52441 0.42421 0.73587 0.0
C1995 C 0.56937 0.48283 0.51534 0.0
C1996 C 0.54674 0.46027 0.60925 0.0
H1997 H 0.53953 0.45045 0.7264 0.0
C1998 C 0.53602 0.45049 0.58669 0.0
C1999 C 0.54839 0.45983 0.65969 0.0
C2000 C 0.56 0.46991 0.68502 0.0
C2001 C 0.5263 0.44089 0.6142 0.0
C2002 C 0.52738 0.4412 0.66527 0.0
C2003 C 0.53867 0.45027 0.68721 0.0
C2004 C 0.51632 0.43383 0.69702 0.0
C2005 C 0.51467 0.43091 0.58867 0.0
C2006 C 0.50629 0.43631 0.6956 0.0
C2007 C 0.49725 0.43191 0.7324 0.0
C2008 C 0.49806 0.42491 0.77127 0.0
C2009 C 0.50753 0.42157 0.77057 0.0
C2010 C 0.51668 0.42613 0.73395 0.0
H2011 H 0.51693 0.42928 0.55127 0.0
H2012 H 0.51028 0.42184 0.6089 0.0
H2013 H 0.50767 0.43413 0.58593 0.0
H2014 H 0.50595 0.44243 0.66793 0.0
H2015 H 0.49004 0.43459 0.73182 0.0
H2016 H 0.60592 0.81772 0.30374 0.0
H2017 H 0.59976 0.80113 0.36386 0.0
H2018 H 0.5695 0.80697 0.41196 0.0
H2019 H 0.5757 0.82381 0.35153 0.0
H2020 H 0.58503 0.80803 0.48578 0.0
H2021 H 0.57084 0.76503 0.37778 0.0
H2022 H 0.58554 0.7778 0.35624 0.0
H2023 H 0.57145 0.77897 0.35257 0.0
C2024 C 0.59785 0.81542 0.32661 0.0
C2025 C 0.59138 0.82219 0.32311 0.0
C2026 C 0.59423 0.80578 0.36058 0.0
C2027 C 0.58402 0.80264 0.39176 0.0
C2028 C 0.5773 0.80914 0.38773 0.0
H2029 H 0.57637 0.74906 0.62367 0.0
H2030 H 0.56956 0.75783 0.55792 0.0
C2031 C 0.58088 0.81878 0.35333 0.0
C2032 C 0.58169 0.79382 0.43237 0.0
H2033 H 0.58013 0.76572 0.45734 0.0
C2034 C 0.58358 0.79862 0.47972 0.0
C2035 C 0.57962 0.78148 0.42459 0.0
C2036 C 0.57661 0.77548 0.37502 0.0
C2037 C 0.58466 0.7919 0.51881 0.0
C2038 C 0.58397 0.78018 0.51011 0.0
C2039 C 0.58088 0.77483 0.46366 0.0
C2040 C 0.58799 0.77426 0.54741 0.0
C2041 C 0.5872 0.79769 0.56878 0.0
C2042 C 0.60067 0.78041 0.56185 0.0
C2043 C 0.60461 0.77544 0.59896 0.0
C2044 C 0.59593 0.7642 0.6225 0.0
C2045 C 0.58329 0.75776 0.60649 0.0
C2046 C 0.57936 0.76275 0.56904 0.0
H2047 H 0.58395 0.80467 0.57208 0.0
H2048 H 0.58247 0.79032 0.59706 0.0
H2049 H 0.59752 0.80268 0.57578 0.0
H2050 H 0.60749 0.78921 0.54488 0.0
H2051 H 0.61442 0.78062 0.60992 0.0
H2052 H 0.24599 0.82505 0.63267 0.0
H2053 H 0.2368 0.81078 0.56312 0.0
H2054 H 0.21278 0.82647 0.53417 0.0
H2055 H 0.2218 0.84067 0.60319 0.0
H2056 H 0.20984 0.79272 0.55303 0.0
H2057 H 0.22878 0.8267 0.40056 0.0
H2058 H 0.23605 0.8301 0.45987 0.0
H2059 H 0.22245 0.83174 0.4488 0.0
C2060 C 0.23888 0.82559 0.61103 0.0
C2061 C 0.2346 0.83398 0.62353 0.0
C2062 C 0.23364 0.81742 0.57146 0.0
C2063 C 0.22423 0.81769 0.54337 0.0
C2064 C 0.22017 0.82626 0.55504 0.0
H2065 H 0.1668 0.78405 0.34292 0.0
H2066 H 0.1834 0.79601 0.40153 0.0
C2067 C 0.2253 0.83432 0.5947 0.0
C2068 C 0.21785 0.80851 0.50382 0.0
H2069 H 0.20967 0.80708 0.3849 0.0
C2070 C 0.21 0.79574 0.51591 0.0
C2071 C 0.21819 0.81252 0.45555 0.0
C2072 C 0.22692 0.826 0.44021 0.0
C2073 C 0.20164 0.78707 0.48172 0.0
C2074 C 0.20133 0.79133 0.43433 0.0
C2075 C 0.20987 0.80388 0.42142 0.0
C2076 C 0.19114 0.78351 0.39967 0.0
C2077 C 0.19262 0.77369 0.49738 0.0
C2078 C 0.18991 0.77241 0.37952 0.0
C2079 C 0.1803 0.76543 0.34593 0.0
C2080 C 0.17188 0.76955 0.33177 0.0
C2081 C 0.17313 0.78061 0.35265 0.0
C2082 C 0.18264 0.78749 0.38617 0.0
H2083 H 0.19302 0.77236 0.53708 0.0
H2084 H 0.18279 0.77099 0.48741 0.0
H2085 H 0.19501 0.76717 0.47836 0.0
H2086 H 0.19648 0.76926 0.38912 0.0
H2087 H 0.17964 0.757 0.33032 0.0
H2088 H 0.17746 0.42723 0.62508 0.0
H2089 H 0.19167 0.4351 0.55481 0.0
H2090 H 0.17111 0.39836 0.48806 0.0
H2091 H 0.15705 0.39042 0.55803 0.0
H2092 H 0.20613 0.42318 0.53062 0.0
H2093 H 0.17789 0.42331 0.37448 0.0
H2094 H 0.17386 0.42453 0.43662 0.0
H2095 H 0.16955 0.40936 0.411 0.0
C2096 C 0.17576 0.42095 0.59475 0.0
C2097 C 0.1662 0.40819 0.59707 0.0
C2098 C 0.18389 0.42546 0.55475 0.0
C2099 C 0.18234 0.41734 0.51613 0.0
C2100 C 0.17232 0.40483 0.51713 0.0
H2101 H 0.20888 0.39059 0.30898 0.0
H2102 H 0.19868 0.39833 0.3634 0.0
C2103 C 0.16435 0.40028 0.55728 0.0
C2104 C 0.19214 0.42106 0.47833 0.0
H2105 H 0.19494 0.41915 0.35614 0.0
C2106 C 0.20391 0.42274 0.49232 0.0
C2107 C 0.18921 0.42057 0.4286 0.0
C2108 C 0.17698 0.41947 0.41172 0.0
C2109 C 0.21225 0.42249 0.45797 0.0
C2110 C 0.20875 0.42073 0.40846 0.0
C2111 C 0.19755 0.42038 0.39418 0.0
C2112 C 0.21517 0.41681 0.37282 0.0
C2113 C 0.22416 0.4229 0.47535 0.0
C2114 C 0.22786 0.42469 0.35972 0.0
C2115 C 0.23382 0.42021 0.32866 0.0
C2116 C 0.22715 0.40784 0.31008 0.0
C2117 C 0.21436 0.40014 0.32258 0.0
C2118 C 0.20847 0.40459 0.35356 0.0
H2119 H 0.22477 0.42291 0.51556 0.0
H2120 H 0.22466 0.41466 0.46117 0.0
H2121 H 0.2325 0.43159 0.46154 0.0
H2122 H 0.23315 0.43421 0.37376 0.0
H2123 H 0.24366 0.42642 0.31946 0.0
H2124 H 0.49101 0.90804 0.47238 0.0
H2125 H 0.47585 0.90321 0.40598 0.0
H2126 H 0.46248 0.92598 0.47476 0.0
H2127 H 0.47758 0.93096 0.54057 0.0
H2128 H 0.44569 0.89569 0.40319 0.0
H2129 H 0.48342 0.94282 0.33915 0.0
H2130 H 0.48663 0.93304 0.37898 0.0
H2131 H 0.47928 0.94149 0.4024 0.0
C2132 C 0.48458 0.91171 0.47397 0.0
C2133 C 0.48563 0.92008 0.51103 0.0
C2134 C 0.47591 0.90889 0.43622 0.0
C2135 C 0.46813 0.91428 0.43569 0.0
C2136 C 0.46841 0.92172 0.4748 0.0
H2137 H 0.41479 0.91852 0.242 0.0
H2138 H 0.42426 0.91272 0.30865 0.0
C2139 C 0.47713 0.92465 0.51206 0.0
C2140 C 0.46153 0.91428 0.39098 0.0
H2141 H 0.46388 0.93391 0.2991 0.0
C2142 C 0.44966 0.90394 0.37987 0.0
C2143 C 0.46686 0.92503 0.36071 0.0
C2144 C 0.47979 0.93623 0.37048 0.0
C2145 C 0.44281 0.90423 0.33934 0.0
C2146 C 0.44791 0.91526 0.31029 0.0
C2147 C 0.45993 0.92544 0.32122 0.0
C2148 C 0.44114 0.9168 0.26854 0.0
C2149 C 0.43027 0.89272 0.32793 0.0
C2150 C 0.44747 0.92109 0.22407 0.0
C2151 C 0.44232 0.92485 0.1871 0.0
C2152 C 0.43059 0.92411 0.19334 0.0
C2153 C 0.42385 0.91914 0.23658 0.0
C2154 C 0.42919 0.91569 0.27433 0.0
H2155 H 0.4297 0.88401 0.34291 0.0
H2156 H 0.42261 0.89377 0.34479 0.0
H2157 H 0.42858 0.89152 0.28822 0.0
H2158 H 0.45666 0.922 0.21864 0.0
H2159 H 0.44759 0.9285 0.15369 0.0
H2160 H 0.05985 0.54367 0.51842 0.0
H2161 H 0.06659 0.53424 0.4564 0.0
H2162 H 0.09829 0.57081 0.42169 0.0
H2163 H 0.09149 0.5805 0.48393 0.0
H2164 H 0.08455 0.55836 0.34204 0.0
H2165 H 0.09478 0.52613 0.44651 0.0
H2166 H 0.07984 0.52418 0.46472 0.0
H2167 H 0.09404 0.53911 0.47449 0.0
C2168 C 0.06835 0.54976 0.49813 0.0
C2169 C 0.07508 0.56287 0.50604 0.0
C2170 C 0.07229 0.5443 0.46302 0.0
C2171 C 0.0831 0.55177 0.43513 0.0
C2172 C 0.09002 0.56485 0.44335 0.0
H2173 H 0.0898 0.50462 0.20716 0.0
H2174 H 0.09726 0.52058 0.27166 0.0
C2175 C 0.0861 0.57036 0.47881 0.0
C2176 C 0.08601 0.54593 0.39381 0.0
H2177 H 0.08645 0.51906 0.36424 0.0
C2178 C 0.08536 0.54999 0.34684 0.0
C2179 C 0.08735 0.53517 0.39991 0.0
C2180 C 0.08919 0.531 0.44922 0.0
C2181 C 0.08464 0.54279 0.30616 0.0
C2182 C 0.08435 0.53118 0.31289 0.0
C2183 C 0.08639 0.52784 0.35928 0.0
C2184 C 0.08016 0.52167 0.27375 0.0
C2185 C 0.08353 0.54733 0.25653 0.0
C2186 C 0.06796 0.51677 0.25475 0.0
C2187 C 0.06364 0.50765 0.21843 0.0
C2188 C 0.07142 0.50316 0.2003 0.0
C2189 C 0.08357 0.50788 0.22017 0.0
C2190 C 0.08788 0.51703 0.25687 0.0
H2191 H 0.08814 0.5578 0.25546 0.0
H2192 H 0.08784 0.54419 0.22827 0.0
H2193 H 0.0734 0.54342 0.24764 0.0
H2194 H 0.06174 0.52 0.26823 0.0
H2195 H 0.05422 0.50422 0.20429 0.0
H2196 H 0.45402 0.51307 0.50586 0.0
H2197 H 0.46394 0.5301 0.44744 0.0
H2198 H 0.42803 0.52735 0.41765 0.0
H2199 H 0.41783 0.50998 0.47634 0.0
H2200 H 0.44011 0.52677 0.33568 0.0
H2201 H 0.47367 0.56693 0.44735 0.0
H2202 H 0.47494 0.5533 0.46136 0.0
H2203 H 0.46035 0.55311 0.47334 0.0
C2204 C 0.44817 0.51611 0.48742 0.0
C2205 C 0.43508 0.51007 0.49565 0.0
C2206 C 0.45393 0.52602 0.45442 0.0
C2207 C 0.44679 0.53021 0.429 0.0
C2208 C 0.43374 0.52437 0.43748 0.0
H2209 H 0.49483 0.58509 0.20423 0.0
H2210 H 0.47904 0.57687 0.26948 0.0
C2211 C 0.42793 0.51443 0.47086 0.0
C2212 C 0.45291 0.53953 0.3895 0.0
H2213 H 0.48062 0.56641 0.36382 0.0
C2214 C 0.44874 0.53565 0.34188 0.0
C2215 C 0.46405 0.55125 0.39746 0.0
C2216 C 0.46841 0.55644 0.44776 0.0
C2217 C 0.45618 0.54246 0.30211 0.0
C2218 C 0.46808 0.55328 0.31038 0.0
C2219 C 0.47159 0.55794 0.35766 0.0
C2220 C 0.4777 0.55856 0.27163 0.0
C2221 C 0.45159 0.5376 0.2516 0.0
C2222 C 0.48239 0.5511 0.25252 0.0
C2223 C 0.49144 0.55575 0.21588 0.0
C2224 C 0.496 0.568 0.1974 0.0
C2225 C 0.49149 0.5756 0.21748 0.0
C2226 C 0.48246 0.57093 0.25462 0.0
H2227 H 0.44112 0.53193 0.25023 0.0
H2228 H 0.4549 0.54549 0.22519 0.0
H2229 H 0.45535 0.5314 0.24032 0.0
H2230 H 0.479 0.54161 0.26595 0.0
H2231 H 0.49468 0.54962 0.20153 0.0
H2232 H 0.0584 0.56395 0.77105 0.0
H2233 H 0.06703 0.55583 0.83174 0.0
H2234 H 0.10287 0.57379 0.75754 0.0
H2235 H 0.09432 0.58209 0.69666 0.0
H2236 H 0.09115 0.54715 0.76638 0.0
H2237 H 0.09295 0.56903 0.94375 0.0
H2238 H 0.07856 0.56466 0.91173 0.0
H2239 H 0.09339 0.57655 0.88668 0.0
C2240 C 0.06824 0.56652 0.7685 0.0
C2241 C 0.07564 0.57356 0.72892 0.0
C2242 C 0.07319 0.56195 0.80341 0.0
C2243 C 0.08561 0.56428 0.79925 0.0
C2244 C 0.0933 0.572 0.76157 0.0
H2245 H 0.09484 0.51537 0.01002 0.0
H2246 H 0.10295 0.53366 0.95533 0.0
C2247 C 0.0884 0.57675 0.72691 0.0
C2248 C 0.08953 0.55678 0.82908 0.0
H2249 H 0.08873 0.54731 0.94592 0.0
C2250 C 0.09105 0.54743 0.8057 0.0
C2251 C 0.08955 0.55724 0.88027 0.0
C2252 C 0.08866 0.56751 0.90709 0.0
C2253 C 0.09123 0.53773 0.83219 0.0
C2254 C 0.08983 0.53743 0.88306 0.0
C2255 C 0.08968 0.54751 0.90676 0.0
C2256 C 0.08612 0.5258 0.91107 0.0
C2257 C 0.09204 0.52741 0.80543 0.0
C2258 C 0.07407 0.51532 0.90366 0.0
C2259 C 0.06936 0.50502 0.93506 0.0
C2260 C 0.07667 0.50496 0.97418 0.0
C2261 C 0.08904 0.51514 0.9799 0.0
C2262 C 0.09368 0.52559 0.94886 0.0
H2263 H 0.09677 0.53077 0.76971 0.0
H2264 H 0.09726 0.52383 0.82706 0.0
H2265 H 0.08236 0.51943 0.79885 0.0
H2266 H 0.06803 0.5154 0.87505 0.0
H2267 H 0.05981 0.4973 0.92975 0.0
H2268 H 0.50059 0.55885 0.9287 0.0
H2269 H 0.48249 0.54803 0.8744 0.0
H2270 H 0.46341 0.56449 0.95036 0.0
H2271 H 0.4817 0.57565 0.00454 0.0
H2272 H 0.45091 0.53529 0.941 0.0
H2273 H 0.46659 0.56218 0.76847 0.0
H2274 H 0.47842 0.56011 0.79912 0.0
H2275 H 0.47248 0.56936 0.82714 0.0
C2276 C 0.49266 0.56039 0.93323 0.0
C2277 C 0.49252 0.56805 0.97085 0.0
C2278 C 0.48236 0.55424 0.90214 0.0
C2279 C 0.47169 0.55553 0.90845 0.0
C2280 C 0.47163 0.5635 0.94487 0.0
H2281 H 0.4159 0.50855 0.69061 0.0
H2282 H 0.4241 0.52461 0.75448 0.0
C2283 C 0.48208 0.56987 0.97556 0.0
C2284 C 0.46027 0.5474 0.8799 0.0
H2285 H 0.4507 0.54026 0.7625 0.0
C2286 C 0.45061 0.53652 0.90214 0.0
C2287 C 0.45988 0.54912 0.82948 0.0
C2288 C 0.46984 0.56088 0.80453 0.0
C2289 C 0.44119 0.52674 0.87434 0.0
C2290 C 0.44156 0.52792 0.82332 0.0
C2291 C 0.45049 0.53934 0.80167 0.0
C2292 C 0.43434 0.5169 0.79137 0.0
C2293 C 0.43136 0.51493 0.89945 0.0
C2294 C 0.43717 0.5071 0.79175 0.0
C2295 C 0.43265 0.49802 0.75512 0.0
C2296 C 0.42518 0.49856 0.71752 0.0
C2297 C 0.4216 0.50785 0.71917 0.0
C2298 C 0.42627 0.51705 0.75557 0.0
H2299 H 0.42976 0.51696 0.93724 0.0
H2300 H 0.42226 0.51055 0.87949 0.0
H2301 H 0.4347 0.508 0.90107 0.0
H2302 H 0.44356 0.50695 0.8186 0.0
H2303 H 0.43552 0.49096 0.75496 0.0
H2304 H 0.50468 0.93931 0.77158 0.0
H2305 H 0.48825 0.93055 0.83351 0.0
H2306 H 0.47165 0.89403 0.76475 0.0
H2307 H 0.48817 0.9027 0.70267 0.0
H2308 H 0.45579 0.90471 0.77092 0.0
H2309 H 0.47687 0.90574 0.94933 0.0
H2310 H 0.48634 0.91993 0.91527 0.0
H2311 H 0.484 0.90509 0.89268 0.0
C2312 C 0.49777 0.92933 0.77048 0.0
C2313 C 0.49764 0.92174 0.73199 0.0
C2314 C 0.48844 0.9243 0.80613 0.0
C2315 C 0.47879 0.91163 0.80381 0.0
C2316 C 0.4791 0.9038 0.76734 0.0
H2317 H 0.42005 0.90216 0.01173 0.0
H2318 H 0.43056 0.89398 0.95926 0.0
C2319 C 0.48855 0.90879 0.73196 0.0
C2320 C 0.46738 0.90748 0.83381 0.0
H2321 H 0.45879 0.9091 0.94996 0.0
C2322 C 0.45626 0.90522 0.8102 0.0
C2323 C 0.46797 0.90801 0.88496 0.0
C2324 C 0.47941 0.9097 0.91207 0.0
C2325 C 0.44626 0.90488 0.83623 0.0
C2326 C 0.44747 0.90686 0.88681 0.0
C2327 C 0.45796 0.9077 0.91098 0.0
C2328 C 0.43939 0.91056 0.91353 0.0
C2329 C 0.43487 0.90335 0.80917 0.0
C2330 C 0.44078 0.92248 0.9045 0.0
C2331 C 0.43501 0.92724 0.93464 0.0
C2332 C 0.42763 0.92009 0.97404 0.0
C2333 C 0.42562 0.90782 0.98134 0.0
C2334 C 0.43162 0.90315 0.95159 0.0
H2335 H 0.43364 0.89841 0.77405 0.0
H2336 H 0.42616 0.89801 0.8312 0.0
H2337 H 0.43613 0.91282 0.80141 0.0
H2338 H 0.44689 0.92838 0.8756 0.0
H2339 H 0.43668 0.9367 0.92816 0.0
H2340 H 0.17948 0.39161 0.82801 0.0
H2341 H 0.19801 0.39982 0.87951 0.0
H2342 H 0.20236 0.43703 0.87265 0.0
H2343 H 0.18355 0.42884 0.82068 0.0
H2344 H 0.22357 0.42091 0.85608 0.0
H2345 H 0.20181 0.42851 0.02125 0.0
H2346 H 0.19197 0.41811 0.97365 0.0
H2347 H 0.20073 0.43482 0.96348 0.0
C2348 C 0.1843 0.40156 0.83724 0.0
C2349 C 0.17999 0.40956 0.82008 0.0
C2350 C 0.19495 0.40624 0.8666 0.0
C2351 C 0.20155 0.41902 0.87961 0.0
C2352 C 0.19733 0.42712 0.86299 0.0
H2353 H 0.25095 0.42693 0.1218 0.0
H2354 H 0.24532 0.4361 0.05385 0.0
C2355 C 0.18659 0.42241 0.83342 0.0
C2356 C 0.21263 0.42339 0.9117 0.0
H2357 H 0.2196 0.42627 0.03225 0.0
C2358 C 0.22296 0.42252 0.89443 0.0
C2359 C 0.21188 0.42568 0.96146 0.0
C2360 C 0.20103 0.42685 0.98146 0.0
C2361 C 0.23184 0.4225 0.92649 0.0
C2362 C 0.23019 0.42321 0.97684 0.0
C2363 C 0.22076 0.42562 0.99354 0.0
C2364 C 0.23613 0.41876 0.01252 0.0
C2365 C 0.24237 0.42081 0.90652 0.0
C2366 C 0.23304 0.40605 0.01119 0.0
C2367 C 0.23606 0.40076 0.05003 0.0
C2368 C 0.2423 0.40809 0.09086 0.0
C2369 C 0.2462 0.42105 0.09066 0.0
C2370 C 0.24299 0.42632 0.05196 0.0
H2371 H 0.24515 0.42497 0.86965 0.0
H2372 H 0.25078 0.42522 0.93054 0.0
H2373 H 0.23907 0.41057 0.90357 0.0
H2374 H 0.22752 0.39999 0.98153 0.0
H2375 H 0.23297 0.39077 0.04911 0.0
H2376 H 0.60779 0.77514 0.89038 0.0
H2377 H 0.59999 0.78578 0.94316 0.0
H2378 H 0.56427 0.76762 0.86829 0.0
H2379 H 0.57194 0.75667 0.81552 0.0
H2380 H 0.58018 0.79723 0.87702 0.0
H2381 H 0.56971 0.77033 0.04926 0.0
H2382 H 0.58378 0.77284 0.01857 0.0
H2383 H 0.56865 0.76327 0.9905 0.0
C2384 C 0.5982 0.77323 0.88563 0.0
C2385 C 0.59049 0.76511 0.8488 0.0
C2386 C 0.59375 0.77927 0.91587 0.0
C2387 C 0.58157 0.77742 0.90954 0.0
C2388 C 0.57367 0.76907 0.87376 0.0
H2389 H 0.5723 0.82336 0.13006 0.0
H2390 H 0.5642 0.8074 0.06582 0.0
C2391 C 0.57805 0.76281 0.84388 0.0
C2392 C 0.57782 0.78522 0.93798 0.0
H2393 H 0.57526 0.79212 0.05555 0.0
C2394 C 0.57869 0.79596 0.91588 0.0
C2395 C 0.57574 0.78342 0.98839 0.0
C2396 C 0.5743 0.77178 0.01319 0.0
C2397 C 0.57879 0.80559 0.94385 0.0
C2398 C 0.57809 0.8044 0.99489 0.0
C2399 C 0.57589 0.79306 0.01637 0.0
C2400 C 0.58191 0.81541 0.02696 0.0
C2401 C 0.58039 0.81727 0.91889 0.0
C2402 C 0.59446 0.82535 0.02563 0.0
C2403 C 0.59916 0.83437 0.06248 0.0
C2404 C 0.59137 0.83363 0.10126 0.0
C2405 C 0.57854 0.82421 0.1006 0.0
C2406 C 0.57388 0.81507 0.06396 0.0
H2407 H 0.57651 0.81511 0.88146 0.0
H2408 H 0.57567 0.82156 0.93947 0.0
H2409 H 0.59061 0.82433 0.91628 0.0
H2410 H 0.60087 0.82566 -0.00213 0.0
H2411 H 0.60906 0.84155 0.06185 0.0
H2412 H 0.22688 0.83532 0.89801 0.0
H2413 H 0.21689 0.81731 0.95309 0.0
H2414 H 0.23319 0.79863 0.87327 0.0
H2415 H 0.24348 0.81683 0.81814 0.0
H2416 H 0.20521 0.78505 0.88505 0.0
H2417 H 0.23108 0.80252 0.05833 0.0
H2418 H 0.22796 0.81378 0.02873 0.0
H2419 H 0.23813 0.80902 1e-05 0.0
C2420 C 0.22855 0.8275 0.8927 0.0
C2421 C 0.2359 0.82744 0.8537 0.0
C2422 C 0.22291 0.81726 0.92436 0.0
C2423 C 0.2244 0.80672 0.91735 0.0
C2424 C 0.23205 0.80675 0.87941 0.0
H2425 H 0.17744 0.75125 0.13689 0.0
H2426 H 0.19427 0.75985 0.07587 0.0
C2427 C 0.23792 0.81714 0.84811 0.0
C2428 C 0.21666 0.79527 0.9465 0.0
H2429 H 0.20908 0.78629 0.06431 0.0
C2430 C 0.20623 0.78508 0.92415 0.0
C2431 C 0.21812 0.79526 -0.00273 0.0
C2432 C 0.2295 0.80568 0.02254 0.0
C2433 C 0.19654 0.77555 0.95193 0.0
C2434 C 0.19734 0.77634 0.00305 0.0
C2435 C 0.20841 0.78577 0.02506 0.0
C2436 C 0.18615 0.76901 0.03416 0.0
C2437 C 0.1852 0.76513 0.92651 0.0
C2438 C 0.17593 0.77114 0.0303 0.0
C2439 C 0.16641 0.7664 0.06527 0.0
C2440 C 0.16693 0.7594 0.10472 0.0
C2441 C 0.17676 0.75658 0.10683 0.0
C2442 C 0.18638 0.76148 0.07207 0.0
H2443 H 0.18773 0.76334 0.88983 0.0
H2444 H 0.18099 0.75623 0.9478 0.0
H2445 H 0.17796 0.76799 0.92203 0.0
H2446 H 0.17569 0.77713 0.00181 0.0
H2447 H 0.15894 0.76868 0.06251 0.0
H2448 H 0.38658 0.11625 0.8654 0.0
H2449 H 0.36682 0.10343 0.91025 0.0
H2450 H 0.34576 0.10637 0.79035 0.0
H2451 H 0.36539 0.11943 0.74641 0.0
H2452 H 0.34089 0.11438 0.87312 0.0
H2453 H 0.33685 0.06763 0.90331 0.0
H2454 H 0.35169 0.08076 0.92204 0.0
H2455 H 0.34744 0.07876 0.85892 0.0
C2456 C 0.37769 0.11387 0.8483 0.0
C2457 C 0.37748 0.11888 0.80268 0.0
C2458 C 0.36641 0.10651 0.8738 0.0
C2459 C 0.35479 0.10388 0.85353 0.0
C2460 C 0.3546 0.10828 0.80672 0.0
H2461 H 0.27795 0.06212 0.9684 0.0
H2462 H 0.29732 0.06811 0.922 0.0
C2463 C 0.36582 0.11575 0.78169 0.0
C2464 C 0.34304 0.09807 0.88285 0.0
H2465 H 0.32277 0.07199 0.9486 0.0
C2466 C 0.3369 0.10507 0.88927 0.0
C2467 C 0.33781 0.0859 0.90375 0.0
C2468 C 0.34371 0.07775 0.89637 0.0
C2469 C 0.32577 0.10032 0.91632 0.0
C2470 C 0.32076 0.08836 0.93862 0.0
C2471 C 0.32673 0.08121 0.93172 0.0
C2472 C 0.30945 0.08342 0.96997 0.0
C2473 C 0.31941 0.10816 0.92063 0.0
C2474 C 0.31 0.0898 0.0129 0.0
C2475 C 0.29902 0.08651 0.039 0.0
C2476 C 0.28729 0.07667 0.02292 0.0
C2477 C 0.28686 0.06976 0.98151 0.0
C2478 C 0.29789 0.07314 0.9551 0.0
H2479 H 0.32265 0.11554 0.89203 0.0
H2480 H 0.30899 0.10213 0.91815 0.0
H2481 H 0.32173 0.11296 0.95641 0.0
H2482 H 0.31887 0.09767 0.02521 0.0
H2483 H 0.29968 0.09191 0.0711 0.0
H2484 H 0.90353 0.20122 0.04229 0.0
H2485 H 0.8989 0.21567 -0.00147 0.0
H2486 H 0.9365 0.23441 0.93816 0.0
H2487 H 0.94102 0.21943 0.98055 0.0
H2488 H 0.90872 0.24045 0.00185 0.0
H2489 H 0.91581 0.22671 0.81708 0.0
H2490 H 0.91553 0.21809 0.87051 0.0
H2491 H 0.9293 0.23297 0.85642 0.0
C2492 C 0.91083 0.20837 0.01959 0.0
C2493 C 0.9226 0.20908 0.01441 0.0
C2494 C 0.90819 0.21669 0.99474 0.0
C2495 C 0.91728 0.22605 0.96449 0.0
C2496 C 0.92922 0.22709 0.96036 0.0
H2497 H 0.88847 0.27428 0.84345 0.0
H2498 H 0.90327 0.26936 0.88509 0.0
C2499 C 0.93182 0.21857 0.98479 0.0
C2500 C 0.91384 0.23433 0.93683 0.0
H2501 H 0.90811 0.24074 0.82214 0.0
C2502 C 0.90872 0.24066 0.96251 0.0
C2503 C 0.91388 0.23462 0.8855 0.0
C2504 C 0.91883 0.22767 0.8556 0.0
C2505 C 0.90282 0.24645 0.93849 0.0
C2506 C 0.90244 0.24632 0.88717 0.0
C2507 C 0.9084 0.24082 0.86147 0.0
C2508 C 0.89435 0.25003 0.85965 0.0
C2509 C 0.89626 0.25181 0.96841 0.0
C2510 C 0.88475 0.24099 0.83007 0.0
C2511 C 0.87652 0.24385 0.80567 0.0
C2512 C 0.87758 0.25578 0.81062 0.0
C2513 C 0.88735 0.26496 0.8394 0.0
C2514 C 0.89576 0.26214 0.86341 0.0
H2515 H 0.89533 0.2489 0.00707 0.0
H2516 H 0.90181 0.26227 0.96705 0.0
H2517 H 0.88668 0.24873 0.9539 0.0
H2518 H 0.88344 0.23158 0.82656 0.0
H2519 H 0.86917 0.23657 0.78356 0.0
H2520 H 0.75673 0.63185 0.75504 0.0
H2521 H 0.76254 0.65095 0.8016 0.0
H2522 H 0.73254 0.62936 0.90315 0.0
H2523 H 0.72653 0.61004 0.85622 0.0
H2524 H 0.73789 0.65625 0.87272 0.0
H2525 H 0.7787 0.65252 0.94055 0.0
H2526 H 0.77651 0.65125 0.87588 0.0
H2527 H 0.76485 0.63928 0.91458 0.0
C2528 C 0.75121 0.63116 0.78683 0.0
C2529 C 0.74127 0.61943 0.80237 0.0
C2530 C 0.75453 0.64209 0.81326 0.0
C2531 C 0.74803 0.64151 0.85589 0.0
C2532 C 0.73763 0.62996 0.87019 0.0
H2533 H 0.78612 0.69866 0.07514 0.0
H2534 H 0.77218 0.67875 0.0344 0.0
C2535 C 0.73424 0.61896 0.84347 0.0
C2536 C 0.75311 0.65271 0.88775 0.0
H2537 H 0.77893 0.67163 0.95635 0.0
C2538 C 0.74679 0.65959 0.89155 0.0
C2539 C 0.76464 0.65692 0.91253 0.0
C2540 C 0.77156 0.64958 0.91117 0.0
C2541 C 0.75193 0.67085 0.91866 0.0
C2542 C 0.76378 0.67535 0.94168 0.0
C2543 C 0.76988 0.66823 0.93866 0.0
C2544 C 0.77025 0.68744 0.96896 0.0
C2545 C 0.74462 0.67773 0.9226 0.0
C2546 C 0.77354 0.699 0.94635 0.0
C2547 C 0.78137 0.71045 0.97011 0.0
C2548 C 0.78624 0.71046 0.01625 0.0
C2549 C 0.78256 0.69891 0.03942 0.0
C2550 C 0.77458 0.68753 0.01619 0.0
H2551 H 0.73437 0.67127 0.91631 0.0
H2552 H 0.7459 0.6822 0.95877 0.0
H2553 H 0.74805 0.68525 0.89459 0.0
H2554 H 0.77059 0.69921 0.90951 0.0
H2555 H 0.78417 0.71925 0.95137 0.0
H2556 H 0.13092 0.36793 0.70847 0.0
H2557 H 0.11642 0.34891 0.66491 0.0
H2558 H 0.09621 0.3671 0.61259 0.0
H2559 H 0.11129 0.38663 0.6547 0.0
H2560 H 0.09196 0.33344 0.672 0.0
H2561 H 0.10286 0.3548 0.48752 0.0
H2562 H 0.11198 0.36319 0.53999 0.0
H2563 H 0.09673 0.36158 0.52969 0.0
C2564 C 0.12345 0.36798 0.68757 0.0
C2565 C 0.12236 0.37886 0.68453 0.0
C2566 C 0.11509 0.35702 0.66283 0.0
C2567 C 0.10529 0.35657 0.63488 0.0
C2568 C 0.10388 0.3673 0.63296 0.0
H2569 H 0.05684 0.27953 0.51574 0.0
H2570 H 0.06219 0.2991 0.5593 0.0
C2571 C 0.11244 0.37842 0.65725 0.0
C2572 C 0.09694 0.34484 0.60742 0.0
H2573 H 0.08936 0.33295 0.49259 0.0
C2574 C 0.09125 0.33332 0.63276 0.0
C2575 C 0.09602 0.34471 0.55623 0.0
C2576 C 0.10228 0.3567 0.52658 0.0
C2577 C 0.0855 0.32169 0.60834 0.0
C2578 C 0.08493 0.32156 0.55704 0.0
C2579 C 0.08981 0.33307 0.53189 0.0
C2580 C 0.08095 0.30985 0.5285 0.0
C2581 C 0.08093 0.30975 0.63767 0.0
C2582 C 0.08946 0.30951 0.49522 0.0
C2583 C 0.08631 0.2985 0.46961 0.0
C2584 C 0.07463 0.28749 0.47711 0.0
C2585 C 0.06597 0.28784 0.5097 0.0
C2586 C 0.06905 0.29899 0.5348 0.0
H2587 H 0.0846 0.31175 0.67542 0.0
H2588 H 0.07047 0.30469 0.63952 0.0
H2589 H 0.08385 0.30339 0.6206 0.0
H2590 H 0.09869 0.31773 0.48967 0.0
H2591 H 0.09317 0.29858 0.44461 0.0
H2592 H 0.69923 0.79418 0.42779 0.0
H2593 H 0.68003 0.78108 0.47411 0.0
H2594 H 0.70058 0.76972 0.56904 0.0
H2595 H 0.71996 0.78279 0.52222 0.0
H2596 H 0.67459 0.74965 0.54085 0.0
H2597 H 0.67749 0.79345 0.61267 0.0
H2598 H 0.6782 0.79287 0.54771 0.0
H2599 H 0.69068 0.79334 0.58375 0.0
C2600 C 0.69966 0.78879 0.45816 0.0
C2601 C 0.71113 0.78962 0.47179 0.0
C2602 C 0.68868 0.78131 0.48454 0.0
C2603 C 0.68895 0.7746 0.5253 0.0
C2604 C 0.70022 0.77487 0.53767 0.0
H2605 H 0.63258 0.7529 0.74968 0.0
H2606 H 0.65229 0.75974 0.70599 0.0
C2607 C 0.71126 0.78234 0.511 0.0
C2608 C 0.67769 0.76822 0.55683 0.0
H2609 H 0.65849 0.7743 0.62754 0.0
C2610 C 0.67109 0.75499 0.56022 0.0
C2611 C 0.67327 0.77526 0.58242 0.0
C2612 C 0.68032 0.78952 0.58195 0.0
C2613 C 0.65992 0.74859 0.58767 0.0
C2614 C 0.65523 0.75564 0.61164 0.0
C2615 C 0.66204 0.76888 0.60899 0.0
C2616 C 0.64332 0.74969 0.63993 0.0
C2617 C 0.65333 0.73439 0.59112 0.0
C2618 C 0.63169 0.74149 0.61774 0.0
C2619 C 0.62035 0.73743 0.64298 0.0
C2620 C 0.62052 0.74172 0.6904 0.0
C2621 C 0.63217 0.74952 0.71304 0.0
C2622 C 0.64344 0.75342 0.68814 0.0
H2623 H 0.65985 0.73078 0.58278 0.0
H2624 H 0.64928 0.73109 0.62784 0.0
H2625 H 0.6455 0.73024 0.56442 0.0
H2626 H 0.63133 0.73871 0.58023 0.0
H2627 H 0.61149 0.73149 0.62459 0.0
H2628 H 0.21447 0.93664 0.52689 0.0
H2629 H 0.22782 0.93039 0.57192 0.0
H2630 H 0.2181 0.90003 0.47049 0.0
H2631 H 0.20467 0.90604 0.42618 0.0
H2632 H 0.21347 0.89218 0.5652 0.0
H2633 H 0.26212 0.93285 0.54381 0.0
H2634 H 0.25054 0.93674 0.56461 0.0
H2635 H 0.24924 0.93043 0.50473 0.0
C2636 C 0.21538 0.92879 0.51382 0.0
C2637 C 0.20847 0.92177 0.47328 0.0
C2638 C 0.22306 0.92527 0.53938 0.0
C2639 C 0.22401 0.9148 0.52431 0.0
C2640 C 0.2175 0.90814 0.4827 0.0
H2641 H 0.26801 0.88138 0.62516 0.0
H2642 H 0.2602 0.89341 0.57991 0.0
C2643 C 0.20981 0.91158 0.45748 0.0
C2644 C 0.23065 0.90985 0.55416 0.0
H2645 H 0.25948 0.91661 0.59821 0.0
C2646 C 0.22353 0.89753 0.57239 0.0
C2647 C 0.24379 0.91682 0.56309 0.0
C2648 C 0.25193 0.92991 0.54276 0.0
C2649 C 0.22916 0.89195 0.59929 0.0
C2650 C 0.24225 0.899 0.60924 0.0
C2651 C 0.24943 0.9113 0.59083 0.0
C2652 C 0.24848 0.89353 0.6385 0.0
C2653 C 0.22108 0.87846 0.61608 0.0
C2654 C 0.24481 0.89004 0.6868 0.0
C2655 C 0.24913 0.8831 0.71236 0.0
C2656 C 0.25734 0.87968 0.6903 0.0
C2657 C 0.26168 0.88389 0.64299 0.0
C2658 C 0.25725 0.89077 0.61718 0.0
H2659 H 0.21207 0.87346 0.59555 0.0
H2660 H 0.22617 0.87312 0.61206 0.0
H2661 H 0.21874 0.8784 0.655 0.0
H2662 H 0.2382 0.89226 0.70409 0.0
H2663 H 0.24574 0.8801 0.74898 0.0
H2664 H 0.69822 0.90784 0.91363 0.0
H2665 H 0.67848 0.90198 0.95538 0.0
H2666 H 0.6989 0.93007 0.06506 0.0
H2667 H 0.71881 0.93622 0.02252 0.0
H2668 H 0.67407 0.89219 0.04609 0.0
H2669 H 0.66808 0.9343 0.04107 0.0
H2670 H 0.67869 0.93241 0.00091 0.0
H2671 H 0.6832 0.93731 0.06262 0.0
C2672 C 0.6985 0.91295 0.94616 0.0
C2673 C 0.71005 0.92242 0.96507 0.0
C2674 C 0.68721 0.9096 0.9699 0.0
C2675 C 0.68719 0.91562 0.01317 0.0
C2676 C 0.69866 0.92546 0.03121 0.0
H2677 H 0.63234 0.87917 0.23796 0.0
H2678 H 0.65148 0.89204 0.19089 0.0
C2679 C 0.71003 0.92891 0.00709 0.0
C2680 C 0.6754 0.91042 0.04196 0.0
H2681 H 0.65421 0.91744 0.09339 0.0
C2682 C 0.6697 0.89772 0.05613 0.0
C2683 C 0.66968 0.91761 0.05476 0.0
C2684 C 0.67514 0.93114 0.03874 0.0
C2685 C 0.65853 0.89202 0.08317 0.0
C2686 C 0.65302 0.89929 0.09741 0.0
C2687 C 0.65855 0.91195 0.08267 0.0
C2688 C 0.64168 0.89376 0.12869 0.0
C2689 C 0.65268 0.87821 0.09619 0.0
C2690 C 0.62988 0.89102 0.11011 0.0
C2691 C 0.61888 0.88373 0.13726 0.0
C2692 C 0.61961 0.87906 0.18299 0.0
C2693 C 0.63151 0.88253 0.20255 0.0
C2694 C 0.64245 0.88989 0.17579 0.0
H2695 H 0.65628 0.8733 0.07282 0.0
H2696 H 0.65503 0.87737 0.13437 0.0
H2697 H 0.64223 0.87331 0.09286 0.0
H2698 H 0.62914 0.89394 0.07374 0.0
H2699 H 0.6098 0.88116 0.12139 0.0
H2700 H 0.12637 0.7371 0.10265 0.0
H2701 H 0.1132 0.7437 0.05824 0.0
H2702 H 0.09631 0.7456 0.19311 0.0
H2703 H 0.10996 0.73975 0.23744 0.0
H2704 H 0.08829 0.73631 0.04648 0.0
H2705 H 0.11249 0.78153 0.14784 0.0
H2706 H 0.11754 0.77001 0.15096 0.0
H2707 H 0.10438 0.76808 0.18684 0.0
C2708 C 0.11961 0.73864 0.12243 0.0
C2709 C 0.11914 0.73801 0.17323 0.0
C2710 C 0.11213 0.74245 0.09718 0.0
C2711 C 0.10403 0.7455 0.12256 0.0
C2712 C 0.10277 0.74369 0.17297 0.0
H2713 H 0.06229 0.78285 0.0315 0.0
H2714 H 0.06827 0.76893 0.07387 0.0
C2715 C 0.11046 0.74023 0.19819 0.0
C2716 C 0.0978 0.75163 0.09723 0.0
H2717 H 0.09572 0.77848 0.09666 0.0
C2718 C 0.08988 0.74551 0.0575 0.0
C2719 C 0.10002 0.76373 0.11132 0.0
C2720 C 0.10917 0.77128 0.15122 0.0
C2721 C 0.08406 0.75115 0.03176 0.0
C2722 C 0.08619 0.76313 0.04633 0.0
C2723 C 0.09397 0.76918 0.08622 0.0
C2724 C 0.08135 0.77014 0.01841 0.0
C2725 C 0.07572 0.74433 0.98905 0.0
C2726 C 0.08674 0.77538 0.9734 0.0
C2727 C 0.08349 0.78342 0.94959 0.0
C2728 C 0.07474 0.78632 0.97029 0.0
C2729 C 0.06903 0.78074 0.01467 0.0
C2730 C 0.07241 0.77279 0.03881 0.0
H2731 H 0.07305 0.73421 0.98817 0.0
H2732 H 0.06699 0.74501 0.99 0.0
H2733 H 0.08082 0.74885 0.955 0.0
H2734 H 0.09381 0.7736 0.95751 0.0
H2735 H 0.08803 0.78757 0.91538 0.0
H2736 H 0.2356 0.36542 0.20776 0.0
H2737 H 0.23164 0.34625 0.1665 0.0
H2738 H 0.26967 0.36532 0.11048 0.0
H2739 H 0.27363 0.38489 0.15096 0.0
H2740 H 0.25338 0.35239 0.04097 0.0
H2741 H 0.24169 0.32062 0.19752 0.0
H2742 H 0.23227 0.32805 0.20003 0.0
H2743 H 0.24923 0.33754 0.20449 0.0
C2744 C 0.2432 0.36557 0.18705 0.0
C2745 C 0.25494 0.37668 0.18266 0.0
C2746 C 0.24095 0.35451 0.16389 0.0
C2747 C 0.25045 0.3542 0.13644 0.0
C2748 C 0.26225 0.36529 0.13202 0.0
H2749 H 0.21932 0.27768 0.01373 0.0
H2750 H 0.23488 0.29706 0.05537 0.0
C2751 C 0.26449 0.37645 0.15507 0.0
C2752 C 0.24747 0.34254 0.10928 0.0
H2753 H 0.23113 0.31047 0.12116 0.0
C2754 C 0.24881 0.34324 0.05864 0.0
C2755 C 0.24186 0.33057 0.13216 0.0
C2756 C 0.24133 0.32918 0.18661 0.0
C2757 C 0.24358 0.33227 0.03011 0.0
C2758 C 0.2365 0.32032 0.05275 0.0
C2759 C 0.23627 0.31961 0.10357 0.0
C2760 C 0.22796 0.30877 0.02474 0.0
C2761 C 0.24536 0.33363 0.97586 0.0
C2762 C 0.21884 0.30886 0.99419 0.0
C2763 C 0.21006 0.29791 0.97037 0.0
C2764 C 0.21002 0.28651 0.97717 0.0
C2765 C 0.21914 0.28635 0.00775 0.0
C2766 C 0.22804 0.2974 0.03145 0.0
H2767 H 0.25463 0.34198 0.96656 0.0
H2768 H 0.24481 0.32511 0.95916 0.0
H2769 H 0.23792 0.33516 0.95975 0.0
H2770 H 0.21826 0.31736 0.9897 0.0
H2771 H 0.20313 0.29837 0.9473 0.0
H2772 H 0.86822 0.6318 0.28379 0.0
H2773 H 0.88349 0.65091 0.325 0.0
H2774 H 0.90271 0.63186 0.37862 0.0
H2775 H 0.887 0.61231 0.33821 0.0
H2776 H 0.8996 0.64481 0.44897 0.0
H2777 H 0.919 0.67651 0.29194 0.0
H2778 H 0.90215 0.66906 0.29033 0.0
H2779 H 0.90962 0.65958 0.28515 0.0
C2780 C 0.87573 0.63163 0.30397 0.0
C2781 C 0.87641 0.62053 0.3077 0.0
C2782 C 0.88458 0.64266 0.32711 0.0
C2783 C 0.89448 0.64296 0.35381 0.0
C2784 C 0.89524 0.63189 0.35763 0.0
H2785 H 0.94049 0.71959 0.47312 0.0
H2786 H 0.93615 0.7001 0.43118 0.0
C2787 C 0.88627 0.62074 0.33462 0.0
C2788 C 0.90324 0.65462 0.38069 0.0
H2789 H 0.91878 0.68667 0.3685 0.0
C2790 C 0.90408 0.65396 0.43125 0.0
C2791 C 0.90947 0.66658 0.35768 0.0
C2792 C 0.91013 0.66794 0.30321 0.0
C2793 C 0.90991 0.66495 0.45967 0.0
C2794 C 0.91462 0.67687 0.43701 0.0
C2795 C 0.91489 0.67755 0.38617 0.0
C2796 C 0.91793 0.68849 0.4651 0.0
C2797 C 0.91063 0.6636 0.5138 0.0
C2798 C 0.90911 0.68851 0.49763 0.0
C2799 C 0.91162 0.69953 0.52183 0.0
C2800 C 0.92289 0.71089 0.51324 0.0
C2801 C 0.93172 0.71096 0.48044 0.0
C2802 C 0.92926 0.69983 0.45658 0.0
H2803 H 0.91167 0.6553 0.5226 0.0
H2804 H 0.91866 0.67215 0.53009 0.0
H2805 H 0.90172 0.66202 0.53077 0.0
H2806 H 0.90009 0.68004 0.5035 0.0
H2807 H 0.90457 0.69917 0.54657 0.0
H2808 H 0.29934 0.21452 0.57566 0.0
H2809 H 0.31873 0.22673 0.52924 0.0
H2810 H 0.29688 0.22513 0.40383 0.0
H2811 H 0.27736 0.21315 0.45083 0.0
H2812 H 0.32435 0.21734 0.45148 0.0
H2813 H 0.32528 0.26172 0.40065 0.0
H2814 H 0.31509 0.25134 0.44768 0.0
H2815 H 0.31087 0.24764 0.38492 0.0
C2816 C 0.29867 0.21698 0.53845 0.0
C2817 C 0.28686 0.21286 0.51672 0.0
C2818 C 0.30976 0.22396 0.512 0.0
C2819 C 0.30927 0.22691 0.46316 0.0
C2820 C 0.2975 0.22319 0.44175 0.0
H2821 H 0.36513 0.23861 0.24847 0.0
H2822 H 0.34578 0.23229 0.29426 0.0
C2823 C 0.28635 0.2163 0.46851 0.0
C2824 C 0.321 0.23259 0.4338 0.0
H2825 H 0.34013 0.2575 0.36067 0.0
C2826 C 0.32782 0.22617 0.43191 0.0
C2827 C 0.32555 0.24413 0.40846 0.0
C2828 C 0.31889 0.25169 0.41078 0.0
C2829 C 0.33898 0.23087 0.40499 0.0
C2830 C 0.34333 0.24219 0.37852 0.0
C2831 C 0.33667 0.24877 0.38082 0.0
C2832 C 0.35471 0.2471 0.3478 0.0
C2833 C 0.34609 0.22373 0.40514 0.0
C2834 C 0.36604 0.25774 0.36215 0.0
C2835 C 0.37717 0.26137 0.33609 0.0
C2836 C 0.37705 0.2544 0.29534 0.0
C2837 C 0.36555 0.2441 0.27992 0.0
C2838 C 0.35448 0.24049 0.30594 0.0
H2839 H 0.34291 0.21664 0.43484 0.0
H2840 H 0.34452 0.21868 0.37012 0.0
H2841 H 0.35639 0.23032 0.40909 0.0
H2842 H 0.36637 0.26293 0.39448 0.0
H2843 H 0.38589 0.26937 0.34871 0.0
H2844 H 0.77594 0.0573 0.48105 0.0
H2845 H 0.76109 0.06203 0.43878 0.0
H2846 H 0.77888 0.0989 0.50533 0.0
H2847 H 0.79318 0.09405 0.54893 0.0
H2848 H 0.75399 0.08881 0.50502 0.0
H2849 H 0.77 0.0841 0.3211 0.0
H2850 H 0.7634 0.0702 0.35834 0.0
H2851 H 0.77807 0.08385 0.37538 0.0
C2852 C 0.7766 0.06638 0.48671 0.0
C2853 C 0.78581 0.07535 0.51791 0.0
C2854 C 0.76817 0.06909 0.46238 0.0
C2855 C 0.769 0.08091 0.4682 0.0
C2856 C 0.77802 0.08972 0.50021 0.0
H2857 H 0.76201 0.13194 0.29472 0.0
H2858 H 0.76586 0.11678 0.33685 0.0
C2859 C 0.78627 0.08695 0.52495 0.0
C2860 C 0.76096 0.0846 0.44015 0.0
H2861 H 0.75617 0.09201 0.32572 0.0
C2862 C 0.75429 0.08936 0.46573 0.0
C2863 C 0.76134 0.08524 0.38887 0.0
C2864 C 0.76865 0.08067 0.35916 0.0
C2865 C 0.74887 0.09564 0.44186 0.0
C2866 C 0.74977 0.09681 0.39075 0.0
C2867 C 0.75553 0.09112 0.36491 0.0
C2868 C 0.74678 0.10555 0.36411 0.0
C2869 C 0.7431 0.10178 0.4719 0.0
C2870 C 0.73472 0.10432 0.36508 0.0
C2871 C 0.73253 0.11323 0.34153 0.0
C2872 C 0.74233 0.12335 0.31606 0.0
C2873 C 0.75426 0.12431 0.31418 0.0
C2874 C 0.75646 0.11558 0.33809 0.0
H2875 H 0.74521 0.1019 0.51115 0.0
H2876 H 0.74661 0.11165 0.45984 0.0
H2877 H 0.7327 0.09646 0.46737 0.0
H2878 H 0.72702 0.09652 0.38408 0.0
H2879 H 0.72321 0.11219 0.34317 0.0
H2880 H 0.94504 0.39193 0.31454 0.0
H2881 H 0.96499 0.39695 0.2747 0.0
H2882 H 0.98237 0.43475 0.3328 0.0
H2883 H 0.96285 0.42964 0.37409 0.0
H2884 H 0.97787 0.41309 0.20701 0.0
H2885 H 0.00882 0.4264 0.36675 0.0
H2886 H 0.99186 0.41852 0.37228 0.0
H2887 H 0.00103 0.43549 0.36641 0.0
C2888 C 0.95319 0.40125 0.31913 0.0
C2889 C 0.95241 0.41036 0.34765 0.0
C2890 C 0.96457 0.40411 0.29645 0.0
C2891 C 0.97531 0.41613 0.3018 0.0
C2892 C 0.97441 0.42526 0.32959 0.0
H2893 H 0.03344 0.46106 0.10779 0.0
H2894 H 0.01396 0.44745 0.15105 0.0
C2895 C 0.96315 0.42237 0.35276 0.0
C2896 C 0.98727 0.4196 0.27589 0.0
H2897 H 0.01925 0.43632 0.29044 0.0
C2898 C 0.98691 0.41793 0.22543 0.0
C2899 C -0.0009 0.42556 0.29983 0.0
C2900 C 0.0002 0.42644 0.35438 0.0
C2901 C 0.99804 0.42295 0.19795 0.0
C2902 C 0.00984 0.43024 0.22136 0.0
C2903 C 0.01022 0.43101 0.27219 0.0
C2904 C 0.0217 0.43805 0.19379 0.0
C2905 C 0.997 0.42051 0.14404 0.0
C2906 C 0.03277 0.43773 0.20465 0.0
C2907 C 0.0441 0.44581 0.18069 0.0
C2908 C 0.04451 0.4543 0.14537 0.0
C2909 C 0.03343 0.45456 0.1345 0.0
C2910 C 0.0222 0.44665 0.15886 0.0
H2911 H 0.98863 0.4112 0.13545 0.0
H2912 H 0.99573 0.42784 0.12535 0.0
H2913 H 0.00555 0.42071 0.12931 0.0
H2914 H 0.03266 0.43128 0.23185 0.0
H2915 H 0.05251 0.44542 0.18981 0.0
H2916 H 0.54162 0.57549 0.08993 0.0
H2917 H 0.55406 0.56899 0.13857 0.0
H2918 H 0.56085 0.59768 0.24424 0.0
H2919 H 0.54832 0.60431 0.19553 0.0
H2920 H 0.58308 0.59318 0.21288 0.0
H2921 H 0.5386 0.55134 0.27599 0.0
H2922 H 0.5399 0.55439 0.21179 0.0
H2923 H 0.53909 0.56539 0.25265 0.0
C2924 C 0.54586 0.58053 0.12324 0.0
C2925 C 0.54389 0.59033 0.1392 0.0
C2926 C 0.55299 0.57682 0.15087 0.0
C2927 C 0.55828 0.58282 0.19496 0.0
C2928 C 0.55684 0.59297 0.21015 0.0
H2929 H 0.57849 0.54673 0.41902 0.0
H2930 H 0.57173 0.55965 0.37516 0.0
C2931 C 0.54966 0.59672 0.18241 0.0
C2932 C 0.56438 0.57768 0.22666 0.0
H2933 H 0.55765 0.55184 0.29504 0.0
C2934 C 0.57757 0.5842 0.23128 0.0
C2935 C 0.55711 0.56603 0.25073 0.0
C2936 C 0.54287 0.55887 0.24802 0.0
C2937 C 0.58372 0.57917 0.25875 0.0
C2938 C 0.57645 0.56727 0.28149 0.0
C2939 C 0.56323 0.56094 0.27751 0.0
C2940 C 0.58216 0.56107 0.30979 0.0
C2941 C 0.59789 0.58666 0.26349 0.0
C2942 C 0.5905 0.55777 0.28799 0.0
C2943 C 0.59451 0.55046 0.31331 0.0
C2944 C 0.59004 0.54618 0.36044 0.0
C2945 C 0.58203 0.54984 0.38262 0.0
C2946 C 0.57817 0.55724 0.35763 0.0
H2947 H 0.60162 0.59685 0.25603 0.0
H2948 H 0.60095 0.58564 0.30033 0.0
H2949 H 0.60216 0.5831 0.23678 0.0
H2950 H 0.59348 0.56037 0.25074 0.0
H2951 H 0.60061 0.54769 0.29526 0.0
H2952 H 0.42727 0.96258 0.11297 0.0
H2953 H 0.43293 0.98204 0.15604 0.0
H2954 H 0.39568 0.96471 0.21932 0.0
H2955 H 0.39017 0.94482 0.17792 0.0
H2956 H 0.42433 0.99776 0.15244 0.0
H2957 H 0.41662 0.97772 0.33871 0.0
H2958 H 0.41618 0.96882 0.28599 0.0
H2959 H 0.40293 0.9708 0.30041 0.0
C2960 C 0.42028 0.96285 0.1362 0.0
C2961 C 0.40831 0.95213 0.14247 0.0
C2962 C 0.42351 0.97403 0.16069 0.0
C2963 C 0.41481 0.97484 0.1915 0.0
C2964 C 0.40268 0.96424 0.19678 0.0
H2965 H 0.44513 0.05265 0.30683 0.0
H2966 H 0.4305 0.03298 0.26456 0.0
C2967 C 0.39951 0.95291 0.17292 0.0
C2968 C 0.41879 0.98681 0.21826 0.0
H2969 H 0.42457 -0.00051 0.33202 0.0
C2970 C 0.42429 0.99815 0.19174 0.0
C2971 C 0.41868 0.9873 0.26955 0.0
C2972 C 0.41338 0.97554 0.30046 0.0
C2973 C 0.43046 0.00995 0.21495 0.0
C2974 C 0.43069 0.01043 0.26625 0.0
C2975 C 0.4244 0.9991 0.2927 0.0
C2976 C 0.43883 0.0223 0.29328 0.0
C2977 C 0.43739 0.0217 0.18424 0.0
C2978 C 0.44805 0.02274 0.32473 0.0
C2979 C 0.45615 0.03379 0.34957 0.0
C2980 C 0.45535 0.04476 0.34309 0.0
C2981 C 0.44604 0.04436 0.31204 0.0
C2982 C 0.43774 0.03315 0.2877 0.0
H2983 H 0.43851 0.01946 0.14612 0.0
H2984 H 0.432 0.02677 0.18375 0.0
H2985 H 0.44691 0.02815 0.19932 0.0
H2986 H 0.44912 0.01453 0.32964 0.0
H2987 H 0.46316 0.03374 0.37336 0.0
H2988 H 0.60342 0.05435 0.78309 0.0
H2989 H 0.59613 0.03449 0.73818 0.0
H2990 H 0.57261 0.01359 0.85926 0.0
H2991 H 0.57965 0.03323 0.90374 0.0
H2992 H 0.5946 0.00951 0.7638 0.0
H2993 H 0.54847 0.00747 0.74108 0.0
H2994 H 0.56269 0.02177 0.75801 0.0
H2995 H 0.55416 0.00968 0.80241 0.0
C2996 C 0.59687 0.04549 0.80032 0.0
C2997 C 0.59195 0.04532 0.84657 0.0
C2998 C 0.59275 0.03418 0.77475 0.0
C2999 C 0.58374 0.02264 0.79535 0.0
C3000 C 0.57947 0.02243 0.84264 0.0
H3001 H 0.54829 0.94411 0.7034 0.0
H3002 H 0.56211 0.96443 0.74341 0.0
C3003 C 0.58348 0.03366 0.86792 0.0
C3004 C 0.57776 0.01091 0.76627 0.0
H3005 H 0.54937 0.9893 0.71833 0.0
C3006 C 0.58474 0.0051 0.75345 0.0
C3007 C 0.56493 0.00528 0.75263 0.0
C3008 C 0.55712 0.0114 0.76381 0.0
C3009 C 0.5791 0.99357 0.72799 0.0
C3010 C 0.56615 0.98776 0.71573 0.0
C3011 C 0.55928 0.99374 0.728 0.0
C3012 C 0.55943 0.97565 0.68896 0.0
C3013 C 0.58702 0.9878 0.71392 0.0
C3014 C 0.55342 0.97524 0.64516 0.0
C3015 C 0.54544 0.96372 0.6229 0.0
C3016 C 0.54333 0.95235 0.6438 0.0
C3017 C 0.5498 0.95275 0.68646 0.0
C3018 C 0.55774 0.96435 0.70914 0.0
H3019 H 0.59727 0.99481 0.71558 0.0
H3020 H 0.58508 0.98 0.73937 0.0
H3021 H 0.58465 0.98381 0.67672 0.0
H3022 H 0.55457 0.98383 0.62898 0.0
H3023 H 0.54066 0.96372 0.5898 0.0
H3024 H 0.03353 0.57077 0.61862 0.0
H3025 H 0.01446 0.56661 0.66117 0.0
H3026 H 0.03438 0.60344 0.72773 0.0
H3027 H 0.05384 0.60756 0.68588 0.0
H3028 H 0.02085 0.58597 0.79306 0.0
H3029 H 0.98988 0.57845 0.6371 0.0
H3030 H 0.99681 0.56865 0.63026 0.0
H3031 H 0.00678 0.58561 0.63061 0.0
C3032 C 0.03389 0.57807 0.64197 0.0
C3033 C 0.0452 0.58951 0.64886 0.0
C3034 C 0.0229 0.57572 0.66589 0.0
C3035 C 0.02286 0.58484 0.69664 0.0
C3036 C 0.03415 0.59633 0.70364 0.0
H3037 H 0.94637 0.55476 0.81722 0.0
H3038 H 0.96621 0.57007 0.77775 0.0
C3039 C 0.04525 0.59867 0.67981 0.0
C3040 C 0.01123 0.58171 0.72421 0.0
H3041 H 0.97923 0.56667 0.71082 0.0
C3042 C 0.01177 0.58204 0.77507 0.0
C3043 C -0.00062 0.57694 0.701 0.0
C3044 C 0.99821 0.57755 0.64672 0.0
C3045 C 0.00071 0.57664 0.80313 0.0
C3046 C 0.98882 0.57039 0.77965 0.0
C3047 C 0.98832 0.57115 0.72897 0.0
C3048 C 0.977 0.56186 0.80624 0.0
C3049 C 0.00193 0.57743 0.85764 0.0
C3050 C 0.97641 0.55208 0.83484 0.0
C3051 C 0.96519 0.54346 0.85764 0.0
C3052 C 0.95419 0.54423 0.85152 0.0
C3053 C 0.9547 0.55394 0.82259 0.0
C3054 C 0.96603 0.5627 0.80014 0.0
H3055 H 0.01048 0.58633 0.86888 0.0
H3056 H 0.99354 0.57699 0.87512 0.0
H3057 H 0.00299 0.56947 0.87118 0.0
H3058 H 0.98457 0.5509 0.8387 0.0
H3059 H 0.9651 0.53604 0.87937 0.0
H3060 H 0.39422 0.44912 0.69325 0.0
H3061 H 0.40053 0.43617 0.74094 0.0
H3062 H 0.42832 0.44192 0.63256 0.0
H3063 H 0.42225 0.45493 0.58534 0.0
H3064 H 0.40397 0.41385 0.7171 0.0
H3065 H 0.44799 0.45847 0.76153 0.0
H3066 H 0.43416 0.45823 0.73733 0.0
H3067 H 0.44447 0.45582 0.6979 0.0
C3068 C 0.40151 0.44741 0.67926 0.0
C3069 C 0.40788 0.45316 0.63601 0.0
C3070 C 0.40507 0.44 0.70641 0.0
C3071 C 0.41497 0.43824 0.69039 0.0
C3072 C 0.42074 0.44329 0.64566 0.0
H3073 H 0.44985 0.39623 0.79876 0.0
H3074 H 0.43632 0.40231 0.75404 0.0
C3075 C 0.41727 0.45073 0.61884 0.0
C3076 C 0.42033 0.4324 0.72236 0.0
H3077 H 0.44718 0.43944 0.78422 0.0
C3078 C 0.41337 0.4194 0.73217 0.0
C3079 C 0.43254 0.43975 0.74227 0.0
C3080 C 0.44021 0.45386 0.73468 0.0
C3081 C 0.41848 0.4135 0.7607 0.0
C3082 C 0.43088 0.4208 0.77918 0.0
C3083 C 0.43769 0.43383 0.7699 0.0
C3084 C 0.43713 0.41539 0.80884 0.0
C3085 C 0.41056 0.39957 0.77127 0.0
C3086 C 0.44196 0.42061 0.85452 0.0
C3087 C 0.44982 0.41735 0.87944 0.0
C3088 C 0.45293 0.4087 0.85944 0.0
C3089 C 0.44752 0.40286 0.81505 0.0
C3090 C 0.43974 0.40628 0.78966 0.0
H3091 H 0.40035 0.39611 0.76559 0.0
H3092 H 0.41339 0.39428 0.74645 0.0
H3093 H 0.412 0.39745 0.80912 0.0
H3094 H 0.44008 0.42765 0.87001 0.0
H3095 H 0.4538 0.42192 0.91378 0.0
loop_
_geom_bond_atom_site_label_1
_geom_bond_atom_site_label_2
_geom_bond_distance
_geom_bond_site_symmetry_2
_ccdc_geom_bond_type
Co0 O1 2.216 . S
Co0 O2 2.091 . S
Co0 O4 2.004 1_554 S
Co0 O10 2.021 . S
Co0 O12 2.137 . S
Co0 O13 2.244 . S
O1 Co0 2.216 . S
O1 C8 1.247 . S
O2 Co0 2.091 . S
O2 C8 1.261 . S
C3 O12 1.247 . S
C3 O13 1.272 . S
O4 Co0 2.004 1_556 S
O4 C9 1.259 . S
Co5 O6 2.061 1_554 S
Co5 O11 2.052 . S
Co5 O13 2.135 . S
O6 Co5 2.061 1_556 S
O6 C9 1.235 . S
C7 O10 1.238 . S
C7 O11 1.241 . S
C8 O1 1.247 . S
C8 O2 1.261 . S
C9 O4 1.259 . S
C9 O6 1.235 . S
O10 Co0 2.021 . S
O10 C7 1.238 . S
O11 Co5 2.052 . S
O11 C7 1.241 . S
O12 Co0 2.137 . S
O12 C3 1.247 . S
O13 Co0 2.244 . S
O13 C3 1.272 . S
O13 Co5 2.135 . S
Co14 O15 2.216 . S
Co14 O16 2.091 . S
Co14 O18 2.004 1_554 S
Co14 O24 2.021 . S
Co14 O26 2.137 . S
Co14 O27 2.244 . S
O15 Co14 2.216 . S
O15 C22 1.247 . S
O16 Co14 2.091 . S
O16 C22 1.261 . S
C17 O26 1.247 . S
C17 O27 1.272 . S
O18 Co14 2.004 1_556 S
O18 C23 1.259 . S
Co19 O20 2.058 1_554 S
Co19 O25 2.052 . S
Co19 O27 2.135 . S
O20 Co19 2.058 1_556 S
O20 C23 1.237 . S
C21 O24 1.238 . S
C21 O25 1.241 . S
C22 O15 1.247 . S
C22 O16 1.261 . S
C23 O18 1.259 . S
C23 O20 1.237 . S
O24 Co14 2.021 . S
O24 C21 1.238 . S
O25 Co19 2.052 . S
O25 C21 1.241 . S
O26 Co14 2.137 . S
O26 C17 1.247 . S
O27 Co14 2.244 . S
O27 C17 1.272 . S
O27 Co19 2.135 . S
Co28 O29 2.216 . S
Co28 O30 2.091 . S
Co28 O32 2.004 1_554 S
Co28 O38 2.021 . S
Co28 O40 2.137 . S
Co28 O41 2.244 . S
O29 Co28 2.216 . S
O29 C36 1.247 . S
O30 Co28 2.091 . S
O30 C36 1.261 . S
C31 O40 1.247 . S
C31 O41 1.272 . S
O32 Co28 2.004 1_556 S
O32 C37 1.259 . S
Co33 O34 2.060 1_554 S
Co33 O39 2.052 . S
Co33 O41 2.135 . S
O34 Co33 2.060 1_556 S
O34 C37 1.235 . S
C35 O38 1.238 . S
C35 O39 1.241 . S
C36 O29 1.247 . S
C36 O30 1.261 . S
C37 O32 1.259 . S
C37 O34 1.235 . S
O38 Co28 2.021 . S
O38 C35 1.238 . S
O39 Co33 2.052 . S
O39 C35 1.241 . S
O40 Co28 2.137 . S
O40 C31 1.247 . S
O41 Co28 2.244 . S
O41 C31 1.272 . S
O41 Co33 2.135 . S
Co42 O43 2.216 . S
Co42 O44 2.091 . S
Co42 O46 2.004 . S
Co42 O52 2.021 . S
Co42 O54 2.137 . S
Co42 O55 2.244 . S
O43 Co42 2.216 . S
O43 C50 1.247 . S
O44 Co42 2.091 . S
O44 C50 1.261 . S
C45 O54 1.247 . S
C45 O55 1.272 . S
O46 Co42 2.004 . S
O46 C51 1.259 . S
Co47 O48 2.061 . S
Co47 O53 2.052 . S
Co47 O55 2.135 . S
O48 Co47 2.061 . S
O48 C51 1.235 . S
C49 O52 1.238 . S
C49 O53 1.241 . S
C50 O43 1.247 . S
C50 O44 1.261 . S
C51 O46 1.259 . S
C51 O48 1.235 . S
O52 Co42 2.021 . S
O52 C49 1.238 . S
O53 Co47 2.052 . S
O53 C49 1.241 . S
O54 Co42 2.137 . S
O54 C45 1.247 . S
O55 Co42 2.244 . S
O55 C45 1.272 . S
O55 Co47 2.135 . S
Co56 O57 2.216 . S
Co56 O58 2.091 . S
Co56 O60 2.004 . S
Co56 O66 2.021 . S
Co56 O68 2.137 . S
Co56 O69 2.244 . S
O57 Co56 2.216 . S
O57 C64 1.247 . S
O58 Co56 2.091 . S
O58 C64 1.261 . S
C59 O68 1.247 . S
C59 O69 1.272 . S
O60 Co56 2.004 . S
O60 C65 1.259 . S
Co61 O62 2.061 . S
Co61 O67 2.052 . S
Co61 O69 2.135 . S
O62 Co61 2.061 . S
O62 C65 1.235 . S
C63 O66 1.238 . S
C63 O67 1.241 . S
C64 O57 1.247 . S
C64 O58 1.261 . S
C65 O60 1.259 . S
C65 O62 1.235 . S
O66 Co56 2.021 . S
O66 C63 1.238 . S
O67 Co61 2.052 . S
O67 C63 1.241 . S
O68 Co56 2.137 . S
O68 C59 1.247 . S
O69 Co56 2.244 . S
O69 C59 1.272 . S
O69 Co61 2.135 . S
Co70 O71 2.216 . S
Co70 O72 2.091 . S
Co70 O74 2.004 . S
Co70 O80 2.021 . S
Co70 O82 2.137 . S
Co70 O83 2.244 . S
O71 Co70 2.216 . S
O71 C78 1.247 . S
O72 Co70 2.091 . S
O72 C78 1.261 . S
C73 O82 1.247 . S
C73 O83 1.272 . S
O74 Co70 2.004 . S
O74 C79 1.259 . S
Co75 O76 2.061 . S
Co75 O81 2.052 . S
Co75 O83 2.135 . S
O76 Co75 2.061 . S
O76 C79 1.235 . S
C77 O80 1.238 . S
C77 O81 1.241 . S
C78 O71 1.247 . S
C78 O72 1.261 . S
C79 O74 1.259 . S
C79 O76 1.235 . S
O80 Co70 2.021 . S
O80 C77 1.238 . S
O81 Co75 2.052 . S
O81 C77 1.241 . S
O82 Co70 2.137 . S
O82 C73 1.247 . S
O83 Co70 2.244 . S
O83 C73 1.272 . S
O83 Co75 2.135 . S
Co84 O85 2.216 . S
Co84 O86 2.091 . S
Co84 O88 2.004 1_556 S
Co84 O94 2.021 . S
Co84 O96 2.137 . S
Co84 O97 2.244 . S
O85 Co84 2.216 . S
O85 C92 1.247 . S
O86 Co84 2.091 . S
O86 C92 1.261 . S
C87 O96 1.247 . S
C87 O97 1.272 . S
O88 Co84 2.004 1_554 S
O88 C93 1.259 . S
Co89 O90 2.061 1_556 S
Co89 O95 2.052 . S
Co89 O97 2.135 . S
O90 Co89 2.061 1_554 S
O90 C93 1.235 . S
C91 O94 1.238 . S
C91 O95 1.241 . S
C92 O85 1.247 . S
C92 O86 1.261 . S
C93 O88 1.259 . S
C93 O90 1.235 . S
O94 Co84 2.021 . S
O94 C91 1.238 . S
O95 Co89 2.052 . S
O95 C91 1.241 . S
O96 Co84 2.137 . S
O96 C87 1.247 . S
O97 Co84 2.244 . S
O97 C87 1.272 . S
O97 Co89 2.135 . S
Co98 O99 2.216 . S
Co98 O100 2.091 . S
Co98 O102 2.004 1_556 S
Co98 O108 2.021 . S
Co98 O110 2.137 . S
Co98 O111 2.244 . S
O99 Co98 2.216 . S
O99 C106 1.247 . S
O100 Co98 2.091 . S
O100 C106 1.261 . S
C101 O110 1.247 . S
C101 O111 1.272 . S
O102 Co98 2.004 1_554 S
O102 C107 1.259 . S
Co103 O104 2.058 1_556 S
Co103 O109 2.052 . S
Co103 O111 2.135 . S
O104 Co103 2.058 1_554 S
O104 C107 1.237 . S
C105 O108 1.238 . S
C105 O109 1.241 . S
C106 O99 1.247 . S
C106 O100 1.261 . S
C107 O102 1.259 . S
C107 O104 1.237 . S
O108 Co98 2.021 . S
O108 C105 1.238 . S
O109 Co103 2.052 . S
O109 C105 1.241 . S
O110 Co98 2.137 . S
O110 C101 1.247 . S
O111 Co98 2.244 . S
O111 C101 1.272 . S
O111 Co103 2.135 . S
Co112 O113 2.216 . S
Co112 O114 2.091 . S
Co112 O116 2.004 1_556 S
Co112 O122 2.021 . S
Co112 O124 2.137 . S
Co112 O125 2.244 . S
O113 Co112 2.216 . S
O113 C120 1.247 . S
O114 Co112 2.091 . S
O114 C120 1.261 . S
C115 O124 1.247 . S
C115 O125 1.272 . S
O116 Co112 2.004 1_554 S
O116 C121 1.259 . S
Co117 O118 2.060 1_556 S
Co117 O123 2.052 . S
Co117 O125 2.135 . S
O118 Co117 2.060 1_554 S
O118 C121 1.235 . S
C119 O122 1.238 . S
C119 O123 1.241 . S
C120 O113 1.247 . S
C120 O114 1.261 . S
C121 O116 1.259 . S
C121 O118 1.235 . S
O122 Co112 2.021 . S
O122 C119 1.238 . S
O123 Co117 2.052 . S
O123 C119 1.241 . S
O124 Co112 2.137 . S
O124 C115 1.247 . S
O125 Co112 2.244 . S
O125 C115 1.272 . S
O125 Co117 2.135 . S
Co126 O127 2.216 . S
Co126 O128 2.091 . S
Co126 O130 2.004 . S
Co126 O136 2.021 . S
Co126 O138 2.137 . S
Co126 O139 2.244 . S
O127 Co126 2.216 . S
O127 C134 1.247 . S
O128 Co126 2.091 . S
O128 C134 1.261 . S
C129 O138 1.247 . S
C129 O139 1.272 . S
O130 Co126 2.004 . S
O130 C135 1.259 . S
Co131 O132 2.061 . S
Co131 O137 2.052 . S
Co131 O139 2.135 . S
O132 Co131 2.061 . S
O132 C135 1.235 . S
C133 O136 1.238 . S
C133 O137 1.241 . S
C134 O127 1.247 . S
C134 O128 1.261 . S
C135 O130 1.259 . S
C135 O132 1.235 . S
O136 Co126 2.021 . S
O136 C133 1.238 . S
O137 Co131 2.052 . S
O137 C133 1.241 . S
O138 Co126 2.137 . S
O138 C129 1.247 . S
O139 Co126 2.244 . S
O139 C129 1.272 . S
O139 Co131 2.135 . S
Co140 O141 2.216 . S
Co140 O142 2.091 . S
Co140 O144 2.004 . S
Co140 O150 2.021 . S
Co140 O152 2.137 . S
Co140 O153 2.244 . S
O141 Co140 2.216 . S
O141 C148 1.247 . S
O142 Co140 2.091 . S
O142 C148 1.261 . S
C143 O152 1.247 . S
C143 O153 1.272 . S
O144 Co140 2.004 . S
O144 C149 1.259 . S
Co145 O146 2.061 . S
Co145 O151 2.052 . S
Co145 O153 2.135 . S
O146 Co145 2.061 . S
O146 C149 1.235 . S
C147 O150 1.238 . S
C147 O151 1.241 . S
C148 O141 1.247 . S
C148 O142 1.261 . S
C149 O144 1.259 . S
C149 O146 1.235 . S
O150 Co140 2.021 . S
O150 C147 1.238 . S
O151 Co145 2.052 . S
O151 C147 1.241 . S
O152 Co140 2.137 . S
O152 C143 1.247 . S
O153 Co140 2.244 . S
O153 C143 1.272 . S
O153 Co145 2.135 . S
Co154 O155 2.216 . S
Co154 O156 2.091 . S
Co154 O158 2.004 . S
Co154 O164 2.021 . S
Co154 O166 2.137 . S
Co154 O167 2.244 . S
O155 Co154 2.216 . S
O155 C162 1.247 . S
O156 Co154 2.091 . S
O156 C162 1.261 . S
C157 O166 1.247 . S
C157 O167 1.272 . S
O158 Co154 2.004 . S
O158 C163 1.259 . S
Co159 O160 2.061 . S
Co159 O165 2.052 . S
Co159 O167 2.135 . S
O160 Co159 2.061 . S
O160 C163 1.235 . S
C161 O164 1.238 . S
C161 O165 1.241 . S
C162 O155 1.247 . S
C162 O156 1.261 . S
C163 O158 1.259 . S
C163 O160 1.235 . S
O164 Co154 2.021 . S
O164 C161 1.238 . S
O165 Co159 2.052 . S
O165 C161 1.241 . S
O166 Co154 2.137 . S
O166 C157 1.247 . S
O167 Co154 2.244 . S
O167 C157 1.272 . S
O167 Co159 2.135 . S
Co168 O169 2.216 . S
Co168 O170 2.091 . S
Co168 O172 2.004 . S
Co168 O178 2.021 . S
Co168 O180 2.137 . S
Co168 O181 2.244 . S
O169 Co168 2.216 . S
O169 C176 1.247 . S
O170 Co168 2.091 . S
O170 C176 1.261 . S
C171 O180 1.247 . S
C171 O181 1.272 . S
O172 Co168 2.004 . S
O172 C177 1.259 . S
Co173 O174 2.061 . S
Co173 O179 2.052 . S
Co173 O181 2.135 . S
O174 Co173 2.061 . S
O174 C177 1.235 . S
C175 O178 1.238 . S
C175 O179 1.241 . S
C176 O169 1.247 . S
C176 O170 1.261 . S
C177 O172 1.259 . S
C177 O174 1.235 . S
O178 Co168 2.021 . S
O178 C175 1.238 . S
O179 Co173 2.052 . S
O179 C175 1.241 . S
O180 Co168 2.137 . S
O180 C171 1.247 . S
O181 Co168 2.244 . S
O181 C171 1.272 . S
O181 Co173 2.135 . S
Co182 O183 2.216 . S
Co182 O184 2.091 . S
Co182 O186 2.004 . S
Co182 O192 2.021 . S
Co182 O194 2.137 . S
Co182 O195 2.244 . S
O183 Co182 2.216 . S
O183 C190 1.247 . S
O184 Co182 2.091 . S
O184 C190 1.261 . S
C185 O194 1.247 . S
C185 O195 1.272 . S
O186 Co182 2.004 . S
O186 C191 1.259 . S
Co187 O188 2.061 . S
Co187 O193 2.052 . S
Co187 O195 2.135 . S
O188 Co187 2.061 . S
O188 C191 1.235 . S
C189 O192 1.238 . S
C189 O193 1.241 . S
C190 O183 1.247 . S
C190 O184 1.261 . S
C191 O186 1.259 . S
C191 O188 1.235 . S
O192 Co182 2.021 . S
O192 C189 1.238 . S
O193 Co187 2.052 . S
O193 C189 1.241 . S
O194 Co182 2.137 . S
O194 C185 1.247 . S
O195 Co182 2.244 . S
O195 C185 1.272 . S
O195 Co187 2.135 . S
Co196 O197 2.216 . S
Co196 O198 2.091 . S
Co196 O200 2.004 . S
Co196 O206 2.021 . S
Co196 O208 2.137 . S
Co196 O209 2.244 . S
O197 Co196 2.216 . S
O197 C204 1.247 . S
O198 Co196 2.091 . S
O198 C204 1.261 . S
C199 O208 1.247 . S
C199 O209 1.272 . S
O200 Co196 2.004 . S
O200 C205 1.259 . S
Co201 O202 2.061 . S
Co201 O207 2.052 . S
Co201 O209 2.135 . S
O202 Co201 2.061 . S
O202 C205 1.235 . S
C203 O206 1.238 . S
C203 O207 1.241 . S
C204 O197 1.247 . S
C204 O198 1.261 . S
C205 O200 1.259 . S
C205 O202 1.235 . S
O206 Co196 2.021 . S
O206 C203 1.238 . S
O207 Co201 2.052 . S
O207 C203 1.241 . S
O208 Co196 2.137 . S
O208 C199 1.247 . S
O209 Co196 2.244 . S
O209 C199 1.272 . S
O209 Co201 2.135 . S
Co210 O211 2.216 . S
Co210 O212 2.091 . S
Co210 O214 2.004 . S
Co210 O220 2.021 . S
Co210 O222 2.137 . S
Co210 O223 2.244 . S
O211 Co210 2.216 . S
O211 C218 1.247 . S
O212 Co210 2.091 . S
O212 C218 1.261 . S
C213 O222 1.247 . S
C213 O223 1.272 . S
O214 Co210 2.004 . S
O214 C219 1.259 . S
Co215 O216 2.061 . S
Co215 O221 2.052 . S
Co215 O223 2.135 . S
O216 Co215 2.061 . S
O216 C219 1.235 . S
C217 O220 1.238 . S
C217 O221 1.241 . S
C218 O211 1.247 . S
C218 O212 1.261 . S
C219 O214 1.259 . S
C219 O216 1.235 . S
O220 Co210 2.021 . S
O220 C217 1.238 . S
O221 Co215 2.052 . S
O221 C217 1.241 . S
O222 Co210 2.137 . S
O222 C213 1.247 . S
O223 Co210 2.244 . S
O223 C213 1.272 . S
O223 Co215 2.135 . S
Co224 O225 2.216 . S
Co224 O226 2.091 . S
Co224 O228 2.004 . S
Co224 O234 2.021 . S
Co224 O236 2.137 . S
Co224 O237 2.244 . S
O225 Co224 2.216 . S
O225 C232 1.247 . S
O226 Co224 2.091 . S
O226 C232 1.261 . S
C227 O236 1.247 . S
C227 O237 1.272 . S
O228 Co224 2.004 . S
O228 C233 1.259 . S
Co229 O230 2.061 . S
Co229 O235 2.052 . S
Co229 O237 2.135 . S
O230 Co229 2.061 . S
O230 C233 1.235 . S
C231 O234 1.238 . S
C231 O235 1.241 . S
C232 O225 1.247 . S
C232 O226 1.261 . S
C233 O228 1.259 . S
C233 O230 1.235 . S
O234 Co224 2.021 . S
O234 C231 1.238 . S
O235 Co229 2.052 . S
O235 C231 1.241 . S
O236 Co224 2.137 . S
O236 C227 1.247 . S
O237 Co224 2.244 . S
O237 C227 1.272 . S
O237 Co229 2.135 . S
Co238 O239 2.216 . S
Co238 O240 2.091 . S
Co238 O242 2.004 . S
Co238 O248 2.021 . S
Co238 O250 2.137 . S
Co238 O251 2.244 . S
O239 Co238 2.216 . S
O239 C246 1.247 . S
O240 Co238 2.091 . S
O240 C246 1.261 . S
C241 O250 1.247 . S
C241 O251 1.272 . S
O242 Co238 2.004 . S
O242 C247 1.259 . S
Co243 O244 2.061 . S
Co243 O249 2.052 . S
Co243 O251 2.135 . S
O244 Co243 2.061 . S
O244 C247 1.235 . S
C245 O248 1.238 . S
C245 O249 1.241 . S
C246 O239 1.247 . S
C246 O240 1.261 . S
C247 O242 1.259 . S
C247 O244 1.235 . S
O248 Co238 2.021 . S
O248 C245 1.238 . S
O249 Co243 2.052 . S
O249 C245 1.241 . S
O250 Co238 2.137 . S
O250 C241 1.247 . S
O251 Co238 2.244 . S
O251 C241 1.272 . S
O251 Co243 2.135 . S
Co252 O253 2.216 . S
Co252 O254 2.091 . S
Co252 O256 2.004 . S
Co252 O262 2.021 . S
Co252 O264 2.137 . S
Co252 O265 2.244 . S
O253 Co252 2.216 . S
O253 C260 1.247 . S
O254 Co252 2.091 . S
O254 C260 1.261 . S
C255 O264 1.247 . S
C255 O265 1.272 . S
O256 Co252 2.004 . S
O256 C261 1.259 . S
Co257 O258 2.061 . S
Co257 O263 2.052 . S
Co257 O265 2.135 . S
O258 Co257 2.061 . S
O258 C261 1.235 . S
C259 O262 1.238 . S
C259 O263 1.241 . S
C260 O253 1.247 . S
C260 O254 1.261 . S
C261 O256 1.259 . S
C261 O258 1.235 . S
O262 Co252 2.021 . S
O262 C259 1.238 . S
O263 Co257 2.052 . S
O263 C259 1.241 . S
O264 Co252 2.137 . S
O264 C255 1.247 . S
O265 Co252 2.244 . S
O265 C255 1.272 . S
O265 Co257 2.135 . S
Co266 O267 2.216 . S
Co266 O268 2.091 . S
Co266 O270 2.004 . S
Co266 O276 2.021 . S
Co266 O278 2.137 . S
Co266 O279 2.244 . S
O267 Co266 2.216 . S
O267 C274 1.247 . S
O268 Co266 2.091 . S
O268 C274 1.261 . S
C269 O278 1.247 . S
C269 O279 1.272 . S
O270 Co266 2.004 . S
O270 C275 1.259 . S
Co271 O272 2.061 . S
Co271 O277 2.052 . S
Co271 O279 2.135 . S
O272 Co271 2.061 . S
O272 C275 1.235 . S
C273 O276 1.238 . S
C273 O277 1.241 . S
C274 O267 1.247 . S
C274 O268 1.261 . S
C275 O270 1.259 . S
C275 O272 1.235 . S
O276 Co266 2.021 . S
O276 C273 1.238 . S
O277 Co271 2.052 . S
O277 C273 1.241 . S
O278 Co266 2.137 . S
O278 C269 1.247 . S
O279 Co266 2.244 . S
O279 C269 1.272 . S
O279 Co271 2.135 . S
Co280 O281 2.216 . S
Co280 O282 2.091 . S
Co280 O284 2.004 . S
Co280 O290 2.021 . S
Co280 O292 2.137 . S
Co280 O293 2.244 . S
O281 Co280 2.216 . S
O281 C288 1.247 . S
O282 Co280 2.091 . S
O282 C288 1.261 . S
C283 O292 1.247 . S
C283 O293 1.272 . S
O284 Co280 2.004 . S
O284 C289 1.259 . S
Co285 O286 2.061 . S
Co285 O291 2.052 . S
Co285 O293 2.135 . S
O286 Co285 2.061 . S
O286 C289 1.235 . S
C287 O290 1.238 . S
C287 O291 1.241 . S
C288 O281 1.247 . S
C288 O282 1.261 . S
C289 O284 1.259 . S
C289 O286 1.235 . S
O290 Co280 2.021 . S
O290 C287 1.238 . S
O291 Co285 2.052 . S
O291 C287 1.241 . S
O292 Co280 2.137 . S
O292 C283 1.247 . S
O293 Co280 2.244 . S
O293 C283 1.272 . S
O293 Co285 2.135 . S
Co294 O295 2.216 . S
Co294 O296 2.091 . S
Co294 O298 2.004 . S
Co294 O304 2.021 . S
Co294 O306 2.137 . S
Co294 O307 2.244 . S
O295 Co294 2.216 . S
O295 C302 1.247 . S
O296 Co294 2.091 . S
O296 C302 1.261 . S
C297 O306 1.247 . S
C297 O307 1.272 . S
O298 Co294 2.004 . S
O298 C303 1.259 . S
Co299 O300 2.061 . S
Co299 O305 2.052 . S
Co299 O307 2.135 . S
O300 Co299 2.061 . S
O300 C303 1.235 . S
C301 O304 1.238 . S
C301 O305 1.241 . S
C302 O295 1.247 . S
C302 O296 1.261 . S
C303 O298 1.259 . S
C303 O300 1.235 . S
O304 Co294 2.021 . S
O304 C301 1.238 . S
O305 Co299 2.052 . S
O305 C301 1.241 . S
O306 Co294 2.137 . S
O306 C297 1.247 . S
O307 Co294 2.244 . S
O307 C297 1.272 . S
O307 Co299 2.135 . S
Co308 O309 2.216 . S
Co308 O310 2.091 . S
Co308 O312 2.004 . S
Co308 O318 2.021 . S
Co308 O320 2.137 . S
Co308 O321 2.244 . S
O309 Co308 2.216 . S
O309 C316 1.247 . S
O310 Co308 2.091 . S
O310 C316 1.261 . S
C311 O320 1.247 . S
C311 O321 1.272 . S
O312 Co308 2.004 . S
O312 C317 1.259 . S
Co313 O314 2.061 . S
Co313 O319 2.052 . S
Co313 O321 2.135 . S
O314 Co313 2.061 . S
O314 C317 1.235 . S
C315 O318 1.238 . S
C315 O319 1.241 . S
C316 O309 1.247 . S
C316 O310 1.261 . S
C317 O312 1.259 . S
C317 O314 1.235 . S
O318 Co308 2.021 . S
O318 C315 1.238 . S
O319 Co313 2.052 . S
O319 C315 1.241 . S
O320 Co308 2.137 . S
O320 C311 1.247 . S
O321 Co308 2.244 . S
O321 C311 1.272 . S
O321 Co313 2.135 . S
Co322 O323 2.216 . S
Co322 O324 2.091 . S
Co322 O326 2.004 . S
Co322 O332 2.021 . S
Co322 O334 2.137 . S
Co322 O335 2.244 . S
O323 Co322 2.216 . S
O323 C330 1.247 . S
O324 Co322 2.091 . S
O324 C330 1.261 . S
C325 O334 1.247 . S
C325 O335 1.272 . S
O326 Co322 2.004 . S
O326 C331 1.259 . S
Co327 O328 2.061 . S
Co327 O333 2.052 . S
Co327 O335 2.135 . S
O328 Co327 2.061 . S
O328 C331 1.235 . S
C329 O332 1.238 . S
C329 O333 1.241 . S
C330 O323 1.247 . S
C330 O324 1.261 . S
C331 O326 1.259 . S
C331 O328 1.235 . S
O332 Co322 2.021 . S
O332 C329 1.238 . S
O333 Co327 2.052 . S
O333 C329 1.241 . S
O334 Co322 2.137 . S
O334 C325 1.247 . S
O335 Co322 2.244 . S
O335 C325 1.272 . S
O335 Co327 2.135 . S
Co336 O337 2.216 . S
Co336 O338 2.091 . S
Co336 O340 2.004 . S
Co336 O346 2.021 . S
Co336 O348 2.137 . S
Co336 O349 2.244 . S
O337 Co336 2.216 . S
O337 C344 1.247 . S
O338 Co336 2.091 . S
O338 C344 1.261 . S
C339 O348 1.247 . S
C339 O349 1.272 . S
O340 Co336 2.004 . S
O340 C345 1.259 . S
Co341 O342 2.061 . S
Co341 O347 2.052 . S
Co341 O349 2.135 . S
O342 Co341 2.061 . S
O342 C345 1.235 . S
C343 O346 1.238 . S
C343 O347 1.241 . S
C344 O337 1.247 . S
C344 O338 1.261 . S
C345 O340 1.259 . S
C345 O342 1.235 . S
O346 Co336 2.021 . S
O346 C343 1.238 . S
O347 Co341 2.052 . S
O347 C343 1.241 . S
O348 Co336 2.137 . S
O348 C339 1.247 . S
O349 Co336 2.244 . S
O349 C339 1.272 . S
O349 Co341 2.135 . S
Co350 O351 2.216 . S
Co350 O352 2.091 . S
Co350 O354 2.004 . S
Co350 O360 2.021 . S
Co350 O362 2.137 . S
Co350 O363 2.244 . S
O351 Co350 2.216 . S
O351 C358 1.247 . S
O352 Co350 2.091 . S
O352 C358 1.261 . S
C353 O362 1.247 . S
C353 O363 1.272 . S
O354 Co350 2.004 . S
O354 C359 1.259 . S
Co355 O356 2.061 . S
Co355 O361 2.052 . S
Co355 O363 2.135 . S
O356 Co355 2.061 . S
O356 C359 1.235 . S
C357 O360 1.238 . S
C357 O361 1.241 . S
C358 O351 1.247 . S
C358 O352 1.261 . S
C359 O354 1.259 . S
C359 O356 1.235 . S
O360 Co350 2.021 . S
O360 C357 1.238 . S
O361 Co355 2.052 . S
O361 C357 1.241 . S
O362 Co350 2.137 . S
O362 C353 1.247 . S
O363 Co350 2.244 . S
O363 C353 1.272 . S
O363 Co355 2.135 . S
Co364 O365 2.216 . S
Co364 O366 2.091 . S
Co364 O368 2.004 . S
Co364 O374 2.021 . S
Co364 O376 2.137 . S
Co364 O377 2.244 . S
O365 Co364 2.216 . S
O365 C372 1.247 . S
O366 Co364 2.091 . S
O366 C372 1.261 . S
C367 O376 1.247 . S
C367 O377 1.272 . S
O368 Co364 2.004 . S
O368 C373 1.259 . S
Co369 O370 2.061 . S
Co369 O375 2.052 . S
Co369 O377 2.135 . S
O370 Co369 2.061 . S
O370 C373 1.235 . S
C371 O374 1.238 . S
C371 O375 1.241 . S
C372 O365 1.247 . S
C372 O366 1.261 . S
C373 O368 1.259 . S
C373 O370 1.235 . S
O374 Co364 2.021 . S
O374 C371 1.238 . S
O375 Co369 2.052 . S
O375 C371 1.241 . S
O376 Co364 2.137 . S
O376 C367 1.247 . S
O377 Co364 2.244 . S
O377 C367 1.272 . S
O377 Co369 2.135 . S
Co378 O379 2.216 . S
Co378 O380 2.091 . S
Co378 O382 2.004 . S
Co378 O388 2.021 . S
Co378 O390 2.137 . S
Co378 O391 2.244 . S
O379 Co378 2.216 . S
O379 C386 1.247 . S
O380 Co378 2.091 . S
O380 C386 1.261 . S
C381 O390 1.247 . S
C381 O391 1.272 . S
O382 Co378 2.004 . S
O382 C387 1.259 . S
Co383 O384 2.061 . S
Co383 O389 2.052 . S
Co383 O391 2.135 . S
O384 Co383 2.061 . S
O384 C387 1.235 . S
C385 O388 1.238 . S
C385 O389 1.241 . S
C386 O379 1.247 . S
C386 O380 1.261 . S
C387 O382 1.259 . S
C387 O384 1.235 . S
O388 Co378 2.021 . S
O388 C385 1.238 . S
O389 Co383 2.052 . S
O389 C385 1.241 . S
O390 Co378 2.137 . S
O390 C381 1.247 . S
O391 Co378 2.244 . S
O391 C381 1.272 . S
O391 Co383 2.135 . S
Co392 O393 2.216 . S
Co392 O394 2.091 . S
Co392 O396 2.004 . S
Co392 O402 2.021 . S
Co392 O404 2.137 . S
Co392 O405 2.244 . S
O393 Co392 2.216 . S
O393 C400 1.247 . S
O394 Co392 2.091 . S
O394 C400 1.261 . S
C395 O404 1.247 . S
C395 O405 1.272 . S
O396 Co392 2.004 . S
O396 C401 1.259 . S
Co397 O398 2.061 . S
Co397 O403 2.052 . S
Co397 O405 2.135 . S
O398 Co397 2.061 . S
O398 C401 1.235 . S
C399 O402 1.238 . S
C399 O403 1.241 . S
C400 O393 1.247 . S
C400 O394 1.261 . S
C401 O396 1.259 . S
C401 O398 1.235 . S
O402 Co392 2.021 . S
O402 C399 1.238 . S
O403 Co397 2.052 . S
O403 C399 1.241 . S
O404 Co392 2.137 . S
O404 C395 1.247 . S
O405 Co392 2.244 . S
O405 C395 1.272 . S
O405 Co397 2.135 . S
Co406 O407 2.216 . S
Co406 O408 2.091 . S
Co406 O410 2.004 . S
Co406 O416 2.021 . S
Co406 O418 2.137 . S
Co406 O419 2.244 . S
O407 Co406 2.216 . S
O407 C414 1.247 . S
O408 Co406 2.091 . S
O408 C414 1.261 . S
C409 O418 1.247 . S
C409 O419 1.272 . S
O410 Co406 2.004 . S
O410 C415 1.259 . S
Co411 O412 2.061 . S
Co411 O417 2.052 . S
Co411 O419 2.135 . S
O412 Co411 2.061 . S
O412 C415 1.235 . S
C413 O416 1.238 . S
C413 O417 1.241 . S
C414 O407 1.247 . S
C414 O408 1.261 . S
C415 O410 1.259 . S
C415 O412 1.235 . S
O416 Co406 2.021 . S
O416 C413 1.238 . S
O417 Co411 2.052 . S
O417 C413 1.241 . S
O418 Co406 2.137 . S
O418 C409 1.247 . S
O419 Co406 2.244 . S
O419 C409 1.272 . S
O419 Co411 2.135 . S
Co420 O421 2.216 . S
Co420 O422 2.091 . S
Co420 O424 2.004 . S
Co420 O430 2.021 . S
Co420 O432 2.137 . S
Co420 O433 2.244 . S
O421 Co420 2.216 . S
O421 C428 1.247 . S
O422 Co420 2.091 . S
O422 C428 1.261 . S
C423 O432 1.247 . S
C423 O433 1.272 . S
O424 Co420 2.004 . S
O424 C429 1.259 . S
Co425 O426 2.061 . S
Co425 O431 2.052 . S
Co425 O433 2.135 . S
O426 Co425 2.061 . S
O426 C429 1.235 . S
C427 O430 1.238 . S
C427 O431 1.241 . S
C428 O421 1.247 . S
C428 O422 1.261 . S
C429 O424 1.259 . S
C429 O426 1.235 . S
O430 Co420 2.021 . S
O430 C427 1.238 . S
O431 Co425 2.052 . S
O431 C427 1.241 . S
O432 Co420 2.137 . S
O432 C423 1.247 . S
O433 Co420 2.244 . S
O433 C423 1.272 . S
O433 Co425 2.135 . S
Co434 O435 2.216 . S
Co434 O436 2.091 . S
Co434 O438 2.004 . S
Co434 O444 2.021 . S
Co434 O446 2.137 . S
Co434 O447 2.244 . S
O435 Co434 2.216 . S
O435 C442 1.247 . S
O436 Co434 2.091 . S
O436 C442 1.261 . S
C437 O446 1.247 . S
C437 O447 1.272 . S
O438 Co434 2.004 . S
O438 C443 1.259 . S
Co439 O440 2.061 . S
Co439 O445 2.052 . S
Co439 O447 2.135 . S
O440 Co439 2.061 . S
O440 C443 1.235 . S
C441 O444 1.238 . S
C441 O445 1.241 . S
C442 O435 1.247 . S
C442 O436 1.261 . S
C443 O438 1.259 . S
C443 O440 1.235 . S
O444 Co434 2.021 . S
O444 C441 1.238 . S
O445 Co439 2.052 . S
O445 C441 1.241 . S
O446 Co434 2.137 . S
O446 C437 1.247 . S
O447 Co434 2.244 . S
O447 C437 1.272 . S
O447 Co439 2.135 . S
Co448 O449 2.216 . S
Co448 O450 2.091 . S
Co448 O452 2.004 . S
Co448 O458 2.021 . S
Co448 O460 2.137 . S
Co448 O461 2.244 . S
O449 Co448 2.216 . S
O449 C456 1.247 . S
O450 Co448 2.091 . S
O450 C456 1.261 . S
C451 O460 1.247 . S
C451 O461 1.272 . S
O452 Co448 2.004 . S
O452 C457 1.259 . S
Co453 O454 2.061 . S
Co453 O459 2.052 . S
Co453 O461 2.135 . S
O454 Co453 2.061 . S
O454 C457 1.235 . S
C455 O458 1.238 . S
C455 O459 1.241 . S
C456 O449 1.247 . S
C456 O450 1.261 . S
C457 O452 1.259 . S
C457 O454 1.235 . S
O458 Co448 2.021 . S
O458 C455 1.238 . S
O459 Co453 2.052 . S
O459 C455 1.241 . S
O460 Co448 2.137 . S
O460 C451 1.247 . S
O461 Co448 2.244 . S
O461 C451 1.272 . S
O461 Co453 2.135 . S
Co462 O463 2.216 . S
Co462 O464 2.091 . S
Co462 O466 2.004 . S
Co462 O472 2.021 . S
Co462 O474 2.137 . S
Co462 O475 2.244 . S
O463 Co462 2.216 . S
O463 C470 1.247 . S
O464 Co462 2.091 . S
O464 C470 1.261 . S
C465 O474 1.247 . S
C465 O475 1.272 . S
O466 Co462 2.004 . S
O466 C471 1.259 . S
Co467 O468 2.061 . S
Co467 O473 2.052 . S
Co467 O475 2.135 . S
O468 Co467 2.061 . S
O468 C471 1.235 . S
C469 O472 1.238 . S
C469 O473 1.241 . S
C470 O463 1.247 . S
C470 O464 1.261 . S
C471 O466 1.259 . S
C471 O468 1.235 . S
O472 Co462 2.021 . S
O472 C469 1.238 . S
O473 Co467 2.052 . S
O473 C469 1.241 . S
O474 Co462 2.137 . S
O474 C465 1.247 . S
O475 Co462 2.244 . S
O475 C465 1.272 . S
O475 Co467 2.135 . S
Co476 O477 2.216 . S
Co476 O478 2.091 . S
Co476 O480 2.004 . S
Co476 O486 2.021 . S
Co476 O488 2.137 . S
Co476 O489 2.244 . S
O477 Co476 2.216 . S
O477 C484 1.247 . S
O478 Co476 2.091 . S
O478 C484 1.261 . S
C479 O488 1.247 . S
C479 O489 1.272 . S
O480 Co476 2.004 . S
O480 C485 1.259 . S
Co481 O482 2.061 . S
Co481 O487 2.052 . S
Co481 O489 2.135 . S
O482 Co481 2.061 . S
O482 C485 1.235 . S
C483 O486 1.238 . S
C483 O487 1.241 . S
C484 O477 1.247 . S
C484 O478 1.261 . S
C485 O480 1.259 . S
C485 O482 1.235 . S
O486 Co476 2.021 . S
O486 C483 1.238 . S
O487 Co481 2.052 . S
O487 C483 1.241 . S
O488 Co476 2.137 . S
O488 C479 1.247 . S
O489 Co476 2.244 . S
O489 C479 1.272 . S
O489 Co481 2.135 . S
Co490 O491 2.216 . S
Co490 O492 2.091 . S
Co490 O494 2.004 . S
Co490 O500 2.021 . S
Co490 O502 2.137 . S
Co490 O503 2.244 . S
O491 Co490 2.216 . S
O491 C498 1.247 . S
O492 Co490 2.091 . S
O492 C498 1.261 . S
C493 O502 1.247 . S
C493 O503 1.272 . S
O494 Co490 2.004 . S
O494 C499 1.259 . S
Co495 O496 2.061 . S
Co495 O501 2.052 . S
Co495 O503 2.135 . S
O496 Co495 2.061 . S
O496 C499 1.235 . S
C497 O500 1.238 . S
C497 O501 1.241 . S
C498 O491 1.247 . S
C498 O492 1.261 . S
C499 O494 1.259 . S
C499 O496 1.235 . S
O500 Co490 2.021 . S
O500 C497 1.238 . S
O501 Co495 2.052 . S
O501 C497 1.241 . S
O502 Co490 2.137 . S
O502 C493 1.247 . S
O503 Co490 2.244 . S
O503 C493 1.272 . S
O503 Co495 2.135 . S
H504 C512 0.929 . S
H505 C514 0.930 . S
H506 C516 0.930 . S
H507 C519 0.929 . S
H508 C522 0.930 . S
H509 C524 0.980 . S
H510 C524 0.920 1_565 S
H511 C524 0.964 . S
C512 H504 0.929 . S
C512 C513 1.377 . S
C512 C514 1.384 . S
C513 C512 1.377 . S
C513 C519 1.390 . S
C514 H505 0.930 . S
C514 C512 1.384 . S
C514 C515 1.372 . S
C515 C514 1.372 . S
C515 C516 1.400 . S
C515 C520 1.490 . S
C516 H506 0.930 . S
C516 C515 1.400 . S
C516 C519 1.386 . S
H517 C533 0.930 . S
H518 C534 0.931 . S
C519 H507 0.929 . S
C519 C513 1.390 . S
C519 C516 1.386 . S
C520 C515 1.490 . S
C520 C522 1.395 . S
C520 C523 1.415 . S
H521 C527 0.930 . S
C522 H508 0.930 . S
C522 C520 1.395 . S
C522 C525 1.403 . S
C523 C520 1.415 . S
C523 C524 1.549 1_565 S
C523 C527 1.376 1_565 S
C524 H509 0.980 . S
C524 H510 0.920 1_545 S
C524 H511 0.964 . S
C524 C523 1.549 1_545 S
C525 C522 1.403 . S
C525 C526 1.392 1_565 S
C525 C529 1.495 . S
C526 C525 1.392 1_545 S
C526 C527 1.385 . S
C526 C528 1.478 . S
C527 H521 0.930 . S
C527 C523 1.376 1_545 S
C527 C526 1.385 . S
C528 C526 1.478 . S
C528 C530 1.381 . S
C528 C534 1.383 . S
C529 C525 1.495 . S
C529 H535 0.959 . S
C529 H536 0.961 1_565 S
C529 H537 0.960 . S
C530 C528 1.381 . S
C530 C531 1.394 . S
C530 H538 0.930 . S
C531 C530 1.394 . S
C531 C532 1.383 . S
C531 H539 0.929 . S
C532 C531 1.383 . S
C532 C533 1.377 . S
C533 H517 0.930 . S
C533 C532 1.377 . S
C533 C534 1.379 . S
C534 H518 0.931 . S
C534 C528 1.383 . S
C534 C533 1.379 . S
H535 C529 0.959 . S
H536 C529 0.961 1_545 S
H537 C529 0.960 . S
H538 C530 0.930 . S
H539 C531 0.929 . S
H540 C548 0.929 . S
H541 C550 0.930 . S
H542 C552 0.930 . S
H543 C555 0.929 . S
H544 C558 0.930 . S
H545 C560 0.960 . S
H546 C560 0.960 . S
H547 C560 0.960 . S
C548 H540 0.929 . S
C548 C549 1.377 . S
C548 C550 1.384 . S
C549 C548 1.377 . S
C549 C555 1.390 . S
C550 H541 0.930 . S
C550 C548 1.384 . S
C550 C551 1.372 . S
C551 C550 1.372 . S
C551 C552 1.400 . S
C551 C556 1.490 . S
C552 H542 0.930 . S
C552 C551 1.400 . S
C552 C555 1.386 . S
H553 C569 0.930 . S
H554 C570 0.931 . S
C555 H543 0.929 . S
C555 C549 1.390 . S
C555 C552 1.386 . S
C556 C551 1.490 . S
C556 C558 1.395 1_655 S
C556 C559 1.403 . S
H557 C563 0.932 . S
C558 H544 0.930 . S
C558 C556 1.395 1_455 S
C558 C561 1.403 . S
C559 C556 1.403 . S
C559 C560 1.524 . S
C559 C563 1.416 . S
C560 H545 0.960 . S
C560 H546 0.960 . S
C560 H547 0.960 . S
C560 C559 1.524 . S
C561 C558 1.403 . S
C561 C562 1.392 . S
C561 C565 1.495 . S
C562 C561 1.392 . S
C562 C563 1.368 1_455 S
C562 C564 1.478 . S
C563 H557 0.932 . S
C563 C559 1.416 . S
C563 C562 1.368 1_655 S
C564 C562 1.478 . S
C564 C566 1.381 . S
C564 C570 1.383 . S
C565 C561 1.495 . S
C565 H571 0.959 . S
C565 H572 0.961 . S
C565 H573 0.960 . S
C566 C564 1.381 . S
C566 C567 1.394 . S
C566 H574 0.930 . S
C567 C566 1.394 . S
C567 C568 1.383 . S
C567 H575 0.929 . S
C568 C567 1.383 . S
C568 C569 1.377 . S
C569 H553 0.930 . S
C569 C568 1.377 . S
C569 C570 1.379 . S
C570 H554 0.931 . S
C570 C564 1.383 . S
C570 C569 1.379 . S
H571 C565 0.959 . S
H572 C565 0.961 . S
H573 C565 0.960 . S
H574 C566 0.930 . S
H575 C567 0.929 . S
H576 C584 0.929 . S
H577 C586 0.930 . S
H578 C588 0.930 . S
H579 C591 0.929 . S
H580 C594 0.930 . S
H581 C596 0.960 . S
H582 C596 0.960 . S
H583 C596 0.960 . S
C584 H576 0.929 . S
C584 C585 1.377 . S
C584 C586 1.384 . S
C585 C584 1.377 . S
C585 C591 1.390 . S
C586 H577 0.930 . S
C586 C584 1.384 . S
C586 C587 1.372 . S
C587 C586 1.372 . S
C587 C588 1.400 . S
C587 C592 1.490 . S
C588 H578 0.930 . S
C588 C587 1.400 . S
C588 C591 1.386 . S
H589 C605 0.930 . S
H590 C606 0.931 . S
C591 H579 0.929 . S
C591 C585 1.390 . S
C591 C588 1.386 . S
C592 C587 1.490 . S
C592 C594 1.395 . S
C592 C595 1.403 . S
H593 C599 0.930 . S
C594 H580 0.930 . S
C594 C592 1.395 . S
C594 C597 1.403 . S
C595 C592 1.403 . S
C595 C596 1.524 . S
C595 C599 1.400 . S
C596 H581 0.960 . S
C596 H582 0.960 . S
C596 H583 0.960 . S
C596 C595 1.524 . S
C597 C594 1.403 . S
C597 C598 1.392 . S
C597 C601 1.495 . S
C598 C597 1.392 . S
C598 C599 1.385 . S
C598 C600 1.478 . S
C599 H593 0.930 . S
C599 C595 1.400 . S
C599 C598 1.385 . S
C600 C598 1.478 . S
C600 C602 1.381 . S
C600 C606 1.383 . S
C601 C597 1.495 . S
C601 H607 0.959 . S
C601 H608 0.961 . S
C601 H609 0.960 . S
C602 C600 1.381 . S
C602 C603 1.394 . S
C602 H610 0.930 . S
C603 C602 1.394 . S
C603 C604 1.383 . S
C603 H611 0.929 . S
C604 C603 1.383 . S
C604 C605 1.377 . S
C605 H589 0.930 . S
C605 C604 1.377 . S
C605 C606 1.379 . S
C606 H590 0.931 . S
C606 C600 1.383 . S
C606 C605 1.379 . S
H607 C601 0.959 . S
H608 C601 0.961 . S
H609 C601 0.960 . S
H610 C602 0.930 . S
H611 C603 0.929 . S
H612 C620 0.929 . S
H613 C622 0.930 . S
H614 C624 0.930 . S
H615 C627 0.929 . S
H616 C630 0.930 . S
H617 C632 0.960 . S
H618 C632 0.960 . S
H619 C632 0.960 1_565 S
C620 H612 0.929 . S
C620 C621 1.377 . S
C620 C622 1.384 . S
C621 C620 1.377 . S
C621 C627 1.390 . S
C622 H613 0.930 . S
C622 C620 1.384 . S
C622 C623 1.372 . S
C623 C622 1.372 . S
C623 C624 1.400 . S
C623 C628 1.490 . S
C624 H614 0.930 . S
C624 C623 1.400 . S
C624 C627 1.386 . S
H625 C641 0.930 . S
H626 C642 0.931 . S
C627 H615 0.929 . S
C627 C621 1.390 . S
C627 C624 1.386 . S
C628 C623 1.490 . S
C628 C630 1.395 . S
C628 C631 1.398 1_565 S
H629 C635 0.930 . S
C630 H616 0.930 . S
C630 C628 1.395 . S
C630 C633 1.434 . S
C631 C628 1.398 1_545 S
C631 C632 1.526 . S
C631 C635 1.402 . S
C632 H617 0.960 . S
C632 H618 0.960 . S
C632 H619 0.960 1_545 S
C632 C631 1.526 . S
C633 C630 1.434 . S
C633 C634 1.343 1_565 S
C633 C637 1.516 . S
C634 C633 1.343 1_545 S
C634 C635 1.385 . S
C634 C636 1.478 . S
C635 H629 0.930 . S
C635 C631 1.402 . S
C635 C634 1.385 . S
C636 C634 1.478 . S
C636 C638 1.381 . S
C636 C642 1.383 . S
C637 C633 1.516 . S
C637 H643 0.959 . S
C637 H644 0.961 . S
C637 H645 0.960 1_565 S
C638 C636 1.381 . S
C638 C639 1.394 . S
C638 H646 0.930 . S
C639 C638 1.394 . S
C639 C640 1.383 . S
C639 H647 0.929 . S
C640 C639 1.383 . S
C640 C641 1.377 . S
C641 H625 0.930 . S
C641 C640 1.377 . S
C641 C642 1.379 . S
C642 H626 0.931 . S
C642 C636 1.383 . S
C642 C641 1.379 . S
H643 C637 0.959 . S
H644 C637 0.961 . S
H645 C637 0.960 1_545 S
H646 C638 0.930 . S
H647 C639 0.929 . S
H648 C656 0.929 . S
H649 C658 0.930 . S
H650 C660 0.930 . S
H651 C663 0.929 . S
H652 C666 0.930 . S
H653 C668 0.960 . S
H654 C668 0.960 . S
H655 C668 0.960 . S
C656 H648 0.929 . S
C656 C657 1.377 . S
C656 C658 1.384 . S
C657 C656 1.377 . S
C657 C663 1.390 . S
C658 H649 0.930 . S
C658 C656 1.384 . S
C658 C659 1.372 . S
C659 C658 1.372 . S
C659 C660 1.400 . S
C659 C664 1.490 . S
C660 H650 0.930 . S
C660 C659 1.400 . S
C660 C663 1.386 . S
H661 C677 0.930 . S
H662 C678 0.931 . S
C663 H651 0.929 . S
C663 C657 1.390 . S
C663 C660 1.386 . S
C664 C659 1.490 . S
C664 C666 1.395 . S
C664 C667 1.403 . S
H665 C671 0.930 . S
C666 H652 0.930 . S
C666 C664 1.395 . S
C666 C669 1.403 1_455 S
C667 C664 1.403 . S
C667 C668 1.524 . S
C667 C671 1.400 1_455 S
C668 H653 0.960 . S
C668 H654 0.960 . S
C668 H655 0.960 . S
C668 C667 1.524 . S
C669 C666 1.403 1_655 S
C669 C670 1.392 . S
C669 C673 1.495 . S
C670 C669 1.392 . S
C670 C671 1.385 . S
C670 C672 1.478 . S
C671 H665 0.930 . S
C671 C667 1.400 1_655 S
C671 C670 1.385 . S
C672 C670 1.478 . S
C672 C674 1.381 . S
C672 C678 1.383 . S
C673 C669 1.495 . S
C673 H679 0.959 . S
C673 H680 0.961 . S
C673 H681 0.960 . S
C674 C672 1.381 . S
C674 C675 1.394 . S
C674 H682 0.930 . S
C675 C674 1.394 . S
C675 C676 1.383 . S
C675 H683 0.929 . S
C676 C675 1.383 . S
C676 C677 1.377 . S
C677 H661 0.930 . S
C677 C676 1.377 . S
C677 C678 1.379 . S
C678 H662 0.931 . S
C678 C672 1.383 . S
C678 C677 1.379 . S
H679 C673 0.959 . S
H680 C673 0.961 . S
H681 C673 0.960 . S
H682 C674 0.930 . S
H683 C675 0.929 . S
H684 C692 0.929 . S
H685 C694 0.930 . S
H686 C696 0.930 . S
H687 C699 0.929 . S
H688 C702 0.930 . S
H689 C704 0.960 . S
H690 C704 0.960 . S
H691 C704 0.960 . S
C692 H684 0.929 . S
C692 C693 1.377 . S
C692 C694 1.384 . S
C693 C692 1.377 . S
C693 C699 1.390 . S
C694 H685 0.930 . S
C694 C692 1.384 . S
C694 C695 1.372 . S
C695 C694 1.372 . S
C695 C696 1.400 . S
C695 C700 1.490 . S
C696 H686 0.930 . S
C696 C695 1.400 . S
C696 C699 1.386 . S
H697 C713 0.930 . S
H698 C714 0.931 . S
C699 H687 0.929 . S
C699 C693 1.390 . S
C699 C696 1.386 . S
C700 C695 1.490 . S
C700 C702 1.395 . S
C700 C703 1.403 . S
H701 C707 0.930 . S
C702 H688 0.930 . S
C702 C700 1.395 . S
C702 C705 1.403 . S
C703 C700 1.403 . S
C703 C704 1.524 . S
C703 C707 1.400 . S
C704 H689 0.960 . S
C704 H690 0.960 . S
C704 H691 0.960 . S
C704 C703 1.524 . S
C705 C702 1.403 . S
C705 C706 1.392 . S
C705 C709 1.495 . S
C706 C705 1.392 . S
C706 C707 1.385 . S
C706 C708 1.478 . S
C707 H701 0.930 . S
C707 C703 1.400 . S
C707 C706 1.385 . S
C708 C706 1.478 . S
C708 C710 1.381 . S
C708 C714 1.383 . S
C709 C705 1.495 . S
C709 H715 0.959 . S
C709 H716 0.961 . S
C709 H717 0.960 . S
C710 C708 1.381 . S
C710 C711 1.394 . S
C710 H718 0.930 . S
C711 C710 1.394 . S
C711 C712 1.383 . S
C711 H719 0.929 . S
C712 C711 1.383 . S
C712 C713 1.377 . S
C713 H697 0.930 . S
C713 C712 1.377 . S
C713 C714 1.379 . S
C714 H698 0.931 . S
C714 C708 1.383 . S
C714 C713 1.379 . S
H715 C709 0.959 . S
H716 C709 0.961 . S
H717 C709 0.960 . S
H718 C710 0.930 . S
H719 C711 0.929 . S
H720 C728 0.929 . S
H721 C730 0.930 . S
H722 C732 0.930 . S
H723 C735 0.929 . S
H724 C738 0.930 . S
H725 C740 0.960 . S
H726 C740 0.960 . S
H727 C740 0.960 . S
C728 H720 0.929 . S
C728 C729 1.377 . S
C728 C730 1.384 . S
C729 C728 1.377 . S
C729 C735 1.390 . S
C730 H721 0.930 . S
C730 C728 1.384 . S
C730 C731 1.372 . S
C731 C730 1.372 . S
C731 C732 1.400 . S
C731 C736 1.490 . S
C732 H722 0.930 . S
C732 C731 1.400 . S
C732 C735 1.386 . S
H733 C749 0.930 . S
H734 C750 0.931 . S
C735 H723 0.929 . S
C735 C729 1.390 . S
C735 C732 1.386 . S
C736 C731 1.490 . S
C736 C738 1.395 . S
C736 C739 1.403 . S
H737 C743 0.930 . S
C738 H724 0.930 . S
C738 C736 1.395 . S
C738 C741 1.403 . S
C739 C736 1.403 . S
C739 C740 1.524 . S
C739 C743 1.400 . S
C740 H725 0.960 . S
C740 H726 0.960 . S
C740 H727 0.960 . S
C740 C739 1.524 . S
C741 C738 1.403 . S
C741 C742 1.392 . S
C741 C745 1.495 . S
C742 C741 1.392 . S
C742 C743 1.385 . S
C742 C744 1.478 . S
C743 H737 0.930 . S
C743 C739 1.400 . S
C743 C742 1.385 . S
C744 C742 1.478 . S
C744 C746 1.381 . S
C744 C750 1.383 . S
C745 C741 1.495 . S
C745 H751 0.959 . S
C745 H752 0.961 . S
C745 H753 0.960 . S
C746 C744 1.381 . S
C746 C747 1.394 . S
C746 H754 0.930 . S
C747 C746 1.394 . S
C747 C748 1.383 . S
C747 H755 0.929 . S
C748 C747 1.383 . S
C748 C749 1.377 . S
C749 H733 0.930 . S
C749 C748 1.377 . S
C749 C750 1.379 . S
C750 H734 0.931 . S
C750 C744 1.383 . S
C750 C749 1.379 . S
H751 C745 0.959 . S
H752 C745 0.961 . S
H753 C745 0.960 . S
H754 C746 0.930 . S
H755 C747 0.929 . S
H756 C764 0.929 . S
H757 C766 0.930 . S
H758 C768 0.930 . S
H759 C771 0.929 . S
H760 C774 0.930 . S
H761 C776 0.960 . S
H762 C776 0.960 . S
H763 C776 0.960 . S
C764 H756 0.929 . S
C764 C765 1.377 . S
C764 C766 1.384 . S
C765 C764 1.377 . S
C765 C771 1.390 . S
C766 H757 0.930 . S
C766 C764 1.384 . S
C766 C767 1.372 . S
C767 C766 1.372 . S
C767 C768 1.400 . S
C767 C772 1.490 . S
C768 H758 0.930 . S
C768 C767 1.400 . S
C768 C771 1.386 . S
H769 C785 0.930 . S
H770 C786 0.931 . S
C771 H759 0.929 . S
C771 C765 1.390 . S
C771 C768 1.386 . S
C772 C767 1.490 . S
C772 C774 1.395 . S
C772 C775 1.403 . S
H773 C779 0.930 . S
C774 H760 0.930 . S
C774 C772 1.395 . S
C774 C777 1.403 . S
C775 C772 1.403 . S
C775 C776 1.524 . S
C775 C779 1.400 . S
C776 H761 0.960 . S
C776 H762 0.960 . S
C776 H763 0.960 . S
C776 C775 1.524 . S
C777 C774 1.403 . S
C777 C778 1.392 . S
C777 C781 1.495 . S
C778 C777 1.392 . S
C778 C779 1.385 . S
C778 C780 1.478 . S
C779 H773 0.930 . S
C779 C775 1.400 . S
C779 C778 1.385 . S
C780 C778 1.478 . S
C780 C782 1.381 . S
C780 C786 1.383 . S
C781 C777 1.495 . S
C781 H787 0.959 . S
C781 H788 0.961 . S
C781 H789 0.960 . S
C782 C780 1.381 . S
C782 C783 1.394 . S
C782 H790 0.930 . S
C783 C782 1.394 . S
C783 C784 1.383 . S
C783 H791 0.929 . S
C784 C783 1.383 . S
C784 C785 1.377 . S
C785 H769 0.930 . S
C785 C784 1.377 . S
C785 C786 1.379 . S
C786 H770 0.931 . S
C786 C780 1.383 . S
C786 C785 1.379 . S
H787 C781 0.959 . S
H788 C781 0.961 . S
H789 C781 0.960 . S
H790 C782 0.930 . S
H791 C783 0.929 . S
H792 C800 0.929 . S
H793 C802 0.930 . S
H794 C804 0.930 . S
H795 C807 0.929 . S
H796 C810 0.930 . S
H797 C812 0.960 . S
H798 C812 0.960 . S
H799 C812 0.960 . S
C800 H792 0.929 . S
C800 C801 1.377 . S
C800 C802 1.384 . S
C801 C800 1.377 . S
C801 C807 1.390 . S
C802 H793 0.930 . S
C802 C800 1.384 . S
C802 C803 1.372 . S
C803 C802 1.372 . S
C803 C804 1.400 . S
C803 C808 1.490 . S
C804 H794 0.930 . S
C804 C803 1.400 . S
C804 C807 1.386 . S
H805 C821 0.930 . S
H806 C822 0.931 . S
C807 H795 0.929 . S
C807 C801 1.390 . S
C807 C804 1.386 . S
C808 C803 1.490 . S
C808 C810 1.395 . S
C808 C811 1.403 . S
H809 C815 0.930 . S
C810 H796 0.930 . S
C810 C808 1.395 . S
C810 C813 1.403 . S
C811 C808 1.403 . S
C811 C812 1.524 . S
C811 C815 1.400 . S
C812 H797 0.960 . S
C812 H798 0.960 . S
C812 H799 0.960 . S
C812 C811 1.524 . S
C813 C810 1.403 . S
C813 C814 1.392 . S
C813 C817 1.495 . S
C814 C813 1.392 . S
C814 C815 1.385 . S
C814 C816 1.478 . S
C815 H809 0.930 . S
C815 C811 1.400 . S
C815 C814 1.385 . S
C816 C814 1.478 . S
C816 C818 1.381 . S
C816 C822 1.383 . S
C817 C813 1.495 . S
C817 H823 0.959 . S
C817 H824 0.961 . S
C817 H825 0.960 . S
C818 C816 1.381 . S
C818 C819 1.394 . S
C818 H826 0.930 . S
C819 C818 1.394 . S
C819 C820 1.383 . S
C819 H827 0.929 . S
C820 C819 1.383 . S
C820 C821 1.377 . S
C821 H805 0.930 . S
C821 C820 1.377 . S
C821 C822 1.379 . S
C822 H806 0.931 . S
C822 C816 1.383 . S
C822 C821 1.379 . S
H823 C817 0.959 . S
H824 C817 0.961 . S
H825 C817 0.960 . S
H826 C818 0.930 . S
H827 C819 0.929 . S
H828 C836 0.929 . S
H829 C838 0.930 . S
H830 C840 0.930 . S
H831 C843 0.929 . S
H832 C846 0.930 . S
H833 C848 0.960 . S
H834 C848 0.960 . S
H835 C848 0.960 . S
C836 H828 0.929 . S
C836 C837 1.377 . S
C836 C838 1.384 . S
C837 C836 1.377 . S
C837 C843 1.390 . S
C838 H829 0.930 . S
C838 C836 1.384 . S
C838 C839 1.372 . S
C839 C838 1.372 . S
C839 C840 1.400 . S
C839 C844 1.490 . S
C840 H830 0.930 . S
C840 C839 1.400 . S
C840 C843 1.386 . S
H841 C857 0.930 . S
H842 C858 0.931 . S
C843 H831 0.929 . S
C843 C837 1.390 . S
C843 C840 1.386 . S
C844 C839 1.490 . S
C844 C846 1.395 . S
C844 C847 1.403 . S
H845 C851 0.930 . S
C846 H832 0.930 . S
C846 C844 1.395 . S
C846 C849 1.403 . S
C847 C844 1.403 . S
C847 C848 1.524 . S
C847 C851 1.400 . S
C848 H833 0.960 . S
C848 H834 0.960 . S
C848 H835 0.960 . S
C848 C847 1.524 . S
C849 C846 1.403 . S
C849 C850 1.392 . S
C849 C853 1.495 . S
C850 C849 1.392 . S
C850 C851 1.385 . S
C850 C852 1.478 . S
C851 H845 0.930 . S
C851 C847 1.400 . S
C851 C850 1.385 . S
C852 C850 1.478 . S
C852 C854 1.381 . S
C852 C858 1.383 1_554 S
C853 C849 1.495 . S
C853 H859 0.959 . S
C853 H860 0.961 . S
C853 H861 0.960 . S
C854 C852 1.381 . S
C854 C855 1.394 1_554 S
C854 H862 0.930 . S
C855 C854 1.394 1_556 S
C855 C856 1.383 . S
C855 H863 0.929 1_556 S
C856 C855 1.383 . S
C856 C857 1.377 . S
C857 H841 0.930 . S
C857 C856 1.377 . S
C857 C858 1.379 . S
C858 H842 0.931 . S
C858 C852 1.383 1_556 S
C858 C857 1.379 . S
H859 C853 0.959 . S
H860 C853 0.961 . S
H861 C853 0.960 . S
H862 C854 0.930 . S
H863 C855 0.929 1_554 S
H864 C872 0.929 . S
H865 C874 0.930 . S
H866 C876 0.930 . S
H867 C879 0.929 . S
H868 C882 0.930 . S
H869 C884 0.960 . S
H870 C884 0.960 . S
H871 C884 0.960 . S
C872 H864 0.929 . S
C872 C873 1.377 . S
C872 C874 1.384 . S
C873 C872 1.377 . S
C873 C879 1.390 . S
C874 H865 0.930 . S
C874 C872 1.384 . S
C874 C875 1.372 . S
C875 C874 1.372 . S
C875 C876 1.400 . S
C875 C880 1.490 . S
C876 H866 0.930 . S
C876 C875 1.400 . S
C876 C879 1.386 . S
H877 C893 0.933 . S
H878 C894 0.931 . S
C879 H867 0.929 . S
C879 C873 1.390 . S
C879 C876 1.386 . S
C880 C875 1.490 . S
C880 C882 1.395 . S
C880 C883 1.403 . S
H881 C887 0.930 . S
C882 H868 0.930 . S
C882 C880 1.395 . S
C882 C885 1.403 . S
C883 C880 1.403 . S
C883 C884 1.524 . S
C883 C887 1.400 . S
C884 H869 0.960 . S
C884 H870 0.960 . S
C884 H871 0.960 . S
C884 C883 1.524 . S
C885 C882 1.403 . S
C885 C886 1.392 . S
C885 C889 1.495 1_554 S
C886 C885 1.392 . S
C886 C887 1.385 . S
C886 C888 1.478 . S
C887 H881 0.930 . S
C887 C883 1.400 . S
C887 C886 1.385 . S
C888 C886 1.478 . S
C888 C890 1.381 1_554 S
C888 C894 1.383 . S
C889 C885 1.495 1_556 S
C889 H895 0.959 . S
C889 H896 0.961 . S
C889 H897 0.960 . S
C890 C888 1.381 1_556 S
C890 C891 1.394 . S
C890 H898 0.930 . S
C891 C890 1.394 . S
C891 C892 1.383 . S
C891 H899 0.929 . S
C892 C891 1.383 . S
C892 C893 1.377 . S
C893 H877 0.933 . S
C893 C892 1.377 . S
C893 C894 1.379 1_556 S
C894 H878 0.931 . S
C894 C888 1.383 . S
C894 C893 1.379 1_554 S
H895 C889 0.959 . S
H896 C889 0.961 . S
H897 C889 0.960 . S
H898 C890 0.930 . S
H899 C891 0.929 . S
H900 C908 0.929 . S
H901 C910 0.930 . S
H902 C912 0.930 . S
H903 C915 0.929 . S
H904 C918 0.930 . S
H905 C920 0.960 . S
H906 C920 0.960 . S
H907 C920 0.960 . S
C908 H900 0.929 . S
C908 C909 1.377 . S
C908 C910 1.384 . S
C909 C908 1.377 . S
C909 C915 1.390 . S
C910 H901 0.930 . S
C910 C908 1.384 . S
C910 C911 1.372 . S
C911 C910 1.372 . S
C911 C912 1.400 . S
C911 C916 1.490 . S
C912 H902 0.930 . S
C912 C911 1.400 . S
C912 C915 1.386 . S
H913 C929 0.930 1_554 S
H914 C930 0.931 . S
C915 H903 0.929 . S
C915 C909 1.390 . S
C915 C912 1.386 . S
C916 C911 1.490 . S
C916 C918 1.395 . S
C916 C919 1.403 . S
H917 C923 0.930 . S
C918 H904 0.930 . S
C918 C916 1.395 . S
C918 C921 1.403 . S
C919 C916 1.403 . S
C919 C920 1.524 . S
C919 C923 1.400 . S
C920 H905 0.960 . S
C920 H906 0.960 . S
C920 H907 0.960 . S
C920 C919 1.524 . S
C921 C918 1.403 . S
C921 C922 1.392 . S
C921 C925 1.495 . S
C922 C921 1.392 . S
C922 C923 1.385 . S
C922 C924 1.478 . S
C923 H917 0.930 . S
C923 C919 1.400 . S
C923 C922 1.385 . S
C924 C922 1.478 . S
C924 C926 1.381 1_554 S
C924 C930 1.383 . S
C925 C921 1.495 . S
C925 H931 0.959 . S
C925 H932 0.961 . S
C925 H933 0.960 1_554 S
C926 C924 1.381 1_556 S
C926 C927 1.394 . S
C926 H934 0.930 . S
C927 C926 1.394 . S
C927 C928 1.383 . S
C927 H935 0.929 . S
C928 C927 1.383 . S
C928 C929 1.377 . S
C929 H913 0.930 1_556 S
C929 C928 1.377 . S
C929 C930 1.379 1_556 S
C930 H914 0.931 . S
C930 C924 1.383 . S
C930 C929 1.379 1_554 S
H931 C925 0.959 . S
H932 C925 0.961 . S
H933 C925 0.960 1_556 S
H934 C926 0.930 . S
H935 C927 0.929 . S
H936 C944 0.929 . S
H937 C946 0.930 . S
H938 C948 0.930 . S
H939 C951 0.929 . S
H940 C954 0.930 . S
H941 C956 0.960 . S
H942 C956 0.960 . S
H943 C956 0.960 . S
C944 H936 0.929 . S
C944 C945 1.377 . S
C944 C946 1.384 . S
C945 C944 1.377 . S
C945 C951 1.390 . S
C946 H937 0.930 . S
C946 C944 1.384 . S
C946 C947 1.372 . S
C947 C946 1.372 . S
C947 C948 1.400 . S
C947 C952 1.490 . S
C948 H938 0.930 . S
C948 C947 1.400 . S
C948 C951 1.386 . S
H949 C965 0.930 . S
H950 C966 0.931 . S
C951 H939 0.929 . S
C951 C945 1.390 . S
C951 C948 1.386 . S
C952 C947 1.490 . S
C952 C954 1.395 . S
C952 C955 1.403 . S
H953 C959 0.930 . S
C954 H940 0.930 . S
C954 C952 1.395 . S
C954 C957 1.403 . S
C955 C952 1.403 . S
C955 C956 1.524 . S
C955 C959 1.400 . S
C956 H941 0.960 . S
C956 H942 0.960 . S
C956 H943 0.960 . S
C956 C955 1.524 . S
C957 C954 1.403 . S
C957 C958 1.392 . S
C957 C961 1.495 . S
C958 C957 1.392 . S
C958 C959 1.385 . S
C958 C960 1.478 . S
C959 H953 0.930 . S
C959 C955 1.400 . S
C959 C958 1.385 . S
C960 C958 1.478 . S
C960 C962 1.381 . S
C960 C966 1.383 1_556 S
C961 C957 1.495 . S
C961 H967 0.959 . S
C961 H968 0.961 . S
C961 H969 0.960 . S
C962 C960 1.381 . S
C962 C963 1.394 1_556 S
C962 H970 0.930 . S
C963 C962 1.394 1_554 S
C963 C964 1.383 . S
C963 H971 0.929 . S
C964 C963 1.383 . S
C964 C965 1.377 . S
C965 H949 0.930 . S
C965 C964 1.377 . S
C965 C966 1.379 . S
C966 H950 0.931 . S
C966 C960 1.383 1_554 S
C966 C965 1.379 . S
H967 C961 0.959 . S
H968 C961 0.961 . S
H969 C961 0.960 . S
H970 C962 0.930 . S
H971 C963 0.929 . S
H972 C980 0.929 . S
H973 C982 0.930 . S
H974 C984 0.930 . S
H975 C987 0.929 . S
H976 C990 0.930 1_554 S
H977 C992 0.960 . S
H978 C992 0.960 . S
H979 C992 0.960 . S
C980 H972 0.929 . S
C980 C981 1.377 . S
C980 C982 1.384 . S
C981 C980 1.377 . S
C981 C987 1.390 . S
C982 H973 0.930 . S
C982 C980 1.384 . S
C982 C983 1.372 1_554 S
C983 C982 1.372 1_556 S
C983 C984 1.400 . S
C983 C988 1.490 . S
C984 H974 0.930 . S
C984 C983 1.400 . S
C984 C987 1.386 1_556 S
H985 C1001 0.930 . S
H986 C1002 0.931 . S
C987 H975 0.929 . S
C987 C981 1.390 . S
C987 C984 1.386 1_554 S
C988 C983 1.490 . S
C988 C990 1.395 . S
C988 C991 1.403 . S
H989 C995 0.930 . S
C990 H976 0.930 1_556 S
C990 C988 1.395 . S
C990 C993 1.403 . S
C991 C988 1.403 . S
C991 C992 1.524 . S
C991 C995 1.400 . S
C992 H977 0.960 . S
C992 H978 0.960 . S
C992 H979 0.960 . S
C992 C991 1.524 . S
C993 C990 1.403 . S
C993 C994 1.392 . S
C993 C997 1.495 . S
C994 C993 1.392 . S
C994 C995 1.385 . S
C994 C996 1.478 . S
C995 H989 0.930 . S
C995 C991 1.400 . S
C995 C994 1.385 . S
C996 C994 1.478 . S
C996 C998 1.381 . S
C996 C1002 1.383 . S
C997 C993 1.495 . S
C997 H1003 0.959 . S
C997 H1004 0.961 . S
C997 H1005 0.960 . S
C998 C996 1.381 . S
C998 C999 1.394 . S
C998 H1006 0.930 . S
C999 C998 1.394 . S
C999 C1000 1.383 . S
C999 H1007 0.929 . S
C1000 C999 1.383 . S
C1000 C1001 1.377 . S
C1001 H985 0.930 . S
C1001 C1000 1.377 . S
C1001 C1002 1.379 . S
C1002 H986 0.931 . S
C1002 C996 1.383 . S
C1002 C1001 1.379 . S
H1003 C997 0.959 . S
H1004 C997 0.961 . S
H1005 C997 0.960 . S
H1006 C998 0.930 . S
H1007 C999 0.929 . S
H1008 C1016 0.929 . S
H1009 C1018 0.930 . S
H1010 C1020 0.930 . S
H1011 C1023 0.929 . S
H1012 C1026 0.930 . S
H1013 C1028 0.960 . S
H1014 C1028 0.960 . S
H1015 C1028 0.960 . S
C1016 H1008 0.929 . S
C1016 C1017 1.377 . S
C1016 C1018 1.384 . S
C1017 C1016 1.377 . S
C1017 C1023 1.390 . S
C1018 H1009 0.930 . S
C1018 C1016 1.384 . S
C1018 C1019 1.372 . S
C1019 C1018 1.372 . S
C1019 C1020 1.400 . S
C1019 C1024 1.490 . S
C1020 H1010 0.930 . S
C1020 C1019 1.400 . S
C1020 C1023 1.386 . S
H1021 C1037 0.930 . S
H1022 C1038 0.931 . S
C1023 H1011 0.929 . S
C1023 C1017 1.390 . S
C1023 C1020 1.386 . S
C1024 C1019 1.490 . S
C1024 C1026 1.395 . S
C1024 C1027 1.403 . S
H1025 C1031 0.930 . S
C1026 H1012 0.930 . S
C1026 C1024 1.395 . S
C1026 C1029 1.403 . S
C1027 C1024 1.403 . S
C1027 C1028 1.524 . S
C1027 C1031 1.400 . S
C1028 H1013 0.960 . S
C1028 H1014 0.960 . S
C1028 H1015 0.960 . S
C1028 C1027 1.524 . S
C1029 C1026 1.403 . S
C1029 C1030 1.392 . S
C1029 C1033 1.495 1_556 S
C1030 C1029 1.392 . S
C1030 C1031 1.385 . S
C1030 C1032 1.478 . S
C1031 H1025 0.930 . S
C1031 C1027 1.400 . S
C1031 C1030 1.385 . S
C1032 C1030 1.478 . S
C1032 C1034 1.381 1_556 S
C1032 C1038 1.383 1_556 S
C1033 C1029 1.495 1_554 S
C1033 H1039 0.959 . S
C1033 H1040 0.961 . S
C1033 H1041 0.960 . S
C1034 C1032 1.381 1_554 S
C1034 C1035 1.394 . S
C1034 H1042 0.930 1_554 S
C1035 C1034 1.394 . S
C1035 C1036 1.383 . S
C1035 H1043 0.929 . S
C1036 C1035 1.383 . S
C1036 C1037 1.377 . S
C1037 H1021 0.930 . S
C1037 C1036 1.377 . S
C1037 C1038 1.379 . S
C1038 H1022 0.931 . S
C1038 C1032 1.383 1_554 S
C1038 C1037 1.379 . S
H1039 C1033 0.959 . S
H1040 C1033 0.961 . S
H1041 C1033 0.960 . S
H1042 C1034 0.930 1_556 S
H1043 C1035 0.929 . S
H1044 C1052 0.929 . S
H1045 C1054 0.930 . S
H1046 C1056 0.930 . S
H1047 C1059 0.929 . S
H1048 C1062 0.930 . S
H1049 C1064 0.960 . S
H1050 C1064 0.960 . S
H1051 C1064 0.960 . S
C1052 H1044 0.929 . S
C1052 C1053 1.377 . S
C1052 C1054 1.384 . S
C1053 C1052 1.377 . S
C1053 C1059 1.390 . S
C1054 H1045 0.930 . S
C1054 C1052 1.384 . S
C1054 C1055 1.372 . S
C1055 C1054 1.372 . S
C1055 C1056 1.400 . S
C1055 C1060 1.490 . S
C1056 H1046 0.930 . S
C1056 C1055 1.400 . S
C1056 C1059 1.386 . S
H1057 C1073 0.930 . S
H1058 C1074 0.931 . S
C1059 H1047 0.929 . S
C1059 C1053 1.390 . S
C1059 C1056 1.386 . S
C1060 C1055 1.490 . S
C1060 C1062 1.395 . S
C1060 C1063 1.403 . S
H1061 C1067 0.930 . S
C1062 H1048 0.930 . S
C1062 C1060 1.395 . S
C1062 C1065 1.403 . S
C1063 C1060 1.403 . S
C1063 C1064 1.524 . S
C1063 C1067 1.400 . S
C1064 H1049 0.960 . S
C1064 H1050 0.960 . S
C1064 H1051 0.960 . S
C1064 C1063 1.524 . S
C1065 C1062 1.403 . S
C1065 C1066 1.392 . S
C1065 C1069 1.495 . S
C1066 C1065 1.392 . S
C1066 C1067 1.385 . S
C1066 C1068 1.478 . S
C1067 H1061 0.930 . S
C1067 C1063 1.400 . S
C1067 C1066 1.385 . S
C1068 C1066 1.478 . S
C1068 C1070 1.381 . S
C1068 C1074 1.383 . S
C1069 C1065 1.495 . S
C1069 H1075 0.959 . S
C1069 H1076 0.961 . S
C1069 H1077 0.960 . S
C1070 C1068 1.381 . S
C1070 C1071 1.394 . S
C1070 H1078 0.930 . S
C1071 C1070 1.394 . S
C1071 C1072 1.383 . S
C1071 H1079 0.929 . S
C1072 C1071 1.383 . S
C1072 C1073 1.377 . S
C1073 H1057 0.930 . S
C1073 C1072 1.377 . S
C1073 C1074 1.379 . S
C1074 H1058 0.931 . S
C1074 C1068 1.383 . S
C1074 C1073 1.379 . S
H1075 C1069 0.959 . S
H1076 C1069 0.961 . S
H1077 C1069 0.960 . S
H1078 C1070 0.930 . S
H1079 C1071 0.929 . S
H1080 C1088 0.929 . S
H1081 C1090 0.930 . S
H1082 C1092 0.930 . S
H1083 C1095 0.929 . S
H1084 C1098 0.930 . S
H1085 C1100 0.960 . S
H1086 C1100 0.960 . S
H1087 C1100 0.960 . S
C1088 H1080 0.929 . S
C1088 C1089 1.377 . S
C1088 C1090 1.384 . S
C1089 C1088 1.377 . S
C1089 C1095 1.390 . S
C1090 H1081 0.930 . S
C1090 C1088 1.384 . S
C1090 C1091 1.372 . S
C1091 C1090 1.372 . S
C1091 C1092 1.400 . S
C1091 C1096 1.490 . S
C1092 H1082 0.930 . S
C1092 C1091 1.400 . S
C1092 C1095 1.386 . S
H1093 C1109 0.930 . S
H1094 C1110 0.931 . S
C1095 H1083 0.929 . S
C1095 C1089 1.390 . S
C1095 C1092 1.386 . S
C1096 C1091 1.490 . S
C1096 C1098 1.395 . S
C1096 C1099 1.403 . S
H1097 C1103 0.930 . S
C1098 H1084 0.930 . S
C1098 C1096 1.395 . S
C1098 C1101 1.403 . S
C1099 C1096 1.403 . S
C1099 C1100 1.524 . S
C1099 C1103 1.400 . S
C1100 H1085 0.960 . S
C1100 H1086 0.960 . S
C1100 H1087 0.960 . S
C1100 C1099 1.524 . S
C1101 C1098 1.403 . S
C1101 C1102 1.392 . S
C1101 C1105 1.495 . S
C1102 C1101 1.392 . S
C1102 C1103 1.385 . S
C1102 C1104 1.478 . S
C1103 H1097 0.930 . S
C1103 C1099 1.400 . S
C1103 C1102 1.385 . S
C1104 C1102 1.478 . S
C1104 C1106 1.381 . S
C1104 C1110 1.383 . S
C1105 C1101 1.495 . S
C1105 H1111 0.959 . S
C1105 H1112 0.961 . S
C1105 H1113 0.960 . S
C1106 C1104 1.381 . S
C1106 C1107 1.394 . S
C1106 H1114 0.930 . S
C1107 C1106 1.394 . S
C1107 C1108 1.383 . S
C1107 H1115 0.929 . S
C1108 C1107 1.383 . S
C1108 C1109 1.377 . S
C1109 H1093 0.930 . S
C1109 C1108 1.377 . S
C1109 C1110 1.379 . S
C1110 H1094 0.931 . S
C1110 C1104 1.383 . S
C1110 C1109 1.379 . S
H1111 C1105 0.959 . S
H1112 C1105 0.961 . S
H1113 C1105 0.960 . S
H1114 C1106 0.930 . S
H1115 C1107 0.929 . S
H1116 C1124 0.929 . S
H1117 C1126 0.930 . S
H1118 C1128 0.930 . S
H1119 C1131 0.929 . S
H1120 C1134 0.930 . S
H1121 C1136 0.960 . S
H1122 C1136 0.960 . S
H1123 C1136 0.960 . S
C1124 H1116 0.929 . S
C1124 C1125 1.377 . S
C1124 C1126 1.384 . S
C1125 C1124 1.377 . S
C1125 C1131 1.390 . S
C1126 H1117 0.930 . S
C1126 C1124 1.384 . S
C1126 C1127 1.372 . S
C1127 C1126 1.372 . S
C1127 C1128 1.400 . S
C1127 C1132 1.490 . S
C1128 H1118 0.930 . S
C1128 C1127 1.400 . S
C1128 C1131 1.386 . S
H1129 C1145 0.930 . S
H1130 C1146 0.931 . S
C1131 H1119 0.929 . S
C1131 C1125 1.390 . S
C1131 C1128 1.386 . S
C1132 C1127 1.490 . S
C1132 C1134 1.395 . S
C1132 C1135 1.403 . S
H1133 C1139 0.930 . S
C1134 H1120 0.930 . S
C1134 C1132 1.395 . S
C1134 C1137 1.403 . S
C1135 C1132 1.403 . S
C1135 C1136 1.524 . S
C1135 C1139 1.400 . S
C1136 H1121 0.960 . S
C1136 H1122 0.960 . S
C1136 H1123 0.960 . S
C1136 C1135 1.524 . S
C1137 C1134 1.403 . S
C1137 C1138 1.392 . S
C1137 C1141 1.495 . S
C1138 C1137 1.392 . S
C1138 C1139 1.385 . S
C1138 C1140 1.478 . S
C1139 H1133 0.930 . S
C1139 C1135 1.400 . S
C1139 C1138 1.385 . S
C1140 C1138 1.478 . S
C1140 C1142 1.381 . S
C1140 C1146 1.383 . S
C1141 C1137 1.495 . S
C1141 H1147 0.959 . S
C1141 H1148 0.961 . S
C1141 H1149 0.960 . S
C1142 C1140 1.381 . S
C1142 C1143 1.394 . S
C1142 H1150 0.930 . S
C1143 C1142 1.394 . S
C1143 C1144 1.383 . S
C1143 H1151 0.929 . S
C1144 C1143 1.383 . S
C1144 C1145 1.377 . S
C1145 H1129 0.930 . S
C1145 C1144 1.377 . S
C1145 C1146 1.379 . S
C1146 H1130 0.931 . S
C1146 C1140 1.383 . S
C1146 C1145 1.379 . S
H1147 C1141 0.959 . S
H1148 C1141 0.961 . S
H1149 C1141 0.960 . S
H1150 C1142 0.930 . S
H1151 C1143 0.929 . S
H1152 C1160 0.929 . S
H1153 C1162 0.930 . S
H1154 C1164 0.930 . S
H1155 C1167 0.929 . S
H1156 C1170 0.930 . S
H1157 C1172 0.960 . S
H1158 C1172 0.960 . S
H1159 C1172 0.960 . S
C1160 H1152 0.929 . S
C1160 C1161 1.377 . S
C1160 C1162 1.384 . S
C1161 C1160 1.377 . S
C1161 C1167 1.390 . S
C1162 H1153 0.930 . S
C1162 C1160 1.384 . S
C1162 C1163 1.372 . S
C1163 C1162 1.372 . S
C1163 C1164 1.400 . S
C1163 C1168 1.490 . S
C1164 H1154 0.930 . S
C1164 C1163 1.400 . S
C1164 C1167 1.386 . S
H1165 C1181 0.930 . S
H1166 C1182 0.931 . S
C1167 H1155 0.929 . S
C1167 C1161 1.390 . S
C1167 C1164 1.386 . S
C1168 C1163 1.490 . S
C1168 C1170 1.395 . S
C1168 C1171 1.403 . S
H1169 C1175 0.930 . S
C1170 H1156 0.930 . S
C1170 C1168 1.395 . S
C1170 C1173 1.403 . S
C1171 C1168 1.403 . S
C1171 C1172 1.524 . S
C1171 C1175 1.400 . S
C1172 H1157 0.960 . S
C1172 H1158 0.960 . S
C1172 H1159 0.960 . S
C1172 C1171 1.524 . S
C1173 C1170 1.403 . S
C1173 C1174 1.392 . S
C1173 C1177 1.495 . S
C1174 C1173 1.392 . S
C1174 C1175 1.385 . S
C1174 C1176 1.478 . S
C1175 H1169 0.930 . S
C1175 C1171 1.400 . S
C1175 C1174 1.385 . S
C1176 C1174 1.478 . S
C1176 C1178 1.381 . S
C1176 C1182 1.383 . S
C1177 C1173 1.495 . S
C1177 H1183 0.959 . S
C1177 H1184 0.961 . S
C1177 H1185 0.960 . S
C1178 C1176 1.381 . S
C1178 C1179 1.394 . S
C1178 H1186 0.930 . S
C1179 C1178 1.394 . S
C1179 C1180 1.383 . S
C1179 H1187 0.929 . S
C1180 C1179 1.383 . S
C1180 C1181 1.377 . S
C1181 H1165 0.930 . S
C1181 C1180 1.377 . S
C1181 C1182 1.379 . S
C1182 H1166 0.931 . S
C1182 C1176 1.383 . S
C1182 C1181 1.379 . S
H1183 C1177 0.959 . S
H1184 C1177 0.961 . S
H1185 C1177 0.960 . S
H1186 C1178 0.930 . S
H1187 C1179 0.929 . S
H1188 C1196 0.929 . S
H1189 C1198 0.930 . S
H1190 C1200 0.930 . S
H1191 C1203 0.929 . S
H1192 C1206 0.930 . S
H1193 C1208 0.960 . S
H1194 C1208 0.960 . S
H1195 C1208 0.960 . S
C1196 H1188 0.929 . S
C1196 C1197 1.377 . S
C1196 C1198 1.384 . S
C1197 C1196 1.377 . S
C1197 C1203 1.390 . S
C1198 H1189 0.930 . S
C1198 C1196 1.384 . S
C1198 C1199 1.372 . S
C1199 C1198 1.372 . S
C1199 C1200 1.400 . S
C1199 C1204 1.490 . S
C1200 H1190 0.930 . S
C1200 C1199 1.400 . S
C1200 C1203 1.386 . S
H1201 C1217 0.930 . S
H1202 C1218 0.931 . S
C1203 H1191 0.929 . S
C1203 C1197 1.390 . S
C1203 C1200 1.386 . S
C1204 C1199 1.490 . S
C1204 C1206 1.395 . S
C1204 C1207 1.403 . S
H1205 C1211 0.930 . S
C1206 H1192 0.930 . S
C1206 C1204 1.395 . S
C1206 C1209 1.403 . S
C1207 C1204 1.403 . S
C1207 C1208 1.524 . S
C1207 C1211 1.400 . S
C1208 H1193 0.960 . S
C1208 H1194 0.960 . S
C1208 H1195 0.960 . S
C1208 C1207 1.524 . S
C1209 C1206 1.403 . S
C1209 C1210 1.392 . S
C1209 C1213 1.495 . S
C1210 C1209 1.392 . S
C1210 C1211 1.385 . S
C1210 C1212 1.478 . S
C1211 H1205 0.930 . S
C1211 C1207 1.400 . S
C1211 C1210 1.385 . S
C1212 C1210 1.478 . S
C1212 C1214 1.381 . S
C1212 C1218 1.383 . S
C1213 C1209 1.495 . S
C1213 H1219 0.959 . S
C1213 H1220 0.961 . S
C1213 H1221 0.960 . S
C1214 C1212 1.381 . S
C1214 C1215 1.394 . S
C1214 H1222 0.930 . S
C1215 C1214 1.394 . S
C1215 C1216 1.383 . S
C1215 H1223 0.929 . S
C1216 C1215 1.383 . S
C1216 C1217 1.377 . S
C1217 H1201 0.930 . S
C1217 C1216 1.377 . S
C1217 C1218 1.379 . S
C1218 H1202 0.931 . S
C1218 C1212 1.383 . S
C1218 C1217 1.379 . S
H1219 C1213 0.959 . S
H1220 C1213 0.961 . S
H1221 C1213 0.960 . S
H1222 C1214 0.930 . S
H1223 C1215 0.929 . S
H1224 C1232 0.929 . S
H1225 C1234 0.930 . S
H1226 C1236 0.930 . S
H1227 C1239 0.929 . S
H1228 C1242 0.930 . S
H1229 C1244 0.960 . S
H1230 C1244 0.960 . S
H1231 C1244 0.960 . S
C1232 H1224 0.929 . S
C1232 C1233 1.377 . S
C1232 C1234 1.384 . S
C1233 C1232 1.377 . S
C1233 C1239 1.390 . S
C1234 H1225 0.930 . S
C1234 C1232 1.384 . S
C1234 C1235 1.372 . S
C1235 C1234 1.372 . S
C1235 C1236 1.400 . S
C1235 C1240 1.490 . S
C1236 H1226 0.930 . S
C1236 C1235 1.400 . S
C1236 C1239 1.386 . S
H1237 C1253 0.930 . S
H1238 C1254 0.931 . S
C1239 H1227 0.929 . S
C1239 C1233 1.390 . S
C1239 C1236 1.386 . S
C1240 C1235 1.490 . S
C1240 C1242 1.395 . S
C1240 C1243 1.403 . S
H1241 C1247 0.930 . S
C1242 H1228 0.930 . S
C1242 C1240 1.395 . S
C1242 C1245 1.403 . S
C1243 C1240 1.403 . S
C1243 C1244 1.524 . S
C1243 C1247 1.400 . S
C1244 H1229 0.960 . S
C1244 H1230 0.960 . S
C1244 H1231 0.960 . S
C1244 C1243 1.524 . S
C1245 C1242 1.403 . S
C1245 C1246 1.392 . S
C1245 C1249 1.495 . S
C1246 C1245 1.392 . S
C1246 C1247 1.385 . S
C1246 C1248 1.478 . S
C1247 H1241 0.930 . S
C1247 C1243 1.400 . S
C1247 C1246 1.385 . S
C1248 C1246 1.478 . S
C1248 C1250 1.381 . S
C1248 C1254 1.383 . S
C1249 C1245 1.495 . S
C1249 H1255 0.959 . S
C1249 H1256 0.961 . S
C1249 H1257 0.960 . S
C1250 C1248 1.381 . S
C1250 C1251 1.394 . S
C1250 H1258 0.930 . S
C1251 C1250 1.394 . S
C1251 C1252 1.383 . S
C1251 H1259 0.929 . S
C1252 C1251 1.383 . S
C1252 C1253 1.377 . S
C1253 H1237 0.930 . S
C1253 C1252 1.377 . S
C1253 C1254 1.379 . S
C1254 H1238 0.931 . S
C1254 C1248 1.383 . S
C1254 C1253 1.379 . S
H1255 C1249 0.959 . S
H1256 C1249 0.961 . S
H1257 C1249 0.960 . S
H1258 C1250 0.930 . S
H1259 C1251 0.929 . S
H1260 C1268 0.929 . S
H1261 C1270 0.930 . S
H1262 C1272 0.930 . S
H1263 C1275 0.929 . S
H1264 C1278 0.930 . S
H1265 C1280 0.960 . S
H1266 C1280 0.960 . S
H1267 C1280 0.960 . S
C1268 H1260 0.929 . S
C1268 C1269 1.377 . S
C1268 C1270 1.384 . S
C1269 C1268 1.377 . S
C1269 C1275 1.390 . S
C1270 H1261 0.930 . S
C1270 C1268 1.384 . S
C1270 C1271 1.372 . S
C1271 C1270 1.372 . S
C1271 C1272 1.400 . S
C1271 C1276 1.490 . S
C1272 H1262 0.930 . S
C1272 C1271 1.400 . S
C1272 C1275 1.386 . S
H1273 C1289 0.930 . S
H1274 C1290 0.931 . S
C1275 H1263 0.929 . S
C1275 C1269 1.390 . S
C1275 C1272 1.386 . S
C1276 C1271 1.490 . S
C1276 C1278 1.395 . S
C1276 C1279 1.403 . S
H1277 C1283 0.930 . S
C1278 H1264 0.930 . S
C1278 C1276 1.395 . S
C1278 C1281 1.403 . S
C1279 C1276 1.403 . S
C1279 C1280 1.524 . S
C1279 C1283 1.400 . S
C1280 H1265 0.960 . S
C1280 H1266 0.960 . S
C1280 H1267 0.960 . S
C1280 C1279 1.524 . S
C1281 C1278 1.403 . S
C1281 C1282 1.392 . S
C1281 C1285 1.495 . S
C1282 C1281 1.392 . S
C1282 C1283 1.385 . S
C1282 C1284 1.478 . S
C1283 H1277 0.930 . S
C1283 C1279 1.400 . S
C1283 C1282 1.385 . S
C1284 C1282 1.478 . S
C1284 C1286 1.381 . S
C1284 C1290 1.383 . S
C1285 C1281 1.495 . S
C1285 H1291 0.959 . S
C1285 H1292 0.961 . S
C1285 H1293 0.960 . S
C1286 C1284 1.381 . S
C1286 C1287 1.394 . S
C1286 H1294 0.930 . S
C1287 C1286 1.394 . S
C1287 C1288 1.383 . S
C1287 H1295 0.929 . S
C1288 C1287 1.383 . S
C1288 C1289 1.377 . S
C1289 H1273 0.930 . S
C1289 C1288 1.377 . S
C1289 C1290 1.379 . S
C1290 H1274 0.931 . S
C1290 C1284 1.383 . S
C1290 C1289 1.379 . S
H1291 C1285 0.959 . S
H1292 C1285 0.961 . S
H1293 C1285 0.960 . S
H1294 C1286 0.930 . S
H1295 C1287 0.929 . S
H1296 C1304 0.929 . S
H1297 C1306 0.930 . S
H1298 C1308 0.930 . S
H1299 C1311 0.929 . S
H1300 C1314 0.930 . S
H1301 C1316 0.960 . S
H1302 C1316 0.960 . S
H1303 C1316 0.960 . S
C1304 H1296 0.929 . S
C1304 C1305 1.377 . S
C1304 C1306 1.384 . S
C1305 C1304 1.377 . S
C1305 C1311 1.390 . S
C1306 H1297 0.930 . S
C1306 C1304 1.384 . S
C1306 C1307 1.372 . S
C1307 C1306 1.372 . S
C1307 C1308 1.400 . S
C1307 C1312 1.490 . S
C1308 H1298 0.930 . S
C1308 C1307 1.400 . S
C1308 C1311 1.386 . S
H1309 C1325 0.930 . S
H1310 C1326 0.931 . S
C1311 H1299 0.929 . S
C1311 C1305 1.390 . S
C1311 C1308 1.386 . S
C1312 C1307 1.490 . S
C1312 C1314 1.395 . S
C1312 C1315 1.403 . S
H1313 C1319 0.930 . S
C1314 H1300 0.930 . S
C1314 C1312 1.395 . S
C1314 C1317 1.403 . S
C1315 C1312 1.403 . S
C1315 C1316 1.524 . S
C1315 C1319 1.400 . S
C1316 H1301 0.960 . S
C1316 H1302 0.960 . S
C1316 H1303 0.960 . S
C1316 C1315 1.524 . S
C1317 C1314 1.403 . S
C1317 C1318 1.392 . S
C1317 C1321 1.495 . S
C1318 C1317 1.392 . S
C1318 C1319 1.385 . S
C1318 C1320 1.478 . S
C1319 H1313 0.930 . S
C1319 C1315 1.400 . S
C1319 C1318 1.385 . S
C1320 C1318 1.478 . S
C1320 C1322 1.381 . S
C1320 C1326 1.383 . S
C1321 C1317 1.495 . S
C1321 H1327 0.959 . S
C1321 H1328 0.961 . S
C1321 H1329 0.960 . S
C1322 C1320 1.381 . S
C1322 C1323 1.394 . S
C1322 H1330 0.930 . S
C1323 C1322 1.394 . S
C1323 C1324 1.383 . S
C1323 H1331 0.929 . S
C1324 C1323 1.383 . S
C1324 C1325 1.377 . S
C1325 H1309 0.930 . S
C1325 C1324 1.377 . S
C1325 C1326 1.379 . S
C1326 H1310 0.931 . S
C1326 C1320 1.383 . S
C1326 C1325 1.379 . S
H1327 C1321 0.959 . S
H1328 C1321 0.961 . S
H1329 C1321 0.960 . S
H1330 C1322 0.930 . S
H1331 C1323 0.929 . S
H1332 C1340 0.929 . S
H1333 C1342 0.930 . S
H1334 C1344 0.930 . S
H1335 C1347 0.929 . S
H1336 C1350 0.930 . S
H1337 C1352 0.960 . S
H1338 C1352 0.960 . S
H1339 C1352 0.960 . S
C1340 H1332 0.929 . S
C1340 C1341 1.377 . S
C1340 C1342 1.384 . S
C1341 C1340 1.377 . S
C1341 C1347 1.390 . S
C1342 H1333 0.930 . S
C1342 C1340 1.384 . S
C1342 C1343 1.372 . S
C1343 C1342 1.372 . S
C1343 C1344 1.400 . S
C1343 C1348 1.490 . S
C1344 H1334 0.930 . S
C1344 C1343 1.400 . S
C1344 C1347 1.386 . S
H1345 C1361 0.930 . S
H1346 C1362 0.931 . S
C1347 H1335 0.929 . S
C1347 C1341 1.390 . S
C1347 C1344 1.386 . S
C1348 C1343 1.490 . S
C1348 C1350 1.395 . S
C1348 C1351 1.403 . S
H1349 C1355 0.930 . S
C1350 H1336 0.930 . S
C1350 C1348 1.395 . S
C1350 C1353 1.403 . S
C1351 C1348 1.403 . S
C1351 C1352 1.524 . S
C1351 C1355 1.400 . S
C1352 H1337 0.960 . S
C1352 H1338 0.960 . S
C1352 H1339 0.960 . S
C1352 C1351 1.524 . S
C1353 C1350 1.403 . S
C1353 C1354 1.392 . S
C1353 C1357 1.495 . S
C1354 C1353 1.392 . S
C1354 C1355 1.385 . S
C1354 C1356 1.478 . S
C1355 H1349 0.930 . S
C1355 C1351 1.400 . S
C1355 C1354 1.385 . S
C1356 C1354 1.478 . S
C1356 C1358 1.381 . S
C1356 C1362 1.383 . S
C1357 C1353 1.495 . S
C1357 H1363 0.959 . S
C1357 H1364 0.961 . S
C1357 H1365 0.960 . S
C1358 C1356 1.381 . S
C1358 C1359 1.394 . S
C1358 H1366 0.930 . S
C1359 C1358 1.394 . S
C1359 C1360 1.383 . S
C1359 H1367 0.929 . S
C1360 C1359 1.383 . S
C1360 C1361 1.377 . S
C1361 H1345 0.930 . S
C1361 C1360 1.377 . S
C1361 C1362 1.379 . S
C1362 H1346 0.931 . S
C1362 C1356 1.383 . S
C1362 C1361 1.379 . S
H1363 C1357 0.959 . S
H1364 C1357 0.961 . S
H1365 C1357 0.960 . S
H1366 C1358 0.930 . S
H1367 C1359 0.929 . S
H1368 C1376 0.929 . S
H1369 C1378 0.930 . S
H1370 C1380 0.930 . S
H1371 C1383 0.929 . S
H1372 C1386 0.930 . S
H1373 C1388 0.960 . S
H1374 C1388 0.960 . S
H1375 C1388 0.960 . S
C1376 H1368 0.929 . S
C1376 C1377 1.377 . S
C1376 C1378 1.384 . S
C1377 C1376 1.377 . S
C1377 C1383 1.390 . S
C1378 H1369 0.930 . S
C1378 C1376 1.384 . S
C1378 C1379 1.372 . S
C1379 C1378 1.372 . S
C1379 C1380 1.400 . S
C1379 C1384 1.490 . S
C1380 H1370 0.930 . S
C1380 C1379 1.400 . S
C1380 C1383 1.386 . S
H1381 C1397 0.930 . S
H1382 C1398 0.931 . S
C1383 H1371 0.929 . S
C1383 C1377 1.390 . S
C1383 C1380 1.386 . S
C1384 C1379 1.490 . S
C1384 C1386 1.395 . S
C1384 C1387 1.403 . S
H1385 C1391 0.930 . S
C1386 H1372 0.930 . S
C1386 C1384 1.395 . S
C1386 C1389 1.403 . S
C1387 C1384 1.403 . S
C1387 C1388 1.524 . S
C1387 C1391 1.400 . S
C1388 H1373 0.960 . S
C1388 H1374 0.960 . S
C1388 H1375 0.960 . S
C1388 C1387 1.524 . S
C1389 C1386 1.403 . S
C1389 C1390 1.392 . S
C1389 C1393 1.495 . S
C1390 C1389 1.392 . S
C1390 C1391 1.385 . S
C1390 C1392 1.478 . S
C1391 H1385 0.930 . S
C1391 C1387 1.400 . S
C1391 C1390 1.385 . S
C1392 C1390 1.478 . S
C1392 C1394 1.381 . S
C1392 C1398 1.383 . S
C1393 C1389 1.495 . S
C1393 H1399 0.959 . S
C1393 H1400 0.961 . S
C1393 H1401 0.960 . S
C1394 C1392 1.381 . S
C1394 C1395 1.394 . S
C1394 H1402 0.930 . S
C1395 C1394 1.394 . S
C1395 C1396 1.383 . S
C1395 H1403 0.929 . S
C1396 C1395 1.383 . S
C1396 C1397 1.377 . S
C1397 H1381 0.930 . S
C1397 C1396 1.377 . S
C1397 C1398 1.379 . S
C1398 H1382 0.931 . S
C1398 C1392 1.383 . S
C1398 C1397 1.379 . S
H1399 C1393 0.959 . S
H1400 C1393 0.961 . S
H1401 C1393 0.960 . S
H1402 C1394 0.930 . S
H1403 C1395 0.929 . S
H1404 C1412 0.929 . S
H1405 C1414 0.930 . S
H1406 C1416 0.930 . S
H1407 C1419 0.929 . S
H1408 C1422 0.930 . S
H1409 C1424 0.960 . S
H1410 C1424 0.960 . S
H1411 C1424 0.960 . S
C1412 H1404 0.929 . S
C1412 C1413 1.377 . S
C1412 C1414 1.384 . S
C1413 C1412 1.377 . S
C1413 C1419 1.390 . S
C1414 H1405 0.930 . S
C1414 C1412 1.384 . S
C1414 C1415 1.372 . S
C1415 C1414 1.372 . S
C1415 C1416 1.400 . S
C1415 C1420 1.490 . S
C1416 H1406 0.930 . S
C1416 C1415 1.400 . S
C1416 C1419 1.386 . S
H1417 C1433 0.930 . S
H1418 C1434 0.931 . S
C1419 H1407 0.929 . S
C1419 C1413 1.390 . S
C1419 C1416 1.386 . S
C1420 C1415 1.490 . S
C1420 C1422 1.395 . S
C1420 C1423 1.403 . S
H1421 C1427 0.930 . S
C1422 H1408 0.930 . S
C1422 C1420 1.395 . S
C1422 C1425 1.403 . S
C1423 C1420 1.403 . S
C1423 C1424 1.524 . S
C1423 C1427 1.400 . S
C1424 H1409 0.960 . S
C1424 H1410 0.960 . S
C1424 H1411 0.960 . S
C1424 C1423 1.524 . S
C1425 C1422 1.403 . S
C1425 C1426 1.392 . S
C1425 C1429 1.495 . S
C1426 C1425 1.392 . S
C1426 C1427 1.385 . S
C1426 C1428 1.478 . S
C1427 H1421 0.930 . S
C1427 C1423 1.400 . S
C1427 C1426 1.385 . S
C1428 C1426 1.478 . S
C1428 C1430 1.381 . S
C1428 C1434 1.383 . S
C1429 C1425 1.495 . S
C1429 H1435 0.959 . S
C1429 H1436 0.961 . S
C1429 H1437 0.960 . S
C1430 C1428 1.381 . S
C1430 C1431 1.394 . S
C1430 H1438 0.930 . S
C1431 C1430 1.394 . S
C1431 C1432 1.383 . S
C1431 H1439 0.929 . S
C1432 C1431 1.383 . S
C1432 C1433 1.377 . S
C1433 H1417 0.930 . S
C1433 C1432 1.377 . S
C1433 C1434 1.379 . S
C1434 H1418 0.931 . S
C1434 C1428 1.383 . S
C1434 C1433 1.379 . S
H1435 C1429 0.959 . S
H1436 C1429 0.961 . S
H1437 C1429 0.960 . S
H1438 C1430 0.930 . S
H1439 C1431 0.929 . S
H1440 C1448 0.929 . S
H1441 C1450 0.930 . S
H1442 C1452 0.930 . S
H1443 C1455 0.929 . S
H1444 C1458 0.930 . S
H1445 C1460 0.960 . S
H1446 C1460 0.960 . S
H1447 C1460 0.960 . S
C1448 H1440 0.929 . S
C1448 C1449 1.377 . S
C1448 C1450 1.384 . S
C1449 C1448 1.377 . S
C1449 C1455 1.390 . S
C1450 H1441 0.930 . S
C1450 C1448 1.384 . S
C1450 C1451 1.372 . S
C1451 C1450 1.372 . S
C1451 C1452 1.400 . S
C1451 C1456 1.490 . S
C1452 H1442 0.930 . S
C1452 C1451 1.400 . S
C1452 C1455 1.386 . S
H1453 C1469 0.930 . S
H1454 C1470 0.931 . S
C1455 H1443 0.929 . S
C1455 C1449 1.390 . S
C1455 C1452 1.386 . S
C1456 C1451 1.490 . S
C1456 C1458 1.395 . S
C1456 C1459 1.403 . S
H1457 C1463 0.930 . S
C1458 H1444 0.930 . S
C1458 C1456 1.395 . S
C1458 C1461 1.403 . S
C1459 C1456 1.403 . S
C1459 C1460 1.524 . S
C1459 C1463 1.400 . S
C1460 H1445 0.960 . S
C1460 H1446 0.960 . S
C1460 H1447 0.960 . S
C1460 C1459 1.524 . S
C1461 C1458 1.403 . S
C1461 C1462 1.392 . S
C1461 C1465 1.495 . S
C1462 C1461 1.392 . S
C1462 C1463 1.385 . S
C1462 C1464 1.478 . S
C1463 H1457 0.930 . S
C1463 C1459 1.400 . S
C1463 C1462 1.385 . S
C1464 C1462 1.478 . S
C1464 C1466 1.381 . S
C1464 C1470 1.383 . S
C1465 C1461 1.495 . S
C1465 H1471 0.959 . S
C1465 H1472 0.961 . S
C1465 H1473 0.960 . S
C1466 C1464 1.381 . S
C1466 C1467 1.394 . S
C1466 H1474 0.930 . S
C1467 C1466 1.394 . S
C1467 C1468 1.383 . S
C1467 H1475 0.929 . S
C1468 C1467 1.383 . S
C1468 C1469 1.377 . S
C1469 H1453 0.930 . S
C1469 C1468 1.377 . S
C1469 C1470 1.379 . S
C1470 H1454 0.931 . S
C1470 C1464 1.383 . S
C1470 C1469 1.379 . S
H1471 C1465 0.959 . S
H1472 C1465 0.961 . S
H1473 C1465 0.960 . S
H1474 C1466 0.930 . S
H1475 C1467 0.929 . S
H1476 C1484 0.929 . S
H1477 C1486 0.930 . S
H1478 C1488 0.930 . S
H1479 C1491 0.929 . S
H1480 C1494 0.930 . S
H1481 C1496 0.960 . S
H1482 C1496 0.960 . S
H1483 C1496 0.960 . S
C1484 H1476 0.929 . S
C1484 C1485 1.377 . S
C1484 C1486 1.384 . S
C1485 C1484 1.377 . S
C1485 C1491 1.390 . S
C1486 H1477 0.930 . S
C1486 C1484 1.384 . S
C1486 C1487 1.372 . S
C1487 C1486 1.372 . S
C1487 C1488 1.400 . S
C1487 C1492 1.490 . S
C1488 H1478 0.930 . S
C1488 C1487 1.400 . S
C1488 C1491 1.386 . S
H1489 C1505 0.930 . S
H1490 C1506 0.931 . S
C1491 H1479 0.929 . S
C1491 C1485 1.390 . S
C1491 C1488 1.386 . S
C1492 C1487 1.490 . S
C1492 C1494 1.395 . S
C1492 C1495 1.403 . S
H1493 C1499 0.930 . S
C1494 H1480 0.930 . S
C1494 C1492 1.395 . S
C1494 C1497 1.403 . S
C1495 C1492 1.403 . S
C1495 C1496 1.524 . S
C1495 C1499 1.400 . S
C1496 H1481 0.960 . S
C1496 H1482 0.960 . S
C1496 H1483 0.960 . S
C1496 C1495 1.524 . S
C1497 C1494 1.403 . S
C1497 C1498 1.392 . S
C1497 C1501 1.495 . S
C1498 C1497 1.392 . S
C1498 C1499 1.385 . S
C1498 C1500 1.478 . S
C1499 H1493 0.930 . S
C1499 C1495 1.400 . S
C1499 C1498 1.385 . S
C1500 C1498 1.478 . S
C1500 C1502 1.381 . S
C1500 C1506 1.383 . S
C1501 C1497 1.495 . S
C1501 H1507 0.959 . S
C1501 H1508 0.961 . S
C1501 H1509 0.960 . S
C1502 C1500 1.381 . S
C1502 C1503 1.394 . S
C1502 H1510 0.930 . S
C1503 C1502 1.394 . S
C1503 C1504 1.383 . S
C1503 H1511 0.929 . S
C1504 C1503 1.383 . S
C1504 C1505 1.377 . S
C1505 H1489 0.930 . S
C1505 C1504 1.377 . S
C1505 C1506 1.379 . S
C1506 H1490 0.931 . S
C1506 C1500 1.383 . S
C1506 C1505 1.379 . S
H1507 C1501 0.959 . S
H1508 C1501 0.961 . S
H1509 C1501 0.960 . S
H1510 C1502 0.930 . S
H1511 C1503 0.929 . S
H1512 C1520 0.929 . S
H1513 C1522 0.930 . S
H1514 C1524 0.930 . S
H1515 C1527 0.929 . S
H1516 C1530 0.930 . S
H1517 C1532 0.960 . S
H1518 C1532 0.960 . S
H1519 C1532 0.960 . S
C1520 H1512 0.929 . S
C1520 C1521 1.377 . S
C1520 C1522 1.384 . S
C1521 C1520 1.377 . S
C1521 C1527 1.390 . S
C1522 H1513 0.930 . S
C1522 C1520 1.384 . S
C1522 C1523 1.372 . S
C1523 C1522 1.372 . S
C1523 C1524 1.400 . S
C1523 C1528 1.490 . S
C1524 H1514 0.930 . S
C1524 C1523 1.400 . S
C1524 C1527 1.386 . S
H1525 C1541 0.930 . S
H1526 C1542 0.931 . S
C1527 H1515 0.929 . S
C1527 C1521 1.390 . S
C1527 C1524 1.386 . S
C1528 C1523 1.490 . S
C1528 C1530 1.395 . S
C1528 C1531 1.403 . S
H1529 C1535 0.930 . S
C1530 H1516 0.930 . S
C1530 C1528 1.395 . S
C1530 C1533 1.403 . S
C1531 C1528 1.403 . S
C1531 C1532 1.524 . S
C1531 C1535 1.400 . S
C1532 H1517 0.960 . S
C1532 H1518 0.960 . S
C1532 H1519 0.960 . S
C1532 C1531 1.524 . S
C1533 C1530 1.403 . S
C1533 C1534 1.392 . S
C1533 C1537 1.495 . S
C1534 C1533 1.392 . S
C1534 C1535 1.385 . S
C1534 C1536 1.478 . S
C1535 H1529 0.930 . S
C1535 C1531 1.400 . S
C1535 C1534 1.385 . S
C1536 C1534 1.478 . S
C1536 C1538 1.381 . S
C1536 C1542 1.383 . S
C1537 C1533 1.495 . S
C1537 H1543 0.959 . S
C1537 H1544 0.961 . S
C1537 H1545 0.960 . S
C1538 C1536 1.381 . S
C1538 C1539 1.394 . S
C1538 H1546 0.930 . S
C1539 C1538 1.394 . S
C1539 C1540 1.383 . S
C1539 H1547 0.929 . S
C1540 C1539 1.383 . S
C1540 C1541 1.377 . S
C1541 H1525 0.930 . S
C1541 C1540 1.377 . S
C1541 C1542 1.379 . S
C1542 H1526 0.931 . S
C1542 C1536 1.383 . S
C1542 C1541 1.379 . S
H1543 C1537 0.959 . S
H1544 C1537 0.961 . S
H1545 C1537 0.960 . S
H1546 C1538 0.930 . S
H1547 C1539 0.929 . S
H1548 C1556 0.929 . S
H1549 C1558 0.930 . S
H1550 C1560 0.930 . S
H1551 C1563 0.929 . S
H1552 C1566 0.930 . S
H1553 C1568 0.960 . S
H1554 C1568 0.960 . S
H1555 C1568 0.960 . S
C1556 H1548 0.929 . S
C1556 C1557 1.377 . S
C1556 C1558 1.384 . S
C1557 C1556 1.377 . S
C1557 C1563 1.390 . S
C1558 H1549 0.930 . S
C1558 C1556 1.384 . S
C1558 C1559 1.372 . S
C1559 C1558 1.372 . S
C1559 C1560 1.400 . S
C1559 C1564 1.490 . S
C1560 H1550 0.930 . S
C1560 C1559 1.400 . S
C1560 C1563 1.386 . S
H1561 C1577 0.930 . S
H1562 C1578 0.931 . S
C1563 H1551 0.929 . S
C1563 C1557 1.390 . S
C1563 C1560 1.386 . S
C1564 C1559 1.490 . S
C1564 C1566 1.395 . S
C1564 C1567 1.403 . S
H1565 C1571 0.930 . S
C1566 H1552 0.930 . S
C1566 C1564 1.395 . S
C1566 C1569 1.403 . S
C1567 C1564 1.403 . S
C1567 C1568 1.524 . S
C1567 C1571 1.400 . S
C1568 H1553 0.960 . S
C1568 H1554 0.960 . S
C1568 H1555 0.960 . S
C1568 C1567 1.524 . S
C1569 C1566 1.403 . S
C1569 C1570 1.392 . S
C1569 C1573 1.495 . S
C1570 C1569 1.392 . S
C1570 C1571 1.385 . S
C1570 C1572 1.478 . S
C1571 H1565 0.930 . S
C1571 C1567 1.400 . S
C1571 C1570 1.385 . S
C1572 C1570 1.478 . S
C1572 C1574 1.381 . S
C1572 C1578 1.383 . S
C1573 C1569 1.495 . S
C1573 H1579 0.959 . S
C1573 H1580 0.961 . S
C1573 H1581 0.960 . S
C1574 C1572 1.381 . S
C1574 C1575 1.394 . S
C1574 H1582 0.930 . S
C1575 C1574 1.394 . S
C1575 C1576 1.383 . S
C1575 H1583 0.929 . S
C1576 C1575 1.383 . S
C1576 C1577 1.377 . S
C1577 H1561 0.930 . S
C1577 C1576 1.377 . S
C1577 C1578 1.379 . S
C1578 H1562 0.931 . S
C1578 C1572 1.383 . S
C1578 C1577 1.379 . S
H1579 C1573 0.959 . S
H1580 C1573 0.961 . S
H1581 C1573 0.960 . S
H1582 C1574 0.930 . S
H1583 C1575 0.929 . S
H1584 C1592 0.929 . S
H1585 C1594 0.930 . S
H1586 C1596 0.930 . S
H1587 C1599 0.929 . S
H1588 C1602 0.930 . S
H1589 C1604 0.960 . S
H1590 C1604 0.960 . S
H1591 C1604 0.960 . S
C1592 H1584 0.929 . S
C1592 C1593 1.377 . S
C1592 C1594 1.384 . S
C1593 C1592 1.377 . S
C1593 C1599 1.390 . S
C1594 H1585 0.930 . S
C1594 C1592 1.384 . S
C1594 C1595 1.372 . S
C1595 C1594 1.372 . S
C1595 C1596 1.400 . S
C1595 C1600 1.490 . S
C1596 H1586 0.930 . S
C1596 C1595 1.400 . S
C1596 C1599 1.386 . S
H1597 C1613 0.930 . S
H1598 C1614 0.931 . S
C1599 H1587 0.929 . S
C1599 C1593 1.390 . S
C1599 C1596 1.386 . S
C1600 C1595 1.490 . S
C1600 C1602 1.395 . S
C1600 C1603 1.403 . S
H1601 C1607 0.930 . S
C1602 H1588 0.930 . S
C1602 C1600 1.395 . S
C1602 C1605 1.403 . S
C1603 C1600 1.403 . S
C1603 C1604 1.524 . S
C1603 C1607 1.400 . S
C1604 H1589 0.960 . S
C1604 H1590 0.960 . S
C1604 H1591 0.960 . S
C1604 C1603 1.524 . S
C1605 C1602 1.403 . S
C1605 C1606 1.392 . S
C1605 C1609 1.495 . S
C1606 C1605 1.392 . S
C1606 C1607 1.385 . S
C1606 C1608 1.478 . S
C1607 H1601 0.930 . S
C1607 C1603 1.400 . S
C1607 C1606 1.385 . S
C1608 C1606 1.478 . S
C1608 C1610 1.381 . S
C1608 C1614 1.383 . S
C1609 C1605 1.495 . S
C1609 H1615 0.959 . S
C1609 H1616 0.961 . S
C1609 H1617 0.960 . S
C1610 C1608 1.381 . S
C1610 C1611 1.394 . S
C1610 H1618 0.930 . S
C1611 C1610 1.394 . S
C1611 C1612 1.383 1_554 S
C1611 H1619 0.929 . S
C1612 C1611 1.383 1_556 S
C1612 C1613 1.377 . S
C1613 H1597 0.930 . S
C1613 C1612 1.377 . S
C1613 C1614 1.379 1_556 S
C1614 H1598 0.931 . S
C1614 C1608 1.383 . S
C1614 C1613 1.379 1_554 S
H1615 C1609 0.959 . S
H1616 C1609 0.961 . S
H1617 C1609 0.960 . S
H1618 C1610 0.930 . S
H1619 C1611 0.929 . S
H1620 C1628 0.929 . S
H1621 C1630 0.930 . S
H1622 C1632 0.930 . S
H1623 C1635 0.929 . S
H1624 C1638 0.930 . S
H1625 C1640 0.960 . S
H1626 C1640 0.960 . S
H1627 C1640 0.960 . S
C1628 H1620 0.929 . S
C1628 C1629 1.377 . S
C1628 C1630 1.384 . S
C1629 C1628 1.377 . S
C1629 C1635 1.390 . S
C1630 H1621 0.930 . S
C1630 C1628 1.384 . S
C1630 C1631 1.372 . S
C1631 C1630 1.372 . S
C1631 C1632 1.400 . S
C1631 C1636 1.490 . S
C1632 H1622 0.930 . S
C1632 C1631 1.400 . S
C1632 C1635 1.386 . S
H1633 C1649 0.930 . S
H1634 C1650 0.931 . S
C1635 H1623 0.929 . S
C1635 C1629 1.390 . S
C1635 C1632 1.386 . S
C1636 C1631 1.490 . S
C1636 C1638 1.395 . S
C1636 C1639 1.403 . S
H1637 C1643 0.930 . S
C1638 H1624 0.930 . S
C1638 C1636 1.395 . S
C1638 C1641 1.403 . S
C1639 C1636 1.403 . S
C1639 C1640 1.524 . S
C1639 C1643 1.400 . S
C1640 H1625 0.960 . S
C1640 H1626 0.960 . S
C1640 H1627 0.960 . S
C1640 C1639 1.524 . S
C1641 C1638 1.403 . S
C1641 C1642 1.392 . S
C1641 C1645 1.495 . S
C1642 C1641 1.392 . S
C1642 C1643 1.385 . S
C1642 C1644 1.478 . S
C1643 H1637 0.930 . S
C1643 C1639 1.400 . S
C1643 C1642 1.385 . S
C1644 C1642 1.478 . S
C1644 C1646 1.381 . S
C1644 C1650 1.383 . S
C1645 C1641 1.495 . S
C1645 H1651 0.959 . S
C1645 H1652 0.961 . S
C1645 H1653 0.960 . S
C1646 C1644 1.381 . S
C1646 C1647 1.394 . S
C1646 H1654 0.930 . S
C1647 C1646 1.394 . S
C1647 C1648 1.383 1_554 S
C1647 H1655 0.929 . S
C1648 C1647 1.383 1_556 S
C1648 C1649 1.377 . S
C1649 H1633 0.930 . S
C1649 C1648 1.377 . S
C1649 C1650 1.379 1_556 S
C1650 H1634 0.931 . S
C1650 C1644 1.383 . S
C1650 C1649 1.379 1_554 S
H1651 C1645 0.959 . S
H1652 C1645 0.961 . S
H1653 C1645 0.960 . S
H1654 C1646 0.930 . S
H1655 C1647 0.929 . S
H1656 C1664 0.929 . S
H1657 C1666 0.930 . S
H1658 C1668 0.930 . S
H1659 C1671 0.928 . S
H1660 C1674 0.930 . S
H1661 C1676 0.960 . S
H1662 C1676 0.960 . S
H1663 C1676 0.960 . S
C1664 H1656 0.929 . S
C1664 C1665 1.377 1_554 S
C1664 C1666 1.384 . S
C1665 C1664 1.377 1_556 S
C1665 C1671 1.389 . S
C1666 H1657 0.930 . S
C1666 C1664 1.384 . S
C1666 C1667 1.372 . S
C1667 C1666 1.372 . S
C1667 C1668 1.400 . S
C1667 C1672 1.490 . S
C1668 H1658 0.930 . S
C1668 C1667 1.400 . S
C1668 C1671 1.387 1_554 S
H1669 C1685 0.930 . S
H1670 C1686 0.931 . S
C1671 H1659 0.928 . S
C1671 C1665 1.389 . S
C1671 C1668 1.387 1_556 S
C1672 C1667 1.490 . S
C1672 C1674 1.395 . S
C1672 C1675 1.403 . S
H1673 C1679 0.930 . S
C1674 H1660 0.930 . S
C1674 C1672 1.395 . S
C1674 C1677 1.403 . S
C1675 C1672 1.403 . S
C1675 C1676 1.524 . S
C1675 C1679 1.400 . S
C1676 H1661 0.960 . S
C1676 H1662 0.960 . S
C1676 H1663 0.960 . S
C1676 C1675 1.524 . S
C1677 C1674 1.403 . S
C1677 C1678 1.392 . S
C1677 C1681 1.495 . S
C1678 C1677 1.392 . S
C1678 C1679 1.385 . S
C1678 C1680 1.478 . S
C1679 H1673 0.930 . S
C1679 C1675 1.400 . S
C1679 C1678 1.385 . S
C1680 C1678 1.478 . S
C1680 C1682 1.381 . S
C1680 C1686 1.383 . S
C1681 C1677 1.495 . S
C1681 H1687 0.959 . S
C1681 H1688 0.961 . S
C1681 H1689 0.960 . S
C1682 C1680 1.381 . S
C1682 C1683 1.394 . S
C1682 H1690 0.930 . S
C1683 C1682 1.394 . S
C1683 C1684 1.383 . S
C1683 H1691 0.929 . S
C1684 C1683 1.383 . S
C1684 C1685 1.377 . S
C1685 H1669 0.930 . S
C1685 C1684 1.377 . S
C1685 C1686 1.379 . S
C1686 H1670 0.931 . S
C1686 C1680 1.383 . S
C1686 C1685 1.379 . S
H1687 C1681 0.959 . S
H1688 C1681 0.961 . S
H1689 C1681 0.960 . S
H1690 C1682 0.930 . S
H1691 C1683 0.929 . S
H1692 C1700 0.929 . S
H1693 C1702 0.930 . S
H1694 C1704 0.930 . S
H1695 C1707 0.929 . S
H1696 C1710 0.930 . S
H1697 C1712 0.960 . S
H1698 C1712 0.960 . S
H1699 C1712 0.960 . S
C1700 H1692 0.929 . S
C1700 C1701 1.377 . S
C1700 C1702 1.384 . S
C1701 C1700 1.377 . S
C1701 C1707 1.390 . S
C1702 H1693 0.930 . S
C1702 C1700 1.384 . S
C1702 C1703 1.372 . S
C1703 C1702 1.372 . S
C1703 C1704 1.400 . S
C1703 C1708 1.490 . S
C1704 H1694 0.930 . S
C1704 C1703 1.400 . S
C1704 C1707 1.386 . S
H1705 C1721 0.930 . S
H1706 C1722 0.931 . S
C1707 H1695 0.929 . S
C1707 C1701 1.390 . S
C1707 C1704 1.386 . S
C1708 C1703 1.490 . S
C1708 C1710 1.395 . S
C1708 C1711 1.403 1_556 S
H1709 C1715 0.930 . S
C1710 H1696 0.930 . S
C1710 C1708 1.395 . S
C1710 C1713 1.403 1_556 S
C1711 C1708 1.403 1_554 S
C1711 C1712 1.524 . S
C1711 C1715 1.400 . S
C1712 H1697 0.960 . S
C1712 H1698 0.960 . S
C1712 H1699 0.960 . S
C1712 C1711 1.524 . S
C1713 C1710 1.403 1_554 S
C1713 C1714 1.392 . S
C1713 C1717 1.495 1_554 S
C1714 C1713 1.392 . S
C1714 C1715 1.385 . S
C1714 C1716 1.478 . S
C1715 H1709 0.930 . S
C1715 C1711 1.400 . S
C1715 C1714 1.385 . S
C1716 C1714 1.478 . S
C1716 C1718 1.381 . S
C1716 C1722 1.383 . S
C1717 C1713 1.495 1_556 S
C1717 H1723 0.959 . S
C1717 H1724 0.961 1_556 S
C1717 H1725 0.960 . S
C1718 C1716 1.381 . S
C1718 C1719 1.394 . S
C1718 H1726 0.930 . S
C1719 C1718 1.394 . S
C1719 C1720 1.383 . S
C1719 H1727 0.929 . S
C1720 C1719 1.383 . S
C1720 C1721 1.377 . S
C1721 H1705 0.930 . S
C1721 C1720 1.377 . S
C1721 C1722 1.379 . S
C1722 H1706 0.931 . S
C1722 C1716 1.383 . S
C1722 C1721 1.379 . S
H1723 C1717 0.959 . S
H1724 C1717 0.961 1_554 S
H1725 C1717 0.960 . S
H1726 C1718 0.930 . S
H1727 C1719 0.929 . S
H1728 C1736 0.929 . S
H1729 C1738 0.930 . S
H1730 C1740 0.930 . S
H1731 C1743 0.929 . S
H1732 C1746 0.930 . S
H1733 C1748 0.960 . S
H1734 C1748 0.960 . S
H1735 C1748 0.960 . S
C1736 H1728 0.929 . S
C1736 C1737 1.377 . S
C1736 C1738 1.384 . S
C1737 C1736 1.377 . S
C1737 C1743 1.390 . S
C1738 H1729 0.930 . S
C1738 C1736 1.384 . S
C1738 C1739 1.372 . S
C1739 C1738 1.372 . S
C1739 C1740 1.400 . S
C1739 C1744 1.490 . S
C1740 H1730 0.930 . S
C1740 C1739 1.400 . S
C1740 C1743 1.386 . S
H1741 C1757 0.930 . S
H1742 C1758 0.931 . S
C1743 H1731 0.929 . S
C1743 C1737 1.390 . S
C1743 C1740 1.386 . S
C1744 C1739 1.490 . S
C1744 C1746 1.395 1_556 S
C1744 C1747 1.403 1_556 S
H1745 C1751 0.930 . S
C1746 H1732 0.930 . S
C1746 C1744 1.395 1_554 S
C1746 C1749 1.403 . S
C1747 C1744 1.403 1_554 S
C1747 C1748 1.524 1_554 S
C1747 C1751 1.400 . S
C1748 H1733 0.960 . S
C1748 H1734 0.960 . S
C1748 H1735 0.960 . S
C1748 C1747 1.524 1_556 S
C1749 C1746 1.403 . S
C1749 C1750 1.392 . S
C1749 C1753 1.495 . S
C1750 C1749 1.392 . S
C1750 C1751 1.385 . S
C1750 C1752 1.478 . S
C1751 H1745 0.930 . S
C1751 C1747 1.400 . S
C1751 C1750 1.385 . S
C1752 C1750 1.478 . S
C1752 C1754 1.381 . S
C1752 C1758 1.383 . S
C1753 C1749 1.495 . S
C1753 H1759 0.959 . S
C1753 H1760 0.961 . S
C1753 H1761 0.960 . S
C1754 C1752 1.381 . S
C1754 C1755 1.394 . S
C1754 H1762 0.930 . S
C1755 C1754 1.394 . S
C1755 C1756 1.383 . S
C1755 H1763 0.929 . S
C1756 C1755 1.383 . S
C1756 C1757 1.377 . S
C1757 H1741 0.930 . S
C1757 C1756 1.377 . S
C1757 C1758 1.379 . S
C1758 H1742 0.931 . S
C1758 C1752 1.383 . S
C1758 C1757 1.379 . S
H1759 C1753 0.959 . S
H1760 C1753 0.961 . S
H1761 C1753 0.960 . S
H1762 C1754 0.930 . S
H1763 C1755 0.929 . S
H1764 C1772 0.929 . S
H1765 C1774 0.930 . S
H1766 C1776 0.930 . S
H1767 C1779 0.929 . S
H1768 C1782 0.930 . S
H1769 C1784 0.960 . S
H1770 C1784 0.960 . S
H1771 C1784 0.960 . S
C1772 H1764 0.929 . S
C1772 C1773 1.377 . S
C1772 C1774 1.384 . S
C1773 C1772 1.377 . S
C1773 C1779 1.390 . S
C1774 H1765 0.930 . S
C1774 C1772 1.384 . S
C1774 C1775 1.372 . S
C1775 C1774 1.372 . S
C1775 C1776 1.400 . S
C1775 C1780 1.490 . S
C1776 H1766 0.930 . S
C1776 C1775 1.400 . S
C1776 C1779 1.386 . S
H1777 C1793 0.930 . S
H1778 C1794 0.931 . S
C1779 H1767 0.929 . S
C1779 C1773 1.390 . S
C1779 C1776 1.386 . S
C1780 C1775 1.490 . S
C1780 C1782 1.395 1_556 S
C1780 C1783 1.403 . S
H1781 C1787 0.930 . S
C1782 H1768 0.930 . S
C1782 C1780 1.395 1_554 S
C1782 C1785 1.403 . S
C1783 C1780 1.403 . S
C1783 C1784 1.524 . S
C1783 C1787 1.400 1_556 S
C1784 H1769 0.960 . S
C1784 H1770 0.960 . S
C1784 H1771 0.960 . S
C1784 C1783 1.524 . S
C1785 C1782 1.403 . S
C1785 C1786 1.392 . S
C1785 C1789 1.495 . S
C1786 C1785 1.392 . S
C1786 C1787 1.385 . S
C1786 C1788 1.478 . S
C1787 H1781 0.930 . S
C1787 C1783 1.400 1_554 S
C1787 C1786 1.385 . S
C1788 C1786 1.478 . S
C1788 C1790 1.381 . S
C1788 C1794 1.383 . S
C1789 C1785 1.495 . S
C1789 H1795 0.959 . S
C1789 H1796 0.961 . S
C1789 H1797 0.960 . S
C1790 C1788 1.381 . S
C1790 C1791 1.394 . S
C1790 H1798 0.930 . S
C1791 C1790 1.394 . S
C1791 C1792 1.383 . S
C1791 H1799 0.929 . S
C1792 C1791 1.383 . S
C1792 C1793 1.377 . S
C1793 H1777 0.930 . S
C1793 C1792 1.377 . S
C1793 C1794 1.379 . S
C1794 H1778 0.931 . S
C1794 C1788 1.383 . S
C1794 C1793 1.379 . S
H1795 C1789 0.959 . S
H1796 C1789 0.961 . S
H1797 C1789 0.960 . S
H1798 C1790 0.930 . S
H1799 C1791 0.929 . S
H1800 C1808 0.929 . S
H1801 C1810 0.930 . S
H1802 C1812 0.930 . S
H1803 C1815 0.929 . S
H1804 C1818 0.930 . S
H1805 C1820 0.960 . S
H1806 C1820 0.960 . S
H1807 C1820 0.960 . S
C1808 H1800 0.929 . S
C1808 C1809 1.377 . S
C1808 C1810 1.384 . S
C1809 C1808 1.377 . S
C1809 C1815 1.390 . S
C1810 H1801 0.930 . S
C1810 C1808 1.384 . S
C1810 C1811 1.372 . S
C1811 C1810 1.372 . S
C1811 C1812 1.400 . S
C1811 C1816 1.490 . S
C1812 H1802 0.930 . S
C1812 C1811 1.400 . S
C1812 C1815 1.386 . S
H1813 C1829 0.930 . S
H1814 C1830 0.931 . S
C1815 H1803 0.929 . S
C1815 C1809 1.390 . S
C1815 C1812 1.386 . S
C1816 C1811 1.490 . S
C1816 C1818 1.395 . S
C1816 C1819 1.403 . S
H1817 C1823 0.930 . S
C1818 H1804 0.930 . S
C1818 C1816 1.395 . S
C1818 C1821 1.403 . S
C1819 C1816 1.403 . S
C1819 C1820 1.524 . S
C1819 C1823 1.400 . S
C1820 H1805 0.960 . S
C1820 H1806 0.960 . S
C1820 H1807 0.960 . S
C1820 C1819 1.524 . S
C1821 C1818 1.403 . S
C1821 C1822 1.392 . S
C1821 C1825 1.495 . S
C1822 C1821 1.392 . S
C1822 C1823 1.385 . S
C1822 C1824 1.478 . S
C1823 H1817 0.930 . S
C1823 C1819 1.400 . S
C1823 C1822 1.385 . S
C1824 C1822 1.478 . S
C1824 C1826 1.381 . S
C1824 C1830 1.383 . S
C1825 C1821 1.495 . S
C1825 H1831 0.959 . S
C1825 H1832 0.961 . S
C1825 H1833 0.960 . S
C1826 C1824 1.381 . S
C1826 C1827 1.394 . S
C1826 H1834 0.930 . S
C1827 C1826 1.394 . S
C1827 C1828 1.383 . S
C1827 H1835 0.929 . S
C1828 C1827 1.383 . S
C1828 C1829 1.377 . S
C1829 H1813 0.930 . S
C1829 C1828 1.377 . S
C1829 C1830 1.379 . S
C1830 H1814 0.931 . S
C1830 C1824 1.383 . S
C1830 C1829 1.379 . S
H1831 C1825 0.959 . S
H1832 C1825 0.961 . S
H1833 C1825 0.960 . S
H1834 C1826 0.930 . S
H1835 C1827 0.929 . S
H1836 C1844 0.929 . S
H1837 C1846 0.930 . S
H1838 C1848 0.930 . S
H1839 C1851 0.929 . S
H1840 C1854 0.930 . S
H1841 C1856 0.960 . S
H1842 C1856 0.960 . S
H1843 C1856 0.960 . S
C1844 H1836 0.929 . S
C1844 C1845 1.377 . S
C1844 C1846 1.384 . S
C1845 C1844 1.377 . S
C1845 C1851 1.390 . S
C1846 H1837 0.930 . S
C1846 C1844 1.384 . S
C1846 C1847 1.372 . S
C1847 C1846 1.372 . S
C1847 C1848 1.400 . S
C1847 C1852 1.490 . S
C1848 H1838 0.930 . S
C1848 C1847 1.400 . S
C1848 C1851 1.386 . S
H1849 C1865 0.930 . S
H1850 C1866 0.931 . S
C1851 H1839 0.929 . S
C1851 C1845 1.390 . S
C1851 C1848 1.386 . S
C1852 C1847 1.490 . S
C1852 C1854 1.395 . S
C1852 C1855 1.403 . S
H1853 C1859 0.930 . S
C1854 H1840 0.930 . S
C1854 C1852 1.395 . S
C1854 C1857 1.403 . S
C1855 C1852 1.403 . S
C1855 C1856 1.524 . S
C1855 C1859 1.400 . S
C1856 H1841 0.960 . S
C1856 H1842 0.960 . S
C1856 H1843 0.960 . S
C1856 C1855 1.524 . S
C1857 C1854 1.403 . S
C1857 C1858 1.392 . S
C1857 C1861 1.495 . S
C1858 C1857 1.392 . S
C1858 C1859 1.385 . S
C1858 C1860 1.478 . S
C1859 H1853 0.930 . S
C1859 C1855 1.400 . S
C1859 C1858 1.385 . S
C1860 C1858 1.478 . S
C1860 C1862 1.381 . S
C1860 C1866 1.383 . S
C1861 C1857 1.495 . S
C1861 H1867 0.959 . S
C1861 H1868 0.961 . S
C1861 H1869 0.960 . S
C1862 C1860 1.381 . S
C1862 C1863 1.394 . S
C1862 H1870 0.930 . S
C1863 C1862 1.394 . S
C1863 C1864 1.383 . S
C1863 H1871 0.929 . S
C1864 C1863 1.383 . S
C1864 C1865 1.377 . S
C1865 H1849 0.930 . S
C1865 C1864 1.377 . S
C1865 C1866 1.379 . S
C1866 H1850 0.931 . S
C1866 C1860 1.383 . S
C1866 C1865 1.379 . S
H1867 C1861 0.959 . S
H1868 C1861 0.961 . S
H1869 C1861 0.960 . S
H1870 C1862 0.930 . S
H1871 C1863 0.929 . S
H1872 C1880 0.929 . S
H1873 C1882 0.930 . S
H1874 C1884 0.930 . S
H1875 C1887 0.929 . S
H1876 C1890 0.930 . S
H1877 C1892 0.960 . S
H1878 C1892 0.960 . S
H1879 C1892 0.960 . S
C1880 H1872 0.929 . S
C1880 C1881 1.377 . S
C1880 C1882 1.384 . S
C1881 C1880 1.377 . S
C1881 C1887 1.390 . S
C1882 H1873 0.930 . S
C1882 C1880 1.384 . S
C1882 C1883 1.372 . S
C1883 C1882 1.372 . S
C1883 C1884 1.400 . S
C1883 C1888 1.490 . S
C1884 H1874 0.930 . S
C1884 C1883 1.400 . S
C1884 C1887 1.386 . S
H1885 C1901 0.930 . S
H1886 C1902 0.931 . S
C1887 H1875 0.929 . S
C1887 C1881 1.390 . S
C1887 C1884 1.386 . S
C1888 C1883 1.490 . S
C1888 C1890 1.395 . S
C1888 C1891 1.403 . S
H1889 C1895 0.930 . S
C1890 H1876 0.930 . S
C1890 C1888 1.395 . S
C1890 C1893 1.403 . S
C1891 C1888 1.403 . S
C1891 C1892 1.524 . S
C1891 C1895 1.400 . S
C1892 H1877 0.960 . S
C1892 H1878 0.960 . S
C1892 H1879 0.960 . S
C1892 C1891 1.524 . S
C1893 C1890 1.403 . S
C1893 C1894 1.392 . S
C1893 C1897 1.495 . S
C1894 C1893 1.392 . S
C1894 C1895 1.385 . S
C1894 C1896 1.478 . S
C1895 H1889 0.930 . S
C1895 C1891 1.400 . S
C1895 C1894 1.385 . S
C1896 C1894 1.478 . S
C1896 C1898 1.381 . S
C1896 C1902 1.383 . S
C1897 C1893 1.495 . S
C1897 H1903 0.959 . S
C1897 H1904 0.961 . S
C1897 H1905 0.960 . S
C1898 C1896 1.381 . S
C1898 C1899 1.394 . S
C1898 H1906 0.930 . S
C1899 C1898 1.394 . S
C1899 C1900 1.383 . S
C1899 H1907 0.929 . S
C1900 C1899 1.383 . S
C1900 C1901 1.377 . S
C1901 H1885 0.930 . S
C1901 C1900 1.377 . S
C1901 C1902 1.379 . S
C1902 H1886 0.931 . S
C1902 C1896 1.383 . S
C1902 C1901 1.379 . S
H1903 C1897 0.959 . S
H1904 C1897 0.961 . S
H1905 C1897 0.960 . S
H1906 C1898 0.930 . S
H1907 C1899 0.929 . S
H1908 C1916 0.929 . S
H1909 C1918 0.930 . S
H1910 C1920 0.930 . S
H1911 C1923 0.929 . S
H1912 C1926 0.930 . S
H1913 C1928 0.960 . S
H1914 C1928 0.960 . S
H1915 C1928 0.960 . S
C1916 H1908 0.929 . S
C1916 C1917 1.377 . S
C1916 C1918 1.384 . S
C1917 C1916 1.377 . S
C1917 C1923 1.390 . S
C1918 H1909 0.930 . S
C1918 C1916 1.384 . S
C1918 C1919 1.372 . S
C1919 C1918 1.372 . S
C1919 C1920 1.400 . S
C1919 C1924 1.490 . S
C1920 H1910 0.930 . S
C1920 C1919 1.400 . S
C1920 C1923 1.386 . S
H1921 C1937 0.930 . S
H1922 C1938 0.931 . S
C1923 H1911 0.929 . S
C1923 C1917 1.390 . S
C1923 C1920 1.386 . S
C1924 C1919 1.490 . S
C1924 C1926 1.395 . S
C1924 C1927 1.403 . S
H1925 C1931 0.930 . S
C1926 H1912 0.930 . S
C1926 C1924 1.395 . S
C1926 C1929 1.403 . S
C1927 C1924 1.403 . S
C1927 C1928 1.524 . S
C1927 C1931 1.400 . S
C1928 H1913 0.960 . S
C1928 H1914 0.960 . S
C1928 H1915 0.960 . S
C1928 C1927 1.524 . S
C1929 C1926 1.403 . S
C1929 C1930 1.392 . S
C1929 C1933 1.495 . S
C1930 C1929 1.392 . S
C1930 C1931 1.385 . S
C1930 C1932 1.478 . S
C1931 H1925 0.930 . S
C1931 C1927 1.400 . S
C1931 C1930 1.385 . S
C1932 C1930 1.478 . S
C1932 C1934 1.381 . S
C1932 C1938 1.383 . S
C1933 C1929 1.495 . S
C1933 H1939 0.959 . S
C1933 H1940 0.961 . S
C1933 H1941 0.960 . S
C1934 C1932 1.381 . S
C1934 C1935 1.394 . S
C1934 H1942 0.930 . S
C1935 C1934 1.394 . S
C1935 C1936 1.383 . S
C1935 H1943 0.929 . S
C1936 C1935 1.383 . S
C1936 C1937 1.377 . S
C1937 H1921 0.930 . S
C1937 C1936 1.377 . S
C1937 C1938 1.379 . S
C1938 H1922 0.931 . S
C1938 C1932 1.383 . S
C1938 C1937 1.379 . S
H1939 C1933 0.959 . S
H1940 C1933 0.961 . S
H1941 C1933 0.960 . S
H1942 C1934 0.930 . S
H1943 C1935 0.929 . S
H1944 C1952 0.929 . S
H1945 C1954 0.930 . S
H1946 C1956 0.930 . S
H1947 C1959 0.929 . S
H1948 C1962 0.930 . S
H1949 C1964 0.960 . S
H1950 C1964 0.960 . S
H1951 C1964 0.960 . S
C1952 H1944 0.929 . S
C1952 C1953 1.377 . S
C1952 C1954 1.384 . S
C1953 C1952 1.377 . S
C1953 C1959 1.390 . S
C1954 H1945 0.930 . S
C1954 C1952 1.384 . S
C1954 C1955 1.372 . S
C1955 C1954 1.372 . S
C1955 C1956 1.400 . S
C1955 C1960 1.490 . S
C1956 H1946 0.930 . S
C1956 C1955 1.400 . S
C1956 C1959 1.386 . S
H1957 C1973 0.930 . S
H1958 C1974 0.931 . S
C1959 H1947 0.929 . S
C1959 C1953 1.390 . S
C1959 C1956 1.386 . S
C1960 C1955 1.490 . S
C1960 C1962 1.395 . S
C1960 C1963 1.403 . S
H1961 C1967 0.930 . S
C1962 H1948 0.930 . S
C1962 C1960 1.395 . S
C1962 C1965 1.403 . S
C1963 C1960 1.403 . S
C1963 C1964 1.524 . S
C1963 C1967 1.400 . S
C1964 H1949 0.960 . S
C1964 H1950 0.960 . S
C1964 H1951 0.960 . S
C1964 C1963 1.524 . S
C1965 C1962 1.403 . S
C1965 C1966 1.392 . S
C1965 C1969 1.495 . S
C1966 C1965 1.392 . S
C1966 C1967 1.385 . S
C1966 C1968 1.478 . S
C1967 H1961 0.930 . S
C1967 C1963 1.400 . S
C1967 C1966 1.385 . S
C1968 C1966 1.478 . S
C1968 C1970 1.381 . S
C1968 C1974 1.383 . S
C1969 C1965 1.495 . S
C1969 H1975 0.959 . S
C1969 H1976 0.961 . S
C1969 H1977 0.960 . S
C1970 C1968 1.381 . S
C1970 C1971 1.394 . S
C1970 H1978 0.930 . S
C1971 C1970 1.394 . S
C1971 C1972 1.383 . S
C1971 H1979 0.929 . S
C1972 C1971 1.383 . S
C1972 C1973 1.377 . S
C1973 H1957 0.930 . S
C1973 C1972 1.377 . S
C1973 C1974 1.379 . S
C1974 H1958 0.931 . S
C1974 C1968 1.383 . S
C1974 C1973 1.379 . S
H1975 C1969 0.959 . S
H1976 C1969 0.961 . S
H1977 C1969 0.960 . S
H1978 C1970 0.930 . S
H1979 C1971 0.929 . S
H1980 C1988 0.929 . S
H1981 C1990 0.930 . S
H1982 C1992 0.930 . S
H1983 C1995 0.929 . S
H1984 C1998 0.930 . S
H1985 C2000 0.960 . S
H1986 C2000 0.960 . S
H1987 C2000 0.960 . S
C1988 H1980 0.929 . S
C1988 C1989 1.377 . S
C1988 C1990 1.384 . S
C1989 C1988 1.377 . S
C1989 C1995 1.390 . S
C1990 H1981 0.930 . S
C1990 C1988 1.384 . S
C1990 C1991 1.372 . S
C1991 C1990 1.372 . S
C1991 C1992 1.400 . S
C1991 C1996 1.490 . S
C1992 H1982 0.930 . S
C1992 C1991 1.400 . S
C1992 C1995 1.386 . S
H1993 C2009 0.930 . S
H1994 C2010 0.931 . S
C1995 H1983 0.929 . S
C1995 C1989 1.390 . S
C1995 C1992 1.386 . S
C1996 C1991 1.490 . S
C1996 C1998 1.395 . S
C1996 C1999 1.403 . S
H1997 C2003 0.930 . S
C1998 H1984 0.930 . S
C1998 C1996 1.395 . S
C1998 C2001 1.403 . S
C1999 C1996 1.403 . S
C1999 C2000 1.524 . S
C1999 C2003 1.400 . S
C2000 H1985 0.960 . S
C2000 H1986 0.960 . S
C2000 H1987 0.960 . S
C2000 C1999 1.524 . S
C2001 C1998 1.403 . S
C2001 C2002 1.392 . S
C2001 C2005 1.495 . S
C2002 C2001 1.392 . S
C2002 C2003 1.385 . S
C2002 C2004 1.478 . S
C2003 H1997 0.930 . S
C2003 C1999 1.400 . S
C2003 C2002 1.385 . S
C2004 C2002 1.478 . S
C2004 C2006 1.381 . S
C2004 C2010 1.383 . S
C2005 C2001 1.495 . S
C2005 H2011 0.959 . S
C2005 H2012 0.961 . S
C2005 H2013 0.960 . S
C2006 C2004 1.381 . S
C2006 C2007 1.394 . S
C2006 H2014 0.930 . S
C2007 C2006 1.394 . S
C2007 C2008 1.383 . S
C2007 H2015 0.929 . S
C2008 C2007 1.383 . S
C2008 C2009 1.377 . S
C2009 H1993 0.930 . S
C2009 C2008 1.377 . S
C2009 C2010 1.379 . S
C2010 H1994 0.931 . S
C2010 C2004 1.383 . S
C2010 C2009 1.379 . S
H2011 C2005 0.959 . S
H2012 C2005 0.961 . S
H2013 C2005 0.960 . S
H2014 C2006 0.930 . S
H2015 C2007 0.929 . S
H2016 C2024 0.929 . S
H2017 C2026 0.930 . S
H2018 C2028 0.930 . S
H2019 C2031 0.929 . S
H2020 C2034 0.930 . S
H2021 C2036 0.960 . S
H2022 C2036 0.960 . S
H2023 C2036 0.960 . S
C2024 H2016 0.929 . S
C2024 C2025 1.377 . S
C2024 C2026 1.384 . S
C2025 C2024 1.377 . S
C2025 C2031 1.390 . S
C2026 H2017 0.930 . S
C2026 C2024 1.384 . S
C2026 C2027 1.372 . S
C2027 C2026 1.372 . S
C2027 C2028 1.400 . S
C2027 C2032 1.490 . S
C2028 H2018 0.930 . S
C2028 C2027 1.400 . S
C2028 C2031 1.386 . S
H2029 C2045 0.930 . S
H2030 C2046 0.931 . S
C2031 H2019 0.929 . S
C2031 C2025 1.390 . S
C2031 C2028 1.386 . S
C2032 C2027 1.490 . S
C2032 C2034 1.395 . S
C2032 C2035 1.403 . S
H2033 C2039 0.930 . S
C2034 H2020 0.930 . S
C2034 C2032 1.395 . S
C2034 C2037 1.403 . S
C2035 C2032 1.403 . S
C2035 C2036 1.524 . S
C2035 C2039 1.400 . S
C2036 H2021 0.960 . S
C2036 H2022 0.960 . S
C2036 H2023 0.960 . S
C2036 C2035 1.524 . S
C2037 C2034 1.403 . S
C2037 C2038 1.392 . S
C2037 C2041 1.495 . S
C2038 C2037 1.392 . S
C2038 C2039 1.385 . S
C2038 C2040 1.478 . S
C2039 H2033 0.930 . S
C2039 C2035 1.400 . S
C2039 C2038 1.385 . S
C2040 C2038 1.478 . S
C2040 C2042 1.381 . S
C2040 C2046 1.383 . S
C2041 C2037 1.495 . S
C2041 H2047 0.959 . S
C2041 H2048 0.961 . S
C2041 H2049 0.960 . S
C2042 C2040 1.381 . S
C2042 C2043 1.394 . S
C2042 H2050 0.930 . S
C2043 C2042 1.394 . S
C2043 C2044 1.383 . S
C2043 H2051 0.929 . S
C2044 C2043 1.383 . S
C2044 C2045 1.377 . S
C2045 H2029 0.930 . S
C2045 C2044 1.377 . S
C2045 C2046 1.379 . S
C2046 H2030 0.931 . S
C2046 C2040 1.383 . S
C2046 C2045 1.379 . S
H2047 C2041 0.959 . S
H2048 C2041 0.961 . S
H2049 C2041 0.960 . S
H2050 C2042 0.930 . S
H2051 C2043 0.929 . S
H2052 C2060 0.929 . S
H2053 C2062 0.930 . S
H2054 C2064 0.930 . S
H2055 C2067 0.929 . S
H2056 C2070 0.930 . S
H2057 C2072 0.960 . S
H2058 C2072 0.960 . S
H2059 C2072 0.960 . S
C2060 H2052 0.929 . S
C2060 C2061 1.377 . S
C2060 C2062 1.384 . S
C2061 C2060 1.377 . S
C2061 C2067 1.390 . S
C2062 H2053 0.930 . S
C2062 C2060 1.384 . S
C2062 C2063 1.372 . S
C2063 C2062 1.372 . S
C2063 C2064 1.400 . S
C2063 C2068 1.490 . S
C2064 H2054 0.930 . S
C2064 C2063 1.400 . S
C2064 C2067 1.386 . S
H2065 C2081 0.930 . S
H2066 C2082 0.931 . S
C2067 H2055 0.929 . S
C2067 C2061 1.390 . S
C2067 C2064 1.386 . S
C2068 C2063 1.490 . S
C2068 C2070 1.395 . S
C2068 C2071 1.403 . S
H2069 C2075 0.930 . S
C2070 H2056 0.930 . S
C2070 C2068 1.395 . S
C2070 C2073 1.403 . S
C2071 C2068 1.403 . S
C2071 C2072 1.524 . S
C2071 C2075 1.400 . S
C2072 H2057 0.960 . S
C2072 H2058 0.960 . S
C2072 H2059 0.960 . S
C2072 C2071 1.524 . S
C2073 C2070 1.403 . S
C2073 C2074 1.392 . S
C2073 C2077 1.495 . S
C2074 C2073 1.392 . S
C2074 C2075 1.385 . S
C2074 C2076 1.478 . S
C2075 H2069 0.930 . S
C2075 C2071 1.400 . S
C2075 C2074 1.385 . S
C2076 C2074 1.478 . S
C2076 C2078 1.381 . S
C2076 C2082 1.383 . S
C2077 C2073 1.495 . S
C2077 H2083 0.959 . S
C2077 H2084 0.961 . S
C2077 H2085 0.960 . S
C2078 C2076 1.381 . S
C2078 C2079 1.394 . S
C2078 H2086 0.930 . S
C2079 C2078 1.394 . S
C2079 C2080 1.383 . S
C2079 H2087 0.929 . S
C2080 C2079 1.383 . S
C2080 C2081 1.377 . S
C2081 H2065 0.930 . S
C2081 C2080 1.377 . S
C2081 C2082 1.379 . S
C2082 H2066 0.931 . S
C2082 C2076 1.383 . S
C2082 C2081 1.379 . S
H2083 C2077 0.959 . S
H2084 C2077 0.961 . S
H2085 C2077 0.960 . S
H2086 C2078 0.930 . S
H2087 C2079 0.929 . S
H2088 C2096 0.929 . S
H2089 C2098 0.930 . S
H2090 C2100 0.930 . S
H2091 C2103 0.929 . S
H2092 C2106 0.930 . S
H2093 C2108 0.960 . S
H2094 C2108 0.960 . S
H2095 C2108 0.960 . S
C2096 H2088 0.929 . S
C2096 C2097 1.377 . S
C2096 C2098 1.384 . S
C2097 C2096 1.377 . S
C2097 C2103 1.390 . S
C2098 H2089 0.930 . S
C2098 C2096 1.384 . S
C2098 C2099 1.372 . S
C2099 C2098 1.372 . S
C2099 C2100 1.400 . S
C2099 C2104 1.490 . S
C2100 H2090 0.930 . S
C2100 C2099 1.400 . S
C2100 C2103 1.386 . S
H2101 C2117 0.930 . S
H2102 C2118 0.931 . S
C2103 H2091 0.929 . S
C2103 C2097 1.390 . S
C2103 C2100 1.386 . S
C2104 C2099 1.490 . S
C2104 C2106 1.395 . S
C2104 C2107 1.403 . S
H2105 C2111 0.930 . S
C2106 H2092 0.930 . S
C2106 C2104 1.395 . S
C2106 C2109 1.403 . S
C2107 C2104 1.403 . S
C2107 C2108 1.524 . S
C2107 C2111 1.400 . S
C2108 H2093 0.960 . S
C2108 H2094 0.960 . S
C2108 H2095 0.960 . S
C2108 C2107 1.524 . S
C2109 C2106 1.403 . S
C2109 C2110 1.392 . S
C2109 C2113 1.495 . S
C2110 C2109 1.392 . S
C2110 C2111 1.385 . S
C2110 C2112 1.478 . S
C2111 H2105 0.930 . S
C2111 C2107 1.400 . S
C2111 C2110 1.385 . S
C2112 C2110 1.478 . S
C2112 C2114 1.381 . S
C2112 C2118 1.383 . S
C2113 C2109 1.495 . S
C2113 H2119 0.959 . S
C2113 H2120 0.961 . S
C2113 H2121 0.960 . S
C2114 C2112 1.381 . S
C2114 C2115 1.394 . S
C2114 H2122 0.930 . S
C2115 C2114 1.394 . S
C2115 C2116 1.383 . S
C2115 H2123 0.929 . S
C2116 C2115 1.383 . S
C2116 C2117 1.377 . S
C2117 H2101 0.930 . S
C2117 C2116 1.377 . S
C2117 C2118 1.379 . S
C2118 H2102 0.931 . S
C2118 C2112 1.383 . S
C2118 C2117 1.379 . S
H2119 C2113 0.959 . S
H2120 C2113 0.961 . S
H2121 C2113 0.960 . S
H2122 C2114 0.930 . S
H2123 C2115 0.929 . S
H2124 C2132 0.929 . S
H2125 C2134 0.930 . S
H2126 C2136 0.930 . S
H2127 C2139 0.929 . S
H2128 C2142 0.930 . S
H2129 C2144 0.960 . S
H2130 C2144 0.960 . S
H2131 C2144 0.960 . S
C2132 H2124 0.929 . S
C2132 C2133 1.377 . S
C2132 C2134 1.384 . S
C2133 C2132 1.377 . S
C2133 C2139 1.390 . S
C2134 H2125 0.930 . S
C2134 C2132 1.384 . S
C2134 C2135 1.372 . S
C2135 C2134 1.372 . S
C2135 C2136 1.400 . S
C2135 C2140 1.490 . S
C2136 H2126 0.930 . S
C2136 C2135 1.400 . S
C2136 C2139 1.386 . S
H2137 C2153 0.930 . S
H2138 C2154 0.931 . S
C2139 H2127 0.929 . S
C2139 C2133 1.390 . S
C2139 C2136 1.386 . S
C2140 C2135 1.490 . S
C2140 C2142 1.395 . S
C2140 C2143 1.403 . S
H2141 C2147 0.930 . S
C2142 H2128 0.930 . S
C2142 C2140 1.395 . S
C2142 C2145 1.403 . S
C2143 C2140 1.403 . S
C2143 C2144 1.524 . S
C2143 C2147 1.400 . S
C2144 H2129 0.960 . S
C2144 H2130 0.960 . S
C2144 H2131 0.960 . S
C2144 C2143 1.524 . S
C2145 C2142 1.403 . S
C2145 C2146 1.392 . S
C2145 C2149 1.495 . S
C2146 C2145 1.392 . S
C2146 C2147 1.385 . S
C2146 C2148 1.478 . S
C2147 H2141 0.930 . S
C2147 C2143 1.400 . S
C2147 C2146 1.385 . S
C2148 C2146 1.478 . S
C2148 C2150 1.381 . S
C2148 C2154 1.383 . S
C2149 C2145 1.495 . S
C2149 H2155 0.959 . S
C2149 H2156 0.961 . S
C2149 H2157 0.960 . S
C2150 C2148 1.381 . S
C2150 C2151 1.394 . S
C2150 H2158 0.930 . S
C2151 C2150 1.394 . S
C2151 C2152 1.383 . S
C2151 H2159 0.929 . S
C2152 C2151 1.383 . S
C2152 C2153 1.377 . S
C2153 H2137 0.930 . S
C2153 C2152 1.377 . S
C2153 C2154 1.379 . S
C2154 H2138 0.931 . S
C2154 C2148 1.383 . S
C2154 C2153 1.379 . S
H2155 C2149 0.959 . S
H2156 C2149 0.961 . S
H2157 C2149 0.960 . S
H2158 C2150 0.930 . S
H2159 C2151 0.929 . S
H2160 C2168 0.929 . S
H2161 C2170 0.930 . S
H2162 C2172 0.930 . S
H2163 C2175 0.929 . S
H2164 C2178 0.930 . S
H2165 C2180 0.960 . S
H2166 C2180 0.960 . S
H2167 C2180 0.960 . S
C2168 H2160 0.929 . S
C2168 C2169 1.377 . S
C2168 C2170 1.384 . S
C2169 C2168 1.377 . S
C2169 C2175 1.390 . S
C2170 H2161 0.930 . S
C2170 C2168 1.384 . S
C2170 C2171 1.372 . S
C2171 C2170 1.372 . S
C2171 C2172 1.400 . S
C2171 C2176 1.490 . S
C2172 H2162 0.930 . S
C2172 C2171 1.400 . S
C2172 C2175 1.386 . S
H2173 C2189 0.930 . S
H2174 C2190 0.931 . S
C2175 H2163 0.929 . S
C2175 C2169 1.390 . S
C2175 C2172 1.386 . S
C2176 C2171 1.490 . S
C2176 C2178 1.395 . S
C2176 C2179 1.403 . S
H2177 C2183 0.930 . S
C2178 H2164 0.930 . S
C2178 C2176 1.395 . S
C2178 C2181 1.403 . S
C2179 C2176 1.403 . S
C2179 C2180 1.524 . S
C2179 C2183 1.400 . S
C2180 H2165 0.960 . S
C2180 H2166 0.960 . S
C2180 H2167 0.960 . S
C2180 C2179 1.524 . S
C2181 C2178 1.403 . S
C2181 C2182 1.392 . S
C2181 C2185 1.495 . S
C2182 C2181 1.392 . S
C2182 C2183 1.385 . S
C2182 C2184 1.478 . S
C2183 H2177 0.930 . S
C2183 C2179 1.400 . S
C2183 C2182 1.385 . S
C2184 C2182 1.478 . S
C2184 C2186 1.381 . S
C2184 C2190 1.383 . S
C2185 C2181 1.495 . S
C2185 H2191 0.959 . S
C2185 H2192 0.961 . S
C2185 H2193 0.960 . S
C2186 C2184 1.381 . S
C2186 C2187 1.394 . S
C2186 H2194 0.930 . S
C2187 C2186 1.394 . S
C2187 C2188 1.383 . S
C2187 H2195 0.929 . S
C2188 C2187 1.383 . S
C2188 C2189 1.377 . S
C2189 H2173 0.930 . S
C2189 C2188 1.377 . S
C2189 C2190 1.379 . S
C2190 H2174 0.931 . S
C2190 C2184 1.383 . S
C2190 C2189 1.379 . S
H2191 C2185 0.959 . S
H2192 C2185 0.961 . S
H2193 C2185 0.960 . S
H2194 C2186 0.930 . S
H2195 C2187 0.929 . S
H2196 C2204 0.929 . S
H2197 C2206 0.930 . S
H2198 C2208 0.930 . S
H2199 C2211 0.929 . S
H2200 C2214 0.930 . S
H2201 C2216 0.960 . S
H2202 C2216 0.960 . S
H2203 C2216 0.960 . S
C2204 H2196 0.929 . S
C2204 C2205 1.377 . S
C2204 C2206 1.384 . S
C2205 C2204 1.377 . S
C2205 C2211 1.390 . S
C2206 H2197 0.930 . S
C2206 C2204 1.384 . S
C2206 C2207 1.372 . S
C2207 C2206 1.372 . S
C2207 C2208 1.400 . S
C2207 C2212 1.490 . S
C2208 H2198 0.930 . S
C2208 C2207 1.400 . S
C2208 C2211 1.386 . S
H2209 C2225 0.930 . S
H2210 C2226 0.931 . S
C2211 H2199 0.929 . S
C2211 C2205 1.390 . S
C2211 C2208 1.386 . S
C2212 C2207 1.490 . S
C2212 C2214 1.395 . S
C2212 C2215 1.403 . S
H2213 C2219 0.930 . S
C2214 H2200 0.930 . S
C2214 C2212 1.395 . S
C2214 C2217 1.403 . S
C2215 C2212 1.403 . S
C2215 C2216 1.524 . S
C2215 C2219 1.400 . S
C2216 H2201 0.960 . S
C2216 H2202 0.960 . S
C2216 H2203 0.960 . S
C2216 C2215 1.524 . S
C2217 C2214 1.403 . S
C2217 C2218 1.392 . S
C2217 C2221 1.495 . S
C2218 C2217 1.392 . S
C2218 C2219 1.385 . S
C2218 C2220 1.478 . S
C2219 H2213 0.930 . S
C2219 C2215 1.400 . S
C2219 C2218 1.385 . S
C2220 C2218 1.478 . S
C2220 C2222 1.381 . S
C2220 C2226 1.383 . S
C2221 C2217 1.495 . S
C2221 H2227 0.959 . S
C2221 H2228 0.961 . S
C2221 H2229 0.960 . S
C2222 C2220 1.381 . S
C2222 C2223 1.394 . S
C2222 H2230 0.930 . S
C2223 C2222 1.394 . S
C2223 C2224 1.383 . S
C2223 H2231 0.929 . S
C2224 C2223 1.383 . S
C2224 C2225 1.377 . S
C2225 H2209 0.930 . S
C2225 C2224 1.377 . S
C2225 C2226 1.379 . S
C2226 H2210 0.931 . S
C2226 C2220 1.383 . S
C2226 C2225 1.379 . S
H2227 C2221 0.959 . S
H2228 C2221 0.961 . S
H2229 C2221 0.960 . S
H2230 C2222 0.930 . S
H2231 C2223 0.929 . S
H2232 C2240 0.929 . S
H2233 C2242 0.930 . S
H2234 C2244 0.930 . S
H2235 C2247 0.929 . S
H2236 C2250 0.930 . S
H2237 C2252 0.960 . S
H2238 C2252 0.960 . S
H2239 C2252 0.960 . S
C2240 H2232 0.929 . S
C2240 C2241 1.377 . S
C2240 C2242 1.384 . S
C2241 C2240 1.377 . S
C2241 C2247 1.390 . S
C2242 H2233 0.930 . S
C2242 C2240 1.384 . S
C2242 C2243 1.372 . S
C2243 C2242 1.372 . S
C2243 C2244 1.400 . S
C2243 C2248 1.490 . S
C2244 H2234 0.930 . S
C2244 C2243 1.400 . S
C2244 C2247 1.386 . S
H2245 C2261 0.930 . S
H2246 C2262 0.931 . S
C2247 H2235 0.929 . S
C2247 C2241 1.390 . S
C2247 C2244 1.386 . S
C2248 C2243 1.490 . S
C2248 C2250 1.395 . S
C2248 C2251 1.403 . S
H2249 C2255 0.930 . S
C2250 H2236 0.930 . S
C2250 C2248 1.395 . S
C2250 C2253 1.403 . S
C2251 C2248 1.403 . S
C2251 C2252 1.524 . S
C2251 C2255 1.400 . S
C2252 H2237 0.960 . S
C2252 H2238 0.960 . S
C2252 H2239 0.960 . S
C2252 C2251 1.524 . S
C2253 C2250 1.403 . S
C2253 C2254 1.392 . S
C2253 C2257 1.495 . S
C2254 C2253 1.392 . S
C2254 C2255 1.385 . S
C2254 C2256 1.478 . S
C2255 H2249 0.930 . S
C2255 C2251 1.400 . S
C2255 C2254 1.385 . S
C2256 C2254 1.478 . S
C2256 C2258 1.381 . S
C2256 C2262 1.383 . S
C2257 C2253 1.495 . S
C2257 H2263 0.959 . S
C2257 H2264 0.961 . S
C2257 H2265 0.960 . S
C2258 C2256 1.381 . S
C2258 C2259 1.394 . S
C2258 H2266 0.930 . S
C2259 C2258 1.394 . S
C2259 C2260 1.383 1_556 S
C2259 H2267 0.929 . S
C2260 C2259 1.383 1_554 S
C2260 C2261 1.377 . S
C2261 H2245 0.930 . S
C2261 C2260 1.377 . S
C2261 C2262 1.379 1_554 S
C2262 H2246 0.931 . S
C2262 C2256 1.383 . S
C2262 C2261 1.379 1_556 S
H2263 C2257 0.959 . S
H2264 C2257 0.961 . S
H2265 C2257 0.960 . S
H2266 C2258 0.930 . S
H2267 C2259 0.929 . S
H2268 C2276 0.929 . S
H2269 C2278 0.930 . S
H2270 C2280 0.930 . S
H2271 C2283 0.929 . S
H2272 C2286 0.930 . S
H2273 C2288 0.960 . S
H2274 C2288 0.960 . S
H2275 C2288 0.960 . S
C2276 H2268 0.929 . S
C2276 C2277 1.377 1_556 S
C2276 C2278 1.384 . S
C2277 C2276 1.377 1_554 S
C2277 C2283 1.390 . S
C2278 H2269 0.930 . S
C2278 C2276 1.384 . S
C2278 C2279 1.372 . S
C2279 C2278 1.372 . S
C2279 C2280 1.400 . S
C2279 C2284 1.490 . S
C2280 H2270 0.930 . S
C2280 C2279 1.400 . S
C2280 C2283 1.386 1_556 S
H2281 C2297 0.930 . S
H2282 C2298 0.931 . S
C2283 H2271 0.929 . S
C2283 C2277 1.390 . S
C2283 C2280 1.386 1_554 S
C2284 C2279 1.490 . S
C2284 C2286 1.395 . S
C2284 C2287 1.403 . S
H2285 C2291 0.930 . S
C2286 H2272 0.930 . S
C2286 C2284 1.395 . S
C2286 C2289 1.403 . S
C2287 C2284 1.403 . S
C2287 C2288 1.524 . S
C2287 C2291 1.400 . S
C2288 H2273 0.960 . S
C2288 H2274 0.960 . S
C2288 H2275 0.960 . S
C2288 C2287 1.524 . S
C2289 C2286 1.403 . S
C2289 C2290 1.392 . S
C2289 C2293 1.495 . S
C2290 C2289 1.392 . S
C2290 C2291 1.385 . S
C2290 C2292 1.478 . S
C2291 H2285 0.930 . S
C2291 C2287 1.400 . S
C2291 C2290 1.385 . S
C2292 C2290 1.478 . S
C2292 C2294 1.381 . S
C2292 C2298 1.383 . S
C2293 C2289 1.495 . S
C2293 H2299 0.959 . S
C2293 H2300 0.961 . S
C2293 H2301 0.960 . S
C2294 C2292 1.381 . S
C2294 C2295 1.394 . S
C2294 H2302 0.930 . S
C2295 C2294 1.394 . S
C2295 C2296 1.383 . S
C2295 H2303 0.929 . S
C2296 C2295 1.383 . S
C2296 C2297 1.377 . S
C2297 H2281 0.930 . S
C2297 C2296 1.377 . S
C2297 C2298 1.379 . S
C2298 H2282 0.931 . S
C2298 C2292 1.383 . S
C2298 C2297 1.379 . S
H2299 C2293 0.959 . S
H2300 C2293 0.961 . S
H2301 C2293 0.960 . S
H2302 C2294 0.930 . S
H2303 C2295 0.929 . S
H2304 C2312 0.929 . S
H2305 C2314 0.930 . S
H2306 C2316 0.930 . S
H2307 C2319 0.929 . S
H2308 C2322 0.930 . S
H2309 C2324 0.960 . S
H2310 C2324 0.960 . S
H2311 C2324 0.960 . S
C2312 H2304 0.929 . S
C2312 C2313 1.377 . S
C2312 C2314 1.384 . S
C2313 C2312 1.377 . S
C2313 C2319 1.390 . S
C2314 H2305 0.930 . S
C2314 C2312 1.384 . S
C2314 C2315 1.372 . S
C2315 C2314 1.372 . S
C2315 C2316 1.400 . S
C2315 C2320 1.490 . S
C2316 H2306 0.930 . S
C2316 C2315 1.400 . S
C2316 C2319 1.386 . S
H2317 C2333 0.930 1_554 S
H2318 C2334 0.931 . S
C2319 H2307 0.929 . S
C2319 C2313 1.390 . S
C2319 C2316 1.386 . S
C2320 C2315 1.490 . S
C2320 C2322 1.395 . S
C2320 C2323 1.403 . S
H2321 C2327 0.930 . S
C2322 H2308 0.930 . S
C2322 C2320 1.395 . S
C2322 C2325 1.403 . S
C2323 C2320 1.403 . S
C2323 C2324 1.524 . S
C2323 C2327 1.400 . S
C2324 H2309 0.960 . S
C2324 H2310 0.960 . S
C2324 H2311 0.960 . S
C2324 C2323 1.524 . S
C2325 C2322 1.403 . S
C2325 C2326 1.392 . S
C2325 C2329 1.495 . S
C2326 C2325 1.392 . S
C2326 C2327 1.385 . S
C2326 C2328 1.478 . S
C2327 H2321 0.930 . S
C2327 C2323 1.400 . S
C2327 C2326 1.385 . S
C2328 C2326 1.478 . S
C2328 C2330 1.381 . S
C2328 C2334 1.383 . S
C2329 C2325 1.495 . S
C2329 H2335 0.959 . S
C2329 H2336 0.961 . S
C2329 H2337 0.960 . S
C2330 C2328 1.381 . S
C2330 C2331 1.394 . S
C2330 H2338 0.930 . S
C2331 C2330 1.394 . S
C2331 C2332 1.383 1_556 S
C2331 H2339 0.929 . S
C2332 C2331 1.383 1_554 S
C2332 C2333 1.377 1_554 S
C2333 H2317 0.930 1_556 S
C2333 C2332 1.377 1_556 S
C2333 C2334 1.379 . S
C2334 H2318 0.931 . S
C2334 C2328 1.383 . S
C2334 C2333 1.379 . S
H2335 C2329 0.959 . S
H2336 C2329 0.961 . S
H2337 C2329 0.960 . S
H2338 C2330 0.930 . S
H2339 C2331 0.929 . S
H2340 C2348 0.929 . S
H2341 C2350 0.930 . S
H2342 C2352 0.930 . S
H2343 C2355 0.929 . S
H2344 C2358 0.930 . S
H2345 C2360 0.960 . S
H2346 C2360 0.960 1_556 S
H2347 C2360 0.960 1_556 S
C2348 H2340 0.929 . S
C2348 C2349 1.377 . S
C2348 C2350 1.384 . S
C2349 C2348 1.377 . S
C2349 C2355 1.390 . S
C2350 H2341 0.930 . S
C2350 C2348 1.384 . S
C2350 C2351 1.372 . S
C2351 C2350 1.372 . S
C2351 C2352 1.400 . S
C2351 C2356 1.490 . S
C2352 H2342 0.930 . S
C2352 C2351 1.400 . S
C2352 C2355 1.386 . S
H2353 C2369 0.930 . S
H2354 C2370 0.931 . S
C2355 H2343 0.929 . S
C2355 C2349 1.390 . S
C2355 C2352 1.386 . S
C2356 C2351 1.490 . S
C2356 C2358 1.395 . S
C2356 C2359 1.403 . S
H2357 C2363 0.930 . S
C2358 H2344 0.930 . S
C2358 C2356 1.395 . S
C2358 C2361 1.403 . S
C2359 C2356 1.403 . S
C2359 C2360 1.524 1_556 S
C2359 C2363 1.400 1_556 S
C2360 H2345 0.960 . S
C2360 H2346 0.960 1_554 S
C2360 H2347 0.960 1_554 S
C2360 C2359 1.524 1_554 S
C2361 C2358 1.403 . S
C2361 C2362 1.393 . S
C2361 C2365 1.495 . S
C2362 C2361 1.393 . S
C2362 C2363 1.385 1_556 S
C2362 C2364 1.477 1_556 S
C2363 H2357 0.930 . S
C2363 C2359 1.400 1_554 S
C2363 C2362 1.385 1_554 S
C2364 C2362 1.477 1_554 S
C2364 C2366 1.381 . S
C2364 C2370 1.383 . S
C2365 C2361 1.495 . S
C2365 H2371 0.959 . S
C2365 H2372 0.961 . S
C2365 H2373 0.960 . S
C2366 C2364 1.381 . S
C2366 C2367 1.394 . S
C2366 H2374 0.930 . S
C2367 C2366 1.394 . S
C2367 C2368 1.383 . S
C2367 H2375 0.929 . S
C2368 C2367 1.383 . S
C2368 C2369 1.377 . S
C2369 H2353 0.930 . S
C2369 C2368 1.377 . S
C2369 C2370 1.379 . S
C2370 H2354 0.931 . S
C2370 C2364 1.383 . S
C2370 C2369 1.379 . S
H2371 C2365 0.959 . S
H2372 C2365 0.961 . S
H2373 C2365 0.960 . S
H2374 C2366 0.930 . S
H2375 C2367 0.929 . S
H2376 C2384 0.929 . S
H2377 C2386 0.930 . S
H2378 C2388 0.930 . S
H2379 C2391 0.929 . S
H2380 C2394 0.930 . S
H2381 C2396 0.960 . S
H2382 C2396 0.960 1_556 S
H2383 C2396 0.960 1_556 S
C2384 H2376 0.929 . S
C2384 C2385 1.377 . S
C2384 C2386 1.384 . S
C2385 C2384 1.377 . S
C2385 C2391 1.390 . S
C2386 H2377 0.930 . S
C2386 C2384 1.384 . S
C2386 C2387 1.372 . S
C2387 C2386 1.372 . S
C2387 C2388 1.400 . S
C2387 C2392 1.490 . S
C2388 H2378 0.930 . S
C2388 C2387 1.400 . S
C2388 C2391 1.386 . S
H2389 C2405 0.930 . S
H2390 C2406 0.931 . S
C2391 H2379 0.929 . S
C2391 C2385 1.390 . S
C2391 C2388 1.386 . S
C2392 C2387 1.490 . S
C2392 C2394 1.395 . S
C2392 C2395 1.403 . S
H2393 C2399 0.930 . S
C2394 H2380 0.930 . S
C2394 C2392 1.395 . S
C2394 C2397 1.403 . S
C2395 C2392 1.403 . S
C2395 C2396 1.524 1_556 S
C2395 C2399 1.400 1_556 S
C2396 H2381 0.960 . S
C2396 H2382 0.960 1_554 S
C2396 H2383 0.960 1_554 S
C2396 C2395 1.524 1_554 S
C2397 C2394 1.403 . S
C2397 C2398 1.389 1_556 S
C2397 C2401 1.495 . S
C2398 C2397 1.389 1_554 S
C2398 C2399 1.386 . S
C2398 C2400 1.480 . S
C2399 H2393 0.930 . S
C2399 C2395 1.400 1_554 S
C2399 C2398 1.386 . S
C2400 C2398 1.480 . S
C2400 C2402 1.381 . S
C2400 C2406 1.383 . S
C2401 C2397 1.495 . S
C2401 H2407 0.959 . S
C2401 H2408 0.961 . S
C2401 H2409 0.960 . S
C2402 C2400 1.381 . S
C2402 C2403 1.394 . S
C2402 H2410 0.930 . S
C2403 C2402 1.394 . S
C2403 C2404 1.383 . S
C2403 H2411 0.929 . S
C2404 C2403 1.383 . S
C2404 C2405 1.377 . S
C2405 H2389 0.930 . S
C2405 C2404 1.377 . S
C2405 C2406 1.379 . S
C2406 H2390 0.931 . S
C2406 C2400 1.383 . S
C2406 C2405 1.379 . S
H2407 C2401 0.959 . S
H2408 C2401 0.961 . S
H2409 C2401 0.960 . S
H2410 C2402 0.930 . S
H2411 C2403 0.929 . S
H2412 C2420 0.929 . S
H2413 C2422 0.930 . S
H2414 C2424 0.930 . S
H2415 C2427 0.929 . S
H2416 C2430 0.930 . S
H2417 C2432 0.960 1_554 S
H2418 C2432 0.960 . S
H2419 C2432 0.960 . S
C2420 H2412 0.929 . S
C2420 C2421 1.377 . S
C2420 C2422 1.384 . S
C2421 C2420 1.377 . S
C2421 C2427 1.390 . S
C2422 H2413 0.930 . S
C2422 C2420 1.384 . S
C2422 C2423 1.372 . S
C2423 C2422 1.372 . S
C2423 C2424 1.400 . S
C2423 C2428 1.490 . S
C2424 H2414 0.930 . S
C2424 C2423 1.400 . S
C2424 C2427 1.386 . S
H2425 C2441 0.930 . S
H2426 C2442 0.931 . S
C2427 H2415 0.929 . S
C2427 C2421 1.390 . S
C2427 C2424 1.386 . S
C2428 C2423 1.490 . S
C2428 C2430 1.395 . S
C2428 C2431 1.403 . S
H2429 C2435 0.930 . S
C2430 H2416 0.930 . S
C2430 C2428 1.395 . S
C2430 C2433 1.403 . S
C2431 C2428 1.403 . S
C2431 C2432 1.524 . S
C2431 C2435 1.400 1_556 S
C2432 H2417 0.960 1_556 S
C2432 H2418 0.960 . S
C2432 H2419 0.960 . S
C2432 C2431 1.524 . S
C2433 C2430 1.403 . S
C2433 C2434 1.392 1_556 S
C2433 C2437 1.495 . S
C2434 C2433 1.392 1_554 S
C2434 C2435 1.385 . S
C2434 C2436 1.478 . S
C2435 H2429 0.930 . S
C2435 C2431 1.400 1_554 S
C2435 C2434 1.385 . S
C2436 C2434 1.478 . S
C2436 C2438 1.381 . S
C2436 C2442 1.383 . S
C2437 C2433 1.495 . S
C2437 H2443 0.959 . S
C2437 H2444 0.961 . S
C2437 H2445 0.960 . S
C2438 C2436 1.381 . S
C2438 C2439 1.394 . S
C2438 H2446 0.930 . S
C2439 C2438 1.394 . S
C2439 C2440 1.383 . S
C2439 H2447 0.929 . S
C2440 C2439 1.383 . S
C2440 C2441 1.377 . S
C2441 H2425 0.930 . S
C2441 C2440 1.377 . S
C2441 C2442 1.379 . S
C2442 H2426 0.931 . S
C2442 C2436 1.383 . S
C2442 C2441 1.379 . S
H2443 C2437 0.959 . S
H2444 C2437 0.961 . S
H2445 C2437 0.960 . S
H2446 C2438 0.930 . S
H2447 C2439 0.929 . S
H2448 C2456 0.929 . S
H2449 C2458 0.930 . S
H2450 C2460 0.930 . S
H2451 C2463 0.929 . S
H2452 C2466 0.930 . S
H2453 C2468 0.960 . S
H2454 C2468 0.960 . S
H2455 C2468 0.960 . S
C2456 H2448 0.929 . S
C2456 C2457 1.377 . S
C2456 C2458 1.384 . S
C2457 C2456 1.377 . S
C2457 C2463 1.390 . S
C2458 H2449 0.930 . S
C2458 C2456 1.384 . S
C2458 C2459 1.372 . S
C2459 C2458 1.372 . S
C2459 C2460 1.400 . S
C2459 C2464 1.490 . S
C2460 H2450 0.930 . S
C2460 C2459 1.400 . S
C2460 C2463 1.386 . S
H2461 C2477 0.930 . S
H2462 C2478 0.931 . S
C2463 H2451 0.929 . S
C2463 C2457 1.390 . S
C2463 C2460 1.386 . S
C2464 C2459 1.490 . S
C2464 C2466 1.395 . S
C2464 C2467 1.403 . S
H2465 C2471 0.930 . S
C2466 H2452 0.930 . S
C2466 C2464 1.395 . S
C2466 C2469 1.403 . S
C2467 C2464 1.403 . S
C2467 C2468 1.524 . S
C2467 C2471 1.400 . S
C2468 H2453 0.960 . S
C2468 H2454 0.960 . S
C2468 H2455 0.960 . S
C2468 C2467 1.524 . S
C2469 C2466 1.403 . S
C2469 C2470 1.392 . S
C2469 C2473 1.495 . S
C2470 C2469 1.392 . S
C2470 C2471 1.385 . S
C2470 C2472 1.478 . S
C2471 H2465 0.930 . S
C2471 C2467 1.400 . S
C2471 C2470 1.385 . S
C2472 C2470 1.478 . S
C2472 C2474 1.381 1_556 S
C2472 C2478 1.383 . S
C2473 C2469 1.495 . S
C2473 H2479 0.959 . S
C2473 H2480 0.961 . S
C2473 H2481 0.960 . S
C2474 C2472 1.381 1_554 S
C2474 C2475 1.394 . S
C2474 H2482 0.930 . S
C2475 C2474 1.394 . S
C2475 C2476 1.383 . S
C2475 H2483 0.929 . S
C2476 C2475 1.383 . S
C2476 C2477 1.377 1_554 S
C2477 H2461 0.930 . S
C2477 C2476 1.377 1_556 S
C2477 C2478 1.379 . S
C2478 H2462 0.931 . S
C2478 C2472 1.383 . S
C2478 C2477 1.379 . S
H2479 C2473 0.959 . S
H2480 C2473 0.961 . S
H2481 C2473 0.960 . S
H2482 C2474 0.930 . S
H2483 C2475 0.929 . S
H2484 C2492 0.929 . S
H2485 C2494 0.934 . S
H2486 C2496 0.930 . S
H2487 C2499 0.929 . S
H2488 C2502 0.930 1_554 S
H2489 C2504 0.960 . S
H2490 C2504 0.960 . S
H2491 C2504 0.960 . S
C2492 H2484 0.929 . S
C2492 C2493 1.377 . S
C2492 C2494 1.384 1_554 S
C2493 C2492 1.377 . S
C2493 C2499 1.390 1_554 S
C2494 H2485 0.934 . S
C2494 C2492 1.384 1_556 S
C2494 C2495 1.372 . S
C2495 C2494 1.372 . S
C2495 C2496 1.400 . S
C2495 C2500 1.490 . S
C2496 H2486 0.930 . S
C2496 C2495 1.400 . S
C2496 C2499 1.386 . S
H2497 C2513 0.930 . S
H2498 C2514 0.931 . S
C2499 H2487 0.929 . S
C2499 C2493 1.390 1_556 S
C2499 C2496 1.386 . S
C2500 C2495 1.490 . S
C2500 C2502 1.395 . S
C2500 C2503 1.403 . S
H2501 C2507 0.930 . S
C2502 H2488 0.930 1_556 S
C2502 C2500 1.395 . S
C2502 C2505 1.403 . S
C2503 C2500 1.403 . S
C2503 C2504 1.524 . S
C2503 C2507 1.400 . S
C2504 H2489 0.960 . S
C2504 H2490 0.960 . S
C2504 H2491 0.960 . S
C2504 C2503 1.524 . S
C2505 C2502 1.403 . S
C2505 C2506 1.392 . S
C2505 C2509 1.495 . S
C2506 C2505 1.392 . S
C2506 C2507 1.385 . S
C2506 C2508 1.478 . S
C2507 H2501 0.930 . S
C2507 C2503 1.400 . S
C2507 C2506 1.385 . S
C2508 C2506 1.478 . S
C2508 C2510 1.381 . S
C2508 C2514 1.383 . S
C2509 C2505 1.495 . S
C2509 H2515 0.959 1_556 S
C2509 H2516 0.961 . S
C2509 H2517 0.960 . S
C2510 C2508 1.381 . S
C2510 C2511 1.394 . S
C2510 H2518 0.930 . S
C2511 C2510 1.394 . S
C2511 C2512 1.383 . S
C2511 H2519 0.929 . S
C2512 C2511 1.383 . S
C2512 C2513 1.377 . S
C2513 H2497 0.930 . S
C2513 C2512 1.377 . S
C2513 C2514 1.379 . S
C2514 H2498 0.931 . S
C2514 C2508 1.383 . S
C2514 C2513 1.379 . S
H2515 C2509 0.959 1_554 S
H2516 C2509 0.961 . S
H2517 C2509 0.960 . S
H2518 C2510 0.930 . S
H2519 C2511 0.929 . S
H2520 C2528 0.929 . S
H2521 C2530 0.930 . S
H2522 C2532 0.930 . S
H2523 C2535 0.929 . S
H2524 C2538 0.930 . S
H2525 C2540 0.960 . S
H2526 C2540 0.960 . S
H2527 C2540 0.960 . S
C2528 H2520 0.929 . S
C2528 C2529 1.377 . S
C2528 C2530 1.384 . S
C2529 C2528 1.377 . S
C2529 C2535 1.390 . S
C2530 H2521 0.930 . S
C2530 C2528 1.384 . S
C2530 C2531 1.372 . S
C2531 C2530 1.372 . S
C2531 C2532 1.400 . S
C2531 C2536 1.490 . S
C2532 H2522 0.930 . S
C2532 C2531 1.400 . S
C2532 C2535 1.386 . S
H2533 C2549 0.930 . S
H2534 C2550 0.932 1_554 S
C2535 H2523 0.929 . S
C2535 C2529 1.390 . S
C2535 C2532 1.386 . S
C2536 C2531 1.490 . S
C2536 C2538 1.395 . S
C2536 C2539 1.403 . S
H2537 C2543 0.930 . S
C2538 H2524 0.930 . S
C2538 C2536 1.395 . S
C2538 C2541 1.403 . S
C2539 C2536 1.403 . S
C2539 C2540 1.524 . S
C2539 C2543 1.400 . S
C2540 H2525 0.960 . S
C2540 H2526 0.960 . S
C2540 H2527 0.960 . S
C2540 C2539 1.524 . S
C2541 C2538 1.403 . S
C2541 C2542 1.392 . S
C2541 C2545 1.495 . S
C2542 C2541 1.392 . S
C2542 C2543 1.385 . S
C2542 C2544 1.478 . S
C2543 H2537 0.930 . S
C2543 C2539 1.400 . S
C2543 C2542 1.385 . S
C2544 C2542 1.478 . S
C2544 C2546 1.381 . S
C2544 C2550 1.381 . S
C2545 C2541 1.495 . S
C2545 H2551 0.959 . S
C2545 H2552 0.961 . S
C2545 H2553 0.960 . S
C2546 C2544 1.381 . S
C2546 C2547 1.394 . S
C2546 H2554 0.930 . S
C2547 C2546 1.394 . S
C2547 C2548 1.383 1_556 S
C2547 H2555 0.929 . S
C2548 C2547 1.383 1_554 S
C2548 C2549 1.377 . S
C2549 H2533 0.930 . S
C2549 C2548 1.377 . S
C2549 C2550 1.380 1_554 S
C2550 H2534 0.932 1_556 S
C2550 C2544 1.381 . S
C2550 C2549 1.380 1_556 S
H2551 C2545 0.959 . S
H2552 C2545 0.961 . S
H2553 C2545 0.960 . S
H2554 C2546 0.930 . S
H2555 C2547 0.929 . S
H2556 C2564 0.929 . S
H2557 C2566 0.930 . S
H2558 C2568 0.930 . S
H2559 C2571 0.929 . S
H2560 C2574 0.930 . S
H2561 C2576 0.960 . S
H2562 C2576 0.960 . S
H2563 C2576 0.960 . S
C2564 H2556 0.929 . S
C2564 C2565 1.377 . S
C2564 C2566 1.384 . S
C2565 C2564 1.377 . S
C2565 C2571 1.390 . S
C2566 H2557 0.930 . S
C2566 C2564 1.384 . S
C2566 C2567 1.372 . S
C2567 C2566 1.372 . S
C2567 C2568 1.400 . S
C2567 C2572 1.490 . S
C2568 H2558 0.930 . S
C2568 C2567 1.400 . S
C2568 C2571 1.386 . S
H2569 C2585 0.930 . S
H2570 C2586 0.931 . S
C2571 H2559 0.929 . S
C2571 C2565 1.390 . S
C2571 C2568 1.386 . S
C2572 C2567 1.490 . S
C2572 C2574 1.395 . S
C2572 C2575 1.403 . S
H2573 C2579 0.930 . S
C2574 H2560 0.930 . S
C2574 C2572 1.395 . S
C2574 C2577 1.403 . S
C2575 C2572 1.403 . S
C2575 C2576 1.524 . S
C2575 C2579 1.400 . S
C2576 H2561 0.960 . S
C2576 H2562 0.960 . S
C2576 H2563 0.960 . S
C2576 C2575 1.524 . S
C2577 C2574 1.403 . S
C2577 C2578 1.392 . S
C2577 C2581 1.495 . S
C2578 C2577 1.392 . S
C2578 C2579 1.385 . S
C2578 C2580 1.478 . S
C2579 H2573 0.930 . S
C2579 C2575 1.400 . S
C2579 C2578 1.385 . S
C2580 C2578 1.478 . S
C2580 C2582 1.381 . S
C2580 C2586 1.383 . S
C2581 C2577 1.495 . S
C2581 H2587 0.959 . S
C2581 H2588 0.961 . S
C2581 H2589 0.960 . S
C2582 C2580 1.381 . S
C2582 C2583 1.394 . S
C2582 H2590 0.930 . S
C2583 C2582 1.394 . S
C2583 C2584 1.383 . S
C2583 H2591 0.929 . S
C2584 C2583 1.383 . S
C2584 C2585 1.377 . S
C2585 H2569 0.930 . S
C2585 C2584 1.377 . S
C2585 C2586 1.379 . S
C2586 H2570 0.931 . S
C2586 C2580 1.383 . S
C2586 C2585 1.379 . S
H2587 C2581 0.959 . S
H2588 C2581 0.961 . S
H2589 C2581 0.960 . S
H2590 C2582 0.930 . S
H2591 C2583 0.929 . S
H2592 C2600 0.929 . S
H2593 C2602 0.930 . S
H2594 C2604 0.930 . S
H2595 C2607 0.929 . S
H2596 C2610 0.930 . S
H2597 C2612 0.960 . S
H2598 C2612 0.960 . S
H2599 C2612 0.960 . S
C2600 H2592 0.929 . S
C2600 C2601 1.377 . S
C2600 C2602 1.384 . S
C2601 C2600 1.377 . S
C2601 C2607 1.390 . S
C2602 H2593 0.930 . S
C2602 C2600 1.384 . S
C2602 C2603 1.372 . S
C2603 C2602 1.372 . S
C2603 C2604 1.400 . S
C2603 C2608 1.490 . S
C2604 H2594 0.930 . S
C2604 C2603 1.400 . S
C2604 C2607 1.386 . S
H2605 C2621 0.930 . S
H2606 C2622 0.931 . S
C2607 H2595 0.929 . S
C2607 C2601 1.390 . S
C2607 C2604 1.386 . S
C2608 C2603 1.490 . S
C2608 C2610 1.395 . S
C2608 C2611 1.403 . S
H2609 C2615 0.930 . S
C2610 H2596 0.930 . S
C2610 C2608 1.395 . S
C2610 C2613 1.403 . S
C2611 C2608 1.403 . S
C2611 C2612 1.524 . S
C2611 C2615 1.400 . S
C2612 H2597 0.960 . S
C2612 H2598 0.960 . S
C2612 H2599 0.960 . S
C2612 C2611 1.524 . S
C2613 C2610 1.403 . S
C2613 C2614 1.392 . S
C2613 C2617 1.495 . S
C2614 C2613 1.392 . S
C2614 C2615 1.385 . S
C2614 C2616 1.478 . S
C2615 H2609 0.930 . S
C2615 C2611 1.400 . S
C2615 C2614 1.385 . S
C2616 C2614 1.478 . S
C2616 C2618 1.381 . S
C2616 C2622 1.383 . S
C2617 C2613 1.495 . S
C2617 H2623 0.959 . S
C2617 H2624 0.961 . S
C2617 H2625 0.960 . S
C2618 C2616 1.381 . S
C2618 C2619 1.394 . S
C2618 H2626 0.930 . S
C2619 C2618 1.394 . S
C2619 C2620 1.383 . S
C2619 H2627 0.929 . S
C2620 C2619 1.383 . S
C2620 C2621 1.377 . S
C2621 H2605 0.930 . S
C2621 C2620 1.377 . S
C2621 C2622 1.379 . S
C2622 H2606 0.931 . S
C2622 C2616 1.383 . S
C2622 C2621 1.379 . S
H2623 C2617 0.959 . S
H2624 C2617 0.961 . S
H2625 C2617 0.960 . S
H2626 C2618 0.930 . S
H2627 C2619 0.929 . S
H2628 C2636 0.929 . S
H2629 C2638 0.930 . S
H2630 C2640 0.930 . S
H2631 C2643 0.929 . S
H2632 C2646 0.930 . S
H2633 C2648 0.960 . S
H2634 C2648 0.960 . S
H2635 C2648 0.960 . S
C2636 H2628 0.929 . S
C2636 C2637 1.377 . S
C2636 C2638 1.384 . S
C2637 C2636 1.377 . S
C2637 C2643 1.390 . S
C2638 H2629 0.930 . S
C2638 C2636 1.384 . S
C2638 C2639 1.372 . S
C2639 C2638 1.372 . S
C2639 C2640 1.400 . S
C2639 C2644 1.490 . S
C2640 H2630 0.930 . S
C2640 C2639 1.400 . S
C2640 C2643 1.386 . S
H2641 C2657 0.930 . S
H2642 C2658 0.931 . S
C2643 H2631 0.929 . S
C2643 C2637 1.390 . S
C2643 C2640 1.386 . S
C2644 C2639 1.490 . S
C2644 C2646 1.395 . S
C2644 C2647 1.403 . S
H2645 C2651 0.930 . S
C2646 H2632 0.930 . S
C2646 C2644 1.395 . S
C2646 C2649 1.403 . S
C2647 C2644 1.403 . S
C2647 C2648 1.524 . S
C2647 C2651 1.400 . S
C2648 H2633 0.960 . S
C2648 H2634 0.960 . S
C2648 H2635 0.960 . S
C2648 C2647 1.524 . S
C2649 C2646 1.403 . S
C2649 C2650 1.392 . S
C2649 C2653 1.495 . S
C2650 C2649 1.392 . S
C2650 C2651 1.385 . S
C2650 C2652 1.478 . S
C2651 H2645 0.930 . S
C2651 C2647 1.400 . S
C2651 C2650 1.385 . S
C2652 C2650 1.478 . S
C2652 C2654 1.381 . S
C2652 C2658 1.383 . S
C2653 C2649 1.495 . S
C2653 H2659 0.959 . S
C2653 H2660 0.961 . S
C2653 H2661 0.960 . S
C2654 C2652 1.381 . S
C2654 C2655 1.394 . S
C2654 H2662 0.930 . S
C2655 C2654 1.394 . S
C2655 C2656 1.383 . S
C2655 H2663 0.929 . S
C2656 C2655 1.383 . S
C2656 C2657 1.377 . S
C2657 H2641 0.930 . S
C2657 C2656 1.377 . S
C2657 C2658 1.379 . S
C2658 H2642 0.931 . S
C2658 C2652 1.383 . S
C2658 C2657 1.379 . S
H2659 C2653 0.959 . S
H2660 C2653 0.961 . S
H2661 C2653 0.960 . S
H2662 C2654 0.930 . S
H2663 C2655 0.929 . S
H2664 C2672 0.929 . S
H2665 C2674 0.930 . S
H2666 C2676 0.930 . S
H2667 C2679 0.929 . S
H2668 C2682 0.930 . S
H2669 C2684 0.960 . S
H2670 C2684 0.960 1_556 S
H2671 C2684 0.960 . S
C2672 H2664 0.929 . S
C2672 C2673 1.377 . S
C2672 C2674 1.384 1_556 S
C2673 C2672 1.377 . S
C2673 C2679 1.390 1_556 S
C2674 H2665 0.930 . S
C2674 C2672 1.384 1_554 S
C2674 C2675 1.372 . S
C2675 C2674 1.372 . S
C2675 C2676 1.400 . S
C2675 C2680 1.490 . S
C2676 H2666 0.930 . S
C2676 C2675 1.400 . S
C2676 C2679 1.386 . S
H2677 C2693 0.930 . S
H2678 C2694 0.931 . S
C2679 H2667 0.929 . S
C2679 C2673 1.390 1_554 S
C2679 C2676 1.386 . S
C2680 C2675 1.490 . S
C2680 C2682 1.395 . S
C2680 C2683 1.403 . S
H2681 C2687 0.930 . S
C2682 H2668 0.930 . S
C2682 C2680 1.395 . S
C2682 C2685 1.403 . S
C2683 C2680 1.403 . S
C2683 C2684 1.524 . S
C2683 C2687 1.400 . S
C2684 H2669 0.960 . S
C2684 H2670 0.960 1_554 S
C2684 H2671 0.960 . S
C2684 C2683 1.524 . S
C2685 C2682 1.403 . S
C2685 C2686 1.392 . S
C2685 C2689 1.495 . S
C2686 C2685 1.392 . S
C2686 C2687 1.385 . S
C2686 C2688 1.478 . S
C2687 H2681 0.930 . S
C2687 C2683 1.400 . S
C2687 C2686 1.385 . S
C2688 C2686 1.478 . S
C2688 C2690 1.381 . S
C2688 C2694 1.383 . S
C2689 C2685 1.495 . S
C2689 H2695 0.959 . S
C2689 H2696 0.961 . S
C2689 H2697 0.960 . S
C2690 C2688 1.381 . S
C2690 C2691 1.394 . S
C2690 H2698 0.930 . S
C2691 C2690 1.394 . S
C2691 C2692 1.383 . S
C2691 H2699 0.929 . S
C2692 C2691 1.383 . S
C2692 C2693 1.377 . S
C2693 H2677 0.930 . S
C2693 C2692 1.377 . S
C2693 C2694 1.379 . S
C2694 H2678 0.931 . S
C2694 C2688 1.383 . S
C2694 C2693 1.379 . S
H2695 C2689 0.959 . S
H2696 C2689 0.961 . S
H2697 C2689 0.960 . S
H2698 C2690 0.930 . S
H2699 C2691 0.929 . S
H2700 C2708 0.929 . S
H2701 C2710 0.930 . S
H2702 C2712 0.930 . S
H2703 C2715 0.929 . S
H2704 C2718 0.930 . S
H2705 C2720 0.960 . S
H2706 C2720 0.960 . S
H2707 C2720 0.960 . S
C2708 H2700 0.929 . S
C2708 C2709 1.377 . S
C2708 C2710 1.384 . S
C2709 C2708 1.377 . S
C2709 C2715 1.390 . S
C2710 H2701 0.930 . S
C2710 C2708 1.384 . S
C2710 C2711 1.372 . S
C2711 C2710 1.372 . S
C2711 C2712 1.400 . S
C2711 C2716 1.490 . S
C2712 H2702 0.930 . S
C2712 C2711 1.400 . S
C2712 C2715 1.386 . S
H2713 C2729 0.930 . S
H2714 C2730 0.931 . S
C2715 H2703 0.929 . S
C2715 C2709 1.390 . S
C2715 C2712 1.386 . S
C2716 C2711 1.490 . S
C2716 C2718 1.395 . S
C2716 C2719 1.403 . S
H2717 C2723 0.930 . S
C2718 H2704 0.930 . S
C2718 C2716 1.395 . S
C2718 C2721 1.403 . S
C2719 C2716 1.403 . S
C2719 C2720 1.524 . S
C2719 C2723 1.400 . S
C2720 H2705 0.960 . S
C2720 H2706 0.960 . S
C2720 H2707 0.960 . S
C2720 C2719 1.524 . S
C2721 C2718 1.403 . S
C2721 C2722 1.392 . S
C2721 C2725 1.495 1_554 S
C2722 C2721 1.392 . S
C2722 C2723 1.385 . S
C2722 C2724 1.478 . S
C2723 H2717 0.930 . S
C2723 C2719 1.400 . S
C2723 C2722 1.385 . S
C2724 C2722 1.478 . S
C2724 C2726 1.380 . S
C2724 C2730 1.383 . S
C2725 C2721 1.495 1_556 S
C2725 H2731 0.959 . S
C2725 H2732 0.961 . S
C2725 H2733 0.960 . S
C2726 C2724 1.380 . S
C2726 C2727 1.395 1_554 S
C2726 H2734 0.931 1_554 S
C2727 C2726 1.395 1_556 S
C2727 C2728 1.383 . S
C2727 H2735 0.929 . S
C2728 C2727 1.383 . S
C2728 C2729 1.377 1_556 S
C2729 H2713 0.930 . S
C2729 C2728 1.377 1_554 S
C2729 C2730 1.379 . S
C2730 H2714 0.931 . S
C2730 C2724 1.383 . S
C2730 C2729 1.379 . S
H2731 C2725 0.959 . S
H2732 C2725 0.961 . S
H2733 C2725 0.960 . S
H2734 C2726 0.931 1_556 S
H2735 C2727 0.929 . S
H2736 C2744 0.929 . S
H2737 C2746 0.930 . S
H2738 C2748 0.930 . S
H2739 C2751 0.929 . S
H2740 C2754 0.930 . S
H2741 C2756 0.960 . S
H2742 C2756 0.960 . S
H2743 C2756 0.960 . S
C2744 H2736 0.929 . S
C2744 C2745 1.377 . S
C2744 C2746 1.384 . S
C2745 C2744 1.377 . S
C2745 C2751 1.390 . S
C2746 H2737 0.930 . S
C2746 C2744 1.384 . S
C2746 C2747 1.372 . S
C2747 C2746 1.372 . S
C2747 C2748 1.400 . S
C2747 C2752 1.490 . S
C2748 H2738 0.930 . S
C2748 C2747 1.400 . S
C2748 C2751 1.386 . S
H2749 C2765 0.930 . S
H2750 C2766 0.931 . S
C2751 H2739 0.929 . S
C2751 C2745 1.390 . S
C2751 C2748 1.386 . S
C2752 C2747 1.490 . S
C2752 C2754 1.395 . S
C2752 C2755 1.403 . S
H2753 C2759 0.930 . S
C2754 H2740 0.930 . S
C2754 C2752 1.395 . S
C2754 C2757 1.403 . S
C2755 C2752 1.403 . S
C2755 C2756 1.524 . S
C2755 C2759 1.400 . S
C2756 H2741 0.960 . S
C2756 H2742 0.960 . S
C2756 H2743 0.960 . S
C2756 C2755 1.524 . S
C2757 C2754 1.403 . S
C2757 C2758 1.392 . S
C2757 C2761 1.495 1_554 S
C2758 C2757 1.392 . S
C2758 C2759 1.385 . S
C2758 C2760 1.478 . S
C2759 H2753 0.930 . S
C2759 C2755 1.400 . S
C2759 C2758 1.385 . S
C2760 C2758 1.478 . S
C2760 C2762 1.381 . S
C2760 C2766 1.383 . S
C2761 C2757 1.495 1_556 S
C2761 H2767 0.959 . S
C2761 H2768 0.961 . S
C2761 H2769 0.960 . S
C2762 C2760 1.381 . S
C2762 C2763 1.394 1_554 S
C2762 H2770 0.930 . S
C2763 C2762 1.394 1_556 S
C2763 C2764 1.383 . S
C2763 H2771 0.929 . S
C2764 C2763 1.383 . S
C2764 C2765 1.377 1_556 S
C2765 H2749 0.930 . S
C2765 C2764 1.377 1_554 S
C2765 C2766 1.379 . S
C2766 H2750 0.931 . S
C2766 C2760 1.383 . S
C2766 C2765 1.379 . S
H2767 C2761 0.959 . S
H2768 C2761 0.961 . S
H2769 C2761 0.960 . S
H2770 C2762 0.930 . S
H2771 C2763 0.929 . S
H2772 C2780 0.929 . S
H2773 C2782 0.930 . S
H2774 C2784 0.930 . S
H2775 C2787 0.929 . S
H2776 C2790 0.930 . S
H2777 C2792 0.960 . S
H2778 C2792 0.960 . S
H2779 C2792 0.960 . S
C2780 H2772 0.929 . S
C2780 C2781 1.377 . S
C2780 C2782 1.384 . S
C2781 C2780 1.377 . S
C2781 C2787 1.390 . S
C2782 H2773 0.930 . S
C2782 C2780 1.384 . S
C2782 C2783 1.372 . S
C2783 C2782 1.372 . S
C2783 C2784 1.400 . S
C2783 C2788 1.490 . S
C2784 H2774 0.930 . S
C2784 C2783 1.400 . S
C2784 C2787 1.386 . S
H2785 C2801 0.930 . S
H2786 C2802 0.931 . S
C2787 H2775 0.929 . S
C2787 C2781 1.390 . S
C2787 C2784 1.386 . S
C2788 C2783 1.490 . S
C2788 C2790 1.395 . S
C2788 C2791 1.403 . S
H2789 C2795 0.930 . S
C2790 H2776 0.930 . S
C2790 C2788 1.395 . S
C2790 C2793 1.403 . S
C2791 C2788 1.403 . S
C2791 C2792 1.524 . S
C2791 C2795 1.400 . S
C2792 H2777 0.960 . S
C2792 H2778 0.960 . S
C2792 H2779 0.960 . S
C2792 C2791 1.524 . S
C2793 C2790 1.403 . S
C2793 C2794 1.392 . S
C2793 C2797 1.495 . S
C2794 C2793 1.392 . S
C2794 C2795 1.385 . S
C2794 C2796 1.478 . S
C2795 H2789 0.930 . S
C2795 C2791 1.400 . S
C2795 C2794 1.385 . S
C2796 C2794 1.478 . S
C2796 C2798 1.381 . S
C2796 C2802 1.383 . S
C2797 C2793 1.495 . S
C2797 H2803 0.959 . S
C2797 H2804 0.961 . S
C2797 H2805 0.960 . S
C2798 C2796 1.381 . S
C2798 C2799 1.394 . S
C2798 H2806 0.930 . S
C2799 C2798 1.394 . S
C2799 C2800 1.383 . S
C2799 H2807 0.929 . S
C2800 C2799 1.383 . S
C2800 C2801 1.377 . S
C2801 H2785 0.930 . S
C2801 C2800 1.377 . S
C2801 C2802 1.379 . S
C2802 H2786 0.931 . S
C2802 C2796 1.383 . S
C2802 C2801 1.379 . S
H2803 C2797 0.959 . S
H2804 C2797 0.961 . S
H2805 C2797 0.960 . S
H2806 C2798 0.930 . S
H2807 C2799 0.929 . S
H2808 C2816 0.929 . S
H2809 C2818 0.930 . S
H2810 C2820 0.930 . S
H2811 C2823 0.929 . S
H2812 C2826 0.930 . S
H2813 C2828 0.960 . S
H2814 C2828 0.960 . S
H2815 C2828 0.960 . S
C2816 H2808 0.929 . S
C2816 C2817 1.377 . S
C2816 C2818 1.384 . S
C2817 C2816 1.377 . S
C2817 C2823 1.390 . S
C2818 H2809 0.930 . S
C2818 C2816 1.384 . S
C2818 C2819 1.372 . S
C2819 C2818 1.372 . S
C2819 C2820 1.400 . S
C2819 C2824 1.490 . S
C2820 H2810 0.930 . S
C2820 C2819 1.400 . S
C2820 C2823 1.386 . S
H2821 C2837 0.930 . S
H2822 C2838 0.931 . S
C2823 H2811 0.929 . S
C2823 C2817 1.390 . S
C2823 C2820 1.386 . S
C2824 C2819 1.490 . S
C2824 C2826 1.395 . S
C2824 C2827 1.403 . S
H2825 C2831 0.930 . S
C2826 H2812 0.930 . S
C2826 C2824 1.395 . S
C2826 C2829 1.403 . S
C2827 C2824 1.403 . S
C2827 C2828 1.524 . S
C2827 C2831 1.400 . S
C2828 H2813 0.960 . S
C2828 H2814 0.960 . S
C2828 H2815 0.960 . S
C2828 C2827 1.524 . S
C2829 C2826 1.403 . S
C2829 C2830 1.392 . S
C2829 C2833 1.495 . S
C2830 C2829 1.392 . S
C2830 C2831 1.385 . S
C2830 C2832 1.478 . S
C2831 H2825 0.930 . S
C2831 C2827 1.400 . S
C2831 C2830 1.385 . S
C2832 C2830 1.478 . S
C2832 C2834 1.381 . S
C2832 C2838 1.383 . S
C2833 C2829 1.495 . S
C2833 H2839 0.959 . S
C2833 H2840 0.961 . S
C2833 H2841 0.960 . S
C2834 C2832 1.381 . S
C2834 C2835 1.394 . S
C2834 H2842 0.930 . S
C2835 C2834 1.394 . S
C2835 C2836 1.383 . S
C2835 H2843 0.929 . S
C2836 C2835 1.383 . S
C2836 C2837 1.377 . S
C2837 H2821 0.930 . S
C2837 C2836 1.377 . S
C2837 C2838 1.379 . S
C2838 H2822 0.931 . S
C2838 C2832 1.383 . S
C2838 C2837 1.379 . S
H2839 C2833 0.959 . S
H2840 C2833 0.961 . S
H2841 C2833 0.960 . S
H2842 C2834 0.930 . S
H2843 C2835 0.929 . S
H2844 C2852 0.929 . S
H2845 C2854 0.930 . S
H2846 C2856 0.930 . S
H2847 C2859 0.929 . S
H2848 C2862 0.930 . S
H2849 C2864 0.960 . S
H2850 C2864 0.960 . S
H2851 C2864 0.960 . S
C2852 H2844 0.929 . S
C2852 C2853 1.377 . S
C2852 C2854 1.384 . S
C2853 C2852 1.377 . S
C2853 C2859 1.390 . S
C2854 H2845 0.930 . S
C2854 C2852 1.384 . S
C2854 C2855 1.372 . S
C2855 C2854 1.372 . S
C2855 C2856 1.400 . S
C2855 C2860 1.490 . S
C2856 H2846 0.930 . S
C2856 C2855 1.400 . S
C2856 C2859 1.386 . S
H2857 C2873 0.930 . S
H2858 C2874 0.931 . S
C2859 H2847 0.929 . S
C2859 C2853 1.390 . S
C2859 C2856 1.386 . S
C2860 C2855 1.490 . S
C2860 C2862 1.395 . S
C2860 C2863 1.403 . S
H2861 C2867 0.930 . S
C2862 H2848 0.930 . S
C2862 C2860 1.395 . S
C2862 C2865 1.403 . S
C2863 C2860 1.403 . S
C2863 C2864 1.524 . S
C2863 C2867 1.400 . S
C2864 H2849 0.960 . S
C2864 H2850 0.960 . S
C2864 H2851 0.960 . S
C2864 C2863 1.524 . S
C2865 C2862 1.403 . S
C2865 C2866 1.392 . S
C2865 C2869 1.495 . S
C2866 C2865 1.392 . S
C2866 C2867 1.385 . S
C2866 C2868 1.478 . S
C2867 H2861 0.930 . S
C2867 C2863 1.400 . S
C2867 C2866 1.385 . S
C2868 C2866 1.478 . S
C2868 C2870 1.381 . S
C2868 C2874 1.383 . S
C2869 C2865 1.495 . S
C2869 H2875 0.959 . S
C2869 H2876 0.961 . S
C2869 H2877 0.960 . S
C2870 C2868 1.381 . S
C2870 C2871 1.394 . S
C2870 H2878 0.930 . S
C2871 C2870 1.394 . S
C2871 C2872 1.383 . S
C2871 H2879 0.929 . S
C2872 C2871 1.383 . S
C2872 C2873 1.377 . S
C2873 H2857 0.930 . S
C2873 C2872 1.377 . S
C2873 C2874 1.379 . S
C2874 H2858 0.931 . S
C2874 C2868 1.383 . S
C2874 C2873 1.379 . S
H2875 C2869 0.959 . S
H2876 C2869 0.961 . S
H2877 C2869 0.960 . S
H2878 C2870 0.930 . S
H2879 C2871 0.929 . S
H2880 C2888 0.929 . S
H2881 C2890 0.930 . S
H2882 C2892 0.930 . S
H2883 C2895 0.929 . S
H2884 C2898 0.930 . S
H2885 C2900 0.960 1_455 S
H2886 C2900 0.960 . S
H2887 C2900 0.960 . S
C2888 H2880 0.929 . S
C2888 C2889 1.377 . S
C2888 C2890 1.384 . S
C2889 C2888 1.377 . S
C2889 C2895 1.390 . S
C2890 H2881 0.930 . S
C2890 C2888 1.384 . S
C2890 C2891 1.372 . S
C2891 C2890 1.372 . S
C2891 C2892 1.400 . S
C2891 C2896 1.490 . S
C2892 H2882 0.930 . S
C2892 C2891 1.400 . S
C2892 C2895 1.386 . S
H2893 C2909 0.930 . S
H2894 C2910 0.931 . S
C2895 H2883 0.929 . S
C2895 C2889 1.390 . S
C2895 C2892 1.386 . S
C2896 C2891 1.490 . S
C2896 C2898 1.395 . S
C2896 C2899 1.403 . S
H2897 C2903 0.930 . S
C2898 H2884 0.930 . S
C2898 C2896 1.395 . S
C2898 C2901 1.403 1_655 S
C2899 C2896 1.403 . S
C2899 C2900 1.524 . S
C2899 C2903 1.400 1_655 S
C2900 H2885 0.960 1_655 S
C2900 H2886 0.960 . S
C2900 H2887 0.960 . S
C2900 C2899 1.524 . S
C2901 C2898 1.403 1_455 S
C2901 C2902 1.392 . S
C2901 C2905 1.495 . S
C2902 C2901 1.392 . S
C2902 C2903 1.385 . S
C2902 C2904 1.478 . S
C2903 H2897 0.930 . S
C2903 C2899 1.400 1_455 S
C2903 C2902 1.385 . S
C2904 C2902 1.478 . S
C2904 C2906 1.381 . S
C2904 C2910 1.383 . S
C2905 C2901 1.495 . S
C2905 H2911 0.959 1_455 S
C2905 H2912 0.961 . S
C2905 H2913 0.960 . S
C2906 C2904 1.381 . S
C2906 C2907 1.394 . S
C2906 H2914 0.930 . S
C2907 C2906 1.394 . S
C2907 C2908 1.383 . S
C2907 H2915 0.929 . S
C2908 C2907 1.383 . S
C2908 C2909 1.377 . S
C2909 H2893 0.930 . S
C2909 C2908 1.377 . S
C2909 C2910 1.379 . S
C2910 H2894 0.931 . S
C2910 C2904 1.383 . S
C2910 C2909 1.379 . S
H2911 C2905 0.959 1_655 S
H2912 C2905 0.961 . S
H2913 C2905 0.960 . S
H2914 C2906 0.930 . S
H2915 C2907 0.929 . S
H2916 C2924 0.929 . S
H2917 C2926 0.930 . S
H2918 C2928 0.930 . S
H2919 C2931 0.929 . S
H2920 C2934 0.930 . S
H2921 C2936 0.960 . S
H2922 C2936 0.960 . S
H2923 C2936 0.960 . S
C2924 H2916 0.929 . S
C2924 C2925 1.377 . S
C2924 C2926 1.384 . S
C2925 C2924 1.377 . S
C2925 C2931 1.390 . S
C2926 H2917 0.930 . S
C2926 C2924 1.384 . S
C2926 C2927 1.372 . S
C2927 C2926 1.372 . S
C2927 C2928 1.400 . S
C2927 C2932 1.490 . S
C2928 H2918 0.930 . S
C2928 C2927 1.400 . S
C2928 C2931 1.386 . S
H2929 C2945 0.930 . S
H2930 C2946 0.931 . S
C2931 H2919 0.929 . S
C2931 C2925 1.390 . S
C2931 C2928 1.386 . S
C2932 C2927 1.490 . S
C2932 C2934 1.395 . S
C2932 C2935 1.403 . S
H2933 C2939 0.930 . S
C2934 H2920 0.930 . S
C2934 C2932 1.395 . S
C2934 C2937 1.403 . S
C2935 C2932 1.403 . S
C2935 C2936 1.524 . S
C2935 C2939 1.400 . S
C2936 H2921 0.960 . S
C2936 H2922 0.960 . S
C2936 H2923 0.960 . S
C2936 C2935 1.524 . S
C2937 C2934 1.403 . S
C2937 C2938 1.392 . S
C2937 C2941 1.495 . S
C2938 C2937 1.392 . S
C2938 C2939 1.385 . S
C2938 C2940 1.478 . S
C2939 H2933 0.930 . S
C2939 C2935 1.400 . S
C2939 C2938 1.385 . S
C2940 C2938 1.478 . S
C2940 C2942 1.381 . S
C2940 C2946 1.383 . S
C2941 C2937 1.495 . S
C2941 H2947 0.959 . S
C2941 H2948 0.961 . S
C2941 H2949 0.960 . S
C2942 C2940 1.381 . S
C2942 C2943 1.394 . S
C2942 H2950 0.930 . S
C2943 C2942 1.394 . S
C2943 C2944 1.383 . S
C2943 H2951 0.929 . S
C2944 C2943 1.383 . S
C2944 C2945 1.377 . S
C2945 H2929 0.930 . S
C2945 C2944 1.377 . S
C2945 C2946 1.379 . S
C2946 H2930 0.931 . S
C2946 C2940 1.383 . S
C2946 C2945 1.379 . S
H2947 C2941 0.959 . S
H2948 C2941 0.961 . S
H2949 C2941 0.960 . S
H2950 C2942 0.930 . S
H2951 C2943 0.929 . S
H2952 C2960 0.929 . S
H2953 C2962 0.930 . S
H2954 C2964 0.930 . S
H2955 C2967 0.929 . S
H2956 C2970 0.930 . S
H2957 C2972 0.960 . S
H2958 C2972 0.960 . S
H2959 C2972 0.960 . S
C2960 H2952 0.929 . S
C2960 C2961 1.377 . S
C2960 C2962 1.384 . S
C2961 C2960 1.377 . S
C2961 C2967 1.390 . S
C2962 H2953 0.930 . S
C2962 C2960 1.384 . S
C2962 C2963 1.372 . S
C2963 C2962 1.372 . S
C2963 C2964 1.400 . S
C2963 C2968 1.490 . S
C2964 H2954 0.930 . S
C2964 C2963 1.400 . S
C2964 C2967 1.386 . S
H2965 C2981 0.930 . S
H2966 C2982 0.931 . S
C2967 H2955 0.929 . S
C2967 C2961 1.390 . S
C2967 C2964 1.386 . S
C2968 C2963 1.490 . S
C2968 C2970 1.395 . S
C2968 C2971 1.403 . S
H2969 C2975 0.930 . S
C2970 H2956 0.930 . S
C2970 C2968 1.395 . S
C2970 C2973 1.403 1_565 S
C2971 C2968 1.403 . S
C2971 C2972 1.524 . S
C2971 C2975 1.400 1_565 S
C2972 H2957 0.960 . S
C2972 H2958 0.960 . S
C2972 H2959 0.960 . S
C2972 C2971 1.524 . S
C2973 C2970 1.403 1_545 S
C2973 C2974 1.392 . S
C2973 C2977 1.495 . S
C2974 C2973 1.392 . S
C2974 C2975 1.385 . S
C2974 C2976 1.478 . S
C2975 H2969 0.930 . S
C2975 C2971 1.400 1_545 S
C2975 C2974 1.385 . S
C2976 C2974 1.478 . S
C2976 C2978 1.381 . S
C2976 C2982 1.383 . S
C2977 C2973 1.495 . S
C2977 H2983 0.959 . S
C2977 H2984 0.961 . S
C2977 H2985 0.960 . S
C2978 C2976 1.381 . S
C2978 C2979 1.394 . S
C2978 H2986 0.930 . S
C2979 C2978 1.394 . S
C2979 C2980 1.383 . S
C2979 H2987 0.929 . S
C2980 C2979 1.383 . S
C2980 C2981 1.377 . S
C2981 H2965 0.930 . S
C2981 C2980 1.377 . S
C2981 C2982 1.379 . S
C2982 H2966 0.931 . S
C2982 C2976 1.383 . S
C2982 C2981 1.379 . S
H2983 C2977 0.959 . S
H2984 C2977 0.961 . S
H2985 C2977 0.960 . S
H2986 C2978 0.930 . S
H2987 C2979 0.929 . S
H2988 C2996 0.929 . S
H2989 C2998 0.930 . S
H2990 C3000 0.930 . S
H2991 C3003 0.929 . S
H2992 C3006 0.930 . S
H2993 C3008 0.960 1_565 S
H2994 C3008 0.960 . S
H2995 C3008 0.960 . S
C2996 H2988 0.929 . S
C2996 C2997 1.377 . S
C2996 C2998 1.384 . S
C2997 C2996 1.377 . S
C2997 C3003 1.390 . S
C2998 H2989 0.930 . S
C2998 C2996 1.384 . S
C2998 C2999 1.372 . S
C2999 C2998 1.372 . S
C2999 C3000 1.400 . S
C2999 C3004 1.490 . S
C3000 H2990 0.930 . S
C3000 C2999 1.400 . S
C3000 C3003 1.386 . S
H3001 C3017 0.930 . S
H3002 C3018 0.931 . S
C3003 H2991 0.929 . S
C3003 C2997 1.390 . S
C3003 C3000 1.386 . S
C3004 C2999 1.490 . S
C3004 C3006 1.395 . S
C3004 C3007 1.403 . S
H3005 C3011 0.930 . S
C3006 H2992 0.930 . S
C3006 C3004 1.395 . S
C3006 C3009 1.403 1_545 S
C3007 C3004 1.403 . S
C3007 C3008 1.524 . S
C3007 C3011 1.400 1_545 S
C3008 H2993 0.960 1_545 S
C3008 H2994 0.960 . S
C3008 H2995 0.960 . S
C3008 C3007 1.524 . S
C3009 C3006 1.403 1_565 S
C3009 C3010 1.392 . S
C3009 C3013 1.495 . S
C3010 C3009 1.392 . S
C3010 C3011 1.385 . S
C3010 C3012 1.478 . S
C3011 H3005 0.930 . S
C3011 C3007 1.400 1_565 S
C3011 C3010 1.385 . S
C3012 C3010 1.478 . S
C3012 C3014 1.381 . S
C3012 C3018 1.383 . S
C3013 C3009 1.495 . S
C3013 H3019 0.959 1_565 S
C3013 H3020 0.961 . S
C3013 H3021 0.960 . S
C3014 C3012 1.381 . S
C3014 C3015 1.394 . S
C3014 H3022 0.930 . S
C3015 C3014 1.394 . S
C3015 C3016 1.383 . S
C3015 H3023 0.929 . S
C3016 C3015 1.383 . S
C3016 C3017 1.377 . S
C3017 H3001 0.930 . S
C3017 C3016 1.377 . S
C3017 C3018 1.379 . S
C3018 H3002 0.931 . S
C3018 C3012 1.383 . S
C3018 C3017 1.379 . S
H3019 C3013 0.959 1_545 S
H3020 C3013 0.961 . S
H3021 C3013 0.960 . S
H3022 C3014 0.930 . S
H3023 C3015 0.929 . S
H3024 C3032 0.929 . S
H3025 C3034 0.930 . S
H3026 C3036 0.930 . S
H3027 C3039 0.929 . S
H3028 C3042 0.930 . S
H3029 C3044 0.960 1_655 S
H3030 C3044 0.960 . S
H3031 C3044 0.960 . S
C3032 H3024 0.929 . S
C3032 C3033 1.377 . S
C3032 C3034 1.384 . S
C3033 C3032 1.377 . S
C3033 C3039 1.390 . S
C3034 H3025 0.930 . S
C3034 C3032 1.384 . S
C3034 C3035 1.372 . S
C3035 C3034 1.372 . S
C3035 C3036 1.400 . S
C3035 C3040 1.490 . S
C3036 H3026 0.930 . S
C3036 C3035 1.400 . S
C3036 C3039 1.386 . S
H3037 C3053 0.930 . S
H3038 C3054 0.931 . S
C3039 H3027 0.929 . S
C3039 C3033 1.390 . S
C3039 C3036 1.386 . S
C3040 C3035 1.490 . S
C3040 C3042 1.395 . S
C3040 C3043 1.403 . S
H3041 C3047 0.930 . S
C3042 H3028 0.930 . S
C3042 C3040 1.395 . S
C3042 C3045 1.403 1_455 S
C3043 C3040 1.403 . S
C3043 C3044 1.524 . S
C3043 C3047 1.400 1_455 S
C3044 H3029 0.960 1_455 S
C3044 H3030 0.960 . S
C3044 H3031 0.960 . S
C3044 C3043 1.524 . S
C3045 C3042 1.403 1_655 S
C3045 C3046 1.392 . S
C3045 C3049 1.495 . S
C3046 C3045 1.392 . S
C3046 C3047 1.385 . S
C3046 C3048 1.478 . S
C3047 H3041 0.930 . S
C3047 C3043 1.400 1_655 S
C3047 C3046 1.385 . S
C3048 C3046 1.478 . S
C3048 C3050 1.381 . S
C3048 C3054 1.383 . S
C3049 C3045 1.495 . S
C3049 H3055 0.959 1_655 S
C3049 H3056 0.961 . S
C3049 H3057 0.960 . S
C3050 C3048 1.381 . S
C3050 C3051 1.394 . S
C3050 H3058 0.930 . S
C3051 C3050 1.394 . S
C3051 C3052 1.383 . S
C3051 H3059 0.929 . S
C3052 C3051 1.383 . S
C3052 C3053 1.377 . S
C3053 H3037 0.930 . S
C3053 C3052 1.377 . S
C3053 C3054 1.379 . S
C3054 H3038 0.931 . S
C3054 C3048 1.383 . S
C3054 C3053 1.379 . S
H3055 C3049 0.959 1_455 S
H3056 C3049 0.961 . S
H3057 C3049 0.960 . S
H3058 C3050 0.930 . S
H3059 C3051 0.929 . S
H3060 C3068 0.929 . S
H3061 C3070 0.930 . S
H3062 C3072 0.930 . S
H3063 C3075 0.929 . S
H3064 C3078 0.930 . S
H3065 C3080 0.960 . S
H3066 C3080 0.960 . S
H3067 C3080 0.960 . S
C3068 H3060 0.929 . S
C3068 C3069 1.377 . S
C3068 C3070 1.384 . S
C3069 C3068 1.377 . S
C3069 C3075 1.390 . S
C3070 H3061 0.930 . S
C3070 C3068 1.384 . S
C3070 C3071 1.372 . S
C3071 C3070 1.372 . S
C3071 C3072 1.400 . S
C3071 C3076 1.490 . S
C3072 H3062 0.930 . S
C3072 C3071 1.400 . S
C3072 C3075 1.386 . S
H3073 C3089 0.930 . S
H3074 C3090 0.931 . S
C3075 H3063 0.929 . S
C3075 C3069 1.390 . S
C3075 C3072 1.386 . S
C3076 C3071 1.490 . S
C3076 C3078 1.395 . S
C3076 C3079 1.403 . S
H3077 C3083 0.930 . S
C3078 H3064 0.930 . S
C3078 C3076 1.395 . S
C3078 C3081 1.403 . S
C3079 C3076 1.403 . S
C3079 C3080 1.524 . S
C3079 C3083 1.400 . S
C3080 H3065 0.960 . S
C3080 H3066 0.960 . S
C3080 H3067 0.960 . S
C3080 C3079 1.524 . S
C3081 C3078 1.403 . S
C3081 C3082 1.392 . S
C3081 C3085 1.495 . S
C3082 C3081 1.392 . S
C3082 C3083 1.385 . S
C3082 C3084 1.478 . S
C3083 H3077 0.930 . S
C3083 C3079 1.400 . S
C3083 C3082 1.385 . S
C3084 C3082 1.478 . S
C3084 C3086 1.381 . S
C3084 C3090 1.383 . S
C3085 C3081 1.495 . S
C3085 H3091 0.959 . S
C3085 H3092 0.961 . S
C3085 H3093 0.960 . S
C3086 C3084 1.381 . S
C3086 C3087 1.394 . S
C3086 H3094 0.930 . S
C3087 C3086 1.394 . S
C3087 C3088 1.383 . S
C3087 H3095 0.929 . S
C3088 C3087 1.383 . S
C3088 C3089 1.377 . S
C3089 H3073 0.930 . S
C3089 C3088 1.377 . S
C3089 C3090 1.379 . S
C3090 H3074 0.931 . S
C3090 C3084 1.383 . S
C3090 C3089 1.379 . S
H3091 C3085 0.959 . S
H3092 C3085 0.961 . S
H3093 C3085 0.960 . S
H3094 C3086 0.930 . S
H3095 C3087 0.929 . S
C513 C78 1.059 . S
C532 C8 1.064 . S
C549 C22 1.058 . S
C568 C50 1.043 . S
C585 C64 1.060 . S
C604 C36 1.051 . S
C621 C92 1.063 . S
C640 C162 1.066 . S
C657 C106 1.063 . S
C676 C134 1.056 . S
C693 C148 1.061 . S
C712 C120 1.043 . S
C729 C246 1.060 . S
C748 C176 1.068 . S
C765 C190 1.056 . S
C784 C218 1.043 . S
C801 C232 1.057 . S
C820 C204 1.043 . S
C837 C260 1.062 . S
C856 C330 1.045 . S
C873 C274 1.058 . S
C892 C302 1.072 . S
C909 C288 1.057 . S
C928 C316 1.066 . S
C945 C344 1.059 . S
C964 C414 1.045 . S
C981 C386 1.057 . S
C1000 C358 1.041 . S
C1017 C372 1.063 . S
C1036 C400 1.074 . S
C1053 C428 1.056 . S
C1072 C498 1.061 . S
C1089 C442 1.062 . S
C1108 C470 1.046 . S
C1125 C456 1.058 . S
C1144 C484 1.048 . S
C1161 C147 1.180 . S
C1180 C9 1.152 . S
C1197 C161 1.184 . S
C1216 C23 1.186 . S
C1233 C133 1.193 . S
C1252 C37 1.191 . S
C1269 C119 1.182 . S
C1288 C51 1.171 . S
C1305 C65 1.168 . S
C1324 C91 1.172 . S
C1341 C79 1.182 . S
C1360 C105 1.216 . S
C1377 C93 1.172 . S
C1396 C63 1.194 . S
C1413 C107 1.176 . S
C1432 C77 1.175 . S
C1449 C121 1.173 . S
C1468 C49 1.199 . S
C1485 C35 1.190 . S
C1504 C135 1.155 . S
C1521 C7 1.189 . S
C1540 C149 1.148 . S
C1557 C163 1.170 . S
C1576 C21 1.204 . S
C1593 C177 1.174 . S
C1612 C315 1.159 . S
C1629 C191 1.182 . S
C1648 C329 1.194 . S
C1665 C301 1.180 . S
C1684 C205 1.156 . S
C1701 C219 1.184 . S
C1720 C287 1.201 . S
C1737 C233 1.173 . S
C1756 C259 1.154 . S
C1773 C247 1.170 . S
C1792 C273 1.151 . S
C1809 C261 1.170 . S
C1828 C231 1.207 . S
C1845 C245 1.180 . S
C1864 C275 1.208 . S
C1881 C217 1.181 . S
C1900 C289 1.208 . S
C1917 C303 1.173 . S
C1936 C203 1.194 . S
C1953 C175 1.193 . S
C1972 C317 1.136 . S
C1989 C189 1.190 . S
C2008 C331 1.163 . S
C2025 C483 1.184 . S
C2044 C345 1.138 . S
C2061 C359 1.174 . S
C2080 C497 1.205 . S
C2097 C373 1.182 . S
C2116 C469 1.198 . S
C2133 C455 1.188 . S
C2152 C387 1.206 . S
C2169 C427 1.180 . S
C2188 C401 1.158 . S
C2205 C441 1.186 . S
C2224 C415 1.199 . S
C2241 C429 1.168 . S
C2260 C399 1.216 . S
C2277 C413 1.191 . S
C2296 C443 1.155 . S
C2313 C457 1.172 . S
C2332 C385 1.203 . S
C2349 C371 1.184 . S
C2368 C471 1.194 . S
C2385 C343 1.185 . S
C2404 C485 1.185 . S
C2421 C357 1.188 . S
C2440 C499 1.171 . S
C2457 C227 1.281 . S
C2476 C3 1.262 . S
C2493 C17 1.277 . S
C2512 C241 1.273 . S
C2529 C213 1.277 . S
C2548 C31 1.284 . S
C2565 C367 1.277 . S
C2584 C45 1.267 . S
C2601 C59 1.279 . S
C2620 C339 1.290 . S
C2637 C73 1.282 . S
C2656 C353 1.271 . S
C2673 C87 1.281 . S
C2692 C479 1.270 . S
C2709 C493 1.278 . S
C2728 C101 1.287 . S
C2745 C465 1.279 . S
C2764 C115 1.281 . S
C2781 C283 1.279 . S
C2800 C129 1.281 . S
C2817 C143 1.283 . S
C2836 C255 1.262 . S
C2853 C157 1.280 . S
C2872 C269 1.280 . S
C2889 C171 1.281 . S
C2908 C395 1.292 . S
C2925 C409 1.277 . S
C2944 C185 1.286 . S
C2961 C381 1.276 . S
C2980 C199 1.267 . S
C2997 C297 1.276 . S
C3016 C451 1.293 . S
C3033 C423 1.280 . S
C3052 C311 1.268 . S
C3069 C437 1.277 . S
C3088 C325 1.293 . S
