# Generated by pormake.
# Topology why, (6)-cn, num edge types: 1
# Building blocks:
#     Node 0, Type 0, BuildingBlock: PAMTOO_clean_sbu_0, # of connection points: 6
#     Node 1, Type 0, BuildingBlock: PAMTOO_clean_sbu_0, # of connection points: 6
#     Node 2, Type 0, BuildingBlock: PAMTOO_clean_sbu_0, # of connection points: 6
#     Node 3, Type 0, BuildingBlock: PAMTOO_clean_sbu_0, # of connection points: 6
#     Node 4, Type 0, BuildingBlock: PAMTOO_clean_sbu_0, # of connection points: 6
#     Node 5, Type 0, BuildingBlock: PAMTOO_clean_sbu_0, # of connection points: 6
#     Node 6, Type 0, BuildingBlock: PAMTOO_clean_sbu_0, # of connection points: 6
#     Node 7, Type 0, BuildingBlock: PAMTOO_clean_sbu_0, # of connection points: 6
#     Node 8, Type 0, BuildingBlock: PAMTOO_clean_sbu_0, # of connection points: 6
#     Node 9, Type 0, BuildingBlock: PAMTOO_clean_sbu_0, # of connection points: 6
#     Node 10, Type 0, BuildingBlock: PAMTOO_clean_sbu_0, # of connection points: 6
#     Node 11, Type 0, BuildingBlock: PAMTOO_clean_sbu_0, # of connection points: 6
#     Node 12, Type 0, BuildingBlock: PAMTOO_clean_sbu_0, # of connection points: 6
#     Node 13, Type 0, BuildingBlock: PAMTOO_clean_sbu_0, # of connection points: 6
#     Node 14, Type 0, BuildingBlock: PAMTOO_clean_sbu_0, # of connection points: 6
#     Node 15, Type 0, BuildingBlock: PAMTOO_clean_sbu_0, # of connection points: 6
#     Edge 16, Type (0, 0), BuildingBlock: XIVTED_clean_linker_0, # of connection points: 2
#     Edge 17, Type (0, 0), BuildingBlock: XIVTED_clean_linker_0, # of connection points: 2
#     Edge 18, Type (0, 0), BuildingBlock: XIVTED_clean_linker_0, # of connection points: 2
#     Edge 19, Type (0, 0), BuildingBlock: XIVTED_clean_linker_0, # of connection points: 2
#     Edge 20, Type (0, 0), BuildingBlock: XIVTED_clean_linker_0, # of connection points: 2
#     Edge 21, Type (0, 0), BuildingBlock: XIVTED_clean_linker_0, # of connection points: 2
#     Edge 22, Type (0, 0), BuildingBlock: XIVTED_clean_linker_0, # of connection points: 2
#     Edge 23, Type (0, 0), BuildingBlock: XIVTED_clean_linker_0, # of connection points: 2
#     Edge 24, Type (0, 0), BuildingBlock: XIVTED_clean_linker_0, # of connection points: 2
#     Edge 25, Type (0, 0), BuildingBlock: XIVTED_clean_linker_0, # of connection points: 2
#     Edge 26, Type (0, 0), BuildingBlock: XIVTED_clean_linker_0, # of connection points: 2
#     Edge 27, Type (0, 0), BuildingBlock: XIVTED_clean_linker_0, # of connection points: 2
#     Edge 28, Type (0, 0), BuildingBlock: XIVTED_clean_linker_0, # of connection points: 2
#     Edge 29, Type (0, 0), BuildingBlock: XIVTED_clean_linker_0, # of connection points: 2
#     Edge 30, Type (0, 0), BuildingBlock: XIVTED_clean_linker_0, # of connection points: 2
#     Edge 31, Type (0, 0), BuildingBlock: XIVTED_clean_linker_0, # of connection points: 2
#     Edge 32, Type (0, 0), BuildingBlock: XIVTED_clean_linker_0, # of connection points: 2
#     Edge 33, Type (0, 0), BuildingBlock: XIVTED_clean_linker_0, # of connection points: 2
#     Edge 34, Type (0, 0), BuildingBlock: XIVTED_clean_linker_0, # of connection points: 2
#     Edge 35, Type (0, 0), BuildingBlock: XIVTED_clean_linker_0, # of connection points: 2
#     Edge 36, Type (0, 0), BuildingBlock: XIVTED_clean_linker_0, # of connection points: 2
#     Edge 37, Type (0, 0), BuildingBlock: XIVTED_clean_linker_0, # of connection points: 2
#     Edge 38, Type (0, 0), BuildingBlock: XIVTED_clean_linker_0, # of connection points: 2
#     Edge 39, Type (0, 0), BuildingBlock: XIVTED_clean_linker_0, # of connection points: 2
#     Edge 40, Type (0, 0), BuildingBlock: XIVTED_clean_linker_0, # of connection points: 2
#     Edge 41, Type (0, 0), BuildingBlock: XIVTED_clean_linker_0, # of connection points: 2
#     Edge 42, Type (0, 0), BuildingBlock: XIVTED_clean_linker_0, # of connection points: 2
#     Edge 43, Type (0, 0), BuildingBlock: XIVTED_clean_linker_0, # of connection points: 2
#     Edge 44, Type (0, 0), BuildingBlock: XIVTED_clean_linker_0, # of connection points: 2
#     Edge 45, Type (0, 0), BuildingBlock: XIVTED_clean_linker_0, # of connection points: 2
#     Edge 46, Type (0, 0), BuildingBlock: XIVTED_clean_linker_0, # of connection points: 2
#     Edge 47, Type (0, 0), BuildingBlock: XIVTED_clean_linker_0, # of connection points: 2
#     Edge 48, Type (0, 0), BuildingBlock: XIVTED_clean_linker_0, # of connection points: 2
#     Edge 49, Type (0, 0), BuildingBlock: XIVTED_clean_linker_0, # of connection points: 2
#     Edge 50, Type (0, 0), BuildingBlock: XIVTED_clean_linker_0, # of connection points: 2
#     Edge 51, Type (0, 0), BuildingBlock: XIVTED_clean_linker_0, # of connection points: 2
#     Edge 52, Type (0, 0), BuildingBlock: XIVTED_clean_linker_0, # of connection points: 2
#     Edge 53, Type (0, 0), BuildingBlock: XIVTED_clean_linker_0, # of connection points: 2
#     Edge 54, Type (0, 0), BuildingBlock: XIVTED_clean_linker_0, # of connection points: 2
#     Edge 55, Type (0, 0), BuildingBlock: XIVTED_clean_linker_0, # of connection points: 2
#     Edge 56, Type (0, 0), BuildingBlock: XIVTED_clean_linker_0, # of connection points: 2
#     Edge 57, Type (0, 0), BuildingBlock: XIVTED_clean_linker_0, # of connection points: 2
#     Edge 58, Type (0, 0), BuildingBlock: XIVTED_clean_linker_0, # of connection points: 2
#     Edge 59, Type (0, 0), BuildingBlock: XIVTED_clean_linker_0, # of connection points: 2
#     Edge 60, Type (0, 0), BuildingBlock: XIVTED_clean_linker_0, # of connection points: 2
#     Edge 61, Type (0, 0), BuildingBlock: XIVTED_clean_linker_0, # of connection points: 2
#     Edge 62, Type (0, 0), BuildingBlock: XIVTED_clean_linker_0, # of connection points: 2
#     Edge 63, Type (0, 0), BuildingBlock: XIVTED_clean_linker_0, # of connection points: 2
# Relax obj value: 0.362
# Max RMSD: 0.212
# Mean RMSD: 0.212
data_MOF--net-why--node1-PAMTOO_clean_sbu_0--edge1-XIVTED_clean_linker_0
_symmetry_space_group_name_H-M    P1
_symmetry_Int_Tables_number       1
_symmetry_cell_setting            triclinic
loop_
_symmetry_equiv_pos_as_xyz
'x, y, z'
_cell_length_a     46.991472
_cell_length_b     47.4332
_cell_length_c     40.975898
_cell_angle_alpha  90.114
_cell_angle_beta   90.123185
_cell_angle_gamma 89.989987
loop_
_atom_site_label
_atom_site_type_symbol
_atom_site_fract_x
_atom_site_fract_y
_atom_site_fract_z
_atom_type_partial_charge
Dy0 Dy 0.47402 0.25847 0.10228 0.0
Dy1 Dy 0.51171 0.22068 0.05425 0.0
C2 C 0.49391 0.19645 0.12651 0.0
O3 O 0.51695 0.2804 0.1074 0.0
O4 O 0.54245 0.25627 0.06857 0.0
O5 O 0.43934 0.25979 0.13656 0.0
O6 O 0.46225 0.2981 0.12461 0.0
O7 O 0.50704 0.25986 0.02513 0.0
O8 O 0.47195 0.2819 0.05482 0.0
O9 O 0.46935 0.22096 0.02748 0.0
O10 O 0.44103 0.23883 0.06799 0.0
O11 O 0.51552 0.18995 0.0158 0.0
O12 O 0.5528 0.20241 0.04342 0.0
C13 C 0.5401 0.27758 0.0894 0.0
O14 O 0.48823 0.22255 0.13534 0.0
O15 O 0.49979 0.19108 0.09574 0.0
C16 C 0.41259 0.30132 0.12903 0.0
C17 C 0.3614 0.32878 0.11275 0.0
C18 C 0.36735 0.30194 0.10001 0.0
C19 C 0.39285 0.2884 0.1079 0.0
C20 C 0.40706 0.32839 0.14099 0.0
C21 C 0.38173 0.34203 0.13291 0.0
C22 C 0.43945 0.28729 0.13763 0.0
C23 C 0.48841 0.28019 0.02897 0.0
C24 C 0.44396 0.22827 0.03827 0.0
C25 C 0.55815 0.19331 0.98734 0.0
C26 C 0.58314 0.20144 0.92582 0.0
C27 C 0.57015 0.22406 0.94228 0.0
C28 C 0.55779 0.22002 0.9728 0.0
C29 C 0.5712 0.1707 0.97127 0.0
C30 C 0.58368 0.17473 0.9407 0.0
C31 C 0.54313 0.1887 0.01807 0.0
H32 H 0.35207 0.29123 0.08451 0.0
H33 H 0.39689 0.26766 0.09787 0.0
H34 H 0.42216 0.33882 0.15698 0.0
H35 H 0.37752 0.36246 0.14372 0.0
H36 H 0.56901 0.24479 0.93131 0.0
H37 H 0.54751 0.23764 0.98482 0.0
H38 H 0.57146 0.14991 0.98218 0.0
H39 H 0.59386 0.15699 0.92882 0.0
Dy40 Dy 0.71468 0.71377 0.34714 0.0
Dy41 Dy 0.75276 0.75357 0.30205 0.0
C42 C 0.77799 0.73265 0.3721 0.0
O43 O 0.68786 0.75367 0.34614 0.0
O44 O 0.72054 0.78447 0.3248 0.0
O45 O 0.69691 0.70432 0.39456 0.0
O46 O 0.69127 0.67526 0.35415 0.0
O47 O 0.71422 0.74923 0.27146 0.0
O48 O 0.68735 0.71868 0.30256 0.0
O49 O 0.74917 0.71247 0.27324 0.0
O50 O 0.73984 0.68308 0.31578 0.0
O51 O 0.78761 0.75766 0.26827 0.0
O52 O 0.76703 0.79501 0.28736 0.0
C53 C 0.69483 0.77946 0.337 0.0
O54 O 0.75186 0.72569 0.3803 0.0
O55 O 0.7833 0.74048 0.34203 0.0
C56 C 0.70147 0.65586 0.40578 0.0
C57 C 0.72392 0.61258 0.4451 0.0
C58 C 0.73093 0.61395 0.41189 0.0
C59 C 0.72 0.63555 0.39242 0.0
C60 C 0.69486 0.65475 0.43902 0.0
C61 C 0.70603 0.63337 0.45854 0.0
C62 C 0.68986 0.67883 0.38564 0.0
C63 C 0.69133 0.73396 0.27615 0.0
C64 C 0.74588 0.68664 0.28462 0.0
C65 C 0.78373 0.79681 0.23336 0.0
C66 C 0.7791 0.8216 0.1713 0.0
C67 C 0.76616 0.79548 0.17757 0.0
C68 C 0.76828 0.78325 0.20849 0.0
C69 C 0.79726 0.82249 0.2269 0.0
C70 C 0.79489 0.83485 0.19613 0.0
C71 C 0.7852 0.78496 0.26636 0.0
H72 H 0.74459 0.59817 0.40094 0.0
H73 H 0.72588 0.63617 0.36689 0.0
H74 H 0.68083 0.67029 0.44984 0.0
H75 H 0.69974 0.63251 0.48394 0.0
H76 H 0.75356 0.78505 0.15896 0.0
H77 H 0.75749 0.76348 0.21313 0.0
H78 H 0.80925 0.83321 0.24582 0.0
H79 H 0.80515 0.85495 0.19182 0.0
Dy80 Dy 0.25479 0.95382 0.60023 0.0
Dy81 Dy 0.22019 0.99443 0.55166 0.0
C82 C 0.23792 1.01788 0.62488 0.0
O83 O 0.20873 0.94063 0.60756 0.0
O84 O 0.19063 0.95649 0.55948 0.0
O85 O 0.25832 0.91323 0.62358 0.0
O86 O 0.28862 0.94631 0.63484 0.0
O87 O 0.23077 0.95938 0.51827 0.0
O88 O 0.25473 0.9293 0.55302 0.0
O89 O 0.26514 0.99739 0.5311 0.0
O90 O 0.28986 0.96752 0.5652 0.0
O91 O 0.21806 1.02838 0.51693 0.0
O92 O 0.1792 1.01053 0.53643 0.0
C93 C 0.18911 0.93912 0.58461 0.0
O94 O 0.25059 0.99369 0.63101 0.0
O95 O 0.22467 1.02171 0.59694 0.0
C96 C 0.27186 0.91831 0.67811 0.0
C97 C 0.25872 0.91082 0.74447 0.0
C98 C 0.26912 0.88821 0.72561 0.0
C99 C 0.27565 0.89196 0.69271 0.0
C100 C 0.26051 0.94069 0.69649 0.0
C101 C 0.25419 0.93703 0.72949 0.0
C102 C 0.27822 0.9219 0.64335 0.0
C103 C 0.24443 0.93578 0.52402 0.0
C104 C 0.28891 0.9841 0.53923 0.0
C105 C 0.17837 1.02571 0.48182 0.0
C106 C 0.15317 1.02005 0.41993 0.0
C107 C 0.18086 1.00998 0.42544 0.0
C108 C 0.19331 1.01259 0.45628 0.0
C109 C 0.15108 1.03648 0.47606 0.0
C110 C 0.1385 1.03357 0.44538 0.0
C111 C 0.19041 1.02736 0.51484 0.0
H112 H 0.27339 0.86789 0.73662 0.0
H113 H 0.28398 0.87437 0.67875 0.0
H114 H 0.25683 0.96107 0.68544 0.0
H115 H 0.24625 0.95478 0.74343 0.0
H116 H 0.1924 0.99917 0.40629 0.0
H117 H 0.21435 1.00389 0.46029 0.0
H118 H 0.13928 1.04664 0.4955 0.0
H119 H 0.11716 1.04158 0.44161 0.0
Dy120 Dy 1.01612 0.49879 0.84956 0.0
Dy121 Dy 0.97811 0.46188 0.80155 0.0
C122 C 0.95386 0.47931 0.87253 0.0
O123 O 1.03993 0.45714 0.85369 0.0
O124 O 1.01293 0.43081 0.81792 0.0
O125 O 1.0157 0.52386 0.89335 0.0
O126 O 1.05429 0.52092 0.86488 0.0
O127 O 1.01851 0.46368 0.77421 0.0
O128 O 1.04054 0.49952 0.80247 0.0
O129 O 0.98057 0.50354 0.7745 0.0
O130 O 0.99363 0.53138 0.81753 0.0
O131 O 0.94926 0.45768 0.761 0.0
O132 O 0.95697 0.42205 0.79284 0.0
C133 C 1.03559 0.43352 0.83717 0.0
O134 O 0.98065 0.48124 0.88153 0.0
O135 O 0.94821 0.47699 0.8413 0.0
C136 C 1.04204 0.56545 0.8864 0.0
C137 C 1.04362 0.62471 0.88826 0.0
C138 C 1.01859 0.61074 0.87897 0.0
C139 C 1.01786 0.58133 0.87775 0.0
C140 C 1.06738 0.57937 0.89428 0.0
C141 C 1.06821 0.60878 0.89509 0.0
C142 C 1.04075 0.53449 0.88772 0.0
C143 C 1.03915 0.48201 0.77756 0.0
C144 C 0.98582 0.5288 0.78662 0.0
C145 C 0.95036 0.41326 0.73678 0.0
C146 C 0.95909 0.38392 0.67794 0.0
C147 C 0.98213 0.39641 0.6945 0.0
C148 C 0.97779 0.41093 0.7237 0.0
C149 C 0.92737 0.40053 0.72076 0.0
C150 C 0.93168 0.3859 0.69155 0.0
C151 C 0.94547 0.43078 0.76564 0.0
H152 H 0.99939 0.62253 0.87362 0.0
H153 H 0.99813 0.57104 0.87098 0.0
H154 H 1.08627 0.5675 0.90072 0.0
H155 H 1.0877 0.61901 0.90285 0.0
H156 H 1.00343 0.39564 0.68449 0.0
H157 H 0.99574 0.42089 0.73569 0.0
H158 H 0.90604 0.4023 0.73056 0.0
H159 H 0.91358 0.37617 0.67963 0.0
Dy160 Dy 0.71895 0.99256 0.94347 0.0
Dy161 Dy 0.7545 0.95362 0.89495 0.0
C162 C 0.74113 0.93207 0.96836 0.0
O163 O 0.76192 0.99222 0.9689 0.0
O164 O 0.78884 0.96952 0.93016 0.0
O165 O 0.71563 1.02237 0.98293 0.0
O166 O 0.6785 1.0124 0.95371 0.0
O167 O 0.73989 0.99035 0.86319 0.0
O168 O 0.73218 1.02235 0.90309 0.0
O169 O 0.71175 0.93145 0.89256 0.0
O170 O 0.68699 0.95752 0.93022 0.0
O171 O 0.79119 0.95115 0.86357 0.0
O172 O 0.76159 0.91614 0.86605 0.0
C173 C 0.78666 0.98223 0.95889 0.0
O174 O 0.72454 0.95397 0.97292 0.0
O175 O 0.75585 0.92834 0.94132 0.0
C176 C 0.67231 1.01987 0.00997 0.0
C177 C 0.64662 1.01064 0.07085 0.0
C178 C 0.65785 0.98793 0.0529 0.0
C179 C 0.67054 0.99252 0.02267 0.0
C180 C 0.66091 1.04256 0.02746 0.0
C181 C 0.64806 1.03799 0.0577 0.0
C182 C 0.68817 1.02488 0.97991 0.0
C183 C 0.73643 1.01674 0.87216 0.0
C184 C 0.68878 0.93538 0.91044 0.0
C185 C 0.77877 0.92836 0.81425 0.0
C186 C 0.76985 0.92854 0.74626 0.0
C187 C 0.77193 0.95407 0.76347 0.0
C188 C 0.77617 0.95399 0.79723 0.0
C189 C 0.77623 0.90291 0.79717 0.0
C190 C 0.77176 0.90297 0.76352 0.0
C191 C 0.78233 0.92785 0.84993 0.0
H192 H 0.65744 0.96669 0.06251 0.0
H193 H 0.67952 0.97482 0.00951 0.0
H194 H 0.66233 1.06382 0.01796 0.0
H195 H 0.63925 1.05583 0.07075 0.0
H196 H 0.77064 0.97404 0.75077 0.0
H197 H 0.77757 0.974 0.80991 0.0
H198 H 0.77788 0.88294 0.80986 0.0
H199 H 0.77091 0.88293 0.75083 0.0
Dy200 Dy 0.47792 0.45728 0.69394 0.0
Dy201 Dy 0.51683 0.49699 0.64914 0.0
C202 C 0.5385 0.47846 0.72112 0.0
O203 O 0.47696 0.50094 0.71897 0.0
O204 O 0.499 0.53038 0.68236 0.0
O205 O 0.44262 0.45553 0.72768 0.0
O206 O 0.46205 0.41704 0.71041 0.0
O207 O 0.47301 0.49922 0.62542 0.0
O208 O 0.45425 0.45876 0.64556 0.0
O209 O 0.53995 0.45462 0.64761 0.0
O210 O 0.51276 0.426 0.68005 0.0
O211 O 0.54438 0.53192 0.63733 0.0
O212 O 0.53255 0.50139 0.60008 0.0
C213 C 0.486 0.52645 0.71045 0.0
O214 O 0.51657 0.46164 0.72443 0.0
O215 O 0.54227 0.4944 0.69526 0.0
C216 C 0.4473 0.41806 0.76488 0.0
C217 C 0.45561 0.39463 0.82732 0.0
C218 C 0.47478 0.4147 0.81497 0.0
C219 C 0.47063 0.42634 0.78405 0.0
C220 C 0.4277 0.39864 0.77735 0.0
C221 C 0.43175 0.38707 0.80841 0.0
C222 C 0.44449 0.4283 0.73124 0.0
C223 C 0.45321 0.47964 0.62456 0.0
C224 C 0.5358 0.43014 0.66222 0.0
C225 C 0.58005 0.51788 0.6006 0.0
C226 C 0.63812 0.51136 0.58561 0.0
C227 C 0.62711 0.53792 0.59433 0.0
C228 C 0.59834 0.54113 0.60164 0.0
C229 C 0.59117 0.49106 0.59315 0.0
C230 C 0.61996 0.48788 0.58546 0.0
C231 C 0.54975 0.52185 0.60835 0.0
H232 H 0.49316 0.42121 0.8291 0.0
H233 H 0.48592 0.4414 0.77485 0.0
H234 H 0.40966 0.39194 0.76277 0.0
H235 H 0.41677 0.37147 0.81712 0.0
H236 H 0.64043 0.55655 0.59395 0.0
H237 H 0.59026 0.56191 0.60761 0.0
H238 H 0.5776 0.47261 0.59275 0.0
H239 H 0.62789 0.46724 0.5787 0.0
Dy240 Dy 1.01067 0.21926 0.44259 0.0
Dy241 Dy 0.97223 0.25721 0.39613 0.0
C242 C 0.98743 0.27848 0.46875 0.0
O243 O 0.9682 0.21991 0.46933 0.0
O244 O 0.93884 0.23764 0.4295 0.0
O245 O 1.0144 0.18979 0.48225 0.0
O246 O 1.05132 0.1998 0.45304 0.0
O247 O 0.98904 0.22193 0.36322 0.0
O248 O 0.99663 0.18945 0.40247 0.0
O249 O 1.0133 0.28215 0.3963 0.0
O250 O 1.04286 0.2524 0.42448 0.0
O251 O 0.96028 0.29717 0.37528 0.0
O252 O 0.9395 0.25884 0.35902 0.0
C253 C 0.94245 0.22691 0.45905 0.0
O254 O 1.00744 0.25926 0.47046 0.0
O255 O 0.96913 0.27938 0.4444 0.0
C256 C 1.05776 0.19282 0.50939 0.0
C257 C 1.0835 0.20278 0.5703 0.0
C258 C 1.07249 0.22529 0.5519 0.0
C259 C 1.05976 0.22034 0.52168 0.0
C260 C 1.06891 0.17031 0.52735 0.0
C261 C 1.08177 0.17524 0.55762 0.0
C262 C 1.04187 0.18747 0.4793 0.0
C263 C 0.99255 0.19536 0.37158 0.0
C264 C 1.03841 0.27668 0.40921 0.0
C265 C 0.95186 0.29296 0.31949 0.0
C266 C 0.97069 0.30976 0.25736 0.0
C267 C 0.95618 0.32879 0.27781 0.0
C268 C 0.94684 0.32043 0.30857 0.0
C269 C 0.96668 0.27394 0.29935 0.0
C270 C 0.97581 0.28222 0.26838 0.0
C271 C 0.94431 0.28546 0.35311 0.0
H272 H 1.07312 0.24669 0.56116 0.0
H273 H 1.05093 0.23791 0.5082 0.0
H274 H 1.06729 0.14891 0.51822 0.0
H275 H 1.09039 0.15752 0.57103 0.0
H276 H 0.95131 0.34997 0.26968 0.0
H277 H 0.93584 0.3355 0.32396 0.0
H278 H 0.97135 0.25276 0.30758 0.0
H279 H 0.9868 0.26713 0.25305 0.0
Dy280 Dy 0.2522 0.75196 0.19432 0.0
Dy281 Dy 0.21398 0.71492 0.14775 0.0
C282 C 0.19094 0.73142 0.21952 0.0
O283 O 0.25363 0.70734 0.21698 0.0
O284 O 0.22703 0.68008 0.18179 0.0
O285 O 0.28733 0.75212 0.22845 0.0
O286 O 0.26997 0.79148 0.21081 0.0
O287 O 0.25984 0.70946 0.13074 0.0
O288 O 0.27394 0.75288 0.1449 0.0
O289 O 0.19397 0.75881 0.14338 0.0
O290 O 0.21658 0.78333 0.18404 0.0
O291 O 0.17958 0.68849 0.13031 0.0
O292 O 0.2109 0.70519 0.09664 0.0
C293 C 0.24196 0.68269 0.20893 0.0
O294 O 0.21333 0.74748 0.22418 0.0
O295 O 0.18717 0.71625 0.1929 0.0
C296 C 0.2867 0.79083 0.26468 0.0
C297 C 0.2827 0.81703 0.3262 0.0
C298 C 0.26407 0.79498 0.31773 0.0
C299 C 0.26596 0.78206 0.28708 0.0
C300 C 0.30594 0.81205 0.27349 0.0
C301 C 0.30396 0.82507 0.30398 0.0
C302 C 0.2873 0.77948 0.23136 0.0
C303 C 0.27767 0.73044 0.12676 0.0
C304 C 0.19588 0.78143 0.16225 0.0
C305 C 0.16439 0.70243 0.07736 0.0
C306 C 0.12534 0.72433 0.03188 0.0
C307 C 0.14861 0.70798 0.02152 0.0
C308 C 0.16785 0.6971 0.04403 0.0
C309 C 0.14146 0.71912 0.08799 0.0
C310 C 0.12183 0.72975 0.06536 0.0
C311 C 0.18653 0.69244 0.09983 0.0
H312 H 0.24729 0.78857 0.33421 0.0
H313 H 0.25077 0.76581 0.28053 0.0
H314 H 0.32204 0.81907 0.25644 0.0
H315 H 0.31876 0.84182 0.30998 0.0
H316 H 0.15147 0.70277 -0.00402 0.0
H317 H 0.18559 0.68456 0.03537 0.0
H318 H 0.13874 0.72395 0.11364 0.0
H319 H 1.10392 0.74206 0.07396 0.0
Dy320 Dy 0.97445 0.75865 0.60138 0.0
Dy321 Dy 1.01184 0.71992 0.55378 0.0
C322 C 0.99313 0.69619 0.62577 0.0
O323 O 1.01721 0.78097 0.60518 0.0
O324 O 1.04294 0.75529 0.56788 0.0
O325 O 0.9371 0.76121 0.63185 0.0
O326 O 0.96543 0.79711 0.62752 0.0
O327 O 1.00794 0.75898 0.52467 0.0
O328 O 0.97355 0.78243 0.55408 0.0
O329 O 0.9695 0.72018 0.52692 0.0
O330 O 0.94141 0.74076 0.56599 0.0
O331 O 1.01564 0.68952 0.51496 0.0
O332 O 1.05264 0.70068 0.54381 0.0
C333 C 1.04051 0.77737 0.58764 0.0
O334 O 0.98759 0.72233 0.63456 0.0
O335 O 0.99929 0.69073 0.59514 0.0
C336 C 0.91599 0.80582 0.62757 0.0
C337 C 0.86832 0.83846 0.61021 0.0
C338 C 0.8671 0.81969 0.63675 0.0
C339 C 0.89075 0.80359 0.64537 0.0
C340 C 0.91706 0.82382 0.60032 0.0
C341 C 0.89346 0.84023 0.5919 0.0
C342 C 0.94044 0.78819 0.63666 0.0
C343 C 0.99007 0.77997 0.52835 0.0
C344 C 0.94431 0.72895 0.53691 0.0
C345 C 1.05884 0.69248 0.48765 0.0
C346 C 1.08436 0.70143 0.42657 0.0
C347 C 1.07307 0.72419 0.44439 0.0
C348 C 1.06046 0.71974 0.47469 0.0
C349 C 1.07023 0.66971 0.47025 0.0
C350 C 1.08298 0.67415 0.43991 0.0
C351 C 1.04317 0.68762 0.5179 0.0
H352 H 0.84823 0.81831 0.65179 0.0
H353 H 0.88942 0.78959 0.66618 0.0
H354 H 0.93619 0.82545 0.58574 0.0
H355 H 0.89497 0.85459 0.57145 0.0
H356 H 1.0734 0.74539 0.43462 0.0
H357 H 1.05146 0.7375 0.48772 0.0
H358 H 1.06891 0.64851 0.47992 0.0
H359 H 1.09182 0.65626 0.42696 0.0
Dy360 Dy 0.21249 0.21564 0.84974 0.0
Dy361 Dy 0.25242 0.25322 0.80279 0.0
C362 C 0.27655 0.23265 0.87484 0.0
O363 O 0.18966 0.25804 0.85064 0.0
O364 O 0.2181 0.28517 0.81771 0.0
O365 O 0.19607 0.17531 0.86494 0.0
O366 O 0.18351 0.21327 0.89055 0.0
O367 O 0.21358 0.24959 0.77269 0.0
O368 O 0.18687 0.21878 0.80359 0.0
O369 O 0.25037 0.21098 0.77612 0.0
O370 O 0.23172 0.18254 0.81591 0.0
O371 O 0.28544 0.25521 0.76649 0.0
O372 O 0.2706 0.29355 0.78969 0.0
C373 C 0.19483 0.28211 0.83561 0.0
O374 O 0.25128 0.22249 0.88218 0.0
O375 O 0.28119 0.24368 0.8459 0.0
C376 C 0.14819 0.17911 0.88166 0.0
C377 C 1.09044 0.16419 0.87567 0.0
C378 C 1.10125 0.17483 0.90531 0.0
C379 C 0.12986 0.18214 0.90827 0.0
C380 C 0.13729 0.16961 0.85156 0.0
C381 C 1.10866 0.16196 0.84868 0.0
C382 C 0.17834 0.18664 0.88554 0.0
C383 C 0.1909 0.234 0.77717 0.0
C384 C 0.24237 0.18575 0.78631 0.0
C385 C 0.28396 0.29636 0.73448 0.0
C386 C 0.27892 0.32413 0.67418 0.0
C387 C 0.26502 0.29831 0.67932 0.0
C388 C 0.26735 0.28461 0.70936 0.0
C389 C 0.29823 0.32185 0.7292 0.0
C390 C 0.29566 0.33571 0.69932 0.0
C391 C 0.28607 0.28267 0.76649 0.0
H392 H 1.08792 0.17622 0.92679 0.0
H393 H 0.1378 0.18969 0.93155 0.0
H394 H 0.15097 0.16764 0.83042 0.0
H395 H 1.10091 0.15377 0.82563 0.0
H396 H 0.25169 0.28916 0.66048 0.0
H397 H 0.25591 0.26504 0.71307 0.0
H398 H 0.31111 0.3312 0.74834 0.0
H399 H 0.30667 0.35554 0.69587 0.0
Dy400 Dy 0.75725 0.45523 0.10036 0.0
Dy401 Dy 0.71992 0.49419 0.05361 0.0
C402 C 0.73921 0.51765 0.12505 0.0
O403 O 0.71436 0.43365 0.10605 0.0
O404 O 0.68882 0.45894 0.06824 0.0
O405 O 0.79099 0.45434 0.13597 0.0
O406 O 0.77062 0.41538 0.12089 0.0
O407 O 0.72249 0.45522 0.02424 0.0
O408 O 0.75749 0.43176 0.05255 0.0
O409 O 0.76195 0.49346 0.0262 0.0
O410 O 0.79024 0.47424 0.06596 0.0
O411 O 0.71498 0.52359 0.01406 0.0
O412 O 0.67941 0.51481 0.04606 0.0
C413 C 0.69101 0.43723 0.08853 0.0
O414 O 0.74306 0.49119 0.13372 0.0
O415 O 0.7345 0.52337 0.09419 0.0
C416 C 0.82038 0.41475 0.12719 0.0
C417 C 0.87391 0.39126 0.11262 0.0
C418 C 0.86775 0.41918 0.10384 0.0
C419 C 0.84115 0.43079 0.1109 0.0
C420 C 0.82613 0.3866 0.13488 0.0
C421 C 0.85262 0.37493 0.12763 0.0
C422 C 0.79247 0.42687 0.13537 0.0
C423 C 0.74047 0.43429 0.02715 0.0
C424 C 0.78727 0.48525 0.03652 0.0
C425 C 0.6702 0.52107 0.99013 0.0
C426 C 0.64204 0.51035 0.93085 0.0
C427 C 0.65206 0.48794 0.95012 0.0
C428 C 0.666 0.49327 0.97953 0.0
C429 C 0.65985 0.54351 0.97143 0.0
C430 C 0.64577 0.5382 0.94198 0.0
C431 C 0.68776 0.52657 0.01892 0.0
H432 H 0.88375 0.43224 0.09234 0.0
H433 H 0.83709 0.45249 0.10419 0.0
H434 H 0.81032 0.37381 0.14712 0.0
H435 H 0.8569 0.35351 0.13536 0.0
H436 H 0.6499 0.46629 0.94204 0.0
H437 H 0.67417 0.47572 -0.00641 0.0
H438 H 0.66315 0.56509 0.97926 0.0
H439 H 0.63794 0.55587 0.92788 0.0
Dy440 Dy 0.51907 0.99956 0.35043 0.0
Dy441 Dy 0.47988 0.96119 0.3045 0.0
C442 C 0.45546 0.98192 0.37523 0.0
O443 O 0.5453 0.95947 0.34589 0.0
O444 O 0.51172 0.92912 0.32576 0.0
O445 O 0.5346 1.04014 0.36626 0.0
O446 O 0.5479 1.00222 0.39147 0.0
O447 O 0.5196 0.9635 0.27562 0.0
O448 O 0.54365 0.99827 0.30363 0.0
O449 O 0.48267 1.00296 0.27685 0.0
O450 O 0.49761 1.0322 0.31795 0.0
O451 O 0.44827 0.95783 0.26643 0.0
O452 O 0.46173 0.92058 0.29247 0.0
C453 C 0.5378 0.93375 0.33713 0.0
O454 O 0.48175 0.98844 0.38363 0.0
O455 O 0.44989 0.97455 0.34495 0.0
C456 C 0.58283 1.03661 0.38216 0.0
C457 C 0.64067 1.05056 0.37471 0.0
C458 C 0.63072 1.03862 0.40396 0.0
C459 C 0.60206 1.03181 0.40766 0.0
C460 C 0.59286 1.04751 0.35239 0.0
C461 C 0.62153 1.05469 0.34881 0.0
C462 C 0.55277 1.02892 0.38651 0.0
C463 C 0.54092 0.98115 0.27853 0.0
C464 C 0.48872 1.02861 0.28759 0.0
C465 C 0.452 0.91605 0.23647 0.0
C466 C 0.46075 0.88946 0.17587 0.0
C467 C 0.48314 0.9038 0.19152 0.0
C468 C 0.47879 0.91695 0.22156 0.0
C469 C 0.42951 0.90198 0.22099 0.0
C470 C 0.43383 0.88876 0.19086 0.0
C471 C 0.44744 0.93043 0.26769 0.0
H472 H 0.64482 1.03578 0.42464 0.0
H473 H 0.59482 1.02312 0.43063 0.0
H474 H 0.57852 1.05085 0.33202 0.0
H475 H 0.62864 1.06397 0.32612 0.0
H476 H 0.504 0.90508 0.18042 0.0
H477 H 0.49632 0.92792 0.23311 0.0
H478 H 0.40867 0.90119 0.23221 0.0
H479 H 0.41625 0.87761 0.17958 0.0
Dy480 Dy 0.21993 0.49305 0.44355 0.0
Dy481 Dy 0.25628 0.45363 0.39566 0.0
C482 C 0.24338 0.43372 0.46973 0.0
O483 O 0.26377 0.49444 0.46768 0.0
O484 O 0.29048 0.46923 0.43068 0.0
O485 O 0.21663 0.52225 0.48363 0.0
O486 O 0.17966 0.51337 0.45379 0.0
O487 O 0.24161 0.49043 0.36359 0.0
O488 O 0.2331 0.52266 0.40316 0.0
O489 O 0.21447 0.43037 0.3953 0.0
O490 O 0.18728 0.4591 0.42778 0.0
O491 O 0.26534 0.41384 0.37248 0.0
O492 O 0.28963 0.45104 0.35957 0.0
C493 C 0.28836 0.48343 0.45843 0.0
O494 O 0.22503 0.45436 0.47304 0.0
O495 O 0.25921 0.43071 0.44346 0.0
C496 C 0.17297 0.52048 0.51011 0.0
C497 C 0.14633 0.51182 0.57064 0.0
C498 C 0.15871 0.4891 0.55371 0.0
C499 C 0.17185 0.49341 0.52367 0.0
C500 C 0.16041 0.54316 0.52656 0.0
C501 C 0.14709 0.53887 0.55661 0.0
C502 C 0.18927 0.52536 0.48029 0.0
C503 C 0.23782 0.51691 0.37236 0.0
C504 C 0.19041 0.4355 0.41057 0.0
C505 C 0.27613 0.41961 0.31749 0.0
C506 C 0.25942 0.40675 0.25318 0.0
C507 C 0.27348 0.38656 0.27254 0.0
C508 C 0.28175 0.39295 0.30439 0.0
C509 C 0.2617 0.43974 0.29851 0.0
C510 C 0.2536 0.43343 0.26648 0.0
C511 C 0.28297 0.42513 0.35184 0.0
H512 H 0.15886 0.46809 0.564 0.0
H513 H 0.18171 0.47572 0.51134 0.0
H514 H 0.16128 0.56422 0.51642 0.0
H515 H 0.1374 0.5567 0.56883 0.0
H516 H 0.27891 0.36602 0.26275 0.0
H517 H 0.29248 0.37705 0.31884 0.0
H518 H 0.25663 0.4603 0.30843 0.0
H519 H 0.24291 0.44939 0.25209 0.0
Dy520 Dy 0.9794 0.96033 0.19306 0.0
Dy521 Dy 1.01672 0.99845 0.14631 0.0
C522 C 1.04074 0.98255 0.21788 0.0
O523 O 0.98183 1.00184 0.22112 0.0
O524 O 0.99571 1.03089 0.17963 0.0
O525 O 0.94779 0.95576 0.23081 0.0
O526 O 0.96339 0.91898 0.20537 0.0
O527 O 0.97985 0.98342 0.11442 0.0
O528 O 0.94806 0.97451 0.15433 0.0
O529 O 1.04484 0.95978 0.15131 0.0
O530 O 1.01144 0.92898 0.17062 0.0
O531 O 1.04418 1.00227 0.10441 0.0
O532 O 1.02831 1.03974 0.12859 0.0
C533 C 0.98738 1.02745 0.21016 0.0
O534 O 1.01895 0.96557 0.22209 0.0
O535 O 1.04378 0.9981 0.19149 0.0
C536 C 0.95325 0.91452 0.26121 0.0
C537 C 0.96246 0.88946 0.32252 0.0
C538 C 0.98492 0.90278 0.30594 0.0
C539 C 0.98034 0.91513 0.27553 0.0
C540 C 0.93071 0.90147 0.27759 0.0
C541 C 0.93527 0.88898 0.30804 0.0
C542 C 0.94836 0.92836 0.22978 0.0
C543 C 0.95336 0.97928 0.12342 0.0
C544 C 1.0376 0.93396 0.15981 0.0
C545 C 1.02891 1.04019 0.07143 0.0
C546 C 1.00537 1.06205 0.01353 0.0
C547 C 1.00223 1.03338 0.02104 0.0
C548 C 1.01369 1.02256 0.04991 0.0
C549 C 1.03169 1.06886 0.06416 0.0
C550 C 1.01998 1.07973 0.03553 0.0
C551 C 1.04023 1.02944 0.1025 0.0
H552 H 1.00601 0.90389 0.31659 0.0
H553 H 0.9979 0.92527 0.2632 0.0
H554 H 0.90964 0.90093 0.26683 0.0
H555 H 0.91763 0.87858 0.31998 0.0
H556 H 0.99117 1.01932 0.00445 0.0
H557 H 1.01075 1.0004 0.05528 0.0
H558 H 1.04303 1.08285 0.0806 0.0
H559 H 1.0233 1.10181 0.03003 0.0
Dy560 Dy 0.50963 0.71753 0.94417 0.0
Dy561 Dy 0.4732 0.75804 0.89674 0.0
C562 C 0.48809 0.77727 0.97135 0.0
O563 O 0.46552 0.71339 0.96675 0.0
O564 O 0.44076 0.74481 0.9349 0.0
O565 O 0.514 0.68741 0.98309 0.0
O566 O 0.55052 0.69826 0.95345 0.0
O567 O 0.48034 0.7194 0.86442 0.0
O568 O 0.50084 0.68918 0.90078 0.0
O569 O 0.51767 0.77561 0.88951 0.0
O570 O 0.53946 0.75494 0.93344 0.0
O571 O 0.43724 0.76236 0.86448 0.0
O572 O 0.46511 0.79808 0.87335 0.0
C573 C 0.44202 0.72769 0.96026 0.0
O574 O 0.50366 0.75471 0.97602 0.0
O575 O 0.47407 0.78195 0.94407 0.0
C576 C 0.5576 0.69106 0.00958 0.0
C577 C 0.58355 0.70167 0.07016 0.0
C578 C 0.5735 0.72408 0.05091 0.0
C579 C 0.56066 0.7188 0.02085 0.0
C580 C 0.56782 0.66862 0.02837 0.0
C581 C 0.5808 0.67388 0.05848 0.0
C582 C 0.54149 0.68556 0.97971 0.0
C583 C 0.49003 0.69409 0.87175 0.0
C584 C 0.53908 0.77455 0.91038 0.0
C585 C 0.41597 0.80691 0.87151 0.0
C586 C 0.36815 0.83971 0.88781 0.0
C587 C 0.37252 0.81348 0.90278 0.0
C588 C 0.39634 0.79728 0.89485 0.0
C589 C 0.4123 0.83355 0.85759 0.0
C590 C 0.38862 0.84986 0.86569 0.0
C591 C 0.44057 0.78961 0.86213 0.0
H592 H 0.57493 0.74568 0.0594 0.0
H593 H 0.55257 0.73634 0.00671 0.0
H594 H 0.56537 0.64707 0.02001 0.0
H595 H 0.58868 0.65623 0.07258 0.0
H596 H 0.35709 0.80516 0.91985 0.0
H597 H 0.39901 0.77694 0.9064 0.0
H598 H 0.42739 0.84147 0.83987 0.0
H599 H 0.38558 0.86976 0.85325 0.0
Dy600 Dy 0.75115 0.25097 0.69342 0.0
Dy601 Dy 0.71374 0.21193 0.64725 0.0
C602 C 0.69005 0.22894 0.71857 0.0
O603 O 0.74849 0.20991 0.72217 0.0
O604 O 0.73557 0.18027 0.68067 0.0
O605 O 0.78467 0.25586 0.72898 0.0
O606 O 0.76544 0.29274 0.70716 0.0
O607 O 0.74996 0.22701 0.61489 0.0
O608 O 0.78217 0.23707 0.65421 0.0
O609 O 0.68563 0.25056 0.6519 0.0
O610 O 0.71912 0.28187 0.67017 0.0
O611 O 0.68555 0.20728 0.60595 0.0
O612 O 0.70265 0.1703 0.62992 0.0
C613 C 0.74343 0.18411 0.71133 0.0
O614 O 0.71172 0.24613 0.72259 0.0
O615 O 0.68718 0.21265 0.69267 0.0
C616 C 0.77952 0.29632 0.76228 0.0
C617 C 0.77257 0.32279 0.8233 0.0
C618 C 0.76711 0.29384 0.81979 0.0
C619 C 0.77035 0.28072 0.78946 0.0
C620 C 0.7855 0.32509 0.76595 0.0
C621 C 0.78193 0.33826 0.79616 0.0
C622 C 0.78233 0.28321 0.72985 0.0
C623 C 0.77649 0.23168 0.62348 0.0
C624 C 0.69285 0.27656 0.6598 0.0
C625 C 0.7013 0.16969 0.57284 0.0
C626 C 0.72523 0.14821 0.51496 0.0
C627 C 0.72954 0.1765 0.52376 0.0
C628 C 0.7178 0.18712 0.55256 0.0
C629 C 0.69732 0.1414 0.56435 0.0
C630 C 0.70916 0.13074 0.53569 0.0
C631 C 0.69007 0.1802 0.60402 0.0
H632 H 0.75958 0.28154 0.84028 0.0
H633 H 0.76535 0.25851 0.78722 0.0
H634 H 0.79262 0.33746 0.74531 0.0
H635 H 0.78647 0.36058 0.79832 0.0
H636 H 0.74177 0.19043 0.50826 0.0
H637 H 0.72156 0.20898 0.55887 0.0
H638 H 0.68497 0.12757 0.57985 0.0
H639 H 0.70488 0.10899 0.52922 0.0
H640 H 0.55737 0.31165 0.14165 0.0
H641 H 0.65376 0.4202 0.03952 0.0
H642 H 0.5758 0.29702 0.04019 0.0
H643 H 0.67447 0.40149 0.13953 0.0
H644 H 0.61866 0.38153 0.03994 0.0
H645 H 0.5933 0.34973 0.14228 0.0
C646 C 0.56895 0.31623 0.11947 0.0
C647 C 0.56338 0.30034 0.09093 0.0
C648 C 0.6307 0.38595 0.06191 0.0
C649 C 0.60449 0.34547 0.09121 0.0
C650 C 0.65075 0.40835 0.06182 0.0
C651 C 0.66743 0.41477 0.08962 0.0
C652 C 0.62618 0.36978 0.09033 0.0
C653 C 0.66236 0.39781 0.11744 0.0
C654 C 0.58959 0.33815 0.11988 0.0
C655 C 0.57931 0.30802 0.06301 0.0
N656 N 0.64223 0.37664 0.11718 0.0
N657 N 0.59856 0.32995 0.06377 0.0
H658 H 0.70059 0.83816 0.33071 0.0
H659 H 0.53167 0.87492 0.33119 0.0
H660 H 0.63631 0.77492 0.34613 0.0
H661 H 0.59639 0.9381 0.34512 0.0
H662 H 0.56907 0.83829 0.33208 0.0
H663 H 0.66312 0.87463 0.33146 0.0
C664 C 0.67872 0.83176 0.3344 0.0
C665 C 0.6722 0.80291 0.3387 0.0
C666 C 0.57514 0.86016 0.33504 0.0
C667 C 0.6282 0.84539 0.33885 0.0
C668 C 0.55361 0.88128 0.33453 0.0
C669 C 0.5603 0.91015 0.33836 0.0
C670 C 0.60416 0.86752 0.33876 0.0
C671 C 0.58963 0.91641 0.34235 0.0
C672 C 0.65714 0.85279 0.3348 0.0
C673 C 0.64295 0.7966 0.34307 0.0
N674 N 0.61009 0.89563 0.34222 0.0
N675 N 0.62239 0.81731 0.3428 0.0
H676 H 0.16689 0.91083 0.63863 0.0
H677 H 1.07942 0.79185 0.5394 0.0
H678 H 0.15878 0.91349 0.53402 0.0
H679 H 1.05458 0.81653 0.6364 0.0
H680 H 1.11397 0.83096 0.53862 0.0
H681 H 0.1316 0.87229 0.64001 0.0
C682 C 0.1577 0.90353 0.61587 0.0
C683 C 0.16602 0.91619 0.58617 0.0
C684 C 1.10113 0.82778 0.56021 0.0
C685 C 0.12556 0.87052 0.58757 0.0
C686 C 1.08139 0.80512 0.56082 0.0
C687 C 1.06374 0.8002 0.58814 0.0
C688 C 1.10427 0.84583 0.58742 0.0
C689 C 1.06748 0.81898 0.61474 0.0
C690 C 0.13741 0.88133 0.61672 0.0
C691 C 0.1531 0.90506 0.55766 0.0
N692 N 1.08726 0.84045 0.61383 0.0
N693 N 0.13406 0.88298 0.55906 0.0
H694 H 1.0525 0.3974 0.78749 0.0
H695 H 0.15966 0.2979 0.88724 0.0
H696 H 1.07194 0.4164 0.88784 0.0
H697 H 0.1773 0.31991 0.78749 0.0
H698 H 0.1219 0.33415 0.88846 0.0
H699 H 1.09133 0.36237 0.78719 0.0
C700 C 1.06455 0.39402 0.80971 0.0
C701 C 1.05828 0.41018 0.83783 0.0
C702 C 0.13408 0.33119 0.86631 0.0
C703 C 1.1034 0.369 0.8377 0.0
C704 C 0.15582 0.31037 0.86557 0.0
C705 C 0.17247 0.30571 0.83736 0.0
C706 C 0.12764 0.34718 0.83824 0.0
C707 C 0.1657 0.32272 0.81006 0.0
C708 C 1.08704 0.37403 0.80939 0.0
C709 C 1.0755 0.40469 0.86552 0.0
N710 N 0.14385 0.34213 0.81106 0.0
N711 N 1.09671 0.38457 0.86487 0.0
H712 H 0.65092 0.91962 0.95946 0.0
H713 H 0.55905 0.80587 0.8575 0.0
H714 H 0.6729 0.89826 0.86053 0.0
H715 H 0.57186 0.797 0.961 0.0
H716 H 0.59448 0.8443 0.85703 0.0
H717 H 0.61608 0.88065 0.95959 0.0
C718 C 0.64825 0.90713 0.93751 0.0
C719 C 0.66519 0.91289 0.90985 0.0
C720 C 0.58967 0.83393 0.87988 0.0
C721 C 0.62434 0.86752 0.90977 0.0
C722 C 0.5693 0.81178 0.88019 0.0
C723 C 0.56229 0.79739 0.90926 0.0
C724 C 0.60288 0.84298 0.90906 0.0
C725 C 0.57654 0.80679 0.93779 0.0
C726 C 0.62835 0.88455 0.93773 0.0
C727 C 0.66057 0.89513 0.8825 0.0
N728 N 0.5956 0.82888 0.937 0.0
N729 N 0.64066 0.87378 0.88306 0.0
H730 H 0.59232 0.43523 0.64298 0.0
H731 H 0.63431 0.27053 0.65811 0.0
H732 H 0.53332 0.37255 0.67737 0.0
H733 H 0.69796 0.33583 0.65999 0.0
H734 H 0.59703 0.30679 0.65847 0.0
H735 H 0.63011 0.39929 0.64234 0.0
C736 C 0.58704 0.4139 0.65014 0.0
C737 C 0.55899 0.40736 0.6601 0.0
C738 C 0.61911 0.31333 0.65869 0.0
C739 C 0.60314 0.36523 0.65918 0.0
C740 C 0.64067 0.29248 0.65831 0.0
C741 C 0.66989 0.29963 0.65885 0.0
C742 C 0.62619 0.3422 0.65899 0.0
C743 C 0.67604 0.32884 0.65949 0.0
C744 C 0.60891 0.39328 0.64993 0.0
C745 C 0.55425 0.37903 0.66938 0.0
N746 N 0.65463 0.34877 0.65927 0.0
N747 N 0.57576 0.35928 0.66844 0.0
H748 H 1.03128 0.33403 0.39983 0.0
H749 H 0.19656 0.3788 0.39679 0.0
H750 H 1.09799 0.27372 0.4177 0.0
H751 H 0.13124 0.43831 0.42306 0.0
H752 H 0.16098 0.34094 0.39693 0.0
H753 H 1.06674 0.37208 0.40082 0.0
C754 C 1.0534 0.32853 0.40366 0.0
C755 C 1.06117 0.29999 0.40846 0.0
C756 C 0.15428 0.36223 0.40259 0.0
C757 C 1.10282 0.3446 0.40932 0.0
C758 C 0.1747 0.38418 0.40234 0.0
C759 C 0.16738 0.41244 0.40975 0.0
C760 C 0.12553 0.36801 0.40957 0.0
C761 C 0.13835 0.41723 0.41708 0.0
C762 C 1.07376 0.35057 0.40443 0.0
C763 C 1.09052 0.29502 0.41373 0.0
N764 N 0.11872 0.39555 0.41646 0.0
N765 N 1.11001 0.3168 0.41366 0.0
H766 H 0.19795 0.83745 0.1833 0.0
H767 H 1.03154 0.87496 0.15762 0.0
H768 H 0.14055 0.77868 0.13744 0.0
H769 H 1.09639 0.93904 0.16058 0.0
H770 H 1.06928 0.83859 0.1569 0.0
H771 H 0.16017 0.87351 0.18186 0.0
C772 C 0.17752 0.83199 0.17279 0.0
C773 C 0.17305 0.80459 0.16017 0.0
C774 C 1.07529 0.86061 0.15764 0.0
C775 C 0.12854 0.8464 0.15932 0.0
C776 C 1.0536 0.88156 0.1581 0.0
C777 C 1.06029 0.91061 0.15886 0.0
C778 C 1.10436 0.8683 0.15887 0.0
C779 C 1.0897 0.91722 0.15962 0.0
C780 C 0.15578 0.85277 0.17199 0.0
C781 C 0.14557 0.79932 0.14718 0.0
N782 N 1.11026 0.89655 0.15992 0.0
N783 N 0.1246 0.81966 0.1474 0.0
H784 H 0.33427 0.24003 0.86427 0.0
H785 H 0.38586 0.23205 0.05221 0.0
H786 H 0.27555 0.22252 0.94224 0.0
H787 H 0.44302 0.22245 0.97089 0.0
H788 H 0.34543 0.23253 0.01374 0.0
H789 H 0.37373 0.23791 0.90349 0.0
C790 C 0.32948 0.23581 0.88963 0.0
C791 C 0.30103 0.23145 0.89947 0.0
C792 C 0.36679 0.23017 0.00428 0.0
C793 C 0.3471 0.22924 0.94547 0.0
C794 C 0.39007 0.22988 0.02636 0.0
C795 C 0.41836 0.22693 0.01524 0.0
C796 C 0.37143 0.22807 0.97034 0.0
C797 C 0.42189 0.22444 0.9811 0.0
C798 C 0.35226 0.2345 0.91216 0.0
C799 C 0.29684 0.22597 0.93306 0.0
N800 N 0.39902 0.22528 0.96018 0.0
N801 N 0.31936 0.22523 0.95462 0.0
H802 H 0.74383 0.51608 0.1933 0.0
H803 H 0.75026 0.68595 0.21706 0.0
H804 H 0.73801 0.57531 0.114 0.0
H805 H 0.74297 0.62891 0.29829 0.0
H806 H 0.74884 0.64551 0.17962 0.0
H807 H 0.7462 0.55602 0.23195 0.0
C808 C 0.74305 0.53736 0.18383 0.0
C809 C 0.74062 0.54183 0.14985 0.0
C810 C 0.74768 0.64169 0.20562 0.0
C811 C 0.74362 0.58841 0.1947 0.0
C812 C 0.74864 0.66497 0.22725 0.0
C813 C 0.74694 0.66135 0.26139 0.0
C814 C 0.74514 0.61395 0.21768 0.0
C815 C 0.74453 0.63318 0.27242 0.0
C816 C 0.7444 0.56032 0.20609 0.0
C817 C 0.73977 0.57031 0.13968 0.0
N818 N 0.74377 0.61086 0.25088 0.0
N819 N 0.74134 0.59214 0.1617 0.0
H820 H 0.39732 0.98312 0.36404 0.0
H821 H 0.34585 0.97058 0.55127 0.0
H822 H 0.45734 0.98321 0.44365 0.0
H823 H 0.29111 1.00021 0.47417 0.0
H824 H 0.38616 0.97079 0.51278 0.0
H825 H 0.35818 0.98481 0.40358 0.0
C826 C 0.40246 0.98343 0.38981 0.0
C827 C 0.43118 0.98305 0.40004 0.0
C828 C 0.36538 0.97741 0.50428 0.0
C829 C 0.38546 0.98464 0.44635 0.0
C830 C 0.34218 0.97732 0.52638 0.0
C831 C 0.31463 0.98571 0.5165 0.0
C832 C 0.36131 0.98529 0.4714 0.0
C833 C 0.31172 0.99392 0.48349 0.0
C834 C 0.37987 0.98449 0.41254 0.0
C835 C 0.43583 0.98357 0.43417 0.0
N836 N 0.33442 0.99326 0.4624 0.0
N837 N 0.41345 0.9841 0.45583 0.0
H838 H 0.9955 0.63875 0.61399 0.0
H839 H 0.9909 0.58618 0.80183 0.0
H840 H 0.98768 0.6972 0.69408 0.0
H841 H 0.97998 0.53081 0.71927 0.0
H842 H 0.99229 0.6267 0.76417 0.0
H843 H 0.9928 0.59953 0.65266 0.0
C844 C 0.9933 0.64354 0.63971 0.0
C845 C 0.99185 0.67187 0.65027 0.0
C846 C 0.98943 0.60572 0.75426 0.0
C847 C 0.98884 0.62594 0.69571 0.0
C848 C 0.98857 0.58238 0.77589 0.0
C849 C 0.98501 0.55455 0.76418 0.0
C850 C 0.98719 0.6016 0.72021 0.0
C851 C 0.98246 0.55156 0.72995 0.0
C852 C 0.99167 0.62088 0.66196 0.0
C853 C 0.98889 0.67602 0.68432 0.0
N854 N 0.98375 0.57445 0.70953 0.0
N855 N 0.98763 0.65356 0.70557 0.0
H856 H 0.84418 0.97192 0.94617 0.0
H857 H 0.89521 0.97988 0.13463 0.0
H858 H 0.78817 0.99426 0.0252 0.0
H859 H 0.95502 0.98067 0.05511 0.0
H860 H 0.85598 0.98152 0.09504 0.0
H861 H 0.88445 0.97169 0.98488 0.0
C862 C 0.8402 0.97694 0.97154 0.0
C863 C 0.81228 0.98337 0.98192 0.0
C864 C 0.87764 0.98134 0.08611 0.0
C865 C 0.85898 0.98256 0.0272 0.0
C866 C 0.90027 0.98031 0.10887 0.0
C867 C 0.92896 0.98009 0.09868 0.0
C868 C 0.88316 0.98177 0.0523 0.0
C869 C 0.93354 0.9808 0.06456 0.0
C870 C 0.86338 0.97678 -0.00622 0.0
C871 C 0.80902 0.98945 0.01552 0.0
N872 N 0.91112 0.98143 0.04287 0.0
N873 N 0.83175 0.9887 0.03664 0.0
H874 H 0.48091 0.69556 0.80421 0.0
H875 H 0.47724 0.52618 0.77768 0.0
H876 H 0.49545 0.63652 0.88223 0.0
H877 H 0.49071 0.58403 0.69832 0.0
H878 H 0.47787 0.56627 0.81599 0.0
H879 H 0.47886 0.65574 0.76542 0.0
C880 C 0.48362 0.67433 0.81338 0.0
C881 C 0.48851 0.66989 0.847 0.0
C882 C 0.48051 0.57029 0.79018 0.0
C883 C 0.48567 0.62342 0.80203 0.0
C884 C 0.47994 0.54726 0.76808 0.0
C885 C 0.48373 0.55126 0.73423 0.0
C886 C 0.48448 0.59809 0.77877 0.0
C887 C 0.48758 0.57948 0.72393 0.0
C888 C 0.48249 0.65145 0.79103 0.0
C889 C 0.49181 0.64146 0.85679 0.0
N890 N 0.48769 0.60151 0.74582 0.0
N891 N 0.49016 0.61964 0.83473 0.0
H892 H 0.77328 0.22832 0.55555 0.0
H893 H 0.94325 0.21788 0.52584 0.0
H894 H 0.83504 0.23254 0.63325 0.0
H895 H 0.8841 0.23385 0.44755 0.0
H896 H 0.90361 0.21898 0.56469 0.0
H897 H 0.81244 0.22645 0.51573 0.0
C898 C 0.79499 0.22884 0.56443 0.0
C899 C 0.80041 0.2307 0.59829 0.0
C900 C 0.89916 0.22211 0.53902 0.0
C901 C 0.84609 0.22823 0.55204 0.0
C902 C 0.92194 0.22131 0.51656 0.0
C903 C 0.91748 0.22557 0.48283 0.0
C904 C 0.87108 0.22694 0.52818 0.0
C905 C 0.88899 0.2303 0.47303 0.0
C906 C 0.81749 0.22781 0.54148 0.0
C907 C 0.82938 0.23126 0.60768 0.0
N908 N 0.86713 0.23073 0.49534 0.0
N909 N 0.8508 0.22992 0.58496 0.0
H910 H 0.2408 0.57435 0.38403 0.0
H911 H 0.23048 0.62612 0.19662 0.0
H912 H 0.23802 0.51565 0.30374 0.0
H913 H 0.25655 0.68096 0.27506 0.0
H914 H 0.2302 0.58624 0.23492 0.0
H915 H 0.24326 0.61342 0.345 0.0
C916 C 0.24061 0.56948 0.35821 0.0
C917 C 0.23913 0.54111 0.34768 0.0
C918 C 0.23615 0.60692 0.24382 0.0
C919 C 0.2418 0.58686 0.30189 0.0
C920 C 0.23636 0.62992 0.22181 0.0
C921 C 0.24381 0.65743 0.23209 0.0
C922 C 0.24289 0.61101 0.27705 0.0
C923 C 0.25096 0.66042 0.26546 0.0
C924 C 0.24213 0.59205 0.33576 0.0
C925 C 0.23913 0.53684 0.31349 0.0
N926 N 0.2501 0.63782 0.28647 0.0
N927 N 0.24023 0.55922 0.29211 0.0
H928 H 0.83608 0.73512 0.36118 0.0
H929 H 0.88654 0.73686 0.54978 0.0
H930 H 0.77626 0.72749 0.4402 0.0
H931 H 0.94342 0.71897 0.47007 0.0
H932 H 0.84638 0.7371 0.51099 0.0
H933 H 0.8753 0.73314 0.40074 0.0
C934 C 0.831 0.7331 0.38684 0.0
C935 C 0.80232 0.73149 0.39689 0.0
C936 C 0.86761 0.73297 0.50195 0.0
C937 C 0.8481 0.72944 0.44324 0.0
C938 C 0.89073 0.73279 0.52423 0.0
C939 C 0.91886 0.7276 0.51367 0.0
C940 C 0.87226 0.72849 0.46833 0.0
C941 C 0.9224 0.72277 0.47986 0.0
C942 C 0.85364 0.73188 0.40957 0.0
C943 C 0.79774 0.72878 0.43086 0.0
N944 N 0.89969 0.72353 0.4587 0.0
N945 N 0.82015 0.72805 0.45256 0.0
H946 H 0.24708 0.18568 0.71882 0.0
H947 H 0.25088 1.01671 0.6916 0.0
H948 H 0.23935 0.12783 0.7992 0.0
H949 H 0.22749 1.07499 0.61565 0.0
H950 H 0.25239 1.05636 0.73069 0.0
H951 H 0.24592 0.14555 0.68079 0.0
C952 C 0.24547 0.16458 0.7287 0.0
C953 C 0.2435 0.16063 0.76278 0.0
C954 C 0.24691 1.06051 0.70548 0.0
C955 C 0.24227 0.11365 0.71841 0.0
C956 C 0.24609 1.03774 0.68294 0.0
C957 C 0.23891 1.04201 0.6498 0.0
C958 C 0.24115 1.08831 0.69511 0.0
C959 C 0.23297 1.07017 0.64069 0.0
C960 C 0.24462 0.14151 0.70674 0.0
C961 C 0.24105 0.13235 0.7734 0.0
N962 N 0.23443 1.09192 0.66286 0.0
N963 N 0.24071 0.11023 0.75156 0.0
H964 H 0.84479 0.47547 0.04944 0.0
H965 H 0.89586 0.4829 0.8611 0.0
H966 H 0.78863 0.4964 0.96988 0.0
H967 H 0.95542 0.47849 0.94099 0.0
H968 H 0.85665 0.48534 0.90041 0.0
H969 H 0.88492 0.4743 0.01094 0.0
C970 C 0.84074 0.48002 0.02399 0.0
C971 C 0.81279 0.48629 0.01342 0.0
C972 C 0.87825 0.48383 0.9095 0.0
C973 C 0.85946 0.48449 0.96832 0.0
C974 C 0.90088 0.48235 0.88689 0.0
C975 C 0.92951 0.48043 0.89725 0.0
C976 C 0.88366 0.48315 0.94335 0.0
C977 C 0.934 0.47994 0.9314 0.0
C978 C 0.86387 0.4793 0.00185 0.0
C979 C 0.8095 0.49174 0.9797 0.0
N980 N 0.91156 0.48115 0.95294 0.0
N981 N 0.83222 0.49057 0.95867 0.0
H982 H 0.48198 1.02876 0.22017 0.0
H983 H 0.48952 0.19822 0.19464 0.0
H984 H 0.49403 1.08642 0.30034 0.0
H985 H 0.49605 0.13856 0.11563 0.0
H986 H 0.48774 0.15858 0.23347 0.0
H987 H 0.4833 1.06877 0.1822 0.0
C988 C 0.48461 1.04979 0.23004 0.0
C989 C 0.48768 1.0537 0.26406 0.0
C990 C 0.48958 0.1541 0.20764 0.0
C991 C 0.4893 1.1006 0.21971 0.0
C992 C 0.49059 0.17689 0.18525 0.0
C993 C 0.49306 0.17225 0.15129 0.0
C994 C 0.49063 0.12593 0.19644 0.0
C995 C 0.49427 0.14369 0.14129 0.0
C996 C 0.48553 1.07282 0.20809 0.0
C997 C 0.4914 1.08191 0.27461 0.0
N998 N 0.49293 0.12199 0.16344 0.0
N999 N 0.49198 1.10397 0.2528 0.0
H1000 H 0.33088 0.44383 0.46608 0.0
H1001 H 0.42912 0.52658 0.59471 0.0
H1002 H 0.30381 0.52377 0.50516 0.0
H1003 H 0.42176 0.43612 0.59681 0.0
H1004 H 0.38954 0.52836 0.55502 0.0
H1005 H 0.37008 0.44296 0.50598 0.0
C1006 C 0.33332 0.46147 0.48267 0.0
C1007 C 0.31375 0.48404 0.48167 0.0
C1008 C 0.3966 0.50811 0.56412 0.0
C1009 C 0.35955 0.48325 0.52789 0.0
C1010 C 0.41939 0.50703 0.58679 0.0
C1011 C 0.42914 0.48113 0.59956 0.0
C1012 C 0.38366 0.48306 0.55294 0.0
C1013 C 0.4152 0.45664 0.58806 0.0
C1014 C 0.35572 0.46081 0.50574 0.0
C1015 C 0.31817 0.50593 0.5046 0.0
N1016 N 0.39367 0.45819 0.56537 0.0
N1017 N 0.34059 0.50515 0.52628 0.0
H1018 H 0.98989 0.19752 0.30318 0.0
H1019 H 0.9802 1.02802 0.27742 0.0
H1020 H 0.99271 0.13761 0.38199 0.0
H1021 H 0.9929 1.08517 0.1972 0.0
H1022 H 0.98137 1.06821 0.31523 0.0
H1023 H 0.98801 0.1579 0.26403 0.0
C1024 C 0.99013 0.17616 0.31244 0.0
C1025 C 0.99159 0.1714 0.34644 0.0
C1026 C 0.98378 1.07212 0.28936 0.0
C1027 C 0.98908 0.12519 0.30099 0.0
C1028 C 0.98296 1.04898 0.26751 0.0
C1029 C 0.98626 1.05269 0.23353 0.0
C1030 C 0.98774 1.09982 0.27771 0.0
C1031 C 0.99011 1.08083 0.22291 0.0
C1032 C 0.98906 0.15338 0.28989 0.0
C1033 C 0.99174 0.14283 0.35632 0.0
N1034 N 0.99065 1.10302 0.24465 0.0
N1035 N 0.99042 0.12119 0.33402 0.0
H1036 H 0.30356 0.6834 0.09873 0.0
H1037 H 0.40083 0.76823 0.97066 0.0
H1038 H 0.30757 0.77408 0.09751 0.0
H1039 H 0.42568 0.68605 0.005 0.0
H1040 H 0.36186 0.76864 0.01049 0.0
H1041 H 0.34299 0.68185 0.05902 0.0
C1042 C 0.31255 0.70304 0.09014 0.0
C1043 C 0.30187 0.72894 0.10198 0.0
C1044 C 0.37568 0.7504 0.00928 0.0
C1045 C 0.34726 0.72725 0.05534 0.0
C1046 C 0.398 0.75001 0.98621 0.0
C1047 C 0.4169 0.72694 0.98384 0.0
C1048 C 0.37129 0.72728 0.03021 0.0
C1049 C 0.41189 0.70432 0.00551 0.0
C1050 C 0.33526 0.7021 0.06742 0.0
C1051 C 0.31485 0.75355 0.08954 0.0
N1052 N 0.38963 0.70494 0.02732 0.0
N1053 N 0.33638 0.75209 0.06695 0.0
H1054 H 0.74967 0.18411 0.77878 0.0
H1055 H 0.73954 1.01475 0.80396 0.0
H1056 H 0.73846 0.12641 0.69845 0.0
H1057 H 0.73642 1.07453 0.88316 0.0
H1058 H 0.742 1.05433 0.76515 0.0
H1059 H 0.74807 0.1441 0.8167 0.0
C1060 C 0.74716 0.16307 0.76889 0.0
C1061 C 0.7444 0.15912 0.73486 0.0
C1062 C 0.74076 1.05885 0.79101 0.0
C1063 C 0.7424 0.11228 0.77909 0.0
C1064 C 0.73937 1.03609 0.81338 0.0
C1065 C 0.73768 1.04082 0.84738 0.0
C1066 C 0.74077 1.08701 0.80229 0.0
C1067 C 0.73758 1.06937 0.85746 0.0
C1068 C 0.74608 0.14005 0.79079 0.0
C1069 C 0.74084 0.13092 0.72421 0.0
N1070 N 0.73918 1.09102 0.83532 0.0
N1071 N 0.74003 0.10888 0.74599 0.0
H1072 H 0.58122 0.1666 0.87218 0.0
H1073 H 0.68062 0.26767 0.76623 0.0
H1074 H 0.61477 0.2464 0.90547 0.0
H1075 H 0.65316 0.18572 0.73266 0.0
H1076 H 0.65181 0.26197 0.81491 0.0
H1077 H 0.60368 0.17443 0.8191 0.0
C1078 C 0.59335 0.18572 0.86837 0.0
C1079 C 0.59619 0.20585 0.89335 0.0
C1080 C 0.65185 0.24526 0.79686 0.0
C1081 C 0.62151 0.21508 0.83265 0.0
C1082 C 0.66829 0.24852 0.76899 0.0
C1083 C 0.66949 0.22699 0.74554 0.0
C1084 C 0.6366 0.22017 0.80156 0.0
C1085 C 0.65281 0.20281 0.7502 0.0
C1086 C 0.60596 0.19025 0.838 0.0
C1087 C 0.61172 0.23045 0.88686 0.0
N1088 N 0.63723 0.1999 0.77794 0.0
N1089 N 0.62384 0.2343 0.85722 0.0
H1090 H 0.78466 0.80035 0.10911 0.0
H1091 H 0.71655 0.93645 0.0282 0.0
H1092 H 0.76218 0.87569 0.16227 0.0
H1093 H 0.77416 0.88385 0.97289 0.0
H1094 H 0.72581 0.90818 0.07611 0.0
H1095 H 0.77479 0.82534 0.05759 0.0
C1096 C 0.7777 0.82212 0.10987 0.0
C1097 C 0.77433 0.8361 0.13986 0.0
C1098 C 0.73639 0.90273 0.05349 0.0
C1099 C 0.7627 0.86433 0.08163 0.0
C1100 C 0.73103 0.9188 0.02592 0.0
C1101 C 0.74482 0.91274 -0.00365 0.0
C1102 C 0.7555 0.88014 0.05172 0.0
C1103 C 0.76319 0.88937 -0.00479 0.0
C1104 C 0.77222 0.8363 0.08061 0.0
C1105 C 0.76535 0.86426 0.13967 0.0
N1106 N 0.76808 0.87385 0.02264 0.0
N1107 N 0.75966 0.87736 0.11105 0.0
H1108 H 1.04034 0.95371 0.27525 0.0
H1109 H 0.17263 1.03035 0.35792 0.0
H1110 H 1.08726 1.01785 0.22341 0.0
H1111 H 1.10111 0.99673 0.41096 0.0
H1112 H 0.14772 1.01973 0.30634 0.0
H1113 H 1.06963 0.96206 0.32298 0.0
C1114 C 1.05695 0.96944 0.2737 0.0
C1115 C 1.06104 0.98538 0.24527 0.0
C1116 C 0.13758 1.0148 0.32935 0.0
C1117 C 1.09477 0.99502 0.30028 0.0
C1118 C 0.15173 1.02075 0.35862 0.0
C1119 C 0.13872 1.01454 0.38856 0.0
C1120 C 1.11066 1.00204 0.33029 0.0
C1121 C 1.11168 1.00215 0.38836 0.0
C1122 C 1.07362 0.97424 0.30113 0.0
C1123 C 1.08324 1.00522 0.24488 0.0
N1124 N 1.09862 0.99617 0.35968 0.0
N1125 N 1.09928 1.00962 0.27215 0.0
H1126 H 0.9426 0.31366 0.48303 0.0
H1127 H 1.00324 0.34933 0.66084 0.0
H1128 H 1.02454 0.28644 0.5191 0.0
H1129 H 0.92547 0.38526 0.62304 0.0
H1130 H 1.01114 0.32637 0.60845 0.0
H1131 H 0.93586 0.34089 0.53332 0.0
C1132 C 0.9593 0.31368 0.50129 0.0
C1133 C 0.98408 0.29761 0.49693 0.0
C1134 C 0.99236 0.33932 0.61153 0.0
C1135 C 0.97639 0.32834 0.55449 0.0
C1136 C 0.98789 0.35253 0.64145 0.0
C1137 C 0.96368 0.36929 0.64636 0.0
C1138 C 0.97243 0.34275 0.58625 0.0
C1139 C 0.94424 0.37222 0.62048 0.0
C1140 C 0.95538 0.3291 0.53003 0.0
C1141 C 1.00496 0.29829 0.52147 0.0
N1142 N 0.94902 0.35905 0.59152 0.0
N1143 N 1.00055 0.31323 0.54922 0.0
H1144 H 0.65158 1.04282 0.12636 0.0
H1145 H 0.54839 0.9432 0.22936 0.0
H1146 H 0.61205 0.96711 0.0891 0.0
H1147 H 0.57918 1.0233 0.26517 0.0
H1148 H 0.57675 0.94919 0.18036 0.0
H1149 H 0.62932 1.03418 0.17934 0.0
C1150 C 0.63815 1.02445 0.12928 0.0
C1151 C 0.63357 1.0057 0.10321 0.0
C1152 C 0.57749 0.96542 0.19897 0.0
C1153 C 0.6085 0.9955 0.16379 0.0
C1154 C 0.5613 0.962 0.22702 0.0
C1155 C 0.56112 0.98299 0.25117 0.0
C1156 C 0.59358 0.99007 0.19489 0.0
C1157 C 0.57862 1.00667 0.24705 0.0
C1158 C 0.62565 1.01943 0.15957 0.0
C1159 C 0.61643 0.98196 0.10855 0.0
N1160 N 0.59398 1.00972 0.2192 0.0
N1161 N 0.60448 0.9776 0.13819 0.0
H1162 H 0.50635 0.37435 0.85 0.0
H1163 H 0.44284 0.31499 0.01748 0.0
H1164 H 0.41792 0.38256 0.87657 0.0
H1165 H 0.52468 0.29105 0.97851 0.0
H1166 H 0.43526 0.34529 0.9699 0.0
H1167 H 0.51525 0.34932 0.901 0.0
C1168 C 0.48885 0.37116 0.86674 0.0
C1169 C 0.46133 0.38055 0.85899 0.0
C1170 C 0.45492 0.33351 0.97191 0.0
C1171 C 0.47133 0.35163 0.91736 0.0
C1172 C 0.45935 0.31634 -0.00087 0.0
C1173 C 0.4844 0.30038 0.00191 0.0
C1174 C 0.47581 0.33492 0.94749 0.0
C1175 C 0.50496 0.30281 0.97728 0.0
C1176 C 0.49391 0.35668 0.89576 0.0
C1177 C 0.43939 0.37542 0.88143 0.0
N1178 N 0.50019 0.31971 0.95112 0.0
N1179 N 0.44486 0.36129 0.90962 0.0
H1180 H 0.18524 0.27043 0.72642 0.0
H1181 H 1.07822 0.17172 0.62649 0.0
H1182 H 0.15027 0.19348 0.76571 0.0
H1183 H 0.11874 0.24613 0.58772 0.0
H1184 H 1.10083 0.18101 0.67931 0.0
H1185 H 0.15638 0.2642 0.67769 0.0
C1186 C 0.17126 0.2523 0.72491 0.0
C1187 C 0.17039 0.23225 0.74999 0.0
C1188 C 1.10463 0.19534 0.65926 0.0
C1189 C 0.13742 0.22482 0.69394 0.0
C1190 C 1.09193 0.18995 0.62905 0.0
C1191 C 1.09669 0.20813 0.6026 0.0
C1192 C 0.1222 0.21907 0.66298 0.0
C1193 C 0.11421 0.23171 0.60747 0.0
C1194 C 0.1548 0.24873 0.697 0.0
C1195 C 0.15162 0.20939 0.74688 0.0
N1196 N 0.12637 0.23642 0.63701 0.0
N1197 N 0.13606 0.20611 0.7191 0.0
H1198 H 0.24077 0.94958 0.45985 0.0
H1199 H 0.27308 0.79688 0.38823 0.0
H1200 H 0.26121 0.87991 0.52345 0.0
H1201 H 0.28237 0.87401 0.33364 0.0
H1202 H 0.26423 0.82495 0.43778 0.0
H1203 H 0.25086 0.92005 0.41292 0.0
C1204 C 0.24723 0.92796 0.46402 0.0
C1205 C 0.25005 0.91719 0.49574 0.0
C1206 C 0.26843 0.83561 0.41495 0.0
C1207 C 0.2618 0.88312 0.44166 0.0
C1208 C 0.27334 0.81967 0.38672 0.0
C1209 C 0.27858 0.83317 0.35685 0.0
C1210 C 0.26828 0.86517 0.41301 0.0
C1211 C 0.2788 0.86272 0.35621 0.0
C1212 C 0.25318 0.91114 0.4371 0.0
C1213 C 0.2588 0.88905 0.49942 0.0
N1214 N 0.27354 0.87768 0.38377 0.0
N1215 N 0.26425 0.87286 0.47262 0.0
H1216 H 1.07975 0.66907 0.37107 0.0
H1217 H 0.18378 0.76871 0.2692 0.0
H1218 H 0.11891 0.74495 0.40837 0.0
H1219 H 0.15193 0.68958 0.23181 0.0
H1220 H 0.15518 0.76253 0.31793 0.0
H1221 H 1.10217 0.67774 0.31813 0.0
C1222 C 1.09312 0.68749 0.36817 0.0
C1223 C 1.09752 0.70629 0.39423 0.0
C1224 C 0.15421 0.74655 0.29904 0.0
C1225 C 0.12278 0.71652 0.33372 0.0
C1226 C 0.17052 0.7501 0.27112 0.0
C1227 C 0.17044 0.72946 0.24657 0.0
C1228 C 0.13778 0.72207 0.30267 0.0
C1229 C 0.1526 0.70597 0.25021 0.0
C1230 C 1.10571 0.69252 0.3379 0.0
C1231 C 0.11462 0.73007 0.38893 0.0
N1232 N 0.13716 0.70274 0.27801 0.0
N1233 N 0.12665 0.73443 0.35934 0.0
H1234 H 0.26508 0.37941 0.66725 0.0
H1235 H 0.27443 0.38442 0.47356 0.0
H1236 H 0.28288 0.30431 0.61135 0.0
H1237 H 0.22316 0.4413 0.53128 0.0
H1238 H 0.28374 0.35653 0.52304 0.0
H1239 H 0.2566 0.40501 0.61655 0.0
C1240 C 0.26742 0.36839 0.64422 0.0
C1241 C 0.27469 0.33977 0.64338 0.0
C1242 C 0.27032 0.37505 0.52459 0.0
C1243 C 0.26491 0.36883 0.58532 0.0
C1244 C 0.26502 0.39094 0.49646 0.0
C1245 C 0.24797 0.41521 0.49822 0.0
C1246 C 0.25891 0.3839 0.55456 0.0
C1247 C 0.23634 0.42273 0.52857 0.0
C1248 C 0.26237 0.38292 0.61534 0.0
C1249 C 0.27712 0.32637 0.61292 0.0
N1250 N 0.24223 0.40729 0.5555 0.0
N1251 N 0.27235 0.34107 0.58495 0.0
H1252 H 0.57956 0.51863 0.73203 0.0
H1253 H 0.60416 0.46848 0.91589 0.0
H1254 H 0.54199 0.44401 0.77413 0.0
H1255 H 0.64866 0.53894 0.87319 0.0
H1256 H 0.58244 0.45859 0.86312 0.0
H1257 H 0.60703 0.52546 0.78226 0.0
C1258 C 0.57738 0.50348 0.7516 0.0
C1259 C 0.55823 0.48089 0.74901 0.0
C1260 C 0.59702 0.47618 0.8652 0.0
C1261 C 0.58923 0.48876 0.80651 0.0
C1262 C 0.60949 0.48179 0.89535 0.0
C1263 C 0.62824 0.50458 0.89899 0.0
C1264 C 0.60319 0.49356 0.83843 0.0
C1265 C 0.63399 0.5214 0.8716 0.0
C1266 C 0.59295 0.50747 0.78032 0.0
C1267 C 0.55621 0.46194 0.77516 0.0
N1268 N 0.62145 0.51558 0.84245 0.0
N1269 N 0.57132 0.46644 0.80287 0.0
H1270 H 0.44663 0.81719 0.98146 0.0
H1271 H 0.50684 0.8578 0.15838 0.0
H1272 H 0.52292 0.78225 0.0242 0.0
H1273 H 0.42607 0.8876 0.12178 0.0
H1274 H 0.51481 0.83339 0.10689 0.0
H1275 H 0.44054 0.84669 0.03019 0.0
C1276 C 0.46226 0.81597 0.00089 0.0
C1277 C 0.48523 0.79715 -0.00112 0.0
C1278 C 0.49534 0.84531 0.11002 0.0
C1279 C 0.47832 0.83057 0.05454 0.0
C1280 C 0.49085 0.8594 0.13938 0.0
C1281 C 0.46574 0.87478 0.14441 0.0
C1282 C 0.47458 0.84651 0.08536 0.0
C1283 C 0.44557 0.87569 0.11908 0.0
C1284 C 0.45868 0.83267 0.02873 0.0
C1285 C 0.50473 0.79626 0.02483 0.0
N1286 N 0.45041 0.86172 0.09061 0.0
N1287 N 0.50078 0.81265 0.05156 0.0
H1288 H 0.14874 0.54567 0.6251 0.0
H1289 H 1.04976 0.44331 0.73006 0.0
H1290 H 1.11329 0.46734 0.58973 0.0
H1291 H 1.07479 0.52618 0.76316 0.0
H1292 H 1.07833 0.44971 0.68127 0.0
H1293 H 0.12603 0.53738 0.67792 0.0
C1294 C 0.1361 0.5268 0.62837 0.0
C1295 C 0.13285 0.5072 0.60288 0.0
C1296 C 1.07778 0.46647 0.69925 0.0
C1297 C 1.10729 0.4974 0.66335 0.0
C1298 C 1.06148 0.46281 0.72719 0.0
C1299 C 1.05964 0.4844 0.75053 0.0
C1300 C 1.09229 0.49196 0.69443 0.0
C1301 C 1.0756 0.50903 0.74571 0.0
C1302 C 0.12334 0.522 0.6586 0.0
C1303 C 0.11669 0.48287 0.60873 0.0
N1304 N 1.09109 0.51228 0.71796 0.0
N1305 N 1.1045 0.47871 0.63829 0.0
H1306 H 1.00848 0.85789 0.34073 0.0
H1307 H 0.94707 0.81802 0.51668 0.0
H1308 H 0.92826 0.8893 0.37693 0.0
H1309 H 1.02666 0.78747 0.47768 0.0
H1310 H 0.94103 0.84724 0.46785 0.0
H1311 H 1.01663 0.83468 0.39279 0.0
C1312 C 0.99266 0.86013 0.35975 0.0
C1313 C 0.96764 0.87559 0.35441 0.0
C1314 C 0.95989 0.83427 0.47017 0.0
C1315 C 0.97666 0.84861 0.41416 0.0
C1316 C 0.96341 0.81771 0.49808 0.0
C1317 C 0.98727 0.80009 0.50111 0.0
C1318 C 0.98042 0.8332 0.44529 0.0
C1319 C 1.00774 0.80045 0.47624 0.0
C1320 C 0.99726 0.84672 0.38948 0.0
C1321 C 0.94768 0.87728 0.37983 0.0
N1322 N 1.00376 0.81659 0.44936 0.0
N1323 N 0.95258 0.86389 0.40861 0.0
H1324 H 0.57662 0.67247 0.12737 0.0
H1325 H 0.68636 0.76996 0.22485 0.0
H1326 H 0.62041 0.74405 0.08624 0.0
H1327 H 0.64956 0.69445 0.26568 0.0
H1328 H 0.65725 0.76374 0.17632 0.0
H1329 H 0.59915 0.68238 0.18005 0.0
C1330 C 0.59103 0.6902 0.12939 0.0
C1331 C 0.59675 0.7074 0.10233 0.0
C1332 C 0.65532 0.7486 0.19594 0.0
C1333 C 0.62216 0.71908 0.16252 0.0
C1334 C 0.67191 0.75217 0.22375 0.0
C1335 C 0.67061 0.73248 0.24919 0.0
C1336 C 0.63739 0.72506 0.19337 0.0
C1337 C 0.65126 0.71007 0.24656 0.0
C1338 C 0.60369 0.69596 0.15951 0.0
C1339 C 0.61515 0.7304 0.10648 0.0
N1340 N 0.63559 0.70677 0.21889 0.0
N1341 N 0.62724 0.7355 0.13596 0.0
H1342 H 0.70846 0.43374 0.97163 0.0
H1343 H 0.78996 0.3068 0.88454 0.0
H1344 H 0.77803 0.39011 0.01871 0.0
H1345 H 0.74301 0.37128 0.83346 0.0
H1346 H 0.78079 0.33165 0.93623 0.0
H1347 H 0.71531 0.40486 0.92337 0.0
C1348 C 0.72511 0.41795 0.97199 0.0
C1349 C 0.74292 0.41459 -0.00073 0.0
C1350 C 0.77256 0.34028 0.91366 0.0
C1351 C 0.75083 0.38135 0.94367 0.0
C1352 C 0.77766 0.32611 0.88428 0.0
C1353 C 0.76735 0.33717 0.85478 0.0
C1354 C 0.75663 0.36532 0.91341 0.0
C1355 C 0.75163 0.36226 0.85563 0.0
C1356 C 0.72904 0.40151 0.94427 0.0
C1357 C 0.76391 0.39352 -0.00181 0.0
N1358 N 0.74668 0.37542 0.88447 0.0
N1359 N 0.76739 0.3777 0.9707 0.0
H1360 H 0.30991 0.30255 0.11909 0.0
H1361 H 0.26993 0.44092 0.20086 0.0
H1362 H 0.34735 0.38377 0.09967 0.0
H1363 H 0.23742 0.3587 0.22559 0.0
H1364 H 0.27857 0.42449 0.14543 0.0
H1365 H 0.26621 0.32588 0.13598 0.0
C1366 C 0.30858 0.32528 0.1171 0.0
C1367 C 0.33272 0.3414 0.10959 0.0
C1368 C 0.26865 0.41024 0.16262 0.0
C1369 C 0.28323 0.36817 0.13004 0.0
C1370 C 0.26359 0.41969 0.19434 0.0
C1371 C 0.25432 0.40066 0.2182 0.0
C1372 C 0.2651 0.38149 0.15525 0.0
C1373 C 0.24595 0.37361 0.20819 0.0
C1374 C 0.28359 0.33865 0.12695 0.0
C1375 C 0.32957 0.37068 0.10685 0.0
N1376 N 0.25239 0.36451 0.17769 0.0
N1377 N 0.30558 0.38325 0.11813 0.0
H1378 H 0.7208 0.55687 0.42834 0.0
H1379 H 0.68743 0.5344 0.60971 0.0
H1380 H 0.74501 0.61199 0.50747 0.0
H1381 H 0.65474 0.48499 0.52957 0.0
H1382 H 0.72812 0.54772 0.57617 0.0
H1383 H 0.7177 0.5178 0.46674 0.0
C1384 C 0.72652 0.56054 0.45362 0.0
C1385 C 0.73196 0.5879 0.4651 0.0
C1386 C 0.71258 0.53316 0.56624 0.0
C1387 C 0.72768 0.54357 0.50919 0.0
C1388 C 0.68936 0.52557 0.58541 0.0
C1389 C 0.66713 0.50968 0.5718 0.0
C1390 C 0.71299 0.52536 0.53314 0.0
C1391 C 0.67105 0.49799 0.54068 0.0
C1392 C 0.72464 0.53821 0.47561 0.0
C1393 C 0.73957 0.59136 0.49795 0.0
N1394 N 0.69306 0.50684 0.52194 0.0
N1395 N 0.73641 0.56961 0.51907 0.0
H1396 H 0.23522 0.86745 0.77949 0.0
H1397 H 0.35805 0.89627 0.89625 0.0
H1398 H 0.27824 0.94712 0.79117 0.0
H1399 H 0.31508 0.81655 0.8847 0.0
H1400 H 0.31493 0.92039 0.8783 0.0
H1401 H 0.24825 0.85515 0.83536 0.0
C1402 C 0.24669 0.8827 0.7942 0.0
C1403 C 0.25681 0.90775 0.78032 0.0
C1404 C 0.31454 0.89766 0.88072 0.0
C1405 C 0.27243 0.89362 0.84374 0.0
C1406 C 0.3392 0.88391 0.89096 0.0
C1407 C 0.34047 0.85438 0.89044 0.0
C1408 C 0.2915 0.88163 0.869 0.0
C1409 C 0.31527 0.83937 0.88451 0.0
C1410 C 0.25409 0.87574 0.82614 0.0
C1411 C 0.27068 0.92721 0.80066 0.0
N1412 N 0.29205 0.85312 0.87292 0.0
N1413 N 0.27891 0.91936 0.83106 0.0
H1414 H 0.13262 0.74817 0.97164 0.0
H1415 H 1.00489 0.65336 0.925 0.0
H1416 H 1.06784 0.71717 0.03666 0.0
H1417 H 1.08205 0.66509 0.86994 0.0
H1418 H 1.01415 0.69756 0.95373 0.0
H1419 H 1.10045 0.74056 0.92555 0.0
C1420 C 1.11119 0.7408 0.97633 0.0
C1421 C 1.10326 0.73197 0.00768 0.0
C1422 C 1.02848 0.69105 0.93447 0.0
C1423 C 1.06675 0.72283 0.95531 0.0
C1424 C 1.02317 0.66585 0.91796 0.0
C1425 C 1.04336 0.65515 0.89599 0.0
C1426 C 1.05426 0.70527 0.92911 0.0
C1427 C 1.06651 0.67224 0.88759 0.0
C1428 C 1.09284 0.73647 0.95003 0.0
C1429 C 1.07506 0.72345 0.01268 0.0
N1430 N 1.07175 0.69615 0.90479 0.0
N1431 N 1.05806 0.71816 0.98655 0.0
H1432 H 0.73735 0.89583 0.70537 0.0
H1433 H 0.8719 0.89541 0.60137 0.0
H1434 H 0.8025 0.95981 0.70483 0.0
H1435 H 0.81101 0.82773 0.60835 0.0
H1436 H 0.83467 0.92886 0.61587 0.0
H1437 H 0.75064 0.88272 0.64981 0.0
C1438 C 0.75387 0.9077 0.69314 0.0
C1439 C 0.76978 0.92799 0.71015 0.0
C1440 C 0.82912 0.90682 0.61312 0.0
C1441 C 0.78552 0.91273 0.64714 0.0
C1442 C 0.85041 0.88768 0.60464 0.0
C1443 C 0.84473 0.85867 0.60526 0.0
C1444 C 0.8024 0.89663 0.62298 0.0
C1445 C 0.81645 0.84991 0.60911 0.0
C1446 C 0.76142 0.90028 0.66138 0.0
C1447 C 0.79023 0.94344 0.6929 0.0
N1448 N 0.79647 0.86873 0.61888 0.0
N1449 N 0.79818 0.93487 0.66265 0.0
H1450 H 0.89256 0.33907 0.0929 0.0
H1451 H 0.99496 0.35878 0.23557 0.0
H1452 H 0.92258 0.41861 0.13069 0.0
H1453 H 0.96069 0.27965 0.20163 0.0
H1454 H 0.98855 0.3783 0.18098 0.0
H1455 H 0.93582 0.31654 0.11312 0.0
C1456 C 0.90873 0.35196 0.10448 0.0
C1457 C 0.90342 0.3804 0.11163 0.0
C1458 C 0.9833 0.35636 0.18511 0.0
C1459 C 0.95237 0.35476 0.13555 0.0
C1460 C 0.98687 0.34527 0.21632 0.0
C1461 C 0.97705 0.31804 0.22337 0.0
C1462 C 0.96904 0.34031 0.16128 0.0
C1463 C 0.96775 0.30106 0.19743 0.0
C1464 C 0.93346 0.33912 0.11602 0.0
C1465 C 0.92542 0.39639 0.12558 0.0
N1466 N 0.96309 0.31276 0.16771 0.0
N1467 N 0.94856 0.38316 0.13813 0.0
H1468 H 1.07452 0.11308 0.8508 0.0
H1469 H 0.97709 0.11111 -0.00047 0.0
H1470 H 1.0408 0.18624 0.8999 0.0
H1471 H 1.01526 1.03848 0.95382 0.0
H1472 H 0.98018 0.13639 0.94783 0.0
H1473 H 1.03409 1.08567 0.86995 0.0
C1474 C 1.058 0.12371 0.86451 0.0
C1475 C 1.06163 0.1516 0.87516 0.0
C1476 C 0.98704 0.1146 0.94873 0.0
C1477 C 1.01597 0.12015 0.89813 0.0
C1478 C 0.98531 1.10021 0.97828 0.0
C1479 C 0.99711 1.07318 0.98118 0.0
C1480 C 1.00145 1.10208 0.92239 0.0
C1481 C 1.00663 1.05962 0.95281 0.0
C1482 C 1.03493 1.10796 0.87565 0.0
C1483 C 1.03935 0.16438 0.89242 0.0
N1484 N 1.00947 1.07455 0.92478 0.0
N1485 N 1.01788 0.14831 0.90432 0.0
H1486 H 0.72051 0.17453 0.45584 0.0
H1487 H 0.69079 1.02602 0.39408 0.0
H1488 H 0.74997 1.09742 0.50008 0.0
H1489 H 0.65655 1.10288 0.35409 0.0
H1490 H 0.73194 1.05229 0.41408 0.0
H1491 H 0.71839 0.15066 0.40323 0.0
C1492 C 0.72756 0.15283 0.45431 0.0
C1493 C 0.73407 0.13748 0.48258 0.0
C1494 C 0.71596 1.06331 0.39992 0.0
C1495 C 0.73076 0.10985 0.42274 0.0
C1496 C 0.69246 1.04827 0.3885 0.0
C1497 C 0.66968 1.06261 0.37388 0.0
C1498 C 0.71602 1.09287 0.39747 0.0
C1499 C 0.67327 1.09117 0.36621 0.0
C1500 C 0.72624 0.13913 0.42419 0.0
C1501 C 0.74351 0.1096 0.47901 0.0
N1502 N 0.69554 1.10563 0.37912 0.0
N1503 N 0.74072 1.09638 0.4498 0.0
loop_
_geom_bond_atom_site_label_1
_geom_bond_atom_site_label_2
_geom_bond_distance
_geom_bond_site_symmetry_2
_ccdc_geom_bond_type
Dy0 O3 2.307 . S
Dy0 O5 2.395 . S
Dy0 O6 2.379 . S
Dy0 O8 2.339 . S
Dy0 O10 2.298 . S
Dy0 O14 2.275 . S
Dy0 C22 2.738 . S
Dy1 O4 2.298 1_556 S
Dy1 O7 2.275 . S
Dy1 O9 2.307 1_556 S
Dy1 O11 2.395 . S
Dy1 O12 2.379 . S
Dy1 O15 2.339 1_556 S
Dy1 C31 2.738 . S
C2 O14 1.254 . S
C2 O15 1.257 . S
O3 Dy0 2.307 . S
O3 C13 1.266 . S
O4 Dy1 2.298 1_554 S
O4 C13 1.236 . S
O5 Dy0 2.395 . S
O5 C22 1.255 . S
O6 Dy0 2.379 . S
O6 C22 1.249 . S
O7 Dy1 2.275 . S
O7 C23 1.254 . S
O8 Dy0 2.339 . S
O8 C23 1.257 1_554 S
O9 Dy1 2.307 1_554 S
O9 C24 1.266 . S
O10 Dy0 2.298 . S
O10 C24 1.236 . S
O11 Dy1 2.395 . S
O11 C31 1.255 . S
O12 Dy1 2.379 . S
O12 C31 1.249 . S
C13 O3 1.266 . S
C13 O4 1.236 . S
O14 Dy0 2.275 . S
O14 C2 1.254 . S
O15 Dy1 2.339 1_554 S
O15 C2 1.257 . S
C16 C19 1.344 . S
C16 C20 1.328 . S
C16 C22 1.516 . S
C17 C18 1.304 . S
C17 C21 1.323 . S
C18 C17 1.304 . S
C18 C19 1.371 . S
C18 H32 0.930 . S
C19 C16 1.344 . S
C19 C18 1.371 . S
C19 H33 0.931 . S
C20 C16 1.328 . S
C20 C21 1.433 . S
C20 H34 0.931 . S
C21 C17 1.323 . S
C21 C20 1.433 . S
C21 H35 0.933 . S
C22 Dy0 2.738 . S
C22 O5 1.255 . S
C22 O6 1.249 . S
C22 C16 1.516 . S
C23 O7 1.254 . S
C23 O8 1.257 1_556 S
C24 O9 1.266 . S
C24 O10 1.236 . S
C25 C28 1.344 . S
C25 C29 1.328 . S
C25 C31 1.516 . S
C26 C27 1.304 . S
C26 C30 1.323 . S
C27 C26 1.304 . S
C27 C28 1.371 . S
C27 H36 0.930 . S
C28 C25 1.344 . S
C28 C27 1.371 . S
C28 H37 0.931 . S
C29 C25 1.328 . S
C29 C30 1.433 . S
C29 H38 0.931 . S
C30 C26 1.323 . S
C30 C29 1.433 . S
C30 H39 0.933 . S
C31 Dy1 2.738 . S
C31 O11 1.255 . S
C31 O12 1.249 . S
C31 C25 1.516 . S
H32 C18 0.930 . S
H33 C19 0.931 . S
H34 C20 0.931 . S
H35 C21 0.933 . S
H36 C27 0.930 . S
H37 C28 0.931 . S
H38 C29 0.931 . S
H39 C30 0.933 . S
Dy40 O43 2.307 . S
Dy40 O45 2.395 . S
Dy40 O46 2.379 . S
Dy40 O48 2.339 . S
Dy40 O50 2.298 . S
Dy40 O54 2.275 . S
Dy40 C62 2.738 . S
Dy41 O44 2.298 . S
Dy41 O47 2.275 . S
Dy41 O49 2.307 . S
Dy41 O51 2.395 . S
Dy41 O52 2.379 . S
Dy41 O55 2.339 . S
Dy41 C71 2.738 . S
C42 O54 1.254 . S
C42 O55 1.257 . S
O43 Dy40 2.307 . S
O43 C53 1.266 . S
O44 Dy41 2.298 . S
O44 C53 1.236 . S
O45 Dy40 2.395 . S
O45 C62 1.255 . S
O46 Dy40 2.379 . S
O46 C62 1.249 . S
O47 Dy41 2.275 . S
O47 C63 1.254 . S
O48 Dy40 2.339 . S
O48 C63 1.257 . S
O49 Dy41 2.307 . S
O49 C64 1.266 . S
O50 Dy40 2.298 . S
O50 C64 1.236 . S
O51 Dy41 2.395 . S
O51 C71 1.255 . S
O52 Dy41 2.379 . S
O52 C71 1.249 . S
C53 O43 1.266 . S
C53 O44 1.236 . S
O54 Dy40 2.275 . S
O54 C42 1.254 . S
O55 Dy41 2.339 . S
O55 C42 1.257 . S
C56 C59 1.344 . S
C56 C60 1.328 . S
C56 C62 1.516 . S
C57 C58 1.304 . S
C57 C61 1.323 . S
C58 C57 1.304 . S
C58 C59 1.371 . S
C58 H72 0.930 . S
C59 C56 1.344 . S
C59 C58 1.371 . S
C59 H73 0.931 . S
C60 C56 1.328 . S
C60 C61 1.433 . S
C60 H74 0.931 . S
C61 C57 1.323 . S
C61 C60 1.433 . S
C61 H75 0.933 . S
C62 Dy40 2.738 . S
C62 O45 1.255 . S
C62 O46 1.249 . S
C62 C56 1.516 . S
C63 O47 1.254 . S
C63 O48 1.257 . S
C64 O49 1.266 . S
C64 O50 1.236 . S
C65 C68 1.344 . S
C65 C69 1.328 . S
C65 C71 1.516 . S
C66 C67 1.304 . S
C66 C70 1.323 . S
C67 C66 1.304 . S
C67 C68 1.371 . S
C67 H76 0.930 . S
C68 C65 1.344 . S
C68 C67 1.371 . S
C68 H77 0.931 . S
C69 C65 1.328 . S
C69 C70 1.433 . S
C69 H78 0.931 . S
C70 C66 1.323 . S
C70 C69 1.433 . S
C70 H79 0.933 . S
C71 Dy41 2.738 . S
C71 O51 1.255 . S
C71 O52 1.249 . S
C71 C65 1.516 . S
H72 C58 0.930 . S
H73 C59 0.931 . S
H74 C60 0.931 . S
H75 C61 0.933 . S
H76 C67 0.930 . S
H77 C68 0.931 . S
H78 C69 0.931 . S
H79 C70 0.933 . S
Dy80 O83 2.307 . S
Dy80 O85 2.395 . S
Dy80 O86 2.379 . S
Dy80 O88 2.339 . S
Dy80 O90 2.298 . S
Dy80 O94 2.275 . S
Dy80 C102 2.738 . S
Dy81 O84 2.298 . S
Dy81 O87 2.275 . S
Dy81 O89 2.307 . S
Dy81 O91 2.395 . S
Dy81 O92 2.379 . S
Dy81 O95 2.339 . S
Dy81 C111 2.738 . S
C82 O94 1.254 . S
C82 O95 1.257 . S
O83 Dy80 2.307 . S
O83 C93 1.266 . S
O84 Dy81 2.298 . S
O84 C93 1.236 . S
O85 Dy80 2.395 . S
O85 C102 1.255 . S
O86 Dy80 2.379 . S
O86 C102 1.249 . S
O87 Dy81 2.275 . S
O87 C103 1.254 . S
O88 Dy80 2.339 . S
O88 C103 1.257 . S
O89 Dy81 2.307 . S
O89 C104 1.266 . S
O90 Dy80 2.298 . S
O90 C104 1.236 . S
O91 Dy81 2.395 . S
O91 C111 1.255 . S
O92 Dy81 2.379 . S
O92 C111 1.249 . S
C93 O83 1.266 . S
C93 O84 1.236 . S
O94 Dy80 2.275 . S
O94 C82 1.254 . S
O95 Dy81 2.339 . S
O95 C82 1.257 . S
C96 C99 1.344 . S
C96 C100 1.328 . S
C96 C102 1.516 . S
C97 C98 1.304 . S
C97 C101 1.323 . S
C98 C97 1.304 . S
C98 C99 1.371 . S
C98 H112 0.930 . S
C99 C96 1.344 . S
C99 C98 1.371 . S
C99 H113 0.931 . S
C100 C96 1.328 . S
C100 C101 1.433 . S
C100 H114 0.931 . S
C101 C97 1.323 . S
C101 C100 1.433 . S
C101 H115 0.933 . S
C102 Dy80 2.738 . S
C102 O85 1.255 . S
C102 O86 1.249 . S
C102 C96 1.516 . S
C103 O87 1.254 . S
C103 O88 1.257 . S
C104 O89 1.266 . S
C104 O90 1.236 . S
C105 C108 1.344 . S
C105 C109 1.328 . S
C105 C111 1.516 . S
C106 C107 1.304 . S
C106 C110 1.323 . S
C107 C106 1.304 . S
C107 C108 1.371 . S
C107 H116 0.930 . S
C108 C105 1.344 . S
C108 C107 1.371 . S
C108 H117 0.931 . S
C109 C105 1.328 . S
C109 C110 1.433 . S
C109 H118 0.931 . S
C110 C106 1.323 . S
C110 C109 1.433 . S
C110 H119 0.933 . S
C111 Dy81 2.738 . S
C111 O91 1.255 . S
C111 O92 1.249 . S
C111 C105 1.516 . S
H112 C98 0.930 . S
H113 C99 0.931 . S
H114 C100 0.931 . S
H115 C101 0.933 . S
H116 C107 0.930 . S
H117 C108 0.931 . S
H118 C109 0.931 . S
H119 C110 0.933 . S
Dy120 O123 2.307 . S
Dy120 O125 2.395 . S
Dy120 O126 2.379 . S
Dy120 O128 2.339 . S
Dy120 O130 2.298 . S
Dy120 O134 2.275 . S
Dy120 C142 2.738 . S
Dy121 O124 2.298 . S
Dy121 O127 2.275 . S
Dy121 O129 2.307 . S
Dy121 O131 2.395 . S
Dy121 O132 2.379 . S
Dy121 O135 2.339 . S
Dy121 C151 2.738 . S
C122 O134 1.254 . S
C122 O135 1.257 . S
O123 Dy120 2.307 . S
O123 C133 1.266 . S
O124 Dy121 2.298 . S
O124 C133 1.236 . S
O125 Dy120 2.395 . S
O125 C142 1.255 . S
O126 Dy120 2.379 . S
O126 C142 1.249 . S
O127 Dy121 2.275 . S
O127 C143 1.254 . S
O128 Dy120 2.339 . S
O128 C143 1.257 . S
O129 Dy121 2.307 . S
O129 C144 1.266 . S
O130 Dy120 2.298 . S
O130 C144 1.236 . S
O131 Dy121 2.395 . S
O131 C151 1.255 . S
O132 Dy121 2.379 . S
O132 C151 1.249 . S
C133 O123 1.266 . S
C133 O124 1.236 . S
O134 Dy120 2.275 . S
O134 C122 1.254 . S
O135 Dy121 2.339 . S
O135 C122 1.257 . S
C136 C139 1.344 . S
C136 C140 1.328 . S
C136 C142 1.516 . S
C137 C138 1.304 . S
C137 C141 1.323 . S
C138 C137 1.304 . S
C138 C139 1.371 . S
C138 H152 0.930 . S
C139 C136 1.344 . S
C139 C138 1.371 . S
C139 H153 0.931 . S
C140 C136 1.328 . S
C140 C141 1.433 . S
C140 H154 0.931 . S
C141 C137 1.323 . S
C141 C140 1.433 . S
C141 H155 0.933 . S
C142 Dy120 2.738 . S
C142 O125 1.255 . S
C142 O126 1.249 . S
C142 C136 1.516 . S
C143 O127 1.254 . S
C143 O128 1.257 . S
C144 O129 1.266 . S
C144 O130 1.236 . S
C145 C148 1.344 . S
C145 C149 1.328 . S
C145 C151 1.516 . S
C146 C147 1.304 . S
C146 C150 1.323 . S
C147 C146 1.304 . S
C147 C148 1.371 . S
C147 H156 0.930 . S
C148 C145 1.344 . S
C148 C147 1.371 . S
C148 H157 0.931 . S
C149 C145 1.328 . S
C149 C150 1.433 . S
C149 H158 0.931 . S
C150 C146 1.323 . S
C150 C149 1.433 . S
C150 H159 0.933 . S
C151 Dy121 2.738 . S
C151 O131 1.255 . S
C151 O132 1.249 . S
C151 C145 1.516 . S
H152 C138 0.930 . S
H153 C139 0.931 . S
H154 C140 0.931 . S
H155 C141 0.933 . S
H156 C147 0.930 . S
H157 C148 0.931 . S
H158 C149 0.931 . S
H159 C150 0.933 . S
Dy160 O163 2.307 1_554 S
Dy160 O165 2.395 . S
Dy160 O166 2.379 . S
Dy160 O168 2.339 1_554 S
Dy160 O170 2.298 1_554 S
Dy160 O174 2.275 . S
Dy160 C182 2.738 . S
Dy161 O164 2.298 . S
Dy161 O167 2.275 . S
Dy161 O169 2.307 . S
Dy161 O171 2.395 . S
Dy161 O172 2.379 . S
Dy161 O175 2.339 . S
Dy161 C191 2.738 . S
C162 O174 1.254 . S
C162 O175 1.257 1_554 S
O163 Dy160 2.307 1_556 S
O163 C173 1.266 . S
O164 Dy161 2.298 . S
O164 C173 1.236 . S
O165 Dy160 2.395 . S
O165 C182 1.255 . S
O166 Dy160 2.379 . S
O166 C182 1.249 . S
O167 Dy161 2.275 . S
O167 C183 1.254 . S
O168 Dy160 2.339 1_556 S
O168 C183 1.257 . S
O169 Dy161 2.307 . S
O169 C184 1.266 . S
O170 Dy160 2.298 1_556 S
O170 C184 1.236 . S
O171 Dy161 2.395 . S
O171 C191 1.255 . S
O172 Dy161 2.379 . S
O172 C191 1.249 . S
C173 O163 1.266 . S
C173 O164 1.236 . S
O174 Dy160 2.275 . S
O174 C162 1.254 . S
O175 Dy161 2.339 . S
O175 C162 1.257 1_556 S
C176 C179 1.344 . S
C176 C180 1.328 . S
C176 C182 1.516 . S
C177 C178 1.304 . S
C177 C181 1.323 . S
C178 C177 1.304 . S
C178 C179 1.371 . S
C178 H192 0.930 . S
C179 C176 1.344 . S
C179 C178 1.371 . S
C179 H193 0.931 . S
C180 C176 1.328 . S
C180 C181 1.433 . S
C180 H194 0.931 . S
C181 C177 1.323 . S
C181 C180 1.433 . S
C181 H195 0.933 . S
C182 Dy160 2.738 . S
C182 O165 1.255 . S
C182 O166 1.249 . S
C182 C176 1.516 . S
C183 O167 1.254 . S
C183 O168 1.257 . S
C184 O169 1.266 . S
C184 O170 1.236 . S
C185 C188 1.344 . S
C185 C189 1.328 . S
C185 C191 1.516 . S
C186 C187 1.304 . S
C186 C190 1.323 . S
C187 C186 1.304 . S
C187 C188 1.371 . S
C187 H196 0.930 . S
C188 C185 1.344 . S
C188 C187 1.371 . S
C188 H197 0.931 . S
C189 C185 1.328 . S
C189 C190 1.433 . S
C189 H198 0.931 . S
C190 C186 1.323 . S
C190 C189 1.433 . S
C190 H199 0.933 . S
C191 Dy161 2.738 . S
C191 O171 1.255 . S
C191 O172 1.249 . S
C191 C185 1.516 . S
H192 C178 0.930 . S
H193 C179 0.931 . S
H194 C180 0.931 . S
H195 C181 0.933 . S
H196 C187 0.930 . S
H197 C188 0.931 . S
H198 C189 0.931 . S
H199 C190 0.933 . S
Dy200 O203 2.307 . S
Dy200 O205 2.395 . S
Dy200 O206 2.379 . S
Dy200 O208 2.339 . S
Dy200 O210 2.298 . S
Dy200 O214 2.275 . S
Dy200 C222 2.738 . S
Dy201 O204 2.298 . S
Dy201 O207 2.275 . S
Dy201 O209 2.307 . S
Dy201 O211 2.395 . S
Dy201 O212 2.379 . S
Dy201 O215 2.339 . S
Dy201 C231 2.738 . S
C202 O214 1.254 . S
C202 O215 1.257 . S
O203 Dy200 2.307 . S
O203 C213 1.266 . S
O204 Dy201 2.298 . S
O204 C213 1.236 . S
O205 Dy200 2.395 . S
O205 C222 1.255 . S
O206 Dy200 2.379 . S
O206 C222 1.249 . S
O207 Dy201 2.275 . S
O207 C223 1.254 . S
O208 Dy200 2.339 . S
O208 C223 1.257 . S
O209 Dy201 2.307 . S
O209 C224 1.266 . S
O210 Dy200 2.298 . S
O210 C224 1.236 . S
O211 Dy201 2.395 . S
O211 C231 1.255 . S
O212 Dy201 2.379 . S
O212 C231 1.249 . S
C213 O203 1.266 . S
C213 O204 1.236 . S
O214 Dy200 2.275 . S
O214 C202 1.254 . S
O215 Dy201 2.339 . S
O215 C202 1.257 . S
C216 C219 1.344 . S
C216 C220 1.328 . S
C216 C222 1.516 . S
C217 C218 1.304 . S
C217 C221 1.323 . S
C218 C217 1.304 . S
C218 C219 1.371 . S
C218 H232 0.930 . S
C219 C216 1.344 . S
C219 C218 1.371 . S
C219 H233 0.931 . S
C220 C216 1.328 . S
C220 C221 1.433 . S
C220 H234 0.931 . S
C221 C217 1.323 . S
C221 C220 1.433 . S
C221 H235 0.933 . S
C222 Dy200 2.738 . S
C222 O205 1.255 . S
C222 O206 1.249 . S
C222 C216 1.516 . S
C223 O207 1.254 . S
C223 O208 1.257 . S
C224 O209 1.266 . S
C224 O210 1.236 . S
C225 C228 1.344 . S
C225 C229 1.328 . S
C225 C231 1.516 . S
C226 C227 1.304 . S
C226 C230 1.323 . S
C227 C226 1.304 . S
C227 C228 1.371 . S
C227 H236 0.930 . S
C228 C225 1.344 . S
C228 C227 1.371 . S
C228 H237 0.931 . S
C229 C225 1.328 . S
C229 C230 1.433 . S
C229 H238 0.931 . S
C230 C226 1.323 . S
C230 C229 1.433 . S
C230 H239 0.933 . S
C231 Dy201 2.738 . S
C231 O211 1.255 . S
C231 O212 1.249 . S
C231 C225 1.516 . S
H232 C218 0.930 . S
H233 C219 0.931 . S
H234 C220 0.931 . S
H235 C221 0.933 . S
H236 C227 0.930 . S
H237 C228 0.931 . S
H238 C229 0.931 . S
H239 C230 0.933 . S
Dy240 O243 2.307 . S
Dy240 O245 2.395 . S
Dy240 O246 2.379 . S
Dy240 O248 2.339 . S
Dy240 O250 2.298 . S
Dy240 O254 2.275 . S
Dy240 C262 2.738 . S
Dy241 O244 2.298 . S
Dy241 O247 2.275 . S
Dy241 O249 2.307 . S
Dy241 O251 2.395 . S
Dy241 O252 2.379 . S
Dy241 O255 2.339 . S
Dy241 C271 2.738 . S
C242 O254 1.254 . S
C242 O255 1.257 . S
O243 Dy240 2.307 . S
O243 C253 1.266 . S
O244 Dy241 2.298 . S
O244 C253 1.236 . S
O245 Dy240 2.395 . S
O245 C262 1.255 . S
O246 Dy240 2.379 . S
O246 C262 1.249 . S
O247 Dy241 2.275 . S
O247 C263 1.254 . S
O248 Dy240 2.339 . S
O248 C263 1.257 . S
O249 Dy241 2.307 . S
O249 C264 1.266 . S
O250 Dy240 2.298 . S
O250 C264 1.236 . S
O251 Dy241 2.395 . S
O251 C271 1.255 . S
O252 Dy241 2.379 . S
O252 C271 1.249 . S
C253 O243 1.266 . S
C253 O244 1.236 . S
O254 Dy240 2.275 . S
O254 C242 1.254 . S
O255 Dy241 2.339 . S
O255 C242 1.257 . S
C256 C259 1.344 . S
C256 C260 1.328 . S
C256 C262 1.516 . S
C257 C258 1.304 . S
C257 C261 1.323 . S
C258 C257 1.304 . S
C258 C259 1.371 . S
C258 H272 0.930 . S
C259 C256 1.344 . S
C259 C258 1.371 . S
C259 H273 0.931 . S
C260 C256 1.328 . S
C260 C261 1.433 . S
C260 H274 0.931 . S
C261 C257 1.323 . S
C261 C260 1.433 . S
C261 H275 0.933 . S
C262 Dy240 2.738 . S
C262 O245 1.255 . S
C262 O246 1.249 . S
C262 C256 1.516 . S
C263 O247 1.254 . S
C263 O248 1.257 . S
C264 O249 1.266 . S
C264 O250 1.236 . S
C265 C268 1.344 . S
C265 C269 1.328 . S
C265 C271 1.516 . S
C266 C267 1.304 . S
C266 C270 1.323 . S
C267 C266 1.304 . S
C267 C268 1.371 . S
C267 H276 0.930 . S
C268 C265 1.344 . S
C268 C267 1.371 . S
C268 H277 0.931 . S
C269 C265 1.328 . S
C269 C270 1.433 . S
C269 H278 0.931 . S
C270 C266 1.323 . S
C270 C269 1.433 . S
C270 H279 0.933 . S
C271 Dy241 2.738 . S
C271 O251 1.255 . S
C271 O252 1.249 . S
C271 C265 1.516 . S
H272 C258 0.930 . S
H273 C259 0.931 . S
H274 C260 0.931 . S
H275 C261 0.933 . S
H276 C267 0.930 . S
H277 C268 0.931 . S
H278 C269 0.931 . S
H279 C270 0.933 . S
Dy280 O283 2.307 . S
Dy280 O285 2.395 . S
Dy280 O286 2.379 . S
Dy280 O288 2.339 . S
Dy280 O290 2.298 . S
Dy280 O294 2.275 . S
Dy280 C302 2.738 . S
Dy281 O284 2.298 . S
Dy281 O287 2.275 . S
Dy281 O289 2.307 . S
Dy281 O291 2.395 . S
Dy281 O292 2.379 . S
Dy281 O295 2.339 . S
Dy281 C311 2.738 . S
C282 O294 1.254 . S
C282 O295 1.257 . S
O283 Dy280 2.307 . S
O283 C293 1.266 . S
O284 Dy281 2.298 . S
O284 C293 1.236 . S
O285 Dy280 2.395 . S
O285 C302 1.255 . S
O286 Dy280 2.379 . S
O286 C302 1.249 . S
O287 Dy281 2.275 . S
O287 C303 1.254 . S
O288 Dy280 2.339 . S
O288 C303 1.257 . S
O289 Dy281 2.307 . S
O289 C304 1.266 . S
O290 Dy280 2.298 . S
O290 C304 1.236 . S
O291 Dy281 2.395 . S
O291 C311 1.255 . S
O292 Dy281 2.379 . S
O292 C311 1.249 . S
C293 O283 1.266 . S
C293 O284 1.236 . S
O294 Dy280 2.275 . S
O294 C282 1.254 . S
O295 Dy281 2.339 . S
O295 C282 1.257 . S
C296 C299 1.344 . S
C296 C300 1.328 . S
C296 C302 1.516 . S
C297 C298 1.304 . S
C297 C301 1.323 . S
C298 C297 1.304 . S
C298 C299 1.371 . S
C298 H312 0.930 . S
C299 C296 1.344 . S
C299 C298 1.371 . S
C299 H313 0.931 . S
C300 C296 1.328 . S
C300 C301 1.433 . S
C300 H314 0.931 . S
C301 C297 1.323 . S
C301 C300 1.433 . S
C301 H315 0.933 . S
C302 Dy280 2.738 . S
C302 O285 1.255 . S
C302 O286 1.249 . S
C302 C296 1.516 . S
C303 O287 1.254 . S
C303 O288 1.257 . S
C304 O289 1.266 . S
C304 O290 1.236 . S
C305 C308 1.344 . S
C305 C309 1.328 . S
C305 C311 1.516 . S
C306 C307 1.304 . S
C306 C310 1.323 . S
C307 C306 1.304 . S
C307 C308 1.371 . S
C307 H316 0.930 . S
C308 C305 1.344 . S
C308 C307 1.371 . S
C308 H317 0.931 . S
C309 C305 1.328 . S
C309 C310 1.433 . S
C309 H318 0.931 . S
C310 C306 1.323 . S
C310 C309 1.433 . S
C310 H319 0.933 . S
C311 Dy281 2.738 . S
C311 O291 1.255 . S
C311 O292 1.249 . S
C311 C305 1.516 . S
H312 C298 0.930 . S
H313 C299 0.931 . S
H314 C300 0.931 . S
H315 C301 0.933 . S
H316 C307 0.930 . S
H317 C308 0.931 . S
H318 C309 0.931 . S
H319 C310 0.933 . S
Dy320 O323 2.307 . S
Dy320 O325 2.395 . S
Dy320 O326 2.379 . S
Dy320 O328 2.339 . S
Dy320 O330 2.298 . S
Dy320 O334 2.275 . S
Dy320 C342 2.738 . S
Dy321 O324 2.298 . S
Dy321 O327 2.275 . S
Dy321 O329 2.307 . S
Dy321 O331 2.395 . S
Dy321 O332 2.379 . S
Dy321 O335 2.339 . S
Dy321 C351 2.738 . S
C322 O334 1.254 . S
C322 O335 1.257 . S
O323 Dy320 2.307 . S
O323 C333 1.266 . S
O324 Dy321 2.298 . S
O324 C333 1.236 . S
O325 Dy320 2.395 . S
O325 C342 1.255 . S
O326 Dy320 2.379 . S
O326 C342 1.249 . S
O327 Dy321 2.275 . S
O327 C343 1.254 . S
O328 Dy320 2.339 . S
O328 C343 1.257 . S
O329 Dy321 2.307 . S
O329 C344 1.266 . S
O330 Dy320 2.298 . S
O330 C344 1.236 . S
O331 Dy321 2.395 . S
O331 C351 1.255 . S
O332 Dy321 2.379 . S
O332 C351 1.249 . S
C333 O323 1.266 . S
C333 O324 1.236 . S
O334 Dy320 2.275 . S
O334 C322 1.254 . S
O335 Dy321 2.339 . S
O335 C322 1.257 . S
C336 C339 1.344 . S
C336 C340 1.328 . S
C336 C342 1.516 . S
C337 C338 1.304 . S
C337 C341 1.323 . S
C338 C337 1.304 . S
C338 C339 1.371 . S
C338 H352 0.930 . S
C339 C336 1.344 . S
C339 C338 1.371 . S
C339 H353 0.931 . S
C340 C336 1.328 . S
C340 C341 1.433 . S
C340 H354 0.931 . S
C341 C337 1.323 . S
C341 C340 1.433 . S
C341 H355 0.933 . S
C342 Dy320 2.738 . S
C342 O325 1.255 . S
C342 O326 1.249 . S
C342 C336 1.516 . S
C343 O327 1.254 . S
C343 O328 1.257 . S
C344 O329 1.266 . S
C344 O330 1.236 . S
C345 C348 1.344 . S
C345 C349 1.328 . S
C345 C351 1.516 . S
C346 C347 1.304 . S
C346 C350 1.323 . S
C347 C346 1.304 . S
C347 C348 1.371 . S
C347 H356 0.930 . S
C348 C345 1.344 . S
C348 C347 1.371 . S
C348 H357 0.931 . S
C349 C345 1.328 . S
C349 C350 1.433 . S
C349 H358 0.931 . S
C350 C346 1.323 . S
C350 C349 1.433 . S
C350 H359 0.933 . S
C351 Dy321 2.738 . S
C351 O331 1.255 . S
C351 O332 1.249 . S
C351 C345 1.516 . S
H352 C338 0.930 . S
H353 C339 0.931 . S
H354 C340 0.931 . S
H355 C341 0.933 . S
H356 C347 0.930 . S
H357 C348 0.931 . S
H358 C349 0.931 . S
H359 C350 0.933 . S
Dy360 O363 2.307 . S
Dy360 O365 2.395 . S
Dy360 O366 2.379 . S
Dy360 O368 2.339 . S
Dy360 O370 2.298 . S
Dy360 O374 2.275 . S
Dy360 C382 2.738 . S
Dy361 O364 2.298 . S
Dy361 O367 2.275 . S
Dy361 O369 2.307 . S
Dy361 O371 2.395 . S
Dy361 O372 2.379 . S
Dy361 O375 2.339 . S
Dy361 C391 2.738 . S
C362 O374 1.254 . S
C362 O375 1.257 . S
O363 Dy360 2.307 . S
O363 C373 1.266 . S
O364 Dy361 2.298 . S
O364 C373 1.236 . S
O365 Dy360 2.395 . S
O365 C382 1.255 . S
O366 Dy360 2.379 . S
O366 C382 1.249 . S
O367 Dy361 2.275 . S
O367 C383 1.254 . S
O368 Dy360 2.339 . S
O368 C383 1.257 . S
O369 Dy361 2.307 . S
O369 C384 1.266 . S
O370 Dy360 2.298 . S
O370 C384 1.236 . S
O371 Dy361 2.395 . S
O371 C391 1.255 . S
O372 Dy361 2.379 . S
O372 C391 1.249 . S
C373 O363 1.266 . S
C373 O364 1.236 . S
O374 Dy360 2.275 . S
O374 C362 1.254 . S
O375 Dy361 2.339 . S
O375 C362 1.257 . S
C376 C379 1.344 . S
C376 C380 1.328 . S
C376 C382 1.516 . S
C377 C378 1.304 . S
C377 C381 1.323 . S
C378 C377 1.304 . S
C378 C379 1.371 . S
C378 H392 0.930 . S
C379 C376 1.344 . S
C379 C378 1.371 . S
C379 H393 0.931 . S
C380 C376 1.328 . S
C380 C381 1.433 . S
C380 H394 0.931 . S
C381 C377 1.323 . S
C381 C380 1.433 . S
C381 H395 0.933 . S
C382 Dy360 2.738 . S
C382 O365 1.255 . S
C382 O366 1.249 . S
C382 C376 1.516 . S
C383 O367 1.254 . S
C383 O368 1.257 . S
C384 O369 1.266 . S
C384 O370 1.236 . S
C385 C388 1.344 . S
C385 C389 1.328 . S
C385 C391 1.516 . S
C386 C387 1.304 . S
C386 C390 1.323 . S
C387 C386 1.304 . S
C387 C388 1.371 . S
C387 H396 0.930 . S
C388 C385 1.344 . S
C388 C387 1.371 . S
C388 H397 0.931 . S
C389 C385 1.328 . S
C389 C390 1.433 . S
C389 H398 0.931 . S
C390 C386 1.323 . S
C390 C389 1.433 . S
C390 H399 0.933 . S
C391 Dy361 2.738 . S
C391 O371 1.255 . S
C391 O372 1.249 . S
C391 C385 1.516 . S
H392 C378 0.930 . S
H393 C379 0.931 . S
H394 C380 0.931 . S
H395 C381 0.933 . S
H396 C387 0.930 . S
H397 C388 0.931 . S
H398 C389 0.931 . S
H399 C390 0.933 . S
Dy400 O403 2.307 . S
Dy400 O405 2.395 . S
Dy400 O406 2.379 . S
Dy400 O408 2.339 . S
Dy400 O410 2.298 . S
Dy400 O414 2.275 . S
Dy400 C422 2.738 . S
Dy401 O404 2.298 1_556 S
Dy401 O407 2.275 . S
Dy401 O409 2.307 1_556 S
Dy401 O411 2.395 . S
Dy401 O412 2.379 . S
Dy401 O415 2.339 1_556 S
Dy401 C431 2.738 . S
C402 O414 1.254 . S
C402 O415 1.257 . S
O403 Dy400 2.307 . S
O403 C413 1.266 . S
O404 Dy401 2.298 1_554 S
O404 C413 1.236 . S
O405 Dy400 2.395 . S
O405 C422 1.255 . S
O406 Dy400 2.379 . S
O406 C422 1.249 . S
O407 Dy401 2.275 . S
O407 C423 1.254 . S
O408 Dy400 2.339 . S
O408 C423 1.257 1_554 S
O409 Dy401 2.307 1_554 S
O409 C424 1.266 . S
O410 Dy400 2.298 . S
O410 C424 1.236 . S
O411 Dy401 2.395 . S
O411 C431 1.255 . S
O412 Dy401 2.379 . S
O412 C431 1.249 . S
C413 O403 1.266 . S
C413 O404 1.236 . S
O414 Dy400 2.275 . S
O414 C402 1.254 . S
O415 Dy401 2.339 1_554 S
O415 C402 1.257 . S
C416 C419 1.344 . S
C416 C420 1.328 . S
C416 C422 1.516 . S
C417 C418 1.304 . S
C417 C421 1.323 . S
C418 C417 1.304 . S
C418 C419 1.371 . S
C418 H432 0.930 . S
C419 C416 1.344 . S
C419 C418 1.371 . S
C419 H433 0.931 . S
C420 C416 1.328 . S
C420 C421 1.433 . S
C420 H434 0.931 . S
C421 C417 1.323 . S
C421 C420 1.433 . S
C421 H435 0.933 . S
C422 Dy400 2.738 . S
C422 O405 1.255 . S
C422 O406 1.249 . S
C422 C416 1.516 . S
C423 O407 1.254 . S
C423 O408 1.257 1_556 S
C424 O409 1.266 . S
C424 O410 1.236 . S
C425 C428 1.344 . S
C425 C429 1.328 . S
C425 C431 1.516 . S
C426 C427 1.304 . S
C426 C430 1.323 . S
C427 C426 1.304 . S
C427 C428 1.371 . S
C427 H436 0.930 . S
C428 C425 1.344 . S
C428 C427 1.371 . S
C428 H437 0.931 . S
C429 C425 1.328 . S
C429 C430 1.433 . S
C429 H438 0.931 . S
C430 C426 1.323 . S
C430 C429 1.433 . S
C430 H439 0.933 . S
C431 Dy401 2.738 . S
C431 O411 1.255 . S
C431 O412 1.249 . S
C431 C425 1.516 . S
H432 C418 0.930 . S
H433 C419 0.931 . S
H434 C420 0.931 . S
H435 C421 0.933 . S
H436 C427 0.930 . S
H437 C428 0.931 . S
H438 C429 0.931 . S
H439 C430 0.933 . S
Dy440 O443 2.307 . S
Dy440 O445 2.395 . S
Dy440 O446 2.379 . S
Dy440 O448 2.339 . S
Dy440 O450 2.298 . S
Dy440 O454 2.275 . S
Dy440 C462 2.738 . S
Dy441 O444 2.298 . S
Dy441 O447 2.275 . S
Dy441 O449 2.307 . S
Dy441 O451 2.395 . S
Dy441 O452 2.379 . S
Dy441 O455 2.339 . S
Dy441 C471 2.738 . S
C442 O454 1.254 . S
C442 O455 1.257 . S
O443 Dy440 2.307 . S
O443 C453 1.266 . S
O444 Dy441 2.298 . S
O444 C453 1.236 . S
O445 Dy440 2.395 . S
O445 C462 1.255 . S
O446 Dy440 2.379 . S
O446 C462 1.249 . S
O447 Dy441 2.275 . S
O447 C463 1.254 . S
O448 Dy440 2.339 . S
O448 C463 1.257 . S
O449 Dy441 2.307 . S
O449 C464 1.266 . S
O450 Dy440 2.298 . S
O450 C464 1.236 . S
O451 Dy441 2.395 . S
O451 C471 1.255 . S
O452 Dy441 2.379 . S
O452 C471 1.249 . S
C453 O443 1.266 . S
C453 O444 1.236 . S
O454 Dy440 2.275 . S
O454 C442 1.254 . S
O455 Dy441 2.339 . S
O455 C442 1.257 . S
C456 C459 1.344 . S
C456 C460 1.328 . S
C456 C462 1.516 . S
C457 C458 1.304 . S
C457 C461 1.323 . S
C458 C457 1.304 . S
C458 C459 1.371 . S
C458 H472 0.930 . S
C459 C456 1.344 . S
C459 C458 1.371 . S
C459 H473 0.931 . S
C460 C456 1.328 . S
C460 C461 1.433 . S
C460 H474 0.931 . S
C461 C457 1.323 . S
C461 C460 1.433 . S
C461 H475 0.933 . S
C462 Dy440 2.738 . S
C462 O445 1.255 . S
C462 O446 1.249 . S
C462 C456 1.516 . S
C463 O447 1.254 . S
C463 O448 1.257 . S
C464 O449 1.266 . S
C464 O450 1.236 . S
C465 C468 1.344 . S
C465 C469 1.328 . S
C465 C471 1.516 . S
C466 C467 1.304 . S
C466 C470 1.323 . S
C467 C466 1.304 . S
C467 C468 1.371 . S
C467 H476 0.930 . S
C468 C465 1.344 . S
C468 C467 1.371 . S
C468 H477 0.931 . S
C469 C465 1.328 . S
C469 C470 1.433 . S
C469 H478 0.931 . S
C470 C466 1.323 . S
C470 C469 1.433 . S
C470 H479 0.933 . S
C471 Dy441 2.738 . S
C471 O451 1.255 . S
C471 O452 1.249 . S
C471 C465 1.516 . S
H472 C458 0.930 . S
H473 C459 0.931 . S
H474 C460 0.931 . S
H475 C461 0.933 . S
H476 C467 0.930 . S
H477 C468 0.931 . S
H478 C469 0.931 . S
H479 C470 0.933 . S
Dy480 O483 2.307 . S
Dy480 O485 2.395 . S
Dy480 O486 2.379 . S
Dy480 O488 2.339 . S
Dy480 O490 2.298 . S
Dy480 O494 2.275 . S
Dy480 C502 2.738 . S
Dy481 O484 2.298 . S
Dy481 O487 2.275 . S
Dy481 O489 2.307 . S
Dy481 O491 2.395 . S
Dy481 O492 2.379 . S
Dy481 O495 2.339 . S
Dy481 C511 2.738 . S
C482 O494 1.254 . S
C482 O495 1.257 . S
O483 Dy480 2.307 . S
O483 C493 1.266 . S
O484 Dy481 2.298 . S
O484 C493 1.236 . S
O485 Dy480 2.395 . S
O485 C502 1.255 . S
O486 Dy480 2.379 . S
O486 C502 1.249 . S
O487 Dy481 2.275 . S
O487 C503 1.254 . S
O488 Dy480 2.339 . S
O488 C503 1.257 . S
O489 Dy481 2.307 . S
O489 C504 1.266 . S
O490 Dy480 2.298 . S
O490 C504 1.236 . S
O491 Dy481 2.395 . S
O491 C511 1.255 . S
O492 Dy481 2.379 . S
O492 C511 1.249 . S
C493 O483 1.266 . S
C493 O484 1.236 . S
O494 Dy480 2.275 . S
O494 C482 1.254 . S
O495 Dy481 2.339 . S
O495 C482 1.257 . S
C496 C499 1.344 . S
C496 C500 1.328 . S
C496 C502 1.516 . S
C497 C498 1.304 . S
C497 C501 1.323 . S
C498 C497 1.304 . S
C498 C499 1.371 . S
C498 H512 0.930 . S
C499 C496 1.344 . S
C499 C498 1.371 . S
C499 H513 0.931 . S
C500 C496 1.328 . S
C500 C501 1.433 . S
C500 H514 0.931 . S
C501 C497 1.323 . S
C501 C500 1.433 . S
C501 H515 0.933 . S
C502 Dy480 2.738 . S
C502 O485 1.255 . S
C502 O486 1.249 . S
C502 C496 1.516 . S
C503 O487 1.254 . S
C503 O488 1.257 . S
C504 O489 1.266 . S
C504 O490 1.236 . S
C505 C508 1.344 . S
C505 C509 1.328 . S
C505 C511 1.516 . S
C506 C507 1.304 . S
C506 C510 1.323 . S
C507 C506 1.304 . S
C507 C508 1.371 . S
C507 H516 0.930 . S
C508 C505 1.344 . S
C508 C507 1.371 . S
C508 H517 0.931 . S
C509 C505 1.328 . S
C509 C510 1.433 . S
C509 H518 0.931 . S
C510 C506 1.323 . S
C510 C509 1.433 . S
C510 H519 0.933 . S
C511 Dy481 2.738 . S
C511 O491 1.255 . S
C511 O492 1.249 . S
C511 C505 1.516 . S
H512 C498 0.930 . S
H513 C499 0.931 . S
H514 C500 0.931 . S
H515 C501 0.933 . S
H516 C507 0.930 . S
H517 C508 0.931 . S
H518 C509 0.931 . S
H519 C510 0.933 . S
Dy520 O523 2.307 . S
Dy520 O525 2.395 . S
Dy520 O526 2.379 . S
Dy520 O528 2.339 . S
Dy520 O530 2.298 . S
Dy520 O534 2.275 . S
Dy520 C542 2.738 . S
Dy521 O524 2.298 . S
Dy521 O527 2.275 . S
Dy521 O529 2.307 . S
Dy521 O531 2.395 . S
Dy521 O532 2.379 . S
Dy521 O535 2.339 . S
Dy521 C551 2.738 . S
C522 O534 1.254 . S
C522 O535 1.257 . S
O523 Dy520 2.307 . S
O523 C533 1.266 . S
O524 Dy521 2.298 . S
O524 C533 1.236 . S
O525 Dy520 2.395 . S
O525 C542 1.255 . S
O526 Dy520 2.379 . S
O526 C542 1.249 . S
O527 Dy521 2.275 . S
O527 C543 1.254 . S
O528 Dy520 2.339 . S
O528 C543 1.257 . S
O529 Dy521 2.307 . S
O529 C544 1.266 . S
O530 Dy520 2.298 . S
O530 C544 1.236 . S
O531 Dy521 2.395 . S
O531 C551 1.255 . S
O532 Dy521 2.379 . S
O532 C551 1.249 . S
C533 O523 1.266 . S
C533 O524 1.236 . S
O534 Dy520 2.275 . S
O534 C522 1.254 . S
O535 Dy521 2.339 . S
O535 C522 1.257 . S
C536 C539 1.344 . S
C536 C540 1.328 . S
C536 C542 1.516 . S
C537 C538 1.304 . S
C537 C541 1.323 . S
C538 C537 1.304 . S
C538 C539 1.371 . S
C538 H552 0.930 . S
C539 C536 1.344 . S
C539 C538 1.371 . S
C539 H553 0.931 . S
C540 C536 1.328 . S
C540 C541 1.433 . S
C540 H554 0.931 . S
C541 C537 1.323 . S
C541 C540 1.433 . S
C541 H555 0.933 . S
C542 Dy520 2.738 . S
C542 O525 1.255 . S
C542 O526 1.249 . S
C542 C536 1.516 . S
C543 O527 1.254 . S
C543 O528 1.257 . S
C544 O529 1.266 . S
C544 O530 1.236 . S
C545 C548 1.344 . S
C545 C549 1.328 . S
C545 C551 1.516 . S
C546 C547 1.304 . S
C546 C550 1.323 . S
C547 C546 1.304 . S
C547 C548 1.371 . S
C547 H556 0.930 . S
C548 C545 1.344 . S
C548 C547 1.371 . S
C548 H557 0.931 . S
C549 C545 1.328 . S
C549 C550 1.433 . S
C549 H558 0.931 . S
C550 C546 1.323 . S
C550 C549 1.433 . S
C550 H559 0.933 . S
C551 Dy521 2.738 . S
C551 O531 1.255 . S
C551 O532 1.249 . S
C551 C545 1.516 . S
H552 C538 0.930 . S
H553 C539 0.931 . S
H554 C540 0.931 . S
H555 C541 0.933 . S
H556 C547 0.930 . S
H557 C548 0.931 . S
H558 C549 0.931 . S
H559 C550 0.933 . S
Dy560 O563 2.307 1_554 S
Dy560 O565 2.395 . S
Dy560 O566 2.379 . S
Dy560 O568 2.339 1_554 S
Dy560 O570 2.298 1_554 S
Dy560 O574 2.275 . S
Dy560 C582 2.738 . S
Dy561 O564 2.298 . S
Dy561 O567 2.275 . S
Dy561 O569 2.307 . S
Dy561 O571 2.395 . S
Dy561 O572 2.379 . S
Dy561 O575 2.339 . S
Dy561 C591 2.738 . S
C562 O574 1.254 . S
C562 O575 1.257 1_554 S
O563 Dy560 2.307 1_556 S
O563 C573 1.266 . S
O564 Dy561 2.298 . S
O564 C573 1.236 . S
O565 Dy560 2.395 . S
O565 C582 1.255 . S
O566 Dy560 2.379 . S
O566 C582 1.249 . S
O567 Dy561 2.275 . S
O567 C583 1.254 . S
O568 Dy560 2.339 1_556 S
O568 C583 1.257 . S
O569 Dy561 2.307 . S
O569 C584 1.266 . S
O570 Dy560 2.298 1_556 S
O570 C584 1.236 . S
O571 Dy561 2.395 . S
O571 C591 1.255 . S
O572 Dy561 2.379 . S
O572 C591 1.249 . S
C573 O563 1.266 . S
C573 O564 1.236 . S
O574 Dy560 2.275 . S
O574 C562 1.254 . S
O575 Dy561 2.339 . S
O575 C562 1.257 1_556 S
C576 C579 1.344 . S
C576 C580 1.328 . S
C576 C582 1.516 . S
C577 C578 1.304 . S
C577 C581 1.323 . S
C578 C577 1.304 . S
C578 C579 1.371 . S
C578 H592 0.930 . S
C579 C576 1.344 . S
C579 C578 1.371 . S
C579 H593 0.931 . S
C580 C576 1.328 . S
C580 C581 1.433 . S
C580 H594 0.931 . S
C581 C577 1.323 . S
C581 C580 1.433 . S
C581 H595 0.933 . S
C582 Dy560 2.738 . S
C582 O565 1.255 . S
C582 O566 1.249 . S
C582 C576 1.516 . S
C583 O567 1.254 . S
C583 O568 1.257 . S
C584 O569 1.266 . S
C584 O570 1.236 . S
C585 C588 1.344 . S
C585 C589 1.328 . S
C585 C591 1.516 . S
C586 C587 1.304 . S
C586 C590 1.323 . S
C587 C586 1.304 . S
C587 C588 1.371 . S
C587 H596 0.930 . S
C588 C585 1.344 . S
C588 C587 1.371 . S
C588 H597 0.931 . S
C589 C585 1.328 . S
C589 C590 1.433 . S
C589 H598 0.931 . S
C590 C586 1.323 . S
C590 C589 1.433 . S
C590 H599 0.933 . S
C591 Dy561 2.738 . S
C591 O571 1.255 . S
C591 O572 1.249 . S
C591 C585 1.516 . S
H592 C578 0.930 . S
H593 C579 0.931 . S
H594 C580 0.931 . S
H595 C581 0.933 . S
H596 C587 0.930 . S
H597 C588 0.931 . S
H598 C589 0.931 . S
H599 C590 0.933 . S
Dy600 O603 2.307 . S
Dy600 O605 2.395 . S
Dy600 O606 2.379 . S
Dy600 O608 2.339 . S
Dy600 O610 2.298 . S
Dy600 O614 2.275 . S
Dy600 C622 2.738 . S
Dy601 O604 2.298 . S
Dy601 O607 2.275 . S
Dy601 O609 2.307 . S
Dy601 O611 2.395 . S
Dy601 O612 2.379 . S
Dy601 O615 2.339 . S
Dy601 C631 2.738 . S
C602 O614 1.254 . S
C602 O615 1.257 . S
O603 Dy600 2.307 . S
O603 C613 1.266 . S
O604 Dy601 2.298 . S
O604 C613 1.236 . S
O605 Dy600 2.395 . S
O605 C622 1.255 . S
O606 Dy600 2.379 . S
O606 C622 1.249 . S
O607 Dy601 2.275 . S
O607 C623 1.254 . S
O608 Dy600 2.339 . S
O608 C623 1.257 . S
O609 Dy601 2.307 . S
O609 C624 1.266 . S
O610 Dy600 2.298 . S
O610 C624 1.236 . S
O611 Dy601 2.395 . S
O611 C631 1.255 . S
O612 Dy601 2.379 . S
O612 C631 1.249 . S
C613 O603 1.266 . S
C613 O604 1.236 . S
O614 Dy600 2.275 . S
O614 C602 1.254 . S
O615 Dy601 2.339 . S
O615 C602 1.257 . S
C616 C619 1.344 . S
C616 C620 1.328 . S
C616 C622 1.516 . S
C617 C618 1.304 . S
C617 C621 1.323 . S
C618 C617 1.304 . S
C618 C619 1.371 . S
C618 H632 0.930 . S
C619 C616 1.344 . S
C619 C618 1.371 . S
C619 H633 0.931 . S
C620 C616 1.328 . S
C620 C621 1.433 . S
C620 H634 0.931 . S
C621 C617 1.323 . S
C621 C620 1.433 . S
C621 H635 0.933 . S
C622 Dy600 2.738 . S
C622 O605 1.255 . S
C622 O606 1.249 . S
C622 C616 1.516 . S
C623 O607 1.254 . S
C623 O608 1.257 . S
C624 O609 1.266 . S
C624 O610 1.236 . S
C625 C628 1.344 . S
C625 C629 1.328 . S
C625 C631 1.516 . S
C626 C627 1.304 . S
C626 C630 1.323 . S
C627 C626 1.304 . S
C627 C628 1.371 . S
C627 H636 0.930 . S
C628 C625 1.344 . S
C628 C627 1.371 . S
C628 H637 0.931 . S
C629 C625 1.328 . S
C629 C630 1.433 . S
C629 H638 0.931 . S
C630 C626 1.323 . S
C630 C629 1.433 . S
C630 H639 0.933 . S
C631 Dy601 2.738 . S
C631 O611 1.255 . S
C631 O612 1.249 . S
C631 C625 1.516 . S
H632 C618 0.930 . S
H633 C619 0.931 . S
H634 C620 0.931 . S
H635 C621 0.933 . S
H636 C627 0.930 . S
H637 C628 0.931 . S
H638 C629 0.931 . S
H639 C630 0.933 . S
H640 C646 0.930 . S
H641 C650 0.933 1_556 S
H642 C655 0.919 1_556 S
H643 C653 0.929 . S
H644 C648 0.926 . S
H645 C654 0.929 . S
C646 H640 0.930 . S
C646 C647 1.367 . S
C646 C654 1.378 . S
C647 C646 1.367 . S
C647 C655 1.433 . S
C648 H644 0.926 . S
C648 C650 1.378 . S
C648 C652 1.350 . S
C649 C652 1.463 . S
C649 C654 1.350 . S
C649 N657 1.427 . S
C650 H641 0.933 1_554 S
C650 C648 1.378 . S
C650 C651 1.367 . S
C651 C650 1.367 . S
C651 C653 1.433 . S
C652 C648 1.350 . S
C652 C649 1.463 . S
C652 N656 1.427 . S
C653 H643 0.929 . S
C653 C651 1.433 . S
C653 N656 1.384 . S
C654 H645 0.929 . S
C654 C646 1.378 . S
C654 C649 1.350 . S
C655 H642 0.919 1_554 S
C655 C647 1.433 . S
C655 N657 1.384 . S
N656 C652 1.427 . S
N656 C653 1.384 . S
N657 C649 1.427 . S
N657 C655 1.384 . S
H658 C664 0.930 . S
H659 C668 0.930 . S
H660 C673 0.929 . S
H661 C671 0.929 . S
H662 C666 0.929 . S
H663 C672 0.929 . S
C664 H658 0.930 . S
C664 C665 1.367 . S
C664 C672 1.378 . S
C665 C664 1.367 . S
C665 C673 1.433 . S
C666 H662 0.929 . S
C666 C668 1.378 . S
C666 C670 1.350 . S
C667 C670 1.463 . S
C667 C672 1.350 . S
C667 N675 1.427 . S
C668 H659 0.930 . S
C668 C666 1.378 . S
C668 C669 1.367 . S
C669 C668 1.367 . S
C669 C671 1.433 . S
C670 C666 1.350 . S
C670 C667 1.463 . S
C670 N674 1.427 . S
C671 H661 0.929 . S
C671 C669 1.433 . S
C671 N674 1.384 . S
C672 H663 0.929 . S
C672 C664 1.378 . S
C672 C667 1.350 . S
C673 H660 0.929 . S
C673 C665 1.433 . S
C673 N675 1.384 . S
N674 C670 1.427 . S
N674 C671 1.384 . S
N675 C667 1.427 . S
N675 C673 1.384 . S
H676 C682 0.930 . S
H677 C686 0.930 . S
H678 C691 0.929 . S
H679 C689 0.929 . S
H680 C684 0.929 . S
H681 C690 0.929 . S
C682 H676 0.930 . S
C682 C683 1.367 . S
C682 C690 1.378 . S
C683 C682 1.367 . S
C683 C691 1.433 . S
C684 H680 0.929 . S
C684 C686 1.378 . S
C684 C688 1.350 . S
C685 C688 1.463 1_455 S
C685 C690 1.350 . S
C685 N693 1.427 . S
C686 H677 0.930 . S
C686 C684 1.378 . S
C686 C687 1.367 . S
C687 C686 1.367 . S
C687 C689 1.433 . S
C688 C684 1.350 . S
C688 C685 1.463 1_655 S
C688 N692 1.427 . S
C689 H679 0.929 . S
C689 C687 1.433 . S
C689 N692 1.384 . S
C690 H681 0.929 . S
C690 C682 1.378 . S
C690 C685 1.350 . S
C691 H678 0.929 . S
C691 C683 1.433 . S
C691 N693 1.384 . S
N692 C688 1.427 . S
N692 C689 1.384 . S
N693 C685 1.427 . S
N693 C691 1.384 . S
H694 C700 0.930 . S
H695 C704 0.930 . S
H696 C709 0.929 . S
H697 C707 0.929 . S
H698 C702 0.929 . S
H699 C708 0.929 . S
C700 H694 0.930 . S
C700 C701 1.367 . S
C700 C708 1.378 . S
C701 C700 1.367 . S
C701 C709 1.433 . S
C702 H698 0.929 . S
C702 C704 1.378 . S
C702 C706 1.350 . S
C703 C706 1.463 1_655 S
C703 C708 1.350 . S
C703 N711 1.427 . S
C704 H695 0.930 . S
C704 C702 1.378 . S
C704 C705 1.367 . S
C705 C704 1.367 . S
C705 C707 1.433 . S
C706 C702 1.350 . S
C706 C703 1.463 1_455 S
C706 N710 1.427 . S
C707 H697 0.929 . S
C707 C705 1.433 . S
C707 N710 1.384 . S
C708 H699 0.929 . S
C708 C700 1.378 . S
C708 C703 1.350 . S
C709 H696 0.929 . S
C709 C701 1.433 . S
C709 N711 1.384 . S
N710 C706 1.427 . S
N710 C707 1.384 . S
N711 C703 1.427 . S
N711 C709 1.384 . S
H712 C718 0.930 . S
H713 C722 0.930 . S
H714 C727 0.929 . S
H715 C725 0.929 . S
H716 C720 0.929 . S
H717 C726 0.929 . S
C718 H712 0.930 . S
C718 C719 1.367 . S
C718 C726 1.378 . S
C719 C718 1.367 . S
C719 C727 1.433 . S
C720 H716 0.929 . S
C720 C722 1.378 . S
C720 C724 1.350 . S
C721 C724 1.463 . S
C721 C726 1.350 . S
C721 N729 1.427 . S
C722 H713 0.930 . S
C722 C720 1.378 . S
C722 C723 1.367 . S
C723 C722 1.367 . S
C723 C725 1.433 . S
C724 C720 1.350 . S
C724 C721 1.463 . S
C724 N728 1.427 . S
C725 H715 0.929 . S
C725 C723 1.433 . S
C725 N728 1.384 . S
C726 H717 0.929 . S
C726 C718 1.378 . S
C726 C721 1.350 . S
C727 H714 0.929 . S
C727 C719 1.433 . S
C727 N729 1.384 . S
N728 C724 1.427 . S
N728 C725 1.384 . S
N729 C721 1.427 . S
N729 C727 1.384 . S
H730 C736 0.930 . S
H731 C740 0.930 . S
H732 C745 0.929 . S
H733 C743 0.929 . S
H734 C738 0.929 . S
H735 C744 0.929 . S
C736 H730 0.930 . S
C736 C737 1.367 . S
C736 C744 1.378 . S
C737 C736 1.367 . S
C737 C745 1.433 . S
C738 H734 0.929 . S
C738 C740 1.378 . S
C738 C742 1.350 . S
C739 C742 1.463 . S
C739 C744 1.350 . S
C739 N747 1.427 . S
C740 H731 0.930 . S
C740 C738 1.378 . S
C740 C741 1.367 . S
C741 C740 1.367 . S
C741 C743 1.433 . S
C742 C738 1.350 . S
C742 C739 1.463 . S
C742 N746 1.427 . S
C743 H733 0.929 . S
C743 C741 1.433 . S
C743 N746 1.384 . S
C744 H735 0.929 . S
C744 C736 1.378 . S
C744 C739 1.350 . S
C745 H732 0.929 . S
C745 C737 1.433 . S
C745 N747 1.384 . S
N746 C742 1.427 . S
N746 C743 1.384 . S
N747 C739 1.427 . S
N747 C745 1.384 . S
H748 C754 0.930 . S
H749 C758 0.930 . S
H750 C763 0.929 . S
H751 C761 0.929 . S
H752 C756 0.929 . S
H753 C762 0.929 . S
C754 H748 0.930 . S
C754 C755 1.367 . S
C754 C762 1.378 . S
C755 C754 1.367 . S
C755 C763 1.433 . S
C756 H752 0.929 . S
C756 C758 1.378 . S
C756 C760 1.350 . S
C757 C760 1.463 1_655 S
C757 C762 1.350 . S
C757 N765 1.427 . S
C758 H749 0.930 . S
C758 C756 1.378 . S
C758 C759 1.367 . S
C759 C758 1.367 . S
C759 C761 1.433 . S
C760 C756 1.350 . S
C760 C757 1.463 1_455 S
C760 N764 1.427 . S
C761 H751 0.929 . S
C761 C759 1.433 . S
C761 N764 1.384 . S
C762 H753 0.929 . S
C762 C754 1.378 . S
C762 C757 1.350 . S
C763 H750 0.929 . S
C763 C755 1.433 . S
C763 N765 1.384 . S
N764 C760 1.427 . S
N764 C761 1.384 . S
N765 C757 1.427 . S
N765 C763 1.384 . S
H766 C772 0.930 . S
H767 C776 0.930 . S
H768 C781 0.929 . S
H769 C779 0.929 . S
H770 C774 0.929 . S
H771 C780 0.929 . S
C772 H766 0.930 . S
C772 C773 1.367 . S
C772 C780 1.378 . S
C773 C772 1.367 . S
C773 C781 1.433 . S
C774 H770 0.929 . S
C774 C776 1.378 . S
C774 C778 1.350 . S
C775 C778 1.463 1_455 S
C775 C780 1.350 . S
C775 N783 1.427 . S
C776 H767 0.930 . S
C776 C774 1.378 . S
C776 C777 1.367 . S
C777 C776 1.367 . S
C777 C779 1.433 . S
C778 C774 1.350 . S
C778 C775 1.463 1_655 S
C778 N782 1.427 . S
C779 H769 0.929 . S
C779 C777 1.433 . S
C779 N782 1.384 . S
C780 H771 0.929 . S
C780 C772 1.378 . S
C780 C775 1.350 . S
C781 H768 0.929 . S
C781 C773 1.433 . S
C781 N783 1.384 . S
N782 C778 1.427 . S
N782 C779 1.384 . S
N783 C775 1.427 . S
N783 C781 1.384 . S
H784 C790 0.930 . S
H785 C794 0.930 . S
H786 C799 0.929 . S
H787 C797 0.929 . S
H788 C792 0.929 . S
H789 C798 0.929 . S
C790 H784 0.930 . S
C790 C791 1.367 . S
C790 C798 1.378 . S
C791 C790 1.367 . S
C791 C799 1.433 . S
C792 H788 0.929 . S
C792 C794 1.378 . S
C792 C796 1.350 . S
C793 C796 1.463 . S
C793 C798 1.350 . S
C793 N801 1.427 . S
C794 H785 0.930 . S
C794 C792 1.378 . S
C794 C795 1.367 . S
C795 C794 1.367 . S
C795 C797 1.433 . S
C796 C792 1.350 . S
C796 C793 1.463 . S
C796 N800 1.427 . S
C797 H787 0.929 . S
C797 C795 1.433 . S
C797 N800 1.384 . S
C798 H789 0.929 . S
C798 C790 1.378 . S
C798 C793 1.350 . S
C799 H786 0.929 . S
C799 C791 1.433 . S
C799 N801 1.384 . S
N800 C796 1.427 . S
N800 C797 1.384 . S
N801 C793 1.427 . S
N801 C799 1.384 . S
H802 C808 0.930 . S
H803 C812 0.930 . S
H804 C817 0.929 . S
H805 C815 0.929 . S
H806 C810 0.929 . S
H807 C816 0.929 . S
C808 H802 0.930 . S
C808 C809 1.367 . S
C808 C816 1.378 . S
C809 C808 1.367 . S
C809 C817 1.433 . S
C810 H806 0.929 . S
C810 C812 1.378 . S
C810 C814 1.350 . S
C811 C814 1.463 . S
C811 C816 1.350 . S
C811 N819 1.427 . S
C812 H803 0.930 . S
C812 C810 1.378 . S
C812 C813 1.367 . S
C813 C812 1.367 . S
C813 C815 1.433 . S
C814 C810 1.350 . S
C814 C811 1.463 . S
C814 N818 1.427 . S
C815 H805 0.929 . S
C815 C813 1.433 . S
C815 N818 1.384 . S
C816 H807 0.929 . S
C816 C808 1.378 . S
C816 C811 1.350 . S
C817 H804 0.929 . S
C817 C809 1.433 . S
C817 N819 1.384 . S
N818 C814 1.427 . S
N818 C815 1.384 . S
N819 C811 1.427 . S
N819 C817 1.384 . S
H820 C826 0.930 . S
H821 C830 0.930 . S
H822 C835 0.929 . S
H823 C833 0.929 . S
H824 C828 0.929 . S
H825 C834 0.929 . S
C826 H820 0.930 . S
C826 C827 1.367 . S
C826 C834 1.378 . S
C827 C826 1.367 . S
C827 C835 1.433 . S
C828 H824 0.929 . S
C828 C830 1.378 . S
C828 C832 1.350 . S
C829 C832 1.463 . S
C829 C834 1.350 . S
C829 N837 1.427 . S
C830 H821 0.930 . S
C830 C828 1.378 . S
C830 C831 1.367 . S
C831 C830 1.367 . S
C831 C833 1.433 . S
C832 C828 1.350 . S
C832 C829 1.463 . S
C832 N836 1.427 . S
C833 H823 0.929 . S
C833 C831 1.433 . S
C833 N836 1.384 . S
C834 H825 0.929 . S
C834 C826 1.378 . S
C834 C829 1.350 . S
C835 H822 0.929 . S
C835 C827 1.433 . S
C835 N837 1.384 . S
N836 C832 1.427 . S
N836 C833 1.384 . S
N837 C829 1.427 . S
N837 C835 1.384 . S
H838 C844 0.930 . S
H839 C848 0.930 . S
H840 C853 0.929 . S
H841 C851 0.929 . S
H842 C846 0.929 . S
H843 C852 0.929 . S
C844 H838 0.930 . S
C844 C845 1.367 . S
C844 C852 1.378 . S
C845 C844 1.367 . S
C845 C853 1.433 . S
C846 H842 0.929 . S
C846 C848 1.378 . S
C846 C850 1.350 . S
C847 C850 1.463 . S
C847 C852 1.350 . S
C847 N855 1.427 . S
C848 H839 0.930 . S
C848 C846 1.378 . S
C848 C849 1.367 . S
C849 C848 1.367 . S
C849 C851 1.433 . S
C850 C846 1.350 . S
C850 C847 1.463 . S
C850 N854 1.427 . S
C851 H841 0.929 . S
C851 C849 1.433 . S
C851 N854 1.384 . S
C852 H843 0.929 . S
C852 C844 1.378 . S
C852 C847 1.350 . S
C853 H840 0.929 . S
C853 C845 1.433 . S
C853 N855 1.384 . S
N854 C850 1.427 . S
N854 C851 1.384 . S
N855 C847 1.427 . S
N855 C853 1.384 . S
H856 C862 0.930 . S
H857 C866 0.930 . S
H858 C871 0.929 . S
H859 C869 0.929 . S
H860 C864 0.929 . S
H861 C870 0.929 . S
C862 H856 0.930 . S
C862 C863 1.367 . S
C862 C870 1.378 . S
C863 C862 1.367 . S
C863 C871 1.433 . S
C864 H860 0.929 . S
C864 C866 1.378 . S
C864 C868 1.350 . S
C865 C868 1.463 . S
C865 C870 1.350 . S
C865 N873 1.427 . S
C866 H857 0.930 . S
C866 C864 1.378 . S
C866 C867 1.367 . S
C867 C866 1.367 . S
C867 C869 1.433 . S
C868 C864 1.350 . S
C868 C865 1.463 . S
C868 N872 1.427 . S
C869 H859 0.929 . S
C869 C867 1.433 . S
C869 N872 1.384 . S
C870 H861 0.929 . S
C870 C862 1.378 . S
C870 C865 1.350 . S
C871 H858 0.929 . S
C871 C863 1.433 . S
C871 N873 1.384 . S
N872 C868 1.427 . S
N872 C869 1.384 . S
N873 C865 1.427 . S
N873 C871 1.384 . S
H874 C880 0.930 . S
H875 C884 0.930 . S
H876 C889 0.929 . S
H877 C887 0.929 . S
H878 C882 0.929 . S
H879 C888 0.929 . S
C880 H874 0.930 . S
C880 C881 1.367 . S
C880 C888 1.378 . S
C881 C880 1.367 . S
C881 C889 1.433 . S
C882 H878 0.929 . S
C882 C884 1.378 . S
C882 C886 1.350 . S
C883 C886 1.463 . S
C883 C888 1.350 . S
C883 N891 1.427 . S
C884 H875 0.930 . S
C884 C882 1.378 . S
C884 C885 1.367 . S
C885 C884 1.367 . S
C885 C887 1.433 . S
C886 C882 1.350 . S
C886 C883 1.463 . S
C886 N890 1.427 . S
C887 H877 0.929 . S
C887 C885 1.433 . S
C887 N890 1.384 . S
C888 H879 0.929 . S
C888 C880 1.378 . S
C888 C883 1.350 . S
C889 H876 0.929 . S
C889 C881 1.433 . S
C889 N891 1.384 . S
N890 C886 1.427 . S
N890 C887 1.384 . S
N891 C883 1.427 . S
N891 C889 1.384 . S
H892 C898 0.930 . S
H893 C902 0.930 . S
H894 C907 0.929 . S
H895 C905 0.929 . S
H896 C900 0.929 . S
H897 C906 0.929 . S
C898 H892 0.930 . S
C898 C899 1.367 . S
C898 C906 1.378 . S
C899 C898 1.367 . S
C899 C907 1.433 . S
C900 H896 0.929 . S
C900 C902 1.378 . S
C900 C904 1.350 . S
C901 C904 1.463 . S
C901 C906 1.350 . S
C901 N909 1.427 . S
C902 H893 0.930 . S
C902 C900 1.378 . S
C902 C903 1.367 . S
C903 C902 1.367 . S
C903 C905 1.433 . S
C904 C900 1.350 . S
C904 C901 1.463 . S
C904 N908 1.427 . S
C905 H895 0.929 . S
C905 C903 1.433 . S
C905 N908 1.384 . S
C906 H897 0.929 . S
C906 C898 1.378 . S
C906 C901 1.350 . S
C907 H894 0.929 . S
C907 C899 1.433 . S
C907 N909 1.384 . S
N908 C904 1.427 . S
N908 C905 1.384 . S
N909 C901 1.427 . S
N909 C907 1.384 . S
H910 C916 0.930 . S
H911 C920 0.930 . S
H912 C925 0.929 . S
H913 C923 0.929 . S
H914 C918 0.929 . S
H915 C924 0.929 . S
C916 H910 0.930 . S
C916 C917 1.367 . S
C916 C924 1.378 . S
C917 C916 1.367 . S
C917 C925 1.433 . S
C918 H914 0.929 . S
C918 C920 1.378 . S
C918 C922 1.350 . S
C919 C922 1.463 . S
C919 C924 1.350 . S
C919 N927 1.427 . S
C920 H911 0.930 . S
C920 C918 1.378 . S
C920 C921 1.367 . S
C921 C920 1.367 . S
C921 C923 1.433 . S
C922 C918 1.350 . S
C922 C919 1.463 . S
C922 N926 1.427 . S
C923 H913 0.929 . S
C923 C921 1.433 . S
C923 N926 1.384 . S
C924 H915 0.929 . S
C924 C916 1.378 . S
C924 C919 1.350 . S
C925 H912 0.929 . S
C925 C917 1.433 . S
C925 N927 1.384 . S
N926 C922 1.427 . S
N926 C923 1.384 . S
N927 C919 1.427 . S
N927 C925 1.384 . S
H928 C934 0.930 . S
H929 C938 0.930 . S
H930 C943 0.929 . S
H931 C941 0.929 . S
H932 C936 0.929 . S
H933 C942 0.929 . S
C934 H928 0.930 . S
C934 C935 1.367 . S
C934 C942 1.378 . S
C935 C934 1.367 . S
C935 C943 1.433 . S
C936 H932 0.929 . S
C936 C938 1.378 . S
C936 C940 1.350 . S
C937 C940 1.463 . S
C937 C942 1.350 . S
C937 N945 1.427 . S
C938 H929 0.930 . S
C938 C936 1.378 . S
C938 C939 1.367 . S
C939 C938 1.367 . S
C939 C941 1.433 . S
C940 C936 1.350 . S
C940 C937 1.463 . S
C940 N944 1.427 . S
C941 H931 0.929 . S
C941 C939 1.433 . S
C941 N944 1.384 . S
C942 H933 0.929 . S
C942 C934 1.378 . S
C942 C937 1.350 . S
C943 H930 0.929 . S
C943 C935 1.433 . S
C943 N945 1.384 . S
N944 C940 1.427 . S
N944 C941 1.384 . S
N945 C937 1.427 . S
N945 C943 1.384 . S
H946 C952 0.930 . S
H947 C956 0.930 . S
H948 C961 0.929 . S
H949 C959 0.929 . S
H950 C954 0.929 . S
H951 C960 0.929 . S
C952 H946 0.930 . S
C952 C953 1.367 . S
C952 C960 1.378 . S
C953 C952 1.367 . S
C953 C961 1.433 . S
C954 H950 0.929 . S
C954 C956 1.378 . S
C954 C958 1.350 . S
C955 C958 1.463 . S
C955 C960 1.350 1_565 S
C955 N963 1.427 . S
C956 H947 0.930 . S
C956 C954 1.378 . S
C956 C957 1.367 . S
C957 C956 1.367 . S
C957 C959 1.433 . S
C958 C954 1.350 . S
C958 C955 1.463 . S
C958 N962 1.427 . S
C959 H949 0.929 . S
C959 C957 1.433 . S
C959 N962 1.384 . S
C960 H951 0.929 . S
C960 C952 1.378 . S
C960 C955 1.350 1_545 S
C961 H948 0.929 . S
C961 C953 1.433 . S
C961 N963 1.384 1_545 S
N962 C958 1.427 . S
N962 C959 1.384 . S
N963 C955 1.427 . S
N963 C961 1.384 1_565 S
H964 C970 0.930 . S
H965 C974 0.930 . S
H966 C979 0.929 . S
H967 C977 0.929 . S
H968 C972 0.929 . S
H969 C978 0.929 . S
C970 H964 0.930 . S
C970 C971 1.367 . S
C970 C978 1.378 . S
C971 C970 1.367 . S
C971 C979 1.433 . S
C972 H968 0.929 . S
C972 C974 1.378 . S
C972 C976 1.350 . S
C973 C976 1.463 . S
C973 C978 1.350 . S
C973 N981 1.427 . S
C974 H965 0.930 . S
C974 C972 1.378 . S
C974 C975 1.367 . S
C975 C974 1.367 . S
C975 C977 1.433 . S
C976 C972 1.350 . S
C976 C973 1.463 . S
C976 N980 1.427 . S
C977 H967 0.929 . S
C977 C975 1.433 . S
C977 N980 1.384 . S
C978 H969 0.929 . S
C978 C970 1.378 . S
C978 C973 1.350 . S
C979 H966 0.929 . S
C979 C971 1.433 . S
C979 N981 1.384 . S
N980 C976 1.427 . S
N980 C977 1.384 . S
N981 C973 1.427 . S
N981 C979 1.384 . S
H982 C988 0.930 . S
H983 C992 0.930 . S
H984 C997 0.929 . S
H985 C995 0.929 . S
H986 C990 0.929 . S
H987 C996 0.929 . S
C988 H982 0.930 . S
C988 C989 1.367 . S
C988 C996 1.378 . S
C989 C988 1.367 . S
C989 C997 1.433 . S
C990 H986 0.929 . S
C990 C992 1.378 . S
C990 C994 1.350 . S
C991 C994 1.463 . S
C991 C996 1.350 1_545 S
C991 N999 1.427 . S
C992 H983 0.930 . S
C992 C990 1.378 . S
C992 C993 1.367 . S
C993 C992 1.367 . S
C993 C995 1.433 . S
C994 C990 1.350 . S
C994 C991 1.463 . S
C994 N998 1.427 . S
C995 H985 0.929 . S
C995 C993 1.433 . S
C995 N998 1.384 . S
C996 H987 0.929 . S
C996 C988 1.378 . S
C996 C991 1.350 1_565 S
C997 H984 0.929 . S
C997 C989 1.433 . S
C997 N999 1.384 1_565 S
N998 C994 1.427 . S
N998 C995 1.384 . S
N999 C991 1.427 . S
N999 C997 1.384 1_545 S
H1000 C1006 0.930 . S
H1001 C1010 0.930 . S
H1002 C1015 0.929 . S
H1003 C1013 0.929 . S
H1004 C1008 0.929 . S
H1005 C1014 0.929 . S
C1006 H1000 0.930 . S
C1006 C1007 1.367 . S
C1006 C1014 1.378 . S
C1007 C1006 1.367 . S
C1007 C1015 1.433 . S
C1008 H1004 0.929 . S
C1008 C1010 1.378 . S
C1008 C1012 1.350 . S
C1009 C1012 1.463 . S
C1009 C1014 1.350 . S
C1009 N1017 1.427 . S
C1010 H1001 0.930 . S
C1010 C1008 1.378 . S
C1010 C1011 1.367 . S
C1011 C1010 1.367 . S
C1011 C1013 1.433 . S
C1012 C1008 1.350 . S
C1012 C1009 1.463 . S
C1012 N1016 1.427 . S
C1013 H1003 0.929 . S
C1013 C1011 1.433 . S
C1013 N1016 1.384 . S
C1014 H1005 0.929 . S
C1014 C1006 1.378 . S
C1014 C1009 1.350 . S
C1015 H1002 0.929 . S
C1015 C1007 1.433 . S
C1015 N1017 1.384 . S
N1016 C1012 1.427 . S
N1016 C1013 1.384 . S
N1017 C1009 1.427 . S
N1017 C1015 1.384 . S
H1018 C1024 0.930 . S
H1019 C1028 0.930 . S
H1020 C1033 0.929 . S
H1021 C1031 0.929 . S
H1022 C1026 0.929 . S
H1023 C1032 0.929 . S
C1024 H1018 0.930 . S
C1024 C1025 1.367 . S
C1024 C1032 1.378 . S
C1025 C1024 1.367 . S
C1025 C1033 1.433 . S
C1026 H1022 0.929 . S
C1026 C1028 1.378 . S
C1026 C1030 1.350 1_565 S
C1027 C1030 1.463 . S
C1027 C1032 1.350 . S
C1027 N1035 1.427 . S
C1028 H1019 0.930 . S
C1028 C1026 1.378 . S
C1028 C1029 1.367 . S
C1029 C1028 1.367 . S
C1029 C1031 1.433 . S
C1030 C1026 1.350 1_545 S
C1030 C1027 1.463 . S
C1030 N1034 1.427 . S
C1031 H1021 0.929 . S
C1031 C1029 1.433 . S
C1031 N1034 1.384 1_565 S
C1032 H1023 0.929 . S
C1032 C1024 1.378 . S
C1032 C1027 1.350 . S
C1033 H1020 0.929 . S
C1033 C1025 1.433 . S
C1033 N1035 1.384 . S
N1034 C1030 1.427 . S
N1034 C1031 1.384 1_545 S
N1035 C1027 1.427 . S
N1035 C1033 1.384 . S
H1036 C1042 0.930 . S
H1037 C1046 0.930 . S
H1038 C1051 0.929 . S
H1039 C1049 0.929 . S
H1040 C1044 0.929 . S
H1041 C1050 0.929 . S
C1042 H1036 0.930 . S
C1042 C1043 1.367 . S
C1042 C1050 1.378 . S
C1043 C1042 1.367 . S
C1043 C1051 1.433 . S
C1044 H1040 0.929 . S
C1044 C1046 1.378 . S
C1044 C1048 1.350 . S
C1045 C1048 1.463 . S
C1045 C1050 1.350 . S
C1045 N1053 1.427 . S
C1046 H1037 0.930 . S
C1046 C1044 1.378 . S
C1046 C1047 1.367 . S
C1047 C1046 1.367 . S
C1047 C1049 1.433 . S
C1048 C1044 1.350 . S
C1048 C1045 1.463 . S
C1048 N1052 1.427 . S
C1049 H1039 0.929 . S
C1049 C1047 1.433 . S
C1049 N1052 1.384 . S
C1050 H1041 0.929 . S
C1050 C1042 1.378 . S
C1050 C1045 1.350 . S
C1051 H1038 0.929 . S
C1051 C1043 1.433 . S
C1051 N1053 1.384 . S
N1052 C1048 1.427 . S
N1052 C1049 1.384 . S
N1053 C1045 1.427 . S
N1053 C1051 1.384 . S
H1054 C1060 0.930 . S
H1055 C1064 0.930 . S
H1056 C1069 0.929 . S
H1057 C1067 0.929 . S
H1058 C1062 0.929 . S
H1059 C1068 0.929 . S
C1060 H1054 0.930 . S
C1060 C1061 1.367 . S
C1060 C1068 1.378 . S
C1061 C1060 1.367 . S
C1061 C1069 1.433 . S
C1062 H1058 0.929 . S
C1062 C1064 1.378 . S
C1062 C1066 1.350 . S
C1063 C1066 1.463 . S
C1063 C1068 1.350 1_565 S
C1063 N1071 1.427 . S
C1064 H1055 0.930 . S
C1064 C1062 1.378 . S
C1064 C1065 1.367 . S
C1065 C1064 1.367 . S
C1065 C1067 1.433 . S
C1066 C1062 1.350 . S
C1066 C1063 1.463 . S
C1066 N1070 1.427 . S
C1067 H1057 0.929 . S
C1067 C1065 1.433 . S
C1067 N1070 1.384 . S
C1068 H1059 0.929 . S
C1068 C1060 1.378 . S
C1068 C1063 1.350 1_545 S
C1069 H1056 0.929 . S
C1069 C1061 1.433 . S
C1069 N1071 1.384 1_545 S
N1070 C1066 1.427 . S
N1070 C1067 1.384 . S
N1071 C1063 1.427 . S
N1071 C1069 1.384 1_565 S
H1072 C1078 0.930 . S
H1073 C1082 0.930 . S
H1074 C1087 0.929 . S
H1075 C1085 0.929 . S
H1076 C1080 0.929 . S
H1077 C1086 0.929 . S
C1078 H1072 0.930 . S
C1078 C1079 1.367 . S
C1078 C1086 1.378 . S
C1079 C1078 1.367 . S
C1079 C1087 1.433 . S
C1080 H1076 0.929 . S
C1080 C1082 1.378 . S
C1080 C1084 1.350 . S
C1081 C1084 1.463 . S
C1081 C1086 1.350 . S
C1081 N1089 1.427 . S
C1082 H1073 0.930 . S
C1082 C1080 1.378 . S
C1082 C1083 1.367 . S
C1083 C1082 1.367 . S
C1083 C1085 1.433 . S
C1084 C1080 1.350 . S
C1084 C1081 1.463 . S
C1084 N1088 1.427 . S
C1085 H1075 0.929 . S
C1085 C1083 1.433 . S
C1085 N1088 1.384 . S
C1086 H1077 0.929 . S
C1086 C1078 1.378 . S
C1086 C1081 1.350 . S
C1087 H1074 0.929 . S
C1087 C1079 1.433 . S
C1087 N1089 1.384 . S
N1088 C1084 1.427 . S
N1088 C1085 1.384 . S
N1089 C1081 1.427 . S
N1089 C1087 1.384 . S
H1090 C1096 0.930 . S
H1091 C1100 0.930 . S
H1092 C1105 0.929 . S
H1093 C1103 0.929 1_556 S
H1094 C1098 0.929 . S
H1095 C1104 0.929 . S
C1096 H1090 0.930 . S
C1096 C1097 1.367 . S
C1096 C1104 1.378 . S
C1097 C1096 1.367 . S
C1097 C1105 1.433 . S
C1098 H1094 0.929 . S
C1098 C1100 1.378 . S
C1098 C1102 1.350 . S
C1099 C1102 1.463 . S
C1099 C1104 1.350 . S
C1099 N1107 1.427 . S
C1100 H1091 0.930 . S
C1100 C1098 1.378 . S
C1100 C1101 1.367 . S
C1101 C1100 1.367 . S
C1101 C1103 1.433 . S
C1102 C1098 1.350 . S
C1102 C1099 1.463 . S
C1102 N1106 1.427 . S
C1103 H1093 0.929 1_554 S
C1103 C1101 1.433 . S
C1103 N1106 1.384 . S
C1104 H1095 0.929 . S
C1104 C1096 1.378 . S
C1104 C1099 1.350 . S
C1105 H1092 0.929 . S
C1105 C1097 1.433 . S
C1105 N1107 1.384 . S
N1106 C1102 1.427 . S
N1106 C1103 1.384 . S
N1107 C1099 1.427 . S
N1107 C1105 1.384 . S
H1108 C1114 0.930 . S
H1109 C1118 0.930 . S
H1110 C1123 0.929 . S
H1111 C1121 0.929 . S
H1112 C1116 0.929 . S
H1113 C1122 0.929 . S
C1114 H1108 0.930 . S
C1114 C1115 1.367 . S
C1114 C1122 1.378 . S
C1115 C1114 1.367 . S
C1115 C1123 1.433 . S
C1116 H1112 0.929 . S
C1116 C1118 1.378 . S
C1116 C1120 1.350 1_455 S
C1117 C1120 1.463 . S
C1117 C1122 1.350 . S
C1117 N1125 1.427 . S
C1118 H1109 0.930 . S
C1118 C1116 1.378 . S
C1118 C1119 1.367 . S
C1119 C1118 1.367 . S
C1119 C1121 1.433 1_455 S
C1120 C1116 1.350 1_655 S
C1120 C1117 1.463 . S
C1120 N1124 1.427 . S
C1121 H1111 0.929 . S
C1121 C1119 1.433 1_655 S
C1121 N1124 1.384 . S
C1122 H1113 0.929 . S
C1122 C1114 1.378 . S
C1122 C1117 1.350 . S
C1123 H1110 0.929 . S
C1123 C1115 1.433 . S
C1123 N1125 1.384 . S
N1124 C1120 1.427 . S
N1124 C1121 1.384 . S
N1125 C1117 1.427 . S
N1125 C1123 1.384 . S
H1126 C1132 0.930 . S
H1127 C1136 0.930 . S
H1128 C1141 0.929 . S
H1129 C1139 0.929 . S
H1130 C1134 0.929 . S
H1131 C1140 0.929 . S
C1132 H1126 0.930 . S
C1132 C1133 1.367 . S
C1132 C1140 1.378 . S
C1133 C1132 1.367 . S
C1133 C1141 1.433 . S
C1134 H1130 0.929 . S
C1134 C1136 1.378 . S
C1134 C1138 1.350 . S
C1135 C1138 1.463 . S
C1135 C1140 1.350 . S
C1135 N1143 1.427 . S
C1136 H1127 0.930 . S
C1136 C1134 1.378 . S
C1136 C1137 1.367 . S
C1137 C1136 1.367 . S
C1137 C1139 1.433 . S
C1138 C1134 1.350 . S
C1138 C1135 1.463 . S
C1138 N1142 1.427 . S
C1139 H1129 0.929 . S
C1139 C1137 1.433 . S
C1139 N1142 1.384 . S
C1140 H1131 0.929 . S
C1140 C1132 1.378 . S
C1140 C1135 1.350 . S
C1141 H1128 0.929 . S
C1141 C1133 1.433 . S
C1141 N1143 1.384 . S
N1142 C1138 1.427 . S
N1142 C1139 1.384 . S
N1143 C1135 1.427 . S
N1143 C1141 1.384 . S
H1144 C1150 0.930 . S
H1145 C1154 0.930 . S
H1146 C1159 0.929 . S
H1147 C1157 0.929 . S
H1148 C1152 0.929 . S
H1149 C1158 0.929 . S
C1150 H1144 0.930 . S
C1150 C1151 1.367 . S
C1150 C1158 1.378 . S
C1151 C1150 1.367 . S
C1151 C1159 1.433 . S
C1152 H1148 0.929 . S
C1152 C1154 1.378 . S
C1152 C1156 1.350 . S
C1153 C1156 1.463 . S
C1153 C1158 1.350 . S
C1153 N1161 1.427 . S
C1154 H1145 0.930 . S
C1154 C1152 1.378 . S
C1154 C1155 1.367 . S
C1155 C1154 1.367 . S
C1155 C1157 1.433 . S
C1156 C1152 1.350 . S
C1156 C1153 1.463 . S
C1156 N1160 1.427 . S
C1157 H1147 0.929 . S
C1157 C1155 1.433 . S
C1157 N1160 1.384 . S
C1158 H1149 0.929 . S
C1158 C1150 1.378 . S
C1158 C1153 1.350 . S
C1159 H1146 0.929 . S
C1159 C1151 1.433 . S
C1159 N1161 1.384 . S
N1160 C1156 1.427 . S
N1160 C1157 1.384 . S
N1161 C1153 1.427 . S
N1161 C1159 1.384 . S
H1162 C1168 0.930 . S
H1163 C1172 0.930 1_554 S
H1164 C1177 0.929 . S
H1165 C1175 0.929 . S
H1166 C1170 0.929 . S
H1167 C1176 0.929 . S
C1168 H1162 0.930 . S
C1168 C1169 1.367 . S
C1168 C1176 1.378 . S
C1169 C1168 1.367 . S
C1169 C1177 1.433 . S
C1170 H1166 0.929 . S
C1170 C1172 1.378 . S
C1170 C1174 1.350 . S
C1171 C1174 1.463 . S
C1171 C1176 1.350 . S
C1171 N1179 1.427 . S
C1172 H1163 0.930 1_556 S
C1172 C1170 1.378 . S
C1172 C1173 1.367 . S
C1173 C1172 1.367 . S
C1173 C1175 1.433 . S
C1174 C1170 1.350 . S
C1174 C1171 1.463 . S
C1174 N1178 1.427 . S
C1175 H1165 0.929 . S
C1175 C1173 1.433 . S
C1175 N1178 1.384 . S
C1176 H1167 0.929 . S
C1176 C1168 1.378 . S
C1176 C1171 1.350 . S
C1177 H1164 0.929 . S
C1177 C1169 1.433 . S
C1177 N1179 1.384 . S
N1178 C1174 1.427 . S
N1178 C1175 1.384 . S
N1179 C1171 1.427 . S
N1179 C1177 1.384 . S
H1180 C1186 0.930 . S
H1181 C1190 0.930 . S
H1182 C1195 0.929 . S
H1183 C1193 0.929 . S
H1184 C1188 0.929 . S
H1185 C1194 0.929 . S
C1186 H1180 0.930 . S
C1186 C1187 1.367 . S
C1186 C1194 1.378 . S
C1187 C1186 1.367 . S
C1187 C1195 1.433 . S
C1188 H1184 0.929 . S
C1188 C1190 1.378 . S
C1188 C1192 1.350 1_655 S
C1189 C1192 1.463 . S
C1189 C1194 1.350 . S
C1189 N1197 1.427 . S
C1190 H1181 0.930 . S
C1190 C1188 1.378 . S
C1190 C1191 1.367 . S
C1191 C1190 1.367 . S
C1191 C1193 1.433 1_655 S
C1192 C1188 1.350 1_455 S
C1192 C1189 1.463 . S
C1192 N1196 1.427 . S
C1193 H1183 0.929 . S
C1193 C1191 1.433 1_455 S
C1193 N1196 1.384 . S
C1194 H1185 0.929 . S
C1194 C1186 1.378 . S
C1194 C1189 1.350 . S
C1195 H1182 0.929 . S
C1195 C1187 1.433 . S
C1195 N1197 1.384 . S
N1196 C1192 1.427 . S
N1196 C1193 1.384 . S
N1197 C1189 1.427 . S
N1197 C1195 1.384 . S
H1198 C1204 0.930 . S
H1199 C1208 0.930 . S
H1200 C1213 0.929 . S
H1201 C1211 0.929 . S
H1202 C1206 0.929 . S
H1203 C1212 0.929 . S
C1204 H1198 0.930 . S
C1204 C1205 1.367 . S
C1204 C1212 1.378 . S
C1205 C1204 1.367 . S
C1205 C1213 1.433 . S
C1206 H1202 0.929 . S
C1206 C1208 1.378 . S
C1206 C1210 1.350 . S
C1207 C1210 1.463 . S
C1207 C1212 1.350 . S
C1207 N1215 1.427 . S
C1208 H1199 0.930 . S
C1208 C1206 1.378 . S
C1208 C1209 1.367 . S
C1209 C1208 1.367 . S
C1209 C1211 1.433 . S
C1210 C1206 1.350 . S
C1210 C1207 1.463 . S
C1210 N1214 1.427 . S
C1211 H1201 0.929 . S
C1211 C1209 1.433 . S
C1211 N1214 1.384 . S
C1212 H1203 0.929 . S
C1212 C1204 1.378 . S
C1212 C1207 1.350 . S
C1213 H1200 0.929 . S
C1213 C1205 1.433 . S
C1213 N1215 1.384 . S
N1214 C1210 1.427 . S
N1214 C1211 1.384 . S
N1215 C1207 1.427 . S
N1215 C1213 1.384 . S
H1216 C1222 0.930 . S
H1217 C1226 0.930 . S
H1218 C1231 0.929 . S
H1219 C1229 0.929 . S
H1220 C1224 0.929 . S
H1221 C1230 0.929 . S
C1222 H1216 0.930 . S
C1222 C1223 1.367 1_455 S
C1222 C1230 1.378 . S
C1223 C1222 1.367 1_655 S
C1223 C1231 1.433 . S
C1224 H1220 0.929 . S
C1224 C1226 1.378 . S
C1224 C1228 1.350 . S
C1225 C1228 1.463 . S
C1225 C1230 1.350 . S
C1225 N1233 1.427 . S
C1226 H1217 0.930 . S
C1226 C1224 1.378 . S
C1226 C1227 1.367 . S
C1227 C1226 1.367 . S
C1227 C1229 1.433 . S
C1228 C1224 1.350 . S
C1228 C1225 1.463 . S
C1228 N1232 1.427 . S
C1229 H1219 0.929 . S
C1229 C1227 1.433 . S
C1229 N1232 1.384 . S
C1230 H1221 0.929 . S
C1230 C1222 1.378 . S
C1230 C1225 1.350 . S
C1231 H1218 0.929 . S
C1231 C1223 1.433 . S
C1231 N1233 1.384 1_655 S
N1232 C1228 1.427 . S
N1232 C1229 1.384 . S
N1233 C1225 1.427 . S
N1233 C1231 1.384 1_455 S
H1234 C1240 0.930 . S
H1235 C1244 0.930 . S
H1236 C1249 0.929 . S
H1237 C1247 0.929 . S
H1238 C1242 0.929 . S
H1239 C1248 0.929 . S
C1240 H1234 0.930 . S
C1240 C1241 1.367 . S
C1240 C1248 1.378 . S
C1241 C1240 1.367 . S
C1241 C1249 1.433 . S
C1242 H1238 0.929 . S
C1242 C1244 1.378 . S
C1242 C1246 1.350 . S
C1243 C1246 1.463 . S
C1243 C1248 1.350 . S
C1243 N1251 1.427 . S
C1244 H1235 0.930 . S
C1244 C1242 1.378 . S
C1244 C1245 1.367 . S
C1245 C1244 1.367 . S
C1245 C1247 1.433 . S
C1246 C1242 1.350 . S
C1246 C1243 1.463 . S
C1246 N1250 1.427 . S
C1247 H1237 0.929 . S
C1247 C1245 1.433 . S
C1247 N1250 1.384 . S
C1248 H1239 0.929 . S
C1248 C1240 1.378 . S
C1248 C1243 1.350 . S
C1249 H1236 0.929 . S
C1249 C1241 1.433 . S
C1249 N1251 1.384 . S
N1250 C1246 1.427 . S
N1250 C1247 1.384 . S
N1251 C1243 1.427 . S
N1251 C1249 1.384 . S
H1252 C1258 0.930 . S
H1253 C1262 0.930 . S
H1254 C1267 0.929 . S
H1255 C1265 0.929 . S
H1256 C1260 0.929 . S
H1257 C1266 0.929 . S
C1258 H1252 0.930 . S
C1258 C1259 1.367 . S
C1258 C1266 1.378 . S
C1259 C1258 1.367 . S
C1259 C1267 1.433 . S
C1260 H1256 0.929 . S
C1260 C1262 1.378 . S
C1260 C1264 1.350 . S
C1261 C1264 1.463 . S
C1261 C1266 1.350 . S
C1261 N1269 1.427 . S
C1262 H1253 0.930 . S
C1262 C1260 1.378 . S
C1262 C1263 1.367 . S
C1263 C1262 1.367 . S
C1263 C1265 1.433 . S
C1264 C1260 1.350 . S
C1264 C1261 1.463 . S
C1264 N1268 1.427 . S
C1265 H1255 0.929 . S
C1265 C1263 1.433 . S
C1265 N1268 1.384 . S
C1266 H1257 0.929 . S
C1266 C1258 1.378 . S
C1266 C1261 1.350 . S
C1267 H1254 0.929 . S
C1267 C1259 1.433 . S
C1267 N1269 1.384 . S
N1268 C1264 1.427 . S
N1268 C1265 1.384 . S
N1269 C1261 1.427 . S
N1269 C1267 1.384 . S
H1270 C1276 0.930 1_556 S
H1271 C1280 0.930 . S
H1272 C1285 0.929 . S
H1273 C1283 0.929 . S
H1274 C1278 0.929 . S
H1275 C1284 0.929 . S
C1276 H1270 0.930 1_554 S
C1276 C1277 1.367 . S
C1276 C1284 1.378 . S
C1277 C1276 1.367 . S
C1277 C1285 1.433 . S
C1278 H1274 0.929 . S
C1278 C1280 1.378 . S
C1278 C1282 1.350 . S
C1279 C1282 1.463 . S
C1279 C1284 1.350 . S
C1279 N1287 1.427 . S
C1280 H1271 0.930 . S
C1280 C1278 1.378 . S
C1280 C1281 1.367 . S
C1281 C1280 1.367 . S
C1281 C1283 1.433 . S
C1282 C1278 1.350 . S
C1282 C1279 1.463 . S
C1282 N1286 1.427 . S
C1283 H1273 0.929 . S
C1283 C1281 1.433 . S
C1283 N1286 1.384 . S
C1284 H1275 0.929 . S
C1284 C1276 1.378 . S
C1284 C1279 1.350 . S
C1285 H1272 0.929 . S
C1285 C1277 1.433 . S
C1285 N1287 1.384 . S
N1286 C1282 1.427 . S
N1286 C1283 1.384 . S
N1287 C1279 1.427 . S
N1287 C1285 1.384 . S
H1288 C1294 0.939 . S
H1289 C1298 0.930 . S
H1290 C1303 0.929 . S
H1291 C1301 0.929 . S
H1292 C1296 0.929 . S
H1293 C1302 0.929 . S
C1294 H1288 0.939 . S
C1294 C1295 1.377 . S
C1294 C1302 1.360 1_455 S
C1295 C1294 1.377 . S
C1295 C1303 1.433 . S
C1296 H1292 0.929 . S
C1296 C1298 1.378 . S
C1296 C1300 1.350 . S
C1297 C1300 1.463 . S
C1297 C1302 1.350 . S
C1297 N1305 1.427 . S
C1298 H1289 0.930 . S
C1298 C1296 1.378 . S
C1298 C1299 1.367 . S
C1299 C1298 1.367 . S
C1299 C1301 1.433 . S
C1300 C1296 1.350 . S
C1300 C1297 1.463 . S
C1300 N1304 1.427 . S
C1301 H1291 0.929 . S
C1301 C1299 1.433 . S
C1301 N1304 1.384 . S
C1302 H1293 0.929 . S
C1302 C1294 1.360 1_655 S
C1302 C1297 1.350 . S
C1303 H1290 0.929 . S
C1303 C1295 1.433 . S
C1303 N1305 1.384 1_455 S
N1304 C1300 1.427 . S
N1304 C1301 1.384 . S
N1305 C1297 1.427 . S
N1305 C1303 1.384 1_655 S
H1306 C1312 0.930 . S
H1307 C1316 0.930 . S
H1308 C1321 0.929 . S
H1309 C1319 0.929 . S
H1310 C1314 0.929 . S
H1311 C1320 0.929 . S
C1312 H1306 0.930 . S
C1312 C1313 1.367 . S
C1312 C1320 1.378 . S
C1313 C1312 1.367 . S
C1313 C1321 1.433 . S
C1314 H1310 0.929 . S
C1314 C1316 1.378 . S
C1314 C1318 1.350 . S
C1315 C1318 1.463 . S
C1315 C1320 1.350 . S
C1315 N1323 1.427 . S
C1316 H1307 0.930 . S
C1316 C1314 1.378 . S
C1316 C1317 1.367 . S
C1317 C1316 1.367 . S
C1317 C1319 1.433 . S
C1318 C1314 1.350 . S
C1318 C1315 1.463 . S
C1318 N1322 1.427 . S
C1319 H1309 0.929 . S
C1319 C1317 1.433 . S
C1319 N1322 1.384 . S
C1320 H1311 0.929 . S
C1320 C1312 1.378 . S
C1320 C1315 1.350 . S
C1321 H1308 0.929 . S
C1321 C1313 1.433 . S
C1321 N1323 1.384 . S
N1322 C1318 1.427 . S
N1322 C1319 1.384 . S
N1323 C1315 1.427 . S
N1323 C1321 1.384 . S
H1324 C1330 0.930 . S
H1325 C1334 0.930 . S
H1326 C1339 0.929 . S
H1327 C1337 0.929 . S
H1328 C1332 0.929 . S
H1329 C1338 0.929 . S
C1330 H1324 0.930 . S
C1330 C1331 1.367 . S
C1330 C1338 1.378 . S
C1331 C1330 1.367 . S
C1331 C1339 1.433 . S
C1332 H1328 0.929 . S
C1332 C1334 1.378 . S
C1332 C1336 1.350 . S
C1333 C1336 1.463 . S
C1333 C1338 1.350 . S
C1333 N1341 1.427 . S
C1334 H1325 0.930 . S
C1334 C1332 1.378 . S
C1334 C1335 1.367 . S
C1335 C1334 1.367 . S
C1335 C1337 1.433 . S
C1336 C1332 1.350 . S
C1336 C1333 1.463 . S
C1336 N1340 1.427 . S
C1337 H1327 0.929 . S
C1337 C1335 1.433 . S
C1337 N1340 1.384 . S
C1338 H1329 0.929 . S
C1338 C1330 1.378 . S
C1338 C1333 1.350 . S
C1339 H1326 0.929 . S
C1339 C1331 1.433 . S
C1339 N1341 1.384 . S
N1340 C1336 1.427 . S
N1340 C1337 1.384 . S
N1341 C1333 1.427 . S
N1341 C1339 1.384 . S
H1342 C1348 0.930 . S
H1343 C1352 0.930 . S
H1344 C1357 0.929 1_554 S
H1345 C1355 0.929 . S
H1346 C1350 0.929 . S
H1347 C1356 0.929 . S
C1348 H1342 0.930 . S
C1348 C1349 1.367 . S
C1348 C1356 1.378 . S
C1349 C1348 1.367 . S
C1349 C1357 1.433 . S
C1350 H1346 0.929 . S
C1350 C1352 1.378 . S
C1350 C1354 1.350 . S
C1351 C1354 1.463 . S
C1351 C1356 1.350 . S
C1351 N1359 1.427 . S
C1352 H1343 0.930 . S
C1352 C1350 1.378 . S
C1352 C1353 1.367 . S
C1353 C1352 1.367 . S
C1353 C1355 1.433 . S
C1354 C1350 1.350 . S
C1354 C1351 1.463 . S
C1354 N1358 1.427 . S
C1355 H1345 0.929 . S
C1355 C1353 1.433 . S
C1355 N1358 1.384 . S
C1356 H1347 0.929 . S
C1356 C1348 1.378 . S
C1356 C1351 1.350 . S
C1357 H1344 0.929 1_556 S
C1357 C1349 1.433 . S
C1357 N1359 1.384 . S
N1358 C1354 1.427 . S
N1358 C1355 1.384 . S
N1359 C1351 1.427 . S
N1359 C1357 1.384 . S
H1360 C1366 0.930 . S
H1361 C1370 0.930 . S
H1362 C1375 0.929 . S
H1363 C1373 0.929 . S
H1364 C1368 0.929 . S
H1365 C1374 0.929 . S
C1366 H1360 0.930 . S
C1366 C1367 1.367 . S
C1366 C1374 1.378 . S
C1367 C1366 1.367 . S
C1367 C1375 1.433 . S
C1368 H1364 0.929 . S
C1368 C1370 1.378 . S
C1368 C1372 1.350 . S
C1369 C1372 1.463 . S
C1369 C1374 1.350 . S
C1369 N1377 1.427 . S
C1370 H1361 0.930 . S
C1370 C1368 1.378 . S
C1370 C1371 1.367 . S
C1371 C1370 1.367 . S
C1371 C1373 1.433 . S
C1372 C1368 1.350 . S
C1372 C1369 1.463 . S
C1372 N1376 1.427 . S
C1373 H1363 0.929 . S
C1373 C1371 1.433 . S
C1373 N1376 1.384 . S
C1374 H1365 0.929 . S
C1374 C1366 1.378 . S
C1374 C1369 1.350 . S
C1375 H1362 0.929 . S
C1375 C1367 1.433 . S
C1375 N1377 1.384 . S
N1376 C1372 1.427 . S
N1376 C1373 1.384 . S
N1377 C1369 1.427 . S
N1377 C1375 1.384 . S
H1378 C1384 0.930 . S
H1379 C1388 0.930 . S
H1380 C1393 0.929 . S
H1381 C1391 0.929 . S
H1382 C1386 0.929 . S
H1383 C1392 0.929 . S
C1384 H1378 0.930 . S
C1384 C1385 1.367 . S
C1384 C1392 1.378 . S
C1385 C1384 1.367 . S
C1385 C1393 1.433 . S
C1386 H1382 0.929 . S
C1386 C1388 1.378 . S
C1386 C1390 1.350 . S
C1387 C1390 1.463 . S
C1387 C1392 1.350 . S
C1387 N1395 1.427 . S
C1388 H1379 0.930 . S
C1388 C1386 1.378 . S
C1388 C1389 1.367 . S
C1389 C1388 1.367 . S
C1389 C1391 1.433 . S
C1390 C1386 1.350 . S
C1390 C1387 1.463 . S
C1390 N1394 1.427 . S
C1391 H1381 0.929 . S
C1391 C1389 1.433 . S
C1391 N1394 1.384 . S
C1392 H1383 0.929 . S
C1392 C1384 1.378 . S
C1392 C1387 1.350 . S
C1393 H1380 0.929 . S
C1393 C1385 1.433 . S
C1393 N1395 1.384 . S
N1394 C1390 1.427 . S
N1394 C1391 1.384 . S
N1395 C1387 1.427 . S
N1395 C1393 1.384 . S
H1396 C1402 0.930 . S
H1397 C1406 0.930 . S
H1398 C1411 0.929 . S
H1399 C1409 0.929 . S
H1400 C1404 0.929 . S
H1401 C1410 0.929 . S
C1402 H1396 0.930 . S
C1402 C1403 1.367 . S
C1402 C1410 1.378 . S
C1403 C1402 1.367 . S
C1403 C1411 1.433 . S
C1404 H1400 0.929 . S
C1404 C1406 1.378 . S
C1404 C1408 1.350 . S
C1405 C1408 1.463 . S
C1405 C1410 1.350 . S
C1405 N1413 1.427 . S
C1406 H1397 0.930 . S
C1406 C1404 1.378 . S
C1406 C1407 1.367 . S
C1407 C1406 1.367 . S
C1407 C1409 1.433 . S
C1408 C1404 1.350 . S
C1408 C1405 1.463 . S
C1408 N1412 1.427 . S
C1409 H1399 0.929 . S
C1409 C1407 1.433 . S
C1409 N1412 1.384 . S
C1410 H1401 0.929 . S
C1410 C1402 1.378 . S
C1410 C1405 1.350 . S
C1411 H1398 0.929 . S
C1411 C1403 1.433 . S
C1411 N1413 1.384 . S
N1412 C1408 1.427 . S
N1412 C1409 1.384 . S
N1413 C1405 1.427 . S
N1413 C1411 1.384 . S
H1414 C1420 0.930 . S
H1415 C1424 0.930 . S
H1416 C1429 0.929 . S
H1417 C1427 0.929 . S
H1418 C1422 0.929 . S
H1419 C1428 0.929 . S
C1420 H1414 0.930 . S
C1420 C1421 1.367 . S
C1420 C1428 1.378 . S
C1421 C1420 1.367 . S
C1421 C1429 1.433 . S
C1422 H1418 0.929 . S
C1422 C1424 1.378 . S
C1422 C1426 1.350 . S
C1423 C1426 1.463 1_454 S
C1423 C1428 1.350 . S
C1423 N1431 1.427 . S
C1424 H1415 0.930 . S
C1424 C1422 1.378 . S
C1424 C1425 1.367 . S
C1425 C1424 1.367 . S
C1425 C1427 1.433 . S
C1426 C1422 1.350 . S
C1426 C1423 1.463 1_656 S
C1426 N1430 1.427 . S
C1427 H1417 0.929 . S
C1427 C1425 1.433 . S
C1427 N1430 1.384 . S
C1428 H1419 0.929 . S
C1428 C1420 1.378 . S
C1428 C1423 1.350 . S
C1429 H1416 0.929 . S
C1429 C1421 1.433 . S
C1429 N1431 1.384 . S
N1430 C1426 1.427 . S
N1430 C1427 1.384 . S
N1431 C1423 1.427 . S
N1431 C1429 1.384 . S
H1432 C1438 0.930 . S
H1433 C1442 0.930 . S
H1434 C1447 0.929 . S
H1435 C1445 0.929 . S
H1436 C1440 0.929 . S
H1437 C1446 0.929 . S
C1438 H1432 0.930 . S
C1438 C1439 1.367 . S
C1438 C1446 1.378 . S
C1439 C1438 1.367 . S
C1439 C1447 1.433 . S
C1440 H1436 0.929 . S
C1440 C1442 1.378 . S
C1440 C1444 1.350 . S
C1441 C1444 1.463 . S
C1441 C1446 1.350 . S
C1441 N1449 1.427 . S
C1442 H1433 0.930 . S
C1442 C1440 1.378 . S
C1442 C1443 1.367 . S
C1443 C1442 1.367 . S
C1443 C1445 1.433 . S
C1444 C1440 1.350 . S
C1444 C1441 1.463 . S
C1444 N1448 1.427 . S
C1445 H1435 0.929 . S
C1445 C1443 1.433 . S
C1445 N1448 1.384 . S
C1446 H1437 0.929 . S
C1446 C1438 1.378 . S
C1446 C1441 1.350 . S
C1447 H1434 0.929 . S
C1447 C1439 1.433 . S
C1447 N1449 1.384 . S
N1448 C1444 1.427 . S
N1448 C1445 1.384 . S
N1449 C1441 1.427 . S
N1449 C1447 1.384 . S
H1450 C1456 0.930 . S
H1451 C1460 0.930 . S
H1452 C1465 0.929 . S
H1453 C1463 0.929 . S
H1454 C1458 0.929 . S
H1455 C1464 0.929 . S
C1456 H1450 0.930 . S
C1456 C1457 1.367 . S
C1456 C1464 1.378 . S
C1457 C1456 1.367 . S
C1457 C1465 1.433 . S
C1458 H1454 0.929 . S
C1458 C1460 1.378 . S
C1458 C1462 1.350 . S
C1459 C1462 1.463 . S
C1459 C1464 1.350 . S
C1459 N1467 1.427 . S
C1460 H1451 0.930 . S
C1460 C1458 1.378 . S
C1460 C1461 1.367 . S
C1461 C1460 1.367 . S
C1461 C1463 1.433 . S
C1462 C1458 1.350 . S
C1462 C1459 1.463 . S
C1462 N1466 1.427 . S
C1463 H1453 0.929 . S
C1463 C1461 1.433 . S
C1463 N1466 1.384 . S
C1464 H1455 0.929 . S
C1464 C1456 1.378 . S
C1464 C1459 1.350 . S
C1465 H1452 0.929 . S
C1465 C1457 1.433 . S
C1465 N1467 1.384 . S
N1466 C1462 1.427 . S
N1466 C1463 1.384 . S
N1467 C1459 1.427 . S
N1467 C1465 1.384 . S
H1468 C1474 0.930 . S
H1469 C1478 0.930 . S
H1470 C1483 0.929 . S
H1471 C1481 0.929 . S
H1472 C1476 0.929 . S
H1473 C1482 0.929 . S
C1474 H1468 0.930 . S
C1474 C1475 1.367 1_565 S
C1474 C1482 1.378 . S
C1475 C1474 1.367 1_545 S
C1475 C1483 1.433 . S
C1476 H1472 0.929 . S
C1476 C1478 1.378 . S
C1476 C1480 1.335 1_545 S
C1477 C1480 1.462 1_446 S
C1477 C1482 1.335 1_545 S
C1477 N1485 1.444 . S
C1478 H1469 0.930 . S
C1478 C1476 1.378 . S
C1478 C1479 1.367 1_545 S
C1479 C1478 1.367 1_565 S
C1479 C1481 1.433 . S
C1480 C1476 1.335 1_565 S
C1480 C1477 1.462 1_664 S
C1480 N1484 1.444 . S
C1481 H1471 0.929 . S
C1481 C1479 1.433 . S
C1481 N1484 1.384 . S
C1482 H1473 0.929 . S
C1482 C1474 1.378 . S
C1482 C1477 1.335 1_565 S
C1483 H1470 0.929 . S
C1483 C1475 1.433 . S
C1483 N1485 1.384 . S
N1484 C1480 1.444 . S
N1484 C1481 1.384 . S
N1485 C1477 1.444 . S
N1485 C1483 1.384 . S
H1486 C1492 0.930 . S
H1487 C1496 0.930 . S
H1488 C1501 0.929 . S
H1489 C1499 0.929 . S
H1490 C1494 0.929 . S
H1491 C1500 0.929 . S
C1492 H1486 0.930 . S
C1492 C1493 1.367 . S
C1492 C1500 1.378 . S
C1493 C1492 1.367 . S
C1493 C1501 1.433 1_545 S
C1494 H1490 0.929 . S
C1494 C1496 1.378 . S
C1494 C1498 1.350 . S
C1495 C1498 1.463 1_545 S
C1495 C1500 1.350 . S
C1495 N1503 1.427 1_545 S
C1496 H1487 0.930 . S
C1496 C1494 1.378 . S
C1496 C1497 1.367 . S
C1497 C1496 1.367 . S
C1497 C1499 1.433 1_565 S
C1498 C1494 1.350 . S
C1498 C1495 1.463 1_565 S
C1498 N1502 1.427 1_565 S
C1499 H1489 0.929 . S
C1499 C1497 1.433 1_545 S
C1499 N1502 1.384 . S
C1500 H1491 0.929 . S
C1500 C1492 1.378 . S
C1500 C1495 1.350 . S
C1501 H1488 0.929 . S
C1501 C1493 1.433 1_565 S
C1501 N1503 1.384 . S
N1502 C1498 1.427 1_545 S
N1502 C1499 1.384 . S
N1503 C1495 1.427 1_565 S
N1503 C1501 1.384 . S
C647 C13 3.144 . S
C651 C413 3.143 . S
C665 C53 3.148 . S
C669 C453 3.147 . S
C683 C93 3.145 . S
C687 C333 3.144 . S
C701 C133 3.145 . S
C705 C373 3.146 . S
C719 C184 3.143 . S
C723 C584 3.144 . S
C737 C224 3.142 . S
C741 C624 3.142 . S
C755 C264 3.142 . S
C759 C504 3.143 . S
C773 C304 3.147 . S
C777 C544 3.148 . S
C791 C362 3.702 . S
C795 C24 3.655 1_556 S
C809 C402 3.702 . S
C813 C64 3.656 . S
C827 C442 3.701 . S
C831 C104 3.657 . S
C845 C322 3.700 . S
C849 C144 3.658 . S
C863 C173 3.655 1_554 S
C867 C543 3.702 . S
C881 C583 3.703 . S
C885 C213 3.654 . S
C899 C623 3.705 . S
C903 C253 3.651 . S
C917 C503 3.700 . S
C921 C293 3.658 . S
C935 C42 3.701 . S
C939 C344 3.657 . S
C953 C384 3.654 . S
C957 C82 3.703 . S
C971 C424 3.655 1_556 S
C975 C122 3.702 . S
C989 C464 3.655 . S
C993 C2 3.703 . S
C1007 C493 3.653 . S
C1011 C223 3.704 . S
C1025 C263 3.704 . S
C1029 C533 3.654 . S
C1043 C303 3.704 . S
C1047 C573 3.652 1_554 S
C1061 C613 3.655 . S
C1065 C183 3.702 . S
C1079 C26 0.422 . S
C1083 C602 0.305 . S
C1097 C66 0.400 . S
C1101 C162 0.281 . S
C1115 C522 0.272 . S
C1119 C106 0.396 . S
C1133 C242 0.286 . S
C1137 C146 0.432 . S
C1151 C177 0.451 . S
C1155 C463 0.319 . S
C1169 C217 0.409 . S
C1173 C23 0.268 . S
C1187 C383 0.292 . S
C1191 C257 0.409 . S
C1205 C103 0.273 . S
C1209 C297 0.396 . S
C1223 C346 0.451 . S
C1227 C282 0.319 . S
C1241 C386 0.451 . S
C1245 C482 0.313 . S
C1259 C202 0.266 . S
C1263 C426 0.397 . S
C1277 C562 0.268 . S
C1281 C466 0.410 . S
C1295 C497 0.448 . S
C1299 C143 0.319 . S
C1313 C537 0.424 . S
C1317 C343 0.278 . S
C1331 C577 0.423 . S
C1335 C63 0.306 . S
C1349 C423 0.290 . S
C1353 C617 0.407 . S
C1367 C17 1.490 . S
C1371 C506 1.490 . S
C1385 C57 1.498 . S
C1389 C226 1.498 . S
C1403 C97 1.491 . S
C1407 C586 1.491 . S
C1421 C306 1.482 . S
C1425 C137 1.482 . S
C1439 C186 1.484 . S
C1443 C337 1.484 . S
C1457 C417 1.491 . S
C1461 C266 1.491 . S
C1475 C377 1.498 . S
C1479 C546 1.498 . S
C1493 C626 1.486 . S
C1497 C457 1.486 . S
