# Generated by pormake.
# Topology uou, (4)-cn, num edge types: 1
# Building blocks:
#     Node 0, Type 0, BuildingBlock: ICAMEG_clean_sbu_1, # of connection points: 4
#     Node 1, Type 0, BuildingBlock: ICAMEG_clean_sbu_1, # of connection points: 4
#     Node 2, Type 0, BuildingBlock: ICAMEG_clean_sbu_1, # of connection points: 4
#     Node 3, Type 0, BuildingBlock: ICAMEG_clean_sbu_1, # of connection points: 4
#     Node 4, Type 0, BuildingBlock: ICAMEG_clean_sbu_1, # of connection points: 4
#     Node 5, Type 0, BuildingBlock: ICAMEG_clean_sbu_1, # of connection points: 4
#     Node 6, Type 0, BuildingBlock: ICAMEG_clean_sbu_1, # of connection points: 4
#     Node 7, Type 0, BuildingBlock: ICAMEG_clean_sbu_1, # of connection points: 4
#     Node 8, Type 0, BuildingBlock: ICAMEG_clean_sbu_1, # of connection points: 4
#     Node 9, Type 0, BuildingBlock: ICAMEG_clean_sbu_1, # of connection points: 4
#     Node 10, Type 0, BuildingBlock: ICAMEG_clean_sbu_1, # of connection points: 4
#     Node 11, Type 0, BuildingBlock: ICAMEG_clean_sbu_1, # of connection points: 4
#     Node 12, Type 0, BuildingBlock: ICAMEG_clean_sbu_1, # of connection points: 4
#     Node 13, Type 0, BuildingBlock: ICAMEG_clean_sbu_1, # of connection points: 4
#     Node 14, Type 0, BuildingBlock: ICAMEG_clean_sbu_1, # of connection points: 4
#     Node 15, Type 0, BuildingBlock: ICAMEG_clean_sbu_1, # of connection points: 4
#     Edge 16, Type (0, 0), BuildingBlock: EZIPEK_clean_linker_0, # of connection points: 2
#     Edge 17, Type (0, 0), BuildingBlock: EZIPEK_clean_linker_0, # of connection points: 2
#     Edge 18, Type (0, 0), BuildingBlock: EZIPEK_clean_linker_0, # of connection points: 2
#     Edge 19, Type (0, 0), BuildingBlock: EZIPEK_clean_linker_0, # of connection points: 2
#     Edge 20, Type (0, 0), BuildingBlock: EZIPEK_clean_linker_0, # of connection points: 2
#     Edge 21, Type (0, 0), BuildingBlock: EZIPEK_clean_linker_0, # of connection points: 2
#     Edge 22, Type (0, 0), BuildingBlock: EZIPEK_clean_linker_0, # of connection points: 2
#     Edge 23, Type (0, 0), BuildingBlock: EZIPEK_clean_linker_0, # of connection points: 2
#     Edge 24, Type (0, 0), BuildingBlock: EZIPEK_clean_linker_0, # of connection points: 2
#     Edge 25, Type (0, 0), BuildingBlock: EZIPEK_clean_linker_0, # of connection points: 2
#     Edge 26, Type (0, 0), BuildingBlock: EZIPEK_clean_linker_0, # of connection points: 2
#     Edge 27, Type (0, 0), BuildingBlock: EZIPEK_clean_linker_0, # of connection points: 2
#     Edge 28, Type (0, 0), BuildingBlock: EZIPEK_clean_linker_0, # of connection points: 2
#     Edge 29, Type (0, 0), BuildingBlock: EZIPEK_clean_linker_0, # of connection points: 2
#     Edge 30, Type (0, 0), BuildingBlock: EZIPEK_clean_linker_0, # of connection points: 2
#     Edge 31, Type (0, 0), BuildingBlock: EZIPEK_clean_linker_0, # of connection points: 2
#     Edge 32, Type (0, 0), BuildingBlock: EZIPEK_clean_linker_0, # of connection points: 2
#     Edge 33, Type (0, 0), BuildingBlock: EZIPEK_clean_linker_0, # of connection points: 2
#     Edge 34, Type (0, 0), BuildingBlock: EZIPEK_clean_linker_0, # of connection points: 2
#     Edge 35, Type (0, 0), BuildingBlock: EZIPEK_clean_linker_0, # of connection points: 2
#     Edge 36, Type (0, 0), BuildingBlock: EZIPEK_clean_linker_0, # of connection points: 2
#     Edge 37, Type (0, 0), BuildingBlock: EZIPEK_clean_linker_0, # of connection points: 2
#     Edge 38, Type (0, 0), BuildingBlock: EZIPEK_clean_linker_0, # of connection points: 2
#     Edge 39, Type (0, 0), BuildingBlock: EZIPEK_clean_linker_0, # of connection points: 2
#     Edge 40, Type (0, 0), BuildingBlock: EZIPEK_clean_linker_0, # of connection points: 2
#     Edge 41, Type (0, 0), BuildingBlock: EZIPEK_clean_linker_0, # of connection points: 2
#     Edge 42, Type (0, 0), BuildingBlock: EZIPEK_clean_linker_0, # of connection points: 2
#     Edge 43, Type (0, 0), BuildingBlock: EZIPEK_clean_linker_0, # of connection points: 2
#     Edge 44, Type (0, 0), BuildingBlock: EZIPEK_clean_linker_0, # of connection points: 2
#     Edge 45, Type (0, 0), BuildingBlock: EZIPEK_clean_linker_0, # of connection points: 2
#     Edge 46, Type (0, 0), BuildingBlock: EZIPEK_clean_linker_0, # of connection points: 2
#     Edge 47, Type (0, 0), BuildingBlock: EZIPEK_clean_linker_0, # of connection points: 2
# Relax obj value: 0.027
# Max RMSD: 0.080
# Mean RMSD: 0.080
data_MOF--net-uou--node1-ICAMEG_clean_sbu_1--edge1-EZIPEK_clean_linker_0
_symmetry_space_group_name_H-M    P1
_symmetry_Int_Tables_number       1
_symmetry_cell_setting            triclinic
loop_
_symmetry_equiv_pos_as_xyz
'x, y, z'
_cell_length_a     31.185779
_cell_length_b     29.699308
_cell_length_c     43.558762
_cell_angle_alpha  90.021271
_cell_angle_beta   90.029174
_cell_angle_gamma 90.02442
loop_
_atom_site_label
_atom_site_type_symbol
_atom_site_fract_x
_atom_site_fract_y
_atom_site_fract_z
_atom_type_partial_charge
Co0 Co 0.02021 0.0542 0.13409 0.0
Co1 Co 0.10806 0.12302 0.15211 0.0
O2 O 0.08199 0.06984 0.1317 0.0
C3 C 0.04239 0.03932 0.0668 0.0
O4 O 0.07826 0.06201 0.06935 0.0
C5 C 0.17149 0.04695 0.1631 0.0
O6 O 0.14329 0.0175 0.15348 0.0
O7 O 0.07966 0.10749 0.19227 0.0
O8 O 0.01876 0.07325 0.17767 0.0
H9 H 0.1045 0.26116 0.21899 0.0
H10 H 0.08373 0.98652 0.11311 0.0
O11 O 0.01809 0.03379 0.08992 0.0
H12 H 0.0123 0.9177 0.20243 0.0
H13 H 0.88902 0.96121 0.1097 0.0
H14 H 0.94483 0.08814 0.17044 0.0
H15 H 0.99157 0.99329 0.1846 0.0
H16 H 0.96514 0.98162 0.10692 0.0
O17 O 0.16147 0.0885 0.16498 0.0
H18 H 0.07382 0.19625 0.19152 0.0
H19 H 0.1962 0.16328 0.1556 0.0
H20 H 0.86864 0.06866 0.17387 0.0
H21 H 0.10502 0.91038 0.12979 0.0
H22 H 0.83993 0.00489 0.14325 0.0
H23 H 0.0693 0.87553 0.17487 0.0
O24 O 1.00396 0.11683 0.12069 0.0
H25 H 0.18743 0.09145 0.05372 0.0
H26 H 0.11921 0.20858 0.11726 0.0
H27 H 0.15277 0.22968 0.06815 0.0
H28 H 0.18726 0.17091 0.03597 0.0
H29 H 0.15368 0.07187 0.10303 0.0
H30 H 0.22821 0.22811 0.18234 0.0
H31 H 0.18225 0.27767 0.21439 0.0
O32 O 0.05748 0.16005 0.13957 0.0
C33 C 0.04265 0.09089 0.19791 0.0
C34 C 0.12481 0.23997 0.20499 0.0
C35 C 0.19425 0.2213 0.18455 0.0
N36 N 0.13302 0.17559 0.17209 0.0
C37 C 0.10757 0.203 0.18945 0.0
C38 C 0.17593 0.18443 0.16954 0.0
C39 C 0.16846 0.24913 0.20247 0.0
C40 C 0.06745 0.97118 0.13232 0.0
N41 N 0.03588 0.99401 0.14739 0.0
C42 C 0.07987 0.92821 0.14184 0.0
C43 C 0.0599 0.90873 0.16716 0.0
C44 C 0.02791 0.93235 0.18262 0.0
C45 C 0.01628 0.97519 0.17237 0.0
C46 C 0.90092 0.98972 0.12265 0.0
C47 C 0.93283 0.06128 0.15624 0.0
C48 C 0.94408 1.002 0.12083 0.0
N49 N 0.95954 0.03811 0.13699 0.0
C50 C 0.88949 0.04996 0.15864 0.0
C51 C 0.87343 0.01412 0.14154 0.0
C52 C 0.02152 0.15514 0.12594 0.0
C53 C 0.17275 0.11743 0.06761 0.0
C54 C 0.1345 0.1828 0.10358 0.0
C55 C 0.15335 0.19498 0.07572 0.0
C56 C 0.17262 0.16199 0.05766 0.0
N57 N 0.13516 0.13907 0.11341 0.0
C58 C 0.15362 0.10654 0.09564 0.0
Co59 Co 0.50052 0.95344 0.13198 0.0
Co60 Co 0.39934 0.90775 0.14507 0.0
O61 O 0.43777 0.95381 0.12793 0.0
C62 C 0.48728 0.96007 0.06401 0.0
O63 O 0.45703 0.92944 0.0656 0.0
C64 C 0.33802 0.96428 0.18096 0.0
O65 O 0.35338 0.94653 0.20626 0.0
O66 O 0.42699 0.91471 0.18678 0.0
O67 O 0.49488 0.93701 0.17654 0.0
H68 H 0.36008 0.7623 0.19827 0.0
H69 H 0.45287 0.03268 0.10863 0.0
O70 O 0.50744 0.9723 0.08798 0.0
H71 H 0.54138 0.09032 0.19385 0.0
H72 H 0.65059 0.00973 0.1122 0.0
H73 H 0.56282 0.89431 0.16376 0.0
H74 H 0.54353 0.00994 0.17973 0.0
H75 H 0.5718 0.0114 0.1082 0.0
O76 O 0.35577 0.95601 0.15508 0.0
H77 H 0.40923 0.81934 0.17784 0.0
H78 H 0.30456 0.89442 0.1427 0.0
H79 H 0.6415 0.8917 0.1687 0.0
H80 H 0.44925 0.11316 0.12226 0.0
H81 H 0.68599 0.9497 0.14275 0.0
H82 H 0.49381 0.14251 0.16512 0.0
O83 O 0.50388 0.88822 0.11986 0.0
H84 H 0.33408 0.96483 0.04704 0.0
H85 H 0.37975 0.82965 0.10403 0.0
H86 H 0.34944 0.82137 0.05208 0.0
H87 H 0.32624 0.88926 0.02323 0.0
H88 H 0.3651 0.97167 0.09891 0.0
H89 H 0.2541 0.8375 0.16205 0.0
H90 H 0.28164 0.77105 0.19047 0.0
O91 O 0.441 0.85906 0.13516 0.0
C92 C 0.46526 0.92509 0.1952 0.0
C93 C 0.34754 0.79171 0.18666 0.0
C94 C 0.28813 0.83377 0.16623 0.0
N95 N 0.36003 0.86221 0.16104 0.0
C96 C 0.37538 0.82479 0.1756 0.0
C97 C 0.31696 0.86624 0.15562 0.0
C98 C 0.30359 0.7965 0.18213 0.0
C99 C 0.47216 0.04511 0.12743 0.0
N100 N 0.49826 0.01657 0.14343 0.0
C101 C 0.47007 0.09076 0.13499 0.0
C102 C 0.4951 0.10721 0.15901 0.0
C103 C 0.52183 0.07797 0.17511 0.0
C104 C 0.52297 0.03249 0.16697 0.0
C105 C 0.63156 0.98429 0.12363 0.0
C106 C 0.58187 0.91983 0.1526 0.0
C107 C 0.58689 0.98493 0.12135 0.0
N108 N 0.5626 0.95304 0.13587 0.0
C109 C 0.62646 0.91811 0.15539 0.0
C110 C 0.6514 0.95062 0.1408 0.0
C111 C 0.47862 0.85502 0.12428 0.0
C112 C 0.3439 0.93497 0.05943 0.0
C113 C 0.3699 0.85941 0.09163 0.0
C114 C 0.35263 0.85448 0.06223 0.0
C115 C 0.33959 0.89258 0.04606 0.0
N116 N 0.37402 0.90112 0.1046 0.0
C117 C 0.36129 0.93862 0.08888 0.0
Co118 Co 0.50923 0.9398 0.38652 0.0
Co119 Co 0.60876 0.90958 0.35984 0.0
O120 O 0.57209 0.94731 0.38612 0.0
C121 C 0.53019 0.95182 0.45393 0.0
O122 O 0.56293 0.92423 0.45204 0.0
C123 C 0.658 0.99882 0.36386 0.0
O124 O 0.62987 0.01808 0.38199 0.0
O125 O 0.57466 0.92952 0.32307 0.0
O126 O 0.50814 0.92285 0.34215 0.0
H127 H 0.63745 0.80664 0.27018 0.0
H128 H 0.54763 0.02551 0.40807 0.0
O129 O 0.50648 0.95919 0.43074 0.0
H130 H 0.45251 0.06785 0.32237 0.0
H131 H 0.35802 0.98267 0.41492 0.0
H132 H 0.4491 0.86978 0.36378 0.0
H133 H 0.45806 0.98875 0.33895 0.0
H134 H 0.4364 0.9927 0.41274 0.0
O135 O 0.65177 0.95945 0.35314 0.0
H136 H 0.59292 0.85269 0.30456 0.0
H137 H 0.70306 0.89231 0.35504 0.0
H138 H 0.37085 0.85865 0.3651 0.0
H139 H 0.54262 0.10512 0.39247 0.0
H140 H 0.32468 0.91538 0.39084 0.0
H141 H 0.49491 0.12672 0.34924 0.0
O142 O 0.51635 0.87449 0.39778 0.0
H143 H 0.67601 0.9267 0.46445 0.0
H144 H 0.64234 0.82057 0.38089 0.0
H145 H 0.68027 0.79324 0.42679 0.0
H146 H 0.69795 0.84657 0.46889 0.0
H147 H 0.63725 0.95209 0.41843 0.0
H148 H 0.74906 0.84746 0.32073 0.0
H149 H 0.71626 0.8037 0.27814 0.0
O150 O 0.5701 0.85694 0.36589 0.0
C151 C 0.53396 0.9261 0.31962 0.0
C152 C 0.65207 0.82484 0.28902 0.0
C153 C 0.71468 0.84785 0.31731 0.0
N154 N 0.64481 0.87331 0.3329 0.0
C155 C 0.62682 0.85049 0.3089 0.0
C156 C 0.68838 0.8731 0.33674 0.0
C157 C 0.69628 0.82335 0.29342 0.0
C158 C 0.52652 0.03467 0.38942 0.0
N159 N 0.50311 1.00247 0.37454 0.0
C160 C 0.52391 0.0798 0.38063 0.0
C161 C 0.49716 0.09189 0.35635 0.0
C162 C 0.47337 0.05888 0.34127 0.0
C163 C 0.47674 0.0141 0.35073 0.0
C164 C 0.37776 0.95782 0.40351 0.0
C165 C 0.42928 0.89486 0.37467 0.0
C166 C 0.42221 0.96329 0.40221 0.0
N167 N 0.44737 0.93218 0.38767 0.0
C168 C 0.38495 0.88827 0.37551 0.0
C169 C 0.35908 0.92007 0.38999 0.0
C170 C 0.53992 0.84537 0.38403 0.0
C171 C 0.66953 0.90333 0.44594 0.0
C172 C 0.65051 0.84429 0.3988 0.0
C173 C 0.67177 0.82846 0.42487 0.0
C174 C 0.68161 0.85835 0.44849 0.0
N175 N 0.64007 0.88888 0.39593 0.0
C176 C 0.64828 0.91785 0.4195 0.0
Co177 Co 0.99964 0.06125 0.38172 0.0
Co178 Co 0.90251 0.11504 0.36788 0.0
O179 O 0.93709 0.06718 0.38712 0.0
C180 C 0.98313 0.03571 0.44843 0.0
O181 O 0.94175 0.0418 0.44522 0.0
C182 C 0.83157 0.06089 0.33995 0.0
O183 O 0.8471 0.06888 0.31248 0.0
O184 O 0.92549 0.09806 0.32626 0.0
O185 O 0.9931 0.07625 0.33686 0.0
H186 H 0.87729 0.25276 0.30266 0.0
H187 H 0.93809 0.98832 0.40059 0.0
O188 O 1.00888 0.04433 0.42642 0.0
H189 H 0.03518 0.91672 0.32611 0.0
H190 H 0.14783 0.99739 0.39955 0.0
H191 H 0.06328 0.11404 0.34652 0.0
H192 H 0.04298 0.99689 0.33853 0.0
H193 H 0.06948 1.0006 0.40574 0.0
O194 O 0.85277 0.07228 0.36381 0.0
H195 H 0.92033 0.1924 0.32591 0.0
H196 H 0.81035 0.14233 0.37217 0.0
H197 H 0.14155 0.11144 0.33922 0.0
H198 H 0.92843 0.90869 0.3879 0.0
H199 H 0.18444 0.05282 0.36587 0.0
H200 H 0.97748 0.87187 0.35071 0.0
O201 O 1.00818 0.12638 0.39237 0.0
H202 H 0.83883 0.08479 0.47188 0.0
H203 H 0.89633 0.20155 0.40277 0.0
H204 H 0.87201 0.22276 0.45457 0.0
H205 H 0.84294 0.1642 0.48955 0.0
H206 H 0.86409 0.06486 0.42002 0.0
H207 H 0.76602 0.20189 0.34909 0.0
H208 H 0.79938 0.25764 0.31393 0.0
O209 O 0.94981 0.15892 0.37215 0.0
C210 C 0.96347 0.08704 0.31783 0.0
C211 C 0.86224 0.22836 0.31765 0.0
C212 C 0.79982 0.19979 0.34366 0.0
N213 N 0.86777 0.1625 0.34948 0.0
C214 C 0.88647 0.19389 0.33086 0.0
C215 C 0.82509 0.16578 0.35642 0.0
C216 C 0.81856 0.23111 0.324 0.0
C217 C 0.95967 0.97324 0.3843 0.0
N218 N 0.99208 0.99769 0.37123 0.0
C219 C 0.95399 0.92775 0.37723 0.0
C220 C 0.98151 0.90709 0.3564 0.0
C221 C 0.01398 0.93218 0.34272 0.0
C222 C 0.01857 0.97765 0.35023 0.0
C223 C 0.12949 0.02304 0.38777 0.0
C224 C 0.08155 0.08808 0.35793 0.0
C225 C 0.08504 0.02523 0.39135 0.0
N226 N 0.06151 0.05722 0.37627 0.0
C227 C 0.12595 0.08694 0.35383 0.0
C228 C 0.15 0.05411 0.36884 0.0
C229 C 0.98686 0.16094 0.38405 0.0
C230 C 0.85141 0.11063 0.45685 0.0
C231 C 0.88403 0.17573 0.41787 0.0
C232 C 0.87013 0.18803 0.44717 0.0
C233 C 0.85378 0.15517 0.46676 0.0
N234 N 0.88182 0.13191 0.40834 0.0
C235 C 0.86562 0.09957 0.4274 0.0
Co236 Co 0.99826 0.95093 0.88215 0.0
Co237 Co 0.90223 0.89199 0.868 0.0
O238 O 0.93516 0.94272 0.88609 0.0
C239 C 0.97934 0.9738 0.94912 0.0
O240 O 0.93818 0.96673 0.94569 0.0
C241 C 0.84453 0.97409 0.85714 0.0
O242 O 0.87403 1.00212 0.86681 0.0
O243 O 0.93018 0.90275 0.82672 0.0
O244 O 0.99406 0.93534 0.83751 0.0
H245 H 0.88599 0.73978 0.81679 0.0
H246 H 0.93856 0.02373 0.90364 0.0
O247 O 1.00534 0.96749 0.92697 0.0
H248 H 0.02592 0.09325 0.82237 0.0
H249 H 0.14078 0.02521 0.90405 0.0
H250 H 0.06762 0.90516 0.84647 0.0
H251 H 0.03671 0.01391 0.83648 0.0
H252 H 0.06277 0.01563 0.90808 0.0
O253 O 0.85228 0.93201 0.85568 0.0
H254 H 0.92556 0.80242 0.83945 0.0
H255 H 0.80885 0.86747 0.86281 0.0
H256 H 0.14556 0.91369 0.84152 0.0
H257 H 0.92632 0.10282 0.88995 0.0
H258 H 0.18291 0.9741 0.87052 0.0
H259 H 0.97031 0.13841 0.84912 0.0
O260 O 0.00926 0.88592 0.89288 0.0
H261 H 0.83454 0.93712 0.96836 0.0
H262 H 0.88623 0.81 0.9058 0.0
H263 H 0.85625 0.7954 0.95707 0.0
H264 H 0.83003 0.8592 0.98879 0.0
H265 H 0.86473 0.95019 0.91692 0.0
H266 H 0.76803 0.80521 0.84046 0.0
H267 H 0.8064 0.74063 0.81695 0.0
O268 O 0.9487 0.85015 0.87943 0.0
C269 C 0.96697 0.91852 0.81868 0.0
C270 C 0.86882 0.76829 0.8262 0.0
C271 C 0.80271 0.80495 0.8395 0.0
N272 N 0.87015 0.84109 0.85062 0.0
C273 C 0.89126 0.80468 0.83866 0.0
C274 C 0.82625 0.84073 0.85176 0.0
C275 C 0.82422 0.76868 0.82641 0.0
C276 C 0.95793 0.03856 0.8859 0.0
N277 N 0.98885 0.01393 0.87138 0.0
C278 C 0.95082 0.08361 0.87822 0.0
C279 C 0.9755 0.10356 0.85534 0.0
C280 C 1.00675 0.07829 0.84039 0.0
C281 C 0.01289 0.03332 0.84867 0.0
C282 C 0.12497 0.99848 0.8915 0.0
C283 C 0.08329 0.9311 0.8594 0.0
C284 C 0.08066 0.99255 0.89392 0.0
N285 N 0.06021 0.95899 0.87807 0.0
C286 C 0.12763 0.93599 0.8564 0.0
C287 C 0.14857 0.96987 0.87265 0.0
C288 C 0.98676 0.85024 0.88955 0.0
C289 C 0.84554 0.90898 0.95469 0.0
C290 C 0.87447 0.838 0.9192 0.0
C291 C 0.85768 0.82948 0.94834 0.0
C292 C 0.84306 0.86528 0.96614 0.0
N293 N 0.8764 0.88095 0.90792 0.0
C294 C 0.86262 0.91618 0.92546 0.0
Co295 Co 0.51373 0.06217 0.88337 0.0
Co296 Co 0.61408 0.10912 0.86933 0.0
O297 O 0.57654 0.06257 0.88682 0.0
C298 C 0.52784 0.05564 0.95127 0.0
O299 O 0.5575 0.08689 0.94962 0.0
C300 C 0.67757 0.0543 0.83418 0.0
O301 O 0.66301 0.07214 0.80865 0.0
O302 O 0.58612 0.10115 0.82765 0.0
O303 O 0.51841 0.07896 0.8388 0.0
H304 H 0.65053 0.25485 0.81543 0.0
H305 H 0.56276 0.98348 0.90608 0.0
O306 O 0.50778 0.04301 0.92737 0.0
H307 H 0.47314 0.92494 0.82174 0.0
H308 H 0.36477 0.00367 0.90448 0.0
H309 H 0.45001 0.12048 0.85224 0.0
H310 H 0.47039 0.00526 0.83597 0.0
H311 H 0.44363 1.00316 0.90774 0.0
O312 O 0.65837 0.06165 0.85962 0.0
H313 H 0.60255 0.19706 0.83622 0.0
H314 H 0.70864 0.1246 0.87166 0.0
H315 H 0.37123 0.12194 0.84803 0.0
H316 H 0.56702 0.90308 0.8923 0.0
H317 H 0.32801 0.06322 0.87432 0.0
H318 H 0.5219 0.87328 0.84989 0.0
O319 O 0.50987 0.1273 0.89569 0.0
H320 H 0.68055 0.05431 0.96756 0.0
H321 H 0.63266 0.18804 0.90991 0.0
H322 H 0.66299 0.19742 0.96176 0.0
H323 H 0.68732 0.13027 0.99094 0.0
H324 H 0.64946 0.04633 0.91579 0.0
H325 H 0.75796 0.18236 0.852 0.0
H326 H 0.72913 0.24786 0.82322 0.0
O327 O 0.57185 0.15702 0.87912 0.0
C328 C 0.54755 0.09084 0.81972 0.0
C329 C 0.66366 0.22581 0.82714 0.0
C330 C 0.72387 0.18528 0.84777 0.0
N331 N 0.65255 0.15527 0.85305 0.0
C332 C 0.63648 0.19225 0.83836 0.0
C333 C 0.69569 0.1523 0.85853 0.0
C334 C 0.7077 0.22202 0.83167 0.0
C335 C 0.54325 0.97086 0.88746 0.0
N336 N 0.51651 0.99912 0.87176 0.0
C337 C 0.5457 0.92526 0.87982 0.0
C338 C 0.52035 0.90855 0.85605 0.0
C339 C 0.49295 0.9375 0.84028 0.0
C340 C 0.49148 0.98294 0.84848 0.0
C341 C 0.38324 0.02943 0.8929 0.0
C342 C 0.43152 0.09468 0.86355 0.0
C343 C 0.42796 0.02945 0.89477 0.0
N344 N 0.45156 0.06174 0.88007 0.0
C345 C 0.38687 0.09573 0.86117 0.0
C346 C 0.36264 0.06282 0.87596 0.0
C347 C 0.53465 0.16073 0.89069 0.0
C348 C 0.67025 0.08385 0.95502 0.0
C349 C 0.643 0.15859 0.92246 0.0
C350 C 0.66027 0.16415 0.9518 0.0
C351 C 0.67395 0.12647 0.96815 0.0
N352 N 0.63949 0.11666 0.90971 0.0
C353 C 0.65282 0.07957 0.92562 0.0
Co354 Co 0.506 0.06992 0.63034 0.0
Co355 Co 0.40435 0.10179 0.65184 0.0
O356 O 0.44342 0.06227 0.6291 0.0
C357 C 0.48955 0.05821 0.56249 0.0
O358 O 0.45898 0.08857 0.5632 0.0
C359 C 0.34234 0.03949 0.68185 0.0
O360 O 0.35726 0.05136 0.70885 0.0
O361 O 0.43607 0.08689 0.69105 0.0
O362 O 0.50428 0.08858 0.67424 0.0
H363 H 0.36361 0.21142 0.7353 0.0
H364 H 0.46789 0.98361 0.60953 0.0
O365 O 0.51075 0.04883 0.58658 0.0
H366 H 0.55897 0.94427 0.69813 0.0
H367 H 0.65853 0.02636 0.60644 0.0
H368 H 0.56498 0.13991 0.65458 0.0
H369 H 0.55444 0.02273 0.68003 0.0
H370 H 0.58005 0.01646 0.60657 0.0
O371 O 0.36272 0.05059 0.65755 0.0
H372 H 0.41202 0.16125 0.70695 0.0
H373 H 0.3103 0.12249 0.64773 0.0
H374 H 0.64328 0.15092 0.65529 0.0
H375 H 0.47197 0.90458 0.62664 0.0
H376 H 0.69068 0.09387 0.63105 0.0
H377 H 0.51767 0.8845 0.6713 0.0
O378 O 0.50022 0.13491 0.61781 0.0
H379 H 0.33606 0.06347 0.55063 0.0
H380 H 0.37864 0.18716 0.6198 0.0
H381 H 0.34534 0.20489 0.56997 0.0
H382 H 0.32355 0.14282 0.53504 0.0
H383 H 0.37016 0.04716 0.60044 0.0
H384 H 0.26079 0.17248 0.67542 0.0
H385 H 0.28733 0.21763 0.71951 0.0
O386 O 0.44256 0.15477 0.64529 0.0
C387 C 0.47671 0.08861 0.69579 0.0
C388 C 0.35181 0.19255 0.71578 0.0
C389 C 0.29416 0.17077 0.68217 0.0
N390 N 0.36491 0.14051 0.67455 0.0
C391 C 0.37931 0.16431 0.69936 0.0
C392 C 0.32256 0.14275 0.66638 0.0
C393 C 0.30902 0.19596 0.70696 0.0
C394 C 0.4882 0.97508 0.62878 0.0
N395 N 0.51115 0.00774 0.64358 0.0
C396 C 0.49025 0.93029 0.63844 0.0
C397 C 0.51586 0.91906 0.66352 0.0
C398 C 0.53906 0.95256 0.67858 0.0
C399 C 0.53629 0.99697 0.66824 0.0
C400 C 0.63823 0.05137 0.61717 0.0
C401 C 0.58533 0.11473 0.64427 0.0
C402 C 0.59373 0.04599 0.61729 0.0
N403 N 0.56788 0.07735 0.63091 0.0
C404 C 0.62969 0.12124 0.64462 0.0
C405 C 0.65625 0.08926 0.63099 0.0
C406 C 0.47549 0.16501 0.62937 0.0
C407 C 0.34519 0.09081 0.56572 0.0
C408 C 0.36959 0.15988 0.60468 0.0
C409 C 0.35054 0.17017 0.57653 0.0
C410 C 0.33828 0.13533 0.55696 0.0
N411 N 0.37607 0.11607 0.61323 0.0
C412 C 0.3643 0.08178 0.59406 0.0
Co413 Co 0.01686 0.9247 0.628 0.0
Co414 Co 0.11369 0.88725 0.65562 0.0
O415 O 0.0802 0.92866 0.62959 0.0
C416 C 0.04275 0.96205 0.56502 0.0
O417 O 0.08335 0.96435 0.57258 0.0
C418 C 0.17116 0.9719 0.65345 0.0
O419 O 0.14647 0.99372 0.63416 0.0
O420 O 0.0798 0.90894 0.69223 0.0
O421 O 0.01377 0.90539 0.67194 0.0
H422 H 0.13237 0.78024 0.74383 0.0
H423 H 0.06666 0.01026 0.61756 0.0
O424 O 0.0151 0.94553 0.5835 0.0
H425 H 0.95715 0.0484 0.69454 0.0
H426 H 0.86764 0.97517 0.59921 0.0
H427 H 0.95379 0.85502 0.64683 0.0
H428 H 0.96074 0.97208 0.67291 0.0
H429 H 0.94615 0.98217 0.60282 0.0
O430 O 0.16035 0.93341 0.66387 0.0
H431 H 0.09202 0.82893 0.70883 0.0
H432 H 0.2064 0.86293 0.66144 0.0
H433 H 0.87533 0.84688 0.64423 0.0
H434 H 0.06439 0.08669 0.63871 0.0
H435 H 0.8316 0.90729 0.62026 0.0
H436 H 0.00912 0.10655 0.67741 0.0
O437 O 0.02159 0.85994 0.61482 0.0
H438 H 0.18191 0.90072 0.55107 0.0
H439 H 0.14129 0.79635 0.63395 0.0
H440 H 0.17605 0.76667 0.58751 0.0
H441 H 0.19692 0.81899 0.54562 0.0
H442 H 0.14723 0.92874 0.59796 0.0
H443 H 0.24827 0.81427 0.69607 0.0
H444 H 0.21127 0.77207 0.7375 0.0
O445 O 0.07165 0.83772 0.64843 0.0
C446 C 0.03879 0.90801 0.69499 0.0
C447 C 0.14888 0.79755 0.72553 0.0
C448 C 0.21387 0.81692 0.69881 0.0
N449 N 0.14634 0.8475 0.6823 0.0
C450 C 0.12598 0.82501 0.7054 0.0
C451 C 0.18992 0.84435 0.67923 0.0
C452 C 0.19309 0.79326 0.72206 0.0
C453 C 0.04215 0.01831 0.63395 0.0
N454 N 0.01273 0.98672 0.64271 0.0
C455 C 0.04112 0.06187 0.64602 0.0
C456 C 0.01017 0.07298 0.66776 0.0
C457 C 0.98092 0.04045 0.67727 0.0
C458 C 0.98291 0.99728 0.66465 0.0
C459 C 0.8863 0.94874 0.6099 0.0
C460 C 0.93507 0.88179 0.63688 0.0
C461 C 0.93085 0.95249 0.61195 0.0
N462 N 0.95469 0.91952 0.6257 0.0
C463 C 0.89059 0.87684 0.63523 0.0
C464 C 0.86609 0.91067 0.62172 0.0
C465 C 0.04175 0.8289 0.62935 0.0
C466 C 0.17372 0.87763 0.56937 0.0
C467 C 0.15106 0.81965 0.61623 0.0
C468 C 0.17044 0.80248 0.5898 0.0
C469 C 0.18202 0.8318 0.56629 0.0
N470 N 0.14412 0.86494 0.61956 0.0
C471 C 0.15433 0.8935 0.59618 0.0
Co472 Co 0.51808 0.56938 0.12814 0.0
Co473 Co 0.61595 0.62178 0.14121 0.0
O474 O 0.58045 0.57393 0.12311 0.0
C475 C 0.52766 0.56226 0.05936 0.0
O476 O 0.55366 0.59703 0.059 0.0
C477 C 0.68392 0.56468 0.17116 0.0
O478 O 0.66804 0.57377 0.19837 0.0
O479 O 0.59147 0.60855 0.18328 0.0
O480 O 0.52343 0.58709 0.17261 0.0
H481 H 0.64726 0.76555 0.19945 0.0
H482 H 0.57043 0.49356 0.10471 0.0
O483 O 0.51128 0.54867 0.08441 0.0
H484 H 0.48845 0.43092 0.19155 0.0
H485 H 0.37229 0.50033 0.11067 0.0
H486 H 0.452 0.62405 0.15994 0.0
H487 H 0.48056 0.51073 0.177 0.0
H488 H 0.45083 0.5051 0.10589 0.0
O489 O 0.664 0.57704 0.14694 0.0
H490 H 0.60128 0.70799 0.1763 0.0
H491 H 0.70988 0.64209 0.13882 0.0
H492 H 0.37351 0.62027 0.16569 0.0
H493 H 0.57983 0.41377 0.1188 0.0
H494 H 0.33305 0.55805 0.14088 0.0
H495 H 0.53855 0.38189 0.16244 0.0
O496 O 0.51041 0.63421 0.11574 0.0
H497 H 0.67807 0.58133 0.03839 0.0
H498 H 0.62738 0.70553 0.10417 0.0
H499 H 0.6536 0.72217 0.05204 0.0
H500 H 0.67933 0.65984 0.01877 0.0
H501 H 0.65101 0.56607 0.09052 0.0
H502 H 0.7572 0.6993 0.16132 0.0
H503 H 0.72613 0.76149 0.19226 0.0
O504 O 0.56971 0.66704 0.13479 0.0
C505 C 0.55314 0.59799 0.19153 0.0
C506 C 0.66137 0.73787 0.18683 0.0
C507 C 0.72299 0.70081 0.16538 0.0
N508 N 0.65263 0.66901 0.15838 0.0
C509 C 0.63532 0.70437 0.17418 0.0
C510 C 0.6959 0.66797 0.15306 0.0
C511 C 0.70556 0.73572 0.18265 0.0
C512 C 0.55257 0.48004 0.12387 0.0
N513 N 0.52506 0.50684 0.14006 0.0
C514 C 0.55794 0.43479 0.13168 0.0
C515 C 0.53474 0.41692 0.15615 0.0
C516 C 0.50658 0.44438 0.17246 0.0
C517 C 0.5022 0.48954 0.16409 0.0
C518 C 0.38955 0.5276 0.1216 0.0
C519 C 0.43476 0.59679 0.14926 0.0
C520 C 0.43408 0.53064 0.11886 0.0
N521 N 0.45618 0.56488 0.13272 0.0
C522 C 0.39024 0.59485 0.15251 0.0
C523 C 0.36756 0.55997 0.13856 0.0
C524 C 0.53261 0.66898 0.12268 0.0
C525 C 0.66712 0.60881 0.05271 0.0
C526 C 0.63841 0.67817 0.08985 0.0
C527 C 0.6533 0.68783 0.06034 0.0
C528 C 0.66775 0.65285 0.0417 0.0
N529 N 0.63791 0.63487 0.1005 0.0
C530 C 0.65195 0.6004 0.08232 0.0
Co531 Co 1.00515 0.43681 0.12506 0.0
Co532 Co 0.90626 0.40607 0.15282 0.0
O533 O 0.94225 0.44377 0.12598 0.0
C534 C 0.98408 0.44659 0.05769 0.0
O535 O 0.95235 0.41769 0.05953 0.0
C536 C 0.85573 0.49475 0.14834 0.0
O537 O 0.8832 0.51368 0.12953 0.0
O538 O 0.94114 0.42667 0.1892 0.0
O539 O 1.00711 0.42035 0.16914 0.0
H540 H 0.87936 0.30556 0.24406 0.0
H541 H 0.96571 0.52186 0.10342 0.0
O542 O 1.00704 0.45557 0.08094 0.0
H543 H 0.06243 0.5662 0.18778 0.0
H544 H 0.15561 0.47977 0.09463 0.0
H545 H 0.06609 0.36807 0.14842 0.0
H546 H 0.05693 0.48681 0.1718 0.0
H547 H 0.07725 0.48949 0.09754 0.0
O548 O 0.86286 0.45588 0.15969 0.0
H549 H 0.92312 0.35124 0.20899 0.0
H550 H 0.81223 0.38768 0.15827 0.0
H551 H 0.14434 0.35729 0.14634 0.0
H552 H 0.97062 0.60176 0.11843 0.0
H553 H 0.18972 0.4134 0.11927 0.0
H554 H 0.01915 0.62437 0.16097 0.0
O555 O 0.99834 0.3714 0.1143 0.0
H556 H 0.83845 0.42091 0.0482 0.0
H557 H 0.87238 0.31668 0.13271 0.0
H558 H 0.83418 0.28835 0.0872 0.0
H559 H 0.81637 0.34072 0.04462 0.0
H560 H 0.87733 0.44736 0.09385 0.0
H561 H 0.76699 0.34318 0.19329 0.0
H562 H 0.80057 0.30115 0.23634 0.0
O563 O 0.94515 0.35331 0.14652 0.0
C564 C 0.98197 0.42353 0.19196 0.0
C565 C 0.86443 0.32291 0.22499 0.0
C566 C 0.80139 0.34412 0.19657 0.0
N567 N 0.87087 0.36999 0.18035 0.0
C568 C 0.88925 0.34831 0.20469 0.0
C569 C 0.82726 0.36914 0.17672 0.0
C570 C 0.82022 0.3206 0.22073 0.0
C571 C 0.98716 0.53147 0.12178 0.0
N572 N 0.01106 0.49967 0.13663 0.0
C573 C 0.98971 0.57675 0.13024 0.0
C574 C 0.01692 0.58941 0.15413 0.0
C575 C 0.04122 0.5568 0.16917 0.0
C576 C 0.03788 0.51185 0.16006 0.0
C577 C 0.1362 0.45517 0.10659 0.0
C578 C 0.08556 0.39285 0.13685 0.0
C579 C 0.09177 0.46044 0.10828 0.0
N580 N 0.06703 0.42961 0.12346 0.0
C581 C 0.12989 0.38647 0.13564 0.0
C582 C 0.15532 0.41793 0.12041 0.0
C583 C 0.97531 0.34197 0.12823 0.0
C584 C 0.84495 0.39797 0.06693 0.0
C585 C 0.86405 0.34003 0.11463 0.0
C586 C 0.84268 0.32362 0.08876 0.0
C587 C 0.83278 0.35296 0.06487 0.0
N588 N 0.87446 0.3847 0.11708 0.0
C589 C 0.86629 0.4131 0.09319 0.0
Co590 Co 0.03379 0.4441 0.37654 0.0
Co591 Co 0.12968 0.38853 0.35841 0.0
O592 O 0.09712 0.43737 0.37935 0.0
C593 C 0.05408 0.46822 0.44315 0.0
O594 O 0.09545 0.46394 0.43898 0.0
C595 C 0.19042 0.47026 0.35633 0.0
O596 O 0.16311 0.49662 0.37043 0.0
O597 O 0.10263 0.40539 0.31795 0.0
O598 O 0.03645 0.42894 0.33175 0.0
H599 H 0.14527 0.24201 0.29928 0.0
H600 H 0.09209 0.51892 0.39667 0.0
O601 O 0.0277 0.46053 0.42142 0.0
H602 H 0.99926 0.58528 0.31731 0.0
H603 H 0.88921 0.51336 0.39886 0.0
H604 H 0.96582 0.39201 0.34475 0.0
H605 H 0.99177 0.50551 0.33143 0.0
H606 H 0.96782 0.50769 0.40192 0.0
O607 O 0.1802 0.42988 0.34941 0.0
H608 H 0.1064 0.30006 0.32704 0.0
H609 H 0.22354 0.36622 0.3485 0.0
H610 H 0.88722 0.39673 0.34066 0.0
H611 H 0.10147 0.59832 0.38268 0.0
H612 H 0.84829 0.45776 0.3679 0.0
H613 H 0.05457 0.63238 0.34289 0.0
O614 O 0.02535 0.37932 0.38782 0.0
H615 H 0.19093 0.41666 0.46392 0.0
H616 H 0.14568 0.30087 0.38967 0.0
H617 H 0.17281 0.27772 0.44021 0.0
H618 H 0.19564 0.33575 0.47789 0.0
H619 H 0.16436 0.43828 0.4129 0.0
H620 H 0.26345 0.30816 0.3213 0.0
H621 H 0.22461 0.24543 0.29593 0.0
O622 O 0.08235 0.34569 0.36654 0.0
C623 C 0.06418 0.41782 0.31153 0.0
C624 C 0.16257 0.26987 0.30948 0.0
C625 C 0.22877 0.3069 0.32185 0.0
N626 N 0.1616 0.33977 0.33777 0.0
C627 C 0.14044 0.30393 0.3249 0.0
C628 C 0.20555 0.34043 0.33701 0.0
C629 C 0.20703 0.27166 0.30772 0.0
C630 C 0.07168 0.533 0.37928 0.0
N631 N 0.04089 0.50731 0.36545 0.0
C632 C 0.07708 0.57826 0.37146 0.0
C633 C 0.05076 0.59735 0.34917 0.0
C634 C 0.01966 0.571 0.3349 0.0
C635 C 0.01538 0.5258 0.34321 0.0
C636 C 0.90578 0.48658 0.38691 0.0
C637 C 0.94928 0.41874 0.35652 0.0
C638 C 0.95037 0.48301 0.38871 0.0
N639 N 0.97167 0.44949 0.37349 0.0
C640 C 0.90467 0.42121 0.35419 0.0
C641 C 0.88285 0.45542 0.36951 0.0
C642 C 0.04627 0.34437 0.37986 0.0
C643 C 0.18139 0.39099 0.44764 0.0
C644 C 0.15636 0.32649 0.40551 0.0
C645 C 0.17137 0.31308 0.4343 0.0
C646 C 0.18404 0.34563 0.45546 0.0
N647 N 0.15435 0.3711 0.39775 0.0
C648 C 0.16615 0.4031 0.41863 0.0
Co649 Co 0.5082 0.55514 0.37951 0.0
Co650 Co 0.41797 0.6198 0.3617 0.0
O651 O 0.44613 0.56821 0.38205 0.0
C652 C 0.4842 0.53567 0.44622 0.0
O653 O 0.4441 0.54724 0.44181 0.0
C654 C 0.36294 0.54219 0.34128 0.0
O655 O 0.39723 0.5186 0.33445 0.0
O656 O 0.44606 0.60471 0.32134 0.0
O657 O 0.5082 0.57197 0.33519 0.0
H658 H 0.41282 0.75886 0.2958 0.0
H659 H 0.445 0.48619 0.40035 0.0
O660 O 0.51132 0.53745 0.42437 0.0
H661 H 0.52312 0.41548 0.3148 0.0
H662 H 0.64337 0.46991 0.40558 0.0
H663 H 0.58171 0.59092 0.34231 0.0
H664 H 0.54105 0.49236 0.33155 0.0
H665 H 0.5664 0.48666 0.40809 0.0
O666 O 0.36642 0.58212 0.3514 0.0
H667 H 0.44739 0.69488 0.32177 0.0
H668 H 0.32787 0.65417 0.35913 0.0
H669 H 0.65877 0.57527 0.33915 0.0
H670 H 0.4258 0.40936 0.38431 0.0
H671 H 0.69037 0.51443 0.37102 0.0
H672 H 0.4651 0.37331 0.34124 0.0
O673 O 0.52242 0.619 0.3916 0.0
H674 H 0.33569 0.58663 0.45833 0.0
H675 H 0.4078 0.70462 0.39774 0.0
H676 H 0.37422 0.72444 0.44714 0.0
H677 H 0.33788 0.6652 0.47785 0.0
H678 H 0.36991 0.56828 0.40888 0.0
H679 H 0.29189 0.7177 0.33352 0.0
H680 H 0.33444 0.77074 0.30164 0.0
O681 O 0.46712 0.65948 0.37278 0.0
C682 C 0.48306 0.58838 0.31511 0.0
C683 C 0.39393 0.73604 0.30966 0.0
C684 C 0.32607 0.71288 0.33076 0.0
N685 N 0.38988 0.67051 0.34184 0.0
C686 C 0.41341 0.69963 0.32439 0.0
C687 C 0.34666 0.67678 0.3451 0.0
C688 C 0.34995 0.74265 0.31291 0.0
C689 C 0.46242 0.47082 0.38179 0.0
N690 N 0.49468 0.49366 0.36746 0.0
C691 C 0.45137 0.42722 0.37273 0.0
C692 C 0.47339 0.40703 0.34857 0.0
C693 C 0.50599 0.43063 0.33379 0.0
C694 C 0.51614 0.47416 0.34352 0.0
C695 C 0.63018 0.49714 0.39204 0.0
C696 C 0.59501 0.56542 0.35702 0.0
C697 C 0.58651 0.5073 0.39367 0.0
N698 N 0.56941 0.54174 0.37673 0.0
C699 C 0.63881 0.55622 0.35479 0.0
C700 C 0.6565 0.52202 0.37259 0.0
C701 C 0.50337 0.65641 0.38615 0.0
C702 C 0.35148 0.61274 0.4452 0.0
C703 C 0.39225 0.67857 0.41102 0.0
C704 C 0.37314 0.69005 0.43894 0.0
C705 C 0.35274 0.65681 0.45614 0.0
N706 N 0.39113 0.63521 0.40052 0.0
C707 C 0.37085 0.60254 0.41714 0.0
Co708 Co 0.4992 0.44622 0.88227 0.0
Co709 Co 0.40112 0.39315 0.86983 0.0
O710 O 0.43646 0.44254 0.88627 0.0
C711 C 0.48597 0.45719 0.95038 0.0
O712 O 0.45702 0.42512 0.95031 0.0
C713 C 0.33207 0.44097 0.83535 0.0
O714 O 0.34583 0.42172 0.81007 0.0
O715 O 0.42745 0.40172 0.82757 0.0
O716 O 0.49443 0.42694 0.83816 0.0
H717 H 0.37246 0.24366 0.81835 0.0
H718 H 0.44681 0.52322 0.90379 0.0
O719 O 0.50535 0.46805 0.9258 0.0
H720 H 0.53165 0.58231 0.81722 0.0
H721 H 0.64531 0.51422 0.90035 0.0
H722 H 0.56533 0.39009 0.85177 0.0
H723 H 0.53853 0.50295 0.8331 0.0
H724 H 0.56664 0.51037 0.90446 0.0
O725 O 0.35357 0.43721 0.86024 0.0
H726 H 0.41708 0.30594 0.83697 0.0
H727 H 0.30807 0.37041 0.87483 0.0
H728 H 0.64394 0.39295 0.84671 0.0
H729 H 0.43841 0.6026 0.88837 0.0
H730 H 0.68453 0.45536 0.87118 0.0
H731 H 0.48113 0.63268 0.84484 0.0
O732 O 0.5066 0.38192 0.89587 0.0
H733 H 0.33468 0.44656 0.9684 0.0
H734 H 0.38893 0.31446 0.91187 0.0
H735 H 0.36101 0.3048 0.96436 0.0
H736 H 0.33348 0.37111 0.99297 0.0
H737 H 0.36344 0.45488 0.91601 0.0
H738 H 0.26219 0.308 0.85754 0.0
H739 H 0.29415 0.24424 0.82861 0.0
O740 O 0.44632 0.34848 0.87939 0.0
C741 C 0.46563 0.41322 0.81935 0.0
C742 C 0.35788 0.27188 0.83011 0.0
C743 C 0.29609 0.30783 0.85223 0.0
N744 N 0.36512 0.34391 0.85484 0.0
C745 C 0.38304 0.30796 0.84007 0.0
C746 C 0.32227 0.34343 0.86166 0.0
C747 C 0.31402 0.27207 0.83605 0.0
C748 C 0.46529 0.53596 0.88469 0.0
N749 N 0.49301 0.5084 0.8693 0.0
C750 C 0.46049 0.58098 0.87612 0.0
C751 C 0.48449 0.59785 0.85172 0.0
C752 C 0.51288 0.56963 0.83624 0.0
C753 C 0.51668 0.52473 0.84537 0.0
C754 C 0.62799 0.48685 0.88959 0.0
C755 C 0.58263 0.41744 0.8623 0.0
C756 C 0.58339 0.48433 0.89196 0.0
N757 N 0.56122 0.44998 0.87829 0.0
C758 C 0.62721 0.41886 0.85944 0.0
C759 C 0.64997 0.45384 0.8732 0.0
C760 C 0.48369 0.34703 0.89085 0.0
C761 C 0.34637 0.41736 0.95611 0.0
C762 C 0.37717 0.34356 0.92416 0.0
C763 C 0.36128 0.33784 0.95387 0.0
C764 C 0.3458 0.37504 0.96991 0.0
N765 N 0.37756 0.38518 0.91074 0.0
C766 C 0.36248 0.42182 0.92635 0.0
Co767 Co 0.01056 0.56598 0.883 0.0
Co768 Co 0.10868 0.60481 0.85921 0.0
O769 O 0.07371 0.56202 0.88284 0.0
C770 C 0.02686 0.55412 0.95078 0.0
O771 O 0.05367 0.58819 0.95129 0.0
C772 C 0.16347 0.5187 0.85815 0.0
O773 O 0.13539 0.49482 0.87359 0.0
O774 O 0.07647 0.58625 0.82098 0.0
O775 O 0.0092 0.58692 0.83941 0.0
H776 H 0.13195 0.71924 0.77609 0.0
H777 H 0.05349 0.48098 0.90103 0.0
O778 O 1.00845 0.5424 0.92606 0.0
H779 H 0.96189 0.44098 0.81282 0.0
H780 H 0.86166 0.51088 0.90773 0.0
H781 H 0.94693 0.63496 0.86403 0.0
H782 H 0.96258 0.51848 0.83304 0.0
H783 H 0.94047 0.50587 0.90559 0.0
O784 O 0.15535 0.5592 0.85051 0.0
H785 H 0.08999 0.66722 0.80772 0.0
H786 H 0.20168 0.63012 0.85719 0.0
H787 H 0.86819 0.64115 0.86529 0.0
H788 H 0.05343 0.4029 0.88172 0.0
H789 H 0.82494 0.57876 0.8873 0.0
H790 H 1.00752 0.38252 0.83721 0.0
O791 O 0.01364 0.63054 0.89732 0.0
H792 H 0.17029 0.57968 0.96482 0.0
H793 H 0.13587 0.693 0.88597 0.0
H794 H 0.16774 0.7173 0.93493 0.0
H795 H 0.18541 0.66047 0.97478 0.0
H796 H 0.13879 0.55676 0.91551 0.0
H797 H 0.2452 0.68181 0.8259 0.0
H798 H 0.21034 0.72734 0.78516 0.0
O799 O 0.06694 0.654 0.86686 0.0
C800 C 0.03558 0.58608 0.8171 0.0
C801 C 0.14753 0.70035 0.79407 0.0
C802 C 0.21103 0.67911 0.82194 0.0
N803 N 0.14286 0.64658 0.83504 0.0
C804 C 0.12371 0.67095 0.81229 0.0
C805 C 0.18616 0.64986 0.83962 0.0
C806 C 0.19146 0.70463 0.79908 0.0
C807 C 0.03317 0.47229 0.88181 0.0
N808 N 1.00808 0.50429 0.86823 0.0
C809 C 0.03335 0.42805 0.87093 0.0
C810 C 1.00761 0.41665 0.84594 0.0
C811 C 0.98199 0.44942 0.83225 0.0
C812 C 0.98261 0.4933 0.84377 0.0
C813 C 0.88012 0.53814 0.89787 0.0
C814 C 0.92839 0.60738 0.87312 0.0
C815 C 0.9248 0.53549 0.89656 0.0
N816 N 0.94836 0.56968 0.88399 0.0
C817 C 0.88378 0.6112 0.87401 0.0
C818 C 0.85954 0.57624 0.88642 0.0
C819 C 0.03539 0.66205 0.88456 0.0
C820 C 0.16338 0.60472 0.94746 0.0
C821 C 0.14428 0.66781 0.90284 0.0
C822 C 0.16201 0.6819 0.93068 0.0
C823 C 0.17178 0.65003 0.95306 0.0
N824 N 0.13722 0.62309 0.89707 0.0
C825 C 0.1456 0.5919 0.91934 0.0
Co826 Co 1.00172 0.54038 0.62921 0.0
Co827 Co 0.90442 0.59622 0.64168 0.0
O828 O 0.93933 0.54754 0.6243 0.0
C829 C 0.98556 0.52587 0.56104 0.0
O830 O 0.94602 0.54041 0.56325 0.0
C831 C 0.83913 0.54487 0.67816 0.0
O832 O 0.85467 0.56309 0.70328 0.0
O833 O 0.93236 0.58804 0.68331 0.0
O834 O 0.99623 0.55477 0.67385 0.0
H835 H 0.87641 0.74607 0.69301 0.0
H836 H 0.94181 0.46967 0.60604 0.0
O837 O 0.00999 0.52497 0.58445 0.0
H838 H 0.02669 0.39565 0.68701 0.0
H839 H 0.14489 0.46744 0.60832 0.0
H840 H 0.07002 0.58579 0.66633 0.0
H841 H 0.03945 0.47515 0.67402 0.0
H842 H 0.06688 0.47672 0.60342 0.0
O843 O 0.85782 0.55128 0.65237 0.0
H844 H 0.92102 0.68499 0.6729 0.0
H845 H 0.81071 0.61635 0.64051 0.0
H846 H 0.14789 0.57748 0.67213 0.0
H847 H 0.9274 0.3905 0.61885 0.0
H848 H 0.18608 0.51794 0.64292 0.0
H849 H 0.97022 0.3527 0.65943 0.0
O850 O 0.0118 0.60605 0.61973 0.0
H851 H 0.82904 0.54457 0.5458 0.0
H852 H 0.89131 0.67488 0.60002 0.0
H853 H 0.85958 0.68546 0.54874 0.0
H854 H 0.82795 0.62007 0.5213 0.0
H855 H 0.8621 0.53519 0.5968 0.0
H856 H 0.7647 0.67736 0.65964 0.0
H857 H 0.79736 0.74269 0.68651 0.0
O858 O 0.9495 0.64088 0.63099 0.0
C859 C 0.9688 0.57226 0.69208 0.0
C860 C 0.86161 0.71717 0.68216 0.0
C861 C 0.799 0.67875 0.66333 0.0
N862 N 0.86869 0.64494 0.65769 0.0
C863 C 0.88687 0.68174 0.67132 0.0
C864 C 0.82531 0.64391 0.65288 0.0
C865 C 0.81733 0.71539 0.67835 0.0
C866 C 0.96055 0.45379 0.62384 0.0
N867 N 0.99206 0.47713 0.6388 0.0
C868 C 0.95228 0.40875 0.63093 0.0
C869 C 0.97631 0.38756 0.65367 0.0
C870 C 1.00808 0.41159 0.66907 0.0
C871 C 0.0154 0.4566 0.6614 0.0
C872 C 0.1287 0.4938 0.62097 0.0
C873 C 0.08608 0.56024 0.65331 0.0
C874 C 0.08443 0.49958 0.61807 0.0
N875 N 0.06354 0.53269 0.63405 0.0
C876 C 0.13037 0.55547 0.65679 0.0
C877 C 0.15177 0.52206 0.64042 0.0
C878 C 0.98847 0.6414 0.62236 0.0
C879 C 0.84263 0.57335 0.55756 0.0
C880 C 0.87805 0.6461 0.58816 0.0
C881 C 0.8599 0.65238 0.55916 0.0
C882 C 0.8421 0.61569 0.5438 0.0
N883 N 0.87862 0.60441 0.60147 0.0
C884 C 0.86112 0.56831 0.58656 0.0
Co885 Co 0.51775 0.4539 0.63306 0.0
Co886 Co 0.60718 0.38734 0.65149 0.0
O887 O 0.57992 0.43973 0.63093 0.0
C888 C 0.54189 0.47341 0.56624 0.0
O889 O 0.58203 0.46206 0.57056 0.0
C890 C 0.67063 0.46463 0.66094 0.0
O891 O 0.64321 0.49347 0.64947 0.0
O892 O 0.57796 0.40228 0.69154 0.0
O893 O 0.51712 0.43711 0.67723 0.0
H894 H 0.60548 0.24743 0.71664 0.0
H895 H 0.58128 0.52277 0.61187 0.0
O896 O 0.5149 0.47148 0.58816 0.0
H897 H 0.50409 0.59355 0.69785 0.0
H898 H 0.38386 0.54117 0.60658 0.0
H899 H 0.44353 0.41958 0.67035 0.0
H900 H 0.48597 0.51668 0.68127 0.0
H901 H 0.46053 0.52308 0.60415 0.0
O902 O 0.65998 0.4234 0.66437 0.0
H903 H 0.5741 0.3129 0.69036 0.0
H904 H 0.6963 0.34956 0.65578 0.0
H905 H 0.3668 0.43675 0.67347 0.0
H906 H 0.6003 0.59975 0.62757 0.0
H907 H 0.33617 0.49782 0.64134 0.0
H908 H 0.56159 0.6358 0.6709 0.0
O909 O 0.50259 0.39024 0.62106 0.0
H910 H 0.68427 0.42 0.55224 0.0
H911 H 0.6208 0.30166 0.6172 0.0
H912 H 0.6541 0.28092 0.56797 0.0
H913 H 0.68611 0.3403 0.53502 0.0
H914 H 0.65122 0.43915 0.60181 0.0
H915 H 0.72916 0.28463 0.68175 0.0
H916 H 0.68362 0.23278 0.71239 0.0
O917 O 0.55771 0.34879 0.63905 0.0
C918 C 0.5412 0.41946 0.69742 0.0
C919 C 0.62566 0.26973 0.70335 0.0
C920 C 0.69506 0.29068 0.68385 0.0
N921 N 0.63316 0.33548 0.67165 0.0
C922 C 0.60801 0.307 0.68844 0.0
C923 C 0.67627 0.32767 0.66932 0.0
C924 C 0.66951 0.26157 0.70099 0.0
C925 C 0.56386 0.53819 0.63043 0.0
N926 N 0.53191 0.51527 0.64507 0.0
C927 C 0.57494 0.58185 0.63936 0.0
C928 C 0.55327 0.60204 0.66368 0.0
C929 C 0.52098 0.57839 0.67876 0.0
C930 C 0.51077 0.53482 0.66915 0.0
C931 C 0.39662 0.51383 0.62023 0.0
C932 C 0.43071 0.4453 0.65556 0.0
C933 C 0.44012 0.50288 0.61863 0.0
N934 N 0.45668 0.46828 0.6357 0.0
C935 C 0.38706 0.4553 0.65775 0.0
C936 C 0.36991 0.48962 0.6398 0.0
C937 C 0.52118 0.35247 0.62615 0.0
C938 C 0.67065 0.39376 0.56645 0.0
C939 C 0.63516 0.32773 0.60327 0.0
C940 C 0.65381 0.31575 0.5753 0.0
C941 C 0.67167 0.34906 0.5568 0.0
N942 N 0.63469 0.37162 0.61283 0.0
C943 C 0.6518 0.40443 0.59462 0.0
C944 C 0.29398 0.03134 0.16564 0.0
C945 C 0.29665 0.98968 0.18137 0.0
C946 C 0.21934 0.99428 0.19245 0.0
C947 C 0.21542 0.03109 0.17192 0.0
N948 N 0.24985 0.0828 0.13671 0.0
N949 N 0.25986 0.92865 0.20743 0.0
C950 C 0.25302 0.04957 0.1582 0.0
C951 C 0.25893 0.97058 0.19452 0.0
N952 N 0.33073 0.05404 0.15832 0.0
N953 N 0.1854 0.98255 0.21064 0.0
H954 H 0.28755 0.90952 0.20987 0.0
H955 H 0.23225 0.91103 0.21351 0.0
H956 H 0.15634 0.99995 0.21038 0.0
H957 H 0.18761 0.95899 0.22828 0.0
H958 H 0.33092 0.08672 0.14964 0.0
H959 H 0.3612 0.0421 0.16399 0.0
H960 H 0.27545 0.09321 0.12311 0.0
H961 H 0.22105 0.09775 0.13072 0.0
C962 C 0.70959 0.04413 0.33159 0.0
C963 C 0.7009 0.01953 0.35871 0.0
C964 C 0.77793 0.01445 0.369 0.0
C965 C 0.78672 0.04398 0.34417 0.0
N966 N 0.75762 0.0965 0.30675 0.0
N967 N 0.72652 0.99432 0.40796 0.0
C968 C 0.75172 0.06141 0.32659 0.0
C969 C 0.73499 0.00858 0.37886 0.0
N970 N 0.67771 0.05127 0.31065 0.0
N971 N 0.81033 0.99092 0.38272 0.0
H972 H 0.69564 0.99499 0.41693 0.0
H973 H 0.75039 0.98866 0.42427 0.0
H974 H 0.84197 0.99209 0.37498 0.0
H975 H 0.80482 0.96629 0.39931 0.0
H976 H 0.68341 0.06468 0.28892 0.0
H977 H 0.64612 0.04094 0.31429 0.0
H978 H 0.73228 0.11285 0.29586 0.0
H979 H 0.78678 0.1129 0.30372 0.0
C980 C 0.79771 0.0271 0.82666 0.0
C981 C 0.80112 0.99145 0.8482 0.0
C982 C 0.72232 0.98933 0.85181 0.0
C983 C 0.71952 0.02992 0.8349 0.0
N984 N 0.75656 0.09075 0.80876 0.0
N985 N 0.76555 0.94299 0.88493 0.0
C986 C 0.75766 0.04954 0.82268 0.0
C987 C 0.76309 0.97336 0.86153 0.0
N988 N 0.83244 0.03881 0.80927 0.0
N989 N 0.68588 0.96553 0.85827 0.0
H990 H 0.79439 0.93119 0.89351 0.0
H991 H 0.7391 0.93284 0.89779 0.0
H992 H 0.65557 0.97569 0.85083 0.0
H993 H 0.68628 0.93344 0.86793 0.0
H994 H 0.83069 0.06131 0.79096 0.0
H995 H 0.86197 0.0225 0.81094 0.0
H996 H 0.78413 0.10888 0.80329 0.0
H997 H 0.7286 0.10886 0.8048 0.0
C998 C 0.22053 0.01694 0.68785 0.0
C999 C 0.21461 0.98978 0.66144 0.0
C1000 C 0.2928 0.98574 0.65504 0.0
C1001 C 0.2987 0.01859 0.6783 0.0
N1002 N 0.26531 0.07142 0.71371 0.0
N1003 N 0.24545 0.95684 0.61593 0.0
C1004 C 0.26188 0.0356 0.69416 0.0
C1005 C 0.25086 0.97652 0.64394 0.0
N1006 N 0.18668 0.02504 0.70697 0.0
N1007 N 0.32725 0.96246 0.64391 0.0
H1008 H 0.21541 0.953 0.60605 0.0
H1009 H 0.27074 0.94998 0.60102 0.0
H1010 H 0.35823 0.96674 0.65251 0.0
H1011 H 0.32427 0.93536 0.62885 0.0
H1012 H 0.19007 0.04018 0.72842 0.0
H1013 H 0.15572 0.01343 0.70244 0.0
H1014 H 0.23877 0.08816 0.72268 0.0
H1015 H 0.29394 0.08755 0.71892 0.0
C1016 C 0.77831 0.50556 0.13379 0.0
C1017 C 0.81283 0.51563 0.15386 0.0
C1018 C 0.76355 0.56079 0.1853 0.0
C1019 C 0.72795 0.54497 0.16761 0.0
N1020 N 0.70212 0.49216 0.12966 0.0
N1021 N 0.83689 0.54738 0.20174 0.0
C1022 C 0.73557 0.51418 0.14329 0.0
C1023 C 0.80492 0.54127 0.1807 0.0
N1024 N 0.78623 0.4896 0.10501 0.0
N1025 N 0.75907 0.5965 0.20482 0.0
H1026 H 0.86798 0.53529 0.19844 0.0
H1027 H 0.83161 0.56157 0.22329 0.0
H1028 H 0.73063 0.61431 0.20759 0.0
H1029 H 0.785 0.6118 0.21574 0.0
H1030 H 0.76224 0.48474 0.08867 0.0
H1031 H 0.81712 0.48775 0.0962 0.0
H1032 H 0.70647 0.46663 0.11352 0.0
H1033 H 0.67047 0.49556 0.13707 0.0
C1034 C 0.31168 0.48689 0.36484 0.0
C1035 C 0.31981 0.52064 0.34262 0.0
C1036 C 0.24281 0.5224 0.32962 0.0
C1037 C 0.23524 0.48642 0.35048 0.0
N1038 N 0.26455 0.42934 0.38417 0.0
N1039 N 0.2948 0.56693 0.30099 0.0
C1040 C 0.27036 0.46692 0.36668 0.0
C1041 C 0.28576 0.53743 0.3242 0.0
N1042 N 0.34259 0.47607 0.38586 0.0
N1043 N 0.20891 0.54236 0.3151 0.0
H1044 H 0.3258 0.57838 0.29646 0.0
H1045 H 0.27249 0.57738 0.28472 0.0
H1046 H 0.17753 0.53047 0.3169 0.0
H1047 H 0.21134 0.57202 0.30251 0.0
H1048 H 0.33697 0.45612 0.4051 0.0
H1049 H 0.37291 0.49061 0.38595 0.0
H1050 H 0.28973 0.41015 0.39287 0.0
H1051 H 0.23481 0.41504 0.38803 0.0
C1052 C 0.24466 0.52097 0.86127 0.0
C1053 C 0.20664 0.49956 0.85047 0.0
C1054 C 0.25094 0.44025 0.82698 0.0
C1055 C 0.28897 0.46316 0.83658 0.0
N1056 N 0.32122 0.53157 0.85518 0.0
N1057 N 0.17439 0.44463 0.81696 0.0
C1058 C 0.28548 0.50548 0.85132 0.0
C1059 C 0.21004 0.46089 0.83151 0.0
N1060 N 0.24216 0.55466 0.88246 0.0
N1061 N 0.25323 0.39789 0.81485 0.0
H1062 H 0.14403 0.45883 0.81962 0.0
H1063 H 0.17554 0.4198 0.80009 0.0
H1064 H 0.28182 0.38147 0.80995 0.0
H1065 H 0.22645 0.37747 0.81159 0.0
H1066 H 0.26875 0.56792 0.89378 0.0
H1067 H 0.21323 0.56631 0.89098 0.0
H1068 H 0.32009 0.56474 0.86294 0.0
H1069 H 0.35149 0.52185 0.84741 0.0
C1070 C 0.71922 0.51857 0.68895 0.0
C1071 C 0.71478 0.48062 0.66942 0.0
C1072 C 0.79349 0.47835 0.66372 0.0
C1073 C 0.79697 0.52064 0.6786 0.0
N1074 N 0.76125 0.58377 0.70296 0.0
N1075 N 0.74856 0.42689 0.63535 0.0
C1076 C 0.75943 0.54132 0.69092 0.0
C1077 C 0.7522 0.4608 0.65632 0.0
N1078 N 0.68514 0.53233 0.70632 0.0
N1079 N 0.82977 0.45436 0.65717 0.0
H1080 H 0.71942 0.41282 0.62918 0.0
H1081 H 0.77414 0.41523 0.6222 0.0
H1082 H 0.86044 0.46574 0.66284 0.0
H1083 H 0.82927 0.42131 0.64917 0.0
H1084 H 0.68753 0.55681 0.72337 0.0
H1085 H 0.65555 0.51592 0.70602 0.0
H1086 H 0.73403 0.6025 0.70834 0.0
H1087 H 0.78945 0.60209 0.7054 0.0
C1088 C 0.97003 0.12326 0.26459 0.0
C1089 C 0.97567 0.08568 0.28433 0.0
C1090 C 0.02664 0.05258 0.24763 0.0
C1091 C 0.02427 0.09192 0.22937 0.0
N1092 N 0.99351 0.16485 0.2196 0.0
N1093 N 0.99183 0.00709 0.28639 0.0
C1094 C 0.99596 0.1274 0.2377 0.0
C1095 C 0.99935 0.04819 0.27359 0.0
N1096 N 0.93671 0.15203 0.26954 0.0
N1097 N 0.0554 0.01955 0.24037 0.0
H1098 H 0.96802 1.00269 0.30298 0.0
H1099 H 1.00468 0.97717 0.27798 0.0
H1100 H 0.07578 0.02171 0.22143 0.0
H1101 H 0.06154 0.99202 0.25452 0.0
H1102 H 0.92938 0.17954 0.25574 0.0
H1103 H 0.91203 0.14398 0.2845 0.0
H1104 H 0.97864 0.1946 0.22629 0.0
H1105 H 1.00855 0.16706 0.19832 0.0
C1106 C 0.49223 0.96655 0.24176 0.0
C1107 C 0.47664 0.92595 0.2287 0.0
C1108 C 0.49044 0.88808 0.27786 0.0
C1109 C 0.51452 0.92597 0.28823 0.0
N1110 N 0.53831 1.0023 0.27937 0.0
N1111 N 0.46247 0.84671 0.23465 0.0
C1112 C 0.5157 0.96543 0.26984 0.0
C1113 C 0.47591 0.88642 0.24694 0.0
N1114 N 0.48163 0.00661 0.22846 0.0
N1115 N 0.48004 0.85406 0.29757 0.0
H1116 H 0.45005 0.84472 0.2127 0.0
H1117 H 0.46664 0.81561 0.24531 0.0
H1118 H 0.48924 0.85346 0.32043 0.0
H1119 H 0.45843 0.82854 0.29209 0.0
H1120 H 0.48851 0.03776 0.2383 0.0
H1121 H 0.46138 0.00837 0.2094 0.0
H1122 H 0.54396 0.03003 0.26529 0.0
H1123 H 0.5536 0.00413 0.30063 0.0
C1124 C 0.99176 0.8761 0.73748 0.0
C1125 C 0.01811 0.91149 0.72599 0.0
C1126 C 0.99753 0.95591 0.77126 0.0
C1127 C 0.98064 0.91678 0.78563 0.0
N1128 N 0.97053 0.83631 0.78295 0.0
N1129 N 0.04601 0.98672 0.73316 0.0
C1130 C 0.98016 0.87593 0.76888 0.0
C1131 C 0.02143 0.95179 0.74345 0.0
N1132 N 0.97568 0.84364 0.7186 0.0
N1133 N 0.98788 0.99729 0.78292 0.0
H1134 H 0.06168 0.98637 0.71202 0.0
H1135 H 0.05269 0.01497 0.74655 0.0
H1136 H 0.96653 1.00114 0.80117 0.0
H1137 H 0.99634 0.02734 0.77217 0.0
H1138 H 0.95392 0.81933 0.72609 0.0
H1139 H 0.97885 0.84472 0.69496 0.0
H1140 H 0.97364 0.80512 0.77214 0.0
H1141 H 0.9648 0.83456 0.80629 0.0
C1142 C 0.49413 0.0506 0.74607 0.0
C1143 C 0.49457 0.08999 0.72762 0.0
C1144 C 0.53446 0.12973 0.76823 0.0
C1145 C 0.53497 0.09008 0.78638 0.0
N1146 N 0.53029 0.0094 0.78652 0.0
N1147 N 0.52817 0.16204 0.71762 0.0
C1148 C 0.5189 0.04948 0.7736 0.0
C1149 C 0.51869 0.12804 0.7376 0.0
N1150 N 0.47102 0.0138 0.73709 0.0
N1151 N 0.54815 0.16947 0.78029 0.0
H1152 H 0.51854 0.16203 0.69481 0.0
H1153 H 0.54947 0.18799 0.72273 0.0
H1154 H 0.56135 0.17139 0.802 0.0
H1155 H 0.54342 0.20057 0.76975 0.0
H1156 H 0.46622 0.98595 0.75123 0.0
H1157 H 0.4542 0.01235 0.71642 0.0
H1158 H 0.52309 0.97828 0.77674 0.0
H1159 H 0.55143 0.00765 0.80508 0.0
C1160 C 0.52989 0.55374 0.23783 0.0
C1161 C 0.5415 0.59586 0.22499 0.0
C1162 C 0.51959 0.6324 0.27324 0.0
C1163 C 0.50056 0.5916 0.28334 0.0
N1164 N 0.48457 0.51351 0.27376 0.0
N1165 N 0.54661 0.67626 0.23079 0.0
C1166 C 0.50491 0.55222 0.26519 0.0
C1167 C 0.53624 0.63548 0.24287 0.0
N1168 N 0.54502 0.51511 0.22482 0.0
N1169 N 0.52377 0.66761 0.29316 0.0
H1170 H 0.56063 0.67904 0.20938 0.0
H1171 H 0.53872 0.70691 0.24094 0.0
H1172 H 0.51349 0.66602 0.31586 0.0
H1173 H 0.54127 0.69649 0.28814 0.0
H1174 H 0.54105 0.48343 0.23468 0.0
H1175 H 0.56568 0.51561 0.20596 0.0
H1176 H 0.48344 0.48487 0.25995 0.0
H1177 H 0.46559 0.51151 0.29342 0.0
C1178 C 0.03412 0.4611 0.26687 0.0
C1179 C 0.04923 0.41966 0.27889 0.0
C1180 C 0.02566 0.38225 0.2316 0.0
C1181 C 1.00284 0.42167 0.22269 0.0
N1182 N 0.98462 0.49926 0.23272 0.0
N1183 N 0.05601 0.33936 0.27313 0.0
C1184 C 1.00658 0.46126 0.24074 0.0
C1185 C 0.04425 0.37988 0.26128 0.0
N1186 N 0.04865 0.50045 0.27923 0.0
N1187 N 0.03103 0.34739 0.21152 0.0
H1188 H 0.07033 0.33677 0.29443 0.0
H1189 H 0.04827 0.30854 0.26309 0.0
H1190 H 0.01898 0.34748 0.18933 0.0
H1191 H 0.0513 0.32025 0.21576 0.0
H1192 H 0.04208 0.53196 0.26984 0.0
H1193 H 0.0714 0.50095 0.29682 0.0
H1194 H 0.98298 0.52764 0.24674 0.0
H1195 H 0.96559 0.5013 0.21307 0.0
C1196 C 0.51845 0.45617 0.74676 0.0
C1197 C 0.52264 0.41655 0.72889 0.0
C1198 C 0.48308 0.37427 0.76836 0.0
C1199 C 0.47813 0.41423 0.78598 0.0
N1200 N 0.47635 0.49503 0.78521 0.0
N1201 N 0.49705 0.34153 0.7184 0.0
C1202 C 0.49158 0.45579 0.77317 0.0
C1203 C 0.50156 0.37656 0.73845 0.0
N1204 N 0.54058 0.49408 0.73881 0.0
N1205 N 0.47056 0.33401 0.78016 0.0
H1206 H 0.50827 0.34279 0.69591 0.0
H1207 H 0.47845 0.31324 0.723 0.0
H1208 H 0.45473 0.3319 0.80095 0.0
H1209 H 0.47809 0.30303 0.77033 0.0
H1210 H 0.54159 0.52278 0.75257 0.0
H1211 H 0.56105 0.49523 0.71987 0.0
H1212 H 0.48169 0.52637 0.77515 0.0
H1213 H 0.45435 0.49541 0.80328 0.0
C1214 C 0.98935 0.61608 0.77352 0.0
C1215 C 0.01665 0.58195 0.78559 0.0
C1216 C 0.99961 0.53655 0.74001 0.0
C1217 C 0.98167 0.57486 0.72527 0.0
N1218 N 0.96926 0.65504 0.72749 0.0
N1219 N 0.04802 0.5081 0.77899 0.0
C1220 C 0.97923 0.61577 0.74188 0.0
C1221 C 0.02236 0.54185 0.76823 0.0
N1222 N 0.97098 0.64765 0.792 0.0
N1223 N 0.99208 0.49471 0.7283 0.0
H1224 H 0.06285 0.50908 0.80044 0.0
H1225 H 0.05643 0.48026 0.76572 0.0
H1226 H 0.97142 0.48975 0.70976 0.0
H1227 H 1.00143 0.46512 0.73926 0.0
H1228 H 0.94878 0.67109 0.78391 0.0
H1229 H 0.97251 0.64623 0.81572 0.0
H1230 H 0.97071 0.68628 0.7384 0.0
H1231 H 0.96537 0.65668 0.70394 0.0
C1232 C 0.96874 0.2139 0.13941 0.0
C1233 C 0.99875 0.19775 0.11822 0.0
C1234 C 1.00319 0.27428 0.09688 0.0
C1235 C 0.98338 0.29198 0.12397 0.0
N1236 N 0.95698 0.27292 0.17526 0.0
N1237 N 0.0441 0.21245 0.07487 0.0
C1238 C 0.96827 0.26024 0.14633 0.0
C1239 C 0.01601 0.22802 0.09635 0.0
N1240 N 0.94138 0.18493 0.15351 0.0
N1241 N 1.00742 0.30005 0.07111 0.0
H1242 H 0.05121 0.17823 0.07275 0.0
H1243 H 0.0614 0.23364 0.06037 0.0
H1244 H 0.99379 0.33184 0.06885 0.0
H1245 H 0.01917 0.2874 0.05044 0.0
H1246 H 0.91714 0.19555 0.16834 0.0
H1247 H 0.93916 0.15173 0.14623 0.0
H1248 H 0.94747 0.25006 0.19209 0.0
H1249 H 0.964 0.30427 0.18412 0.0
C1250 C 0.49851 0.78541 0.09335 0.0
C1251 C 0.49532 0.80826 0.12192 0.0
C1252 C 0.50475 0.73698 0.14894 0.0
C1253 C 0.51332 0.7147 0.12094 0.0
N1254 N 0.52318 0.71859 0.06618 0.0
N1255 N 0.50809 0.80712 0.17641 0.0
C1256 C 0.51146 0.73913 0.09292 0.0
C1257 C 0.5021 0.78438 0.14955 0.0
N1258 N 0.4885 0.80758 0.06687 0.0
N1259 N 0.49795 0.71276 0.17506 0.0
H1260 H 0.50818 0.84216 0.17752 0.0
H1261 H 0.51766 0.79129 0.19665 0.0
H1262 H 0.49933 0.67774 0.17546 0.0
H1263 H 0.48676 0.72733 0.19531 0.0
H1264 H 0.48598 0.79167 0.04564 0.0
H1265 H 0.4802 0.84159 0.06659 0.0
H1266 H 0.52692 0.73574 0.04551 0.0
H1267 H 0.53155 0.68462 0.0652 0.0
C1268 C 0.50737 0.7287 0.41645 0.0
C1269 C 0.52435 0.70015 0.39335 0.0
C1270 C 0.54712 0.76525 0.36438 0.0
C1271 C 0.53287 0.7953 0.38795 0.0
N1272 N 0.51236 0.80129 0.44165 0.0
N1273 N 0.57762 0.6923 0.35428 0.0
C1274 C 0.51667 0.77593 0.41569 0.0
C1275 C 0.55047 0.71891 0.37059 0.0
N1276 N 0.48268 0.7106 0.43913 0.0
N1277 N 0.55405 0.77967 0.33512 0.0
H1278 H 0.58196 0.65878 0.36024 0.0
H1279 H 0.59936 0.70507 0.3383 0.0
H1280 H 0.54436 0.81106 0.32757 0.0
H1281 H 0.56314 0.75826 0.31734 0.0
H1282 H 0.46545 0.73009 0.45473 0.0
H1283 H 0.47816 0.67588 0.44118 0.0
H1284 H 0.50363 0.78762 0.46277 0.0
H1285 H 0.52257 0.83456 0.44325 0.0
C1286 C 0.01474 0.27647 0.35569 0.0
C1287 C 0.02695 0.29905 0.38293 0.0
C1288 C 0.0145 0.22959 0.41229 0.0
C1289 C 1.00668 0.20628 0.38436 0.0
N1290 N 0.00985 0.20543 0.32904 0.0
N1291 N 0.04424 0.29626 0.43681 0.0
C1292 C 0.00998 0.22917 0.35593 0.0
C1293 C 0.02847 0.27539 0.41123 0.0
N1294 N 1.00658 0.30045 0.32962 0.0
N1295 N 1.00713 0.2086 0.43968 0.0
H1296 H 0.05345 0.33005 0.43691 0.0
H1297 H 0.05059 0.27941 0.45727 0.0
H1298 H 0.99762 0.17499 0.44118 0.0
H1299 H 1.00777 0.22528 0.46071 0.0
H1300 H 0.99292 0.28628 0.31002 0.0
H1301 H 0.00962 0.33534 0.32865 0.0
H1302 H 0.01624 0.21997 0.30775 0.0
H1303 H 1.00781 0.17041 0.32836 0.0
C1304 C 0.01342 0.73093 0.91651 0.0
C1305 C 0.02294 0.71079 0.88758 0.0
C1306 C 0.02208 0.786 0.8639 0.0
C1307 C 1.00684 0.80504 0.89149 0.0
N1308 N 0.98282 0.79511 0.9435 0.0
N1309 N 0.02599 0.7203 0.83229 0.0
C1310 C 1.001 0.77733 0.9177 0.0
C1311 C 0.0248 0.73875 0.86097 0.0
N1312 N 0.01816 0.70674 0.94293 0.0
N1313 N 0.03292 0.81308 0.83982 0.0
H1314 H 0.02651 0.68598 0.82842 0.0
H1315 H 0.02176 0.73882 0.81219 0.0
H1316 H 0.02709 0.84747 0.83974 0.0
H1317 H 0.04994 0.80166 0.82074 0.0
H1318 H 0.0156 0.72096 0.96471 0.0
H1319 H 0.02871 0.6735 0.9432 0.0
H1320 H 0.97301 0.77559 0.96208 0.0
H1321 H 0.97533 0.82926 0.94544 0.0
C1322 C 0.50475 0.2777 0.92138 0.0
C1323 C 0.50265 0.30134 0.89308 0.0
C1324 C 0.51074 0.23068 0.86519 0.0
C1325 C 0.51784 0.20736 0.89296 0.0
N1326 N 0.52663 0.20921 0.94787 0.0
N1327 N 0.5163 0.30136 0.83871 0.0
C1328 C 0.51631 0.23101 0.92131 0.0
C1329 C 0.50963 0.27808 0.86524 0.0
N1330 N 0.49472 0.29945 0.94802 0.0
N1331 N 0.50325 0.20747 0.83871 0.0
H1332 H 0.51597 0.33639 0.83786 0.0
H1333 H 0.52652 0.28585 0.81851 0.0
H1334 H 0.5026 0.17243 0.83793 0.0
H1335 H 0.49322 0.2231 0.8185 0.0
H1336 H 0.49129 0.28306 0.96901 0.0
H1337 H 0.48758 0.33377 0.94866 0.0
H1338 H 0.53032 0.22557 0.96885 0.0
H1339 H 0.53382 0.17492 0.94842 0.0
C1340 C 0.46887 0.24641 0.64723 0.0
C1341 C 0.48449 0.21472 0.6251 0.0
C1342 C 0.5171 0.27866 0.59741 0.0
C1343 C 0.49924 0.30905 0.61901 0.0
N1344 N 0.44175 0.32162 0.65431 0.0
N1345 N 0.51099 0.20557 0.57302 0.0
C1346 C 0.46936 0.29278 0.64032 0.0
C1347 C 0.5051 0.23211 0.59827 0.0
N1348 N 0.4566 0.23339 0.6759 0.0
N1349 N 0.54499 0.29445 0.57586 0.0
H1350 H 0.49891 0.17302 0.57124 0.0
H1351 H 0.52302 0.2178 0.55233 0.0
H1352 H 0.55124 0.3288 0.57332 0.0
H1353 H 0.5629 0.27343 0.56163 0.0
H1354 H 0.44672 0.25601 0.69275 0.0
H1355 H 0.46235 0.2015 0.68445 0.0
H1356 H 0.41743 0.31091 0.66904 0.0
H1357 H 0.43947 0.35484 0.64714 0.0
C1358 C 0.01932 0.76071 0.59693 0.0
C1359 C 0.02928 0.78007 0.62606 0.0
C1360 C 0.02511 0.70443 0.64904 0.0
C1361 C 1.00868 0.68673 0.62136 0.0
N1362 N 0.98526 0.69898 0.56941 0.0
N1363 N 0.03179 0.76905 0.68137 0.0
C1364 C 1.00427 0.7152 0.5954 0.0
C1365 C 0.02995 0.75147 0.65245 0.0
N1366 N 0.02638 0.78456 0.57061 0.0
N1367 N 0.03517 0.67636 0.67276 0.0
H1368 H 0.03322 0.80314 0.68585 0.0
H1369 H 0.02685 0.7501 0.7012 0.0
H1370 H 0.02775 0.6423 0.67261 0.0
H1371 H 0.05303 0.68656 0.69177 0.0
H1372 H 0.02324 0.7706 0.54879 0.0
H1373 H 0.03994 0.81663 0.57045 0.0
H1374 H 0.9767 0.71939 0.55096 0.0
H1375 H 0.97565 0.66546 0.56726 0.0
C1376 C 0.99597 0.96151 1.00496 0.0
C1377 C 0.99609 0.9904 0.97907 0.0
C1378 C 0.02402 0.0521 0.01112 0.0
C1379 C 0.02788 0.02206 0.0363 0.0
N1380 N 0.02452 0.94584 0.05545 0.0
N1381 N 0.01616 0.06157 0.95633 0.0
C1382 C 0.01552 0.97615 0.0328 0.0
C1383 C 0.01222 0.03507 0.98177 0.0
N1384 N 0.97731 0.91991 1.003 0.0
N1385 N 0.0288 0.09744 0.01555 0.0
H1386 H 1.00555 0.05172 0.93478 0.0
H1387 H 0.03284 0.09196 0.95621 0.0
H1388 H 0.03569 0.11177 0.03683 0.0
H1389 H 0.0216 0.12138 0.99887 0.0
H1390 H 0.97125 0.89968 0.02203 0.0
H1391 H 0.96514 0.90667 0.9826 0.0
H1392 H 0.02059 0.9112 0.05308 0.0
H1393 H 0.04003 0.95479 0.07562 0.0
C1394 C 0.47663 0.03687 0.99396 0.0
C1395 C 0.51823 0.03276 0.9809 0.0
C1396 C 0.53865 0.97899 0.0214 0.0
C1397 C 0.49705 0.98315 0.03447 0.0
N1398 N 0.42865 0.0208 0.03651 0.0
N1399 N 0.58685 0.99558 0.97902 0.0
C1400 C 0.46643 0.01301 0.02144 0.0
C1401 C 0.54892 1.00302 0.99398 0.0
N1402 N 0.44663 0.06325 0.97973 0.0
N1403 N 0.56854 0.95237 0.03554 0.0
H1404 H 0.59548 0.01226 0.9589 0.0
H1405 H 0.60888 0.97088 0.98511 0.0
H1406 H 0.56133 0.93142 0.05405 0.0
H1407 H 0.60097 0.95221 0.03 0.0
H1408 H 0.41418 0.06316 0.98523 0.0
H1409 H 0.45374 0.08413 0.96116 0.0
H1410 H 0.40681 0.0457 0.03045 0.0
H1411 H 0.42008 0.00436 0.05673 0.0
C1412 C 0.46904 1.0009 0.5222 0.0
C1413 C 0.49929 0.03246 0.53384 0.0
C1414 C 0.55026 0.01085 0.49314 0.0
C1415 C 0.5211 0.97738 0.48272 0.0
N1416 N 0.4554 0.93601 0.48951 0.0
N1417 N 0.57039 0.06449 0.53268 0.0
C1418 C 0.48108 0.97137 0.49777 0.0
C1419 C 0.54047 0.03635 0.52003 0.0
N1420 N 0.42883 0.99891 0.53465 0.0
N1421 N 0.58626 0.02007 0.47634 0.0
H1422 H 0.56355 0.08661 0.55063 0.0
H1423 H 0.60263 0.06436 0.5265 0.0
H1424 H 0.59472 1.00227 0.45662 0.0
H1425 H 0.6062 0.04753 0.48046 0.0
H1426 H 0.40358 0.98091 0.52498 0.0
H1427 H 0.41968 0.01742 0.55387 0.0
H1428 H 0.42787 0.92658 0.50135 0.0
H1429 H 0.46348 0.91338 0.47212 0.0
C1430 C 1.00364 0.02171 0.53434 0.0
C1431 C 0.02825 0.98131 0.53505 0.0
C1432 C 0.02232 0.97572 0.47887 0.0
C1433 C 1.00012 0.01762 0.47804 0.0
N1434 N 0.97702 0.08468 0.50433 0.0
N1435 N 0.06639 0.92323 0.5077 0.0
C1436 C 0.99269 0.04169 0.50563 0.0
C1437 C 0.03945 0.95955 0.50718 0.0
N1438 N 0.99047 0.04113 0.56112 0.0
N1439 N 0.02493 0.94996 0.45296 0.0
H1440 H 0.07745 0.90856 0.52797 0.0
H1441 H 0.08013 0.90942 0.48806 0.0
H1442 H 0.01251 0.96012 0.43194 0.0
H1443 H 0.03607 0.91693 0.45273 0.0
H1444 H 0.96786 0.06686 0.56223 0.0
H1445 H 1.0 0.02955 0.58252 0.0
H1446 H 0.97534 0.10604 0.52324 0.0
H1447 H 0.96935 0.10077 0.48376 0.0
C1448 C 0.54965 0.51097 0.01589 0.0
C1449 C 0.51739 0.53698 0.03063 0.0
C1450 C 0.46437 0.51099 0.9925 0.0
C1451 C 0.49596 0.4828 0.979 0.0
N1452 N 0.56693 0.45091 0.98 0.0
N1453 N 0.44306 0.55852 0.0352 0.0
C1454 C 0.53824 0.48166 0.99118 0.0
C1455 C 0.47442 0.53583 0.01963 0.0
N1456 N 0.59122 0.51397 0.0257 0.0
N1457 N 0.42543 0.51595 0.97843 0.0
H1458 H 0.44942 0.58017 0.0535 0.0
H1459 H 0.41044 0.55416 0.03107 0.0
H1460 H 0.41681 0.49854 0.95857 0.0
H1461 H 0.40275 0.53981 0.98491 0.0
H1462 H 0.61714 0.50055 0.01377 0.0
H1463 H 0.6004 0.53218 0.04506 0.0
H1464 H 0.59685 0.44479 0.9897 0.0
H1465 H 0.55954 0.4285 0.96232 0.0
C1466 C 0.96358 0.50391 0.01764 0.0
C1467 C 0.99331 0.47165 0.02885 0.0
C1468 C 0.04719 0.49824 0.99169 0.0
C1469 C 0.0165 0.52834 0.97912 0.0
N1470 N 0.94406 0.55681 0.97758 0.0
N1471 N 0.06094 0.43317 0.02408 0.0
C1472 C 0.97421 0.53008 0.99128 0.0
C1473 C 0.03454 0.4676 0.01523 0.0
N1474 N 0.92618 0.51143 0.03322 0.0
N1475 N 0.08845 0.4989 0.98108 0.0
H1476 H 0.05233 0.40965 0.04077 0.0
H1477 H 0.08969 0.42533 0.01322 0.0
H1478 H 0.09841 0.5192 0.96291 0.0
H1479 H 0.11361 0.48168 0.99149 0.0
H1480 H 0.90555 0.53809 0.0285 0.0
H1481 H 0.91707 0.49306 0.05253 0.0
H1482 H 0.91144 0.55498 0.98251 0.0
H1483 H 0.95125 0.57939 0.95997 0.0
C1484 C 0.02031 0.46697 0.52731 0.0
C1485 C 1.00293 0.51102 0.53077 0.0
C1486 C 0.01737 0.52628 0.47633 0.0
C1487 C 0.03735 0.48339 0.47345 0.0
N1488 N 0.06296 0.41504 0.49702 0.0
N1489 N 0.99264 0.58562 0.51022 0.0
C1490 C 0.04061 0.45454 0.49927 0.0
C1491 C 1.00332 0.54143 0.50567 0.0
N1492 N 0.01535 0.43605 0.55024 0.0
N1493 N 0.0119 0.5528 0.45103 0.0
H1494 H 0.98311 0.59841 0.53144 0.0
H1495 H 0.99695 0.61065 0.49379 0.0
H1496 H 0.02471 0.5449 0.4297 0.0
H1497 H 0.99246 0.5813 0.45072 0.0
H1498 H 0.02276 0.40204 0.54795 0.0
H1499 H 1.00012 0.44342 0.57082 0.0
H1500 H 0.07133 0.39543 0.5159 0.0
H1501 H 0.07576 0.40307 0.47647 0.0
C1502 C 0.51174 0.53424 0.53186 0.0
C1503 C 0.52726 0.48942 0.53547 0.0
C1504 C 0.51416 0.47476 0.48063 0.0
C1505 C 0.49862 0.51958 0.47703 0.0
N1506 N 0.47903 0.59103 0.49919 0.0
N1507 N 0.54657 0.41784 0.51339 0.0
C1508 C 0.49628 0.54896 0.5027 0.0
C1509 C 0.5295 0.45999 0.50982 0.0
N1510 N 0.51447 0.5637 0.5559 0.0
N1511 N 0.51159 0.44537 0.45653 0.0
H1512 H 0.55445 0.40417 0.5347 0.0
H1513 H 0.55485 0.39673 0.4953 0.0
H1514 H 0.50033 0.45462 0.43502 0.0
H1515 H 0.51765 0.41103 0.45801 0.0
H1516 H 0.50853 0.59806 0.55435 0.0
H1517 H 0.52581 0.5545 0.5774 0.0
H1518 H 0.47061 0.612 0.51733 0.0
H1519 H 0.47106 0.60473 0.47791 0.0
loop_
_geom_bond_atom_site_label_1
_geom_bond_atom_site_label_2
_geom_bond_distance
_geom_bond_site_symmetry_2
_ccdc_geom_bond_type
Co0 O2 2.143 . S
Co0 O8 2.074 . S
Co0 O11 2.093 1_455 S
Co0 O24 2.097 . S
Co0 N41 2.151 1_445 S
Co0 N49 2.214 1_455 S
Co1 O2 2.160 . S
Co1 O7 2.058 . S
Co1 O17 2.057 . S
Co1 O32 2.037 . S
Co1 N36 2.145 . S
Co1 N57 2.257 . S
O2 Co0 2.143 . S
O2 Co1 2.160 . S
C3 O4 1.278 . S
C3 O11 1.224 1_455 S
O4 C3 1.278 . S
C5 O6 1.245 1_545 S
C5 O17 1.232 . S
O6 C5 1.245 1_565 S
O7 Co1 2.058 . S
O7 C33 1.269 . S
O8 Co0 2.074 . S
O8 C33 1.257 . S
H9 C34 0.930 . S
H10 C40 0.930 . S
O11 Co0 2.093 1_655 S
O11 C3 1.224 1_655 S
H12 C44 0.929 . S
H13 C46 0.930 . S
H14 C47 0.930 . S
H15 C45 0.929 . S
H16 C48 0.928 . S
O17 Co1 2.057 . S
O17 C5 1.232 . S
H18 C37 0.929 . S
H19 C38 0.929 . S
H20 C50 0.931 . S
H21 C42 0.929 . S
H22 C51 0.930 . S
H23 C43 0.931 . S
O24 Co0 2.097 . S
O24 C52 1.214 . S
H25 C53 0.929 . S
H26 C54 0.929 . S
H27 C55 0.930 . S
H28 C56 0.929 . S
H29 C58 0.930 . S
H30 C35 0.930 . S
H31 C39 0.930 . S
O32 Co1 2.037 . S
O32 C52 1.234 . S
C33 O7 1.269 . S
C33 O8 1.257 . S
C34 H9 0.930 . S
C34 C37 1.388 . S
C34 C39 1.418 . S
C35 H30 0.930 . S
C35 C38 1.404 . S
C35 C39 1.353 . S
N36 Co1 2.145 . S
N36 C37 1.397 . S
N36 C38 1.334 . S
C37 H18 0.929 . S
C37 C34 1.388 . S
C37 N36 1.397 . S
C38 H19 0.929 . S
C38 C35 1.404 . S
C38 N36 1.334 . S
C39 H31 0.930 . S
C39 C34 1.418 . S
C39 C35 1.353 . S
C40 H10 0.930 . S
C40 N41 1.330 1_455 S
C40 C42 1.446 . S
N41 Co0 2.151 1_665 S
N41 C40 1.330 1_655 S
N41 C45 1.418 . S
C42 H21 0.929 . S
C42 C40 1.446 . S
C42 C43 1.332 1_455 S
C43 H23 0.931 . S
C43 C42 1.332 1_655 S
C43 C44 1.267 . S
C44 H12 0.929 . S
C44 C43 1.267 . S
C44 C45 1.251 . S
C45 H15 0.929 . S
C45 N41 1.418 . S
C45 C44 1.251 . S
C46 H13 0.930 . S
C46 C48 1.406 . S
C46 C51 1.261 . S
C47 H14 0.930 . S
C47 N49 1.325 . S
C47 C50 1.357 . S
C48 H16 0.928 . S
C48 C46 1.406 . S
C48 N49 1.261 . S
N49 Co0 2.214 1_655 S
N49 C47 1.325 . S
N49 C48 1.261 . S
C50 H20 0.931 . S
C50 C47 1.357 . S
C50 C51 1.312 . S
C51 H22 0.930 . S
C51 C46 1.261 . S
C51 C50 1.312 . S
C52 O24 1.214 . S
C52 O32 1.234 . S
C53 H25 0.929 . S
C53 C56 1.391 . S
C53 C58 1.391 . S
C54 H26 0.929 . S
C54 C55 1.390 . S
C54 N57 1.391 . S
C55 H27 0.930 . S
C55 C54 1.390 . S
C55 C56 1.392 . S
C56 H28 0.929 . S
C56 C53 1.391 . S
C56 C55 1.392 . S
N57 Co1 2.257 . S
N57 C54 1.391 . S
N57 C58 1.388 . S
C58 H29 0.930 . S
C58 C53 1.391 . S
C58 N57 1.388 . S
Co59 O61 2.143 . S
Co59 O67 2.074 . S
Co59 O70 2.093 . S
Co59 O83 2.097 . S
Co59 N100 2.151 1_565 S
Co59 N108 2.214 . S
Co60 O61 2.160 . S
Co60 O66 2.058 . S
Co60 O76 2.057 . S
Co60 O91 2.037 . S
Co60 N95 2.145 . S
Co60 N116 2.257 . S
O61 Co59 2.143 . S
O61 Co60 2.160 . S
C62 O63 1.278 . S
C62 O70 1.224 . S
O63 C62 1.278 . S
C64 O65 1.245 1_565 S
C64 O76 1.232 . S
O65 C64 1.245 1_545 S
O66 Co60 2.058 . S
O66 C92 1.269 . S
O67 Co59 2.074 . S
O67 C92 1.257 . S
H68 C93 0.930 . S
H69 C99 0.930 . S
O70 Co59 2.093 . S
O70 C62 1.224 . S
H71 C103 0.929 . S
H72 C105 0.930 . S
H73 C106 0.930 . S
H74 C104 0.929 . S
H75 C107 0.928 . S
O76 Co60 2.057 . S
O76 C64 1.232 . S
H77 C96 0.929 . S
H78 C97 0.929 . S
H79 C109 0.931 . S
H80 C101 0.929 . S
H81 C110 0.930 . S
H82 C102 0.931 . S
O83 Co59 2.097 . S
O83 C111 1.214 . S
H84 C112 0.929 . S
H85 C113 0.929 . S
H86 C114 0.930 . S
H87 C115 0.929 . S
H88 C117 0.930 . S
H89 C94 0.930 . S
H90 C98 0.930 . S
O91 Co60 2.037 . S
O91 C111 1.234 . S
C92 O66 1.269 . S
C92 O67 1.257 . S
C93 H68 0.930 . S
C93 C96 1.388 . S
C93 C98 1.418 . S
C94 H89 0.930 . S
C94 C97 1.404 . S
C94 C98 1.353 . S
N95 Co60 2.145 . S
N95 C96 1.397 . S
N95 C97 1.334 . S
C96 H77 0.929 . S
C96 C93 1.388 . S
C96 N95 1.397 . S
C97 H78 0.929 . S
C97 C94 1.404 . S
C97 N95 1.334 . S
C98 H90 0.930 . S
C98 C93 1.418 . S
C98 C94 1.353 . S
C99 H69 0.930 . S
C99 N100 1.330 . S
C99 C101 1.446 . S
N100 Co59 2.151 1_545 S
N100 C99 1.330 . S
N100 C104 1.418 . S
C101 H80 0.929 . S
C101 C99 1.446 . S
C101 C102 1.332 . S
C102 H82 0.931 . S
C102 C101 1.332 . S
C102 C103 1.267 . S
C103 H71 0.929 . S
C103 C102 1.267 . S
C103 C104 1.251 . S
C104 H74 0.929 . S
C104 N100 1.418 . S
C104 C103 1.251 . S
C105 H72 0.930 . S
C105 C107 1.406 . S
C105 C110 1.261 . S
C106 H73 0.930 . S
C106 N108 1.325 . S
C106 C109 1.357 . S
C107 H75 0.928 . S
C107 C105 1.406 . S
C107 N108 1.261 . S
N108 Co59 2.214 . S
N108 C106 1.325 . S
N108 C107 1.261 . S
C109 H79 0.931 . S
C109 C106 1.357 . S
C109 C110 1.312 . S
C110 H81 0.930 . S
C110 C105 1.261 . S
C110 C109 1.312 . S
C111 O83 1.214 . S
C111 O91 1.234 . S
C112 H84 0.929 . S
C112 C115 1.391 . S
C112 C117 1.391 . S
C113 H85 0.929 . S
C113 C114 1.390 . S
C113 N116 1.391 . S
C114 H86 0.930 . S
C114 C113 1.390 . S
C114 C115 1.392 . S
C115 H87 0.929 . S
C115 C112 1.391 . S
C115 C114 1.392 . S
N116 Co60 2.257 . S
N116 C113 1.391 . S
N116 C117 1.388 . S
C117 H88 0.930 . S
C117 C112 1.391 . S
C117 N116 1.388 . S
Co118 O120 2.143 . S
Co118 O126 2.074 . S
Co118 O129 2.093 . S
Co118 O142 2.097 . S
Co118 N159 2.151 1_565 S
Co118 N167 2.214 . S
Co119 O120 2.160 . S
Co119 O125 2.058 . S
Co119 O135 2.057 . S
Co119 O150 2.037 . S
Co119 N154 2.145 . S
Co119 N175 2.257 . S
O120 Co118 2.143 . S
O120 Co119 2.160 . S
C121 O122 1.278 . S
C121 O129 1.224 . S
O122 C121 1.278 . S
C123 O124 1.245 1_565 S
C123 O135 1.232 . S
O124 C123 1.245 1_545 S
O125 Co119 2.058 . S
O125 C151 1.269 . S
O126 Co118 2.074 . S
O126 C151 1.257 . S
H127 C152 0.930 . S
H128 C158 0.930 . S
O129 Co118 2.093 . S
O129 C121 1.224 . S
H130 C162 0.929 . S
H131 C164 0.930 . S
H132 C165 0.930 . S
H133 C163 0.929 . S
H134 C166 0.928 . S
O135 Co119 2.057 . S
O135 C123 1.232 . S
H136 C155 0.929 . S
H137 C156 0.929 . S
H138 C168 0.931 . S
H139 C160 0.929 . S
H140 C169 0.930 . S
H141 C161 0.931 . S
O142 Co118 2.097 . S
O142 C170 1.214 . S
H143 C171 0.929 . S
H144 C172 0.929 . S
H145 C173 0.930 . S
H146 C174 0.929 . S
H147 C176 0.930 . S
H148 C153 0.930 . S
H149 C157 0.930 . S
O150 Co119 2.037 . S
O150 C170 1.234 . S
C151 O125 1.269 . S
C151 O126 1.257 . S
C152 H127 0.930 . S
C152 C155 1.388 . S
C152 C157 1.418 . S
C153 H148 0.930 . S
C153 C156 1.404 . S
C153 C157 1.353 . S
N154 Co119 2.145 . S
N154 C155 1.397 . S
N154 C156 1.334 . S
C155 H136 0.929 . S
C155 C152 1.388 . S
C155 N154 1.397 . S
C156 H137 0.929 . S
C156 C153 1.404 . S
C156 N154 1.334 . S
C157 H149 0.930 . S
C157 C152 1.418 . S
C157 C153 1.353 . S
C158 H128 0.930 . S
C158 N159 1.330 . S
C158 C160 1.446 . S
N159 Co118 2.151 1_545 S
N159 C158 1.330 . S
N159 C163 1.418 . S
C160 H139 0.929 . S
C160 C158 1.446 . S
C160 C161 1.332 . S
C161 H141 0.931 . S
C161 C160 1.332 . S
C161 C162 1.267 . S
C162 H130 0.929 . S
C162 C161 1.267 . S
C162 C163 1.251 . S
C163 H133 0.929 . S
C163 N159 1.418 . S
C163 C162 1.251 . S
C164 H131 0.930 . S
C164 C166 1.406 . S
C164 C169 1.261 . S
C165 H132 0.930 . S
C165 N167 1.325 . S
C165 C168 1.357 . S
C166 H134 0.928 . S
C166 C164 1.406 . S
C166 N167 1.261 . S
N167 Co118 2.214 . S
N167 C165 1.325 . S
N167 C166 1.261 . S
C168 H138 0.931 . S
C168 C165 1.357 . S
C168 C169 1.312 . S
C169 H140 0.930 . S
C169 C164 1.261 . S
C169 C168 1.312 . S
C170 O142 1.214 . S
C170 O150 1.234 . S
C171 H143 0.929 . S
C171 C174 1.391 . S
C171 C176 1.391 . S
C172 H144 0.929 . S
C172 C173 1.390 . S
C172 N175 1.391 . S
C173 H145 0.930 . S
C173 C172 1.390 . S
C173 C174 1.392 . S
C174 H146 0.929 . S
C174 C171 1.391 . S
C174 C173 1.392 . S
N175 Co119 2.257 . S
N175 C172 1.391 . S
N175 C176 1.388 . S
C176 H147 0.930 . S
C176 C171 1.391 . S
C176 N175 1.388 . S
Co177 O179 2.143 . S
Co177 O185 2.074 . S
Co177 O188 2.093 1_655 S
Co177 O201 2.097 . S
Co177 N218 2.151 1_645 S
Co177 N226 2.214 1_655 S
Co178 O179 2.160 . S
Co178 O184 2.058 . S
Co178 O194 2.057 . S
Co178 O209 2.037 . S
Co178 N213 2.145 . S
Co178 N234 2.257 . S
O179 Co177 2.143 . S
O179 Co178 2.160 . S
C180 O181 1.278 . S
C180 O188 1.224 1_655 S
O181 C180 1.278 . S
C182 O183 1.245 1_545 S
C182 O194 1.232 . S
O183 C182 1.245 1_565 S
O184 Co178 2.058 . S
O184 C210 1.269 . S
O185 Co177 2.074 . S
O185 C210 1.257 . S
H186 C211 0.930 . S
H187 C217 0.930 . S
O188 Co177 2.093 1_455 S
O188 C180 1.224 1_455 S
H189 C221 0.929 . S
H190 C223 0.930 . S
H191 C224 0.930 . S
H192 C222 0.929 . S
H193 C225 0.928 . S
O194 Co178 2.057 . S
O194 C182 1.232 . S
H195 C214 0.929 . S
H196 C215 0.929 . S
H197 C227 0.931 . S
H198 C219 0.929 . S
H199 C228 0.930 . S
H200 C220 0.931 . S
O201 Co177 2.097 . S
O201 C229 1.214 . S
H202 C230 0.929 . S
H203 C231 0.929 . S
H204 C232 0.930 . S
H205 C233 0.929 . S
H206 C235 0.930 . S
H207 C212 0.930 . S
H208 C216 0.930 . S
O209 Co178 2.037 . S
O209 C229 1.234 . S
C210 O184 1.269 . S
C210 O185 1.257 . S
C211 H186 0.930 . S
C211 C214 1.388 . S
C211 C216 1.418 . S
C212 H207 0.930 . S
C212 C215 1.404 . S
C212 C216 1.353 . S
N213 Co178 2.145 . S
N213 C214 1.397 . S
N213 C215 1.334 . S
C214 H195 0.929 . S
C214 C211 1.388 . S
C214 N213 1.397 . S
C215 H196 0.929 . S
C215 C212 1.404 . S
C215 N213 1.334 . S
C216 H208 0.930 . S
C216 C211 1.418 . S
C216 C212 1.353 . S
C217 H187 0.930 . S
C217 N218 1.330 1_655 S
C217 C219 1.446 . S
N218 Co177 2.151 1_465 S
N218 C217 1.330 1_455 S
N218 C222 1.418 . S
C219 H198 0.929 . S
C219 C217 1.446 . S
C219 C220 1.332 1_655 S
C220 H200 0.931 . S
C220 C219 1.332 1_455 S
C220 C221 1.267 . S
C221 H189 0.929 . S
C221 C220 1.267 . S
C221 C222 1.251 . S
C222 H192 0.929 . S
C222 N218 1.418 . S
C222 C221 1.251 . S
C223 H190 0.930 . S
C223 C225 1.406 . S
C223 C228 1.261 . S
C224 H191 0.930 . S
C224 N226 1.325 . S
C224 C227 1.357 . S
C225 H193 0.928 . S
C225 C223 1.406 . S
C225 N226 1.261 . S
N226 Co177 2.214 1_455 S
N226 C224 1.325 . S
N226 C225 1.261 . S
C227 H197 0.931 . S
C227 C224 1.357 . S
C227 C228 1.312 . S
C228 H199 0.930 . S
C228 C223 1.261 . S
C228 C227 1.312 . S
C229 O201 1.214 . S
C229 O209 1.234 . S
C230 H202 0.929 . S
C230 C233 1.391 . S
C230 C235 1.391 . S
C231 H203 0.929 . S
C231 C232 1.390 . S
C231 N234 1.391 . S
C232 H204 0.930 . S
C232 C231 1.390 . S
C232 C233 1.392 . S
C233 H205 0.929 . S
C233 C230 1.391 . S
C233 C232 1.392 . S
N234 Co178 2.257 . S
N234 C231 1.391 . S
N234 C235 1.388 . S
C235 H206 0.930 . S
C235 C230 1.391 . S
C235 N234 1.388 . S
Co236 O238 2.143 . S
Co236 O244 2.074 . S
Co236 O247 2.093 1_655 S
Co236 O260 2.097 . S
Co236 N277 2.151 1_665 S
Co236 N285 2.214 1_655 S
Co237 O238 2.160 . S
Co237 O243 2.058 . S
Co237 O253 2.057 . S
Co237 O268 2.037 . S
Co237 N272 2.145 . S
Co237 N293 2.257 . S
O238 Co236 2.143 . S
O238 Co237 2.160 . S
C239 O240 1.278 . S
C239 O247 1.224 1_655 S
O240 C239 1.278 . S
C241 O242 1.245 1_565 S
C241 O253 1.232 . S
O242 C241 1.245 1_545 S
O243 Co237 2.058 . S
O243 C269 1.269 . S
O244 Co236 2.074 . S
O244 C269 1.257 . S
H245 C270 0.930 . S
H246 C276 0.930 . S
O247 Co236 2.093 1_455 S
O247 C239 1.224 1_455 S
H248 C280 0.929 . S
H249 C282 0.930 . S
H250 C283 0.930 . S
H251 C281 0.929 . S
H252 C284 0.928 . S
O253 Co237 2.057 . S
O253 C241 1.232 . S
H254 C273 0.929 . S
H255 C274 0.929 . S
H256 C286 0.931 . S
H257 C278 0.929 . S
H258 C287 0.930 . S
H259 C279 0.931 . S
O260 Co236 2.097 . S
O260 C288 1.214 . S
H261 C289 0.929 . S
H262 C290 0.929 . S
H263 C291 0.930 . S
H264 C292 0.929 . S
H265 C294 0.930 . S
H266 C271 0.930 . S
H267 C275 0.930 . S
O268 Co237 2.037 . S
O268 C288 1.234 . S
C269 O243 1.269 . S
C269 O244 1.257 . S
C270 H245 0.930 . S
C270 C273 1.388 . S
C270 C275 1.418 . S
C271 H266 0.930 . S
C271 C274 1.404 . S
C271 C275 1.353 . S
N272 Co237 2.145 . S
N272 C273 1.397 . S
N272 C274 1.334 . S
C273 H254 0.929 . S
C273 C270 1.388 . S
C273 N272 1.397 . S
C274 H255 0.929 . S
C274 C271 1.404 . S
C274 N272 1.334 . S
C275 H267 0.930 . S
C275 C270 1.418 . S
C275 C271 1.353 . S
C276 H246 0.930 . S
C276 N277 1.330 1_655 S
C276 C278 1.446 . S
N277 Co236 2.151 1_445 S
N277 C276 1.330 1_455 S
N277 C281 1.418 . S
C278 H257 0.929 . S
C278 C276 1.446 . S
C278 C279 1.332 1_655 S
C279 H259 0.931 . S
C279 C278 1.332 1_455 S
C279 C280 1.267 . S
C280 H248 0.929 . S
C280 C279 1.267 . S
C280 C281 1.251 . S
C281 H251 0.929 . S
C281 N277 1.418 . S
C281 C280 1.251 . S
C282 H249 0.930 . S
C282 C284 1.406 . S
C282 C287 1.261 . S
C283 H250 0.930 . S
C283 N285 1.325 . S
C283 C286 1.357 . S
C284 H252 0.928 . S
C284 C282 1.406 . S
C284 N285 1.261 . S
N285 Co236 2.214 1_455 S
N285 C283 1.325 . S
N285 C284 1.261 . S
C286 H256 0.931 . S
C286 C283 1.357 . S
C286 C287 1.312 . S
C287 H258 0.930 . S
C287 C282 1.261 . S
C287 C286 1.312 . S
C288 O260 1.214 . S
C288 O268 1.234 . S
C289 H261 0.929 . S
C289 C292 1.391 . S
C289 C294 1.391 . S
C290 H262 0.929 . S
C290 C291 1.390 . S
C290 N293 1.391 . S
C291 H263 0.930 . S
C291 C290 1.390 . S
C291 C292 1.392 . S
C292 H264 0.929 . S
C292 C289 1.391 . S
C292 C291 1.392 . S
N293 Co237 2.257 . S
N293 C290 1.391 . S
N293 C294 1.388 . S
C294 H265 0.930 . S
C294 C289 1.391 . S
C294 N293 1.388 . S
Co295 O297 2.143 . S
Co295 O303 2.074 . S
Co295 O306 2.093 . S
Co295 O319 2.097 . S
Co295 N336 2.151 1_545 S
Co295 N344 2.214 . S
Co296 O297 2.160 . S
Co296 O302 2.058 . S
Co296 O312 2.057 . S
Co296 O327 2.037 . S
Co296 N331 2.145 . S
Co296 N352 2.257 . S
O297 Co295 2.143 . S
O297 Co296 2.160 . S
C298 O299 1.278 . S
C298 O306 1.224 . S
O299 C298 1.278 . S
C300 O301 1.245 1_545 S
C300 O312 1.232 . S
O301 C300 1.245 1_565 S
O302 Co296 2.058 . S
O302 C328 1.269 . S
O303 Co295 2.074 . S
O303 C328 1.257 . S
H304 C329 0.930 . S
H305 C335 0.930 . S
O306 Co295 2.093 . S
O306 C298 1.224 . S
H307 C339 0.929 . S
H308 C341 0.930 . S
H309 C342 0.930 . S
H310 C340 0.929 . S
H311 C343 0.928 . S
O312 Co296 2.057 . S
O312 C300 1.232 . S
H313 C332 0.929 . S
H314 C333 0.929 . S
H315 C345 0.931 . S
H316 C337 0.929 . S
H317 C346 0.930 . S
H318 C338 0.931 . S
O319 Co295 2.097 . S
O319 C347 1.214 . S
H320 C348 0.929 . S
H321 C349 0.929 . S
H322 C350 0.930 . S
H323 C351 0.929 . S
H324 C353 0.930 . S
H325 C330 0.930 . S
H326 C334 0.930 . S
O327 Co296 2.037 . S
O327 C347 1.234 . S
C328 O302 1.269 . S
C328 O303 1.257 . S
C329 H304 0.930 . S
C329 C332 1.388 . S
C329 C334 1.418 . S
C330 H325 0.930 . S
C330 C333 1.404 . S
C330 C334 1.353 . S
N331 Co296 2.145 . S
N331 C332 1.397 . S
N331 C333 1.334 . S
C332 H313 0.929 . S
C332 C329 1.388 . S
C332 N331 1.397 . S
C333 H314 0.929 . S
C333 C330 1.404 . S
C333 N331 1.334 . S
C334 H326 0.930 . S
C334 C329 1.418 . S
C334 C330 1.353 . S
C335 H305 0.930 . S
C335 N336 1.330 . S
C335 C337 1.446 . S
N336 Co295 2.151 1_565 S
N336 C335 1.330 . S
N336 C340 1.418 . S
C337 H316 0.929 . S
C337 C335 1.446 . S
C337 C338 1.332 . S
C338 H318 0.931 . S
C338 C337 1.332 . S
C338 C339 1.267 . S
C339 H307 0.929 . S
C339 C338 1.267 . S
C339 C340 1.251 . S
C340 H310 0.929 . S
C340 N336 1.418 . S
C340 C339 1.251 . S
C341 H308 0.930 . S
C341 C343 1.406 . S
C341 C346 1.261 . S
C342 H309 0.930 . S
C342 N344 1.325 . S
C342 C345 1.357 . S
C343 H311 0.928 . S
C343 C341 1.406 . S
C343 N344 1.261 . S
N344 Co295 2.214 . S
N344 C342 1.325 . S
N344 C343 1.261 . S
C345 H315 0.931 . S
C345 C342 1.357 . S
C345 C346 1.312 . S
C346 H317 0.930 . S
C346 C341 1.261 . S
C346 C345 1.312 . S
C347 O319 1.214 . S
C347 O327 1.234 . S
C348 H320 0.929 . S
C348 C351 1.391 . S
C348 C353 1.391 . S
C349 H321 0.929 . S
C349 C350 1.390 . S
C349 N352 1.391 . S
C350 H322 0.930 . S
C350 C349 1.390 . S
C350 C351 1.392 . S
C351 H323 0.929 . S
C351 C348 1.391 . S
C351 C350 1.392 . S
N352 Co296 2.257 . S
N352 C349 1.391 . S
N352 C353 1.388 . S
C353 H324 0.930 . S
C353 C348 1.391 . S
C353 N352 1.388 . S
Co354 O356 2.143 . S
Co354 O362 2.074 . S
Co354 O365 2.093 . S
Co354 O378 2.097 . S
Co354 N395 2.151 1_545 S
Co354 N403 2.214 . S
Co355 O356 2.160 . S
Co355 O361 2.058 . S
Co355 O371 2.057 . S
Co355 O386 2.037 . S
Co355 N390 2.145 . S
Co355 N411 2.257 . S
O356 Co354 2.143 . S
O356 Co355 2.160 . S
C357 O358 1.278 . S
C357 O365 1.224 . S
O358 C357 1.278 . S
C359 O360 1.245 1_545 S
C359 O371 1.232 . S
O360 C359 1.245 1_565 S
O361 Co355 2.058 . S
O361 C387 1.269 . S
O362 Co354 2.074 . S
O362 C387 1.257 . S
H363 C388 0.930 . S
H364 C394 0.930 . S
O365 Co354 2.093 . S
O365 C357 1.224 . S
H366 C398 0.929 . S
H367 C400 0.930 . S
H368 C401 0.930 . S
H369 C399 0.929 . S
H370 C402 0.928 . S
O371 Co355 2.057 . S
O371 C359 1.232 . S
H372 C391 0.929 . S
H373 C392 0.929 . S
H374 C404 0.931 . S
H375 C396 0.929 . S
H376 C405 0.930 . S
H377 C397 0.931 . S
O378 Co354 2.097 . S
O378 C406 1.214 . S
H379 C407 0.929 . S
H380 C408 0.929 . S
H381 C409 0.930 . S
H382 C410 0.929 . S
H383 C412 0.930 . S
H384 C389 0.930 . S
H385 C393 0.930 . S
O386 Co355 2.037 . S
O386 C406 1.234 . S
C387 O361 1.269 . S
C387 O362 1.257 . S
C388 H363 0.930 . S
C388 C391 1.388 . S
C388 C393 1.418 . S
C389 H384 0.930 . S
C389 C392 1.404 . S
C389 C393 1.353 . S
N390 Co355 2.145 . S
N390 C391 1.397 . S
N390 C392 1.334 . S
C391 H372 0.929 . S
C391 C388 1.388 . S
C391 N390 1.397 . S
C392 H373 0.929 . S
C392 C389 1.404 . S
C392 N390 1.334 . S
C393 H385 0.930 . S
C393 C388 1.418 . S
C393 C389 1.353 . S
C394 H364 0.930 . S
C394 N395 1.330 . S
C394 C396 1.446 . S
N395 Co354 2.151 1_565 S
N395 C394 1.330 . S
N395 C399 1.418 . S
C396 H375 0.929 . S
C396 C394 1.446 . S
C396 C397 1.332 . S
C397 H377 0.931 . S
C397 C396 1.332 . S
C397 C398 1.267 . S
C398 H366 0.929 . S
C398 C397 1.267 . S
C398 C399 1.251 . S
C399 H369 0.929 . S
C399 N395 1.418 . S
C399 C398 1.251 . S
C400 H367 0.930 . S
C400 C402 1.406 . S
C400 C405 1.261 . S
C401 H368 0.930 . S
C401 N403 1.325 . S
C401 C404 1.357 . S
C402 H370 0.928 . S
C402 C400 1.406 . S
C402 N403 1.261 . S
N403 Co354 2.214 . S
N403 C401 1.325 . S
N403 C402 1.261 . S
C404 H374 0.931 . S
C404 C401 1.357 . S
C404 C405 1.312 . S
C405 H376 0.930 . S
C405 C400 1.261 . S
C405 C404 1.312 . S
C406 O378 1.214 . S
C406 O386 1.234 . S
C407 H379 0.929 . S
C407 C410 1.391 . S
C407 C412 1.391 . S
C408 H380 0.929 . S
C408 C409 1.390 . S
C408 N411 1.391 . S
C409 H381 0.930 . S
C409 C408 1.390 . S
C409 C410 1.392 . S
C410 H382 0.929 . S
C410 C407 1.391 . S
C410 C409 1.392 . S
N411 Co355 2.257 . S
N411 C408 1.391 . S
N411 C412 1.388 . S
C412 H383 0.930 . S
C412 C407 1.391 . S
C412 N411 1.388 . S
Co413 O415 2.143 . S
Co413 O421 2.074 . S
Co413 O424 2.093 1_455 S
Co413 O437 2.097 . S
Co413 N454 2.151 1_465 S
Co413 N462 2.214 1_455 S
Co414 O415 2.160 . S
Co414 O420 2.058 . S
Co414 O430 2.057 . S
Co414 O445 2.037 . S
Co414 N449 2.145 . S
Co414 N470 2.257 . S
O415 Co413 2.143 . S
O415 Co414 2.160 . S
C416 O417 1.278 . S
C416 O424 1.224 1_455 S
O417 C416 1.278 . S
C418 O419 1.245 1_565 S
C418 O430 1.232 . S
O419 C418 1.245 1_545 S
O420 Co414 2.058 . S
O420 C446 1.269 . S
O421 Co413 2.074 . S
O421 C446 1.257 . S
H422 C447 0.930 . S
H423 C453 0.930 . S
O424 Co413 2.093 1_655 S
O424 C416 1.224 1_655 S
H425 C457 0.929 . S
H426 C459 0.930 . S
H427 C460 0.930 . S
H428 C458 0.929 . S
H429 C461 0.928 . S
O430 Co414 2.057 . S
O430 C418 1.232 . S
H431 C450 0.929 . S
H432 C451 0.929 . S
H433 C463 0.931 . S
H434 C455 0.929 . S
H435 C464 0.930 . S
H436 C456 0.931 . S
O437 Co413 2.097 . S
O437 C465 1.214 . S
H438 C466 0.929 . S
H439 C467 0.929 . S
H440 C468 0.930 . S
H441 C469 0.929 . S
H442 C471 0.930 . S
H443 C448 0.930 . S
H444 C452 0.930 . S
O445 Co414 2.037 . S
O445 C465 1.234 . S
C446 O420 1.269 . S
C446 O421 1.257 . S
C447 H422 0.930 . S
C447 C450 1.388 . S
C447 C452 1.418 . S
C448 H443 0.930 . S
C448 C451 1.404 . S
C448 C452 1.353 . S
N449 Co414 2.145 . S
N449 C450 1.397 . S
N449 C451 1.334 . S
C450 H431 0.929 . S
C450 C447 1.388 . S
C450 N449 1.397 . S
C451 H432 0.929 . S
C451 C448 1.404 . S
C451 N449 1.334 . S
C452 H444 0.930 . S
C452 C447 1.418 . S
C452 C448 1.353 . S
C453 H423 0.930 . S
C453 N454 1.330 1_455 S
C453 C455 1.446 . S
N454 Co413 2.151 1_645 S
N454 C453 1.330 1_655 S
N454 C458 1.418 . S
C455 H434 0.929 . S
C455 C453 1.446 . S
C455 C456 1.332 1_455 S
C456 H436 0.931 . S
C456 C455 1.332 1_655 S
C456 C457 1.267 . S
C457 H425 0.929 . S
C457 C456 1.267 . S
C457 C458 1.251 . S
C458 H428 0.929 . S
C458 N454 1.418 . S
C458 C457 1.251 . S
C459 H426 0.930 . S
C459 C461 1.406 . S
C459 C464 1.261 . S
C460 H427 0.930 . S
C460 N462 1.325 . S
C460 C463 1.357 . S
C461 H429 0.928 . S
C461 C459 1.406 . S
C461 N462 1.261 . S
N462 Co413 2.214 1_655 S
N462 C460 1.325 . S
N462 C461 1.261 . S
C463 H433 0.931 . S
C463 C460 1.357 . S
C463 C464 1.312 . S
C464 H435 0.930 . S
C464 C459 1.261 . S
C464 C463 1.312 . S
C465 O437 1.214 . S
C465 O445 1.234 . S
C466 H438 0.929 . S
C466 C469 1.391 . S
C466 C471 1.391 . S
C467 H439 0.929 . S
C467 C468 1.390 . S
C467 N470 1.391 . S
C468 H440 0.930 . S
C468 C467 1.390 . S
C468 C469 1.392 . S
C469 H441 0.929 . S
C469 C466 1.391 . S
C469 C468 1.392 . S
N470 Co414 2.257 . S
N470 C467 1.391 . S
N470 C471 1.388 . S
C471 H442 0.930 . S
C471 C466 1.391 . S
C471 N470 1.388 . S
Co472 O474 2.143 . S
Co472 O480 2.074 . S
Co472 O483 2.093 . S
Co472 O496 2.097 . S
Co472 N513 2.151 . S
Co472 N521 2.214 . S
Co473 O474 2.160 . S
Co473 O479 2.058 . S
Co473 O489 2.057 . S
Co473 O504 2.037 . S
Co473 N508 2.145 . S
Co473 N529 2.257 . S
O474 Co472 2.143 . S
O474 Co473 2.160 . S
C475 O476 1.278 . S
C475 O483 1.224 . S
O476 C475 1.278 . S
C477 O478 1.245 . S
C477 O489 1.232 . S
O478 C477 1.245 . S
O479 Co473 2.058 . S
O479 C505 1.269 . S
O480 Co472 2.074 . S
O480 C505 1.257 . S
H481 C506 0.930 . S
H482 C512 0.930 . S
O483 Co472 2.093 . S
O483 C475 1.224 . S
H484 C516 0.929 . S
H485 C518 0.930 . S
H486 C519 0.930 . S
H487 C517 0.929 . S
H488 C520 0.928 . S
O489 Co473 2.057 . S
O489 C477 1.232 . S
H490 C509 0.929 . S
H491 C510 0.929 . S
H492 C522 0.931 . S
H493 C514 0.929 . S
H494 C523 0.930 . S
H495 C515 0.931 . S
O496 Co472 2.097 . S
O496 C524 1.214 . S
H497 C525 0.929 . S
H498 C526 0.929 . S
H499 C527 0.930 . S
H500 C528 0.929 . S
H501 C530 0.930 . S
H502 C507 0.930 . S
H503 C511 0.930 . S
O504 Co473 2.037 . S
O504 C524 1.234 . S
C505 O479 1.269 . S
C505 O480 1.257 . S
C506 H481 0.930 . S
C506 C509 1.388 . S
C506 C511 1.418 . S
C507 H502 0.930 . S
C507 C510 1.404 . S
C507 C511 1.353 . S
N508 Co473 2.145 . S
N508 C509 1.397 . S
N508 C510 1.334 . S
C509 H490 0.929 . S
C509 C506 1.388 . S
C509 N508 1.397 . S
C510 H491 0.929 . S
C510 C507 1.404 . S
C510 N508 1.334 . S
C511 H503 0.930 . S
C511 C506 1.418 . S
C511 C507 1.353 . S
C512 H482 0.930 . S
C512 N513 1.330 . S
C512 C514 1.446 . S
N513 Co472 2.151 . S
N513 C512 1.330 . S
N513 C517 1.418 . S
C514 H493 0.929 . S
C514 C512 1.446 . S
C514 C515 1.332 . S
C515 H495 0.931 . S
C515 C514 1.332 . S
C515 C516 1.267 . S
C516 H484 0.929 . S
C516 C515 1.267 . S
C516 C517 1.251 . S
C517 H487 0.929 . S
C517 N513 1.418 . S
C517 C516 1.251 . S
C518 H485 0.930 . S
C518 C520 1.406 . S
C518 C523 1.261 . S
C519 H486 0.930 . S
C519 N521 1.325 . S
C519 C522 1.357 . S
C520 H488 0.928 . S
C520 C518 1.406 . S
C520 N521 1.261 . S
N521 Co472 2.214 . S
N521 C519 1.325 . S
N521 C520 1.261 . S
C522 H492 0.931 . S
C522 C519 1.357 . S
C522 C523 1.312 . S
C523 H494 0.930 . S
C523 C518 1.261 . S
C523 C522 1.312 . S
C524 O496 1.214 . S
C524 O504 1.234 . S
C525 H497 0.929 . S
C525 C528 1.391 . S
C525 C530 1.391 . S
C526 H498 0.929 . S
C526 C527 1.390 . S
C526 N529 1.391 . S
C527 H499 0.930 . S
C527 C526 1.390 . S
C527 C528 1.392 . S
C528 H500 0.929 . S
C528 C525 1.391 . S
C528 C527 1.392 . S
N529 Co473 2.257 . S
N529 C526 1.391 . S
N529 C530 1.388 . S
C530 H501 0.930 . S
C530 C525 1.391 . S
C530 N529 1.388 . S
Co531 O533 2.143 . S
Co531 O539 2.074 . S
Co531 O542 2.093 1_655 S
Co531 O555 2.097 . S
Co531 N572 2.151 1_655 S
Co531 N580 2.214 1_655 S
Co532 O533 2.160 . S
Co532 O538 2.058 . S
Co532 O548 2.057 . S
Co532 O563 2.037 . S
Co532 N567 2.145 . S
Co532 N588 2.257 . S
O533 Co531 2.143 . S
O533 Co532 2.160 . S
C534 O535 1.278 . S
C534 O542 1.224 1_655 S
O535 C534 1.278 . S
C536 O537 1.245 . S
C536 O548 1.232 . S
O537 C536 1.245 . S
O538 Co532 2.058 . S
O538 C564 1.269 . S
O539 Co531 2.074 . S
O539 C564 1.257 . S
H540 C565 0.930 . S
H541 C571 0.930 . S
O542 Co531 2.093 1_455 S
O542 C534 1.224 1_455 S
H543 C575 0.929 . S
H544 C577 0.930 . S
H545 C578 0.930 . S
H546 C576 0.929 . S
H547 C579 0.928 . S
O548 Co532 2.057 . S
O548 C536 1.232 . S
H549 C568 0.929 . S
H550 C569 0.929 . S
H551 C581 0.931 . S
H552 C573 0.929 . S
H553 C582 0.930 . S
H554 C574 0.931 . S
O555 Co531 2.097 . S
O555 C583 1.214 . S
H556 C584 0.929 . S
H557 C585 0.929 . S
H558 C586 0.930 . S
H559 C587 0.929 . S
H560 C589 0.930 . S
H561 C566 0.930 . S
H562 C570 0.930 . S
O563 Co532 2.037 . S
O563 C583 1.234 . S
C564 O538 1.269 . S
C564 O539 1.257 . S
C565 H540 0.930 . S
C565 C568 1.388 . S
C565 C570 1.418 . S
C566 H561 0.930 . S
C566 C569 1.404 . S
C566 C570 1.353 . S
N567 Co532 2.145 . S
N567 C568 1.397 . S
N567 C569 1.334 . S
C568 H549 0.929 . S
C568 C565 1.388 . S
C568 N567 1.397 . S
C569 H550 0.929 . S
C569 C566 1.404 . S
C569 N567 1.334 . S
C570 H562 0.930 . S
C570 C565 1.418 . S
C570 C566 1.353 . S
C571 H541 0.930 . S
C571 N572 1.330 1_655 S
C571 C573 1.446 . S
N572 Co531 2.151 1_455 S
N572 C571 1.330 1_455 S
N572 C576 1.418 . S
C573 H552 0.929 . S
C573 C571 1.446 . S
C573 C574 1.332 1_655 S
C574 H554 0.931 . S
C574 C573 1.332 1_455 S
C574 C575 1.267 . S
C575 H543 0.929 . S
C575 C574 1.267 . S
C575 C576 1.251 . S
C576 H546 0.929 . S
C576 N572 1.418 . S
C576 C575 1.251 . S
C577 H544 0.930 . S
C577 C579 1.406 . S
C577 C582 1.261 . S
C578 H545 0.930 . S
C578 N580 1.325 . S
C578 C581 1.357 . S
C579 H547 0.928 . S
C579 C577 1.406 . S
C579 N580 1.261 . S
N580 Co531 2.214 1_455 S
N580 C578 1.325 . S
N580 C579 1.261 . S
C581 H551 0.931 . S
C581 C578 1.357 . S
C581 C582 1.312 . S
C582 H553 0.930 . S
C582 C577 1.261 . S
C582 C581 1.312 . S
C583 O555 1.214 . S
C583 O563 1.234 . S
C584 H556 0.929 . S
C584 C587 1.391 . S
C584 C589 1.391 . S
C585 H557 0.929 . S
C585 C586 1.390 . S
C585 N588 1.391 . S
C586 H558 0.930 . S
C586 C585 1.390 . S
C586 C587 1.392 . S
C587 H559 0.929 . S
C587 C584 1.391 . S
C587 C586 1.392 . S
N588 Co532 2.257 . S
N588 C585 1.391 . S
N588 C589 1.388 . S
C589 H560 0.930 . S
C589 C584 1.391 . S
C589 N588 1.388 . S
Co590 O592 2.143 . S
Co590 O598 2.074 . S
Co590 O601 2.093 1_455 S
Co590 O614 2.097 . S
Co590 N631 2.151 1_455 S
Co590 N639 2.214 1_455 S
Co591 O592 2.160 . S
Co591 O597 2.058 . S
Co591 O607 2.057 . S
Co591 O622 2.037 . S
Co591 N626 2.145 . S
Co591 N647 2.257 . S
O592 Co590 2.143 . S
O592 Co591 2.160 . S
C593 O594 1.278 . S
C593 O601 1.224 1_455 S
O594 C593 1.278 . S
C595 O596 1.245 . S
C595 O607 1.232 . S
O596 C595 1.245 . S
O597 Co591 2.058 . S
O597 C623 1.269 . S
O598 Co590 2.074 . S
O598 C623 1.257 . S
H599 C624 0.930 . S
H600 C630 0.930 . S
O601 Co590 2.093 1_655 S
O601 C593 1.224 1_655 S
H602 C634 0.929 . S
H603 C636 0.930 . S
H604 C637 0.930 . S
H605 C635 0.929 . S
H606 C638 0.928 . S
O607 Co591 2.057 . S
O607 C595 1.232 . S
H608 C627 0.929 . S
H609 C628 0.929 . S
H610 C640 0.931 . S
H611 C632 0.929 . S
H612 C641 0.930 . S
H613 C633 0.931 . S
O614 Co590 2.097 . S
O614 C642 1.214 . S
H615 C643 0.929 . S
H616 C644 0.929 . S
H617 C645 0.930 . S
H618 C646 0.929 . S
H619 C648 0.930 . S
H620 C625 0.930 . S
H621 C629 0.930 . S
O622 Co591 2.037 . S
O622 C642 1.234 . S
C623 O597 1.269 . S
C623 O598 1.257 . S
C624 H599 0.930 . S
C624 C627 1.388 . S
C624 C629 1.418 . S
C625 H620 0.930 . S
C625 C628 1.404 . S
C625 C629 1.353 . S
N626 Co591 2.145 . S
N626 C627 1.397 . S
N626 C628 1.334 . S
C627 H608 0.929 . S
C627 C624 1.388 . S
C627 N626 1.397 . S
C628 H609 0.929 . S
C628 C625 1.404 . S
C628 N626 1.334 . S
C629 H621 0.930 . S
C629 C624 1.418 . S
C629 C625 1.353 . S
C630 H600 0.930 . S
C630 N631 1.330 1_455 S
C630 C632 1.446 . S
N631 Co590 2.151 1_655 S
N631 C630 1.330 1_655 S
N631 C635 1.418 . S
C632 H611 0.929 . S
C632 C630 1.446 . S
C632 C633 1.332 1_455 S
C633 H613 0.931 . S
C633 C632 1.332 1_655 S
C633 C634 1.267 . S
C634 H602 0.929 . S
C634 C633 1.267 . S
C634 C635 1.251 . S
C635 H605 0.929 . S
C635 N631 1.418 . S
C635 C634 1.251 . S
C636 H603 0.930 . S
C636 C638 1.406 . S
C636 C641 1.261 . S
C637 H604 0.930 . S
C637 N639 1.325 . S
C637 C640 1.357 . S
C638 H606 0.928 . S
C638 C636 1.406 . S
C638 N639 1.261 . S
N639 Co590 2.214 1_655 S
N639 C637 1.325 . S
N639 C638 1.261 . S
C640 H610 0.931 . S
C640 C637 1.357 . S
C640 C641 1.312 . S
C641 H612 0.930 . S
C641 C636 1.261 . S
C641 C640 1.312 . S
C642 O614 1.214 . S
C642 O622 1.234 . S
C643 H615 0.929 . S
C643 C646 1.391 . S
C643 C648 1.391 . S
C644 H616 0.929 . S
C644 C645 1.390 . S
C644 N647 1.391 . S
C645 H617 0.930 . S
C645 C644 1.390 . S
C645 C646 1.392 . S
C646 H618 0.929 . S
C646 C643 1.391 . S
C646 C645 1.392 . S
N647 Co591 2.257 . S
N647 C644 1.391 . S
N647 C648 1.388 . S
C648 H619 0.930 . S
C648 C643 1.391 . S
C648 N647 1.388 . S
Co649 O651 2.143 . S
Co649 O657 2.074 . S
Co649 O660 2.093 . S
Co649 O673 2.097 . S
Co649 N690 2.151 . S
Co649 N698 2.214 . S
Co650 O651 2.160 . S
Co650 O656 2.058 . S
Co650 O666 2.057 . S
Co650 O681 2.037 . S
Co650 N685 2.145 . S
Co650 N706 2.257 . S
O651 Co649 2.143 . S
O651 Co650 2.160 . S
C652 O653 1.278 . S
C652 O660 1.224 . S
O653 C652 1.278 . S
C654 O655 1.245 . S
C654 O666 1.232 . S
O655 C654 1.245 . S
O656 Co650 2.058 . S
O656 C682 1.269 . S
O657 Co649 2.074 . S
O657 C682 1.257 . S
H658 C683 0.930 . S
H659 C689 0.930 . S
O660 Co649 2.093 . S
O660 C652 1.224 . S
H661 C693 0.929 . S
H662 C695 0.930 . S
H663 C696 0.930 . S
H664 C694 0.929 . S
H665 C697 0.928 . S
O666 Co650 2.057 . S
O666 C654 1.232 . S
H667 C686 0.929 . S
H668 C687 0.929 . S
H669 C699 0.931 . S
H670 C691 0.929 . S
H671 C700 0.930 . S
H672 C692 0.931 . S
O673 Co649 2.097 . S
O673 C701 1.214 . S
H674 C702 0.929 . S
H675 C703 0.929 . S
H676 C704 0.930 . S
H677 C705 0.929 . S
H678 C707 0.930 . S
H679 C684 0.930 . S
H680 C688 0.930 . S
O681 Co650 2.037 . S
O681 C701 1.234 . S
C682 O656 1.269 . S
C682 O657 1.257 . S
C683 H658 0.930 . S
C683 C686 1.388 . S
C683 C688 1.418 . S
C684 H679 0.930 . S
C684 C687 1.404 . S
C684 C688 1.353 . S
N685 Co650 2.145 . S
N685 C686 1.397 . S
N685 C687 1.334 . S
C686 H667 0.929 . S
C686 C683 1.388 . S
C686 N685 1.397 . S
C687 H668 0.929 . S
C687 C684 1.404 . S
C687 N685 1.334 . S
C688 H680 0.930 . S
C688 C683 1.418 . S
C688 C684 1.353 . S
C689 H659 0.930 . S
C689 N690 1.330 . S
C689 C691 1.446 . S
N690 Co649 2.151 . S
N690 C689 1.330 . S
N690 C694 1.418 . S
C691 H670 0.929 . S
C691 C689 1.446 . S
C691 C692 1.332 . S
C692 H672 0.931 . S
C692 C691 1.332 . S
C692 C693 1.267 . S
C693 H661 0.929 . S
C693 C692 1.267 . S
C693 C694 1.251 . S
C694 H664 0.929 . S
C694 N690 1.418 . S
C694 C693 1.251 . S
C695 H662 0.930 . S
C695 C697 1.406 . S
C695 C700 1.261 . S
C696 H663 0.930 . S
C696 N698 1.325 . S
C696 C699 1.357 . S
C697 H665 0.928 . S
C697 C695 1.406 . S
C697 N698 1.261 . S
N698 Co649 2.214 . S
N698 C696 1.325 . S
N698 C697 1.261 . S
C699 H669 0.931 . S
C699 C696 1.357 . S
C699 C700 1.312 . S
C700 H671 0.930 . S
C700 C695 1.261 . S
C700 C699 1.312 . S
C701 O673 1.214 . S
C701 O681 1.234 . S
C702 H674 0.929 . S
C702 C705 1.391 . S
C702 C707 1.391 . S
C703 H675 0.929 . S
C703 C704 1.390 . S
C703 N706 1.391 . S
C704 H676 0.930 . S
C704 C703 1.390 . S
C704 C705 1.392 . S
C705 H677 0.929 . S
C705 C702 1.391 . S
C705 C704 1.392 . S
N706 Co650 2.257 . S
N706 C703 1.391 . S
N706 C707 1.388 . S
C707 H678 0.930 . S
C707 C702 1.391 . S
C707 N706 1.388 . S
Co708 O710 2.143 . S
Co708 O716 2.074 . S
Co708 O719 2.093 . S
Co708 O732 2.097 . S
Co708 N749 2.151 . S
Co708 N757 2.214 . S
Co709 O710 2.160 . S
Co709 O715 2.058 . S
Co709 O725 2.057 . S
Co709 O740 2.037 . S
Co709 N744 2.145 . S
Co709 N765 2.257 . S
O710 Co708 2.143 . S
O710 Co709 2.160 . S
C711 O712 1.278 . S
C711 O719 1.224 . S
O712 C711 1.278 . S
C713 O714 1.245 . S
C713 O725 1.232 . S
O714 C713 1.245 . S
O715 Co709 2.058 . S
O715 C741 1.269 . S
O716 Co708 2.074 . S
O716 C741 1.257 . S
H717 C742 0.930 . S
H718 C748 0.930 . S
O719 Co708 2.093 . S
O719 C711 1.224 . S
H720 C752 0.929 . S
H721 C754 0.930 . S
H722 C755 0.930 . S
H723 C753 0.929 . S
H724 C756 0.928 . S
O725 Co709 2.057 . S
O725 C713 1.232 . S
H726 C745 0.929 . S
H727 C746 0.929 . S
H728 C758 0.931 . S
H729 C750 0.929 . S
H730 C759 0.930 . S
H731 C751 0.931 . S
O732 Co708 2.097 . S
O732 C760 1.214 . S
H733 C761 0.929 . S
H734 C762 0.929 . S
H735 C763 0.930 . S
H736 C764 0.929 . S
H737 C766 0.930 . S
H738 C743 0.930 . S
H739 C747 0.930 . S
O740 Co709 2.037 . S
O740 C760 1.234 . S
C741 O715 1.269 . S
C741 O716 1.257 . S
C742 H717 0.930 . S
C742 C745 1.388 . S
C742 C747 1.418 . S
C743 H738 0.930 . S
C743 C746 1.404 . S
C743 C747 1.353 . S
N744 Co709 2.145 . S
N744 C745 1.397 . S
N744 C746 1.334 . S
C745 H726 0.929 . S
C745 C742 1.388 . S
C745 N744 1.397 . S
C746 H727 0.929 . S
C746 C743 1.404 . S
C746 N744 1.334 . S
C747 H739 0.930 . S
C747 C742 1.418 . S
C747 C743 1.353 . S
C748 H718 0.930 . S
C748 N749 1.330 . S
C748 C750 1.446 . S
N749 Co708 2.151 . S
N749 C748 1.330 . S
N749 C753 1.418 . S
C750 H729 0.929 . S
C750 C748 1.446 . S
C750 C751 1.332 . S
C751 H731 0.931 . S
C751 C750 1.332 . S
C751 C752 1.267 . S
C752 H720 0.929 . S
C752 C751 1.267 . S
C752 C753 1.251 . S
C753 H723 0.929 . S
C753 N749 1.418 . S
C753 C752 1.251 . S
C754 H721 0.930 . S
C754 C756 1.406 . S
C754 C759 1.261 . S
C755 H722 0.930 . S
C755 N757 1.325 . S
C755 C758 1.357 . S
C756 H724 0.928 . S
C756 C754 1.406 . S
C756 N757 1.261 . S
N757 Co708 2.214 . S
N757 C755 1.325 . S
N757 C756 1.261 . S
C758 H728 0.931 . S
C758 C755 1.357 . S
C758 C759 1.312 . S
C759 H730 0.930 . S
C759 C754 1.261 . S
C759 C758 1.312 . S
C760 O732 1.214 . S
C760 O740 1.234 . S
C761 H733 0.929 . S
C761 C764 1.391 . S
C761 C766 1.391 . S
C762 H734 0.929 . S
C762 C763 1.390 . S
C762 N765 1.391 . S
C763 H735 0.930 . S
C763 C762 1.390 . S
C763 C764 1.392 . S
C764 H736 0.929 . S
C764 C761 1.391 . S
C764 C763 1.392 . S
N765 Co709 2.257 . S
N765 C762 1.391 . S
N765 C766 1.388 . S
C766 H737 0.930 . S
C766 C761 1.391 . S
C766 N765 1.388 . S
Co767 O769 2.143 . S
Co767 O775 2.074 . S
Co767 O778 2.093 1_455 S
Co767 O791 2.097 . S
Co767 N808 2.151 1_455 S
Co767 N816 2.214 1_455 S
Co768 O769 2.160 . S
Co768 O774 2.058 . S
Co768 O784 2.057 . S
Co768 O799 2.037 . S
Co768 N803 2.145 . S
Co768 N824 2.257 . S
O769 Co767 2.143 . S
O769 Co768 2.160 . S
C770 O771 1.278 . S
C770 O778 1.224 1_455 S
O771 C770 1.278 . S
C772 O773 1.245 . S
C772 O784 1.232 . S
O773 C772 1.245 . S
O774 Co768 2.058 . S
O774 C800 1.269 . S
O775 Co767 2.074 . S
O775 C800 1.257 . S
H776 C801 0.930 . S
H777 C807 0.930 . S
O778 Co767 2.093 1_655 S
O778 C770 1.224 1_655 S
H779 C811 0.929 . S
H780 C813 0.930 . S
H781 C814 0.930 . S
H782 C812 0.929 . S
H783 C815 0.928 . S
O784 Co768 2.057 . S
O784 C772 1.232 . S
H785 C804 0.929 . S
H786 C805 0.929 . S
H787 C817 0.931 . S
H788 C809 0.929 . S
H789 C818 0.930 . S
H790 C810 0.931 . S
O791 Co767 2.097 . S
O791 C819 1.214 . S
H792 C820 0.929 . S
H793 C821 0.929 . S
H794 C822 0.930 . S
H795 C823 0.929 . S
H796 C825 0.930 . S
H797 C802 0.930 . S
H798 C806 0.930 . S
O799 Co768 2.037 . S
O799 C819 1.234 . S
C800 O774 1.269 . S
C800 O775 1.257 . S
C801 H776 0.930 . S
C801 C804 1.388 . S
C801 C806 1.418 . S
C802 H797 0.930 . S
C802 C805 1.404 . S
C802 C806 1.353 . S
N803 Co768 2.145 . S
N803 C804 1.397 . S
N803 C805 1.334 . S
C804 H785 0.929 . S
C804 C801 1.388 . S
C804 N803 1.397 . S
C805 H786 0.929 . S
C805 C802 1.404 . S
C805 N803 1.334 . S
C806 H798 0.930 . S
C806 C801 1.418 . S
C806 C802 1.353 . S
C807 H777 0.930 . S
C807 N808 1.330 1_455 S
C807 C809 1.446 . S
N808 Co767 2.151 1_655 S
N808 C807 1.330 1_655 S
N808 C812 1.418 . S
C809 H788 0.929 . S
C809 C807 1.446 . S
C809 C810 1.332 1_455 S
C810 H790 0.931 . S
C810 C809 1.332 1_655 S
C810 C811 1.267 . S
C811 H779 0.929 . S
C811 C810 1.267 . S
C811 C812 1.251 . S
C812 H782 0.929 . S
C812 N808 1.418 . S
C812 C811 1.251 . S
C813 H780 0.930 . S
C813 C815 1.406 . S
C813 C818 1.261 . S
C814 H781 0.930 . S
C814 N816 1.325 . S
C814 C817 1.357 . S
C815 H783 0.928 . S
C815 C813 1.406 . S
C815 N816 1.261 . S
N816 Co767 2.214 1_655 S
N816 C814 1.325 . S
N816 C815 1.261 . S
C817 H787 0.931 . S
C817 C814 1.357 . S
C817 C818 1.312 . S
C818 H789 0.930 . S
C818 C813 1.261 . S
C818 C817 1.312 . S
C819 O791 1.214 . S
C819 O799 1.234 . S
C820 H792 0.929 . S
C820 C823 1.391 . S
C820 C825 1.391 . S
C821 H793 0.929 . S
C821 C822 1.390 . S
C821 N824 1.391 . S
C822 H794 0.930 . S
C822 C821 1.390 . S
C822 C823 1.392 . S
C823 H795 0.929 . S
C823 C820 1.391 . S
C823 C822 1.392 . S
N824 Co768 2.257 . S
N824 C821 1.391 . S
N824 C825 1.388 . S
C825 H796 0.930 . S
C825 C820 1.391 . S
C825 N824 1.388 . S
Co826 O828 2.143 . S
Co826 O834 2.074 . S
Co826 O837 2.093 1_655 S
Co826 O850 2.097 . S
Co826 N867 2.151 1_655 S
Co826 N875 2.214 1_655 S
Co827 O828 2.160 . S
Co827 O833 2.058 . S
Co827 O843 2.057 . S
Co827 O858 2.037 . S
Co827 N862 2.145 . S
Co827 N883 2.257 . S
O828 Co826 2.143 . S
O828 Co827 2.160 . S
C829 O830 1.278 . S
C829 O837 1.224 1_655 S
O830 C829 1.278 . S
C831 O832 1.245 . S
C831 O843 1.232 . S
O832 C831 1.245 . S
O833 Co827 2.058 . S
O833 C859 1.269 . S
O834 Co826 2.074 . S
O834 C859 1.257 . S
H835 C860 0.930 . S
H836 C866 0.930 . S
O837 Co826 2.093 1_455 S
O837 C829 1.224 1_455 S
H838 C870 0.929 . S
H839 C872 0.930 . S
H840 C873 0.930 . S
H841 C871 0.929 . S
H842 C874 0.928 . S
O843 Co827 2.057 . S
O843 C831 1.232 . S
H844 C863 0.929 . S
H845 C864 0.929 . S
H846 C876 0.931 . S
H847 C868 0.929 . S
H848 C877 0.930 . S
H849 C869 0.931 . S
O850 Co826 2.097 . S
O850 C878 1.214 . S
H851 C879 0.929 . S
H852 C880 0.929 . S
H853 C881 0.930 . S
H854 C882 0.929 . S
H855 C884 0.930 . S
H856 C861 0.930 . S
H857 C865 0.930 . S
O858 Co827 2.037 . S
O858 C878 1.234 . S
C859 O833 1.269 . S
C859 O834 1.257 . S
C860 H835 0.930 . S
C860 C863 1.388 . S
C860 C865 1.418 . S
C861 H856 0.930 . S
C861 C864 1.404 . S
C861 C865 1.353 . S
N862 Co827 2.145 . S
N862 C863 1.397 . S
N862 C864 1.334 . S
C863 H844 0.929 . S
C863 C860 1.388 . S
C863 N862 1.397 . S
C864 H845 0.929 . S
C864 C861 1.404 . S
C864 N862 1.334 . S
C865 H857 0.930 . S
C865 C860 1.418 . S
C865 C861 1.353 . S
C866 H836 0.930 . S
C866 N867 1.330 1_655 S
C866 C868 1.446 . S
N867 Co826 2.151 1_455 S
N867 C866 1.330 1_455 S
N867 C871 1.418 . S
C868 H847 0.929 . S
C868 C866 1.446 . S
C868 C869 1.332 1_655 S
C869 H849 0.931 . S
C869 C868 1.332 1_455 S
C869 C870 1.267 . S
C870 H838 0.929 . S
C870 C869 1.267 . S
C870 C871 1.251 . S
C871 H841 0.929 . S
C871 N867 1.418 . S
C871 C870 1.251 . S
C872 H839 0.930 . S
C872 C874 1.406 . S
C872 C877 1.261 . S
C873 H840 0.930 . S
C873 N875 1.325 . S
C873 C876 1.357 . S
C874 H842 0.928 . S
C874 C872 1.406 . S
C874 N875 1.261 . S
N875 Co826 2.214 1_455 S
N875 C873 1.325 . S
N875 C874 1.261 . S
C876 H846 0.931 . S
C876 C873 1.357 . S
C876 C877 1.312 . S
C877 H848 0.930 . S
C877 C872 1.261 . S
C877 C876 1.312 . S
C878 O850 1.214 . S
C878 O858 1.234 . S
C879 H851 0.929 . S
C879 C882 1.391 . S
C879 C884 1.391 . S
C880 H852 0.929 . S
C880 C881 1.390 . S
C880 N883 1.391 . S
C881 H853 0.930 . S
C881 C880 1.390 . S
C881 C882 1.392 . S
C882 H854 0.929 . S
C882 C879 1.391 . S
C882 C881 1.392 . S
N883 Co827 2.257 . S
N883 C880 1.391 . S
N883 C884 1.388 . S
C884 H855 0.930 . S
C884 C879 1.391 . S
C884 N883 1.388 . S
Co885 O887 2.143 . S
Co885 O893 2.074 . S
Co885 O896 2.093 . S
Co885 O909 2.097 . S
Co885 N926 2.151 . S
Co885 N934 2.214 . S
Co886 O887 2.160 . S
Co886 O892 2.058 . S
Co886 O902 2.057 . S
Co886 O917 2.037 . S
Co886 N921 2.145 . S
Co886 N942 2.257 . S
O887 Co885 2.143 . S
O887 Co886 2.160 . S
C888 O889 1.278 . S
C888 O896 1.224 . S
O889 C888 1.278 . S
C890 O891 1.245 . S
C890 O902 1.232 . S
O891 C890 1.245 . S
O892 Co886 2.058 . S
O892 C918 1.269 . S
O893 Co885 2.074 . S
O893 C918 1.257 . S
H894 C919 0.930 . S
H895 C925 0.930 . S
O896 Co885 2.093 . S
O896 C888 1.224 . S
H897 C929 0.929 . S
H898 C931 0.930 . S
H899 C932 0.930 . S
H900 C930 0.929 . S
H901 C933 0.928 . S
O902 Co886 2.057 . S
O902 C890 1.232 . S
H903 C922 0.929 . S
H904 C923 0.929 . S
H905 C935 0.931 . S
H906 C927 0.929 . S
H907 C936 0.930 . S
H908 C928 0.931 . S
O909 Co885 2.097 . S
O909 C937 1.214 . S
H910 C938 0.929 . S
H911 C939 0.929 . S
H912 C940 0.930 . S
H913 C941 0.929 . S
H914 C943 0.930 . S
H915 C920 0.930 . S
H916 C924 0.930 . S
O917 Co886 2.037 . S
O917 C937 1.234 . S
C918 O892 1.269 . S
C918 O893 1.257 . S
C919 H894 0.930 . S
C919 C922 1.388 . S
C919 C924 1.418 . S
C920 H915 0.930 . S
C920 C923 1.404 . S
C920 C924 1.353 . S
N921 Co886 2.145 . S
N921 C922 1.397 . S
N921 C923 1.334 . S
C922 H903 0.929 . S
C922 C919 1.388 . S
C922 N921 1.397 . S
C923 H904 0.929 . S
C923 C920 1.404 . S
C923 N921 1.334 . S
C924 H916 0.930 . S
C924 C919 1.418 . S
C924 C920 1.353 . S
C925 H895 0.930 . S
C925 N926 1.330 . S
C925 C927 1.446 . S
N926 Co885 2.151 . S
N926 C925 1.330 . S
N926 C930 1.418 . S
C927 H906 0.929 . S
C927 C925 1.446 . S
C927 C928 1.332 . S
C928 H908 0.931 . S
C928 C927 1.332 . S
C928 C929 1.267 . S
C929 H897 0.929 . S
C929 C928 1.267 . S
C929 C930 1.251 . S
C930 H900 0.929 . S
C930 N926 1.418 . S
C930 C929 1.251 . S
C931 H898 0.930 . S
C931 C933 1.406 . S
C931 C936 1.261 . S
C932 H899 0.930 . S
C932 N934 1.325 . S
C932 C935 1.357 . S
C933 H901 0.928 . S
C933 C931 1.406 . S
C933 N934 1.261 . S
N934 Co885 2.214 . S
N934 C932 1.325 . S
N934 C933 1.261 . S
C935 H905 0.931 . S
C935 C932 1.357 . S
C935 C936 1.312 . S
C936 H907 0.930 . S
C936 C931 1.261 . S
C936 C935 1.312 . S
C937 O909 1.214 . S
C937 O917 1.234 . S
C938 H910 0.929 . S
C938 C941 1.391 . S
C938 C943 1.391 . S
C939 H911 0.929 . S
C939 C940 1.390 . S
C939 N942 1.391 . S
C940 H912 0.930 . S
C940 C939 1.390 . S
C940 C941 1.392 . S
C941 H913 0.929 . S
C941 C938 1.391 . S
C941 C940 1.392 . S
N942 Co886 2.257 . S
N942 C939 1.391 . S
N942 C943 1.388 . S
C943 H914 0.930 . S
C943 C938 1.391 . S
C943 N942 1.388 . S
C944 C945 1.363 1_545 S
C944 C950 1.379 . S
C944 N952 1.356 . S
C945 C944 1.363 1_565 S
C945 C951 1.363 . S
C946 C947 1.363 1_565 S
C946 C951 1.379 . S
C946 N953 1.356 . S
C947 C946 1.363 1_545 S
C947 C950 1.363 . S
N948 C950 1.356 . S
N948 H960 0.984 . S
N948 H961 0.985 . S
N949 C951 1.356 . S
N949 H954 0.984 . S
N949 H955 0.985 . S
C950 C944 1.379 . S
C950 C947 1.363 . S
C950 N948 1.356 . S
C951 C945 1.363 . S
C951 C946 1.379 . S
C951 N949 1.356 . S
N952 C944 1.356 . S
N952 H958 0.984 . S
N952 H959 0.984 . S
N953 C946 1.356 . S
N953 H956 0.984 . S
N953 H957 0.985 . S
H954 N949 0.984 . S
H955 N949 0.985 . S
H956 N953 0.984 . S
H957 N953 0.985 . S
H958 N952 0.984 . S
H959 N952 0.984 . S
H960 N948 0.984 . S
H961 N948 0.985 . S
C962 C963 1.363 . S
C962 C968 1.379 . S
C962 N970 1.356 . S
C963 C962 1.363 . S
C963 C969 1.363 1_565 S
C964 C965 1.363 . S
C964 C969 1.379 . S
C964 N971 1.356 . S
C965 C964 1.363 . S
C965 C968 1.363 1_545 S
N966 C968 1.356 . S
N966 H978 0.984 . S
N966 H979 0.985 . S
N967 C969 1.356 . S
N967 H972 0.984 . S
N967 H973 0.985 . S
C968 C962 1.379 . S
C968 C965 1.363 1_565 S
C968 N966 1.356 . S
C969 C963 1.363 1_545 S
C969 C964 1.379 . S
C969 N967 1.356 . S
N970 C962 1.356 . S
N970 H976 0.984 . S
N970 H977 0.984 . S
N971 C964 1.356 . S
N971 H974 0.984 . S
N971 H975 0.985 . S
H972 N967 0.984 . S
H973 N967 0.985 . S
H974 N971 0.984 . S
H975 N971 0.985 . S
H976 N970 0.984 . S
H977 N970 0.984 . S
H978 N966 0.984 . S
H979 N966 0.985 . S
C980 C981 1.363 1_545 S
C980 C986 1.379 . S
C980 N988 1.356 . S
C981 C980 1.363 1_565 S
C981 C987 1.363 . S
C982 C983 1.363 1_565 S
C982 C987 1.379 . S
C982 N989 1.356 . S
C983 C982 1.363 1_545 S
C983 C986 1.363 . S
N984 C986 1.356 . S
N984 H996 0.984 . S
N984 H997 0.985 . S
N985 C987 1.356 . S
N985 H990 0.984 . S
N985 H991 0.985 . S
C986 C980 1.379 . S
C986 C983 1.363 . S
C986 N984 1.356 . S
C987 C981 1.363 . S
C987 C982 1.379 . S
C987 N985 1.356 . S
N988 C980 1.356 . S
N988 H994 0.984 . S
N988 H995 0.984 . S
N989 C982 1.356 . S
N989 H992 0.984 . S
N989 H993 0.985 . S
H990 N985 0.984 . S
H991 N985 0.985 . S
H992 N989 0.984 . S
H993 N989 0.985 . S
H994 N988 0.984 . S
H995 N988 0.984 . S
H996 N984 0.984 . S
H997 N984 0.985 . S
C998 C999 1.363 1_545 S
C998 C1004 1.379 . S
C998 N1006 1.356 . S
C999 C998 1.363 1_565 S
C999 C1005 1.363 . S
C1000 C1001 1.363 1_565 S
C1000 C1005 1.379 . S
C1000 N1007 1.356 . S
C1001 C1000 1.363 1_545 S
C1001 C1004 1.363 . S
N1002 C1004 1.356 . S
N1002 H1014 0.984 . S
N1002 H1015 0.985 . S
N1003 C1005 1.356 . S
N1003 H1008 0.984 . S
N1003 H1009 0.985 . S
C1004 C998 1.379 . S
C1004 C1001 1.363 . S
C1004 N1002 1.356 . S
C1005 C999 1.363 . S
C1005 C1000 1.379 . S
C1005 N1003 1.356 . S
N1006 C998 1.356 . S
N1006 H1012 0.984 . S
N1006 H1013 0.984 . S
N1007 C1000 1.356 . S
N1007 H1010 0.984 . S
N1007 H1011 0.985 . S
H1008 N1003 0.984 . S
H1009 N1003 0.985 . S
H1010 N1007 0.984 . S
H1011 N1007 0.985 . S
H1012 N1006 0.984 . S
H1013 N1006 0.984 . S
H1014 N1002 0.984 . S
H1015 N1002 0.985 . S
C1016 C1017 1.363 . S
C1016 C1022 1.379 . S
C1016 N1024 1.356 . S
C1017 C1016 1.363 . S
C1017 C1023 1.363 . S
C1018 C1019 1.363 . S
C1018 C1023 1.379 . S
C1018 N1025 1.356 . S
C1019 C1018 1.363 . S
C1019 C1022 1.363 . S
N1020 C1022 1.356 . S
N1020 H1032 0.984 . S
N1020 H1033 0.985 . S
N1021 C1023 1.356 . S
N1021 H1026 0.984 . S
N1021 H1027 0.985 . S
C1022 C1016 1.379 . S
C1022 C1019 1.363 . S
C1022 N1020 1.356 . S
C1023 C1017 1.363 . S
C1023 C1018 1.379 . S
C1023 N1021 1.356 . S
N1024 C1016 1.356 . S
N1024 H1030 0.984 . S
N1024 H1031 0.984 . S
N1025 C1018 1.356 . S
N1025 H1028 0.984 . S
N1025 H1029 0.985 . S
H1026 N1021 0.984 . S
H1027 N1021 0.985 . S
H1028 N1025 0.984 . S
H1029 N1025 0.985 . S
H1030 N1024 0.984 . S
H1031 N1024 0.984 . S
H1032 N1020 0.984 . S
H1033 N1020 0.985 . S
C1034 C1035 1.363 . S
C1034 C1040 1.379 . S
C1034 N1042 1.356 . S
C1035 C1034 1.363 . S
C1035 C1041 1.363 . S
C1036 C1037 1.363 . S
C1036 C1041 1.379 . S
C1036 N1043 1.356 . S
C1037 C1036 1.363 . S
C1037 C1040 1.363 . S
N1038 C1040 1.356 . S
N1038 H1050 0.984 . S
N1038 H1051 0.985 . S
N1039 C1041 1.356 . S
N1039 H1044 0.984 . S
N1039 H1045 0.985 . S
C1040 C1034 1.379 . S
C1040 C1037 1.363 . S
C1040 N1038 1.356 . S
C1041 C1035 1.363 . S
C1041 C1036 1.379 . S
C1041 N1039 1.356 . S
N1042 C1034 1.356 . S
N1042 H1048 0.984 . S
N1042 H1049 0.984 . S
N1043 C1036 1.356 . S
N1043 H1046 0.984 . S
N1043 H1047 0.985 . S
H1044 N1039 0.984 . S
H1045 N1039 0.985 . S
H1046 N1043 0.984 . S
H1047 N1043 0.985 . S
H1048 N1042 0.984 . S
H1049 N1042 0.984 . S
H1050 N1038 0.984 . S
H1051 N1038 0.985 . S
C1052 C1053 1.363 . S
C1052 C1058 1.379 . S
C1052 N1060 1.356 . S
C1053 C1052 1.363 . S
C1053 C1059 1.363 . S
C1054 C1055 1.363 . S
C1054 C1059 1.379 . S
C1054 N1061 1.356 . S
C1055 C1054 1.363 . S
C1055 C1058 1.363 . S
N1056 C1058 1.356 . S
N1056 H1068 0.984 . S
N1056 H1069 0.985 . S
N1057 C1059 1.356 . S
N1057 H1062 0.984 . S
N1057 H1063 0.985 . S
C1058 C1052 1.379 . S
C1058 C1055 1.363 . S
C1058 N1056 1.356 . S
C1059 C1053 1.363 . S
C1059 C1054 1.379 . S
C1059 N1057 1.356 . S
N1060 C1052 1.356 . S
N1060 H1066 0.984 . S
N1060 H1067 0.984 . S
N1061 C1054 1.356 . S
N1061 H1064 0.984 . S
N1061 H1065 0.985 . S
H1062 N1057 0.984 . S
H1063 N1057 0.985 . S
H1064 N1061 0.984 . S
H1065 N1061 0.985 . S
H1066 N1060 0.984 . S
H1067 N1060 0.984 . S
H1068 N1056 0.984 . S
H1069 N1056 0.985 . S
C1070 C1071 1.363 . S
C1070 C1076 1.379 . S
C1070 N1078 1.356 . S
C1071 C1070 1.363 . S
C1071 C1077 1.363 . S
C1072 C1073 1.363 . S
C1072 C1077 1.379 . S
C1072 N1079 1.356 . S
C1073 C1072 1.363 . S
C1073 C1076 1.363 . S
N1074 C1076 1.356 . S
N1074 H1086 0.984 . S
N1074 H1087 0.985 . S
N1075 C1077 1.356 . S
N1075 H1080 0.984 . S
N1075 H1081 0.985 . S
C1076 C1070 1.379 . S
C1076 C1073 1.363 . S
C1076 N1074 1.356 . S
C1077 C1071 1.363 . S
C1077 C1072 1.379 . S
C1077 N1075 1.356 . S
N1078 C1070 1.356 . S
N1078 H1084 0.984 . S
N1078 H1085 0.984 . S
N1079 C1072 1.356 . S
N1079 H1082 0.984 . S
N1079 H1083 0.985 . S
H1080 N1075 0.984 . S
H1081 N1075 0.985 . S
H1082 N1079 0.984 . S
H1083 N1079 0.985 . S
H1084 N1078 0.984 . S
H1085 N1078 0.984 . S
H1086 N1074 0.984 . S
H1087 N1074 0.985 . S
C1088 C1089 1.363 . S
C1088 C1094 1.379 . S
C1088 N1096 1.356 . S
C1089 C1088 1.363 . S
C1089 C1095 1.363 1_655 S
C1090 C1091 1.363 . S
C1090 C1095 1.379 . S
C1090 N1097 1.356 . S
C1091 C1090 1.363 . S
C1091 C1094 1.363 1_455 S
N1092 C1094 1.356 . S
N1092 H1104 0.984 . S
N1092 H1105 0.985 1_655 S
N1093 C1095 1.356 . S
N1093 H1098 0.984 1_455 S
N1093 H1099 0.985 1_545 S
C1094 C1088 1.379 . S
C1094 C1091 1.363 1_655 S
C1094 N1092 1.356 . S
C1095 C1089 1.363 1_455 S
C1095 C1090 1.379 . S
C1095 N1093 1.356 . S
N1096 C1088 1.356 . S
N1096 H1102 0.984 . S
N1096 H1103 0.984 . S
N1097 C1090 1.356 . S
N1097 H1100 0.984 . S
N1097 H1101 0.985 1_545 S
H1098 N1093 0.984 1_655 S
H1099 N1093 0.985 1_565 S
H1100 N1097 0.984 . S
H1101 N1097 0.985 1_565 S
H1102 N1096 0.984 . S
H1103 N1096 0.984 . S
H1104 N1092 0.984 . S
H1105 N1092 0.985 1_455 S
C1106 C1107 1.363 . S
C1106 C1112 1.379 . S
C1106 N1114 1.356 . S
C1107 C1106 1.363 . S
C1107 C1113 1.363 . S
C1108 C1109 1.363 . S
C1108 C1113 1.379 . S
C1108 N1115 1.356 . S
C1109 C1108 1.363 . S
C1109 C1112 1.363 . S
N1110 C1112 1.356 . S
N1110 H1122 0.984 1_565 S
N1110 H1123 0.985 . S
N1111 C1113 1.356 . S
N1111 H1116 0.984 . S
N1111 H1117 0.985 . S
C1112 C1106 1.379 . S
C1112 C1109 1.363 . S
C1112 N1110 1.356 . S
C1113 C1107 1.363 . S
C1113 C1108 1.379 . S
C1113 N1111 1.356 . S
N1114 C1106 1.356 . S
N1114 H1120 0.984 1_565 S
N1114 H1121 0.984 . S
N1115 C1108 1.356 . S
N1115 H1118 0.984 . S
N1115 H1119 0.985 . S
H1116 N1111 0.984 . S
H1117 N1111 0.985 . S
H1118 N1115 0.984 . S
H1119 N1115 0.985 . S
H1120 N1114 0.984 1_545 S
H1121 N1114 0.984 . S
H1122 N1110 0.984 1_545 S
H1123 N1110 0.985 . S
C1124 C1125 1.363 1_655 S
C1124 C1130 1.379 . S
C1124 N1132 1.356 . S
C1125 C1124 1.363 1_455 S
C1125 C1131 1.363 . S
C1126 C1127 1.363 1_455 S
C1126 C1131 1.379 . S
C1126 N1133 1.356 . S
C1127 C1126 1.363 1_655 S
C1127 C1130 1.363 . S
N1128 C1130 1.356 . S
N1128 H1140 0.984 . S
N1128 H1141 0.985 . S
N1129 C1131 1.356 . S
N1129 H1134 0.984 . S
N1129 H1135 0.985 1_565 S
C1130 C1124 1.379 . S
C1130 C1127 1.363 . S
C1130 N1128 1.356 . S
C1131 C1125 1.363 . S
C1131 C1126 1.379 . S
C1131 N1129 1.356 . S
N1132 C1124 1.356 . S
N1132 H1138 0.984 . S
N1132 H1139 0.984 1_655 S
N1133 C1126 1.356 . S
N1133 H1136 0.984 1_455 S
N1133 H1137 0.985 1_565 S
H1134 N1129 0.984 . S
H1135 N1129 0.985 1_545 S
H1136 N1133 0.984 1_655 S
H1137 N1133 0.985 1_545 S
H1138 N1132 0.984 . S
H1139 N1132 0.984 1_455 S
H1140 N1128 0.984 . S
H1141 N1128 0.985 . S
C1142 C1143 1.363 . S
C1142 C1148 1.379 . S
C1142 N1150 1.356 . S
C1143 C1142 1.363 . S
C1143 C1149 1.363 . S
C1144 C1145 1.363 . S
C1144 C1149 1.379 . S
C1144 N1151 1.356 . S
C1145 C1144 1.363 . S
C1145 C1148 1.363 . S
N1146 C1148 1.356 . S
N1146 H1158 0.984 1_545 S
N1146 H1159 0.985 . S
N1147 C1149 1.356 . S
N1147 H1152 0.984 . S
N1147 H1153 0.985 . S
C1148 C1142 1.379 . S
C1148 C1145 1.363 . S
C1148 N1146 1.356 . S
C1149 C1143 1.363 . S
C1149 C1144 1.379 . S
C1149 N1147 1.356 . S
N1150 C1142 1.356 . S
N1150 H1156 0.984 1_545 S
N1150 H1157 0.984 . S
N1151 C1144 1.356 . S
N1151 H1154 0.984 . S
N1151 H1155 0.985 . S
H1152 N1147 0.984 . S
H1153 N1147 0.985 . S
H1154 N1151 0.984 . S
H1155 N1151 0.985 . S
H1156 N1150 0.984 1_565 S
H1157 N1150 0.984 . S
H1158 N1146 0.984 1_565 S
H1159 N1146 0.985 . S
C1160 C1161 1.363 . S
C1160 C1166 1.379 . S
C1160 N1168 1.356 . S
C1161 C1160 1.363 . S
C1161 C1167 1.363 . S
C1162 C1163 1.363 . S
C1162 C1167 1.379 . S
C1162 N1169 1.356 . S
C1163 C1162 1.363 . S
C1163 C1166 1.363 . S
N1164 C1166 1.356 . S
N1164 H1176 0.984 . S
N1164 H1177 0.985 . S
N1165 C1167 1.356 . S
N1165 H1170 0.984 . S
N1165 H1171 0.985 . S
C1166 C1160 1.379 . S
C1166 C1163 1.363 . S
C1166 N1164 1.356 . S
C1167 C1161 1.363 . S
C1167 C1162 1.379 . S
C1167 N1165 1.356 . S
N1168 C1160 1.356 . S
N1168 H1174 0.984 . S
N1168 H1175 0.984 . S
N1169 C1162 1.356 . S
N1169 H1172 0.984 . S
N1169 H1173 0.985 . S
H1170 N1165 0.984 . S
H1171 N1165 0.985 . S
H1172 N1169 0.984 . S
H1173 N1169 0.985 . S
H1174 N1168 0.984 . S
H1175 N1168 0.984 . S
H1176 N1164 0.984 . S
H1177 N1164 0.985 . S
C1178 C1179 1.363 1_655 S
C1178 C1184 1.379 . S
C1178 N1186 1.356 . S
C1179 C1178 1.363 1_455 S
C1179 C1185 1.363 . S
C1180 C1181 1.363 1_455 S
C1180 C1185 1.379 . S
C1180 N1187 1.356 . S
C1181 C1180 1.363 1_655 S
C1181 C1184 1.363 . S
N1182 C1184 1.356 . S
N1182 H1194 0.984 . S
N1182 H1195 0.985 . S
N1183 C1185 1.356 . S
N1183 H1188 0.984 . S
N1183 H1189 0.985 . S
C1184 C1178 1.379 . S
C1184 C1181 1.363 . S
C1184 N1182 1.356 . S
C1185 C1179 1.363 . S
C1185 C1180 1.379 . S
C1185 N1183 1.356 . S
N1186 C1178 1.356 . S
N1186 H1192 0.984 . S
N1186 H1193 0.984 1_655 S
N1187 C1180 1.356 . S
N1187 H1190 0.984 1_455 S
N1187 H1191 0.985 . S
H1188 N1183 0.984 . S
H1189 N1183 0.985 . S
H1190 N1187 0.984 1_655 S
H1191 N1187 0.985 . S
H1192 N1186 0.984 . S
H1193 N1186 0.984 1_455 S
H1194 N1182 0.984 . S
H1195 N1182 0.985 . S
C1196 C1197 1.363 . S
C1196 C1202 1.379 . S
C1196 N1204 1.356 . S
C1197 C1196 1.363 . S
C1197 C1203 1.363 . S
C1198 C1199 1.363 . S
C1198 C1203 1.379 . S
C1198 N1205 1.356 . S
C1199 C1198 1.363 . S
C1199 C1202 1.363 . S
N1200 C1202 1.356 . S
N1200 H1212 0.984 . S
N1200 H1213 0.985 . S
N1201 C1203 1.356 . S
N1201 H1206 0.984 . S
N1201 H1207 0.985 . S
C1202 C1196 1.379 . S
C1202 C1199 1.363 . S
C1202 N1200 1.356 . S
C1203 C1197 1.363 . S
C1203 C1198 1.379 . S
C1203 N1201 1.356 . S
N1204 C1196 1.356 . S
N1204 H1210 0.984 . S
N1204 H1211 0.984 . S
N1205 C1198 1.356 . S
N1205 H1208 0.984 . S
N1205 H1209 0.985 . S
H1206 N1201 0.984 . S
H1207 N1201 0.985 . S
H1208 N1205 0.984 . S
H1209 N1205 0.985 . S
H1210 N1204 0.984 . S
H1211 N1204 0.984 . S
H1212 N1200 0.984 . S
H1213 N1200 0.985 . S
C1214 C1215 1.363 1_655 S
C1214 C1220 1.379 . S
C1214 N1222 1.356 . S
C1215 C1214 1.363 1_455 S
C1215 C1221 1.363 . S
C1216 C1217 1.363 1_455 S
C1216 C1221 1.379 . S
C1216 N1223 1.356 . S
C1217 C1216 1.363 1_655 S
C1217 C1220 1.363 . S
N1218 C1220 1.356 . S
N1218 H1230 0.984 . S
N1218 H1231 0.985 . S
N1219 C1221 1.356 . S
N1219 H1224 0.984 . S
N1219 H1225 0.985 . S
C1220 C1214 1.379 . S
C1220 C1217 1.363 . S
C1220 N1218 1.356 . S
C1221 C1215 1.363 . S
C1221 C1216 1.379 . S
C1221 N1219 1.356 . S
N1222 C1214 1.356 . S
N1222 H1228 0.984 . S
N1222 H1229 0.984 1_655 S
N1223 C1216 1.356 . S
N1223 H1226 0.984 1_455 S
N1223 H1227 0.985 . S
H1224 N1219 0.984 . S
H1225 N1219 0.985 . S
H1226 N1223 0.984 1_655 S
H1227 N1223 0.985 . S
H1228 N1222 0.984 . S
H1229 N1222 0.984 1_455 S
H1230 N1218 0.984 . S
H1231 N1218 0.985 . S
C1232 C1233 1.363 1_655 S
C1232 C1238 1.379 . S
C1232 N1240 1.356 . S
C1233 C1232 1.363 1_455 S
C1233 C1239 1.363 . S
C1234 C1235 1.363 1_455 S
C1234 C1239 1.379 . S
C1234 N1241 1.356 . S
C1235 C1234 1.363 1_655 S
C1235 C1238 1.363 . S
N1236 C1238 1.356 . S
N1236 H1248 0.984 . S
N1236 H1249 0.985 . S
N1237 C1239 1.356 . S
N1237 H1242 0.984 . S
N1237 H1243 0.985 . S
C1238 C1232 1.379 . S
C1238 C1235 1.363 . S
C1238 N1236 1.356 . S
C1239 C1233 1.363 . S
C1239 C1234 1.379 . S
C1239 N1237 1.356 . S
N1240 C1232 1.356 . S
N1240 H1246 0.984 . S
N1240 H1247 0.984 . S
N1241 C1234 1.356 . S
N1241 H1244 0.984 . S
N1241 H1245 0.985 . S
H1242 N1237 0.984 . S
H1243 N1237 0.985 . S
H1244 N1241 0.984 . S
H1245 N1241 0.985 . S
H1246 N1240 0.984 . S
H1247 N1240 0.984 . S
H1248 N1236 0.984 . S
H1249 N1236 0.985 . S
C1250 C1251 1.363 . S
C1250 C1256 1.379 . S
C1250 N1258 1.356 . S
C1251 C1250 1.363 . S
C1251 C1257 1.363 . S
C1252 C1253 1.363 . S
C1252 C1257 1.379 . S
C1252 N1259 1.356 . S
C1253 C1252 1.363 . S
C1253 C1256 1.363 . S
N1254 C1256 1.356 . S
N1254 H1266 0.984 . S
N1254 H1267 0.985 . S
N1255 C1257 1.356 . S
N1255 H1260 0.984 . S
N1255 H1261 0.985 . S
C1256 C1250 1.379 . S
C1256 C1253 1.363 . S
C1256 N1254 1.356 . S
C1257 C1251 1.363 . S
C1257 C1252 1.379 . S
C1257 N1255 1.356 . S
N1258 C1250 1.356 . S
N1258 H1264 0.984 . S
N1258 H1265 0.984 . S
N1259 C1252 1.356 . S
N1259 H1262 0.984 . S
N1259 H1263 0.985 . S
H1260 N1255 0.984 . S
H1261 N1255 0.985 . S
H1262 N1259 0.984 . S
H1263 N1259 0.985 . S
H1264 N1258 0.984 . S
H1265 N1258 0.984 . S
H1266 N1254 0.984 . S
H1267 N1254 0.985 . S
C1268 C1269 1.363 . S
C1268 C1274 1.379 . S
C1268 N1276 1.356 . S
C1269 C1268 1.363 . S
C1269 C1275 1.363 . S
C1270 C1271 1.363 . S
C1270 C1275 1.379 . S
C1270 N1277 1.356 . S
C1271 C1270 1.363 . S
C1271 C1274 1.363 . S
N1272 C1274 1.356 . S
N1272 H1284 0.984 . S
N1272 H1285 0.985 . S
N1273 C1275 1.356 . S
N1273 H1278 0.984 . S
N1273 H1279 0.985 . S
C1274 C1268 1.379 . S
C1274 C1271 1.363 . S
C1274 N1272 1.356 . S
C1275 C1269 1.363 . S
C1275 C1270 1.379 . S
C1275 N1273 1.356 . S
N1276 C1268 1.356 . S
N1276 H1282 0.984 . S
N1276 H1283 0.984 . S
N1277 C1270 1.356 . S
N1277 H1280 0.984 . S
N1277 H1281 0.985 . S
H1278 N1273 0.984 . S
H1279 N1273 0.985 . S
H1280 N1277 0.984 . S
H1281 N1277 0.985 . S
H1282 N1276 0.984 . S
H1283 N1276 0.984 . S
H1284 N1272 0.984 . S
H1285 N1272 0.985 . S
C1286 C1287 1.363 1_655 S
C1286 C1292 1.379 . S
C1286 N1294 1.356 . S
C1287 C1286 1.363 1_455 S
C1287 C1293 1.363 . S
C1288 C1289 1.363 1_455 S
C1288 C1293 1.379 . S
C1288 N1295 1.356 . S
C1289 C1288 1.363 1_655 S
C1289 C1292 1.363 . S
N1290 C1292 1.356 . S
N1290 H1302 0.984 . S
N1290 H1303 0.985 . S
N1291 C1293 1.356 . S
N1291 H1296 0.984 . S
N1291 H1297 0.985 . S
C1292 C1286 1.379 . S
C1292 C1289 1.363 . S
C1292 N1290 1.356 . S
C1293 C1287 1.363 . S
C1293 C1288 1.379 . S
C1293 N1291 1.356 . S
N1294 C1286 1.356 . S
N1294 H1300 0.984 . S
N1294 H1301 0.984 . S
N1295 C1288 1.356 . S
N1295 H1298 0.984 . S
N1295 H1299 0.985 . S
H1296 N1291 0.984 . S
H1297 N1291 0.985 . S
H1298 N1295 0.984 . S
H1299 N1295 0.985 . S
H1300 N1294 0.984 . S
H1301 N1294 0.984 . S
H1302 N1290 0.984 . S
H1303 N1290 0.985 . S
C1304 C1305 1.363 1_655 S
C1304 C1310 1.379 . S
C1304 N1312 1.356 . S
C1305 C1304 1.363 1_455 S
C1305 C1311 1.363 . S
C1306 C1307 1.363 1_455 S
C1306 C1311 1.379 . S
C1306 N1313 1.356 . S
C1307 C1306 1.363 1_655 S
C1307 C1310 1.363 . S
N1308 C1310 1.356 . S
N1308 H1320 0.984 . S
N1308 H1321 0.985 . S
N1309 C1311 1.356 . S
N1309 H1314 0.984 . S
N1309 H1315 0.985 . S
C1310 C1304 1.379 . S
C1310 C1307 1.363 . S
C1310 N1308 1.356 . S
C1311 C1305 1.363 . S
C1311 C1306 1.379 . S
C1311 N1309 1.356 . S
N1312 C1304 1.356 . S
N1312 H1318 0.984 . S
N1312 H1319 0.984 . S
N1313 C1306 1.356 . S
N1313 H1316 0.984 . S
N1313 H1317 0.985 . S
H1314 N1309 0.984 . S
H1315 N1309 0.985 . S
H1316 N1313 0.984 . S
H1317 N1313 0.985 . S
H1318 N1312 0.984 . S
H1319 N1312 0.984 . S
H1320 N1308 0.984 . S
H1321 N1308 0.985 . S
C1322 C1323 1.363 . S
C1322 C1328 1.379 . S
C1322 N1330 1.356 . S
C1323 C1322 1.363 . S
C1323 C1329 1.363 . S
C1324 C1325 1.363 . S
C1324 C1329 1.379 . S
C1324 N1331 1.356 . S
C1325 C1324 1.363 . S
C1325 C1328 1.363 . S
N1326 C1328 1.356 . S
N1326 H1338 0.984 . S
N1326 H1339 0.985 . S
N1327 C1329 1.356 . S
N1327 H1332 0.984 . S
N1327 H1333 0.985 . S
C1328 C1322 1.379 . S
C1328 C1325 1.363 . S
C1328 N1326 1.356 . S
C1329 C1323 1.363 . S
C1329 C1324 1.379 . S
C1329 N1327 1.356 . S
N1330 C1322 1.356 . S
N1330 H1336 0.984 . S
N1330 H1337 0.984 . S
N1331 C1324 1.356 . S
N1331 H1334 0.984 . S
N1331 H1335 0.985 . S
H1332 N1327 0.984 . S
H1333 N1327 0.985 . S
H1334 N1331 0.984 . S
H1335 N1331 0.985 . S
H1336 N1330 0.984 . S
H1337 N1330 0.984 . S
H1338 N1326 0.984 . S
H1339 N1326 0.985 . S
C1340 C1341 1.363 . S
C1340 C1346 1.379 . S
C1340 N1348 1.356 . S
C1341 C1340 1.363 . S
C1341 C1347 1.363 . S
C1342 C1343 1.363 . S
C1342 C1347 1.379 . S
C1342 N1349 1.356 . S
C1343 C1342 1.363 . S
C1343 C1346 1.363 . S
N1344 C1346 1.356 . S
N1344 H1356 0.984 . S
N1344 H1357 0.985 . S
N1345 C1347 1.356 . S
N1345 H1350 0.984 . S
N1345 H1351 0.985 . S
C1346 C1340 1.379 . S
C1346 C1343 1.363 . S
C1346 N1344 1.356 . S
C1347 C1341 1.363 . S
C1347 C1342 1.379 . S
C1347 N1345 1.356 . S
N1348 C1340 1.356 . S
N1348 H1354 0.984 . S
N1348 H1355 0.984 . S
N1349 C1342 1.356 . S
N1349 H1352 0.984 . S
N1349 H1353 0.985 . S
H1350 N1345 0.984 . S
H1351 N1345 0.985 . S
H1352 N1349 0.984 . S
H1353 N1349 0.985 . S
H1354 N1348 0.984 . S
H1355 N1348 0.984 . S
H1356 N1344 0.984 . S
H1357 N1344 0.985 . S
C1358 C1359 1.363 1_655 S
C1358 C1364 1.379 . S
C1358 N1366 1.356 . S
C1359 C1358 1.363 1_455 S
C1359 C1365 1.363 . S
C1360 C1361 1.363 1_455 S
C1360 C1365 1.379 . S
C1360 N1367 1.356 . S
C1361 C1360 1.363 1_655 S
C1361 C1364 1.363 . S
N1362 C1364 1.356 . S
N1362 H1374 0.984 . S
N1362 H1375 0.985 . S
N1363 C1365 1.356 . S
N1363 H1368 0.984 . S
N1363 H1369 0.985 . S
C1364 C1358 1.379 . S
C1364 C1361 1.363 . S
C1364 N1362 1.356 . S
C1365 C1359 1.363 . S
C1365 C1360 1.379 . S
C1365 N1363 1.356 . S
N1366 C1358 1.356 . S
N1366 H1372 0.984 . S
N1366 H1373 0.984 . S
N1367 C1360 1.356 . S
N1367 H1370 0.984 . S
N1367 H1371 0.985 . S
H1368 N1363 0.984 . S
H1369 N1363 0.985 . S
H1370 N1367 0.984 . S
H1371 N1367 0.985 . S
H1372 N1366 0.984 . S
H1373 N1366 0.984 . S
H1374 N1362 0.984 . S
H1375 N1362 0.985 . S
C1376 C1377 1.363 . S
C1376 C1382 1.379 1_656 S
C1376 N1384 1.356 . S
C1377 C1376 1.363 . S
C1377 C1383 1.363 1_565 S
C1378 C1379 1.363 . S
C1378 C1383 1.379 1_454 S
C1378 N1385 1.356 . S
C1379 C1378 1.363 . S
C1379 C1382 1.363 1_545 S
N1380 C1382 1.356 . S
N1380 H1392 0.984 . S
N1380 H1393 0.985 . S
N1381 C1383 1.356 . S
N1381 H1386 0.984 . S
N1381 H1387 0.985 . S
C1382 C1376 1.379 1_454 S
C1382 C1379 1.363 1_565 S
C1382 N1380 1.356 . S
C1383 C1377 1.363 1_545 S
C1383 C1378 1.379 1_656 S
C1383 N1381 1.356 . S
N1384 C1376 1.356 . S
N1384 H1390 0.984 . S
N1384 H1391 0.984 . S
N1385 C1378 1.356 . S
N1385 H1388 0.984 . S
N1385 H1389 0.985 . S
H1386 N1381 0.984 . S
H1387 N1381 0.985 . S
H1388 N1385 0.984 . S
H1389 N1385 0.985 . S
H1390 N1384 0.984 . S
H1391 N1384 0.984 . S
H1392 N1380 0.984 . S
H1393 N1380 0.985 . S
C1394 C1395 1.363 . S
C1394 C1400 1.379 1_556 S
C1394 N1402 1.356 . S
C1395 C1394 1.363 . S
C1395 C1401 1.363 1_545 S
C1396 C1397 1.363 . S
C1396 C1401 1.379 1_554 S
C1396 N1403 1.356 . S
C1397 C1396 1.363 . S
C1397 C1400 1.363 1_565 S
N1398 C1400 1.356 . S
N1398 H1410 0.984 . S
N1398 H1411 0.985 1_545 S
N1399 C1401 1.356 . S
N1399 H1404 0.984 1_565 S
N1399 H1405 0.985 . S
C1400 C1394 1.379 1_554 S
C1400 C1397 1.363 1_545 S
C1400 N1398 1.356 . S
C1401 C1395 1.363 1_565 S
C1401 C1396 1.379 1_556 S
C1401 N1399 1.356 . S
N1402 C1394 1.356 . S
N1402 H1408 0.984 . S
N1402 H1409 0.984 . S
N1403 C1396 1.356 . S
N1403 H1406 0.984 . S
N1403 H1407 0.985 . S
H1404 N1399 0.984 1_545 S
H1405 N1399 0.985 . S
H1406 N1403 0.984 . S
H1407 N1403 0.985 . S
H1408 N1402 0.984 . S
H1409 N1402 0.984 . S
H1410 N1398 0.984 . S
H1411 N1398 0.985 1_565 S
C1412 C1413 1.363 1_565 S
C1412 C1418 1.379 . S
C1412 N1420 1.356 . S
C1413 C1412 1.363 1_545 S
C1413 C1419 1.363 . S
C1414 C1415 1.363 1_545 S
C1414 C1419 1.379 . S
C1414 N1421 1.356 . S
C1415 C1414 1.363 1_565 S
C1415 C1418 1.363 . S
N1416 C1418 1.356 . S
N1416 H1428 0.984 . S
N1416 H1429 0.985 . S
N1417 C1419 1.356 . S
N1417 H1422 0.984 . S
N1417 H1423 0.985 . S
C1418 C1412 1.379 . S
C1418 C1415 1.363 . S
C1418 N1416 1.356 . S
C1419 C1413 1.363 . S
C1419 C1414 1.379 . S
C1419 N1417 1.356 . S
N1420 C1412 1.356 . S
N1420 H1426 0.984 . S
N1420 H1427 0.984 . S
N1421 C1414 1.356 . S
N1421 H1424 0.984 . S
N1421 H1425 0.985 . S
H1422 N1417 0.984 . S
H1423 N1417 0.985 . S
H1424 N1421 0.984 . S
H1425 N1421 0.985 . S
H1426 N1420 0.984 . S
H1427 N1420 0.984 . S
H1428 N1416 0.984 . S
H1429 N1416 0.985 . S
C1430 C1431 1.363 1_645 S
C1430 C1436 1.379 . S
C1430 N1438 1.356 . S
C1431 C1430 1.363 1_465 S
C1431 C1437 1.363 . S
C1432 C1433 1.363 1_465 S
C1432 C1437 1.379 . S
C1432 N1439 1.356 . S
C1433 C1432 1.363 1_645 S
C1433 C1436 1.363 . S
N1434 C1436 1.356 . S
N1434 H1446 0.984 . S
N1434 H1447 0.985 . S
N1435 C1437 1.356 . S
N1435 H1440 0.984 . S
N1435 H1441 0.985 . S
C1436 C1430 1.379 . S
C1436 C1433 1.363 . S
C1436 N1434 1.356 . S
C1437 C1431 1.363 . S
C1437 C1432 1.379 . S
C1437 N1435 1.356 . S
N1438 C1430 1.356 . S
N1438 H1444 0.984 . S
N1438 H1445 0.984 1_655 S
N1439 C1432 1.356 . S
N1439 H1442 0.984 1_455 S
N1439 H1443 0.985 . S
H1440 N1435 0.984 . S
H1441 N1435 0.985 . S
H1442 N1439 0.984 1_655 S
H1443 N1439 0.985 . S
H1444 N1438 0.984 . S
H1445 N1438 0.984 1_455 S
H1446 N1434 0.984 . S
H1447 N1434 0.985 . S
C1448 C1449 1.363 . S
C1448 C1454 1.379 1_554 S
C1448 N1456 1.356 . S
C1449 C1448 1.363 . S
C1449 C1455 1.363 . S
C1450 C1451 1.363 . S
C1450 C1455 1.379 1_556 S
C1450 N1457 1.356 . S
C1451 C1450 1.363 . S
C1451 C1454 1.363 . S
N1452 C1454 1.356 . S
N1452 H1464 0.984 . S
N1452 H1465 0.985 . S
N1453 C1455 1.356 . S
N1453 H1458 0.984 . S
N1453 H1459 0.985 . S
C1454 C1448 1.379 1_556 S
C1454 C1451 1.363 . S
C1454 N1452 1.356 . S
C1455 C1449 1.363 . S
C1455 C1450 1.379 1_554 S
C1455 N1453 1.356 . S
N1456 C1448 1.356 . S
N1456 H1462 0.984 . S
N1456 H1463 0.984 . S
N1457 C1450 1.356 . S
N1457 H1460 0.984 . S
N1457 H1461 0.985 . S
H1458 N1453 0.984 . S
H1459 N1453 0.985 . S
H1460 N1457 0.984 . S
H1461 N1457 0.985 . S
H1462 N1456 0.984 . S
H1463 N1456 0.984 . S
H1464 N1452 0.984 . S
H1465 N1452 0.985 . S
C1466 C1467 1.363 . S
C1466 C1472 1.379 1_554 S
C1466 N1474 1.356 . S
C1467 C1466 1.363 . S
C1467 C1473 1.363 1_655 S
C1468 C1469 1.363 . S
C1468 C1473 1.379 1_556 S
C1468 N1475 1.356 . S
C1469 C1468 1.363 . S
C1469 C1472 1.363 1_455 S
N1470 C1472 1.356 . S
N1470 H1482 0.984 . S
N1470 H1483 0.985 1_655 S
N1471 C1473 1.356 . S
N1471 H1476 0.985 1_455 S
N1471 H1477 0.985 . S
C1472 C1466 1.379 1_556 S
C1472 C1469 1.363 1_655 S
C1472 N1470 1.356 . S
C1473 C1467 1.363 1_455 S
C1473 C1468 1.379 1_554 S
C1473 N1471 1.356 . S
N1474 C1466 1.356 . S
N1474 H1480 0.984 . S
N1474 H1481 0.984 . S
N1475 C1468 1.356 . S
N1475 H1478 0.984 . S
N1475 H1479 0.985 . S
H1476 N1471 0.985 1_655 S
H1477 N1471 0.985 . S
H1478 N1475 0.984 . S
H1479 N1475 0.985 . S
H1480 N1474 0.984 . S
H1481 N1474 0.984 . S
H1482 N1470 0.984 . S
H1483 N1470 0.985 1_455 S
C1484 C1485 1.363 1_455 S
C1484 C1490 1.379 . S
C1484 N1492 1.356 . S
C1485 C1484 1.363 1_655 S
C1485 C1491 1.363 . S
C1486 C1487 1.363 1_655 S
C1486 C1491 1.379 . S
C1486 N1493 1.356 . S
C1487 C1486 1.363 1_455 S
C1487 C1490 1.363 . S
N1488 C1490 1.356 . S
N1488 H1500 0.984 . S
N1488 H1501 0.985 . S
N1489 C1491 1.356 . S
N1489 H1494 0.984 . S
N1489 H1495 0.985 . S
C1490 C1484 1.379 . S
C1490 C1487 1.363 . S
C1490 N1488 1.356 . S
C1491 C1485 1.363 . S
C1491 C1486 1.379 . S
C1491 N1489 1.356 . S
N1492 C1484 1.356 . S
N1492 H1498 0.984 . S
N1492 H1499 0.984 1_455 S
N1493 C1486 1.356 . S
N1493 H1496 0.984 1_655 S
N1493 H1497 0.985 . S
H1494 N1489 0.984 . S
H1495 N1489 0.985 . S
H1496 N1493 0.984 1_455 S
H1497 N1493 0.985 . S
H1498 N1492 0.984 . S
H1499 N1492 0.984 1_655 S
H1500 N1488 0.984 . S
H1501 N1488 0.985 . S
C1502 C1503 1.363 . S
C1502 C1508 1.379 . S
C1502 N1510 1.356 . S
C1503 C1502 1.363 . S
C1503 C1509 1.363 . S
C1504 C1505 1.363 . S
C1504 C1509 1.379 . S
C1504 N1511 1.356 . S
C1505 C1504 1.363 . S
C1505 C1508 1.363 . S
N1506 C1508 1.356 . S
N1506 H1518 0.984 . S
N1506 H1519 0.985 . S
N1507 C1509 1.356 . S
N1507 H1512 0.984 . S
N1507 H1513 0.985 . S
C1508 C1502 1.379 . S
C1508 C1505 1.363 . S
C1508 N1506 1.356 . S
C1509 C1503 1.363 . S
C1509 C1504 1.379 . S
C1509 N1507 1.356 . S
N1510 C1502 1.356 . S
N1510 H1516 0.984 . S
N1510 H1517 0.984 . S
N1511 C1504 1.356 . S
N1511 H1514 0.984 . S
N1511 H1515 0.985 . S
H1512 N1507 0.984 . S
H1513 N1507 0.985 . S
H1514 N1511 0.984 . S
H1515 N1511 0.985 . S
H1516 N1510 0.984 . S
H1517 N1510 0.984 . S
H1518 N1506 0.984 . S
H1519 N1506 0.985 . S
C945 C64 1.564 . S
C947 C5 1.564 . S
C963 C123 1.564 . S
C965 C182 1.564 . S
C981 C241 1.564 . S
C983 C300 1.564 . S
C999 C418 1.564 . S
C1001 C359 1.564 . S
C1017 C536 1.564 . S
C1019 C477 1.564 . S
C1035 C654 1.564 . S
C1037 C595 1.564 . S
C1053 C772 1.564 . S
C1055 C713 1.564 . S
C1071 C890 1.564 . S
C1073 C831 1.564 . S
C1089 C210 1.561 . S
C1091 C33 1.561 . S
C1107 C92 1.561 . S
C1109 C151 1.561 . S
C1125 C446 1.561 . S
C1127 C269 1.561 . S
C1143 C387 1.561 . S
C1145 C328 1.561 . S
C1161 C505 1.561 . S
C1163 C682 1.561 . S
C1179 C623 1.561 . S
C1181 C564 1.561 . S
C1197 C918 1.561 . S
C1199 C741 1.561 . S
C1215 C800 1.561 . S
C1217 C859 1.561 . S
C1233 C52 1.571 . S
C1235 C583 1.571 . S
C1251 C111 1.571 . S
C1253 C524 1.571 . S
C1269 C701 1.571 . S
C1271 C170 1.571 . S
C1287 C642 1.571 . S
C1289 C229 1.571 . S
C1305 C819 1.571 . S
C1307 C288 1.571 . S
C1323 C760 1.571 . S
C1325 C347 1.571 . S
C1341 C406 1.571 . S
C1343 C937 1.571 . S
C1359 C465 1.571 . S
C1361 C878 1.571 . S
C1377 C239 1.531 . S
C1379 C3 1.531 . S
C1395 C298 1.531 . S
C1397 C62 1.531 . S
C1413 C357 1.531 . S
C1415 C121 1.531 . S
C1431 C416 1.531 . S
C1433 C180 1.531 . S
C1449 C475 1.531 . S
C1451 C711 1.531 . S
C1467 C534 1.531 . S
C1469 C770 1.531 . S
C1485 C829 1.531 . S
C1487 C593 1.531 . S
C1503 C888 1.531 . S
C1505 C652 1.531 . S
