# Generated by pormake.
# Topology kfi, (4)-cn, num edge types: 1
# Building blocks:
#     Node 0, Type 0, BuildingBlock: TATPOV_clean_sbu_0, # of connection points: 4
#     Node 1, Type 0, BuildingBlock: TATPOV_clean_sbu_0, # of connection points: 4
#     Node 2, Type 0, BuildingBlock: TATPOV_clean_sbu_0, # of connection points: 4
#     Node 3, Type 0, BuildingBlock: TATPOV_clean_sbu_0, # of connection points: 4
#     Node 4, Type 0, BuildingBlock: TATPOV_clean_sbu_0, # of connection points: 4
#     Node 5, Type 0, BuildingBlock: TATPOV_clean_sbu_0, # of connection points: 4
#     Node 6, Type 0, BuildingBlock: TATPOV_clean_sbu_0, # of connection points: 4
#     Node 7, Type 0, BuildingBlock: TATPOV_clean_sbu_0, # of connection points: 4
#     Node 8, Type 0, BuildingBlock: TATPOV_clean_sbu_0, # of connection points: 4
#     Node 9, Type 0, BuildingBlock: TATPOV_clean_sbu_0, # of connection points: 4
#     Node 10, Type 0, BuildingBlock: TATPOV_clean_sbu_0, # of connection points: 4
#     Node 11, Type 0, BuildingBlock: TATPOV_clean_sbu_0, # of connection points: 4
#     Node 12, Type 0, BuildingBlock: TATPOV_clean_sbu_0, # of connection points: 4
#     Node 13, Type 0, BuildingBlock: TATPOV_clean_sbu_0, # of connection points: 4
#     Node 14, Type 0, BuildingBlock: TATPOV_clean_sbu_0, # of connection points: 4
#     Node 15, Type 0, BuildingBlock: TATPOV_clean_sbu_0, # of connection points: 4
#     Node 16, Type 0, BuildingBlock: TATPOV_clean_sbu_0, # of connection points: 4
#     Node 17, Type 0, BuildingBlock: TATPOV_clean_sbu_0, # of connection points: 4
#     Node 18, Type 0, BuildingBlock: TATPOV_clean_sbu_0, # of connection points: 4
#     Node 19, Type 0, BuildingBlock: TATPOV_clean_sbu_0, # of connection points: 4
#     Node 20, Type 0, BuildingBlock: TATPOV_clean_sbu_0, # of connection points: 4
#     Node 21, Type 0, BuildingBlock: TATPOV_clean_sbu_0, # of connection points: 4
#     Node 22, Type 0, BuildingBlock: TATPOV_clean_sbu_0, # of connection points: 4
#     Node 23, Type 0, BuildingBlock: TATPOV_clean_sbu_0, # of connection points: 4
#     Node 24, Type 0, BuildingBlock: TATPOV_clean_sbu_0, # of connection points: 4
#     Node 25, Type 0, BuildingBlock: TATPOV_clean_sbu_0, # of connection points: 4
#     Node 26, Type 0, BuildingBlock: TATPOV_clean_sbu_0, # of connection points: 4
#     Node 27, Type 0, BuildingBlock: TATPOV_clean_sbu_0, # of connection points: 4
#     Node 28, Type 0, BuildingBlock: TATPOV_clean_sbu_0, # of connection points: 4
#     Node 29, Type 0, BuildingBlock: TATPOV_clean_sbu_0, # of connection points: 4
#     Node 30, Type 0, BuildingBlock: TATPOV_clean_sbu_0, # of connection points: 4
#     Node 31, Type 0, BuildingBlock: TATPOV_clean_sbu_0, # of connection points: 4
#     Node 32, Type 0, BuildingBlock: TATPOV_clean_sbu_0, # of connection points: 4
#     Node 33, Type 0, BuildingBlock: TATPOV_clean_sbu_0, # of connection points: 4
#     Node 34, Type 0, BuildingBlock: TATPOV_clean_sbu_0, # of connection points: 4
#     Node 35, Type 0, BuildingBlock: TATPOV_clean_sbu_0, # of connection points: 4
#     Node 36, Type 0, BuildingBlock: TATPOV_clean_sbu_0, # of connection points: 4
#     Node 37, Type 0, BuildingBlock: TATPOV_clean_sbu_0, # of connection points: 4
#     Node 38, Type 0, BuildingBlock: TATPOV_clean_sbu_0, # of connection points: 4
#     Node 39, Type 0, BuildingBlock: TATPOV_clean_sbu_0, # of connection points: 4
#     Node 40, Type 0, BuildingBlock: TATPOV_clean_sbu_0, # of connection points: 4
#     Node 41, Type 0, BuildingBlock: TATPOV_clean_sbu_0, # of connection points: 4
#     Node 42, Type 0, BuildingBlock: TATPOV_clean_sbu_0, # of connection points: 4
#     Node 43, Type 0, BuildingBlock: TATPOV_clean_sbu_0, # of connection points: 4
#     Node 44, Type 0, BuildingBlock: TATPOV_clean_sbu_0, # of connection points: 4
#     Node 45, Type 0, BuildingBlock: TATPOV_clean_sbu_0, # of connection points: 4
#     Node 46, Type 0, BuildingBlock: TATPOV_clean_sbu_0, # of connection points: 4
#     Node 47, Type 0, BuildingBlock: TATPOV_clean_sbu_0, # of connection points: 4
#     Node 48, Type 0, BuildingBlock: TATPOV_clean_sbu_0, # of connection points: 4
#     Node 49, Type 0, BuildingBlock: TATPOV_clean_sbu_0, # of connection points: 4
#     Node 50, Type 0, BuildingBlock: TATPOV_clean_sbu_0, # of connection points: 4
#     Node 51, Type 0, BuildingBlock: TATPOV_clean_sbu_0, # of connection points: 4
#     Node 52, Type 0, BuildingBlock: TATPOV_clean_sbu_0, # of connection points: 4
#     Node 53, Type 0, BuildingBlock: TATPOV_clean_sbu_0, # of connection points: 4
#     Node 54, Type 0, BuildingBlock: TATPOV_clean_sbu_0, # of connection points: 4
#     Node 55, Type 0, BuildingBlock: TATPOV_clean_sbu_0, # of connection points: 4
#     Node 56, Type 0, BuildingBlock: TATPOV_clean_sbu_0, # of connection points: 4
#     Node 57, Type 0, BuildingBlock: TATPOV_clean_sbu_0, # of connection points: 4
#     Node 58, Type 0, BuildingBlock: TATPOV_clean_sbu_0, # of connection points: 4
#     Node 59, Type 0, BuildingBlock: TATPOV_clean_sbu_0, # of connection points: 4
#     Node 60, Type 0, BuildingBlock: TATPOV_clean_sbu_0, # of connection points: 4
#     Node 61, Type 0, BuildingBlock: TATPOV_clean_sbu_0, # of connection points: 4
#     Node 62, Type 0, BuildingBlock: TATPOV_clean_sbu_0, # of connection points: 4
#     Node 63, Type 0, BuildingBlock: TATPOV_clean_sbu_0, # of connection points: 4
#     Node 64, Type 0, BuildingBlock: TATPOV_clean_sbu_0, # of connection points: 4
#     Node 65, Type 0, BuildingBlock: TATPOV_clean_sbu_0, # of connection points: 4
#     Node 66, Type 0, BuildingBlock: TATPOV_clean_sbu_0, # of connection points: 4
#     Node 67, Type 0, BuildingBlock: TATPOV_clean_sbu_0, # of connection points: 4
#     Node 68, Type 0, BuildingBlock: TATPOV_clean_sbu_0, # of connection points: 4
#     Node 69, Type 0, BuildingBlock: TATPOV_clean_sbu_0, # of connection points: 4
#     Node 70, Type 0, BuildingBlock: TATPOV_clean_sbu_0, # of connection points: 4
#     Node 71, Type 0, BuildingBlock: TATPOV_clean_sbu_0, # of connection points: 4
#     Node 72, Type 0, BuildingBlock: TATPOV_clean_sbu_0, # of connection points: 4
#     Node 73, Type 0, BuildingBlock: TATPOV_clean_sbu_0, # of connection points: 4
#     Node 74, Type 0, BuildingBlock: TATPOV_clean_sbu_0, # of connection points: 4
#     Node 75, Type 0, BuildingBlock: TATPOV_clean_sbu_0, # of connection points: 4
#     Node 76, Type 0, BuildingBlock: TATPOV_clean_sbu_0, # of connection points: 4
#     Node 77, Type 0, BuildingBlock: TATPOV_clean_sbu_0, # of connection points: 4
#     Node 78, Type 0, BuildingBlock: TATPOV_clean_sbu_0, # of connection points: 4
#     Node 79, Type 0, BuildingBlock: TATPOV_clean_sbu_0, # of connection points: 4
#     Node 80, Type 0, BuildingBlock: TATPOV_clean_sbu_0, # of connection points: 4
#     Node 81, Type 0, BuildingBlock: TATPOV_clean_sbu_0, # of connection points: 4
#     Node 82, Type 0, BuildingBlock: TATPOV_clean_sbu_0, # of connection points: 4
#     Node 83, Type 0, BuildingBlock: TATPOV_clean_sbu_0, # of connection points: 4
#     Node 84, Type 0, BuildingBlock: TATPOV_clean_sbu_0, # of connection points: 4
#     Node 85, Type 0, BuildingBlock: TATPOV_clean_sbu_0, # of connection points: 4
#     Node 86, Type 0, BuildingBlock: TATPOV_clean_sbu_0, # of connection points: 4
#     Node 87, Type 0, BuildingBlock: TATPOV_clean_sbu_0, # of connection points: 4
#     Node 88, Type 0, BuildingBlock: TATPOV_clean_sbu_0, # of connection points: 4
#     Node 89, Type 0, BuildingBlock: TATPOV_clean_sbu_0, # of connection points: 4
#     Node 90, Type 0, BuildingBlock: TATPOV_clean_sbu_0, # of connection points: 4
#     Node 91, Type 0, BuildingBlock: TATPOV_clean_sbu_0, # of connection points: 4
#     Node 92, Type 0, BuildingBlock: TATPOV_clean_sbu_0, # of connection points: 4
#     Node 93, Type 0, BuildingBlock: TATPOV_clean_sbu_0, # of connection points: 4
#     Node 94, Type 0, BuildingBlock: TATPOV_clean_sbu_0, # of connection points: 4
#     Node 95, Type 0, BuildingBlock: TATPOV_clean_sbu_0, # of connection points: 4
#     Edge 96, Type (0, 0), BuildingBlock: KIFKEQ_clean_linker_1, # of connection points: 2
#     Edge 97, Type (0, 0), BuildingBlock: KIFKEQ_clean_linker_1, # of connection points: 2
#     Edge 98, Type (0, 0), BuildingBlock: KIFKEQ_clean_linker_1, # of connection points: 2
#     Edge 99, Type (0, 0), BuildingBlock: KIFKEQ_clean_linker_1, # of connection points: 2
#     Edge 100, Type (0, 0), BuildingBlock: KIFKEQ_clean_linker_1, # of connection points: 2
#     Edge 101, Type (0, 0), BuildingBlock: KIFKEQ_clean_linker_1, # of connection points: 2
#     Edge 102, Type (0, 0), BuildingBlock: KIFKEQ_clean_linker_1, # of connection points: 2
#     Edge 103, Type (0, 0), BuildingBlock: KIFKEQ_clean_linker_1, # of connection points: 2
#     Edge 104, Type (0, 0), BuildingBlock: KIFKEQ_clean_linker_1, # of connection points: 2
#     Edge 105, Type (0, 0), BuildingBlock: KIFKEQ_clean_linker_1, # of connection points: 2
#     Edge 106, Type (0, 0), BuildingBlock: KIFKEQ_clean_linker_1, # of connection points: 2
#     Edge 107, Type (0, 0), BuildingBlock: KIFKEQ_clean_linker_1, # of connection points: 2
#     Edge 108, Type (0, 0), BuildingBlock: KIFKEQ_clean_linker_1, # of connection points: 2
#     Edge 109, Type (0, 0), BuildingBlock: KIFKEQ_clean_linker_1, # of connection points: 2
#     Edge 110, Type (0, 0), BuildingBlock: KIFKEQ_clean_linker_1, # of connection points: 2
#     Edge 111, Type (0, 0), BuildingBlock: KIFKEQ_clean_linker_1, # of connection points: 2
#     Edge 112, Type (0, 0), BuildingBlock: KIFKEQ_clean_linker_1, # of connection points: 2
#     Edge 113, Type (0, 0), BuildingBlock: KIFKEQ_clean_linker_1, # of connection points: 2
#     Edge 114, Type (0, 0), BuildingBlock: KIFKEQ_clean_linker_1, # of connection points: 2
#     Edge 115, Type (0, 0), BuildingBlock: KIFKEQ_clean_linker_1, # of connection points: 2
#     Edge 116, Type (0, 0), BuildingBlock: KIFKEQ_clean_linker_1, # of connection points: 2
#     Edge 117, Type (0, 0), BuildingBlock: KIFKEQ_clean_linker_1, # of connection points: 2
#     Edge 118, Type (0, 0), BuildingBlock: KIFKEQ_clean_linker_1, # of connection points: 2
#     Edge 119, Type (0, 0), BuildingBlock: KIFKEQ_clean_linker_1, # of connection points: 2
#     Edge 120, Type (0, 0), BuildingBlock: KIFKEQ_clean_linker_1, # of connection points: 2
#     Edge 121, Type (0, 0), BuildingBlock: KIFKEQ_clean_linker_1, # of connection points: 2
#     Edge 122, Type (0, 0), BuildingBlock: KIFKEQ_clean_linker_1, # of connection points: 2
#     Edge 123, Type (0, 0), BuildingBlock: KIFKEQ_clean_linker_1, # of connection points: 2
#     Edge 124, Type (0, 0), BuildingBlock: KIFKEQ_clean_linker_1, # of connection points: 2
#     Edge 125, Type (0, 0), BuildingBlock: KIFKEQ_clean_linker_1, # of connection points: 2
#     Edge 126, Type (0, 0), BuildingBlock: KIFKEQ_clean_linker_1, # of connection points: 2
#     Edge 127, Type (0, 0), BuildingBlock: KIFKEQ_clean_linker_1, # of connection points: 2
#     Edge 128, Type (0, 0), BuildingBlock: KIFKEQ_clean_linker_1, # of connection points: 2
#     Edge 129, Type (0, 0), BuildingBlock: KIFKEQ_clean_linker_1, # of connection points: 2
#     Edge 130, Type (0, 0), BuildingBlock: KIFKEQ_clean_linker_1, # of connection points: 2
#     Edge 131, Type (0, 0), BuildingBlock: KIFKEQ_clean_linker_1, # of connection points: 2
#     Edge 132, Type (0, 0), BuildingBlock: KIFKEQ_clean_linker_1, # of connection points: 2
#     Edge 133, Type (0, 0), BuildingBlock: KIFKEQ_clean_linker_1, # of connection points: 2
#     Edge 134, Type (0, 0), BuildingBlock: KIFKEQ_clean_linker_1, # of connection points: 2
#     Edge 135, Type (0, 0), BuildingBlock: KIFKEQ_clean_linker_1, # of connection points: 2
#     Edge 136, Type (0, 0), BuildingBlock: KIFKEQ_clean_linker_1, # of connection points: 2
#     Edge 137, Type (0, 0), BuildingBlock: KIFKEQ_clean_linker_1, # of connection points: 2
#     Edge 138, Type (0, 0), BuildingBlock: KIFKEQ_clean_linker_1, # of connection points: 2
#     Edge 139, Type (0, 0), BuildingBlock: KIFKEQ_clean_linker_1, # of connection points: 2
#     Edge 140, Type (0, 0), BuildingBlock: KIFKEQ_clean_linker_1, # of connection points: 2
#     Edge 141, Type (0, 0), BuildingBlock: KIFKEQ_clean_linker_1, # of connection points: 2
#     Edge 142, Type (0, 0), BuildingBlock: KIFKEQ_clean_linker_1, # of connection points: 2
#     Edge 143, Type (0, 0), BuildingBlock: KIFKEQ_clean_linker_1, # of connection points: 2
#     Edge 144, Type (0, 0), BuildingBlock: KIFKEQ_clean_linker_1, # of connection points: 2
#     Edge 145, Type (0, 0), BuildingBlock: KIFKEQ_clean_linker_1, # of connection points: 2
#     Edge 146, Type (0, 0), BuildingBlock: KIFKEQ_clean_linker_1, # of connection points: 2
#     Edge 147, Type (0, 0), BuildingBlock: KIFKEQ_clean_linker_1, # of connection points: 2
#     Edge 148, Type (0, 0), BuildingBlock: KIFKEQ_clean_linker_1, # of connection points: 2
#     Edge 149, Type (0, 0), BuildingBlock: KIFKEQ_clean_linker_1, # of connection points: 2
#     Edge 150, Type (0, 0), BuildingBlock: KIFKEQ_clean_linker_1, # of connection points: 2
#     Edge 151, Type (0, 0), BuildingBlock: KIFKEQ_clean_linker_1, # of connection points: 2
#     Edge 152, Type (0, 0), BuildingBlock: KIFKEQ_clean_linker_1, # of connection points: 2
#     Edge 153, Type (0, 0), BuildingBlock: KIFKEQ_clean_linker_1, # of connection points: 2
#     Edge 154, Type (0, 0), BuildingBlock: KIFKEQ_clean_linker_1, # of connection points: 2
#     Edge 155, Type (0, 0), BuildingBlock: KIFKEQ_clean_linker_1, # of connection points: 2
#     Edge 156, Type (0, 0), BuildingBlock: KIFKEQ_clean_linker_1, # of connection points: 2
#     Edge 157, Type (0, 0), BuildingBlock: KIFKEQ_clean_linker_1, # of connection points: 2
#     Edge 158, Type (0, 0), BuildingBlock: KIFKEQ_clean_linker_1, # of connection points: 2
#     Edge 159, Type (0, 0), BuildingBlock: KIFKEQ_clean_linker_1, # of connection points: 2
#     Edge 160, Type (0, 0), BuildingBlock: KIFKEQ_clean_linker_1, # of connection points: 2
#     Edge 161, Type (0, 0), BuildingBlock: KIFKEQ_clean_linker_1, # of connection points: 2
#     Edge 162, Type (0, 0), BuildingBlock: KIFKEQ_clean_linker_1, # of connection points: 2
#     Edge 163, Type (0, 0), BuildingBlock: KIFKEQ_clean_linker_1, # of connection points: 2
#     Edge 164, Type (0, 0), BuildingBlock: KIFKEQ_clean_linker_1, # of connection points: 2
#     Edge 165, Type (0, 0), BuildingBlock: KIFKEQ_clean_linker_1, # of connection points: 2
#     Edge 166, Type (0, 0), BuildingBlock: KIFKEQ_clean_linker_1, # of connection points: 2
#     Edge 167, Type (0, 0), BuildingBlock: KIFKEQ_clean_linker_1, # of connection points: 2
#     Edge 168, Type (0, 0), BuildingBlock: KIFKEQ_clean_linker_1, # of connection points: 2
#     Edge 169, Type (0, 0), BuildingBlock: KIFKEQ_clean_linker_1, # of connection points: 2
#     Edge 170, Type (0, 0), BuildingBlock: KIFKEQ_clean_linker_1, # of connection points: 2
#     Edge 171, Type (0, 0), BuildingBlock: KIFKEQ_clean_linker_1, # of connection points: 2
#     Edge 172, Type (0, 0), BuildingBlock: KIFKEQ_clean_linker_1, # of connection points: 2
#     Edge 173, Type (0, 0), BuildingBlock: KIFKEQ_clean_linker_1, # of connection points: 2
#     Edge 174, Type (0, 0), BuildingBlock: KIFKEQ_clean_linker_1, # of connection points: 2
#     Edge 175, Type (0, 0), BuildingBlock: KIFKEQ_clean_linker_1, # of connection points: 2
#     Edge 176, Type (0, 0), BuildingBlock: KIFKEQ_clean_linker_1, # of connection points: 2
#     Edge 177, Type (0, 0), BuildingBlock: KIFKEQ_clean_linker_1, # of connection points: 2
#     Edge 178, Type (0, 0), BuildingBlock: KIFKEQ_clean_linker_1, # of connection points: 2
#     Edge 179, Type (0, 0), BuildingBlock: KIFKEQ_clean_linker_1, # of connection points: 2
#     Edge 180, Type (0, 0), BuildingBlock: KIFKEQ_clean_linker_1, # of connection points: 2
#     Edge 181, Type (0, 0), BuildingBlock: KIFKEQ_clean_linker_1, # of connection points: 2
#     Edge 182, Type (0, 0), BuildingBlock: KIFKEQ_clean_linker_1, # of connection points: 2
#     Edge 183, Type (0, 0), BuildingBlock: KIFKEQ_clean_linker_1, # of connection points: 2
#     Edge 184, Type (0, 0), BuildingBlock: KIFKEQ_clean_linker_1, # of connection points: 2
#     Edge 185, Type (0, 0), BuildingBlock: KIFKEQ_clean_linker_1, # of connection points: 2
#     Edge 186, Type (0, 0), BuildingBlock: KIFKEQ_clean_linker_1, # of connection points: 2
#     Edge 187, Type (0, 0), BuildingBlock: KIFKEQ_clean_linker_1, # of connection points: 2
#     Edge 188, Type (0, 0), BuildingBlock: KIFKEQ_clean_linker_1, # of connection points: 2
#     Edge 189, Type (0, 0), BuildingBlock: KIFKEQ_clean_linker_1, # of connection points: 2
#     Edge 190, Type (0, 0), BuildingBlock: KIFKEQ_clean_linker_1, # of connection points: 2
#     Edge 191, Type (0, 0), BuildingBlock: KIFKEQ_clean_linker_1, # of connection points: 2
#     Edge 192, Type (0, 0), BuildingBlock: KIFKEQ_clean_linker_1, # of connection points: 2
#     Edge 193, Type (0, 0), BuildingBlock: KIFKEQ_clean_linker_1, # of connection points: 2
#     Edge 194, Type (0, 0), BuildingBlock: KIFKEQ_clean_linker_1, # of connection points: 2
#     Edge 195, Type (0, 0), BuildingBlock: KIFKEQ_clean_linker_1, # of connection points: 2
#     Edge 196, Type (0, 0), BuildingBlock: KIFKEQ_clean_linker_1, # of connection points: 2
#     Edge 197, Type (0, 0), BuildingBlock: KIFKEQ_clean_linker_1, # of connection points: 2
#     Edge 198, Type (0, 0), BuildingBlock: KIFKEQ_clean_linker_1, # of connection points: 2
#     Edge 199, Type (0, 0), BuildingBlock: KIFKEQ_clean_linker_1, # of connection points: 2
#     Edge 200, Type (0, 0), BuildingBlock: KIFKEQ_clean_linker_1, # of connection points: 2
#     Edge 201, Type (0, 0), BuildingBlock: KIFKEQ_clean_linker_1, # of connection points: 2
#     Edge 202, Type (0, 0), BuildingBlock: KIFKEQ_clean_linker_1, # of connection points: 2
#     Edge 203, Type (0, 0), BuildingBlock: KIFKEQ_clean_linker_1, # of connection points: 2
#     Edge 204, Type (0, 0), BuildingBlock: KIFKEQ_clean_linker_1, # of connection points: 2
#     Edge 205, Type (0, 0), BuildingBlock: KIFKEQ_clean_linker_1, # of connection points: 2
#     Edge 206, Type (0, 0), BuildingBlock: KIFKEQ_clean_linker_1, # of connection points: 2
#     Edge 207, Type (0, 0), BuildingBlock: KIFKEQ_clean_linker_1, # of connection points: 2
#     Edge 208, Type (0, 0), BuildingBlock: KIFKEQ_clean_linker_1, # of connection points: 2
#     Edge 209, Type (0, 0), BuildingBlock: KIFKEQ_clean_linker_1, # of connection points: 2
#     Edge 210, Type (0, 0), BuildingBlock: KIFKEQ_clean_linker_1, # of connection points: 2
#     Edge 211, Type (0, 0), BuildingBlock: KIFKEQ_clean_linker_1, # of connection points: 2
#     Edge 212, Type (0, 0), BuildingBlock: KIFKEQ_clean_linker_1, # of connection points: 2
#     Edge 213, Type (0, 0), BuildingBlock: KIFKEQ_clean_linker_1, # of connection points: 2
#     Edge 214, Type (0, 0), BuildingBlock: KIFKEQ_clean_linker_1, # of connection points: 2
#     Edge 215, Type (0, 0), BuildingBlock: KIFKEQ_clean_linker_1, # of connection points: 2
#     Edge 216, Type (0, 0), BuildingBlock: KIFKEQ_clean_linker_1, # of connection points: 2
#     Edge 217, Type (0, 0), BuildingBlock: KIFKEQ_clean_linker_1, # of connection points: 2
#     Edge 218, Type (0, 0), BuildingBlock: KIFKEQ_clean_linker_1, # of connection points: 2
#     Edge 219, Type (0, 0), BuildingBlock: KIFKEQ_clean_linker_1, # of connection points: 2
#     Edge 220, Type (0, 0), BuildingBlock: KIFKEQ_clean_linker_1, # of connection points: 2
#     Edge 221, Type (0, 0), BuildingBlock: KIFKEQ_clean_linker_1, # of connection points: 2
#     Edge 222, Type (0, 0), BuildingBlock: KIFKEQ_clean_linker_1, # of connection points: 2
#     Edge 223, Type (0, 0), BuildingBlock: KIFKEQ_clean_linker_1, # of connection points: 2
#     Edge 224, Type (0, 0), BuildingBlock: KIFKEQ_clean_linker_1, # of connection points: 2
#     Edge 225, Type (0, 0), BuildingBlock: KIFKEQ_clean_linker_1, # of connection points: 2
#     Edge 226, Type (0, 0), BuildingBlock: KIFKEQ_clean_linker_1, # of connection points: 2
#     Edge 227, Type (0, 0), BuildingBlock: KIFKEQ_clean_linker_1, # of connection points: 2
#     Edge 228, Type (0, 0), BuildingBlock: KIFKEQ_clean_linker_1, # of connection points: 2
#     Edge 229, Type (0, 0), BuildingBlock: KIFKEQ_clean_linker_1, # of connection points: 2
#     Edge 230, Type (0, 0), BuildingBlock: KIFKEQ_clean_linker_1, # of connection points: 2
#     Edge 231, Type (0, 0), BuildingBlock: KIFKEQ_clean_linker_1, # of connection points: 2
#     Edge 232, Type (0, 0), BuildingBlock: KIFKEQ_clean_linker_1, # of connection points: 2
#     Edge 233, Type (0, 0), BuildingBlock: KIFKEQ_clean_linker_1, # of connection points: 2
#     Edge 234, Type (0, 0), BuildingBlock: KIFKEQ_clean_linker_1, # of connection points: 2
#     Edge 235, Type (0, 0), BuildingBlock: KIFKEQ_clean_linker_1, # of connection points: 2
#     Edge 236, Type (0, 0), BuildingBlock: KIFKEQ_clean_linker_1, # of connection points: 2
#     Edge 237, Type (0, 0), BuildingBlock: KIFKEQ_clean_linker_1, # of connection points: 2
#     Edge 238, Type (0, 0), BuildingBlock: KIFKEQ_clean_linker_1, # of connection points: 2
#     Edge 239, Type (0, 0), BuildingBlock: KIFKEQ_clean_linker_1, # of connection points: 2
#     Edge 240, Type (0, 0), BuildingBlock: KIFKEQ_clean_linker_1, # of connection points: 2
#     Edge 241, Type (0, 0), BuildingBlock: KIFKEQ_clean_linker_1, # of connection points: 2
#     Edge 242, Type (0, 0), BuildingBlock: KIFKEQ_clean_linker_1, # of connection points: 2
#     Edge 243, Type (0, 0), BuildingBlock: KIFKEQ_clean_linker_1, # of connection points: 2
#     Edge 244, Type (0, 0), BuildingBlock: KIFKEQ_clean_linker_1, # of connection points: 2
#     Edge 245, Type (0, 0), BuildingBlock: KIFKEQ_clean_linker_1, # of connection points: 2
#     Edge 246, Type (0, 0), BuildingBlock: KIFKEQ_clean_linker_1, # of connection points: 2
#     Edge 247, Type (0, 0), BuildingBlock: KIFKEQ_clean_linker_1, # of connection points: 2
#     Edge 248, Type (0, 0), BuildingBlock: KIFKEQ_clean_linker_1, # of connection points: 2
#     Edge 249, Type (0, 0), BuildingBlock: KIFKEQ_clean_linker_1, # of connection points: 2
#     Edge 250, Type (0, 0), BuildingBlock: KIFKEQ_clean_linker_1, # of connection points: 2
#     Edge 251, Type (0, 0), BuildingBlock: KIFKEQ_clean_linker_1, # of connection points: 2
#     Edge 252, Type (0, 0), BuildingBlock: KIFKEQ_clean_linker_1, # of connection points: 2
#     Edge 253, Type (0, 0), BuildingBlock: KIFKEQ_clean_linker_1, # of connection points: 2
#     Edge 254, Type (0, 0), BuildingBlock: KIFKEQ_clean_linker_1, # of connection points: 2
#     Edge 255, Type (0, 0), BuildingBlock: KIFKEQ_clean_linker_1, # of connection points: 2
#     Edge 256, Type (0, 0), BuildingBlock: KIFKEQ_clean_linker_1, # of connection points: 2
#     Edge 257, Type (0, 0), BuildingBlock: KIFKEQ_clean_linker_1, # of connection points: 2
#     Edge 258, Type (0, 0), BuildingBlock: KIFKEQ_clean_linker_1, # of connection points: 2
#     Edge 259, Type (0, 0), BuildingBlock: KIFKEQ_clean_linker_1, # of connection points: 2
#     Edge 260, Type (0, 0), BuildingBlock: KIFKEQ_clean_linker_1, # of connection points: 2
#     Edge 261, Type (0, 0), BuildingBlock: KIFKEQ_clean_linker_1, # of connection points: 2
#     Edge 262, Type (0, 0), BuildingBlock: KIFKEQ_clean_linker_1, # of connection points: 2
#     Edge 263, Type (0, 0), BuildingBlock: KIFKEQ_clean_linker_1, # of connection points: 2
#     Edge 264, Type (0, 0), BuildingBlock: KIFKEQ_clean_linker_1, # of connection points: 2
#     Edge 265, Type (0, 0), BuildingBlock: KIFKEQ_clean_linker_1, # of connection points: 2
#     Edge 266, Type (0, 0), BuildingBlock: KIFKEQ_clean_linker_1, # of connection points: 2
#     Edge 267, Type (0, 0), BuildingBlock: KIFKEQ_clean_linker_1, # of connection points: 2
#     Edge 268, Type (0, 0), BuildingBlock: KIFKEQ_clean_linker_1, # of connection points: 2
#     Edge 269, Type (0, 0), BuildingBlock: KIFKEQ_clean_linker_1, # of connection points: 2
#     Edge 270, Type (0, 0), BuildingBlock: KIFKEQ_clean_linker_1, # of connection points: 2
#     Edge 271, Type (0, 0), BuildingBlock: KIFKEQ_clean_linker_1, # of connection points: 2
#     Edge 272, Type (0, 0), BuildingBlock: KIFKEQ_clean_linker_1, # of connection points: 2
#     Edge 273, Type (0, 0), BuildingBlock: KIFKEQ_clean_linker_1, # of connection points: 2
#     Edge 274, Type (0, 0), BuildingBlock: KIFKEQ_clean_linker_1, # of connection points: 2
#     Edge 275, Type (0, 0), BuildingBlock: KIFKEQ_clean_linker_1, # of connection points: 2
#     Edge 276, Type (0, 0), BuildingBlock: KIFKEQ_clean_linker_1, # of connection points: 2
#     Edge 277, Type (0, 0), BuildingBlock: KIFKEQ_clean_linker_1, # of connection points: 2
#     Edge 278, Type (0, 0), BuildingBlock: KIFKEQ_clean_linker_1, # of connection points: 2
#     Edge 279, Type (0, 0), BuildingBlock: KIFKEQ_clean_linker_1, # of connection points: 2
#     Edge 280, Type (0, 0), BuildingBlock: KIFKEQ_clean_linker_1, # of connection points: 2
#     Edge 281, Type (0, 0), BuildingBlock: KIFKEQ_clean_linker_1, # of connection points: 2
#     Edge 282, Type (0, 0), BuildingBlock: KIFKEQ_clean_linker_1, # of connection points: 2
#     Edge 283, Type (0, 0), BuildingBlock: KIFKEQ_clean_linker_1, # of connection points: 2
#     Edge 284, Type (0, 0), BuildingBlock: KIFKEQ_clean_linker_1, # of connection points: 2
#     Edge 285, Type (0, 0), BuildingBlock: KIFKEQ_clean_linker_1, # of connection points: 2
#     Edge 286, Type (0, 0), BuildingBlock: KIFKEQ_clean_linker_1, # of connection points: 2
#     Edge 287, Type (0, 0), BuildingBlock: KIFKEQ_clean_linker_1, # of connection points: 2
# Relax obj value: 0.150
# Max RMSD: 0.120
# Mean RMSD: 0.120
data_MOF--net-kfi--node1-TATPOV_clean_sbu_0--edge1-KIFKEQ_clean_linker_1
_symmetry_space_group_name_H-M    P1
_symmetry_Int_Tables_number       1
_symmetry_cell_setting            triclinic
loop_
_symmetry_equiv_pos_as_xyz
'x, y, z'
_cell_length_a     89.8983
_cell_length_b     89.919359
_cell_length_c     89.942262
_cell_angle_alpha  89.99038
_cell_angle_beta   89.966927
_cell_angle_gamma 89.99914
loop_
_atom_site_label
_atom_site_type_symbol
_atom_site_fract_x
_atom_site_fract_y
_atom_site_fract_z
_atom_type_partial_charge
Zn0 Zn 0.05621 0.21641 0.32541 0.0
Zn1 Zn 0.07481 0.19624 0.31755 0.0
O2 O 0.05538 0.18469 0.3225 0.0
O3 O 0.04191 0.20167 0.33379 0.0
O4 O 0.08978 0.17999 0.31378 0.0
O5 O 0.07009 0.22703 0.33879 0.0
O6 O 0.0853 0.20845 0.3342 0.0
C7 C 0.04369 0.18836 0.32967 0.0
C8 C 0.0638 0.21779 0.29428 0.0
O9 O 0.07312 0.20769 0.29776 0.0
O10 O 0.05483 0.22271 0.30397 0.0
C11 C 0.08787 0.16937 0.30465 0.0
O12 O 0.07558 0.16886 0.29677 0.0
C13 C 0.08236 0.22056 0.341 0.0
Zn14 Zn 0.77007 0.0589 0.31483 0.0
Zn15 Zn 0.79484 0.07585 0.31489 0.0
O16 O 0.8029 0.05551 0.32168 0.0
O17 O 0.78275 0.04151 0.32094 0.0
O18 O 0.81284 0.08897 0.31562 0.0
O19 O 0.76057 0.07248 0.33008 0.0
O20 O 0.78088 0.08614 0.32971 0.0
C21 C 0.79655 0.04296 0.3233 0.0
C22 C 0.77691 0.07151 0.28626 0.0
O23 O 0.78793 0.07726 0.29302 0.0
O24 O 0.76772 0.06332 0.29308 0.0
C25 C 0.82228 0.08964 0.30513 0.0
O26 O 0.82041 0.08132 0.29327 0.0
C27 C 0.7678 0.0837 0.33459 0.0
Zn28 Zn 0.92279 0.77219 0.30633 0.0
Zn29 Zn 0.90616 0.7962 0.30901 0.0
O30 O 0.92705 0.80522 0.31187 0.0
O31 O 0.94076 0.78569 0.30623 0.0
O32 O 0.89209 0.81327 0.31189 0.0
O33 O 0.91495 0.7631 0.32521 0.0
O34 O 0.89932 0.7819 0.32564 0.0
C35 C 0.93973 0.79935 0.30949 0.0
C36 C 0.90425 0.77707 0.28106 0.0
O37 O 0.90153 0.78936 0.28754 0.0
O38 O 0.91237 0.76738 0.28722 0.0
C39 C 0.89331 0.82584 0.30556 0.0
O40 O 0.90464 0.82832 0.29666 0.0
C41 C 0.9039 0.76959 0.33102 0.0
Zn42 Zn 0.20727 0.93309 0.31492 0.0
Zn43 Zn 0.18672 0.91358 0.30895 0.0
O44 O 0.17477 0.93251 0.3148 0.0
O45 O 0.19234 0.94666 0.32432 0.0
O46 O 0.17087 0.898 0.30657 0.0
O47 O 0.21901 0.91897 0.32761 0.0
O48 O 0.20007 0.90376 0.32492 0.0
C49 C 0.17875 0.94427 0.32164 0.0
C50 C 0.20609 0.92487 0.28394 0.0
O51 O 0.19698 0.91504 0.28852 0.0
O52 O 0.21128 0.93447 0.29284 0.0
C53 C 0.16138 0.89739 0.29612 0.0
O54 O 0.16162 0.90754 0.28561 0.0
C55 C 0.21267 0.90679 0.33069 0.0
Zn56 Zn 0.05601 0.77684 0.66706 0.0
Zn57 Zn 0.07631 0.7961 0.67513 0.0
O58 O 0.05862 0.80932 0.66862 0.0
O59 O 0.04362 0.79311 0.65808 0.0
O60 O 0.09232 0.81108 0.6794 0.0
O61 O 0.07011 0.76521 0.65443 0.0
O62 O 0.0865 0.78269 0.65934 0.0
C63 C 0.04687 0.80641 0.66127 0.0
C64 C 0.06272 0.776 0.69852 0.0
O65 O 0.0727 0.78545 0.69503 0.0
O66 O 0.05377 0.77127 0.68871 0.0
C67 C 0.09034 0.82233 0.68772 0.0
O68 O 0.07743 0.82415 0.69432 0.0
C69 C 0.08295 0.77068 0.65267 0.0
Zn70 Zn 0.21232 0.05456 0.6693 0.0
Zn71 Zn 0.19126 0.07329 0.67287 0.0
O72 O 0.18018 0.05384 0.66724 0.0
O73 O 0.19876 0.04086 0.65805 0.0
O74 O 0.17505 0.08865 0.67401 0.0
O75 O 0.22543 0.06899 0.65839 0.0
O76 O 0.20517 0.08264 0.65703 0.0
C77 C 0.18497 0.04245 0.66032 0.0
C78 C 0.20854 0.06285 0.69967 0.0
O79 O 0.20034 0.07288 0.69394 0.0
O80 O 0.21397 0.05268 0.6916 0.0
C81 C 0.16527 0.08945 0.68419 0.0
O82 O 0.1653 0.07959 0.69497 0.0
C83 C 0.21867 0.08025 0.65337 0.0
Zn84 Zn 0.94024 0.21633 0.66375 0.0
Zn85 Zn 0.92262 0.1945 0.67157 0.0
O86 O 0.94139 0.18362 0.66366 0.0
O87 O 0.95393 0.20204 0.65351 0.0
O88 O 0.9082 0.17794 0.67577 0.0
O89 O 0.92445 0.22689 0.65224 0.0
O90 O 0.91034 0.2075 0.65699 0.0
C91 C 0.9524 0.1883 0.65606 0.0
C92 C 0.93494 0.21491 0.69539 0.0
O93 O 0.92592 0.20461 0.69178 0.0
O94 O 0.94289 0.2211 0.68552 0.0
C95 C 0.9079 0.17014 0.68754 0.0
O96 O 0.91777 0.17259 0.69803 0.0
C97 C 0.91222 0.22012 0.65078 0.0
Zn98 Zn 0.77309 0.93846 0.67022 0.0
Zn99 Zn 0.79531 0.92039 0.67589 0.0
O100 O 0.80581 0.93942 0.66837 0.0
O101 O 0.78701 0.95283 0.66033 0.0
O102 O 0.81229 0.90606 0.67809 0.0
O103 O 0.76211 0.92335 0.6581 0.0
O104 O 0.78176 0.9091 0.66109 0.0
C105 C 0.80088 0.95102 0.66192 0.0
C106 C 0.77631 0.9314 0.70147 0.0
O107 O 0.78639 0.92256 0.69689 0.0
O108 O 0.76953 0.93972 0.69234 0.0
C109 C 0.8213 0.90575 0.68896 0.0
O110 O 0.81961 0.9152 0.69997 0.0
C111 C 0.76893 0.91134 0.65546 0.0
Zn112 Zn 0.31653 0.05922 0.21051 0.0
Zn113 Zn 0.31146 0.07794 0.18906 0.0
O114 O 0.31865 0.05894 0.17804 0.0
O115 O 0.32735 0.0456 0.19663 0.0
O116 O 0.30943 0.09296 0.17269 0.0
O117 O 0.32805 0.07404 0.22256 0.0
O118 O 0.32634 0.0886 0.20302 0.0
C119 C 0.32557 0.04754 0.18283 0.0
C120 C 0.28552 0.06645 0.20705 0.0
O121 O 0.29048 0.07616 0.19802 0.0
O122 O 0.29427 0.05722 0.2131 0.0
C123 C 0.29958 0.09268 0.16257 0.0
O124 O 0.28969 0.08192 0.16248 0.0
C125 C 0.33132 0.08607 0.21605 0.0
Zn126 Zn 0.9384 0.3071 0.20884 0.0
Zn127 Zn 0.91876 0.30929 0.18647 0.0
O128 O 0.93887 0.31247 0.17571 0.0
O129 O 0.95483 0.31089 0.19427 0.0
O130 O 0.90369 0.31155 0.17017 0.0
O131 O 0.92801 0.32393 0.2198 0.0
O132 O 0.91263 0.32585 0.20089 0.0
C133 C 0.95217 0.31271 0.18059 0.0
C134 C 0.92112 0.28058 0.20475 0.0
O135 O 0.91459 0.28828 0.19482 0.0
O136 O 0.9319 0.28598 0.21201 0.0
C137 C 0.90085 0.30131 0.16087 0.0
O138 O 0.90817 0.28868 0.16168 0.0
C139 C 0.91701 0.3302 0.21364 0.0
Zn140 Zn 0.67673 0.93518 0.21758 0.0
Zn141 Zn 0.68565 0.91563 0.19827 0.0
O142 O 0.68004 0.93411 0.18546 0.0
O143 O 0.66833 0.94821 0.20168 0.0
O144 O 0.69095 0.90004 0.18305 0.0
O145 O 0.66355 0.92056 0.228 0.0
O146 O 0.66861 0.90518 0.20968 0.0
C147 C 0.67234 0.94562 0.18847 0.0
C148 C 0.70759 0.92801 0.22078 0.0
O149 O 0.70442 0.91799 0.21127 0.0
O150 O 0.69795 0.93762 0.2244 0.0
C151 C 0.69653 0.9029 0.17037 0.0
O152 O 0.6998 0.91673 0.16695 0.0
C153 C 0.66153 0.9082 0.22161 0.0
Zn154 Zn 0.05512 0.65161 0.21914 0.0
Zn155 Zn 0.07517 0.66217 0.2005 0.0
O156 O 0.0571 0.65698 0.18735 0.0
O157 O 0.04179 0.64523 0.20235 0.0
O158 O 0.09074 0.66787 0.18554 0.0
O159 O 0.0695 0.63756 0.2287 0.0
O160 O 0.08589 0.64568 0.21244 0.0
C161 C 0.04494 0.65002 0.18949 0.0
C162 C 0.06189 0.68313 0.22304 0.0
O163 O 0.07145 0.68097 0.2128 0.0
O164 O 0.05353 0.67258 0.22725 0.0
C165 C 0.08865 0.67752 0.17544 0.0
O166 O 0.07587 0.68459 0.17485 0.0
C167 C 0.08252 0.63728 0.22337 0.0
Zn168 Zn 0.32711 0.92652 0.77427 0.0
Zn169 Zn 0.32287 0.90875 0.79593 0.0
O170 O 0.32862 0.92851 0.80622 0.0
O171 O 0.33854 0.94054 0.7874 0.0
O172 O 0.32107 0.89454 0.813 0.0
O173 O 0.33793 0.91124 0.76208 0.0
O174 O 0.33893 0.89849 0.78292 0.0
C175 C 0.33592 0.93954 0.80118 0.0
C176 C 0.29648 0.91902 0.778 0.0
O177 O 0.30192 0.90915 0.78657 0.0
O178 O 0.30483 0.92882 0.77229 0.0
C179 C 0.31103 0.8954 0.82291 0.0
O180 O 0.30101 0.906 0.82207 0.0
C181 C 0.34279 0.90026 0.76939 0.0
Zn182 Zn 0.05168 0.32289 0.77416 0.0
Zn183 Zn 0.07111 0.31747 0.79491 0.0
O184 O 0.05197 0.32152 0.80688 0.0
O185 O 0.03777 0.33139 0.78956 0.0
O186 O 0.08639 0.31544 0.81098 0.0
O187 O 0.06577 0.33631 0.76298 0.0
O188 O 0.07975 0.33505 0.78302 0.0
C189 C 0.0401 0.32821 0.80306 0.0
C190 C 0.06183 0.29259 0.77419 0.0
O191 O 0.07134 0.29759 0.78343 0.0
O192 O 0.05143 0.30088 0.76955 0.0
C193 C 0.08951 0.30374 0.81824 0.0
O194 O 0.08251 0.29127 0.81522 0.0
C195 C 0.07701 0.34058 0.77028 0.0
Zn196 Zn 0.66752 0.05977 0.7798 0.0
Zn197 Zn 0.67561 0.07853 0.80027 0.0
O198 O 0.66861 0.06025 0.81234 0.0
O199 O 0.65721 0.0471 0.79516 0.0
O200 O 0.6807 0.09378 0.81578 0.0
O201 O 0.6564 0.07523 0.76829 0.0
O202 O 0.65994 0.08985 0.78761 0.0
C203 C 0.66064 0.04914 0.80864 0.0
C204 C 0.69903 0.06504 0.78002 0.0
O205 O 0.69548 0.07494 0.78952 0.0
O206 O 0.68917 0.05639 0.77489 0.0
C207 C 0.68608 0.09077 0.82849 0.0
O208 O 0.68878 0.07686 0.83204 0.0
C209 C 0.65415 0.08743 0.7749 0.0
Zn210 Zn 0.93331 0.68296 0.775 0.0
Zn211 Zn 0.91445 0.68399 0.79827 0.0
O212 O 0.93429 0.67872 0.80842 0.0
O213 O 0.94966 0.67753 0.78932 0.0
O214 O 0.89989 0.68362 0.81508 0.0
O215 O 0.92065 0.66729 0.76489 0.0
O216 O 0.90562 0.66831 0.78417 0.0
C217 C 0.94725 0.67657 0.80315 0.0
C218 C 0.91995 0.71181 0.77977 0.0
O219 O 0.91317 0.70544 0.79043 0.0
O220 O 0.929 0.7047 0.77167 0.0
C221 C 0.89879 0.69401 0.82458 0.0
O222 O 0.90761 0.70561 0.82358 0.0
C223 C 0.90899 0.66294 0.7715 0.0
Zn224 Zn 0.21866 0.32728 0.05394 0.0
Zn225 Zn 0.19738 0.32037 0.07167 0.0
O226 O 0.18693 0.32656 0.05202 0.0
O227 O 0.20495 0.33787 0.04 0.0
O228 O 0.18054 0.31735 0.08609 0.0
O229 O 0.2301 0.33873 0.06919 0.0
O230 O 0.21012 0.33587 0.08296 0.0
C231 C 0.1914 0.33423 0.04095 0.0
C232 C 0.21699 0.29591 0.06015 0.0
O233 O 0.20768 0.30003 0.07 0.0
O234 O 0.22245 0.30529 0.05117 0.0
C235 C 0.1721 0.30603 0.08675 0.0
O236 O 0.17402 0.29508 0.07728 0.0
C237 C 0.22303 0.34143 0.08103 0.0
Zn238 Zn 0.20963 0.6747 0.94457 0.0
Zn239 Zn 0.19088 0.68316 0.92428 0.0
O240 O 0.17721 0.67719 0.94203 0.0
O241 O 0.19328 0.66654 0.95713 0.0
O242 O 0.17654 0.68818 0.90774 0.0
O243 O 0.22079 0.66134 0.9309 0.0
O244 O 0.20335 0.66633 0.91451 0.0
C245 C 0.18004 0.66991 0.95386 0.0
C246 C 0.21255 0.7056 0.93762 0.0
O247 O 0.20301 0.70244 0.92762 0.0
O248 O 0.21648 0.69578 0.94692 0.0
C249 C 0.16355 0.69341 0.90972 0.0
O250 O 0.15901 0.69635 0.9233 0.0
C251 C 0.21511 0.6593 0.91822 0.0
Zn252 Zn 0.307 0.21043 0.93149 0.0
Zn253 Zn 0.30721 0.18806 0.91218 0.0
O254 O 0.31144 0.17718 0.93202 0.0
O255 O 0.31288 0.19613 0.94754 0.0
O256 O 0.30704 0.17172 0.89697 0.0
O257 O 0.32239 0.22128 0.91903 0.0
O258 O 0.3243 0.20135 0.90491 0.0
C259 C 0.31366 0.18231 0.94502 0.0
C260 C 0.27921 0.20732 0.91695 0.0
O261 O 0.28639 0.19761 0.90952 0.0
O262 O 0.28534 0.21394 0.92774 0.0
C263 C 0.29874 0.16034 0.89813 0.0
O264 O 0.29008 0.15897 0.90982 0.0
C265 C 0.3285 0.21443 0.90836 0.0
Zn266 Zn 0.77799 0.32087 0.93688 0.0
Zn267 Zn 0.79893 0.31484 0.91764 0.0
O268 O 0.81081 0.32181 0.93617 0.0
O269 O 0.7928 0.33065 0.95025 0.0
O270 O 0.81475 0.31181 0.90216 0.0
O271 O 0.76639 0.33311 0.92222 0.0
O272 O 0.78556 0.33042 0.90729 0.0
C273 C 0.8065 0.32863 0.94782 0.0
C274 C 0.77962 0.28984 0.92959 0.0
O275 O 0.78886 0.29433 0.91983 0.0
O276 O 0.77411 0.29888 0.93887 0.0
C277 C 0.82398 0.30111 0.9019 0.0
O278 O 0.82348 0.29095 0.91238 0.0
C279 C 0.77285 0.33608 0.91009 0.0
Zn280 Zn 0.66666 0.77639 0.93688 0.0
Zn281 Zn 0.67554 0.79693 0.91874 0.0
O282 O 0.66734 0.80892 0.9368 0.0
O283 O 0.65657 0.79127 0.94986 0.0
O284 O 0.68104 0.81275 0.90379 0.0
O285 O 0.65509 0.7655 0.92147 0.0
O286 O 0.6604 0.78425 0.9067 0.0
C287 C 0.65943 0.80489 0.94787 0.0
C288 C 0.69817 0.77579 0.93254 0.0
O289 O 0.69526 0.78583 0.92295 0.0
O290 O 0.68785 0.77057 0.94059 0.0
C291 C 0.68625 0.82545 0.90718 0.0
O292 O 0.68871 0.82865 0.92121 0.0
C293 C 0.65379 0.7719 0.90903 0.0
Zn294 Zn 0.76806 0.67435 0.05314 0.0
Zn295 Zn 0.79014 0.67921 0.07109 0.0
O296 O 0.80063 0.6705 0.05252 0.0
O297 O 0.78134 0.66241 0.03986 0.0
O298 O 0.80694 0.68221 0.08548 0.0
O299 O 0.75616 0.6639 0.06889 0.0
O300 O 0.77648 0.66468 0.08246 0.0
C301 C 0.79528 0.66336 0.04152 0.0
C302 C 0.77218 0.70519 0.05887 0.0
O303 O 0.78125 0.70021 0.06854 0.0
O304 O 0.76581 0.6964 0.04993 0.0
C305 C 0.81921 0.68807 0.08162 0.0
O306 O 0.82096 0.69258 0.06783 0.0
C307 C 0.76314 0.66027 0.08054 0.0
Zn308 Zn 0.32238 0.77704 0.05816 0.0
Zn309 Zn 0.31392 0.7976 0.07706 0.0
O310 O 0.321 0.80995 0.05888 0.0
O311 O 0.33118 0.7926 0.04488 0.0
O312 O 0.30882 0.81309 0.09236 0.0
O313 O 0.33519 0.76673 0.07308 0.0
O314 O 0.32989 0.7852 0.08821 0.0
C315 C 0.32833 0.80615 0.04737 0.0
C316 C 0.29098 0.77616 0.06435 0.0
O317 O 0.29423 0.78636 0.07364 0.0
O318 O 0.30097 0.77087 0.05594 0.0
C319 C 0.30262 0.82545 0.08944 0.0
O320 O 0.29886 0.8285 0.07566 0.0
C321 C 0.33686 0.77313 0.08548 0.0
Zn322 Zn 0.67139 0.22448 0.06173 0.0
Zn323 Zn 0.67725 0.20189 0.0781 0.0
O324 O 0.66964 0.19219 0.05865 0.0
O325 O 0.65974 0.21167 0.04771 0.0
O326 O 0.68002 0.18445 0.09178 0.0
O327 O 0.66103 0.23556 0.07815 0.0
O328 O 0.66178 0.21411 0.08988 0.0
C329 C 0.66194 0.19778 0.04815 0.0
C330 C 0.70238 0.2216 0.06716 0.0
O331 O 0.69792 0.21202 0.07662 0.0
O332 O 0.69323 0.22762 0.05834 0.0
C333 C 0.68833 0.17325 0.08944 0.0
O334 O 0.69643 0.17273 0.07729 0.0
C335 C 0.65729 0.22753 0.08905 0.0
Zn336 Zn 0.93604 0.77969 0.67642 0.0
Zn337 Zn 0.9175 0.80177 0.67844 0.0
O338 O 0.9366 0.81243 0.67102 0.0
O339 O 0.95031 0.79286 0.66562 0.0
O340 O 0.90221 0.818 0.67963 0.0
O341 O 0.92187 0.76719 0.66465 0.0
O342 O 0.90782 0.78717 0.6635 0.0
C343 C 0.94838 0.80679 0.66549 0.0
C344 C 0.92713 0.78489 0.70629 0.0
O345 O 0.91828 0.79398 0.69999 0.0
O346 O 0.93673 0.77796 0.69867 0.0
C347 C 0.90415 0.82993 0.68696 0.0
O348 O 0.9168 0.83206 0.69394 0.0
C349 C 0.91046 0.77376 0.65971 0.0
Zn350 Zn 0.22214 0.92826 0.67133 0.0
Zn351 Zn 0.19949 0.91194 0.67855 0.0
O352 O 0.18934 0.93108 0.67061 0.0
O353 O 0.20861 0.94249 0.66076 0.0
O354 O 0.18265 0.89801 0.6835 0.0
O355 O 0.23212 0.91175 0.66022 0.0
O356 O 0.21097 0.89966 0.66276 0.0
C357 C 0.19474 0.94179 0.66304 0.0
C358 C 0.22089 0.92328 0.70247 0.0
O359 O 0.21046 0.91446 0.69867 0.0
O360 O 0.22711 0.93139 0.69279 0.0
C361 C 0.1693 0.90181 0.68622 0.0
O362 O 0.1657 0.91597 0.68618 0.0
C363 C 0.22403 0.90063 0.65732 0.0
Zn364 Zn 0.06623 0.22537 0.65817 0.0
Zn365 Zn 0.08239 0.20307 0.66692 0.0
O366 O 0.06345 0.19272 0.65884 0.0
O367 O 0.052 0.21145 0.64808 0.0
O368 O 0.09587 0.18606 0.67244 0.0
O369 O 0.08291 0.23482 0.64689 0.0
O370 O 0.09541 0.21426 0.6514 0.0
C371 C 0.05273 0.1977 0.65101 0.0
C372 C 0.0701 0.22497 0.68977 0.0
O373 O 0.07891 0.21426 0.6868 0.0
O374 O 0.06279 0.23112 0.67944 0.0
C375 C 0.09153 0.17387 0.67813 0.0
O376 O 0.07734 0.17199 0.68108 0.0
C377 C 0.09439 0.22692 0.64509 0.0
Zn378 Zn 0.78016 0.05863 0.67886 0.0
Zn379 Zn 0.80017 0.07853 0.685 0.0
O380 O 0.81278 0.06041 0.6782 0.0
O381 O 0.7954 0.04595 0.66879 0.0
O382 O 0.81553 0.09439 0.68847 0.0
O383 O 0.768 0.07285 0.66672 0.0
O384 O 0.78683 0.08828 0.66898 0.0
C385 C 0.80898 0.04879 0.67105 0.0
C386 C 0.78104 0.06578 0.70978 0.0
O387 O 0.78978 0.076 0.7053 0.0
O388 O 0.77619 0.05614 0.70076 0.0
C389 C 0.82783 0.09196 0.695 0.0
O390 O 0.83063 0.07861 0.70023 0.0
C391 C 0.77419 0.08505 0.66342 0.0
Zn392 Zn 0.9265 0.22489 0.31084 0.0
Zn393 Zn 0.9099 0.20027 0.31321 0.0
O394 O 0.9308 0.19163 0.31591 0.0
O395 O 0.94462 0.21144 0.31171 0.0
O396 O 0.89663 0.18246 0.3148 0.0
O397 O 0.91692 0.23357 0.32913 0.0
O398 O 0.90275 0.2136 0.33044 0.0
C399 C 0.94351 0.19764 0.31436 0.0
C400 C 0.90846 0.21987 0.28528 0.0
O401 O 0.90521 0.20782 0.29198 0.0
O402 O 0.91696 0.22934 0.29124 0.0
C403 C 0.89941 0.17076 0.30739 0.0
O404 O 0.9113 0.17033 0.29891 0.0
C405 C 0.90658 0.22633 0.33535 0.0
Zn406 Zn 0.76368 0.93054 0.34487 0.0
Zn407 Zn 0.78604 0.9133 0.33738 0.0
O408 O 0.79602 0.93293 0.34362 0.0
O409 O 0.77771 0.94573 0.35354 0.0
O410 O 0.80351 0.89998 0.33323 0.0
O411 O 0.75429 0.91467 0.35741 0.0
O412 O 0.77439 0.90129 0.35328 0.0
C413 C 0.79136 0.94453 0.35029 0.0
C414 C 0.76476 0.92385 0.3134 0.0
O415 O 0.77542 0.91531 0.31718 0.0
O416 O 0.75835 0.93182 0.3231 0.0
C417 C 0.81135 0.9009 0.32151 0.0
O418 O 0.808 0.9109 0.3114 0.0
C419 C 0.7618 0.90299 0.35961 0.0
Zn420 Zn 0.05191 0.77046 0.32478 0.0
Zn421 Zn 0.07092 0.78994 0.31527 0.0
O422 O 0.05174 0.802 0.31998 0.0
O423 O 0.03814 0.78609 0.3326 0.0
O424 O 0.08597 0.80554 0.30957 0.0
O425 O 0.06666 0.76064 0.3382 0.0
O426 O 0.08175 0.77896 0.33238 0.0
C427 C 0.0401 0.79907 0.32755 0.0
C428 C 0.05899 0.76716 0.29372 0.0
O429 O 0.06883 0.77692 0.29663 0.0
O430 O 0.04971 0.76326 0.30358 0.0
C431 C 0.08285 0.8175 0.30271 0.0
O432 O 0.06903 0.82004 0.29868 0.0
C433 C 0.07899 0.7672 0.33981 0.0
Zn434 Zn 0.21445 0.05546 0.31636 0.0
Zn435 Zn 0.19308 0.07394 0.3101 0.0
O436 O 0.18168 0.05521 0.31759 0.0
O437 O 0.20012 0.04164 0.32622 0.0
O438 O 0.1771 0.08933 0.30654 0.0
O439 O 0.2258 0.0701 0.3285 0.0
O440 O 0.20647 0.08478 0.32554 0.0
C441 C 0.18632 0.04364 0.32436 0.0
C442 C 0.21286 0.06198 0.28525 0.0
O443 O 0.20295 0.07121 0.28949 0.0
O444 O 0.21892 0.05339 0.29461 0.0
C445 C 0.16368 0.08646 0.30312 0.0
O446 O 0.15954 0.07255 0.30139 0.0
C447 C 0.21919 0.0822 0.33128 0.0
Zn448 Zn 0.67921 0.93737 0.77879 0.0
Zn449 Zn 0.68214 0.91924 0.80061 0.0
O450 O 0.67417 0.93837 0.81101 0.0
O451 O 0.66728 0.95119 0.79135 0.0
O452 O 0.68329 0.90426 0.81723 0.0
O453 O 0.66855 0.92262 0.76597 0.0
O454 O 0.66744 0.90895 0.7862 0.0
C455 C 0.66769 0.94963 0.80531 0.0
C456 C 0.70945 0.93009 0.78371 0.0
O457 O 0.70365 0.92047 0.79236 0.0
O458 O 0.70136 0.9397 0.77739 0.0
C459 C 0.69296 0.9044 0.82753 0.0
O460 O 0.7031 0.91492 0.82767 0.0
C461 C 0.66382 0.9112 0.77267 0.0
Zn462 Zn 0.05903 0.6722 0.77727 0.0
Zn463 Zn 0.07744 0.67874 0.79805 0.0
O464 O 0.05827 0.6721 0.80919 0.0
O465 O 0.04553 0.66147 0.79127 0.0
O466 O 0.09215 0.68212 0.81459 0.0
O467 O 0.07399 0.66078 0.76545 0.0
O468 O 0.08838 0.66317 0.78505 0.0
C469 C 0.04706 0.66455 0.8049 0.0
C470 C 0.06533 0.70335 0.77866 0.0
O471 O 0.07538 0.69909 0.78768 0.0
O472 O 0.05605 0.69411 0.7735 0.0
C473 C 0.09084 0.69233 0.82428 0.0
O474 O 0.07943 0.70143 0.82356 0.0
C475 C 0.08598 0.6578 0.77214 0.0
Zn476 Zn 0.31963 0.05461 0.7656 0.0
Zn477 Zn 0.3138 0.07053 0.78929 0.0
O478 O 0.32251 0.05117 0.79824 0.0
O479 O 0.33047 0.03976 0.77812 0.0
O480 O 0.31119 0.08359 0.80725 0.0
O481 O 0.33101 0.07097 0.75572 0.0
O482 O 0.3283 0.0832 0.7767 0.0
C483 C 0.32939 0.04039 0.79213 0.0
C484 C 0.28838 0.0601 0.76951 0.0
O485 O 0.29281 0.06834 0.78015 0.0
O486 O 0.29767 0.05252 0.76211 0.0
C487 C 0.29944 0.08489 0.815 0.0
O488 O 0.28755 0.07719 0.81143 0.0
C489 C 0.3337 0.08227 0.76362 0.0
Zn490 Zn 0.93149 0.31847 0.77146 0.0
Zn491 Zn 0.91277 0.31188 0.79201 0.0
O492 O 0.93074 0.32028 0.8038 0.0
O493 O 0.94367 0.33041 0.78569 0.0
O494 O 0.89759 0.30775 0.8079 0.0
O495 O 0.91627 0.32875 0.75888 0.0
O496 O 0.90166 0.32679 0.77839 0.0
C497 C 0.94164 0.32822 0.79943 0.0
C498 C 0.92708 0.28725 0.77394 0.0
O499 O 0.91653 0.29137 0.78246 0.0
O500 O 0.93598 0.29674 0.76858 0.0
C501 C 0.9009 0.30169 0.82023 0.0
O502 O 0.91473 0.29767 0.82273 0.0
C503 C 0.90415 0.33178 0.76534 0.0
Zn504 Zn 0.67409 0.05924 0.21551 0.0
Zn505 Zn 0.67759 0.07682 0.1932 0.0
O506 O 0.67159 0.05704 0.18291 0.0
O507 O 0.66385 0.04442 0.20238 0.0
O508 O 0.67991 0.09171 0.17663 0.0
O509 O 0.66229 0.07413 0.22716 0.0
O510 O 0.6614 0.08687 0.20628 0.0
C511 C 0.66545 0.04553 0.18845 0.0
C512 C 0.70429 0.06756 0.21197 0.0
O513 O 0.69859 0.07646 0.20253 0.0
O514 O 0.69619 0.05803 0.21842 0.0
C515 C 0.6842 0.08883 0.16347 0.0
O516 O 0.68732 0.07505 0.15977 0.0
C517 C 0.65735 0.085 0.21975 0.0
Zn518 Zn 0.93536 0.69032 0.2075 0.0
Zn519 Zn 0.91714 0.68689 0.18422 0.0
O520 O 0.93767 0.68293 0.17471 0.0
O521 O 0.95253 0.68545 0.19406 0.0
O522 O 0.90286 0.68482 0.1672 0.0
O523 O 0.92384 0.67419 0.21854 0.0
O524 O 0.91057 0.67029 0.19831 0.0
C525 C 0.95066 0.68281 0.18037 0.0
C526 C 0.9187 0.71646 0.20172 0.0
O527 O 0.91255 0.70813 0.19205 0.0
O528 O 0.92936 0.71162 0.2095 0.0
C529 C 0.90174 0.69487 0.15733 0.0
O530 O 0.91038 0.70663 0.15811 0.0
C531 C 0.91391 0.66695 0.21166 0.0
Zn532 Zn 0.32013 0.93405 0.21925 0.0
Zn533 Zn 0.31437 0.9172 0.19647 0.0
O534 O 0.32221 0.93643 0.18653 0.0
O535 O 0.33087 0.94845 0.20597 0.0
O536 O 0.31154 0.90316 0.17934 0.0
O537 O 0.3312 0.91806 0.23009 0.0
O538 O 0.32941 0.90534 0.20927 0.0
C539 C 0.32917 0.94748 0.19203 0.0
C540 C 0.28897 0.92818 0.21601 0.0
O541 O 0.29345 0.91937 0.20584 0.0
O542 O 0.2982 0.93636 0.22279 0.0
C543 C 0.30089 0.90336 0.17007 0.0
O544 O 0.29048 0.91355 0.17129 0.0
C545 C 0.33435 0.90668 0.22248 0.0
Zn546 Zn 0.0608 0.32254 0.21445 0.0
Zn547 Zn 0.08061 0.31554 0.19467 0.0
O548 O 0.06196 0.3215 0.18239 0.0
O549 O 0.04761 0.33194 0.19919 0.0
O550 O 0.09614 0.31168 0.17902 0.0
O551 O 0.0751 0.33506 0.22608 0.0
O552 O 0.09071 0.33173 0.20756 0.0
C553 C 0.05017 0.32862 0.18577 0.0
C554 C 0.06817 0.29143 0.21452 0.0
O555 O 0.07836 0.29555 0.20559 0.0
O556 O 0.05857 0.30066 0.21912 0.0
C557 C 0.09344 0.30498 0.16687 0.0
O558 O 0.07996 0.29991 0.16436 0.0
C559 C 0.08747 0.33779 0.21997 0.0
Zn560 Zn 0.77157 0.66598 0.93423 0.0
Zn561 Zn 0.79145 0.67325 0.91451 0.0
O562 O 0.804 0.66632 0.93246 0.0
O563 O 0.78709 0.65538 0.94634 0.0
O564 O 0.80691 0.67773 0.89913 0.0
O565 O 0.75953 0.6545 0.91929 0.0
O566 O 0.77834 0.65762 0.90398 0.0
C567 C 0.80056 0.65845 0.94371 0.0
C568 C 0.77254 0.69739 0.92822 0.0
O569 O 0.78112 0.6933 0.91773 0.0
O570 O 0.76775 0.68798 0.93755 0.0
C571 C 0.81838 0.68538 0.90222 0.0
O572 O 0.82002 0.69067 0.91573 0.0
C573 C 0.76572 0.65185 0.90694 0.0
Zn574 Zn 0.76838 0.33792 0.05883 0.0
Zn575 Zn 0.7902 0.33007 0.07675 0.0
O576 O 0.80126 0.33674 0.05769 0.0
O577 O 0.78311 0.34582 0.04403 0.0
O578 O 0.8068 0.32526 0.09087 0.0
O579 O 0.75935 0.3515 0.07401 0.0
O580 O 0.77828 0.34599 0.08847 0.0
C581 C 0.79682 0.3432 0.04588 0.0
C582 C 0.76846 0.30652 0.06593 0.0
O583 O 0.77931 0.3101 0.07429 0.0
O584 O 0.76219 0.31631 0.05796 0.0
C585 C 0.81777 0.31717 0.08711 0.0
O586 O 0.81828 0.31165 0.07359 0.0
C587 C 0.76626 0.35317 0.08615 0.0
Zn588 Zn 0.66368 0.78219 0.05552 0.0
Zn589 Zn 0.67313 0.80116 0.07517 0.0
O590 O 0.66649 0.8144 0.05745 0.0
O591 O 0.65456 0.79842 0.0433 0.0
O592 O 0.67833 0.81603 0.09104 0.0
O593 O 0.65135 0.77075 0.06996 0.0
O594 O 0.65751 0.78803 0.0861 0.0
C595 C 0.65851 0.81161 0.04608 0.0
C596 C 0.69541 0.78058 0.06069 0.0
O597 O 0.69263 0.79006 0.07084 0.0
O598 O 0.68506 0.77609 0.05225 0.0
C599 C 0.68936 0.82484 0.09041 0.0
O600 O 0.69826 0.82438 0.07882 0.0
C601 C 0.65036 0.7762 0.08288 0.0
Zn602 Zn 0.21494 0.67052 0.06236 0.0
Zn603 Zn 0.1943 0.67648 0.08135 0.0
O604 O 0.18259 0.66958 0.06273 0.0
O605 O 0.20045 0.65953 0.04941 0.0
O606 O 0.1785 0.68012 0.09681 0.0
O607 O 0.22732 0.6597 0.07753 0.0
O608 O 0.20743 0.66069 0.09178 0.0
C609 C 0.18677 0.6622 0.05138 0.0
C610 C 0.21303 0.70149 0.06859 0.0
O611 O 0.20446 0.69693 0.07891 0.0
O612 O 0.21811 0.69245 0.05908 0.0
C613 C 0.16525 0.68413 0.09393 0.0
O614 O 0.1613 0.68642 0.08006 0.0
C615 C 0.2206 0.65602 0.08932 0.0
Zn616 Zn 0.32769 0.22026 0.05359 0.0
Zn617 Zn 0.31767 0.1999 0.07219 0.0
O618 O 0.32485 0.18781 0.05397 0.0
O619 O 0.33605 0.20455 0.04011 0.0
O620 O 0.3117 0.18426 0.087 0.0
O621 O 0.34032 0.22995 0.06913 0.0
O622 O 0.33309 0.21207 0.08418 0.0
C623 C 0.33234 0.19117 0.04241 0.0
C624 C 0.2959 0.22189 0.05891 0.0
O625 O 0.29843 0.21145 0.06814 0.0
O626 O 0.30641 0.22708 0.05107 0.0
C627 C 0.30571 0.17193 0.08354 0.0
O628 O 0.30282 0.16906 0.06951 0.0
C629 C 0.34072 0.22378 0.08176 0.0
Zn630 Zn 0.22465 0.31785 0.92202 0.0
Zn631 Zn 0.19989 0.31873 0.90579 0.0
O632 O 0.19133 0.3226 0.92661 0.0
O633 O 0.21145 0.31932 0.94025 0.0
O634 O 0.182 0.31885 0.89253 0.0
O635 O 0.23272 0.33584 0.91146 0.0
O636 O 0.21278 0.33574 0.89723 0.0
C637 C 0.1976 0.32175 0.93926 0.0
C638 C 0.22013 0.29112 0.90586 0.0
O639 O 0.20787 0.29737 0.90251 0.0
O640 O 0.2297 0.29784 0.91365 0.0
C641 C 0.17162 0.30944 0.89443 0.0
O642 O 0.1725 0.29999 0.90554 0.0
C643 C 0.2254 0.34121 0.90071 0.0
Zn644 Zn 0.66626 0.2202 0.93642 0.0
Zn645 Zn 0.67435 0.19909 0.91814 0.0
O646 O 0.66737 0.1875 0.93675 0.0
O647 O 0.65672 0.20519 0.94991 0.0
O648 O 0.67832 0.18295 0.90331 0.0
O649 O 0.65398 0.23083 0.92128 0.0
O650 O 0.65888 0.21182 0.90672 0.0
C651 C 0.65978 0.1916 0.94799 0.0
C652 C 0.69794 0.21966 0.93041 0.0
O653 O 0.69447 0.20951 0.92116 0.0
O654 O 0.68802 0.22539 0.93863 0.0
C655 C 0.68796 0.17272 0.90476 0.0
O656 O 0.69643 0.17247 0.91666 0.0
C657 C 0.65227 0.22416 0.90904 0.0
Zn658 Zn 0.32786 0.77011 0.93778 0.0
Zn659 Zn 0.32222 0.79176 0.91893 0.0
O660 O 0.32959 0.80312 0.93755 0.0
O661 O 0.338 0.7847 0.95128 0.0
O662 O 0.31906 0.80769 0.90363 0.0
O663 O 0.33988 0.75866 0.92275 0.0
O664 O 0.33737 0.77819 0.90827 0.0
C665 C 0.33625 0.79851 0.94917 0.0
C666 C 0.29671 0.77324 0.93091 0.0
O667 O 0.30145 0.78258 0.92139 0.0
O668 O 0.30564 0.76693 0.93979 0.0
C669 C 0.31337 0.82035 0.90628 0.0
O670 O 0.30913 0.82362 0.91987 0.0
C671 C 0.34288 0.76536 0.91075 0.0
Zn672 Zn 0.55679 0.71882 0.82177 0.0
Zn673 Zn 0.57594 0.69919 0.81332 0.0
O674 O 0.55692 0.68718 0.81879 0.0
O675 O 0.54339 0.70356 0.83085 0.0
O676 O 0.59115 0.68345 0.80838 0.0
O677 O 0.57148 0.72981 0.83432 0.0
O678 O 0.58668 0.71121 0.8298 0.0
C679 C 0.54539 0.69037 0.82642 0.0
C680 C 0.56344 0.72041 0.79056 0.0
O681 O 0.5736 0.71115 0.79399 0.0
O682 O 0.55409 0.7246 0.80022 0.0
C683 C 0.58806 0.6712 0.80203 0.0
O684 O 0.57426 0.66846 0.79808 0.0
C685 C 0.58383 0.72343 0.83641 0.0
Zn686 Zn 0.26917 0.55561 0.83898 0.0
Zn687 Zn 0.28938 0.57507 0.82989 0.0
O688 O 0.30172 0.557 0.83661 0.0
O689 O 0.28524 0.5422 0.84697 0.0
O690 O 0.30497 0.59006 0.82445 0.0
O691 O 0.25918 0.57072 0.85196 0.0
O692 O 0.27685 0.58636 0.84546 0.0
C693 C 0.2986 0.54504 0.84355 0.0
C694 C 0.26804 0.56201 0.80734 0.0
O695 O 0.2783 0.57129 0.81039 0.0
O696 O 0.26271 0.55379 0.81748 0.0
C697 C 0.31601 0.58677 0.81626 0.0
O698 O 0.31719 0.5732 0.81095 0.0
C699 C 0.2651 0.58345 0.85286 0.0
Zn700 Zn 0.43481 0.2689 0.8318 0.0
Zn701 Zn 0.41697 0.29073 0.82586 0.0
O702 O 0.43601 0.30128 0.83325 0.0
O703 O 0.44851 0.28264 0.84291 0.0
O704 O 0.4028 0.30754 0.82217 0.0
O705 O 0.41872 0.25749 0.84245 0.0
O706 O 0.40546 0.27802 0.84117 0.0
C707 C 0.44717 0.29645 0.84051 0.0
C708 C 0.42908 0.27189 0.80068 0.0
O709 O 0.41925 0.28101 0.80523 0.0
O710 O 0.438 0.26594 0.80978 0.0
C711 C 0.40655 0.31932 0.81533 0.0
O712 O 0.42022 0.32066 0.81034 0.0
C713 C 0.40718 0.26476 0.84587 0.0
Zn714 Zn 0.71867 0.43499 0.82478 0.0
Zn715 Zn 0.69828 0.41584 0.81733 0.0
O716 O 0.68614 0.4343 0.82412 0.0
O717 O 0.70349 0.44811 0.83443 0.0
O718 O 0.68264 0.40054 0.81273 0.0
O719 O 0.72988 0.42006 0.83699 0.0
O720 O 0.71099 0.405 0.83319 0.0
C721 C 0.68993 0.44584 0.83144 0.0
C722 C 0.71838 0.42876 0.7935 0.0
O723 O 0.70912 0.41876 0.79736 0.0
O724 O 0.72346 0.4378 0.80302 0.0
C725 C 0.67049 0.4035 0.80615 0.0
O726 O 0.66783 0.41722 0.80187 0.0
C727 C 0.72345 0.40778 0.83939 0.0
Zn728 Zn 0.55381 0.27122 0.17275 0.0
Zn729 Zn 0.56977 0.29343 0.1821 0.0
O730 O 0.55096 0.30379 0.17388 0.0
O731 O 0.53993 0.28528 0.16233 0.0
O732 O 0.58278 0.31054 0.1882 0.0
O733 O 0.57095 0.26194 0.16201 0.0
O734 O 0.58314 0.28264 0.16674 0.0
C735 C 0.54054 0.29897 0.16557 0.0
C736 C 0.55739 0.27098 0.20431 0.0
O737 O 0.56631 0.28167 0.20155 0.0
O738 O 0.5499 0.26523 0.19388 0.0
C739 C 0.58661 0.31973 0.17817 0.0
O740 O 0.58162 0.31782 0.16458 0.0
C741 C 0.58239 0.26995 0.16047 0.0
Zn742 Zn 0.71622 0.55559 0.16189 0.0
Zn743 Zn 0.69811 0.57463 0.17471 0.0
O744 O 0.68516 0.55595 0.17058 0.0
O745 O 0.69958 0.54164 0.15699 0.0
O746 O 0.68351 0.59 0.18212 0.0
O747 O 0.72356 0.57024 0.14696 0.0
O748 O 0.70767 0.58588 0.157 0.0
C749 C 0.68713 0.54409 0.16307 0.0
C750 C 0.72375 0.56233 0.19264 0.0
O751 O 0.7129 0.57143 0.19185 0.0
O752 O 0.72688 0.55412 0.18162 0.0
C753 C 0.67085 0.58714 0.18777 0.0
O754 O 0.66689 0.57322 0.18979 0.0
C755 C 0.71769 0.583 0.14737 0.0
Zn756 Zn 0.43801 0.72288 0.1702 0.0
Zn757 Zn 0.42037 0.70024 0.17584 0.0
O758 O 0.43929 0.68997 0.1677 0.0
O759 O 0.45232 0.70918 0.15992 0.0
O760 O 0.40614 0.68327 0.17849 0.0
O761 O 0.42243 0.73367 0.15842 0.0
O762 O 0.40862 0.7137 0.16136 0.0
C763 C 0.45071 0.69525 0.16116 0.0
C764 C 0.43143 0.71929 0.20143 0.0
O765 O 0.42275 0.70909 0.19681 0.0
O766 O 0.43957 0.7263 0.19232 0.0
C767 C 0.40655 0.67398 0.18912 0.0
O768 O 0.41689 0.67524 0.19937 0.0
C769 C 0.41052 0.72664 0.15587 0.0
Zn770 Zn 0.27353 0.44048 0.16703 0.0
Zn771 Zn 0.29454 0.42227 0.17543 0.0
O772 O 0.30645 0.44035 0.1673 0.0
O773 O 0.28852 0.45367 0.15731 0.0
O774 O 0.3101 0.4071 0.18095 0.0
O775 O 0.26295 0.42512 0.15509 0.0
O776 O 0.28185 0.41045 0.16017 0.0
C777 C 0.30222 0.45162 0.15979 0.0
C778 C 0.27353 0.43571 0.19849 0.0
O779 O 0.28375 0.42643 0.19526 0.0
O780 O 0.26779 0.44364 0.18837 0.0
C781 C 0.32339 0.41007 0.18477 0.0
O782 O 0.32772 0.424 0.18547 0.0
C783 C 0.26951 0.41279 0.15355 0.0
Zn784 Zn 0.82306 0.56333 0.71866 0.0
Zn785 Zn 0.81846 0.58127 0.69622 0.0
O786 O 0.82536 0.56171 0.68589 0.0
O787 O 0.83278 0.54859 0.70517 0.0
O788 O 0.81586 0.5959 0.67944 0.0
O789 O 0.83566 0.57819 0.72949 0.0
O790 O 0.83406 0.59204 0.70941 0.0
C791 C 0.83145 0.55008 0.69125 0.0
C792 C 0.79238 0.57124 0.71538 0.0
O793 O 0.79749 0.58008 0.70556 0.0
O794 O 0.80093 0.5623 0.72208 0.0
C795 C 0.81128 0.59256 0.66649 0.0
O796 O 0.80785 0.57868 0.66347 0.0
C797 C 0.83933 0.58976 0.72239 0.0
Zn798 Zn 0.43503 0.80732 0.7125 0.0
Zn799 Zn 0.41643 0.80886 0.68937 0.0
O800 O 0.4366 0.81403 0.67967 0.0
O801 O 0.45169 0.81359 0.699 0.0
O802 O 0.4022 0.80964 0.67225 0.0
O803 O 0.4221 0.82224 0.72356 0.0
O804 O 0.40825 0.82478 0.70351 0.0
C805 C 0.44953 0.81552 0.68523 0.0
C806 C 0.42067 0.77967 0.70682 0.0
O807 O 0.41372 0.78735 0.69715 0.0
O808 O 0.43089 0.78552 0.71452 0.0
C809 C 0.40259 0.79986 0.66207 0.0
O810 O 0.41264 0.78927 0.66273 0.0
C811 C 0.41136 0.8284 0.71684 0.0
Zn812 Zn 0.1805 0.42721 0.72722 0.0
Zn813 Zn 0.17873 0.41196 0.70174 0.0
O814 O 0.17655 0.43329 0.69424 0.0
O815 O 0.18027 0.4461 0.71479 0.0
O816 O 0.17766 0.40015 0.68298 0.0
O817 O 0.1618 0.41733 0.73466 0.0
O818 O 0.16105 0.40412 0.71402 0.0
C819 C 0.17804 0.44568 0.70088 0.0
C820 C 0.20604 0.40905 0.72201 0.0
O821 O 0.19965 0.40655 0.70963 0.0
O822 O 0.19988 0.41713 0.73174 0.0
C823 C 0.18773 0.40202 0.67325 0.0
O824 O 0.19834 0.41175 0.67576 0.0
C825 C 0.15575 0.40737 0.72676 0.0
Zn826 Zn 0.56315 0.17653 0.7139 0.0
Zn827 Zn 0.58216 0.17992 0.69283 0.0
O828 O 0.56316 0.17348 0.68158 0.0
O829 O 0.5497 0.16507 0.70021 0.0
O830 O 0.59739 0.18115 0.67659 0.0
O831 O 0.57776 0.1658 0.72703 0.0
O832 O 0.59156 0.16431 0.70688 0.0
C833 C 0.55171 0.16669 0.68639 0.0
C834 C 0.57119 0.2069 0.70967 0.0
O835 O 0.58127 0.20115 0.70155 0.0
O836 O 0.56112 0.19882 0.71529 0.0
C837 C 0.59626 0.18978 0.66546 0.0
O838 O 0.58473 0.1987 0.66446 0.0
C839 C 0.58908 0.16076 0.72038 0.0
Zn840 Zn 0.82477 0.42195 0.26576 0.0
Zn841 Zn 0.82616 0.40754 0.29108 0.0
O842 O 0.82993 0.42912 0.29791 0.0
O843 O 0.82485 0.44126 0.27724 0.0
O844 O 0.82674 0.39578 0.31006 0.0
O845 O 0.84375 0.41252 0.25863 0.0
O846 O 0.84301 0.39819 0.27844 0.0
C847 C 0.82807 0.4413 0.29095 0.0
C848 C 0.79869 0.40503 0.27099 0.0
O849 O 0.80479 0.40324 0.28363 0.0
O850 O 0.80542 0.41197 0.26078 0.0
C851 C 0.81647 0.39746 0.31963 0.0
O852 O 0.80594 0.40729 0.31712 0.0
C853 C 0.84894 0.40173 0.26604 0.0
Zn854 Zn 0.55851 0.82564 0.27111 0.0
Zn855 Zn 0.57656 0.8171 0.29238 0.0
O856 O 0.5582 0.82491 0.30383 0.0
O857 O 0.54528 0.83569 0.28607 0.0
O858 O 0.5909 0.81195 0.30869 0.0
O859 O 0.57435 0.83729 0.26074 0.0
O860 O 0.58868 0.83222 0.27989 0.0
C861 C 0.54718 0.83276 0.29969 0.0
C862 C 0.56355 0.79392 0.2716 0.0
O863 O 0.57284 0.79722 0.28176 0.0
O864 O 0.55555 0.80399 0.26583 0.0
C865 C 0.58699 0.80469 0.32017 0.0
O866 O 0.57317 0.80008 0.32136 0.0
C867 C 0.5866 0.83876 0.26747 0.0
Zn868 Zn 0.17682 0.55078 0.28305 0.0
Zn869 Zn 0.18293 0.57222 0.30189 0.0
O870 O 0.177 0.55475 0.31578 0.0
O871 O 0.16912 0.53811 0.29962 0.0
O872 O 0.18646 0.58914 0.31613 0.0
O873 O 0.16294 0.56351 0.27127 0.0
O874 O 0.1663 0.58072 0.28833 0.0
C875 C 0.17111 0.5422 0.31292 0.0
C876 C 0.20741 0.5597 0.28189 0.0
O877 O 0.20311 0.56952 0.29118 0.0
O878 O 0.19836 0.54996 0.27728 0.0
C879 C 0.19313 0.58746 0.32848 0.0
O880 O 0.19831 0.57428 0.33205 0.0
C881 C 0.15996 0.57623 0.27646 0.0
Zn882 Zn 0.42689 0.17305 0.27309 0.0
Zn883 Zn 0.40985 0.17484 0.29645 0.0
O884 O 0.42961 0.16646 0.30516 0.0
O885 O 0.44185 0.16139 0.28458 0.0
O886 O 0.39602 0.17525 0.31405 0.0
O887 O 0.41146 0.16218 0.26122 0.0
O888 O 0.39852 0.161 0.28194 0.0
C889 C 0.44087 0.16086 0.2986 0.0
C890 C 0.41932 0.20303 0.2802 0.0
O891 O 0.41066 0.19675 0.28949 0.0
O892 O 0.4282 0.19538 0.27242 0.0
C893 C 0.397 0.18459 0.32462 0.0
O894 O 0.40764 0.1946 0.32435 0.0
C895 C 0.4002 0.15755 0.26827 0.0
Zn896 Zn 0.71551 0.82183 0.56007 0.0
Zn897 Zn 0.697 0.81299 0.58045 0.0
O898 O 0.68386 0.81781 0.56209 0.0
O899 O 0.69913 0.82975 0.54722 0.0
O900 O 0.68211 0.80805 0.59645 0.0
O901 O 0.72642 0.83535 0.57399 0.0
O902 O 0.70888 0.83013 0.5902 0.0
C903 C 0.68618 0.82512 0.55017 0.0
C904 C 0.71844 0.79071 0.5674 0.0
O905 O 0.70942 0.79396 0.57783 0.0
O906 O 0.72201 0.8004 0.55781 0.0
C907 C 0.66962 0.8019 0.59398 0.0
O908 O 0.66618 0.79792 0.58035 0.0
C909 C 0.72055 0.83735 0.58661 0.0
Zn910 Zn 0.71705 0.17211 0.43319 0.0
Zn911 Zn 0.69598 0.17854 0.41389 0.0
O912 O 0.68411 0.17221 0.43269 0.0
O913 O 0.70194 0.16353 0.44709 0.0
O914 O 0.68005 0.18195 0.39857 0.0
O915 O 0.7276 0.15872 0.41875 0.0
O916 O 0.70861 0.1622 0.40377 0.0
C917 C 0.68829 0.16575 0.44458 0.0
C918 C 0.71644 0.20305 0.42503 0.0
O919 O 0.70673 0.19877 0.41565 0.0
O920 O 0.72195 0.19397 0.43427 0.0
C921 C 0.66767 0.18819 0.40132 0.0
O922 O 0.66502 0.19321 0.41478 0.0
C923 C 0.72094 0.15585 0.40671 0.0
Zn924 Zn 0.81272 0.71573 0.42344 0.0
Zn925 Zn 0.81453 0.6912 0.40748 0.0
O926 O 0.81825 0.68308 0.42862 0.0
O927 O 0.81327 0.70304 0.44195 0.0
O928 O 0.81681 0.67328 0.3943 0.0
O929 O 0.83131 0.7243 0.41448 0.0
O930 O 0.83091 0.70513 0.39931 0.0
C931 C 0.81648 0.68935 0.44119 0.0
C932 C 0.78668 0.71064 0.40604 0.0
O933 O 0.79294 0.6982 0.4034 0.0
O934 O 0.79324 0.72044 0.41369 0.0
C935 C 0.80672 0.66352 0.39263 0.0
O936 O 0.7942 0.66482 0.40007 0.0
C937 C 0.83655 0.71751 0.40332 0.0
Zn938 Zn 0.26839 0.82243 0.42935 0.0
Zn939 Zn 0.29069 0.81793 0.41164 0.0
O940 O 0.30074 0.82613 0.43075 0.0
O941 O 0.28126 0.83395 0.44332 0.0
O942 O 0.30775 0.81543 0.39745 0.0
O943 O 0.25663 0.83326 0.41382 0.0
O944 O 0.27687 0.83234 0.40013 0.0
C945 C 0.29522 0.83286 0.44194 0.0
C946 C 0.27309 0.79158 0.42326 0.0
O947 O 0.2823 0.79669 0.4138 0.0
O948 O 0.2663 0.80027 0.43201 0.0
C949 C 0.31964 0.80855 0.40082 0.0
O950 O 0.32097 0.8027 0.41414 0.0
C951 C 0.26355 0.83682 0.4021 0.0
Zn952 Zn 0.16916 0.27761 0.43674 0.0
Zn953 Zn 0.17632 0.29669 0.41655 0.0
O954 O 0.171 0.30937 0.43502 0.0
O955 O 0.15979 0.29326 0.44954 0.0
O956 O 0.17987 0.3121 0.40081 0.0
O957 O 0.15665 0.26548 0.42289 0.0
O958 O 0.16002 0.28371 0.40694 0.0
C959 C 0.1637 0.30649 0.44682 0.0
C960 C 0.20029 0.27705 0.42913 0.0
O961 O 0.19619 0.28565 0.41866 0.0
O962 O 0.19107 0.27294 0.43897 0.0
C963 C 0.18952 0.32235 0.40201 0.0
O964 O 0.19798 0.32284 0.41391 0.0
C965 C 0.15395 0.27136 0.41041 0.0
Zn966 Zn 0.27512 0.1796 0.56958 0.0
Zn967 Zn 0.30032 0.17547 0.58448 0.0
O968 O 0.30728 0.17166 0.56297 0.0
O969 O 0.28692 0.17741 0.55058 0.0
O970 O 0.31884 0.17306 0.59671 0.0
O971 O 0.26556 0.1623 0.57994 0.0
O972 O 0.28609 0.15948 0.59303 0.0
C973 C 0.30047 0.17357 0.55071 0.0
C974 C 0.28301 0.20494 0.58657 0.0
O975 O 0.29465 0.19734 0.58923 0.0
O976 O 0.27261 0.19963 0.57875 0.0
C977 C 0.32962 0.18204 0.59491 0.0
O978 O 0.32867 0.19228 0.58453 0.0
C979 C 0.27275 0.15566 0.59004 0.0
Zn980 Zn 0.82173 0.27618 0.55964 0.0
Zn981 Zn 0.81442 0.29609 0.57847 0.0
O982 O 0.82239 0.3083 0.56045 0.0
O983 O 0.83321 0.29068 0.54745 0.0
O984 O 0.80947 0.31174 0.59374 0.0
O985 O 0.83237 0.26375 0.57465 0.0
O986 O 0.82978 0.2829 0.58962 0.0
C987 C 0.8305 0.30431 0.54953 0.0
C988 C 0.79058 0.27686 0.56415 0.0
O989 O 0.79439 0.28546 0.57475 0.0
O990 O 0.80024 0.27223 0.55502 0.0
C991 C 0.80361 0.32417 0.59042 0.0
O992 O 0.80034 0.32704 0.57648 0.0
C993 C 0.83513 0.27003 0.58692 0.0
Zn994 Zn 0.16541 0.71032 0.55577 0.0
Zn995 Zn 0.17457 0.69159 0.57561 0.0
O996 O 0.16799 0.67811 0.55805 0.0
O997 O 0.15609 0.69403 0.5438 0.0
O998 O 0.17938 0.67689 0.59176 0.0
O999 O 0.15315 0.72219 0.56987 0.0
O1000 O 0.15874 0.70482 0.58614 0.0
C1001 C 0.15996 0.68084 0.54671 0.0
C1002 C 0.19706 0.71192 0.56097 0.0
O1003 O 0.1942 0.70262 0.5713 0.0
O1004 O 0.18677 0.71623 0.55237 0.0
C1005 C 0.18949 0.66704 0.591 0.0
O1006 O 0.1979 0.6663 0.57907 0.0
C1007 C 0.15181 0.71674 0.58275 0.0
Zn1008 Zn 0.43002 0.27816 0.17582 0.0
Zn1009 Zn 0.41075 0.29875 0.18183 0.0
O1010 O 0.42943 0.31069 0.17539 0.0
O1011 O 0.4436 0.29295 0.16624 0.0
O1012 O 0.39538 0.31477 0.18462 0.0
O1013 O 0.41597 0.26642 0.16331 0.0
O1014 O 0.40073 0.28537 0.16588 0.0
C1015 C 0.44114 0.30659 0.16854 0.0
C1016 C 0.42239 0.27927 0.20683 0.0
O1017 O 0.41281 0.28875 0.20243 0.0
O1018 O 0.4316 0.2738 0.19768 0.0
C1019 C 0.39739 0.32614 0.19277 0.0
O1020 O 0.40987 0.32744 0.20025 0.0
C1021 C 0.40382 0.27274 0.16017 0.0
Zn1022 Zn 0.71432 0.43341 0.19201 0.0
Zn1023 Zn 0.69196 0.41384 0.1904 0.0
O1024 O 0.68117 0.43408 0.18805 0.0
O1025 O 0.69975 0.45004 0.18947 0.0
O1026 O 0.67541 0.39899 0.18835 0.0
O1027 O 0.72446 0.4235 0.17437 0.0
O1028 O 0.70551 0.40807 0.17302 0.0
C1029 C 0.686 0.4474 0.18807 0.0
C1030 C 0.71165 0.41545 0.21821 0.0
O1031 O 0.70133 0.40904 0.21089 0.0
O1032 O 0.71856 0.4264 0.2127 0.0
C1033 C 0.66492 0.39764 0.19772 0.0
O1034 O 0.66472 0.40625 0.20952 0.0
C1035 C 0.71802 0.41262 0.16815 0.0
Zn1036 Zn 0.55942 0.71357 0.17029 0.0
Zn1037 Zn 0.57905 0.69405 0.17635 0.0
O1038 O 0.56071 0.68162 0.16961 0.0
O1039 O 0.54713 0.69894 0.15897 0.0
O1040 O 0.59481 0.6785 0.17965 0.0
O1041 O 0.57361 0.72675 0.15937 0.0
O1042 O 0.58909 0.70789 0.16079 0.0
C1043 C 0.5495 0.68538 0.16181 0.0
C1044 C 0.56566 0.71221 0.2013 0.0
O1045 O 0.57637 0.70409 0.19679 0.0
O1046 O 0.55588 0.71668 0.19221 0.0
C1047 C 0.59403 0.66864 0.18974 0.0
O1048 O 0.58251 0.66852 0.19874 0.0
C1049 C 0.58589 0.72084 0.15593 0.0
Zn1050 Zn 0.2807 0.56052 0.1745 0.0
Zn1051 Zn 0.30117 0.57984 0.17997 0.0
O1052 O 0.31317 0.56137 0.17329 0.0
O1053 O 0.29538 0.54792 0.16323 0.0
O1054 O 0.3168 0.5954 0.1833 0.0
O1055 O 0.26798 0.57554 0.16379 0.0
O1056 O 0.28784 0.58984 0.16411 0.0
C1057 C 0.30905 0.55012 0.16576 0.0
C1058 C 0.28303 0.56719 0.20538 0.0
O1059 O 0.29128 0.57762 0.20052 0.0
O1060 O 0.27805 0.5574 0.19659 0.0
C1061 C 0.32915 0.59281 0.18965 0.0
O1062 O 0.33202 0.57934 0.19452 0.0
C1063 C 0.27461 0.58726 0.15973 0.0
Zn1064 Zn 0.42716 0.71619 0.80824 0.0
Zn1065 Zn 0.41095 0.69161 0.80946 0.0
O1066 O 0.43203 0.68312 0.81248 0.0
O1067 O 0.4455 0.70322 0.8085 0.0
O1068 O 0.39764 0.67381 0.81138 0.0
O1069 O 0.41808 0.72429 0.82702 0.0
O1070 O 0.40311 0.70495 0.82643 0.0
C1071 C 0.44464 0.68939 0.811 0.0
C1072 C 0.40956 0.71179 0.78216 0.0
O1073 O 0.40659 0.69933 0.78821 0.0
O1074 O 0.41753 0.72128 0.78881 0.0
C1075 C 0.3955 0.66444 0.80102 0.0
O1076 O 0.40255 0.66607 0.78832 0.0
C1077 C 0.40709 0.71724 0.83229 0.0
Zn1078 Zn 0.2805 0.43533 0.80856 0.0
Zn1079 Zn 0.30339 0.41657 0.81173 0.0
O1080 O 0.31322 0.4368 0.81617 0.0
O1081 O 0.29412 0.45208 0.81424 0.0
O1082 O 0.32022 0.40211 0.81392 0.0
O1083 O 0.26889 0.42342 0.82398 0.0
O1084 O 0.28886 0.40973 0.82784 0.0
C1085 C 0.30779 0.44986 0.81676 0.0
C1086 C 0.2865 0.41924 0.78201 0.0
O1087 O 0.29586 0.41258 0.79031 0.0
O1088 O 0.27894 0.42999 0.78703 0.0
C1089 C 0.33025 0.4008 0.80405 0.0
O1090 O 0.32972 0.40928 0.79216 0.0
C1091 C 0.27548 0.41313 0.831 0.0
Zn1092 Zn 0.55723 0.27623 0.81856 0.0
Zn1093 Zn 0.57613 0.29805 0.81327 0.0
O1094 O 0.55747 0.30934 0.82072 0.0
O1095 O 0.54316 0.29076 0.8279 0.0
O1096 O 0.59133 0.31426 0.81102 0.0
O1097 O 0.57173 0.26507 0.83125 0.0
O1098 O 0.58656 0.28432 0.82848 0.0
C1099 C 0.5456 0.30456 0.82681 0.0
C1100 C 0.5652 0.27886 0.78761 0.0
O1101 O 0.57408 0.28885 0.79233 0.0
O1102 O 0.55645 0.27237 0.79655 0.0
C1103 C 0.5917 0.32378 0.80059 0.0
O1104 O 0.58158 0.32331 0.79008 0.0
C1105 C 0.58382 0.27163 0.83418 0.0
Zn1106 Zn 0.71192 0.5552 0.8189 0.0
Zn1107 Zn 0.69162 0.57498 0.8118 0.0
O1108 O 0.67906 0.55631 0.81713 0.0
O1109 O 0.69618 0.54119 0.82601 0.0
O1110 O 0.67616 0.59082 0.80856 0.0
O1111 O 0.72218 0.56875 0.83323 0.0
O1112 O 0.70414 0.58459 0.82858 0.0
C1113 C 0.6827 0.54408 0.82329 0.0
C1114 C 0.71325 0.56427 0.78811 0.0
O1115 O 0.70302 0.57334 0.7919 0.0
O1116 O 0.71833 0.55505 0.79747 0.0
C1117 C 0.6666 0.59106 0.79816 0.0
O1118 O 0.66655 0.58037 0.78821 0.0
C1119 C 0.71599 0.58115 0.83559 0.0
Zn1120 Zn 0.16974 0.43695 0.27804 0.0
Zn1121 Zn 0.17745 0.41726 0.29781 0.0
O1122 O 0.16986 0.435 0.31048 0.0
O1123 O 0.15932 0.44909 0.29352 0.0
O1124 O 0.18231 0.40153 0.31293 0.0
O1125 O 0.15831 0.42202 0.26603 0.0
O1126 O 0.16214 0.40645 0.28449 0.0
C1127 C 0.16217 0.4464 0.30703 0.0
C1128 C 0.20116 0.43159 0.27855 0.0
O1129 O 0.19741 0.42112 0.28732 0.0
O1130 O 0.19149 0.44064 0.27376 0.0
C1131 C 0.18765 0.40435 0.3257 0.0
O1132 O 0.19046 0.4182 0.3294 0.0
C1133 C 0.15615 0.40946 0.27199 0.0
Zn1134 Zn 0.5543 0.16335 0.27698 0.0
Zn1135 Zn 0.57221 0.16902 0.29827 0.0
O1136 O 0.5529 0.16227 0.30894 0.0
O1137 O 0.54119 0.15129 0.29053 0.0
O1138 O 0.58681 0.17197 0.31493 0.0
O1139 O 0.57005 0.15345 0.26457 0.0
O1140 O 0.58328 0.15365 0.28513 0.0
C1141 C 0.54219 0.1543 0.30423 0.0
C1142 C 0.56005 0.1944 0.28003 0.0
O1143 O 0.57034 0.18967 0.28854 0.0
O1144 O 0.55062 0.18542 0.27468 0.0
C1145 C 0.58715 0.18334 0.32333 0.0
O1146 O 0.57733 0.19399 0.32139 0.0
C1147 C 0.58154 0.14956 0.27166 0.0
Zn1148 Zn 0.83924 0.5579 0.26283 0.0
Zn1149 Zn 0.83179 0.57534 0.28431 0.0
O1150 O 0.83727 0.5554 0.29451 0.0
O1151 O 0.84896 0.54336 0.27675 0.0
O1152 O 0.82751 0.58924 0.3013 0.0
O1153 O 0.85103 0.57376 0.25245 0.0
O1154 O 0.84818 0.58688 0.27289 0.0
C1155 C 0.84475 0.54417 0.29015 0.0
C1156 C 0.80796 0.56441 0.26341 0.0
O1157 O 0.81189 0.57401 0.27305 0.0
O1158 O 0.8174 0.5554 0.25811 0.0
C1159 C 0.82011 0.58571 0.31282 0.0
O1160 O 0.81469 0.5722 0.314 0.0
C1161 C 0.8539 0.58524 0.26002 0.0
Zn1162 Zn 0.43193 0.81927 0.27379 0.0
Zn1163 Zn 0.41608 0.81619 0.29733 0.0
O1164 O 0.43593 0.82424 0.30581 0.0
O1165 O 0.44645 0.83184 0.28509 0.0
O1166 O 0.40263 0.81523 0.31515 0.0
O1167 O 0.41546 0.8289 0.26215 0.0
O1168 O 0.4044 0.83073 0.28389 0.0
C1169 C 0.4464 0.83108 0.29914 0.0
C1170 C 0.42614 0.78891 0.2802 0.0
O1171 O 0.417 0.79458 0.28942 0.0
O1172 O 0.43489 0.79715 0.27289 0.0
C1173 C 0.40147 0.80434 0.32409 0.0
O1174 O 0.40977 0.79249 0.3221 0.0
C1175 C 0.40494 0.83383 0.27007 0.0
Zn1176 Zn 0.17009 0.55838 0.71862 0.0
Zn1177 Zn 0.1795 0.577 0.69957 0.0
O1178 O 0.17427 0.55783 0.68768 0.0
O1179 O 0.16041 0.5454 0.70346 0.0
O1180 O 0.18498 0.59205 0.68385 0.0
O1181 O 0.15797 0.57311 0.72983 0.0
O1182 O 0.16283 0.58806 0.71113 0.0
C1183 C 0.16583 0.54681 0.69058 0.0
C1184 C 0.20137 0.56386 0.72113 0.0
O1185 O 0.19841 0.57438 0.71212 0.0
O1186 O 0.19138 0.55459 0.72471 0.0
C1187 C 0.19043 0.58879 0.67121 0.0
O1188 O 0.19321 0.57482 0.66799 0.0
C1189 C 0.15607 0.58542 0.72333 0.0
Zn1190 Zn 0.43942 0.16582 0.72304 0.0
Zn1191 Zn 0.42262 0.17506 0.70093 0.0
O1192 O 0.44145 0.16704 0.69029 0.0
O1193 O 0.45367 0.15655 0.70869 0.0
O1194 O 0.4085 0.17999 0.68429 0.0
O1195 O 0.42323 0.1536 0.73216 0.0
O1196 O 0.40993 0.15991 0.71266 0.0
C1197 C 0.45245 0.15942 0.69497 0.0
C1198 C 0.4344 0.1976 0.72312 0.0
O1199 O 0.42586 0.19478 0.71216 0.0
O1200 O 0.44181 0.18723 0.72914 0.0
C1201 C 0.41207 0.18254 0.67085 0.0
O1202 O 0.42619 0.18292 0.6671 0.0
C1203 C 0.41129 0.15274 0.72481 0.0
Zn1204 Zn 0.82664 0.43757 0.7141 0.0
Zn1205 Zn 0.81657 0.41952 0.69376 0.0
O1206 O 0.82294 0.43823 0.68175 0.0
O1207 O 0.83513 0.45113 0.6986 0.0
O1208 O 0.8118 0.40438 0.67802 0.0
O1209 O 0.83948 0.42242 0.72398 0.0
O1210 O 0.83241 0.40779 0.70575 0.0
C1211 C 0.83094 0.44938 0.6853 0.0
C1212 C 0.79486 0.43194 0.71611 0.0
O1213 O 0.79724 0.42276 0.70558 0.0
O1214 O 0.80539 0.43992 0.72102 0.0
C1215 C 0.80153 0.40476 0.66833 0.0
O1216 O 0.79231 0.4161 0.66804 0.0
C1217 C 0.84006 0.40997 0.71749 0.0
Zn1218 Zn 0.55826 0.83535 0.71806 0.0
Zn1219 Zn 0.577 0.82547 0.69798 0.0
O1220 O 0.55855 0.83186 0.68579 0.0
O1221 O 0.54459 0.84325 0.70232 0.0
O1222 O 0.59206 0.82016 0.68234 0.0
O1223 O 0.57326 0.84852 0.72777 0.0
O1224 O 0.58857 0.84121 0.71017 0.0
C1225 C 0.54686 0.83922 0.68903 0.0
C1226 C 0.56415 0.80361 0.72002 0.0
O1227 O 0.57336 0.80614 0.70955 0.0
O1228 O 0.55619 0.81408 0.7251 0.0
C1229 C 0.59131 0.80898 0.67374 0.0
O1230 O 0.57996 0.79983 0.67484 0.0
C1231 C 0.58594 0.84902 0.72171 0.0
Zn1232 Zn 0.26968 0.16199 0.43587 0.0
Zn1233 Zn 0.29098 0.17071 0.41803 0.0
O1234 O 0.30192 0.16418 0.43728 0.0
O1235 O 0.28429 0.15328 0.45027 0.0
O1236 O 0.30733 0.17528 0.40338 0.0
O1237 O 0.25979 0.14928 0.42063 0.0
O1238 O 0.27862 0.15521 0.4062 0.0
C1239 C 0.29779 0.15695 0.44877 0.0
C1240 C 0.26949 0.19369 0.42978 0.0
O1241 O 0.28006 0.19055 0.42088 0.0
O1242 O 0.26371 0.18357 0.43772 0.0
C1243 C 0.32031 0.17986 0.40662 0.0
O1244 O 0.32378 0.18226 0.42061 0.0
C1245 C 0.2665 0.14814 0.40833 0.0
Zn1246 Zn 0.27283 0.81813 0.55359 0.0
Zn1247 Zn 0.29466 0.81157 0.57126 0.0
O1248 O 0.30549 0.819 0.55241 0.0
O1249 O 0.28695 0.82971 0.54056 0.0
O1250 O 0.31112 0.80769 0.58578 0.0
O1251 O 0.26141 0.82845 0.56989 0.0
O1252 O 0.28219 0.82702 0.58272 0.0
C1253 C 0.30072 0.82705 0.54179 0.0
C1254 C 0.27516 0.78693 0.55911 0.0
O1255 O 0.28434 0.79129 0.56897 0.0
O1256 O 0.2696 0.79615 0.55004 0.0
C1257 C 0.32382 0.80255 0.58233 0.0
O1258 O 0.32665 0.79911 0.56842 0.0
C1259 C 0.26892 0.83178 0.5813 0.0
Zn1260 Zn 0.19522 0.27706 0.55686 0.0
Zn1261 Zn 0.19282 0.3001 0.57584 0.0
O1262 O 0.18862 0.31027 0.55584 0.0
O1263 O 0.19016 0.29135 0.5403 0.0
O1264 O 0.19077 0.31651 0.59066 0.0
O1265 O 0.17934 0.26583 0.56863 0.0
O1266 O 0.17657 0.28578 0.58258 0.0
C1267 C 0.18802 0.30506 0.54271 0.0
C1268 C 0.22215 0.28285 0.57289 0.0
O1269 O 0.21422 0.29259 0.57945 0.0
O1270 O 0.21672 0.27506 0.56251 0.0
C1271 C 0.19547 0.32964 0.58842 0.0
O1272 O 0.20206 0.33287 0.57578 0.0
C1273 C 0.17278 0.2726 0.57911 0.0
Zn1274 Zn 0.72375 0.16099 0.55561 0.0
Zn1275 Zn 0.70188 0.16956 0.57324 0.0
O1276 O 0.69072 0.16176 0.55468 0.0
O1277 O 0.70892 0.15197 0.54158 0.0
O1278 O 0.68574 0.17495 0.58772 0.0
O1279 O 0.73331 0.14866 0.57149 0.0
O1280 O 0.71423 0.15456 0.58561 0.0
C1281 C 0.6952 0.15462 0.54328 0.0
C1282 C 0.72327 0.19267 0.56093 0.0
O1283 O 0.71252 0.1894 0.56957 0.0
O1284 O 0.72958 0.18257 0.55339 0.0
C1285 C 0.67296 0.17988 0.58422 0.0
O1286 O 0.66961 0.1818 0.57014 0.0
C1287 C 0.72645 0.14761 0.58373 0.0
Zn1288 Zn 0.83362 0.71938 0.55474 0.0
Zn1289 Zn 0.82511 0.69859 0.57319 0.0
O1290 O 0.8302 0.68732 0.5537 0.0
O1291 O 0.84093 0.70445 0.53993 0.0
O1292 O 0.82153 0.68224 0.58804 0.0
O1293 O 0.84761 0.72898 0.56901 0.0
O1294 O 0.84134 0.71082 0.58411 0.0
C1295 C 0.83691 0.6911 0.54178 0.0
C1296 C 0.80219 0.72064 0.56278 0.0
O1297 O 0.80535 0.7099 0.57147 0.0
O1298 O 0.81213 0.72606 0.55436 0.0
C1299 C 0.81192 0.67194 0.58697 0.0
O1300 O 0.80304 0.67159 0.57537 0.0
C1301 C 0.84886 0.72255 0.58144 0.0
Zn1302 Zn 0.71 0.79627 0.43934 0.0
Zn1303 Zn 0.68731 0.79934 0.4203 0.0
O1304 O 0.67674 0.8019 0.44052 0.0
O1305 O 0.69563 0.79997 0.45605 0.0
O1306 O 0.67086 0.80161 0.40541 0.0
O1307 O 0.72098 0.81309 0.42883 0.0
O1308 O 0.70112 0.81664 0.41491 0.0
C1309 C 0.68188 0.80186 0.45371 0.0
C1310 C 0.70577 0.77042 0.42163 0.0
O1311 O 0.696 0.77854 0.41533 0.0
O1312 O 0.71298 0.77527 0.43268 0.0
C1313 C 0.66129 0.79144 0.40319 0.0
O1314 O 0.66197 0.77916 0.41107 0.0
C1315 C 0.7142 0.82036 0.41885 0.0
Zn1316 Zn 0.16763 0.71655 0.43711 0.0
Zn1317 Zn 0.17441 0.69524 0.41866 0.0
O1318 O 0.16703 0.68371 0.43726 0.0
O1319 O 0.15795 0.70195 0.45081 0.0
O1320 O 0.17812 0.67898 0.40375 0.0
O1321 O 0.15535 0.72752 0.42219 0.0
O1322 O 0.15888 0.70823 0.40759 0.0
C1323 C 0.16005 0.68819 0.44876 0.0
C1324 C 0.19883 0.71551 0.43048 0.0
O1325 O 0.19479 0.70551 0.42128 0.0
O1326 O 0.18936 0.72136 0.43911 0.0
C1327 C 0.18937 0.67043 0.4039 0.0
O1328 O 0.19949 0.6721 0.41429 0.0
C1329 C 0.15286 0.72084 0.41008 0.0
Zn1330 Zn 0.82631 0.27789 0.44045 0.0
Zn1331 Zn 0.81937 0.29828 0.4206 0.0
O1332 O 0.8243 0.31088 0.43915 0.0
O1333 O 0.83411 0.29401 0.45395 0.0
O1334 O 0.81602 0.3134 0.40447 0.0
O1335 O 0.83992 0.26706 0.42648 0.0
O1336 O 0.83654 0.28604 0.41139 0.0
C1337 C 0.83094 0.30743 0.45116 0.0
C1338 C 0.79547 0.27697 0.43151 0.0
O1339 O 0.79952 0.28687 0.4222 0.0
O1340 O 0.80465 0.27206 0.441 0.0
C1341 C 0.81137 0.3266 0.40646 0.0
O1342 O 0.80773 0.33098 0.41992 0.0
C1343 C 0.84294 0.27379 0.41452 0.0
H1344 H 0.08115 0.24834 0.35287 0.0
H1345 H 0.10839 0.20871 0.35178 0.0
H1346 H 0.09911 0.26031 0.36909 0.0
H1347 H 0.12646 0.22085 0.36817 0.0
H1348 H 0.14338 0.24297 0.41223 0.0
H1349 H 0.12677 0.2303 0.39494 0.0
H1350 H 0.12556 0.26955 0.36731 0.0
H1351 H 0.14219 0.28231 0.38458 0.0
C1352 C 0.09097 0.24215 0.3561 0.0
C1353 C 0.09333 0.22754 0.35105 0.0
C1354 C 0.10131 0.24909 0.36531 0.0
C1355 C 0.11419 0.24154 0.3698 0.0
C1356 C 0.11656 0.22688 0.36489 0.0
C1357 C 0.10626 0.21996 0.3555 0.0
C1358 C 0.13959 0.24891 0.40246 0.0
C1359 C 0.14401 0.26369 0.39982 0.0
C1360 C 0.13019 0.2416 0.39252 0.0
C1361 C 0.1249 0.24896 0.37983 0.0
C1362 C 0.12941 0.26368 0.3771 0.0
C1363 C 0.13894 0.27095 0.38696 0.0
H1364 H 0.74813 0.14246 0.40856 0.0
H1365 H 0.70894 0.14507 0.38084 0.0
H1366 H 0.75928 0.12495 0.3912 0.0
H1367 H 0.72024 0.12758 0.36338 0.0
H1368 H 0.73922 0.0835 0.34509 0.0
H1369 H 0.72779 0.10092 0.36245 0.0
H1370 H 0.76921 0.12505 0.36552 0.0
H1371 H 0.78072 0.10759 0.34827 0.0
C1372 C 0.74188 0.13932 0.39876 0.0
C1373 C 0.72763 0.14518 0.39609 0.0
C1374 C 0.74833 0.12934 0.38877 0.0
C1375 C 0.74066 0.12492 0.37592 0.0
C1376 C 0.72636 0.13069 0.37327 0.0
C1377 C 0.71993 0.14076 0.38322 0.0
C1378 C 0.74591 0.09249 0.34949 0.0
C1379 C 0.7609 0.09413 0.34531 0.0
C1380 C 0.73932 0.10252 0.35936 0.0
C1381 C 0.74759 0.11435 0.36533 0.0
C1382 C 0.76259 0.11595 0.36121 0.0
C1383 C 0.76917 0.10598 0.35128 0.0
H1384 H 0.84911 0.74489 0.40739 0.0
H1385 H 0.85081 0.70621 0.37888 0.0
H1386 H 0.86685 0.75755 0.39128 0.0
H1387 H 0.86849 0.71898 0.36272 0.0
H1388 H 0.90887 0.74209 0.343 0.0
H1389 H 0.89412 0.7293 0.36183 0.0
H1390 H 0.86563 0.76778 0.36568 0.0
H1391 H 0.88041 0.78065 0.34693 0.0
C1392 C 0.85336 0.73902 0.39777 0.0
C1393 C 0.84845 0.72456 0.39437 0.0
C1394 C 0.86347 0.74632 0.38851 0.0
C1395 C 0.86897 0.7393 0.37569 0.0
C1396 C 0.86452 0.72464 0.37259 0.0
C1397 C 0.85434 0.71735 0.38181 0.0
C1398 C 0.89955 0.7479 0.34796 0.0
C1399 C 0.89577 0.76238 0.34339 0.0
C1400 C 0.89107 0.74052 0.35869 0.0
C1401 C 0.87869 0.7475 0.36516 0.0
C1402 C 0.8752 0.76216 0.36098 0.0
C1403 C 0.88362 0.76951 0.35018 0.0
H1404 H 0.20174 0.8804 0.34133 0.0
H1405 H 0.24048 0.90885 0.34271 0.0
H1406 H 0.21417 0.86277 0.35782 0.0
H1407 H 0.25279 0.89131 0.35926 0.0
H1408 H 0.27564 0.84947 0.3771 0.0
H1409 H 0.2633 0.86579 0.35921 0.0
H1410 H 0.22234 0.86209 0.38406 0.0
H1411 H 0.23454 0.84573 0.40181 0.0
C1412 C 0.21288 0.88291 0.34515 0.0
C1413 C 0.22009 0.89606 0.34073 0.0
C1414 C 0.21998 0.87283 0.35462 0.0
C1415 C 0.23447 0.87565 0.35981 0.0
C1416 C 0.2417 0.88873 0.3553 0.0
C1417 C 0.23459 0.89884 0.3459 0.0
C1418 C 0.26399 0.85208 0.37869 0.0
C1419 C 0.25611 0.84633 0.39091 0.0
C1420 C 0.25695 0.86148 0.3685 0.0
C1421 C 0.24186 0.86523 0.37025 0.0
C1422 C 0.23393 0.85928 0.38232 0.0
C1423 C 0.24098 0.84997 0.39254 0.0
H1424 H 0.14119 0.70615 0.60934 0.0
H1425 H 0.14139 0.74511 0.58116 0.0
H1426 H 0.12531 0.71929 0.62717 0.0
H1427 H 0.12568 0.75813 0.59895 0.0
H1428 H 0.10938 0.78115 0.64158 0.0
H1429 H 0.12695 0.76793 0.62552 0.0
H1430 H 0.09865 0.72915 0.62641 0.0
H1431 H 0.0811 0.74227 0.64234 0.0
C1432 C 0.13791 0.7175 0.60698 0.0
C1433 C 0.14247 0.72455 0.5938 0.0
C1434 C 0.12881 0.72499 0.61716 0.0
C1435 C 0.12432 0.73973 0.61443 0.0
C1436 C 0.12911 0.74684 0.6014 0.0
C1437 C 0.13801 0.73931 0.59116 0.0
C1438 C 0.10694 0.76979 0.63838 0.0
C1439 C 0.09381 0.76279 0.64315 0.0
C1440 C 0.11697 0.76225 0.62918 0.0
C1441 C 0.11415 0.74752 0.62477 0.0
C1442 C 0.10117 0.74044 0.62977 0.0
C1443 C 0.09107 0.74802 0.63879 0.0
H1444 H 0.24363 0.15491 0.59753 0.0
H1445 H 0.2847 0.13065 0.60263 0.0
H1446 H 0.2308 0.13677 0.61277 0.0
H1447 H 0.27168 0.11162 0.61696 0.0
H1448 H 0.24795 0.08756 0.6544 0.0
H1449 H 0.26111 0.1056 0.63918 0.0
H1450 H 0.22066 0.11377 0.61434 0.0
H1451 H 0.20737 0.0966 0.6305 0.0
C1452 C 0.24984 0.14548 0.60173 0.0
C1453 C 0.26514 0.14415 0.59892 0.0
C1454 C 0.24245 0.13495 0.61039 0.0
C1455 C 0.25007 0.12252 0.61612 0.0
C1456 C 0.26541 0.12113 0.61306 0.0
C1457 C 0.2729 0.13196 0.60474 0.0
C1458 C 0.24192 0.09328 0.64568 0.0
C1459 C 0.22664 0.09078 0.64365 0.0
C1460 C 0.24949 0.10355 0.63682 0.0
C1461 C 0.24205 0.11129 0.62541 0.0
C1462 C 0.22678 0.10842 0.62321 0.0
C1463 C 0.21912 0.09847 0.63238 0.0
H1464 H 0.84435 0.24118 0.58631 0.0
H1465 H 0.84814 0.28168 0.61193 0.0
H1466 H 0.86198 0.22901 0.60281 0.0
H1467 H 0.8658 0.26936 0.62856 0.0
H1468 H 0.91161 0.24824 0.63947 0.0
H1469 H 0.89179 0.26012 0.62545 0.0
H1470 H 0.86531 0.2202 0.62887 0.0
H1471 H 0.88526 0.20816 0.64292 0.0
C1472 C 0.84885 0.24746 0.59555 0.0
C1473 C 0.84494 0.26246 0.59774 0.0
C1474 C 0.85887 0.24043 0.60506 0.0
C1475 C 0.8653 0.24824 0.61693 0.0
C1476 C 0.86111 0.26312 0.61939 0.0
C1477 C 0.85096 0.27014 0.60992 0.0
C1478 C 0.90157 0.24195 0.63727 0.0
C1479 C 0.90006 0.2272 0.64225 0.0
C1480 C 0.89015 0.24884 0.62935 0.0
C1481 C 0.87698 0.24112 0.62613 0.0
C1482 C 0.87539 0.22638 0.63114 0.0
C1483 C 0.8868 0.21951 0.63919 0.0
H1484 H 0.78156 0.8862 0.64373 0.0
H1485 H 0.7402 0.91067 0.64573 0.0
H1486 H 0.76975 0.86773 0.62766 0.0
H1487 H 0.7285 0.89224 0.6297 0.0
H1488 H 0.70921 0.84786 0.61289 0.0
H1489 H 0.72101 0.86519 0.63021 0.0
H1490 H 0.7595 0.86768 0.60158 0.0
H1491 H 0.74781 0.85043 0.5843 0.0
C1492 C 0.76996 0.88762 0.64079 0.0
C1493 C 0.76184 0.89994 0.64595 0.0
C1494 C 0.76323 0.87708 0.63156 0.0
C1495 C 0.74821 0.87857 0.62746 0.0
C1496 C 0.74004 0.89074 0.63281 0.0
C1497 C 0.7468 0.90135 0.6419 0.0
C1498 C 0.72019 0.85209 0.61031 0.0
C1499 C 0.72754 0.84781 0.5972 0.0
C1500 C 0.72692 0.86204 0.6202 0.0
C1501 C 0.74118 0.86773 0.61724 0.0
C1502 C 0.74857 0.86333 0.60422 0.0
C1503 C 0.74181 0.85354 0.59428 0.0
H1504 H 0.3428 0.0844 0.24409 0.0
H1505 H 0.34127 0.11285 0.20536 0.0
H1506 H 0.35864 0.10234 0.25669 0.0
H1507 H 0.35699 0.13094 0.21813 0.0
H1508 H 0.40006 0.14934 0.23907 0.0
H1509 H 0.38284 0.1327 0.22655 0.0
H1510 H 0.35813 0.12743 0.26741 0.0
H1511 H 0.37555 0.14396 0.2801 0.0
C1512 C 0.34578 0.0945 0.23828 0.0
C1513 C 0.34081 0.09715 0.22369 0.0
C1514 C 0.35477 0.10485 0.24556 0.0
C1515 C 0.35904 0.11807 0.23842 0.0
C1516 C 0.354 0.12078 0.22386 0.0
C1517 C 0.34496 0.11044 0.21659 0.0
C1518 C 0.39094 0.1447 0.2454 0.0
C1519 C 0.38924 0.14794 0.26062 0.0
C1520 C 0.38099 0.13523 0.23818 0.0
C1521 C 0.36912 0.12874 0.24598 0.0
C1522 C 0.36727 0.13213 0.26114 0.0
C1523 C 0.37721 0.14166 0.26838 0.0
H1524 H 0.92049 0.33947 0.24247 0.0
H1525 H 0.89462 0.34762 0.20279 0.0
H1526 H 0.90562 0.35785 0.25589 0.0
H1527 H 0.87976 0.36583 0.21622 0.0
H1528 H 0.86388 0.40668 0.24009 0.0
H1529 H 0.88182 0.3905 0.22793 0.0
H1530 H 0.87942 0.35993 0.26489 0.0
H1531 H 0.8615 0.37623 0.27723 0.0
C1532 C 0.91172 0.34525 0.23657 0.0
C1533 C 0.90873 0.34205 0.22155 0.0
C1534 C 0.90316 0.3557 0.24429 0.0
C1535 C 0.89153 0.36328 0.23712 0.0
C1536 C 0.88877 0.36031 0.22202 0.0
C1537 C 0.89724 0.34981 0.21434 0.0
C1538 C 0.86727 0.39659 0.24574 0.0
C1539 C 0.86112 0.39268 0.25959 0.0
C1540 C 0.87751 0.38729 0.23871 0.0
C1541 C 0.8819 0.37386 0.24536 0.0
C1542 C 0.8763 0.37025 0.25952 0.0
C1543 C 0.86599 0.37956 0.26656 0.0
H1544 H 0.64899 0.90913 0.24918 0.0
H1545 H 0.65082 0.88249 0.2092 0.0
H1546 H 0.6318 0.8914 0.26027 0.0
H1547 H 0.63353 0.8647 0.22041 0.0
H1548 H 0.5876 0.84959 0.2392 0.0
H1549 H 0.60652 0.86547 0.22811 0.0
H1550 H 0.6313 0.86477 0.26921 0.0
H1551 H 0.61231 0.84881 0.28042 0.0
C1552 C 0.64574 0.89948 0.24275 0.0
C1553 C 0.65121 0.89726 0.22826 0.0
C1554 C 0.63599 0.88926 0.24917 0.0
C1555 C 0.63137 0.87667 0.24121 0.0
C1556 C 0.63686 0.87438 0.22675 0.0
C1557 C 0.64677 0.88453 0.22037 0.0
C1558 C 0.5971 0.85276 0.24589 0.0
C1559 C 0.59841 0.84801 0.26073 0.0
C1560 C 0.60799 0.86176 0.23948 0.0
C1561 C 0.62036 0.86634 0.2478 0.0
C1562 C 0.6218 0.86148 0.26259 0.0
C1563 C 0.61097 0.85232 0.26898 0.0
H1564 H 0.08098 0.62405 0.25058 0.0
H1565 H 0.11017 0.62992 0.2128 0.0
H1566 H 0.10031 0.60999 0.26334 0.0
H1567 H 0.12949 0.61565 0.22564 0.0
H1568 H 0.15064 0.57345 0.24781 0.0
H1569 H 0.13233 0.58854 0.23471 0.0
H1570 H 0.12647 0.61561 0.27391 0.0
H1571 H 0.14497 0.60056 0.28709 0.0
C1572 C 0.09148 0.62225 0.24494 0.0
C1573 C 0.09403 0.62806 0.23064 0.0
C1574 C 0.10258 0.61432 0.25233 0.0
C1575 C 0.11639 0.61185 0.24551 0.0
C1576 C 0.1189 0.61741 0.23112 0.0
C1577 C 0.10786 0.62556 0.22379 0.0
C1578 C 0.14549 0.58264 0.25365 0.0
C1579 C 0.14919 0.58578 0.26852 0.0
C1580 C 0.13509 0.59133 0.2461 0.0
C1581 C 0.128 0.60319 0.25331 0.0
C1582 C 0.13174 0.60643 0.26814 0.0
C1583 C 0.14234 0.59788 0.27565 0.0
H1584 H 0.34215 0.89142 0.7406 0.0
H1585 H 0.36603 0.88511 0.78169 0.0
H1586 H 0.35859 0.87397 0.7282 0.0
H1587 H 0.3834 0.86853 0.76912 0.0
H1588 H 0.40435 0.82878 0.74624 0.0
H1589 H 0.38761 0.84569 0.75907 0.0
H1590 H 0.38141 0.87027 0.71812 0.0
H1591 H 0.3972 0.8525 0.70519 0.0
C1592 C 0.3511 0.88639 0.74692 0.0
C1593 C 0.35283 0.88956 0.76208 0.0
C1594 C 0.36068 0.87648 0.73978 0.0
C1595 C 0.37256 0.86982 0.74752 0.0
C1596 C 0.37428 0.87312 0.76276 0.0
C1597 C 0.36439 0.88271 0.77 0.0
C1598 C 0.39938 0.83783 0.74004 0.0
C1599 C 0.402 0.83932 0.72473 0.0
C1600 C 0.38984 0.84764 0.74741 0.0
C1601 C 0.38299 0.85946 0.73972 0.0
C1602 C 0.38604 0.86113 0.72443 0.0
C1603 C 0.39524 0.85104 0.71699 0.0
H1604 H 0.13167 0.39619 0.71201 0.0
H1605 H 0.15186 0.39908 0.75539 0.0
H1606 H 0.1113 0.38162 0.72242 0.0
H1607 H 0.13245 0.38348 0.76566 0.0
H1608 H 0.09134 0.36319 0.78431 0.0
H1609 H 0.10883 0.38083 0.77357 0.0
H1610 H 0.10435 0.35894 0.73089 0.0
H1611 H 0.08586 0.34233 0.7415 0.0
C1612 C 0.13176 0.39357 0.72377 0.0
C1613 C 0.14324 0.39878 0.73293 0.0
C1614 C 0.12017 0.38508 0.72977 0.0
C1615 C 0.12009 0.3812 0.74497 0.0
C1616 C 0.13173 0.38647 0.75404 0.0
C1617 C 0.14301 0.39534 0.74813 0.0
C1618 C 0.09404 0.36233 0.7726 0.0
C1619 C 0.08731 0.35146 0.76371 0.0
C1620 C 0.1042 0.37234 0.76642 0.0
C1621 C 0.10829 0.37133 0.7513 0.0
C1622 C 0.10138 0.3604 0.74245 0.0
C1623 C 0.09084 0.35074 0.74855 0.0
H1624 H 0.60351 0.13664 0.70926 0.0
H1625 H 0.59737 0.16217 0.74937 0.0
H1626 H 0.61905 0.11908 0.72269 0.0
H1627 H 0.61399 0.14548 0.76268 0.0
H1628 H 0.63265 0.10524 0.78683 0.0
H1629 H 0.61691 0.12299 0.77367 0.0
H1630 H 0.6413 0.1141 0.73307 0.0
H1631 H 0.6559 0.09549 0.74605 0.0
C1632 C 0.60577 0.13861 0.72092 0.0
C1633 C 0.59925 0.15068 0.72831 0.0
C1634 C 0.61481 0.12863 0.72867 0.0
C1635 C 0.61796 0.13076 0.74389 0.0
C1636 C 0.61163 0.14314 0.75112 0.0
C1637 C 0.6022 0.15283 0.74347 0.0
C1638 C 0.63454 0.10716 0.77508 0.0
C1639 C 0.64533 0.09898 0.76739 0.0
C1640 C 0.62561 0.11742 0.7675 0.0
C1641 C 0.62765 0.12006 0.75216 0.0
C1642 C 0.63894 0.11215 0.7447 0.0
C1643 C 0.64747 0.10156 0.75217 0.0
H1644 H 0.88413 0.64983 0.78313 0.0
H1645 H 0.9112 0.65136 0.74342 0.0
H1646 H 0.86732 0.63239 0.771 0.0
H1647 H 0.89441 0.63378 0.73136 0.0
H1648 H 0.85146 0.61495 0.71006 0.0
H1649 H 0.86842 0.63264 0.72184 0.0
H1650 H 0.86765 0.60649 0.76212 0.0
H1651 H 0.85068 0.58896 0.75049 0.0
C1652 C 0.88654 0.64641 0.77185 0.0
C1653 C 0.89903 0.65198 0.76427 0.0
C1654 C 0.87693 0.63636 0.76491 0.0
C1655 C 0.87954 0.63171 0.75022 0.0
C1656 C 0.89202 0.63728 0.74263 0.0
C1657 C 0.90169 0.64727 0.74959 0.0
C1658 C 0.8549 0.61299 0.72142 0.0
C1659 C 0.84968 0.60055 0.72933 0.0
C1660 C 0.86468 0.62308 0.72814 0.0
C1661 C 0.86934 0.62097 0.74292 0.0
C1662 C 0.86412 0.60853 0.75079 0.0
C1663 C 0.85444 0.59843 0.74407 0.0
H1664 H 0.21019 0.35223 0.10647 0.0
H1665 H 0.25149 0.35194 0.0818 0.0
H1666 H 0.22157 0.3683 0.12517 0.0
H1667 H 0.26275 0.36804 0.10042 0.0
H1668 H 0.28194 0.38669 0.1437 0.0
H1669 H 0.27064 0.36828 0.12714 0.0
H1670 H 0.23046 0.39454 0.12536 0.0
H1671 H 0.24159 0.4128 0.14186 0.0
C1672 C 0.22168 0.35555 0.10505 0.0
C1673 C 0.22989 0.3509 0.09259 0.0
C1674 C 0.22818 0.36477 0.11574 0.0
C1675 C 0.24304 0.36941 0.11423 0.0
C1676 C 0.25133 0.3645 0.10195 0.0
C1677 C 0.24482 0.35539 0.09123 0.0
C1678 C 0.27067 0.38846 0.13984 0.0
C1679 C 0.2627 0.40124 0.14402 0.0
C1680 C 0.26423 0.37797 0.13033 0.0
C1681 C 0.24967 0.37999 0.12498 0.0
C1682 C 0.24162 0.39259 0.12944 0.0
C1683 C 0.24808 0.40312 0.13881 0.0
H1684 H 0.24327 0.64842 0.91996 0.0
H1685 H 0.20357 0.64678 0.89292 0.0
H1686 H 0.25539 0.63078 0.90338 0.0
H1687 H 0.21579 0.62897 0.8763 0.0
H1688 H 0.23716 0.58297 0.86462 0.0
H1689 H 0.225 0.60214 0.87943 0.0
H1690 H 0.26439 0.62945 0.87649 0.0
H1691 H 0.27663 0.61027 0.86156 0.0
C1692 C 0.23713 0.64431 0.91045 0.0
C1693 C 0.22242 0.64892 0.90779 0.0
C1694 C 0.24413 0.6343 0.90091 0.0
C1695 C 0.23652 0.62854 0.88858 0.0
C1696 C 0.22185 0.63321 0.8858 0.0
C1697 C 0.21489 0.64341 0.89526 0.0
C1698 C 0.24326 0.59305 0.86713 0.0
C1699 C 0.2579 0.59507 0.86199 0.0
C1700 C 0.23623 0.60407 0.87549 0.0
C1701 C 0.24375 0.61726 0.87904 0.0
C1702 C 0.25838 0.61932 0.87394 0.0
C1703 C 0.26537 0.60837 0.86539 0.0
H1704 H 0.39822 0.23602 0.84483 0.0
H1705 H 0.39017 0.27749 0.86751 0.0
H1706 H 0.37901 0.22406 0.85958 0.0
H1707 H 0.37182 0.26537 0.88332 0.0
H1708 H 0.33005 0.24364 0.9009 0.0
H1709 H 0.34861 0.25586 0.8855 0.0
H1710 H 0.37258 0.21422 0.88176 0.0
H1711 H 0.35319 0.20192 0.89608 0.0
C1712 C 0.39243 0.2425 0.85319 0.0
C1713 C 0.39561 0.25765 0.85505 0.0
C1714 C 0.38149 0.23562 0.8618 0.0
C1715 C 0.37378 0.24361 0.87286 0.0
C1716 C 0.37717 0.25882 0.87477 0.0
C1717 C 0.3878 0.2658 0.86579 0.0
C1718 C 0.33931 0.23716 0.89672 0.0
C1719 C 0.3402 0.22186 0.8996 0.0
C1720 C 0.35007 0.24417 0.88797 0.0
C1721 C 0.36226 0.23613 0.88226 0.0
C1722 C 0.36324 0.22081 0.88552 0.0
C1723 C 0.3522 0.21372 0.89387 0.0
H1724 H 0.75151 0.40867 0.85086 0.0
H1725 H 0.7116 0.38185 0.85028 0.0
H1726 H 0.76333 0.39078 0.86736 0.0
H1727 H 0.72355 0.36387 0.86682 0.0
H1728 H 0.74442 0.34674 0.9109 0.0
H1729 H 0.73242 0.36345 0.89327 0.0
H1730 H 0.77257 0.36456 0.86692 0.0
H1731 H 0.78468 0.34786 0.8846 0.0
C1732 C 0.74525 0.39894 0.85422 0.0
C1733 C 0.73058 0.39671 0.84928 0.0
C1734 C 0.75209 0.38864 0.8636 0.0
C1735 C 0.74438 0.37592 0.86835 0.0
C1736 C 0.72972 0.37364 0.86341 0.0
C1737 C 0.7229 0.3839 0.8539 0.0
C1738 C 0.75071 0.35052 0.90134 0.0
C1739 C 0.76554 0.34602 0.89919 0.0
C1740 C 0.74378 0.36 0.89119 0.0
C1741 C 0.75155 0.3653 0.87873 0.0
C1742 C 0.76635 0.36074 0.8765 0.0
C1743 C 0.77326 0.35114 0.8866 0.0
H1744 H 0.58303 0.75142 0.848 0.0
H1745 H 0.60989 0.71155 0.84691 0.0
H1746 H 0.60106 0.76317 0.8644 0.0
H1747 H 0.62799 0.72342 0.86339 0.0
H1748 H 0.64342 0.74347 0.90861 0.0
H1749 H 0.62758 0.73179 0.89008 0.0
H1750 H 0.62759 0.77237 0.8644 0.0
H1751 H 0.64354 0.78419 0.88304 0.0
C1752 C 0.5928 0.74516 0.85123 0.0
C1753 C 0.59498 0.7305 0.84623 0.0
C1754 C 0.60319 0.75197 0.86052 0.0
C1755 C 0.61593 0.74423 0.86513 0.0
C1756 C 0.61821 0.72961 0.86006 0.0
C1757 C 0.60787 0.72283 0.85062 0.0
C1758 C 0.64012 0.74993 0.89899 0.0
C1759 C 0.64465 0.76481 0.89734 0.0
C1760 C 0.63114 0.74317 0.88832 0.0
C1761 C 0.62637 0.75117 0.87581 0.0
C1762 C 0.63104 0.76599 0.87401 0.0
C1763 C 0.6402 0.77273 0.88464 0.0
H1764 H 0.77633 0.64494 0.10322 0.0
H1765 H 0.73369 0.65311 0.08257 0.0
H1766 H 0.76471 0.62688 0.11987 0.0
H1767 H 0.72213 0.63509 0.09927 0.0
H1768 H 0.7062 0.6109 0.14255 0.0
H1769 H 0.71691 0.6307 0.12717 0.0
H1770 H 0.75296 0.60154 0.11472 0.0
H1771 H 0.74236 0.58182 0.12987 0.0
C1772 C 0.76447 0.64301 0.10234 0.0
C1773 C 0.75595 0.65035 0.09151 0.0
C1774 C 0.75784 0.63264 0.11181 0.0
C1775 C 0.74255 0.62955 0.11075 0.0
C1776 C 0.73392 0.63732 0.10035 0.0
C1777 C 0.74057 0.64756 0.09075 0.0
C1778 C 0.71635 0.60871 0.13645 0.0
C1779 C 0.72341 0.59479 0.13743 0.0
C1780 C 0.72246 0.62002 0.12767 0.0
C1781 C 0.73583 0.61766 0.11992 0.0
C1782 C 0.74277 0.60371 0.12077 0.0
C1783 C 0.7366 0.59239 0.12935 0.0
H1784 H 0.34939 0.74557 0.08473 0.0
H1785 H 0.34685 0.78535 0.1116 0.0
H1786 H 0.36629 0.73446 0.10266 0.0
H1787 H 0.36382 0.77409 0.12966 0.0
H1788 H 0.40943 0.75527 0.14581 0.0
H1789 H 0.39075 0.76656 0.12978 0.0
H1790 H 0.36647 0.72513 0.12882 0.0
H1791 H 0.38522 0.71373 0.14485 0.0
C1792 C 0.3524 0.75194 0.09449 0.0
C1793 C 0.34682 0.76639 0.0967 0.0
C1794 C 0.36199 0.7455 0.10482 0.0
C1795 C 0.36634 0.75339 0.11756 0.0
C1796 C 0.36072 0.7678 0.11987 0.0
C1797 C 0.35097 0.77422 0.10957 0.0
C1798 C 0.40009 0.74856 0.14223 0.0
C1799 C 0.39887 0.73356 0.14653 0.0
C1800 C 0.38933 0.75508 0.13315 0.0
C1801 C 0.37717 0.74673 0.12805 0.0
C1802 C 0.37581 0.73179 0.13249 0.0
C1803 C 0.38652 0.72529 0.1417 0.0
H1804 H 0.65714 0.25573 0.09986 0.0
H1805 H 0.63536 0.21321 0.10411 0.0
H1806 H 0.64061 0.26619 0.11857 0.0
H1807 H 0.61793 0.2238 0.12183 0.0
H1808 H 0.5939 0.24221 0.16084 0.0
H1809 H 0.61343 0.23216 0.14511 0.0
H1810 H 0.61726 0.27482 0.12302 0.0
H1811 H 0.59861 0.28505 0.13984 0.0
C1812 C 0.64867 0.24868 0.10475 0.0
C1813 C 0.64749 0.23369 0.10062 0.0
C1814 C 0.63908 0.25469 0.11539 0.0
C1815 C 0.62776 0.24595 0.12179 0.0
C1816 C 0.62666 0.23088 0.11754 0.0
C1817 C 0.63657 0.22478 0.10726 0.0
C1818 C 0.59912 0.24943 0.15272 0.0
C1819 C 0.59481 0.26435 0.15146 0.0
C1820 C 0.61021 0.24365 0.14354 0.0
C1821 C 0.61689 0.25253 0.1325 0.0
C1822 C 0.61265 0.26762 0.13148 0.0
C1823 C 0.60188 0.27351 0.14104 0.0
H1824 H 0.91091 0.7443 0.65241 0.0
H1825 H 0.88771 0.78539 0.64314 0.0
H1826 H 0.8958 0.73156 0.63389 0.0
H1827 H 0.87253 0.77255 0.62464 0.0
H1828 H 0.86352 0.74906 0.58019 0.0
H1829 H 0.87767 0.76116 0.59979 0.0
H1830 H 0.86943 0.72386 0.62889 0.0
H1831 H 0.85522 0.71161 0.60921 0.0
C1832 C 0.90251 0.7506 0.64649 0.0
C1833 C 0.90057 0.7659 0.64918 0.0
C1834 C 0.89381 0.74327 0.63595 0.0
C1835 C 0.88306 0.75108 0.62778 0.0
C1836 C 0.88088 0.7663 0.63067 0.0
C1837 C 0.88951 0.77362 0.64131 0.0
C1838 C 0.86476 0.74336 0.59073 0.0
C1839 C 0.85823 0.72935 0.59313 0.0
C1840 C 0.87276 0.75038 0.602 0.0
C1841 C 0.87453 0.74352 0.6159 0.0
C1842 C 0.86827 0.72938 0.61825 0.0
C1843 C 0.86014 0.72238 0.60699 0.0
H1844 H 0.20964 0.88678 0.6346 0.0
H1845 H 0.2516 0.88864 0.65769 0.0
H1846 H 0.22038 0.86986 0.61636 0.0
H1847 H 0.26212 0.87074 0.6404 0.0
H1848 H 0.28264 0.8525 0.59849 0.0
H1849 H 0.2714 0.86853 0.61711 0.0
H1850 H 0.22893 0.84696 0.60988 0.0
H1851 H 0.24009 0.8319 0.59037 0.0
C1852 C 0.22108 0.88322 0.63593 0.0
C1853 C 0.22986 0.88902 0.64741 0.0
C1854 C 0.22727 0.87344 0.62554 0.0
C1855 C 0.24226 0.86892 0.62669 0.0
C1856 C 0.25073 0.87426 0.63873 0.0
C1857 C 0.24468 0.88439 0.6488 0.0
C1858 C 0.2709 0.85126 0.60092 0.0
C1859 C 0.2622 0.84106 0.59299 0.0
C1860 C 0.26442 0.86035 0.61172 0.0
C1861 C 0.24917 0.8591 0.6152 0.0
C1862 C 0.24059 0.84858 0.60738 0.0
C1863 C 0.24699 0.83983 0.59625 0.0
H1864 H 0.10469 0.25509 0.64449 0.0
H1865 H 0.11139 0.21187 0.62485 0.0
H1866 H 0.12389 0.26545 0.62865 0.0
H1867 H 0.12987 0.22239 0.60791 0.0
H1868 H 0.17153 0.24351 0.58763 0.0
H1869 H 0.15322 0.23193 0.60398 0.0
H1870 H 0.12858 0.2733 0.60522 0.0
H1871 H 0.14757 0.28499 0.58999 0.0
C1872 C 0.11024 0.24785 0.63661 0.0
C1873 C 0.10659 0.23272 0.63583 0.0
C1874 C 0.12115 0.25381 0.62735 0.0
C1875 C 0.12835 0.2449 0.61665 0.0
C1876 C 0.12477 0.22964 0.61606 0.0
C1877 C 0.11413 0.22357 0.6257 0.0
C1878 C 0.16213 0.25004 0.59143 0.0
C1879 C 0.16097 0.26514 0.58769 0.0
C1880 C 0.15156 0.2434 0.60075 0.0
C1881 C 0.13939 0.25166 0.6062 0.0
C1882 C 0.138 0.26664 0.60179 0.0
C1883 C 0.14879 0.27335 0.59288 0.0
H1884 H 0.74565 0.08359 0.6532 0.0
H1885 H 0.786 0.10951 0.64964 0.0
H1886 H 0.73385 0.09937 0.63461 0.0
H1887 H 0.77409 0.12534 0.63103 0.0
H1888 H 0.75417 0.13536 0.5847 0.0
H1889 H 0.7654 0.12119 0.60481 0.0
H1890 H 0.72516 0.12574 0.63064 0.0
H1891 H 0.71379 0.13999 0.61044 0.0
C1892 C 0.75198 0.09271 0.64852 0.0
C1893 C 0.76681 0.09524 0.65282 0.0
C1894 C 0.74516 0.10181 0.63795 0.0
C1895 C 0.75307 0.11354 0.63135 0.0
C1896 C 0.76779 0.11627 0.63585 0.0
C1897 C 0.77458 0.10726 0.64654 0.0
C1898 C 0.74767 0.13335 0.59464 0.0
C1899 C 0.73305 0.13877 0.59594 0.0
C1900 C 0.75418 0.12534 0.60622 0.0
C1901 C 0.74619 0.12245 0.61931 0.0
C1902 C 0.73154 0.12777 0.62063 0.0
C1903 C 0.72505 0.13593 0.60908 0.0
H1904 H 0.89622 0.21301 0.36056 0.0
H1905 H 0.89827 0.25512 0.33774 0.0
H1906 H 0.8824 0.22457 0.38079 0.0
H1907 H 0.8833 0.26651 0.35705 0.0
H1908 H 0.86434 0.2874 0.39795 0.0
H1909 H 0.88117 0.27588 0.38012 0.0
H1910 H 0.86013 0.23327 0.38822 0.0
H1911 H 0.84448 0.24471 0.40699 0.0
C1912 C 0.89354 0.22473 0.35986 0.0
C1913 C 0.89831 0.23321 0.34769 0.0
C1914 C 0.88547 0.23139 0.37137 0.0
C1915 C 0.88153 0.24658 0.37069 0.0
C1916 C 0.88635 0.25495 0.35835 0.0
C1917 C 0.89484 0.24839 0.34713 0.0
C1918 C 0.86351 0.27555 0.39594 0.0
C1919 C 0.8532 0.26691 0.4038 0.0
C1920 C 0.87305 0.2689 0.3856 0.0
C1921 C 0.87208 0.25355 0.38248 0.0
C1922 C 0.86162 0.245 0.39044 0.0
C1923 C 0.85248 0.25157 0.40114 0.0
H1924 H 0.73302 0.89454 0.36062 0.0
H1925 H 0.77611 0.88452 0.37911 0.0
H1926 H 0.72198 0.87467 0.37506 0.0
H1927 H 0.76495 0.86533 0.39476 0.0
H1928 H 0.74323 0.8223 0.41051 0.0
H1929 H 0.75504 0.84212 0.39634 0.0
H1930 H 0.71383 0.86707 0.39745 0.0
H1931 H 0.70187 0.84658 0.41039 0.0
C1932 C 0.74007 0.88819 0.36804 0.0
C1933 C 0.75538 0.89104 0.3688 0.0
C1934 C 0.73373 0.87685 0.3765 0.0
C1935 C 0.74244 0.86834 0.38636 0.0
C1936 C 0.75783 0.87136 0.38717 0.0
C1937 C 0.76427 0.88244 0.37829 0.0
C1938 C 0.73677 0.83208 0.40768 0.0
C1939 C 0.72164 0.83291 0.41139 0.0
C1940 C 0.74356 0.84354 0.39964 0.0
C1941 C 0.73545 0.85632 0.39551 0.0
C1942 C 0.72041 0.8573 0.39988 0.0
C1943 C 0.71353 0.84562 0.40746 0.0
H1944 H 0.14263 0.74937 0.40982 0.0
H1945 H 0.14064 0.7081 0.38524 0.0
H1946 H 0.12547 0.76074 0.39222 0.0
H1947 H 0.12342 0.71958 0.36759 0.0
H1948 H 0.07833 0.74001 0.35317 0.0
H1949 H 0.09701 0.72892 0.36929 0.0
H1950 H 0.12408 0.76839 0.36522 0.0
H1951 H 0.10532 0.7796 0.34899 0.0
C1952 C 0.13858 0.74273 0.40062 0.0
C1953 C 0.14292 0.72779 0.39898 0.0
C1954 C 0.12884 0.7493 0.39049 0.0
C1955 C 0.12311 0.74104 0.37857 0.0
C1956 C 0.12759 0.72616 0.37677 0.0
C1957 C 0.13748 0.71962 0.38683 0.0
C1958 C 0.08824 0.74637 0.3557 0.0
C1959 C 0.09031 0.76073 0.34984 0.0
C1960 C 0.099 0.73994 0.36484 0.0
C1961 C 0.11201 0.74776 0.36844 0.0
C1962 C 0.1141 0.76215 0.36266 0.0
C1963 C 0.10338 0.76854 0.35337 0.0
H1964 H 0.24788 0.08217 0.34103 0.0
H1965 H 0.20668 0.10677 0.34433 0.0
H1966 H 0.25942 0.09901 0.35877 0.0
H1967 H 0.21835 0.12371 0.36213 0.0
H1968 H 0.23893 0.13554 0.40796 0.0
H1969 H 0.22761 0.12083 0.3883 0.0
H1970 H 0.26736 0.1256 0.36174 0.0
H1971 H 0.27881 0.14039 0.3815 0.0
C1972 C 0.2413 0.09124 0.34547 0.0
C1973 C 0.22631 0.09307 0.34136 0.0
C1974 C 0.24797 0.10095 0.35555 0.0
C1975 C 0.23978 0.11264 0.36185 0.0
C1976 C 0.22488 0.11469 0.35753 0.0
C1977 C 0.21823 0.10504 0.34731 0.0
C1978 C 0.2453 0.13348 0.39794 0.0
C1979 C 0.25982 0.13908 0.39633 0.0
C1980 C 0.23874 0.12516 0.38662 0.0
C1981 C 0.24657 0.12214 0.37347 0.0
C1982 C 0.26109 0.12772 0.37181 0.0
C1983 C 0.26763 0.13618 0.3831 0.0
H1984 H 0.6476 0.88833 0.78456 0.0
H1985 H 0.65694 0.91086 0.74312 0.0
H1986 H 0.62943 0.87264 0.77186 0.0
H1987 H 0.63874 0.89523 0.73052 0.0
H1988 H 0.614 0.8546 0.71104 0.0
H1989 H 0.63383 0.86867 0.72326 0.0
H1990 H 0.60459 0.87762 0.76031 0.0
H1991 H 0.58486 0.86363 0.74823 0.0
C1992 C 0.64588 0.88985 0.77274 0.0
C1993 C 0.65363 0.90091 0.76487 0.0
C1994 C 0.63542 0.88093 0.76549 0.0
C1995 C 0.63262 0.88279 0.75023 0.0
C1996 C 0.64074 0.89349 0.74227 0.0
C1997 C 0.65109 0.90249 0.74952 0.0
C1998 C 0.6118 0.85961 0.72176 0.0
C1999 C 0.59785 0.85802 0.72864 0.0
C2000 C 0.62314 0.86766 0.72875 0.0
C2001 C 0.62076 0.87412 0.74278 0.0
C2002 C 0.60681 0.87256 0.7496 0.0
C2003 C 0.59547 0.86465 0.74259 0.0
H2004 H 0.14637 0.6118 0.71143 0.0
H2005 H 0.14385 0.58462 0.75101 0.0
H2006 H 0.13025 0.63029 0.72324 0.0
H2007 H 0.1278 0.60298 0.76267 0.0
H2008 H 0.11122 0.64576 0.78425 0.0
H2009 H 0.129 0.6291 0.77219 0.0
H2010 H 0.10356 0.63128 0.73154 0.0
H2011 H 0.08585 0.64793 0.74348 0.0
C2012 C 0.1424 0.60978 0.72262 0.0
C2013 C 0.14634 0.59672 0.73025 0.0
C2014 C 0.13316 0.62033 0.72935 0.0
C2015 C 0.12784 0.61807 0.74389 0.0
C2016 C 0.1319 0.6051 0.75154 0.0
C2017 C 0.14099 0.59453 0.74478 0.0
C2018 C 0.10947 0.64274 0.77273 0.0
C2019 C 0.09708 0.64809 0.76486 0.0
C2020 C 0.11961 0.63318 0.76585 0.0
C2021 C 0.11763 0.6289 0.75094 0.0
C2022 C 0.10544 0.63451 0.74299 0.0
C2023 C 0.09524 0.64396 0.74989 0.0
H2024 H 0.3454 0.1061 0.77857 0.0
H2025 H 0.3443 0.08508 0.73535 0.0
H2026 H 0.36307 0.12445 0.76909 0.0
H2027 H 0.36201 0.10329 0.726 0.0
H2028 H 0.38506 0.14587 0.71089 0.0
H2029 H 0.36494 0.13021 0.72033 0.0
H2030 H 0.3895 0.12314 0.76098 0.0
H2031 H 0.4095 0.13881 0.75168 0.0
C2032 C 0.34882 0.10546 0.76704 0.0
C2033 C 0.34354 0.09407 0.75774 0.0
C2034 C 0.35898 0.11592 0.76164 0.0
C2035 C 0.36395 0.11525 0.74683 0.0
C2036 C 0.35828 0.10417 0.73742 0.0
C2037 C 0.34821 0.09367 0.74282 0.0
C2038 C 0.38613 0.14102 0.72186 0.0
C2039 C 0.39892 0.14351 0.73049 0.0
C2040 C 0.37463 0.13204 0.72724 0.0
C2041 C 0.37565 0.12549 0.7414 0.0
C2042 C 0.38831 0.1282 0.75011 0.0
C2043 C 0.39983 0.13707 0.74471 0.0
H2044 H 0.90396 0.34037 0.73625 0.0
H2045 H 0.87997 0.3457 0.77758 0.0
H2046 H 0.88762 0.35845 0.72442 0.0
H2047 H 0.86358 0.3638 0.76565 0.0
H2048 H 0.85365 0.40971 0.74456 0.0
H2049 H 0.86786 0.38966 0.75585 0.0
H2050 H 0.8609 0.36257 0.71683 0.0
H2051 H 0.84659 0.38272 0.70541 0.0
C2052 C 0.89511 0.34529 0.74278 0.0
C2053 C 0.89333 0.34169 0.7579 0.0
C2054 C 0.8857 0.35558 0.73596 0.0
C2055 C 0.8744 0.36258 0.74413 0.0
C2056 C 0.87232 0.35867 0.75913 0.0
C2057 C 0.88165 0.34826 0.76593 0.0
C2058 C 0.85514 0.39951 0.73833 0.0
C2059 C 0.84902 0.39783 0.72404 0.0
C2060 C 0.86317 0.38797 0.74488 0.0
C2061 C 0.86539 0.37453 0.73726 0.0
C2062 C 0.85938 0.37285 0.72293 0.0
C2063 C 0.8512 0.38436 0.71641 0.0
H2064 H 0.65792 0.09458 0.24829 0.0
H2065 H 0.63326 0.09866 0.20739 0.0
H2066 H 0.6404 0.111 0.26066 0.0
H2067 H 0.61487 0.1141 0.21994 0.0
H2068 H 0.58962 0.15088 0.24263 0.0
H2069 H 0.60863 0.13641 0.22999 0.0
H2070 H 0.61743 0.11264 0.27094 0.0
H2071 H 0.59924 0.1281 0.28371 0.0
C2072 C 0.64861 0.09894 0.242 0.0
C2073 C 0.64691 0.0954 0.22691 0.0
C2074 C 0.63842 0.10824 0.24912 0.0
C2075 C 0.62598 0.11387 0.24145 0.0
C2076 C 0.62439 0.11031 0.22625 0.0
C2077 C 0.63487 0.10136 0.21901 0.0
C2078 C 0.59572 0.14258 0.24889 0.0
C2079 C 0.59301 0.14059 0.26412 0.0
C2080 C 0.60656 0.13416 0.24162 0.0
C2081 C 0.61467 0.12319 0.24932 0.0
C2082 C 0.61177 0.12116 0.26461 0.0
C2083 C 0.60123 0.12993 0.27197 0.0
H2084 H 0.90492 0.64083 0.19953 0.0
H2085 H 0.90523 0.6655 0.24063 0.0
H2086 H 0.89168 0.62063 0.21163 0.0
H2087 H 0.8908 0.64594 0.2526 0.0
H2088 H 0.87372 0.60361 0.27402 0.0
H2089 H 0.88933 0.62271 0.26265 0.0
H2090 H 0.86917 0.61333 0.21993 0.0
H2091 H 0.85472 0.59357 0.23116 0.0
C2092 C 0.90195 0.64196 0.21115 0.0
C2093 C 0.90604 0.65468 0.21916 0.0
C2094 C 0.8942 0.63044 0.21811 0.0
C2095 C 0.88986 0.63159 0.23314 0.0
C2096 C 0.89408 0.6444 0.24113 0.0
C2097 C 0.90227 0.65571 0.23426 0.0
C2098 C 0.87279 0.60565 0.26218 0.0
C2099 C 0.86316 0.59706 0.25343 0.0
C2100 C 0.88164 0.61668 0.25563 0.0
C2101 C 0.88069 0.61966 0.24025 0.0
C2102 C 0.87071 0.61117 0.23167 0.0
C2103 C 0.86226 0.59989 0.23812 0.0
H2104 H 0.33419 0.89735 0.25111 0.0
H2105 H 0.35546 0.88975 0.2088 0.0
H2106 H 0.3499 0.87858 0.26254 0.0
H2107 H 0.37216 0.87181 0.22035 0.0
H2108 H 0.39406 0.83246 0.24191 0.0
H2109 H 0.37584 0.84882 0.23039 0.0
H2110 H 0.37318 0.87421 0.27124 0.0
H2111 H 0.39045 0.85703 0.28294 0.0
C2112 C 0.34238 0.89171 0.2443 0.0
C2113 C 0.34368 0.89497 0.22911 0.0
C2114 C 0.35153 0.88103 0.25087 0.0
C2115 C 0.36254 0.87368 0.24249 0.0
C2116 C 0.36369 0.87695 0.22719 0.0
C2117 C 0.35421 0.88732 0.22054 0.0
C2118 C 0.38941 0.84148 0.24841 0.0
C2119 C 0.39359 0.8435 0.2633 0.0
C2120 C 0.37906 0.85098 0.24178 0.0
C2121 C 0.37299 0.86301 0.24977 0.0
C2122 C 0.37725 0.86494 0.26474 0.0
C2123 C 0.38726 0.85515 0.27147 0.0
H2124 H 0.14538 0.38315 0.28298 0.0
H2125 H 0.14571 0.41064 0.24354 0.0
H2126 H 0.12946 0.36517 0.27023 0.0
H2127 H 0.12983 0.39271 0.2309 0.0
H2128 H 0.11325 0.34965 0.20875 0.0
H2129 H 0.13061 0.36637 0.22136 0.0
H2130 H 0.10316 0.36519 0.26075 0.0
H2131 H 0.08585 0.34854 0.24826 0.0
C2132 C 0.14211 0.38534 0.2716 0.0
C2133 C 0.14675 0.39835 0.2643 0.0
C2134 C 0.13296 0.37508 0.26433 0.0
C2135 C 0.12842 0.37756 0.24958 0.0
C2136 C 0.13328 0.39044 0.24221 0.0
C2137 C 0.14228 0.40075 0.24951 0.0
C2138 C 0.11094 0.35294 0.2201 0.0
C2139 C 0.09814 0.34781 0.22747 0.0
C2140 C 0.12085 0.36254 0.2273 0.0
C2141 C 0.11823 0.36704 0.24204 0.0
C2142 C 0.10554 0.36177 0.24945 0.0
C2143 C 0.09558 0.35232 0.24223 0.0
H2144 H 0.77741 0.63972 0.88158 0.0
H2145 H 0.73707 0.64182 0.90769 0.0
H2146 H 0.76509 0.62301 0.86405 0.0
H2147 H 0.72484 0.62515 0.89016 0.0
H2148 H 0.70438 0.60721 0.8464 0.0
H2149 H 0.71634 0.62487 0.8633 0.0
H2150 H 0.75523 0.59676 0.86518 0.0
H2151 H 0.7434 0.57916 0.84838 0.0
C2152 C 0.76592 0.63667 0.88355 0.0
C2153 C 0.75825 0.64204 0.89606 0.0
C2154 C 0.7589 0.62706 0.87356 0.0
C2155 C 0.74402 0.62278 0.87578 0.0
C2156 C 0.73627 0.62837 0.88812 0.0
C2157 C 0.74333 0.63783 0.8982 0.0
C2158 C 0.71547 0.6048 0.85045 0.0
C2159 C 0.72292 0.59178 0.84607 0.0
C2160 C 0.72229 0.61488 0.86014 0.0
C2161 C 0.73674 0.6122 0.86548 0.0
C2162 C 0.74417 0.5992 0.86109 0.0
C2163 C 0.73732 0.58907 0.85155 0.0
H2164 H 0.77835 0.36082 0.11314 0.0
H2165 H 0.73965 0.36772 0.08545 0.0
H2166 H 0.76692 0.37596 0.13266 0.0
H2167 H 0.72838 0.38279 0.10487 0.0
H2168 H 0.70598 0.39138 0.1501 0.0
H2169 H 0.71816 0.37773 0.13011 0.0
H2170 H 0.75868 0.40234 0.13778 0.0
H2171 H 0.74652 0.41603 0.15788 0.0
C2172 C 0.76748 0.36563 0.11117 0.0
C2173 C 0.7599 0.36299 0.09776 0.0
C2174 C 0.76097 0.37434 0.12232 0.0
C2175 C 0.74672 0.38047 0.12031 0.0
C2176 C 0.73929 0.37805 0.10681 0.0
C2177 C 0.74581 0.36946 0.09565 0.0
C2178 C 0.71746 0.39395 0.1475 0.0
C2179 C 0.72526 0.40481 0.15558 0.0
C2180 C 0.72442 0.38616 0.136 0.0
C2181 C 0.73937 0.38898 0.13238 0.0
C2182 C 0.74718 0.39986 0.14041 0.0
C2183 C 0.74018 0.40776 0.15185 0.0
H2184 H 0.63821 0.74853 0.08079 0.0
H2185 H 0.64234 0.78596 0.11068 0.0
H2186 H 0.62368 0.73525 0.09934 0.0
H2187 H 0.62769 0.77253 0.12932 0.0
H2188 H 0.58473 0.75016 0.14832 0.0
H2189 H 0.6011 0.76365 0.13148 0.0
H2190 H 0.62707 0.72383 0.12471 0.0
H2191 H 0.61065 0.71021 0.14162 0.0
C2192 C 0.63601 0.75395 0.09133 0.0
C2193 C 0.64138 0.76835 0.09424 0.0
C2194 C 0.62779 0.74626 0.102 0.0
C2195 C 0.62462 0.75282 0.11579 0.0
C2196 C 0.62993 0.76724 0.11874 0.0
C2197 C 0.63832 0.7749 0.10809 0.0
C2198 C 0.59397 0.74426 0.14331 0.0
C2199 C 0.59633 0.72907 0.14623 0.0
C2200 C 0.6034 0.75204 0.13375 0.0
C2201 C 0.61533 0.74479 0.12678 0.0
C2202 C 0.61787 0.72966 0.12986 0.0
C2203 C 0.60851 0.72189 0.13956 0.0
H2204 H 0.24554 0.59525 0.16085 0.0
H2205 H 0.28623 0.60308 0.13669 0.0
H2206 H 0.2325 0.61266 0.14482 0.0
H2207 H 0.27306 0.61948 0.11968 0.0
H2208 H 0.24952 0.65742 0.09758 0.0
H2209 H 0.26248 0.6418 0.11539 0.0
H2210 H 0.22197 0.61662 0.12238 0.0
H2211 H 0.20887 0.63327 0.10554 0.0
C2212 C 0.25163 0.60061 0.15193 0.0
C2213 C 0.26686 0.5979 0.14998 0.0
C2214 C 0.24413 0.61051 0.1426 0.0
C2215 C 0.25158 0.61755 0.13074 0.0
C2216 C 0.26689 0.61466 0.12882 0.0
C2217 C 0.27449 0.60514 0.13849 0.0
C2218 C 0.24343 0.64859 0.10306 0.0
C2219 C 0.22823 0.64652 0.10024 0.0
C2220 C 0.25088 0.63948 0.11319 0.0
C2221 C 0.24342 0.62771 0.12038 0.0
C2222 C 0.22814 0.62569 0.11743 0.0
C2223 C 0.22058 0.63515 0.10766 0.0
H2224 H 0.34747 0.21217 0.10914 0.0
H2225 H 0.35372 0.25117 0.08171 0.0
H2226 H 0.36168 0.22405 0.12907 0.0
H2227 H 0.36784 0.26293 0.10157 0.0
H2228 H 0.37978 0.2849 0.14589 0.0
H2229 H 0.36366 0.27284 0.12757 0.0
H2230 H 0.38841 0.232 0.13261 0.0
H2231 H 0.40447 0.24394 0.15084 0.0
C2232 C 0.35186 0.22324 0.10736 0.0
C2233 C 0.34953 0.23069 0.09382 0.0
C2234 C 0.36 0.23002 0.11875 0.0
C2235 C 0.36578 0.24443 0.11687 0.0
C2236 C 0.36334 0.2519 0.10339 0.0
C2237 C 0.35537 0.24508 0.09197 0.0
C2238 C 0.38169 0.27332 0.14316 0.0
C2239 C 0.39345 0.26541 0.14973 0.0
C2240 C 0.37252 0.26645 0.13265 0.0
C2241 C 0.37483 0.2515 0.12867 0.0
C2242 C 0.3863 0.24349 0.13556 0.0
C2243 C 0.39556 0.25038 0.14592 0.0
H2244 H 0.24661 0.40415 0.83037 0.0
H2245 H 0.28633 0.40271 0.85717 0.0
H2246 H 0.23411 0.38762 0.84778 0.0
H2247 H 0.27359 0.38729 0.87538 0.0
H2248 H 0.2547 0.34545 0.89536 0.0
H2249 H 0.2662 0.36363 0.87922 0.0
H2250 H 0.22292 0.38269 0.87 0.0
H2251 H 0.21138 0.36349 0.88535 0.0
C2252 C 0.25252 0.40055 0.84023 0.0
C2253 C 0.26744 0.40454 0.8424 0.0
C2254 C 0.24534 0.39113 0.85032 0.0
C2255 C 0.2528 0.38585 0.86305 0.0
C2256 C 0.26755 0.39061 0.86552 0.0
C2257 C 0.27486 0.3996 0.85518 0.0
C2258 C 0.24766 0.35358 0.88992 0.0
C2259 C 0.23215 0.35307 0.89159 0.0
C2260 C 0.25427 0.36417 0.88072 0.0
C2261 C 0.24559 0.37486 0.87326 0.0
C2262 C 0.23003 0.37453 0.87526 0.0
C2263 C 0.22337 0.3636 0.88416 0.0
H2264 H 0.64284 0.21172 0.88285 0.0
H2265 H 0.64037 0.25203 0.90893 0.0
H2266 H 0.62705 0.22316 0.86387 0.0
H2267 H 0.62464 0.26334 0.89005 0.0
H2268 H 0.60896 0.28382 0.84631 0.0
H2269 H 0.62628 0.27211 0.86367 0.0
H2270 H 0.60045 0.23165 0.86226 0.0
H2271 H 0.58319 0.24324 0.84491 0.0
C2272 C 0.63896 0.223 0.88452 0.0
C2273 C 0.64281 0.23094 0.89742 0.0
C2274 C 0.6299 0.22952 0.8737 0.0
C2275 C 0.62467 0.24415 0.87549 0.0
C2276 C 0.62866 0.25212 0.88829 0.0
C2277 C 0.63758 0.24558 0.89916 0.0
C2278 C 0.60702 0.2724 0.84964 0.0
C2279 C 0.59466 0.26449 0.84429 0.0
C2280 C 0.6169 0.26573 0.85962 0.0
C2281 C 0.61468 0.25098 0.86431 0.0
C2282 C 0.60251 0.24298 0.85872 0.0
C2283 C 0.59257 0.24967 0.84886 0.0
H2284 H 0.3539 0.77741 0.88505 0.0
H2285 H 0.354 0.73706 0.9112 0.0
H2286 H 0.36982 0.76544 0.86662 0.0
H2287 H 0.36999 0.72518 0.89279 0.0
H2288 H 0.38357 0.70489 0.84727 0.0
H2289 H 0.36832 0.71645 0.86654 0.0
H2290 H 0.39569 0.75588 0.86458 0.0
H2291 H 0.41087 0.74443 0.84528 0.0
C2292 C 0.35734 0.76601 0.88689 0.0
C2293 C 0.35267 0.7582 0.8996 0.0
C2294 C 0.36652 0.75919 0.87637 0.0
C2295 C 0.37116 0.74438 0.87828 0.0
C2296 C 0.36648 0.73656 0.89096 0.0
C2297 C 0.35739 0.74341 0.90153 0.0
C2298 C 0.3864 0.71598 0.85101 0.0
C2299 C 0.39842 0.72375 0.84469 0.0
C2300 C 0.37769 0.72258 0.86209 0.0
C2301 C 0.38076 0.7371 0.867 0.0
C2302 C 0.39293 0.74475 0.86087 0.0
C2303 C 0.40168 0.73814 0.84988 0.0
H2304 H 0.04325 0.23679 0.28309 0.0
H2305 H 0.08429 0.21451 0.27167 0.0
H2306 H 0.04449 0.25099 0.26043 0.0
H2307 H 0.08531 0.22859 0.24835 0.0
H2308 H 0.09174 0.27544 0.22485 0.0
H2309 H 0.09041 0.25393 0.2414 0.0
H2310 H 0.04285 0.25174 0.23449 0.0
H2311 H 0.04419 0.27378 0.2188 0.0
C2312 C 0.05243 0.2347 0.27557 0.0
C2313 C 0.06378 0.22464 0.27931 0.0
C2314 C 0.05305 0.24276 0.26239 0.0
C2315 C 0.06499 0.24096 0.25245 0.0
C2316 C 0.07603 0.23035 0.25581 0.0
C2317 C 0.0754 0.22223 0.26913 0.0
C2318 C 0.0811 0.27005 0.22658 0.0
C2319 C 0.06803 0.27633 0.22082 0.0
C2320 C 0.08031 0.25769 0.23603 0.0
C2321 C 0.06645 0.25132 0.23961 0.0
C2322 C 0.05364 0.25666 0.23239 0.0
C2323 C 0.05439 0.2692 0.2233 0.0
H2324 H 0.78366 0.05422 0.26263 0.0
H2325 H 0.76247 0.09532 0.27517 0.0
H2326 H 0.77094 0.0549 0.23863 0.0
H2327 H 0.74927 0.09585 0.25151 0.0
H2328 H 0.722 0.09242 0.21134 0.0
H2329 H 0.74557 0.09572 0.22462 0.0
H2330 H 0.74495 0.04919 0.23675 0.0
H2331 H 0.72178 0.04597 0.22349 0.0
C2332 C 0.77678 0.06373 0.25993 0.0
C2333 C 0.77399 0.07473 0.27059 0.0
C2334 C 0.76938 0.06408 0.24627 0.0
C2335 C 0.75881 0.07523 0.24329 0.0
C2336 C 0.75738 0.08713 0.25336 0.0
C2337 C 0.76491 0.08685 0.26695 0.0
C2338 C 0.72721 0.08284 0.21645 0.0
C2339 C 0.71995 0.069 0.21665 0.0
C2340 C 0.74066 0.08474 0.2241 0.0
C2341 C 0.74709 0.07277 0.23189 0.0
C2342 C 0.74047 0.05865 0.23079 0.0
C2343 C 0.72705 0.05681 0.22331 0.0
H2344 H 0.93383 0.74148 0.20871 0.0
H2345 H 0.88941 0.72385 0.20447 0.0
H2346 H 0.92442 0.76181 0.2238 0.0
H2347 H 0.87989 0.74422 0.21986 0.0
H2348 H 0.88824 0.75336 0.27232 0.0
H2349 H 0.88669 0.7437 0.24714 0.0
H2350 H 0.90783 0.78353 0.23053 0.0
H2351 H 0.90909 0.79332 0.25597 0.0
C2352 C 0.92193 0.74237 0.21047 0.0
C2353 C 0.91236 0.73102 0.20568 0.0
C2354 C 0.9165 0.75409 0.21904 0.0
C2355 C 0.90144 0.75447 0.22322 0.0
C2356 C 0.89157 0.74412 0.21687 0.0
C2357 C 0.897 0.7325 0.20803 0.0
C2358 C 0.89187 0.76034 0.26319 0.0
C2359 C 0.89885 0.77399 0.26598 0.0
C2360 C 0.89092 0.75487 0.24873 0.0
C2361 C 0.89729 0.76279 0.23685 0.0
C2362 C 0.90286 0.77719 0.23949 0.0
C2363 C 0.90355 0.7828 0.254 0.0
H2364 H 0.20917 0.94799 0.26497 0.0
H2365 H 0.21725 0.90092 0.26921 0.0
H2366 H 0.22541 0.94892 0.24328 0.0
H2367 H 0.23432 0.90191 0.24811 0.0
H2368 H 0.26713 0.90725 0.21108 0.0
H2369 H 0.24258 0.90621 0.22296 0.0
H2370 H 0.25145 0.94842 0.24425 0.0
H2371 H 0.27537 0.94958 0.23222 0.0
C2372 C 0.21416 0.93777 0.26097 0.0
C2373 C 0.21215 0.92442 0.26876 0.0
C2374 C 0.22356 0.9383 0.24865 0.0
C2375 C 0.23158 0.9256 0.24423 0.0
C2376 C 0.22835 0.91191 0.25115 0.0
C2377 C 0.21859 0.91132 0.26328 0.0
C2378 C 0.26359 0.91644 0.21801 0.0
C2379 C 0.27325 0.92839 0.22089 0.0
C2380 C 0.24958 0.91582 0.22488 0.0
C2381 C 0.245 0.92719 0.23464 0.0
C2382 C 0.25438 0.93954 0.23666 0.0
C2383 C 0.26826 0.94014 0.22987 0.0
H2384 H 0.04126 0.72081 0.7741 0.0
H2385 H 0.08897 0.71975 0.76923 0.0
H2386 H 0.04004 0.7428 0.75833 0.0
H2387 H 0.08779 0.74121 0.75264 0.0
H2388 H 0.04173 0.75724 0.70946 0.0
H2389 H 0.0423 0.74347 0.73244 0.0
H2390 H 0.08262 0.7663 0.74533 0.0
H2391 H 0.0823 0.7799 0.72174 0.0
C2392 C 0.05152 0.72553 0.76988 0.0
C2393 C 0.06518 0.71857 0.77268 0.0
C2394 C 0.05084 0.73804 0.76074 0.0
C2395 C 0.06376 0.74351 0.7538 0.0
C2396 C 0.07761 0.73735 0.75777 0.0
C2397 C 0.07831 0.72502 0.76726 0.0
C2398 C 0.05063 0.75953 0.71724 0.0
C2399 C 0.06208 0.76953 0.71364 0.0
C2400 C 0.05088 0.75171 0.73058 0.0
C2401 C 0.06252 0.75373 0.74083 0.0
C2402 C 0.07358 0.76435 0.73762 0.0
C2403 C 0.07335 0.77219 0.72415 0.0
H2404 H 0.2745 0.03835 0.75414 0.0
H2405 H 0.26684 0.08139 0.77401 0.0
H2406 H 0.25068 0.0396 0.74189 0.0
H2407 H 0.24244 0.08258 0.76183 0.0
H2408 H 0.21941 0.08706 0.71415 0.0
H2409 H 0.23527 0.08636 0.73615 0.0
H2410 H 0.2245 0.0399 0.74231 0.0
H2411 H 0.20946 0.0405 0.71977 0.0
C2412 C 0.26751 0.04796 0.75618 0.0
C2413 C 0.27264 0.05988 0.76483 0.0
C2414 C 0.25369 0.04862 0.74927 0.0
C2415 C 0.24457 0.06123 0.7508 0.0
C2416 C 0.24925 0.07277 0.76031 0.0
C2417 C 0.26316 0.07206 0.76734 0.0
C2418 C 0.22004 0.07688 0.72056 0.0
C2419 C 0.21349 0.06377 0.71522 0.0
C2420 C 0.2291 0.07645 0.73321 0.0
C2421 C 0.23152 0.06295 0.74077 0.0
C2422 C 0.22326 0.05037 0.73647 0.0
C2423 C 0.21455 0.05071 0.72365 0.0
H2424 H 0.95218 0.27093 0.771 0.0
H2425 H 0.90467 0.26916 0.76468 0.0
H2426 H 0.95511 0.24846 0.75614 0.0
H2427 H 0.90756 0.24722 0.74898 0.0
H2428 H 0.91568 0.20918 0.71848 0.0
H2429 H 0.91439 0.22235 0.74226 0.0
H2430 H 0.95366 0.24739 0.73018 0.0
H2431 H 0.95517 0.23406 0.70698 0.0
C2432 C 0.94234 0.26547 0.76669 0.0
C2433 C 0.92824 0.2718 0.76875 0.0
C2434 C 0.944 0.25268 0.75808 0.0
C2435 C 0.93163 0.2463 0.75094 0.0
C2436 C 0.91734 0.2518 0.75429 0.0
C2437 C 0.91566 0.26441 0.76326 0.0
C2438 C 0.92422 0.21725 0.72113 0.0
C2439 C 0.93539 0.22076 0.71075 0.0
C2440 C 0.92344 0.22485 0.73471 0.0
C2441 C 0.93385 0.23603 0.73815 0.0
C2442 C 0.94556 0.23873 0.72812 0.0
C2443 C 0.94633 0.23118 0.71465 0.0
H2444 H 0.72378 0.90551 0.77362 0.0
H2445 H 0.72962 0.95235 0.782 0.0
H2446 H 0.74506 0.90583 0.75679 0.0
H2447 H 0.75146 0.9526 0.76593 0.0
H2448 H 0.76056 0.95296 0.71538 0.0
H2449 H 0.74935 0.95209 0.73973 0.0
H2450 H 0.77035 0.90965 0.7481 0.0
H2451 H 0.78148 0.91043 0.7232 0.0
C2452 C 0.73016 0.91568 0.7725 0.0
C2453 C 0.72502 0.92895 0.77888 0.0
C2454 C 0.74238 0.91589 0.76284 0.0
C2455 C 0.7497 0.92936 0.75964 0.0
C2456 C 0.74577 0.94214 0.76778 0.0
C2457 C 0.73338 0.94199 0.77711 0.0
C2458 C 0.76302 0.94353 0.72246 0.0
C2459 C 0.77171 0.93165 0.71726 0.0
C2460 C 0.75672 0.9431 0.73658 0.0
C2461 C 0.75893 0.93078 0.74596 0.0
C2462 C 0.76835 0.91925 0.74112 0.0
C2463 C 0.77476 0.91972 0.72689 0.0
H2464 H 0.22928 0.04045 0.2721 0.0
H2465 H 0.20916 0.08321 0.26346 0.0
H2466 H 0.24259 0.04183 0.24891 0.0
H2467 H 0.22227 0.08443 0.23959 0.0
H2468 H 0.26983 0.09011 0.21734 0.0
H2469 H 0.2476 0.08879 0.23284 0.0
H2470 H 0.24375 0.04184 0.22307 0.0
H2471 H 0.26659 0.04311 0.2085 0.0
C2472 C 0.22741 0.05002 0.26503 0.0
C2473 C 0.21838 0.06184 0.26976 0.0
C2474 C 0.23494 0.05075 0.25154 0.0
C2475 C 0.23361 0.0633 0.2423 0.0
C2476 C 0.22372 0.0747 0.24652 0.0
C2477 C 0.21613 0.07396 0.26014 0.0
C2478 C 0.2639 0.07965 0.21815 0.0
C2479 C 0.26995 0.06667 0.21199 0.0
C2480 C 0.25111 0.07886 0.227 0.0
C2481 C 0.24409 0.06509 0.22958 0.0
C2482 C 0.24916 0.05252 0.22175 0.0
C2483 C 0.26215 0.05324 0.21329 0.0
H2484 H 0.89209 0.27254 0.20824 0.0
H2485 H 0.93703 0.2563 0.21257 0.0
H2486 H 0.88326 0.25223 0.22414 0.0
H2487 H 0.9283 0.236 0.22814 0.0
H2488 H 0.91361 0.20387 0.26014 0.0
H2489 H 0.91214 0.21375 0.23474 0.0
H2490 H 0.8903 0.25312 0.25153 0.0
H2491 H 0.89208 0.24337 0.27669 0.0
C2492 C 0.89995 0.2642 0.21197 0.0
C2493 C 0.91525 0.26604 0.20944 0.0
C2494 C 0.89491 0.25262 0.22109 0.0
C2495 C 0.90511 0.24264 0.22752 0.0
C2496 C 0.92014 0.24342 0.22329 0.0
C2497 C 0.92518 0.25512 0.21446 0.0
C2498 C 0.90788 0.21429 0.25821 0.0
C2499 C 0.90301 0.22296 0.27023 0.0
C2500 C 0.90707 0.21996 0.24373 0.0
C2501 C 0.90121 0.23425 0.24116 0.0
C2502 C 0.89473 0.24202 0.25308 0.0
C2503 C 0.89581 0.2365 0.26752 0.0
H2504 H 0.77326 0.90653 0.28953 0.0
H2505 H 0.74467 0.94318 0.30184 0.0
H2506 H 0.76368 0.9078 0.26401 0.0
H2507 H 0.7351 0.94427 0.2768 0.0
H2508 H 0.72356 0.95128 0.23129 0.0
H2509 H 0.74147 0.95054 0.2516 0.0
H2510 H 0.73981 0.90252 0.25129 0.0
H2511 H 0.72233 0.90332 0.23048 0.0
C2512 C 0.76503 0.91489 0.28679 0.0
C2513 C 0.75967 0.92469 0.29775 0.0
C2514 C 0.75955 0.9156 0.2722 0.0
C2515 C 0.74875 0.92624 0.26831 0.0
C2516 C 0.74367 0.93617 0.27926 0.0
C2517 C 0.74905 0.93541 0.29374 0.0
C2518 C 0.72747 0.94057 0.23521 0.0
C2519 C 0.72144 0.92737 0.2295 0.0
C2520 C 0.73762 0.94013 0.24691 0.0
C2521 C 0.74169 0.92648 0.25336 0.0
C2522 C 0.73688 0.91321 0.2466 0.0
C2523 C 0.72687 0.91366 0.23467 0.0
H2524 H 0.04259 0.69082 0.24497 0.0
H2525 H 0.0785 0.70845 0.21827 0.0
H2526 H 0.04155 0.71372 0.2589 0.0
H2527 H 0.07714 0.73187 0.23212 0.0
H2528 H 0.08295 0.75917 0.27686 0.0
H2529 H 0.0831 0.74077 0.25685 0.0
H2530 H 0.03504 0.73916 0.2582 0.0
H2531 H 0.03504 0.75688 0.27866 0.0
C2532 C 0.05014 0.69969 0.2419 0.0
C2533 C 0.0607 0.69773 0.23055 0.0
C2534 C 0.04944 0.71296 0.24982 0.0
C2535 C 0.05918 0.72474 0.24657 0.0
C2536 C 0.06953 0.72298 0.23495 0.0
C2537 C 0.07027 0.70959 0.227 0.0
C2538 C 0.07244 0.75512 0.27258 0.0
C2539 C 0.059 0.75918 0.27943 0.0
C2540 C 0.0725 0.74461 0.2611 0.0
C2541 C 0.05909 0.7382 0.25617 0.0
C2542 C 0.04559 0.74351 0.26205 0.0
C2543 C 0.04556 0.75373 0.27369 0.0
H2544 H 0.23742 0.94493 0.71522 0.0
H2545 H 0.2182 0.90183 0.72417 0.0
H2546 H 0.2517 0.94343 0.73784 0.0
H2547 H 0.23236 0.90044 0.74742 0.0
H2548 H 0.28103 0.89523 0.7675 0.0
H2549 H 0.25821 0.8964 0.75282 0.0
H2550 H 0.25373 0.94303 0.76374 0.0
H2551 H 0.27705 0.94195 0.7775 0.0
C2552 C 0.23596 0.93526 0.72226 0.0
C2553 C 0.22688 0.92339 0.71778 0.0
C2554 C 0.24406 0.93445 0.73541 0.0
C2555 C 0.24328 0.92176 0.74452 0.0
C2556 C 0.23336 0.91029 0.74058 0.0
C2557 C 0.22517 0.91113 0.72732 0.0
C2558 C 0.27486 0.90558 0.76711 0.0
C2559 C 0.28082 0.91856 0.77335 0.0
C2560 C 0.26174 0.90627 0.75874 0.0
C2561 C 0.25432 0.91993 0.75674 0.0
C2562 C 0.25941 0.93245 0.76463 0.0
C2563 C 0.27269 0.93183 0.77261 0.0
H2564 H 0.04789 0.24242 0.70016 0.0
H2565 H 0.0886 0.22093 0.71393 0.0
H2566 H 0.04619 0.25478 0.72389 0.0
H2567 H 0.08673 0.23328 0.73823 0.0
H2568 H 0.08757 0.27924 0.7652 0.0
H2569 H 0.08951 0.25891 0.74725 0.0
H2570 H 0.04195 0.2523 0.74984 0.0
H2571 H 0.04003 0.27309 0.7671 0.0
C2572 C 0.05639 0.24014 0.70838 0.0
C2573 C 0.06847 0.23081 0.70508 0.0
C2574 C 0.05531 0.24712 0.72214 0.0
C2575 C 0.06628 0.24499 0.73307 0.0
C2576 C 0.07813 0.2352 0.73003 0.0
C2577 C 0.07917 0.22809 0.71616 0.0
C2578 C 0.07763 0.27309 0.76227 0.0
C2579 C 0.06362 0.27784 0.76728 0.0
C2580 C 0.07873 0.26142 0.752 0.0
C2581 C 0.06582 0.25424 0.74679 0.0
C2582 C 0.05205 0.2579 0.75327 0.0
C2583 C 0.05094 0.26973 0.76323 0.0
H2584 H 0.7224 0.0843 0.78456 0.0
H2585 H 0.71027 0.04376 0.76178 0.0
H2586 H 0.74647 0.08418 0.7718 0.0
H2587 H 0.73378 0.04386 0.74886 0.0
H2588 H 0.77609 0.04204 0.72762 0.0
H2589 H 0.75978 0.04129 0.74926 0.0
H2590 H 0.7545 0.08903 0.74676 0.0
H2591 H 0.77157 0.08975 0.72567 0.0
C2592 C 0.72494 0.07527 0.77701 0.0
C2593 C 0.71435 0.06414 0.77405 0.0
C2594 C 0.73869 0.07523 0.76966 0.0
C2595 C 0.7421 0.06404 0.75926 0.0
C2596 C 0.73176 0.05254 0.75696 0.0
C2597 C 0.71811 0.05257 0.76428 0.0
C2598 C 0.77185 0.05241 0.73209 0.0
C2599 C 0.77487 0.06593 0.72493 0.0
C2600 C 0.76241 0.05199 0.74439 0.0
C2601 C 0.75542 0.06504 0.74946 0.0
C2602 C 0.75966 0.07875 0.74319 0.0
C2603 C 0.76943 0.07919 0.73107 0.0
H2604 H 0.93741 0.73525 0.78661 0.0
H2605 H 0.89699 0.723 0.764 0.0
H2606 H 0.93747 0.7592 0.77373 0.0
H2607 H 0.89723 0.74658 0.75063 0.0
H2608 H 0.90184 0.78632 0.72327 0.0
H2609 H 0.89768 0.77344 0.74691 0.0
H2610 H 0.94415 0.76109 0.74803 0.0
H2611 H 0.94822 0.77398 0.72477 0.0
C2612 C 0.92822 0.738 0.77931 0.0
C2613 C 0.9172 0.72744 0.77621 0.0
C2614 C 0.92829 0.75162 0.77186 0.0
C2615 C 0.91755 0.75467 0.76089 0.0
C2616 C 0.90562 0.74468 0.75905 0.0
C2617 C 0.90548 0.73113 0.76666 0.0
C2618 C 0.91123 0.7813 0.7289 0.0
C2619 C 0.92529 0.78087 0.72209 0.0
C2620 C 0.90884 0.77386 0.74238 0.0
C2621 C 0.92052 0.76605 0.74928 0.0
C2622 C 0.93489 0.76705 0.74316 0.0
C2623 C 0.93723 0.77433 0.7297 0.0
H2624 H 0.22243 0.27912 0.03583 0.0
H2625 H 0.22505 0.27865 0.0837 0.0
H2626 H 0.23787 0.25689 0.03465 0.0
H2627 H 0.24128 0.25689 0.08261 0.0
H2628 H 0.27156 0.21757 0.077 0.0
H2629 H 0.24822 0.23161 0.07671 0.0
H2630 H 0.26378 0.25612 0.03836 0.0
H2631 H 0.28658 0.24198 0.03841 0.0
C2632 C 0.22608 0.27402 0.04611 0.0
C2633 C 0.22279 0.28064 0.05983 0.0
C2634 C 0.23501 0.26136 0.04546 0.0
C2635 C 0.24122 0.25537 0.05851 0.0
C2636 C 0.2367 0.26118 0.07234 0.0
C2637 C 0.22744 0.27368 0.07299 0.0
C2638 C 0.26981 0.22576 0.06835 0.0
C2639 C 0.28099 0.22879 0.05784 0.0
C2640 C 0.25647 0.23384 0.06822 0.0
C2641 C 0.25409 0.24502 0.05753 0.0
C2642 C 0.26503 0.24744 0.04661 0.0
C2643 C 0.27825 0.23942 0.04674 0.0
H2644 H 0.21273 0.72738 0.91605 0.0
H2645 H 0.23069 0.71627 0.95919 0.0
H2646 H 0.22984 0.7485 0.91447 0.0
H2647 H 0.24802 0.73656 0.95738 0.0
H2648 H 0.27876 0.77282 0.955 0.0
H2649 H 0.2543 0.76131 0.95697 0.0
H2650 H 0.25552 0.75122 0.90993 0.0
H2651 H 0.27946 0.76386 0.90794 0.0
C2652 C 0.22011 0.7296 0.9253 0.0
C2653 C 0.22051 0.72001 0.93764 0.0
C2654 C 0.23002 0.74161 0.92434 0.0
C2655 C 0.24051 0.74421 0.9357 0.0
C2656 C 0.24006 0.73518 0.94846 0.0
C2657 C 0.23016 0.72334 0.94945 0.0
C2658 C 0.27351 0.76852 0.94505 0.0
C2659 C 0.28094 0.76902 0.93137 0.0
C2660 C 0.25957 0.7618 0.94615 0.0
C2661 C 0.25306 0.75488 0.93371 0.0
C2662 C 0.26007 0.75645 0.91977 0.0
C2663 C 0.27385 0.76361 0.91859 0.0
H2664 H 0.20403 0.26621 0.912 0.0
H2665 H 0.24391 0.2817 0.89032 0.0
H2666 H 0.21343 0.24057 0.91088 0.0
H2667 H 0.25311 0.25627 0.88879 0.0
H2668 H 0.25612 0.21619 0.93415 0.0
H2669 H 0.23633 0.23302 0.92659 0.0
H2670 H 0.25023 0.22883 0.88082 0.0
H2671 H 0.26997 0.21166 0.88843 0.0
C2672 C 0.21446 0.26401 0.90638 0.0
C2673 C 0.22333 0.27579 0.90129 0.0
C2674 C 0.21984 0.24939 0.90576 0.0
C2675 C 0.23399 0.24644 0.89976 0.0
C2676 C 0.24208 0.25815 0.89329 0.0
C2677 C 0.23689 0.27272 0.89423 0.0
C2678 C 0.25449 0.21831 0.9224 0.0
C2679 C 0.26465 0.21283 0.91189 0.0
C2680 C 0.2431 0.22789 0.91804 0.0
C2681 C 0.24188 0.23238 0.90313 0.0
C2682 C 0.25099 0.22557 0.89239 0.0
C2683 C 0.26224 0.21572 0.89674 0.0
H2684 H 0.72122 0.21493 0.91105 0.0
H2685 H 0.70931 0.23794 0.95151 0.0
H2686 H 0.74536 0.22761 0.91104 0.0
H2687 H 0.73287 0.25073 0.95131 0.0
H2688 H 0.77508 0.27175 0.95317 0.0
H2689 H 0.75893 0.24999 0.95385 0.0
H2690 H 0.75341 0.2528 0.90617 0.0
H2691 H 0.77034 0.27403 0.90552 0.0
C2692 C 0.72383 0.2225 0.92004 0.0
C2693 C 0.71328 0.22557 0.93118 0.0
C2694 C 0.73762 0.2298 0.92 0.0
C2695 C 0.74111 0.24021 0.93116 0.0
C2696 C 0.73079 0.24261 0.94267 0.0
C2697 C 0.71711 0.23538 0.94269 0.0
C2698 C 0.77085 0.26731 0.9428 0.0
C2699 C 0.77375 0.27459 0.92933 0.0
C2700 C 0.7615 0.25494 0.94317 0.0
C2701 C 0.75446 0.24995 0.93013 0.0
C2702 C 0.75861 0.25632 0.91644 0.0
C2703 C 0.7683 0.26851 0.91604 0.0
H2704 H 0.72171 0.77843 0.91308 0.0
H2705 H 0.70825 0.75728 0.95407 0.0
H2706 H 0.74421 0.7631 0.91266 0.0
H2707 H 0.73 0.74171 0.95336 0.0
H2708 H 0.76878 0.71415 0.95296 0.0
H2709 H 0.75526 0.73755 0.95494 0.0
H2710 H 0.74922 0.73789 0.90721 0.0
H2711 H 0.76376 0.71507 0.90529 0.0
C2712 C 0.72368 0.77073 0.92212 0.0
C2713 C 0.71308 0.7689 0.93347 0.0
C2714 C 0.73651 0.76185 0.92183 0.0
C2715 C 0.73892 0.75099 0.93287 0.0
C2716 C 0.72877 0.75002 0.94473 0.0
C2717 C 0.7161 0.75889 0.94506 0.0
C2718 C 0.7649 0.71952 0.94289 0.0
C2719 C 0.76706 0.71278 0.92901 0.0
C2720 C 0.75706 0.73285 0.944 0.0
C2721 C 0.7507 0.73943 0.93129 0.0
C2722 C 0.75395 0.73325 0.91726 0.0
C2723 C 0.76221 0.72011 0.91613 0.0
H2724 H 0.76784 0.72321 0.03515 0.0
H2725 H 0.76502 0.72194 0.08299 0.0
H2726 H 0.7533 0.74608 0.03481 0.0
H2727 H 0.7496 0.74425 0.08273 0.0
H2728 H 0.71964 0.78368 0.07918 0.0
H2729 H 0.74291 0.76956 0.07817 0.0
H2730 H 0.7276 0.74773 0.03816 0.0
H2731 H 0.70495 0.76202 0.03889 0.0
C2732 C 0.76438 0.72808 0.04562 0.0
C2733 C 0.76734 0.7208 0.05908 0.0
C2734 C 0.75593 0.74109 0.04545 0.0
C2735 C 0.74982 0.74675 0.0587 0.0
C2736 C 0.75409 0.74026 0.0723 0.0
C2737 C 0.76291 0.72743 0.07248 0.0
C2738 C 0.72146 0.77609 0.07001 0.0
C2739 C 0.71036 0.77382 0.05923 0.0
C2740 C 0.73475 0.76795 0.06947 0.0
C2741 C 0.73717 0.75743 0.05812 0.0
C2742 C 0.72636 0.75587 0.04694 0.0
C2743 C 0.71319 0.76398 0.04745 0.0
H2744 H 0.22256 0.71815 0.09201 0.0
H2745 H 0.21643 0.71915 0.04447 0.0
H2746 H 0.23836 0.74018 0.09045 0.0
H2747 H 0.23139 0.74168 0.0429 0.0
H2748 H 0.28002 0.75732 0.04352 0.0
H2749 H 0.25735 0.74303 0.04454 0.0
H2750 H 0.24469 0.76559 0.08508 0.0
H2751 H 0.26797 0.77974 0.08427 0.0
C2752 C 0.22408 0.7235 0.08132 0.0
C2753 C 0.21856 0.71688 0.06833 0.0
C2754 C 0.2331 0.73616 0.08041 0.0
C2755 C 0.23649 0.7425 0.06648 0.0
C2756 C 0.22942 0.73681 0.05374 0.0
C2757 C 0.22075 0.72399 0.05463 0.0
C2758 C 0.27234 0.75944 0.05256 0.0
C2759 C 0.27592 0.76951 0.06393 0.0
C2760 C 0.25917 0.75133 0.05307 0.0
C2761 C 0.24912 0.75311 0.06492 0.0
C2762 C 0.25227 0.76383 0.07588 0.0
C2763 C 0.26555 0.77199 0.07538 0.0
H2764 H 0.72043 0.2267 0.04368 0.0
H2765 H 0.71794 0.23094 0.09137 0.0
H2766 H 0.74109 0.24424 0.04309 0.0
H2767 H 0.73816 0.24911 0.0908 0.0
H2768 H 0.77474 0.28343 0.08507 0.0
H2769 H 0.76325 0.25868 0.08534 0.0
H2770 H 0.73765 0.27043 0.04641 0.0
H2771 H 0.74914 0.2947 0.04601 0.0
C2772 C 0.72469 0.23103 0.05409 0.0
C2773 C 0.71758 0.22763 0.06754 0.0
C2774 C 0.7364 0.24118 0.05376 0.0
C2775 C 0.74093 0.24845 0.06684 0.0
C2776 C 0.73493 0.24375 0.08052 0.0
C2777 C 0.72336 0.23331 0.08087 0.0
C2778 C 0.76683 0.28057 0.07646 0.0
C2779 C 0.76275 0.29108 0.0656 0.0
C2780 C 0.76023 0.26643 0.07664 0.0
C2781 C 0.74959 0.26251 0.06586 0.0
C2782 C 0.74601 0.27289 0.05472 0.0
C2783 C 0.75249 0.28694 0.05459 0.0
H2784 H 0.58149 0.77888 0.71487 0.0
H2785 H 0.54424 0.79464 0.74087 0.0
H2786 H 0.58067 0.75516 0.72827 0.0
H2787 H 0.54369 0.77146 0.75435 0.0
H2788 H 0.5392 0.7286 0.7747 0.0
H2789 H 0.53857 0.74571 0.75372 0.0
H2790 H 0.58665 0.74671 0.75315 0.0
H2791 H 0.58718 0.7289 0.77366 0.0
C2792 C 0.57305 0.77724 0.72331 0.0
C2793 C 0.56301 0.78869 0.72689 0.0
C2794 C 0.57262 0.76369 0.73101 0.0
C2795 C 0.5621 0.76135 0.74237 0.0
C2796 C 0.55176 0.77266 0.74549 0.0
C2797 C 0.55218 0.7861 0.73784 0.0
C2798 C 0.54962 0.73214 0.76976 0.0
C2799 C 0.56324 0.72766 0.77589 0.0
C2800 C 0.54928 0.74202 0.75782 0.0
C2801 C 0.56255 0.74794 0.75204 0.0
C2802 C 0.57621 0.74237 0.75731 0.0
C2803 C 0.57654 0.7322 0.76909 0.0
H2804 H 0.21624 0.53911 0.72969 0.0
H2805 H 0.21853 0.58704 0.73052 0.0
H2806 H 0.23633 0.53775 0.74779 0.0
H2807 H 0.23815 0.58578 0.74925 0.0
H2808 H 0.27474 0.57931 0.783 0.0
H2809 H 0.26244 0.57899 0.75872 0.0
H2810 H 0.23454 0.54274 0.77358 0.0
H2811 H 0.24695 0.5428 0.79738 0.0
C2812 C 0.22129 0.54935 0.73356 0.0
C2813 C 0.21574 0.56318 0.72893 0.0
C2814 C 0.23271 0.54859 0.744 0.0
C2815 C 0.23854 0.56165 0.75031 0.0
C2816 C 0.23393 0.57549 0.74463 0.0
C2817 C 0.22267 0.57624 0.73391 0.0
C2818 C 0.26613 0.57113 0.78095 0.0
C2819 C 0.26174 0.56115 0.79217 0.0
C2820 C 0.25906 0.57099 0.76707 0.0
C2821 C 0.24753 0.56083 0.76416 0.0
C2822 C 0.24357 0.55054 0.77525 0.0
C2823 C 0.2506 0.55067 0.78903 0.0
H2824 H 0.45534 0.20812 0.74201 0.0
H2825 H 0.41468 0.22081 0.7198 0.0
H2826 H 0.45419 0.23025 0.75707 0.0
H2827 H 0.41372 0.24359 0.73474 0.0
H2828 H 0.40599 0.2631 0.7832 0.0
H2829 H 0.40798 0.24864 0.7603 0.0
H2830 H 0.45553 0.256 0.75993 0.0
H2831 H 0.45351 0.26953 0.78332 0.0
C2832 C 0.44631 0.21586 0.74009 0.0
C2833 C 0.43497 0.21258 0.72989 0.0
C2834 C 0.44572 0.22873 0.74864 0.0
C2835 C 0.43381 0.23877 0.74721 0.0
C2836 C 0.42296 0.23601 0.73626 0.0
C2837 C 0.42355 0.22303 0.72763 0.0
C2838 C 0.41677 0.26195 0.77793 0.0
C2839 C 0.42963 0.26713 0.78506 0.0
C2840 C 0.41794 0.25371 0.76477 0.0
C2841 C 0.43199 0.2508 0.75845 0.0
C2842 C 0.4446 0.2576 0.76475 0.0
C2843 C 0.44346 0.26544 0.77807 0.0
H2844 H 0.72677 0.40552 0.77593 0.0
H2845 H 0.72367 0.45337 0.77704 0.0
H2846 H 0.74238 0.40702 0.75373 0.0
H2847 H 0.73839 0.45495 0.75435 0.0
H2848 H 0.77077 0.41321 0.71309 0.0
H2849 H 0.74821 0.41296 0.72839 0.0
H2850 H 0.76402 0.45189 0.75179 0.0
H2851 H 0.78592 0.45242 0.73637 0.0
C2852 C 0.72897 0.41632 0.77105 0.0
C2853 C 0.72431 0.42934 0.77827 0.0
C2854 C 0.73785 0.41721 0.75829 0.0
C2855 C 0.74197 0.43115 0.75244 0.0
C2856 C 0.73586 0.44406 0.75883 0.0
C2857 C 0.72734 0.44318 0.77175 0.0
C2858 C 0.76919 0.42188 0.72129 0.0
C2859 C 0.78022 0.43273 0.72362 0.0
C2860 C 0.75633 0.42169 0.73012 0.0
C2861 C 0.75426 0.43237 0.74139 0.0
C2862 C 0.76499 0.44362 0.7431 0.0
C2863 C 0.77772 0.44383 0.73431 0.0
H2864 H 0.58352 0.21159 0.27159 0.0
H2865 H 0.53581 0.21191 0.27661 0.0
H2866 H 0.58213 0.23419 0.25661 0.0
H2867 H 0.53439 0.235 0.26251 0.0
H2868 H 0.53615 0.25215 0.2144 0.0
H2869 H 0.53658 0.23736 0.23673 0.0
H2870 H 0.57674 0.25969 0.25095 0.0
H2871 H 0.57654 0.27436 0.22798 0.0
C2872 C 0.57281 0.21689 0.27001 0.0
C2873 C 0.55974 0.20994 0.27495 0.0
C2874 C 0.57199 0.22988 0.26147 0.0
C2875 C 0.55809 0.23622 0.25799 0.0
C2876 C 0.54523 0.23015 0.26454 0.0
C2877 C 0.54602 0.217 0.27271 0.0
C2878 C 0.54497 0.25412 0.22236 0.0
C2879 C 0.55644 0.26426 0.21929 0.0
C2880 C 0.54513 0.24572 0.23535 0.0
C2881 C 0.55674 0.24725 0.24571 0.0
C2882 C 0.56774 0.2581 0.24312 0.0
C2883 C 0.56757 0.26657 0.23002 0.0
H2884 H 0.79189 0.53991 0.25679 0.0
H2885 H 0.78973 0.58784 0.25681 0.0
H2886 H 0.76864 0.53876 0.243 0.0
H2887 H 0.7668 0.58681 0.24216 0.0
H2888 H 0.72315 0.58024 0.21754 0.0
H2889 H 0.74099 0.58031 0.23814 0.0
H2890 H 0.76434 0.54355 0.21773 0.0
H2891 H 0.7465 0.54317 0.19774 0.0
C2892 C 0.78629 0.55021 0.25396 0.0
C2893 C 0.79264 0.56396 0.25763 0.0
C2894 C 0.77303 0.54957 0.24597 0.0
C2895 C 0.76605 0.56269 0.24108 0.0
C2896 C 0.77184 0.57648 0.24576 0.0
C2897 C 0.785 0.5771 0.25409 0.0
C2898 C 0.73197 0.57203 0.21765 0.0
C2899 C 0.73344 0.56175 0.20595 0.0
C2900 C 0.74223 0.57213 0.22939 0.0
C2901 C 0.7541 0.56191 0.22966 0.0
C2902 C 0.7552 0.55139 0.21815 0.0
C2903 C 0.74501 0.55127 0.20653 0.0
H2904 H 0.41016 0.71401 0.22281 0.0
H2905 H 0.45264 0.73528 0.2156 0.0
H2906 H 0.4085 0.72579 0.24734 0.0
H2907 H 0.4509 0.74717 0.23957 0.0
H2908 H 0.44897 0.76937 0.28046 0.0
H2909 H 0.45037 0.74663 0.26576 0.0
H2910 H 0.40382 0.75121 0.25461 0.0
H2911 H 0.40234 0.77341 0.27012 0.0
C2912 C 0.41928 0.72092 0.22659 0.0
C2913 C 0.43141 0.72393 0.2172 0.0
C2914 C 0.4183 0.72771 0.2406 0.0
C2915 C 0.42951 0.73751 0.24545 0.0
C2916 C 0.44212 0.73955 0.23641 0.0
C2917 C 0.44306 0.73286 0.2225 0.0
C2918 C 0.4389 0.76503 0.27545 0.0
C2919 C 0.42559 0.77309 0.27626 0.0
C2920 C 0.43971 0.75212 0.2669 0.0
C2921 C 0.42735 0.74738 0.25856 0.0
C2922 C 0.41357 0.7545 0.26085 0.0
C2923 C 0.41269 0.76725 0.26973 0.0
H2924 H 0.27864 0.41712 0.22229 0.0
H2925 H 0.25419 0.45631 0.20905 0.0
H2926 H 0.2652 0.41687 0.24598 0.0
H2927 H 0.24057 0.45579 0.23211 0.0
H2928 H 0.2173 0.4565 0.27338 0.0
H2929 H 0.23943 0.45852 0.25786 0.0
H2930 H 0.24042 0.41065 0.25328 0.0
H2931 H 0.21886 0.40871 0.26965 0.0
C2932 C 0.27059 0.4258 0.22452 0.0
C2933 C 0.26733 0.43661 0.2137 0.0
C2934 C 0.26283 0.42561 0.23805 0.0
C2935 C 0.25172 0.43625 0.24099 0.0
C2936 C 0.24918 0.44754 0.23046 0.0
C2937 C 0.25691 0.44774 0.21706 0.0
C2938 C 0.2226 0.44641 0.26944 0.0
C2939 C 0.21633 0.43247 0.27248 0.0
C2940 C 0.2352 0.44755 0.26046 0.0
C2941 C 0.24145 0.43478 0.2539 0.0
C2942 C 0.23596 0.42073 0.25812 0.0
C2943 C 0.22355 0.41959 0.26746 0.0
H2944 H 0.7303 0.54313 0.77511 0.0
H2945 H 0.71246 0.58711 0.76768 0.0
H2946 H 0.74589 0.54561 0.75345 0.0
H2947 H 0.72794 0.5895 0.74535 0.0
H2948 H 0.77723 0.59467 0.72699 0.0
H2949 H 0.75407 0.59318 0.74114 0.0
H2950 H 0.74903 0.54725 0.72774 0.0
H2951 H 0.77268 0.54863 0.71451 0.0
C2952 C 0.72945 0.55324 0.76861 0.0
C2953 C 0.72031 0.56501 0.77326 0.0
C2954 C 0.73831 0.55462 0.756 0.0
C2955 C 0.73826 0.5678 0.74758 0.0
C2956 C 0.72839 0.57926 0.75167 0.0
C2957 C 0.71944 0.57786 0.76439 0.0
C2958 C 0.77087 0.58444 0.72674 0.0
C2959 C 0.77669 0.57171 0.71986 0.0
C2960 C 0.75757 0.58356 0.7348 0.0
C2961 C 0.74983 0.56997 0.7359 0.0
C2962 C 0.75492 0.55776 0.72752 0.0
C2963 C 0.76837 0.55855 0.71982 0.0
H2964 H 0.39235 0.76883 0.70839 0.0
H2965 H 0.43836 0.75659 0.71443 0.0
H2966 H 0.38468 0.74671 0.72237 0.0
H2967 H 0.4308 0.73453 0.72809 0.0
H2968 H 0.39095 0.73389 0.77444 0.0
H2969 H 0.3897 0.74563 0.7501 0.0
H2970 H 0.41679 0.71044 0.73175 0.0
H2971 H 0.41779 0.69857 0.75629 0.0
C2972 C 0.40077 0.76105 0.7121 0.0
C2973 C 0.41594 0.76446 0.71059 0.0
C2974 C 0.39639 0.74843 0.72011 0.0
C2975 C 0.40713 0.73898 0.72646 0.0
C2976 C 0.42223 0.7415 0.72328 0.0
C2977 C 0.42659 0.75421 0.71554 0.0
C2978 C 0.39596 0.72829 0.76501 0.0
C2979 C 0.40446 0.7154 0.76712 0.0
C2980 C 0.39521 0.73496 0.75104 0.0
C2981 C 0.40328 0.72903 0.73903 0.0
C2982 C 0.41049 0.71525 0.74083 0.0
C2983 C 0.41102 0.70843 0.75481 0.0
H2984 H 0.28035 0.43503 0.75717 0.0
H2985 H 0.2826 0.39024 0.7742 0.0
H2986 H 0.26466 0.42663 0.73686 0.0
H2987 H 0.26658 0.38176 0.75389 0.0
H2988 H 0.2144 0.39319 0.74596 0.0
H2989 H 0.23963 0.3904 0.75525 0.0
H2990 H 0.25673 0.41034 0.71502 0.0
H2991 H 0.23122 0.41279 0.70556 0.0
C2992 C 0.27805 0.42325 0.75613 0.0
C2993 C 0.28244 0.41331 0.76732 0.0
C2994 C 0.26912 0.41839 0.74443 0.0
C2995 C 0.26417 0.40357 0.74394 0.0
C2996 C 0.27017 0.39326 0.75407 0.0
C2997 C 0.27937 0.3981 0.76566 0.0
C2998 C 0.22361 0.39633 0.73883 0.0
C2999 C 0.22098 0.40328 0.72515 0.0
C3000 C 0.23808 0.39464 0.74409 0.0
C3001 C 0.25017 0.40026 0.7359 0.0
C3002 C 0.24761 0.40591 0.72153 0.0
C3003 C 0.23306 0.4073 0.71612 0.0
H3004 H 0.58758 0.2824 0.76698 0.0
H3005 H 0.54385 0.26344 0.77305 0.0
H3006 H 0.58971 0.26961 0.74301 0.0
H3007 H 0.54606 0.25051 0.7497 0.0
H3008 H 0.54879 0.22696 0.70926 0.0
H3009 H 0.54758 0.24986 0.72372 0.0
H3010 H 0.59358 0.24397 0.7365 0.0
H3011 H 0.59492 0.22163 0.72117 0.0
C3012 C 0.57831 0.27579 0.76305 0.0
C3013 C 0.56565 0.27372 0.772 0.0
C3014 C 0.57956 0.26839 0.74938 0.0
C3015 C 0.56812 0.25891 0.7444 0.0
C3016 C 0.55505 0.25783 0.75294 0.0
C3017 C 0.55383 0.26514 0.76651 0.0
C3018 C 0.55879 0.23098 0.71466 0.0
C3019 C 0.57189 0.22255 0.71429 0.0
C3020 C 0.55809 0.244 0.72306 0.0
C3021 C 0.57033 0.2485 0.73171 0.0
C3022 C 0.58393 0.24089 0.73001 0.0
C3023 C 0.58472 0.22804 0.72125 0.0
H3024 H 0.77445 0.40744 0.28917 0.0
H3025 H 0.78859 0.3916 0.24615 0.0
H3026 H 0.74835 0.40497 0.28146 0.0
H3027 H 0.76278 0.38877 0.2386 0.0
H3028 H 0.71796 0.38646 0.22407 0.0
H3029 H 0.73654 0.37811 0.24215 0.0
H3030 H 0.73759 0.42217 0.26122 0.0
H3031 H 0.71934 0.43047 0.24307 0.0
C3032 C 0.77195 0.40285 0.27832 0.0
C3033 C 0.78342 0.39988 0.26815 0.0
C3034 C 0.75706 0.40143 0.27392 0.0
C3035 C 0.75353 0.3967 0.25943 0.0
C3036 C 0.7651 0.39226 0.24989 0.0
C3037 C 0.77989 0.39401 0.25415 0.0
C3038 C 0.72159 0.3941 0.23265 0.0
C3039 C 0.71743 0.40913 0.23212 0.0
C3040 C 0.73227 0.38935 0.24294 0.0
C3041 C 0.73866 0.39955 0.25293 0.0
C3042 C 0.73284 0.41403 0.25372 0.0
C3043 C 0.72242 0.41882 0.24329 0.0
H3044 H 0.54279 0.78297 0.25261 0.0
H3045 H 0.58227 0.77029 0.27691 0.0
H3046 H 0.54304 0.75944 0.23973 0.0
H3047 H 0.5823 0.74623 0.26414 0.0
H3048 H 0.58923 0.72145 0.21793 0.0
H3049 H 0.58798 0.73838 0.23909 0.0
H3050 H 0.54015 0.73336 0.2402 0.0
H3051 H 0.54144 0.71713 0.21855 0.0
C3052 C 0.55138 0.77501 0.25544 0.0
C3053 C 0.56263 0.77861 0.26563 0.0
C3054 C 0.55143 0.76136 0.24814 0.0
C3055 C 0.56271 0.75086 0.25087 0.0
C3056 C 0.57354 0.75412 0.26168 0.0
C3057 C 0.57348 0.76786 0.26903 0.0
C3058 C 0.57852 0.7236 0.22304 0.0
C3059 C 0.5654 0.71826 0.2165 0.0
C3060 C 0.57778 0.73329 0.2352 0.0
C3061 C 0.56391 0.73757 0.2411 0.0
C3062 C 0.55097 0.73067 0.23563 0.0
C3063 C 0.5517 0.72129 0.22331 0.0
H3064 H 0.28212 0.54357 0.224 0.0
H3065 H 0.27187 0.59033 0.22132 0.0
H3066 H 0.26815 0.54172 0.24714 0.0
H3067 H 0.25691 0.5884 0.24388 0.0
H3068 H 0.22847 0.5819 0.28388 0.0
H3069 H 0.25139 0.58396 0.26931 0.0
H3070 H 0.24257 0.54084 0.2499 0.0
H3071 H 0.22038 0.53859 0.2647 0.0
C3072 C 0.27708 0.55351 0.22858 0.0
C3073 C 0.27787 0.56704 0.22088 0.0
C3074 C 0.26895 0.55246 0.24175 0.0
C3075 C 0.26096 0.56479 0.24716 0.0
C3076 C 0.26291 0.57866 0.24012 0.0
C3077 C 0.27143 0.57979 0.22714 0.0
C3078 C 0.2317 0.57273 0.27677 0.0
C3079 C 0.22249 0.56018 0.27528 0.0
C3080 C 0.24477 0.57395 0.26834 0.0
C3081 C 0.24885 0.56264 0.25829 0.0
C3082 C 0.24005 0.54972 0.25762 0.0
C3083 C 0.22712 0.54849 0.26603 0.0
H3084 H 0.39509 0.21782 0.27019 0.0
H3085 H 0.44118 0.22362 0.28194 0.0
H3086 H 0.39562 0.24112 0.25633 0.0
H3087 H 0.44158 0.24748 0.26904 0.0
H3088 H 0.44451 0.26426 0.22067 0.0
H3089 H 0.44296 0.2501 0.24335 0.0
H3090 H 0.39854 0.26693 0.25105 0.0
H3091 H 0.39999 0.2809 0.22769 0.0
C3092 C 0.40509 0.22453 0.27045 0.0
C3093 C 0.41813 0.21897 0.27693 0.0
C3094 C 0.40543 0.23793 0.26253 0.0
C3095 C 0.41879 0.24601 0.26117 0.0
C3096 C 0.43125 0.2413 0.26941 0.0
C3097 C 0.43101 0.22774 0.27696 0.0
C3098 C 0.43449 0.26519 0.2273 0.0
C3099 C 0.42226 0.27346 0.22222 0.0
C3100 C 0.43365 0.25718 0.2405 0.0
C3101 C 0.42056 0.25723 0.24909 0.0
C3102 C 0.40871 0.26645 0.24461 0.0
C3103 C 0.40956 0.27453 0.23129 0.0
H3104 H 0.77883 0.71557 0.58201 0.0
H3105 H 0.79169 0.74132 0.5435 0.0
H3106 H 0.75508 0.72897 0.58289 0.0
H3107 H 0.76852 0.75477 0.54461 0.0
H3108 H 0.72523 0.77465 0.5429 0.0
H3109 H 0.74248 0.75383 0.54133 0.0
H3110 H 0.74688 0.75397 0.5892 0.0
H3111 H 0.7289 0.77433 0.59072 0.0
C3112 C 0.77653 0.72394 0.57366 0.0
C3113 C 0.7872 0.72746 0.56276 0.0
C3114 C 0.76298 0.73165 0.5742 0.0
C3115 C 0.75983 0.74292 0.5638 0.0
C3116 C 0.77035 0.74598 0.55263 0.0
C3117 C 0.78379 0.73834 0.5521 0.0
C3118 C 0.72956 0.76991 0.55309 0.0
C3119 C 0.72596 0.77618 0.5669 0.0
C3120 C 0.73952 0.75806 0.55221 0.0
C3121 C 0.74642 0.75252 0.56511 0.0
C3122 C 0.74178 0.75795 0.57904 0.0
C3123 C 0.73152 0.76964 0.57993 0.0
H3124 H 0.78258 0.2592 0.4522 0.0
H3125 H 0.77444 0.27931 0.40933 0.0
H3126 H 0.75997 0.24497 0.44998 0.0
H3127 H 0.7512 0.2652 0.40725 0.0
H3128 H 0.72837 0.21785 0.40148 0.0
H3129 H 0.74471 0.23954 0.40295 0.0
H3130 H 0.73393 0.24424 0.44959 0.0
H3131 H 0.71846 0.22203 0.44818 0.0
C3132 C 0.77578 0.26082 0.44239 0.0
C3133 C 0.78043 0.27026 0.43086 0.0
C3134 C 0.76263 0.25274 0.44118 0.0
C3135 C 0.75366 0.2539 0.42843 0.0
C3136 C 0.75791 0.26393 0.41717 0.0
C3137 C 0.77117 0.27208 0.41839 0.0
C3138 C 0.72919 0.22385 0.41189 0.0
C3139 C 0.72237 0.21827 0.42476 0.0
C3140 C 0.73852 0.2363 0.41276 0.0
C3141 C 0.74096 0.24344 0.42649 0.0
C3142 C 0.7327 0.23875 0.43894 0.0
C3143 C 0.72372 0.22613 0.43814 0.0
H3144 H 0.76164 0.69436 0.41127 0.0
H3145 H 0.7776 0.73453 0.39051 0.0
H3146 H 0.73614 0.70411 0.41045 0.0
H3147 H 0.75236 0.74415 0.3894 0.0
H3148 H 0.70917 0.76343 0.3923 0.0
H3149 H 0.72509 0.74349 0.38272 0.0
H3150 H 0.72919 0.72563 0.42712 0.0
H3151 H 0.71356 0.74553 0.43658 0.0
C3152 C 0.75957 0.70493 0.40586 0.0
C3153 C 0.77147 0.7138 0.40105 0.0
C3154 C 0.74502 0.71052 0.40543 0.0
C3155 C 0.74226 0.72494 0.39998 0.0
C3156 C 0.75404 0.73296 0.39354 0.0
C3157 C 0.76853 0.72751 0.39424 0.0
C3158 C 0.71292 0.75482 0.39984 0.0
C3159 C 0.7104 0.75609 0.41519 0.0
C3160 C 0.72206 0.74344 0.39438 0.0
C3161 C 0.72856 0.73313 0.4042 0.0
C3162 C 0.72432 0.73333 0.41923 0.0
C3163 C 0.71544 0.7448 0.4247 0.0
H3164 H 0.21173 0.73254 0.4517 0.0
H3165 H 0.22046 0.71229 0.40903 0.0
H3166 H 0.23429 0.74684 0.44969 0.0
H3167 H 0.24369 0.72641 0.40716 0.0
H3168 H 0.26312 0.77496 0.40015 0.0
H3169 H 0.24893 0.75193 0.40224 0.0
H3170 H 0.26001 0.7495 0.44898 0.0
H3171 H 0.27323 0.77309 0.44694 0.0
C3172 C 0.21871 0.73085 0.44202 0.0
C3173 C 0.21415 0.72151 0.43039 0.0
C3174 C 0.23184 0.73896 0.44092 0.0
C3175 C 0.24087 0.73791 0.42818 0.0
C3176 C 0.2369 0.72766 0.41702 0.0
C3177 C 0.22365 0.7195 0.41813 0.0
C3178 C 0.26289 0.76918 0.41072 0.0
C3179 C 0.26901 0.77578 0.42343 0.0
C3180 C 0.2548 0.75594 0.41195 0.0
C3181 C 0.25294 0.74903 0.4259 0.0
C3182 C 0.26076 0.75477 0.43818 0.0
C3183 C 0.26846 0.76819 0.43702 0.0
H3184 H 0.25003 0.20431 0.45023 0.0
H3185 H 0.27484 0.21746 0.41121 0.0
H3186 H 0.23729 0.22791 0.45025 0.0
H3187 H 0.26218 0.24161 0.41144 0.0
H3188 H 0.21741 0.27082 0.4531 0.0
H3189 H 0.2386 0.25394 0.45385 0.0
H3190 H 0.2371 0.25003 0.40596 0.0
H3191 H 0.2164 0.2676 0.40525 0.0
C3192 C 0.25297 0.21237 0.44177 0.0
C3193 C 0.26332 0.20891 0.4306 0.0
C3194 C 0.24577 0.22606 0.44189 0.0
C3195 C 0.24873 0.23674 0.43087 0.0
C3196 C 0.25957 0.23358 0.42003 0.0
C3197 C 0.26685 0.21979 0.41993 0.0
C3198 C 0.22197 0.26672 0.44272 0.0
C3199 C 0.21518 0.27027 0.42914 0.0
C3200 C 0.23403 0.25699 0.44313 0.0
C3201 C 0.23924 0.25026 0.43001 0.0
C3202 C 0.23338 0.25499 0.41629 0.0
C3203 C 0.22148 0.26503 0.41586 0.0
H3204 H 0.2458 0.27448 0.55631 0.0
H3205 H 0.23199 0.28213 0.60162 0.0
H3206 H 0.26704 0.26035 0.56502 0.0
H3207 H 0.25338 0.26778 0.61049 0.0
H3208 H 0.29919 0.22916 0.57851 0.0
H3209 H 0.28995 0.2548 0.5794 0.0
H3210 H 0.25314 0.24033 0.60674 0.0
H3211 H 0.26234 0.21497 0.60568 0.0
C3212 C 0.24769 0.27363 0.56818 0.0
C3213 C 0.23714 0.27908 0.57829 0.0
C3214 C 0.25997 0.26564 0.57322 0.0
C3215 C 0.26177 0.26271 0.58847 0.0
C3216 C 0.2522 0.26975 0.59867 0.0
C3217 C 0.23998 0.27798 0.5936 0.0
C3218 C 0.2896 0.2317 0.58535 0.0
C3219 C 0.28136 0.22023 0.59195 0.0
C3220 C 0.28427 0.24633 0.58582 0.0
C3221 C 0.27068 0.24955 0.59293 0.0
C3222 C 0.26367 0.23831 0.60124 0.0
C3223 C 0.26888 0.22372 0.6006 0.0
H3224 H 0.77463 0.27074 0.53937 0.0
H3225 H 0.77314 0.26785 0.58723 0.0
H3226 H 0.75373 0.25357 0.53762 0.0
H3227 H 0.75272 0.25004 0.58555 0.0
H3228 H 0.7162 0.21657 0.57868 0.0
H3229 H 0.72814 0.24106 0.57874 0.0
H3230 H 0.75555 0.22753 0.54162 0.0
H3231 H 0.74353 0.20353 0.54134 0.0
C3232 C 0.76953 0.26671 0.54953 0.0
C3233 C 0.77557 0.27039 0.56342 0.0
C3234 C 0.75765 0.2568 0.54854 0.0
C3235 C 0.75188 0.25006 0.56142 0.0
C3236 C 0.7569 0.255 0.5754 0.0
C3237 C 0.76862 0.2652 0.57639 0.0
C3238 C 0.72458 0.21899 0.57038 0.0
C3239 C 0.72903 0.20805 0.56011 0.0
C3240 C 0.73145 0.23298 0.57045 0.0
C3241 C 0.7428 0.2363 0.56019 0.0
C3242 C 0.74668 0.22554 0.54952 0.0
C3243 C 0.73988 0.21164 0.54947 0.0
H3244 H 0.26945 0.76951 0.5352 0.0
H3245 H 0.26749 0.77018 0.5831 0.0
H3246 H 0.25443 0.74696 0.53483 0.0
H3247 H 0.25157 0.74824 0.58283 0.0
H3248 H 0.22137 0.70894 0.57941 0.0
H3249 H 0.24457 0.72318 0.5783 0.0
H3250 H 0.22896 0.74498 0.53837 0.0
H3251 H 0.20645 0.73052 0.53915 0.0
C3252 C 0.266 0.76462 0.54567 0.0
C3253 C 0.26942 0.77161 0.55916 0.0
C3254 C 0.25729 0.75179 0.54548 0.0
C3255 C 0.25134 0.74602 0.55877 0.0
C3256 C 0.25593 0.75229 0.57237 0.0
C3257 C 0.26502 0.76492 0.57255 0.0
C3258 C 0.22311 0.71655 0.57024 0.0
C3259 C 0.21198 0.71873 0.55948 0.0
C3260 C 0.23636 0.72477 0.56964 0.0
C3261 C 0.23869 0.73532 0.55829 0.0
C3262 C 0.22782 0.73682 0.54715 0.0
C3263 C 0.21472 0.7286 0.5477 0.0
H3264 H 0.02333 0.18608 0.35183 0.0
H3265 H 0.03403 0.16954 0.30808 0.0
H3266 H -0.00278 0.1803 0.34771 0.0
H3267 H 0.00778 0.16396 0.30385 0.0
H3268 H 0.96805 0.19975 0.29725 0.0
H3269 H 0.99215 0.18826 0.30153 0.0
H3270 H 0.97421 0.1644 0.33917 0.0
H3271 H 0.94972 0.17568 0.3345 0.0
C3272 C 0.0202 0.18042 0.34166 0.0
C3273 C 0.03058 0.17856 0.33014 0.0
C3274 C 0.00522 0.17707 0.33931 0.0
C3275 C 0.00047 0.17205 0.32531 0.0
C3276 C 0.01119 0.16797 0.31468 0.0
C3277 C 0.02623 0.1711 0.31714 0.0
C3278 C 0.96915 0.19173 0.30617 0.0
C3279 C 0.95716 0.18871 0.31566 0.0
C3280 C 0.98289 0.18499 0.30852 0.0
C3281 C 0.98503 0.17535 0.32064 0.0
C3282 C 0.9728 0.17167 0.32967 0.0
C3283 C 0.95886 0.17815 0.32705 0.0
H3284 H 0.78757 0.9685 0.36843 0.0
H3285 H 0.81633 0.95098 0.33418 0.0
H3286 H 0.79698 0.99336 0.36365 0.0
H3287 H 0.82577 0.97597 0.32937 0.0
H3288 H 0.80142 0.01826 0.30723 0.0
H3289 H 0.80835 0.99397 0.3169 0.0
H3290 H 0.81626 0.01341 0.36012 0.0
H3291 H 0.80948 0.03794 0.35017 0.0
C3292 C 0.79637 0.96987 0.36032 0.0
C3293 C 0.80089 0.95788 0.35139 0.0
C3294 C 0.80187 0.98413 0.35764 0.0
C3295 C 0.81187 0.98665 0.34589 0.0
C3296 C 0.81791 0.97435 0.33836 0.0
C3297 C 0.81252 0.96003 0.34115 0.0
C3298 C 0.80531 0.01741 0.31861 0.0
C3299 C 0.80495 0.02982 0.328 0.0
C3300 C 0.80937 0.00352 0.32416 0.0
C3301 C 0.81278 0.00176 0.33932 0.0
C3302 C 0.81367 0.01447 0.34841 0.0
C3303 C 0.80985 0.02846 0.34273 0.0
H3304 H 0.94727 0.81872 0.3317 0.0
H3305 H 0.9634 0.79888 0.29112 0.0
H3306 H 0.97253 0.82747 0.33737 0.0
H3307 H 0.98833 0.80776 0.2965 0.0
H3308 H 0.03237 0.81954 0.30653 0.0
H3309 H 0.00696 0.82801 0.30198 0.0
H3310 H 0.99331 0.80962 0.34419 0.0
H3311 H 0.01858 0.80116 0.34867 0.0
C3312 C 0.95609 0.81678 0.32373 0.0
C3313 C 0.95353 0.80799 0.31108 0.0
C3314 C 0.97051 0.82176 0.32696 0.0
C3315 C 0.98243 0.81828 0.31741 0.0
C3316 C 0.97942 0.81081 0.30401 0.0
C3317 C 0.96515 0.80558 0.30097 0.0
C3318 C 0.02411 0.818 0.31517 0.0
C3319 C 0.02732 0.80936 0.32778 0.0
C3320 C 0.00954 0.8228 0.31253 0.0
C3321 C -0.00192 0.81914 0.32256 0.0
C3322 C 0.00185 0.81259 0.33623 0.0
C3323 C 0.01635 0.80765 0.33877 0.0
H3324 H 0.16053 0.03483 0.31058 0.0
H3325 H 0.18966 0.02456 0.34726 0.0
H3326 H 0.14918 0.01017 0.31274 0.0
H3327 H 0.17893 0.00011 0.34921 0.0
H3328 H 0.16968 0.95524 0.34823 0.0
H3329 H 0.16214 0.98097 0.35238 0.0
H3330 H 0.15938 0.98747 0.30479 0.0
H3331 H 0.16574 0.96154 0.30094 0.0
C3332 C 0.16411 0.02751 0.31945 0.0
C3333 C 0.1762 0.03141 0.32852 0.0
C3334 C 0.15772 0.01332 0.32061 0.0
C3335 C 0.16336 0.00287 0.33086 0.0
C3336 C 0.17415 0.00767 0.34115 0.0
C3337 C 0.18048 0.02174 0.33997 0.0
C3338 C 0.16655 0.962 0.33876 0.0
C3339 C 0.16835 0.95655 0.32428 0.0
C3340 C 0.16244 0.97681 0.34108 0.0
C3341 C 0.16082 0.98657 0.32892 0.0
C3342 C 0.16059 0.98045 0.31449 0.0
C3343 C 0.16426 0.96551 0.31222 0.0
H3344 H 0.03232 0.82211 0.68224 0.0
H3345 H 0.03508 0.81527 0.63492 0.0
H3346 H 0.00697 0.83093 0.67962 0.0
H3347 H 0.01008 0.82536 0.63193 0.0
H3348 H 0.96517 0.80138 0.64138 0.0
H3349 H 0.98995 0.81046 0.63703 0.0
H3350 H 0.98459 0.84233 0.67272 0.0
H3351 H 0.95951 0.83266 0.67726 0.0
C3352 C 0.02778 0.82344 0.67115 0.0
C3353 C 0.03542 0.81777 0.65881 0.0
C3354 C 0.01318 0.82855 0.66959 0.0
C3355 C 0.00614 0.82824 0.65558 0.0
C3356 C 0.0149 0.82512 0.64296 0.0
C3357 C 0.0293 0.81951 0.6446 0.0
C3358 C 0.96908 0.8107 0.64794 0.0
C3359 C 0.96063 0.81608 0.65987 0.0
C3360 C 0.98336 0.81609 0.64538 0.0
C3361 C 0.9896 0.82694 0.6548 0.0
C3362 C 0.98032 0.83371 0.6655 0.0
C3363 C 0.9659 0.82829 0.66803 0.0
H3364 H 0.17067 0.02591 0.68081 0.0
H3365 H 0.179 0.02941 0.63378 0.0
H3366 H 0.16569 -0.00047 0.67809 0.0
H3367 H 0.17282 0.00319 0.63066 0.0
H3368 H 0.20048 0.96071 0.64041 0.0
H3369 H 0.18988 0.98498 0.63665 0.0
H3370 H 0.15696 0.97603 0.67064 0.0
H3371 H 0.16817 0.95154 0.67472 0.0
C3372 C 0.17046 0.02119 0.66973 0.0
C3373 C 0.17541 0.02953 0.65753 0.0
C3374 C 0.16759 0.00599 0.66812 0.0
C3375 C 0.16945 -0.00099 0.6542 0.0
C3376 C 0.17189 0.00805 0.64163 0.0
C3377 C 0.17522 0.02313 0.64334 0.0
C3378 C 0.19073 0.96374 0.64683 0.0
C3379 C 0.18542 0.9544 0.65814 0.0
C3380 C 0.18446 0.9777 0.64456 0.0
C3381 C 0.17265 0.98273 0.65354 0.0
C3382 C 0.16625 0.97268 0.66374 0.0
C3383 C 0.17259 0.9586 0.66601 0.0
H3384 H 0.97044 0.17427 0.67541 0.0
H3385 H 0.96323 0.18175 0.62867 0.0
H3386 H -0.00351 0.16906 0.67067 0.0
H3387 H 0.98909 0.17533 0.62355 0.0
H3388 H 0.03246 0.20278 0.62935 0.0
H3389 H 0.00796 0.19217 0.62757 0.0
H3390 H 0.01923 0.16007 0.66162 0.0
H3391 H 0.04392 0.17131 0.66373 0.0
C3392 C 0.97427 0.17382 0.66399 0.0
C3393 C 0.96499 0.17859 0.65242 0.0
C3394 C 0.98927 0.17082 0.66121 0.0
C3395 C 0.99513 0.17236 0.64674 0.0
C3396 C 0.98512 0.17464 0.6349 0.0
C3397 C 0.97024 0.17811 0.63776 0.0
C3398 C 0.02988 0.19319 0.63619 0.0
C3399 C 0.03995 0.18817 0.64698 0.0
C3400 C 0.01577 0.18692 0.63506 0.0
C3401 C 0.01134 0.17539 0.64471 0.0
C3402 C 0.02209 0.16917 0.65427 0.0
C3403 C 0.0363 0.17553 0.65541 0.0
H3404 H 0.81769 0.04045 0.64346 0.0
H3405 H 0.82317 0.03042 0.68995 0.0
H3406 H 0.82517 0.01518 0.63703 0.0
H3407 H 0.82964 0.00496 0.68381 0.0
H3408 H 0.82771 0.95837 0.67447 0.0
H3409 H 0.83951 0.98287 0.67334 0.0
H3410 H 0.80759 -0.0037 0.63993 0.0
H3411 H 0.79628 0.97202 0.64088 0.0
C3412 C 0.82122 0.033 0.65225 0.0
C3413 C 0.81976 0.03721 0.66717 0.0
C3414 C 0.82533 0.01846 0.64862 0.0
C3415 C 0.82732 0.00779 0.65991 0.0
C3416 C 0.82809 0.01274 0.67476 0.0
C3417 C 0.82437 0.0274 0.67835 0.0
C3418 C 0.82367 0.96642 0.66646 0.0
C3419 C 0.81084 0.96349 0.65805 0.0
C3420 C 0.83037 0.98049 0.66587 0.0
C3421 C 0.82431 0.99177 0.65684 0.0
C3422 C 0.81269 0.98803 0.64704 0.0
C3423 C 0.80602 0.97408 0.64768 0.0
H3424 H 0.35057 0.9677 0.19821 0.0
H3425 H 0.31781 0.95628 0.16506 0.0
H3426 H 0.35305 0.99215 0.18759 0.0
H3427 H 0.32058 0.98095 0.15389 0.0
H3428 H 0.30644 0.02982 0.16809 0.0
H3429 H 0.31116 0.00376 0.16286 0.0
H3430 H 0.35814 0.01079 0.17049 0.0
H3431 H 0.35304 0.03667 0.17681 0.0
C3432 C 0.34425 0.97028 0.18828 0.0
C3433 C 0.3337 0.96024 0.18273 0.0
C3434 C 0.34579 0.98435 0.182 0.0
C3435 C 0.33678 0.98877 0.16998 0.0
C3436 C 0.32746 0.97806 0.16334 0.0
C3437 C 0.32594 0.96388 0.16967 0.0
C3438 C 0.31785 0.02592 0.1679 0.0
C3439 C 0.32936 0.03509 0.17302 0.0
C3440 C 0.32061 0.01092 0.16489 0.0
C3441 C 0.33499 0.00496 0.16682 0.0
C3442 C 0.34685 0.01486 0.16945 0.0
C3443 C 0.344 0.02975 0.17288 0.0
H3444 H 0.97407 0.29327 0.17481 0.0
H3445 H 0.95923 0.33779 0.16515 0.0
H3446 H -0.00101 0.29962 0.16665 0.0
H3447 H 0.98439 0.34437 0.15687 0.0
H3448 H 0.04371 0.3113 0.16162 0.0
H3449 H 0.01898 0.30875 0.15063 0.0
H3450 H 0.00427 0.34739 0.17513 0.0
H3451 H 0.02883 0.34995 0.18587 0.0
C3452 C 0.97605 0.30424 0.1702 0.0
C3453 C 0.96488 0.31508 0.17065 0.0
C3454 C 0.99033 0.3079 0.16543 0.0
C3455 C 0.99378 0.32261 0.16132 0.0
C3456 C 0.98211 0.333 0.16011 0.0
C3457 C 0.96771 0.32924 0.16476 0.0
C3458 C 0.03538 0.31967 0.16405 0.0
C3459 C 0.038 0.33056 0.17493 0.0
C3460 C 0.02119 0.31817 0.15781 0.0
C3461 C 0.00952 0.32759 0.16234 0.0
C3462 C 0.01291 0.33988 0.1714 0.0
C3463 C 0.02701 0.3413 0.17769 0.0
H3464 H 0.6929 0.96312 0.17536 0.0
H3465 H 0.64576 0.95498 0.17785 0.0
H3466 H 0.6882 0.9884 0.16707 0.0
H3467 H 0.64085 0.97998 0.16851 0.0
H3468 H 0.64344 0.02566 0.1931 0.0
H3469 H 0.64288 0.00034 0.18435 0.0
H3470 H 0.67937 0.00979 0.1544 0.0
H3471 H 0.68004 0.0354 0.16364 0.0
C3472 C 0.68153 0.96649 0.17319 0.0
C3473 C 0.66968 0.95729 0.17739 0.0
C3474 C 0.67878 0.98103 0.1684 0.0
C3475 C 0.66409 0.98648 0.16762 0.0
C3476 C 0.65229 0.97634 0.16949 0.0
C3477 C 0.65506 0.96195 0.17467 0.0
C3478 C 0.65099 0.02249 0.18425 0.0
C3479 C 0.66199 0.03236 0.1793 0.0
C3480 C 0.65062 0.00791 0.17908 0.0
C3481 C 0.66133 0.0028 0.16885 0.0
C3482 C 0.67117 0.01325 0.16251 0.0
C3483 C 0.67148 0.02796 0.16769 0.0
H3484 H 0.04242 0.66887 0.16574 0.0
H3485 H 0.0202 0.63255 0.188 0.0
H3486 H 0.01896 0.67608 0.1542 0.0
H3487 H -0.00314 0.63977 0.17656 0.0
H3488 H 0.95455 0.65781 0.16371 0.0
H3489 H 0.97873 0.64718 0.1568 0.0
H3490 H 0.00032 0.68766 0.17112 0.0
H3491 H 0.97638 0.69796 0.17815 0.0
C3492 C 0.03271 0.66199 0.16763 0.0
C3493 C 0.03301 0.65045 0.17818 0.0
C3494 C 0.01925 0.66615 0.16102 0.0
C3495 C 0.00599 0.65876 0.16481 0.0
C3496 C 0.00684 0.64576 0.17345 0.0
C3497 C 0.02024 0.64167 0.18012 0.0
C3498 C 0.96444 0.66461 0.16468 0.0
C3499 C 0.96374 0.67861 0.17155 0.0
C3500 C 0.97827 0.65853 0.16079 0.0
C3501 C 0.99146 0.66651 0.16355 0.0
C3502 C 0.99042 0.68124 0.16871 0.0
C3503 C 0.9767 0.68715 0.17284 0.0
H3504 H 0.36225 0.95364 0.80543 0.0
H3505 H 0.31567 0.95551 0.81656 0.0
H3506 H 0.36486 0.97993 0.81156 0.0
H3507 H 0.31782 0.98197 0.82152 0.0
H3508 H 0.31971 0.03014 0.81929 0.0
H3509 H 0.32519 0.0057 0.83002 0.0
H3510 H 0.35704 -0.00219 0.79479 0.0
H3511 H 0.35189 0.02201 0.7846 0.0
C3512 C 0.35271 0.9596 0.80976 0.0
C3513 C 0.33874 0.95272 0.81036 0.0
C3514 C 0.35412 0.97469 0.81311 0.0
C3515 C 0.34141 0.98328 0.81635 0.0
C3516 C 0.32786 0.97584 0.81897 0.0
C3517 C 0.32658 0.96062 0.8161 0.0
C3518 C 0.32826 0.02332 0.81423 0.0
C3519 C 0.33512 0.02777 0.80091 0.0
C3520 C 0.33134 0.00929 0.82031 0.0
C3521 C 0.34136 -0.00044 0.81317 0.0
C3522 C 0.34934 0.00486 0.80077 0.0
C3523 C 0.34624 0.01875 0.79475 0.0
H3524 H 0.02343 0.30699 0.81607 0.0
H3525 H 0.02895 0.35446 0.81288 0.0
H3526 H -0.00203 0.31037 0.82427 0.0
H3527 H 0.00376 0.35812 0.82231 0.0
H3528 H 0.95899 0.35257 0.79677 0.0
H3529 H 0.98355 0.35534 0.80697 0.0
H3530 H 0.97589 0.31759 0.83586 0.0
H3531 H 0.95114 0.31459 0.825 0.0
C3532 C 0.01941 0.31818 0.81802 0.0
C3533 C 0.02792 0.33046 0.81364 0.0
C3534 C 0.00476 0.32019 0.82281 0.0
C3535 C -0.0015 0.33456 0.82341 0.0
C3536 C 0.00798 0.34688 0.82139 0.0
C3537 C 0.02247 0.34484 0.81615 0.0
C3538 C 0.96234 0.34519 0.8057 0.0
C3539 C 0.95341 0.33308 0.80974 0.0
C3540 C 0.97649 0.34684 0.81173 0.0
C3541 C 0.98205 0.33634 0.82194 0.0
C3542 C 0.97217 0.32558 0.82766 0.0
C3543 C 0.95792 0.32393 0.82156 0.0
H3544 H 0.63435 0.03566 0.81516 0.0
H3545 H 0.6813 0.03442 0.82464 0.0
H3546 H 0.63186 0.01006 0.82373 0.0
H3547 H 0.67927 0.00853 0.83188 0.0
H3548 H 0.67843 0.96074 0.83169 0.0
H3549 H 0.67286 0.98545 0.84175 0.0
H3550 H 0.63828 0.99066 0.80865 0.0
H3551 H 0.64354 0.9662 0.79925 0.0
C3552 C 0.64403 0.03003 0.81961 0.0
C3553 C 0.65805 0.03682 0.81905 0.0
C3554 C 0.64269 0.01529 0.82434 0.0
C3555 C 0.65548 0.00688 0.82775 0.0
C3556 C 0.66914 0.01445 0.82922 0.0
C3557 C 0.67036 0.02937 0.82502 0.0
C3558 C 0.66923 0.96701 0.82708 0.0
C3559 C 0.66164 0.96179 0.81448 0.0
C3560 C 0.66611 0.98123 0.83272 0.0
C3561 C 0.6554 0.99037 0.8258 0.0
C3562 C 0.6466 0.98417 0.81442 0.0
C3563 C 0.64971 0.97008 0.80885 0.0
H3564 H 0.95503 0.65112 0.81767 0.0
H3565 H 0.96843 0.69644 0.80978 0.0
H3566 H 0.97989 0.64547 0.82744 0.0
H3567 H 0.9931 0.69099 0.81929 0.0
H3568 H 0.03767 0.68151 0.82832 0.0
H3569 H 0.01192 0.68286 0.83691 0.0
H3570 H 0.00157 0.64337 0.81156 0.0
H3571 H 0.02715 0.64197 0.80326 0.0
C3572 C 0.96313 0.65999 0.81864 0.0
C3573 C 0.96001 0.67417 0.81298 0.0
C3574 C 0.97735 0.65678 0.82416 0.0
C3575 C 0.98857 0.66772 0.824 0.0
C3576 C 0.98477 0.68231 0.81978 0.0
C3577 C 0.97066 0.68545 0.8142 0.0
C3578 C 0.03005 0.6727 0.82524 0.0
C3579 C 0.03424 0.66188 0.81478 0.0
C3580 C 0.01527 0.67353 0.83007 0.0
C3581 C 0.00456 0.66352 0.82452 0.0
C3582 C 0.00942 0.65133 0.81601 0.0
C3583 C 0.02413 0.65056 0.81115 0.0
H3584 H 0.17067 0.31493 0.03025 0.0
H3585 H 0.19211 0.35685 0.02093 0.0
H3586 H 0.16451 0.31229 0.00394 0.0
H3587 H 0.18581 0.35431 0.99475 0.0
H3588 H 0.1785 0.34414 0.94694 0.0
H3589 H 0.16856 0.349 0.97199 0.0
H3590 H 0.18753 0.3076 0.98728 0.0
H3591 H 0.19773 0.3031 0.96262 0.0
C3592 C 0.17331 0.32398 0.02275 0.0
C3593 C 0.18216 0.33593 0.02752 0.0
C3594 C 0.16984 0.32243 0.00767 0.0
C3595 C 0.17498 0.33294 -0.00272 0.0
C3596 C 0.18171 0.34603 0.00248 0.0
C3597 C 0.18537 0.34747 0.01749 0.0
C3598 C 0.1801 0.33594 0.95561 0.0
C3599 C 0.18895 0.32333 0.95303 0.0
C3600 C 0.17442 0.33869 0.96988 0.0
C3601 C 0.17719 0.32864 0.98154 0.0
C3602 C 0.18498 0.31543 0.97849 0.0
C3603 C 0.19096 0.31291 0.96442 0.0
H3604 H 0.16716 0.6903 0.97159 0.0
H3605 H 0.16875 0.64332 0.96245 0.0
H3606 H 0.16001 0.6852 -0.00292 0.0
H3607 H 0.16057 0.63802 0.98776 0.0
H3608 H 0.16104 0.67675 0.04379 0.0
H3609 H 0.14925 0.67611 0.0193 0.0
H3610 H 0.17805 0.63963 0.00679 0.0
H3611 H 0.18933 0.64012 0.03109 0.0
C3612 C 0.16493 0.67889 0.97479 0.0
C3613 C 0.16867 0.66719 0.96522 0.0
C3614 C 0.16083 0.6759 0.98949 0.0
C3615 C 0.16032 0.66113 0.99472 0.0
C3616 C 0.16141 0.64952 0.98427 0.0
C3617 C 0.1659 0.65252 0.96969 0.0
C3618 C 0.16434 0.6682 0.03597 0.0
C3619 C 0.17637 0.65874 0.03915 0.0
C3620 C 0.15766 0.6679 0.02189 0.0
C3621 C 0.16293 0.65812 0.01083 0.0
C3622 C 0.17358 0.64736 0.01487 0.0
C3623 C 0.18023 0.64771 0.02884 0.0
H3624 H 0.31609 0.166 0.03684 0.0
H3625 H 0.35272 0.19217 0.02011 0.0
H3626 H 0.31344 0.15424 0.01252 0.0
H3627 H 0.34997 0.18073 -0.00408 0.0
H3628 H 0.34005 0.1692 0.95165 0.0
H3629 H 0.34784 0.16213 0.97677 0.0
H3630 H 0.30263 0.16805 0.99212 0.0
H3631 H 0.29506 0.17483 0.96715 0.0
C3632 C 0.32398 0.16879 0.02817 0.0
C3633 C 0.3343 0.18034 0.0302 0.0
C3634 C 0.32241 0.16209 0.01421 0.0
C3635 C 0.33118 0.16685 0.00213 0.0
C3636 C 0.34296 0.17678 0.00488 0.0
C3637 C 0.34447 0.18348 0.01877 0.0
C3638 C 0.33171 0.16815 0.96029 0.0
C3639 C 0.317 0.17254 0.95762 0.0
C3640 C 0.33616 0.16423 0.97469 0.0
C3641 C 0.32594 0.16483 0.98656 0.0
C3642 C 0.31083 0.16736 0.98333 0.0
C3643 C 0.30644 0.1713 0.96899 0.0
H3644 H 0.8188 0.30998 0.96769 0.0
H3645 H 0.81598 0.3562 0.95547 0.0
H3646 H 0.82463 0.31693 0.99309 0.0
H3647 H 0.82279 0.36338 0.98073 0.0
H3648 H 0.79354 0.36333 0.02375 0.0
H3649 H 0.80492 0.36232 -0.00049 0.0
H3650 H 0.83476 0.32781 0.01481 0.0
H3651 H 0.82285 0.32864 0.03927 0.0
C3652 C 0.82044 0.32164 0.97026 0.0
C3653 C 0.81683 0.33257 0.95977 0.0
C3654 C 0.82379 0.32569 0.98488 0.0
C3655 C 0.82364 0.34077 0.98916 0.0
C3656 C 0.82249 0.35167 0.97795 0.0
C3657 C 0.81879 0.34759 0.96342 0.0
C3658 C 0.80284 0.35585 0.0221 0.0
C3659 C 0.80701 0.34578 0.03325 0.0
C3660 C 0.80956 0.35535 0.00816 0.0
C3661 C 0.8206 0.34471 0.00499 0.0
C3662 C 0.82606 0.33591 0.01675 0.0
C3663 C 0.81931 0.33645 0.0308 0.0
H3664 H 0.63247 0.82182 0.03461 0.0
H3665 H 0.68007 0.82507 0.03024 0.0
H3666 H 0.62947 0.83029 0.00904 0.0
H3667 H 0.67735 0.83217 0.00441 0.0
H3668 H 0.67388 0.83021 0.95705 0.0
H3669 H 0.67092 0.84198 0.98141 0.0
H3670 H 0.63258 0.81405 0.98978 0.0
H3671 H 0.6353 0.80301 0.9656 0.0
C3672 C 0.64226 0.82497 0.02833 0.0
C3673 C 0.65649 0.82265 0.03423 0.0
C3674 C 0.6406 0.8296 0.01358 0.0
C3675 C 0.65316 0.83112 0.00431 0.0
C3676 C 0.66735 0.83098 0.011 0.0
C3677 C 0.66897 0.82689 0.02591 0.0
C3678 C 0.66446 0.82714 0.96391 0.0
C3679 C 0.65505 0.81542 0.95967 0.0
C3680 C 0.66283 0.83377 0.97795 0.0
C3681 C 0.65181 0.82869 0.98792 0.0
C3682 C 0.64125 0.81839 0.98265 0.0
C3683 C 0.64287 0.81186 0.96872 0.0
H3684 H 0.82228 0.67392 0.03183 0.0
H3685 H 0.78973 0.6395 0.02427 0.0
H3686 H 0.83351 0.6686 0.0076 0.0
H3687 H 0.80035 0.63445 0.00027 0.0
H3688 H 0.81682 0.67867 0.95869 0.0
H3689 H 0.82417 0.6758 0.98443 0.0
H3690 H 0.81639 0.62841 0.98131 0.0
H3691 H 0.80775 0.63172 0.95583 0.0
C3692 C 0.81787 0.66487 0.02522 0.0
C3693 C 0.80489 0.6574 0.02966 0.0
C3694 C 0.82421 0.66188 0.01128 0.0
C3695 C 0.81763 0.6514 0.00165 0.0
C3696 C 0.80587 0.64262 0.00716 0.0
C3697 C 0.79958 0.64562 0.02096 0.0
C3698 C 0.81737 0.66756 0.96332 0.0
C3699 C 0.8114 0.65547 0.95552 0.0
C3700 C 0.82163 0.66584 0.97816 0.0
C3701 C 0.82017 0.65194 0.98526 0.0
C3702 C 0.81697 0.6394 0.97642 0.0
C3703 C 0.81219 0.64122 0.96176 0.0
H3704 H 0.35557 0.81538 0.03831 0.0
H3705 H 0.30875 0.81956 0.02912 0.0
H3706 H 0.36135 0.8231 0.01296 0.0
H3707 H 0.31426 0.82619 0.00356 0.0
H3708 H 0.32276 0.82479 0.95683 0.0
H3709 H 0.32384 0.83643 0.9814 0.0
H3710 H 0.35902 0.80601 0.99381 0.0
H3711 H 0.35812 0.79492 0.96945 0.0
C3712 C 0.34655 0.81864 0.03101 0.0
C3713 C 0.33174 0.81679 0.0355 0.0
C3714 C 0.34981 0.82287 0.01642 0.0
C3715 C 0.33829 0.8246 0.00595 0.0
C3716 C 0.32349 0.82488 0.01116 0.0
C3717 C 0.32027 0.82106 0.02588 0.0
C3718 C 0.33114 0.8211 0.96465 0.0
C3719 C 0.34009 0.80871 0.96143 0.0
C3720 C 0.33169 0.82768 0.97878 0.0
C3721 C 0.34121 0.82193 0.98983 0.0
C3722 C 0.35151 0.81085 0.98575 0.0
C3723 C 0.35093 0.80432 0.97174 0.0
H3724 H 0.63307 0.18491 0.96037 0.0
H3725 H 0.6801 0.17649 0.96404 0.0
H3726 H 0.62961 0.17743 0.9862 0.0
H3727 H 0.67703 0.17023 0.9901 0.0
H3728 H 0.67346 0.17136 0.0379 0.0
H3729 H 0.66934 0.16072 0.01319 0.0
H3730 H 0.63538 0.19386 0.00503 0.0
H3731 H 0.63918 0.2039 0.02952 0.0
C3732 C 0.64257 0.18085 0.96658 0.0
C3733 C 0.65686 0.18143 0.9604 0.0
C3734 C 0.64066 0.17675 0.98144 0.0
C3735 C 0.65312 0.17395 0.9905 0.0
C3736 C 0.66713 0.17242 0.98362 0.0
C3737 C 0.66895 0.17604 0.96861 0.0
C3738 C 0.66474 0.17594 0.03096 0.0
C3739 C 0.65691 0.1887 0.03543 0.0
C3740 C 0.66244 0.16992 0.01676 0.0
C3741 C 0.65228 0.17659 0.00686 0.0
C3742 C 0.64327 0.18826 0.01218 0.0
C3743 C 0.64557 0.19421 0.02626 0.0
H3744 H 0.45273 0.67045 0.83335 0.0
H3745 H 0.46794 0.68986 0.79221 0.0
H3746 H 0.47817 0.66192 0.83865 0.0
H3747 H 0.49303 0.68114 0.79719 0.0
H3748 H 0.52447 0.68885 0.84817 0.0
H3749 H 0.4991 0.68023 0.84459 0.0
H3750 H 0.51171 0.66063 0.80262 0.0
H3751 H 0.53723 0.66921 0.80628 0.0
C3752 C 0.4614 0.67233 0.82518 0.0
C3753 C 0.45854 0.6809 0.81246 0.0
C3754 C 0.47591 0.66746 0.8282 0.0
C3755 C 0.4876 0.67085 0.81834 0.0
C3756 C 0.48428 0.67815 0.80492 0.0
C3757 C 0.46994 0.68328 0.80211 0.0
C3758 C 0.522 0.68205 0.83855 0.0
C3759 C 0.53269 0.68002 0.82733 0.0
C3760 C 0.50746 0.67702 0.83651 0.0
C3761 C 0.50336 0.67007 0.82314 0.0
C3762 C 0.51456 0.66613 0.81295 0.0
C3763 C 0.52919 0.67099 0.81508 0.0
H3764 H 0.29803 0.52127 0.86229 0.0
H3765 H 0.32402 0.54136 0.82724 0.0
H3766 H 0.30979 0.4975 0.85745 0.0
H3767 H 0.3359 0.51745 0.8224 0.0
H3768 H 0.31258 0.47447 0.8005 0.0
H3769 H 0.31976 0.49862 0.81016 0.0
H3770 H 0.3296 0.47867 0.85276 0.0
H3771 H 0.32253 0.45427 0.8428 0.0
C3772 C 0.30677 0.52075 0.854 0.0
C3773 C 0.30973 0.53302 0.8448 0.0
C3774 C 0.31364 0.50711 0.85129 0.0
C3775 C 0.32347 0.50551 0.83923 0.0
C3776 C 0.32816 0.51833 0.83159 0.0
C3777 C 0.32136 0.53204 0.83439 0.0
C3778 C 0.317 0.47516 0.81169 0.0
C3779 C 0.31695 0.46266 0.82097 0.0
C3780 C 0.32121 0.48899 0.81725 0.0
C3781 C 0.32508 0.49061 0.83232 0.0
C3782 C 0.32661 0.47776 0.84113 0.0
C3783 C 0.32262 0.46382 0.83544 0.0
H3784 H 0.53797 0.3125 0.85483 0.0
H3785 H 0.52573 0.31792 0.80887 0.0
H3786 H 0.51287 0.31952 0.86245 0.0
H3787 H 0.50048 0.32403 0.8162 0.0
H3788 H 0.45446 0.32316 0.82767 0.0
H3789 H 0.47919 0.33444 0.82766 0.0
H3790 H 0.49344 0.30242 0.86062 0.0
H3791 H 0.46888 0.29165 0.86088 0.0
C3792 C 0.53005 0.3159 0.84641 0.0
C3793 C 0.53363 0.31465 0.83131 0.0
C3794 C 0.51562 0.31974 0.85073 0.0
C3795 C 0.50444 0.32177 0.83995 0.0
C3796 C 0.50868 0.32253 0.82488 0.0
C3797 C 0.5232 0.319 0.82061 0.0
C3798 C 0.46274 0.31898 0.83535 0.0
C3799 C 0.45991 0.30624 0.84395 0.0
C3800 C 0.47696 0.32538 0.83527 0.0
C3801 C 0.48852 0.31911 0.84379 0.0
C3802 C 0.48496 0.30764 0.85386 0.0
C3803 C 0.47083 0.3013 0.85392 0.0
H3804 H 0.66494 0.45345 0.81569 0.0
H3805 H 0.69122 0.46584 0.85384 0.0
H3806 H 0.65321 0.47801 0.81583 0.0
H3807 H 0.68006 0.4902 0.85384 0.0
H3808 H 0.67157 0.52567 0.80254 0.0
H3809 H 0.66455 0.50008 0.80735 0.0
H3810 H 0.66288 0.50949 0.8545 0.0
H3811 H 0.67091 0.53493 0.8495 0.0
C3812 C 0.66777 0.46121 0.82445 0.0
C3813 C 0.67927 0.45794 0.83451 0.0
C3814 C 0.66116 0.47533 0.82447 0.0
C3815 C 0.66597 0.48634 0.83454 0.0
C3816 C 0.67597 0.48219 0.84585 0.0
C3817 C 0.68254 0.46817 0.84581 0.0
C3818 C 0.66893 0.52243 0.81384 0.0
C3819 C 0.67188 0.53212 0.82566 0.0
C3820 C 0.66488 0.50769 0.81667 0.0
C3821 C 0.66367 0.50249 0.83141 0.0
C3822 C 0.66422 0.51296 0.84305 0.0
C3823 C 0.66862 0.52761 0.84021 0.0
H3824 H 0.45184 0.31456 0.14151 0.0
H3825 H 0.4583 0.32076 0.18854 0.0
H3826 H 0.47755 0.32191 0.13691 0.0
H3827 H 0.48421 0.32696 0.18428 0.0
H3828 H 0.53151 0.32524 0.17833 0.0
H3829 H 0.50693 0.33657 0.17571 0.0
H3830 H 0.49651 0.30502 0.1409 0.0
H3831 H 0.52092 0.29429 0.14321 0.0
C3832 C 0.45863 0.31817 0.15079 0.0
C3833 C 0.45326 0.317 0.16537 0.0
C3834 C 0.47342 0.32217 0.14822 0.0
C3835 C 0.48322 0.32432 0.16025 0.0
C3836 C 0.47715 0.32529 0.17468 0.0
C3837 C 0.46222 0.32172 0.17719 0.0
C3838 C 0.52412 0.32116 0.16975 0.0
C3839 C 0.52794 0.3086 0.16128 0.0
C3840 C 0.50998 0.32759 0.1683 0.0
C3841 C 0.49947 0.32151 0.15839 0.0
C3842 C 0.50414 0.31014 0.14868 0.0
C3843 C 0.51818 0.30379 0.15011 0.0
H3844 H 0.68367 0.47132 0.20579 0.0
H3845 H 0.6667 0.45239 0.16519 0.0
H3846 H 0.6743 0.49556 0.19862 0.0
H3847 H 0.65727 0.4769 0.15774 0.0
H3848 H 0.68416 0.52107 0.1437 0.0
H3849 H 0.6745 0.49671 0.14996 0.0
H3850 H 0.65619 0.51437 0.19072 0.0
H3851 H 0.66609 0.53887 0.18446 0.0
C3852 C 0.67731 0.47229 0.1956 0.0
C3853 C 0.676 0.46013 0.18596 0.0
C3854 C 0.67182 0.48618 0.19149 0.0
C3855 C 0.6652 0.48825 0.17748 0.0
C3856 C 0.66242 0.47567 0.16855 0.0
C3857 C 0.66774 0.46165 0.17282 0.0
C3858 C 0.67752 0.51991 0.15369 0.0
C3859 C 0.67632 0.53172 0.16383 0.0
C3860 C 0.67184 0.50592 0.15725 0.0
C3861 C 0.66496 0.50349 0.17108 0.0
C3862 C 0.66172 0.51586 0.18012 0.0
C3863 C 0.66735 0.52992 0.1765 0.0
H3864 H 0.5384 0.67807 0.13476 0.0
H3865 H 0.53276 0.67044 0.1817 0.0
H3866 H 0.51245 0.67146 0.1305 0.0
H3867 H 0.50664 0.66492 0.17778 0.0
H3868 H 0.47045 0.70071 0.13917 0.0
H3869 H 0.49448 0.68931 0.13598 0.0
H3870 H 0.4833 0.65621 0.16909 0.0
H3871 H 0.45903 0.66812 0.1725 0.0
C3872 C 0.53175 0.67426 0.14406 0.0
C3873 C 0.53742 0.67492 0.15856 0.0
C3874 C 0.51682 0.67067 0.14169 0.0
C3875 C 0.50723 0.66839 0.15386 0.0
C3876 C 0.51356 0.66674 0.1681 0.0
C3877 C 0.52862 0.6699 0.1704 0.0
C3878 C 0.47293 0.69073 0.14546 0.0
C3879 C 0.46305 0.68554 0.15635 0.0
C3880 C 0.48673 0.68401 0.14352 0.0
C3881 C 0.49107 0.67192 0.15249 0.0
C3882 C 0.48046 0.66567 0.1622 0.0
C3883 C 0.46652 0.67242 0.1641 0.0
H3884 H 0.32815 0.45993 0.17367 0.0
H3885 H 0.29947 0.47068 0.13677 0.0
H3886 H 0.33963 0.48451 0.17186 0.0
H3887 H 0.3102 0.49511 0.13526 0.0
H3888 H 0.32282 0.53224 0.18537 0.0
H3889 H 0.32977 0.5067 0.18037 0.0
H3890 H 0.32575 0.51497 0.13312 0.0
H3891 H 0.31745 0.54024 0.13847 0.0
C3892 C 0.32468 0.46734 0.16484 0.0
C3893 C 0.31261 0.46363 0.15565 0.0
C3894 C 0.33114 0.48151 0.16388 0.0
C3895 C 0.32552 0.49215 0.1538 0.0
C3896 C 0.31492 0.48747 0.14327 0.0
C3897 C 0.30857 0.47339 0.14419 0.0
C3898 C 0.32407 0.52873 0.17391 0.0
C3899 C 0.31939 0.538 0.16231 0.0
C3900 C 0.32811 0.51402 0.17096 0.0
C3901 C 0.32771 0.50845 0.15631 0.0
C3902 C 0.32553 0.51863 0.14459 0.0
C3903 C 0.32098 0.53319 0.14759 0.0
H3904 H 0.81789 0.54012 0.66576 0.0
H3905 H 0.85411 0.53101 0.69584 0.0
H3906 H 0.82035 0.51507 0.65529 0.0
H3907 H 0.85641 0.50624 0.68591 0.0
H3908 H 0.85718 0.46137 0.67647 0.0
H3909 H 0.86053 0.48722 0.66899 0.0
H3910 H 0.81277 0.4922 0.66595 0.0
H3911 H 0.80969 0.46612 0.67228 0.0
C3912 C 0.82672 0.53296 0.66974 0.0
C3913 C 0.83563 0.53734 0.68179 0.0
C3914 C 0.82806 0.51856 0.66385 0.0
C3915 C 0.83837 0.50841 0.66991 0.0
C3916 C 0.84838 0.51359 0.68078 0.0
C3917 C 0.84699 0.52784 0.68664 0.0
C3918 C 0.8475 0.46782 0.67332 0.0
C3919 C 0.83319 0.46189 0.67505 0.0
C3920 C 0.84937 0.48269 0.66923 0.0
C3921 C 0.83691 0.49204 0.66752 0.0
C3922 C 0.82267 0.48547 0.66723 0.0
C3923 C 0.82085 0.47046 0.67088 0.0
H3924 H 0.52419 0.85922 0.68937 0.0
H3925 H 0.54104 0.82139 0.66508 0.0
H3926 H 0.49955 0.85475 0.67943 0.0
H3927 H 0.51626 0.81697 0.6549 0.0
H3928 H 0.45478 0.84123 0.67005 0.0
H3929 H 0.47932 0.84985 0.66169 0.0
H3930 H 0.49771 0.80666 0.6721 0.0
H3931 H 0.47342 0.79832 0.68041 0.0
C3932 C 0.52276 0.85036 0.68134 0.0
C3933 C 0.53439 0.84035 0.67841 0.0
C3934 C 0.5086 0.84784 0.67551 0.0
C3935 C 0.50584 0.8352 0.66674 0.0
C3936 C 0.51801 0.82662 0.6619 0.0
C3937 C 0.53223 0.82919 0.66769 0.0
C3938 C 0.464 0.83347 0.66987 0.0
C3939 C 0.46239 0.81918 0.67591 0.0
C3940 C 0.47803 0.83839 0.66515 0.0
C3941 C 0.49052 0.82901 0.66636 0.0
C3942 C 0.48837 0.81416 0.67083 0.0
C3943 C 0.47447 0.80937 0.67571 0.0
H3944 H 0.1431 0.52723 0.68691 0.0
H3945 H 0.18828 0.53617 0.67336 0.0
H3946 H 0.14677 0.50088 0.68188 0.0
H3947 H 0.19204 0.50971 0.66859 0.0
H3948 H 0.15969 0.45261 0.67762 0.0
H3949 H 0.15623 0.47731 0.66634 0.0
H3950 H 0.19155 0.49461 0.69388 0.0
H3951 H 0.1946 0.47031 0.70539 0.0
C3952 C 0.15354 0.52366 0.68204 0.0
C3953 C 0.16552 0.53363 0.68086 0.0
C3954 C 0.15564 0.50856 0.67914 0.0
C3955 C 0.1698 0.50327 0.67523 0.0
C3956 C 0.18105 0.51355 0.67174 0.0
C3957 C 0.17887 0.52872 0.6744 0.0
C3958 C 0.16688 0.46168 0.68098 0.0
C3959 C 0.17726 0.45971 0.69249 0.0
C3960 C 0.16495 0.47572 0.67449 0.0
C3961 C 0.17374 0.48779 0.67911 0.0
C3962 C 0.18481 0.48545 0.68989 0.0
C3963 C 0.18643 0.47161 0.69663 0.0
H3964 H 0.47266 0.13754 0.69916 0.0
H3965 H 0.46068 0.17257 0.66862 0.0
H3966 H 0.49708 0.13619 0.68833 0.0
H3967 H 0.48528 0.1709 0.65712 0.0
H3968 H 0.54189 0.13911 0.67911 0.0
H3969 H 0.51639 0.13329 0.67186 0.0
H3970 H 0.50754 0.1803 0.66659 0.0
H3971 H 0.53324 0.18577 0.67262 0.0
C3972 C 0.47511 0.1446 0.6897 0.0
C3973 C 0.46497 0.1555 0.68508 0.0
C3974 C 0.48917 0.14373 0.68329 0.0
C3975 C 0.49345 0.15375 0.67203 0.0
C3976 C 0.48254 0.1633 0.66605 0.0
C3977 C 0.46839 0.16419 0.67256 0.0
C3978 C 0.53465 0.14805 0.67552 0.0
C3979 C 0.53935 0.16286 0.67651 0.0
C3980 C 0.51998 0.14478 0.67156 0.0
C3981 C 0.50963 0.15634 0.66932 0.0
C3982 C 0.51502 0.17103 0.6683 0.0
C3983 C 0.52982 0.17424 0.6718 0.0
H3984 H 0.85098 0.45003 0.30889 0.0
H3985 H 0.8099 0.46508 0.28923 0.0
H3986 H 0.85681 0.47573 0.31624 0.0
H3987 H 0.81539 0.49046 0.2969 0.0
H3988 H 0.82506 0.53479 0.31121 0.0
H3989 H 0.82128 0.50888 0.31852 0.0
H3990 H 0.86222 0.49673 0.29658 0.0
H3991 H 0.86587 0.52251 0.28906 0.0
C3992 C 0.84296 0.45875 0.30668 0.0
C3993 C 0.83006 0.45571 0.29843 0.0
C3994 C 0.84629 0.4734 0.31086 0.0
C3995 C 0.83653 0.48506 0.3072 0.0
C3996 C 0.82302 0.4817 0.30009 0.0
C3997 C 0.81992 0.4672 0.29558 0.0
C3998 C 0.83361 0.52672 0.30857 0.0
C3999 C 0.84561 0.53057 0.29931 0.0
C4000 C 0.83141 0.51188 0.31271 0.0
C4001 C 0.84133 0.5008 0.3079 0.0
C4002 C 0.8544 0.50504 0.30047 0.0
C4003 C 0.85647 0.5198 0.29611 0.0
H4004 H 0.53146 0.81344 0.31646 0.0
H4005 H 0.53502 0.85985 0.3051 0.0
H4006 H 0.50577 0.81712 0.32389 0.0
H4007 H 0.50963 0.86399 0.31371 0.0
H4008 H 0.46462 0.85338 0.29064 0.0
H4009 H 0.48973 0.85752 0.29889 0.0
H4010 H 0.4834 0.82565 0.33442 0.0
H4011 H 0.45803 0.82118 0.3256 0.0
C4012 C 0.52698 0.82463 0.31645 0.0
C4013 C 0.535 0.83631 0.30996 0.0
C4014 C 0.51219 0.8268 0.32075 0.0
C4015 C 0.50535 0.84078 0.31883 0.0
C4016 C 0.51433 0.85295 0.31475 0.0
C4017 C 0.52894 0.85066 0.30998 0.0
C4018 C 0.46843 0.84757 0.30048 0.0
C4019 C 0.45954 0.83667 0.30721 0.0
C4020 C 0.48288 0.85006 0.3054 0.0
C4021 C 0.48885 0.84168 0.3172 0.0
C4022 C 0.4793 0.83205 0.32508 0.0
C4023 C 0.46473 0.82956 0.32012 0.0
H4024 H 0.17713 0.45323 0.33272 0.0
H4025 H 0.1394 0.46603 0.30602 0.0
H4026 H 0.17663 0.47748 0.34499 0.0
H4027 H 0.13908 0.49012 0.31767 0.0
H4028 H 0.14448 0.53464 0.32495 0.0
H4029 H 0.13871 0.50978 0.33419 0.0
H4030 H 0.18568 0.49924 0.33398 0.0
H4031 H 0.19123 0.52428 0.32581 0.0
C4032 C 0.16836 0.461 0.3299 0.0
C4033 C 0.15861 0.458 0.31808 0.0
C4034 C 0.16814 0.47496 0.33683 0.0
C4035 C 0.15821 0.48608 0.33196 0.0
C4036 C 0.14702 0.48206 0.32177 0.0
C4037 C 0.14725 0.46819 0.3149 0.0
C4038 C 0.15354 0.52725 0.32785 0.0
C4039 C 0.16826 0.5312 0.32459 0.0
C4040 C 0.15027 0.51292 0.33294 0.0
C4041 C 0.16164 0.50219 0.33413 0.0
C4042 C 0.17653 0.50702 0.3331 0.0
C4043 C 0.17979 0.52145 0.32838 0.0
H4044 H 0.52811 0.12784 0.30799 0.0
H4045 H 0.5265 0.17403 0.32062 0.0
H4046 H 0.502 0.125 0.31477 0.0
H4047 H 0.50019 0.17167 0.32626 0.0
H4048 H 0.45884 0.13855 0.2899 0.0
H4049 H 0.48344 0.1332 0.29899 0.0
H4050 H 0.47676 0.16398 0.33539 0.0
H4051 H 0.45188 0.16964 0.32575 0.0
C4052 C 0.52227 0.13724 0.31276 0.0
C4053 C 0.52916 0.15118 0.31361 0.0
C4054 C 0.50726 0.1357 0.31648 0.0
C4055 C 0.49875 0.14826 0.3204 0.0
C4056 C 0.50625 0.16173 0.32321 0.0
C4057 C 0.5214 0.16313 0.31995 0.0
C4058 C 0.46244 0.14386 0.30009 0.0
C4059 C 0.45361 0.15474 0.30693 0.0
C4060 C 0.47659 0.14067 0.30548 0.0
C4061 C 0.48233 0.14834 0.31786 0.0
C4062 C 0.47283 0.15808 0.32566 0.0
C4063 C 0.45853 0.16124 0.32024 0.0
H4064 H 0.66404 0.82579 0.45913 0.0
H4065 H 0.67889 0.78411 0.47755 0.0
H4066 H 0.65532 0.83357 0.4838 0.0
H4067 H 0.67016 0.79159 0.50195 0.0
H4068 H 0.66332 0.80565 0.54533 0.0
H4069 H 0.65251 0.80049 0.52097 0.0
H4070 H 0.67346 0.84001 0.50343 0.0
H4071 H 0.68408 0.84517 0.52764 0.0
C4072 C 0.66475 0.81803 0.46832 0.0
C4073 C 0.67222 0.80444 0.46661 0.0
C4074 C 0.65982 0.82248 0.48242 0.0
C4075 C 0.6622 0.81329 0.49489 0.0
C4076 C 0.668 0.79893 0.49264 0.0
C4077 C 0.67313 0.79464 0.47867 0.0
C4078 C 0.66497 0.81364 0.53646 0.0
C4079 C 0.67495 0.82554 0.5382 0.0
C4080 C 0.65882 0.81065 0.52248 0.0
C4081 C 0.66253 0.81957 0.51016 0.0
C4082 C 0.67043 0.83283 0.51261 0.0
C4083 C 0.67665 0.83575 0.52651 0.0
H4084 H 0.67606 0.1852 0.46375 0.0
H4085 H 0.67838 0.13858 0.45305 0.0
H4086 H 0.66941 0.17915 0.48919 0.0
H4087 H 0.67074 0.1323 0.47833 0.0
H4088 H 0.69845 0.13324 0.52235 0.0
H4089 H 0.68779 0.1335 0.49777 0.0
H4090 H 0.65827 0.1692 0.51083 0.0
H4091 H 0.66947 0.16913 0.5356 0.0
C4092 C 0.67417 0.17365 0.46665 0.0
C4093 C 0.67783 0.16234 0.45659 0.0
C4094 C 0.67033 0.17011 0.48129 0.0
C4095 C 0.67004 0.15517 0.48603 0.0
C4096 C 0.67136 0.14392 0.47521 0.0
C4097 C 0.67554 0.14747 0.46067 0.0
C4098 C 0.68933 0.14081 0.52014 0.0
C4099 C 0.6851 0.15145 0.53073 0.0
C4100 C 0.68305 0.1409 0.50599 0.0
C4101 C 0.67238 0.15168 0.50208 0.0
C4102 C 0.66673 0.161 0.51334 0.0
C4103 C 0.67305 0.16089 0.52758 0.0
H4104 H 0.81678 0.6697 0.53429 0.0
H4105 H 0.85735 0.69069 0.51952 0.0
H4106 H 0.81197 0.66127 0.50891 0.0
H4107 H 0.85265 0.68218 0.49429 0.0
H4108 H 0.83962 0.67109 0.44857 0.0
H4109 H 0.84632 0.66319 0.47387 0.0
H4110 H 0.80512 0.68166 0.49032 0.0
H4111 H 0.79874 0.68979 0.46534 0.0
C4112 C 0.82506 0.67183 0.5258 0.0
C4113 C 0.83727 0.68113 0.52876 0.0
C4114 C 0.82227 0.66706 0.51126 0.0
C4115 C 0.83178 0.67133 0.49959 0.0
C4116 C 0.84512 0.6787 0.50303 0.0
C4117 C 0.84779 0.68365 0.51749 0.0
C4118 C 0.83182 0.67294 0.45757 0.0
C4119 C 0.81876 0.68114 0.45515 0.0
C4120 C 0.83564 0.66844 0.472 0.0
C4121 C 0.82625 0.6718 0.48406 0.0
C4122 C 0.8125 0.67871 0.48127 0.0
C4123 C 0.80889 0.68349 0.46698 0.0
H4124 H 0.32198 0.82135 0.45116 0.0
H4125 H 0.28924 0.85489 0.46145 0.0
H4126 H 0.33232 0.82381 0.47619 0.0
H4127 H 0.29892 0.85701 0.48627 0.0
H4128 H 0.30637 0.85486 0.53153 0.0
H4129 H 0.3142 0.86084 0.50625 0.0
H4130 H 0.32251 0.81412 0.49815 0.0
H4131 H 0.31595 0.80857 0.52372 0.0
C4132 C 0.31734 0.82962 0.45859 0.0
C4133 C 0.30456 0.83763 0.45456 0.0
C4134 C 0.32315 0.83094 0.473 0.0
C4135 C 0.31621 0.84024 0.48354 0.0
C4136 C 0.30469 0.84967 0.47867 0.0
C4137 C 0.29896 0.84838 0.46437 0.0
C4138 C 0.31067 0.84606 0.5245 0.0
C4139 C 0.31042 0.83127 0.52938 0.0
C4140 C 0.31498 0.84941 0.50996 0.0
C4141 C 0.31831 0.83791 0.49985 0.0
C4142 C 0.31996 0.82335 0.50545 0.0
C4143 C 0.31614 0.82009 0.52016 0.0
H4144 H 0.18261 0.32954 0.45252 0.0
H4145 H 0.14327 0.30756 0.4691 0.0
H4146 H 0.18787 0.33882 0.47746 0.0
H4147 H 0.14849 0.31676 0.4939 0.0
H4148 H 0.1642 0.32348 0.53879 0.0
H4149 H 0.15589 0.33384 0.5149 0.0
H4150 H 0.19653 0.31835 0.49438 0.0
H4151 H 0.20447 0.30786 0.51794 0.0
C4152 C 0.17463 0.32738 0.46129 0.0
C4153 C 0.16284 0.31738 0.45905 0.0
C4154 C 0.17767 0.33267 0.47559 0.0
C4155 C 0.16889 0.32807 0.4877 0.0
C4156 C 0.15557 0.3204 0.48485 0.0
C4157 C 0.15261 0.31502 0.47062 0.0
C4158 C 0.17152 0.32286 0.52924 0.0
C4159 C 0.18485 0.31477 0.53 0.0
C4160 C 0.1668 0.32878 0.51562 0.0
C4161 C 0.17552 0.32688 0.50275 0.0
C4162 C 0.18961 0.32021 0.50407 0.0
C4163 C 0.19413 0.31404 0.51752 0.0
H4164 H 0.31746 0.14984 0.54214 0.0
H4165 H 0.2999 0.19183 0.527 0.0
H4166 H 0.32476 0.1437 0.51649 0.0
H4167 H 0.30748 0.18601 0.50169 0.0
H4168 H 0.31986 0.17588 0.45737 0.0
H4169 H 0.32809 0.17929 0.48303 0.0
H4170 H 0.30544 0.13889 0.49566 0.0
H4171 H 0.2971 0.13558 0.47014 0.0
C4172 C 0.3157 0.15796 0.53342 0.0
C4173 C 0.30802 0.17122 0.5364 0.0
C4174 C 0.31986 0.15447 0.5188 0.0
C4175 C 0.31673 0.16439 0.50711 0.0
C4176 C 0.31026 0.17822 0.51045 0.0
C4177 C 0.30579 0.18151 0.52491 0.0
C4178 C 0.31728 0.16734 0.46547 0.0
C4179 C 0.30757 0.15564 0.46188 0.0
C4180 C 0.32194 0.16933 0.48017 0.0
C4181 C 0.31715 0.15952 0.49137 0.0
C4182 C 0.30932 0.14664 0.48729 0.0
C4183 C 0.30448 0.14476 0.47266 0.0
H4184 H 0.85685 0.31814 0.46238 0.0
H4185 H 0.80925 0.32015 0.46738 0.0
H4186 H 0.85998 0.32782 0.48752 0.0
H4187 H 0.81212 0.32852 0.49282 0.0
H4188 H 0.85514 0.30276 0.53249 0.0
H4189 H 0.85769 0.31289 0.50789 0.0
H4190 H 0.81855 0.34005 0.51496 0.0
H4191 H 0.81577 0.32919 0.53974 0.0
C4192 C 0.84707 0.3212 0.46873 0.0
C4193 C 0.83283 0.3183 0.46314 0.0
C4194 C 0.84881 0.32657 0.48321 0.0
C4195 C 0.83634 0.32828 0.49257 0.0
C4196 C 0.82207 0.32729 0.48615 0.0
C4197 C 0.82035 0.32242 0.4715 0.0
C4198 C 0.84739 0.31131 0.529 0.0
C4199 C 0.835 0.31483 0.53778 0.0
C4200 C 0.84889 0.31729 0.51481 0.0
C4201 C 0.83798 0.32696 0.50906 0.0
C4202 C 0.82687 0.33224 0.5188 0.0
C4203 C 0.82535 0.32616 0.53308 0.0
H4204 H 0.18119 0.66697 0.53076 0.0
H4205 H 0.13369 0.6708 0.5357 0.0
H4206 H 0.17807 0.66006 0.50492 0.0
H4207 H 0.13029 0.66262 0.51009 0.0
H4208 H 0.17379 0.66234 0.45751 0.0
H4209 H 0.17087 0.65037 0.4818 0.0
H4210 H 0.13392 0.67974 0.49136 0.0
H4211 H 0.13665 0.69109 0.46729 0.0
C4212 C 0.17001 0.6653 0.52656 0.0
C4213 C 0.15769 0.66969 0.53503 0.0
C4214 C 0.16817 0.66132 0.51165 0.0
C4215 C 0.15391 0.66147 0.50513 0.0
C4216 C 0.14147 0.66305 0.51455 0.0
C4217 C 0.14336 0.66753 0.5293 0.0
C4218 C 0.16468 0.66572 0.46463 0.0
C4219 C 0.15568 0.67788 0.46074 0.0
C4220 C 0.16306 0.65896 0.4786 0.0
C4221 C 0.15243 0.6643 0.48883 0.0
C4222 C 0.14226 0.67518 0.48397 0.0
C4223 C 0.1439 0.68188 0.47013 0.0
H4224 H 0.16898 0.11636 0.3042 0.0
H4225 H 0.13353 0.08428 0.29923 0.0
H4226 H 0.1509 0.13649 0.30336 0.0
H4227 H 0.11538 0.10444 0.29879 0.0
H4228 H 0.08772 0.14518 0.28608 0.0
H4229 H 0.10621 0.12535 0.2845 0.0
H4230 H 0.13188 0.14662 0.3191 0.0
H4231 H 0.11367 0.16655 0.32041 0.0
C4232 C 0.15732 0.11359 0.30292 0.0
C4233 C 0.1527 0.09869 0.30186 0.0
C4234 C 0.14693 0.12514 0.30253 0.0
C4235 C 0.13165 0.1221 0.30113 0.0
C4236 C 0.12706 0.1072 0.29973 0.0
C4237 C 0.13747 0.09564 0.30007 0.0
C4238 C 0.09735 0.14566 0.29329 0.0
C4239 C 0.09921 0.15746 0.30336 0.0
C4240 C 0.10791 0.13424 0.29244 0.0
C4241 C 0.12055 0.13438 0.30166 0.0
C4242 C 0.12242 0.14626 0.31166 0.0
C4243 C 0.1119 0.15766 0.31248 0.0
H4244 H 0.87254 0.16934 0.32143 0.0
H4245 H 0.90263 0.1435 0.29426 0.0
H4246 H 0.85477 0.14899 0.32118 0.0
H4247 H 0.88497 0.1229 0.29437 0.0
H4248 H 0.84162 0.09763 0.28304 0.0
H4249 H 0.86097 0.1166 0.28411 0.0
H4250 H 0.85072 0.12437 0.33042 0.0
H4251 H 0.83111 0.10577 0.32923 0.0
C4252 C 0.87544 0.15925 0.31553 0.0
C4253 C 0.88898 0.15806 0.30782 0.0
C4254 C 0.86528 0.14753 0.31547 0.0
C4255 C 0.86845 0.13429 0.30777 0.0
C4256 C 0.8821 0.13301 0.30024 0.0
C4257 C 0.89225 0.14479 0.30025 0.0
C4258 C 0.84357 0.10333 0.29347 0.0
C4259 C 0.83475 0.1003 0.30601 0.0
C4260 C 0.85472 0.11414 0.29411 0.0
C4261 C 0.85733 0.12208 0.30733 0.0
C4262 C 0.84881 0.11868 0.31999 0.0
C4263 C 0.83761 0.10796 0.31932 0.0
H4264 H 0.89296 0.85458 0.29532 0.0
H4265 H 0.86748 0.82306 0.32118 0.0
H4266 H 0.87372 0.87334 0.29937 0.0
H4267 H 0.84818 0.84156 0.32484 0.0
H4268 H 0.82324 0.88157 0.34162 0.0
H4269 H 0.84364 0.86421 0.33793 0.0
H4270 H 0.84833 0.87927 0.29253 0.0
H4271 H 0.82814 0.89701 0.29638 0.0
C4272 C 0.88325 0.85164 0.30183 0.0
C4273 C 0.88179 0.83734 0.30797 0.0
C4274 C 0.87219 0.86236 0.30407 0.0
C4275 C 0.85942 0.85898 0.31248 0.0
C4276 C 0.85798 0.84465 0.31855 0.0
C4277 C 0.86903 0.83399 0.31637 0.0
C4278 C 0.82864 0.88122 0.33085 0.0
C4279 C 0.82401 0.89062 0.31926 0.0
C4280 C 0.8403 0.87121 0.32871 0.0
C4281 C 0.84755 0.87024 0.3149 0.0
C4282 C 0.84309 0.87982 0.30336 0.0
C4283 C 0.83146 0.88993 0.30554 0.0
H4284 H 0.07958 0.84577 0.2918 0.0
H4285 H 0.11266 0.81476 0.30775 0.0
H4286 H 0.09872 0.86486 0.28932 0.0
H4287 H 0.13179 0.83367 0.30492 0.0
H4288 H 0.15744 0.87565 0.31688 0.0
H4289 H 0.13864 0.85629 0.31736 0.0
H4290 H 0.12092 0.87235 0.27569 0.0
H4291 H 0.13963 0.89208 0.27538 0.0
C4292 C 0.09096 0.84297 0.29461 0.0
C4293 C 0.09457 0.82878 0.3001 0.0
C4294 C 0.10195 0.85389 0.29311 0.0
C4295 C 0.11678 0.85084 0.29704 0.0
C4296 C 0.12043 0.83649 0.30207 0.0
C4297 C 0.10946 0.82561 0.30362 0.0
C4298 C 0.14958 0.87507 0.30778 0.0
C4299 C 0.15005 0.88543 0.29609 0.0
C4300 C 0.13884 0.86388 0.30801 0.0
C4301 C 0.12831 0.8627 0.29652 0.0
C4302 C 0.12878 0.87304 0.28478 0.0
C4303 C 0.13955 0.88429 0.28457 0.0
H4304 H 0.17351 0.87192 0.68948 0.0
H4305 H 0.1391 0.90546 0.68809 0.0
H4306 H 0.15465 0.85264 0.69157 0.0
H4307 H 0.12018 0.88608 0.68978 0.0
H4308 H 0.08993 0.84797 0.7042 0.0
H4309 H 0.10917 0.8671 0.70554 0.0
H4310 H 0.13655 0.84157 0.67539 0.0
H4311 H 0.11758 0.82238 0.67434 0.0
C4312 C 0.16191 0.87519 0.68964 0.0
C4313 C 0.15781 0.89023 0.6885 0.0
C4314 C 0.15109 0.86412 0.69077 0.0
C4315 C 0.13589 0.86779 0.69069 0.0
C4316 C 0.13179 0.88287 0.69001 0.0
C4317 C 0.14264 0.89398 0.68896 0.0
C4318 C 0.10011 0.8464 0.69796 0.0
C4319 C 0.10221 0.83365 0.68916 0.0
C4320 C 0.1111 0.85741 0.69866 0.0
C4321 C 0.12441 0.85588 0.69057 0.0
C4322 C 0.12655 0.84302 0.68195 0.0
C4323 C 0.11561 0.83203 0.68127 0.0
H4324 H 0.16238 0.1113 0.66336 0.0
H4325 H 0.14303 0.09519 0.70432 0.0
H4326 H 0.14448 0.13152 0.66282 0.0
H4327 H 0.12519 0.11571 0.7039 0.0
H4328 H 0.08592 0.14542 0.68762 0.0
H4329 H 0.10361 0.1249 0.68971 0.0
H4330 H 0.13921 0.15427 0.6763 0.0
H4331 H 0.12158 0.17463 0.67393 0.0
C4332 C 0.15433 0.11209 0.6723 0.0
C4333 C 0.15417 0.10163 0.68391 0.0
C4334 C 0.14412 0.12376 0.67203 0.0
C4335 C 0.13348 0.12531 0.68338 0.0
C4336 C 0.13319 0.11477 0.69494 0.0
C4337 C 0.14345 0.10305 0.69521 0.0
C4338 C 0.09754 0.14751 0.68521 0.0
C4339 C 0.10231 0.16164 0.68048 0.0
C4340 C 0.10768 0.13576 0.68647 0.0
C4341 C 0.12279 0.13792 0.68303 0.0
C4342 C 0.1276 0.15216 0.67875 0.0
C4343 C 0.11749 0.16387 0.67747 0.0
H4344 H 0.8861 0.16258 0.66789 0.0
H4345 H 0.90333 0.15167 0.71141 0.0
H4346 H 0.86678 0.14393 0.67083 0.0
H4347 H 0.88369 0.13309 0.71446 0.0
H4348 H 0.85641 0.0899 0.70539 0.0
H4349 H 0.87577 0.10892 0.70438 0.0
H4350 H 0.84436 0.13984 0.68527 0.0
H4351 H 0.82513 0.12082 0.686 0.0
C4352 C 0.88574 0.15624 0.67813 0.0
C4353 C 0.89626 0.15864 0.68943 0.0
C4354 C 0.87458 0.14561 0.67986 0.0
C4355 C 0.87362 0.13711 0.69293 0.0
C4356 C 0.8842 0.1394 0.70421 0.0
C4357 C 0.8954 0.15008 0.70249 0.0
C4358 C 0.85361 0.10079 0.70108 0.0
C4359 C 0.83926 0.1038 0.69565 0.0
C4360 C 0.8647 0.11171 0.70056 0.0
C4361 C 0.86164 0.12584 0.6946 0.0
C4362 C 0.84715 0.12897 0.68966 0.0
C4363 C 0.8361 0.11808 0.69016 0.0
H4364 H 0.90512 0.8577 0.69949 0.0
H4365 H 0.87592 0.82749 0.67614 0.0
H4366 H 0.88528 0.87624 0.7002 0.0
H4367 H 0.85607 0.84579 0.67722 0.0
H4368 H 0.82947 0.88707 0.66655 0.0
H4369 H 0.84969 0.86918 0.66632 0.0
H4370 H 0.86124 0.88157 0.71128 0.0
H4371 H 0.84115 0.89988 0.71136 0.0
C4372 C 0.89446 0.85498 0.69458 0.0
C4373 C 0.89213 0.84116 0.68768 0.0
C4374 C 0.88306 0.86558 0.69507 0.0
C4375 C 0.8691 0.86254 0.6887 0.0
C4376 C 0.86676 0.84862 0.68198 0.0
C4377 C 0.87814 0.83808 0.68143 0.0
C4378 C 0.8363 0.886 0.6764 0.0
C4379 C 0.83366 0.89487 0.68899 0.0
C4380 C 0.84786 0.87567 0.6763 0.0
C4381 C 0.85703 0.87385 0.68882 0.0
C4382 C 0.85447 0.88279 0.7014 0.0
C4383 C 0.84291 0.89322 0.70148 0.0
H4384 H 0.30827 0.1753 0.11356 0.0
H4385 H 0.29695 0.14297 0.07986 0.0
H4386 H 0.30548 0.15637 0.13267 0.0
H4387 H 0.29451 0.12389 0.09902 0.0
H4388 H 0.2799 0.09617 0.1395 0.0
H4389 H 0.27997 0.11563 0.1205 0.0
H4390 H 0.31932 0.13477 0.14035 0.0
H4391 H 0.31908 0.11566 0.1594 0.0
C4392 C 0.30516 0.16415 0.11023 0.0
C4393 C 0.30296 0.16062 0.09517 0.0
C4394 C 0.30364 0.15327 0.12119 0.0
C4395 C 0.29995 0.13857 0.11736 0.0
C4396 C 0.29726 0.13513 0.10235 0.0
C4397 C 0.29873 0.14605 0.09136 0.0
C4398 C 0.28853 0.10457 0.13982 0.0
C4399 C 0.29946 0.10438 0.15099 0.0
C4400 C 0.28861 0.11567 0.1289 0.0
C4401 C 0.2996 0.1268 0.12896 0.0
C4402 C 0.31052 0.12654 0.14013 0.0
C4403 C 0.31044 0.1155 0.15101 0.0
H4404 H 0.89051 0.2812 0.14046 0.0
H4405 H 0.88454 0.32638 0.15575 0.0
H4406 H 0.87042 0.28466 0.12255 0.0
H4407 H 0.86475 0.32991 0.13767 0.0
H4408 H 0.81934 0.32589 0.11613 0.0
H4409 H 0.83949 0.32168 0.13365 0.0
H4410 H 0.86412 0.29807 0.0998 0.0
H4411 H 0.84375 0.302 0.0823 0.0
C4412 C 0.88499 0.29189 0.13993 0.0
C4413 C 0.88908 0.30349 0.14958 0.0
C4414 C 0.87353 0.2939 0.12962 0.0
C4415 C 0.86592 0.30754 0.12874 0.0
C4416 C 0.87019 0.31918 0.13824 0.0
C4417 C 0.88162 0.31718 0.14855 0.0
C4418 C 0.82903 0.31977 0.11241 0.0
C4419 C 0.82995 0.31432 0.09779 0.0
C4420 C 0.84063 0.31744 0.12244 0.0
C4421 C 0.85346 0.30963 0.1181 0.0
C4422 C 0.85433 0.30401 0.10353 0.0
C4423 C 0.84268 0.30633 0.09348 0.0
H4424 H 0.70396 0.90566 0.14097 0.0
H4425 H 0.69199 0.87311 0.17425 0.0
H4426 H 0.70349 0.88635 0.12195 0.0
H4427 H 0.69188 0.85377 0.15532 0.0
H4428 H 0.67258 0.82889 0.11536 0.0
H4429 H 0.67592 0.8473 0.13483 0.0
H4430 H 0.71521 0.86382 0.1126 0.0
H4431 H 0.71168 0.84551 0.09284 0.0
C4432 C 0.70146 0.89435 0.14427 0.0
C4433 C 0.69787 0.89096 0.15911 0.0
C4434 C 0.70125 0.88326 0.13337 0.0
C4435 C 0.6975 0.86853 0.13708 0.0
C4436 C 0.69452 0.86506 0.15203 0.0
C4437 C 0.69468 0.87614 0.16291 0.0
C4438 C 0.68198 0.8364 0.11462 0.0
C4439 C 0.69184 0.83574 0.10251 0.0
C4440 C 0.68396 0.8469 0.12586 0.0
C4441 C 0.69587 0.85701 0.12532 0.0
C4442 C 0.70584 0.85628 0.11328 0.0
C4443 C 0.70385 0.84575 0.10199 0.0
H4444 H 0.17043 0.68301 0.12381 0.0
H4445 H 0.1351 0.68773 0.09159 0.0
H4446 H 0.15221 0.68313 0.14382 0.0
H4447 H 0.1168 0.68741 0.11162 0.0
H4448 H 0.08814 0.69733 0.15226 0.0
H4449 H 0.10691 0.70063 0.13289 0.0
H4450 H 0.13379 0.66635 0.15318 0.0
H4451 H 0.11533 0.66334 0.17266 0.0
C4452 C 0.15876 0.68409 0.12099 0.0
C4453 C 0.15421 0.68524 0.10609 0.0
C4454 C 0.14831 0.68408 0.13247 0.0
C4455 C 0.13302 0.68512 0.12933 0.0
C4456 C 0.12849 0.68674 0.11445 0.0
C4457 C 0.13898 0.68683 0.10295 0.0
C4458 C 0.09811 0.69059 0.15263 0.0
C4459 C 0.10022 0.68007 0.164 0.0
C4460 C 0.10883 0.69242 0.14148 0.0
C4461 C 0.12186 0.68376 0.14147 0.0
C4462 C 0.12401 0.67339 0.15297 0.0
C4463 C 0.11336 0.67159 0.1641 0.0
H4464 H 0.33131 0.87363 0.82868 0.0
H4465 H 0.29038 0.8927 0.84522 0.0
H4466 H 0.33124 0.8558 0.84895 0.0
H4467 H 0.29013 0.87452 0.86542 0.0
H4468 H 0.30453 0.84948 0.9082 0.0
H4469 H 0.30348 0.86778 0.88815 0.0
H4470 H 0.31759 0.83418 0.85683 0.0
H4471 H 0.319 0.81607 0.87681 0.0
C4472 C 0.32223 0.87397 0.8366 0.0
C4473 C 0.31082 0.88457 0.8353 0.0
C4474 C 0.32215 0.86367 0.84819 0.0
C4475 C 0.31062 0.86366 0.85875 0.0
C4476 C 0.29924 0.87432 0.85753 0.0
C4477 C 0.29934 0.88468 0.84592 0.0
C4478 C 0.30736 0.84601 0.89702 0.0
C4479 C 0.31197 0.83135 0.89413 0.0
C4480 C 0.30668 0.85647 0.88552 0.0
C4481 C 0.31057 0.85247 0.87091 0.0
C4482 C 0.31481 0.83772 0.868 0.0
C4483 C 0.31554 0.8273 0.87947 0.0
H4484 H 0.14688 0.29173 0.89583 0.0
H4485 H 0.16817 0.32534 0.86884 0.0
H4486 H 0.12655 0.29025 0.87791 0.0
H4487 H 0.14815 0.32357 0.85081 0.0
H4488 H 0.10325 0.32839 0.82919 0.0
H4489 H 0.12239 0.32972 0.84815 0.0
H4490 H 0.12126 0.28189 0.85276 0.0
H4491 H 0.10167 0.28059 0.83397 0.0
C4492 C 0.14724 0.29878 0.88607 0.0
C4493 C 0.15911 0.30869 0.88379 0.0
C4494 C 0.13564 0.29786 0.87576 0.0
C4495 C 0.1357 0.30681 0.86293 0.0
C4496 C 0.14761 0.3167 0.86069 0.0
C4497 C 0.15914 0.31767 0.871 0.0
C4498 C 0.10704 0.31814 0.83424 0.0
C4499 C 0.10099 0.30436 0.83 0.0
C4500 C 0.11809 0.3189 0.84508 0.0
C4501 C 0.12346 0.30591 0.85189 0.0
C4502 C 0.11726 0.29213 0.84782 0.0
C4503 C 0.10611 0.29136 0.837 0.0
H4504 H 0.70744 0.14922 0.90372 0.0
H4505 H 0.6709 0.16948 0.87996 0.0
H4506 H 0.70866 0.12957 0.88497 0.0
H4507 H 0.67186 0.14978 0.86158 0.0
H4508 H 0.68485 0.12065 0.82352 0.0
H4509 H 0.68696 0.14058 0.84166 0.0
H4510 H 0.69434 0.10823 0.87641 0.0
H4511 H 0.69264 0.08823 0.85813 0.0
C4512 C 0.69968 0.14949 0.89452 0.0
C4513 C 0.68909 0.16093 0.89333 0.0
C4514 C 0.70033 0.1382 0.88382 0.0
C4515 C 0.6904 0.13813 0.87174 0.0
C4516 C 0.67987 0.14963 0.87057 0.0
C4517 C 0.67925 0.16089 0.8812 0.0
C4518 C 0.68703 0.11777 0.83501 0.0
C4519 C 0.68843 0.10285 0.83941 0.0
C4520 C 0.68817 0.12921 0.84543 0.0
C4521 C 0.69063 0.126 0.86052 0.0
C4522 C 0.69255 0.11109 0.86486 0.0
C4523 C 0.69149 0.09963 0.85439 0.0
H4524 H 0.8803 0.67076 0.83057 0.0
H4525 H 0.89144 0.71517 0.84524 0.0
H4526 H 0.86107 0.66929 0.8495 0.0
H4527 H 0.87186 0.7138 0.86404 0.0
H4528 H 0.84561 0.69856 0.90569 0.0
H4529 H 0.8653 0.70099 0.88714 0.0
H4530 H 0.83697 0.68007 0.85446 0.0
H4531 H 0.81749 0.67733 0.87301 0.0
C4532 C 0.87862 0.68024 0.83781 0.0
C4533 C 0.88736 0.69311 0.83637 0.0
C4534 C 0.86752 0.67943 0.8486 0.0
C4535 C 0.86484 0.69148 0.85818 0.0
C4536 C 0.87372 0.70429 0.8569 0.0
C4537 C 0.88489 0.70509 0.84609 0.0
C4538 C 0.84358 0.69454 0.89453 0.0
C4539 C 0.83003 0.68766 0.89085 0.0
C4540 C 0.85483 0.69599 0.88389 0.0
C4541 C 0.85273 0.69061 0.86936 0.0
C4542 C 0.83905 0.68406 0.86562 0.0
C4543 C 0.82784 0.68257 0.87624 0.0
H4544 H 0.1654 0.32694 0.10767 0.0
H4545 H 0.15236 0.28336 0.09214 0.0
H4546 H 0.1465 0.32577 0.12693 0.0
H4547 H 0.13353 0.28208 0.11172 0.0
H4548 H 0.09089 0.29388 0.13861 0.0
H4549 H 0.10989 0.29351 0.1192 0.0
H4550 H 0.14156 0.31259 0.14986 0.0
H4551 H 0.12256 0.31327 0.16911 0.0
C4552 C 0.15853 0.31706 0.10839 0.0
C4553 C 0.16042 0.30523 0.09836 0.0
C4554 C 0.14775 0.31635 0.11952 0.0
C4555 C 0.13858 0.30378 0.12095 0.0
C4556 C 0.14035 0.29197 0.11085 0.0
C4557 C 0.15118 0.29268 0.09967 0.0
C4558 C 0.10193 0.29792 0.14122 0.0
C4559 C 0.10517 0.30372 0.15537 0.0
C4560 C 0.11284 0.29763 0.13012 0.0
C4561 C 0.1272 0.30314 0.13294 0.0
C4562 C 0.13052 0.30853 0.14723 0.0
C4563 C 0.11964 0.30884 0.1583 0.0
H4564 H 0.134 0.70079 0.91024 0.0
H4565 H 0.16988 0.68971 0.88023 0.0
H4566 H 0.11674 0.70146 0.88934 0.0
H4567 H 0.15273 0.69075 0.85933 0.0
H4568 H 0.11489 0.67452 0.82946 0.0
H4569 H 0.13258 0.67598 0.84983 0.0
H4570 H 0.10976 0.71467 0.86694 0.0
H4571 H 0.09178 0.71299 0.84667 0.0
C4572 C 0.13825 0.69869 0.89917 0.0
C4573 C 0.1533 0.69508 0.89693 0.0
C4574 C 0.12836 0.69915 0.88717 0.0
C4575 C 0.13331 0.69605 0.87265 0.0
C4576 C 0.14847 0.69291 0.87038 0.0
C4577 C 0.15834 0.6924 0.88237 0.0
C4578 C 0.11365 0.68338 0.83752 0.0
C4579 C 0.10188 0.69362 0.83644 0.0
C4580 C 0.12387 0.68428 0.84917 0.0
C4581 C 0.12263 0.69547 0.86002 0.0
C4582 C 0.11094 0.70581 0.85887 0.0
C4583 C 0.10068 0.70489 0.8472 0.0
H4584 H 0.31349 0.1612 0.87164 0.0
H4585 H 0.28384 0.13376 0.8977 0.0
H4586 H 0.31331 0.14273 0.85192 0.0
H4587 H 0.28398 0.11502 0.87805 0.0
H4588 H 0.27568 0.09278 0.83244 0.0
H4589 H 0.27535 0.11079 0.85277 0.0
H4590 H 0.32248 0.11819 0.84689 0.0
H4591 H 0.32275 0.10057 0.82642 0.0
C4592 C 0.30701 0.15117 0.87321 0.0
C4593 C 0.29871 0.14894 0.88627 0.0
C4594 C 0.30697 0.14053 0.86193 0.0
C4595 C 0.2987 0.12734 0.86343 0.0
C4596 C 0.29035 0.12512 0.87647 0.0
C4597 C 0.29034 0.13582 0.88777 0.0
C4598 C 0.28597 0.09824 0.83553 0.0
C4599 C 0.29921 0.09531 0.82775 0.0
C4600 C 0.2858 0.1085 0.84723 0.0
C4601 C 0.29887 0.11601 0.8514 0.0
C4602 C 0.31215 0.11283 0.84379 0.0
C4603 C 0.31231 0.10264 0.83209 0.0
H4604 H 0.87115 0.30721 0.81791 0.0
H4605 H 0.90466 0.29236 0.84898 0.0
H4606 H 0.85244 0.30589 0.83741 0.0
H4607 H 0.88595 0.29138 0.86863 0.0
H4608 H 0.8452 0.27965 0.89729 0.0
H4609 H 0.86356 0.27855 0.87725 0.0
H4610 H 0.84657 0.31986 0.85953 0.0
H4611 H 0.82813 0.3208 0.87923 0.0
C4612 C 0.87453 0.30365 0.82891 0.0
C4613 C 0.88943 0.3 0.83192 0.0
C4614 C 0.86381 0.30296 0.84011 0.0
C4615 C 0.86772 0.29868 0.85463 0.0
C4616 C 0.88254 0.29462 0.85755 0.0
C4617 C 0.89328 0.29525 0.8463 0.0
C4618 C 0.84538 0.28847 0.88908 0.0
C4619 C 0.83518 0.30029 0.88985 0.0
C4620 C 0.85594 0.28787 0.87765 0.0
C4621 C 0.85648 0.29908 0.86675 0.0
C4622 C 0.84629 0.31089 0.86757 0.0
C4623 C 0.83576 0.31149 0.87895 0.0
H4624 H 0.71217 0.90082 0.85095 0.0
H4625 H 0.67311 0.88163 0.83056 0.0
H4626 H 0.71161 0.88152 0.87005 0.0
H4627 H 0.67238 0.86262 0.84975 0.0
H4628 H 0.68323 0.82202 0.87715 0.0
H4629 H 0.68581 0.84089 0.85792 0.0
H4630 H 0.69688 0.87354 0.89137 0.0
H4631 H 0.69463 0.85455 0.91062 0.0
C4632 C 0.70345 0.89252 0.85056 0.0
C4633 C 0.6927 0.89277 0.83921 0.0
C4634 C 0.70309 0.8815 0.86155 0.0
C4635 C 0.69198 0.87048 0.86141 0.0
C4636 C 0.68124 0.87077 0.85006 0.0
C4637 C 0.6816 0.88175 0.8391 0.0
C4638 C 0.6863 0.8332 0.88042 0.0
C4639 C 0.68864 0.83678 0.89544 0.0
C4640 C 0.68769 0.84405 0.86939 0.0
C4641 C 0.69142 0.85877 0.8731 0.0
C4642 C 0.69412 0.86229 0.8881 0.0
C4643 C 0.69276 0.85141 0.89915 0.0
H4644 H 0.84734 0.69877 0.07688 0.0
H4645 H 0.81888 0.6803 0.11096 0.0
H4646 H 0.86774 0.7002 0.09473 0.0
H4647 H 0.83914 0.68201 0.1288 0.0
H4648 H 0.88245 0.67191 0.1525 0.0
H4649 H 0.86291 0.67031 0.13385 0.0
H4650 H 0.87529 0.71362 0.1171 0.0
H4651 H 0.89507 0.71511 0.1356 0.0
C4652 C 0.84541 0.69509 0.08819 0.0
C4653 C 0.8315 0.68938 0.09248 0.0
C4654 C 0.85708 0.69597 0.09843 0.0
C4655 C 0.85508 0.69115 0.11316 0.0
C4656 C 0.84112 0.68558 0.11747 0.0
C4657 C 0.82948 0.68469 0.10725 0.0
C4658 C 0.88106 0.68107 0.14481 0.0
C4659 C 0.89029 0.69367 0.14558 0.0
C4660 C 0.8698 0.68019 0.13417 0.0
C4661 C 0.86747 0.69189 0.12406 0.0
C4662 C 0.87687 0.70437 0.12465 0.0
C4663 C 0.88817 0.70525 0.13529 0.0
H4664 H 0.29297 0.85426 0.08679 0.0
H4665 H 0.30776 0.82192 0.11912 0.0
H4666 H 0.2917 0.87312 0.10629 0.0
H4667 H 0.30619 0.84062 0.13857 0.0
H4668 H 0.32095 0.88132 0.16457 0.0
H4669 H 0.32021 0.86259 0.14516 0.0
H4670 H 0.27869 0.88068 0.12914 0.0
H4671 H 0.27955 0.89975 0.14852 0.0
C4672 C 0.29578 0.85113 0.09807 0.0
C4673 C 0.30061 0.83662 0.10137 0.0
C4674 C 0.29499 0.86192 0.10925 0.0
C4675 C 0.299 0.85841 0.12395 0.0
C4676 C 0.30332 0.84377 0.1273 0.0
C4677 C 0.30414 0.83302 0.11615 0.0
C4678 C 0.31164 0.88134 0.15694 0.0
C4679 C 0.30029 0.89203 0.15813 0.0
C4680 C 0.31117 0.87052 0.14586 0.0
C4681 C 0.29933 0.87006 0.13567 0.0
C4682 C 0.28801 0.8808 0.13676 0.0
C4683 C 0.28847 0.89168 0.1479 0.0
H4684 H 0.70611 0.14842 0.0895 0.0
H4685 H 0.6704 0.16973 0.11361 0.0
H4686 H 0.70584 0.12792 0.10735 0.0
H4687 H 0.66982 0.14917 0.13107 0.0
H4688 H 0.68218 0.11863 0.16865 0.0
H4689 H 0.68407 0.1388 0.15079 0.0
H4690 H 0.69097 0.10695 0.11547 0.0
H4691 H 0.68952 0.08669 0.13351 0.0
C4692 C 0.69818 0.14872 0.09856 0.0
C4693 C 0.68834 0.16076 0.10017 0.0
C4694 C 0.69796 0.13692 0.10874 0.0
C4695 C 0.68786 0.13692 0.1207 0.0
C4696 C 0.67796 0.14893 0.12219 0.0
C4697 C 0.67824 0.16071 0.1121 0.0
C4698 C 0.68412 0.1159 0.15709 0.0
C4699 C 0.68561 0.10103 0.1525 0.0
C4700 C 0.68514 0.12748 0.14681 0.0
C4701 C 0.68754 0.12451 0.13165 0.0
C4702 C 0.68925 0.10965 0.12708 0.0
C4703 C 0.68833 0.09803 0.1374 0.0
H4704 H 0.61787 0.67417 0.80703 0.0
H4705 H 0.58487 0.64254 0.7922 0.0
H4706 H 0.63706 0.65521 0.80483 0.0
H4707 H 0.60405 0.62343 0.79037 0.0
H4708 H 0.64479 0.59572 0.77732 0.0
H4709 H 0.62613 0.61547 0.77699 0.0
H4710 H 0.64416 0.63308 0.81789 0.0
H4711 H 0.66293 0.61369 0.81802 0.0
C4712 C 0.6147 0.66317 0.80329 0.0
C4713 C 0.59981 0.65985 0.79988 0.0
C4714 C 0.6257 0.65226 0.80211 0.0
C4715 C 0.62209 0.63774 0.79756 0.0
C4716 C 0.60725 0.63453 0.79378 0.0
C4717 C 0.59624 0.64547 0.7949 0.0
C4718 C 0.6448 0.60386 0.78619 0.0
C4719 C 0.65537 0.60312 0.79768 0.0
C4720 C 0.63405 0.61513 0.78605 0.0
C4721 C 0.63366 0.6259 0.79739 0.0
C4722 C 0.64428 0.62515 0.80883 0.0
C4723 C 0.65501 0.61394 0.80895 0.0
H4724 H 0.31634 0.61583 0.82492 0.0
H4725 H 0.34206 0.58311 0.80086 0.0
H4726 H 0.3358 0.63416 0.82081 0.0
H4727 H 0.36173 0.60145 0.797 0.0
H4728 H 0.38633 0.64375 0.78062 0.0
H4729 H 0.36714 0.62477 0.78381 0.0
H4730 H 0.36097 0.63872 0.82937 0.0
H4731 H 0.37985 0.65779 0.82613 0.0
C4732 C 0.32616 0.61253 0.81877 0.0
C4733 C 0.32768 0.59798 0.81327 0.0
C4734 C 0.33736 0.62302 0.81649 0.0
C4735 C 0.35037 0.61922 0.8087 0.0
C4736 C 0.35179 0.60475 0.80296 0.0
C4737 C 0.34055 0.59423 0.80523 0.0
C4738 C 0.38091 0.64271 0.79132 0.0
C4739 C 0.38455 0.65234 0.80308 0.0
C4740 C 0.36996 0.6318 0.79317 0.0
C4741 C 0.36244 0.63033 0.8068 0.0
C4742 C 0.36635 0.63975 0.81864 0.0
C4743 C 0.37725 0.65063 0.8168 0.0
H4744 H 0.41113 0.3468 0.80298 0.0
H4745 H 0.37722 0.31927 0.82309 0.0
H4746 H 0.39313 0.36696 0.80033 0.0
H4747 H 0.35922 0.33923 0.82014 0.0
H4748 H 0.33517 0.38269 0.82788 0.0
H4749 H 0.354 0.36345 0.83048 0.0
H4750 H 0.37069 0.37373 0.7866 0.0
H4751 H 0.35201 0.39328 0.78412 0.0
C4752 C 0.39983 0.34501 0.80675 0.0
C4753 C 0.39563 0.33145 0.8133 0.0
C4754 C 0.3895 0.35654 0.80517 0.0
C4755 C 0.37476 0.35473 0.8101 0.0
C4756 C 0.37055 0.34109 0.81648 0.0
C4757 C 0.38086 0.32961 0.81808 0.0
C4758 C 0.34288 0.3809 0.81879 0.0
C4759 C 0.34205 0.38947 0.80576 0.0
C4760 C 0.35363 0.3698 0.82025 0.0
C4761 C 0.36377 0.36697 0.8087 0.0
C4762 C 0.36312 0.37572 0.79576 0.0
C4763 C 0.35237 0.38687 0.79431 0.0
H4764 H 0.59663 0.34553 0.77975 0.0
H4765 H 0.61321 0.32833 0.82145 0.0
H4766 H 0.616 0.36462 0.77999 0.0
H4767 H 0.63221 0.3475 0.82185 0.0
H4768 H 0.6735 0.37383 0.81173 0.0
H4769 H 0.65476 0.35449 0.80928 0.0
H4770 H 0.62314 0.38704 0.79347 0.0
H4771 H 0.64206 0.4064 0.79557 0.0
C4772 C 0.60437 0.34583 0.78897 0.0
C4773 C 0.60339 0.33538 0.80055 0.0
C4774 C 0.61542 0.35681 0.78914 0.0
C4775 C 0.6257 0.35755 0.80091 0.0
C4776 C 0.62466 0.3471 0.81248 0.0
C4777 C 0.61368 0.33615 0.81229 0.0
C4778 C 0.66258 0.37687 0.80766 0.0
C4779 C 0.65925 0.39168 0.80394 0.0
C4780 C 0.6518 0.36578 0.80633 0.0
C4781 C 0.6374 0.36923 0.80132 0.0
C4782 C 0.63416 0.38398 0.79725 0.0
C4783 C 0.64499 0.39509 0.79853 0.0
H4784 H 0.64113 0.39116 0.21567 0.0
H4785 H 0.6618 0.37899 0.17401 0.0
H4786 H 0.62148 0.37292 0.21121 0.0
H4787 H 0.64235 0.3607 0.1697 0.0
H4788 H 0.59748 0.34056 0.15897 0.0
H4789 H 0.61579 0.35985 0.16401 0.0
H4790 H 0.61817 0.34568 0.20984 0.0
H4791 H 0.59964 0.32647 0.20487 0.0
C4792 C 0.64151 0.38459 0.20559 0.0
C4793 C 0.65302 0.38655 0.19519 0.0
C4794 C 0.63029 0.3741 0.20307 0.0
C4795 C 0.63034 0.36541 0.19007 0.0
C4796 C 0.64187 0.36738 0.17971 0.0
C4797 C 0.65308 0.37781 0.18224 0.0
C4798 C 0.60183 0.34159 0.17015 0.0
C4799 C 0.59715 0.33192 0.1815 0.0
C4800 C 0.61239 0.35261 0.17301 0.0
C4801 C 0.61851 0.35422 0.1873 0.0
C4802 C 0.61357 0.34479 0.19875 0.0
C4803 C 0.60302 0.33374 0.19587 0.0
H4804 H 0.61859 0.66533 0.1722 0.0
H4805 H 0.59604 0.64588 0.20993 0.0
H4806 H 0.63737 0.64595 0.17338 0.0
H4807 H 0.61512 0.62658 0.21132 0.0
H4808 H 0.6415 0.58492 0.19562 0.0
H4809 H 0.62332 0.60496 0.19739 0.0
H4810 H 0.65785 0.63708 0.18813 0.0
H4811 H 0.67594 0.61704 0.18599 0.0
C4812 C 0.61771 0.657 0.18085 0.0
C4813 C 0.60577 0.65714 0.19095 0.0
C4814 C 0.62856 0.64592 0.18159 0.0
C4815 C 0.6278 0.63472 0.19248 0.0
C4816 C 0.61596 0.63496 0.2027 0.0
C4817 C 0.60506 0.64605 0.20195 0.0
C4818 C 0.64525 0.59627 0.19412 0.0
C4819 C 0.66015 0.59936 0.19052 0.0
C4820 C 0.63482 0.60777 0.1952 0.0
C4821 C 0.63909 0.62262 0.19275 0.0
C4822 C 0.65413 0.62574 0.18978 0.0
C4823 C 0.66452 0.61425 0.18864 0.0
H4824 H 0.38492 0.66772 0.16887 0.0
H4825 H 0.40289 0.65295 0.21093 0.0
H4826 H 0.36641 0.64809 0.16985 0.0
H4827 H 0.38403 0.6334 0.21206 0.0
H4828 H 0.35796 0.59059 0.19935 0.0
H4829 H 0.37679 0.61018 0.19983 0.0
H4830 H 0.34433 0.64169 0.18363 0.0
H4831 H 0.32569 0.62214 0.18279 0.0
C4832 C 0.38488 0.66032 0.17838 0.0
C4833 C 0.39537 0.66193 0.18985 0.0
C4834 C 0.37419 0.64911 0.17899 0.0
C4835 C 0.37365 0.63925 0.19109 0.0
C4836 C 0.38421 0.64075 0.20253 0.0
C4837 C 0.39497 0.65199 0.20191 0.0
C4838 C 0.35484 0.60172 0.19596 0.0
C4839 C 0.34037 0.60478 0.1909 0.0
C4840 C 0.36561 0.61296 0.19631 0.0
C4841 C 0.36209 0.62746 0.19164 0.0
C4842 C 0.34749 0.63057 0.18701 0.0
C4843 C 0.33677 0.61937 0.18661 0.0
H4844 H 0.39779 0.3519 0.20906 0.0
H4845 H 0.37154 0.32764 0.17696 0.0
H4846 H 0.37963 0.37209 0.20859 0.0
H4847 H 0.35368 0.34789 0.1762 0.0
H4848 H 0.31731 0.3804 0.18701 0.0
H4849 H 0.33483 0.36008 0.19048 0.0
H4850 H 0.3711 0.39157 0.19214 0.0
H4851 H 0.35349 0.41198 0.18909 0.0
C4852 C 0.38815 0.35086 0.20192 0.0
C4853 C 0.38613 0.33816 0.19304 0.0
C4854 C 0.37778 0.36247 0.20159 0.0
C4855 C 0.36518 0.36163 0.19235 0.0
C4856 C 0.36311 0.34883 0.18362 0.0
C4857 C 0.37342 0.33723 0.18399 0.0
C4858 C 0.32901 0.38302 0.1882 0.0
C4859 C 0.33401 0.39782 0.18767 0.0
C4860 C 0.33908 0.37134 0.19012 0.0
C4861 C 0.3544 0.37416 0.19145 0.0
C4862 C 0.35936 0.389 0.1913 0.0
C4863 C 0.34927 0.40071 0.18947 0.0
H4864 H 0.79217 0.64875 0.58913 0.0
H4865 H 0.82989 0.66876 0.61118 0.0
H4866 H 0.79108 0.62965 0.60844 0.0
H4867 H 0.82904 0.64957 0.63014 0.0
H4868 H 0.81507 0.62248 0.66986 0.0
H4869 H 0.81422 0.64162 0.65078 0.0
H4870 H 0.80467 0.60818 0.61762 0.0
H4871 H 0.80512 0.58902 0.63685 0.0
C4872 C 0.80024 0.64906 0.59806 0.0
C4873 C 0.81108 0.66031 0.59862 0.0
C4874 C 0.79967 0.63806 0.60908 0.0
C4875 C 0.80994 0.63809 0.62088 0.0
C4876 C 0.82078 0.64934 0.62138 0.0
C4877 C 0.82132 0.66032 0.61042 0.0
C4878 C 0.81273 0.61919 0.65852 0.0
C4879 C 0.81025 0.6042 0.65488 0.0
C4880 C 0.81232 0.63017 0.64755 0.0
C4881 C 0.80951 0.62644 0.63263 0.0
C4882 C 0.80673 0.61147 0.62902 0.0
C4883 C 0.80708 0.60047 0.64003 0.0
H4884 H 0.321 0.80776 0.61206 0.0
H4885 H 0.35298 0.79437 0.57874 0.0
H4886 H 0.34024 0.8067 0.63099 0.0
H4887 H 0.37238 0.7936 0.59774 0.0
H4888 H 0.39919 0.77983 0.6394 0.0
H4889 H 0.38022 0.77989 0.61998 0.0
H4890 H 0.36224 0.82077 0.63772 0.0
H4891 H 0.38094 0.82057 0.65725 0.0
C4892 C 0.33214 0.8046 0.60876 0.0
C4893 C 0.33547 0.80122 0.59387 0.0
C4894 C 0.3432 0.80408 0.61961 0.0
C4895 C 0.35787 0.80021 0.61584 0.0
C4896 C 0.36116 0.79653 0.601 0.0
C4897 C 0.35006 0.79702 0.59012 0.0
C4898 C 0.39121 0.78885 0.63913 0.0
C4899 C 0.39152 0.80015 0.64992 0.0
C4900 C 0.38039 0.78891 0.62796 0.0
C4901 C 0.36967 0.80028 0.62737 0.0
C4902 C 0.37017 0.81171 0.63803 0.0
C4903 C 0.38095 0.81164 0.64917 0.0
H4904 H 0.18378 0.32587 0.61611 0.0
H4905 H 0.20305 0.35913 0.58721 0.0
H4906 H 0.18132 0.34426 0.6357 0.0
H4907 H 0.20023 0.37771 0.60682 0.0
H4908 H 0.20961 0.40037 0.65222 0.0
H4909 H 0.21084 0.38357 0.63099 0.0
H4910 H 0.16744 0.36622 0.64224 0.0
H4911 H 0.16638 0.3827 0.66368 0.0
C4912 C 0.18739 0.33715 0.61388 0.0
C4913 C 0.19365 0.34103 0.60011 0.0
C4914 C 0.18587 0.34773 0.6251 0.0
C4915 C 0.19051 0.36247 0.6228 0.0
C4916 C 0.19668 0.3664 0.60897 0.0
C4917 C 0.19824 0.35578 0.59773 0.0
C4918 C 0.20029 0.39304 0.6501 0.0
C4919 C 0.18797 0.39274 0.65971 0.0
C4920 C 0.20096 0.38348 0.63788 0.0
C4921 C 0.18929 0.37348 0.635 0.0
C4922 C 0.17674 0.37359 0.64433 0.0
C4923 C 0.1761 0.38308 0.65657 0.0
H4924 H 0.67746 0.17994 0.61419 0.0
H4925 H 0.64339 0.18654 0.58095 0.0
H4926 H 0.65914 0.18357 0.63373 0.0
H4927 H 0.6249 0.18978 0.60059 0.0
H4928 H 0.59803 0.20712 0.64043 0.0
H4929 H 0.61676 0.20594 0.62076 0.0
H4930 H 0.63859 0.16987 0.64383 0.0
H4931 H 0.62021 0.17129 0.66355 0.0
C4932 C 0.66604 0.18215 0.61104 0.0
C4933 C 0.66186 0.18284 0.596 0.0
C4934 C 0.65552 0.18416 0.62226 0.0
C4935 C 0.64052 0.18681 0.61873 0.0
C4936 C 0.63639 0.18788 0.60369 0.0
C4937 C 0.64696 0.18594 0.59243 0.0
C4938 C 0.60688 0.19899 0.64131 0.0
C4939 C 0.60764 0.18933 0.65357 0.0
C4940 C 0.61756 0.19826 0.63001 0.0
C4941 C 0.62921 0.18785 0.63074 0.0
C4942 C 0.62994 0.17821 0.64303 0.0
C4943 C 0.61932 0.17897 0.65431 0.0
H4944 H 0.80399 0.35618 0.40685 0.0
H4945 H 0.8184 0.32094 0.3775 0.0
H4946 H 0.80531 0.37382 0.38623 0.0
H4947 H 0.81945 0.33846 0.35694 0.0
H4948 H 0.83639 0.37612 0.32804 0.0
H4949 H 0.83478 0.3594 0.34927 0.0
H4950 H 0.7934 0.37999 0.36246 0.0
H4951 H 0.79514 0.39694 0.34134 0.0
C4952 C 0.80731 0.35217 0.39599 0.0
C4953 C 0.81116 0.33717 0.39385 0.0
C4954 C 0.80802 0.36226 0.38417 0.0
C4955 C 0.81262 0.35756 0.36998 0.0
C4956 C 0.81615 0.3425 0.3678 0.0
C4957 C 0.81544 0.33243 0.37958 0.0
C4958 C 0.82698 0.37714 0.3355 0.0
C4959 C 0.81586 0.38782 0.33296 0.0
C4960 C 0.82601 0.36749 0.34762 0.0
C4961 C 0.81389 0.36828 0.35748 0.0
C4962 C 0.80293 0.37917 0.35513 0.0
C4963 C 0.8039 0.38884 0.34299 0.0
H4964 H 0.6401 0.77142 0.39439 0.0
H4965 H 0.65676 0.8156 0.38538 0.0
H4966 H 0.62207 0.77416 0.37429 0.0
H4967 H 0.63859 0.81843 0.36556 0.0
H4968 H 0.61642 0.81214 0.32071 0.0
H4969 H 0.63407 0.80857 0.34089 0.0
H4970 H 0.59967 0.78799 0.36741 0.0
H4971 H 0.58202 0.79128 0.34706 0.0
C4972 C 0.63985 0.78175 0.3882 0.0
C4973 C 0.64991 0.79326 0.39145 0.0
C4974 C 0.62948 0.78334 0.37673 0.0
C4975 C 0.62896 0.79648 0.36827 0.0
C4976 C 0.63887 0.80806 0.37168 0.0
C4977 C 0.64923 0.80648 0.38312 0.0
C4978 C 0.61261 0.8068 0.33082 0.0
C4979 C 0.59779 0.80204 0.33229 0.0
C4980 C 0.62271 0.80484 0.34243 0.0
C4981 C 0.61825 0.7981 0.3558 0.0
C4982 C 0.60349 0.79311 0.3572 0.0
C4983 C 0.59336 0.79506 0.34556 0.0
H4984 H 0.21226 0.6506 0.40024 0.0
H4985 H 0.16973 0.66342 0.38187 0.0
H4986 H 0.21438 0.631 0.38157 0.0
H4987 H 0.17168 0.64369 0.36353 0.0
H4988 H 0.18512 0.61639 0.32382 0.0
H4989 H 0.18536 0.63675 0.34164 0.0
H4990 H 0.20325 0.60727 0.3751 0.0
H4991 H 0.20337 0.58696 0.35713 0.0
C4992 C 0.20336 0.64923 0.39225 0.0
C4993 C 0.19083 0.65859 0.39255 0.0
C4994 C 0.20454 0.63795 0.38159 0.0
C4995 C 0.19322 0.63578 0.37102 0.0
C4996 C 0.18073 0.64519 0.37133 0.0
C4997 C 0.17956 0.65646 0.38194 0.0
C4998 C 0.18921 0.61426 0.33494 0.0
C4999 C 0.19414 0.60002 0.33907 0.0
C5000 C 0.18926 0.62592 0.34519 0.0
C5001 C 0.19419 0.62362 0.35985 0.0
C5002 C 0.1995 0.60947 0.36387 0.0
C5003 C 0.1995 0.5978 0.35358 0.0
H5004 H 0.31625 0.17688 0.3767 0.0
H5005 H 0.34984 0.18696 0.40956 0.0
H5006 H 0.33484 0.17869 0.35713 0.0
H5007 H 0.36855 0.18846 0.38992 0.0
H5008 H 0.39498 0.20344 0.3485 0.0
H5009 H 0.37644 0.20311 0.36838 0.0
H5010 H 0.35593 0.16446 0.34854 0.0
H5011 H 0.37418 0.16496 0.32859 0.0
C5012 C 0.32761 0.17949 0.37977 0.0
C5013 C 0.33157 0.1817 0.39472 0.0
C5014 C 0.33829 0.18044 0.36854 0.0
C5015 C 0.35322 0.18358 0.37196 0.0
C5016 C 0.35713 0.18613 0.38689 0.0
C5017 C 0.34642 0.1852 0.39815 0.0
C5018 C 0.38651 0.19488 0.3484 0.0
C5019 C 0.38603 0.18427 0.33692 0.0
C5020 C 0.37593 0.19464 0.35982 0.0
C5021 C 0.36465 0.18381 0.36 0.0
C5022 C 0.3643 0.17312 0.3486 0.0
C5023 C 0.37484 0.17336 0.3372 0.0
H5024 H 0.64033 0.79377 0.5919 0.0
H5025 H 0.67393 0.8071 0.62356 0.0
H5026 H 0.62163 0.79422 0.61157 0.0
H5027 H 0.65535 0.80717 0.64324 0.0
H5028 H 0.61567 0.82624 0.66851 0.0
H5029 H 0.63469 0.82293 0.64965 0.0
H5030 H 0.61291 0.78283 0.6346 0.0
H5031 H 0.59355 0.78634 0.65338 0.0
C5032 C 0.64378 0.79657 0.60309 0.0
C5033 C 0.65859 0.80057 0.60613 0.0
C5034 C 0.63307 0.79675 0.61438 0.0
C5035 C 0.63696 0.80089 0.62895 0.0
C5036 C 0.65191 0.80424 0.63208 0.0
C5037 C 0.66258 0.80412 0.62081 0.0
C5038 C 0.61492 0.81668 0.66123 0.0
C5039 C 0.60306 0.80657 0.66245 0.0
C5040 C 0.62592 0.81471 0.65047 0.0
C5041 C 0.62539 0.80256 0.64066 0.0
C5042 C 0.61358 0.79237 0.64191 0.0
C5043 C 0.60252 0.79435 0.65271 0.0
H5044 H 0.59208 0.2065 0.34255 0.0
H5045 H 0.60852 0.16299 0.33038 0.0
H5046 H 0.6117 0.20862 0.36121 0.0
H5047 H 0.62785 0.165 0.34915 0.0
H5048 H 0.66993 0.17924 0.37241 0.0
H5049 H 0.65051 0.17888 0.3536 0.0
H5050 H 0.61955 0.1979 0.38504 0.0
H5051 H 0.63911 0.19855 0.40386 0.0
C5052 C 0.59982 0.19737 0.34389 0.0
C5053 C 0.59876 0.1846 0.33493 0.0
C5054 C 0.61102 0.19856 0.35463 0.0
C5055 C 0.6214 0.18702 0.3566 0.0
C5056 C 0.62021 0.17421 0.34773 0.0
C5057 C 0.60905 0.17302 0.33703 0.0
C5058 C 0.65901 0.18344 0.37532 0.0
C5059 C 0.65605 0.18884 0.38968 0.0
C5060 C 0.64785 0.18314 0.36454 0.0
C5061 C 0.63343 0.18822 0.36786 0.0
C5062 C 0.63056 0.194 0.3821 0.0
C5063 C 0.64175 0.19431 0.3929 0.0
H5064 H 0.82906 0.6147 0.31317 0.0
H5065 H 0.80611 0.58177 0.33963 0.0
H5066 H 0.8257 0.6329 0.33286 0.0
H5067 H 0.80302 0.59999 0.35954 0.0
H5068 H 0.78664 0.64213 0.38438 0.0
H5069 H 0.78974 0.623 0.36537 0.0
H5070 H 0.83474 0.638 0.35762 0.0
H5071 H 0.83156 0.65728 0.37632 0.0
C5072 C 0.82334 0.61131 0.32322 0.0
C5073 C 0.81788 0.59676 0.32483 0.0
C5074 C 0.8215 0.62174 0.33456 0.0
C5075 C 0.81419 0.61788 0.34783 0.0
C5076 C 0.8086 0.60336 0.34941 0.0
C5077 C 0.81043 0.5929 0.33803 0.0
C5078 C 0.79722 0.6413 0.37866 0.0
C5079 C 0.80882 0.6513 0.38179 0.0
C5080 C 0.79901 0.63028 0.36782 0.0
C5081 C 0.81244 0.62904 0.35989 0.0
C5082 C 0.82415 0.63883 0.36331 0.0
C5083 C 0.82235 0.64983 0.37411 0.0
H5084 H 0.39404 0.78236 0.34392 0.0
H5085 H 0.38354 0.82762 0.33157 0.0
H5086 H 0.37448 0.78305 0.36279 0.0
H5087 H 0.3643 0.82837 0.35052 0.0
H5088 H 0.31986 0.81874 0.37226 0.0
H5089 H 0.33999 0.81737 0.35428 0.0
H5090 H 0.36744 0.79472 0.38654 0.0
H5091 H 0.3471 0.79582 0.40455 0.0
C5092 C 0.38766 0.79249 0.34531 0.0
C5093 C 0.39028 0.80489 0.33616 0.0
C5094 C 0.3765 0.7929 0.35616 0.0
C5095 C 0.36774 0.80572 0.35806 0.0
C5096 C 0.37064 0.81822 0.34915 0.0
C5097 C 0.38175 0.81781 0.33833 0.0
C5098 C 0.33017 0.81344 0.37555 0.0
C5099 C 0.33189 0.80744 0.38987 0.0
C5100 C 0.34175 0.81274 0.36525 0.0
C5101 C 0.35537 0.80605 0.36901 0.0
C5102 C 0.35705 0.79985 0.38327 0.0
C5103 C 0.34542 0.80055 0.3936 0.0
H5104 H 0.18582 0.37449 0.3206 0.0
H5105 H 0.19439 0.40661 0.35529 0.0
H5106 H 0.18784 0.35443 0.33863 0.0
H5107 H 0.19599 0.38653 0.37345 0.0
H5108 H 0.20912 0.34566 0.40055 0.0
H5109 H 0.21024 0.36521 0.38171 0.0
H5110 H 0.17315 0.34503 0.35875 0.0
H5111 H 0.1723 0.32539 0.37725 0.0
C5112 C 0.18815 0.37728 0.33209 0.0
C5113 C 0.18983 0.39216 0.33653 0.0
C5114 C 0.18923 0.36577 0.34244 0.0
C5115 C 0.19192 0.36887 0.35753 0.0
C5116 C 0.19404 0.38373 0.3619 0.0
C5117 C 0.19305 0.39526 0.35151 0.0
C5118 C 0.20128 0.34536 0.39142 0.0
C5119 C 0.19063 0.33397 0.39041 0.0
C5120 C 0.20187 0.35661 0.38067 0.0
C5121 C 0.1918 0.35669 0.36871 0.0
C5122 C 0.18125 0.34519 0.36766 0.0
C5123 C 0.1807 0.33396 0.37835 0.0
H5124 H 0.38205 0.18102 0.67498 0.0
H5125 H 0.41543 0.18635 0.64077 0.0
H5126 H 0.36269 0.18094 0.65612 0.0
H5127 H 0.39595 0.18608 0.62183 0.0
H5128 H 0.35417 0.20005 0.59462 0.0
H5129 H 0.37441 0.20072 0.6127 0.0
H5130 H 0.35443 0.164 0.63638 0.0
H5131 H 0.33413 0.16343 0.61848 0.0
C5132 C 0.38527 0.18223 0.66344 0.0
C5133 C 0.40031 0.18362 0.65938 0.0
C5134 C 0.37416 0.18207 0.65262 0.0
C5135 C 0.3778 0.18332 0.63748 0.0
C5136 C 0.3928 0.18514 0.63342 0.0
C5137 C 0.40395 0.18526 0.64427 0.0
C5138 C 0.35414 0.19206 0.60364 0.0
C5139 C 0.34248 0.18174 0.60516 0.0
C5140 C 0.36577 0.19242 0.61396 0.0
C5141 C 0.36594 0.18251 0.62604 0.0
C5142 C 0.35447 0.17196 0.62733 0.0
C5143 C 0.34289 0.17157 0.61701 0.0
H5144 H 0.78115 0.40149 0.64579 0.0
H5145 H 0.81958 0.38056 0.66569 0.0
H5146 H 0.78002 0.3816 0.62728 0.0
H5147 H 0.81867 0.36105 0.64712 0.0
H5148 H 0.80654 0.32087 0.62045 0.0
H5149 H 0.80439 0.33993 0.63953 0.0
H5150 H 0.79377 0.37251 0.60585 0.0
H5151 H 0.79551 0.35331 0.58677 0.0
C5152 C 0.78934 0.39267 0.64623 0.0
C5153 C 0.80044 0.39263 0.65723 0.0
C5154 C 0.78874 0.38131 0.63558 0.0
C5155 C 0.79923 0.36969 0.63573 0.0
C5156 C 0.81025 0.36965 0.64681 0.0
C5157 C 0.81083 0.38094 0.65742 0.0
C5158 C 0.80364 0.33207 0.61711 0.0
C5159 C 0.80133 0.33559 0.60207 0.0
C5160 C 0.80247 0.34303 0.62805 0.0
C5161 C 0.79907 0.3578 0.62422 0.0
C5162 C 0.79628 0.36123 0.60921 0.0
C5163 C 0.79737 0.35023 0.59826 0.0
H5164 H 0.19741 0.58542 0.64176 0.0
H5165 H 0.1881 0.61884 0.67501 0.0
H5166 H 0.1985 0.6047 0.62272 0.0
H5167 H 0.18961 0.63812 0.65609 0.0
H5168 H 0.17278 0.66477 0.61622 0.0
H5169 H 0.17453 0.64618 0.6357 0.0
H5170 H 0.21194 0.62601 0.61323 0.0
H5171 H 0.20993 0.6445 0.59341 0.0
C5172 C 0.19581 0.5969 0.64505 0.0
C5173 C 0.19251 0.60057 0.65988 0.0
C5174 C 0.19652 0.60797 0.63414 0.0
C5175 C 0.194 0.62297 0.63784 0.0
C5176 C 0.19129 0.62666 0.65279 0.0
C5177 C 0.19051 0.6156 0.66366 0.0
C5178 C 0.18144 0.65643 0.61543 0.0
C5179 C 0.19119 0.65611 0.60321 0.0
C5180 C 0.18252 0.64581 0.62669 0.0
C5181 C 0.19341 0.6346 0.62608 0.0
C5182 C 0.20332 0.63439 0.61396 0.0
C5183 C 0.20222 0.64503 0.60265 0.0
loop_
_geom_bond_atom_site_label_1
_geom_bond_atom_site_label_2
_geom_bond_distance
_geom_bond_site_symmetry_2
_ccdc_geom_bond_type
Zn0 O3 2.031 . S
Zn0 O5 2.049 . S
Zn0 O10 2.067 . S
Zn1 O2 1.962 . S
Zn1 O4 1.986 . S
Zn1 O6 1.996 . S
Zn1 O9 1.943 . S
O2 Zn1 1.962 . S
O2 C7 1.254 . S
O3 Zn0 2.031 . S
O3 C7 1.269 . S
O4 Zn1 1.986 . S
O4 C11 1.262 . S
O5 Zn0 2.049 . S
O5 C13 1.260 . S
O6 Zn1 1.996 . S
O6 C13 1.257 . S
C7 O2 1.254 . S
C7 O3 1.269 . S
C8 O9 1.249 . S
C8 O10 1.270 . S
O9 Zn1 1.943 . S
O9 C8 1.249 . S
O10 Zn0 2.067 . S
O10 C8 1.270 . S
C11 O4 1.262 . S
C11 O12 1.232 . S
O12 C11 1.232 . S
C13 O5 1.260 . S
C13 O6 1.257 . S
Zn14 O17 2.031 . S
Zn14 O19 2.049 . S
Zn14 O24 2.067 . S
Zn15 O16 1.962 . S
Zn15 O18 1.986 . S
Zn15 O20 1.996 . S
Zn15 O23 1.943 . S
O16 Zn15 1.962 . S
O16 C21 1.254 . S
O17 Zn14 2.031 . S
O17 C21 1.269 . S
O18 Zn15 1.986 . S
O18 C25 1.262 . S
O19 Zn14 2.049 . S
O19 C27 1.260 . S
O20 Zn15 1.996 . S
O20 C27 1.257 . S
C21 O16 1.254 . S
C21 O17 1.269 . S
C22 O23 1.249 . S
C22 O24 1.270 . S
O23 Zn15 1.943 . S
O23 C22 1.249 . S
O24 Zn14 2.067 . S
O24 C22 1.270 . S
C25 O18 1.262 . S
C25 O26 1.232 . S
O26 C25 1.232 . S
C27 O19 1.260 . S
C27 O20 1.257 . S
Zn28 O31 2.031 . S
Zn28 O33 2.049 . S
Zn28 O38 2.067 . S
Zn29 O30 1.962 . S
Zn29 O32 1.986 . S
Zn29 O34 1.996 . S
Zn29 O37 1.943 . S
O30 Zn29 1.962 . S
O30 C35 1.254 . S
O31 Zn28 2.031 . S
O31 C35 1.269 . S
O32 Zn29 1.986 . S
O32 C39 1.262 . S
O33 Zn28 2.049 . S
O33 C41 1.260 . S
O34 Zn29 1.996 . S
O34 C41 1.257 . S
C35 O30 1.254 . S
C35 O31 1.269 . S
C36 O37 1.249 . S
C36 O38 1.270 . S
O37 Zn29 1.943 . S
O37 C36 1.249 . S
O38 Zn28 2.067 . S
O38 C36 1.270 . S
C39 O32 1.262 . S
C39 O40 1.232 . S
O40 C39 1.232 . S
C41 O33 1.260 . S
C41 O34 1.257 . S
Zn42 O45 2.031 . S
Zn42 O47 2.049 . S
Zn42 O52 2.067 . S
Zn43 O44 1.962 . S
Zn43 O46 1.986 . S
Zn43 O48 1.996 . S
Zn43 O51 1.943 . S
O44 Zn43 1.962 . S
O44 C49 1.254 . S
O45 Zn42 2.031 . S
O45 C49 1.269 . S
O46 Zn43 1.986 . S
O46 C53 1.262 . S
O47 Zn42 2.049 . S
O47 C55 1.260 . S
O48 Zn43 1.996 . S
O48 C55 1.257 . S
C49 O44 1.254 . S
C49 O45 1.269 . S
C50 O51 1.249 . S
C50 O52 1.270 . S
O51 Zn43 1.943 . S
O51 C50 1.249 . S
O52 Zn42 2.067 . S
O52 C50 1.270 . S
C53 O46 1.262 . S
C53 O54 1.232 . S
O54 C53 1.232 . S
C55 O47 1.260 . S
C55 O48 1.257 . S
Zn56 O59 2.031 . S
Zn56 O61 2.049 . S
Zn56 O66 2.067 . S
Zn57 O58 1.962 . S
Zn57 O60 1.986 . S
Zn57 O62 1.996 . S
Zn57 O65 1.943 . S
O58 Zn57 1.962 . S
O58 C63 1.254 . S
O59 Zn56 2.031 . S
O59 C63 1.269 . S
O60 Zn57 1.986 . S
O60 C67 1.262 . S
O61 Zn56 2.049 . S
O61 C69 1.260 . S
O62 Zn57 1.996 . S
O62 C69 1.257 . S
C63 O58 1.254 . S
C63 O59 1.269 . S
C64 O65 1.249 . S
C64 O66 1.270 . S
O65 Zn57 1.943 . S
O65 C64 1.249 . S
O66 Zn56 2.067 . S
O66 C64 1.270 . S
C67 O60 1.262 . S
C67 O68 1.232 . S
O68 C67 1.232 . S
C69 O61 1.260 . S
C69 O62 1.257 . S
Zn70 O73 2.031 . S
Zn70 O75 2.049 . S
Zn70 O80 2.067 . S
Zn71 O72 1.962 . S
Zn71 O74 1.986 . S
Zn71 O76 1.996 . S
Zn71 O79 1.943 . S
O72 Zn71 1.962 . S
O72 C77 1.254 . S
O73 Zn70 2.031 . S
O73 C77 1.269 . S
O74 Zn71 1.986 . S
O74 C81 1.262 . S
O75 Zn70 2.049 . S
O75 C83 1.260 . S
O76 Zn71 1.996 . S
O76 C83 1.257 . S
C77 O72 1.254 . S
C77 O73 1.269 . S
C78 O79 1.249 . S
C78 O80 1.270 . S
O79 Zn71 1.943 . S
O79 C78 1.249 . S
O80 Zn70 2.067 . S
O80 C78 1.270 . S
C81 O74 1.262 . S
C81 O82 1.232 . S
O82 C81 1.232 . S
C83 O75 1.260 . S
C83 O76 1.257 . S
Zn84 O87 2.031 . S
Zn84 O89 2.049 . S
Zn84 O94 2.067 . S
Zn85 O86 1.962 . S
Zn85 O88 1.986 . S
Zn85 O90 1.996 . S
Zn85 O93 1.943 . S
O86 Zn85 1.962 . S
O86 C91 1.254 . S
O87 Zn84 2.031 . S
O87 C91 1.269 . S
O88 Zn85 1.986 . S
O88 C95 1.262 . S
O89 Zn84 2.049 . S
O89 C97 1.260 . S
O90 Zn85 1.996 . S
O90 C97 1.257 . S
C91 O86 1.254 . S
C91 O87 1.269 . S
C92 O93 1.249 . S
C92 O94 1.270 . S
O93 Zn85 1.943 . S
O93 C92 1.249 . S
O94 Zn84 2.067 . S
O94 C92 1.270 . S
C95 O88 1.262 . S
C95 O96 1.232 . S
O96 C95 1.232 . S
C97 O89 1.260 . S
C97 O90 1.257 . S
Zn98 O101 2.031 . S
Zn98 O103 2.049 . S
Zn98 O108 2.067 . S
Zn99 O100 1.962 . S
Zn99 O102 1.986 . S
Zn99 O104 1.996 . S
Zn99 O107 1.943 . S
O100 Zn99 1.962 . S
O100 C105 1.254 . S
O101 Zn98 2.031 . S
O101 C105 1.269 . S
O102 Zn99 1.986 . S
O102 C109 1.262 . S
O103 Zn98 2.049 . S
O103 C111 1.260 . S
O104 Zn99 1.996 . S
O104 C111 1.257 . S
C105 O100 1.254 . S
C105 O101 1.269 . S
C106 O107 1.249 . S
C106 O108 1.270 . S
O107 Zn99 1.943 . S
O107 C106 1.249 . S
O108 Zn98 2.067 . S
O108 C106 1.270 . S
C109 O102 1.262 . S
C109 O110 1.232 . S
O110 C109 1.232 . S
C111 O103 1.260 . S
C111 O104 1.257 . S
Zn112 O115 2.031 . S
Zn112 O117 2.049 . S
Zn112 O122 2.067 . S
Zn113 O114 1.962 . S
Zn113 O116 1.986 . S
Zn113 O118 1.996 . S
Zn113 O121 1.943 . S
O114 Zn113 1.962 . S
O114 C119 1.254 . S
O115 Zn112 2.031 . S
O115 C119 1.269 . S
O116 Zn113 1.986 . S
O116 C123 1.262 . S
O117 Zn112 2.049 . S
O117 C125 1.260 . S
O118 Zn113 1.996 . S
O118 C125 1.257 . S
C119 O114 1.254 . S
C119 O115 1.269 . S
C120 O121 1.249 . S
C120 O122 1.270 . S
O121 Zn113 1.943 . S
O121 C120 1.249 . S
O122 Zn112 2.067 . S
O122 C120 1.270 . S
C123 O116 1.262 . S
C123 O124 1.232 . S
O124 C123 1.232 . S
C125 O117 1.260 . S
C125 O118 1.257 . S
Zn126 O129 2.031 . S
Zn126 O131 2.049 . S
Zn126 O136 2.067 . S
Zn127 O128 1.962 . S
Zn127 O130 1.986 . S
Zn127 O132 1.996 . S
Zn127 O135 1.943 . S
O128 Zn127 1.962 . S
O128 C133 1.254 . S
O129 Zn126 2.031 . S
O129 C133 1.269 . S
O130 Zn127 1.986 . S
O130 C137 1.262 . S
O131 Zn126 2.049 . S
O131 C139 1.260 . S
O132 Zn127 1.996 . S
O132 C139 1.257 . S
C133 O128 1.254 . S
C133 O129 1.269 . S
C134 O135 1.249 . S
C134 O136 1.270 . S
O135 Zn127 1.943 . S
O135 C134 1.249 . S
O136 Zn126 2.067 . S
O136 C134 1.270 . S
C137 O130 1.262 . S
C137 O138 1.232 . S
O138 C137 1.232 . S
C139 O131 1.260 . S
C139 O132 1.257 . S
Zn140 O143 2.031 . S
Zn140 O145 2.049 . S
Zn140 O150 2.067 . S
Zn141 O142 1.962 . S
Zn141 O144 1.986 . S
Zn141 O146 1.996 . S
Zn141 O149 1.943 . S
O142 Zn141 1.962 . S
O142 C147 1.254 . S
O143 Zn140 2.031 . S
O143 C147 1.269 . S
O144 Zn141 1.986 . S
O144 C151 1.262 . S
O145 Zn140 2.049 . S
O145 C153 1.260 . S
O146 Zn141 1.996 . S
O146 C153 1.257 . S
C147 O142 1.254 . S
C147 O143 1.269 . S
C148 O149 1.249 . S
C148 O150 1.270 . S
O149 Zn141 1.943 . S
O149 C148 1.249 . S
O150 Zn140 2.067 . S
O150 C148 1.270 . S
C151 O144 1.262 . S
C151 O152 1.232 . S
O152 C151 1.232 . S
C153 O145 1.260 . S
C153 O146 1.257 . S
Zn154 O157 2.031 . S
Zn154 O159 2.049 . S
Zn154 O164 2.067 . S
Zn155 O156 1.962 . S
Zn155 O158 1.986 . S
Zn155 O160 1.996 . S
Zn155 O163 1.943 . S
O156 Zn155 1.962 . S
O156 C161 1.254 . S
O157 Zn154 2.031 . S
O157 C161 1.269 . S
O158 Zn155 1.986 . S
O158 C165 1.262 . S
O159 Zn154 2.049 . S
O159 C167 1.260 . S
O160 Zn155 1.996 . S
O160 C167 1.257 . S
C161 O156 1.254 . S
C161 O157 1.269 . S
C162 O163 1.249 . S
C162 O164 1.270 . S
O163 Zn155 1.943 . S
O163 C162 1.249 . S
O164 Zn154 2.067 . S
O164 C162 1.270 . S
C165 O158 1.262 . S
C165 O166 1.232 . S
O166 C165 1.232 . S
C167 O159 1.260 . S
C167 O160 1.257 . S
Zn168 O171 2.031 . S
Zn168 O173 2.049 . S
Zn168 O178 2.067 . S
Zn169 O170 1.962 . S
Zn169 O172 1.986 . S
Zn169 O174 1.996 . S
Zn169 O177 1.943 . S
O170 Zn169 1.962 . S
O170 C175 1.254 . S
O171 Zn168 2.031 . S
O171 C175 1.269 . S
O172 Zn169 1.986 . S
O172 C179 1.262 . S
O173 Zn168 2.049 . S
O173 C181 1.260 . S
O174 Zn169 1.996 . S
O174 C181 1.257 . S
C175 O170 1.254 . S
C175 O171 1.269 . S
C176 O177 1.249 . S
C176 O178 1.270 . S
O177 Zn169 1.943 . S
O177 C176 1.249 . S
O178 Zn168 2.067 . S
O178 C176 1.270 . S
C179 O172 1.262 . S
C179 O180 1.232 . S
O180 C179 1.232 . S
C181 O173 1.260 . S
C181 O174 1.257 . S
Zn182 O185 2.031 . S
Zn182 O187 2.049 . S
Zn182 O192 2.067 . S
Zn183 O184 1.962 . S
Zn183 O186 1.986 . S
Zn183 O188 1.996 . S
Zn183 O191 1.943 . S
O184 Zn183 1.962 . S
O184 C189 1.254 . S
O185 Zn182 2.031 . S
O185 C189 1.269 . S
O186 Zn183 1.986 . S
O186 C193 1.262 . S
O187 Zn182 2.049 . S
O187 C195 1.260 . S
O188 Zn183 1.996 . S
O188 C195 1.257 . S
C189 O184 1.254 . S
C189 O185 1.269 . S
C190 O191 1.249 . S
C190 O192 1.270 . S
O191 Zn183 1.943 . S
O191 C190 1.249 . S
O192 Zn182 2.067 . S
O192 C190 1.270 . S
C193 O186 1.262 . S
C193 O194 1.232 . S
O194 C193 1.232 . S
C195 O187 1.260 . S
C195 O188 1.257 . S
Zn196 O199 2.031 . S
Zn196 O201 2.049 . S
Zn196 O206 2.067 . S
Zn197 O198 1.962 . S
Zn197 O200 1.986 . S
Zn197 O202 1.996 . S
Zn197 O205 1.943 . S
O198 Zn197 1.962 . S
O198 C203 1.254 . S
O199 Zn196 2.031 . S
O199 C203 1.269 . S
O200 Zn197 1.986 . S
O200 C207 1.262 . S
O201 Zn196 2.049 . S
O201 C209 1.260 . S
O202 Zn197 1.996 . S
O202 C209 1.257 . S
C203 O198 1.254 . S
C203 O199 1.269 . S
C204 O205 1.249 . S
C204 O206 1.270 . S
O205 Zn197 1.943 . S
O205 C204 1.249 . S
O206 Zn196 2.067 . S
O206 C204 1.270 . S
C207 O200 1.262 . S
C207 O208 1.232 . S
O208 C207 1.232 . S
C209 O201 1.260 . S
C209 O202 1.257 . S
Zn210 O213 2.031 . S
Zn210 O215 2.049 . S
Zn210 O220 2.067 . S
Zn211 O212 1.962 . S
Zn211 O214 1.986 . S
Zn211 O216 1.996 . S
Zn211 O219 1.943 . S
O212 Zn211 1.962 . S
O212 C217 1.254 . S
O213 Zn210 2.031 . S
O213 C217 1.269 . S
O214 Zn211 1.986 . S
O214 C221 1.262 . S
O215 Zn210 2.049 . S
O215 C223 1.260 . S
O216 Zn211 1.996 . S
O216 C223 1.257 . S
C217 O212 1.254 . S
C217 O213 1.269 . S
C218 O219 1.249 . S
C218 O220 1.270 . S
O219 Zn211 1.943 . S
O219 C218 1.249 . S
O220 Zn210 2.067 . S
O220 C218 1.270 . S
C221 O214 1.262 . S
C221 O222 1.232 . S
O222 C221 1.232 . S
C223 O215 1.260 . S
C223 O216 1.257 . S
Zn224 O227 2.031 . S
Zn224 O229 2.049 . S
Zn224 O234 2.067 . S
Zn225 O226 1.962 . S
Zn225 O228 1.986 . S
Zn225 O230 1.996 . S
Zn225 O233 1.943 . S
O226 Zn225 1.962 . S
O226 C231 1.254 . S
O227 Zn224 2.031 . S
O227 C231 1.269 . S
O228 Zn225 1.986 . S
O228 C235 1.262 . S
O229 Zn224 2.049 . S
O229 C237 1.260 . S
O230 Zn225 1.996 . S
O230 C237 1.257 . S
C231 O226 1.254 . S
C231 O227 1.269 . S
C232 O233 1.249 . S
C232 O234 1.270 . S
O233 Zn225 1.943 . S
O233 C232 1.249 . S
O234 Zn224 2.067 . S
O234 C232 1.270 . S
C235 O228 1.262 . S
C235 O236 1.232 . S
O236 C235 1.232 . S
C237 O229 1.260 . S
C237 O230 1.257 . S
Zn238 O241 2.031 . S
Zn238 O243 2.049 . S
Zn238 O248 2.067 . S
Zn239 O240 1.962 . S
Zn239 O242 1.986 . S
Zn239 O244 1.996 . S
Zn239 O247 1.943 . S
O240 Zn239 1.962 . S
O240 C245 1.254 . S
O241 Zn238 2.031 . S
O241 C245 1.269 . S
O242 Zn239 1.986 . S
O242 C249 1.262 . S
O243 Zn238 2.049 . S
O243 C251 1.260 . S
O244 Zn239 1.996 . S
O244 C251 1.257 . S
C245 O240 1.254 . S
C245 O241 1.269 . S
C246 O247 1.249 . S
C246 O248 1.270 . S
O247 Zn239 1.943 . S
O247 C246 1.249 . S
O248 Zn238 2.067 . S
O248 C246 1.270 . S
C249 O242 1.262 . S
C249 O250 1.232 . S
O250 C249 1.232 . S
C251 O243 1.260 . S
C251 O244 1.257 . S
Zn252 O255 2.031 . S
Zn252 O257 2.049 . S
Zn252 O262 2.067 . S
Zn253 O254 1.962 . S
Zn253 O256 1.986 . S
Zn253 O258 1.996 . S
Zn253 O261 1.943 . S
O254 Zn253 1.962 . S
O254 C259 1.254 . S
O255 Zn252 2.031 . S
O255 C259 1.269 . S
O256 Zn253 1.986 . S
O256 C263 1.262 . S
O257 Zn252 2.049 . S
O257 C265 1.260 . S
O258 Zn253 1.996 . S
O258 C265 1.257 . S
C259 O254 1.254 . S
C259 O255 1.269 . S
C260 O261 1.249 . S
C260 O262 1.270 . S
O261 Zn253 1.943 . S
O261 C260 1.249 . S
O262 Zn252 2.067 . S
O262 C260 1.270 . S
C263 O256 1.262 . S
C263 O264 1.232 . S
O264 C263 1.232 . S
C265 O257 1.260 . S
C265 O258 1.257 . S
Zn266 O269 2.031 . S
Zn266 O271 2.049 . S
Zn266 O276 2.067 . S
Zn267 O268 1.962 . S
Zn267 O270 1.986 . S
Zn267 O272 1.996 . S
Zn267 O275 1.943 . S
O268 Zn267 1.962 . S
O268 C273 1.254 . S
O269 Zn266 2.031 . S
O269 C273 1.269 . S
O270 Zn267 1.986 . S
O270 C277 1.262 . S
O271 Zn266 2.049 . S
O271 C279 1.260 . S
O272 Zn267 1.996 . S
O272 C279 1.257 . S
C273 O268 1.254 . S
C273 O269 1.269 . S
C274 O275 1.249 . S
C274 O276 1.270 . S
O275 Zn267 1.943 . S
O275 C274 1.249 . S
O276 Zn266 2.067 . S
O276 C274 1.270 . S
C277 O270 1.262 . S
C277 O278 1.232 . S
O278 C277 1.232 . S
C279 O271 1.260 . S
C279 O272 1.257 . S
Zn280 O283 2.031 . S
Zn280 O285 2.049 . S
Zn280 O290 2.067 . S
Zn281 O282 1.962 . S
Zn281 O284 1.986 . S
Zn281 O286 1.996 . S
Zn281 O289 1.943 . S
O282 Zn281 1.962 . S
O282 C287 1.254 . S
O283 Zn280 2.031 . S
O283 C287 1.269 . S
O284 Zn281 1.986 . S
O284 C291 1.262 . S
O285 Zn280 2.049 . S
O285 C293 1.260 . S
O286 Zn281 1.996 . S
O286 C293 1.257 . S
C287 O282 1.254 . S
C287 O283 1.269 . S
C288 O289 1.249 . S
C288 O290 1.270 . S
O289 Zn281 1.943 . S
O289 C288 1.249 . S
O290 Zn280 2.067 . S
O290 C288 1.270 . S
C291 O284 1.262 . S
C291 O292 1.232 . S
O292 C291 1.232 . S
C293 O285 1.260 . S
C293 O286 1.257 . S
Zn294 O297 2.031 . S
Zn294 O299 2.049 . S
Zn294 O304 2.067 . S
Zn295 O296 1.962 . S
Zn295 O298 1.986 . S
Zn295 O300 1.996 . S
Zn295 O303 1.943 . S
O296 Zn295 1.962 . S
O296 C301 1.254 . S
O297 Zn294 2.031 . S
O297 C301 1.269 . S
O298 Zn295 1.986 . S
O298 C305 1.262 . S
O299 Zn294 2.049 . S
O299 C307 1.260 . S
O300 Zn295 1.996 . S
O300 C307 1.257 . S
C301 O296 1.254 . S
C301 O297 1.269 . S
C302 O303 1.249 . S
C302 O304 1.270 . S
O303 Zn295 1.943 . S
O303 C302 1.249 . S
O304 Zn294 2.067 . S
O304 C302 1.270 . S
C305 O298 1.262 . S
C305 O306 1.232 . S
O306 C305 1.232 . S
C307 O299 1.260 . S
C307 O300 1.257 . S
Zn308 O311 2.031 . S
Zn308 O313 2.049 . S
Zn308 O318 2.067 . S
Zn309 O310 1.962 . S
Zn309 O312 1.986 . S
Zn309 O314 1.996 . S
Zn309 O317 1.943 . S
O310 Zn309 1.962 . S
O310 C315 1.254 . S
O311 Zn308 2.031 . S
O311 C315 1.269 . S
O312 Zn309 1.986 . S
O312 C319 1.262 . S
O313 Zn308 2.049 . S
O313 C321 1.260 . S
O314 Zn309 1.996 . S
O314 C321 1.257 . S
C315 O310 1.254 . S
C315 O311 1.269 . S
C316 O317 1.249 . S
C316 O318 1.270 . S
O317 Zn309 1.943 . S
O317 C316 1.249 . S
O318 Zn308 2.067 . S
O318 C316 1.270 . S
C319 O312 1.262 . S
C319 O320 1.232 . S
O320 C319 1.232 . S
C321 O313 1.260 . S
C321 O314 1.257 . S
Zn322 O325 2.031 . S
Zn322 O327 2.049 . S
Zn322 O332 2.067 . S
Zn323 O324 1.962 . S
Zn323 O326 1.986 . S
Zn323 O328 1.996 . S
Zn323 O331 1.943 . S
O324 Zn323 1.962 . S
O324 C329 1.254 . S
O325 Zn322 2.031 . S
O325 C329 1.269 . S
O326 Zn323 1.986 . S
O326 C333 1.262 . S
O327 Zn322 2.049 . S
O327 C335 1.260 . S
O328 Zn323 1.996 . S
O328 C335 1.257 . S
C329 O324 1.254 . S
C329 O325 1.269 . S
C330 O331 1.249 . S
C330 O332 1.270 . S
O331 Zn323 1.943 . S
O331 C330 1.249 . S
O332 Zn322 2.067 . S
O332 C330 1.270 . S
C333 O326 1.262 . S
C333 O334 1.232 . S
O334 C333 1.232 . S
C335 O327 1.260 . S
C335 O328 1.257 . S
Zn336 O339 2.031 . S
Zn336 O341 2.049 . S
Zn336 O346 2.067 . S
Zn337 O338 1.962 . S
Zn337 O340 1.986 . S
Zn337 O342 1.996 . S
Zn337 O345 1.943 . S
O338 Zn337 1.962 . S
O338 C343 1.254 . S
O339 Zn336 2.031 . S
O339 C343 1.269 . S
O340 Zn337 1.986 . S
O340 C347 1.262 . S
O341 Zn336 2.049 . S
O341 C349 1.260 . S
O342 Zn337 1.996 . S
O342 C349 1.257 . S
C343 O338 1.254 . S
C343 O339 1.269 . S
C344 O345 1.249 . S
C344 O346 1.270 . S
O345 Zn337 1.943 . S
O345 C344 1.249 . S
O346 Zn336 2.067 . S
O346 C344 1.270 . S
C347 O340 1.262 . S
C347 O348 1.232 . S
O348 C347 1.232 . S
C349 O341 1.260 . S
C349 O342 1.257 . S
Zn350 O353 2.031 . S
Zn350 O355 2.049 . S
Zn350 O360 2.067 . S
Zn351 O352 1.962 . S
Zn351 O354 1.986 . S
Zn351 O356 1.996 . S
Zn351 O359 1.943 . S
O352 Zn351 1.962 . S
O352 C357 1.254 . S
O353 Zn350 2.031 . S
O353 C357 1.269 . S
O354 Zn351 1.986 . S
O354 C361 1.262 . S
O355 Zn350 2.049 . S
O355 C363 1.260 . S
O356 Zn351 1.996 . S
O356 C363 1.257 . S
C357 O352 1.254 . S
C357 O353 1.269 . S
C358 O359 1.249 . S
C358 O360 1.270 . S
O359 Zn351 1.943 . S
O359 C358 1.249 . S
O360 Zn350 2.067 . S
O360 C358 1.270 . S
C361 O354 1.262 . S
C361 O362 1.232 . S
O362 C361 1.232 . S
C363 O355 1.260 . S
C363 O356 1.257 . S
Zn364 O367 2.031 . S
Zn364 O369 2.049 . S
Zn364 O374 2.067 . S
Zn365 O366 1.962 . S
Zn365 O368 1.986 . S
Zn365 O370 1.996 . S
Zn365 O373 1.943 . S
O366 Zn365 1.962 . S
O366 C371 1.254 . S
O367 Zn364 2.031 . S
O367 C371 1.269 . S
O368 Zn365 1.986 . S
O368 C375 1.262 . S
O369 Zn364 2.049 . S
O369 C377 1.260 . S
O370 Zn365 1.996 . S
O370 C377 1.257 . S
C371 O366 1.254 . S
C371 O367 1.269 . S
C372 O373 1.249 . S
C372 O374 1.270 . S
O373 Zn365 1.943 . S
O373 C372 1.249 . S
O374 Zn364 2.067 . S
O374 C372 1.270 . S
C375 O368 1.262 . S
C375 O376 1.232 . S
O376 C375 1.232 . S
C377 O369 1.260 . S
C377 O370 1.257 . S
Zn378 O381 2.031 . S
Zn378 O383 2.049 . S
Zn378 O388 2.067 . S
Zn379 O380 1.962 . S
Zn379 O382 1.986 . S
Zn379 O384 1.996 . S
Zn379 O387 1.943 . S
O380 Zn379 1.962 . S
O380 C385 1.254 . S
O381 Zn378 2.031 . S
O381 C385 1.269 . S
O382 Zn379 1.986 . S
O382 C389 1.262 . S
O383 Zn378 2.049 . S
O383 C391 1.260 . S
O384 Zn379 1.996 . S
O384 C391 1.257 . S
C385 O380 1.254 . S
C385 O381 1.269 . S
C386 O387 1.249 . S
C386 O388 1.270 . S
O387 Zn379 1.943 . S
O387 C386 1.249 . S
O388 Zn378 2.067 . S
O388 C386 1.270 . S
C389 O382 1.262 . S
C389 O390 1.232 . S
O390 C389 1.232 . S
C391 O383 1.260 . S
C391 O384 1.257 . S
Zn392 O395 2.031 . S
Zn392 O397 2.049 . S
Zn392 O402 2.067 . S
Zn393 O394 1.962 . S
Zn393 O396 1.986 . S
Zn393 O398 1.996 . S
Zn393 O401 1.943 . S
O394 Zn393 1.962 . S
O394 C399 1.254 . S
O395 Zn392 2.031 . S
O395 C399 1.269 . S
O396 Zn393 1.986 . S
O396 C403 1.262 . S
O397 Zn392 2.049 . S
O397 C405 1.260 . S
O398 Zn393 1.996 . S
O398 C405 1.257 . S
C399 O394 1.254 . S
C399 O395 1.269 . S
C400 O401 1.249 . S
C400 O402 1.270 . S
O401 Zn393 1.943 . S
O401 C400 1.249 . S
O402 Zn392 2.067 . S
O402 C400 1.270 . S
C403 O396 1.262 . S
C403 O404 1.232 . S
O404 C403 1.232 . S
C405 O397 1.260 . S
C405 O398 1.257 . S
Zn406 O409 2.031 . S
Zn406 O411 2.049 . S
Zn406 O416 2.067 . S
Zn407 O408 1.962 . S
Zn407 O410 1.986 . S
Zn407 O412 1.996 . S
Zn407 O415 1.943 . S
O408 Zn407 1.962 . S
O408 C413 1.254 . S
O409 Zn406 2.031 . S
O409 C413 1.269 . S
O410 Zn407 1.986 . S
O410 C417 1.262 . S
O411 Zn406 2.049 . S
O411 C419 1.260 . S
O412 Zn407 1.996 . S
O412 C419 1.257 . S
C413 O408 1.254 . S
C413 O409 1.269 . S
C414 O415 1.249 . S
C414 O416 1.270 . S
O415 Zn407 1.943 . S
O415 C414 1.249 . S
O416 Zn406 2.067 . S
O416 C414 1.270 . S
C417 O410 1.262 . S
C417 O418 1.232 . S
O418 C417 1.232 . S
C419 O411 1.260 . S
C419 O412 1.257 . S
Zn420 O423 2.031 . S
Zn420 O425 2.049 . S
Zn420 O430 2.067 . S
Zn421 O422 1.962 . S
Zn421 O424 1.986 . S
Zn421 O426 1.996 . S
Zn421 O429 1.943 . S
O422 Zn421 1.962 . S
O422 C427 1.254 . S
O423 Zn420 2.031 . S
O423 C427 1.269 . S
O424 Zn421 1.986 . S
O424 C431 1.262 . S
O425 Zn420 2.049 . S
O425 C433 1.260 . S
O426 Zn421 1.996 . S
O426 C433 1.257 . S
C427 O422 1.254 . S
C427 O423 1.269 . S
C428 O429 1.249 . S
C428 O430 1.270 . S
O429 Zn421 1.943 . S
O429 C428 1.249 . S
O430 Zn420 2.067 . S
O430 C428 1.270 . S
C431 O424 1.262 . S
C431 O432 1.232 . S
O432 C431 1.232 . S
C433 O425 1.260 . S
C433 O426 1.257 . S
Zn434 O437 2.031 . S
Zn434 O439 2.049 . S
Zn434 O444 2.067 . S
Zn435 O436 1.962 . S
Zn435 O438 1.986 . S
Zn435 O440 1.996 . S
Zn435 O443 1.943 . S
O436 Zn435 1.962 . S
O436 C441 1.254 . S
O437 Zn434 2.031 . S
O437 C441 1.269 . S
O438 Zn435 1.986 . S
O438 C445 1.262 . S
O439 Zn434 2.049 . S
O439 C447 1.260 . S
O440 Zn435 1.996 . S
O440 C447 1.257 . S
C441 O436 1.254 . S
C441 O437 1.269 . S
C442 O443 1.249 . S
C442 O444 1.270 . S
O443 Zn435 1.943 . S
O443 C442 1.249 . S
O444 Zn434 2.067 . S
O444 C442 1.270 . S
C445 O438 1.262 . S
C445 O446 1.232 . S
O446 C445 1.232 . S
C447 O439 1.260 . S
C447 O440 1.257 . S
Zn448 O451 2.031 . S
Zn448 O453 2.049 . S
Zn448 O458 2.067 . S
Zn449 O450 1.962 . S
Zn449 O452 1.986 . S
Zn449 O454 1.996 . S
Zn449 O457 1.943 . S
O450 Zn449 1.962 . S
O450 C455 1.254 . S
O451 Zn448 2.031 . S
O451 C455 1.269 . S
O452 Zn449 1.986 . S
O452 C459 1.262 . S
O453 Zn448 2.049 . S
O453 C461 1.260 . S
O454 Zn449 1.996 . S
O454 C461 1.257 . S
C455 O450 1.254 . S
C455 O451 1.269 . S
C456 O457 1.249 . S
C456 O458 1.270 . S
O457 Zn449 1.943 . S
O457 C456 1.249 . S
O458 Zn448 2.067 . S
O458 C456 1.270 . S
C459 O452 1.262 . S
C459 O460 1.232 . S
O460 C459 1.232 . S
C461 O453 1.260 . S
C461 O454 1.257 . S
Zn462 O465 2.031 . S
Zn462 O467 2.049 . S
Zn462 O472 2.067 . S
Zn463 O464 1.962 . S
Zn463 O466 1.986 . S
Zn463 O468 1.996 . S
Zn463 O471 1.943 . S
O464 Zn463 1.962 . S
O464 C469 1.254 . S
O465 Zn462 2.031 . S
O465 C469 1.269 . S
O466 Zn463 1.986 . S
O466 C473 1.262 . S
O467 Zn462 2.049 . S
O467 C475 1.260 . S
O468 Zn463 1.996 . S
O468 C475 1.257 . S
C469 O464 1.254 . S
C469 O465 1.269 . S
C470 O471 1.249 . S
C470 O472 1.270 . S
O471 Zn463 1.943 . S
O471 C470 1.249 . S
O472 Zn462 2.067 . S
O472 C470 1.270 . S
C473 O466 1.262 . S
C473 O474 1.232 . S
O474 C473 1.232 . S
C475 O467 1.260 . S
C475 O468 1.257 . S
Zn476 O479 2.031 . S
Zn476 O481 2.049 . S
Zn476 O486 2.067 . S
Zn477 O478 1.962 . S
Zn477 O480 1.986 . S
Zn477 O482 1.996 . S
Zn477 O485 1.943 . S
O478 Zn477 1.962 . S
O478 C483 1.254 . S
O479 Zn476 2.031 . S
O479 C483 1.269 . S
O480 Zn477 1.986 . S
O480 C487 1.262 . S
O481 Zn476 2.049 . S
O481 C489 1.260 . S
O482 Zn477 1.996 . S
O482 C489 1.257 . S
C483 O478 1.254 . S
C483 O479 1.269 . S
C484 O485 1.249 . S
C484 O486 1.270 . S
O485 Zn477 1.943 . S
O485 C484 1.249 . S
O486 Zn476 2.067 . S
O486 C484 1.270 . S
C487 O480 1.262 . S
C487 O488 1.232 . S
O488 C487 1.232 . S
C489 O481 1.260 . S
C489 O482 1.257 . S
Zn490 O493 2.031 . S
Zn490 O495 2.049 . S
Zn490 O500 2.067 . S
Zn491 O492 1.962 . S
Zn491 O494 1.986 . S
Zn491 O496 1.996 . S
Zn491 O499 1.943 . S
O492 Zn491 1.962 . S
O492 C497 1.254 . S
O493 Zn490 2.031 . S
O493 C497 1.269 . S
O494 Zn491 1.986 . S
O494 C501 1.262 . S
O495 Zn490 2.049 . S
O495 C503 1.260 . S
O496 Zn491 1.996 . S
O496 C503 1.257 . S
C497 O492 1.254 . S
C497 O493 1.269 . S
C498 O499 1.249 . S
C498 O500 1.270 . S
O499 Zn491 1.943 . S
O499 C498 1.249 . S
O500 Zn490 2.067 . S
O500 C498 1.270 . S
C501 O494 1.262 . S
C501 O502 1.232 . S
O502 C501 1.232 . S
C503 O495 1.260 . S
C503 O496 1.257 . S
Zn504 O507 2.031 . S
Zn504 O509 2.049 . S
Zn504 O514 2.067 . S
Zn505 O506 1.962 . S
Zn505 O508 1.986 . S
Zn505 O510 1.996 . S
Zn505 O513 1.943 . S
O506 Zn505 1.962 . S
O506 C511 1.254 . S
O507 Zn504 2.031 . S
O507 C511 1.269 . S
O508 Zn505 1.986 . S
O508 C515 1.262 . S
O509 Zn504 2.049 . S
O509 C517 1.260 . S
O510 Zn505 1.996 . S
O510 C517 1.257 . S
C511 O506 1.254 . S
C511 O507 1.269 . S
C512 O513 1.249 . S
C512 O514 1.270 . S
O513 Zn505 1.943 . S
O513 C512 1.249 . S
O514 Zn504 2.067 . S
O514 C512 1.270 . S
C515 O508 1.262 . S
C515 O516 1.232 . S
O516 C515 1.232 . S
C517 O509 1.260 . S
C517 O510 1.257 . S
Zn518 O521 2.031 . S
Zn518 O523 2.049 . S
Zn518 O528 2.067 . S
Zn519 O520 1.962 . S
Zn519 O522 1.986 . S
Zn519 O524 1.996 . S
Zn519 O527 1.943 . S
O520 Zn519 1.962 . S
O520 C525 1.254 . S
O521 Zn518 2.031 . S
O521 C525 1.269 . S
O522 Zn519 1.986 . S
O522 C529 1.262 . S
O523 Zn518 2.049 . S
O523 C531 1.260 . S
O524 Zn519 1.996 . S
O524 C531 1.257 . S
C525 O520 1.254 . S
C525 O521 1.269 . S
C526 O527 1.249 . S
C526 O528 1.270 . S
O527 Zn519 1.943 . S
O527 C526 1.249 . S
O528 Zn518 2.067 . S
O528 C526 1.270 . S
C529 O522 1.262 . S
C529 O530 1.232 . S
O530 C529 1.232 . S
C531 O523 1.260 . S
C531 O524 1.257 . S
Zn532 O535 2.031 . S
Zn532 O537 2.049 . S
Zn532 O542 2.067 . S
Zn533 O534 1.962 . S
Zn533 O536 1.986 . S
Zn533 O538 1.996 . S
Zn533 O541 1.943 . S
O534 Zn533 1.962 . S
O534 C539 1.254 . S
O535 Zn532 2.031 . S
O535 C539 1.269 . S
O536 Zn533 1.986 . S
O536 C543 1.262 . S
O537 Zn532 2.049 . S
O537 C545 1.260 . S
O538 Zn533 1.996 . S
O538 C545 1.257 . S
C539 O534 1.254 . S
C539 O535 1.269 . S
C540 O541 1.249 . S
C540 O542 1.270 . S
O541 Zn533 1.943 . S
O541 C540 1.249 . S
O542 Zn532 2.067 . S
O542 C540 1.270 . S
C543 O536 1.262 . S
C543 O544 1.232 . S
O544 C543 1.232 . S
C545 O537 1.260 . S
C545 O538 1.257 . S
Zn546 O549 2.031 . S
Zn546 O551 2.049 . S
Zn546 O556 2.067 . S
Zn547 O548 1.962 . S
Zn547 O550 1.986 . S
Zn547 O552 1.996 . S
Zn547 O555 1.943 . S
O548 Zn547 1.962 . S
O548 C553 1.254 . S
O549 Zn546 2.031 . S
O549 C553 1.269 . S
O550 Zn547 1.986 . S
O550 C557 1.262 . S
O551 Zn546 2.049 . S
O551 C559 1.260 . S
O552 Zn547 1.996 . S
O552 C559 1.257 . S
C553 O548 1.254 . S
C553 O549 1.269 . S
C554 O555 1.249 . S
C554 O556 1.270 . S
O555 Zn547 1.943 . S
O555 C554 1.249 . S
O556 Zn546 2.067 . S
O556 C554 1.270 . S
C557 O550 1.262 . S
C557 O558 1.232 . S
O558 C557 1.232 . S
C559 O551 1.260 . S
C559 O552 1.257 . S
Zn560 O563 2.031 . S
Zn560 O565 2.049 . S
Zn560 O570 2.067 . S
Zn561 O562 1.962 . S
Zn561 O564 1.986 . S
Zn561 O566 1.996 . S
Zn561 O569 1.943 . S
O562 Zn561 1.962 . S
O562 C567 1.254 . S
O563 Zn560 2.031 . S
O563 C567 1.269 . S
O564 Zn561 1.986 . S
O564 C571 1.262 . S
O565 Zn560 2.049 . S
O565 C573 1.260 . S
O566 Zn561 1.996 . S
O566 C573 1.257 . S
C567 O562 1.254 . S
C567 O563 1.269 . S
C568 O569 1.249 . S
C568 O570 1.270 . S
O569 Zn561 1.943 . S
O569 C568 1.249 . S
O570 Zn560 2.067 . S
O570 C568 1.270 . S
C571 O564 1.262 . S
C571 O572 1.232 . S
O572 C571 1.232 . S
C573 O565 1.260 . S
C573 O566 1.257 . S
Zn574 O577 2.031 . S
Zn574 O579 2.049 . S
Zn574 O584 2.067 . S
Zn575 O576 1.962 . S
Zn575 O578 1.986 . S
Zn575 O580 1.996 . S
Zn575 O583 1.943 . S
O576 Zn575 1.962 . S
O576 C581 1.254 . S
O577 Zn574 2.031 . S
O577 C581 1.269 . S
O578 Zn575 1.986 . S
O578 C585 1.262 . S
O579 Zn574 2.049 . S
O579 C587 1.260 . S
O580 Zn575 1.996 . S
O580 C587 1.257 . S
C581 O576 1.254 . S
C581 O577 1.269 . S
C582 O583 1.249 . S
C582 O584 1.270 . S
O583 Zn575 1.943 . S
O583 C582 1.249 . S
O584 Zn574 2.067 . S
O584 C582 1.270 . S
C585 O578 1.262 . S
C585 O586 1.232 . S
O586 C585 1.232 . S
C587 O579 1.260 . S
C587 O580 1.257 . S
Zn588 O591 2.031 . S
Zn588 O593 2.049 . S
Zn588 O598 2.067 . S
Zn589 O590 1.962 . S
Zn589 O592 1.986 . S
Zn589 O594 1.996 . S
Zn589 O597 1.943 . S
O590 Zn589 1.962 . S
O590 C595 1.254 . S
O591 Zn588 2.031 . S
O591 C595 1.269 . S
O592 Zn589 1.986 . S
O592 C599 1.262 . S
O593 Zn588 2.049 . S
O593 C601 1.260 . S
O594 Zn589 1.996 . S
O594 C601 1.257 . S
C595 O590 1.254 . S
C595 O591 1.269 . S
C596 O597 1.249 . S
C596 O598 1.270 . S
O597 Zn589 1.943 . S
O597 C596 1.249 . S
O598 Zn588 2.067 . S
O598 C596 1.270 . S
C599 O592 1.262 . S
C599 O600 1.232 . S
O600 C599 1.232 . S
C601 O593 1.260 . S
C601 O594 1.257 . S
Zn602 O605 2.031 . S
Zn602 O607 2.049 . S
Zn602 O612 2.067 . S
Zn603 O604 1.962 . S
Zn603 O606 1.986 . S
Zn603 O608 1.996 . S
Zn603 O611 1.943 . S
O604 Zn603 1.962 . S
O604 C609 1.254 . S
O605 Zn602 2.031 . S
O605 C609 1.269 . S
O606 Zn603 1.986 . S
O606 C613 1.262 . S
O607 Zn602 2.049 . S
O607 C615 1.260 . S
O608 Zn603 1.996 . S
O608 C615 1.257 . S
C609 O604 1.254 . S
C609 O605 1.269 . S
C610 O611 1.249 . S
C610 O612 1.270 . S
O611 Zn603 1.943 . S
O611 C610 1.249 . S
O612 Zn602 2.067 . S
O612 C610 1.270 . S
C613 O606 1.262 . S
C613 O614 1.232 . S
O614 C613 1.232 . S
C615 O607 1.260 . S
C615 O608 1.257 . S
Zn616 O619 2.031 . S
Zn616 O621 2.049 . S
Zn616 O626 2.067 . S
Zn617 O618 1.962 . S
Zn617 O620 1.986 . S
Zn617 O622 1.996 . S
Zn617 O625 1.943 . S
O618 Zn617 1.962 . S
O618 C623 1.254 . S
O619 Zn616 2.031 . S
O619 C623 1.269 . S
O620 Zn617 1.986 . S
O620 C627 1.262 . S
O621 Zn616 2.049 . S
O621 C629 1.260 . S
O622 Zn617 1.996 . S
O622 C629 1.257 . S
C623 O618 1.254 . S
C623 O619 1.269 . S
C624 O625 1.249 . S
C624 O626 1.270 . S
O625 Zn617 1.943 . S
O625 C624 1.249 . S
O626 Zn616 2.067 . S
O626 C624 1.270 . S
C627 O620 1.262 . S
C627 O628 1.232 . S
O628 C627 1.232 . S
C629 O621 1.260 . S
C629 O622 1.257 . S
Zn630 O633 2.031 . S
Zn630 O635 2.049 . S
Zn630 O640 2.067 . S
Zn631 O632 1.962 . S
Zn631 O634 1.986 . S
Zn631 O636 1.996 . S
Zn631 O639 1.943 . S
O632 Zn631 1.962 . S
O632 C637 1.254 . S
O633 Zn630 2.031 . S
O633 C637 1.269 . S
O634 Zn631 1.986 . S
O634 C641 1.262 . S
O635 Zn630 2.049 . S
O635 C643 1.260 . S
O636 Zn631 1.996 . S
O636 C643 1.257 . S
C637 O632 1.254 . S
C637 O633 1.269 . S
C638 O639 1.249 . S
C638 O640 1.270 . S
O639 Zn631 1.943 . S
O639 C638 1.249 . S
O640 Zn630 2.067 . S
O640 C638 1.270 . S
C641 O634 1.262 . S
C641 O642 1.232 . S
O642 C641 1.232 . S
C643 O635 1.260 . S
C643 O636 1.257 . S
Zn644 O647 2.031 . S
Zn644 O649 2.049 . S
Zn644 O654 2.067 . S
Zn645 O646 1.962 . S
Zn645 O648 1.986 . S
Zn645 O650 1.996 . S
Zn645 O653 1.943 . S
O646 Zn645 1.962 . S
O646 C651 1.254 . S
O647 Zn644 2.031 . S
O647 C651 1.269 . S
O648 Zn645 1.986 . S
O648 C655 1.262 . S
O649 Zn644 2.049 . S
O649 C657 1.260 . S
O650 Zn645 1.996 . S
O650 C657 1.257 . S
C651 O646 1.254 . S
C651 O647 1.269 . S
C652 O653 1.249 . S
C652 O654 1.270 . S
O653 Zn645 1.943 . S
O653 C652 1.249 . S
O654 Zn644 2.067 . S
O654 C652 1.270 . S
C655 O648 1.262 . S
C655 O656 1.232 . S
O656 C655 1.232 . S
C657 O649 1.260 . S
C657 O650 1.257 . S
Zn658 O661 2.031 . S
Zn658 O663 2.049 . S
Zn658 O668 2.067 . S
Zn659 O660 1.962 . S
Zn659 O662 1.986 . S
Zn659 O664 1.996 . S
Zn659 O667 1.943 . S
O660 Zn659 1.962 . S
O660 C665 1.254 . S
O661 Zn658 2.031 . S
O661 C665 1.269 . S
O662 Zn659 1.986 . S
O662 C669 1.262 . S
O663 Zn658 2.049 . S
O663 C671 1.260 . S
O664 Zn659 1.996 . S
O664 C671 1.257 . S
C665 O660 1.254 . S
C665 O661 1.269 . S
C666 O667 1.249 . S
C666 O668 1.270 . S
O667 Zn659 1.943 . S
O667 C666 1.249 . S
O668 Zn658 2.067 . S
O668 C666 1.270 . S
C669 O662 1.262 . S
C669 O670 1.232 . S
O670 C669 1.232 . S
C671 O663 1.260 . S
C671 O664 1.257 . S
Zn672 O675 2.031 . S
Zn672 O677 2.049 . S
Zn672 O682 2.067 . S
Zn673 O674 1.962 . S
Zn673 O676 1.986 . S
Zn673 O678 1.996 . S
Zn673 O681 1.943 . S
O674 Zn673 1.962 . S
O674 C679 1.254 . S
O675 Zn672 2.031 . S
O675 C679 1.269 . S
O676 Zn673 1.986 . S
O676 C683 1.262 . S
O677 Zn672 2.049 . S
O677 C685 1.260 . S
O678 Zn673 1.996 . S
O678 C685 1.257 . S
C679 O674 1.254 . S
C679 O675 1.269 . S
C680 O681 1.249 . S
C680 O682 1.270 . S
O681 Zn673 1.943 . S
O681 C680 1.249 . S
O682 Zn672 2.067 . S
O682 C680 1.270 . S
C683 O676 1.262 . S
C683 O684 1.232 . S
O684 C683 1.232 . S
C685 O677 1.260 . S
C685 O678 1.257 . S
Zn686 O689 2.031 . S
Zn686 O691 2.049 . S
Zn686 O696 2.067 . S
Zn687 O688 1.962 . S
Zn687 O690 1.986 . S
Zn687 O692 1.996 . S
Zn687 O695 1.943 . S
O688 Zn687 1.962 . S
O688 C693 1.254 . S
O689 Zn686 2.031 . S
O689 C693 1.269 . S
O690 Zn687 1.986 . S
O690 C697 1.262 . S
O691 Zn686 2.049 . S
O691 C699 1.260 . S
O692 Zn687 1.996 . S
O692 C699 1.257 . S
C693 O688 1.254 . S
C693 O689 1.269 . S
C694 O695 1.249 . S
C694 O696 1.270 . S
O695 Zn687 1.943 . S
O695 C694 1.249 . S
O696 Zn686 2.067 . S
O696 C694 1.270 . S
C697 O690 1.262 . S
C697 O698 1.232 . S
O698 C697 1.232 . S
C699 O691 1.260 . S
C699 O692 1.257 . S
Zn700 O703 2.031 . S
Zn700 O705 2.049 . S
Zn700 O710 2.067 . S
Zn701 O702 1.962 . S
Zn701 O704 1.986 . S
Zn701 O706 1.996 . S
Zn701 O709 1.943 . S
O702 Zn701 1.962 . S
O702 C707 1.254 . S
O703 Zn700 2.031 . S
O703 C707 1.269 . S
O704 Zn701 1.986 . S
O704 C711 1.262 . S
O705 Zn700 2.049 . S
O705 C713 1.260 . S
O706 Zn701 1.996 . S
O706 C713 1.257 . S
C707 O702 1.254 . S
C707 O703 1.269 . S
C708 O709 1.249 . S
C708 O710 1.270 . S
O709 Zn701 1.943 . S
O709 C708 1.249 . S
O710 Zn700 2.067 . S
O710 C708 1.270 . S
C711 O704 1.262 . S
C711 O712 1.232 . S
O712 C711 1.232 . S
C713 O705 1.260 . S
C713 O706 1.257 . S
Zn714 O717 2.031 . S
Zn714 O719 2.049 . S
Zn714 O724 2.067 . S
Zn715 O716 1.962 . S
Zn715 O718 1.986 . S
Zn715 O720 1.996 . S
Zn715 O723 1.943 . S
O716 Zn715 1.962 . S
O716 C721 1.254 . S
O717 Zn714 2.031 . S
O717 C721 1.269 . S
O718 Zn715 1.986 . S
O718 C725 1.262 . S
O719 Zn714 2.049 . S
O719 C727 1.260 . S
O720 Zn715 1.996 . S
O720 C727 1.257 . S
C721 O716 1.254 . S
C721 O717 1.269 . S
C722 O723 1.249 . S
C722 O724 1.270 . S
O723 Zn715 1.943 . S
O723 C722 1.249 . S
O724 Zn714 2.067 . S
O724 C722 1.270 . S
C725 O718 1.262 . S
C725 O726 1.232 . S
O726 C725 1.232 . S
C727 O719 1.260 . S
C727 O720 1.257 . S
Zn728 O731 2.031 . S
Zn728 O733 2.049 . S
Zn728 O738 2.067 . S
Zn729 O730 1.962 . S
Zn729 O732 1.986 . S
Zn729 O734 1.996 . S
Zn729 O737 1.943 . S
O730 Zn729 1.962 . S
O730 C735 1.254 . S
O731 Zn728 2.031 . S
O731 C735 1.269 . S
O732 Zn729 1.986 . S
O732 C739 1.262 . S
O733 Zn728 2.049 . S
O733 C741 1.260 . S
O734 Zn729 1.996 . S
O734 C741 1.257 . S
C735 O730 1.254 . S
C735 O731 1.269 . S
C736 O737 1.249 . S
C736 O738 1.270 . S
O737 Zn729 1.943 . S
O737 C736 1.249 . S
O738 Zn728 2.067 . S
O738 C736 1.270 . S
C739 O732 1.262 . S
C739 O740 1.232 . S
O740 C739 1.232 . S
C741 O733 1.260 . S
C741 O734 1.257 . S
Zn742 O745 2.031 . S
Zn742 O747 2.049 . S
Zn742 O752 2.067 . S
Zn743 O744 1.962 . S
Zn743 O746 1.986 . S
Zn743 O748 1.996 . S
Zn743 O751 1.943 . S
O744 Zn743 1.962 . S
O744 C749 1.254 . S
O745 Zn742 2.031 . S
O745 C749 1.269 . S
O746 Zn743 1.986 . S
O746 C753 1.262 . S
O747 Zn742 2.049 . S
O747 C755 1.260 . S
O748 Zn743 1.996 . S
O748 C755 1.257 . S
C749 O744 1.254 . S
C749 O745 1.269 . S
C750 O751 1.249 . S
C750 O752 1.270 . S
O751 Zn743 1.943 . S
O751 C750 1.249 . S
O752 Zn742 2.067 . S
O752 C750 1.270 . S
C753 O746 1.262 . S
C753 O754 1.232 . S
O754 C753 1.232 . S
C755 O747 1.260 . S
C755 O748 1.257 . S
Zn756 O759 2.031 . S
Zn756 O761 2.049 . S
Zn756 O766 2.067 . S
Zn757 O758 1.962 . S
Zn757 O760 1.986 . S
Zn757 O762 1.996 . S
Zn757 O765 1.943 . S
O758 Zn757 1.962 . S
O758 C763 1.254 . S
O759 Zn756 2.031 . S
O759 C763 1.269 . S
O760 Zn757 1.986 . S
O760 C767 1.262 . S
O761 Zn756 2.049 . S
O761 C769 1.260 . S
O762 Zn757 1.996 . S
O762 C769 1.257 . S
C763 O758 1.254 . S
C763 O759 1.269 . S
C764 O765 1.249 . S
C764 O766 1.270 . S
O765 Zn757 1.943 . S
O765 C764 1.249 . S
O766 Zn756 2.067 . S
O766 C764 1.270 . S
C767 O760 1.262 . S
C767 O768 1.232 . S
O768 C767 1.232 . S
C769 O761 1.260 . S
C769 O762 1.257 . S
Zn770 O773 2.031 . S
Zn770 O775 2.049 . S
Zn770 O780 2.067 . S
Zn771 O772 1.962 . S
Zn771 O774 1.986 . S
Zn771 O776 1.996 . S
Zn771 O779 1.943 . S
O772 Zn771 1.962 . S
O772 C777 1.254 . S
O773 Zn770 2.031 . S
O773 C777 1.269 . S
O774 Zn771 1.986 . S
O774 C781 1.262 . S
O775 Zn770 2.049 . S
O775 C783 1.260 . S
O776 Zn771 1.996 . S
O776 C783 1.257 . S
C777 O772 1.254 . S
C777 O773 1.269 . S
C778 O779 1.249 . S
C778 O780 1.270 . S
O779 Zn771 1.943 . S
O779 C778 1.249 . S
O780 Zn770 2.067 . S
O780 C778 1.270 . S
C781 O774 1.262 . S
C781 O782 1.232 . S
O782 C781 1.232 . S
C783 O775 1.260 . S
C783 O776 1.257 . S
Zn784 O787 2.031 . S
Zn784 O789 2.049 . S
Zn784 O794 2.067 . S
Zn785 O786 1.962 . S
Zn785 O788 1.986 . S
Zn785 O790 1.996 . S
Zn785 O793 1.943 . S
O786 Zn785 1.962 . S
O786 C791 1.254 . S
O787 Zn784 2.031 . S
O787 C791 1.269 . S
O788 Zn785 1.986 . S
O788 C795 1.262 . S
O789 Zn784 2.049 . S
O789 C797 1.260 . S
O790 Zn785 1.996 . S
O790 C797 1.257 . S
C791 O786 1.254 . S
C791 O787 1.269 . S
C792 O793 1.249 . S
C792 O794 1.270 . S
O793 Zn785 1.943 . S
O793 C792 1.249 . S
O794 Zn784 2.067 . S
O794 C792 1.270 . S
C795 O788 1.262 . S
C795 O796 1.232 . S
O796 C795 1.232 . S
C797 O789 1.260 . S
C797 O790 1.257 . S
Zn798 O801 2.031 . S
Zn798 O803 2.049 . S
Zn798 O808 2.067 . S
Zn799 O800 1.962 . S
Zn799 O802 1.986 . S
Zn799 O804 1.996 . S
Zn799 O807 1.943 . S
O800 Zn799 1.962 . S
O800 C805 1.254 . S
O801 Zn798 2.031 . S
O801 C805 1.269 . S
O802 Zn799 1.986 . S
O802 C809 1.262 . S
O803 Zn798 2.049 . S
O803 C811 1.260 . S
O804 Zn799 1.996 . S
O804 C811 1.257 . S
C805 O800 1.254 . S
C805 O801 1.269 . S
C806 O807 1.249 . S
C806 O808 1.270 . S
O807 Zn799 1.943 . S
O807 C806 1.249 . S
O808 Zn798 2.067 . S
O808 C806 1.270 . S
C809 O802 1.262 . S
C809 O810 1.232 . S
O810 C809 1.232 . S
C811 O803 1.260 . S
C811 O804 1.257 . S
Zn812 O815 2.031 . S
Zn812 O817 2.049 . S
Zn812 O822 2.067 . S
Zn813 O814 1.962 . S
Zn813 O816 1.986 . S
Zn813 O818 1.996 . S
Zn813 O821 1.943 . S
O814 Zn813 1.962 . S
O814 C819 1.254 . S
O815 Zn812 2.031 . S
O815 C819 1.269 . S
O816 Zn813 1.986 . S
O816 C823 1.262 . S
O817 Zn812 2.049 . S
O817 C825 1.260 . S
O818 Zn813 1.996 . S
O818 C825 1.257 . S
C819 O814 1.254 . S
C819 O815 1.269 . S
C820 O821 1.249 . S
C820 O822 1.270 . S
O821 Zn813 1.943 . S
O821 C820 1.249 . S
O822 Zn812 2.067 . S
O822 C820 1.270 . S
C823 O816 1.262 . S
C823 O824 1.232 . S
O824 C823 1.232 . S
C825 O817 1.260 . S
C825 O818 1.257 . S
Zn826 O829 2.031 . S
Zn826 O831 2.049 . S
Zn826 O836 2.067 . S
Zn827 O828 1.962 . S
Zn827 O830 1.986 . S
Zn827 O832 1.996 . S
Zn827 O835 1.943 . S
O828 Zn827 1.962 . S
O828 C833 1.254 . S
O829 Zn826 2.031 . S
O829 C833 1.269 . S
O830 Zn827 1.986 . S
O830 C837 1.262 . S
O831 Zn826 2.049 . S
O831 C839 1.260 . S
O832 Zn827 1.996 . S
O832 C839 1.257 . S
C833 O828 1.254 . S
C833 O829 1.269 . S
C834 O835 1.249 . S
C834 O836 1.270 . S
O835 Zn827 1.943 . S
O835 C834 1.249 . S
O836 Zn826 2.067 . S
O836 C834 1.270 . S
C837 O830 1.262 . S
C837 O838 1.232 . S
O838 C837 1.232 . S
C839 O831 1.260 . S
C839 O832 1.257 . S
Zn840 O843 2.031 . S
Zn840 O845 2.049 . S
Zn840 O850 2.067 . S
Zn841 O842 1.962 . S
Zn841 O844 1.986 . S
Zn841 O846 1.996 . S
Zn841 O849 1.943 . S
O842 Zn841 1.962 . S
O842 C847 1.254 . S
O843 Zn840 2.031 . S
O843 C847 1.269 . S
O844 Zn841 1.986 . S
O844 C851 1.262 . S
O845 Zn840 2.049 . S
O845 C853 1.260 . S
O846 Zn841 1.996 . S
O846 C853 1.257 . S
C847 O842 1.254 . S
C847 O843 1.269 . S
C848 O849 1.249 . S
C848 O850 1.270 . S
O849 Zn841 1.943 . S
O849 C848 1.249 . S
O850 Zn840 2.067 . S
O850 C848 1.270 . S
C851 O844 1.262 . S
C851 O852 1.232 . S
O852 C851 1.232 . S
C853 O845 1.260 . S
C853 O846 1.257 . S
Zn854 O857 2.031 . S
Zn854 O859 2.049 . S
Zn854 O864 2.067 . S
Zn855 O856 1.962 . S
Zn855 O858 1.986 . S
Zn855 O860 1.996 . S
Zn855 O863 1.943 . S
O856 Zn855 1.962 . S
O856 C861 1.254 . S
O857 Zn854 2.031 . S
O857 C861 1.269 . S
O858 Zn855 1.986 . S
O858 C865 1.262 . S
O859 Zn854 2.049 . S
O859 C867 1.260 . S
O860 Zn855 1.996 . S
O860 C867 1.257 . S
C861 O856 1.254 . S
C861 O857 1.269 . S
C862 O863 1.249 . S
C862 O864 1.270 . S
O863 Zn855 1.943 . S
O863 C862 1.249 . S
O864 Zn854 2.067 . S
O864 C862 1.270 . S
C865 O858 1.262 . S
C865 O866 1.232 . S
O866 C865 1.232 . S
C867 O859 1.260 . S
C867 O860 1.257 . S
Zn868 O871 2.031 . S
Zn868 O873 2.049 . S
Zn868 O878 2.067 . S
Zn869 O870 1.962 . S
Zn869 O872 1.986 . S
Zn869 O874 1.996 . S
Zn869 O877 1.943 . S
O870 Zn869 1.962 . S
O870 C875 1.254 . S
O871 Zn868 2.031 . S
O871 C875 1.269 . S
O872 Zn869 1.986 . S
O872 C879 1.262 . S
O873 Zn868 2.049 . S
O873 C881 1.260 . S
O874 Zn869 1.996 . S
O874 C881 1.257 . S
C875 O870 1.254 . S
C875 O871 1.269 . S
C876 O877 1.249 . S
C876 O878 1.270 . S
O877 Zn869 1.943 . S
O877 C876 1.249 . S
O878 Zn868 2.067 . S
O878 C876 1.270 . S
C879 O872 1.262 . S
C879 O880 1.232 . S
O880 C879 1.232 . S
C881 O873 1.260 . S
C881 O874 1.257 . S
Zn882 O885 2.031 . S
Zn882 O887 2.049 . S
Zn882 O892 2.067 . S
Zn883 O884 1.962 . S
Zn883 O886 1.986 . S
Zn883 O888 1.996 . S
Zn883 O891 1.943 . S
O884 Zn883 1.962 . S
O884 C889 1.254 . S
O885 Zn882 2.031 . S
O885 C889 1.269 . S
O886 Zn883 1.986 . S
O886 C893 1.262 . S
O887 Zn882 2.049 . S
O887 C895 1.260 . S
O888 Zn883 1.996 . S
O888 C895 1.257 . S
C889 O884 1.254 . S
C889 O885 1.269 . S
C890 O891 1.249 . S
C890 O892 1.270 . S
O891 Zn883 1.943 . S
O891 C890 1.249 . S
O892 Zn882 2.067 . S
O892 C890 1.270 . S
C893 O886 1.262 . S
C893 O894 1.232 . S
O894 C893 1.232 . S
C895 O887 1.260 . S
C895 O888 1.257 . S
Zn896 O899 2.031 . S
Zn896 O901 2.049 . S
Zn896 O906 2.067 . S
Zn897 O898 1.962 . S
Zn897 O900 1.986 . S
Zn897 O902 1.996 . S
Zn897 O905 1.943 . S
O898 Zn897 1.962 . S
O898 C903 1.254 . S
O899 Zn896 2.031 . S
O899 C903 1.269 . S
O900 Zn897 1.986 . S
O900 C907 1.262 . S
O901 Zn896 2.049 . S
O901 C909 1.260 . S
O902 Zn897 1.996 . S
O902 C909 1.257 . S
C903 O898 1.254 . S
C903 O899 1.269 . S
C904 O905 1.249 . S
C904 O906 1.270 . S
O905 Zn897 1.943 . S
O905 C904 1.249 . S
O906 Zn896 2.067 . S
O906 C904 1.270 . S
C907 O900 1.262 . S
C907 O908 1.232 . S
O908 C907 1.232 . S
C909 O901 1.260 . S
C909 O902 1.257 . S
Zn910 O913 2.031 . S
Zn910 O915 2.049 . S
Zn910 O920 2.067 . S
Zn911 O912 1.962 . S
Zn911 O914 1.986 . S
Zn911 O916 1.996 . S
Zn911 O919 1.943 . S
O912 Zn911 1.962 . S
O912 C917 1.254 . S
O913 Zn910 2.031 . S
O913 C917 1.269 . S
O914 Zn911 1.986 . S
O914 C921 1.262 . S
O915 Zn910 2.049 . S
O915 C923 1.260 . S
O916 Zn911 1.996 . S
O916 C923 1.257 . S
C917 O912 1.254 . S
C917 O913 1.269 . S
C918 O919 1.249 . S
C918 O920 1.270 . S
O919 Zn911 1.943 . S
O919 C918 1.249 . S
O920 Zn910 2.067 . S
O920 C918 1.270 . S
C921 O914 1.262 . S
C921 O922 1.232 . S
O922 C921 1.232 . S
C923 O915 1.260 . S
C923 O916 1.257 . S
Zn924 O927 2.031 . S
Zn924 O929 2.049 . S
Zn924 O934 2.067 . S
Zn925 O926 1.962 . S
Zn925 O928 1.986 . S
Zn925 O930 1.996 . S
Zn925 O933 1.943 . S
O926 Zn925 1.962 . S
O926 C931 1.254 . S
O927 Zn924 2.031 . S
O927 C931 1.269 . S
O928 Zn925 1.986 . S
O928 C935 1.262 . S
O929 Zn924 2.049 . S
O929 C937 1.260 . S
O930 Zn925 1.996 . S
O930 C937 1.257 . S
C931 O926 1.254 . S
C931 O927 1.269 . S
C932 O933 1.249 . S
C932 O934 1.270 . S
O933 Zn925 1.943 . S
O933 C932 1.249 . S
O934 Zn924 2.067 . S
O934 C932 1.270 . S
C935 O928 1.262 . S
C935 O936 1.232 . S
O936 C935 1.232 . S
C937 O929 1.260 . S
C937 O930 1.257 . S
Zn938 O941 2.031 . S
Zn938 O943 2.049 . S
Zn938 O948 2.067 . S
Zn939 O940 1.962 . S
Zn939 O942 1.986 . S
Zn939 O944 1.996 . S
Zn939 O947 1.943 . S
O940 Zn939 1.962 . S
O940 C945 1.254 . S
O941 Zn938 2.031 . S
O941 C945 1.269 . S
O942 Zn939 1.986 . S
O942 C949 1.262 . S
O943 Zn938 2.049 . S
O943 C951 1.260 . S
O944 Zn939 1.996 . S
O944 C951 1.257 . S
C945 O940 1.254 . S
C945 O941 1.269 . S
C946 O947 1.249 . S
C946 O948 1.270 . S
O947 Zn939 1.943 . S
O947 C946 1.249 . S
O948 Zn938 2.067 . S
O948 C946 1.270 . S
C949 O942 1.262 . S
C949 O950 1.232 . S
O950 C949 1.232 . S
C951 O943 1.260 . S
C951 O944 1.257 . S
Zn952 O955 2.031 . S
Zn952 O957 2.049 . S
Zn952 O962 2.067 . S
Zn953 O954 1.962 . S
Zn953 O956 1.986 . S
Zn953 O958 1.996 . S
Zn953 O961 1.943 . S
O954 Zn953 1.962 . S
O954 C959 1.254 . S
O955 Zn952 2.031 . S
O955 C959 1.269 . S
O956 Zn953 1.986 . S
O956 C963 1.262 . S
O957 Zn952 2.049 . S
O957 C965 1.260 . S
O958 Zn953 1.996 . S
O958 C965 1.257 . S
C959 O954 1.254 . S
C959 O955 1.269 . S
C960 O961 1.249 . S
C960 O962 1.270 . S
O961 Zn953 1.943 . S
O961 C960 1.249 . S
O962 Zn952 2.067 . S
O962 C960 1.270 . S
C963 O956 1.262 . S
C963 O964 1.232 . S
O964 C963 1.232 . S
C965 O957 1.260 . S
C965 O958 1.257 . S
Zn966 O969 2.031 . S
Zn966 O971 2.049 . S
Zn966 O976 2.067 . S
Zn967 O968 1.962 . S
Zn967 O970 1.986 . S
Zn967 O972 1.996 . S
Zn967 O975 1.943 . S
O968 Zn967 1.962 . S
O968 C973 1.254 . S
O969 Zn966 2.031 . S
O969 C973 1.269 . S
O970 Zn967 1.986 . S
O970 C977 1.262 . S
O971 Zn966 2.049 . S
O971 C979 1.260 . S
O972 Zn967 1.996 . S
O972 C979 1.257 . S
C973 O968 1.254 . S
C973 O969 1.269 . S
C974 O975 1.249 . S
C974 O976 1.270 . S
O975 Zn967 1.943 . S
O975 C974 1.249 . S
O976 Zn966 2.067 . S
O976 C974 1.270 . S
C977 O970 1.262 . S
C977 O978 1.232 . S
O978 C977 1.232 . S
C979 O971 1.260 . S
C979 O972 1.257 . S
Zn980 O983 2.031 . S
Zn980 O985 2.049 . S
Zn980 O990 2.067 . S
Zn981 O982 1.962 . S
Zn981 O984 1.986 . S
Zn981 O986 1.996 . S
Zn981 O989 1.943 . S
O982 Zn981 1.962 . S
O982 C987 1.254 . S
O983 Zn980 2.031 . S
O983 C987 1.269 . S
O984 Zn981 1.986 . S
O984 C991 1.262 . S
O985 Zn980 2.049 . S
O985 C993 1.260 . S
O986 Zn981 1.996 . S
O986 C993 1.257 . S
C987 O982 1.254 . S
C987 O983 1.269 . S
C988 O989 1.249 . S
C988 O990 1.270 . S
O989 Zn981 1.943 . S
O989 C988 1.249 . S
O990 Zn980 2.067 . S
O990 C988 1.270 . S
C991 O984 1.262 . S
C991 O992 1.232 . S
O992 C991 1.232 . S
C993 O985 1.260 . S
C993 O986 1.257 . S
Zn994 O997 2.031 . S
Zn994 O999 2.049 . S
Zn994 O1004 2.067 . S
Zn995 O996 1.962 . S
Zn995 O998 1.986 . S
Zn995 O1000 1.996 . S
Zn995 O1003 1.943 . S
O996 Zn995 1.962 . S
O996 C1001 1.254 . S
O997 Zn994 2.031 . S
O997 C1001 1.269 . S
O998 Zn995 1.986 . S
O998 C1005 1.262 . S
O999 Zn994 2.049 . S
O999 C1007 1.260 . S
O1000 Zn995 1.996 . S
O1000 C1007 1.257 . S
C1001 O996 1.254 . S
C1001 O997 1.269 . S
C1002 O1003 1.249 . S
C1002 O1004 1.270 . S
O1003 Zn995 1.943 . S
O1003 C1002 1.249 . S
O1004 Zn994 2.067 . S
O1004 C1002 1.270 . S
C1005 O998 1.262 . S
C1005 O1006 1.232 . S
O1006 C1005 1.232 . S
C1007 O999 1.260 . S
C1007 O1000 1.257 . S
Zn1008 O1011 2.031 . S
Zn1008 O1013 2.049 . S
Zn1008 O1018 2.067 . S
Zn1009 O1010 1.962 . S
Zn1009 O1012 1.986 . S
Zn1009 O1014 1.996 . S
Zn1009 O1017 1.943 . S
O1010 Zn1009 1.962 . S
O1010 C1015 1.254 . S
O1011 Zn1008 2.031 . S
O1011 C1015 1.269 . S
O1012 Zn1009 1.986 . S
O1012 C1019 1.262 . S
O1013 Zn1008 2.049 . S
O1013 C1021 1.260 . S
O1014 Zn1009 1.996 . S
O1014 C1021 1.257 . S
C1015 O1010 1.254 . S
C1015 O1011 1.269 . S
C1016 O1017 1.249 . S
C1016 O1018 1.270 . S
O1017 Zn1009 1.943 . S
O1017 C1016 1.249 . S
O1018 Zn1008 2.067 . S
O1018 C1016 1.270 . S
C1019 O1012 1.262 . S
C1019 O1020 1.232 . S
O1020 C1019 1.232 . S
C1021 O1013 1.260 . S
C1021 O1014 1.257 . S
Zn1022 O1025 2.031 . S
Zn1022 O1027 2.049 . S
Zn1022 O1032 2.067 . S
Zn1023 O1024 1.962 . S
Zn1023 O1026 1.986 . S
Zn1023 O1028 1.996 . S
Zn1023 O1031 1.943 . S
O1024 Zn1023 1.962 . S
O1024 C1029 1.254 . S
O1025 Zn1022 2.031 . S
O1025 C1029 1.269 . S
O1026 Zn1023 1.986 . S
O1026 C1033 1.262 . S
O1027 Zn1022 2.049 . S
O1027 C1035 1.260 . S
O1028 Zn1023 1.996 . S
O1028 C1035 1.257 . S
C1029 O1024 1.254 . S
C1029 O1025 1.269 . S
C1030 O1031 1.249 . S
C1030 O1032 1.270 . S
O1031 Zn1023 1.943 . S
O1031 C1030 1.249 . S
O1032 Zn1022 2.067 . S
O1032 C1030 1.270 . S
C1033 O1026 1.262 . S
C1033 O1034 1.232 . S
O1034 C1033 1.232 . S
C1035 O1027 1.260 . S
C1035 O1028 1.257 . S
Zn1036 O1039 2.031 . S
Zn1036 O1041 2.049 . S
Zn1036 O1046 2.067 . S
Zn1037 O1038 1.962 . S
Zn1037 O1040 1.986 . S
Zn1037 O1042 1.996 . S
Zn1037 O1045 1.943 . S
O1038 Zn1037 1.962 . S
O1038 C1043 1.254 . S
O1039 Zn1036 2.031 . S
O1039 C1043 1.269 . S
O1040 Zn1037 1.986 . S
O1040 C1047 1.262 . S
O1041 Zn1036 2.049 . S
O1041 C1049 1.260 . S
O1042 Zn1037 1.996 . S
O1042 C1049 1.257 . S
C1043 O1038 1.254 . S
C1043 O1039 1.269 . S
C1044 O1045 1.249 . S
C1044 O1046 1.270 . S
O1045 Zn1037 1.943 . S
O1045 C1044 1.249 . S
O1046 Zn1036 2.067 . S
O1046 C1044 1.270 . S
C1047 O1040 1.262 . S
C1047 O1048 1.232 . S
O1048 C1047 1.232 . S
C1049 O1041 1.260 . S
C1049 O1042 1.257 . S
Zn1050 O1053 2.031 . S
Zn1050 O1055 2.049 . S
Zn1050 O1060 2.067 . S
Zn1051 O1052 1.962 . S
Zn1051 O1054 1.986 . S
Zn1051 O1056 1.996 . S
Zn1051 O1059 1.943 . S
O1052 Zn1051 1.962 . S
O1052 C1057 1.254 . S
O1053 Zn1050 2.031 . S
O1053 C1057 1.269 . S
O1054 Zn1051 1.986 . S
O1054 C1061 1.262 . S
O1055 Zn1050 2.049 . S
O1055 C1063 1.260 . S
O1056 Zn1051 1.996 . S
O1056 C1063 1.257 . S
C1057 O1052 1.254 . S
C1057 O1053 1.269 . S
C1058 O1059 1.249 . S
C1058 O1060 1.270 . S
O1059 Zn1051 1.943 . S
O1059 C1058 1.249 . S
O1060 Zn1050 2.067 . S
O1060 C1058 1.270 . S
C1061 O1054 1.262 . S
C1061 O1062 1.232 . S
O1062 C1061 1.232 . S
C1063 O1055 1.260 . S
C1063 O1056 1.257 . S
Zn1064 O1067 2.031 . S
Zn1064 O1069 2.049 . S
Zn1064 O1074 2.067 . S
Zn1065 O1066 1.962 . S
Zn1065 O1068 1.986 . S
Zn1065 O1070 1.996 . S
Zn1065 O1073 1.943 . S
O1066 Zn1065 1.962 . S
O1066 C1071 1.254 . S
O1067 Zn1064 2.031 . S
O1067 C1071 1.269 . S
O1068 Zn1065 1.986 . S
O1068 C1075 1.262 . S
O1069 Zn1064 2.049 . S
O1069 C1077 1.260 . S
O1070 Zn1065 1.996 . S
O1070 C1077 1.257 . S
C1071 O1066 1.254 . S
C1071 O1067 1.269 . S
C1072 O1073 1.249 . S
C1072 O1074 1.270 . S
O1073 Zn1065 1.943 . S
O1073 C1072 1.249 . S
O1074 Zn1064 2.067 . S
O1074 C1072 1.270 . S
C1075 O1068 1.262 . S
C1075 O1076 1.232 . S
O1076 C1075 1.232 . S
C1077 O1069 1.260 . S
C1077 O1070 1.257 . S
Zn1078 O1081 2.031 . S
Zn1078 O1083 2.049 . S
Zn1078 O1088 2.067 . S
Zn1079 O1080 1.962 . S
Zn1079 O1082 1.986 . S
Zn1079 O1084 1.996 . S
Zn1079 O1087 1.943 . S
O1080 Zn1079 1.962 . S
O1080 C1085 1.254 . S
O1081 Zn1078 2.031 . S
O1081 C1085 1.269 . S
O1082 Zn1079 1.986 . S
O1082 C1089 1.262 . S
O1083 Zn1078 2.049 . S
O1083 C1091 1.260 . S
O1084 Zn1079 1.996 . S
O1084 C1091 1.257 . S
C1085 O1080 1.254 . S
C1085 O1081 1.269 . S
C1086 O1087 1.249 . S
C1086 O1088 1.270 . S
O1087 Zn1079 1.943 . S
O1087 C1086 1.249 . S
O1088 Zn1078 2.067 . S
O1088 C1086 1.270 . S
C1089 O1082 1.262 . S
C1089 O1090 1.232 . S
O1090 C1089 1.232 . S
C1091 O1083 1.260 . S
C1091 O1084 1.257 . S
Zn1092 O1095 2.031 . S
Zn1092 O1097 2.049 . S
Zn1092 O1102 2.067 . S
Zn1093 O1094 1.962 . S
Zn1093 O1096 1.986 . S
Zn1093 O1098 1.996 . S
Zn1093 O1101 1.943 . S
O1094 Zn1093 1.962 . S
O1094 C1099 1.254 . S
O1095 Zn1092 2.031 . S
O1095 C1099 1.269 . S
O1096 Zn1093 1.986 . S
O1096 C1103 1.262 . S
O1097 Zn1092 2.049 . S
O1097 C1105 1.260 . S
O1098 Zn1093 1.996 . S
O1098 C1105 1.257 . S
C1099 O1094 1.254 . S
C1099 O1095 1.269 . S
C1100 O1101 1.249 . S
C1100 O1102 1.270 . S
O1101 Zn1093 1.943 . S
O1101 C1100 1.249 . S
O1102 Zn1092 2.067 . S
O1102 C1100 1.270 . S
C1103 O1096 1.262 . S
C1103 O1104 1.232 . S
O1104 C1103 1.232 . S
C1105 O1097 1.260 . S
C1105 O1098 1.257 . S
Zn1106 O1109 2.031 . S
Zn1106 O1111 2.049 . S
Zn1106 O1116 2.067 . S
Zn1107 O1108 1.962 . S
Zn1107 O1110 1.986 . S
Zn1107 O1112 1.996 . S
Zn1107 O1115 1.943 . S
O1108 Zn1107 1.962 . S
O1108 C1113 1.254 . S
O1109 Zn1106 2.031 . S
O1109 C1113 1.269 . S
O1110 Zn1107 1.986 . S
O1110 C1117 1.262 . S
O1111 Zn1106 2.049 . S
O1111 C1119 1.260 . S
O1112 Zn1107 1.996 . S
O1112 C1119 1.257 . S
C1113 O1108 1.254 . S
C1113 O1109 1.269 . S
C1114 O1115 1.249 . S
C1114 O1116 1.270 . S
O1115 Zn1107 1.943 . S
O1115 C1114 1.249 . S
O1116 Zn1106 2.067 . S
O1116 C1114 1.270 . S
C1117 O1110 1.262 . S
C1117 O1118 1.232 . S
O1118 C1117 1.232 . S
C1119 O1111 1.260 . S
C1119 O1112 1.257 . S
Zn1120 O1123 2.031 . S
Zn1120 O1125 2.049 . S
Zn1120 O1130 2.067 . S
Zn1121 O1122 1.962 . S
Zn1121 O1124 1.986 . S
Zn1121 O1126 1.996 . S
Zn1121 O1129 1.943 . S
O1122 Zn1121 1.962 . S
O1122 C1127 1.254 . S
O1123 Zn1120 2.031 . S
O1123 C1127 1.269 . S
O1124 Zn1121 1.986 . S
O1124 C1131 1.262 . S
O1125 Zn1120 2.049 . S
O1125 C1133 1.260 . S
O1126 Zn1121 1.996 . S
O1126 C1133 1.257 . S
C1127 O1122 1.254 . S
C1127 O1123 1.269 . S
C1128 O1129 1.249 . S
C1128 O1130 1.270 . S
O1129 Zn1121 1.943 . S
O1129 C1128 1.249 . S
O1130 Zn1120 2.067 . S
O1130 C1128 1.270 . S
C1131 O1124 1.262 . S
C1131 O1132 1.232 . S
O1132 C1131 1.232 . S
C1133 O1125 1.260 . S
C1133 O1126 1.257 . S
Zn1134 O1137 2.031 . S
Zn1134 O1139 2.049 . S
Zn1134 O1144 2.067 . S
Zn1135 O1136 1.962 . S
Zn1135 O1138 1.986 . S
Zn1135 O1140 1.996 . S
Zn1135 O1143 1.943 . S
O1136 Zn1135 1.962 . S
O1136 C1141 1.254 . S
O1137 Zn1134 2.031 . S
O1137 C1141 1.269 . S
O1138 Zn1135 1.986 . S
O1138 C1145 1.262 . S
O1139 Zn1134 2.049 . S
O1139 C1147 1.260 . S
O1140 Zn1135 1.996 . S
O1140 C1147 1.257 . S
C1141 O1136 1.254 . S
C1141 O1137 1.269 . S
C1142 O1143 1.249 . S
C1142 O1144 1.270 . S
O1143 Zn1135 1.943 . S
O1143 C1142 1.249 . S
O1144 Zn1134 2.067 . S
O1144 C1142 1.270 . S
C1145 O1138 1.262 . S
C1145 O1146 1.232 . S
O1146 C1145 1.232 . S
C1147 O1139 1.260 . S
C1147 O1140 1.257 . S
Zn1148 O1151 2.031 . S
Zn1148 O1153 2.049 . S
Zn1148 O1158 2.067 . S
Zn1149 O1150 1.962 . S
Zn1149 O1152 1.986 . S
Zn1149 O1154 1.996 . S
Zn1149 O1157 1.943 . S
O1150 Zn1149 1.962 . S
O1150 C1155 1.254 . S
O1151 Zn1148 2.031 . S
O1151 C1155 1.269 . S
O1152 Zn1149 1.986 . S
O1152 C1159 1.262 . S
O1153 Zn1148 2.049 . S
O1153 C1161 1.260 . S
O1154 Zn1149 1.996 . S
O1154 C1161 1.257 . S
C1155 O1150 1.254 . S
C1155 O1151 1.269 . S
C1156 O1157 1.249 . S
C1156 O1158 1.270 . S
O1157 Zn1149 1.943 . S
O1157 C1156 1.249 . S
O1158 Zn1148 2.067 . S
O1158 C1156 1.270 . S
C1159 O1152 1.262 . S
C1159 O1160 1.232 . S
O1160 C1159 1.232 . S
C1161 O1153 1.260 . S
C1161 O1154 1.257 . S
Zn1162 O1165 2.031 . S
Zn1162 O1167 2.049 . S
Zn1162 O1172 2.067 . S
Zn1163 O1164 1.962 . S
Zn1163 O1166 1.986 . S
Zn1163 O1168 1.996 . S
Zn1163 O1171 1.943 . S
O1164 Zn1163 1.962 . S
O1164 C1169 1.254 . S
O1165 Zn1162 2.031 . S
O1165 C1169 1.269 . S
O1166 Zn1163 1.986 . S
O1166 C1173 1.262 . S
O1167 Zn1162 2.049 . S
O1167 C1175 1.260 . S
O1168 Zn1163 1.996 . S
O1168 C1175 1.257 . S
C1169 O1164 1.254 . S
C1169 O1165 1.269 . S
C1170 O1171 1.249 . S
C1170 O1172 1.270 . S
O1171 Zn1163 1.943 . S
O1171 C1170 1.249 . S
O1172 Zn1162 2.067 . S
O1172 C1170 1.270 . S
C1173 O1166 1.262 . S
C1173 O1174 1.232 . S
O1174 C1173 1.232 . S
C1175 O1167 1.260 . S
C1175 O1168 1.257 . S
Zn1176 O1179 2.031 . S
Zn1176 O1181 2.049 . S
Zn1176 O1186 2.067 . S
Zn1177 O1178 1.962 . S
Zn1177 O1180 1.986 . S
Zn1177 O1182 1.996 . S
Zn1177 O1185 1.943 . S
O1178 Zn1177 1.962 . S
O1178 C1183 1.254 . S
O1179 Zn1176 2.031 . S
O1179 C1183 1.269 . S
O1180 Zn1177 1.986 . S
O1180 C1187 1.262 . S
O1181 Zn1176 2.049 . S
O1181 C1189 1.260 . S
O1182 Zn1177 1.996 . S
O1182 C1189 1.257 . S
C1183 O1178 1.254 . S
C1183 O1179 1.269 . S
C1184 O1185 1.249 . S
C1184 O1186 1.270 . S
O1185 Zn1177 1.943 . S
O1185 C1184 1.249 . S
O1186 Zn1176 2.067 . S
O1186 C1184 1.270 . S
C1187 O1180 1.262 . S
C1187 O1188 1.232 . S
O1188 C1187 1.232 . S
C1189 O1181 1.260 . S
C1189 O1182 1.257 . S
Zn1190 O1193 2.031 . S
Zn1190 O1195 2.049 . S
Zn1190 O1200 2.067 . S
Zn1191 O1192 1.962 . S
Zn1191 O1194 1.986 . S
Zn1191 O1196 1.996 . S
Zn1191 O1199 1.943 . S
O1192 Zn1191 1.962 . S
O1192 C1197 1.254 . S
O1193 Zn1190 2.031 . S
O1193 C1197 1.269 . S
O1194 Zn1191 1.986 . S
O1194 C1201 1.262 . S
O1195 Zn1190 2.049 . S
O1195 C1203 1.260 . S
O1196 Zn1191 1.996 . S
O1196 C1203 1.257 . S
C1197 O1192 1.254 . S
C1197 O1193 1.269 . S
C1198 O1199 1.249 . S
C1198 O1200 1.270 . S
O1199 Zn1191 1.943 . S
O1199 C1198 1.249 . S
O1200 Zn1190 2.067 . S
O1200 C1198 1.270 . S
C1201 O1194 1.262 . S
C1201 O1202 1.232 . S
O1202 C1201 1.232 . S
C1203 O1195 1.260 . S
C1203 O1196 1.257 . S
Zn1204 O1207 2.031 . S
Zn1204 O1209 2.049 . S
Zn1204 O1214 2.067 . S
Zn1205 O1206 1.962 . S
Zn1205 O1208 1.986 . S
Zn1205 O1210 1.996 . S
Zn1205 O1213 1.943 . S
O1206 Zn1205 1.962 . S
O1206 C1211 1.254 . S
O1207 Zn1204 2.031 . S
O1207 C1211 1.269 . S
O1208 Zn1205 1.986 . S
O1208 C1215 1.262 . S
O1209 Zn1204 2.049 . S
O1209 C1217 1.260 . S
O1210 Zn1205 1.996 . S
O1210 C1217 1.257 . S
C1211 O1206 1.254 . S
C1211 O1207 1.269 . S
C1212 O1213 1.249 . S
C1212 O1214 1.270 . S
O1213 Zn1205 1.943 . S
O1213 C1212 1.249 . S
O1214 Zn1204 2.067 . S
O1214 C1212 1.270 . S
C1215 O1208 1.262 . S
C1215 O1216 1.232 . S
O1216 C1215 1.232 . S
C1217 O1209 1.260 . S
C1217 O1210 1.257 . S
Zn1218 O1221 2.031 . S
Zn1218 O1223 2.049 . S
Zn1218 O1228 2.067 . S
Zn1219 O1220 1.962 . S
Zn1219 O1222 1.986 . S
Zn1219 O1224 1.996 . S
Zn1219 O1227 1.943 . S
O1220 Zn1219 1.962 . S
O1220 C1225 1.254 . S
O1221 Zn1218 2.031 . S
O1221 C1225 1.269 . S
O1222 Zn1219 1.986 . S
O1222 C1229 1.262 . S
O1223 Zn1218 2.049 . S
O1223 C1231 1.260 . S
O1224 Zn1219 1.996 . S
O1224 C1231 1.257 . S
C1225 O1220 1.254 . S
C1225 O1221 1.269 . S
C1226 O1227 1.249 . S
C1226 O1228 1.270 . S
O1227 Zn1219 1.943 . S
O1227 C1226 1.249 . S
O1228 Zn1218 2.067 . S
O1228 C1226 1.270 . S
C1229 O1222 1.262 . S
C1229 O1230 1.232 . S
O1230 C1229 1.232 . S
C1231 O1223 1.260 . S
C1231 O1224 1.257 . S
Zn1232 O1235 2.031 . S
Zn1232 O1237 2.049 . S
Zn1232 O1242 2.067 . S
Zn1233 O1234 1.962 . S
Zn1233 O1236 1.986 . S
Zn1233 O1238 1.996 . S
Zn1233 O1241 1.943 . S
O1234 Zn1233 1.962 . S
O1234 C1239 1.254 . S
O1235 Zn1232 2.031 . S
O1235 C1239 1.269 . S
O1236 Zn1233 1.986 . S
O1236 C1243 1.262 . S
O1237 Zn1232 2.049 . S
O1237 C1245 1.260 . S
O1238 Zn1233 1.996 . S
O1238 C1245 1.257 . S
C1239 O1234 1.254 . S
C1239 O1235 1.269 . S
C1240 O1241 1.249 . S
C1240 O1242 1.270 . S
O1241 Zn1233 1.943 . S
O1241 C1240 1.249 . S
O1242 Zn1232 2.067 . S
O1242 C1240 1.270 . S
C1243 O1236 1.262 . S
C1243 O1244 1.232 . S
O1244 C1243 1.232 . S
C1245 O1237 1.260 . S
C1245 O1238 1.257 . S
Zn1246 O1249 2.031 . S
Zn1246 O1251 2.049 . S
Zn1246 O1256 2.067 . S
Zn1247 O1248 1.962 . S
Zn1247 O1250 1.986 . S
Zn1247 O1252 1.996 . S
Zn1247 O1255 1.943 . S
O1248 Zn1247 1.962 . S
O1248 C1253 1.254 . S
O1249 Zn1246 2.031 . S
O1249 C1253 1.269 . S
O1250 Zn1247 1.986 . S
O1250 C1257 1.262 . S
O1251 Zn1246 2.049 . S
O1251 C1259 1.260 . S
O1252 Zn1247 1.996 . S
O1252 C1259 1.257 . S
C1253 O1248 1.254 . S
C1253 O1249 1.269 . S
C1254 O1255 1.249 . S
C1254 O1256 1.270 . S
O1255 Zn1247 1.943 . S
O1255 C1254 1.249 . S
O1256 Zn1246 2.067 . S
O1256 C1254 1.270 . S
C1257 O1250 1.262 . S
C1257 O1258 1.232 . S
O1258 C1257 1.232 . S
C1259 O1251 1.260 . S
C1259 O1252 1.257 . S
Zn1260 O1263 2.031 . S
Zn1260 O1265 2.049 . S
Zn1260 O1270 2.067 . S
Zn1261 O1262 1.962 . S
Zn1261 O1264 1.986 . S
Zn1261 O1266 1.996 . S
Zn1261 O1269 1.943 . S
O1262 Zn1261 1.962 . S
O1262 C1267 1.254 . S
O1263 Zn1260 2.031 . S
O1263 C1267 1.269 . S
O1264 Zn1261 1.986 . S
O1264 C1271 1.262 . S
O1265 Zn1260 2.049 . S
O1265 C1273 1.260 . S
O1266 Zn1261 1.996 . S
O1266 C1273 1.257 . S
C1267 O1262 1.254 . S
C1267 O1263 1.269 . S
C1268 O1269 1.249 . S
C1268 O1270 1.270 . S
O1269 Zn1261 1.943 . S
O1269 C1268 1.249 . S
O1270 Zn1260 2.067 . S
O1270 C1268 1.270 . S
C1271 O1264 1.262 . S
C1271 O1272 1.232 . S
O1272 C1271 1.232 . S
C1273 O1265 1.260 . S
C1273 O1266 1.257 . S
Zn1274 O1277 2.031 . S
Zn1274 O1279 2.049 . S
Zn1274 O1284 2.067 . S
Zn1275 O1276 1.962 . S
Zn1275 O1278 1.986 . S
Zn1275 O1280 1.996 . S
Zn1275 O1283 1.943 . S
O1276 Zn1275 1.962 . S
O1276 C1281 1.254 . S
O1277 Zn1274 2.031 . S
O1277 C1281 1.269 . S
O1278 Zn1275 1.986 . S
O1278 C1285 1.262 . S
O1279 Zn1274 2.049 . S
O1279 C1287 1.260 . S
O1280 Zn1275 1.996 . S
O1280 C1287 1.257 . S
C1281 O1276 1.254 . S
C1281 O1277 1.269 . S
C1282 O1283 1.249 . S
C1282 O1284 1.270 . S
O1283 Zn1275 1.943 . S
O1283 C1282 1.249 . S
O1284 Zn1274 2.067 . S
O1284 C1282 1.270 . S
C1285 O1278 1.262 . S
C1285 O1286 1.232 . S
O1286 C1285 1.232 . S
C1287 O1279 1.260 . S
C1287 O1280 1.257 . S
Zn1288 O1291 2.031 . S
Zn1288 O1293 2.049 . S
Zn1288 O1298 2.067 . S
Zn1289 O1290 1.962 . S
Zn1289 O1292 1.986 . S
Zn1289 O1294 1.996 . S
Zn1289 O1297 1.943 . S
O1290 Zn1289 1.962 . S
O1290 C1295 1.254 . S
O1291 Zn1288 2.031 . S
O1291 C1295 1.269 . S
O1292 Zn1289 1.986 . S
O1292 C1299 1.262 . S
O1293 Zn1288 2.049 . S
O1293 C1301 1.260 . S
O1294 Zn1289 1.996 . S
O1294 C1301 1.257 . S
C1295 O1290 1.254 . S
C1295 O1291 1.269 . S
C1296 O1297 1.249 . S
C1296 O1298 1.270 . S
O1297 Zn1289 1.943 . S
O1297 C1296 1.249 . S
O1298 Zn1288 2.067 . S
O1298 C1296 1.270 . S
C1299 O1292 1.262 . S
C1299 O1300 1.232 . S
O1300 C1299 1.232 . S
C1301 O1293 1.260 . S
C1301 O1294 1.257 . S
Zn1302 O1305 2.031 . S
Zn1302 O1307 2.049 . S
Zn1302 O1312 2.067 . S
Zn1303 O1304 1.962 . S
Zn1303 O1306 1.986 . S
Zn1303 O1308 1.996 . S
Zn1303 O1311 1.943 . S
O1304 Zn1303 1.962 . S
O1304 C1309 1.254 . S
O1305 Zn1302 2.031 . S
O1305 C1309 1.269 . S
O1306 Zn1303 1.986 . S
O1306 C1313 1.262 . S
O1307 Zn1302 2.049 . S
O1307 C1315 1.260 . S
O1308 Zn1303 1.996 . S
O1308 C1315 1.257 . S
C1309 O1304 1.254 . S
C1309 O1305 1.269 . S
C1310 O1311 1.249 . S
C1310 O1312 1.270 . S
O1311 Zn1303 1.943 . S
O1311 C1310 1.249 . S
O1312 Zn1302 2.067 . S
O1312 C1310 1.270 . S
C1313 O1306 1.262 . S
C1313 O1314 1.232 . S
O1314 C1313 1.232 . S
C1315 O1307 1.260 . S
C1315 O1308 1.257 . S
Zn1316 O1319 2.031 . S
Zn1316 O1321 2.049 . S
Zn1316 O1326 2.067 . S
Zn1317 O1318 1.962 . S
Zn1317 O1320 1.986 . S
Zn1317 O1322 1.996 . S
Zn1317 O1325 1.943 . S
O1318 Zn1317 1.962 . S
O1318 C1323 1.254 . S
O1319 Zn1316 2.031 . S
O1319 C1323 1.269 . S
O1320 Zn1317 1.986 . S
O1320 C1327 1.262 . S
O1321 Zn1316 2.049 . S
O1321 C1329 1.260 . S
O1322 Zn1317 1.996 . S
O1322 C1329 1.257 . S
C1323 O1318 1.254 . S
C1323 O1319 1.269 . S
C1324 O1325 1.249 . S
C1324 O1326 1.270 . S
O1325 Zn1317 1.943 . S
O1325 C1324 1.249 . S
O1326 Zn1316 2.067 . S
O1326 C1324 1.270 . S
C1327 O1320 1.262 . S
C1327 O1328 1.232 . S
O1328 C1327 1.232 . S
C1329 O1321 1.260 . S
C1329 O1322 1.257 . S
Zn1330 O1333 2.031 . S
Zn1330 O1335 2.049 . S
Zn1330 O1340 2.067 . S
Zn1331 O1332 1.962 . S
Zn1331 O1334 1.986 . S
Zn1331 O1336 1.996 . S
Zn1331 O1339 1.943 . S
O1332 Zn1331 1.962 . S
O1332 C1337 1.254 . S
O1333 Zn1330 2.031 . S
O1333 C1337 1.269 . S
O1334 Zn1331 1.986 . S
O1334 C1341 1.262 . S
O1335 Zn1330 2.049 . S
O1335 C1343 1.260 . S
O1336 Zn1331 1.996 . S
O1336 C1343 1.257 . S
C1337 O1332 1.254 . S
C1337 O1333 1.269 . S
C1338 O1339 1.249 . S
C1338 O1340 1.270 . S
O1339 Zn1331 1.943 . S
O1339 C1338 1.249 . S
O1340 Zn1330 2.067 . S
O1340 C1338 1.270 . S
C1341 O1334 1.262 . S
C1341 O1342 1.232 . S
O1342 C1341 1.232 . S
C1343 O1335 1.260 . S
C1343 O1336 1.257 . S
H1344 C1352 0.950 . S
H1345 C1357 0.950 . S
H1346 C1354 0.950 . S
H1347 C1356 0.950 . S
H1348 C1358 0.950 . S
H1349 C1360 0.950 . S
H1350 C1362 0.950 . S
H1351 C1363 0.950 . S
C1352 H1344 0.950 . S
C1352 C1353 1.386 . S
C1352 C1354 1.391 . S
C1353 C1352 1.386 . S
C1353 C1357 1.393 . S
C1354 H1346 0.950 . S
C1354 C1352 1.391 . S
C1354 C1355 1.400 . S
C1355 C1354 1.400 . S
C1355 C1356 1.398 . S
C1355 C1361 1.491 . S
C1356 H1347 0.950 . S
C1356 C1355 1.398 . S
C1356 C1357 1.391 . S
C1357 H1345 0.950 . S
C1357 C1353 1.393 . S
C1357 C1356 1.391 . S
C1358 H1348 0.950 . S
C1358 C1359 1.386 . S
C1358 C1360 1.391 . S
C1359 C1358 1.386 . S
C1359 C1363 1.393 . S
C1360 H1349 0.950 . S
C1360 C1358 1.391 . S
C1360 C1361 1.400 . S
C1361 C1355 1.491 . S
C1361 C1360 1.400 . S
C1361 C1362 1.398 . S
C1362 H1350 0.950 . S
C1362 C1361 1.398 . S
C1362 C1363 1.391 . S
C1363 H1351 0.950 . S
C1363 C1359 1.393 . S
C1363 C1362 1.391 . S
H1364 C1372 0.950 . S
H1365 C1377 0.950 . S
H1366 C1374 0.950 . S
H1367 C1376 0.950 . S
H1368 C1378 0.950 . S
H1369 C1380 0.950 . S
H1370 C1382 0.950 . S
H1371 C1383 0.950 . S
C1372 H1364 0.950 . S
C1372 C1373 1.386 . S
C1372 C1374 1.391 . S
C1373 C1372 1.386 . S
C1373 C1377 1.393 . S
C1374 H1366 0.950 . S
C1374 C1372 1.391 . S
C1374 C1375 1.400 . S
C1375 C1374 1.400 . S
C1375 C1376 1.398 . S
C1375 C1381 1.491 . S
C1376 H1367 0.950 . S
C1376 C1375 1.398 . S
C1376 C1377 1.391 . S
C1377 H1365 0.950 . S
C1377 C1373 1.393 . S
C1377 C1376 1.391 . S
C1378 H1368 0.950 . S
C1378 C1379 1.386 . S
C1378 C1380 1.391 . S
C1379 C1378 1.386 . S
C1379 C1383 1.393 . S
C1380 H1369 0.950 . S
C1380 C1378 1.391 . S
C1380 C1381 1.400 . S
C1381 C1375 1.491 . S
C1381 C1380 1.400 . S
C1381 C1382 1.398 . S
C1382 H1370 0.950 . S
C1382 C1381 1.398 . S
C1382 C1383 1.391 . S
C1383 H1371 0.950 . S
C1383 C1379 1.393 . S
C1383 C1382 1.391 . S
H1384 C1392 0.950 . S
H1385 C1397 0.950 . S
H1386 C1394 0.950 . S
H1387 C1396 0.950 . S
H1388 C1398 0.950 . S
H1389 C1400 0.950 . S
H1390 C1402 0.950 . S
H1391 C1403 0.950 . S
C1392 H1384 0.950 . S
C1392 C1393 1.386 . S
C1392 C1394 1.391 . S
C1393 C1392 1.386 . S
C1393 C1397 1.393 . S
C1394 H1386 0.950 . S
C1394 C1392 1.391 . S
C1394 C1395 1.400 . S
C1395 C1394 1.400 . S
C1395 C1396 1.398 . S
C1395 C1401 1.491 . S
C1396 H1387 0.950 . S
C1396 C1395 1.398 . S
C1396 C1397 1.391 . S
C1397 H1385 0.950 . S
C1397 C1393 1.393 . S
C1397 C1396 1.391 . S
C1398 H1388 0.950 . S
C1398 C1399 1.386 . S
C1398 C1400 1.391 . S
C1399 C1398 1.386 . S
C1399 C1403 1.393 . S
C1400 H1389 0.950 . S
C1400 C1398 1.391 . S
C1400 C1401 1.400 . S
C1401 C1395 1.491 . S
C1401 C1400 1.400 . S
C1401 C1402 1.398 . S
C1402 H1390 0.950 . S
C1402 C1401 1.398 . S
C1402 C1403 1.391 . S
C1403 H1391 0.950 . S
C1403 C1399 1.393 . S
C1403 C1402 1.391 . S
H1404 C1412 0.950 . S
H1405 C1417 0.950 . S
H1406 C1414 0.950 . S
H1407 C1416 0.950 . S
H1408 C1418 0.950 . S
H1409 C1420 0.950 . S
H1410 C1422 0.950 . S
H1411 C1423 0.950 . S
C1412 H1404 0.950 . S
C1412 C1413 1.386 . S
C1412 C1414 1.391 . S
C1413 C1412 1.386 . S
C1413 C1417 1.393 . S
C1414 H1406 0.950 . S
C1414 C1412 1.391 . S
C1414 C1415 1.400 . S
C1415 C1414 1.400 . S
C1415 C1416 1.398 . S
C1415 C1421 1.491 . S
C1416 H1407 0.950 . S
C1416 C1415 1.398 . S
C1416 C1417 1.391 . S
C1417 H1405 0.950 . S
C1417 C1413 1.393 . S
C1417 C1416 1.391 . S
C1418 H1408 0.950 . S
C1418 C1419 1.386 . S
C1418 C1420 1.391 . S
C1419 C1418 1.386 . S
C1419 C1423 1.393 . S
C1420 H1409 0.950 . S
C1420 C1418 1.391 . S
C1420 C1421 1.400 . S
C1421 C1415 1.491 . S
C1421 C1420 1.400 . S
C1421 C1422 1.398 . S
C1422 H1410 0.950 . S
C1422 C1421 1.398 . S
C1422 C1423 1.391 . S
C1423 H1411 0.950 . S
C1423 C1419 1.393 . S
C1423 C1422 1.391 . S
H1424 C1432 0.950 . S
H1425 C1437 0.950 . S
H1426 C1434 0.950 . S
H1427 C1436 0.950 . S
H1428 C1438 0.950 . S
H1429 C1440 0.950 . S
H1430 C1442 0.950 . S
H1431 C1443 0.950 . S
C1432 H1424 0.950 . S
C1432 C1433 1.386 . S
C1432 C1434 1.391 . S
C1433 C1432 1.386 . S
C1433 C1437 1.393 . S
C1434 H1426 0.950 . S
C1434 C1432 1.391 . S
C1434 C1435 1.400 . S
C1435 C1434 1.400 . S
C1435 C1436 1.398 . S
C1435 C1441 1.491 . S
C1436 H1427 0.950 . S
C1436 C1435 1.398 . S
C1436 C1437 1.391 . S
C1437 H1425 0.950 . S
C1437 C1433 1.393 . S
C1437 C1436 1.391 . S
C1438 H1428 0.950 . S
C1438 C1439 1.386 . S
C1438 C1440 1.391 . S
C1439 C1438 1.386 . S
C1439 C1443 1.393 . S
C1440 H1429 0.950 . S
C1440 C1438 1.391 . S
C1440 C1441 1.400 . S
C1441 C1435 1.491 . S
C1441 C1440 1.400 . S
C1441 C1442 1.398 . S
C1442 H1430 0.950 . S
C1442 C1441 1.398 . S
C1442 C1443 1.391 . S
C1443 H1431 0.950 . S
C1443 C1439 1.393 . S
C1443 C1442 1.391 . S
H1444 C1452 0.950 . S
H1445 C1457 0.950 . S
H1446 C1454 0.950 . S
H1447 C1456 0.950 . S
H1448 C1458 0.950 . S
H1449 C1460 0.950 . S
H1450 C1462 0.950 . S
H1451 C1463 0.950 . S
C1452 H1444 0.950 . S
C1452 C1453 1.386 . S
C1452 C1454 1.391 . S
C1453 C1452 1.386 . S
C1453 C1457 1.393 . S
C1454 H1446 0.950 . S
C1454 C1452 1.391 . S
C1454 C1455 1.400 . S
C1455 C1454 1.400 . S
C1455 C1456 1.398 . S
C1455 C1461 1.491 . S
C1456 H1447 0.950 . S
C1456 C1455 1.398 . S
C1456 C1457 1.391 . S
C1457 H1445 0.950 . S
C1457 C1453 1.393 . S
C1457 C1456 1.391 . S
C1458 H1448 0.950 . S
C1458 C1459 1.386 . S
C1458 C1460 1.391 . S
C1459 C1458 1.386 . S
C1459 C1463 1.393 . S
C1460 H1449 0.950 . S
C1460 C1458 1.391 . S
C1460 C1461 1.400 . S
C1461 C1455 1.491 . S
C1461 C1460 1.400 . S
C1461 C1462 1.398 . S
C1462 H1450 0.950 . S
C1462 C1461 1.398 . S
C1462 C1463 1.391 . S
C1463 H1451 0.950 . S
C1463 C1459 1.393 . S
C1463 C1462 1.391 . S
H1464 C1472 0.950 . S
H1465 C1477 0.950 . S
H1466 C1474 0.950 . S
H1467 C1476 0.950 . S
H1468 C1478 0.950 . S
H1469 C1480 0.950 . S
H1470 C1482 0.950 . S
H1471 C1483 0.950 . S
C1472 H1464 0.950 . S
C1472 C1473 1.386 . S
C1472 C1474 1.391 . S
C1473 C1472 1.386 . S
C1473 C1477 1.393 . S
C1474 H1466 0.950 . S
C1474 C1472 1.391 . S
C1474 C1475 1.400 . S
C1475 C1474 1.400 . S
C1475 C1476 1.398 . S
C1475 C1481 1.491 . S
C1476 H1467 0.950 . S
C1476 C1475 1.398 . S
C1476 C1477 1.391 . S
C1477 H1465 0.950 . S
C1477 C1473 1.393 . S
C1477 C1476 1.391 . S
C1478 H1468 0.950 . S
C1478 C1479 1.386 . S
C1478 C1480 1.391 . S
C1479 C1478 1.386 . S
C1479 C1483 1.393 . S
C1480 H1469 0.950 . S
C1480 C1478 1.391 . S
C1480 C1481 1.400 . S
C1481 C1475 1.491 . S
C1481 C1480 1.400 . S
C1481 C1482 1.398 . S
C1482 H1470 0.950 . S
C1482 C1481 1.398 . S
C1482 C1483 1.391 . S
C1483 H1471 0.950 . S
C1483 C1479 1.393 . S
C1483 C1482 1.391 . S
H1484 C1492 0.950 . S
H1485 C1497 0.950 . S
H1486 C1494 0.950 . S
H1487 C1496 0.950 . S
H1488 C1498 0.950 . S
H1489 C1500 0.950 . S
H1490 C1502 0.950 . S
H1491 C1503 0.950 . S
C1492 H1484 0.950 . S
C1492 C1493 1.386 . S
C1492 C1494 1.391 . S
C1493 C1492 1.386 . S
C1493 C1497 1.393 . S
C1494 H1486 0.950 . S
C1494 C1492 1.391 . S
C1494 C1495 1.400 . S
C1495 C1494 1.400 . S
C1495 C1496 1.398 . S
C1495 C1501 1.491 . S
C1496 H1487 0.950 . S
C1496 C1495 1.398 . S
C1496 C1497 1.391 . S
C1497 H1485 0.950 . S
C1497 C1493 1.393 . S
C1497 C1496 1.391 . S
C1498 H1488 0.950 . S
C1498 C1499 1.386 . S
C1498 C1500 1.391 . S
C1499 C1498 1.386 . S
C1499 C1503 1.393 . S
C1500 H1489 0.950 . S
C1500 C1498 1.391 . S
C1500 C1501 1.400 . S
C1501 C1495 1.491 . S
C1501 C1500 1.400 . S
C1501 C1502 1.398 . S
C1502 H1490 0.950 . S
C1502 C1501 1.398 . S
C1502 C1503 1.391 . S
C1503 H1491 0.950 . S
C1503 C1499 1.393 . S
C1503 C1502 1.391 . S
H1504 C1512 0.950 . S
H1505 C1517 0.950 . S
H1506 C1514 0.950 . S
H1507 C1516 0.950 . S
H1508 C1518 0.950 . S
H1509 C1520 0.950 . S
H1510 C1522 0.950 . S
H1511 C1523 0.950 . S
C1512 H1504 0.950 . S
C1512 C1513 1.386 . S
C1512 C1514 1.391 . S
C1513 C1512 1.386 . S
C1513 C1517 1.393 . S
C1514 H1506 0.950 . S
C1514 C1512 1.391 . S
C1514 C1515 1.400 . S
C1515 C1514 1.400 . S
C1515 C1516 1.398 . S
C1515 C1521 1.491 . S
C1516 H1507 0.950 . S
C1516 C1515 1.398 . S
C1516 C1517 1.391 . S
C1517 H1505 0.950 . S
C1517 C1513 1.393 . S
C1517 C1516 1.391 . S
C1518 H1508 0.950 . S
C1518 C1519 1.386 . S
C1518 C1520 1.391 . S
C1519 C1518 1.386 . S
C1519 C1523 1.393 . S
C1520 H1509 0.950 . S
C1520 C1518 1.391 . S
C1520 C1521 1.400 . S
C1521 C1515 1.491 . S
C1521 C1520 1.400 . S
C1521 C1522 1.398 . S
C1522 H1510 0.950 . S
C1522 C1521 1.398 . S
C1522 C1523 1.391 . S
C1523 H1511 0.950 . S
C1523 C1519 1.393 . S
C1523 C1522 1.391 . S
H1524 C1532 0.950 . S
H1525 C1537 0.950 . S
H1526 C1534 0.950 . S
H1527 C1536 0.950 . S
H1528 C1538 0.950 . S
H1529 C1540 0.950 . S
H1530 C1542 0.950 . S
H1531 C1543 0.950 . S
C1532 H1524 0.950 . S
C1532 C1533 1.386 . S
C1532 C1534 1.391 . S
C1533 C1532 1.386 . S
C1533 C1537 1.393 . S
C1534 H1526 0.950 . S
C1534 C1532 1.391 . S
C1534 C1535 1.400 . S
C1535 C1534 1.400 . S
C1535 C1536 1.398 . S
C1535 C1541 1.491 . S
C1536 H1527 0.950 . S
C1536 C1535 1.398 . S
C1536 C1537 1.391 . S
C1537 H1525 0.950 . S
C1537 C1533 1.393 . S
C1537 C1536 1.391 . S
C1538 H1528 0.950 . S
C1538 C1539 1.386 . S
C1538 C1540 1.391 . S
C1539 C1538 1.386 . S
C1539 C1543 1.393 . S
C1540 H1529 0.950 . S
C1540 C1538 1.391 . S
C1540 C1541 1.400 . S
C1541 C1535 1.491 . S
C1541 C1540 1.400 . S
C1541 C1542 1.398 . S
C1542 H1530 0.950 . S
C1542 C1541 1.398 . S
C1542 C1543 1.391 . S
C1543 H1531 0.950 . S
C1543 C1539 1.393 . S
C1543 C1542 1.391 . S
H1544 C1552 0.950 . S
H1545 C1557 0.950 . S
H1546 C1554 0.950 . S
H1547 C1556 0.950 . S
H1548 C1558 0.950 . S
H1549 C1560 0.950 . S
H1550 C1562 0.950 . S
H1551 C1563 0.950 . S
C1552 H1544 0.950 . S
C1552 C1553 1.386 . S
C1552 C1554 1.391 . S
C1553 C1552 1.386 . S
C1553 C1557 1.393 . S
C1554 H1546 0.950 . S
C1554 C1552 1.391 . S
C1554 C1555 1.400 . S
C1555 C1554 1.400 . S
C1555 C1556 1.398 . S
C1555 C1561 1.491 . S
C1556 H1547 0.950 . S
C1556 C1555 1.398 . S
C1556 C1557 1.391 . S
C1557 H1545 0.950 . S
C1557 C1553 1.393 . S
C1557 C1556 1.391 . S
C1558 H1548 0.950 . S
C1558 C1559 1.386 . S
C1558 C1560 1.391 . S
C1559 C1558 1.386 . S
C1559 C1563 1.393 . S
C1560 H1549 0.950 . S
C1560 C1558 1.391 . S
C1560 C1561 1.400 . S
C1561 C1555 1.491 . S
C1561 C1560 1.400 . S
C1561 C1562 1.398 . S
C1562 H1550 0.950 . S
C1562 C1561 1.398 . S
C1562 C1563 1.391 . S
C1563 H1551 0.950 . S
C1563 C1559 1.393 . S
C1563 C1562 1.391 . S
H1564 C1572 0.950 . S
H1565 C1577 0.950 . S
H1566 C1574 0.950 . S
H1567 C1576 0.950 . S
H1568 C1578 0.950 . S
H1569 C1580 0.950 . S
H1570 C1582 0.950 . S
H1571 C1583 0.950 . S
C1572 H1564 0.950 . S
C1572 C1573 1.386 . S
C1572 C1574 1.391 . S
C1573 C1572 1.386 . S
C1573 C1577 1.393 . S
C1574 H1566 0.950 . S
C1574 C1572 1.391 . S
C1574 C1575 1.400 . S
C1575 C1574 1.400 . S
C1575 C1576 1.398 . S
C1575 C1581 1.491 . S
C1576 H1567 0.950 . S
C1576 C1575 1.398 . S
C1576 C1577 1.391 . S
C1577 H1565 0.950 . S
C1577 C1573 1.393 . S
C1577 C1576 1.391 . S
C1578 H1568 0.950 . S
C1578 C1579 1.386 . S
C1578 C1580 1.391 . S
C1579 C1578 1.386 . S
C1579 C1583 1.393 . S
C1580 H1569 0.950 . S
C1580 C1578 1.391 . S
C1580 C1581 1.400 . S
C1581 C1575 1.491 . S
C1581 C1580 1.400 . S
C1581 C1582 1.398 . S
C1582 H1570 0.950 . S
C1582 C1581 1.398 . S
C1582 C1583 1.391 . S
C1583 H1571 0.950 . S
C1583 C1579 1.393 . S
C1583 C1582 1.391 . S
H1584 C1592 0.950 . S
H1585 C1597 0.950 . S
H1586 C1594 0.950 . S
H1587 C1596 0.950 . S
H1588 C1598 0.950 . S
H1589 C1600 0.950 . S
H1590 C1602 0.950 . S
H1591 C1603 0.950 . S
C1592 H1584 0.950 . S
C1592 C1593 1.386 . S
C1592 C1594 1.391 . S
C1593 C1592 1.386 . S
C1593 C1597 1.393 . S
C1594 H1586 0.950 . S
C1594 C1592 1.391 . S
C1594 C1595 1.400 . S
C1595 C1594 1.400 . S
C1595 C1596 1.398 . S
C1595 C1601 1.491 . S
C1596 H1587 0.950 . S
C1596 C1595 1.398 . S
C1596 C1597 1.391 . S
C1597 H1585 0.950 . S
C1597 C1593 1.393 . S
C1597 C1596 1.391 . S
C1598 H1588 0.950 . S
C1598 C1599 1.386 . S
C1598 C1600 1.391 . S
C1599 C1598 1.386 . S
C1599 C1603 1.393 . S
C1600 H1589 0.950 . S
C1600 C1598 1.391 . S
C1600 C1601 1.400 . S
C1601 C1595 1.491 . S
C1601 C1600 1.400 . S
C1601 C1602 1.398 . S
C1602 H1590 0.950 . S
C1602 C1601 1.398 . S
C1602 C1603 1.391 . S
C1603 H1591 0.950 . S
C1603 C1599 1.393 . S
C1603 C1602 1.391 . S
H1604 C1612 0.950 . S
H1605 C1617 0.950 . S
H1606 C1614 0.950 . S
H1607 C1616 0.950 . S
H1608 C1618 0.950 . S
H1609 C1620 0.950 . S
H1610 C1622 0.950 . S
H1611 C1623 0.950 . S
C1612 H1604 0.950 . S
C1612 C1613 1.386 . S
C1612 C1614 1.391 . S
C1613 C1612 1.386 . S
C1613 C1617 1.393 . S
C1614 H1606 0.950 . S
C1614 C1612 1.391 . S
C1614 C1615 1.400 . S
C1615 C1614 1.400 . S
C1615 C1616 1.398 . S
C1615 C1621 1.491 . S
C1616 H1607 0.950 . S
C1616 C1615 1.398 . S
C1616 C1617 1.391 . S
C1617 H1605 0.950 . S
C1617 C1613 1.393 . S
C1617 C1616 1.391 . S
C1618 H1608 0.950 . S
C1618 C1619 1.386 . S
C1618 C1620 1.391 . S
C1619 C1618 1.386 . S
C1619 C1623 1.393 . S
C1620 H1609 0.950 . S
C1620 C1618 1.391 . S
C1620 C1621 1.400 . S
C1621 C1615 1.491 . S
C1621 C1620 1.400 . S
C1621 C1622 1.398 . S
C1622 H1610 0.950 . S
C1622 C1621 1.398 . S
C1622 C1623 1.391 . S
C1623 H1611 0.950 . S
C1623 C1619 1.393 . S
C1623 C1622 1.391 . S
H1624 C1632 0.950 . S
H1625 C1637 0.950 . S
H1626 C1634 0.950 . S
H1627 C1636 0.950 . S
H1628 C1638 0.950 . S
H1629 C1640 0.950 . S
H1630 C1642 0.950 . S
H1631 C1643 0.950 . S
C1632 H1624 0.950 . S
C1632 C1633 1.386 . S
C1632 C1634 1.391 . S
C1633 C1632 1.386 . S
C1633 C1637 1.393 . S
C1634 H1626 0.950 . S
C1634 C1632 1.391 . S
C1634 C1635 1.400 . S
C1635 C1634 1.400 . S
C1635 C1636 1.398 . S
C1635 C1641 1.491 . S
C1636 H1627 0.950 . S
C1636 C1635 1.398 . S
C1636 C1637 1.391 . S
C1637 H1625 0.950 . S
C1637 C1633 1.393 . S
C1637 C1636 1.391 . S
C1638 H1628 0.950 . S
C1638 C1639 1.386 . S
C1638 C1640 1.391 . S
C1639 C1638 1.386 . S
C1639 C1643 1.393 . S
C1640 H1629 0.950 . S
C1640 C1638 1.391 . S
C1640 C1641 1.400 . S
C1641 C1635 1.491 . S
C1641 C1640 1.400 . S
C1641 C1642 1.398 . S
C1642 H1630 0.950 . S
C1642 C1641 1.398 . S
C1642 C1643 1.391 . S
C1643 H1631 0.950 . S
C1643 C1639 1.393 . S
C1643 C1642 1.391 . S
H1644 C1652 0.950 . S
H1645 C1657 0.950 . S
H1646 C1654 0.950 . S
H1647 C1656 0.950 . S
H1648 C1658 0.950 . S
H1649 C1660 0.950 . S
H1650 C1662 0.950 . S
H1651 C1663 0.950 . S
C1652 H1644 0.950 . S
C1652 C1653 1.386 . S
C1652 C1654 1.391 . S
C1653 C1652 1.386 . S
C1653 C1657 1.393 . S
C1654 H1646 0.950 . S
C1654 C1652 1.391 . S
C1654 C1655 1.400 . S
C1655 C1654 1.400 . S
C1655 C1656 1.398 . S
C1655 C1661 1.491 . S
C1656 H1647 0.950 . S
C1656 C1655 1.398 . S
C1656 C1657 1.391 . S
C1657 H1645 0.950 . S
C1657 C1653 1.393 . S
C1657 C1656 1.391 . S
C1658 H1648 0.950 . S
C1658 C1659 1.386 . S
C1658 C1660 1.391 . S
C1659 C1658 1.386 . S
C1659 C1663 1.393 . S
C1660 H1649 0.950 . S
C1660 C1658 1.391 . S
C1660 C1661 1.400 . S
C1661 C1655 1.491 . S
C1661 C1660 1.400 . S
C1661 C1662 1.398 . S
C1662 H1650 0.950 . S
C1662 C1661 1.398 . S
C1662 C1663 1.391 . S
C1663 H1651 0.950 . S
C1663 C1659 1.393 . S
C1663 C1662 1.391 . S
H1664 C1672 0.950 . S
H1665 C1677 0.950 . S
H1666 C1674 0.950 . S
H1667 C1676 0.950 . S
H1668 C1678 0.950 . S
H1669 C1680 0.950 . S
H1670 C1682 0.950 . S
H1671 C1683 0.950 . S
C1672 H1664 0.950 . S
C1672 C1673 1.386 . S
C1672 C1674 1.391 . S
C1673 C1672 1.386 . S
C1673 C1677 1.393 . S
C1674 H1666 0.950 . S
C1674 C1672 1.391 . S
C1674 C1675 1.400 . S
C1675 C1674 1.400 . S
C1675 C1676 1.398 . S
C1675 C1681 1.491 . S
C1676 H1667 0.950 . S
C1676 C1675 1.398 . S
C1676 C1677 1.391 . S
C1677 H1665 0.950 . S
C1677 C1673 1.393 . S
C1677 C1676 1.391 . S
C1678 H1668 0.950 . S
C1678 C1679 1.386 . S
C1678 C1680 1.391 . S
C1679 C1678 1.386 . S
C1679 C1683 1.393 . S
C1680 H1669 0.950 . S
C1680 C1678 1.391 . S
C1680 C1681 1.400 . S
C1681 C1675 1.491 . S
C1681 C1680 1.400 . S
C1681 C1682 1.398 . S
C1682 H1670 0.950 . S
C1682 C1681 1.398 . S
C1682 C1683 1.391 . S
C1683 H1671 0.950 . S
C1683 C1679 1.393 . S
C1683 C1682 1.391 . S
H1684 C1692 0.950 . S
H1685 C1697 0.950 . S
H1686 C1694 0.950 . S
H1687 C1696 0.950 . S
H1688 C1698 0.950 . S
H1689 C1700 0.950 . S
H1690 C1702 0.950 . S
H1691 C1703 0.950 . S
C1692 H1684 0.950 . S
C1692 C1693 1.386 . S
C1692 C1694 1.391 . S
C1693 C1692 1.386 . S
C1693 C1697 1.393 . S
C1694 H1686 0.950 . S
C1694 C1692 1.391 . S
C1694 C1695 1.400 . S
C1695 C1694 1.400 . S
C1695 C1696 1.398 . S
C1695 C1701 1.491 . S
C1696 H1687 0.950 . S
C1696 C1695 1.398 . S
C1696 C1697 1.391 . S
C1697 H1685 0.950 . S
C1697 C1693 1.393 . S
C1697 C1696 1.391 . S
C1698 H1688 0.950 . S
C1698 C1699 1.386 . S
C1698 C1700 1.391 . S
C1699 C1698 1.386 . S
C1699 C1703 1.393 . S
C1700 H1689 0.950 . S
C1700 C1698 1.391 . S
C1700 C1701 1.400 . S
C1701 C1695 1.491 . S
C1701 C1700 1.400 . S
C1701 C1702 1.398 . S
C1702 H1690 0.950 . S
C1702 C1701 1.398 . S
C1702 C1703 1.391 . S
C1703 H1691 0.950 . S
C1703 C1699 1.393 . S
C1703 C1702 1.391 . S
H1704 C1712 0.950 . S
H1705 C1717 0.950 . S
H1706 C1714 0.950 . S
H1707 C1716 0.950 . S
H1708 C1718 0.950 . S
H1709 C1720 0.950 . S
H1710 C1722 0.950 . S
H1711 C1723 0.950 . S
C1712 H1704 0.950 . S
C1712 C1713 1.386 . S
C1712 C1714 1.391 . S
C1713 C1712 1.386 . S
C1713 C1717 1.393 . S
C1714 H1706 0.950 . S
C1714 C1712 1.391 . S
C1714 C1715 1.400 . S
C1715 C1714 1.400 . S
C1715 C1716 1.398 . S
C1715 C1721 1.491 . S
C1716 H1707 0.950 . S
C1716 C1715 1.398 . S
C1716 C1717 1.391 . S
C1717 H1705 0.950 . S
C1717 C1713 1.393 . S
C1717 C1716 1.391 . S
C1718 H1708 0.950 . S
C1718 C1719 1.386 . S
C1718 C1720 1.391 . S
C1719 C1718 1.386 . S
C1719 C1723 1.393 . S
C1720 H1709 0.950 . S
C1720 C1718 1.391 . S
C1720 C1721 1.400 . S
C1721 C1715 1.491 . S
C1721 C1720 1.400 . S
C1721 C1722 1.398 . S
C1722 H1710 0.950 . S
C1722 C1721 1.398 . S
C1722 C1723 1.391 . S
C1723 H1711 0.950 . S
C1723 C1719 1.393 . S
C1723 C1722 1.391 . S
H1724 C1732 0.950 . S
H1725 C1737 0.950 . S
H1726 C1734 0.950 . S
H1727 C1736 0.950 . S
H1728 C1738 0.950 . S
H1729 C1740 0.950 . S
H1730 C1742 0.950 . S
H1731 C1743 0.950 . S
C1732 H1724 0.950 . S
C1732 C1733 1.386 . S
C1732 C1734 1.391 . S
C1733 C1732 1.386 . S
C1733 C1737 1.393 . S
C1734 H1726 0.950 . S
C1734 C1732 1.391 . S
C1734 C1735 1.400 . S
C1735 C1734 1.400 . S
C1735 C1736 1.398 . S
C1735 C1741 1.491 . S
C1736 H1727 0.950 . S
C1736 C1735 1.398 . S
C1736 C1737 1.391 . S
C1737 H1725 0.950 . S
C1737 C1733 1.393 . S
C1737 C1736 1.391 . S
C1738 H1728 0.950 . S
C1738 C1739 1.386 . S
C1738 C1740 1.391 . S
C1739 C1738 1.386 . S
C1739 C1743 1.393 . S
C1740 H1729 0.950 . S
C1740 C1738 1.391 . S
C1740 C1741 1.400 . S
C1741 C1735 1.491 . S
C1741 C1740 1.400 . S
C1741 C1742 1.398 . S
C1742 H1730 0.950 . S
C1742 C1741 1.398 . S
C1742 C1743 1.391 . S
C1743 H1731 0.950 . S
C1743 C1739 1.393 . S
C1743 C1742 1.391 . S
H1744 C1752 0.950 . S
H1745 C1757 0.950 . S
H1746 C1754 0.950 . S
H1747 C1756 0.950 . S
H1748 C1758 0.950 . S
H1749 C1760 0.950 . S
H1750 C1762 0.950 . S
H1751 C1763 0.950 . S
C1752 H1744 0.950 . S
C1752 C1753 1.386 . S
C1752 C1754 1.391 . S
C1753 C1752 1.386 . S
C1753 C1757 1.393 . S
C1754 H1746 0.950 . S
C1754 C1752 1.391 . S
C1754 C1755 1.400 . S
C1755 C1754 1.400 . S
C1755 C1756 1.398 . S
C1755 C1761 1.491 . S
C1756 H1747 0.950 . S
C1756 C1755 1.398 . S
C1756 C1757 1.391 . S
C1757 H1745 0.950 . S
C1757 C1753 1.393 . S
C1757 C1756 1.391 . S
C1758 H1748 0.950 . S
C1758 C1759 1.386 . S
C1758 C1760 1.391 . S
C1759 C1758 1.386 . S
C1759 C1763 1.393 . S
C1760 H1749 0.950 . S
C1760 C1758 1.391 . S
C1760 C1761 1.400 . S
C1761 C1755 1.491 . S
C1761 C1760 1.400 . S
C1761 C1762 1.398 . S
C1762 H1750 0.950 . S
C1762 C1761 1.398 . S
C1762 C1763 1.391 . S
C1763 H1751 0.950 . S
C1763 C1759 1.393 . S
C1763 C1762 1.391 . S
H1764 C1772 0.950 . S
H1765 C1777 0.950 . S
H1766 C1774 0.950 . S
H1767 C1776 0.950 . S
H1768 C1778 0.950 . S
H1769 C1780 0.950 . S
H1770 C1782 0.950 . S
H1771 C1783 0.950 . S
C1772 H1764 0.950 . S
C1772 C1773 1.386 . S
C1772 C1774 1.391 . S
C1773 C1772 1.386 . S
C1773 C1777 1.393 . S
C1774 H1766 0.950 . S
C1774 C1772 1.391 . S
C1774 C1775 1.400 . S
C1775 C1774 1.400 . S
C1775 C1776 1.398 . S
C1775 C1781 1.491 . S
C1776 H1767 0.950 . S
C1776 C1775 1.398 . S
C1776 C1777 1.391 . S
C1777 H1765 0.950 . S
C1777 C1773 1.393 . S
C1777 C1776 1.391 . S
C1778 H1768 0.950 . S
C1778 C1779 1.386 . S
C1778 C1780 1.391 . S
C1779 C1778 1.386 . S
C1779 C1783 1.393 . S
C1780 H1769 0.950 . S
C1780 C1778 1.391 . S
C1780 C1781 1.400 . S
C1781 C1775 1.491 . S
C1781 C1780 1.400 . S
C1781 C1782 1.398 . S
C1782 H1770 0.950 . S
C1782 C1781 1.398 . S
C1782 C1783 1.391 . S
C1783 H1771 0.950 . S
C1783 C1779 1.393 . S
C1783 C1782 1.391 . S
H1784 C1792 0.950 . S
H1785 C1797 0.950 . S
H1786 C1794 0.950 . S
H1787 C1796 0.950 . S
H1788 C1798 0.950 . S
H1789 C1800 0.950 . S
H1790 C1802 0.950 . S
H1791 C1803 0.950 . S
C1792 H1784 0.950 . S
C1792 C1793 1.386 . S
C1792 C1794 1.391 . S
C1793 C1792 1.386 . S
C1793 C1797 1.393 . S
C1794 H1786 0.950 . S
C1794 C1792 1.391 . S
C1794 C1795 1.400 . S
C1795 C1794 1.400 . S
C1795 C1796 1.398 . S
C1795 C1801 1.491 . S
C1796 H1787 0.950 . S
C1796 C1795 1.398 . S
C1796 C1797 1.391 . S
C1797 H1785 0.950 . S
C1797 C1793 1.393 . S
C1797 C1796 1.391 . S
C1798 H1788 0.950 . S
C1798 C1799 1.386 . S
C1798 C1800 1.391 . S
C1799 C1798 1.386 . S
C1799 C1803 1.393 . S
C1800 H1789 0.950 . S
C1800 C1798 1.391 . S
C1800 C1801 1.400 . S
C1801 C1795 1.491 . S
C1801 C1800 1.400 . S
C1801 C1802 1.398 . S
C1802 H1790 0.950 . S
C1802 C1801 1.398 . S
C1802 C1803 1.391 . S
C1803 H1791 0.950 . S
C1803 C1799 1.393 . S
C1803 C1802 1.391 . S
H1804 C1812 0.950 . S
H1805 C1817 0.950 . S
H1806 C1814 0.950 . S
H1807 C1816 0.950 . S
H1808 C1818 0.950 . S
H1809 C1820 0.950 . S
H1810 C1822 0.950 . S
H1811 C1823 0.950 . S
C1812 H1804 0.950 . S
C1812 C1813 1.386 . S
C1812 C1814 1.391 . S
C1813 C1812 1.386 . S
C1813 C1817 1.393 . S
C1814 H1806 0.950 . S
C1814 C1812 1.391 . S
C1814 C1815 1.400 . S
C1815 C1814 1.400 . S
C1815 C1816 1.398 . S
C1815 C1821 1.491 . S
C1816 H1807 0.950 . S
C1816 C1815 1.398 . S
C1816 C1817 1.391 . S
C1817 H1805 0.950 . S
C1817 C1813 1.393 . S
C1817 C1816 1.391 . S
C1818 H1808 0.950 . S
C1818 C1819 1.386 . S
C1818 C1820 1.391 . S
C1819 C1818 1.386 . S
C1819 C1823 1.393 . S
C1820 H1809 0.950 . S
C1820 C1818 1.391 . S
C1820 C1821 1.400 . S
C1821 C1815 1.491 . S
C1821 C1820 1.400 . S
C1821 C1822 1.398 . S
C1822 H1810 0.950 . S
C1822 C1821 1.398 . S
C1822 C1823 1.391 . S
C1823 H1811 0.950 . S
C1823 C1819 1.393 . S
C1823 C1822 1.391 . S
H1824 C1832 0.950 . S
H1825 C1837 0.950 . S
H1826 C1834 0.950 . S
H1827 C1836 0.950 . S
H1828 C1838 0.950 . S
H1829 C1840 0.950 . S
H1830 C1842 0.950 . S
H1831 C1843 0.950 . S
C1832 H1824 0.950 . S
C1832 C1833 1.386 . S
C1832 C1834 1.391 . S
C1833 C1832 1.386 . S
C1833 C1837 1.393 . S
C1834 H1826 0.950 . S
C1834 C1832 1.391 . S
C1834 C1835 1.400 . S
C1835 C1834 1.400 . S
C1835 C1836 1.398 . S
C1835 C1841 1.491 . S
C1836 H1827 0.950 . S
C1836 C1835 1.398 . S
C1836 C1837 1.391 . S
C1837 H1825 0.950 . S
C1837 C1833 1.393 . S
C1837 C1836 1.391 . S
C1838 H1828 0.950 . S
C1838 C1839 1.386 . S
C1838 C1840 1.391 . S
C1839 C1838 1.386 . S
C1839 C1843 1.393 . S
C1840 H1829 0.950 . S
C1840 C1838 1.391 . S
C1840 C1841 1.400 . S
C1841 C1835 1.491 . S
C1841 C1840 1.400 . S
C1841 C1842 1.398 . S
C1842 H1830 0.950 . S
C1842 C1841 1.398 . S
C1842 C1843 1.391 . S
C1843 H1831 0.950 . S
C1843 C1839 1.393 . S
C1843 C1842 1.391 . S
H1844 C1852 0.950 . S
H1845 C1857 0.950 . S
H1846 C1854 0.950 . S
H1847 C1856 0.950 . S
H1848 C1858 0.950 . S
H1849 C1860 0.950 . S
H1850 C1862 0.950 . S
H1851 C1863 0.950 . S
C1852 H1844 0.950 . S
C1852 C1853 1.386 . S
C1852 C1854 1.391 . S
C1853 C1852 1.386 . S
C1853 C1857 1.393 . S
C1854 H1846 0.950 . S
C1854 C1852 1.391 . S
C1854 C1855 1.400 . S
C1855 C1854 1.400 . S
C1855 C1856 1.398 . S
C1855 C1861 1.491 . S
C1856 H1847 0.950 . S
C1856 C1855 1.398 . S
C1856 C1857 1.391 . S
C1857 H1845 0.950 . S
C1857 C1853 1.393 . S
C1857 C1856 1.391 . S
C1858 H1848 0.950 . S
C1858 C1859 1.386 . S
C1858 C1860 1.391 . S
C1859 C1858 1.386 . S
C1859 C1863 1.393 . S
C1860 H1849 0.950 . S
C1860 C1858 1.391 . S
C1860 C1861 1.400 . S
C1861 C1855 1.491 . S
C1861 C1860 1.400 . S
C1861 C1862 1.398 . S
C1862 H1850 0.950 . S
C1862 C1861 1.398 . S
C1862 C1863 1.391 . S
C1863 H1851 0.950 . S
C1863 C1859 1.393 . S
C1863 C1862 1.391 . S
H1864 C1872 0.950 . S
H1865 C1877 0.950 . S
H1866 C1874 0.950 . S
H1867 C1876 0.950 . S
H1868 C1878 0.950 . S
H1869 C1880 0.950 . S
H1870 C1882 0.950 . S
H1871 C1883 0.950 . S
C1872 H1864 0.950 . S
C1872 C1873 1.386 . S
C1872 C1874 1.391 . S
C1873 C1872 1.386 . S
C1873 C1877 1.393 . S
C1874 H1866 0.950 . S
C1874 C1872 1.391 . S
C1874 C1875 1.400 . S
C1875 C1874 1.400 . S
C1875 C1876 1.398 . S
C1875 C1881 1.491 . S
C1876 H1867 0.950 . S
C1876 C1875 1.398 . S
C1876 C1877 1.391 . S
C1877 H1865 0.950 . S
C1877 C1873 1.393 . S
C1877 C1876 1.391 . S
C1878 H1868 0.950 . S
C1878 C1879 1.386 . S
C1878 C1880 1.391 . S
C1879 C1878 1.386 . S
C1879 C1883 1.393 . S
C1880 H1869 0.950 . S
C1880 C1878 1.391 . S
C1880 C1881 1.400 . S
C1881 C1875 1.491 . S
C1881 C1880 1.400 . S
C1881 C1882 1.398 . S
C1882 H1870 0.950 . S
C1882 C1881 1.398 . S
C1882 C1883 1.391 . S
C1883 H1871 0.950 . S
C1883 C1879 1.393 . S
C1883 C1882 1.391 . S
H1884 C1892 0.950 . S
H1885 C1897 0.950 . S
H1886 C1894 0.950 . S
H1887 C1896 0.950 . S
H1888 C1898 0.950 . S
H1889 C1900 0.950 . S
H1890 C1902 0.950 . S
H1891 C1903 0.950 . S
C1892 H1884 0.950 . S
C1892 C1893 1.386 . S
C1892 C1894 1.391 . S
C1893 C1892 1.386 . S
C1893 C1897 1.393 . S
C1894 H1886 0.950 . S
C1894 C1892 1.391 . S
C1894 C1895 1.400 . S
C1895 C1894 1.400 . S
C1895 C1896 1.398 . S
C1895 C1901 1.491 . S
C1896 H1887 0.950 . S
C1896 C1895 1.398 . S
C1896 C1897 1.391 . S
C1897 H1885 0.950 . S
C1897 C1893 1.393 . S
C1897 C1896 1.391 . S
C1898 H1888 0.950 . S
C1898 C1899 1.386 . S
C1898 C1900 1.391 . S
C1899 C1898 1.386 . S
C1899 C1903 1.393 . S
C1900 H1889 0.950 . S
C1900 C1898 1.391 . S
C1900 C1901 1.400 . S
C1901 C1895 1.491 . S
C1901 C1900 1.400 . S
C1901 C1902 1.398 . S
C1902 H1890 0.950 . S
C1902 C1901 1.398 . S
C1902 C1903 1.391 . S
C1903 H1891 0.950 . S
C1903 C1899 1.393 . S
C1903 C1902 1.391 . S
H1904 C1912 0.950 . S
H1905 C1917 0.950 . S
H1906 C1914 0.950 . S
H1907 C1916 0.950 . S
H1908 C1918 0.950 . S
H1909 C1920 0.950 . S
H1910 C1922 0.950 . S
H1911 C1923 0.950 . S
C1912 H1904 0.950 . S
C1912 C1913 1.386 . S
C1912 C1914 1.391 . S
C1913 C1912 1.386 . S
C1913 C1917 1.393 . S
C1914 H1906 0.950 . S
C1914 C1912 1.391 . S
C1914 C1915 1.400 . S
C1915 C1914 1.400 . S
C1915 C1916 1.398 . S
C1915 C1921 1.491 . S
C1916 H1907 0.950 . S
C1916 C1915 1.398 . S
C1916 C1917 1.391 . S
C1917 H1905 0.950 . S
C1917 C1913 1.393 . S
C1917 C1916 1.391 . S
C1918 H1908 0.950 . S
C1918 C1919 1.386 . S
C1918 C1920 1.391 . S
C1919 C1918 1.386 . S
C1919 C1923 1.393 . S
C1920 H1909 0.950 . S
C1920 C1918 1.391 . S
C1920 C1921 1.400 . S
C1921 C1915 1.491 . S
C1921 C1920 1.400 . S
C1921 C1922 1.398 . S
C1922 H1910 0.950 . S
C1922 C1921 1.398 . S
C1922 C1923 1.391 . S
C1923 H1911 0.950 . S
C1923 C1919 1.393 . S
C1923 C1922 1.391 . S
H1924 C1932 0.950 . S
H1925 C1937 0.950 . S
H1926 C1934 0.950 . S
H1927 C1936 0.950 . S
H1928 C1938 0.950 . S
H1929 C1940 0.950 . S
H1930 C1942 0.950 . S
H1931 C1943 0.950 . S
C1932 H1924 0.950 . S
C1932 C1933 1.386 . S
C1932 C1934 1.391 . S
C1933 C1932 1.386 . S
C1933 C1937 1.393 . S
C1934 H1926 0.950 . S
C1934 C1932 1.391 . S
C1934 C1935 1.400 . S
C1935 C1934 1.400 . S
C1935 C1936 1.398 . S
C1935 C1941 1.491 . S
C1936 H1927 0.950 . S
C1936 C1935 1.398 . S
C1936 C1937 1.391 . S
C1937 H1925 0.950 . S
C1937 C1933 1.393 . S
C1937 C1936 1.391 . S
C1938 H1928 0.950 . S
C1938 C1939 1.386 . S
C1938 C1940 1.391 . S
C1939 C1938 1.386 . S
C1939 C1943 1.393 . S
C1940 H1929 0.950 . S
C1940 C1938 1.391 . S
C1940 C1941 1.400 . S
C1941 C1935 1.491 . S
C1941 C1940 1.400 . S
C1941 C1942 1.398 . S
C1942 H1930 0.950 . S
C1942 C1941 1.398 . S
C1942 C1943 1.391 . S
C1943 H1931 0.950 . S
C1943 C1939 1.393 . S
C1943 C1942 1.391 . S
H1944 C1952 0.950 . S
H1945 C1957 0.950 . S
H1946 C1954 0.950 . S
H1947 C1956 0.950 . S
H1948 C1958 0.950 . S
H1949 C1960 0.950 . S
H1950 C1962 0.950 . S
H1951 C1963 0.950 . S
C1952 H1944 0.950 . S
C1952 C1953 1.386 . S
C1952 C1954 1.391 . S
C1953 C1952 1.386 . S
C1953 C1957 1.393 . S
C1954 H1946 0.950 . S
C1954 C1952 1.391 . S
C1954 C1955 1.400 . S
C1955 C1954 1.400 . S
C1955 C1956 1.398 . S
C1955 C1961 1.491 . S
C1956 H1947 0.950 . S
C1956 C1955 1.398 . S
C1956 C1957 1.391 . S
C1957 H1945 0.950 . S
C1957 C1953 1.393 . S
C1957 C1956 1.391 . S
C1958 H1948 0.950 . S
C1958 C1959 1.386 . S
C1958 C1960 1.391 . S
C1959 C1958 1.386 . S
C1959 C1963 1.393 . S
C1960 H1949 0.950 . S
C1960 C1958 1.391 . S
C1960 C1961 1.400 . S
C1961 C1955 1.491 . S
C1961 C1960 1.400 . S
C1961 C1962 1.398 . S
C1962 H1950 0.950 . S
C1962 C1961 1.398 . S
C1962 C1963 1.391 . S
C1963 H1951 0.950 . S
C1963 C1959 1.393 . S
C1963 C1962 1.391 . S
H1964 C1972 0.950 . S
H1965 C1977 0.950 . S
H1966 C1974 0.950 . S
H1967 C1976 0.950 . S
H1968 C1978 0.950 . S
H1969 C1980 0.950 . S
H1970 C1982 0.950 . S
H1971 C1983 0.950 . S
C1972 H1964 0.950 . S
C1972 C1973 1.386 . S
C1972 C1974 1.391 . S
C1973 C1972 1.386 . S
C1973 C1977 1.393 . S
C1974 H1966 0.950 . S
C1974 C1972 1.391 . S
C1974 C1975 1.400 . S
C1975 C1974 1.400 . S
C1975 C1976 1.398 . S
C1975 C1981 1.491 . S
C1976 H1967 0.950 . S
C1976 C1975 1.398 . S
C1976 C1977 1.391 . S
C1977 H1965 0.950 . S
C1977 C1973 1.393 . S
C1977 C1976 1.391 . S
C1978 H1968 0.950 . S
C1978 C1979 1.386 . S
C1978 C1980 1.391 . S
C1979 C1978 1.386 . S
C1979 C1983 1.393 . S
C1980 H1969 0.950 . S
C1980 C1978 1.391 . S
C1980 C1981 1.400 . S
C1981 C1975 1.491 . S
C1981 C1980 1.400 . S
C1981 C1982 1.398 . S
C1982 H1970 0.950 . S
C1982 C1981 1.398 . S
C1982 C1983 1.391 . S
C1983 H1971 0.950 . S
C1983 C1979 1.393 . S
C1983 C1982 1.391 . S
H1984 C1992 0.950 . S
H1985 C1997 0.950 . S
H1986 C1994 0.950 . S
H1987 C1996 0.950 . S
H1988 C1998 0.950 . S
H1989 C2000 0.950 . S
H1990 C2002 0.950 . S
H1991 C2003 0.950 . S
C1992 H1984 0.950 . S
C1992 C1993 1.386 . S
C1992 C1994 1.391 . S
C1993 C1992 1.386 . S
C1993 C1997 1.393 . S
C1994 H1986 0.950 . S
C1994 C1992 1.391 . S
C1994 C1995 1.400 . S
C1995 C1994 1.400 . S
C1995 C1996 1.398 . S
C1995 C2001 1.491 . S
C1996 H1987 0.950 . S
C1996 C1995 1.398 . S
C1996 C1997 1.391 . S
C1997 H1985 0.950 . S
C1997 C1993 1.393 . S
C1997 C1996 1.391 . S
C1998 H1988 0.950 . S
C1998 C1999 1.386 . S
C1998 C2000 1.391 . S
C1999 C1998 1.386 . S
C1999 C2003 1.393 . S
C2000 H1989 0.950 . S
C2000 C1998 1.391 . S
C2000 C2001 1.400 . S
C2001 C1995 1.491 . S
C2001 C2000 1.400 . S
C2001 C2002 1.398 . S
C2002 H1990 0.950 . S
C2002 C2001 1.398 . S
C2002 C2003 1.391 . S
C2003 H1991 0.950 . S
C2003 C1999 1.393 . S
C2003 C2002 1.391 . S
H2004 C2012 0.950 . S
H2005 C2017 0.950 . S
H2006 C2014 0.950 . S
H2007 C2016 0.950 . S
H2008 C2018 0.950 . S
H2009 C2020 0.950 . S
H2010 C2022 0.950 . S
H2011 C2023 0.950 . S
C2012 H2004 0.950 . S
C2012 C2013 1.386 . S
C2012 C2014 1.391 . S
C2013 C2012 1.386 . S
C2013 C2017 1.393 . S
C2014 H2006 0.950 . S
C2014 C2012 1.391 . S
C2014 C2015 1.400 . S
C2015 C2014 1.400 . S
C2015 C2016 1.398 . S
C2015 C2021 1.491 . S
C2016 H2007 0.950 . S
C2016 C2015 1.398 . S
C2016 C2017 1.391 . S
C2017 H2005 0.950 . S
C2017 C2013 1.393 . S
C2017 C2016 1.391 . S
C2018 H2008 0.950 . S
C2018 C2019 1.386 . S
C2018 C2020 1.391 . S
C2019 C2018 1.386 . S
C2019 C2023 1.393 . S
C2020 H2009 0.950 . S
C2020 C2018 1.391 . S
C2020 C2021 1.400 . S
C2021 C2015 1.491 . S
C2021 C2020 1.400 . S
C2021 C2022 1.398 . S
C2022 H2010 0.950 . S
C2022 C2021 1.398 . S
C2022 C2023 1.391 . S
C2023 H2011 0.950 . S
C2023 C2019 1.393 . S
C2023 C2022 1.391 . S
H2024 C2032 0.950 . S
H2025 C2037 0.950 . S
H2026 C2034 0.950 . S
H2027 C2036 0.950 . S
H2028 C2038 0.950 . S
H2029 C2040 0.950 . S
H2030 C2042 0.950 . S
H2031 C2043 0.950 . S
C2032 H2024 0.950 . S
C2032 C2033 1.386 . S
C2032 C2034 1.391 . S
C2033 C2032 1.386 . S
C2033 C2037 1.393 . S
C2034 H2026 0.950 . S
C2034 C2032 1.391 . S
C2034 C2035 1.400 . S
C2035 C2034 1.400 . S
C2035 C2036 1.398 . S
C2035 C2041 1.491 . S
C2036 H2027 0.950 . S
C2036 C2035 1.398 . S
C2036 C2037 1.391 . S
C2037 H2025 0.950 . S
C2037 C2033 1.393 . S
C2037 C2036 1.391 . S
C2038 H2028 0.950 . S
C2038 C2039 1.386 . S
C2038 C2040 1.391 . S
C2039 C2038 1.386 . S
C2039 C2043 1.393 . S
C2040 H2029 0.950 . S
C2040 C2038 1.391 . S
C2040 C2041 1.400 . S
C2041 C2035 1.491 . S
C2041 C2040 1.400 . S
C2041 C2042 1.398 . S
C2042 H2030 0.950 . S
C2042 C2041 1.398 . S
C2042 C2043 1.391 . S
C2043 H2031 0.950 . S
C2043 C2039 1.393 . S
C2043 C2042 1.391 . S
H2044 C2052 0.950 . S
H2045 C2057 0.950 . S
H2046 C2054 0.950 . S
H2047 C2056 0.950 . S
H2048 C2058 0.950 . S
H2049 C2060 0.950 . S
H2050 C2062 0.950 . S
H2051 C2063 0.950 . S
C2052 H2044 0.950 . S
C2052 C2053 1.386 . S
C2052 C2054 1.391 . S
C2053 C2052 1.386 . S
C2053 C2057 1.393 . S
C2054 H2046 0.950 . S
C2054 C2052 1.391 . S
C2054 C2055 1.400 . S
C2055 C2054 1.400 . S
C2055 C2056 1.398 . S
C2055 C2061 1.491 . S
C2056 H2047 0.950 . S
C2056 C2055 1.398 . S
C2056 C2057 1.391 . S
C2057 H2045 0.950 . S
C2057 C2053 1.393 . S
C2057 C2056 1.391 . S
C2058 H2048 0.950 . S
C2058 C2059 1.386 . S
C2058 C2060 1.391 . S
C2059 C2058 1.386 . S
C2059 C2063 1.393 . S
C2060 H2049 0.950 . S
C2060 C2058 1.391 . S
C2060 C2061 1.400 . S
C2061 C2055 1.491 . S
C2061 C2060 1.400 . S
C2061 C2062 1.398 . S
C2062 H2050 0.950 . S
C2062 C2061 1.398 . S
C2062 C2063 1.391 . S
C2063 H2051 0.950 . S
C2063 C2059 1.393 . S
C2063 C2062 1.391 . S
H2064 C2072 0.950 . S
H2065 C2077 0.950 . S
H2066 C2074 0.950 . S
H2067 C2076 0.950 . S
H2068 C2078 0.950 . S
H2069 C2080 0.950 . S
H2070 C2082 0.950 . S
H2071 C2083 0.950 . S
C2072 H2064 0.950 . S
C2072 C2073 1.386 . S
C2072 C2074 1.391 . S
C2073 C2072 1.386 . S
C2073 C2077 1.393 . S
C2074 H2066 0.950 . S
C2074 C2072 1.391 . S
C2074 C2075 1.400 . S
C2075 C2074 1.400 . S
C2075 C2076 1.398 . S
C2075 C2081 1.491 . S
C2076 H2067 0.950 . S
C2076 C2075 1.398 . S
C2076 C2077 1.391 . S
C2077 H2065 0.950 . S
C2077 C2073 1.393 . S
C2077 C2076 1.391 . S
C2078 H2068 0.950 . S
C2078 C2079 1.386 . S
C2078 C2080 1.391 . S
C2079 C2078 1.386 . S
C2079 C2083 1.393 . S
C2080 H2069 0.950 . S
C2080 C2078 1.391 . S
C2080 C2081 1.400 . S
C2081 C2075 1.491 . S
C2081 C2080 1.400 . S
C2081 C2082 1.398 . S
C2082 H2070 0.950 . S
C2082 C2081 1.398 . S
C2082 C2083 1.391 . S
C2083 H2071 0.950 . S
C2083 C2079 1.393 . S
C2083 C2082 1.391 . S
H2084 C2092 0.950 . S
H2085 C2097 0.950 . S
H2086 C2094 0.950 . S
H2087 C2096 0.950 . S
H2088 C2098 0.950 . S
H2089 C2100 0.950 . S
H2090 C2102 0.950 . S
H2091 C2103 0.950 . S
C2092 H2084 0.950 . S
C2092 C2093 1.386 . S
C2092 C2094 1.391 . S
C2093 C2092 1.386 . S
C2093 C2097 1.393 . S
C2094 H2086 0.950 . S
C2094 C2092 1.391 . S
C2094 C2095 1.400 . S
C2095 C2094 1.400 . S
C2095 C2096 1.398 . S
C2095 C2101 1.491 . S
C2096 H2087 0.950 . S
C2096 C2095 1.398 . S
C2096 C2097 1.391 . S
C2097 H2085 0.950 . S
C2097 C2093 1.393 . S
C2097 C2096 1.391 . S
C2098 H2088 0.950 . S
C2098 C2099 1.386 . S
C2098 C2100 1.391 . S
C2099 C2098 1.386 . S
C2099 C2103 1.393 . S
C2100 H2089 0.950 . S
C2100 C2098 1.391 . S
C2100 C2101 1.400 . S
C2101 C2095 1.491 . S
C2101 C2100 1.400 . S
C2101 C2102 1.398 . S
C2102 H2090 0.950 . S
C2102 C2101 1.398 . S
C2102 C2103 1.391 . S
C2103 H2091 0.950 . S
C2103 C2099 1.393 . S
C2103 C2102 1.391 . S
H2104 C2112 0.950 . S
H2105 C2117 0.950 . S
H2106 C2114 0.950 . S
H2107 C2116 0.950 . S
H2108 C2118 0.950 . S
H2109 C2120 0.950 . S
H2110 C2122 0.950 . S
H2111 C2123 0.950 . S
C2112 H2104 0.950 . S
C2112 C2113 1.386 . S
C2112 C2114 1.391 . S
C2113 C2112 1.386 . S
C2113 C2117 1.393 . S
C2114 H2106 0.950 . S
C2114 C2112 1.391 . S
C2114 C2115 1.400 . S
C2115 C2114 1.400 . S
C2115 C2116 1.398 . S
C2115 C2121 1.491 . S
C2116 H2107 0.950 . S
C2116 C2115 1.398 . S
C2116 C2117 1.391 . S
C2117 H2105 0.950 . S
C2117 C2113 1.393 . S
C2117 C2116 1.391 . S
C2118 H2108 0.950 . S
C2118 C2119 1.386 . S
C2118 C2120 1.391 . S
C2119 C2118 1.386 . S
C2119 C2123 1.393 . S
C2120 H2109 0.950 . S
C2120 C2118 1.391 . S
C2120 C2121 1.400 . S
C2121 C2115 1.491 . S
C2121 C2120 1.400 . S
C2121 C2122 1.398 . S
C2122 H2110 0.950 . S
C2122 C2121 1.398 . S
C2122 C2123 1.391 . S
C2123 H2111 0.950 . S
C2123 C2119 1.393 . S
C2123 C2122 1.391 . S
H2124 C2132 0.950 . S
H2125 C2137 0.950 . S
H2126 C2134 0.950 . S
H2127 C2136 0.950 . S
H2128 C2138 0.950 . S
H2129 C2140 0.950 . S
H2130 C2142 0.950 . S
H2131 C2143 0.950 . S
C2132 H2124 0.950 . S
C2132 C2133 1.386 . S
C2132 C2134 1.391 . S
C2133 C2132 1.386 . S
C2133 C2137 1.393 . S
C2134 H2126 0.950 . S
C2134 C2132 1.391 . S
C2134 C2135 1.400 . S
C2135 C2134 1.400 . S
C2135 C2136 1.398 . S
C2135 C2141 1.491 . S
C2136 H2127 0.950 . S
C2136 C2135 1.398 . S
C2136 C2137 1.391 . S
C2137 H2125 0.950 . S
C2137 C2133 1.393 . S
C2137 C2136 1.391 . S
C2138 H2128 0.950 . S
C2138 C2139 1.386 . S
C2138 C2140 1.391 . S
C2139 C2138 1.386 . S
C2139 C2143 1.393 . S
C2140 H2129 0.950 . S
C2140 C2138 1.391 . S
C2140 C2141 1.400 . S
C2141 C2135 1.491 . S
C2141 C2140 1.400 . S
C2141 C2142 1.398 . S
C2142 H2130 0.950 . S
C2142 C2141 1.398 . S
C2142 C2143 1.391 . S
C2143 H2131 0.950 . S
C2143 C2139 1.393 . S
C2143 C2142 1.391 . S
H2144 C2152 0.950 . S
H2145 C2157 0.950 . S
H2146 C2154 0.950 . S
H2147 C2156 0.950 . S
H2148 C2158 0.950 . S
H2149 C2160 0.950 . S
H2150 C2162 0.950 . S
H2151 C2163 0.950 . S
C2152 H2144 0.950 . S
C2152 C2153 1.386 . S
C2152 C2154 1.391 . S
C2153 C2152 1.386 . S
C2153 C2157 1.393 . S
C2154 H2146 0.950 . S
C2154 C2152 1.391 . S
C2154 C2155 1.400 . S
C2155 C2154 1.400 . S
C2155 C2156 1.398 . S
C2155 C2161 1.491 . S
C2156 H2147 0.950 . S
C2156 C2155 1.398 . S
C2156 C2157 1.391 . S
C2157 H2145 0.950 . S
C2157 C2153 1.393 . S
C2157 C2156 1.391 . S
C2158 H2148 0.950 . S
C2158 C2159 1.386 . S
C2158 C2160 1.391 . S
C2159 C2158 1.386 . S
C2159 C2163 1.393 . S
C2160 H2149 0.950 . S
C2160 C2158 1.391 . S
C2160 C2161 1.400 . S
C2161 C2155 1.491 . S
C2161 C2160 1.400 . S
C2161 C2162 1.398 . S
C2162 H2150 0.950 . S
C2162 C2161 1.398 . S
C2162 C2163 1.391 . S
C2163 H2151 0.950 . S
C2163 C2159 1.393 . S
C2163 C2162 1.391 . S
H2164 C2172 0.950 . S
H2165 C2177 0.950 . S
H2166 C2174 0.950 . S
H2167 C2176 0.950 . S
H2168 C2178 0.950 . S
H2169 C2180 0.950 . S
H2170 C2182 0.950 . S
H2171 C2183 0.950 . S
C2172 H2164 0.950 . S
C2172 C2173 1.386 . S
C2172 C2174 1.391 . S
C2173 C2172 1.386 . S
C2173 C2177 1.393 . S
C2174 H2166 0.950 . S
C2174 C2172 1.391 . S
C2174 C2175 1.400 . S
C2175 C2174 1.400 . S
C2175 C2176 1.398 . S
C2175 C2181 1.491 . S
C2176 H2167 0.950 . S
C2176 C2175 1.398 . S
C2176 C2177 1.391 . S
C2177 H2165 0.950 . S
C2177 C2173 1.393 . S
C2177 C2176 1.391 . S
C2178 H2168 0.950 . S
C2178 C2179 1.386 . S
C2178 C2180 1.391 . S
C2179 C2178 1.386 . S
C2179 C2183 1.393 . S
C2180 H2169 0.950 . S
C2180 C2178 1.391 . S
C2180 C2181 1.400 . S
C2181 C2175 1.491 . S
C2181 C2180 1.400 . S
C2181 C2182 1.398 . S
C2182 H2170 0.950 . S
C2182 C2181 1.398 . S
C2182 C2183 1.391 . S
C2183 H2171 0.950 . S
C2183 C2179 1.393 . S
C2183 C2182 1.391 . S
H2184 C2192 0.950 . S
H2185 C2197 0.950 . S
H2186 C2194 0.950 . S
H2187 C2196 0.950 . S
H2188 C2198 0.950 . S
H2189 C2200 0.950 . S
H2190 C2202 0.950 . S
H2191 C2203 0.950 . S
C2192 H2184 0.950 . S
C2192 C2193 1.386 . S
C2192 C2194 1.391 . S
C2193 C2192 1.386 . S
C2193 C2197 1.393 . S
C2194 H2186 0.950 . S
C2194 C2192 1.391 . S
C2194 C2195 1.400 . S
C2195 C2194 1.400 . S
C2195 C2196 1.398 . S
C2195 C2201 1.491 . S
C2196 H2187 0.950 . S
C2196 C2195 1.398 . S
C2196 C2197 1.391 . S
C2197 H2185 0.950 . S
C2197 C2193 1.393 . S
C2197 C2196 1.391 . S
C2198 H2188 0.950 . S
C2198 C2199 1.386 . S
C2198 C2200 1.391 . S
C2199 C2198 1.386 . S
C2199 C2203 1.393 . S
C2200 H2189 0.950 . S
C2200 C2198 1.391 . S
C2200 C2201 1.400 . S
C2201 C2195 1.491 . S
C2201 C2200 1.400 . S
C2201 C2202 1.398 . S
C2202 H2190 0.950 . S
C2202 C2201 1.398 . S
C2202 C2203 1.391 . S
C2203 H2191 0.950 . S
C2203 C2199 1.393 . S
C2203 C2202 1.391 . S
H2204 C2212 0.950 . S
H2205 C2217 0.950 . S
H2206 C2214 0.950 . S
H2207 C2216 0.950 . S
H2208 C2218 0.950 . S
H2209 C2220 0.950 . S
H2210 C2222 0.950 . S
H2211 C2223 0.950 . S
C2212 H2204 0.950 . S
C2212 C2213 1.386 . S
C2212 C2214 1.391 . S
C2213 C2212 1.386 . S
C2213 C2217 1.393 . S
C2214 H2206 0.950 . S
C2214 C2212 1.391 . S
C2214 C2215 1.400 . S
C2215 C2214 1.400 . S
C2215 C2216 1.398 . S
C2215 C2221 1.491 . S
C2216 H2207 0.950 . S
C2216 C2215 1.398 . S
C2216 C2217 1.391 . S
C2217 H2205 0.950 . S
C2217 C2213 1.393 . S
C2217 C2216 1.391 . S
C2218 H2208 0.950 . S
C2218 C2219 1.386 . S
C2218 C2220 1.391 . S
C2219 C2218 1.386 . S
C2219 C2223 1.393 . S
C2220 H2209 0.950 . S
C2220 C2218 1.391 . S
C2220 C2221 1.400 . S
C2221 C2215 1.491 . S
C2221 C2220 1.400 . S
C2221 C2222 1.398 . S
C2222 H2210 0.950 . S
C2222 C2221 1.398 . S
C2222 C2223 1.391 . S
C2223 H2211 0.950 . S
C2223 C2219 1.393 . S
C2223 C2222 1.391 . S
H2224 C2232 0.950 . S
H2225 C2237 0.950 . S
H2226 C2234 0.950 . S
H2227 C2236 0.950 . S
H2228 C2238 0.950 . S
H2229 C2240 0.950 . S
H2230 C2242 0.950 . S
H2231 C2243 0.950 . S
C2232 H2224 0.950 . S
C2232 C2233 1.386 . S
C2232 C2234 1.391 . S
C2233 C2232 1.386 . S
C2233 C2237 1.393 . S
C2234 H2226 0.950 . S
C2234 C2232 1.391 . S
C2234 C2235 1.400 . S
C2235 C2234 1.400 . S
C2235 C2236 1.398 . S
C2235 C2241 1.491 . S
C2236 H2227 0.950 . S
C2236 C2235 1.398 . S
C2236 C2237 1.391 . S
C2237 H2225 0.950 . S
C2237 C2233 1.393 . S
C2237 C2236 1.391 . S
C2238 H2228 0.950 . S
C2238 C2239 1.386 . S
C2238 C2240 1.391 . S
C2239 C2238 1.386 . S
C2239 C2243 1.393 . S
C2240 H2229 0.950 . S
C2240 C2238 1.391 . S
C2240 C2241 1.400 . S
C2241 C2235 1.491 . S
C2241 C2240 1.400 . S
C2241 C2242 1.398 . S
C2242 H2230 0.950 . S
C2242 C2241 1.398 . S
C2242 C2243 1.391 . S
C2243 H2231 0.950 . S
C2243 C2239 1.393 . S
C2243 C2242 1.391 . S
H2244 C2252 0.950 . S
H2245 C2257 0.950 . S
H2246 C2254 0.950 . S
H2247 C2256 0.950 . S
H2248 C2258 0.950 . S
H2249 C2260 0.950 . S
H2250 C2262 0.950 . S
H2251 C2263 0.950 . S
C2252 H2244 0.950 . S
C2252 C2253 1.386 . S
C2252 C2254 1.391 . S
C2253 C2252 1.386 . S
C2253 C2257 1.393 . S
C2254 H2246 0.950 . S
C2254 C2252 1.391 . S
C2254 C2255 1.400 . S
C2255 C2254 1.400 . S
C2255 C2256 1.398 . S
C2255 C2261 1.491 . S
C2256 H2247 0.950 . S
C2256 C2255 1.398 . S
C2256 C2257 1.391 . S
C2257 H2245 0.950 . S
C2257 C2253 1.393 . S
C2257 C2256 1.391 . S
C2258 H2248 0.950 . S
C2258 C2259 1.386 . S
C2258 C2260 1.391 . S
C2259 C2258 1.386 . S
C2259 C2263 1.393 . S
C2260 H2249 0.950 . S
C2260 C2258 1.391 . S
C2260 C2261 1.400 . S
C2261 C2255 1.491 . S
C2261 C2260 1.400 . S
C2261 C2262 1.398 . S
C2262 H2250 0.950 . S
C2262 C2261 1.398 . S
C2262 C2263 1.391 . S
C2263 H2251 0.950 . S
C2263 C2259 1.393 . S
C2263 C2262 1.391 . S
H2264 C2272 0.950 . S
H2265 C2277 0.950 . S
H2266 C2274 0.950 . S
H2267 C2276 0.950 . S
H2268 C2278 0.950 . S
H2269 C2280 0.950 . S
H2270 C2282 0.950 . S
H2271 C2283 0.950 . S
C2272 H2264 0.950 . S
C2272 C2273 1.386 . S
C2272 C2274 1.391 . S
C2273 C2272 1.386 . S
C2273 C2277 1.393 . S
C2274 H2266 0.950 . S
C2274 C2272 1.391 . S
C2274 C2275 1.400 . S
C2275 C2274 1.400 . S
C2275 C2276 1.398 . S
C2275 C2281 1.491 . S
C2276 H2267 0.950 . S
C2276 C2275 1.398 . S
C2276 C2277 1.391 . S
C2277 H2265 0.950 . S
C2277 C2273 1.393 . S
C2277 C2276 1.391 . S
C2278 H2268 0.950 . S
C2278 C2279 1.386 . S
C2278 C2280 1.391 . S
C2279 C2278 1.386 . S
C2279 C2283 1.393 . S
C2280 H2269 0.950 . S
C2280 C2278 1.391 . S
C2280 C2281 1.400 . S
C2281 C2275 1.491 . S
C2281 C2280 1.400 . S
C2281 C2282 1.398 . S
C2282 H2270 0.950 . S
C2282 C2281 1.398 . S
C2282 C2283 1.391 . S
C2283 H2271 0.950 . S
C2283 C2279 1.393 . S
C2283 C2282 1.391 . S
H2284 C2292 0.950 . S
H2285 C2297 0.950 . S
H2286 C2294 0.950 . S
H2287 C2296 0.950 . S
H2288 C2298 0.950 . S
H2289 C2300 0.950 . S
H2290 C2302 0.950 . S
H2291 C2303 0.950 . S
C2292 H2284 0.950 . S
C2292 C2293 1.386 . S
C2292 C2294 1.391 . S
C2293 C2292 1.386 . S
C2293 C2297 1.393 . S
C2294 H2286 0.950 . S
C2294 C2292 1.391 . S
C2294 C2295 1.400 . S
C2295 C2294 1.400 . S
C2295 C2296 1.398 . S
C2295 C2301 1.491 . S
C2296 H2287 0.950 . S
C2296 C2295 1.398 . S
C2296 C2297 1.391 . S
C2297 H2285 0.950 . S
C2297 C2293 1.393 . S
C2297 C2296 1.391 . S
C2298 H2288 0.950 . S
C2298 C2299 1.386 . S
C2298 C2300 1.391 . S
C2299 C2298 1.386 . S
C2299 C2303 1.393 . S
C2300 H2289 0.950 . S
C2300 C2298 1.391 . S
C2300 C2301 1.400 . S
C2301 C2295 1.491 . S
C2301 C2300 1.400 . S
C2301 C2302 1.398 . S
C2302 H2290 0.950 . S
C2302 C2301 1.398 . S
C2302 C2303 1.391 . S
C2303 H2291 0.950 . S
C2303 C2299 1.393 . S
C2303 C2302 1.391 . S
H2304 C2312 0.950 . S
H2305 C2317 0.950 . S
H2306 C2314 0.950 . S
H2307 C2316 0.950 . S
H2308 C2318 0.950 . S
H2309 C2320 0.950 . S
H2310 C2322 0.950 . S
H2311 C2323 0.950 . S
C2312 H2304 0.950 . S
C2312 C2313 1.386 . S
C2312 C2314 1.391 . S
C2313 C2312 1.386 . S
C2313 C2317 1.393 . S
C2314 H2306 0.950 . S
C2314 C2312 1.391 . S
C2314 C2315 1.400 . S
C2315 C2314 1.400 . S
C2315 C2316 1.398 . S
C2315 C2321 1.491 . S
C2316 H2307 0.950 . S
C2316 C2315 1.398 . S
C2316 C2317 1.391 . S
C2317 H2305 0.950 . S
C2317 C2313 1.393 . S
C2317 C2316 1.391 . S
C2318 H2308 0.950 . S
C2318 C2319 1.386 . S
C2318 C2320 1.391 . S
C2319 C2318 1.386 . S
C2319 C2323 1.393 . S
C2320 H2309 0.950 . S
C2320 C2318 1.391 . S
C2320 C2321 1.400 . S
C2321 C2315 1.491 . S
C2321 C2320 1.400 . S
C2321 C2322 1.398 . S
C2322 H2310 0.950 . S
C2322 C2321 1.398 . S
C2322 C2323 1.391 . S
C2323 H2311 0.950 . S
C2323 C2319 1.393 . S
C2323 C2322 1.391 . S
H2324 C2332 0.950 . S
H2325 C2337 0.950 . S
H2326 C2334 0.950 . S
H2327 C2336 0.950 . S
H2328 C2338 0.950 . S
H2329 C2340 0.950 . S
H2330 C2342 0.950 . S
H2331 C2343 0.950 . S
C2332 H2324 0.950 . S
C2332 C2333 1.386 . S
C2332 C2334 1.391 . S
C2333 C2332 1.386 . S
C2333 C2337 1.393 . S
C2334 H2326 0.950 . S
C2334 C2332 1.391 . S
C2334 C2335 1.400 . S
C2335 C2334 1.400 . S
C2335 C2336 1.398 . S
C2335 C2341 1.491 . S
C2336 H2327 0.950 . S
C2336 C2335 1.398 . S
C2336 C2337 1.391 . S
C2337 H2325 0.950 . S
C2337 C2333 1.393 . S
C2337 C2336 1.391 . S
C2338 H2328 0.950 . S
C2338 C2339 1.386 . S
C2338 C2340 1.391 . S
C2339 C2338 1.386 . S
C2339 C2343 1.393 . S
C2340 H2329 0.950 . S
C2340 C2338 1.391 . S
C2340 C2341 1.400 . S
C2341 C2335 1.491 . S
C2341 C2340 1.400 . S
C2341 C2342 1.398 . S
C2342 H2330 0.950 . S
C2342 C2341 1.398 . S
C2342 C2343 1.391 . S
C2343 H2331 0.950 . S
C2343 C2339 1.393 . S
C2343 C2342 1.391 . S
H2344 C2352 0.950 . S
H2345 C2357 0.950 . S
H2346 C2354 0.950 . S
H2347 C2356 0.950 . S
H2348 C2358 0.950 . S
H2349 C2360 0.950 . S
H2350 C2362 0.950 . S
H2351 C2363 0.950 . S
C2352 H2344 0.950 . S
C2352 C2353 1.386 . S
C2352 C2354 1.391 . S
C2353 C2352 1.386 . S
C2353 C2357 1.393 . S
C2354 H2346 0.950 . S
C2354 C2352 1.391 . S
C2354 C2355 1.400 . S
C2355 C2354 1.400 . S
C2355 C2356 1.398 . S
C2355 C2361 1.491 . S
C2356 H2347 0.950 . S
C2356 C2355 1.398 . S
C2356 C2357 1.391 . S
C2357 H2345 0.950 . S
C2357 C2353 1.393 . S
C2357 C2356 1.391 . S
C2358 H2348 0.950 . S
C2358 C2359 1.386 . S
C2358 C2360 1.391 . S
C2359 C2358 1.386 . S
C2359 C2363 1.393 . S
C2360 H2349 0.950 . S
C2360 C2358 1.391 . S
C2360 C2361 1.400 . S
C2361 C2355 1.491 . S
C2361 C2360 1.400 . S
C2361 C2362 1.398 . S
C2362 H2350 0.950 . S
C2362 C2361 1.398 . S
C2362 C2363 1.391 . S
C2363 H2351 0.950 . S
C2363 C2359 1.393 . S
C2363 C2362 1.391 . S
H2364 C2372 0.950 . S
H2365 C2377 0.950 . S
H2366 C2374 0.950 . S
H2367 C2376 0.950 . S
H2368 C2378 0.950 . S
H2369 C2380 0.950 . S
H2370 C2382 0.950 . S
H2371 C2383 0.950 . S
C2372 H2364 0.950 . S
C2372 C2373 1.386 . S
C2372 C2374 1.391 . S
C2373 C2372 1.386 . S
C2373 C2377 1.393 . S
C2374 H2366 0.950 . S
C2374 C2372 1.391 . S
C2374 C2375 1.400 . S
C2375 C2374 1.400 . S
C2375 C2376 1.398 . S
C2375 C2381 1.491 . S
C2376 H2367 0.950 . S
C2376 C2375 1.398 . S
C2376 C2377 1.391 . S
C2377 H2365 0.950 . S
C2377 C2373 1.393 . S
C2377 C2376 1.391 . S
C2378 H2368 0.950 . S
C2378 C2379 1.386 . S
C2378 C2380 1.391 . S
C2379 C2378 1.386 . S
C2379 C2383 1.393 . S
C2380 H2369 0.950 . S
C2380 C2378 1.391 . S
C2380 C2381 1.400 . S
C2381 C2375 1.491 . S
C2381 C2380 1.400 . S
C2381 C2382 1.398 . S
C2382 H2370 0.950 . S
C2382 C2381 1.398 . S
C2382 C2383 1.391 . S
C2383 H2371 0.950 . S
C2383 C2379 1.393 . S
C2383 C2382 1.391 . S
H2384 C2392 0.950 . S
H2385 C2397 0.950 . S
H2386 C2394 0.950 . S
H2387 C2396 0.950 . S
H2388 C2398 0.950 . S
H2389 C2400 0.950 . S
H2390 C2402 0.950 . S
H2391 C2403 0.950 . S
C2392 H2384 0.950 . S
C2392 C2393 1.386 . S
C2392 C2394 1.391 . S
C2393 C2392 1.386 . S
C2393 C2397 1.393 . S
C2394 H2386 0.950 . S
C2394 C2392 1.391 . S
C2394 C2395 1.400 . S
C2395 C2394 1.400 . S
C2395 C2396 1.398 . S
C2395 C2401 1.491 . S
C2396 H2387 0.950 . S
C2396 C2395 1.398 . S
C2396 C2397 1.391 . S
C2397 H2385 0.950 . S
C2397 C2393 1.393 . S
C2397 C2396 1.391 . S
C2398 H2388 0.950 . S
C2398 C2399 1.386 . S
C2398 C2400 1.391 . S
C2399 C2398 1.386 . S
C2399 C2403 1.393 . S
C2400 H2389 0.950 . S
C2400 C2398 1.391 . S
C2400 C2401 1.400 . S
C2401 C2395 1.491 . S
C2401 C2400 1.400 . S
C2401 C2402 1.398 . S
C2402 H2390 0.950 . S
C2402 C2401 1.398 . S
C2402 C2403 1.391 . S
C2403 H2391 0.950 . S
C2403 C2399 1.393 . S
C2403 C2402 1.391 . S
H2404 C2412 0.950 . S
H2405 C2417 0.950 . S
H2406 C2414 0.950 . S
H2407 C2416 0.950 . S
H2408 C2418 0.950 . S
H2409 C2420 0.950 . S
H2410 C2422 0.950 . S
H2411 C2423 0.950 . S
C2412 H2404 0.950 . S
C2412 C2413 1.386 . S
C2412 C2414 1.391 . S
C2413 C2412 1.386 . S
C2413 C2417 1.393 . S
C2414 H2406 0.950 . S
C2414 C2412 1.391 . S
C2414 C2415 1.400 . S
C2415 C2414 1.400 . S
C2415 C2416 1.398 . S
C2415 C2421 1.491 . S
C2416 H2407 0.950 . S
C2416 C2415 1.398 . S
C2416 C2417 1.391 . S
C2417 H2405 0.950 . S
C2417 C2413 1.393 . S
C2417 C2416 1.391 . S
C2418 H2408 0.950 . S
C2418 C2419 1.386 . S
C2418 C2420 1.391 . S
C2419 C2418 1.386 . S
C2419 C2423 1.393 . S
C2420 H2409 0.950 . S
C2420 C2418 1.391 . S
C2420 C2421 1.400 . S
C2421 C2415 1.491 . S
C2421 C2420 1.400 . S
C2421 C2422 1.398 . S
C2422 H2410 0.950 . S
C2422 C2421 1.398 . S
C2422 C2423 1.391 . S
C2423 H2411 0.950 . S
C2423 C2419 1.393 . S
C2423 C2422 1.391 . S
H2424 C2432 0.950 . S
H2425 C2437 0.950 . S
H2426 C2434 0.950 . S
H2427 C2436 0.950 . S
H2428 C2438 0.950 . S
H2429 C2440 0.950 . S
H2430 C2442 0.950 . S
H2431 C2443 0.950 . S
C2432 H2424 0.950 . S
C2432 C2433 1.386 . S
C2432 C2434 1.391 . S
C2433 C2432 1.386 . S
C2433 C2437 1.393 . S
C2434 H2426 0.950 . S
C2434 C2432 1.391 . S
C2434 C2435 1.400 . S
C2435 C2434 1.400 . S
C2435 C2436 1.398 . S
C2435 C2441 1.491 . S
C2436 H2427 0.950 . S
C2436 C2435 1.398 . S
C2436 C2437 1.391 . S
C2437 H2425 0.950 . S
C2437 C2433 1.393 . S
C2437 C2436 1.391 . S
C2438 H2428 0.950 . S
C2438 C2439 1.386 . S
C2438 C2440 1.391 . S
C2439 C2438 1.386 . S
C2439 C2443 1.393 . S
C2440 H2429 0.950 . S
C2440 C2438 1.391 . S
C2440 C2441 1.400 . S
C2441 C2435 1.491 . S
C2441 C2440 1.400 . S
C2441 C2442 1.398 . S
C2442 H2430 0.950 . S
C2442 C2441 1.398 . S
C2442 C2443 1.391 . S
C2443 H2431 0.950 . S
C2443 C2439 1.393 . S
C2443 C2442 1.391 . S
H2444 C2452 0.950 . S
H2445 C2457 0.950 . S
H2446 C2454 0.950 . S
H2447 C2456 0.950 . S
H2448 C2458 0.950 . S
H2449 C2460 0.950 . S
H2450 C2462 0.950 . S
H2451 C2463 0.950 . S
C2452 H2444 0.950 . S
C2452 C2453 1.386 . S
C2452 C2454 1.391 . S
C2453 C2452 1.386 . S
C2453 C2457 1.393 . S
C2454 H2446 0.950 . S
C2454 C2452 1.391 . S
C2454 C2455 1.400 . S
C2455 C2454 1.400 . S
C2455 C2456 1.398 . S
C2455 C2461 1.491 . S
C2456 H2447 0.950 . S
C2456 C2455 1.398 . S
C2456 C2457 1.391 . S
C2457 H2445 0.950 . S
C2457 C2453 1.393 . S
C2457 C2456 1.391 . S
C2458 H2448 0.950 . S
C2458 C2459 1.386 . S
C2458 C2460 1.391 . S
C2459 C2458 1.386 . S
C2459 C2463 1.393 . S
C2460 H2449 0.950 . S
C2460 C2458 1.391 . S
C2460 C2461 1.400 . S
C2461 C2455 1.491 . S
C2461 C2460 1.400 . S
C2461 C2462 1.398 . S
C2462 H2450 0.950 . S
C2462 C2461 1.398 . S
C2462 C2463 1.391 . S
C2463 H2451 0.950 . S
C2463 C2459 1.393 . S
C2463 C2462 1.391 . S
H2464 C2472 0.950 . S
H2465 C2477 0.950 . S
H2466 C2474 0.950 . S
H2467 C2476 0.950 . S
H2468 C2478 0.950 . S
H2469 C2480 0.950 . S
H2470 C2482 0.950 . S
H2471 C2483 0.950 . S
C2472 H2464 0.950 . S
C2472 C2473 1.386 . S
C2472 C2474 1.391 . S
C2473 C2472 1.386 . S
C2473 C2477 1.393 . S
C2474 H2466 0.950 . S
C2474 C2472 1.391 . S
C2474 C2475 1.400 . S
C2475 C2474 1.400 . S
C2475 C2476 1.398 . S
C2475 C2481 1.491 . S
C2476 H2467 0.950 . S
C2476 C2475 1.398 . S
C2476 C2477 1.391 . S
C2477 H2465 0.950 . S
C2477 C2473 1.393 . S
C2477 C2476 1.391 . S
C2478 H2468 0.950 . S
C2478 C2479 1.386 . S
C2478 C2480 1.391 . S
C2479 C2478 1.386 . S
C2479 C2483 1.393 . S
C2480 H2469 0.950 . S
C2480 C2478 1.391 . S
C2480 C2481 1.400 . S
C2481 C2475 1.491 . S
C2481 C2480 1.400 . S
C2481 C2482 1.398 . S
C2482 H2470 0.950 . S
C2482 C2481 1.398 . S
C2482 C2483 1.391 . S
C2483 H2471 0.950 . S
C2483 C2479 1.393 . S
C2483 C2482 1.391 . S
H2484 C2492 0.950 . S
H2485 C2497 0.950 . S
H2486 C2494 0.950 . S
H2487 C2496 0.950 . S
H2488 C2498 0.950 . S
H2489 C2500 0.950 . S
H2490 C2502 0.950 . S
H2491 C2503 0.950 . S
C2492 H2484 0.950 . S
C2492 C2493 1.386 . S
C2492 C2494 1.391 . S
C2493 C2492 1.386 . S
C2493 C2497 1.393 . S
C2494 H2486 0.950 . S
C2494 C2492 1.391 . S
C2494 C2495 1.400 . S
C2495 C2494 1.400 . S
C2495 C2496 1.398 . S
C2495 C2501 1.491 . S
C2496 H2487 0.950 . S
C2496 C2495 1.398 . S
C2496 C2497 1.391 . S
C2497 H2485 0.950 . S
C2497 C2493 1.393 . S
C2497 C2496 1.391 . S
C2498 H2488 0.950 . S
C2498 C2499 1.386 . S
C2498 C2500 1.391 . S
C2499 C2498 1.386 . S
C2499 C2503 1.393 . S
C2500 H2489 0.950 . S
C2500 C2498 1.391 . S
C2500 C2501 1.400 . S
C2501 C2495 1.491 . S
C2501 C2500 1.400 . S
C2501 C2502 1.398 . S
C2502 H2490 0.950 . S
C2502 C2501 1.398 . S
C2502 C2503 1.391 . S
C2503 H2491 0.950 . S
C2503 C2499 1.393 . S
C2503 C2502 1.391 . S
H2504 C2512 0.950 . S
H2505 C2517 0.950 . S
H2506 C2514 0.950 . S
H2507 C2516 0.950 . S
H2508 C2518 0.950 . S
H2509 C2520 0.950 . S
H2510 C2522 0.950 . S
H2511 C2523 0.950 . S
C2512 H2504 0.950 . S
C2512 C2513 1.386 . S
C2512 C2514 1.391 . S
C2513 C2512 1.386 . S
C2513 C2517 1.393 . S
C2514 H2506 0.950 . S
C2514 C2512 1.391 . S
C2514 C2515 1.400 . S
C2515 C2514 1.400 . S
C2515 C2516 1.398 . S
C2515 C2521 1.491 . S
C2516 H2507 0.950 . S
C2516 C2515 1.398 . S
C2516 C2517 1.391 . S
C2517 H2505 0.950 . S
C2517 C2513 1.393 . S
C2517 C2516 1.391 . S
C2518 H2508 0.950 . S
C2518 C2519 1.386 . S
C2518 C2520 1.391 . S
C2519 C2518 1.386 . S
C2519 C2523 1.393 . S
C2520 H2509 0.950 . S
C2520 C2518 1.391 . S
C2520 C2521 1.400 . S
C2521 C2515 1.491 . S
C2521 C2520 1.400 . S
C2521 C2522 1.398 . S
C2522 H2510 0.950 . S
C2522 C2521 1.398 . S
C2522 C2523 1.391 . S
C2523 H2511 0.950 . S
C2523 C2519 1.393 . S
C2523 C2522 1.391 . S
H2524 C2532 0.950 . S
H2525 C2537 0.950 . S
H2526 C2534 0.950 . S
H2527 C2536 0.950 . S
H2528 C2538 0.950 . S
H2529 C2540 0.950 . S
H2530 C2542 0.950 . S
H2531 C2543 0.950 . S
C2532 H2524 0.950 . S
C2532 C2533 1.386 . S
C2532 C2534 1.391 . S
C2533 C2532 1.386 . S
C2533 C2537 1.393 . S
C2534 H2526 0.950 . S
C2534 C2532 1.391 . S
C2534 C2535 1.400 . S
C2535 C2534 1.400 . S
C2535 C2536 1.398 . S
C2535 C2541 1.491 . S
C2536 H2527 0.950 . S
C2536 C2535 1.398 . S
C2536 C2537 1.391 . S
C2537 H2525 0.950 . S
C2537 C2533 1.393 . S
C2537 C2536 1.391 . S
C2538 H2528 0.950 . S
C2538 C2539 1.386 . S
C2538 C2540 1.391 . S
C2539 C2538 1.386 . S
C2539 C2543 1.393 . S
C2540 H2529 0.950 . S
C2540 C2538 1.391 . S
C2540 C2541 1.400 . S
C2541 C2535 1.491 . S
C2541 C2540 1.400 . S
C2541 C2542 1.398 . S
C2542 H2530 0.950 . S
C2542 C2541 1.398 . S
C2542 C2543 1.391 . S
C2543 H2531 0.950 . S
C2543 C2539 1.393 . S
C2543 C2542 1.391 . S
H2544 C2552 0.950 . S
H2545 C2557 0.950 . S
H2546 C2554 0.950 . S
H2547 C2556 0.950 . S
H2548 C2558 0.950 . S
H2549 C2560 0.950 . S
H2550 C2562 0.950 . S
H2551 C2563 0.950 . S
C2552 H2544 0.950 . S
C2552 C2553 1.386 . S
C2552 C2554 1.391 . S
C2553 C2552 1.386 . S
C2553 C2557 1.393 . S
C2554 H2546 0.950 . S
C2554 C2552 1.391 . S
C2554 C2555 1.400 . S
C2555 C2554 1.400 . S
C2555 C2556 1.398 . S
C2555 C2561 1.491 . S
C2556 H2547 0.950 . S
C2556 C2555 1.398 . S
C2556 C2557 1.391 . S
C2557 H2545 0.950 . S
C2557 C2553 1.393 . S
C2557 C2556 1.391 . S
C2558 H2548 0.950 . S
C2558 C2559 1.386 . S
C2558 C2560 1.391 . S
C2559 C2558 1.386 . S
C2559 C2563 1.393 . S
C2560 H2549 0.950 . S
C2560 C2558 1.391 . S
C2560 C2561 1.400 . S
C2561 C2555 1.491 . S
C2561 C2560 1.400 . S
C2561 C2562 1.398 . S
C2562 H2550 0.950 . S
C2562 C2561 1.398 . S
C2562 C2563 1.391 . S
C2563 H2551 0.950 . S
C2563 C2559 1.393 . S
C2563 C2562 1.391 . S
H2564 C2572 0.950 . S
H2565 C2577 0.950 . S
H2566 C2574 0.950 . S
H2567 C2576 0.950 . S
H2568 C2578 0.950 . S
H2569 C2580 0.950 . S
H2570 C2582 0.950 . S
H2571 C2583 0.950 . S
C2572 H2564 0.950 . S
C2572 C2573 1.386 . S
C2572 C2574 1.391 . S
C2573 C2572 1.386 . S
C2573 C2577 1.393 . S
C2574 H2566 0.950 . S
C2574 C2572 1.391 . S
C2574 C2575 1.400 . S
C2575 C2574 1.400 . S
C2575 C2576 1.398 . S
C2575 C2581 1.491 . S
C2576 H2567 0.950 . S
C2576 C2575 1.398 . S
C2576 C2577 1.391 . S
C2577 H2565 0.950 . S
C2577 C2573 1.393 . S
C2577 C2576 1.391 . S
C2578 H2568 0.950 . S
C2578 C2579 1.386 . S
C2578 C2580 1.391 . S
C2579 C2578 1.386 . S
C2579 C2583 1.393 . S
C2580 H2569 0.950 . S
C2580 C2578 1.391 . S
C2580 C2581 1.400 . S
C2581 C2575 1.491 . S
C2581 C2580 1.400 . S
C2581 C2582 1.398 . S
C2582 H2570 0.950 . S
C2582 C2581 1.398 . S
C2582 C2583 1.391 . S
C2583 H2571 0.950 . S
C2583 C2579 1.393 . S
C2583 C2582 1.391 . S
H2584 C2592 0.950 . S
H2585 C2597 0.950 . S
H2586 C2594 0.950 . S
H2587 C2596 0.950 . S
H2588 C2598 0.950 . S
H2589 C2600 0.950 . S
H2590 C2602 0.950 . S
H2591 C2603 0.950 . S
C2592 H2584 0.950 . S
C2592 C2593 1.386 . S
C2592 C2594 1.391 . S
C2593 C2592 1.386 . S
C2593 C2597 1.393 . S
C2594 H2586 0.950 . S
C2594 C2592 1.391 . S
C2594 C2595 1.400 . S
C2595 C2594 1.400 . S
C2595 C2596 1.398 . S
C2595 C2601 1.491 . S
C2596 H2587 0.950 . S
C2596 C2595 1.398 . S
C2596 C2597 1.391 . S
C2597 H2585 0.950 . S
C2597 C2593 1.393 . S
C2597 C2596 1.391 . S
C2598 H2588 0.950 . S
C2598 C2599 1.386 . S
C2598 C2600 1.391 . S
C2599 C2598 1.386 . S
C2599 C2603 1.393 . S
C2600 H2589 0.950 . S
C2600 C2598 1.391 . S
C2600 C2601 1.400 . S
C2601 C2595 1.491 . S
C2601 C2600 1.400 . S
C2601 C2602 1.398 . S
C2602 H2590 0.950 . S
C2602 C2601 1.398 . S
C2602 C2603 1.391 . S
C2603 H2591 0.950 . S
C2603 C2599 1.393 . S
C2603 C2602 1.391 . S
H2604 C2612 0.950 . S
H2605 C2617 0.950 . S
H2606 C2614 0.950 . S
H2607 C2616 0.950 . S
H2608 C2618 0.950 . S
H2609 C2620 0.950 . S
H2610 C2622 0.950 . S
H2611 C2623 0.950 . S
C2612 H2604 0.950 . S
C2612 C2613 1.386 . S
C2612 C2614 1.391 . S
C2613 C2612 1.386 . S
C2613 C2617 1.393 . S
C2614 H2606 0.950 . S
C2614 C2612 1.391 . S
C2614 C2615 1.400 . S
C2615 C2614 1.400 . S
C2615 C2616 1.398 . S
C2615 C2621 1.491 . S
C2616 H2607 0.950 . S
C2616 C2615 1.398 . S
C2616 C2617 1.391 . S
C2617 H2605 0.950 . S
C2617 C2613 1.393 . S
C2617 C2616 1.391 . S
C2618 H2608 0.950 . S
C2618 C2619 1.386 . S
C2618 C2620 1.391 . S
C2619 C2618 1.386 . S
C2619 C2623 1.393 . S
C2620 H2609 0.950 . S
C2620 C2618 1.391 . S
C2620 C2621 1.400 . S
C2621 C2615 1.491 . S
C2621 C2620 1.400 . S
C2621 C2622 1.398 . S
C2622 H2610 0.950 . S
C2622 C2621 1.398 . S
C2622 C2623 1.391 . S
C2623 H2611 0.950 . S
C2623 C2619 1.393 . S
C2623 C2622 1.391 . S
H2624 C2632 0.950 . S
H2625 C2637 0.950 . S
H2626 C2634 0.950 . S
H2627 C2636 0.950 . S
H2628 C2638 0.950 . S
H2629 C2640 0.950 . S
H2630 C2642 0.950 . S
H2631 C2643 0.950 . S
C2632 H2624 0.950 . S
C2632 C2633 1.386 . S
C2632 C2634 1.391 . S
C2633 C2632 1.386 . S
C2633 C2637 1.393 . S
C2634 H2626 0.950 . S
C2634 C2632 1.391 . S
C2634 C2635 1.400 . S
C2635 C2634 1.400 . S
C2635 C2636 1.398 . S
C2635 C2641 1.491 . S
C2636 H2627 0.950 . S
C2636 C2635 1.398 . S
C2636 C2637 1.391 . S
C2637 H2625 0.950 . S
C2637 C2633 1.393 . S
C2637 C2636 1.391 . S
C2638 H2628 0.950 . S
C2638 C2639 1.386 . S
C2638 C2640 1.391 . S
C2639 C2638 1.386 . S
C2639 C2643 1.393 . S
C2640 H2629 0.950 . S
C2640 C2638 1.391 . S
C2640 C2641 1.400 . S
C2641 C2635 1.491 . S
C2641 C2640 1.400 . S
C2641 C2642 1.398 . S
C2642 H2630 0.950 . S
C2642 C2641 1.398 . S
C2642 C2643 1.391 . S
C2643 H2631 0.950 . S
C2643 C2639 1.393 . S
C2643 C2642 1.391 . S
H2644 C2652 0.950 . S
H2645 C2657 0.950 . S
H2646 C2654 0.950 . S
H2647 C2656 0.950 . S
H2648 C2658 0.950 . S
H2649 C2660 0.950 . S
H2650 C2662 0.950 . S
H2651 C2663 0.950 . S
C2652 H2644 0.950 . S
C2652 C2653 1.386 . S
C2652 C2654 1.391 . S
C2653 C2652 1.386 . S
C2653 C2657 1.393 . S
C2654 H2646 0.950 . S
C2654 C2652 1.391 . S
C2654 C2655 1.400 . S
C2655 C2654 1.400 . S
C2655 C2656 1.398 . S
C2655 C2661 1.491 . S
C2656 H2647 0.950 . S
C2656 C2655 1.398 . S
C2656 C2657 1.391 . S
C2657 H2645 0.950 . S
C2657 C2653 1.393 . S
C2657 C2656 1.391 . S
C2658 H2648 0.950 . S
C2658 C2659 1.386 . S
C2658 C2660 1.391 . S
C2659 C2658 1.386 . S
C2659 C2663 1.393 . S
C2660 H2649 0.950 . S
C2660 C2658 1.391 . S
C2660 C2661 1.400 . S
C2661 C2655 1.491 . S
C2661 C2660 1.400 . S
C2661 C2662 1.398 . S
C2662 H2650 0.950 . S
C2662 C2661 1.398 . S
C2662 C2663 1.391 . S
C2663 H2651 0.950 . S
C2663 C2659 1.393 . S
C2663 C2662 1.391 . S
H2664 C2672 0.950 . S
H2665 C2677 0.950 . S
H2666 C2674 0.950 . S
H2667 C2676 0.950 . S
H2668 C2678 0.950 . S
H2669 C2680 0.950 . S
H2670 C2682 0.950 . S
H2671 C2683 0.950 . S
C2672 H2664 0.950 . S
C2672 C2673 1.386 . S
C2672 C2674 1.391 . S
C2673 C2672 1.386 . S
C2673 C2677 1.393 . S
C2674 H2666 0.950 . S
C2674 C2672 1.391 . S
C2674 C2675 1.400 . S
C2675 C2674 1.400 . S
C2675 C2676 1.398 . S
C2675 C2681 1.491 . S
C2676 H2667 0.950 . S
C2676 C2675 1.398 . S
C2676 C2677 1.391 . S
C2677 H2665 0.950 . S
C2677 C2673 1.393 . S
C2677 C2676 1.391 . S
C2678 H2668 0.950 . S
C2678 C2679 1.386 . S
C2678 C2680 1.391 . S
C2679 C2678 1.386 . S
C2679 C2683 1.393 . S
C2680 H2669 0.950 . S
C2680 C2678 1.391 . S
C2680 C2681 1.400 . S
C2681 C2675 1.491 . S
C2681 C2680 1.400 . S
C2681 C2682 1.398 . S
C2682 H2670 0.950 . S
C2682 C2681 1.398 . S
C2682 C2683 1.391 . S
C2683 H2671 0.950 . S
C2683 C2679 1.393 . S
C2683 C2682 1.391 . S
H2684 C2692 0.950 . S
H2685 C2697 0.950 . S
H2686 C2694 0.950 . S
H2687 C2696 0.950 . S
H2688 C2698 0.950 . S
H2689 C2700 0.950 . S
H2690 C2702 0.950 . S
H2691 C2703 0.950 . S
C2692 H2684 0.950 . S
C2692 C2693 1.386 . S
C2692 C2694 1.391 . S
C2693 C2692 1.386 . S
C2693 C2697 1.393 . S
C2694 H2686 0.950 . S
C2694 C2692 1.391 . S
C2694 C2695 1.400 . S
C2695 C2694 1.400 . S
C2695 C2696 1.398 . S
C2695 C2701 1.491 . S
C2696 H2687 0.950 . S
C2696 C2695 1.398 . S
C2696 C2697 1.391 . S
C2697 H2685 0.950 . S
C2697 C2693 1.393 . S
C2697 C2696 1.391 . S
C2698 H2688 0.950 . S
C2698 C2699 1.386 . S
C2698 C2700 1.391 . S
C2699 C2698 1.386 . S
C2699 C2703 1.393 . S
C2700 H2689 0.950 . S
C2700 C2698 1.391 . S
C2700 C2701 1.400 . S
C2701 C2695 1.491 . S
C2701 C2700 1.400 . S
C2701 C2702 1.398 . S
C2702 H2690 0.950 . S
C2702 C2701 1.398 . S
C2702 C2703 1.391 . S
C2703 H2691 0.950 . S
C2703 C2699 1.393 . S
C2703 C2702 1.391 . S
H2704 C2712 0.950 . S
H2705 C2717 0.950 . S
H2706 C2714 0.950 . S
H2707 C2716 0.950 . S
H2708 C2718 0.950 . S
H2709 C2720 0.950 . S
H2710 C2722 0.950 . S
H2711 C2723 0.950 . S
C2712 H2704 0.950 . S
C2712 C2713 1.386 . S
C2712 C2714 1.391 . S
C2713 C2712 1.386 . S
C2713 C2717 1.393 . S
C2714 H2706 0.950 . S
C2714 C2712 1.391 . S
C2714 C2715 1.400 . S
C2715 C2714 1.400 . S
C2715 C2716 1.398 . S
C2715 C2721 1.491 . S
C2716 H2707 0.950 . S
C2716 C2715 1.398 . S
C2716 C2717 1.391 . S
C2717 H2705 0.950 . S
C2717 C2713 1.393 . S
C2717 C2716 1.391 . S
C2718 H2708 0.950 . S
C2718 C2719 1.386 . S
C2718 C2720 1.391 . S
C2719 C2718 1.386 . S
C2719 C2723 1.393 . S
C2720 H2709 0.950 . S
C2720 C2718 1.391 . S
C2720 C2721 1.400 . S
C2721 C2715 1.491 . S
C2721 C2720 1.400 . S
C2721 C2722 1.398 . S
C2722 H2710 0.950 . S
C2722 C2721 1.398 . S
C2722 C2723 1.391 . S
C2723 H2711 0.950 . S
C2723 C2719 1.393 . S
C2723 C2722 1.391 . S
H2724 C2732 0.950 . S
H2725 C2737 0.950 . S
H2726 C2734 0.950 . S
H2727 C2736 0.950 . S
H2728 C2738 0.950 . S
H2729 C2740 0.950 . S
H2730 C2742 0.950 . S
H2731 C2743 0.950 . S
C2732 H2724 0.950 . S
C2732 C2733 1.386 . S
C2732 C2734 1.391 . S
C2733 C2732 1.386 . S
C2733 C2737 1.393 . S
C2734 H2726 0.950 . S
C2734 C2732 1.391 . S
C2734 C2735 1.400 . S
C2735 C2734 1.400 . S
C2735 C2736 1.398 . S
C2735 C2741 1.491 . S
C2736 H2727 0.950 . S
C2736 C2735 1.398 . S
C2736 C2737 1.391 . S
C2737 H2725 0.950 . S
C2737 C2733 1.393 . S
C2737 C2736 1.391 . S
C2738 H2728 0.950 . S
C2738 C2739 1.386 . S
C2738 C2740 1.391 . S
C2739 C2738 1.386 . S
C2739 C2743 1.393 . S
C2740 H2729 0.950 . S
C2740 C2738 1.391 . S
C2740 C2741 1.400 . S
C2741 C2735 1.491 . S
C2741 C2740 1.400 . S
C2741 C2742 1.398 . S
C2742 H2730 0.950 . S
C2742 C2741 1.398 . S
C2742 C2743 1.391 . S
C2743 H2731 0.950 . S
C2743 C2739 1.393 . S
C2743 C2742 1.391 . S
H2744 C2752 0.950 . S
H2745 C2757 0.950 . S
H2746 C2754 0.950 . S
H2747 C2756 0.950 . S
H2748 C2758 0.950 . S
H2749 C2760 0.950 . S
H2750 C2762 0.950 . S
H2751 C2763 0.950 . S
C2752 H2744 0.950 . S
C2752 C2753 1.386 . S
C2752 C2754 1.391 . S
C2753 C2752 1.386 . S
C2753 C2757 1.393 . S
C2754 H2746 0.950 . S
C2754 C2752 1.391 . S
C2754 C2755 1.400 . S
C2755 C2754 1.400 . S
C2755 C2756 1.398 . S
C2755 C2761 1.491 . S
C2756 H2747 0.950 . S
C2756 C2755 1.398 . S
C2756 C2757 1.391 . S
C2757 H2745 0.950 . S
C2757 C2753 1.393 . S
C2757 C2756 1.391 . S
C2758 H2748 0.950 . S
C2758 C2759 1.386 . S
C2758 C2760 1.391 . S
C2759 C2758 1.386 . S
C2759 C2763 1.393 . S
C2760 H2749 0.950 . S
C2760 C2758 1.391 . S
C2760 C2761 1.400 . S
C2761 C2755 1.491 . S
C2761 C2760 1.400 . S
C2761 C2762 1.398 . S
C2762 H2750 0.950 . S
C2762 C2761 1.398 . S
C2762 C2763 1.391 . S
C2763 H2751 0.950 . S
C2763 C2759 1.393 . S
C2763 C2762 1.391 . S
H2764 C2772 0.950 . S
H2765 C2777 0.950 . S
H2766 C2774 0.950 . S
H2767 C2776 0.950 . S
H2768 C2778 0.950 . S
H2769 C2780 0.950 . S
H2770 C2782 0.950 . S
H2771 C2783 0.950 . S
C2772 H2764 0.950 . S
C2772 C2773 1.386 . S
C2772 C2774 1.391 . S
C2773 C2772 1.386 . S
C2773 C2777 1.393 . S
C2774 H2766 0.950 . S
C2774 C2772 1.391 . S
C2774 C2775 1.400 . S
C2775 C2774 1.400 . S
C2775 C2776 1.398 . S
C2775 C2781 1.491 . S
C2776 H2767 0.950 . S
C2776 C2775 1.398 . S
C2776 C2777 1.391 . S
C2777 H2765 0.950 . S
C2777 C2773 1.393 . S
C2777 C2776 1.391 . S
C2778 H2768 0.950 . S
C2778 C2779 1.386 . S
C2778 C2780 1.391 . S
C2779 C2778 1.386 . S
C2779 C2783 1.393 . S
C2780 H2769 0.950 . S
C2780 C2778 1.391 . S
C2780 C2781 1.400 . S
C2781 C2775 1.491 . S
C2781 C2780 1.400 . S
C2781 C2782 1.398 . S
C2782 H2770 0.950 . S
C2782 C2781 1.398 . S
C2782 C2783 1.391 . S
C2783 H2771 0.950 . S
C2783 C2779 1.393 . S
C2783 C2782 1.391 . S
H2784 C2792 0.950 . S
H2785 C2797 0.950 . S
H2786 C2794 0.950 . S
H2787 C2796 0.950 . S
H2788 C2798 0.950 . S
H2789 C2800 0.950 . S
H2790 C2802 0.950 . S
H2791 C2803 0.950 . S
C2792 H2784 0.950 . S
C2792 C2793 1.386 . S
C2792 C2794 1.391 . S
C2793 C2792 1.386 . S
C2793 C2797 1.393 . S
C2794 H2786 0.950 . S
C2794 C2792 1.391 . S
C2794 C2795 1.400 . S
C2795 C2794 1.400 . S
C2795 C2796 1.398 . S
C2795 C2801 1.491 . S
C2796 H2787 0.950 . S
C2796 C2795 1.398 . S
C2796 C2797 1.391 . S
C2797 H2785 0.950 . S
C2797 C2793 1.393 . S
C2797 C2796 1.391 . S
C2798 H2788 0.950 . S
C2798 C2799 1.386 . S
C2798 C2800 1.391 . S
C2799 C2798 1.386 . S
C2799 C2803 1.393 . S
C2800 H2789 0.950 . S
C2800 C2798 1.391 . S
C2800 C2801 1.400 . S
C2801 C2795 1.491 . S
C2801 C2800 1.400 . S
C2801 C2802 1.398 . S
C2802 H2790 0.950 . S
C2802 C2801 1.398 . S
C2802 C2803 1.391 . S
C2803 H2791 0.950 . S
C2803 C2799 1.393 . S
C2803 C2802 1.391 . S
H2804 C2812 0.950 . S
H2805 C2817 0.950 . S
H2806 C2814 0.950 . S
H2807 C2816 0.950 . S
H2808 C2818 0.950 . S
H2809 C2820 0.950 . S
H2810 C2822 0.950 . S
H2811 C2823 0.950 . S
C2812 H2804 0.950 . S
C2812 C2813 1.386 . S
C2812 C2814 1.391 . S
C2813 C2812 1.386 . S
C2813 C2817 1.393 . S
C2814 H2806 0.950 . S
C2814 C2812 1.391 . S
C2814 C2815 1.400 . S
C2815 C2814 1.400 . S
C2815 C2816 1.398 . S
C2815 C2821 1.491 . S
C2816 H2807 0.950 . S
C2816 C2815 1.398 . S
C2816 C2817 1.391 . S
C2817 H2805 0.950 . S
C2817 C2813 1.393 . S
C2817 C2816 1.391 . S
C2818 H2808 0.950 . S
C2818 C2819 1.386 . S
C2818 C2820 1.391 . S
C2819 C2818 1.386 . S
C2819 C2823 1.393 . S
C2820 H2809 0.950 . S
C2820 C2818 1.391 . S
C2820 C2821 1.400 . S
C2821 C2815 1.491 . S
C2821 C2820 1.400 . S
C2821 C2822 1.398 . S
C2822 H2810 0.950 . S
C2822 C2821 1.398 . S
C2822 C2823 1.391 . S
C2823 H2811 0.950 . S
C2823 C2819 1.393 . S
C2823 C2822 1.391 . S
H2824 C2832 0.950 . S
H2825 C2837 0.950 . S
H2826 C2834 0.950 . S
H2827 C2836 0.950 . S
H2828 C2838 0.950 . S
H2829 C2840 0.950 . S
H2830 C2842 0.950 . S
H2831 C2843 0.950 . S
C2832 H2824 0.950 . S
C2832 C2833 1.386 . S
C2832 C2834 1.391 . S
C2833 C2832 1.386 . S
C2833 C2837 1.393 . S
C2834 H2826 0.950 . S
C2834 C2832 1.391 . S
C2834 C2835 1.400 . S
C2835 C2834 1.400 . S
C2835 C2836 1.398 . S
C2835 C2841 1.491 . S
C2836 H2827 0.950 . S
C2836 C2835 1.398 . S
C2836 C2837 1.391 . S
C2837 H2825 0.950 . S
C2837 C2833 1.393 . S
C2837 C2836 1.391 . S
C2838 H2828 0.950 . S
C2838 C2839 1.386 . S
C2838 C2840 1.391 . S
C2839 C2838 1.386 . S
C2839 C2843 1.393 . S
C2840 H2829 0.950 . S
C2840 C2838 1.391 . S
C2840 C2841 1.400 . S
C2841 C2835 1.491 . S
C2841 C2840 1.400 . S
C2841 C2842 1.398 . S
C2842 H2830 0.950 . S
C2842 C2841 1.398 . S
C2842 C2843 1.391 . S
C2843 H2831 0.950 . S
C2843 C2839 1.393 . S
C2843 C2842 1.391 . S
H2844 C2852 0.950 . S
H2845 C2857 0.950 . S
H2846 C2854 0.950 . S
H2847 C2856 0.950 . S
H2848 C2858 0.950 . S
H2849 C2860 0.950 . S
H2850 C2862 0.950 . S
H2851 C2863 0.950 . S
C2852 H2844 0.950 . S
C2852 C2853 1.386 . S
C2852 C2854 1.391 . S
C2853 C2852 1.386 . S
C2853 C2857 1.393 . S
C2854 H2846 0.950 . S
C2854 C2852 1.391 . S
C2854 C2855 1.400 . S
C2855 C2854 1.400 . S
C2855 C2856 1.398 . S
C2855 C2861 1.491 . S
C2856 H2847 0.950 . S
C2856 C2855 1.398 . S
C2856 C2857 1.391 . S
C2857 H2845 0.950 . S
C2857 C2853 1.393 . S
C2857 C2856 1.391 . S
C2858 H2848 0.950 . S
C2858 C2859 1.386 . S
C2858 C2860 1.391 . S
C2859 C2858 1.386 . S
C2859 C2863 1.393 . S
C2860 H2849 0.950 . S
C2860 C2858 1.391 . S
C2860 C2861 1.400 . S
C2861 C2855 1.491 . S
C2861 C2860 1.400 . S
C2861 C2862 1.398 . S
C2862 H2850 0.950 . S
C2862 C2861 1.398 . S
C2862 C2863 1.391 . S
C2863 H2851 0.950 . S
C2863 C2859 1.393 . S
C2863 C2862 1.391 . S
H2864 C2872 0.950 . S
H2865 C2877 0.950 . S
H2866 C2874 0.950 . S
H2867 C2876 0.950 . S
H2868 C2878 0.950 . S
H2869 C2880 0.950 . S
H2870 C2882 0.950 . S
H2871 C2883 0.950 . S
C2872 H2864 0.950 . S
C2872 C2873 1.386 . S
C2872 C2874 1.391 . S
C2873 C2872 1.386 . S
C2873 C2877 1.393 . S
C2874 H2866 0.950 . S
C2874 C2872 1.391 . S
C2874 C2875 1.400 . S
C2875 C2874 1.400 . S
C2875 C2876 1.398 . S
C2875 C2881 1.491 . S
C2876 H2867 0.950 . S
C2876 C2875 1.398 . S
C2876 C2877 1.391 . S
C2877 H2865 0.950 . S
C2877 C2873 1.393 . S
C2877 C2876 1.391 . S
C2878 H2868 0.950 . S
C2878 C2879 1.386 . S
C2878 C2880 1.391 . S
C2879 C2878 1.386 . S
C2879 C2883 1.393 . S
C2880 H2869 0.950 . S
C2880 C2878 1.391 . S
C2880 C2881 1.400 . S
C2881 C2875 1.491 . S
C2881 C2880 1.400 . S
C2881 C2882 1.398 . S
C2882 H2870 0.950 . S
C2882 C2881 1.398 . S
C2882 C2883 1.391 . S
C2883 H2871 0.950 . S
C2883 C2879 1.393 . S
C2883 C2882 1.391 . S
H2884 C2892 0.950 . S
H2885 C2897 0.950 . S
H2886 C2894 0.950 . S
H2887 C2896 0.950 . S
H2888 C2898 0.950 . S
H2889 C2900 0.950 . S
H2890 C2902 0.950 . S
H2891 C2903 0.950 . S
C2892 H2884 0.950 . S
C2892 C2893 1.386 . S
C2892 C2894 1.391 . S
C2893 C2892 1.386 . S
C2893 C2897 1.393 . S
C2894 H2886 0.950 . S
C2894 C2892 1.391 . S
C2894 C2895 1.400 . S
C2895 C2894 1.400 . S
C2895 C2896 1.398 . S
C2895 C2901 1.491 . S
C2896 H2887 0.950 . S
C2896 C2895 1.398 . S
C2896 C2897 1.391 . S
C2897 H2885 0.950 . S
C2897 C2893 1.393 . S
C2897 C2896 1.391 . S
C2898 H2888 0.950 . S
C2898 C2899 1.386 . S
C2898 C2900 1.391 . S
C2899 C2898 1.386 . S
C2899 C2903 1.393 . S
C2900 H2889 0.950 . S
C2900 C2898 1.391 . S
C2900 C2901 1.400 . S
C2901 C2895 1.491 . S
C2901 C2900 1.400 . S
C2901 C2902 1.398 . S
C2902 H2890 0.950 . S
C2902 C2901 1.398 . S
C2902 C2903 1.391 . S
C2903 H2891 0.950 . S
C2903 C2899 1.393 . S
C2903 C2902 1.391 . S
H2904 C2912 0.950 . S
H2905 C2917 0.950 . S
H2906 C2914 0.950 . S
H2907 C2916 0.950 . S
H2908 C2918 0.950 . S
H2909 C2920 0.950 . S
H2910 C2922 0.950 . S
H2911 C2923 0.950 . S
C2912 H2904 0.950 . S
C2912 C2913 1.386 . S
C2912 C2914 1.391 . S
C2913 C2912 1.386 . S
C2913 C2917 1.393 . S
C2914 H2906 0.950 . S
C2914 C2912 1.391 . S
C2914 C2915 1.400 . S
C2915 C2914 1.400 . S
C2915 C2916 1.398 . S
C2915 C2921 1.491 . S
C2916 H2907 0.950 . S
C2916 C2915 1.398 . S
C2916 C2917 1.391 . S
C2917 H2905 0.950 . S
C2917 C2913 1.393 . S
C2917 C2916 1.391 . S
C2918 H2908 0.950 . S
C2918 C2919 1.386 . S
C2918 C2920 1.391 . S
C2919 C2918 1.386 . S
C2919 C2923 1.393 . S
C2920 H2909 0.950 . S
C2920 C2918 1.391 . S
C2920 C2921 1.400 . S
C2921 C2915 1.491 . S
C2921 C2920 1.400 . S
C2921 C2922 1.398 . S
C2922 H2910 0.950 . S
C2922 C2921 1.398 . S
C2922 C2923 1.391 . S
C2923 H2911 0.950 . S
C2923 C2919 1.393 . S
C2923 C2922 1.391 . S
H2924 C2932 0.950 . S
H2925 C2937 0.950 . S
H2926 C2934 0.950 . S
H2927 C2936 0.950 . S
H2928 C2938 0.950 . S
H2929 C2940 0.950 . S
H2930 C2942 0.950 . S
H2931 C2943 0.950 . S
C2932 H2924 0.950 . S
C2932 C2933 1.386 . S
C2932 C2934 1.391 . S
C2933 C2932 1.386 . S
C2933 C2937 1.393 . S
C2934 H2926 0.950 . S
C2934 C2932 1.391 . S
C2934 C2935 1.400 . S
C2935 C2934 1.400 . S
C2935 C2936 1.398 . S
C2935 C2941 1.491 . S
C2936 H2927 0.950 . S
C2936 C2935 1.398 . S
C2936 C2937 1.391 . S
C2937 H2925 0.950 . S
C2937 C2933 1.393 . S
C2937 C2936 1.391 . S
C2938 H2928 0.950 . S
C2938 C2939 1.386 . S
C2938 C2940 1.391 . S
C2939 C2938 1.386 . S
C2939 C2943 1.393 . S
C2940 H2929 0.950 . S
C2940 C2938 1.391 . S
C2940 C2941 1.400 . S
C2941 C2935 1.491 . S
C2941 C2940 1.400 . S
C2941 C2942 1.398 . S
C2942 H2930 0.950 . S
C2942 C2941 1.398 . S
C2942 C2943 1.391 . S
C2943 H2931 0.950 . S
C2943 C2939 1.393 . S
C2943 C2942 1.391 . S
H2944 C2952 0.950 . S
H2945 C2957 0.950 . S
H2946 C2954 0.950 . S
H2947 C2956 0.950 . S
H2948 C2958 0.950 . S
H2949 C2960 0.950 . S
H2950 C2962 0.950 . S
H2951 C2963 0.950 . S
C2952 H2944 0.950 . S
C2952 C2953 1.386 . S
C2952 C2954 1.391 . S
C2953 C2952 1.386 . S
C2953 C2957 1.393 . S
C2954 H2946 0.950 . S
C2954 C2952 1.391 . S
C2954 C2955 1.400 . S
C2955 C2954 1.400 . S
C2955 C2956 1.398 . S
C2955 C2961 1.491 . S
C2956 H2947 0.950 . S
C2956 C2955 1.398 . S
C2956 C2957 1.391 . S
C2957 H2945 0.950 . S
C2957 C2953 1.393 . S
C2957 C2956 1.391 . S
C2958 H2948 0.950 . S
C2958 C2959 1.386 . S
C2958 C2960 1.391 . S
C2959 C2958 1.386 . S
C2959 C2963 1.393 . S
C2960 H2949 0.950 . S
C2960 C2958 1.391 . S
C2960 C2961 1.400 . S
C2961 C2955 1.491 . S
C2961 C2960 1.400 . S
C2961 C2962 1.398 . S
C2962 H2950 0.950 . S
C2962 C2961 1.398 . S
C2962 C2963 1.391 . S
C2963 H2951 0.950 . S
C2963 C2959 1.393 . S
C2963 C2962 1.391 . S
H2964 C2972 0.950 . S
H2965 C2977 0.950 . S
H2966 C2974 0.950 . S
H2967 C2976 0.950 . S
H2968 C2978 0.950 . S
H2969 C2980 0.950 . S
H2970 C2982 0.950 . S
H2971 C2983 0.950 . S
C2972 H2964 0.950 . S
C2972 C2973 1.386 . S
C2972 C2974 1.391 . S
C2973 C2972 1.386 . S
C2973 C2977 1.393 . S
C2974 H2966 0.950 . S
C2974 C2972 1.391 . S
C2974 C2975 1.400 . S
C2975 C2974 1.400 . S
C2975 C2976 1.398 . S
C2975 C2981 1.491 . S
C2976 H2967 0.950 . S
C2976 C2975 1.398 . S
C2976 C2977 1.391 . S
C2977 H2965 0.950 . S
C2977 C2973 1.393 . S
C2977 C2976 1.391 . S
C2978 H2968 0.950 . S
C2978 C2979 1.386 . S
C2978 C2980 1.391 . S
C2979 C2978 1.386 . S
C2979 C2983 1.393 . S
C2980 H2969 0.950 . S
C2980 C2978 1.391 . S
C2980 C2981 1.400 . S
C2981 C2975 1.491 . S
C2981 C2980 1.400 . S
C2981 C2982 1.398 . S
C2982 H2970 0.950 . S
C2982 C2981 1.398 . S
C2982 C2983 1.391 . S
C2983 H2971 0.950 . S
C2983 C2979 1.393 . S
C2983 C2982 1.391 . S
H2984 C2992 0.950 . S
H2985 C2997 0.950 . S
H2986 C2994 0.950 . S
H2987 C2996 0.950 . S
H2988 C2998 0.950 . S
H2989 C3000 0.950 . S
H2990 C3002 0.950 . S
H2991 C3003 0.950 . S
C2992 H2984 0.950 . S
C2992 C2993 1.386 . S
C2992 C2994 1.391 . S
C2993 C2992 1.386 . S
C2993 C2997 1.393 . S
C2994 H2986 0.950 . S
C2994 C2992 1.391 . S
C2994 C2995 1.400 . S
C2995 C2994 1.400 . S
C2995 C2996 1.398 . S
C2995 C3001 1.491 . S
C2996 H2987 0.950 . S
C2996 C2995 1.398 . S
C2996 C2997 1.391 . S
C2997 H2985 0.950 . S
C2997 C2993 1.393 . S
C2997 C2996 1.391 . S
C2998 H2988 0.950 . S
C2998 C2999 1.386 . S
C2998 C3000 1.391 . S
C2999 C2998 1.386 . S
C2999 C3003 1.393 . S
C3000 H2989 0.950 . S
C3000 C2998 1.391 . S
C3000 C3001 1.400 . S
C3001 C2995 1.491 . S
C3001 C3000 1.400 . S
C3001 C3002 1.398 . S
C3002 H2990 0.950 . S
C3002 C3001 1.398 . S
C3002 C3003 1.391 . S
C3003 H2991 0.950 . S
C3003 C2999 1.393 . S
C3003 C3002 1.391 . S
H3004 C3012 0.950 . S
H3005 C3017 0.950 . S
H3006 C3014 0.950 . S
H3007 C3016 0.950 . S
H3008 C3018 0.950 . S
H3009 C3020 0.950 . S
H3010 C3022 0.950 . S
H3011 C3023 0.950 . S
C3012 H3004 0.950 . S
C3012 C3013 1.386 . S
C3012 C3014 1.391 . S
C3013 C3012 1.386 . S
C3013 C3017 1.393 . S
C3014 H3006 0.950 . S
C3014 C3012 1.391 . S
C3014 C3015 1.400 . S
C3015 C3014 1.400 . S
C3015 C3016 1.398 . S
C3015 C3021 1.491 . S
C3016 H3007 0.950 . S
C3016 C3015 1.398 . S
C3016 C3017 1.391 . S
C3017 H3005 0.950 . S
C3017 C3013 1.393 . S
C3017 C3016 1.391 . S
C3018 H3008 0.950 . S
C3018 C3019 1.386 . S
C3018 C3020 1.391 . S
C3019 C3018 1.386 . S
C3019 C3023 1.393 . S
C3020 H3009 0.950 . S
C3020 C3018 1.391 . S
C3020 C3021 1.400 . S
C3021 C3015 1.491 . S
C3021 C3020 1.400 . S
C3021 C3022 1.398 . S
C3022 H3010 0.950 . S
C3022 C3021 1.398 . S
C3022 C3023 1.391 . S
C3023 H3011 0.950 . S
C3023 C3019 1.393 . S
C3023 C3022 1.391 . S
H3024 C3032 0.950 . S
H3025 C3037 0.950 . S
H3026 C3034 0.950 . S
H3027 C3036 0.950 . S
H3028 C3038 0.950 . S
H3029 C3040 0.950 . S
H3030 C3042 0.950 . S
H3031 C3043 0.950 . S
C3032 H3024 0.950 . S
C3032 C3033 1.386 . S
C3032 C3034 1.391 . S
C3033 C3032 1.386 . S
C3033 C3037 1.393 . S
C3034 H3026 0.950 . S
C3034 C3032 1.391 . S
C3034 C3035 1.400 . S
C3035 C3034 1.400 . S
C3035 C3036 1.398 . S
C3035 C3041 1.491 . S
C3036 H3027 0.950 . S
C3036 C3035 1.398 . S
C3036 C3037 1.391 . S
C3037 H3025 0.950 . S
C3037 C3033 1.393 . S
C3037 C3036 1.391 . S
C3038 H3028 0.950 . S
C3038 C3039 1.386 . S
C3038 C3040 1.391 . S
C3039 C3038 1.386 . S
C3039 C3043 1.393 . S
C3040 H3029 0.950 . S
C3040 C3038 1.391 . S
C3040 C3041 1.400 . S
C3041 C3035 1.491 . S
C3041 C3040 1.400 . S
C3041 C3042 1.398 . S
C3042 H3030 0.950 . S
C3042 C3041 1.398 . S
C3042 C3043 1.391 . S
C3043 H3031 0.950 . S
C3043 C3039 1.393 . S
C3043 C3042 1.391 . S
H3044 C3052 0.950 . S
H3045 C3057 0.950 . S
H3046 C3054 0.950 . S
H3047 C3056 0.950 . S
H3048 C3058 0.950 . S
H3049 C3060 0.950 . S
H3050 C3062 0.950 . S
H3051 C3063 0.950 . S
C3052 H3044 0.950 . S
C3052 C3053 1.386 . S
C3052 C3054 1.391 . S
C3053 C3052 1.386 . S
C3053 C3057 1.393 . S
C3054 H3046 0.950 . S
C3054 C3052 1.391 . S
C3054 C3055 1.400 . S
C3055 C3054 1.400 . S
C3055 C3056 1.398 . S
C3055 C3061 1.491 . S
C3056 H3047 0.950 . S
C3056 C3055 1.398 . S
C3056 C3057 1.391 . S
C3057 H3045 0.950 . S
C3057 C3053 1.393 . S
C3057 C3056 1.391 . S
C3058 H3048 0.950 . S
C3058 C3059 1.386 . S
C3058 C3060 1.391 . S
C3059 C3058 1.386 . S
C3059 C3063 1.393 . S
C3060 H3049 0.950 . S
C3060 C3058 1.391 . S
C3060 C3061 1.400 . S
C3061 C3055 1.491 . S
C3061 C3060 1.400 . S
C3061 C3062 1.398 . S
C3062 H3050 0.950 . S
C3062 C3061 1.398 . S
C3062 C3063 1.391 . S
C3063 H3051 0.950 . S
C3063 C3059 1.393 . S
C3063 C3062 1.391 . S
H3064 C3072 0.950 . S
H3065 C3077 0.950 . S
H3066 C3074 0.950 . S
H3067 C3076 0.950 . S
H3068 C3078 0.950 . S
H3069 C3080 0.950 . S
H3070 C3082 0.950 . S
H3071 C3083 0.950 . S
C3072 H3064 0.950 . S
C3072 C3073 1.386 . S
C3072 C3074 1.391 . S
C3073 C3072 1.386 . S
C3073 C3077 1.393 . S
C3074 H3066 0.950 . S
C3074 C3072 1.391 . S
C3074 C3075 1.400 . S
C3075 C3074 1.400 . S
C3075 C3076 1.398 . S
C3075 C3081 1.491 . S
C3076 H3067 0.950 . S
C3076 C3075 1.398 . S
C3076 C3077 1.391 . S
C3077 H3065 0.950 . S
C3077 C3073 1.393 . S
C3077 C3076 1.391 . S
C3078 H3068 0.950 . S
C3078 C3079 1.386 . S
C3078 C3080 1.391 . S
C3079 C3078 1.386 . S
C3079 C3083 1.393 . S
C3080 H3069 0.950 . S
C3080 C3078 1.391 . S
C3080 C3081 1.400 . S
C3081 C3075 1.491 . S
C3081 C3080 1.400 . S
C3081 C3082 1.398 . S
C3082 H3070 0.950 . S
C3082 C3081 1.398 . S
C3082 C3083 1.391 . S
C3083 H3071 0.950 . S
C3083 C3079 1.393 . S
C3083 C3082 1.391 . S
H3084 C3092 0.950 . S
H3085 C3097 0.950 . S
H3086 C3094 0.950 . S
H3087 C3096 0.950 . S
H3088 C3098 0.950 . S
H3089 C3100 0.950 . S
H3090 C3102 0.950 . S
H3091 C3103 0.950 . S
C3092 H3084 0.950 . S
C3092 C3093 1.386 . S
C3092 C3094 1.391 . S
C3093 C3092 1.386 . S
C3093 C3097 1.393 . S
C3094 H3086 0.950 . S
C3094 C3092 1.391 . S
C3094 C3095 1.400 . S
C3095 C3094 1.400 . S
C3095 C3096 1.398 . S
C3095 C3101 1.491 . S
C3096 H3087 0.950 . S
C3096 C3095 1.398 . S
C3096 C3097 1.391 . S
C3097 H3085 0.950 . S
C3097 C3093 1.393 . S
C3097 C3096 1.391 . S
C3098 H3088 0.950 . S
C3098 C3099 1.386 . S
C3098 C3100 1.391 . S
C3099 C3098 1.386 . S
C3099 C3103 1.393 . S
C3100 H3089 0.950 . S
C3100 C3098 1.391 . S
C3100 C3101 1.400 . S
C3101 C3095 1.491 . S
C3101 C3100 1.400 . S
C3101 C3102 1.398 . S
C3102 H3090 0.950 . S
C3102 C3101 1.398 . S
C3102 C3103 1.391 . S
C3103 H3091 0.950 . S
C3103 C3099 1.393 . S
C3103 C3102 1.391 . S
H3104 C3112 0.950 . S
H3105 C3117 0.950 . S
H3106 C3114 0.950 . S
H3107 C3116 0.950 . S
H3108 C3118 0.950 . S
H3109 C3120 0.950 . S
H3110 C3122 0.950 . S
H3111 C3123 0.950 . S
C3112 H3104 0.950 . S
C3112 C3113 1.386 . S
C3112 C3114 1.391 . S
C3113 C3112 1.386 . S
C3113 C3117 1.393 . S
C3114 H3106 0.950 . S
C3114 C3112 1.391 . S
C3114 C3115 1.400 . S
C3115 C3114 1.400 . S
C3115 C3116 1.398 . S
C3115 C3121 1.491 . S
C3116 H3107 0.950 . S
C3116 C3115 1.398 . S
C3116 C3117 1.391 . S
C3117 H3105 0.950 . S
C3117 C3113 1.393 . S
C3117 C3116 1.391 . S
C3118 H3108 0.950 . S
C3118 C3119 1.386 . S
C3118 C3120 1.391 . S
C3119 C3118 1.386 . S
C3119 C3123 1.393 . S
C3120 H3109 0.950 . S
C3120 C3118 1.391 . S
C3120 C3121 1.400 . S
C3121 C3115 1.491 . S
C3121 C3120 1.400 . S
C3121 C3122 1.398 . S
C3122 H3110 0.950 . S
C3122 C3121 1.398 . S
C3122 C3123 1.391 . S
C3123 H3111 0.950 . S
C3123 C3119 1.393 . S
C3123 C3122 1.391 . S
H3124 C3132 0.950 . S
H3125 C3137 0.950 . S
H3126 C3134 0.950 . S
H3127 C3136 0.950 . S
H3128 C3138 0.950 . S
H3129 C3140 0.950 . S
H3130 C3142 0.950 . S
H3131 C3143 0.950 . S
C3132 H3124 0.950 . S
C3132 C3133 1.386 . S
C3132 C3134 1.391 . S
C3133 C3132 1.386 . S
C3133 C3137 1.393 . S
C3134 H3126 0.950 . S
C3134 C3132 1.391 . S
C3134 C3135 1.400 . S
C3135 C3134 1.400 . S
C3135 C3136 1.398 . S
C3135 C3141 1.491 . S
C3136 H3127 0.950 . S
C3136 C3135 1.398 . S
C3136 C3137 1.391 . S
C3137 H3125 0.950 . S
C3137 C3133 1.393 . S
C3137 C3136 1.391 . S
C3138 H3128 0.950 . S
C3138 C3139 1.386 . S
C3138 C3140 1.391 . S
C3139 C3138 1.386 . S
C3139 C3143 1.393 . S
C3140 H3129 0.950 . S
C3140 C3138 1.391 . S
C3140 C3141 1.400 . S
C3141 C3135 1.491 . S
C3141 C3140 1.400 . S
C3141 C3142 1.398 . S
C3142 H3130 0.950 . S
C3142 C3141 1.398 . S
C3142 C3143 1.391 . S
C3143 H3131 0.950 . S
C3143 C3139 1.393 . S
C3143 C3142 1.391 . S
H3144 C3152 0.950 . S
H3145 C3157 0.950 . S
H3146 C3154 0.950 . S
H3147 C3156 0.950 . S
H3148 C3158 0.950 . S
H3149 C3160 0.950 . S
H3150 C3162 0.950 . S
H3151 C3163 0.950 . S
C3152 H3144 0.950 . S
C3152 C3153 1.386 . S
C3152 C3154 1.391 . S
C3153 C3152 1.386 . S
C3153 C3157 1.393 . S
C3154 H3146 0.950 . S
C3154 C3152 1.391 . S
C3154 C3155 1.400 . S
C3155 C3154 1.400 . S
C3155 C3156 1.398 . S
C3155 C3161 1.491 . S
C3156 H3147 0.950 . S
C3156 C3155 1.398 . S
C3156 C3157 1.391 . S
C3157 H3145 0.950 . S
C3157 C3153 1.393 . S
C3157 C3156 1.391 . S
C3158 H3148 0.950 . S
C3158 C3159 1.386 . S
C3158 C3160 1.391 . S
C3159 C3158 1.386 . S
C3159 C3163 1.393 . S
C3160 H3149 0.950 . S
C3160 C3158 1.391 . S
C3160 C3161 1.400 . S
C3161 C3155 1.491 . S
C3161 C3160 1.400 . S
C3161 C3162 1.398 . S
C3162 H3150 0.950 . S
C3162 C3161 1.398 . S
C3162 C3163 1.391 . S
C3163 H3151 0.950 . S
C3163 C3159 1.393 . S
C3163 C3162 1.391 . S
H3164 C3172 0.950 . S
H3165 C3177 0.950 . S
H3166 C3174 0.950 . S
H3167 C3176 0.950 . S
H3168 C3178 0.950 . S
H3169 C3180 0.950 . S
H3170 C3182 0.950 . S
H3171 C3183 0.950 . S
C3172 H3164 0.950 . S
C3172 C3173 1.386 . S
C3172 C3174 1.391 . S
C3173 C3172 1.386 . S
C3173 C3177 1.393 . S
C3174 H3166 0.950 . S
C3174 C3172 1.391 . S
C3174 C3175 1.400 . S
C3175 C3174 1.400 . S
C3175 C3176 1.398 . S
C3175 C3181 1.491 . S
C3176 H3167 0.950 . S
C3176 C3175 1.398 . S
C3176 C3177 1.391 . S
C3177 H3165 0.950 . S
C3177 C3173 1.393 . S
C3177 C3176 1.391 . S
C3178 H3168 0.950 . S
C3178 C3179 1.386 . S
C3178 C3180 1.391 . S
C3179 C3178 1.386 . S
C3179 C3183 1.393 . S
C3180 H3169 0.950 . S
C3180 C3178 1.391 . S
C3180 C3181 1.400 . S
C3181 C3175 1.491 . S
C3181 C3180 1.400 . S
C3181 C3182 1.398 . S
C3182 H3170 0.950 . S
C3182 C3181 1.398 . S
C3182 C3183 1.391 . S
C3183 H3171 0.950 . S
C3183 C3179 1.393 . S
C3183 C3182 1.391 . S
H3184 C3192 0.950 . S
H3185 C3197 0.950 . S
H3186 C3194 0.950 . S
H3187 C3196 0.950 . S
H3188 C3198 0.950 . S
H3189 C3200 0.950 . S
H3190 C3202 0.950 . S
H3191 C3203 0.950 . S
C3192 H3184 0.950 . S
C3192 C3193 1.386 . S
C3192 C3194 1.391 . S
C3193 C3192 1.386 . S
C3193 C3197 1.393 . S
C3194 H3186 0.950 . S
C3194 C3192 1.391 . S
C3194 C3195 1.400 . S
C3195 C3194 1.400 . S
C3195 C3196 1.398 . S
C3195 C3201 1.491 . S
C3196 H3187 0.950 . S
C3196 C3195 1.398 . S
C3196 C3197 1.391 . S
C3197 H3185 0.950 . S
C3197 C3193 1.393 . S
C3197 C3196 1.391 . S
C3198 H3188 0.950 . S
C3198 C3199 1.386 . S
C3198 C3200 1.391 . S
C3199 C3198 1.386 . S
C3199 C3203 1.393 . S
C3200 H3189 0.950 . S
C3200 C3198 1.391 . S
C3200 C3201 1.400 . S
C3201 C3195 1.491 . S
C3201 C3200 1.400 . S
C3201 C3202 1.398 . S
C3202 H3190 0.950 . S
C3202 C3201 1.398 . S
C3202 C3203 1.391 . S
C3203 H3191 0.950 . S
C3203 C3199 1.393 . S
C3203 C3202 1.391 . S
H3204 C3212 0.950 . S
H3205 C3217 0.950 . S
H3206 C3214 0.950 . S
H3207 C3216 0.950 . S
H3208 C3218 0.950 . S
H3209 C3220 0.950 . S
H3210 C3222 0.950 . S
H3211 C3223 0.950 . S
C3212 H3204 0.950 . S
C3212 C3213 1.386 . S
C3212 C3214 1.391 . S
C3213 C3212 1.386 . S
C3213 C3217 1.393 . S
C3214 H3206 0.950 . S
C3214 C3212 1.391 . S
C3214 C3215 1.400 . S
C3215 C3214 1.400 . S
C3215 C3216 1.398 . S
C3215 C3221 1.491 . S
C3216 H3207 0.950 . S
C3216 C3215 1.398 . S
C3216 C3217 1.391 . S
C3217 H3205 0.950 . S
C3217 C3213 1.393 . S
C3217 C3216 1.391 . S
C3218 H3208 0.950 . S
C3218 C3219 1.386 . S
C3218 C3220 1.391 . S
C3219 C3218 1.386 . S
C3219 C3223 1.393 . S
C3220 H3209 0.950 . S
C3220 C3218 1.391 . S
C3220 C3221 1.400 . S
C3221 C3215 1.491 . S
C3221 C3220 1.400 . S
C3221 C3222 1.398 . S
C3222 H3210 0.950 . S
C3222 C3221 1.398 . S
C3222 C3223 1.391 . S
C3223 H3211 0.950 . S
C3223 C3219 1.393 . S
C3223 C3222 1.391 . S
H3224 C3232 0.950 . S
H3225 C3237 0.950 . S
H3226 C3234 0.950 . S
H3227 C3236 0.950 . S
H3228 C3238 0.950 . S
H3229 C3240 0.950 . S
H3230 C3242 0.950 . S
H3231 C3243 0.950 . S
C3232 H3224 0.950 . S
C3232 C3233 1.386 . S
C3232 C3234 1.391 . S
C3233 C3232 1.386 . S
C3233 C3237 1.393 . S
C3234 H3226 0.950 . S
C3234 C3232 1.391 . S
C3234 C3235 1.400 . S
C3235 C3234 1.400 . S
C3235 C3236 1.398 . S
C3235 C3241 1.491 . S
C3236 H3227 0.950 . S
C3236 C3235 1.398 . S
C3236 C3237 1.391 . S
C3237 H3225 0.950 . S
C3237 C3233 1.393 . S
C3237 C3236 1.391 . S
C3238 H3228 0.950 . S
C3238 C3239 1.386 . S
C3238 C3240 1.391 . S
C3239 C3238 1.386 . S
C3239 C3243 1.393 . S
C3240 H3229 0.950 . S
C3240 C3238 1.391 . S
C3240 C3241 1.400 . S
C3241 C3235 1.491 . S
C3241 C3240 1.400 . S
C3241 C3242 1.398 . S
C3242 H3230 0.950 . S
C3242 C3241 1.398 . S
C3242 C3243 1.391 . S
C3243 H3231 0.950 . S
C3243 C3239 1.393 . S
C3243 C3242 1.391 . S
H3244 C3252 0.950 . S
H3245 C3257 0.950 . S
H3246 C3254 0.950 . S
H3247 C3256 0.950 . S
H3248 C3258 0.950 . S
H3249 C3260 0.950 . S
H3250 C3262 0.950 . S
H3251 C3263 0.950 . S
C3252 H3244 0.950 . S
C3252 C3253 1.386 . S
C3252 C3254 1.391 . S
C3253 C3252 1.386 . S
C3253 C3257 1.393 . S
C3254 H3246 0.950 . S
C3254 C3252 1.391 . S
C3254 C3255 1.400 . S
C3255 C3254 1.400 . S
C3255 C3256 1.398 . S
C3255 C3261 1.491 . S
C3256 H3247 0.950 . S
C3256 C3255 1.398 . S
C3256 C3257 1.391 . S
C3257 H3245 0.950 . S
C3257 C3253 1.393 . S
C3257 C3256 1.391 . S
C3258 H3248 0.950 . S
C3258 C3259 1.386 . S
C3258 C3260 1.391 . S
C3259 C3258 1.386 . S
C3259 C3263 1.393 . S
C3260 H3249 0.950 . S
C3260 C3258 1.391 . S
C3260 C3261 1.400 . S
C3261 C3255 1.491 . S
C3261 C3260 1.400 . S
C3261 C3262 1.398 . S
C3262 H3250 0.950 . S
C3262 C3261 1.398 . S
C3262 C3263 1.391 . S
C3263 H3251 0.950 . S
C3263 C3259 1.393 . S
C3263 C3262 1.391 . S
H3264 C3272 0.950 . S
H3265 C3277 0.950 . S
H3266 C3274 0.950 . S
H3267 C3276 0.950 . S
H3268 C3278 0.950 . S
H3269 C3280 0.950 . S
H3270 C3282 0.950 . S
H3271 C3283 0.950 . S
C3272 H3264 0.950 . S
C3272 C3273 1.386 . S
C3272 C3274 1.391 . S
C3273 C3272 1.386 . S
C3273 C3277 1.393 . S
C3274 H3266 0.950 . S
C3274 C3272 1.391 . S
C3274 C3275 1.400 . S
C3275 C3274 1.400 . S
C3275 C3276 1.398 . S
C3275 C3281 1.491 1_455 S
C3276 H3267 0.950 . S
C3276 C3275 1.398 . S
C3276 C3277 1.391 . S
C3277 H3265 0.950 . S
C3277 C3273 1.393 . S
C3277 C3276 1.391 . S
C3278 H3268 0.950 . S
C3278 C3279 1.386 . S
C3278 C3280 1.391 . S
C3279 C3278 1.386 . S
C3279 C3283 1.393 . S
C3280 H3269 0.950 . S
C3280 C3278 1.391 . S
C3280 C3281 1.400 . S
C3281 C3275 1.491 1_655 S
C3281 C3280 1.400 . S
C3281 C3282 1.398 . S
C3282 H3270 0.950 . S
C3282 C3281 1.398 . S
C3282 C3283 1.391 . S
C3283 H3271 0.950 . S
C3283 C3279 1.393 . S
C3283 C3282 1.391 . S
H3284 C3292 0.950 . S
H3285 C3297 0.950 . S
H3286 C3294 0.950 . S
H3287 C3296 0.950 . S
H3288 C3298 0.950 . S
H3289 C3300 0.950 . S
H3290 C3302 0.950 . S
H3291 C3303 0.950 . S
C3292 H3284 0.950 . S
C3292 C3293 1.386 . S
C3292 C3294 1.391 . S
C3293 C3292 1.386 . S
C3293 C3297 1.393 . S
C3294 H3286 0.950 . S
C3294 C3292 1.391 . S
C3294 C3295 1.400 . S
C3295 C3294 1.400 . S
C3295 C3296 1.398 . S
C3295 C3301 1.491 1_565 S
C3296 H3287 0.950 . S
C3296 C3295 1.398 . S
C3296 C3297 1.391 . S
C3297 H3285 0.950 . S
C3297 C3293 1.393 . S
C3297 C3296 1.391 . S
C3298 H3288 0.950 . S
C3298 C3299 1.386 . S
C3298 C3300 1.391 . S
C3299 C3298 1.386 . S
C3299 C3303 1.393 . S
C3300 H3289 0.950 . S
C3300 C3298 1.391 . S
C3300 C3301 1.400 . S
C3301 C3295 1.491 1_545 S
C3301 C3300 1.400 . S
C3301 C3302 1.398 . S
C3302 H3290 0.950 . S
C3302 C3301 1.398 . S
C3302 C3303 1.391 . S
C3303 H3291 0.950 . S
C3303 C3299 1.393 . S
C3303 C3302 1.391 . S
H3304 C3312 0.950 . S
H3305 C3317 0.950 . S
H3306 C3314 0.950 . S
H3307 C3316 0.950 . S
H3308 C3318 0.950 . S
H3309 C3320 0.950 . S
H3310 C3322 0.950 . S
H3311 C3323 0.950 . S
C3312 H3304 0.950 . S
C3312 C3313 1.386 . S
C3312 C3314 1.391 . S
C3313 C3312 1.386 . S
C3313 C3317 1.393 . S
C3314 H3306 0.950 . S
C3314 C3312 1.391 . S
C3314 C3315 1.400 . S
C3315 C3314 1.400 . S
C3315 C3316 1.398 . S
C3315 C3321 1.491 1_655 S
C3316 H3307 0.950 . S
C3316 C3315 1.398 . S
C3316 C3317 1.391 . S
C3317 H3305 0.950 . S
C3317 C3313 1.393 . S
C3317 C3316 1.391 . S
C3318 H3308 0.950 . S
C3318 C3319 1.386 . S
C3318 C3320 1.391 . S
C3319 C3318 1.386 . S
C3319 C3323 1.393 . S
C3320 H3309 0.950 . S
C3320 C3318 1.391 . S
C3320 C3321 1.400 . S
C3321 C3315 1.491 1_455 S
C3321 C3320 1.400 . S
C3321 C3322 1.398 . S
C3322 H3310 0.950 . S
C3322 C3321 1.398 . S
C3322 C3323 1.391 . S
C3323 H3311 0.950 . S
C3323 C3319 1.393 . S
C3323 C3322 1.391 . S
H3324 C3332 0.950 . S
H3325 C3337 0.950 . S
H3326 C3334 0.950 . S
H3327 C3336 0.950 . S
H3328 C3338 0.950 . S
H3329 C3340 0.950 . S
H3330 C3342 0.950 . S
H3331 C3343 0.950 . S
C3332 H3324 0.950 . S
C3332 C3333 1.386 . S
C3332 C3334 1.391 . S
C3333 C3332 1.386 . S
C3333 C3337 1.393 . S
C3334 H3326 0.950 . S
C3334 C3332 1.391 . S
C3334 C3335 1.400 . S
C3335 C3334 1.400 . S
C3335 C3336 1.398 . S
C3335 C3341 1.491 1_545 S
C3336 H3327 0.950 . S
C3336 C3335 1.398 . S
C3336 C3337 1.391 . S
C3337 H3325 0.950 . S
C3337 C3333 1.393 . S
C3337 C3336 1.391 . S
C3338 H3328 0.950 . S
C3338 C3339 1.386 . S
C3338 C3340 1.391 . S
C3339 C3338 1.386 . S
C3339 C3343 1.393 . S
C3340 H3329 0.950 . S
C3340 C3338 1.391 . S
C3340 C3341 1.400 . S
C3341 C3335 1.491 1_565 S
C3341 C3340 1.400 . S
C3341 C3342 1.398 . S
C3342 H3330 0.950 . S
C3342 C3341 1.398 . S
C3342 C3343 1.391 . S
C3343 H3331 0.950 . S
C3343 C3339 1.393 . S
C3343 C3342 1.391 . S
H3344 C3352 0.950 . S
H3345 C3357 0.950 . S
H3346 C3354 0.950 . S
H3347 C3356 0.950 . S
H3348 C3358 0.950 . S
H3349 C3360 0.950 . S
H3350 C3362 0.950 . S
H3351 C3363 0.950 . S
C3352 H3344 0.950 . S
C3352 C3353 1.386 . S
C3352 C3354 1.391 . S
C3353 C3352 1.386 . S
C3353 C3357 1.393 . S
C3354 H3346 0.950 . S
C3354 C3352 1.391 . S
C3354 C3355 1.400 . S
C3355 C3354 1.400 . S
C3355 C3356 1.398 . S
C3355 C3361 1.491 1_455 S
C3356 H3347 0.950 . S
C3356 C3355 1.398 . S
C3356 C3357 1.391 . S
C3357 H3345 0.950 . S
C3357 C3353 1.393 . S
C3357 C3356 1.391 . S
C3358 H3348 0.950 . S
C3358 C3359 1.386 . S
C3358 C3360 1.391 . S
C3359 C3358 1.386 . S
C3359 C3363 1.393 . S
C3360 H3349 0.950 . S
C3360 C3358 1.391 . S
C3360 C3361 1.400 . S
C3361 C3355 1.491 1_655 S
C3361 C3360 1.400 . S
C3361 C3362 1.398 . S
C3362 H3350 0.950 . S
C3362 C3361 1.398 . S
C3362 C3363 1.391 . S
C3363 H3351 0.950 . S
C3363 C3359 1.393 . S
C3363 C3362 1.391 . S
H3364 C3372 0.950 . S
H3365 C3377 0.950 . S
H3366 C3374 0.950 . S
H3367 C3376 0.950 . S
H3368 C3378 0.950 . S
H3369 C3380 0.950 . S
H3370 C3382 0.950 . S
H3371 C3383 0.950 . S
C3372 H3364 0.950 . S
C3372 C3373 1.386 . S
C3372 C3374 1.391 . S
C3373 C3372 1.386 . S
C3373 C3377 1.393 . S
C3374 H3366 0.950 . S
C3374 C3372 1.391 . S
C3374 C3375 1.400 . S
C3375 C3374 1.400 . S
C3375 C3376 1.398 . S
C3375 C3381 1.491 1_545 S
C3376 H3367 0.950 . S
C3376 C3375 1.398 . S
C3376 C3377 1.391 . S
C3377 H3365 0.950 . S
C3377 C3373 1.393 . S
C3377 C3376 1.391 . S
C3378 H3368 0.950 . S
C3378 C3379 1.386 . S
C3378 C3380 1.391 . S
C3379 C3378 1.386 . S
C3379 C3383 1.393 . S
C3380 H3369 0.950 . S
C3380 C3378 1.391 . S
C3380 C3381 1.400 . S
C3381 C3375 1.491 1_565 S
C3381 C3380 1.400 . S
C3381 C3382 1.398 . S
C3382 H3370 0.950 . S
C3382 C3381 1.398 . S
C3382 C3383 1.391 . S
C3383 H3371 0.950 . S
C3383 C3379 1.393 . S
C3383 C3382 1.391 . S
H3384 C3392 0.950 . S
H3385 C3397 0.950 . S
H3386 C3394 0.950 . S
H3387 C3396 0.950 . S
H3388 C3398 0.950 . S
H3389 C3400 0.950 . S
H3390 C3402 0.950 . S
H3391 C3403 0.950 . S
C3392 H3384 0.950 . S
C3392 C3393 1.386 . S
C3392 C3394 1.391 . S
C3393 C3392 1.386 . S
C3393 C3397 1.393 . S
C3394 H3386 0.950 . S
C3394 C3392 1.391 . S
C3394 C3395 1.400 . S
C3395 C3394 1.400 . S
C3395 C3396 1.398 . S
C3395 C3401 1.491 1_655 S
C3396 H3387 0.950 . S
C3396 C3395 1.398 . S
C3396 C3397 1.391 . S
C3397 H3385 0.950 . S
C3397 C3393 1.393 . S
C3397 C3396 1.391 . S
C3398 H3388 0.950 . S
C3398 C3399 1.386 . S
C3398 C3400 1.391 . S
C3399 C3398 1.386 . S
C3399 C3403 1.393 . S
C3400 H3389 0.950 . S
C3400 C3398 1.391 . S
C3400 C3401 1.400 . S
C3401 C3395 1.491 1_455 S
C3401 C3400 1.400 . S
C3401 C3402 1.398 . S
C3402 H3390 0.950 . S
C3402 C3401 1.398 . S
C3402 C3403 1.391 . S
C3403 H3391 0.950 . S
C3403 C3399 1.393 . S
C3403 C3402 1.391 . S
H3404 C3412 0.950 . S
H3405 C3417 0.950 . S
H3406 C3414 0.950 . S
H3407 C3416 0.950 . S
H3408 C3418 0.950 . S
H3409 C3420 0.950 . S
H3410 C3422 0.950 . S
H3411 C3423 0.950 . S
C3412 H3404 0.950 . S
C3412 C3413 1.386 . S
C3412 C3414 1.391 . S
C3413 C3412 1.386 . S
C3413 C3417 1.393 . S
C3414 H3406 0.950 . S
C3414 C3412 1.391 . S
C3414 C3415 1.400 . S
C3415 C3414 1.400 . S
C3415 C3416 1.398 . S
C3415 C3421 1.491 1_545 S
C3416 H3407 0.950 . S
C3416 C3415 1.398 . S
C3416 C3417 1.391 . S
C3417 H3405 0.950 . S
C3417 C3413 1.393 . S
C3417 C3416 1.391 . S
C3418 H3408 0.950 . S
C3418 C3419 1.386 . S
C3418 C3420 1.391 . S
C3419 C3418 1.386 . S
C3419 C3423 1.393 . S
C3420 H3409 0.950 . S
C3420 C3418 1.391 . S
C3420 C3421 1.400 . S
C3421 C3415 1.491 1_565 S
C3421 C3420 1.400 . S
C3421 C3422 1.398 . S
C3422 H3410 0.950 . S
C3422 C3421 1.398 . S
C3422 C3423 1.391 . S
C3423 H3411 0.950 . S
C3423 C3419 1.393 . S
C3423 C3422 1.391 . S
H3424 C3432 0.950 . S
H3425 C3437 0.950 . S
H3426 C3434 0.950 . S
H3427 C3436 0.950 . S
H3428 C3438 0.950 . S
H3429 C3440 0.950 . S
H3430 C3442 0.950 . S
H3431 C3443 0.950 . S
C3432 H3424 0.950 . S
C3432 C3433 1.386 . S
C3432 C3434 1.391 . S
C3433 C3432 1.386 . S
C3433 C3437 1.393 . S
C3434 H3426 0.950 . S
C3434 C3432 1.391 . S
C3434 C3435 1.400 . S
C3435 C3434 1.400 . S
C3435 C3436 1.398 . S
C3435 C3441 1.491 1_565 S
C3436 H3427 0.950 . S
C3436 C3435 1.398 . S
C3436 C3437 1.391 . S
C3437 H3425 0.950 . S
C3437 C3433 1.393 . S
C3437 C3436 1.391 . S
C3438 H3428 0.950 . S
C3438 C3439 1.386 . S
C3438 C3440 1.391 . S
C3439 C3438 1.386 . S
C3439 C3443 1.393 . S
C3440 H3429 0.950 . S
C3440 C3438 1.391 . S
C3440 C3441 1.400 . S
C3441 C3435 1.491 1_545 S
C3441 C3440 1.400 . S
C3441 C3442 1.398 . S
C3442 H3430 0.950 . S
C3442 C3441 1.398 . S
C3442 C3443 1.391 . S
C3443 H3431 0.950 . S
C3443 C3439 1.393 . S
C3443 C3442 1.391 . S
H3444 C3452 0.950 . S
H3445 C3457 0.950 . S
H3446 C3454 0.950 . S
H3447 C3456 0.950 . S
H3448 C3458 0.950 . S
H3449 C3460 0.950 . S
H3450 C3462 0.950 . S
H3451 C3463 0.950 . S
C3452 H3444 0.950 . S
C3452 C3453 1.386 . S
C3452 C3454 1.391 . S
C3453 C3452 1.386 . S
C3453 C3457 1.393 . S
C3454 H3446 0.950 . S
C3454 C3452 1.391 . S
C3454 C3455 1.400 . S
C3455 C3454 1.400 . S
C3455 C3456 1.398 . S
C3455 C3461 1.491 1_655 S
C3456 H3447 0.950 . S
C3456 C3455 1.398 . S
C3456 C3457 1.391 . S
C3457 H3445 0.950 . S
C3457 C3453 1.393 . S
C3457 C3456 1.391 . S
C3458 H3448 0.950 . S
C3458 C3459 1.386 . S
C3458 C3460 1.391 . S
C3459 C3458 1.386 . S
C3459 C3463 1.393 . S
C3460 H3449 0.950 . S
C3460 C3458 1.391 . S
C3460 C3461 1.400 . S
C3461 C3455 1.491 1_455 S
C3461 C3460 1.400 . S
C3461 C3462 1.398 . S
C3462 H3450 0.950 . S
C3462 C3461 1.398 . S
C3462 C3463 1.391 . S
C3463 H3451 0.950 . S
C3463 C3459 1.393 . S
C3463 C3462 1.391 . S
H3464 C3472 0.950 . S
H3465 C3477 0.950 . S
H3466 C3474 0.950 . S
H3467 C3476 0.950 . S
H3468 C3478 0.950 . S
H3469 C3480 0.950 . S
H3470 C3482 0.950 . S
H3471 C3483 0.950 . S
C3472 H3464 0.950 . S
C3472 C3473 1.386 . S
C3472 C3474 1.391 . S
C3473 C3472 1.386 . S
C3473 C3477 1.393 . S
C3474 H3466 0.950 . S
C3474 C3472 1.391 . S
C3474 C3475 1.400 . S
C3475 C3474 1.400 . S
C3475 C3476 1.398 . S
C3475 C3481 1.491 1_565 S
C3476 H3467 0.950 . S
C3476 C3475 1.398 . S
C3476 C3477 1.391 . S
C3477 H3465 0.950 . S
C3477 C3473 1.393 . S
C3477 C3476 1.391 . S
C3478 H3468 0.950 . S
C3478 C3479 1.386 . S
C3478 C3480 1.391 . S
C3479 C3478 1.386 . S
C3479 C3483 1.393 . S
C3480 H3469 0.950 . S
C3480 C3478 1.391 . S
C3480 C3481 1.400 . S
C3481 C3475 1.491 1_545 S
C3481 C3480 1.400 . S
C3481 C3482 1.398 . S
C3482 H3470 0.950 . S
C3482 C3481 1.398 . S
C3482 C3483 1.391 . S
C3483 H3471 0.950 . S
C3483 C3479 1.393 . S
C3483 C3482 1.391 . S
H3484 C3492 0.950 . S
H3485 C3497 0.950 . S
H3486 C3494 0.950 . S
H3487 C3496 0.950 . S
H3488 C3498 0.950 . S
H3489 C3500 0.950 . S
H3490 C3502 0.950 . S
H3491 C3503 0.950 . S
C3492 H3484 0.950 . S
C3492 C3493 1.386 . S
C3492 C3494 1.391 . S
C3493 C3492 1.386 . S
C3493 C3497 1.393 . S
C3494 H3486 0.950 . S
C3494 C3492 1.391 . S
C3494 C3495 1.400 . S
C3495 C3494 1.400 . S
C3495 C3496 1.398 . S
C3495 C3501 1.491 1_455 S
C3496 H3487 0.950 . S
C3496 C3495 1.398 . S
C3496 C3497 1.391 . S
C3497 H3485 0.950 . S
C3497 C3493 1.393 . S
C3497 C3496 1.391 . S
C3498 H3488 0.950 . S
C3498 C3499 1.386 . S
C3498 C3500 1.391 . S
C3499 C3498 1.386 . S
C3499 C3503 1.393 . S
C3500 H3489 0.950 . S
C3500 C3498 1.391 . S
C3500 C3501 1.400 . S
C3501 C3495 1.491 1_655 S
C3501 C3500 1.400 . S
C3501 C3502 1.398 . S
C3502 H3490 0.950 . S
C3502 C3501 1.398 . S
C3502 C3503 1.391 . S
C3503 H3491 0.950 . S
C3503 C3499 1.393 . S
C3503 C3502 1.391 . S
H3504 C3512 0.950 . S
H3505 C3517 0.950 . S
H3506 C3514 0.950 . S
H3507 C3516 0.950 . S
H3508 C3518 0.950 . S
H3509 C3520 0.950 . S
H3510 C3522 0.950 . S
H3511 C3523 0.950 . S
C3512 H3504 0.950 . S
C3512 C3513 1.386 . S
C3512 C3514 1.391 . S
C3513 C3512 1.386 . S
C3513 C3517 1.393 . S
C3514 H3506 0.950 . S
C3514 C3512 1.391 . S
C3514 C3515 1.400 . S
C3515 C3514 1.400 . S
C3515 C3516 1.398 . S
C3515 C3521 1.491 1_565 S
C3516 H3507 0.950 . S
C3516 C3515 1.398 . S
C3516 C3517 1.391 . S
C3517 H3505 0.950 . S
C3517 C3513 1.393 . S
C3517 C3516 1.391 . S
C3518 H3508 0.950 . S
C3518 C3519 1.386 . S
C3518 C3520 1.391 . S
C3519 C3518 1.386 . S
C3519 C3523 1.393 . S
C3520 H3509 0.950 . S
C3520 C3518 1.391 . S
C3520 C3521 1.400 . S
C3521 C3515 1.491 1_545 S
C3521 C3520 1.400 . S
C3521 C3522 1.398 . S
C3522 H3510 0.950 . S
C3522 C3521 1.398 . S
C3522 C3523 1.391 . S
C3523 H3511 0.950 . S
C3523 C3519 1.393 . S
C3523 C3522 1.391 . S
H3524 C3532 0.950 . S
H3525 C3537 0.950 . S
H3526 C3534 0.950 . S
H3527 C3536 0.950 . S
H3528 C3538 0.950 . S
H3529 C3540 0.950 . S
H3530 C3542 0.950 . S
H3531 C3543 0.950 . S
C3532 H3524 0.950 . S
C3532 C3533 1.386 . S
C3532 C3534 1.391 . S
C3533 C3532 1.386 . S
C3533 C3537 1.393 . S
C3534 H3526 0.950 . S
C3534 C3532 1.391 . S
C3534 C3535 1.400 . S
C3535 C3534 1.400 . S
C3535 C3536 1.398 . S
C3535 C3541 1.491 1_455 S
C3536 H3527 0.950 . S
C3536 C3535 1.398 . S
C3536 C3537 1.391 . S
C3537 H3525 0.950 . S
C3537 C3533 1.393 . S
C3537 C3536 1.391 . S
C3538 H3528 0.950 . S
C3538 C3539 1.386 . S
C3538 C3540 1.391 . S
C3539 C3538 1.386 . S
C3539 C3543 1.393 . S
C3540 H3529 0.950 . S
C3540 C3538 1.391 . S
C3540 C3541 1.400 . S
C3541 C3535 1.491 1_655 S
C3541 C3540 1.400 . S
C3541 C3542 1.398 . S
C3542 H3530 0.950 . S
C3542 C3541 1.398 . S
C3542 C3543 1.391 . S
C3543 H3531 0.950 . S
C3543 C3539 1.393 . S
C3543 C3542 1.391 . S
H3544 C3552 0.950 . S
H3545 C3557 0.950 . S
H3546 C3554 0.950 . S
H3547 C3556 0.950 . S
H3548 C3558 0.950 . S
H3549 C3560 0.950 . S
H3550 C3562 0.950 . S
H3551 C3563 0.950 . S
C3552 H3544 0.950 . S
C3552 C3553 1.386 . S
C3552 C3554 1.391 . S
C3553 C3552 1.386 . S
C3553 C3557 1.393 . S
C3554 H3546 0.950 . S
C3554 C3552 1.391 . S
C3554 C3555 1.400 . S
C3555 C3554 1.400 . S
C3555 C3556 1.398 . S
C3555 C3561 1.491 1_545 S
C3556 H3547 0.950 . S
C3556 C3555 1.398 . S
C3556 C3557 1.391 . S
C3557 H3545 0.950 . S
C3557 C3553 1.393 . S
C3557 C3556 1.391 . S
C3558 H3548 0.950 . S
C3558 C3559 1.386 . S
C3558 C3560 1.391 . S
C3559 C3558 1.386 . S
C3559 C3563 1.393 . S
C3560 H3549 0.950 . S
C3560 C3558 1.391 . S
C3560 C3561 1.400 . S
C3561 C3555 1.491 1_565 S
C3561 C3560 1.400 . S
C3561 C3562 1.398 . S
C3562 H3550 0.950 . S
C3562 C3561 1.398 . S
C3562 C3563 1.391 . S
C3563 H3551 0.950 . S
C3563 C3559 1.393 . S
C3563 C3562 1.391 . S
H3564 C3572 0.950 . S
H3565 C3577 0.950 . S
H3566 C3574 0.950 . S
H3567 C3576 0.950 . S
H3568 C3578 0.950 . S
H3569 C3580 0.950 . S
H3570 C3582 0.950 . S
H3571 C3583 0.950 . S
C3572 H3564 0.950 . S
C3572 C3573 1.386 . S
C3572 C3574 1.391 . S
C3573 C3572 1.386 . S
C3573 C3577 1.393 . S
C3574 H3566 0.950 . S
C3574 C3572 1.391 . S
C3574 C3575 1.400 . S
C3575 C3574 1.400 . S
C3575 C3576 1.398 . S
C3575 C3581 1.491 1_655 S
C3576 H3567 0.950 . S
C3576 C3575 1.398 . S
C3576 C3577 1.391 . S
C3577 H3565 0.950 . S
C3577 C3573 1.393 . S
C3577 C3576 1.391 . S
C3578 H3568 0.950 . S
C3578 C3579 1.386 . S
C3578 C3580 1.391 . S
C3579 C3578 1.386 . S
C3579 C3583 1.393 . S
C3580 H3569 0.950 . S
C3580 C3578 1.391 . S
C3580 C3581 1.400 . S
C3581 C3575 1.491 1_455 S
C3581 C3580 1.400 . S
C3581 C3582 1.398 . S
C3582 H3570 0.950 . S
C3582 C3581 1.398 . S
C3582 C3583 1.391 . S
C3583 H3571 0.950 . S
C3583 C3579 1.393 . S
C3583 C3582 1.391 . S
H3584 C3592 0.950 . S
H3585 C3597 0.950 . S
H3586 C3594 0.950 . S
H3587 C3596 0.950 . S
H3588 C3598 0.950 . S
H3589 C3600 0.950 . S
H3590 C3602 0.950 . S
H3591 C3603 0.950 . S
C3592 H3584 0.950 . S
C3592 C3593 1.386 . S
C3592 C3594 1.391 . S
C3593 C3592 1.386 . S
C3593 C3597 1.393 . S
C3594 H3586 0.950 . S
C3594 C3592 1.391 . S
C3594 C3595 1.400 . S
C3595 C3594 1.400 . S
C3595 C3596 1.398 . S
C3595 C3601 1.491 1_554 S
C3596 H3587 0.950 . S
C3596 C3595 1.398 . S
C3596 C3597 1.391 . S
C3597 H3585 0.950 . S
C3597 C3593 1.393 . S
C3597 C3596 1.391 . S
C3598 H3588 0.950 . S
C3598 C3599 1.386 . S
C3598 C3600 1.391 . S
C3599 C3598 1.386 . S
C3599 C3603 1.393 . S
C3600 H3589 0.950 . S
C3600 C3598 1.391 . S
C3600 C3601 1.400 . S
C3601 C3595 1.491 1_556 S
C3601 C3600 1.400 . S
C3601 C3602 1.398 . S
C3602 H3590 0.950 . S
C3602 C3601 1.398 . S
C3602 C3603 1.391 . S
C3603 H3591 0.950 . S
C3603 C3599 1.393 . S
C3603 C3602 1.391 . S
H3604 C3612 0.950 . S
H3605 C3617 0.950 . S
H3606 C3614 0.950 . S
H3607 C3616 0.950 . S
H3608 C3618 0.950 . S
H3609 C3620 0.950 . S
H3610 C3622 0.950 . S
H3611 C3623 0.950 . S
C3612 H3604 0.950 . S
C3612 C3613 1.386 . S
C3612 C3614 1.391 . S
C3613 C3612 1.386 . S
C3613 C3617 1.393 . S
C3614 H3606 0.950 . S
C3614 C3612 1.391 . S
C3614 C3615 1.400 . S
C3615 C3614 1.400 . S
C3615 C3616 1.398 . S
C3615 C3621 1.491 1_556 S
C3616 H3607 0.950 . S
C3616 C3615 1.398 . S
C3616 C3617 1.391 . S
C3617 H3605 0.950 . S
C3617 C3613 1.393 . S
C3617 C3616 1.391 . S
C3618 H3608 0.950 . S
C3618 C3619 1.386 . S
C3618 C3620 1.391 . S
C3619 C3618 1.386 . S
C3619 C3623 1.393 . S
C3620 H3609 0.950 . S
C3620 C3618 1.391 . S
C3620 C3621 1.400 . S
C3621 C3615 1.491 1_554 S
C3621 C3620 1.400 . S
C3621 C3622 1.398 . S
C3622 H3610 0.950 . S
C3622 C3621 1.398 . S
C3622 C3623 1.391 . S
C3623 H3611 0.950 . S
C3623 C3619 1.393 . S
C3623 C3622 1.391 . S
H3624 C3632 0.950 . S
H3625 C3637 0.950 . S
H3626 C3634 0.950 . S
H3627 C3636 0.950 . S
H3628 C3638 0.950 . S
H3629 C3640 0.950 . S
H3630 C3642 0.950 . S
H3631 C3643 0.950 . S
C3632 H3624 0.950 . S
C3632 C3633 1.386 . S
C3632 C3634 1.391 . S
C3633 C3632 1.386 . S
C3633 C3637 1.393 . S
C3634 H3626 0.950 . S
C3634 C3632 1.391 . S
C3634 C3635 1.400 . S
C3635 C3634 1.400 . S
C3635 C3636 1.398 . S
C3635 C3641 1.491 1_554 S
C3636 H3627 0.950 . S
C3636 C3635 1.398 . S
C3636 C3637 1.391 . S
C3637 H3625 0.950 . S
C3637 C3633 1.393 . S
C3637 C3636 1.391 . S
C3638 H3628 0.950 . S
C3638 C3639 1.386 . S
C3638 C3640 1.391 . S
C3639 C3638 1.386 . S
C3639 C3643 1.393 . S
C3640 H3629 0.950 . S
C3640 C3638 1.391 . S
C3640 C3641 1.400 . S
C3641 C3635 1.491 1_556 S
C3641 C3640 1.400 . S
C3641 C3642 1.398 . S
C3642 H3630 0.950 . S
C3642 C3641 1.398 . S
C3642 C3643 1.391 . S
C3643 H3631 0.950 . S
C3643 C3639 1.393 . S
C3643 C3642 1.391 . S
H3644 C3652 0.950 . S
H3645 C3657 0.950 . S
H3646 C3654 0.950 . S
H3647 C3656 0.950 . S
H3648 C3658 0.950 . S
H3649 C3660 0.950 . S
H3650 C3662 0.950 . S
H3651 C3663 0.950 . S
C3652 H3644 0.950 . S
C3652 C3653 1.386 . S
C3652 C3654 1.391 . S
C3653 C3652 1.386 . S
C3653 C3657 1.393 . S
C3654 H3646 0.950 . S
C3654 C3652 1.391 . S
C3654 C3655 1.400 . S
C3655 C3654 1.400 . S
C3655 C3656 1.398 . S
C3655 C3661 1.491 1_556 S
C3656 H3647 0.950 . S
C3656 C3655 1.398 . S
C3656 C3657 1.391 . S
C3657 H3645 0.950 . S
C3657 C3653 1.393 . S
C3657 C3656 1.391 . S
C3658 H3648 0.950 . S
C3658 C3659 1.386 . S
C3658 C3660 1.391 . S
C3659 C3658 1.386 . S
C3659 C3663 1.393 . S
C3660 H3649 0.950 . S
C3660 C3658 1.391 . S
C3660 C3661 1.400 . S
C3661 C3655 1.491 1_554 S
C3661 C3660 1.400 . S
C3661 C3662 1.398 . S
C3662 H3650 0.950 . S
C3662 C3661 1.398 . S
C3662 C3663 1.391 . S
C3663 H3651 0.950 . S
C3663 C3659 1.393 . S
C3663 C3662 1.391 . S
H3664 C3672 0.950 . S
H3665 C3677 0.950 . S
H3666 C3674 0.950 . S
H3667 C3676 0.950 . S
H3668 C3678 0.950 . S
H3669 C3680 0.950 . S
H3670 C3682 0.950 . S
H3671 C3683 0.950 . S
C3672 H3664 0.950 . S
C3672 C3673 1.386 . S
C3672 C3674 1.391 . S
C3673 C3672 1.386 . S
C3673 C3677 1.393 . S
C3674 H3666 0.950 . S
C3674 C3672 1.391 . S
C3674 C3675 1.400 . S
C3675 C3674 1.400 . S
C3675 C3676 1.398 . S
C3675 C3681 1.491 1_554 S
C3676 H3667 0.950 . S
C3676 C3675 1.398 . S
C3676 C3677 1.391 . S
C3677 H3665 0.950 . S
C3677 C3673 1.393 . S
C3677 C3676 1.391 . S
C3678 H3668 0.950 . S
C3678 C3679 1.386 . S
C3678 C3680 1.391 . S
C3679 C3678 1.386 . S
C3679 C3683 1.393 . S
C3680 H3669 0.950 . S
C3680 C3678 1.391 . S
C3680 C3681 1.400 . S
C3681 C3675 1.491 1_556 S
C3681 C3680 1.400 . S
C3681 C3682 1.398 . S
C3682 H3670 0.950 . S
C3682 C3681 1.398 . S
C3682 C3683 1.391 . S
C3683 H3671 0.950 . S
C3683 C3679 1.393 . S
C3683 C3682 1.391 . S
H3684 C3692 0.950 . S
H3685 C3697 0.950 . S
H3686 C3694 0.950 . S
H3687 C3696 0.950 . S
H3688 C3698 0.950 . S
H3689 C3700 0.950 . S
H3690 C3702 0.950 . S
H3691 C3703 0.950 . S
C3692 H3684 0.950 . S
C3692 C3693 1.386 . S
C3692 C3694 1.391 . S
C3693 C3692 1.386 . S
C3693 C3697 1.393 . S
C3694 H3686 0.950 . S
C3694 C3692 1.391 . S
C3694 C3695 1.400 . S
C3695 C3694 1.400 . S
C3695 C3696 1.398 . S
C3695 C3701 1.491 1_554 S
C3696 H3687 0.950 . S
C3696 C3695 1.398 . S
C3696 C3697 1.391 . S
C3697 H3685 0.950 . S
C3697 C3693 1.393 . S
C3697 C3696 1.391 . S
C3698 H3688 0.950 . S
C3698 C3699 1.386 . S
C3698 C3700 1.391 . S
C3699 C3698 1.386 . S
C3699 C3703 1.393 . S
C3700 H3689 0.950 . S
C3700 C3698 1.391 . S
C3700 C3701 1.400 . S
C3701 C3695 1.491 1_556 S
C3701 C3700 1.400 . S
C3701 C3702 1.398 . S
C3702 H3690 0.950 . S
C3702 C3701 1.398 . S
C3702 C3703 1.391 . S
C3703 H3691 0.950 . S
C3703 C3699 1.393 . S
C3703 C3702 1.391 . S
H3704 C3712 0.950 . S
H3705 C3717 0.950 . S
H3706 C3714 0.950 . S
H3707 C3716 0.950 . S
H3708 C3718 0.950 . S
H3709 C3720 0.950 . S
H3710 C3722 0.950 . S
H3711 C3723 0.950 . S
C3712 H3704 0.950 . S
C3712 C3713 1.386 . S
C3712 C3714 1.391 . S
C3713 C3712 1.386 . S
C3713 C3717 1.393 . S
C3714 H3706 0.950 . S
C3714 C3712 1.391 . S
C3714 C3715 1.400 . S
C3715 C3714 1.400 . S
C3715 C3716 1.398 . S
C3715 C3721 1.491 1_554 S
C3716 H3707 0.950 . S
C3716 C3715 1.398 . S
C3716 C3717 1.391 . S
C3717 H3705 0.950 . S
C3717 C3713 1.393 . S
C3717 C3716 1.391 . S
C3718 H3708 0.950 . S
C3718 C3719 1.386 . S
C3718 C3720 1.391 . S
C3719 C3718 1.386 . S
C3719 C3723 1.393 . S
C3720 H3709 0.950 . S
C3720 C3718 1.391 . S
C3720 C3721 1.400 . S
C3721 C3715 1.491 1_556 S
C3721 C3720 1.400 . S
C3721 C3722 1.398 . S
C3722 H3710 0.950 . S
C3722 C3721 1.398 . S
C3722 C3723 1.391 . S
C3723 H3711 0.950 . S
C3723 C3719 1.393 . S
C3723 C3722 1.391 . S
H3724 C3732 0.950 . S
H3725 C3737 0.950 . S
H3726 C3734 0.950 . S
H3727 C3736 0.950 . S
H3728 C3738 0.950 . S
H3729 C3740 0.950 . S
H3730 C3742 0.950 . S
H3731 C3743 0.950 . S
C3732 H3724 0.950 . S
C3732 C3733 1.386 . S
C3732 C3734 1.391 . S
C3733 C3732 1.386 . S
C3733 C3737 1.393 . S
C3734 H3726 0.950 . S
C3734 C3732 1.391 . S
C3734 C3735 1.400 . S
C3735 C3734 1.400 . S
C3735 C3736 1.398 . S
C3735 C3741 1.491 1_556 S
C3736 H3727 0.950 . S
C3736 C3735 1.398 . S
C3736 C3737 1.391 . S
C3737 H3725 0.950 . S
C3737 C3733 1.393 . S
C3737 C3736 1.391 . S
C3738 H3728 0.950 . S
C3738 C3739 1.386 . S
C3738 C3740 1.391 . S
C3739 C3738 1.386 . S
C3739 C3743 1.393 . S
C3740 H3729 0.950 . S
C3740 C3738 1.391 . S
C3740 C3741 1.400 . S
C3741 C3735 1.491 1_554 S
C3741 C3740 1.400 . S
C3741 C3742 1.398 . S
C3742 H3730 0.950 . S
C3742 C3741 1.398 . S
C3742 C3743 1.391 . S
C3743 H3731 0.950 . S
C3743 C3739 1.393 . S
C3743 C3742 1.391 . S
H3744 C3752 0.950 . S
H3745 C3757 0.950 . S
H3746 C3754 0.950 . S
H3747 C3756 0.950 . S
H3748 C3758 0.950 . S
H3749 C3760 0.950 . S
H3750 C3762 0.950 . S
H3751 C3763 0.950 . S
C3752 H3744 0.950 . S
C3752 C3753 1.386 . S
C3752 C3754 1.391 . S
C3753 C3752 1.386 . S
C3753 C3757 1.393 . S
C3754 H3746 0.950 . S
C3754 C3752 1.391 . S
C3754 C3755 1.400 . S
C3755 C3754 1.400 . S
C3755 C3756 1.398 . S
C3755 C3761 1.491 . S
C3756 H3747 0.950 . S
C3756 C3755 1.398 . S
C3756 C3757 1.391 . S
C3757 H3745 0.950 . S
C3757 C3753 1.393 . S
C3757 C3756 1.391 . S
C3758 H3748 0.950 . S
C3758 C3759 1.386 . S
C3758 C3760 1.391 . S
C3759 C3758 1.386 . S
C3759 C3763 1.393 . S
C3760 H3749 0.950 . S
C3760 C3758 1.391 . S
C3760 C3761 1.400 . S
C3761 C3755 1.491 . S
C3761 C3760 1.400 . S
C3761 C3762 1.398 . S
C3762 H3750 0.950 . S
C3762 C3761 1.398 . S
C3762 C3763 1.391 . S
C3763 H3751 0.950 . S
C3763 C3759 1.393 . S
C3763 C3762 1.391 . S
H3764 C3772 0.950 . S
H3765 C3777 0.950 . S
H3766 C3774 0.950 . S
H3767 C3776 0.950 . S
H3768 C3778 0.950 . S
H3769 C3780 0.950 . S
H3770 C3782 0.950 . S
H3771 C3783 0.950 . S
C3772 H3764 0.950 . S
C3772 C3773 1.386 . S
C3772 C3774 1.391 . S
C3773 C3772 1.386 . S
C3773 C3777 1.393 . S
C3774 H3766 0.950 . S
C3774 C3772 1.391 . S
C3774 C3775 1.400 . S
C3775 C3774 1.400 . S
C3775 C3776 1.398 . S
C3775 C3781 1.491 . S
C3776 H3767 0.950 . S
C3776 C3775 1.398 . S
C3776 C3777 1.391 . S
C3777 H3765 0.950 . S
C3777 C3773 1.393 . S
C3777 C3776 1.391 . S
C3778 H3768 0.950 . S
C3778 C3779 1.386 . S
C3778 C3780 1.391 . S
C3779 C3778 1.386 . S
C3779 C3783 1.393 . S
C3780 H3769 0.950 . S
C3780 C3778 1.391 . S
C3780 C3781 1.400 . S
C3781 C3775 1.491 . S
C3781 C3780 1.400 . S
C3781 C3782 1.398 . S
C3782 H3770 0.950 . S
C3782 C3781 1.398 . S
C3782 C3783 1.391 . S
C3783 H3771 0.950 . S
C3783 C3779 1.393 . S
C3783 C3782 1.391 . S
H3784 C3792 0.950 . S
H3785 C3797 0.950 . S
H3786 C3794 0.950 . S
H3787 C3796 0.950 . S
H3788 C3798 0.950 . S
H3789 C3800 0.950 . S
H3790 C3802 0.950 . S
H3791 C3803 0.950 . S
C3792 H3784 0.950 . S
C3792 C3793 1.386 . S
C3792 C3794 1.391 . S
C3793 C3792 1.386 . S
C3793 C3797 1.393 . S
C3794 H3786 0.950 . S
C3794 C3792 1.391 . S
C3794 C3795 1.400 . S
C3795 C3794 1.400 . S
C3795 C3796 1.398 . S
C3795 C3801 1.491 . S
C3796 H3787 0.950 . S
C3796 C3795 1.398 . S
C3796 C3797 1.391 . S
C3797 H3785 0.950 . S
C3797 C3793 1.393 . S
C3797 C3796 1.391 . S
C3798 H3788 0.950 . S
C3798 C3799 1.386 . S
C3798 C3800 1.391 . S
C3799 C3798 1.386 . S
C3799 C3803 1.393 . S
C3800 H3789 0.950 . S
C3800 C3798 1.391 . S
C3800 C3801 1.400 . S
C3801 C3795 1.491 . S
C3801 C3800 1.400 . S
C3801 C3802 1.398 . S
C3802 H3790 0.950 . S
C3802 C3801 1.398 . S
C3802 C3803 1.391 . S
C3803 H3791 0.950 . S
C3803 C3799 1.393 . S
C3803 C3802 1.391 . S
H3804 C3812 0.950 . S
H3805 C3817 0.950 . S
H3806 C3814 0.950 . S
H3807 C3816 0.950 . S
H3808 C3818 0.950 . S
H3809 C3820 0.950 . S
H3810 C3822 0.950 . S
H3811 C3823 0.950 . S
C3812 H3804 0.950 . S
C3812 C3813 1.386 . S
C3812 C3814 1.391 . S
C3813 C3812 1.386 . S
C3813 C3817 1.393 . S
C3814 H3806 0.950 . S
C3814 C3812 1.391 . S
C3814 C3815 1.400 . S
C3815 C3814 1.400 . S
C3815 C3816 1.398 . S
C3815 C3821 1.491 . S
C3816 H3807 0.950 . S
C3816 C3815 1.398 . S
C3816 C3817 1.391 . S
C3817 H3805 0.950 . S
C3817 C3813 1.393 . S
C3817 C3816 1.391 . S
C3818 H3808 0.950 . S
C3818 C3819 1.386 . S
C3818 C3820 1.391 . S
C3819 C3818 1.386 . S
C3819 C3823 1.393 . S
C3820 H3809 0.950 . S
C3820 C3818 1.391 . S
C3820 C3821 1.400 . S
C3821 C3815 1.491 . S
C3821 C3820 1.400 . S
C3821 C3822 1.398 . S
C3822 H3810 0.950 . S
C3822 C3821 1.398 . S
C3822 C3823 1.391 . S
C3823 H3811 0.950 . S
C3823 C3819 1.393 . S
C3823 C3822 1.391 . S
H3824 C3832 0.950 . S
H3825 C3837 0.950 . S
H3826 C3834 0.950 . S
H3827 C3836 0.950 . S
H3828 C3838 0.950 . S
H3829 C3840 0.950 . S
H3830 C3842 0.950 . S
H3831 C3843 0.950 . S
C3832 H3824 0.950 . S
C3832 C3833 1.386 . S
C3832 C3834 1.391 . S
C3833 C3832 1.386 . S
C3833 C3837 1.393 . S
C3834 H3826 0.950 . S
C3834 C3832 1.391 . S
C3834 C3835 1.400 . S
C3835 C3834 1.400 . S
C3835 C3836 1.398 . S
C3835 C3841 1.491 . S
C3836 H3827 0.950 . S
C3836 C3835 1.398 . S
C3836 C3837 1.391 . S
C3837 H3825 0.950 . S
C3837 C3833 1.393 . S
C3837 C3836 1.391 . S
C3838 H3828 0.950 . S
C3838 C3839 1.386 . S
C3838 C3840 1.391 . S
C3839 C3838 1.386 . S
C3839 C3843 1.393 . S
C3840 H3829 0.950 . S
C3840 C3838 1.391 . S
C3840 C3841 1.400 . S
C3841 C3835 1.491 . S
C3841 C3840 1.400 . S
C3841 C3842 1.398 . S
C3842 H3830 0.950 . S
C3842 C3841 1.398 . S
C3842 C3843 1.391 . S
C3843 H3831 0.950 . S
C3843 C3839 1.393 . S
C3843 C3842 1.391 . S
H3844 C3852 0.950 . S
H3845 C3857 0.950 . S
H3846 C3854 0.950 . S
H3847 C3856 0.950 . S
H3848 C3858 0.950 . S
H3849 C3860 0.950 . S
H3850 C3862 0.950 . S
H3851 C3863 0.950 . S
C3852 H3844 0.950 . S
C3852 C3853 1.386 . S
C3852 C3854 1.391 . S
C3853 C3852 1.386 . S
C3853 C3857 1.393 . S
C3854 H3846 0.950 . S
C3854 C3852 1.391 . S
C3854 C3855 1.400 . S
C3855 C3854 1.400 . S
C3855 C3856 1.398 . S
C3855 C3861 1.491 . S
C3856 H3847 0.950 . S
C3856 C3855 1.398 . S
C3856 C3857 1.391 . S
C3857 H3845 0.950 . S
C3857 C3853 1.393 . S
C3857 C3856 1.391 . S
C3858 H3848 0.950 . S
C3858 C3859 1.386 . S
C3858 C3860 1.391 . S
C3859 C3858 1.386 . S
C3859 C3863 1.393 . S
C3860 H3849 0.950 . S
C3860 C3858 1.391 . S
C3860 C3861 1.400 . S
C3861 C3855 1.491 . S
C3861 C3860 1.400 . S
C3861 C3862 1.398 . S
C3862 H3850 0.950 . S
C3862 C3861 1.398 . S
C3862 C3863 1.391 . S
C3863 H3851 0.950 . S
C3863 C3859 1.393 . S
C3863 C3862 1.391 . S
H3864 C3872 0.950 . S
H3865 C3877 0.950 . S
H3866 C3874 0.950 . S
H3867 C3876 0.950 . S
H3868 C3878 0.950 . S
H3869 C3880 0.950 . S
H3870 C3882 0.950 . S
H3871 C3883 0.950 . S
C3872 H3864 0.950 . S
C3872 C3873 1.386 . S
C3872 C3874 1.391 . S
C3873 C3872 1.386 . S
C3873 C3877 1.393 . S
C3874 H3866 0.950 . S
C3874 C3872 1.391 . S
C3874 C3875 1.400 . S
C3875 C3874 1.400 . S
C3875 C3876 1.398 . S
C3875 C3881 1.491 . S
C3876 H3867 0.950 . S
C3876 C3875 1.398 . S
C3876 C3877 1.391 . S
C3877 H3865 0.950 . S
C3877 C3873 1.393 . S
C3877 C3876 1.391 . S
C3878 H3868 0.950 . S
C3878 C3879 1.386 . S
C3878 C3880 1.391 . S
C3879 C3878 1.386 . S
C3879 C3883 1.393 . S
C3880 H3869 0.950 . S
C3880 C3878 1.391 . S
C3880 C3881 1.400 . S
C3881 C3875 1.491 . S
C3881 C3880 1.400 . S
C3881 C3882 1.398 . S
C3882 H3870 0.950 . S
C3882 C3881 1.398 . S
C3882 C3883 1.391 . S
C3883 H3871 0.950 . S
C3883 C3879 1.393 . S
C3883 C3882 1.391 . S
H3884 C3892 0.950 . S
H3885 C3897 0.950 . S
H3886 C3894 0.950 . S
H3887 C3896 0.950 . S
H3888 C3898 0.950 . S
H3889 C3900 0.950 . S
H3890 C3902 0.950 . S
H3891 C3903 0.950 . S
C3892 H3884 0.950 . S
C3892 C3893 1.386 . S
C3892 C3894 1.391 . S
C3893 C3892 1.386 . S
C3893 C3897 1.393 . S
C3894 H3886 0.950 . S
C3894 C3892 1.391 . S
C3894 C3895 1.400 . S
C3895 C3894 1.400 . S
C3895 C3896 1.398 . S
C3895 C3901 1.491 . S
C3896 H3887 0.950 . S
C3896 C3895 1.398 . S
C3896 C3897 1.391 . S
C3897 H3885 0.950 . S
C3897 C3893 1.393 . S
C3897 C3896 1.391 . S
C3898 H3888 0.950 . S
C3898 C3899 1.386 . S
C3898 C3900 1.391 . S
C3899 C3898 1.386 . S
C3899 C3903 1.393 . S
C3900 H3889 0.950 . S
C3900 C3898 1.391 . S
C3900 C3901 1.400 . S
C3901 C3895 1.491 . S
C3901 C3900 1.400 . S
C3901 C3902 1.398 . S
C3902 H3890 0.950 . S
C3902 C3901 1.398 . S
C3902 C3903 1.391 . S
C3903 H3891 0.950 . S
C3903 C3899 1.393 . S
C3903 C3902 1.391 . S
H3904 C3912 0.950 . S
H3905 C3917 0.950 . S
H3906 C3914 0.950 . S
H3907 C3916 0.950 . S
H3908 C3918 0.950 . S
H3909 C3920 0.950 . S
H3910 C3922 0.950 . S
H3911 C3923 0.950 . S
C3912 H3904 0.950 . S
C3912 C3913 1.386 . S
C3912 C3914 1.391 . S
C3913 C3912 1.386 . S
C3913 C3917 1.393 . S
C3914 H3906 0.950 . S
C3914 C3912 1.391 . S
C3914 C3915 1.400 . S
C3915 C3914 1.400 . S
C3915 C3916 1.398 . S
C3915 C3921 1.491 . S
C3916 H3907 0.950 . S
C3916 C3915 1.398 . S
C3916 C3917 1.391 . S
C3917 H3905 0.950 . S
C3917 C3913 1.393 . S
C3917 C3916 1.391 . S
C3918 H3908 0.950 . S
C3918 C3919 1.386 . S
C3918 C3920 1.391 . S
C3919 C3918 1.386 . S
C3919 C3923 1.393 . S
C3920 H3909 0.950 . S
C3920 C3918 1.391 . S
C3920 C3921 1.400 . S
C3921 C3915 1.491 . S
C3921 C3920 1.400 . S
C3921 C3922 1.398 . S
C3922 H3910 0.950 . S
C3922 C3921 1.398 . S
C3922 C3923 1.391 . S
C3923 H3911 0.950 . S
C3923 C3919 1.393 . S
C3923 C3922 1.391 . S
H3924 C3932 0.950 . S
H3925 C3937 0.950 . S
H3926 C3934 0.950 . S
H3927 C3936 0.950 . S
H3928 C3938 0.950 . S
H3929 C3940 0.950 . S
H3930 C3942 0.950 . S
H3931 C3943 0.950 . S
C3932 H3924 0.950 . S
C3932 C3933 1.386 . S
C3932 C3934 1.391 . S
C3933 C3932 1.386 . S
C3933 C3937 1.393 . S
C3934 H3926 0.950 . S
C3934 C3932 1.391 . S
C3934 C3935 1.400 . S
C3935 C3934 1.400 . S
C3935 C3936 1.398 . S
C3935 C3941 1.491 . S
C3936 H3927 0.950 . S
C3936 C3935 1.398 . S
C3936 C3937 1.391 . S
C3937 H3925 0.950 . S
C3937 C3933 1.393 . S
C3937 C3936 1.391 . S
C3938 H3928 0.950 . S
C3938 C3939 1.386 . S
C3938 C3940 1.391 . S
C3939 C3938 1.386 . S
C3939 C3943 1.393 . S
C3940 H3929 0.950 . S
C3940 C3938 1.391 . S
C3940 C3941 1.400 . S
C3941 C3935 1.491 . S
C3941 C3940 1.400 . S
C3941 C3942 1.398 . S
C3942 H3930 0.950 . S
C3942 C3941 1.398 . S
C3942 C3943 1.391 . S
C3943 H3931 0.950 . S
C3943 C3939 1.393 . S
C3943 C3942 1.391 . S
H3944 C3952 0.950 . S
H3945 C3957 0.950 . S
H3946 C3954 0.950 . S
H3947 C3956 0.950 . S
H3948 C3958 0.950 . S
H3949 C3960 0.950 . S
H3950 C3962 0.950 . S
H3951 C3963 0.950 . S
C3952 H3944 0.950 . S
C3952 C3953 1.386 . S
C3952 C3954 1.391 . S
C3953 C3952 1.386 . S
C3953 C3957 1.393 . S
C3954 H3946 0.950 . S
C3954 C3952 1.391 . S
C3954 C3955 1.400 . S
C3955 C3954 1.400 . S
C3955 C3956 1.398 . S
C3955 C3961 1.491 . S
C3956 H3947 0.950 . S
C3956 C3955 1.398 . S
C3956 C3957 1.391 . S
C3957 H3945 0.950 . S
C3957 C3953 1.393 . S
C3957 C3956 1.391 . S
C3958 H3948 0.950 . S
C3958 C3959 1.386 . S
C3958 C3960 1.391 . S
C3959 C3958 1.386 . S
C3959 C3963 1.393 . S
C3960 H3949 0.950 . S
C3960 C3958 1.391 . S
C3960 C3961 1.400 . S
C3961 C3955 1.491 . S
C3961 C3960 1.400 . S
C3961 C3962 1.398 . S
C3962 H3950 0.950 . S
C3962 C3961 1.398 . S
C3962 C3963 1.391 . S
C3963 H3951 0.950 . S
C3963 C3959 1.393 . S
C3963 C3962 1.391 . S
H3964 C3972 0.950 . S
H3965 C3977 0.950 . S
H3966 C3974 0.950 . S
H3967 C3976 0.950 . S
H3968 C3978 0.950 . S
H3969 C3980 0.950 . S
H3970 C3982 0.950 . S
H3971 C3983 0.950 . S
C3972 H3964 0.950 . S
C3972 C3973 1.386 . S
C3972 C3974 1.391 . S
C3973 C3972 1.386 . S
C3973 C3977 1.393 . S
C3974 H3966 0.950 . S
C3974 C3972 1.391 . S
C3974 C3975 1.400 . S
C3975 C3974 1.400 . S
C3975 C3976 1.398 . S
C3975 C3981 1.491 . S
C3976 H3967 0.950 . S
C3976 C3975 1.398 . S
C3976 C3977 1.391 . S
C3977 H3965 0.950 . S
C3977 C3973 1.393 . S
C3977 C3976 1.391 . S
C3978 H3968 0.950 . S
C3978 C3979 1.386 . S
C3978 C3980 1.391 . S
C3979 C3978 1.386 . S
C3979 C3983 1.393 . S
C3980 H3969 0.950 . S
C3980 C3978 1.391 . S
C3980 C3981 1.400 . S
C3981 C3975 1.491 . S
C3981 C3980 1.400 . S
C3981 C3982 1.398 . S
C3982 H3970 0.950 . S
C3982 C3981 1.398 . S
C3982 C3983 1.391 . S
C3983 H3971 0.950 . S
C3983 C3979 1.393 . S
C3983 C3982 1.391 . S
H3984 C3992 0.950 . S
H3985 C3997 0.950 . S
H3986 C3994 0.950 . S
H3987 C3996 0.950 . S
H3988 C3998 0.950 . S
H3989 C4000 0.950 . S
H3990 C4002 0.950 . S
H3991 C4003 0.950 . S
C3992 H3984 0.950 . S
C3992 C3993 1.386 . S
C3992 C3994 1.391 . S
C3993 C3992 1.386 . S
C3993 C3997 1.393 . S
C3994 H3986 0.950 . S
C3994 C3992 1.391 . S
C3994 C3995 1.400 . S
C3995 C3994 1.400 . S
C3995 C3996 1.398 . S
C3995 C4001 1.491 . S
C3996 H3987 0.950 . S
C3996 C3995 1.398 . S
C3996 C3997 1.391 . S
C3997 H3985 0.950 . S
C3997 C3993 1.393 . S
C3997 C3996 1.391 . S
C3998 H3988 0.950 . S
C3998 C3999 1.386 . S
C3998 C4000 1.391 . S
C3999 C3998 1.386 . S
C3999 C4003 1.393 . S
C4000 H3989 0.950 . S
C4000 C3998 1.391 . S
C4000 C4001 1.400 . S
C4001 C3995 1.491 . S
C4001 C4000 1.400 . S
C4001 C4002 1.398 . S
C4002 H3990 0.950 . S
C4002 C4001 1.398 . S
C4002 C4003 1.391 . S
C4003 H3991 0.950 . S
C4003 C3999 1.393 . S
C4003 C4002 1.391 . S
H4004 C4012 0.950 . S
H4005 C4017 0.950 . S
H4006 C4014 0.950 . S
H4007 C4016 0.950 . S
H4008 C4018 0.950 . S
H4009 C4020 0.950 . S
H4010 C4022 0.950 . S
H4011 C4023 0.950 . S
C4012 H4004 0.950 . S
C4012 C4013 1.386 . S
C4012 C4014 1.391 . S
C4013 C4012 1.386 . S
C4013 C4017 1.393 . S
C4014 H4006 0.950 . S
C4014 C4012 1.391 . S
C4014 C4015 1.400 . S
C4015 C4014 1.400 . S
C4015 C4016 1.398 . S
C4015 C4021 1.491 . S
C4016 H4007 0.950 . S
C4016 C4015 1.398 . S
C4016 C4017 1.391 . S
C4017 H4005 0.950 . S
C4017 C4013 1.393 . S
C4017 C4016 1.391 . S
C4018 H4008 0.950 . S
C4018 C4019 1.386 . S
C4018 C4020 1.391 . S
C4019 C4018 1.386 . S
C4019 C4023 1.393 . S
C4020 H4009 0.950 . S
C4020 C4018 1.391 . S
C4020 C4021 1.400 . S
C4021 C4015 1.491 . S
C4021 C4020 1.400 . S
C4021 C4022 1.398 . S
C4022 H4010 0.950 . S
C4022 C4021 1.398 . S
C4022 C4023 1.391 . S
C4023 H4011 0.950 . S
C4023 C4019 1.393 . S
C4023 C4022 1.391 . S
H4024 C4032 0.950 . S
H4025 C4037 0.950 . S
H4026 C4034 0.950 . S
H4027 C4036 0.950 . S
H4028 C4038 0.950 . S
H4029 C4040 0.950 . S
H4030 C4042 0.950 . S
H4031 C4043 0.950 . S
C4032 H4024 0.950 . S
C4032 C4033 1.386 . S
C4032 C4034 1.391 . S
C4033 C4032 1.386 . S
C4033 C4037 1.393 . S
C4034 H4026 0.950 . S
C4034 C4032 1.391 . S
C4034 C4035 1.400 . S
C4035 C4034 1.400 . S
C4035 C4036 1.398 . S
C4035 C4041 1.491 . S
C4036 H4027 0.950 . S
C4036 C4035 1.398 . S
C4036 C4037 1.391 . S
C4037 H4025 0.950 . S
C4037 C4033 1.393 . S
C4037 C4036 1.391 . S
C4038 H4028 0.950 . S
C4038 C4039 1.386 . S
C4038 C4040 1.391 . S
C4039 C4038 1.386 . S
C4039 C4043 1.393 . S
C4040 H4029 0.950 . S
C4040 C4038 1.391 . S
C4040 C4041 1.400 . S
C4041 C4035 1.491 . S
C4041 C4040 1.400 . S
C4041 C4042 1.398 . S
C4042 H4030 0.950 . S
C4042 C4041 1.398 . S
C4042 C4043 1.391 . S
C4043 H4031 0.950 . S
C4043 C4039 1.393 . S
C4043 C4042 1.391 . S
H4044 C4052 0.950 . S
H4045 C4057 0.950 . S
H4046 C4054 0.950 . S
H4047 C4056 0.950 . S
H4048 C4058 0.950 . S
H4049 C4060 0.950 . S
H4050 C4062 0.950 . S
H4051 C4063 0.950 . S
C4052 H4044 0.950 . S
C4052 C4053 1.386 . S
C4052 C4054 1.391 . S
C4053 C4052 1.386 . S
C4053 C4057 1.393 . S
C4054 H4046 0.950 . S
C4054 C4052 1.391 . S
C4054 C4055 1.400 . S
C4055 C4054 1.400 . S
C4055 C4056 1.398 . S
C4055 C4061 1.491 . S
C4056 H4047 0.950 . S
C4056 C4055 1.398 . S
C4056 C4057 1.391 . S
C4057 H4045 0.950 . S
C4057 C4053 1.393 . S
C4057 C4056 1.391 . S
C4058 H4048 0.950 . S
C4058 C4059 1.386 . S
C4058 C4060 1.391 . S
C4059 C4058 1.386 . S
C4059 C4063 1.393 . S
C4060 H4049 0.950 . S
C4060 C4058 1.391 . S
C4060 C4061 1.400 . S
C4061 C4055 1.491 . S
C4061 C4060 1.400 . S
C4061 C4062 1.398 . S
C4062 H4050 0.950 . S
C4062 C4061 1.398 . S
C4062 C4063 1.391 . S
C4063 H4051 0.950 . S
C4063 C4059 1.393 . S
C4063 C4062 1.391 . S
H4064 C4072 0.950 . S
H4065 C4077 0.950 . S
H4066 C4074 0.950 . S
H4067 C4076 0.950 . S
H4068 C4078 0.950 . S
H4069 C4080 0.950 . S
H4070 C4082 0.950 . S
H4071 C4083 0.950 . S
C4072 H4064 0.950 . S
C4072 C4073 1.386 . S
C4072 C4074 1.391 . S
C4073 C4072 1.386 . S
C4073 C4077 1.393 . S
C4074 H4066 0.950 . S
C4074 C4072 1.391 . S
C4074 C4075 1.400 . S
C4075 C4074 1.400 . S
C4075 C4076 1.398 . S
C4075 C4081 1.491 . S
C4076 H4067 0.950 . S
C4076 C4075 1.398 . S
C4076 C4077 1.391 . S
C4077 H4065 0.950 . S
C4077 C4073 1.393 . S
C4077 C4076 1.391 . S
C4078 H4068 0.950 . S
C4078 C4079 1.386 . S
C4078 C4080 1.391 . S
C4079 C4078 1.386 . S
C4079 C4083 1.393 . S
C4080 H4069 0.950 . S
C4080 C4078 1.391 . S
C4080 C4081 1.400 . S
C4081 C4075 1.491 . S
C4081 C4080 1.400 . S
C4081 C4082 1.398 . S
C4082 H4070 0.950 . S
C4082 C4081 1.398 . S
C4082 C4083 1.391 . S
C4083 H4071 0.950 . S
C4083 C4079 1.393 . S
C4083 C4082 1.391 . S
H4084 C4092 0.950 . S
H4085 C4097 0.950 . S
H4086 C4094 0.950 . S
H4087 C4096 0.950 . S
H4088 C4098 0.950 . S
H4089 C4100 0.950 . S
H4090 C4102 0.950 . S
H4091 C4103 0.950 . S
C4092 H4084 0.950 . S
C4092 C4093 1.386 . S
C4092 C4094 1.391 . S
C4093 C4092 1.386 . S
C4093 C4097 1.393 . S
C4094 H4086 0.950 . S
C4094 C4092 1.391 . S
C4094 C4095 1.400 . S
C4095 C4094 1.400 . S
C4095 C4096 1.398 . S
C4095 C4101 1.491 . S
C4096 H4087 0.950 . S
C4096 C4095 1.398 . S
C4096 C4097 1.391 . S
C4097 H4085 0.950 . S
C4097 C4093 1.393 . S
C4097 C4096 1.391 . S
C4098 H4088 0.950 . S
C4098 C4099 1.386 . S
C4098 C4100 1.391 . S
C4099 C4098 1.386 . S
C4099 C4103 1.393 . S
C4100 H4089 0.950 . S
C4100 C4098 1.391 . S
C4100 C4101 1.400 . S
C4101 C4095 1.491 . S
C4101 C4100 1.400 . S
C4101 C4102 1.398 . S
C4102 H4090 0.950 . S
C4102 C4101 1.398 . S
C4102 C4103 1.391 . S
C4103 H4091 0.950 . S
C4103 C4099 1.393 . S
C4103 C4102 1.391 . S
H4104 C4112 0.950 . S
H4105 C4117 0.950 . S
H4106 C4114 0.950 . S
H4107 C4116 0.950 . S
H4108 C4118 0.950 . S
H4109 C4120 0.950 . S
H4110 C4122 0.950 . S
H4111 C4123 0.950 . S
C4112 H4104 0.950 . S
C4112 C4113 1.386 . S
C4112 C4114 1.391 . S
C4113 C4112 1.386 . S
C4113 C4117 1.393 . S
C4114 H4106 0.950 . S
C4114 C4112 1.391 . S
C4114 C4115 1.400 . S
C4115 C4114 1.400 . S
C4115 C4116 1.398 . S
C4115 C4121 1.491 . S
C4116 H4107 0.950 . S
C4116 C4115 1.398 . S
C4116 C4117 1.391 . S
C4117 H4105 0.950 . S
C4117 C4113 1.393 . S
C4117 C4116 1.391 . S
C4118 H4108 0.950 . S
C4118 C4119 1.386 . S
C4118 C4120 1.391 . S
C4119 C4118 1.386 . S
C4119 C4123 1.393 . S
C4120 H4109 0.950 . S
C4120 C4118 1.391 . S
C4120 C4121 1.400 . S
C4121 C4115 1.491 . S
C4121 C4120 1.400 . S
C4121 C4122 1.398 . S
C4122 H4110 0.950 . S
C4122 C4121 1.398 . S
C4122 C4123 1.391 . S
C4123 H4111 0.950 . S
C4123 C4119 1.393 . S
C4123 C4122 1.391 . S
H4124 C4132 0.950 . S
H4125 C4137 0.950 . S
H4126 C4134 0.950 . S
H4127 C4136 0.950 . S
H4128 C4138 0.950 . S
H4129 C4140 0.950 . S
H4130 C4142 0.950 . S
H4131 C4143 0.950 . S
C4132 H4124 0.950 . S
C4132 C4133 1.386 . S
C4132 C4134 1.391 . S
C4133 C4132 1.386 . S
C4133 C4137 1.393 . S
C4134 H4126 0.950 . S
C4134 C4132 1.391 . S
C4134 C4135 1.400 . S
C4135 C4134 1.400 . S
C4135 C4136 1.398 . S
C4135 C4141 1.491 . S
C4136 H4127 0.950 . S
C4136 C4135 1.398 . S
C4136 C4137 1.391 . S
C4137 H4125 0.950 . S
C4137 C4133 1.393 . S
C4137 C4136 1.391 . S
C4138 H4128 0.950 . S
C4138 C4139 1.386 . S
C4138 C4140 1.391 . S
C4139 C4138 1.386 . S
C4139 C4143 1.393 . S
C4140 H4129 0.950 . S
C4140 C4138 1.391 . S
C4140 C4141 1.400 . S
C4141 C4135 1.491 . S
C4141 C4140 1.400 . S
C4141 C4142 1.398 . S
C4142 H4130 0.950 . S
C4142 C4141 1.398 . S
C4142 C4143 1.391 . S
C4143 H4131 0.950 . S
C4143 C4139 1.393 . S
C4143 C4142 1.391 . S
H4144 C4152 0.950 . S
H4145 C4157 0.950 . S
H4146 C4154 0.950 . S
H4147 C4156 0.950 . S
H4148 C4158 0.950 . S
H4149 C4160 0.950 . S
H4150 C4162 0.950 . S
H4151 C4163 0.950 . S
C4152 H4144 0.950 . S
C4152 C4153 1.386 . S
C4152 C4154 1.391 . S
C4153 C4152 1.386 . S
C4153 C4157 1.393 . S
C4154 H4146 0.950 . S
C4154 C4152 1.391 . S
C4154 C4155 1.400 . S
C4155 C4154 1.400 . S
C4155 C4156 1.398 . S
C4155 C4161 1.491 . S
C4156 H4147 0.950 . S
C4156 C4155 1.398 . S
C4156 C4157 1.391 . S
C4157 H4145 0.950 . S
C4157 C4153 1.393 . S
C4157 C4156 1.391 . S
C4158 H4148 0.950 . S
C4158 C4159 1.386 . S
C4158 C4160 1.391 . S
C4159 C4158 1.386 . S
C4159 C4163 1.393 . S
C4160 H4149 0.950 . S
C4160 C4158 1.391 . S
C4160 C4161 1.400 . S
C4161 C4155 1.491 . S
C4161 C4160 1.400 . S
C4161 C4162 1.398 . S
C4162 H4150 0.950 . S
C4162 C4161 1.398 . S
C4162 C4163 1.391 . S
C4163 H4151 0.950 . S
C4163 C4159 1.393 . S
C4163 C4162 1.391 . S
H4164 C4172 0.950 . S
H4165 C4177 0.950 . S
H4166 C4174 0.950 . S
H4167 C4176 0.950 . S
H4168 C4178 0.950 . S
H4169 C4180 0.950 . S
H4170 C4182 0.950 . S
H4171 C4183 0.950 . S
C4172 H4164 0.950 . S
C4172 C4173 1.386 . S
C4172 C4174 1.391 . S
C4173 C4172 1.386 . S
C4173 C4177 1.393 . S
C4174 H4166 0.950 . S
C4174 C4172 1.391 . S
C4174 C4175 1.400 . S
C4175 C4174 1.400 . S
C4175 C4176 1.398 . S
C4175 C4181 1.491 . S
C4176 H4167 0.950 . S
C4176 C4175 1.398 . S
C4176 C4177 1.391 . S
C4177 H4165 0.950 . S
C4177 C4173 1.393 . S
C4177 C4176 1.391 . S
C4178 H4168 0.950 . S
C4178 C4179 1.386 . S
C4178 C4180 1.391 . S
C4179 C4178 1.386 . S
C4179 C4183 1.393 . S
C4180 H4169 0.950 . S
C4180 C4178 1.391 . S
C4180 C4181 1.400 . S
C4181 C4175 1.491 . S
C4181 C4180 1.400 . S
C4181 C4182 1.398 . S
C4182 H4170 0.950 . S
C4182 C4181 1.398 . S
C4182 C4183 1.391 . S
C4183 H4171 0.950 . S
C4183 C4179 1.393 . S
C4183 C4182 1.391 . S
H4184 C4192 0.950 . S
H4185 C4197 0.950 . S
H4186 C4194 0.950 . S
H4187 C4196 0.950 . S
H4188 C4198 0.950 . S
H4189 C4200 0.950 . S
H4190 C4202 0.950 . S
H4191 C4203 0.950 . S
C4192 H4184 0.950 . S
C4192 C4193 1.386 . S
C4192 C4194 1.391 . S
C4193 C4192 1.386 . S
C4193 C4197 1.393 . S
C4194 H4186 0.950 . S
C4194 C4192 1.391 . S
C4194 C4195 1.400 . S
C4195 C4194 1.400 . S
C4195 C4196 1.398 . S
C4195 C4201 1.491 . S
C4196 H4187 0.950 . S
C4196 C4195 1.398 . S
C4196 C4197 1.391 . S
C4197 H4185 0.950 . S
C4197 C4193 1.393 . S
C4197 C4196 1.391 . S
C4198 H4188 0.950 . S
C4198 C4199 1.386 . S
C4198 C4200 1.391 . S
C4199 C4198 1.386 . S
C4199 C4203 1.393 . S
C4200 H4189 0.950 . S
C4200 C4198 1.391 . S
C4200 C4201 1.400 . S
C4201 C4195 1.491 . S
C4201 C4200 1.400 . S
C4201 C4202 1.398 . S
C4202 H4190 0.950 . S
C4202 C4201 1.398 . S
C4202 C4203 1.391 . S
C4203 H4191 0.950 . S
C4203 C4199 1.393 . S
C4203 C4202 1.391 . S
H4204 C4212 0.950 . S
H4205 C4217 0.950 . S
H4206 C4214 0.950 . S
H4207 C4216 0.950 . S
H4208 C4218 0.950 . S
H4209 C4220 0.950 . S
H4210 C4222 0.950 . S
H4211 C4223 0.950 . S
C4212 H4204 0.950 . S
C4212 C4213 1.386 . S
C4212 C4214 1.391 . S
C4213 C4212 1.386 . S
C4213 C4217 1.393 . S
C4214 H4206 0.950 . S
C4214 C4212 1.391 . S
C4214 C4215 1.400 . S
C4215 C4214 1.400 . S
C4215 C4216 1.398 . S
C4215 C4221 1.491 . S
C4216 H4207 0.950 . S
C4216 C4215 1.398 . S
C4216 C4217 1.391 . S
C4217 H4205 0.950 . S
C4217 C4213 1.393 . S
C4217 C4216 1.391 . S
C4218 H4208 0.950 . S
C4218 C4219 1.386 . S
C4218 C4220 1.391 . S
C4219 C4218 1.386 . S
C4219 C4223 1.393 . S
C4220 H4209 0.950 . S
C4220 C4218 1.391 . S
C4220 C4221 1.400 . S
C4221 C4215 1.491 . S
C4221 C4220 1.400 . S
C4221 C4222 1.398 . S
C4222 H4210 0.950 . S
C4222 C4221 1.398 . S
C4222 C4223 1.391 . S
C4223 H4211 0.950 . S
C4223 C4219 1.393 . S
C4223 C4222 1.391 . S
H4224 C4232 0.950 . S
H4225 C4237 0.950 . S
H4226 C4234 0.950 . S
H4227 C4236 0.950 . S
H4228 C4238 0.950 . S
H4229 C4240 0.950 . S
H4230 C4242 0.950 . S
H4231 C4243 0.950 . S
C4232 H4224 0.950 . S
C4232 C4233 1.386 . S
C4232 C4234 1.391 . S
C4233 C4232 1.386 . S
C4233 C4237 1.393 . S
C4234 H4226 0.950 . S
C4234 C4232 1.391 . S
C4234 C4235 1.400 . S
C4235 C4234 1.400 . S
C4235 C4236 1.398 . S
C4235 C4241 1.491 . S
C4236 H4227 0.950 . S
C4236 C4235 1.398 . S
C4236 C4237 1.391 . S
C4237 H4225 0.950 . S
C4237 C4233 1.393 . S
C4237 C4236 1.391 . S
C4238 H4228 0.950 . S
C4238 C4239 1.386 . S
C4238 C4240 1.391 . S
C4239 C4238 1.386 . S
C4239 C4243 1.393 . S
C4240 H4229 0.950 . S
C4240 C4238 1.391 . S
C4240 C4241 1.400 . S
C4241 C4235 1.491 . S
C4241 C4240 1.400 . S
C4241 C4242 1.398 . S
C4242 H4230 0.950 . S
C4242 C4241 1.398 . S
C4242 C4243 1.391 . S
C4243 H4231 0.950 . S
C4243 C4239 1.393 . S
C4243 C4242 1.391 . S
H4244 C4252 0.950 . S
H4245 C4257 0.950 . S
H4246 C4254 0.950 . S
H4247 C4256 0.950 . S
H4248 C4258 0.950 . S
H4249 C4260 0.950 . S
H4250 C4262 0.950 . S
H4251 C4263 0.950 . S
C4252 H4244 0.950 . S
C4252 C4253 1.386 . S
C4252 C4254 1.391 . S
C4253 C4252 1.386 . S
C4253 C4257 1.393 . S
C4254 H4246 0.950 . S
C4254 C4252 1.391 . S
C4254 C4255 1.400 . S
C4255 C4254 1.400 . S
C4255 C4256 1.398 . S
C4255 C4261 1.491 . S
C4256 H4247 0.950 . S
C4256 C4255 1.398 . S
C4256 C4257 1.391 . S
C4257 H4245 0.950 . S
C4257 C4253 1.393 . S
C4257 C4256 1.391 . S
C4258 H4248 0.950 . S
C4258 C4259 1.386 . S
C4258 C4260 1.391 . S
C4259 C4258 1.386 . S
C4259 C4263 1.393 . S
C4260 H4249 0.950 . S
C4260 C4258 1.391 . S
C4260 C4261 1.400 . S
C4261 C4255 1.491 . S
C4261 C4260 1.400 . S
C4261 C4262 1.398 . S
C4262 H4250 0.950 . S
C4262 C4261 1.398 . S
C4262 C4263 1.391 . S
C4263 H4251 0.950 . S
C4263 C4259 1.393 . S
C4263 C4262 1.391 . S
H4264 C4272 0.950 . S
H4265 C4277 0.950 . S
H4266 C4274 0.950 . S
H4267 C4276 0.950 . S
H4268 C4278 0.950 . S
H4269 C4280 0.950 . S
H4270 C4282 0.950 . S
H4271 C4283 0.950 . S
C4272 H4264 0.950 . S
C4272 C4273 1.386 . S
C4272 C4274 1.391 . S
C4273 C4272 1.386 . S
C4273 C4277 1.393 . S
C4274 H4266 0.950 . S
C4274 C4272 1.391 . S
C4274 C4275 1.400 . S
C4275 C4274 1.400 . S
C4275 C4276 1.398 . S
C4275 C4281 1.491 . S
C4276 H4267 0.950 . S
C4276 C4275 1.398 . S
C4276 C4277 1.391 . S
C4277 H4265 0.950 . S
C4277 C4273 1.393 . S
C4277 C4276 1.391 . S
C4278 H4268 0.950 . S
C4278 C4279 1.386 . S
C4278 C4280 1.391 . S
C4279 C4278 1.386 . S
C4279 C4283 1.393 . S
C4280 H4269 0.950 . S
C4280 C4278 1.391 . S
C4280 C4281 1.400 . S
C4281 C4275 1.491 . S
C4281 C4280 1.400 . S
C4281 C4282 1.398 . S
C4282 H4270 0.950 . S
C4282 C4281 1.398 . S
C4282 C4283 1.391 . S
C4283 H4271 0.950 . S
C4283 C4279 1.393 . S
C4283 C4282 1.391 . S
H4284 C4292 0.950 . S
H4285 C4297 0.950 . S
H4286 C4294 0.950 . S
H4287 C4296 0.950 . S
H4288 C4298 0.950 . S
H4289 C4300 0.950 . S
H4290 C4302 0.950 . S
H4291 C4303 0.950 . S
C4292 H4284 0.950 . S
C4292 C4293 1.386 . S
C4292 C4294 1.391 . S
C4293 C4292 1.386 . S
C4293 C4297 1.393 . S
C4294 H4286 0.950 . S
C4294 C4292 1.391 . S
C4294 C4295 1.400 . S
C4295 C4294 1.400 . S
C4295 C4296 1.398 . S
C4295 C4301 1.491 . S
C4296 H4287 0.950 . S
C4296 C4295 1.398 . S
C4296 C4297 1.391 . S
C4297 H4285 0.950 . S
C4297 C4293 1.393 . S
C4297 C4296 1.391 . S
C4298 H4288 0.950 . S
C4298 C4299 1.386 . S
C4298 C4300 1.391 . S
C4299 C4298 1.386 . S
C4299 C4303 1.393 . S
C4300 H4289 0.950 . S
C4300 C4298 1.391 . S
C4300 C4301 1.400 . S
C4301 C4295 1.491 . S
C4301 C4300 1.400 . S
C4301 C4302 1.398 . S
C4302 H4290 0.950 . S
C4302 C4301 1.398 . S
C4302 C4303 1.391 . S
C4303 H4291 0.950 . S
C4303 C4299 1.393 . S
C4303 C4302 1.391 . S
H4304 C4312 0.950 . S
H4305 C4317 0.950 . S
H4306 C4314 0.950 . S
H4307 C4316 0.950 . S
H4308 C4318 0.950 . S
H4309 C4320 0.950 . S
H4310 C4322 0.950 . S
H4311 C4323 0.950 . S
C4312 H4304 0.950 . S
C4312 C4313 1.386 . S
C4312 C4314 1.391 . S
C4313 C4312 1.386 . S
C4313 C4317 1.393 . S
C4314 H4306 0.950 . S
C4314 C4312 1.391 . S
C4314 C4315 1.400 . S
C4315 C4314 1.400 . S
C4315 C4316 1.398 . S
C4315 C4321 1.491 . S
C4316 H4307 0.950 . S
C4316 C4315 1.398 . S
C4316 C4317 1.391 . S
C4317 H4305 0.950 . S
C4317 C4313 1.393 . S
C4317 C4316 1.391 . S
C4318 H4308 0.950 . S
C4318 C4319 1.386 . S
C4318 C4320 1.391 . S
C4319 C4318 1.386 . S
C4319 C4323 1.393 . S
C4320 H4309 0.950 . S
C4320 C4318 1.391 . S
C4320 C4321 1.400 . S
C4321 C4315 1.491 . S
C4321 C4320 1.400 . S
C4321 C4322 1.398 . S
C4322 H4310 0.950 . S
C4322 C4321 1.398 . S
C4322 C4323 1.391 . S
C4323 H4311 0.950 . S
C4323 C4319 1.393 . S
C4323 C4322 1.391 . S
H4324 C4332 0.950 . S
H4325 C4337 0.950 . S
H4326 C4334 0.950 . S
H4327 C4336 0.950 . S
H4328 C4338 0.950 . S
H4329 C4340 0.950 . S
H4330 C4342 0.950 . S
H4331 C4343 0.950 . S
C4332 H4324 0.950 . S
C4332 C4333 1.386 . S
C4332 C4334 1.391 . S
C4333 C4332 1.386 . S
C4333 C4337 1.393 . S
C4334 H4326 0.950 . S
C4334 C4332 1.391 . S
C4334 C4335 1.400 . S
C4335 C4334 1.400 . S
C4335 C4336 1.398 . S
C4335 C4341 1.491 . S
C4336 H4327 0.950 . S
C4336 C4335 1.398 . S
C4336 C4337 1.391 . S
C4337 H4325 0.950 . S
C4337 C4333 1.393 . S
C4337 C4336 1.391 . S
C4338 H4328 0.950 . S
C4338 C4339 1.386 . S
C4338 C4340 1.391 . S
C4339 C4338 1.386 . S
C4339 C4343 1.393 . S
C4340 H4329 0.950 . S
C4340 C4338 1.391 . S
C4340 C4341 1.400 . S
C4341 C4335 1.491 . S
C4341 C4340 1.400 . S
C4341 C4342 1.398 . S
C4342 H4330 0.950 . S
C4342 C4341 1.398 . S
C4342 C4343 1.391 . S
C4343 H4331 0.950 . S
C4343 C4339 1.393 . S
C4343 C4342 1.391 . S
H4344 C4352 0.950 . S
H4345 C4357 0.950 . S
H4346 C4354 0.950 . S
H4347 C4356 0.950 . S
H4348 C4358 0.950 . S
H4349 C4360 0.950 . S
H4350 C4362 0.950 . S
H4351 C4363 0.950 . S
C4352 H4344 0.950 . S
C4352 C4353 1.386 . S
C4352 C4354 1.391 . S
C4353 C4352 1.386 . S
C4353 C4357 1.393 . S
C4354 H4346 0.950 . S
C4354 C4352 1.391 . S
C4354 C4355 1.400 . S
C4355 C4354 1.400 . S
C4355 C4356 1.398 . S
C4355 C4361 1.491 . S
C4356 H4347 0.950 . S
C4356 C4355 1.398 . S
C4356 C4357 1.391 . S
C4357 H4345 0.950 . S
C4357 C4353 1.393 . S
C4357 C4356 1.391 . S
C4358 H4348 0.950 . S
C4358 C4359 1.386 . S
C4358 C4360 1.391 . S
C4359 C4358 1.386 . S
C4359 C4363 1.393 . S
C4360 H4349 0.950 . S
C4360 C4358 1.391 . S
C4360 C4361 1.400 . S
C4361 C4355 1.491 . S
C4361 C4360 1.400 . S
C4361 C4362 1.398 . S
C4362 H4350 0.950 . S
C4362 C4361 1.398 . S
C4362 C4363 1.391 . S
C4363 H4351 0.950 . S
C4363 C4359 1.393 . S
C4363 C4362 1.391 . S
H4364 C4372 0.950 . S
H4365 C4377 0.950 . S
H4366 C4374 0.950 . S
H4367 C4376 0.950 . S
H4368 C4378 0.950 . S
H4369 C4380 0.950 . S
H4370 C4382 0.950 . S
H4371 C4383 0.950 . S
C4372 H4364 0.950 . S
C4372 C4373 1.386 . S
C4372 C4374 1.391 . S
C4373 C4372 1.386 . S
C4373 C4377 1.393 . S
C4374 H4366 0.950 . S
C4374 C4372 1.391 . S
C4374 C4375 1.400 . S
C4375 C4374 1.400 . S
C4375 C4376 1.398 . S
C4375 C4381 1.491 . S
C4376 H4367 0.950 . S
C4376 C4375 1.398 . S
C4376 C4377 1.391 . S
C4377 H4365 0.950 . S
C4377 C4373 1.393 . S
C4377 C4376 1.391 . S
C4378 H4368 0.950 . S
C4378 C4379 1.386 . S
C4378 C4380 1.391 . S
C4379 C4378 1.386 . S
C4379 C4383 1.393 . S
C4380 H4369 0.950 . S
C4380 C4378 1.391 . S
C4380 C4381 1.400 . S
C4381 C4375 1.491 . S
C4381 C4380 1.400 . S
C4381 C4382 1.398 . S
C4382 H4370 0.950 . S
C4382 C4381 1.398 . S
C4382 C4383 1.391 . S
C4383 H4371 0.950 . S
C4383 C4379 1.393 . S
C4383 C4382 1.391 . S
H4384 C4392 0.950 . S
H4385 C4397 0.950 . S
H4386 C4394 0.950 . S
H4387 C4396 0.950 . S
H4388 C4398 0.950 . S
H4389 C4400 0.950 . S
H4390 C4402 0.950 . S
H4391 C4403 0.950 . S
C4392 H4384 0.950 . S
C4392 C4393 1.386 . S
C4392 C4394 1.391 . S
C4393 C4392 1.386 . S
C4393 C4397 1.393 . S
C4394 H4386 0.950 . S
C4394 C4392 1.391 . S
C4394 C4395 1.400 . S
C4395 C4394 1.400 . S
C4395 C4396 1.398 . S
C4395 C4401 1.491 . S
C4396 H4387 0.950 . S
C4396 C4395 1.398 . S
C4396 C4397 1.391 . S
C4397 H4385 0.950 . S
C4397 C4393 1.393 . S
C4397 C4396 1.391 . S
C4398 H4388 0.950 . S
C4398 C4399 1.386 . S
C4398 C4400 1.391 . S
C4399 C4398 1.386 . S
C4399 C4403 1.393 . S
C4400 H4389 0.950 . S
C4400 C4398 1.391 . S
C4400 C4401 1.400 . S
C4401 C4395 1.491 . S
C4401 C4400 1.400 . S
C4401 C4402 1.398 . S
C4402 H4390 0.950 . S
C4402 C4401 1.398 . S
C4402 C4403 1.391 . S
C4403 H4391 0.950 . S
C4403 C4399 1.393 . S
C4403 C4402 1.391 . S
H4404 C4412 0.950 . S
H4405 C4417 0.950 . S
H4406 C4414 0.950 . S
H4407 C4416 0.950 . S
H4408 C4418 0.950 . S
H4409 C4420 0.950 . S
H4410 C4422 0.950 . S
H4411 C4423 0.950 . S
C4412 H4404 0.950 . S
C4412 C4413 1.386 . S
C4412 C4414 1.391 . S
C4413 C4412 1.386 . S
C4413 C4417 1.393 . S
C4414 H4406 0.950 . S
C4414 C4412 1.391 . S
C4414 C4415 1.400 . S
C4415 C4414 1.400 . S
C4415 C4416 1.398 . S
C4415 C4421 1.491 . S
C4416 H4407 0.950 . S
C4416 C4415 1.398 . S
C4416 C4417 1.391 . S
C4417 H4405 0.950 . S
C4417 C4413 1.393 . S
C4417 C4416 1.391 . S
C4418 H4408 0.950 . S
C4418 C4419 1.386 . S
C4418 C4420 1.391 . S
C4419 C4418 1.386 . S
C4419 C4423 1.393 . S
C4420 H4409 0.950 . S
C4420 C4418 1.391 . S
C4420 C4421 1.400 . S
C4421 C4415 1.491 . S
C4421 C4420 1.400 . S
C4421 C4422 1.398 . S
C4422 H4410 0.950 . S
C4422 C4421 1.398 . S
C4422 C4423 1.391 . S
C4423 H4411 0.950 . S
C4423 C4419 1.393 . S
C4423 C4422 1.391 . S
H4424 C4432 0.950 . S
H4425 C4437 0.950 . S
H4426 C4434 0.950 . S
H4427 C4436 0.950 . S
H4428 C4438 0.950 . S
H4429 C4440 0.950 . S
H4430 C4442 0.950 . S
H4431 C4443 0.950 . S
C4432 H4424 0.950 . S
C4432 C4433 1.386 . S
C4432 C4434 1.391 . S
C4433 C4432 1.386 . S
C4433 C4437 1.393 . S
C4434 H4426 0.950 . S
C4434 C4432 1.391 . S
C4434 C4435 1.400 . S
C4435 C4434 1.400 . S
C4435 C4436 1.398 . S
C4435 C4441 1.491 . S
C4436 H4427 0.950 . S
C4436 C4435 1.398 . S
C4436 C4437 1.391 . S
C4437 H4425 0.950 . S
C4437 C4433 1.393 . S
C4437 C4436 1.391 . S
C4438 H4428 0.950 . S
C4438 C4439 1.386 . S
C4438 C4440 1.391 . S
C4439 C4438 1.386 . S
C4439 C4443 1.393 . S
C4440 H4429 0.950 . S
C4440 C4438 1.391 . S
C4440 C4441 1.400 . S
C4441 C4435 1.491 . S
C4441 C4440 1.400 . S
C4441 C4442 1.398 . S
C4442 H4430 0.950 . S
C4442 C4441 1.398 . S
C4442 C4443 1.391 . S
C4443 H4431 0.950 . S
C4443 C4439 1.393 . S
C4443 C4442 1.391 . S
H4444 C4452 0.950 . S
H4445 C4457 0.950 . S
H4446 C4454 0.950 . S
H4447 C4456 0.950 . S
H4448 C4458 0.950 . S
H4449 C4460 0.950 . S
H4450 C4462 0.950 . S
H4451 C4463 0.950 . S
C4452 H4444 0.950 . S
C4452 C4453 1.386 . S
C4452 C4454 1.391 . S
C4453 C4452 1.386 . S
C4453 C4457 1.393 . S
C4454 H4446 0.950 . S
C4454 C4452 1.391 . S
C4454 C4455 1.400 . S
C4455 C4454 1.400 . S
C4455 C4456 1.398 . S
C4455 C4461 1.491 . S
C4456 H4447 0.950 . S
C4456 C4455 1.398 . S
C4456 C4457 1.391 . S
C4457 H4445 0.950 . S
C4457 C4453 1.393 . S
C4457 C4456 1.391 . S
C4458 H4448 0.950 . S
C4458 C4459 1.386 . S
C4458 C4460 1.391 . S
C4459 C4458 1.386 . S
C4459 C4463 1.393 . S
C4460 H4449 0.950 . S
C4460 C4458 1.391 . S
C4460 C4461 1.400 . S
C4461 C4455 1.491 . S
C4461 C4460 1.400 . S
C4461 C4462 1.398 . S
C4462 H4450 0.950 . S
C4462 C4461 1.398 . S
C4462 C4463 1.391 . S
C4463 H4451 0.950 . S
C4463 C4459 1.393 . S
C4463 C4462 1.391 . S
H4464 C4472 0.950 . S
H4465 C4477 0.950 . S
H4466 C4474 0.950 . S
H4467 C4476 0.950 . S
H4468 C4478 0.950 . S
H4469 C4480 0.950 . S
H4470 C4482 0.950 . S
H4471 C4483 0.950 . S
C4472 H4464 0.950 . S
C4472 C4473 1.386 . S
C4472 C4474 1.391 . S
C4473 C4472 1.386 . S
C4473 C4477 1.393 . S
C4474 H4466 0.950 . S
C4474 C4472 1.391 . S
C4474 C4475 1.400 . S
C4475 C4474 1.400 . S
C4475 C4476 1.398 . S
C4475 C4481 1.491 . S
C4476 H4467 0.950 . S
C4476 C4475 1.398 . S
C4476 C4477 1.391 . S
C4477 H4465 0.950 . S
C4477 C4473 1.393 . S
C4477 C4476 1.391 . S
C4478 H4468 0.950 . S
C4478 C4479 1.386 . S
C4478 C4480 1.391 . S
C4479 C4478 1.386 . S
C4479 C4483 1.393 . S
C4480 H4469 0.950 . S
C4480 C4478 1.391 . S
C4480 C4481 1.400 . S
C4481 C4475 1.491 . S
C4481 C4480 1.400 . S
C4481 C4482 1.398 . S
C4482 H4470 0.950 . S
C4482 C4481 1.398 . S
C4482 C4483 1.391 . S
C4483 H4471 0.950 . S
C4483 C4479 1.393 . S
C4483 C4482 1.391 . S
H4484 C4492 0.950 . S
H4485 C4497 0.950 . S
H4486 C4494 0.950 . S
H4487 C4496 0.950 . S
H4488 C4498 0.950 . S
H4489 C4500 0.950 . S
H4490 C4502 0.950 . S
H4491 C4503 0.950 . S
C4492 H4484 0.950 . S
C4492 C4493 1.386 . S
C4492 C4494 1.391 . S
C4493 C4492 1.386 . S
C4493 C4497 1.393 . S
C4494 H4486 0.950 . S
C4494 C4492 1.391 . S
C4494 C4495 1.400 . S
C4495 C4494 1.400 . S
C4495 C4496 1.398 . S
C4495 C4501 1.491 . S
C4496 H4487 0.950 . S
C4496 C4495 1.398 . S
C4496 C4497 1.391 . S
C4497 H4485 0.950 . S
C4497 C4493 1.393 . S
C4497 C4496 1.391 . S
C4498 H4488 0.950 . S
C4498 C4499 1.386 . S
C4498 C4500 1.391 . S
C4499 C4498 1.386 . S
C4499 C4503 1.393 . S
C4500 H4489 0.950 . S
C4500 C4498 1.391 . S
C4500 C4501 1.400 . S
C4501 C4495 1.491 . S
C4501 C4500 1.400 . S
C4501 C4502 1.398 . S
C4502 H4490 0.950 . S
C4502 C4501 1.398 . S
C4502 C4503 1.391 . S
C4503 H4491 0.950 . S
C4503 C4499 1.393 . S
C4503 C4502 1.391 . S
H4504 C4512 0.950 . S
H4505 C4517 0.950 . S
H4506 C4514 0.950 . S
H4507 C4516 0.950 . S
H4508 C4518 0.950 . S
H4509 C4520 0.950 . S
H4510 C4522 0.950 . S
H4511 C4523 0.950 . S
C4512 H4504 0.950 . S
C4512 C4513 1.386 . S
C4512 C4514 1.391 . S
C4513 C4512 1.386 . S
C4513 C4517 1.393 . S
C4514 H4506 0.950 . S
C4514 C4512 1.391 . S
C4514 C4515 1.400 . S
C4515 C4514 1.400 . S
C4515 C4516 1.398 . S
C4515 C4521 1.491 . S
C4516 H4507 0.950 . S
C4516 C4515 1.398 . S
C4516 C4517 1.391 . S
C4517 H4505 0.950 . S
C4517 C4513 1.393 . S
C4517 C4516 1.391 . S
C4518 H4508 0.950 . S
C4518 C4519 1.386 . S
C4518 C4520 1.391 . S
C4519 C4518 1.386 . S
C4519 C4523 1.393 . S
C4520 H4509 0.950 . S
C4520 C4518 1.391 . S
C4520 C4521 1.400 . S
C4521 C4515 1.491 . S
C4521 C4520 1.400 . S
C4521 C4522 1.398 . S
C4522 H4510 0.950 . S
C4522 C4521 1.398 . S
C4522 C4523 1.391 . S
C4523 H4511 0.950 . S
C4523 C4519 1.393 . S
C4523 C4522 1.391 . S
H4524 C4532 0.950 . S
H4525 C4537 0.950 . S
H4526 C4534 0.950 . S
H4527 C4536 0.950 . S
H4528 C4538 0.950 . S
H4529 C4540 0.950 . S
H4530 C4542 0.950 . S
H4531 C4543 0.950 . S
C4532 H4524 0.950 . S
C4532 C4533 1.386 . S
C4532 C4534 1.391 . S
C4533 C4532 1.386 . S
C4533 C4537 1.393 . S
C4534 H4526 0.950 . S
C4534 C4532 1.391 . S
C4534 C4535 1.400 . S
C4535 C4534 1.400 . S
C4535 C4536 1.398 . S
C4535 C4541 1.491 . S
C4536 H4527 0.950 . S
C4536 C4535 1.398 . S
C4536 C4537 1.391 . S
C4537 H4525 0.950 . S
C4537 C4533 1.393 . S
C4537 C4536 1.391 . S
C4538 H4528 0.950 . S
C4538 C4539 1.386 . S
C4538 C4540 1.391 . S
C4539 C4538 1.386 . S
C4539 C4543 1.393 . S
C4540 H4529 0.950 . S
C4540 C4538 1.391 . S
C4540 C4541 1.400 . S
C4541 C4535 1.491 . S
C4541 C4540 1.400 . S
C4541 C4542 1.398 . S
C4542 H4530 0.950 . S
C4542 C4541 1.398 . S
C4542 C4543 1.391 . S
C4543 H4531 0.950 . S
C4543 C4539 1.393 . S
C4543 C4542 1.391 . S
H4544 C4552 0.950 . S
H4545 C4557 0.950 . S
H4546 C4554 0.950 . S
H4547 C4556 0.950 . S
H4548 C4558 0.950 . S
H4549 C4560 0.950 . S
H4550 C4562 0.950 . S
H4551 C4563 0.950 . S
C4552 H4544 0.950 . S
C4552 C4553 1.386 . S
C4552 C4554 1.391 . S
C4553 C4552 1.386 . S
C4553 C4557 1.393 . S
C4554 H4546 0.950 . S
C4554 C4552 1.391 . S
C4554 C4555 1.400 . S
C4555 C4554 1.400 . S
C4555 C4556 1.398 . S
C4555 C4561 1.491 . S
C4556 H4547 0.950 . S
C4556 C4555 1.398 . S
C4556 C4557 1.391 . S
C4557 H4545 0.950 . S
C4557 C4553 1.393 . S
C4557 C4556 1.391 . S
C4558 H4548 0.950 . S
C4558 C4559 1.386 . S
C4558 C4560 1.391 . S
C4559 C4558 1.386 . S
C4559 C4563 1.393 . S
C4560 H4549 0.950 . S
C4560 C4558 1.391 . S
C4560 C4561 1.400 . S
C4561 C4555 1.491 . S
C4561 C4560 1.400 . S
C4561 C4562 1.398 . S
C4562 H4550 0.950 . S
C4562 C4561 1.398 . S
C4562 C4563 1.391 . S
C4563 H4551 0.950 . S
C4563 C4559 1.393 . S
C4563 C4562 1.391 . S
H4564 C4572 0.950 . S
H4565 C4577 0.950 . S
H4566 C4574 0.950 . S
H4567 C4576 0.950 . S
H4568 C4578 0.950 . S
H4569 C4580 0.950 . S
H4570 C4582 0.950 . S
H4571 C4583 0.950 . S
C4572 H4564 0.950 . S
C4572 C4573 1.386 . S
C4572 C4574 1.391 . S
C4573 C4572 1.386 . S
C4573 C4577 1.393 . S
C4574 H4566 0.950 . S
C4574 C4572 1.391 . S
C4574 C4575 1.400 . S
C4575 C4574 1.400 . S
C4575 C4576 1.398 . S
C4575 C4581 1.491 . S
C4576 H4567 0.950 . S
C4576 C4575 1.398 . S
C4576 C4577 1.391 . S
C4577 H4565 0.950 . S
C4577 C4573 1.393 . S
C4577 C4576 1.391 . S
C4578 H4568 0.950 . S
C4578 C4579 1.386 . S
C4578 C4580 1.391 . S
C4579 C4578 1.386 . S
C4579 C4583 1.393 . S
C4580 H4569 0.950 . S
C4580 C4578 1.391 . S
C4580 C4581 1.400 . S
C4581 C4575 1.491 . S
C4581 C4580 1.400 . S
C4581 C4582 1.398 . S
C4582 H4570 0.950 . S
C4582 C4581 1.398 . S
C4582 C4583 1.391 . S
C4583 H4571 0.950 . S
C4583 C4579 1.393 . S
C4583 C4582 1.391 . S
H4584 C4592 0.950 . S
H4585 C4597 0.950 . S
H4586 C4594 0.950 . S
H4587 C4596 0.950 . S
H4588 C4598 0.950 . S
H4589 C4600 0.950 . S
H4590 C4602 0.950 . S
H4591 C4603 0.950 . S
C4592 H4584 0.950 . S
C4592 C4593 1.386 . S
C4592 C4594 1.391 . S
C4593 C4592 1.386 . S
C4593 C4597 1.393 . S
C4594 H4586 0.950 . S
C4594 C4592 1.391 . S
C4594 C4595 1.400 . S
C4595 C4594 1.400 . S
C4595 C4596 1.398 . S
C4595 C4601 1.491 . S
C4596 H4587 0.950 . S
C4596 C4595 1.398 . S
C4596 C4597 1.391 . S
C4597 H4585 0.950 . S
C4597 C4593 1.393 . S
C4597 C4596 1.391 . S
C4598 H4588 0.950 . S
C4598 C4599 1.386 . S
C4598 C4600 1.391 . S
C4599 C4598 1.386 . S
C4599 C4603 1.393 . S
C4600 H4589 0.950 . S
C4600 C4598 1.391 . S
C4600 C4601 1.400 . S
C4601 C4595 1.491 . S
C4601 C4600 1.400 . S
C4601 C4602 1.398 . S
C4602 H4590 0.950 . S
C4602 C4601 1.398 . S
C4602 C4603 1.391 . S
C4603 H4591 0.950 . S
C4603 C4599 1.393 . S
C4603 C4602 1.391 . S
H4604 C4612 0.950 . S
H4605 C4617 0.950 . S
H4606 C4614 0.950 . S
H4607 C4616 0.950 . S
H4608 C4618 0.950 . S
H4609 C4620 0.950 . S
H4610 C4622 0.950 . S
H4611 C4623 0.950 . S
C4612 H4604 0.950 . S
C4612 C4613 1.386 . S
C4612 C4614 1.391 . S
C4613 C4612 1.386 . S
C4613 C4617 1.393 . S
C4614 H4606 0.950 . S
C4614 C4612 1.391 . S
C4614 C4615 1.400 . S
C4615 C4614 1.400 . S
C4615 C4616 1.398 . S
C4615 C4621 1.491 . S
C4616 H4607 0.950 . S
C4616 C4615 1.398 . S
C4616 C4617 1.391 . S
C4617 H4605 0.950 . S
C4617 C4613 1.393 . S
C4617 C4616 1.391 . S
C4618 H4608 0.950 . S
C4618 C4619 1.386 . S
C4618 C4620 1.391 . S
C4619 C4618 1.386 . S
C4619 C4623 1.393 . S
C4620 H4609 0.950 . S
C4620 C4618 1.391 . S
C4620 C4621 1.400 . S
C4621 C4615 1.491 . S
C4621 C4620 1.400 . S
C4621 C4622 1.398 . S
C4622 H4610 0.950 . S
C4622 C4621 1.398 . S
C4622 C4623 1.391 . S
C4623 H4611 0.950 . S
C4623 C4619 1.393 . S
C4623 C4622 1.391 . S
H4624 C4632 0.950 . S
H4625 C4637 0.950 . S
H4626 C4634 0.950 . S
H4627 C4636 0.950 . S
H4628 C4638 0.950 . S
H4629 C4640 0.950 . S
H4630 C4642 0.950 . S
H4631 C4643 0.950 . S
C4632 H4624 0.950 . S
C4632 C4633 1.386 . S
C4632 C4634 1.391 . S
C4633 C4632 1.386 . S
C4633 C4637 1.393 . S
C4634 H4626 0.950 . S
C4634 C4632 1.391 . S
C4634 C4635 1.400 . S
C4635 C4634 1.400 . S
C4635 C4636 1.398 . S
C4635 C4641 1.491 . S
C4636 H4627 0.950 . S
C4636 C4635 1.398 . S
C4636 C4637 1.391 . S
C4637 H4625 0.950 . S
C4637 C4633 1.393 . S
C4637 C4636 1.391 . S
C4638 H4628 0.950 . S
C4638 C4639 1.386 . S
C4638 C4640 1.391 . S
C4639 C4638 1.386 . S
C4639 C4643 1.393 . S
C4640 H4629 0.950 . S
C4640 C4638 1.391 . S
C4640 C4641 1.400 . S
C4641 C4635 1.491 . S
C4641 C4640 1.400 . S
C4641 C4642 1.398 . S
C4642 H4630 0.950 . S
C4642 C4641 1.398 . S
C4642 C4643 1.391 . S
C4643 H4631 0.950 . S
C4643 C4639 1.393 . S
C4643 C4642 1.391 . S
H4644 C4652 0.950 . S
H4645 C4657 0.950 . S
H4646 C4654 0.950 . S
H4647 C4656 0.950 . S
H4648 C4658 0.950 . S
H4649 C4660 0.950 . S
H4650 C4662 0.950 . S
H4651 C4663 0.950 . S
C4652 H4644 0.950 . S
C4652 C4653 1.386 . S
C4652 C4654 1.391 . S
C4653 C4652 1.386 . S
C4653 C4657 1.393 . S
C4654 H4646 0.950 . S
C4654 C4652 1.391 . S
C4654 C4655 1.400 . S
C4655 C4654 1.400 . S
C4655 C4656 1.398 . S
C4655 C4661 1.491 . S
C4656 H4647 0.950 . S
C4656 C4655 1.398 . S
C4656 C4657 1.391 . S
C4657 H4645 0.950 . S
C4657 C4653 1.393 . S
C4657 C4656 1.391 . S
C4658 H4648 0.950 . S
C4658 C4659 1.386 . S
C4658 C4660 1.391 . S
C4659 C4658 1.386 . S
C4659 C4663 1.393 . S
C4660 H4649 0.950 . S
C4660 C4658 1.391 . S
C4660 C4661 1.400 . S
C4661 C4655 1.491 . S
C4661 C4660 1.400 . S
C4661 C4662 1.398 . S
C4662 H4650 0.950 . S
C4662 C4661 1.398 . S
C4662 C4663 1.391 . S
C4663 H4651 0.950 . S
C4663 C4659 1.393 . S
C4663 C4662 1.391 . S
H4664 C4672 0.950 . S
H4665 C4677 0.950 . S
H4666 C4674 0.950 . S
H4667 C4676 0.950 . S
H4668 C4678 0.950 . S
H4669 C4680 0.950 . S
H4670 C4682 0.950 . S
H4671 C4683 0.950 . S
C4672 H4664 0.950 . S
C4672 C4673 1.386 . S
C4672 C4674 1.391 . S
C4673 C4672 1.386 . S
C4673 C4677 1.393 . S
C4674 H4666 0.950 . S
C4674 C4672 1.391 . S
C4674 C4675 1.400 . S
C4675 C4674 1.400 . S
C4675 C4676 1.398 . S
C4675 C4681 1.491 . S
C4676 H4667 0.950 . S
C4676 C4675 1.398 . S
C4676 C4677 1.391 . S
C4677 H4665 0.950 . S
C4677 C4673 1.393 . S
C4677 C4676 1.391 . S
C4678 H4668 0.950 . S
C4678 C4679 1.386 . S
C4678 C4680 1.391 . S
C4679 C4678 1.386 . S
C4679 C4683 1.393 . S
C4680 H4669 0.950 . S
C4680 C4678 1.391 . S
C4680 C4681 1.400 . S
C4681 C4675 1.491 . S
C4681 C4680 1.400 . S
C4681 C4682 1.398 . S
C4682 H4670 0.950 . S
C4682 C4681 1.398 . S
C4682 C4683 1.391 . S
C4683 H4671 0.950 . S
C4683 C4679 1.393 . S
C4683 C4682 1.391 . S
H4684 C4692 0.950 . S
H4685 C4697 0.950 . S
H4686 C4694 0.950 . S
H4687 C4696 0.950 . S
H4688 C4698 0.950 . S
H4689 C4700 0.950 . S
H4690 C4702 0.950 . S
H4691 C4703 0.950 . S
C4692 H4684 0.950 . S
C4692 C4693 1.386 . S
C4692 C4694 1.391 . S
C4693 C4692 1.386 . S
C4693 C4697 1.393 . S
C4694 H4686 0.950 . S
C4694 C4692 1.391 . S
C4694 C4695 1.400 . S
C4695 C4694 1.400 . S
C4695 C4696 1.398 . S
C4695 C4701 1.491 . S
C4696 H4687 0.950 . S
C4696 C4695 1.398 . S
C4696 C4697 1.391 . S
C4697 H4685 0.950 . S
C4697 C4693 1.393 . S
C4697 C4696 1.391 . S
C4698 H4688 0.950 . S
C4698 C4699 1.386 . S
C4698 C4700 1.391 . S
C4699 C4698 1.386 . S
C4699 C4703 1.393 . S
C4700 H4689 0.950 . S
C4700 C4698 1.391 . S
C4700 C4701 1.400 . S
C4701 C4695 1.491 . S
C4701 C4700 1.400 . S
C4701 C4702 1.398 . S
C4702 H4690 0.950 . S
C4702 C4701 1.398 . S
C4702 C4703 1.391 . S
C4703 H4691 0.950 . S
C4703 C4699 1.393 . S
C4703 C4702 1.391 . S
H4704 C4712 0.950 . S
H4705 C4717 0.950 . S
H4706 C4714 0.950 . S
H4707 C4716 0.950 . S
H4708 C4718 0.950 . S
H4709 C4720 0.950 . S
H4710 C4722 0.950 . S
H4711 C4723 0.950 . S
C4712 H4704 0.950 . S
C4712 C4713 1.386 . S
C4712 C4714 1.391 . S
C4713 C4712 1.386 . S
C4713 C4717 1.393 . S
C4714 H4706 0.950 . S
C4714 C4712 1.391 . S
C4714 C4715 1.400 . S
C4715 C4714 1.400 . S
C4715 C4716 1.398 . S
C4715 C4721 1.491 . S
C4716 H4707 0.950 . S
C4716 C4715 1.398 . S
C4716 C4717 1.391 . S
C4717 H4705 0.950 . S
C4717 C4713 1.393 . S
C4717 C4716 1.391 . S
C4718 H4708 0.950 . S
C4718 C4719 1.386 . S
C4718 C4720 1.391 . S
C4719 C4718 1.386 . S
C4719 C4723 1.393 . S
C4720 H4709 0.950 . S
C4720 C4718 1.391 . S
C4720 C4721 1.400 . S
C4721 C4715 1.491 . S
C4721 C4720 1.400 . S
C4721 C4722 1.398 . S
C4722 H4710 0.950 . S
C4722 C4721 1.398 . S
C4722 C4723 1.391 . S
C4723 H4711 0.950 . S
C4723 C4719 1.393 . S
C4723 C4722 1.391 . S
H4724 C4732 0.950 . S
H4725 C4737 0.950 . S
H4726 C4734 0.950 . S
H4727 C4736 0.950 . S
H4728 C4738 0.950 . S
H4729 C4740 0.950 . S
H4730 C4742 0.950 . S
H4731 C4743 0.950 . S
C4732 H4724 0.950 . S
C4732 C4733 1.386 . S
C4732 C4734 1.391 . S
C4733 C4732 1.386 . S
C4733 C4737 1.393 . S
C4734 H4726 0.950 . S
C4734 C4732 1.391 . S
C4734 C4735 1.400 . S
C4735 C4734 1.400 . S
C4735 C4736 1.398 . S
C4735 C4741 1.491 . S
C4736 H4727 0.950 . S
C4736 C4735 1.398 . S
C4736 C4737 1.391 . S
C4737 H4725 0.950 . S
C4737 C4733 1.393 . S
C4737 C4736 1.391 . S
C4738 H4728 0.950 . S
C4738 C4739 1.386 . S
C4738 C4740 1.391 . S
C4739 C4738 1.386 . S
C4739 C4743 1.393 . S
C4740 H4729 0.950 . S
C4740 C4738 1.391 . S
C4740 C4741 1.400 . S
C4741 C4735 1.491 . S
C4741 C4740 1.400 . S
C4741 C4742 1.398 . S
C4742 H4730 0.950 . S
C4742 C4741 1.398 . S
C4742 C4743 1.391 . S
C4743 H4731 0.950 . S
C4743 C4739 1.393 . S
C4743 C4742 1.391 . S
H4744 C4752 0.950 . S
H4745 C4757 0.950 . S
H4746 C4754 0.950 . S
H4747 C4756 0.950 . S
H4748 C4758 0.950 . S
H4749 C4760 0.950 . S
H4750 C4762 0.950 . S
H4751 C4763 0.950 . S
C4752 H4744 0.950 . S
C4752 C4753 1.386 . S
C4752 C4754 1.391 . S
C4753 C4752 1.386 . S
C4753 C4757 1.393 . S
C4754 H4746 0.950 . S
C4754 C4752 1.391 . S
C4754 C4755 1.400 . S
C4755 C4754 1.400 . S
C4755 C4756 1.398 . S
C4755 C4761 1.491 . S
C4756 H4747 0.950 . S
C4756 C4755 1.398 . S
C4756 C4757 1.391 . S
C4757 H4745 0.950 . S
C4757 C4753 1.393 . S
C4757 C4756 1.391 . S
C4758 H4748 0.950 . S
C4758 C4759 1.386 . S
C4758 C4760 1.391 . S
C4759 C4758 1.386 . S
C4759 C4763 1.393 . S
C4760 H4749 0.950 . S
C4760 C4758 1.391 . S
C4760 C4761 1.400 . S
C4761 C4755 1.491 . S
C4761 C4760 1.400 . S
C4761 C4762 1.398 . S
C4762 H4750 0.950 . S
C4762 C4761 1.398 . S
C4762 C4763 1.391 . S
C4763 H4751 0.950 . S
C4763 C4759 1.393 . S
C4763 C4762 1.391 . S
H4764 C4772 0.950 . S
H4765 C4777 0.950 . S
H4766 C4774 0.950 . S
H4767 C4776 0.950 . S
H4768 C4778 0.950 . S
H4769 C4780 0.950 . S
H4770 C4782 0.950 . S
H4771 C4783 0.950 . S
C4772 H4764 0.950 . S
C4772 C4773 1.386 . S
C4772 C4774 1.391 . S
C4773 C4772 1.386 . S
C4773 C4777 1.393 . S
C4774 H4766 0.950 . S
C4774 C4772 1.391 . S
C4774 C4775 1.400 . S
C4775 C4774 1.400 . S
C4775 C4776 1.398 . S
C4775 C4781 1.491 . S
C4776 H4767 0.950 . S
C4776 C4775 1.398 . S
C4776 C4777 1.391 . S
C4777 H4765 0.950 . S
C4777 C4773 1.393 . S
C4777 C4776 1.391 . S
C4778 H4768 0.950 . S
C4778 C4779 1.386 . S
C4778 C4780 1.391 . S
C4779 C4778 1.386 . S
C4779 C4783 1.393 . S
C4780 H4769 0.950 . S
C4780 C4778 1.391 . S
C4780 C4781 1.400 . S
C4781 C4775 1.491 . S
C4781 C4780 1.400 . S
C4781 C4782 1.398 . S
C4782 H4770 0.950 . S
C4782 C4781 1.398 . S
C4782 C4783 1.391 . S
C4783 H4771 0.950 . S
C4783 C4779 1.393 . S
C4783 C4782 1.391 . S
H4784 C4792 0.950 . S
H4785 C4797 0.950 . S
H4786 C4794 0.950 . S
H4787 C4796 0.950 . S
H4788 C4798 0.950 . S
H4789 C4800 0.950 . S
H4790 C4802 0.950 . S
H4791 C4803 0.950 . S
C4792 H4784 0.950 . S
C4792 C4793 1.386 . S
C4792 C4794 1.391 . S
C4793 C4792 1.386 . S
C4793 C4797 1.393 . S
C4794 H4786 0.950 . S
C4794 C4792 1.391 . S
C4794 C4795 1.400 . S
C4795 C4794 1.400 . S
C4795 C4796 1.398 . S
C4795 C4801 1.491 . S
C4796 H4787 0.950 . S
C4796 C4795 1.398 . S
C4796 C4797 1.391 . S
C4797 H4785 0.950 . S
C4797 C4793 1.393 . S
C4797 C4796 1.391 . S
C4798 H4788 0.950 . S
C4798 C4799 1.386 . S
C4798 C4800 1.391 . S
C4799 C4798 1.386 . S
C4799 C4803 1.393 . S
C4800 H4789 0.950 . S
C4800 C4798 1.391 . S
C4800 C4801 1.400 . S
C4801 C4795 1.491 . S
C4801 C4800 1.400 . S
C4801 C4802 1.398 . S
C4802 H4790 0.950 . S
C4802 C4801 1.398 . S
C4802 C4803 1.391 . S
C4803 H4791 0.950 . S
C4803 C4799 1.393 . S
C4803 C4802 1.391 . S
H4804 C4812 0.950 . S
H4805 C4817 0.950 . S
H4806 C4814 0.950 . S
H4807 C4816 0.950 . S
H4808 C4818 0.950 . S
H4809 C4820 0.950 . S
H4810 C4822 0.950 . S
H4811 C4823 0.950 . S
C4812 H4804 0.950 . S
C4812 C4813 1.386 . S
C4812 C4814 1.391 . S
C4813 C4812 1.386 . S
C4813 C4817 1.393 . S
C4814 H4806 0.950 . S
C4814 C4812 1.391 . S
C4814 C4815 1.400 . S
C4815 C4814 1.400 . S
C4815 C4816 1.398 . S
C4815 C4821 1.491 . S
C4816 H4807 0.950 . S
C4816 C4815 1.398 . S
C4816 C4817 1.391 . S
C4817 H4805 0.950 . S
C4817 C4813 1.393 . S
C4817 C4816 1.391 . S
C4818 H4808 0.950 . S
C4818 C4819 1.386 . S
C4818 C4820 1.391 . S
C4819 C4818 1.386 . S
C4819 C4823 1.393 . S
C4820 H4809 0.950 . S
C4820 C4818 1.391 . S
C4820 C4821 1.400 . S
C4821 C4815 1.491 . S
C4821 C4820 1.400 . S
C4821 C4822 1.398 . S
C4822 H4810 0.950 . S
C4822 C4821 1.398 . S
C4822 C4823 1.391 . S
C4823 H4811 0.950 . S
C4823 C4819 1.393 . S
C4823 C4822 1.391 . S
H4824 C4832 0.950 . S
H4825 C4837 0.950 . S
H4826 C4834 0.950 . S
H4827 C4836 0.950 . S
H4828 C4838 0.950 . S
H4829 C4840 0.950 . S
H4830 C4842 0.950 . S
H4831 C4843 0.950 . S
C4832 H4824 0.950 . S
C4832 C4833 1.386 . S
C4832 C4834 1.391 . S
C4833 C4832 1.386 . S
C4833 C4837 1.393 . S
C4834 H4826 0.950 . S
C4834 C4832 1.391 . S
C4834 C4835 1.400 . S
C4835 C4834 1.400 . S
C4835 C4836 1.398 . S
C4835 C4841 1.491 . S
C4836 H4827 0.950 . S
C4836 C4835 1.398 . S
C4836 C4837 1.391 . S
C4837 H4825 0.950 . S
C4837 C4833 1.393 . S
C4837 C4836 1.391 . S
C4838 H4828 0.950 . S
C4838 C4839 1.386 . S
C4838 C4840 1.391 . S
C4839 C4838 1.386 . S
C4839 C4843 1.393 . S
C4840 H4829 0.950 . S
C4840 C4838 1.391 . S
C4840 C4841 1.400 . S
C4841 C4835 1.491 . S
C4841 C4840 1.400 . S
C4841 C4842 1.398 . S
C4842 H4830 0.950 . S
C4842 C4841 1.398 . S
C4842 C4843 1.391 . S
C4843 H4831 0.950 . S
C4843 C4839 1.393 . S
C4843 C4842 1.391 . S
H4844 C4852 0.950 . S
H4845 C4857 0.950 . S
H4846 C4854 0.950 . S
H4847 C4856 0.950 . S
H4848 C4858 0.950 . S
H4849 C4860 0.950 . S
H4850 C4862 0.950 . S
H4851 C4863 0.950 . S
C4852 H4844 0.950 . S
C4852 C4853 1.386 . S
C4852 C4854 1.391 . S
C4853 C4852 1.386 . S
C4853 C4857 1.393 . S
C4854 H4846 0.950 . S
C4854 C4852 1.391 . S
C4854 C4855 1.400 . S
C4855 C4854 1.400 . S
C4855 C4856 1.398 . S
C4855 C4861 1.491 . S
C4856 H4847 0.950 . S
C4856 C4855 1.398 . S
C4856 C4857 1.391 . S
C4857 H4845 0.950 . S
C4857 C4853 1.393 . S
C4857 C4856 1.391 . S
C4858 H4848 0.950 . S
C4858 C4859 1.386 . S
C4858 C4860 1.391 . S
C4859 C4858 1.386 . S
C4859 C4863 1.393 . S
C4860 H4849 0.950 . S
C4860 C4858 1.391 . S
C4860 C4861 1.400 . S
C4861 C4855 1.491 . S
C4861 C4860 1.400 . S
C4861 C4862 1.398 . S
C4862 H4850 0.950 . S
C4862 C4861 1.398 . S
C4862 C4863 1.391 . S
C4863 H4851 0.950 . S
C4863 C4859 1.393 . S
C4863 C4862 1.391 . S
H4864 C4872 0.950 . S
H4865 C4877 0.950 . S
H4866 C4874 0.950 . S
H4867 C4876 0.950 . S
H4868 C4878 0.950 . S
H4869 C4880 0.950 . S
H4870 C4882 0.950 . S
H4871 C4883 0.950 . S
C4872 H4864 0.950 . S
C4872 C4873 1.386 . S
C4872 C4874 1.391 . S
C4873 C4872 1.386 . S
C4873 C4877 1.393 . S
C4874 H4866 0.950 . S
C4874 C4872 1.391 . S
C4874 C4875 1.400 . S
C4875 C4874 1.400 . S
C4875 C4876 1.398 . S
C4875 C4881 1.491 . S
C4876 H4867 0.950 . S
C4876 C4875 1.398 . S
C4876 C4877 1.391 . S
C4877 H4865 0.950 . S
C4877 C4873 1.393 . S
C4877 C4876 1.391 . S
C4878 H4868 0.950 . S
C4878 C4879 1.386 . S
C4878 C4880 1.391 . S
C4879 C4878 1.386 . S
C4879 C4883 1.393 . S
C4880 H4869 0.950 . S
C4880 C4878 1.391 . S
C4880 C4881 1.400 . S
C4881 C4875 1.491 . S
C4881 C4880 1.400 . S
C4881 C4882 1.398 . S
C4882 H4870 0.950 . S
C4882 C4881 1.398 . S
C4882 C4883 1.391 . S
C4883 H4871 0.950 . S
C4883 C4879 1.393 . S
C4883 C4882 1.391 . S
H4884 C4892 0.950 . S
H4885 C4897 0.950 . S
H4886 C4894 0.950 . S
H4887 C4896 0.950 . S
H4888 C4898 0.950 . S
H4889 C4900 0.950 . S
H4890 C4902 0.950 . S
H4891 C4903 0.950 . S
C4892 H4884 0.950 . S
C4892 C4893 1.386 . S
C4892 C4894 1.391 . S
C4893 C4892 1.386 . S
C4893 C4897 1.393 . S
C4894 H4886 0.950 . S
C4894 C4892 1.391 . S
C4894 C4895 1.400 . S
C4895 C4894 1.400 . S
C4895 C4896 1.398 . S
C4895 C4901 1.491 . S
C4896 H4887 0.950 . S
C4896 C4895 1.398 . S
C4896 C4897 1.391 . S
C4897 H4885 0.950 . S
C4897 C4893 1.393 . S
C4897 C4896 1.391 . S
C4898 H4888 0.950 . S
C4898 C4899 1.386 . S
C4898 C4900 1.391 . S
C4899 C4898 1.386 . S
C4899 C4903 1.393 . S
C4900 H4889 0.950 . S
C4900 C4898 1.391 . S
C4900 C4901 1.400 . S
C4901 C4895 1.491 . S
C4901 C4900 1.400 . S
C4901 C4902 1.398 . S
C4902 H4890 0.950 . S
C4902 C4901 1.398 . S
C4902 C4903 1.391 . S
C4903 H4891 0.950 . S
C4903 C4899 1.393 . S
C4903 C4902 1.391 . S
H4904 C4912 0.950 . S
H4905 C4917 0.950 . S
H4906 C4914 0.950 . S
H4907 C4916 0.950 . S
H4908 C4918 0.950 . S
H4909 C4920 0.950 . S
H4910 C4922 0.950 . S
H4911 C4923 0.950 . S
C4912 H4904 0.950 . S
C4912 C4913 1.386 . S
C4912 C4914 1.391 . S
C4913 C4912 1.386 . S
C4913 C4917 1.393 . S
C4914 H4906 0.950 . S
C4914 C4912 1.391 . S
C4914 C4915 1.400 . S
C4915 C4914 1.400 . S
C4915 C4916 1.398 . S
C4915 C4921 1.491 . S
C4916 H4907 0.950 . S
C4916 C4915 1.398 . S
C4916 C4917 1.391 . S
C4917 H4905 0.950 . S
C4917 C4913 1.393 . S
C4917 C4916 1.391 . S
C4918 H4908 0.950 . S
C4918 C4919 1.386 . S
C4918 C4920 1.391 . S
C4919 C4918 1.386 . S
C4919 C4923 1.393 . S
C4920 H4909 0.950 . S
C4920 C4918 1.391 . S
C4920 C4921 1.400 . S
C4921 C4915 1.491 . S
C4921 C4920 1.400 . S
C4921 C4922 1.398 . S
C4922 H4910 0.950 . S
C4922 C4921 1.398 . S
C4922 C4923 1.391 . S
C4923 H4911 0.950 . S
C4923 C4919 1.393 . S
C4923 C4922 1.391 . S
H4924 C4932 0.950 . S
H4925 C4937 0.950 . S
H4926 C4934 0.950 . S
H4927 C4936 0.950 . S
H4928 C4938 0.950 . S
H4929 C4940 0.950 . S
H4930 C4942 0.950 . S
H4931 C4943 0.950 . S
C4932 H4924 0.950 . S
C4932 C4933 1.386 . S
C4932 C4934 1.391 . S
C4933 C4932 1.386 . S
C4933 C4937 1.393 . S
C4934 H4926 0.950 . S
C4934 C4932 1.391 . S
C4934 C4935 1.400 . S
C4935 C4934 1.400 . S
C4935 C4936 1.398 . S
C4935 C4941 1.491 . S
C4936 H4927 0.950 . S
C4936 C4935 1.398 . S
C4936 C4937 1.391 . S
C4937 H4925 0.950 . S
C4937 C4933 1.393 . S
C4937 C4936 1.391 . S
C4938 H4928 0.950 . S
C4938 C4939 1.386 . S
C4938 C4940 1.391 . S
C4939 C4938 1.386 . S
C4939 C4943 1.393 . S
C4940 H4929 0.950 . S
C4940 C4938 1.391 . S
C4940 C4941 1.400 . S
C4941 C4935 1.491 . S
C4941 C4940 1.400 . S
C4941 C4942 1.398 . S
C4942 H4930 0.950 . S
C4942 C4941 1.398 . S
C4942 C4943 1.391 . S
C4943 H4931 0.950 . S
C4943 C4939 1.393 . S
C4943 C4942 1.391 . S
H4944 C4952 0.950 . S
H4945 C4957 0.950 . S
H4946 C4954 0.950 . S
H4947 C4956 0.950 . S
H4948 C4958 0.950 . S
H4949 C4960 0.950 . S
H4950 C4962 0.950 . S
H4951 C4963 0.950 . S
C4952 H4944 0.950 . S
C4952 C4953 1.386 . S
C4952 C4954 1.391 . S
C4953 C4952 1.386 . S
C4953 C4957 1.393 . S
C4954 H4946 0.950 . S
C4954 C4952 1.391 . S
C4954 C4955 1.400 . S
C4955 C4954 1.400 . S
C4955 C4956 1.398 . S
C4955 C4961 1.491 . S
C4956 H4947 0.950 . S
C4956 C4955 1.398 . S
C4956 C4957 1.391 . S
C4957 H4945 0.950 . S
C4957 C4953 1.393 . S
C4957 C4956 1.391 . S
C4958 H4948 0.950 . S
C4958 C4959 1.386 . S
C4958 C4960 1.391 . S
C4959 C4958 1.386 . S
C4959 C4963 1.393 . S
C4960 H4949 0.950 . S
C4960 C4958 1.391 . S
C4960 C4961 1.400 . S
C4961 C4955 1.491 . S
C4961 C4960 1.400 . S
C4961 C4962 1.398 . S
C4962 H4950 0.950 . S
C4962 C4961 1.398 . S
C4962 C4963 1.391 . S
C4963 H4951 0.950 . S
C4963 C4959 1.393 . S
C4963 C4962 1.391 . S
H4964 C4972 0.950 . S
H4965 C4977 0.950 . S
H4966 C4974 0.950 . S
H4967 C4976 0.950 . S
H4968 C4978 0.950 . S
H4969 C4980 0.950 . S
H4970 C4982 0.950 . S
H4971 C4983 0.950 . S
C4972 H4964 0.950 . S
C4972 C4973 1.386 . S
C4972 C4974 1.391 . S
C4973 C4972 1.386 . S
C4973 C4977 1.393 . S
C4974 H4966 0.950 . S
C4974 C4972 1.391 . S
C4974 C4975 1.400 . S
C4975 C4974 1.400 . S
C4975 C4976 1.398 . S
C4975 C4981 1.491 . S
C4976 H4967 0.950 . S
C4976 C4975 1.398 . S
C4976 C4977 1.391 . S
C4977 H4965 0.950 . S
C4977 C4973 1.393 . S
C4977 C4976 1.391 . S
C4978 H4968 0.950 . S
C4978 C4979 1.386 . S
C4978 C4980 1.391 . S
C4979 C4978 1.386 . S
C4979 C4983 1.393 . S
C4980 H4969 0.950 . S
C4980 C4978 1.391 . S
C4980 C4981 1.400 . S
C4981 C4975 1.491 . S
C4981 C4980 1.400 . S
C4981 C4982 1.398 . S
C4982 H4970 0.950 . S
C4982 C4981 1.398 . S
C4982 C4983 1.391 . S
C4983 H4971 0.950 . S
C4983 C4979 1.393 . S
C4983 C4982 1.391 . S
H4984 C4992 0.950 . S
H4985 C4997 0.950 . S
H4986 C4994 0.950 . S
H4987 C4996 0.950 . S
H4988 C4998 0.950 . S
H4989 C5000 0.950 . S
H4990 C5002 0.950 . S
H4991 C5003 0.950 . S
C4992 H4984 0.950 . S
C4992 C4993 1.386 . S
C4992 C4994 1.391 . S
C4993 C4992 1.386 . S
C4993 C4997 1.393 . S
C4994 H4986 0.950 . S
C4994 C4992 1.391 . S
C4994 C4995 1.400 . S
C4995 C4994 1.400 . S
C4995 C4996 1.398 . S
C4995 C5001 1.491 . S
C4996 H4987 0.950 . S
C4996 C4995 1.398 . S
C4996 C4997 1.391 . S
C4997 H4985 0.950 . S
C4997 C4993 1.393 . S
C4997 C4996 1.391 . S
C4998 H4988 0.950 . S
C4998 C4999 1.386 . S
C4998 C5000 1.391 . S
C4999 C4998 1.386 . S
C4999 C5003 1.393 . S
C5000 H4989 0.950 . S
C5000 C4998 1.391 . S
C5000 C5001 1.400 . S
C5001 C4995 1.491 . S
C5001 C5000 1.400 . S
C5001 C5002 1.398 . S
C5002 H4990 0.950 . S
C5002 C5001 1.398 . S
C5002 C5003 1.391 . S
C5003 H4991 0.950 . S
C5003 C4999 1.393 . S
C5003 C5002 1.391 . S
H5004 C5012 0.950 . S
H5005 C5017 0.950 . S
H5006 C5014 0.950 . S
H5007 C5016 0.950 . S
H5008 C5018 0.950 . S
H5009 C5020 0.950 . S
H5010 C5022 0.950 . S
H5011 C5023 0.950 . S
C5012 H5004 0.950 . S
C5012 C5013 1.386 . S
C5012 C5014 1.391 . S
C5013 C5012 1.386 . S
C5013 C5017 1.393 . S
C5014 H5006 0.950 . S
C5014 C5012 1.391 . S
C5014 C5015 1.400 . S
C5015 C5014 1.400 . S
C5015 C5016 1.398 . S
C5015 C5021 1.491 . S
C5016 H5007 0.950 . S
C5016 C5015 1.398 . S
C5016 C5017 1.391 . S
C5017 H5005 0.950 . S
C5017 C5013 1.393 . S
C5017 C5016 1.391 . S
C5018 H5008 0.950 . S
C5018 C5019 1.386 . S
C5018 C5020 1.391 . S
C5019 C5018 1.386 . S
C5019 C5023 1.393 . S
C5020 H5009 0.950 . S
C5020 C5018 1.391 . S
C5020 C5021 1.400 . S
C5021 C5015 1.491 . S
C5021 C5020 1.400 . S
C5021 C5022 1.398 . S
C5022 H5010 0.950 . S
C5022 C5021 1.398 . S
C5022 C5023 1.391 . S
C5023 H5011 0.950 . S
C5023 C5019 1.393 . S
C5023 C5022 1.391 . S
H5024 C5032 0.950 . S
H5025 C5037 0.950 . S
H5026 C5034 0.950 . S
H5027 C5036 0.950 . S
H5028 C5038 0.950 . S
H5029 C5040 0.950 . S
H5030 C5042 0.950 . S
H5031 C5043 0.950 . S
C5032 H5024 0.950 . S
C5032 C5033 1.386 . S
C5032 C5034 1.391 . S
C5033 C5032 1.386 . S
C5033 C5037 1.393 . S
C5034 H5026 0.950 . S
C5034 C5032 1.391 . S
C5034 C5035 1.400 . S
C5035 C5034 1.400 . S
C5035 C5036 1.398 . S
C5035 C5041 1.491 . S
C5036 H5027 0.950 . S
C5036 C5035 1.398 . S
C5036 C5037 1.391 . S
C5037 H5025 0.950 . S
C5037 C5033 1.393 . S
C5037 C5036 1.391 . S
C5038 H5028 0.950 . S
C5038 C5039 1.386 . S
C5038 C5040 1.391 . S
C5039 C5038 1.386 . S
C5039 C5043 1.393 . S
C5040 H5029 0.950 . S
C5040 C5038 1.391 . S
C5040 C5041 1.400 . S
C5041 C5035 1.491 . S
C5041 C5040 1.400 . S
C5041 C5042 1.398 . S
C5042 H5030 0.950 . S
C5042 C5041 1.398 . S
C5042 C5043 1.391 . S
C5043 H5031 0.950 . S
C5043 C5039 1.393 . S
C5043 C5042 1.391 . S
H5044 C5052 0.950 . S
H5045 C5057 0.950 . S
H5046 C5054 0.950 . S
H5047 C5056 0.950 . S
H5048 C5058 0.950 . S
H5049 C5060 0.950 . S
H5050 C5062 0.950 . S
H5051 C5063 0.950 . S
C5052 H5044 0.950 . S
C5052 C5053 1.386 . S
C5052 C5054 1.391 . S
C5053 C5052 1.386 . S
C5053 C5057 1.393 . S
C5054 H5046 0.950 . S
C5054 C5052 1.391 . S
C5054 C5055 1.400 . S
C5055 C5054 1.400 . S
C5055 C5056 1.398 . S
C5055 C5061 1.491 . S
C5056 H5047 0.950 . S
C5056 C5055 1.398 . S
C5056 C5057 1.391 . S
C5057 H5045 0.950 . S
C5057 C5053 1.393 . S
C5057 C5056 1.391 . S
C5058 H5048 0.950 . S
C5058 C5059 1.386 . S
C5058 C5060 1.391 . S
C5059 C5058 1.386 . S
C5059 C5063 1.393 . S
C5060 H5049 0.950 . S
C5060 C5058 1.391 . S
C5060 C5061 1.400 . S
C5061 C5055 1.491 . S
C5061 C5060 1.400 . S
C5061 C5062 1.398 . S
C5062 H5050 0.950 . S
C5062 C5061 1.398 . S
C5062 C5063 1.391 . S
C5063 H5051 0.950 . S
C5063 C5059 1.393 . S
C5063 C5062 1.391 . S
H5064 C5072 0.950 . S
H5065 C5077 0.950 . S
H5066 C5074 0.950 . S
H5067 C5076 0.950 . S
H5068 C5078 0.950 . S
H5069 C5080 0.950 . S
H5070 C5082 0.950 . S
H5071 C5083 0.950 . S
C5072 H5064 0.950 . S
C5072 C5073 1.386 . S
C5072 C5074 1.391 . S
C5073 C5072 1.386 . S
C5073 C5077 1.393 . S
C5074 H5066 0.950 . S
C5074 C5072 1.391 . S
C5074 C5075 1.400 . S
C5075 C5074 1.400 . S
C5075 C5076 1.398 . S
C5075 C5081 1.491 . S
C5076 H5067 0.950 . S
C5076 C5075 1.398 . S
C5076 C5077 1.391 . S
C5077 H5065 0.950 . S
C5077 C5073 1.393 . S
C5077 C5076 1.391 . S
C5078 H5068 0.950 . S
C5078 C5079 1.386 . S
C5078 C5080 1.391 . S
C5079 C5078 1.386 . S
C5079 C5083 1.393 . S
C5080 H5069 0.950 . S
C5080 C5078 1.391 . S
C5080 C5081 1.400 . S
C5081 C5075 1.491 . S
C5081 C5080 1.400 . S
C5081 C5082 1.398 . S
C5082 H5070 0.950 . S
C5082 C5081 1.398 . S
C5082 C5083 1.391 . S
C5083 H5071 0.950 . S
C5083 C5079 1.393 . S
C5083 C5082 1.391 . S
H5084 C5092 0.950 . S
H5085 C5097 0.950 . S
H5086 C5094 0.950 . S
H5087 C5096 0.950 . S
H5088 C5098 0.950 . S
H5089 C5100 0.950 . S
H5090 C5102 0.950 . S
H5091 C5103 0.950 . S
C5092 H5084 0.950 . S
C5092 C5093 1.386 . S
C5092 C5094 1.391 . S
C5093 C5092 1.386 . S
C5093 C5097 1.393 . S
C5094 H5086 0.950 . S
C5094 C5092 1.391 . S
C5094 C5095 1.400 . S
C5095 C5094 1.400 . S
C5095 C5096 1.398 . S
C5095 C5101 1.491 . S
C5096 H5087 0.950 . S
C5096 C5095 1.398 . S
C5096 C5097 1.391 . S
C5097 H5085 0.950 . S
C5097 C5093 1.393 . S
C5097 C5096 1.391 . S
C5098 H5088 0.950 . S
C5098 C5099 1.386 . S
C5098 C5100 1.391 . S
C5099 C5098 1.386 . S
C5099 C5103 1.393 . S
C5100 H5089 0.950 . S
C5100 C5098 1.391 . S
C5100 C5101 1.400 . S
C5101 C5095 1.491 . S
C5101 C5100 1.400 . S
C5101 C5102 1.398 . S
C5102 H5090 0.950 . S
C5102 C5101 1.398 . S
C5102 C5103 1.391 . S
C5103 H5091 0.950 . S
C5103 C5099 1.393 . S
C5103 C5102 1.391 . S
H5104 C5112 0.950 . S
H5105 C5117 0.950 . S
H5106 C5114 0.950 . S
H5107 C5116 0.950 . S
H5108 C5118 0.950 . S
H5109 C5120 0.950 . S
H5110 C5122 0.950 . S
H5111 C5123 0.950 . S
C5112 H5104 0.950 . S
C5112 C5113 1.386 . S
C5112 C5114 1.391 . S
C5113 C5112 1.386 . S
C5113 C5117 1.393 . S
C5114 H5106 0.950 . S
C5114 C5112 1.391 . S
C5114 C5115 1.400 . S
C5115 C5114 1.400 . S
C5115 C5116 1.398 . S
C5115 C5121 1.491 . S
C5116 H5107 0.950 . S
C5116 C5115 1.398 . S
C5116 C5117 1.391 . S
C5117 H5105 0.950 . S
C5117 C5113 1.393 . S
C5117 C5116 1.391 . S
C5118 H5108 0.950 . S
C5118 C5119 1.386 . S
C5118 C5120 1.391 . S
C5119 C5118 1.386 . S
C5119 C5123 1.393 . S
C5120 H5109 0.950 . S
C5120 C5118 1.391 . S
C5120 C5121 1.400 . S
C5121 C5115 1.491 . S
C5121 C5120 1.400 . S
C5121 C5122 1.398 . S
C5122 H5110 0.950 . S
C5122 C5121 1.398 . S
C5122 C5123 1.391 . S
C5123 H5111 0.950 . S
C5123 C5119 1.393 . S
C5123 C5122 1.391 . S
H5124 C5132 0.950 . S
H5125 C5137 0.950 . S
H5126 C5134 0.950 . S
H5127 C5136 0.950 . S
H5128 C5138 0.950 . S
H5129 C5140 0.950 . S
H5130 C5142 0.950 . S
H5131 C5143 0.950 . S
C5132 H5124 0.950 . S
C5132 C5133 1.386 . S
C5132 C5134 1.391 . S
C5133 C5132 1.386 . S
C5133 C5137 1.393 . S
C5134 H5126 0.950 . S
C5134 C5132 1.391 . S
C5134 C5135 1.400 . S
C5135 C5134 1.400 . S
C5135 C5136 1.398 . S
C5135 C5141 1.491 . S
C5136 H5127 0.950 . S
C5136 C5135 1.398 . S
C5136 C5137 1.391 . S
C5137 H5125 0.950 . S
C5137 C5133 1.393 . S
C5137 C5136 1.391 . S
C5138 H5128 0.950 . S
C5138 C5139 1.386 . S
C5138 C5140 1.391 . S
C5139 C5138 1.386 . S
C5139 C5143 1.393 . S
C5140 H5129 0.950 . S
C5140 C5138 1.391 . S
C5140 C5141 1.400 . S
C5141 C5135 1.491 . S
C5141 C5140 1.400 . S
C5141 C5142 1.398 . S
C5142 H5130 0.950 . S
C5142 C5141 1.398 . S
C5142 C5143 1.391 . S
C5143 H5131 0.950 . S
C5143 C5139 1.393 . S
C5143 C5142 1.391 . S
H5144 C5152 0.950 . S
H5145 C5157 0.950 . S
H5146 C5154 0.950 . S
H5147 C5156 0.950 . S
H5148 C5158 0.950 . S
H5149 C5160 0.950 . S
H5150 C5162 0.950 . S
H5151 C5163 0.950 . S
C5152 H5144 0.950 . S
C5152 C5153 1.386 . S
C5152 C5154 1.391 . S
C5153 C5152 1.386 . S
C5153 C5157 1.393 . S
C5154 H5146 0.950 . S
C5154 C5152 1.391 . S
C5154 C5155 1.400 . S
C5155 C5154 1.400 . S
C5155 C5156 1.398 . S
C5155 C5161 1.491 . S
C5156 H5147 0.950 . S
C5156 C5155 1.398 . S
C5156 C5157 1.391 . S
C5157 H5145 0.950 . S
C5157 C5153 1.393 . S
C5157 C5156 1.391 . S
C5158 H5148 0.950 . S
C5158 C5159 1.386 . S
C5158 C5160 1.391 . S
C5159 C5158 1.386 . S
C5159 C5163 1.393 . S
C5160 H5149 0.950 . S
C5160 C5158 1.391 . S
C5160 C5161 1.400 . S
C5161 C5155 1.491 . S
C5161 C5160 1.400 . S
C5161 C5162 1.398 . S
C5162 H5150 0.950 . S
C5162 C5161 1.398 . S
C5162 C5163 1.391 . S
C5163 H5151 0.950 . S
C5163 C5159 1.393 . S
C5163 C5162 1.391 . S
H5164 C5172 0.950 . S
H5165 C5177 0.950 . S
H5166 C5174 0.950 . S
H5167 C5176 0.950 . S
H5168 C5178 0.950 . S
H5169 C5180 0.950 . S
H5170 C5182 0.950 . S
H5171 C5183 0.950 . S
C5172 H5164 0.950 . S
C5172 C5173 1.386 . S
C5172 C5174 1.391 . S
C5173 C5172 1.386 . S
C5173 C5177 1.393 . S
C5174 H5166 0.950 . S
C5174 C5172 1.391 . S
C5174 C5175 1.400 . S
C5175 C5174 1.400 . S
C5175 C5176 1.398 . S
C5175 C5181 1.491 . S
C5176 H5167 0.950 . S
C5176 C5175 1.398 . S
C5176 C5177 1.391 . S
C5177 H5165 0.950 . S
C5177 C5173 1.393 . S
C5177 C5176 1.391 . S
C5178 H5168 0.950 . S
C5178 C5179 1.386 . S
C5178 C5180 1.391 . S
C5179 C5178 1.386 . S
C5179 C5183 1.393 . S
C5180 H5169 0.950 . S
C5180 C5178 1.391 . S
C5180 C5181 1.400 . S
C5181 C5175 1.491 . S
C5181 C5180 1.400 . S
C5181 C5182 1.398 . S
C5182 H5170 0.950 . S
C5182 C5181 1.398 . S
C5182 C5183 1.391 . S
C5183 H5171 0.950 . S
C5183 C5179 1.393 . S
C5183 C5182 1.391 . S
C1353 C13 1.390 . S
C1359 C965 1.401 . S
C1373 C923 1.398 . S
C1379 C27 1.405 . S
C1393 C937 1.397 . S
C1399 C41 1.405 . S
C1413 C55 1.375 . S
C1419 C951 1.374 . S
C1433 C1007 1.405 . S
C1439 C69 1.404 . S
C1453 C979 1.385 . S
C1459 C83 1.397 . S
C1473 C993 1.379 . S
C1479 C97 1.390 . S
C1493 C111 1.398 . S
C1499 C909 1.386 . S
C1513 C125 1.377 . S
C1519 C895 1.388 . S
C1533 C139 1.398 . S
C1539 C853 1.405 . S
C1553 C153 1.396 . S
C1559 C867 1.404 . S
C1573 C167 1.404 . S
C1579 C881 1.405 . S
C1593 C181 1.380 . S
C1599 C811 1.392 . S
C1613 C825 1.395 . S
C1619 C195 1.383 . S
C1633 C839 1.387 . S
C1639 C209 1.376 . S
C1653 C223 1.405 . S
C1659 C797 1.403 . S
C1673 C237 1.374 . S
C1679 C783 1.375 . S
C1693 C251 1.396 . S
C1699 C699 1.404 . S
C1713 C713 1.382 . S
C1719 C265 1.394 . S
C1733 C727 1.388 . S
C1739 C279 1.400 . S
C1753 C685 1.377 . S
C1759 C293 1.388 . S
C1773 C307 1.386 . S
C1779 C755 1.376 . S
C1793 C321 1.397 . S
C1799 C769 1.405 . S
C1813 C335 1.384 . S
C1819 C741 1.396 . S
C1833 C349 1.405 . S
C1839 C1301 1.403 . S
C1853 C363 1.384 . S
C1859 C1259 1.396 . S
C1873 C377 1.393 . S
C1879 C1273 1.381 . S
C1893 C391 1.401 . S
C1899 C1287 1.390 . S
C1913 C405 1.384 . S
C1919 C1343 1.396 . S
C1933 C419 1.397 . S
C1939 C1315 1.385 . S
C1953 C1329 1.381 . S
C1959 C433 1.374 . S
C1973 C447 1.401 . S
C1979 C1245 1.390 . S
C1993 C461 1.403 . S
C1999 C1231 1.405 . S
C2013 C1189 1.375 . S
C2019 C475 1.374 . S
C2033 C489 1.375 . S
C2039 C1203 1.374 . S
C2053 C503 1.402 . S
C2059 C1217 1.406 . S
C2073 C517 1.393 . S
C2079 C1147 1.381 . S
C2093 C531 1.380 . S
C2099 C1161 1.392 . S
C2113 C545 1.395 . S
C2119 C1175 1.383 . S
C2133 C1133 1.387 . S
C2139 C559 1.399 . S
C2153 C573 1.390 . S
C2159 C1119 1.401 . S
C2173 C587 1.374 . S
C2179 C1035 1.380 . S
C2193 C601 1.405 . S
C2199 C1049 1.404 . S
C2213 C1063 1.396 . S
C2219 C615 1.384 . S
C2233 C629 1.374 . S
C2239 C1021 1.375 . S
C2253 C1091 1.396 . S
C2259 C643 1.384 . S
C2273 C657 1.377 . S
C2279 C1105 1.388 . S
C2293 C671 1.397 . S
C2299 C1077 1.405 . S
C2313 C8 1.539 . S
C2319 C554 1.562 . S
C2333 C22 1.542 . S
C2339 C512 1.559 . S
C2353 C526 1.554 . S
C2359 C36 1.548 . S
C2373 C50 1.550 . S
C2379 C540 1.551 . S
C2393 C470 1.549 . S
C2399 C64 1.553 . S
C2413 C484 1.555 . S
C2419 C78 1.546 . S
C2433 C498 1.563 . S
C2439 C92 1.538 . S
C2453 C456 1.537 . S
C2459 C106 1.564 . S
C2473 C442 1.561 . S
C2479 C120 1.540 . S
C2493 C134 1.560 . S
C2499 C400 1.541 . S
C2513 C414 1.538 . S
C2519 C148 1.563 . S
C2533 C162 1.543 . S
C2539 C428 1.559 . S
C2553 C358 1.562 . S
C2559 C176 1.540 . S
C2573 C372 1.563 . S
C2579 C190 1.538 . S
C2593 C204 1.557 . S
C2599 C386 1.544 . S
C2613 C218 1.542 . S
C2619 C344 1.559 . S
C2633 C232 1.540 . S
C2639 C624 1.561 . S
C2653 C246 1.555 . S
C2659 C666 1.546 . S
C2673 C638 1.540 . S
C2679 C260 1.561 . S
C2693 C652 1.538 . S
C2699 C274 1.563 . S
C2713 C288 1.556 . S
C2719 C568 1.545 . S
C2733 C302 1.542 . S
C2739 C596 1.559 . S
C2753 C610 1.541 . S
C2759 C316 1.561 . S
C2773 C330 1.544 . S
C2779 C582 1.557 . S
C2793 C1226 1.537 . S
C2799 C680 1.564 . S
C2813 C1184 1.564 . S
C2819 C694 1.538 . S
C2833 C1198 1.561 . S
C2839 C708 1.540 . S
C2853 C722 1.551 . S
C2859 C1212 1.551 . S
C2873 C1142 1.550 . S
C2879 C736 1.551 . S
C2893 C1156 1.561 . S
C2899 C750 1.540 . S
C2913 C764 1.562 . S
C2919 C1170 1.539 . S
C2933 C778 1.559 . S
C2939 C1128 1.542 . S
C2953 C1114 1.557 . S
C2959 C792 1.544 . S
C2973 C806 1.555 . S
C2979 C1072 1.547 . S
C2993 C1086 1.562 . S
C2999 C820 1.539 . S
C3013 C1100 1.537 . S
C3019 C834 1.564 . S
C3033 C848 1.546 . S
C3039 C1030 1.555 . S
C3053 C862 1.539 . S
C3059 C1044 1.562 . S
C3073 C1058 1.562 . S
C3079 C876 1.539 . S
C3093 C890 1.558 . S
C3099 C1016 1.543 . S
C3113 C1296 1.542 . S
C3119 C904 1.559 . S
C3133 C1338 1.546 . S
C3139 C918 1.555 . S
C3153 C932 1.541 . S
C3159 C1310 1.560 . S
C3173 C1324 1.550 . S
C3179 C946 1.551 . S
C3193 C1240 1.558 . S
C3199 C960 1.543 . S
C3213 C1268 1.562 . S
C3219 C974 1.539 . S
C3233 C988 1.537 . S
C3239 C1282 1.564 . S
C3253 C1254 1.563 . S
C3259 C1002 1.538 . S
C3273 C7 1.048 . S
C3279 C399 1.066 . S
C3293 C413 1.066 . S
C3299 C21 1.048 . S
C3313 C35 1.046 . S
C3319 C427 1.068 . S
C3333 C441 1.052 . S
C3339 C49 1.062 . S
C3353 C63 1.069 . S
C3359 C343 1.045 . S
C3373 C77 1.067 . S
C3379 C357 1.047 . S
C3393 C91 1.069 . S
C3399 C371 1.045 . S
C3413 C385 1.068 . S
C3419 C105 1.046 . S
C3433 C539 1.069 . S
C3439 C119 1.045 . S
C3453 C133 1.058 . S
C3459 C553 1.056 . S
C3473 C147 1.066 . S
C3479 C511 1.048 . S
C3493 C161 1.068 . S
C3499 C525 1.046 . S
C3513 C175 1.047 . S
C3519 C483 1.067 . S
C3533 C189 1.068 . S
C3539 C497 1.046 . S
C3553 C203 1.047 . S
C3559 C455 1.067 . S
C3573 C217 1.048 . S
C3579 C469 1.066 . S
C3593 C231 1.069 . S
C3599 C637 1.045 . S
C3613 C245 1.058 . S
C3619 C609 1.057 . S
C3633 C623 1.045 . S
C3639 C259 1.069 . S
C3653 C273 1.061 . S
C3659 C581 1.053 . S
C3673 C595 1.068 . S
C3679 C287 1.046 . S
C3693 C301 1.051 . S
C3699 C567 1.063 . S
C3713 C315 1.046 . S
C3719 C665 1.068 . S
C3733 C651 1.068 . S
C3739 C329 1.046 . S
C3753 C1071 1.054 . S
C3759 C679 1.060 . S
C3773 C693 1.051 . S
C3779 C1085 1.064 . S
C3793 C1099 1.065 . S
C3799 C707 1.049 . S
C3813 C721 1.055 . S
C3819 C1113 1.060 . S
C3833 C1015 1.068 . S
C3839 C735 1.046 . S
C3853 C1029 1.050 . S
C3859 C749 1.064 . S
C3873 C1043 1.057 . S
C3879 C763 1.058 . S
C3893 C777 1.052 . S
C3899 C1057 1.062 . S
C3913 C791 1.067 . S
C3919 C1211 1.047 . S
C3933 C1225 1.057 . S
C3939 C805 1.057 . S
C3953 C1183 1.059 . S
C3959 C819 1.056 . S
C3973 C1197 1.053 . S
C3979 C833 1.061 . S
C3993 C847 1.045 . S
C3999 C1155 1.069 . S
C4013 C861 1.069 . S
C4019 C1169 1.045 . S
C4033 C1127 1.047 . S
C4039 C875 1.067 . S
C4053 C1141 1.059 . S
C4059 C889 1.056 . S
C4073 C1309 1.063 . S
C4079 C903 1.051 . S
C4093 C917 1.058 . S
C4099 C1281 1.056 . S
C4113 C1295 1.045 . S
C4119 C931 1.069 . S
C4133 C945 1.068 . S
C4139 C1253 1.046 . S
C4153 C959 1.067 . S
C4159 C1267 1.047 . S
C4173 C973 1.048 . S
C4179 C1239 1.066 . S
C4193 C1337 1.059 . S
C4199 C987 1.055 . S
C4213 C1001 1.064 . S
C4219 C1323 1.050 . S
C4233 C445 1.150 . S
C4239 C11 1.142 . S
C4253 C403 1.146 . S
C4259 C25 1.146 . S
C4273 C39 1.146 . S
C4279 C417 1.146 . S
C4293 C431 1.149 . S
C4299 C53 1.143 . S
C4313 C361 1.149 . S
C4319 C67 1.143 . S
C4333 C81 1.147 . S
C4339 C375 1.145 . S
C4353 C95 1.145 . S
C4359 C389 1.147 . S
C4373 C347 1.147 . S
C4379 C109 1.145 . S
C4393 C627 1.150 . S
C4399 C123 1.142 . S
C4413 C137 1.143 . S
C4419 C585 1.150 . S
C4433 C151 1.150 . S
C4439 C599 1.143 . S
C4453 C613 1.150 . S
C4459 C165 1.142 . S
C4473 C179 1.149 . S
C4479 C669 1.144 . S
C4493 C641 1.149 . S
C4499 C193 1.144 . S
C4513 C655 1.143 . S
C4519 C207 1.149 . S
C4533 C221 1.147 . S
C4539 C571 1.145 . S
C4553 C235 1.146 . S
C4559 C557 1.147 . S
C4573 C249 1.149 . S
C4579 C473 1.144 . S
C4593 C263 1.150 . S
C4599 C487 1.143 . S
C4613 C501 1.146 . S
C4619 C277 1.146 . S
C4633 C459 1.143 . S
C4639 C291 1.150 . S
C4653 C305 1.147 . S
C4659 C529 1.145 . S
C4673 C319 1.148 . S
C4679 C543 1.144 . S
C4693 C333 1.150 . S
C4699 C515 1.142 . S
C4713 C683 1.149 . S
C4719 C1117 1.143 . S
C4733 C697 1.143 . S
C4739 C1075 1.149 . S
C4753 C711 1.149 . S
C4759 C1089 1.143 . S
C4773 C1103 1.143 . S
C4779 C725 1.149 . S
C4793 C1033 1.150 . S
C4799 C739 1.143 . S
C4813 C1047 1.145 . S
C4819 C753 1.147 . S
C4833 C767 1.145 . S
C4839 C1061 1.147 . S
C4853 C1019 1.143 . S
C4859 C781 1.149 . S
C4873 C1299 1.142 . S
C4879 C795 1.150 . S
C4893 C1257 1.143 . S
C4899 C809 1.149 . S
C4913 C1271 1.145 . S
C4919 C823 1.147 . S
C4933 C1285 1.150 . S
C4939 C837 1.142 . S
C4953 C1341 1.149 . S
C4959 C851 1.143 . S
C4973 C1313 1.143 . S
C4979 C865 1.149 . S
C4993 C1327 1.147 . S
C4999 C879 1.145 . S
C5013 C1243 1.144 . S
C5019 C893 1.149 . S
C5033 C907 1.145 . S
C5039 C1229 1.147 . S
C5053 C1145 1.142 . S
C5059 C921 1.150 . S
C5073 C1159 1.150 . S
C5079 C935 1.142 . S
C5093 C1173 1.143 . S
C5099 C949 1.150 . S
C5113 C1131 1.146 . S
C5119 C963 1.146 . S
C5133 C1201 1.150 . S
C5139 C977 1.142 . S
C5153 C1215 1.142 . S
C5159 C991 1.150 . S
C5173 C1187 1.149 . S
C5179 C1005 1.143 . S
