# Generated by pormake.
# Topology upc, (4)-cn, num edge types: 1
# Building blocks:
#     Node 0, Type 0, BuildingBlock: QUQFOY_clean_sbu_1, # of connection points: 4
#     Node 1, Type 0, BuildingBlock: QUQFOY_clean_sbu_1, # of connection points: 4
#     Node 2, Type 0, BuildingBlock: QUQFOY_clean_sbu_1, # of connection points: 4
#     Node 3, Type 0, BuildingBlock: QUQFOY_clean_sbu_1, # of connection points: 4
#     Node 4, Type 0, BuildingBlock: QUQFOY_clean_sbu_1, # of connection points: 4
#     Node 5, Type 0, BuildingBlock: QUQFOY_clean_sbu_1, # of connection points: 4
#     Node 6, Type 0, BuildingBlock: QUQFOY_clean_sbu_1, # of connection points: 4
#     Node 7, Type 0, BuildingBlock: QUQFOY_clean_sbu_1, # of connection points: 4
#     Node 8, Type 0, BuildingBlock: QUQFOY_clean_sbu_1, # of connection points: 4
#     Node 9, Type 0, BuildingBlock: QUQFOY_clean_sbu_1, # of connection points: 4
#     Node 10, Type 0, BuildingBlock: QUQFOY_clean_sbu_1, # of connection points: 4
#     Node 11, Type 0, BuildingBlock: QUQFOY_clean_sbu_1, # of connection points: 4
#     Node 12, Type 0, BuildingBlock: QUQFOY_clean_sbu_1, # of connection points: 4
#     Node 13, Type 0, BuildingBlock: QUQFOY_clean_sbu_1, # of connection points: 4
#     Node 14, Type 0, BuildingBlock: QUQFOY_clean_sbu_1, # of connection points: 4
#     Node 15, Type 0, BuildingBlock: QUQFOY_clean_sbu_1, # of connection points: 4
#     Edge 16, Type (0, 0), BuildingBlock: CIFDUS_clean_linker_0, # of connection points: 2
#     Edge 17, Type (0, 0), BuildingBlock: CIFDUS_clean_linker_0, # of connection points: 2
#     Edge 18, Type (0, 0), BuildingBlock: CIFDUS_clean_linker_0, # of connection points: 2
#     Edge 19, Type (0, 0), BuildingBlock: CIFDUS_clean_linker_0, # of connection points: 2
#     Edge 20, Type (0, 0), BuildingBlock: CIFDUS_clean_linker_0, # of connection points: 2
#     Edge 21, Type (0, 0), BuildingBlock: CIFDUS_clean_linker_0, # of connection points: 2
#     Edge 22, Type (0, 0), BuildingBlock: CIFDUS_clean_linker_0, # of connection points: 2
#     Edge 23, Type (0, 0), BuildingBlock: CIFDUS_clean_linker_0, # of connection points: 2
#     Edge 24, Type (0, 0), BuildingBlock: CIFDUS_clean_linker_0, # of connection points: 2
#     Edge 25, Type (0, 0), BuildingBlock: CIFDUS_clean_linker_0, # of connection points: 2
#     Edge 26, Type (0, 0), BuildingBlock: CIFDUS_clean_linker_0, # of connection points: 2
#     Edge 27, Type (0, 0), BuildingBlock: CIFDUS_clean_linker_0, # of connection points: 2
#     Edge 28, Type (0, 0), BuildingBlock: CIFDUS_clean_linker_0, # of connection points: 2
#     Edge 29, Type (0, 0), BuildingBlock: CIFDUS_clean_linker_0, # of connection points: 2
#     Edge 30, Type (0, 0), BuildingBlock: CIFDUS_clean_linker_0, # of connection points: 2
#     Edge 31, Type (0, 0), BuildingBlock: CIFDUS_clean_linker_0, # of connection points: 2
#     Edge 32, Type (0, 0), BuildingBlock: CIFDUS_clean_linker_0, # of connection points: 2
#     Edge 33, Type (0, 0), BuildingBlock: CIFDUS_clean_linker_0, # of connection points: 2
#     Edge 34, Type (0, 0), BuildingBlock: CIFDUS_clean_linker_0, # of connection points: 2
#     Edge 35, Type (0, 0), BuildingBlock: CIFDUS_clean_linker_0, # of connection points: 2
#     Edge 36, Type (0, 0), BuildingBlock: CIFDUS_clean_linker_0, # of connection points: 2
#     Edge 37, Type (0, 0), BuildingBlock: CIFDUS_clean_linker_0, # of connection points: 2
#     Edge 38, Type (0, 0), BuildingBlock: CIFDUS_clean_linker_0, # of connection points: 2
#     Edge 39, Type (0, 0), BuildingBlock: CIFDUS_clean_linker_0, # of connection points: 2
#     Edge 40, Type (0, 0), BuildingBlock: CIFDUS_clean_linker_0, # of connection points: 2
#     Edge 41, Type (0, 0), BuildingBlock: CIFDUS_clean_linker_0, # of connection points: 2
#     Edge 42, Type (0, 0), BuildingBlock: CIFDUS_clean_linker_0, # of connection points: 2
#     Edge 43, Type (0, 0), BuildingBlock: CIFDUS_clean_linker_0, # of connection points: 2
#     Edge 44, Type (0, 0), BuildingBlock: CIFDUS_clean_linker_0, # of connection points: 2
#     Edge 45, Type (0, 0), BuildingBlock: CIFDUS_clean_linker_0, # of connection points: 2
#     Edge 46, Type (0, 0), BuildingBlock: CIFDUS_clean_linker_0, # of connection points: 2
#     Edge 47, Type (0, 0), BuildingBlock: CIFDUS_clean_linker_0, # of connection points: 2
# Relax obj value: 0.084
# Max RMSD: 0.196
# Mean RMSD: 0.196
data_MOF--net-upc--node1-QUQFOY_clean_sbu_1--edge1-CIFDUS_clean_linker_0
_symmetry_space_group_name_H-M    P1
_symmetry_Int_Tables_number       1
_symmetry_cell_setting            triclinic
loop_
_symmetry_equiv_pos_as_xyz
'x, y, z'
_cell_length_a     32.583392
_cell_length_b     32.505614
_cell_length_c     38.706224
_cell_angle_alpha  90.06455
_cell_angle_beta   90.017725
_cell_angle_gamma 90.133884
loop_
_atom_site_label
_atom_site_type_symbol
_atom_site_fract_x
_atom_site_fract_y
_atom_site_fract_z
_atom_type_partial_charge
O0 O 0.05324 0.53855 0.1804 0.0
Cd1 Cd 0.05034 0.58819 0.1471 0.0
Cd2 Cd 0.1154 0.60604 0.18783 0.0
O3 O 0.11659 0.54449 0.1997 0.0
O4 O 0.01009 0.56858 0.11181 0.0
O5 O 0.07555 0.57996 0.10011 0.0
C6 C 0.04005 0.56661 0.09013 0.0
C7 C 0.17426 0.6468 0.18088 0.0
C8 C 0.08351 0.52398 0.19712 0.0
C9 C 0.03989 0.65562 0.19699 0.0
O10 O 0.06983 0.6385 0.2121 0.0
O11 O 0.02999 0.64469 0.16649 0.0
O12 O 0.1651 0.62997 0.20999 0.0
O13 O 0.15155 0.63791 0.15454 0.0
O14 O 0.95169 0.05756 0.16378 0.0
Cd15 Cd 0.90233 0.05041 0.13076 0.0
Cd16 Cd 0.88667 0.12229 0.16646 0.0
O17 O 0.94757 0.12266 0.17962 0.0
O18 O 0.91958 0.99985 0.10553 0.0
O19 O 0.91527 0.06073 0.08053 0.0
C20 C 0.92574 0.02246 0.07874 0.0
C21 C 0.84911 0.18171 0.15373 0.0
C22 C 0.96707 0.08894 0.17857 0.0
C23 C 0.83397 0.04949 0.18044 0.0
O24 O 0.8518 0.08062 0.19331 0.0
O25 O 0.84483 0.03566 0.1511 0.0
O26 O 0.86399 0.17495 0.18402 0.0
O27 O 0.85826 0.15602 0.12945 0.0
O28 O 0.43279 0.95918 0.15787 0.0
Cd29 Cd 0.44435 0.91146 0.12383 0.0
Cd30 Cd 0.37695 0.88707 0.16476 0.0
O31 O 0.37031 0.9477 0.17783 0.0
O32 O 0.49231 0.93517 0.0986 0.0
O33 O 0.43227 0.92465 0.07373 0.0
C34 C 0.46905 0.93945 0.07197 0.0
C35 C 0.32244 0.84083 0.15724 0.0
C36 C 0.40145 0.97096 0.17476 0.0
C37 C 0.45653 0.84384 0.17339 0.0
O38 O 0.42557 0.85906 0.18841 0.0
O39 O 0.46586 0.85515 0.14291 0.0
O40 O 0.33109 0.85639 0.18699 0.0
O41 O 0.34265 0.8541 0.13079 0.0
O42 O 0.54269 0.45596 0.17128 0.0
Cd43 Cd 0.58879 0.47911 0.14081 0.0
Cd44 Cd 0.62555 0.40612 0.17123 0.0
O45 O 0.56619 0.39532 0.18785 0.0
O46 O 0.55936 0.52128 0.11282 0.0
O47 O 0.58586 0.46475 0.09025 0.0
C48 C 0.56432 0.49776 0.08636 0.0
C49 C 0.67238 0.35092 0.16847 0.0
C50 C 0.53767 0.42194 0.18688 0.0
C51 C 0.65592 0.4936 0.19012 0.0
O52 O 0.65374 0.45509 0.19501 0.0
O53 O 0.63477 0.511 0.16678 0.0
O54 O 0.65558 0.36259 0.19681 0.0
O55 O 0.66051 0.36867 0.14042 0.0
O56 O 0.04461 0.96039 0.33973 0.0
Cd57 Cd 0.04319 0.90927 0.37146 0.0
Cd58 Cd 0.1088 0.89513 0.32779 0.0
O59 O 0.10743 0.95721 0.31871 0.0
O60 O 0.00115 0.92615 0.40625 0.0
O61 O 0.06664 0.91755 0.41917 0.0
C62 C 0.0304 0.9292 0.42855 0.0
C63 C 0.16992 0.85727 0.32949 0.0
C64 C 0.07409 0.97665 0.32307 0.0
C65 C 0.03474 0.8428 0.31982 0.0
O66 O 0.06308 0.862 0.3042 0.0
O67 O 0.02556 0.85231 0.3508 0.0
O68 O 0.15769 0.87549 0.30184 0.0
O69 O 0.14884 0.86288 0.35734 0.0
O70 O 0.5351 0.0444 0.33122 0.0
Cd71 Cd 0.58656 0.04314 0.36228 0.0
Cd72 Cd 0.59586 0.11268 0.32668 0.0
O73 O 0.53403 0.10992 0.31667 0.0
O74 O 0.57401 0.99573 0.39297 0.0
O75 O 0.57564 0.06027 0.41126 0.0
C76 C 0.56757 0.02199 0.41733 0.0
C77 C 0.63164 0.17223 0.34231 0.0
C78 C 0.51666 0.07496 0.31796 0.0
C79 C 0.65223 0.04455 0.3105 0.0
O80 O 0.63139 0.07365 0.29766 0.0
O81 O 0.64386 0.03119 0.34056 0.0
O82 O 0.61584 0.16764 0.312 0.0
O83 O 0.62431 0.14406 0.36506 0.0
O84 O 0.43175 0.55092 0.31894 0.0
Cd85 Cd 0.44167 0.6 0.35216 0.0
Cd86 Cd 0.3758 0.62195 0.31492 0.0
O87 O 0.36849 0.5616 0.30092 0.0
O88 O 0.48617 0.57751 0.38184 0.0
O89 O 0.42421 0.59128 0.40175 0.0
C90 C 0.4603 0.57612 0.40697 0.0
C91 C 0.32297 0.66656 0.33037 0.0
C92 C 0.39997 0.53875 0.30272 0.0
C93 C 0.454 0.66624 0.30179 0.0
O94 O 0.42153 0.65169 0.28852 0.0
O95 O 0.46524 0.65473 0.33173 0.0
O96 O 0.3272 0.6535 0.29913 0.0
O97 O 0.34685 0.65164 0.35387 0.0
O98 O 0.9404 0.44703 0.33252 0.0
Cd99 Cd 0.8985 0.47599 0.36355 0.0
Cd100 Cd 0.85157 0.40248 0.33398 0.0
O101 O 0.90901 0.3911 0.31305 0.0
O102 O 0.93351 0.5192 0.38561 0.0
O103 O 0.90464 0.46889 0.41519 0.0
C104 C 0.92874 0.50049 0.41461 0.0
C105 C 0.80368 0.34761 0.33415 0.0
C106 C 0.94059 0.41412 0.31479 0.0
C107 C 0.82616 0.49317 0.31894 0.0
O108 O 0.82292 0.45444 0.31584 0.0
O109 O 0.85374 0.50938 0.3378 0.0
O110 O 0.81836 0.36296 0.30624 0.0
O111 O 0.81792 0.36161 0.36294 0.0
O112 O 0.966 0.46499 0.83112 0.0
Cd113 Cd 0.96902 0.41551 0.86488 0.0
Cd114 Cd 0.90254 0.4001 0.82822 0.0
O115 O 0.9009 0.46119 0.81609 0.0
O116 O 0.00961 0.43403 0.90029 0.0
O117 O 0.9436 0.42488 0.91149 0.0
C118 C 0.97941 0.43712 0.92169 0.0
C119 C 0.84503 0.36042 0.841 0.0
C120 C 0.93472 0.48059 0.81645 0.0
C121 C 0.97345 0.3466 0.81596 0.0
O122 O 0.94484 0.36624 0.80129 0.0
O123 O 0.9849 0.35706 0.84618 0.0
O124 O 0.85121 0.37511 0.81054 0.0
O125 O 0.86981 0.3713 0.86544 0.0
O126 O 0.06064 0.92458 0.83486 0.0
Cd127 Cd 0.10442 0.94103 0.87107 0.0
Cd128 Cd 0.13495 0.86872 0.83691 0.0
O129 O 0.07685 0.86166 0.81804 0.0
O130 O 0.0776 0.99022 0.89211 0.0
O131 O 0.08806 0.93265 0.92093 0.0
C132 C 0.07266 0.9692 0.91994 0.0
C133 C 0.17767 0.81216 0.8465 0.0
C134 C 0.05232 0.89189 0.81813 0.0
C135 C 0.17777 0.95031 0.8271 0.0
O136 O 0.16762 0.91563 0.81481 0.0
O137 O 0.16065 0.96427 0.85417 0.0
O138 O 0.16573 0.82237 0.81605 0.0
O139 O 0.16284 0.83223 0.87242 0.0
O140 O 0.56556 0.05629 0.83032 0.0
Cd141 Cd 0.54005 0.10493 0.85587 0.0
Cd142 Cd 0.62128 0.13819 0.82813 0.0
O143 O 0.62711 0.0772 0.81356 0.0
O144 O 0.49145 0.07792 0.87783 0.0
O145 O 0.54409 0.10173 0.90782 0.0
C146 C 0.50993 0.08149 0.90709 0.0
C147 C 0.6817 0.17789 0.83037 0.0
C148 C 0.6 0.04924 0.81624 0.0
C149 C 0.53718 0.175 0.80581 0.0
O150 O 0.57601 0.1722 0.80472 0.0
O151 O 0.51597 0.15187 0.82546 0.0
O152 O 0.66843 0.16173 0.80223 0.0
O153 O 0.66185 0.16975 0.85838 0.0
O154 O 0.46466 0.5277 0.82163 0.0
Cd155 Cd 0.41513 0.52174 0.85454 0.0
Cd156 Cd 0.39908 0.59208 0.82092 0.0
O157 O 0.46063 0.59391 0.81036 0.0
O158 O 0.43378 0.47831 0.88712 0.0
O159 O 0.42382 0.54301 0.90279 0.0
C160 C 0.43655 0.5065 0.91048 0.0
C161 C 0.36164 0.65289 0.8284 0.0
C162 C 0.48013 0.56024 0.80882 0.0
C163 C 0.34948 0.51713 0.80374 0.0
O164 O 0.36636 0.54971 0.79261 0.0
O165 O 0.35947 0.50271 0.83309 0.0
O166 O 0.37909 0.64379 0.7996 0.0
O167 O 0.36736 0.62841 0.85419 0.0
O168 O 0.94637 0.0325 0.68518 0.0
Cd169 Cd 0.94971 0.08147 0.65125 0.0
Cd170 Cd 0.88096 0.10003 0.69055 0.0
O171 O 0.88395 0.04011 0.70618 0.0
O172 O 0.99142 0.06162 0.61724 0.0
O173 O 0.92636 0.07184 0.60368 0.0
C174 C 0.96231 0.05881 0.5948 0.0
C175 C 0.81726 0.13034 0.68013 0.0
C176 C 0.91654 0.01921 0.70319 0.0
C177 C 0.95547 0.15383 0.69821 0.0
O178 O 0.92322 0.13945 0.7121 0.0
O179 O 0.96909 0.1387 0.67009 0.0
O180 O 0.82834 0.11949 0.71071 0.0
O181 O 0.8419 0.12258 0.65483 0.0
O182 O 0.47204 0.96433 0.66968 0.0
Cd183 Cd 0.41793 0.96389 0.64208 0.0
Cd184 Cd 0.41226 0.89681 0.68268 0.0
O185 O 0.47499 0.8998 0.68672 0.0
O186 O 0.42732 0.01097 0.61029 0.0
O187 O 0.42535 0.94618 0.59275 0.0
C188 C 0.43252 0.98446 0.58594 0.0
C189 C 0.37574 0.83583 0.67425 0.0
C190 C 0.49208 0.93453 0.6825 0.0
C191 C 0.35684 0.96558 0.69801 0.0
O192 O 0.37973 0.93856 0.71161 0.0
O193 O 0.36233 0.97593 0.66666 0.0
O194 O 0.39519 0.84322 0.7026 0.0
O195 O 0.37936 0.86208 0.64936 0.0
O196 O 0.54166 0.43275 0.65994 0.0
Cd197 Cd 0.49878 0.40487 0.62703 0.0
Cd198 Cd 0.59197 0.34471 0.64695 0.0
O199 O 0.60079 0.40019 0.67203 0.0
O200 O 0.4591 0.44553 0.60792 0.0
O201 O 0.50776 0.41501 0.5769 0.0
C202 C 0.47821 0.44149 0.57882 0.0
C203 C 0.64171 0.29432 0.64416 0.0
C204 C 0.5768 0.43109 0.67476 0.0
C205 C 0.50297 0.32749 0.64943 0.0
O206 O 0.53364 0.33643 0.63061 0.0
O207 O 0.47225 0.35074 0.64587 0.0
O208 O 0.61687 0.29654 0.67016 0.0
O209 O 0.63796 0.32099 0.61952 0.0
O210 O 0.06308 0.57056 0.67185 0.0
Cd211 Cd 0.10182 0.54862 0.63414 0.0
Cd212 Cd 0.14602 0.62065 0.66446 0.0
O213 O 0.092 0.62778 0.69133 0.0
O214 O 0.06662 0.50591 0.61165 0.0
O215 O 0.08798 0.56156 0.58439 0.0
C216 C 0.06627 0.52825 0.58422 0.0
C217 C 0.18991 0.67737 0.65684 0.0
C218 C 0.06259 0.60205 0.69137 0.0
C219 C 0.18046 0.53237 0.67034 0.0
O220 O 0.18014 0.57032 0.67784 0.0
O221 O 0.15336 0.51656 0.65076 0.0
O222 O 0.18217 0.66228 0.68679 0.0
O223 O 0.17041 0.66218 0.63075 0.0
H224 H 0.19464 0.69778 0.12681 0.0
H225 H 0.22739 0.6677 0.23196 0.0
H226 H 0.2749 0.72527 0.23359 0.0
H227 H 0.30484 0.78612 0.20702 0.0
H228 H 0.27623 0.81617 0.10133 0.0
H229 H 0.22915 0.75705 0.09824 0.0
C230 C 0.21259 0.70355 0.14991 0.0
C231 C 0.20713 0.67844 0.17928 0.0
C232 C 0.24004 0.73719 0.1509 0.0
C233 C 0.23067 0.68645 0.209 0.0
C234 C 0.25777 0.71961 0.21012 0.0
C235 C 0.28806 0.77999 0.18335 0.0
C236 C 0.29331 0.80593 0.15468 0.0
C237 C 0.26209 0.7456 0.18156 0.0
C238 C 0.2723 0.79685 0.12388 0.0
C239 C 0.24552 0.76301 0.12211 0.0
H240 H 0.81819 0.23159 0.20273 0.0
H241 H 0.81136 0.20664 0.09342 0.0
H242 H 0.75617 0.2575 0.08756 0.0
H243 H 0.70752 0.30732 0.11468 0.0
H244 H 0.71496 0.32806 0.22467 0.0
H245 H 0.77183 0.2802 0.22898 0.0
C246 C 0.80506 0.23744 0.17745 0.0
C247 C 0.81907 0.21539 0.14856 0.0
C248 C 0.77286 0.26565 0.17449 0.0
C249 C 0.80131 0.22333 0.11611 0.0
C250 C 0.76957 0.25225 0.11279 0.0
C251 C 0.7216 0.30122 0.13953 0.0
C252 C 0.70647 0.3208 0.16944 0.0
C253 C 0.75464 0.27325 0.14197 0.0
C254 C 0.72529 0.31279 0.2014 0.0
C255 C 0.7581 0.28569 0.20391 0.0
H256 H 0.19316 0.79993 0.37766 0.0
H257 H 0.22381 0.84756 0.27674 0.0
H258 H 0.27389 0.79308 0.26879 0.0
H259 H 0.3062 0.72968 0.2886 0.0
H260 H 0.27789 0.68111 0.38924 0.0
H261 H 0.22982 0.73813 0.39937 0.0
C262 C 0.21127 0.7987 0.35418 0.0
C263 C 0.20448 0.82774 0.32776 0.0
C264 C 0.23995 0.76674 0.3495 0.0
C265 C 0.22816 0.8256 0.29744 0.0
C266 C 0.25673 0.79428 0.29275 0.0
C267 C 0.28904 0.73132 0.31255 0.0
C268 C 0.2945 0.70076 0.33771 0.0
C269 C 0.26216 0.76421 0.3182 0.0
C270 C 0.27365 0.7041 0.36932 0.0
C271 C 0.24627 0.73667 0.37508 0.0
H272 H 0.77203 0.29789 0.38568 0.0
H273 H 0.75815 0.32978 0.27805 0.0
H274 H 0.7019 0.28107 0.27236 0.0
H275 H 0.65827 0.22839 0.29636 0.0
H276 H 0.67176 0.19222 0.40291 0.0
H277 H 0.72591 0.2441 0.41066 0.0
C278 C 0.75666 0.2941 0.36103 0.0
C279 C 0.76975 0.31716 0.33221 0.0
C280 C 0.72407 0.26557 0.3577 0.0
C281 C 0.74931 0.31201 0.3005 0.0
C282 C 0.7169 0.28437 0.29719 0.0
C283 C 0.67261 0.232 0.32148 0.0
C284 C 0.66081 0.20647 0.349 0.0
C285 C 0.70423 0.26087 0.32544 0.0
C286 C 0.68009 0.2116 0.38127 0.0
C287 C 0.71125 0.24111 0.38565 0.0
H288 H 0.81732 0.30782 0.79313 0.0
H289 H 0.80383 0.33962 0.90065 0.0
H290 H 0.75304 0.28419 0.9078 0.0
H291 H 0.71123 0.22755 0.88237 0.0
H292 H 0.72976 0.19508 0.77526 0.0
H293 H 0.78025 0.24952 0.76922 0.0
C294 C 0.80302 0.30292 0.81812 0.0
C295 C 0.81355 0.32825 0.84616 0.0
C296 C 0.77505 0.27056 0.82214 0.0
C297 C 0.79574 0.32075 0.87859 0.0
C298 C 0.76687 0.28901 0.88267 0.0
C299 C 0.72674 0.23212 0.85789 0.0
C300 C 0.7163 0.20747 0.82921 0.0
C301 C 0.7562 0.26371 0.85453 0.0
C302 C 0.73678 0.21375 0.79767 0.0
C303 C 0.76568 0.24501 0.79412 0.0
H304 H 0.30715 0.67275 0.87992 0.0
H305 H 0.35165 0.71223 0.78016 0.0
H306 H 0.29838 0.7643 0.7773 0.0
H307 H 0.23706 0.79588 0.80091 0.0
H308 H 0.19279 0.76071 0.90157 0.0
H309 H 0.24795 0.70945 0.90627 0.0
C310 C 0.30551 0.69317 0.85783 0.0
C311 C 0.3331 0.6882 0.8301 0.0
C312 C 0.2745 0.72328 0.85623 0.0
C313 C 0.3306 0.71499 0.80168 0.0
C314 C 0.30004 0.74474 0.79992 0.0
C315 C 0.23932 0.77686 0.82387 0.0
C316 C 0.21052 0.78134 0.85055 0.0
C317 C 0.27136 0.7485 0.82662 0.0
C318 C 0.21446 0.7574 0.88054 0.0
C319 C 0.24599 0.72823 0.88322 0.0
H320 H 0.65574 0.23457 0.69145 0.0
H321 H 0.70103 0.28314 0.59493 0.0
H322 H 0.75749 0.23373 0.59579 0.0
H323 H 0.79665 0.17986 0.62614 0.0
H324 H 0.75205 0.13377 0.72372 0.0
H325 H 0.69224 0.17849 0.71983 0.0
C326 C 0.67777 0.23423 0.67044 0.0
C327 C 0.67432 0.26273 0.64331 0.0
C328 C 0.71031 0.20609 0.67127 0.0
C329 C 0.70306 0.26166 0.61623 0.0
C330 C 0.73538 0.23341 0.6167 0.0
C331 C 0.77351 0.1792 0.64626 0.0
C332 C 0.77881 0.15362 0.67519 0.0
C333 C 0.73967 0.20589 0.64437 0.0
C334 C 0.74877 0.15332 0.70125 0.0
C335 C 0.71464 0.179 0.69914 0.0
H336 H 0.25329 0.68973 0.69987 0.0
H337 H 0.20089 0.73387 0.60462 0.0
H338 H 0.25588 0.78549 0.59997 0.0
H339 H 0.31735 0.81983 0.62493 0.0
H340 H 0.36918 0.77262 0.71966 0.0
H341 H 0.3164 0.71966 0.72191 0.0
C342 C 0.25373 0.71073 0.6781 0.0
C343 C 0.2227 0.70856 0.65295 0.0
C344 C 0.28559 0.7395 0.67534 0.0
C345 C 0.22428 0.73527 0.62448 0.0
C346 C 0.25573 0.76467 0.62181 0.0
C347 C 0.3174 0.79759 0.64579 0.0
C348 C 0.34712 0.80043 0.67219 0.0
C349 C 0.28644 0.76728 0.6473 0.0
C350 C 0.34666 0.77138 0.69908 0.0
C351 C 0.31633 0.74119 0.70057 0.0
H352 H 0.02062 0.43339 0.32444 0.0
H353 H 0.93577 0.3858 0.24876 0.0
H354 H 0.98095 0.40854 0.20226 0.0
H355 H 0.03296 0.4594 0.18457 0.0
H356 H 0.11649 0.50892 0.26047 0.0
H357 H 0.08425 0.4672 0.3053 0.0
C358 C 0.01303 0.42632 0.29778 0.0
C359 C 0.97449 0.40911 0.28991 0.0
C360 C 0.03848 0.44078 0.27119 0.0
C361 C 0.96514 0.39936 0.25543 0.0
C362 C 0.99072 0.41293 0.22878 0.0
C363 C 0.04512 0.45973 0.21067 0.0
C364 C 0.07614 0.488 0.2195 0.0
C365 C 0.02576 0.43641 0.23646 0.0
C366 C 0.09232 0.4877 0.25314 0.0
C367 C 0.07359 0.46413 0.27889 0.0
H368 H 0.97598 0.10925 0.24541 0.0
H369 H 0.03801 0.05165 0.15994 0.0
H370 H 0.08646 0.01915 0.19962 0.0
H371 H 0.09887 0.99371 0.25822 0.0
H372 H 0.02864 0.04244 0.34318 0.0
H373 H 0.99643 0.09244 0.3047 0.0
C374 C 0.0013 0.09107 0.23554 0.0
C375 C 0.00367 0.08269 0.20003 0.0
C376 C 0.027 0.07013 0.25867 0.0
C377 C 0.0359 0.05845 0.1873 0.0
C378 C 0.06327 0.03957 0.21 0.0
C379 C 0.07777 0.01642 0.26848 0.0
C380 C 0.06577 0.01435 0.30327 0.0
C381 C 0.0574 0.04311 0.24578 0.0
C382 C 0.03804 0.04347 0.31634 0.0
C383 C 0.01943 0.07182 0.2943 0.0
H384 H 0.49576 0.10288 0.2548 0.0
H385 H 0.45295 0.02749 0.33891 0.0
H386 H 0.40155 0.99587 0.3013 0.0
H387 H 0.38262 0.97722 0.24212 0.0
H388 H 0.43407 0.04476 0.15677 0.0
H389 H 0.46704 0.09275 0.19679 0.0
C390 C 0.47395 0.08081 0.26511 0.0
C391 C 0.47813 0.06714 0.2993 0.0
C392 C 0.44639 0.06087 0.24275 0.0
C393 C 0.45025 0.03815 0.31249 0.0
C394 C 0.42109 0.01991 0.29094 0.0
C395 C 0.39944 0.00363 0.23239 0.0
C396 C 0.40622 0.00753 0.19675 0.0
C397 C 0.42075 0.02911 0.25557 0.0
C398 C 0.42859 0.04134 0.18423 0.0
C399 C 0.44781 0.06845 0.20712 0.0
H400 H 0.46029 0.44832 0.17515 0.0
H401 H 0.5367 0.39061 0.2519 0.0
H402 H 0.4912 0.41491 0.2976 0.0
H403 H 0.443 0.46927 0.31521 0.0
H404 H 0.36793 0.52863 0.23838 0.0
H405 H 0.39858 0.48614 0.19327 0.0
C406 C 0.46578 0.43944 0.20177 0.0
C407 C 0.50223 0.41877 0.21036 0.0
C408 C 0.44018 0.45465 0.22795 0.0
C409 C 0.50893 0.40678 0.24474 0.0
C410 C 0.48321 0.4212 0.27095 0.0
C411 C 0.43211 0.47153 0.28879 0.0
C412 C 0.40422 0.5027 0.27987 0.0
C413 C 0.45068 0.44775 0.2629 0.0
C414 C 0.38967 0.50506 0.24578 0.0
C415 C 0.40757 0.48108 0.21989 0.0
H416 H 0.98312 0.57851 0.68753 0.0
H417 H 0.07454 0.62481 0.75816 0.0
H418 H 0.0359 0.59725 0.80697 0.0
H419 H 0.98708 0.54425 0.82661 0.0
H420 H 0.89623 0.49718 0.75573 0.0
H421 H 0.92297 0.54149 0.71011 0.0
C422 C 0.99354 0.5841 0.71375 0.0
C423 C 0.03198 0.60261 0.71933 0.0
C424 C 0.97173 0.5672 0.74155 0.0
C425 C 0.0451 0.61037 0.75328 0.0
C426 C 0.02328 0.5941 0.78118 0.0
C427 C 0.97225 0.5449 0.80151 0.0
C428 C 0.94061 0.5168 0.79413 0.0
C429 C 0.98822 0.56997 0.77527 0.0
C430 C 0.92095 0.51831 0.76186 0.0
C431 C 0.93646 0.54339 0.73566 0.0
H432 H 0.97663 0.92244 0.82911 0.0
H433 H 0.05331 0.86719 0.75126 0.0
H434 H 0.01028 0.89637 0.70582 0.0
H435 H 0.96285 0.95205 0.68969 0.0
H436 H 0.88635 0.00739 0.76778 0.0
H437 H 0.91646 0.96293 0.81169 0.0
C438 C 0.98269 0.91533 0.80219 0.0
C439 C 0.01832 0.89359 0.79332 0.0
C440 C 0.95836 0.93293 0.77632 0.0
C441 C 0.02598 0.88401 0.75855 0.0
C442 C 0.0017 0.90116 0.73257 0.0
C443 C 0.95178 0.95321 0.71611 0.0
C444 C 0.92341 0.98356 0.72581 0.0
C445 C 0.96961 0.92793 0.74127 0.0
C446 C 0.90853 0.98446 0.75985 0.0
C447 C 0.92598 0.95929 0.78503 0.0
H448 H 0.622 0.04233 0.7498 0.0
H449 H 0.58192 0.9718 0.83765 0.0
H450 H 0.55367 0.91901 0.79949 0.0
H451 H 0.52131 0.90645 0.74327 0.0
H452 H 0.5516 0.98435 0.65694 0.0
H453 H 0.60326 0.01996 0.69157 0.0
C454 C 0.6091 0.01426 0.76045 0.0
C455 C 0.60333 0.01101 0.79624 0.0
C456 C 0.58987 0.98595 0.73834 0.0
C457 C 0.58636 0.97483 0.81002 0.0
C458 C 0.56966 0.94499 0.78818 0.0
C459 C 0.54062 0.92992 0.73169 0.0
C460 C 0.53232 0.94349 0.69802 0.0
C461 C 0.56819 0.9521 0.75248 0.0
C462 C 0.55726 0.97395 0.6831 0.0
C463 C 0.58657 0.99449 0.70297 0.0
H464 H 0.55977 0.5125 0.67319 0.0
H465 H 0.60893 0.41704 0.73828 0.0
H466 H 0.59159 0.45685 0.78964 0.0
H467 H 0.54399 0.50761 0.81436 0.0
H468 H 0.49331 0.60215 0.74912 0.0
H469 H 0.53075 0.57482 0.69967 0.0
C470 C 0.56843 0.50143 0.69861 0.0
C471 C 0.58446 0.46159 0.70214 0.0
C472 C 0.55726 0.52396 0.72802 0.0
C473 C 0.59626 0.44758 0.73499 0.0
C474 C 0.58582 0.47011 0.76442 0.0
C475 C 0.54268 0.52325 0.78963 0.0
C476 C 0.51506 0.55589 0.78499 0.0
C477 C 0.56347 0.50671 0.76114 0.0
C478 C 0.51405 0.5766 0.75317 0.0
C479 C 0.53511 0.56069 0.72475 0.0
H480 H 0.02148 0.6642 0.2646 0.0
H481 H 0.01917 0.72867 0.16739 0.0
H482 H 0.0098 0.79405 0.19784 0.0
H483 H 0.01632 0.83314 0.25223 0.0
H484 H 0.01817 0.76861 0.34944 0.0
H485 H 0.01265 0.70278 0.31899 0.0
C486 C 0.01755 0.69247 0.25011 0.0
C487 C 0.02151 0.69188 0.2139 0.0
C488 C 0.01259 0.72985 0.26783 0.0
C489 C 0.0161 0.72845 0.19526 0.0
C490 C 0.01118 0.76585 0.21271 0.0
C491 C 0.01412 0.80467 0.26673 0.0
C492 C 0.01818 0.80553 0.30294 0.0
C493 C 0.01143 0.76704 0.249 0.0
C494 C 0.01499 0.76866 0.32157 0.0
C495 C 0.0123 0.73101 0.30413 0.0
H496 H 0.82799 0.03262 0.24836 0.0
H497 H 0.75884 0.03208 0.15346 0.0
H498 H 0.69482 0.02465 0.18612 0.0
H499 H 0.65871 0.03063 0.24194 0.0
H500 H 0.72801 0.02897 0.3368 0.0
H501 H 0.79207 0.02415 0.30398 0.0
C502 C 0.79892 0.02958 0.23489 0.0
C503 C 0.7978 0.03326 0.19872 0.0
C504 C 0.76244 0.02543 0.25384 0.0
C505 C 0.76026 0.02911 0.18132 0.0
C506 C 0.72371 0.02529 0.20001 0.0
C507 C 0.68785 0.02804 0.25534 0.0
C508 C 0.68893 0.03068 0.2916 0.0
C509 C 0.72439 0.02525 0.2363 0.0
C510 C 0.72658 0.02692 0.30888 0.0
C511 C 0.76317 0.02452 0.29012 0.0
H512 H 0.47205 0.66977 0.23392 0.0
H513 H 0.47911 0.73961 0.32842 0.0
H514 H 0.48971 0.8029 0.29531 0.0
H515 H 0.48085 0.8389 0.23975 0.0
H516 H 0.47339 0.76908 0.14529 0.0
H517 H 0.48023 0.70496 0.17791 0.0
C518 C 0.47748 0.6987 0.2472 0.0
C519 C 0.47431 0.70036 0.28343 0.0
C520 C 0.48296 0.73488 0.22795 0.0
C521 C 0.48156 0.73772 0.30055 0.0
C522 C 0.48716 0.77392 0.28158 0.0
C523 C 0.48247 0.80966 0.22628 0.0
C524 C 0.47624 0.80845 0.19031 0.0
C525 C 0.48561 0.77305 0.2453 0.0
C526 C 0.47838 0.77064 0.17293 0.0
C527 C 0.48173 0.73399 0.19166 0.0
H528 H 0.73405 0.5219 0.18435 0.0
H529 H 0.6313 0.51372 0.25387 0.0
H530 H 0.67675 0.52323 0.30338 0.0
H531 H 0.74675 0.51499 0.32627 0.0
H532 H 0.84981 0.52214 0.25708 0.0
H533 H 0.80368 0.53306 0.20814 0.0
C534 C 0.72155 0.52453 0.21023 0.0
C535 C 0.67956 0.51728 0.21564 0.0
C536 C 0.74814 0.52897 0.23869 0.0
C537 C 0.66357 0.51974 0.24925 0.0
C538 C 0.68963 0.52461 0.27759 0.0
C539 C 0.75902 0.52129 0.30076 0.0
C540 C 0.8014 0.51799 0.29513 0.0
C541 C 0.73218 0.5266 0.27267 0.0
C542 C 0.8172 0.52522 0.26194 0.0
C543 C 0.79078 0.53083 0.23388 0.0
H544 H 0.97379 0.16519 0.76555 0.0
H545 H 0.97727 0.22526 0.66643 0.0
H546 H 0.99023 0.29153 0.69475 0.0
H547 H 0.98802 0.33318 0.74811 0.0
H548 H 0.98652 0.2728 0.84718 0.0
H549 H 0.98646 0.20558 0.81859 0.0
C550 C 0.97864 0.19268 0.75019 0.0
C551 C 0.9742 0.19067 0.71406 0.0
C552 C 0.98612 0.2305 0.76668 0.0
C553 C 0.98073 0.22619 0.69426 0.0
C554 C 0.98777 0.26408 0.71049 0.0
C555 C 0.9891 0.30523 0.76338 0.0
C556 C 0.98688 0.30779 0.79965 0.0
C557 C 0.98876 0.26678 0.74672 0.0
C558 C 0.98845 0.27154 0.81925 0.0
C559 C 0.98791 0.23312 0.80288 0.0
H560 H 0.35099 0.97752 0.76707 0.0
H561 H 0.28102 0.98343 0.67264 0.0
H562 H 0.21732 0.98745 0.70586 0.0
H563 H 0.18186 0.97509 0.76111 0.0
H564 H 0.25149 0.96954 0.85554 0.0
H565 H 0.31522 0.98056 0.82317 0.0
C566 C 0.32183 0.98088 0.75385 0.0
C567 C 0.32049 0.97943 0.71753 0.0
C568 C 0.2854 0.98295 0.77314 0.0
C569 C 0.28273 0.98436 0.70058 0.0
C570 C 0.24631 0.98634 0.71957 0.0
C571 C 0.21091 0.97805 0.77462 0.0
C572 C 0.21233 0.97153 0.81048 0.0
C573 C 0.24724 0.98368 0.75576 0.0
C574 C 0.24986 0.97499 0.82796 0.0
C575 C 0.28626 0.98072 0.80939 0.0
H576 H 0.56281 0.25111 0.78957 0.0
H577 H 0.46912 0.16184 0.76565 0.0
H578 H 0.44821 0.2025 0.71518 0.0
H579 H 0.46255 0.25995 0.67411 0.0
H580 H 0.5539 0.35014 0.70131 0.0
H581 H 0.57007 0.31282 0.75398 0.0
C582 C 0.53718 0.24107 0.77373 0.0
C583 C 0.51762 0.20356 0.78114 0.0
C584 C 0.52568 0.26433 0.74485 0.0
C585 C 0.48436 0.19086 0.76059 0.0
C586 C 0.47276 0.21387 0.73152 0.0
C587 C 0.48577 0.27137 0.69178 0.0
C588 C 0.50876 0.30653 0.68296 0.0
C589 C 0.49413 0.25003 0.72275 0.0
C590 C 0.53766 0.32193 0.70653 0.0
C591 C 0.54646 0.30087 0.73696 0.0
H592 H 0.34887 0.50552 0.73502 0.0
H593 H 0.27421 0.49135 0.82607 0.0
H594 H 0.21275 0.48425 0.78995 0.0
H595 H 0.17988 0.49869 0.73366 0.0
H596 H 0.25498 0.51595 0.64334 0.0
H597 H 0.31689 0.50398 0.6776 0.0
C598 C 0.31927 0.4994 0.74682 0.0
C599 C 0.31575 0.49951 0.78302 0.0
C600 C 0.28422 0.49619 0.72593 0.0
C601 C 0.27752 0.49132 0.79822 0.0
C602 C 0.24238 0.48767 0.77756 0.0
C603 C 0.20974 0.4976 0.72129 0.0
C604 C 0.21314 0.50772 0.68608 0.0
C605 C 0.24518 0.49231 0.74152 0.0
C606 C 0.25182 0.50744 0.67027 0.0
C607 C 0.28718 0.50126 0.69 0.0
H608 H 0.97264 0.5255 0.06703 0.0
H609 H 0.09539 0.56076 0.03714 0.0
H610 H 0.08803 0.52226 0.98318 0.0
H611 H 0.04698 0.47813 0.94474 0.0
H612 H 0.92421 0.44301 0.97468 0.0
H613 H 0.93163 0.48144 0.02864 0.0
C614 C 0.99771 0.52511 0.0486 0.0
C615 C 0.03446 0.54625 0.0561 0.0
C616 C 0.99346 0.50247 0.01784 0.0
C617 C 0.0667 0.54499 0.03201 0.0
C618 C 0.06258 0.5228 0.0012 0.0
C619 C 0.02194 0.47853 0.96319 0.0
C620 C 0.98514 0.45746 0.9557 0.0
C621 C 0.02621 0.50118 0.99396 0.0
C622 C 0.95292 0.45875 0.9798 0.0
C623 C 0.95707 0.4809 0.01061 0.0
H624 H 0.03533 0.92632 0.97145 0.0
H625 H 0.05172 0.0491 0.93148 0.0
H626 H 0.00535 0.07619 0.97549 0.0
H627 H 0.96047 0.06515 0.0257 0.0
H628 H 0.9436 0.94219 0.06527 0.0
H629 H 0.98906 0.91504 0.02072 0.0
C630 C 0.02908 0.95905 0.97262 0.0
C631 C 0.04728 0.98568 0.94845 0.0
C632 C 0.00175 0.97435 0.9976 0.0
C633 C 0.03828 0.02794 0.94991 0.0
C634 C 0.0116 0.04346 0.97497 0.0
C635 C 0.96624 0.03234 0.02426 0.0
C636 C 0.94853 0.00578 0.04875 0.0
C637 C 0.99298 0.01694 0.99885 0.0
C638 C 0.95673 0.96337 0.04671 0.0
C639 C 0.98296 0.9478 0.02135 0.0
H640 H 0.42366 0.96747 0.01752 0.0
H641 H 0.54622 0.96838 0.05988 0.0
H642 H 0.56876 0.01511 0.01444 0.0
H643 H 0.55395 0.05591 0.96257 0.0
H644 H 0.43216 0.05371 0.91896 0.0
H645 H 0.40892 0.00812 0.96524 0.0
C646 C 0.45539 0.97753 0.01659 0.0
C647 C 0.48319 0.9642 0.04204 0.0
C648 C 0.46818 0.00482 0.99046 0.0
C649 C 0.52414 0.97795 0.04059 0.0
C650 C 0.53706 0.00493 0.0147 0.0
C651 C 0.52216 0.046 0.96353 0.0
C652 C 0.49473 0.05857 0.93758 0.0
C653 C 0.5093 0.01884 0.98966 0.0
C654 C 0.45383 0.04472 0.93878 0.0
C655 C 0.44059 0.01841 0.96511 0.0
H656 H 0.45824 0.56117 0.96082 0.0
H657 H 0.46384 0.43239 0.9339 0.0
H658 H 0.50607 0.41883 0.98461 0.0
H659 H 0.5425 0.44354 0.03622 0.0
H660 H 0.53544 0.57178 0.06424 0.0
H661 H 0.49338 0.58563 0.01327 0.0
C662 C 0.46828 0.53006 0.96626 0.0
C663 C 0.45777 0.49788 0.94356 0.0
C664 C 0.49295 0.52246 0.99538 0.0
C665 C 0.47133 0.45778 0.95093 0.0
C666 C 0.49574 0.44998 0.97985 0.0
C667 C 0.53221 0.4746 0.0309 0.0
C668 C 0.54249 0.50667 0.05372 0.0
C669 C 0.50715 0.48215 0.00203 0.0
C670 C 0.52818 0.54661 0.0469 0.0
C671 C 0.50393 0.55452 0.01787 0.0
H672 H 0.96158 0.96904 0.44983 0.0
H673 H 0.0835 0.93575 0.48312 0.0
H674 H 0.07368 0.97427 0.53678 0.0
H675 H 0.03087 0.01813 0.57387 0.0
H676 H 0.90908 0.05163 0.54041 0.0
H677 H 0.91876 0.01276 0.48693 0.0
C678 C 0.98591 0.96981 0.46895 0.0
C679 C 0.02317 0.94924 0.46249 0.0
C680 C 0.98029 0.99255 0.49951 0.0
C681 C 0.05445 0.95106 0.48745 0.0
C682 C 0.04893 0.97328 0.51809 0.0
C683 C 0.00652 0.01726 0.55478 0.0
C684 C 0.96934 0.03803 0.56113 0.0
C685 C 0.01211 0.99442 0.52426 0.0
C686 C 0.93805 0.03615 0.53618 0.0
C687 C 0.9435 0.01375 0.50564 0.0
H688 H 0.52554 0.06984 0.46261 0.0
H689 H 0.56122 0.94423 0.44299 0.0
H690 H 0.51961 0.92099 0.49171 0.0
H691 H 0.47285 0.93629 0.5398 0.0
H692 H 0.43724 0.06192 0.55945 0.0
H693 H 0.4782 0.08506 0.51031 0.0
C694 C 0.52469 0.03746 0.46932 0.0
C695 C 0.54678 0.00887 0.44944 0.0
C696 C 0.49999 0.02419 0.49692 0.0
C697 C 0.54473 0.96691 0.45805 0.0
C698 C 0.5207 0.95354 0.48575 0.0
C699 C 0.47346 0.96863 0.53295 0.0
C700 C 0.45176 0.99729 0.55308 0.0
C701 C 0.49787 0.98186 0.50515 0.0
C702 C 0.45347 0.0392 0.54423 0.0
C703 C 0.47716 0.05251 0.51631 0.0
H704 H 0.5274 0.46099 0.52494 0.0
H705 H 0.40671 0.48295 0.56664 0.0
H706 H 0.39094 0.52856 0.51813 0.0
H707 H 0.41116 0.56096 0.46293 0.0
H708 H 0.53316 0.54027 0.42306 0.0
H709 H 0.54882 0.49607 0.472 0.0
C710 C 0.49754 0.47554 0.5233 0.0
C711 C 0.46808 0.46816 0.54907 0.0
C712 C 0.48905 0.50235 0.49581 0.0
C713 C 0.42984 0.48794 0.54698 0.0
C714 C 0.42084 0.5141 0.5193 0.0
C715 C 0.44132 0.54719 0.46519 0.0
C716 C 0.47083 0.5539 0.43921 0.0
C717 C 0.45021 0.52151 0.49349 0.0
C718 C 0.50978 0.53572 0.44258 0.0
C719 C 0.51876 0.51019 0.47051 0.0
H720 H 0.94237 0.45686 0.47352 0.0
H721 H 0.9708 0.57223 0.42384 0.0
H722 H 0.01655 0.59072 0.47136 0.0
H723 H 0.04993 0.57349 0.52649 0.0
H724 H 0.02217 0.45762 0.57567 0.0
H725 H 0.97527 0.43991 0.52884 0.0
C726 C 0.95819 0.48626 0.4733 0.0
C727 C 0.953 0.51316 0.44523 0.0
C728 C 0.98509 0.49643 0.50045 0.0
C729 C 0.97415 0.55094 0.44517 0.0
C730 C 0.00049 0.5615 0.47227 0.0
C731 C 0.03382 0.54426 0.52685 0.0
C732 C 0.03979 0.5169 0.55452 0.0
C733 C 0.00658 0.5343 0.49988 0.0
C734 C 0.01834 0.47927 0.55467 0.0
C735 C 0.99133 0.46912 0.52794 0.0
loop_
_geom_bond_atom_site_label_1
_geom_bond_atom_site_label_2
_geom_bond_distance
_geom_bond_site_symmetry_2
_ccdc_geom_bond_type
O0 Cd1 2.223 . S
O0 C8 1.315 . S
Cd1 O0 2.223 . S
Cd1 O4 2.297 . S
Cd1 O5 2.439 1_655 S
Cd1 O11 2.240 1_655 S
Cd2 O3 2.240 . S
Cd2 O10 2.223 . S
Cd2 O12 2.297 . S
Cd2 O13 2.439 . S
O3 Cd2 2.240 . S
O3 C8 1.279 1_455 S
O4 Cd1 2.297 . S
O4 C6 1.247 . S
O5 Cd1 2.439 1_455 S
O5 C6 1.208 1_455 S
C6 O4 1.247 . S
C6 O5 1.208 1_655 S
C7 O12 1.247 . S
C7 O13 1.208 . S
C8 O0 1.315 . S
C8 O3 1.279 1_655 S
C9 O10 1.315 . S
C9 O11 1.279 . S
O10 Cd2 2.223 . S
O10 C9 1.315 . S
O11 Cd1 2.240 1_455 S
O11 C9 1.279 . S
O12 Cd2 2.297 . S
O12 C7 1.247 . S
O13 Cd2 2.439 . S
O13 C7 1.208 . S
O14 Cd15 2.223 . S
O14 C22 1.315 . S
Cd15 O14 2.223 . S
Cd15 O18 2.297 . S
Cd15 O19 2.439 1_565 S
Cd15 O25 2.240 1_565 S
Cd16 O17 2.240 . S
Cd16 O24 2.223 . S
Cd16 O26 2.297 . S
Cd16 O27 2.439 . S
O17 Cd16 2.240 . S
O17 C22 1.279 1_545 S
O18 Cd15 2.297 . S
O18 C20 1.247 . S
O19 Cd15 2.439 1_545 S
O19 C20 1.208 1_545 S
C20 O18 1.247 . S
C20 O19 1.208 1_565 S
C21 O26 1.247 . S
C21 O27 1.208 . S
C22 O14 1.315 . S
C22 O17 1.279 1_565 S
C23 O24 1.315 . S
C23 O25 1.279 . S
O24 Cd16 2.223 . S
O24 C23 1.315 . S
O25 Cd15 2.240 1_545 S
O25 C23 1.279 . S
O26 Cd16 2.297 . S
O26 C21 1.247 . S
O27 Cd16 2.439 . S
O27 C21 1.208 . S
O28 Cd29 2.223 . S
O28 C36 1.315 . S
Cd29 O28 2.223 . S
Cd29 O32 2.297 . S
Cd29 O33 2.439 . S
Cd29 O39 2.240 . S
Cd30 O31 2.240 . S
Cd30 O38 2.223 . S
Cd30 O40 2.297 . S
Cd30 O41 2.439 . S
O31 Cd30 2.240 . S
O31 C36 1.279 . S
O32 Cd29 2.297 . S
O32 C34 1.247 . S
O33 Cd29 2.439 . S
O33 C34 1.208 . S
C34 O32 1.247 . S
C34 O33 1.208 . S
C35 O40 1.247 . S
C35 O41 1.208 . S
C36 O28 1.315 . S
C36 O31 1.279 . S
C37 O38 1.315 . S
C37 O39 1.279 . S
O38 Cd30 2.223 . S
O38 C37 1.315 . S
O39 Cd29 2.240 . S
O39 C37 1.279 . S
O40 Cd30 2.297 . S
O40 C35 1.247 . S
O41 Cd30 2.439 . S
O41 C35 1.208 . S
O42 Cd43 2.223 . S
O42 C50 1.315 . S
Cd43 O42 2.223 . S
Cd43 O46 2.297 . S
Cd43 O47 2.439 . S
Cd43 O53 2.240 . S
Cd44 O45 2.240 . S
Cd44 O52 2.223 . S
Cd44 O54 2.297 . S
Cd44 O55 2.439 . S
O45 Cd44 2.240 . S
O45 C50 1.279 . S
O46 Cd43 2.297 . S
O46 C48 1.247 . S
O47 Cd43 2.439 . S
O47 C48 1.208 . S
C48 O46 1.247 . S
C48 O47 1.208 . S
C49 O54 1.247 . S
C49 O55 1.208 . S
C50 O42 1.315 . S
C50 O45 1.279 . S
C51 O52 1.315 . S
C51 O53 1.279 . S
O52 Cd44 2.223 . S
O52 C51 1.315 . S
O53 Cd43 2.240 . S
O53 C51 1.279 . S
O54 Cd44 2.297 . S
O54 C49 1.247 . S
O55 Cd44 2.439 . S
O55 C49 1.208 . S
O56 Cd57 2.223 . S
O56 C64 1.315 . S
Cd57 O56 2.223 . S
Cd57 O60 2.297 . S
Cd57 O61 2.439 1_655 S
Cd57 O67 2.240 1_655 S
Cd58 O59 2.240 . S
Cd58 O66 2.223 . S
Cd58 O68 2.297 . S
Cd58 O69 2.439 . S
O59 Cd58 2.240 . S
O59 C64 1.279 1_455 S
O60 Cd57 2.297 . S
O60 C62 1.247 . S
O61 Cd57 2.439 1_455 S
O61 C62 1.208 1_455 S
C62 O60 1.247 . S
C62 O61 1.208 1_655 S
C63 O68 1.247 . S
C63 O69 1.208 . S
C64 O56 1.315 . S
C64 O59 1.279 1_655 S
C65 O66 1.315 . S
C65 O67 1.279 . S
O66 Cd58 2.223 . S
O66 C65 1.315 . S
O67 Cd57 2.240 1_455 S
O67 C65 1.279 . S
O68 Cd58 2.297 . S
O68 C63 1.247 . S
O69 Cd58 2.439 . S
O69 C63 1.208 . S
O70 Cd71 2.223 . S
O70 C78 1.315 . S
Cd71 O70 2.223 . S
Cd71 O74 2.297 . S
Cd71 O75 2.439 1_565 S
Cd71 O81 2.240 1_565 S
Cd72 O73 2.240 . S
Cd72 O80 2.223 . S
Cd72 O82 2.297 . S
Cd72 O83 2.439 . S
O73 Cd72 2.240 . S
O73 C78 1.279 1_545 S
O74 Cd71 2.297 . S
O74 C76 1.247 . S
O75 Cd71 2.439 1_545 S
O75 C76 1.208 1_545 S
C76 O74 1.247 . S
C76 O75 1.208 1_565 S
C77 O82 1.247 . S
C77 O83 1.208 . S
C78 O70 1.315 . S
C78 O73 1.279 1_565 S
C79 O80 1.315 . S
C79 O81 1.279 . S
O80 Cd72 2.223 . S
O80 C79 1.315 . S
O81 Cd71 2.240 1_545 S
O81 C79 1.279 . S
O82 Cd72 2.297 . S
O82 C77 1.247 . S
O83 Cd72 2.439 . S
O83 C77 1.208 . S
O84 Cd85 2.223 . S
O84 C92 1.315 . S
Cd85 O84 2.223 . S
Cd85 O88 2.297 . S
Cd85 O89 2.439 . S
Cd85 O95 2.240 . S
Cd86 O87 2.240 . S
Cd86 O94 2.223 . S
Cd86 O96 2.297 . S
Cd86 O97 2.439 . S
O87 Cd86 2.240 . S
O87 C92 1.279 . S
O88 Cd85 2.297 . S
O88 C90 1.247 . S
O89 Cd85 2.439 . S
O89 C90 1.208 . S
C90 O88 1.247 . S
C90 O89 1.208 . S
C91 O96 1.247 . S
C91 O97 1.208 . S
C92 O84 1.315 . S
C92 O87 1.279 . S
C93 O94 1.315 . S
C93 O95 1.279 . S
O94 Cd86 2.223 . S
O94 C93 1.315 . S
O95 Cd85 2.240 . S
O95 C93 1.279 . S
O96 Cd86 2.297 . S
O96 C91 1.247 . S
O97 Cd86 2.439 . S
O97 C91 1.208 . S
O98 Cd99 2.223 . S
O98 C106 1.315 . S
Cd99 O98 2.223 . S
Cd99 O102 2.297 . S
Cd99 O103 2.439 . S
Cd99 O109 2.240 . S
Cd100 O101 2.240 . S
Cd100 O108 2.223 . S
Cd100 O110 2.297 . S
Cd100 O111 2.439 . S
O101 Cd100 2.240 . S
O101 C106 1.279 . S
O102 Cd99 2.297 . S
O102 C104 1.247 . S
O103 Cd99 2.439 . S
O103 C104 1.208 . S
C104 O102 1.247 . S
C104 O103 1.208 . S
C105 O110 1.247 . S
C105 O111 1.208 . S
C106 O98 1.315 . S
C106 O101 1.279 . S
C107 O108 1.315 . S
C107 O109 1.279 . S
O108 Cd100 2.223 . S
O108 C107 1.315 . S
O109 Cd99 2.240 . S
O109 C107 1.279 . S
O110 Cd100 2.297 . S
O110 C105 1.247 . S
O111 Cd100 2.439 . S
O111 C105 1.208 . S
O112 Cd113 2.223 . S
O112 C120 1.315 . S
Cd113 O112 2.223 . S
Cd113 O116 2.297 . S
Cd113 O117 2.439 1_455 S
Cd113 O123 2.240 1_455 S
Cd114 O115 2.240 . S
Cd114 O122 2.223 . S
Cd114 O124 2.297 . S
Cd114 O125 2.439 . S
O115 Cd114 2.240 . S
O115 C120 1.279 1_655 S
O116 Cd113 2.297 . S
O116 C118 1.247 . S
O117 Cd113 2.439 1_655 S
O117 C118 1.208 1_655 S
C118 O116 1.247 . S
C118 O117 1.208 1_455 S
C119 O124 1.247 . S
C119 O125 1.208 . S
C120 O112 1.315 . S
C120 O115 1.279 1_455 S
C121 O122 1.315 . S
C121 O123 1.279 . S
O122 Cd114 2.223 . S
O122 C121 1.315 . S
O123 Cd113 2.240 1_655 S
O123 C121 1.279 . S
O124 Cd114 2.297 . S
O124 C119 1.247 . S
O125 Cd114 2.439 . S
O125 C119 1.208 . S
O126 Cd127 2.223 . S
O126 C134 1.315 . S
Cd127 O126 2.223 . S
Cd127 O130 2.297 . S
Cd127 O131 2.439 1_545 S
Cd127 O137 2.240 1_545 S
Cd128 O129 2.240 . S
Cd128 O136 2.223 . S
Cd128 O138 2.297 . S
Cd128 O139 2.439 . S
O129 Cd128 2.240 . S
O129 C134 1.279 1_565 S
O130 Cd127 2.297 . S
O130 C132 1.247 . S
O131 Cd127 2.439 1_565 S
O131 C132 1.208 1_565 S
C132 O130 1.247 . S
C132 O131 1.208 1_545 S
C133 O138 1.247 . S
C133 O139 1.208 . S
C134 O126 1.315 . S
C134 O129 1.279 1_545 S
C135 O136 1.315 . S
C135 O137 1.279 . S
O136 Cd128 2.223 . S
O136 C135 1.315 . S
O137 Cd127 2.240 1_565 S
O137 C135 1.279 . S
O138 Cd128 2.297 . S
O138 C133 1.247 . S
O139 Cd128 2.439 . S
O139 C133 1.208 . S
O140 Cd141 2.223 . S
O140 C148 1.315 . S
Cd141 O140 2.223 . S
Cd141 O144 2.297 . S
Cd141 O145 2.439 . S
Cd141 O151 2.240 . S
Cd142 O143 2.240 . S
Cd142 O150 2.223 . S
Cd142 O152 2.297 . S
Cd142 O153 2.439 . S
O143 Cd142 2.240 . S
O143 C148 1.279 . S
O144 Cd141 2.297 . S
O144 C146 1.247 . S
O145 Cd141 2.439 . S
O145 C146 1.208 . S
C146 O144 1.247 . S
C146 O145 1.208 . S
C147 O152 1.247 . S
C147 O153 1.208 . S
C148 O140 1.315 . S
C148 O143 1.279 . S
C149 O150 1.315 . S
C149 O151 1.279 . S
O150 Cd142 2.223 . S
O150 C149 1.315 . S
O151 Cd141 2.240 . S
O151 C149 1.279 . S
O152 Cd142 2.297 . S
O152 C147 1.247 . S
O153 Cd142 2.439 . S
O153 C147 1.208 . S
O154 Cd155 2.223 . S
O154 C162 1.315 . S
Cd155 O154 2.223 . S
Cd155 O158 2.297 . S
Cd155 O159 2.439 . S
Cd155 O165 2.240 . S
Cd156 O157 2.240 . S
Cd156 O164 2.223 . S
Cd156 O166 2.297 . S
Cd156 O167 2.439 . S
O157 Cd156 2.240 . S
O157 C162 1.279 . S
O158 Cd155 2.297 . S
O158 C160 1.247 . S
O159 Cd155 2.439 . S
O159 C160 1.208 . S
C160 O158 1.247 . S
C160 O159 1.208 . S
C161 O166 1.247 . S
C161 O167 1.208 . S
C162 O154 1.315 . S
C162 O157 1.279 . S
C163 O164 1.315 . S
C163 O165 1.279 . S
O164 Cd156 2.223 . S
O164 C163 1.315 . S
O165 Cd155 2.240 . S
O165 C163 1.279 . S
O166 Cd156 2.297 . S
O166 C161 1.247 . S
O167 Cd156 2.439 . S
O167 C161 1.208 . S
O168 Cd169 2.223 . S
O168 C176 1.315 . S
Cd169 O168 2.223 . S
Cd169 O172 2.297 . S
Cd169 O173 2.439 1_455 S
Cd169 O179 2.240 1_455 S
Cd170 O171 2.240 . S
Cd170 O178 2.223 . S
Cd170 O180 2.297 . S
Cd170 O181 2.439 . S
O171 Cd170 2.240 . S
O171 C176 1.279 1_655 S
O172 Cd169 2.297 . S
O172 C174 1.247 . S
O173 Cd169 2.439 1_655 S
O173 C174 1.208 1_655 S
C174 O172 1.247 . S
C174 O173 1.208 1_455 S
C175 O180 1.247 . S
C175 O181 1.208 . S
C176 O168 1.315 . S
C176 O171 1.279 1_455 S
C177 O178 1.315 . S
C177 O179 1.279 . S
O178 Cd170 2.223 . S
O178 C177 1.315 . S
O179 Cd169 2.240 1_655 S
O179 C177 1.279 . S
O180 Cd170 2.297 . S
O180 C175 1.247 . S
O181 Cd170 2.439 . S
O181 C175 1.208 . S
O182 Cd183 2.223 . S
O182 C190 1.315 . S
Cd183 O182 2.223 . S
Cd183 O186 2.297 . S
Cd183 O187 2.439 1_545 S
Cd183 O193 2.240 1_545 S
Cd184 O185 2.240 . S
Cd184 O192 2.223 . S
Cd184 O194 2.297 . S
Cd184 O195 2.439 . S
O185 Cd184 2.240 . S
O185 C190 1.279 1_565 S
O186 Cd183 2.297 . S
O186 C188 1.247 . S
O187 Cd183 2.439 1_565 S
O187 C188 1.208 1_565 S
C188 O186 1.247 . S
C188 O187 1.208 1_545 S
C189 O194 1.247 . S
C189 O195 1.208 . S
C190 O182 1.315 . S
C190 O185 1.279 1_545 S
C191 O192 1.315 . S
C191 O193 1.279 . S
O192 Cd184 2.223 . S
O192 C191 1.315 . S
O193 Cd183 2.240 1_565 S
O193 C191 1.279 . S
O194 Cd184 2.297 . S
O194 C189 1.247 . S
O195 Cd184 2.439 . S
O195 C189 1.208 . S
O196 Cd197 2.223 . S
O196 C204 1.315 . S
Cd197 O196 2.223 . S
Cd197 O200 2.297 . S
Cd197 O201 2.439 . S
Cd197 O207 2.240 . S
Cd198 O199 2.240 . S
Cd198 O206 2.223 . S
Cd198 O208 2.297 . S
Cd198 O209 2.439 . S
O199 Cd198 2.240 . S
O199 C204 1.279 . S
O200 Cd197 2.297 . S
O200 C202 1.247 . S
O201 Cd197 2.439 . S
O201 C202 1.208 . S
C202 O200 1.247 . S
C202 O201 1.208 . S
C203 O208 1.247 . S
C203 O209 1.208 . S
C204 O196 1.315 . S
C204 O199 1.279 . S
C205 O206 1.315 . S
C205 O207 1.279 . S
O206 Cd198 2.223 . S
O206 C205 1.315 . S
O207 Cd197 2.240 . S
O207 C205 1.279 . S
O208 Cd198 2.297 . S
O208 C203 1.247 . S
O209 Cd198 2.439 . S
O209 C203 1.208 . S
O210 Cd211 2.223 . S
O210 C218 1.315 . S
Cd211 O210 2.223 . S
Cd211 O214 2.297 . S
Cd211 O215 2.439 . S
Cd211 O221 2.240 . S
Cd212 O213 2.240 . S
Cd212 O220 2.223 . S
Cd212 O222 2.297 . S
Cd212 O223 2.439 . S
O213 Cd212 2.240 . S
O213 C218 1.279 . S
O214 Cd211 2.297 . S
O214 C216 1.247 . S
O215 Cd211 2.439 . S
O215 C216 1.208 . S
C216 O214 1.247 . S
C216 O215 1.208 . S
C217 O222 1.247 . S
C217 O223 1.208 . S
C218 O210 1.315 . S
C218 O213 1.279 . S
C219 O220 1.315 . S
C219 O221 1.279 . S
O220 Cd212 2.223 . S
O220 C219 1.315 . S
O221 Cd211 2.240 . S
O221 C219 1.279 . S
O222 Cd212 2.297 . S
O222 C217 1.247 . S
O223 Cd212 2.439 . S
O223 C217 1.208 . S
H224 C230 0.930 . S
H225 C233 0.930 . S
H226 C234 0.930 . S
H227 C235 0.930 . S
H228 C238 0.930 . S
H229 C239 0.930 . S
C230 H224 0.930 . S
C230 C231 1.355 . S
C230 C232 1.415 . S
C231 C230 1.355 . S
C231 C233 1.419 . S
C232 C230 1.415 . S
C232 C237 1.425 . S
C232 C239 1.409 . S
C233 H225 0.930 . S
C233 C231 1.419 . S
C233 C234 1.362 . S
C234 H226 0.930 . S
C234 C233 1.362 . S
C234 C237 1.409 . S
C235 H227 0.930 . S
C235 C236 1.355 . S
C235 C237 1.415 . S
C236 C235 1.355 . S
C236 C238 1.419 . S
C237 C232 1.425 . S
C237 C234 1.409 . S
C237 C235 1.415 . S
C238 H228 0.930 . S
C238 C236 1.419 . S
C238 C239 1.362 . S
C239 H229 0.930 . S
C239 C232 1.409 . S
C239 C238 1.362 . S
H240 C246 0.930 . S
H241 C249 0.930 . S
H242 C250 0.930 . S
H243 C251 0.930 . S
H244 C254 0.930 . S
H245 C255 0.930 . S
C246 H240 0.930 . S
C246 C247 1.355 . S
C246 C248 1.415 . S
C247 C246 1.355 . S
C247 C249 1.419 . S
C248 C246 1.415 . S
C248 C253 1.425 . S
C248 C255 1.409 . S
C249 H241 0.930 . S
C249 C247 1.419 . S
C249 C250 1.362 . S
C250 H242 0.930 . S
C250 C249 1.362 . S
C250 C253 1.409 . S
C251 H243 0.930 . S
C251 C252 1.355 . S
C251 C253 1.415 . S
C252 C251 1.355 . S
C252 C254 1.419 . S
C253 C248 1.425 . S
C253 C250 1.409 . S
C253 C251 1.415 . S
C254 H244 0.930 . S
C254 C252 1.419 . S
C254 C255 1.362 . S
C255 H245 0.930 . S
C255 C248 1.409 . S
C255 C254 1.362 . S
H256 C262 0.930 . S
H257 C265 0.930 . S
H258 C266 0.930 . S
H259 C267 0.930 . S
H260 C270 0.930 . S
H261 C271 0.930 . S
C262 H256 0.930 . S
C262 C263 1.355 . S
C262 C264 1.415 . S
C263 C262 1.355 . S
C263 C265 1.419 . S
C264 C262 1.415 . S
C264 C269 1.425 . S
C264 C271 1.409 . S
C265 H257 0.930 . S
C265 C263 1.419 . S
C265 C266 1.362 . S
C266 H258 0.930 . S
C266 C265 1.362 . S
C266 C269 1.409 . S
C267 H259 0.930 . S
C267 C268 1.355 . S
C267 C269 1.415 . S
C268 C267 1.355 . S
C268 C270 1.419 . S
C269 C264 1.425 . S
C269 C266 1.409 . S
C269 C267 1.415 . S
C270 H260 0.930 . S
C270 C268 1.419 . S
C270 C271 1.362 . S
C271 H261 0.930 . S
C271 C264 1.409 . S
C271 C270 1.362 . S
H272 C278 0.930 . S
H273 C281 0.930 . S
H274 C282 0.930 . S
H275 C283 0.930 . S
H276 C286 0.930 . S
H277 C287 0.930 . S
C278 H272 0.930 . S
C278 C279 1.355 . S
C278 C280 1.415 . S
C279 C278 1.355 . S
C279 C281 1.419 . S
C280 C278 1.415 . S
C280 C285 1.425 . S
C280 C287 1.409 . S
C281 H273 0.930 . S
C281 C279 1.419 . S
C281 C282 1.362 . S
C282 H274 0.930 . S
C282 C281 1.362 . S
C282 C285 1.409 . S
C283 H275 0.930 . S
C283 C284 1.355 . S
C283 C285 1.415 . S
C284 C283 1.355 . S
C284 C286 1.419 . S
C285 C280 1.425 . S
C285 C282 1.409 . S
C285 C283 1.415 . S
C286 H276 0.930 . S
C286 C284 1.419 . S
C286 C287 1.362 . S
C287 H277 0.930 . S
C287 C280 1.409 . S
C287 C286 1.362 . S
H288 C294 0.930 . S
H289 C297 0.930 . S
H290 C298 0.930 . S
H291 C299 0.930 . S
H292 C302 0.930 . S
H293 C303 0.930 . S
C294 H288 0.930 . S
C294 C295 1.355 . S
C294 C296 1.415 . S
C295 C294 1.355 . S
C295 C297 1.419 . S
C296 C294 1.415 . S
C296 C301 1.425 . S
C296 C303 1.409 . S
C297 H289 0.930 . S
C297 C295 1.419 . S
C297 C298 1.362 . S
C298 H290 0.930 . S
C298 C297 1.362 . S
C298 C301 1.409 . S
C299 H291 0.930 . S
C299 C300 1.355 . S
C299 C301 1.415 . S
C300 C299 1.355 . S
C300 C302 1.419 . S
C301 C296 1.425 . S
C301 C298 1.409 . S
C301 C299 1.415 . S
C302 H292 0.930 . S
C302 C300 1.419 . S
C302 C303 1.362 . S
C303 H293 0.930 . S
C303 C296 1.409 . S
C303 C302 1.362 . S
H304 C310 0.930 . S
H305 C313 0.930 . S
H306 C314 0.930 . S
H307 C315 0.930 . S
H308 C318 0.930 . S
H309 C319 0.930 . S
C310 H304 0.930 . S
C310 C311 1.355 . S
C310 C312 1.415 . S
C311 C310 1.355 . S
C311 C313 1.419 . S
C312 C310 1.415 . S
C312 C317 1.425 . S
C312 C319 1.409 . S
C313 H305 0.930 . S
C313 C311 1.419 . S
C313 C314 1.362 . S
C314 H306 0.930 . S
C314 C313 1.362 . S
C314 C317 1.409 . S
C315 H307 0.930 . S
C315 C316 1.355 . S
C315 C317 1.415 . S
C316 C315 1.355 . S
C316 C318 1.419 . S
C317 C312 1.425 . S
C317 C314 1.409 . S
C317 C315 1.415 . S
C318 H308 0.930 . S
C318 C316 1.419 . S
C318 C319 1.362 . S
C319 H309 0.930 . S
C319 C312 1.409 . S
C319 C318 1.362 . S
H320 C326 0.930 . S
H321 C329 0.930 . S
H322 C330 0.930 . S
H323 C331 0.930 . S
H324 C334 0.930 . S
H325 C335 0.930 . S
C326 H320 0.930 . S
C326 C327 1.355 . S
C326 C328 1.415 . S
C327 C326 1.355 . S
C327 C329 1.419 . S
C328 C326 1.415 . S
C328 C333 1.425 . S
C328 C335 1.409 . S
C329 H321 0.930 . S
C329 C327 1.419 . S
C329 C330 1.362 . S
C330 H322 0.930 . S
C330 C329 1.362 . S
C330 C333 1.409 . S
C331 H323 0.930 . S
C331 C332 1.355 . S
C331 C333 1.415 . S
C332 C331 1.355 . S
C332 C334 1.419 . S
C333 C328 1.425 . S
C333 C330 1.409 . S
C333 C331 1.415 . S
C334 H324 0.930 . S
C334 C332 1.419 . S
C334 C335 1.362 . S
C335 H325 0.930 . S
C335 C328 1.409 . S
C335 C334 1.362 . S
H336 C342 0.930 . S
H337 C345 0.930 . S
H338 C346 0.930 . S
H339 C347 0.930 . S
H340 C350 0.930 . S
H341 C351 0.930 . S
C342 H336 0.930 . S
C342 C343 1.355 . S
C342 C344 1.415 . S
C343 C342 1.355 . S
C343 C345 1.419 . S
C344 C342 1.415 . S
C344 C349 1.425 . S
C344 C351 1.409 . S
C345 H337 0.930 . S
C345 C343 1.419 . S
C345 C346 1.362 . S
C346 H338 0.930 . S
C346 C345 1.362 . S
C346 C349 1.409 . S
C347 H339 0.930 . S
C347 C348 1.355 . S
C347 C349 1.415 . S
C348 C347 1.355 . S
C348 C350 1.419 . S
C349 C344 1.425 . S
C349 C346 1.409 . S
C349 C347 1.415 . S
C350 H340 0.930 . S
C350 C348 1.419 . S
C350 C351 1.362 . S
C351 H341 0.930 . S
C351 C344 1.409 . S
C351 C350 1.362 . S
H352 C358 0.930 . S
H353 C361 0.930 . S
H354 C362 0.930 . S
H355 C363 0.930 . S
H356 C366 0.930 . S
H357 C367 0.930 . S
C358 H352 0.930 . S
C358 C359 1.355 . S
C358 C360 1.415 . S
C359 C358 1.355 . S
C359 C361 1.419 . S
C360 C358 1.415 . S
C360 C365 1.425 . S
C360 C367 1.409 . S
C361 H353 0.930 . S
C361 C359 1.419 . S
C361 C362 1.362 . S
C362 H354 0.930 . S
C362 C361 1.362 . S
C362 C365 1.409 . S
C363 H355 0.930 . S
C363 C364 1.355 . S
C363 C365 1.415 . S
C364 C363 1.355 . S
C364 C366 1.419 . S
C365 C360 1.425 . S
C365 C362 1.409 . S
C365 C363 1.415 . S
C366 H356 0.930 . S
C366 C364 1.419 . S
C366 C367 1.362 . S
C367 H357 0.930 . S
C367 C360 1.409 . S
C367 C366 1.362 . S
H368 C374 0.930 . S
H369 C377 0.930 . S
H370 C378 0.930 1_455 S
H371 C379 0.930 1_455 S
H372 C382 0.930 . S
H373 C383 0.930 . S
C374 H368 0.930 . S
C374 C375 1.355 . S
C374 C376 1.415 . S
C375 C374 1.355 . S
C375 C377 1.419 . S
C376 C374 1.415 . S
C376 C381 1.425 . S
C376 C383 1.409 . S
C377 H369 0.930 . S
C377 C375 1.419 . S
C377 C378 1.362 . S
C378 H370 0.930 1_655 S
C378 C377 1.362 . S
C378 C381 1.409 . S
C379 H371 0.930 1_655 S
C379 C380 1.355 . S
C379 C381 1.415 . S
C380 C379 1.355 . S
C380 C382 1.419 . S
C381 C376 1.425 . S
C381 C378 1.409 . S
C381 C379 1.415 . S
C382 H372 0.930 . S
C382 C380 1.419 . S
C382 C383 1.362 . S
C383 H373 0.930 . S
C383 C376 1.409 . S
C383 C382 1.362 . S
H384 C390 0.930 . S
H385 C393 0.930 . S
H386 C394 0.930 . S
H387 C395 0.930 . S
H388 C398 0.930 . S
H389 C399 0.930 . S
C390 H384 0.930 . S
C390 C391 1.355 . S
C390 C392 1.415 . S
C391 C390 1.355 . S
C391 C393 1.419 . S
C392 C390 1.415 . S
C392 C397 1.425 . S
C392 C399 1.409 . S
C393 H385 0.930 . S
C393 C391 1.419 . S
C393 C394 1.362 . S
C394 H386 0.930 . S
C394 C393 1.362 . S
C394 C397 1.409 . S
C395 H387 0.930 . S
C395 C396 1.355 . S
C395 C397 1.415 . S
C396 C395 1.355 . S
C396 C398 1.419 . S
C397 C392 1.425 . S
C397 C394 1.409 . S
C397 C395 1.415 . S
C398 H388 0.930 . S
C398 C396 1.419 . S
C398 C399 1.362 . S
C399 H389 0.930 . S
C399 C392 1.409 . S
C399 C398 1.362 . S
H400 C406 0.930 . S
H401 C409 0.930 . S
H402 C410 0.930 . S
H403 C411 0.930 . S
H404 C414 0.930 . S
H405 C415 0.930 . S
C406 H400 0.930 . S
C406 C407 1.355 . S
C406 C408 1.415 . S
C407 C406 1.355 . S
C407 C409 1.419 . S
C408 C406 1.415 . S
C408 C413 1.425 . S
C408 C415 1.409 . S
C409 H401 0.930 . S
C409 C407 1.419 . S
C409 C410 1.362 . S
C410 H402 0.930 . S
C410 C409 1.362 . S
C410 C413 1.409 . S
C411 H403 0.930 . S
C411 C412 1.355 . S
C411 C413 1.415 . S
C412 C411 1.355 . S
C412 C414 1.419 . S
C413 C408 1.425 . S
C413 C410 1.409 . S
C413 C411 1.415 . S
C414 H404 0.930 . S
C414 C412 1.419 . S
C414 C415 1.362 . S
C415 H405 0.930 . S
C415 C408 1.409 . S
C415 C414 1.362 . S
H416 C422 0.930 . S
H417 C425 0.930 . S
H418 C426 0.930 . S
H419 C427 0.930 . S
H420 C430 0.930 1_655 S
H421 C431 0.930 . S
C422 H416 0.930 . S
C422 C423 1.355 . S
C422 C424 1.415 . S
C423 C422 1.355 . S
C423 C425 1.419 . S
C424 C422 1.415 . S
C424 C429 1.425 . S
C424 C431 1.409 . S
C425 H417 0.930 . S
C425 C423 1.419 . S
C425 C426 1.362 . S
C426 H418 0.930 . S
C426 C425 1.362 . S
C426 C429 1.409 . S
C427 H419 0.930 . S
C427 C428 1.355 . S
C427 C429 1.415 . S
C428 C427 1.355 . S
C428 C430 1.419 . S
C429 C424 1.425 . S
C429 C426 1.409 . S
C429 C427 1.415 . S
C430 H420 0.930 1_455 S
C430 C428 1.419 . S
C430 C431 1.362 . S
C431 H421 0.930 . S
C431 C424 1.409 . S
C431 C430 1.362 . S
H432 C438 0.930 . S
H433 C441 0.909 1_565 S
H434 C442 0.937 . S
H435 C443 0.930 1_655 S
H436 C446 0.930 . S
H437 C447 0.930 . S
C438 H432 0.930 . S
C438 C439 1.355 . S
C438 C440 1.415 . S
C439 C438 1.355 . S
C439 C441 1.432 . S
C440 C438 1.415 . S
C440 C445 1.425 . S
C440 C447 1.409 . S
C441 H433 0.909 1_545 S
C441 C439 1.432 . S
C441 C442 1.371 . S
C442 H434 0.937 . S
C442 C441 1.371 . S
C442 C445 1.409 . S
C443 H435 0.930 1_455 S
C443 C444 1.355 . S
C443 C445 1.415 . S
C444 C443 1.355 . S
C444 C446 1.419 . S
C445 C440 1.425 . S
C445 C442 1.409 . S
C445 C443 1.415 . S
C446 H436 0.930 . S
C446 C444 1.419 . S
C446 C447 1.362 . S
C447 H437 0.930 . S
C447 C440 1.409 . S
C447 C446 1.362 . S
H448 C454 0.930 . S
H449 C457 0.930 . S
H450 C458 0.930 . S
H451 C459 0.930 . S
H452 C462 0.930 . S
H453 C463 0.930 . S
C454 H448 0.930 . S
C454 C455 1.355 . S
C454 C456 1.415 . S
C455 C454 1.355 . S
C455 C457 1.419 . S
C456 C454 1.415 . S
C456 C461 1.425 . S
C456 C463 1.409 . S
C457 H449 0.930 . S
C457 C455 1.419 . S
C457 C458 1.362 . S
C458 H450 0.930 . S
C458 C457 1.362 . S
C458 C461 1.409 . S
C459 H451 0.930 . S
C459 C460 1.355 . S
C459 C461 1.415 . S
C460 C459 1.355 . S
C460 C462 1.419 . S
C461 C456 1.425 . S
C461 C458 1.409 . S
C461 C459 1.415 . S
C462 H452 0.930 . S
C462 C460 1.419 . S
C462 C463 1.362 . S
C463 H453 0.930 . S
C463 C456 1.409 . S
C463 C462 1.362 . S
H464 C470 0.930 . S
H465 C473 0.930 . S
H466 C474 0.930 . S
H467 C475 0.930 . S
H468 C478 0.930 . S
H469 C479 0.930 . S
C470 H464 0.930 . S
C470 C471 1.355 . S
C470 C472 1.415 . S
C471 C470 1.355 . S
C471 C473 1.419 . S
C472 C470 1.415 . S
C472 C477 1.425 . S
C472 C479 1.409 . S
C473 H465 0.930 . S
C473 C471 1.419 . S
C473 C474 1.362 . S
C474 H466 0.930 . S
C474 C473 1.362 . S
C474 C477 1.409 . S
C475 H467 0.930 . S
C475 C476 1.355 . S
C475 C477 1.415 . S
C476 C475 1.355 . S
C476 C478 1.419 . S
C477 C472 1.425 . S
C477 C474 1.409 . S
C477 C475 1.415 . S
C478 H468 0.930 . S
C478 C476 1.419 . S
C478 C479 1.362 . S
C479 H469 0.930 . S
C479 C472 1.409 . S
C479 C478 1.362 . S
H480 C486 0.930 . S
H481 C489 0.930 . S
H482 C490 0.930 . S
H483 C491 0.930 . S
H484 C494 0.930 . S
H485 C495 0.930 . S
C486 H480 0.930 . S
C486 C487 1.355 . S
C486 C488 1.415 . S
C487 C486 1.355 . S
C487 C489 1.419 . S
C488 C486 1.415 . S
C488 C493 1.425 . S
C488 C495 1.409 . S
C489 H481 0.930 . S
C489 C487 1.419 . S
C489 C490 1.362 . S
C490 H482 0.930 . S
C490 C489 1.362 . S
C490 C493 1.409 . S
C491 H483 0.930 . S
C491 C492 1.355 . S
C491 C493 1.415 . S
C492 C491 1.355 . S
C492 C494 1.419 . S
C493 C488 1.425 . S
C493 C490 1.409 . S
C493 C491 1.415 . S
C494 H484 0.930 . S
C494 C492 1.419 . S
C494 C495 1.362 . S
C495 H485 0.930 . S
C495 C488 1.409 . S
C495 C494 1.362 . S
H496 C502 0.930 . S
H497 C505 0.930 . S
H498 C506 0.930 . S
H499 C507 0.930 . S
H500 C510 0.930 . S
H501 C511 0.930 . S
C502 H496 0.930 . S
C502 C503 1.355 . S
C502 C504 1.415 . S
C503 C502 1.355 . S
C503 C505 1.419 1_545 S
C504 C502 1.415 . S
C504 C509 1.425 1_545 S
C504 C511 1.409 . S
C505 H497 0.930 . S
C505 C503 1.419 1_565 S
C505 C506 1.362 . S
C506 H498 0.930 . S
C506 C505 1.362 . S
C506 C509 1.409 . S
C507 H499 0.930 . S
C507 C508 1.355 1_565 S
C507 C509 1.415 . S
C508 C507 1.355 1_545 S
C508 C510 1.419 . S
C509 C504 1.425 1_565 S
C509 C506 1.409 . S
C509 C507 1.415 . S
C510 H500 0.930 . S
C510 C508 1.419 . S
C510 C511 1.362 . S
C511 H501 0.930 . S
C511 C504 1.409 . S
C511 C510 1.362 . S
H512 C518 0.930 . S
H513 C521 0.930 . S
H514 C522 0.930 . S
H515 C523 0.930 . S
H516 C526 0.930 . S
H517 C527 0.930 . S
C518 H512 0.930 . S
C518 C519 1.355 . S
C518 C520 1.415 . S
C519 C518 1.355 . S
C519 C521 1.419 . S
C520 C518 1.415 . S
C520 C525 1.425 . S
C520 C527 1.409 . S
C521 H513 0.930 . S
C521 C519 1.419 . S
C521 C522 1.362 . S
C522 H514 0.930 . S
C522 C521 1.362 . S
C522 C525 1.409 . S
C523 H515 0.930 . S
C523 C524 1.355 . S
C523 C525 1.415 . S
C524 C523 1.355 . S
C524 C526 1.419 . S
C525 C520 1.425 . S
C525 C522 1.409 . S
C525 C523 1.415 . S
C526 H516 0.930 . S
C526 C524 1.419 . S
C526 C527 1.362 . S
C527 H517 0.930 . S
C527 C520 1.409 . S
C527 C526 1.362 . S
H528 C534 0.930 . S
H529 C537 0.930 . S
H530 C538 0.930 . S
H531 C539 0.930 . S
H532 C542 0.930 . S
H533 C543 0.930 . S
C534 H528 0.930 . S
C534 C535 1.355 . S
C534 C536 1.415 . S
C535 C534 1.355 . S
C535 C537 1.419 . S
C536 C534 1.415 . S
C536 C541 1.425 . S
C536 C543 1.409 . S
C537 H529 0.930 . S
C537 C535 1.419 . S
C537 C538 1.362 . S
C538 H530 0.930 . S
C538 C537 1.362 . S
C538 C541 1.409 . S
C539 H531 0.930 . S
C539 C540 1.355 . S
C539 C541 1.415 . S
C540 C539 1.355 . S
C540 C542 1.419 . S
C541 C536 1.425 . S
C541 C538 1.409 . S
C541 C539 1.415 . S
C542 H532 0.930 . S
C542 C540 1.419 . S
C542 C543 1.362 . S
C543 H533 0.930 . S
C543 C536 1.409 . S
C543 C542 1.362 . S
H544 C550 0.930 . S
H545 C553 0.930 . S
H546 C554 0.930 . S
H547 C555 0.930 . S
H548 C558 0.930 . S
H549 C559 0.930 . S
C550 H544 0.930 . S
C550 C551 1.355 1_455 S
C550 C552 1.415 . S
C551 C550 1.355 1_655 S
C551 C553 1.419 . S
C552 C550 1.415 . S
C552 C557 1.425 1_455 S
C552 C559 1.409 . S
C553 H545 0.930 . S
C553 C551 1.419 . S
C553 C554 1.362 . S
C554 H546 0.930 . S
C554 C553 1.362 . S
C554 C557 1.409 . S
C555 H547 0.930 . S
C555 C556 1.355 . S
C555 C557 1.415 . S
C556 C555 1.355 . S
C556 C558 1.419 1_655 S
C557 C552 1.425 1_655 S
C557 C554 1.409 . S
C557 C555 1.415 . S
C558 H548 0.930 . S
C558 C556 1.419 1_455 S
C558 C559 1.362 . S
C559 H549 0.930 . S
C559 C552 1.409 . S
C559 C558 1.362 . S
H560 C566 0.930 . S
H561 C569 0.930 . S
H562 C570 0.930 . S
H563 C571 0.930 . S
H564 C574 0.930 . S
H565 C575 0.930 . S
C566 H560 0.930 . S
C566 C567 1.355 . S
C566 C568 1.415 . S
C567 C566 1.355 . S
C567 C569 1.419 1_565 S
C568 C566 1.415 . S
C568 C573 1.425 1_565 S
C568 C575 1.409 . S
C569 H561 0.930 . S
C569 C567 1.419 1_545 S
C569 C570 1.362 . S
C570 H562 0.930 . S
C570 C569 1.362 . S
C570 C573 1.409 . S
C571 H563 0.930 . S
C571 C572 1.355 1_545 S
C571 C573 1.415 . S
C572 C571 1.355 1_565 S
C572 C574 1.419 . S
C573 C568 1.425 1_545 S
C573 C570 1.409 . S
C573 C571 1.415 . S
C574 H564 0.930 . S
C574 C572 1.419 . S
C574 C575 1.362 . S
C575 H565 0.930 . S
C575 C568 1.409 . S
C575 C574 1.362 . S
H576 C582 0.930 . S
H577 C585 0.930 . S
H578 C586 0.930 . S
H579 C587 0.930 . S
H580 C590 0.930 . S
H581 C591 0.930 . S
C582 H576 0.930 . S
C582 C583 1.355 . S
C582 C584 1.415 . S
C583 C582 1.355 . S
C583 C585 1.419 . S
C584 C582 1.415 . S
C584 C589 1.425 . S
C584 C591 1.409 . S
C585 H577 0.930 . S
C585 C583 1.419 . S
C585 C586 1.362 . S
C586 H578 0.930 . S
C586 C585 1.362 . S
C586 C589 1.409 . S
C587 H579 0.930 . S
C587 C588 1.355 . S
C587 C589 1.415 . S
C588 C587 1.355 . S
C588 C590 1.419 . S
C589 C584 1.425 . S
C589 C586 1.409 . S
C589 C587 1.415 . S
C590 H580 0.930 . S
C590 C588 1.419 . S
C590 C591 1.362 . S
C591 H581 0.930 . S
C591 C584 1.409 . S
C591 C590 1.362 . S
H592 C598 0.930 . S
H593 C601 0.930 . S
H594 C602 0.930 . S
H595 C603 0.930 . S
H596 C606 0.930 . S
H597 C607 0.930 . S
C598 H592 0.930 . S
C598 C599 1.355 . S
C598 C600 1.415 . S
C599 C598 1.355 . S
C599 C601 1.419 . S
C600 C598 1.415 . S
C600 C605 1.425 . S
C600 C607 1.409 . S
C601 H593 0.930 . S
C601 C599 1.419 . S
C601 C602 1.362 . S
C602 H594 0.930 . S
C602 C601 1.362 . S
C602 C605 1.409 . S
C603 H595 0.930 . S
C603 C604 1.355 . S
C603 C605 1.415 . S
C604 C603 1.355 . S
C604 C606 1.419 . S
C605 C600 1.425 . S
C605 C602 1.409 . S
C605 C603 1.415 . S
C606 H596 0.930 . S
C606 C604 1.419 . S
C606 C607 1.362 . S
C607 H597 0.930 . S
C607 C600 1.409 . S
C607 C606 1.362 . S
H608 C614 0.930 . S
H609 C617 0.930 . S
H610 C618 0.930 . S
H611 C619 0.930 . S
H612 C622 0.930 . S
H613 C623 0.930 . S
C614 H608 0.930 . S
C614 C615 1.347 1_655 S
C614 C616 1.426 . S
C615 C614 1.347 1_455 S
C615 C617 1.429 . S
C616 C614 1.426 . S
C616 C621 1.424 1_654 S
C616 C623 1.399 1_554 S
C617 H609 0.930 . S
C617 C615 1.429 . S
C617 C618 1.362 . S
C618 H610 0.930 . S
C618 C617 1.362 . S
C618 C621 1.399 1_554 S
C619 H611 0.930 . S
C619 C620 1.347 1_455 S
C619 C621 1.426 . S
C620 C619 1.347 1_655 S
C620 C622 1.429 . S
C621 C616 1.424 1_456 S
C621 C618 1.399 1_556 S
C621 C619 1.426 . S
C622 H612 0.930 . S
C622 C620 1.429 . S
C622 C623 1.362 . S
C623 H613 0.930 . S
C623 C616 1.399 1_556 S
C623 C622 1.362 . S
H624 C630 0.929 1_565 S
H625 C633 0.930 . S
H626 C634 0.930 . S
H627 C635 0.929 1_545 S
H628 C638 0.930 . S
H629 C639 0.930 . S
C630 H624 0.929 1_545 S
C630 C631 1.356 . S
C630 C632 1.414 1_445 S
C631 C630 1.356 . S
C631 C633 1.419 1_556 S
C632 C630 1.414 1_665 S
C632 C637 1.425 1_666 S
C632 C639 1.409 . S
C633 H625 0.930 . S
C633 C631 1.419 1_554 S
C633 C634 1.362 . S
C634 H626 0.930 . S
C634 C633 1.362 . S
C634 C637 1.409 . S
C635 H627 0.929 1_565 S
C635 C636 1.356 . S
C635 C637 1.414 1_665 S
C636 C635 1.356 . S
C636 C638 1.419 1_554 S
C637 C632 1.425 1_444 S
C637 C634 1.409 . S
C637 C635 1.414 1_445 S
C638 H628 0.930 . S
C638 C636 1.419 1_556 S
C638 C639 1.362 . S
C639 H629 0.930 . S
C639 C632 1.409 . S
C639 C638 1.362 . S
H640 C646 0.930 . S
H641 C649 0.930 . S
H642 C650 0.923 1_545 S
H643 C651 0.930 . S
H644 C654 0.930 . S
H645 C655 0.923 1_565 S
C646 H640 0.930 . S
C646 C647 1.355 . S
C646 C648 1.415 1_554 S
C647 C646 1.355 . S
C647 C649 1.419 . S
C648 C646 1.415 1_556 S
C648 C653 1.425 1_566 S
C648 C655 1.409 1_565 S
C649 H641 0.930 . S
C649 C647 1.419 . S
C649 C650 1.362 . S
C650 H642 0.923 1_565 S
C650 C649 1.362 . S
C650 C653 1.409 1_565 S
C651 H643 0.930 . S
C651 C652 1.355 . S
C651 C653 1.415 1_556 S
C652 C651 1.355 . S
C652 C654 1.419 . S
C653 C648 1.425 1_544 S
C653 C650 1.409 1_545 S
C653 C651 1.415 1_554 S
C654 H644 0.930 . S
C654 C652 1.419 . S
C654 C655 1.362 . S
C655 H645 0.923 1_545 S
C655 C648 1.409 1_545 S
C655 C654 1.362 . S
H656 C662 0.930 . S
H657 C665 0.930 . S
H658 C666 0.930 . S
H659 C667 0.930 . S
H660 C670 0.930 . S
H661 C671 0.930 . S
C662 H656 0.930 . S
C662 C663 1.355 . S
C662 C664 1.415 . S
C663 C662 1.355 . S
C663 C665 1.419 . S
C664 C662 1.415 . S
C664 C669 1.425 1_556 S
C664 C671 1.409 . S
C665 H657 0.930 . S
C665 C663 1.419 . S
C665 C666 1.362 1_556 S
C666 H658 0.930 . S
C666 C665 1.362 1_554 S
C666 C669 1.409 . S
C667 H659 0.930 . S
C667 C668 1.355 . S
C667 C669 1.415 . S
C668 C667 1.355 . S
C668 C670 1.419 . S
C669 C664 1.425 1_554 S
C669 C666 1.409 . S
C669 C667 1.415 . S
C670 H660 0.930 . S
C670 C668 1.419 . S
C670 C671 1.362 1_554 S
C671 H661 0.930 . S
C671 C664 1.409 . S
C671 C670 1.362 1_556 S
H672 C678 0.930 . S
H673 C681 0.930 . S
H674 C682 0.930 . S
H675 C683 0.930 . S
H676 C686 0.930 . S
H677 C687 0.930 . S
C678 H672 0.930 . S
C678 C679 1.343 1_655 S
C678 C680 1.430 . S
C679 C678 1.343 1_455 S
C679 C681 1.434 . S
C680 C678 1.430 . S
C680 C685 1.425 1_665 S
C680 C687 1.394 1_565 S
C681 H673 0.930 . S
C681 C679 1.434 . S
C681 C682 1.362 . S
C682 H674 0.930 . S
C682 C681 1.362 . S
C682 C685 1.394 1_565 S
C683 H675 0.930 . S
C683 C684 1.343 1_455 S
C683 C685 1.430 . S
C684 C683 1.343 1_655 S
C684 C686 1.434 . S
C685 C680 1.425 1_445 S
C685 C682 1.394 1_545 S
C685 C683 1.430 . S
C686 H676 0.930 . S
C686 C684 1.434 . S
C686 C687 1.362 . S
C687 H677 0.930 . S
C687 C680 1.394 1_545 S
C687 C686 1.362 . S
H688 C694 0.930 . S
H689 C697 0.930 . S
H690 C698 0.930 . S
H691 C699 0.930 . S
H692 C702 0.930 . S
H693 C703 0.930 . S
C694 H688 0.930 . S
C694 C695 1.355 1_545 S
C694 C696 1.415 . S
C695 C694 1.355 1_565 S
C695 C697 1.419 . S
C696 C694 1.415 . S
C696 C701 1.425 1_545 S
C696 C703 1.409 . S
C697 H689 0.930 . S
C697 C695 1.419 . S
C697 C698 1.362 . S
C698 H690 0.930 . S
C698 C697 1.362 . S
C698 C701 1.409 . S
C699 H691 0.930 . S
C699 C700 1.355 1_565 S
C699 C701 1.415 . S
C700 C699 1.355 1_545 S
C700 C702 1.419 . S
C701 C696 1.425 1_565 S
C701 C698 1.409 . S
C701 C699 1.415 . S
C702 H692 0.930 . S
C702 C700 1.419 . S
C702 C703 1.362 . S
C703 H693 0.930 . S
C703 C696 1.409 . S
C703 C702 1.362 . S
H704 C710 0.930 . S
H705 C713 0.930 . S
H706 C714 0.930 . S
H707 C715 0.930 . S
H708 C718 0.930 . S
H709 C719 0.930 . S
C710 H704 0.930 . S
C710 C711 1.355 . S
C710 C712 1.415 . S
C711 C710 1.355 . S
C711 C713 1.419 . S
C712 C710 1.415 . S
C712 C717 1.425 . S
C712 C719 1.409 . S
C713 H705 0.930 . S
C713 C711 1.419 . S
C713 C714 1.362 . S
C714 H706 0.930 . S
C714 C713 1.362 . S
C714 C717 1.409 . S
C715 H707 0.930 . S
C715 C716 1.355 . S
C715 C717 1.415 . S
C716 C715 1.355 . S
C716 C718 1.419 . S
C717 C712 1.425 . S
C717 C714 1.409 . S
C717 C715 1.415 . S
C718 H708 0.930 . S
C718 C716 1.419 . S
C718 C719 1.362 . S
C719 H709 0.930 . S
C719 C712 1.409 . S
C719 C718 1.362 . S
H720 C726 0.930 . S
H721 C729 0.930 . S
H722 C730 0.930 . S
H723 C731 0.930 . S
H724 C734 0.930 . S
H725 C735 0.930 . S
C726 H720 0.930 . S
C726 C727 1.355 . S
C726 C728 1.415 . S
C727 C726 1.355 . S
C727 C729 1.419 . S
C728 C726 1.415 . S
C728 C733 1.425 1_655 S
C728 C735 1.409 . S
C729 H721 0.930 . S
C729 C727 1.419 . S
C729 C730 1.362 1_655 S
C730 H722 0.930 . S
C730 C729 1.362 1_455 S
C730 C733 1.409 . S
C731 H723 0.930 . S
C731 C732 1.355 . S
C731 C733 1.415 . S
C732 C731 1.355 . S
C732 C734 1.419 . S
C733 C728 1.425 1_455 S
C733 C730 1.409 . S
C733 C731 1.415 . S
C734 H724 0.930 . S
C734 C732 1.419 . S
C734 C735 1.362 1_455 S
C735 H725 0.930 . S
C735 C728 1.409 . S
C735 C734 1.362 1_655 S
C231 C7 1.516 . S
C236 C35 1.575 . S
C247 C21 1.536 . S
C252 C49 1.551 . S
C263 C63 1.515 . S
C268 C91 1.575 . S
C279 C105 1.528 . S
C284 C77 1.559 . S
C295 C119 1.560 . S
C300 C147 1.535 . S
C311 C161 1.540 . S
C316 C133 1.547 . S
C327 C203 1.541 . S
C332 C175 1.554 . S
C343 C217 1.567 . S
C348 C189 1.526 . S
C359 C106 1.606 . S
C364 C8 1.580 . S
C375 C22 1.602 . S
C380 C64 1.570 . S
C391 C78 1.598 . S
C396 C36 1.570 . S
C407 C50 1.600 . S
C412 C92 1.591 . S
C423 C218 1.572 . S
C428 C120 1.605 . S
C439 C134 1.601 . S
C444 C176 1.570 . S
C455 C148 1.573 . S
C460 C190 1.589 . S
C471 C204 1.595 . S
C476 C162 1.596 . S
C487 C9 1.066 . S
C492 C65 1.035 . S
C503 C23 1.066 . S
C508 C79 0.965 . S
C519 C93 1.056 . S
C524 C37 0.945 . S
C535 C51 0.897 . S
C540 C107 0.918 . S
C551 C177 0.928 . S
C556 C121 1.045 . S
C567 C191 1.072 . S
C572 C135 0.997 . S
C583 C149 0.971 . S
C588 C205 0.884 . S
C599 C163 0.914 . S
C604 C219 1.033 . S
C615 C6 1.817 1_455 S
C620 C118 1.817 1_655 S
C631 C132 1.851 . S
C636 C20 1.851 . S
C647 C34 1.831 . S
C652 C146 1.831 . S
C663 C160 1.830 . S
C668 C48 1.830 . S
C679 C62 1.833 1_455 S
C684 C174 1.833 1_655 S
C695 C76 1.852 . S
C700 C188 1.852 . S
C711 C202 1.804 . S
C716 C90 1.804 . S
C727 C104 1.809 . S
C732 C216 1.809 . S
