# Generated by pormake.
# Topology wmz, (6)-cn, num edge types: 1
# Building blocks:
#     Node 0, Type 0, BuildingBlock: IZENUY_clean_sbu_0, # of connection points: 6
#     Node 1, Type 0, BuildingBlock: IZENUY_clean_sbu_0, # of connection points: 6
#     Node 2, Type 0, BuildingBlock: IZENUY_clean_sbu_0, # of connection points: 6
#     Node 3, Type 0, BuildingBlock: IZENUY_clean_sbu_0, # of connection points: 6
#     Node 4, Type 0, BuildingBlock: IZENUY_clean_sbu_0, # of connection points: 6
#     Node 5, Type 0, BuildingBlock: IZENUY_clean_sbu_0, # of connection points: 6
#     Node 6, Type 0, BuildingBlock: IZENUY_clean_sbu_0, # of connection points: 6
#     Node 7, Type 0, BuildingBlock: IZENUY_clean_sbu_0, # of connection points: 6
#     Node 8, Type 0, BuildingBlock: IZENUY_clean_sbu_0, # of connection points: 6
#     Node 9, Type 0, BuildingBlock: IZENUY_clean_sbu_0, # of connection points: 6
#     Node 10, Type 0, BuildingBlock: IZENUY_clean_sbu_0, # of connection points: 6
#     Node 11, Type 0, BuildingBlock: IZENUY_clean_sbu_0, # of connection points: 6
#     Node 12, Type 0, BuildingBlock: IZENUY_clean_sbu_0, # of connection points: 6
#     Node 13, Type 0, BuildingBlock: IZENUY_clean_sbu_0, # of connection points: 6
#     Node 14, Type 0, BuildingBlock: IZENUY_clean_sbu_0, # of connection points: 6
#     Node 15, Type 0, BuildingBlock: IZENUY_clean_sbu_0, # of connection points: 6
#     Node 16, Type 0, BuildingBlock: IZENUY_clean_sbu_0, # of connection points: 6
#     Node 17, Type 0, BuildingBlock: IZENUY_clean_sbu_0, # of connection points: 6
#     Node 18, Type 0, BuildingBlock: IZENUY_clean_sbu_0, # of connection points: 6
#     Node 19, Type 0, BuildingBlock: IZENUY_clean_sbu_0, # of connection points: 6
#     Node 20, Type 0, BuildingBlock: IZENUY_clean_sbu_0, # of connection points: 6
#     Node 21, Type 0, BuildingBlock: IZENUY_clean_sbu_0, # of connection points: 6
#     Node 22, Type 0, BuildingBlock: IZENUY_clean_sbu_0, # of connection points: 6
#     Node 23, Type 0, BuildingBlock: IZENUY_clean_sbu_0, # of connection points: 6
#     Node 24, Type 0, BuildingBlock: IZENUY_clean_sbu_0, # of connection points: 6
#     Node 25, Type 0, BuildingBlock: IZENUY_clean_sbu_0, # of connection points: 6
#     Node 26, Type 0, BuildingBlock: IZENUY_clean_sbu_0, # of connection points: 6
#     Node 27, Type 0, BuildingBlock: IZENUY_clean_sbu_0, # of connection points: 6
#     Node 28, Type 0, BuildingBlock: IZENUY_clean_sbu_0, # of connection points: 6
#     Node 29, Type 0, BuildingBlock: IZENUY_clean_sbu_0, # of connection points: 6
#     Node 30, Type 0, BuildingBlock: IZENUY_clean_sbu_0, # of connection points: 6
#     Node 31, Type 0, BuildingBlock: IZENUY_clean_sbu_0, # of connection points: 6
#     Node 32, Type 0, BuildingBlock: IZENUY_clean_sbu_0, # of connection points: 6
#     Node 33, Type 0, BuildingBlock: IZENUY_clean_sbu_0, # of connection points: 6
#     Node 34, Type 0, BuildingBlock: IZENUY_clean_sbu_0, # of connection points: 6
#     Node 35, Type 0, BuildingBlock: IZENUY_clean_sbu_0, # of connection points: 6
#     Edge 36, Type (0, 0), BuildingBlock: UVAHIK_clean_linker_0, # of connection points: 2
#     Edge 37, Type (0, 0), BuildingBlock: UVAHIK_clean_linker_0, # of connection points: 2
#     Edge 38, Type (0, 0), BuildingBlock: UVAHIK_clean_linker_0, # of connection points: 2
#     Edge 39, Type (0, 0), BuildingBlock: UVAHIK_clean_linker_0, # of connection points: 2
#     Edge 40, Type (0, 0), BuildingBlock: UVAHIK_clean_linker_0, # of connection points: 2
#     Edge 41, Type (0, 0), BuildingBlock: UVAHIK_clean_linker_0, # of connection points: 2
#     Edge 42, Type (0, 0), BuildingBlock: UVAHIK_clean_linker_0, # of connection points: 2
#     Edge 43, Type (0, 0), BuildingBlock: UVAHIK_clean_linker_0, # of connection points: 2
#     Edge 44, Type (0, 0), BuildingBlock: UVAHIK_clean_linker_0, # of connection points: 2
#     Edge 45, Type (0, 0), BuildingBlock: UVAHIK_clean_linker_0, # of connection points: 2
#     Edge 46, Type (0, 0), BuildingBlock: UVAHIK_clean_linker_0, # of connection points: 2
#     Edge 47, Type (0, 0), BuildingBlock: UVAHIK_clean_linker_0, # of connection points: 2
#     Edge 48, Type (0, 0), BuildingBlock: UVAHIK_clean_linker_0, # of connection points: 2
#     Edge 49, Type (0, 0), BuildingBlock: UVAHIK_clean_linker_0, # of connection points: 2
#     Edge 50, Type (0, 0), BuildingBlock: UVAHIK_clean_linker_0, # of connection points: 2
#     Edge 51, Type (0, 0), BuildingBlock: UVAHIK_clean_linker_0, # of connection points: 2
#     Edge 52, Type (0, 0), BuildingBlock: UVAHIK_clean_linker_0, # of connection points: 2
#     Edge 53, Type (0, 0), BuildingBlock: UVAHIK_clean_linker_0, # of connection points: 2
#     Edge 54, Type (0, 0), BuildingBlock: UVAHIK_clean_linker_0, # of connection points: 2
#     Edge 55, Type (0, 0), BuildingBlock: UVAHIK_clean_linker_0, # of connection points: 2
#     Edge 56, Type (0, 0), BuildingBlock: UVAHIK_clean_linker_0, # of connection points: 2
#     Edge 57, Type (0, 0), BuildingBlock: UVAHIK_clean_linker_0, # of connection points: 2
#     Edge 58, Type (0, 0), BuildingBlock: UVAHIK_clean_linker_0, # of connection points: 2
#     Edge 59, Type (0, 0), BuildingBlock: UVAHIK_clean_linker_0, # of connection points: 2
#     Edge 60, Type (0, 0), BuildingBlock: UVAHIK_clean_linker_0, # of connection points: 2
#     Edge 61, Type (0, 0), BuildingBlock: UVAHIK_clean_linker_0, # of connection points: 2
#     Edge 62, Type (0, 0), BuildingBlock: UVAHIK_clean_linker_0, # of connection points: 2
#     Edge 63, Type (0, 0), BuildingBlock: UVAHIK_clean_linker_0, # of connection points: 2
#     Edge 64, Type (0, 0), BuildingBlock: UVAHIK_clean_linker_0, # of connection points: 2
#     Edge 65, Type (0, 0), BuildingBlock: UVAHIK_clean_linker_0, # of connection points: 2
#     Edge 66, Type (0, 0), BuildingBlock: UVAHIK_clean_linker_0, # of connection points: 2
#     Edge 67, Type (0, 0), BuildingBlock: UVAHIK_clean_linker_0, # of connection points: 2
#     Edge 68, Type (0, 0), BuildingBlock: UVAHIK_clean_linker_0, # of connection points: 2
#     Edge 69, Type (0, 0), BuildingBlock: UVAHIK_clean_linker_0, # of connection points: 2
#     Edge 70, Type (0, 0), BuildingBlock: UVAHIK_clean_linker_0, # of connection points: 2
#     Edge 71, Type (0, 0), BuildingBlock: UVAHIK_clean_linker_0, # of connection points: 2
#     Edge 72, Type (0, 0), BuildingBlock: UVAHIK_clean_linker_0, # of connection points: 2
#     Edge 73, Type (0, 0), BuildingBlock: UVAHIK_clean_linker_0, # of connection points: 2
#     Edge 74, Type (0, 0), BuildingBlock: UVAHIK_clean_linker_0, # of connection points: 2
#     Edge 75, Type (0, 0), BuildingBlock: UVAHIK_clean_linker_0, # of connection points: 2
#     Edge 76, Type (0, 0), BuildingBlock: UVAHIK_clean_linker_0, # of connection points: 2
#     Edge 77, Type (0, 0), BuildingBlock: UVAHIK_clean_linker_0, # of connection points: 2
#     Edge 78, Type (0, 0), BuildingBlock: UVAHIK_clean_linker_0, # of connection points: 2
#     Edge 79, Type (0, 0), BuildingBlock: UVAHIK_clean_linker_0, # of connection points: 2
#     Edge 80, Type (0, 0), BuildingBlock: UVAHIK_clean_linker_0, # of connection points: 2
#     Edge 81, Type (0, 0), BuildingBlock: UVAHIK_clean_linker_0, # of connection points: 2
#     Edge 82, Type (0, 0), BuildingBlock: UVAHIK_clean_linker_0, # of connection points: 2
#     Edge 83, Type (0, 0), BuildingBlock: UVAHIK_clean_linker_0, # of connection points: 2
#     Edge 84, Type (0, 0), BuildingBlock: UVAHIK_clean_linker_0, # of connection points: 2
#     Edge 85, Type (0, 0), BuildingBlock: UVAHIK_clean_linker_0, # of connection points: 2
#     Edge 86, Type (0, 0), BuildingBlock: UVAHIK_clean_linker_0, # of connection points: 2
#     Edge 87, Type (0, 0), BuildingBlock: UVAHIK_clean_linker_0, # of connection points: 2
#     Edge 88, Type (0, 0), BuildingBlock: UVAHIK_clean_linker_0, # of connection points: 2
#     Edge 89, Type (0, 0), BuildingBlock: UVAHIK_clean_linker_0, # of connection points: 2
#     Edge 90, Type (0, 0), BuildingBlock: UVAHIK_clean_linker_0, # of connection points: 2
#     Edge 91, Type (0, 0), BuildingBlock: UVAHIK_clean_linker_0, # of connection points: 2
#     Edge 92, Type (0, 0), BuildingBlock: UVAHIK_clean_linker_0, # of connection points: 2
#     Edge 93, Type (0, 0), BuildingBlock: UVAHIK_clean_linker_0, # of connection points: 2
#     Edge 94, Type (0, 0), BuildingBlock: UVAHIK_clean_linker_0, # of connection points: 2
#     Edge 95, Type (0, 0), BuildingBlock: UVAHIK_clean_linker_0, # of connection points: 2
#     Edge 96, Type (0, 0), BuildingBlock: UVAHIK_clean_linker_0, # of connection points: 2
#     Edge 97, Type (0, 0), BuildingBlock: UVAHIK_clean_linker_0, # of connection points: 2
#     Edge 98, Type (0, 0), BuildingBlock: UVAHIK_clean_linker_0, # of connection points: 2
#     Edge 99, Type (0, 0), BuildingBlock: UVAHIK_clean_linker_0, # of connection points: 2
#     Edge 100, Type (0, 0), BuildingBlock: UVAHIK_clean_linker_0, # of connection points: 2
#     Edge 101, Type (0, 0), BuildingBlock: UVAHIK_clean_linker_0, # of connection points: 2
#     Edge 102, Type (0, 0), BuildingBlock: UVAHIK_clean_linker_0, # of connection points: 2
#     Edge 103, Type (0, 0), BuildingBlock: UVAHIK_clean_linker_0, # of connection points: 2
#     Edge 104, Type (0, 0), BuildingBlock: UVAHIK_clean_linker_0, # of connection points: 2
#     Edge 105, Type (0, 0), BuildingBlock: UVAHIK_clean_linker_0, # of connection points: 2
#     Edge 106, Type (0, 0), BuildingBlock: UVAHIK_clean_linker_0, # of connection points: 2
#     Edge 107, Type (0, 0), BuildingBlock: UVAHIK_clean_linker_0, # of connection points: 2
#     Edge 108, Type (0, 0), BuildingBlock: UVAHIK_clean_linker_0, # of connection points: 2
#     Edge 109, Type (0, 0), BuildingBlock: UVAHIK_clean_linker_0, # of connection points: 2
#     Edge 110, Type (0, 0), BuildingBlock: UVAHIK_clean_linker_0, # of connection points: 2
#     Edge 111, Type (0, 0), BuildingBlock: UVAHIK_clean_linker_0, # of connection points: 2
#     Edge 112, Type (0, 0), BuildingBlock: UVAHIK_clean_linker_0, # of connection points: 2
#     Edge 113, Type (0, 0), BuildingBlock: UVAHIK_clean_linker_0, # of connection points: 2
#     Edge 114, Type (0, 0), BuildingBlock: UVAHIK_clean_linker_0, # of connection points: 2
#     Edge 115, Type (0, 0), BuildingBlock: UVAHIK_clean_linker_0, # of connection points: 2
#     Edge 116, Type (0, 0), BuildingBlock: UVAHIK_clean_linker_0, # of connection points: 2
#     Edge 117, Type (0, 0), BuildingBlock: UVAHIK_clean_linker_0, # of connection points: 2
#     Edge 118, Type (0, 0), BuildingBlock: UVAHIK_clean_linker_0, # of connection points: 2
#     Edge 119, Type (0, 0), BuildingBlock: UVAHIK_clean_linker_0, # of connection points: 2
#     Edge 120, Type (0, 0), BuildingBlock: UVAHIK_clean_linker_0, # of connection points: 2
#     Edge 121, Type (0, 0), BuildingBlock: UVAHIK_clean_linker_0, # of connection points: 2
#     Edge 122, Type (0, 0), BuildingBlock: UVAHIK_clean_linker_0, # of connection points: 2
#     Edge 123, Type (0, 0), BuildingBlock: UVAHIK_clean_linker_0, # of connection points: 2
#     Edge 124, Type (0, 0), BuildingBlock: UVAHIK_clean_linker_0, # of connection points: 2
#     Edge 125, Type (0, 0), BuildingBlock: UVAHIK_clean_linker_0, # of connection points: 2
#     Edge 126, Type (0, 0), BuildingBlock: UVAHIK_clean_linker_0, # of connection points: 2
#     Edge 127, Type (0, 0), BuildingBlock: UVAHIK_clean_linker_0, # of connection points: 2
#     Edge 128, Type (0, 0), BuildingBlock: UVAHIK_clean_linker_0, # of connection points: 2
#     Edge 129, Type (0, 0), BuildingBlock: UVAHIK_clean_linker_0, # of connection points: 2
#     Edge 130, Type (0, 0), BuildingBlock: UVAHIK_clean_linker_0, # of connection points: 2
#     Edge 131, Type (0, 0), BuildingBlock: UVAHIK_clean_linker_0, # of connection points: 2
#     Edge 132, Type (0, 0), BuildingBlock: UVAHIK_clean_linker_0, # of connection points: 2
#     Edge 133, Type (0, 0), BuildingBlock: UVAHIK_clean_linker_0, # of connection points: 2
#     Edge 134, Type (0, 0), BuildingBlock: UVAHIK_clean_linker_0, # of connection points: 2
#     Edge 135, Type (0, 0), BuildingBlock: UVAHIK_clean_linker_0, # of connection points: 2
#     Edge 136, Type (0, 0), BuildingBlock: UVAHIK_clean_linker_0, # of connection points: 2
#     Edge 137, Type (0, 0), BuildingBlock: UVAHIK_clean_linker_0, # of connection points: 2
#     Edge 138, Type (0, 0), BuildingBlock: UVAHIK_clean_linker_0, # of connection points: 2
#     Edge 139, Type (0, 0), BuildingBlock: UVAHIK_clean_linker_0, # of connection points: 2
#     Edge 140, Type (0, 0), BuildingBlock: UVAHIK_clean_linker_0, # of connection points: 2
#     Edge 141, Type (0, 0), BuildingBlock: UVAHIK_clean_linker_0, # of connection points: 2
#     Edge 142, Type (0, 0), BuildingBlock: UVAHIK_clean_linker_0, # of connection points: 2
#     Edge 143, Type (0, 0), BuildingBlock: UVAHIK_clean_linker_0, # of connection points: 2
# Relax obj value: 0.491
# Max RMSD: 0.222
# Mean RMSD: 0.222
data_MOF--net-wmz--node1-IZENUY_clean_sbu_0--edge1-UVAHIK_clean_linker_0
_symmetry_space_group_name_H-M    P1
_symmetry_Int_Tables_number       1
_symmetry_cell_setting            triclinic
loop_
_symmetry_equiv_pos_as_xyz
'x, y, z'
_cell_length_a     62.720758
_cell_length_b     62.778585
_cell_length_c     72.265911
_cell_angle_alpha  89.970122
_cell_angle_beta   90.052809
_cell_angle_gamma 120.08667
loop_
_atom_site_label
_atom_site_type_symbol
_atom_site_fract_x
_atom_site_fract_y
_atom_site_fract_z
_atom_type_partial_charge
Fe0 Fe 0.19 0.17174 0.12841 0.0
Fe1 Fe 0.16242 0.14018 0.09481 0.0
O2 O 0.18933 0.16458 0.10463 0.0
Fe3 Fe 0.21575 0.18192 0.09074 0.0
O4 O 0.22624 0.21059 0.10362 0.0
O5 O 0.19561 0.2025 0.12248 0.0
O6 O 0.15688 0.1617 0.12992 0.0
C7 C 0.14134 0.15889 0.11753 0.0
C8 C 0.23692 0.17702 0.12211 0.0
O9 O 0.14437 0.15439 0.10105 0.0
C10 C 0.19759 0.1334 0.07797 0.0
O11 O 0.18424 0.14127 0.1352 0.0
O12 O 0.15333 0.12128 0.11577 0.0
O13 O 0.23354 0.17299 0.105 0.0
O14 O 0.22321 0.18258 0.13141 0.0
C15 C 0.17995 0.17694 0.06686 0.0
O16 O 0.17859 0.12423 0.08799 0.0
O17 O 0.2101 0.1564 0.07544 0.0
C18 C 0.16632 0.12142 0.12921 0.0
O19 O 0.16697 0.15478 0.0721 0.0
O20 O 0.1994 0.19171 0.07538 0.0
C21 C 0.21349 0.21752 0.11256 0.0
Fe22 Fe 0.83527 0.01939 0.13505 0.0
Fe23 Fe 0.86583 0.02067 0.10169 0.0
O24 O 0.84238 0.02497 0.11122 0.0
Fe25 Fe 0.82606 0.03495 0.09706 0.0
O26 O 0.79714 0.01785 0.10992 0.0
O27 O 0.8039 0.99495 0.12944 0.0
O28 O 0.84372 0.99522 0.13709 0.0
C29 C 0.8455 0.98155 0.12499 0.0
C30 C 0.83207 0.06197 0.12807 0.0
O31 O 0.84995 0.98851 0.10837 0.0
C32 C 0.87512 0.0629 0.08402 0.0
O33 O 0.86642 0.04365 0.14123 0.0
O34 O 0.8847 0.02989 0.12274 0.0
O35 O 0.83604 0.06219 0.11098 0.0
O36 O 0.82585 0.04276 0.1376 0.0
C37 C 0.82925 0.00286 0.07356 0.0
O38 O 0.8833 0.05254 0.09446 0.0
O39 O 0.85215 0.05382 0.08175 0.0
C40 C 0.8857 0.04408 0.13555 0.0
O41 O 0.85121 0.01092 0.07892 0.0
O42 O 0.81512 0.00834 0.08208 0.0
C43 C 0.78944 0.99823 0.11915 0.0
Fe44 Fe 0.96608 0.7952 0.09413 0.0
Fe45 Fe 0.98409 0.81993 0.13219 0.0
O46 O 0.97363 0.82004 0.10938 0.0
Fe47 Fe 0.97051 0.845 0.10178 0.0
O48 O 0.99304 0.85228 0.08365 0.0
O49 O 0.97599 0.81435 0.07315 0.0
O50 O 0.99697 0.80048 0.09545 0.0
C51 C 0.00803 0.8007 0.11002 0.0
C52 C 0.92898 0.80403 0.08597 0.0
O53 O 1.00046 0.80313 0.12579 0.0
C54 C 0.95123 0.83837 0.13633 0.0
O55 O 0.95484 0.77165 0.11245 0.0
O56 O 0.9559 0.79184 0.13756 0.0
O57 O 0.9448 0.82675 0.08605 0.0
O58 O 0.93452 0.78842 0.09154 0.0
C59 C 0.01397 0.86822 0.12352 0.0
O60 O 0.96928 0.83654 0.14246 0.0
O61 O 0.94774 0.83872 0.11923 0.0
C62 C 0.94671 0.77213 0.1284 0.0
O63 O 0.01302 0.84845 0.12833 0.0
O64 O 0.99547 0.868 0.11632 0.0
C65 C 0.99061 0.83725 0.07109 0.0
Fe66 Fe 0.14644 0.15497 0.39151 0.0
Fe67 Fe 0.18585 0.20921 0.39532 0.0
O68 O 0.16914 0.18269 0.38149 0.0
Fe69 Fe 0.1753 0.18404 0.35753 0.0
O70 O 0.16685 0.15137 0.35541 0.0
O71 O 0.1623 0.13899 0.38422 0.0
O72 O 0.16239 0.16031 0.41388 0.0
C73 C 0.18476 0.1744 0.41834 0.0
C74 C 0.12494 0.1579 0.35809 0.0
O75 O 0.19804 0.19409 0.40962 0.0
C76 C 0.17829 0.22974 0.3648 0.0
O77 O 0.12909 0.16911 0.39932 0.0
O78 O 0.16051 0.20171 0.41157 0.0
O79 O 0.14392 0.17685 0.35206 0.0
O80 O 0.12652 0.14499 0.37092 0.0
C81 C 0.22159 0.2092 0.37234 0.0
O82 O 0.17458 0.22576 0.3819 0.0
O83 O 0.18451 0.21691 0.35505 0.0
C84 C 0.13749 0.18771 0.40968 0.0
O85 O 0.2141 0.22134 0.38149 0.0
O86 O 0.20678 0.19108 0.36252 0.0
C87 C 0.16575 0.13613 0.36746 0.0
Fe88 Fe 0.82124 0.99094 0.35734 0.0
Fe89 Fe 0.85091 0.996 0.39223 0.0
O90 O 0.82266 0.98821 0.38162 0.0
Fe91 Fe 0.79567 0.97799 0.39505 0.0
O92 O 0.78253 0.99168 0.37967 0.0
O93 O 0.81283 0.01469 0.36073 0.0
O94 O 0.85355 0.01586 0.35457 0.0
C95 C 0.86847 0.03156 0.36601 0.0
C96 C 0.77665 0.94734 0.36562 0.0
O97 O 0.86561 0.02704 0.38306 0.0
C98 C 0.81963 0.9553 0.41239 0.0
O99 O 0.82989 0.96757 0.35359 0.0
O100 O 0.86146 0.98455 0.37287 0.0
O101 O 0.78051 0.94903 0.38281 0.0
O102 O 0.7888 0.96593 0.35524 0.0
C103 C 0.82941 0.0154 0.41672 0.0
O104 O 0.83837 0.96563 0.40216 0.0
O105 O 0.80421 0.96268 0.41276 0.0
C106 C 0.84919 0.96898 0.36033 0.0
O107 O 0.84486 0.0085 0.4133 0.0
O108 O 0.80917 0.00628 0.4082 0.0
C109 C 0.79431 0.01108 0.37017 0.0
Fe110 Fe 0.01353 0.83305 0.36329 0.0
Fe111 Fe 0.02653 0.86879 0.39586 0.0
O112 O 0.02348 0.84152 0.3865 0.0
Fe113 Fe 0.03064 0.82288 0.40063 0.0
O114 O 0.99967 0.79766 0.39864 0.0
O115 O 0.99618 0.79946 0.36836 0.0
O116 O 0.98485 0.83329 0.36714 0.0
C117 C 0.98447 0.85215 0.37271 0.0
C118 C 0.05005 0.82116 0.36613 0.0
O119 O 1.00243 0.86872 0.38167 0.0
C120 C 0.06785 0.86805 0.41015 0.0
O121 O 0.0295 0.86529 0.35462 0.0
O122 O 0.04981 0.8871 0.3791 0.0
O123 O 0.04136 0.8114 0.38163 0.0
O124 O 0.04151 0.83273 0.35757 0.0
C125 C 0.00531 0.83749 0.42473 0.0
O126 O 0.05176 0.87447 0.4115 0.0
O127 O 0.06232 0.8473 0.40364 0.0
C128 C 0.04711 0.88465 0.36182 0.0
O129 O 0.00317 0.85142 0.41321 0.0
O130 O 0.02101 0.83074 0.42227 0.0
C131 C 0.98854 0.78827 0.38375 0.0
Fe132 Fe 0.84154 0.85876 0.8993 0.0
Fe133 Fe 0.78651 0.82105 0.90053 0.0
O134 O 0.8144 0.83682 0.88807 0.0
Fe135 Fe 0.81497 0.83037 0.8643 0.0
O136 O 0.84722 0.83715 0.86434 0.0
O137 O 0.85708 0.8418 0.89375 0.0
O138 O 0.83333 0.84286 0.92169 0.0
C139 C 0.81819 0.82073 0.92598 0.0
C140 C 0.84343 0.88064 0.86476 0.0
O141 O 0.79923 0.80782 0.91636 0.0
C142 C 0.7699 0.82998 0.86842 0.0
O143 O 0.82787 0.87726 0.90558 0.0
O144 O 0.79348 0.84649 0.91637 0.0
O145 O 0.82448 0.86219 0.85809 0.0
O146 O 0.85423 0.87851 0.87886 0.0
C147 C 0.78651 0.78428 0.87893 0.0
O148 O 0.77237 0.83346 0.88563 0.0
O149 O 0.78286 0.82289 0.85974 0.0
C150 C 0.80827 0.86936 0.91479 0.0
O151 O 0.77447 0.79289 0.8868 0.0
O152 O 0.80578 0.79835 0.86985 0.0
C153 C 0.86121 0.83798 0.87735 0.0
Fe154 Fe 0.1673 0.98913 0.85552 0.0
Fe155 Fe 0.14093 0.99607 0.88844 0.0
O156 O 0.16053 0.98609 0.87947 0.0
Fe157 Fe 0.17346 0.97309 0.89419 0.0
O158 O 0.20196 0.9852 0.88081 0.0
O159 O 0.19997 0.01036 0.86061 0.0
O160 O 0.16363 0.01629 0.85211 0.0
C161 C 0.16535 0.03245 0.86348 0.0
C162 C 0.1626 0.94316 0.86432 0.0
O163 O 0.16123 0.02723 0.8804 0.0
C164 C 0.12497 0.95351 0.90805 0.0
O165 O 0.13483 0.968 0.85013 0.0
O166 O 0.12174 0.98784 0.86757 0.0
O167 O 0.15888 0.94466 0.88126 0.0
O168 O 0.1717 0.96221 0.85417 0.0
C169 C 0.17776 0.01032 0.91616 0.0
O170 O 0.11935 0.96565 0.89718 0.0
O171 O 0.14715 0.95882 0.90999 0.0
C172 C 0.11757 0.9713 0.85574 0.0
O173 O 0.15665 0.00569 0.91076 0.0
O174 O 0.18878 1.00064 0.90832 0.0
C175 C 0.21246 0.0047 0.87125 0.0
Fe176 Fe 0.02529 0.15845 0.89069 0.0
Fe177 Fe 0.03348 0.21026 0.89619 0.0
O178 O 0.02555 0.18471 0.88168 0.0
Fe179 Fe 0.01801 0.18545 0.85817 0.0
O180 O 0.99583 0.15198 0.85668 0.0
O181 O 0.99286 0.13919 0.88538 0.0
O182 O 0.0162 0.16192 0.91409 0.0
C183 C 0.00571 0.17331 0.92006 0.0
C184 C 0.04656 0.16396 0.85562 0.0
O185 O 0.00798 0.19197 0.91171 0.0
C186 C 0.05804 0.23354 0.86478 0.0
O187 O 0.05779 0.1762 0.89653 0.0
O188 O 0.05508 0.20578 0.9105 0.0
O189 O 0.04366 0.18161 0.8506 0.0
O190 O 0.03443 0.15024 0.86897 0.0
C191 C 0.99416 0.20665 0.87512 0.0
O192 O 0.05935 0.22996 0.88178 0.0
O193 O 0.03916 0.21894 0.85538 0.0
C194 C 0.06681 0.19466 0.90712 0.0
O195 O 0.01358 0.21946 0.88439 0.0
O196 O 0.99202 0.18944 0.86476 0.0
C197 C 0.98423 0.13607 0.8692 0.0
Fe198 Fe 0.82152 0.79187 0.59576 0.0
Fe199 Fe 0.83502 0.81768 0.63382 0.0
O200 O 0.84196 0.81658 0.61014 0.0
Fe201 Fe 0.86961 0.84027 0.60074 0.0
O202 O 0.85304 0.84858 0.58454 0.0
O203 O 0.82863 0.81077 0.57474 0.0
O204 O 0.79738 0.79877 0.59979 0.0
C205 C 0.78888 0.79956 0.61532 0.0
C206 C 0.86503 0.79792 0.58349 0.0
O207 O 0.80107 0.80226 0.63008 0.0
C208 C 0.88643 0.83387 0.63365 0.0
O209 O 0.81082 0.76867 0.61428 0.0
O210 O 0.83365 0.78874 0.63833 0.0
O211 O 0.87324 0.82084 0.5837 0.0
O212 O 0.84442 0.78327 0.59045 0.0
C213 C 0.85513 0.86617 0.62509 0.0
O214 O 0.86785 0.83303 0.64155 0.0
O215 O 0.88735 0.8329 0.6163 0.0
C216 C 0.82077 0.76893 0.62962 0.0
O217 O 0.83623 0.84711 0.63095 0.0
O218 O 0.87142 0.86436 0.61606 0.0
C219 C 0.8379 0.83383 0.57284 0.0
Fe220 Fe 0.18422 0.01895 0.62916 0.0
Fe221 Fe 0.16224 0.02703 0.59374 0.0
O222 O 0.18671 0.02633 0.60521 0.0
Fe223 Fe 0.21362 0.03338 0.59248 0.0
O224 O 0.20983 0.00372 0.59745 0.0
O225 O 0.20172 0.00232 0.62729 0.0
O226 O 0.15611 0.98933 0.62592 0.0
C227 C 0.13676 0.9872 0.61879 0.0
C228 C 0.2324 0.05669 0.62686 0.0
O229 O 0.1379 0.00397 0.60844 0.0
C230 C 0.20386 0.06739 0.57781 0.0
O231 O 0.16656 0.03463 0.63481 0.0
O232 O 0.16575 0.05176 0.60835 0.0
O233 O 0.23496 0.0478 0.61189 0.0
O234 O 0.21162 0.04792 0.63446 0.0
C235 C 0.17469 0.00354 0.56814 0.0
O236 O 0.18159 0.0505 0.57686 0.0
O237 O 0.21931 0.06389 0.58639 0.0
C238 C 0.16455 0.05097 0.62576 0.0
O239 O 0.15789 0.0023 0.57849 0.0
O240 O 0.19702 0.01982 0.5708 0.0
C241 C 0.20746 0.9942 0.61314 0.0
Fe242 Fe 0.98175 0.16574 0.62716 0.0
Fe243 Fe 0.96752 0.131 0.59395 0.0
O244 O 0.97204 0.15865 0.60376 0.0
Fe245 Fe 0.96665 0.17891 0.59012 0.0
O246 O 0.9979 0.20325 0.59321 0.0
O247 O 1.00017 0.19957 0.62333 0.0
O248 O 0.00971 0.1646 0.6229 0.0
C249 C 0.00946 0.14564 0.61685 0.0
C250 C 0.94659 0.17939 0.62502 0.0
O251 O 0.99085 0.12933 0.6082 0.0
C252 C 0.92863 0.13547 0.57811 0.0
O253 O 0.96474 0.13308 0.63499 0.0
O254 O 0.94345 0.11327 0.61032 0.0
O255 O 0.95515 0.18942 0.60948 0.0
O256 O 0.95452 0.16695 0.63305 0.0
C257 C 0.99108 0.16284 0.56572 0.0
O258 O 0.94327 0.12714 0.57783 0.0
O259 O 0.93485 0.15577 0.58573 0.0
C260 C 0.94646 0.11445 0.6276 0.0
O261 O 0.99132 0.14761 0.57699 0.0
O262 O 0.97731 0.17198 0.56842 0.0
C263 C 0.00869 0.21152 0.60836 0.0
Fe264 Fe 0.84979 0.50145 0.46576 0.0
Fe265 Fe 0.82884 0.4769 0.42814 0.0
O266 O 0.853 0.49991 0.44144 0.0
Fe267 Fe 0.8806 0.52146 0.43016 0.0
O268 O 0.87602 0.54625 0.43706 0.0
O269 O 0.86784 0.53574 0.46646 0.0
O270 O 0.82239 0.50414 0.46343 0.0
C271 C 0.80331 0.48929 0.45459 0.0
C272 C 0.89785 0.51226 0.46349 0.0
O273 O 0.80399 0.47493 0.44264 0.0
C274 C 0.87148 0.47951 0.41282 0.0
O275 O 0.83116 0.46754 0.4689 0.0
O276 O 0.83013 0.453 0.44095 0.0
O277 O 0.9008 0.52621 0.44995 0.0
O278 O 0.8767 0.4985 0.4701 0.0
C279 C 0.84387 0.51616 0.40512 0.0
O280 O 0.84925 0.47428 0.41132 0.0
O281 O 0.88663 0.49758 0.42237 0.0
C282 C 0.82825 0.45015 0.45823 0.0
O283 O 0.82628 0.49973 0.41441 0.0
O284 O 0.86574 0.52116 0.40823 0.0
C285 C 0.87317 0.55121 0.45338 0.0
Fe286 Fe 0.49125 0.36329 0.4322 0.0
Fe287 Fe 0.50079 0.34675 0.46959 0.0
O288 O 0.50748 0.35262 0.44573 0.0
Fe289 Fe 0.53018 0.34783 0.43548 0.0
O290 O 0.51463 0.33849 0.41297 0.0
O291 O 0.47893 0.33651 0.41721 0.0
O292 O 0.46279 0.34713 0.44578 0.0
C293 C 0.4548 0.32701 0.45437 0.0
C294 C 0.53977 0.39031 0.41818 0.0
O295 O 0.46921 0.32298 0.46405 0.0
C296 C 0.55113 0.3701 0.46967 0.0
O297 O 0.50299 0.3906 0.4462 0.0
O298 O 0.49245 0.37093 0.47272 0.0
O299 O 0.54805 0.37976 0.42833 0.0
O300 O 0.51679 0.38142 0.41631 0.0
C301 C 0.50947 0.30829 0.45845 0.0
O302 O 0.53223 0.37012 0.47574 0.0
O303 O 0.54965 0.35649 0.45623 0.0
C304 C 0.50003 0.39059 0.46342 0.0
O305 O 0.50835 0.3219 0.47094 0.0
O306 O 0.51387 0.31565 0.44192 0.0
C307 C 0.49246 0.33067 0.40821 0.0
Fe308 Fe 0.63159 0.11575 0.42694 0.0
Fe309 Fe 0.64914 0.14711 0.46256 0.0
O310 O 0.63768 0.14244 0.43955 0.0
Fe311 Fe 0.6322 0.16448 0.42889 0.0
O312 O 0.65516 0.17037 0.41133 0.0
O313 O 0.63976 0.13131 0.4044 0.0
O314 O 0.66322 0.12377 0.42872 0.0
C315 C 0.67574 0.12844 0.44327 0.0
C316 C 0.59218 0.11959 0.41651 0.0
O317 O 0.6683 0.13255 0.45851 0.0
C318 C 0.613 0.16185 0.46312 0.0
O319 O 0.62268 0.09552 0.44723 0.0
O320 O 0.6227 0.11858 0.47003 0.0
O321 O 0.60695 0.14235 0.41425 0.0
O322 O 0.59925 0.10612 0.42405 0.0
C323 C 0.67523 0.19441 0.45012 0.0
O324 O 0.63185 0.16243 0.47024 0.0
O325 O 0.60919 0.15942 0.44592 0.0
C326 C 0.61469 0.09771 0.46276 0.0
O327 O 0.67633 0.17645 0.45688 0.0
O328 O 0.65608 0.19091 0.44165 0.0
C329 C 0.65433 0.15384 0.40089 0.0
Fe330 Fe 0.80397 0.48863 0.73065 0.0
Fe331 Fe 0.84037 0.54368 0.73575 0.0
O332 O 0.82615 0.51731 0.72142 0.0
Fe333 Fe 0.83443 0.5199 0.69776 0.0
O334 O 0.82852 0.4881 0.69544 0.0
O335 O 0.82179 0.47444 0.72394 0.0
O336 O 0.81884 0.49407 0.75333 0.0
C337 C 0.84069 0.50907 0.75842 0.0
C338 C 0.78413 0.49091 0.69619 0.0
O339 O 0.85318 0.52979 0.75076 0.0
C340 C 0.8328 0.56333 0.70471 0.0
O341 O 0.78437 0.50064 0.73808 0.0
O342 O 0.81389 0.53419 0.75092 0.0
O343 O 0.80289 0.51056 0.69078 0.0
O344 O 0.78549 0.47842 0.70942 0.0
C345 C 0.87927 0.54733 0.71482 0.0
O346 O 0.8283 0.55898 0.72171 0.0
O347 O 0.84122 0.55201 0.69541 0.0
C348 C 0.79128 0.51929 0.74823 0.0
O349 O 0.8694 0.55795 0.72303 0.0
O350 O 0.86638 0.52927 0.7042 0.0
C351 C 0.82704 0.47265 0.70742 0.0
Fe352 Fe 0.48522 0.31481 0.70036 0.0
Fe353 Fe 0.50779 0.30458 0.73451 0.0
O354 O 0.48311 0.30575 0.7239 0.0
Fe355 Fe 0.45614 0.29741 0.73696 0.0
O356 O 0.46004 0.32752 0.7339 0.0
O357 O 0.4668 0.33029 0.7038 0.0
O358 O 0.51261 0.34449 0.70453 0.0
C359 C 0.53211 0.3471 0.71173 0.0
C360 C 0.43756 0.27647 0.70198 0.0
O361 O 0.53192 0.32986 0.72095 0.0
C362 C 0.46604 0.26224 0.74873 0.0
O363 O 0.50392 0.30081 0.6931 0.0
O364 O 0.50517 0.28175 0.71829 0.0
O365 O 0.43496 0.28485 0.71721 0.0
O366 O 0.45836 0.28573 0.69434 0.0
C367 C 0.49466 0.32418 0.76262 0.0
O368 O 0.48841 0.27895 0.75 0.0
O369 O 0.45057 0.26653 0.741 0.0
C370 C 0.50653 0.28414 0.70099 0.0
O371 O 0.51146 0.32726 0.75152 0.0
O372 O 0.47234 0.30858 0.75916 0.0
C373 C 0.46173 0.3378 0.71862 0.0
Fe374 Fe 0.69155 0.17248 0.70197 0.0
Fe375 Fe 0.70949 0.21052 0.73321 0.0
O376 O 0.7039 0.18194 0.72456 0.0
Fe377 Fe 0.71092 0.16315 0.73858 0.0
O378 O 0.67949 0.13872 0.73787 0.0
O379 O 0.67345 0.13908 0.7079 0.0
O380 O 0.66424 0.17429 0.70739 0.0
C381 C 0.66523 0.19391 0.71266 0.0
C382 C 0.72692 0.15897 0.70298 0.0
O383 O 0.68466 0.21092 0.72002 0.0
C384 C 0.75014 0.20762 0.74717 0.0
O385 O 0.70769 0.20429 0.69228 0.0
O386 O 0.73167 0.22652 0.71523 0.0
O387 O 0.72003 0.1505 0.71915 0.0
O388 O 0.71802 0.1705 0.69487 0.0
C389 C 0.68917 0.18159 0.76342 0.0
O390 O 0.73545 0.21587 0.74802 0.0
O391 O 0.74312 0.18661 0.74053 0.0
C392 C 0.7268 0.22347 0.69821 0.0
O393 O 0.68762 0.19566 0.7517 0.0
O394 O 0.70283 0.17239 0.76047 0.0
C395 C 0.66683 0.12876 0.72368 0.0
Fe396 Fe 0.51001 0.19067 0.2336 0.0
Fe397 Fe 0.45578 0.15043 0.23546 0.0
O398 O 0.48309 0.168 0.22252 0.0
Fe399 Fe 0.48319 0.16259 0.19847 0.0
O400 O 0.51594 0.1711 0.19743 0.0
O401 O 0.52728 0.17602 0.22654 0.0
O402 O 0.50375 0.17361 0.25545 0.0
C403 C 0.48976 0.15103 0.25929 0.0
C404 C 0.5091 0.21292 0.1998 0.0
O405 O 0.47038 0.13795 0.25009 0.0
C406 C 0.43715 0.15956 0.20446 0.0
O407 O 0.49479 0.20712 0.24142 0.0
O408 O 0.46187 0.17469 0.2522 0.0
O409 O 0.49083 0.19402 0.193 0.0
O410 O 0.52073 0.2115 0.21363 0.0
C411 C 0.45707 0.1157 0.21211 0.0
O412 O 0.43983 0.16205 0.22174 0.0
O413 O 0.45048 0.15368 0.19496 0.0
C414 C 0.4754 0.19778 0.25099 0.0
O415 O 0.44456 0.12292 0.22104 0.0
O416 O 0.47581 0.13088 0.20302 0.0
C417 C 0.53097 0.17282 0.20989 0.0
Fe418 Fe 0.8372 0.31879 0.19951 0.0
Fe419 Fe 0.80388 0.31095 0.23285 0.0
O420 O 0.82985 0.31131 0.22322 0.0
Fe421 Fe 0.84823 0.30414 0.2377 0.0
O422 O 0.87466 0.33394 0.23376 0.0
O423 O 0.87116 0.33531 0.20343 0.0
O424 O 0.8387 0.34849 0.20178 0.0
C425 C 0.82098 0.35073 0.20765 0.0
C426 C 0.84714 0.28107 0.20391 0.0
O427 O 0.80421 0.3339 0.21725 0.0
C428 C 0.80288 0.27025 0.24989 0.0
O429 O 0.80434 0.30315 0.192 0.0
O430 O 0.78366 0.28624 0.21773 0.0
O431 O 0.85708 0.28986 0.21939 0.0
O432 O 0.83596 0.28984 0.19512 0.0
C433 C 0.83784 0.3345 0.25979 0.0
O434 O 0.79795 0.28745 0.25023 0.0
O435 O 0.82265 0.27366 0.24274 0.0
C436 C 0.78504 0.28698 0.20033 0.0
O437 O 0.8234 0.33592 0.24836 0.0
O438 O 0.84294 0.31741 0.25866 0.0
C439 C 0.88347 0.3436 0.21834 0.0
Fe440 Fe 0.68848 0.51607 0.19627 0.0
Fe441 Fe 0.70131 0.496 0.23054 0.0
O442 O 0.69772 0.51919 0.21984 0.0
Fe443 Fe 0.70358 0.54551 0.23283 0.0
O444 O 0.67253 0.53899 0.22931 0.0
O445 O 0.67074 0.5323 0.19928 0.0
O446 O 0.65991 0.48731 0.20064 0.0
C447 C 0.65922 0.46875 0.20804 0.0
C448 C 0.72445 0.5648 0.1979 0.0
O449 O 0.67768 0.47083 0.21672 0.0
C450 C 0.74094 0.53946 0.24544 0.0
O451 O 0.70492 0.49955 0.18932 0.0
O452 O 0.72532 0.50099 0.21453 0.0
O453 O 0.7154 0.56677 0.21304 0.0
O454 O 0.71638 0.54414 0.19024 0.0
C455 C 0.67828 0.5062 0.25803 0.0
O456 O 0.72571 0.51665 0.24637 0.0
O457 O 0.73521 0.55375 0.23751 0.0
C458 C 0.72286 0.49912 0.19721 0.0
O459 O 0.67748 0.49007 0.24719 0.0
O460 O 0.69271 0.5289 0.25491 0.0
C461 C 0.66214 0.53637 0.21394 0.0
Fe462 Fe 0.49553 0.15127 0.96722 0.0
Fe463 Fe 0.52184 0.18121 0.9329 0.0
O464 O 0.50175 0.1527 0.94325 0.0
Fe465 Fe 0.48781 0.12557 0.92985 0.0
O466 O 0.45945 0.11105 0.94359 0.0
O467 O 0.463 0.14036 0.96222 0.0
O468 O 0.50017 0.18274 0.96876 0.0
C469 C 0.4989 0.19654 0.95649 0.0
C470 C 0.4981 0.10811 0.9609 0.0
O471 O 0.50243 0.19361 0.93974 0.0
C472 C 0.53635 0.15187 0.91575 0.0
O473 O 0.52801 0.16226 0.97255 0.0
O474 O 0.54138 0.1937 0.95349 0.0
O475 O 0.50187 0.11208 0.94381 0.0
O476 O 0.49002 0.11964 0.97032 0.0
C477 C 0.48429 0.15714 0.90593 0.0
O478 O 0.54249 0.17063 0.92558 0.0
O479 O 0.51389 0.13556 0.91385 0.0
C480 C 0.54546 0.18218 0.96611 0.0
O481 O 0.50593 0.17348 0.91046 0.0
O482 O 0.47287 0.13739 0.91495 0.0
C483 C 0.4498 0.12152 0.95239 0.0
Fe484 Fe 0.88086 0.36005 0.92918 0.0
Fe485 Fe 0.84996 0.34364 0.96449 0.0
O486 O 0.85222 0.34918 0.94035 0.0
Fe487 Fe 0.82615 0.34368 0.92748 0.0
O488 O 0.83545 0.33385 0.9065 0.0
O489 O 0.86878 0.33288 0.91466 0.0
O490 O 0.89152 0.34487 0.94524 0.0
C491 C 0.87835 0.32434 0.95302 0.0
C492 C 0.8612 0.38619 0.91119 0.0
O493 O 0.85867 0.32 0.96109 0.0
C494 C 0.82259 0.36626 0.96033 0.0
O495 O 0.89423 0.3877 0.9429 0.0
O496 O 0.88203 0.36838 0.9695 0.0
O497 O 0.84099 0.37545 0.91975 0.0
O498 O 0.87543 0.37738 0.91124 0.0
C499 C 0.80404 0.3048 0.951 0.0
O500 O 0.8407 0.36665 0.96844 0.0
O501 O 0.81271 0.35274 0.94627 0.0
C502 C 0.89552 0.3879 0.96029 0.0
O503 O 0.81748 0.31857 0.964 0.0
O504 O 0.80941 0.3116 0.9344 0.0
C505 C 0.85057 0.32627 0.90403 0.0
Fe506 Fe 0.65346 0.50017 0.97173 0.0
Fe507 Fe 0.65263 0.46923 0.93888 0.0
O508 O 0.6469 0.49181 0.94814 0.0
Fe509 Fe 0.63461 0.50585 0.93392 0.0
O510 O 0.65098 0.53559 0.94574 0.0
O511 O 0.67592 0.5319 0.96528 0.0
O512 O 0.67953 0.49414 0.97302 0.0
C513 C 0.69321 0.49351 0.96031 0.0
C514 C 0.60886 0.50029 0.96553 0.0
O515 O 0.68514 0.48795 0.944 0.0
C516 C 0.60818 0.45576 0.92312 0.0
O517 O 0.63109 0.46873 0.97888 0.0
O518 O 0.64663 0.45211 0.96059 0.0
O519 O 0.6081 0.49531 0.94861 0.0
O520 O 0.62849 0.50744 0.97482 0.0
C521 C 0.66598 0.50335 0.90939 0.0
O522 O 0.62039 0.44935 0.93326 0.0
O523 O 0.61595 0.47831 0.91983 0.0
C524 C 0.6322 0.45013 0.97353 0.0
O525 O 0.65945 0.48205 0.91546 0.0
O526 O 0.6604 0.51732 0.91799 0.0
C527 C 0.67091 0.54502 0.95484 0.0
Fe528 Fe 0.51664 0.8373 0.80338 0.0
Fe529 Fe 0.48478 0.81266 0.76936 0.0
O530 O 0.51389 0.83222 0.77921 0.0
Fe531 Fe 0.5405 0.847 0.76517 0.0
O532 O 0.55569 0.87446 0.77984 0.0
O533 O 0.52698 0.86999 0.79946 0.0
O534 O 0.48515 0.83195 0.80681 0.0
C535 C 0.47051 0.83363 0.79563 0.0
C536 C 0.55939 0.83515 0.79451 0.0
O537 O 0.47232 0.83104 0.77855 0.0
C538 C 0.5135 0.79977 0.74914 0.0
O539 O 0.50622 0.80479 0.80753 0.0
O540 O 0.47382 0.79143 0.7892 0.0
O541 O 0.55453 0.83208 0.77748 0.0
O542 O 0.54851 0.84304 0.80486 0.0
C543 C 0.50749 0.85243 0.7439 0.0
O544 O 0.49505 0.79285 0.7595 0.0
O545 O 0.52986 0.82225 0.74808 0.0
C546 C 0.48612 0.78738 0.80125 0.0
O547 O 0.49108 0.83058 0.74793 0.0
O548 O 0.52813 0.86275 0.75189 0.0
C549 C 0.54547 0.88369 0.78944 0.0
Fe550 Fe 0.15453 0.70332 0.76159 0.0
Fe551 Fe 0.16814 0.69097 0.79955 0.0
O552 O 0.1756 0.70036 0.77614 0.0
Fe553 Fe 0.20433 0.70693 0.76718 0.0
O554 O 0.1898 0.68253 0.75028 0.0
O555 O 0.16388 0.69396 0.74039 0.0
O556 O 0.1321 0.67134 0.76465 0.0
C557 C 0.12351 0.66091 0.77987 0.0
C558 C 0.19697 0.7435 0.75072 0.0
O559 O 0.13459 0.67055 0.79499 0.0
C560 C 0.21852 0.72896 0.80072 0.0
O561 O 0.1415 0.71324 0.78023 0.0
O562 O 0.1643 0.71705 0.80454 0.0
O563 O 0.20676 0.73014 0.75068 0.0
O564 O 0.17578 0.73565 0.7573 0.0
C565 C 0.19164 0.6659 0.79046 0.0
O566 O 0.20049 0.71004 0.80805 0.0
O567 O 0.22002 0.73163 0.78344 0.0
C568 C 0.15071 0.72298 0.79572 0.0
O569 O 0.17181 0.66424 0.79607 0.0
O570 O 0.20751 0.68505 0.78209 0.0
C571 C 0.17467 0.6816 0.73835 0.0
Fe572 Fe 0.31713 0.48648 0.79265 0.0
Fe573 Fe 0.31413 0.50863 0.75539 0.0
O574 O 0.31166 0.48366 0.76838 0.0
Fe575 Fe 0.30345 0.45571 0.75671 0.0
O576 O 0.33202 0.45782 0.76316 0.0
O577 O 0.33207 0.46725 0.79265 0.0
O578 O 0.34787 0.51324 0.79023 0.0
C579 C 0.35266 0.53267 0.78169 0.0
C580 C 0.27758 0.43927 0.79027 0.0
O581 O 0.33776 0.53269 0.76994 0.0
C582 C 0.27233 0.46784 0.73995 0.0
O583 O 0.30307 0.50604 0.79629 0.0
O584 O 0.28974 0.50857 0.76853 0.0
O585 O 0.28729 0.4356 0.77626 0.0
O586 O 0.28679 0.46036 0.79738 0.0
C587 C 0.33667 0.49184 0.73232 0.0
O588 O 0.29055 0.48943 0.73839 0.0
O589 O 0.27409 0.45195 0.74942 0.0
C590 C 0.28899 0.50998 0.7859 0.0
O591 O 0.33885 0.50985 0.74158 0.0
O592 O 0.31844 0.47052 0.7349 0.0
C593 C 0.34054 0.46049 0.77927 0.0
Fe594 Fe 0.50263 0.85265 0.02783 0.0
Fe595 Fe 0.47755 0.82396 0.063 0.0
O596 O 0.49811 0.85189 0.05202 0.0
Fe597 Fe 0.51442 0.87927 0.06507 0.0
O598 O 0.54162 0.89242 0.05006 0.0
O599 O 0.5351 0.86196 0.03161 0.0
O600 O 0.49615 0.82063 0.026 0.0
C601 C 0.49666 0.80606 0.03792 0.0
C602 C 0.5029 0.89714 0.03488 0.0
O603 O 0.49433 0.80922 0.05486 0.0
C604 C 0.46729 0.85557 0.0817 0.0
O605 O 0.47021 0.84305 0.0236 0.0
O606 O 0.45604 0.81218 0.0434 0.0
O607 O 0.50046 0.89371 0.0521 0.0
O608 O 0.50953 0.88478 0.02495 0.0
C609 C 0.51778 0.84681 0.08814 0.0
O610 O 0.45922 0.83659 0.07176 0.0
O611 O 0.49013 0.87097 0.0824 0.0
C612 C 0.45243 0.8237 0.03049 0.0
O613 O 0.49549 0.83121 0.08453 0.0
O614 O 0.5293 0.86638 0.0789 0.0
C615 C 0.54972 0.88085 0.04086 0.0
Fe616 Fe 0.17928 0.64646 0.06412 0.0
Fe617 Fe 0.12451 0.62793 0.06984 0.0
O618 O 0.15072 0.64098 0.05541 0.0
Fe619 Fe 0.14816 0.64846 0.03217 0.0
O620 O 0.18026 0.67446 0.03058 0.0
O621 O 0.19365 0.67907 0.05915 0.0
O622 O 0.1739 0.65354 0.08769 0.0
C623 C 0.15894 0.65969 0.09407 0.0
C624 C 0.17704 0.62745 0.02841 0.0
O625 O 0.13876 0.65327 0.08604 0.0
C626 C 0.10404 0.60313 0.03798 0.0
O627 O 0.1669 0.61413 0.06961 0.0
O628 O 0.13379 0.60947 0.08352 0.0
O629 O 0.15725 0.62671 0.02363 0.0
O630 O 0.18949 0.64025 0.04208 0.0
C631 C 0.12136 0.66506 0.05108 0.0
O632 O 0.10883 0.60177 0.0547 0.0
O633 O 0.11572 0.62344 0.02932 0.0
C634 C 0.14843 0.60174 0.07982 0.0
O635 O 0.11058 0.64408 0.05864 0.0
O636 O 0.13908 0.67064 0.04002 0.0
C637 C 0.19583 0.68737 0.04295 0.0
Fe638 Fe 0.37058 0.49595 0.06563 0.0
Fe639 Fe 0.35359 0.50488 0.02795 0.0
O640 O 0.36498 0.51489 0.05068 0.0
Fe641 Fe 0.37104 0.54394 0.0585 0.0
O642 O 0.34886 0.53033 0.07715 0.0
O643 O 0.36334 0.50689 0.08688 0.0
O644 O 0.33863 0.47266 0.06478 0.0
C645 C 0.32679 0.46223 0.05035 0.0
C646 C 0.41072 0.54006 0.07338 0.0
O647 O 0.33483 0.47171 0.03447 0.0
C648 C 0.38928 0.55563 0.02361 0.0
O649 O 0.37886 0.48154 0.04707 0.0
O650 O 0.38033 0.50226 0.02221 0.0
O651 O 0.39667 0.5491 0.07358 0.0
O652 O 0.40306 0.51847 0.06767 0.0
C653 C 0.32738 0.52721 0.03705 0.0
O654 O 0.37035 0.53634 0.01765 0.0
O655 O 0.39364 0.55899 0.04065 0.0
C656 C 0.38786 0.4902 0.03134 0.0
O657 O 0.32629 0.50735 0.03222 0.0
O658 O 0.34666 0.54425 0.04461 0.0
C659 C 0.35069 0.51719 0.08957 0.0
Fe660 Fe 0.18248 0.52621 0.559 0.0
Fe661 Fe 0.127 0.49157 0.56347 0.0
O662 O 0.15346 0.50588 0.54932 0.0
Fe663 Fe 0.15059 0.49946 0.52532 0.0
O664 O 0.18202 0.50459 0.52234 0.0
O665 O 0.19536 0.50772 0.55075 0.0
O666 O 0.1762 0.50956 0.58104 0.0
C667 C 0.1601 0.48786 0.58567 0.0
C668 C 0.18118 0.5495 0.52593 0.0
O669 O 0.13974 0.4765 0.57731 0.0
C670 C 0.10803 0.50227 0.53352 0.0
O671 O 0.17189 0.54629 0.56794 0.0
O672 O 0.13759 0.51693 0.57997 0.0
O673 O 0.16107 0.53175 0.51998 0.0
O674 O 0.19331 0.54627 0.53858 0.0
C675 C 0.12192 0.45378 0.5406 0.0
O676 O 0.11284 0.5059 0.55055 0.0
O677 O 0.11873 0.49378 0.52355 0.0
C678 C 0.15368 0.53944 0.57857 0.0
O679 O 0.11176 0.46366 0.54943 0.0
O680 O 0.14024 0.46692 0.53026 0.0
C681 C 0.19715 0.50425 0.53379 0.0
Fe682 Fe 0.46635 0.63306 0.56429 0.0
Fe683 Fe 0.51495 0.63359 0.56799 0.0
O684 O 0.49376 0.63744 0.55423 0.0
Fe685 Fe 0.49973 0.64534 0.53047 0.0
O686 O 0.49823 0.67334 0.53357 0.0
O687 O 0.4637 0.65517 0.54932 0.0
O688 O 0.48326 0.65796 0.58036 0.0
C689 C 0.4986 0.65832 0.59182 0.0
C690 C 0.44856 0.60952 0.53158 0.0
O691 O 0.5081 0.64481 0.58946 0.0
C692 C 0.51458 0.61125 0.53412 0.0
O693 O 0.46361 0.60993 0.58102 0.0
O694 O 0.49256 0.60186 0.57319 0.0
O695 O 0.46667 0.62735 0.52333 0.0
O696 O 0.44826 0.60791 0.54892 0.0
C697 C 0.54634 0.67422 0.54821 0.0
O698 O 0.52558 0.62173 0.54898 0.0
O699 O 0.50115 0.61783 0.52584 0.0
C700 C 0.47205 0.59539 0.58057 0.0
O701 O 0.5385 0.66489 0.56386 0.0
O702 O 0.53378 0.66436 0.53363 0.0
C703 C 0.47945 0.67327 0.53993 0.0
Fe704 Fe 0.35277 0.84887 0.53494 0.0
Fe705 Fe 0.36209 0.82919 0.57106 0.0
O706 O 0.36106 0.85287 0.5587 0.0
Fe707 Fe 0.36858 0.88057 0.5704 0.0
O708 O 0.33854 0.8762 0.56591 0.0
O709 O 0.33622 0.8665 0.53633 0.0
O710 O 0.32322 0.82112 0.53929 0.0
C711 C 0.32147 0.80217 0.5468 0.0
C712 C 0.39066 0.897 0.5355 0.0
O713 O 0.33842 0.80393 0.55729 0.0
C714 C 0.40328 0.87201 0.58512 0.0
O715 O 0.3682 0.83082 0.52984 0.0
O716 O 0.38619 0.83143 0.55625 0.0
O717 O 0.38183 0.90049 0.55013 0.0
O718 O 0.38166 0.87579 0.52863 0.0
C719 C 0.33985 0.84372 0.59623 0.0
O720 O 0.38648 0.8498 0.58705 0.0
O721 O 0.39936 0.8867 0.57586 0.0
C722 C 0.38473 0.82912 0.53889 0.0
O723 O 0.33787 0.82609 0.58651 0.0
O724 O 0.35642 0.86565 0.5928 0.0
C725 C 0.32835 0.87273 0.55037 0.0
Fe726 Fe 0.17315 0.48607 0.30345 0.0
Fe727 Fe 0.20268 0.52141 0.27222 0.0
O728 O 0.18261 0.4912 0.28001 0.0
Fe729 Fe 0.17195 0.46603 0.2647 0.0
O730 O 0.14193 0.44866 0.27602 0.0
O731 O 0.14097 0.47426 0.29635 0.0
O732 O 0.17598 0.51656 0.30697 0.0
C733 C 0.17517 0.5314 0.29548 0.0
C734 C 0.17921 0.44541 0.29531 0.0
O735 O 0.18099 0.53114 0.27886 0.0
C736 C 0.22175 0.49657 0.25401 0.0
O737 O 0.20511 0.49765 0.31079 0.0
O738 O 0.21943 0.53153 0.29424 0.0
O739 O 0.1853 0.45189 0.27878 0.0
O740 O 0.16889 0.45479 0.30468 0.0
C741 C 0.16954 0.49953 0.24209 0.0
O742 O 0.2257 0.5138 0.26496 0.0
O743 O 0.20007 0.47926 0.25084 0.0
C744 C 0.22269 0.51868 0.30621 0.0
O745 O 0.18957 0.51625 0.24893 0.0
O746 O 0.15805 0.47846 0.24934 0.0
C747 C 0.12999 0.45673 0.28485 0.0
Fe748 Fe 0.52303 0.68956 0.29174 0.0
Fe749 Fe 0.50085 0.70123 0.25803 0.0
O750 O 0.5254 0.69949 0.26841 0.0
Fe751 Fe 0.55224 0.70803 0.25514 0.0
O752 O 0.54869 0.67805 0.25774 0.0
O753 O 0.54036 0.67305 0.28767 0.0
O754 O 0.49471 0.66037 0.28734 0.0
C755 C 0.4753 0.65936 0.28136 0.0
C756 C 0.57135 0.72755 0.29036 0.0
O757 O 0.47658 0.67695 0.27202 0.0
C758 C 0.54239 0.74324 0.24366 0.0
O759 O 0.50554 0.70474 0.29936 0.0
O760 O 0.50438 0.72446 0.27435 0.0
O761 O 0.57366 0.72024 0.27461 0.0
O762 O 0.55069 0.71789 0.29829 0.0
C763 C 0.51339 0.68052 0.23029 0.0
O764 O 0.52015 0.72637 0.24218 0.0
O765 O 0.55778 0.73899 0.25151 0.0
C766 C 0.50338 0.72186 0.29169 0.0
O767 O 0.49649 0.67789 0.24118 0.0
O768 O 0.53557 0.69698 0.23316 0.0
C769 C 0.5467 0.66699 0.27271 0.0
Fe770 Fe 0.31379 0.83239 0.30246 0.0
Fe771 Fe 0.30749 0.79795 0.27031 0.0
O772 O 0.30577 0.82321 0.27916 0.0
Fe773 Fe 0.29591 0.83923 0.26466 0.0
O774 O 0.31452 0.86884 0.27613 0.0
O775 O 0.33839 0.86296 0.29516 0.0
O776 O 0.3375 0.8231 0.30374 0.0
C777 C 0.34926 0.81935 0.29105 0.0
C778 C 0.27159 0.83694 0.29633 0.0
O779 O 0.34014 0.813 0.27507 0.0
C780 C 0.2646 0.78959 0.25448 0.0
O781 O 0.28953 0.80236 0.31063 0.0
O782 O 0.29991 0.78115 0.29228 0.0
O783 O 0.26999 0.83156 0.27942 0.0
O784 O 0.29116 0.84285 0.30541 0.0
C785 C 0.32503 0.83212 0.24076 0.0
O786 O 0.27479 0.78135 0.26505 0.0
O787 O 0.2752 0.81232 0.25069 0.0
C788 C 0.28764 0.78218 0.30574 0.0
O789 O 0.31543 0.81025 0.24673 0.0
O790 O 0.32148 0.84781 0.24891 0.0
C791 C 0.33466 0.87698 0.28473 0.0
C792 C 0.20563 0.02226 0.94396 0.0
C793 C 0.18712 0.02357 0.93384 0.0
C794 C 0.21123 0.03145 0.96206 0.0
C795 C 0.22531 0.06557 0.99698 0.0
H796 H 0.16682 0.04841 0.02596 0.0
C797 C 0.22108 0.12715 0.05277 0.0
C798 C 0.203 0.11709 0.06666 0.0
C799 C 0.22364 0.11189 0.04006 0.0
C800 C 0.18345 0.05294 0.01838 0.0
H801 H 0.1615 0.0373 0.93416 0.0
H802 H 0.17131 0.05326 0.96546 0.0
H803 H 0.16272 0.02962 0.99592 0.0
H804 H 0.17538 0.08306 0.07944 0.0
H805 H 0.18011 0.05634 0.05734 0.0
H806 H 0.24601 0.08957 0.01929 0.0
C807 C 0.18103 0.04462 0.95964 0.0
C808 C 0.18103 0.04239 0.00103 0.0
C809 C 0.17553 0.0356 0.94168 0.0
C810 C 0.1891 0.09138 0.06863 0.0
C811 C 0.19182 0.07608 0.05597 0.0
C812 C 0.22777 0.07619 0.01444 0.0
C813 C 0.1983 0.04192 0.97021 0.0
C814 C 0.2018 0.04946 0.98984 0.0
C815 C 0.20833 0.08621 0.04105 0.0
C816 C 0.20675 0.07077 0.02498 0.0
H817 H 0.21496 0.01318 0.93824 0.0
H818 H 0.2248 0.02941 0.96993 0.0
H819 H 0.2416 0.07114 0.98862 0.0
H820 H 0.23235 0.14689 0.051 0.0
H821 H 0.23641 0.1204 0.0287 0.0
C822 C 0.00447 0.15815 0.95192 0.0
C823 C 0.99478 0.16732 0.93867 0.0
C824 C 0.99422 0.15183 0.96952 0.0
C825 C 0.95081 0.1565 0.0021 0.0
H826 H 0.94664 0.09716 0.02205 0.0
C827 C 0.88341 0.09358 0.05894 0.0
C828 C 0.89233 0.08288 0.07162 0.0
C829 C 0.89866 0.10909 0.04497 0.0
C830 C 0.94804 0.114 0.01684 0.0
H831 H 0.96727 0.17779 0.93346 0.0
H832 H 0.94831 0.16547 0.96414 0.0
H833 H 0.96695 0.11315 0.99268 0.0
H834 H 0.92491 0.08203 0.08072 0.0
H835 H 0.95139 0.1089 0.05617 0.0
H836 H 0.93051 0.15624 0.02612 0.0
C837 C 0.96428 0.16376 0.96106 0.0
C838 C 0.95973 0.12324 -3e-05 0.0
C839 C 0.97496 0.17063 0.94347 0.0
C840 C 0.91734 0.08964 0.071 0.0
C841 C 0.93252 0.10501 0.05696 0.0
C842 C 0.93874 0.14699 0.01895 0.0
C843 C 0.97361 0.15392 0.9742 0.0
C844 C 0.96134 0.14463 0.99237 0.0
C845 C 0.92303 0.11408 0.04342 0.0
C846 C 0.93731 0.12566 0.02644 0.0
H847 H 0.02016 0.15598 0.94873 0.0
H848 H 1.00242 0.14509 0.97943 0.0
H849 H 0.95192 0.17314 0.99675 0.0
H850 H 0.8643 0.08899 0.05919 0.0
H851 H 0.8909 0.11582 0.03467 0.0
C852 C 0.82042 0.7904 0.94721 0.0
C853 C 0.81999 0.8123 0.94451 0.0
C854 C 0.82547 0.78459 0.96482 0.0
C855 C 0.85775 0.81778 0.00705 0.0
H856 H 0.83395 0.75287 0.02806 0.0
C857 C 0.89519 0.81085 0.07584 0.0
C858 C 0.9061 0.79609 0.07551 0.0
C859 C 0.87775 0.80772 0.06255 0.0
C860 C 0.84063 0.77108 0.02234 0.0
H861 H 0.82198 0.84407 0.9579 0.0
H862 H 0.82952 0.83348 0.98862 0.0
H863 H 0.81633 0.75728 -0.00111 0.0
H864 H 0.9058 0.76495 0.06233 0.0
H865 H 0.8757 0.7599 0.03862 0.0
H866 H 0.88226 0.8317 0.02999 0.0
C867 C 0.82719 0.82129 0.97723 0.0
C868 C 0.83065 0.7736 0.00565 0.0
C869 C 0.82277 0.82733 0.95969 0.0
C870 C 0.89757 0.77654 0.06284 0.0
C871 C 0.88032 0.77363 0.0493 0.0
C872 C 0.86747 0.81529 0.02363 0.0
C873 C 0.82969 0.80046 0.97989 0.0
C874 C 0.83914 0.79706 -0.00215 0.0
C875 C 0.87132 0.7901 0.04847 0.0
C876 C 0.85908 0.79199 0.03151 0.0
H877 H 0.81817 0.77854 0.93559 0.0
H878 H 0.82731 0.76843 0.96639 0.0
H879 H 0.86539 0.83605 0.00119 0.0
H880 H 0.90128 0.82584 0.08566 0.0
H881 H 0.87065 0.82029 0.06249 0.0
C882 C 0.09474 0.17555 0.41967 0.0
C883 C 0.12033 0.19059 0.42199 0.0
C884 C 0.07853 0.17564 0.43283 0.0
C885 C 0.05349 0.16371 0.47002 0.0
H886 H 0.06271 0.22038 0.49809 0.0
C887 C 0.01693 0.15487 0.54366 0.0
C888 C 0.00494 0.16798 0.54821 0.0
C889 C 0.02935 0.15907 0.52689 0.0
C890 C 0.05975 0.20443 0.49023 0.0
H891 H 0.1489 0.21889 0.43915 0.0
H892 H 0.1206 0.21873 0.46225 0.0
H893 H 0.0868 0.22648 0.46993 0.0
H894 H 0.99708 0.19623 0.53891 0.0
H895 H 0.01899 0.20361 0.50953 0.0
H896 H 0.02682 0.14164 0.49041 0.0
C897 C 0.11305 0.20699 0.45022 0.0
C898 C 0.07362 0.20791 0.47422 0.0
C899 C 0.12929 0.20696 0.43703 0.0
C900 C 0.00604 0.18573 0.53576 0.0
C901 C 0.01864 0.19005 0.519 0.0
C902 C 0.03976 0.16025 0.48602 0.0
C903 C 0.08757 0.19074 0.44856 0.0
C904 C 0.07091 0.18754 0.46414 0.0
C905 C 0.03018 0.17656 0.51434 0.0
C906 C 0.04313 0.18053 0.49649 0.0
H907 H 0.08722 0.16304 0.40805 0.0
H908 H 0.05893 0.16326 0.43102 0.0
H909 H 0.05117 0.14763 0.46271 0.0
H910 H 0.01657 0.14115 0.55297 0.0
H911 H 0.03847 0.1487 0.52378 0.0
C912 C 0.81748 0.82758 0.54194 0.0
C913 C 0.83341 0.84363 0.55561 0.0
C914 C 0.81424 0.83685 0.52526 0.0
C915 C 0.84544 0.89092 0.49514 0.0
H916 H 0.78077 0.86752 0.47362 0.0
C917 C 0.79953 0.92827 0.43985 0.0
C918 C 0.81763 0.93678 0.42596 0.0
C919 C 0.79954 0.91314 0.454 0.0
C920 C 0.79893 0.87417 0.47947 0.0
H921 H 0.85787 0.88202 0.56268 0.0
H922 H 0.85212 0.8981 0.53364 0.0
H923 H 0.78471 0.84932 0.50245 0.0
H924 H 0.84879 0.93457 0.41523 0.0
H925 H 0.84867 0.90803 0.43987 0.0
H926 H 0.85967 0.91626 0.47261 0.0
C927 C 0.84243 0.87836 0.53573 0.0
C928 C 0.8012 0.86366 0.49587 0.0
C929 C 0.84561 0.86913 0.55241 0.0
C930 C 0.83482 0.92865 0.42589 0.0
C931 C 0.83481 0.9135 0.44002 0.0
C932 C 0.8432 0.90134 0.47876 0.0
C933 C 0.82694 0.86231 0.52192 0.0
C934 C 0.82445 0.87225 0.504 0.0
C935 C 0.81761 0.90618 0.45449 0.0
C936 C 0.8199 0.89331 0.47088 0.0
H937 H 0.80775 0.80783 0.544 0.0
H938 H 0.80226 0.82407 0.51481 0.0
H939 H 0.86363 0.89764 0.50097 0.0
H940 H 0.78593 0.93409 0.44024 0.0
H941 H 0.78616 0.90793 0.46503 0.0
C942 C 0.1031 0.90834 0.41878 0.0
C943 C 0.09095 0.88264 0.42027 0.0
C944 C 0.12001 0.923 0.43224 0.0
C945 C 0.15131 0.9232 0.47605 0.0
H946 H 0.12733 0.9665 0.49187 0.0
C947 C 0.1434 0.97414 0.54571 0.0
C948 C 0.1681 0.9882 0.55131 0.0
C949 C 0.13744 0.96127 0.52903 0.0
C950 C 0.1342 0.95449 0.48764 0.0
H951 H 0.08846 0.85189 0.43566 0.0
H952 H 0.11755 0.87753 0.45965 0.0
H953 H 0.11421 0.94563 0.46232 0.0
H954 H 0.2058 0.99866 0.54435 0.0
H955 H 0.19522 0.97603 0.51515 0.0
H956 H 0.17073 0.93176 0.50195 0.0
C957 C 0.11446 0.88643 0.44795 0.0
C958 C 0.12703 0.94282 0.47056 0.0
C959 C 0.09781 0.87174 0.43424 0.0
C960 C 0.1866 0.9882 0.5403 0.0
C961 C 0.18059 0.97514 0.52367 0.0
C962 C 0.15869 0.93511 0.49319 0.0
C963 C 0.12449 0.91212 0.44764 0.0
C964 C 0.1352 0.92679 0.46466 0.0
C965 C 0.15602 0.96205 0.51771 0.0
C966 C 0.14972 0.95043 0.49925 0.0
H967 H 0.09812 0.91705 0.40799 0.0
H968 H 0.12795 0.94278 0.43143 0.0
H969 H 0.15784 0.9109 0.47185 0.0
H970 H 0.1287 0.97358 0.55394 0.0
H971 H 0.11829 0.95097 0.52483 0.0
C972 C 0.7966 0.97567 0.0508 0.0
C973 C 0.82162 0.99039 0.05549 0.0
C974 C 0.78985 0.96428 0.03344 0.0
C975 C 0.81281 0.96819 0.98614 0.0
H976 H 0.77424 0.89694 0.98557 0.0
C977 C 0.82413 0.91001 0.93055 0.0
C978 C 0.80443 0.88646 0.92642 0.0
C979 C 0.82136 0.92462 0.9438 0.0
C980 C 0.78448 0.91687 0.98529 0.0
H981 H 0.85912 0.00521 0.0456 0.0
H982 H 0.84732 0.98564 0.01542 0.0
H983 H 0.77784 0.91908 0.01411 0.0
H984 H 0.76579 0.86062 0.93163 0.0
H985 H 0.7608 0.88638 0.95442 0.0
H986 H 0.82004 0.96608 0.95749 0.0
C987 C 0.83296 0.98286 0.0251 0.0
C988 C 0.78656 0.92951 0.00169 0.0
C989 C 0.83969 0.99382 0.04246 0.0
C990 C 0.78143 0.87855 0.93478 0.0
C991 C 0.77859 0.89326 0.94788 0.0
C992 C 0.81052 0.9556 0.96968 0.0
C993 C 0.80803 0.96795 0.02044 0.0
C994 C 0.80153 0.95518 0.00241 0.0
C995 C 0.79875 0.91609 0.95302 0.0
C996 C 0.79715 0.92973 0.96926 0.0
H997 H 0.78232 0.97275 0.06059 0.0
H998 H 0.7705 0.95271 0.03013 0.0
H999 H 0.82423 0.98807 0.98634 0.0
H1000 H 0.84207 0.91665 0.92432 0.0
H1001 H 0.83739 0.94198 0.94753 0.0
C1002 C 0.01788 0.87195 0.04994 0.0
C1003 C 1.00233 0.8466 0.05289 0.0
C1004 C 0.02808 0.88076 0.03251 0.0
C1005 C 0.04369 0.86188 0.98879 0.0
H1006 H 0.04884 0.92243 0.97064 0.0
C1007 C 0.08268 0.93291 0.92208 0.0
C1008 C 0.10625 0.93553 0.92087 0.0
C1009 C 0.06639 0.91843 0.93601 0.0
C1010 C 0.04716 0.90527 0.97534 0.0
H1011 H 0.98553 0.81058 0.03987 0.0
H1012 H 0.00322 0.82604 0.00947 0.0
H1013 H 0.02754 0.90479 -0.00033 0.0
H1014 H 0.13052 0.92362 0.93249 0.0
H1015 H 0.10234 0.89875 0.95678 0.0
H1016 H 0.06341 0.86243 0.96448 0.0
C1017 C 0.00765 0.83906 0.02067 0.0
C1018 C 0.03529 0.89537 0.99211 0.0
C1019 C 0.99746 0.83024 0.03809 0.0
C1020 C 0.11258 0.92219 0.93312 0.0
C1021 C 0.09633 0.90773 0.94698 0.0
C1022 C 0.05555 0.87177 0.97201 0.0
C1023 C 0.02296 0.86442 0.01767 0.0
C1024 C 0.03388 0.87386 -0.0008 0.0
C1025 C 0.07333 0.90622 0.9489 0.0
C1026 C 0.05785 0.89384 0.96529 0.0
H1027 H 0.02211 0.88504 0.06107 0.0
H1028 H 0.0402 0.90039 0.03071 0.0
H1029 H 0.04298 0.84532 0.99392 0.0
H1030 H 0.07715 0.94277 0.91274 0.0
H1031 H 0.04862 0.91729 0.937 0.0
C1032 C 0.19121 0.20544 0.03952 0.0
C1033 C 0.17395 0.18409 0.04897 0.0
C1034 C 0.18604 0.21039 0.02168 0.0
C1035 C 0.14567 0.1783 0.98176 0.0
H1036 H 0.15663 0.24258 0.96763 0.0
C1037 C 0.10184 0.188 0.9157 0.0
C1038 C 0.08864 0.20037 0.91851 0.0
C1039 C 0.11986 0.19065 0.92838 0.0
C1040 C 0.15357 0.22453 0.97133 0.0
H1041 H 0.13729 0.15199 0.04756 0.0
H1042 H 0.12821 0.16082 0.01685 0.0
H1043 H 0.17219 0.23745 0.99731 0.0
H1044 H 0.08553 0.22688 0.93591 0.0
H1045 H 0.11606 0.23077 0.95819 0.0
H1046 H 0.12556 0.16485 0.95663 0.0
C1047 C 0.14601 0.17334 0.02288 0.0
C1048 C 0.16268 0.22167 0.98826 0.0
C1049 C 0.15114 0.1684 0.04057 0.0
C1050 C 0.09515 0.21686 0.93342 0.0
C1051 C 0.11294 0.21931 0.94615 0.0
C1052 C 0.13644 0.1811 0.96497 0.0
C1053 C 0.16357 0.19406 0.01306 0.0
C1054 C 0.15791 0.19829 0.99395 0.0
C1055 C 0.12486 0.20554 0.94418 0.0
C1056 C 0.13943 0.20405 0.95985 0.0
H1057 H 0.20895 0.2179 0.04565 0.0
H1058 H 0.19987 0.22657 0.01446 0.0
H1059 H 0.14225 0.16017 0.98559 0.0
H1060 H 0.09757 0.17552 0.90414 0.0
H1061 H 0.12911 0.18021 0.92622 0.0
C1062 C 0.86498 0.77965 0.55334 0.0
C1063 C 0.87633 0.78875 0.57048 0.0
C1064 C 0.87864 0.77855 0.53852 0.0
C1065 C 0.94375 0.81158 0.52398 0.0
H1066 H 0.91668 0.77315 0.47926 0.0
C1067 C 1.0003 0.82475 0.45775 0.0
C1068 C 0.99084 0.83016 0.44193 0.0
C1069 C 0.98632 0.8165 0.47387 0.0
C1070 C 0.92438 0.78393 0.49172 0.0
H1071 H 0.90973 0.80162 0.58643 0.0
H1072 H 0.93325 0.79789 0.561 0.0
H1073 H 0.89228 0.76073 0.5077 0.0
H1074 H 0.95933 0.8309 0.43038 0.0
H1075 H 0.93452 0.81593 0.45872 0.0
H1076 H 0.97596 0.83448 0.50796 0.0
C1077 C 0.91419 0.79265 0.55859 0.0
C1078 C 0.91047 0.77691 0.50799 0.0
C1079 C 0.9007 0.79442 0.57325 0.0
C1080 C 0.96709 0.82708 0.44247 0.0
C1081 C 0.95286 0.8183 0.45853 0.0
C1082 C 0.95778 0.81823 0.50786 0.0
C1083 C 0.9038 0.78621 0.54075 0.0
C1084 C 0.91975 0.791 0.52424 0.0
C1085 C 0.96245 0.81302 0.47432 0.0
C1086 C 0.94801 0.8048 0.49154 0.0
H1087 H 0.84627 0.77564 0.55092 0.0
H1088 H 0.86994 0.77369 0.52505 0.0
H1089 H 0.95143 0.82334 0.53597 0.0
H1090 H 0.01859 0.82697 0.4577 0.0
H1091 H 0.99404 0.81257 0.48593 0.0
C1092 C 0.23527 0.10139 0.55778 0.0
C1093 C 0.21187 0.08933 0.56608 0.0
C1094 C 0.24062 0.11907 0.54397 0.0
C1095 C 0.21599 0.15573 0.52102 0.0
H1096 H 0.23825 0.13987 0.47575 0.0
C1097 C 0.17767 0.15613 0.44989 0.0
C1098 C 0.19419 0.1698 0.4357 0.0
C1099 C 0.18637 0.15284 0.46677 0.0
C1100 C 0.23254 0.14491 0.48836 0.0
H1101 H 0.17657 0.08766 0.56773 0.0
H1102 H 0.1857 0.11811 0.54387 0.0
H1103 H 0.243 0.12366 0.50527 0.0
H1104 H 0.23275 0.19032 0.42787 0.0
H1105 H 0.24795 0.18358 0.45743 0.0
H1106 H 0.2036 0.17519 0.50382 0.0
C1107 C 0.20006 0.11422 0.54784 0.0
C1108 C 0.23533 0.13574 0.50529 0.0
C1109 C 0.19469 0.09653 0.56143 0.0
C1110 C 0.21963 0.17974 0.43861 0.0
C1111 C 0.22833 0.17594 0.45545 0.0
C1112 C 0.21291 0.16457 0.50411 0.0
C1113 C 0.22276 0.12512 0.53849 0.0
C1114 C 0.22601 0.1401 0.52168 0.0
C1115 C 0.21173 0.16274 0.46971 0.0
C1116 C 0.22023 0.15837 0.4876 0.0
H1117 H 0.24885 0.09616 0.56115 0.0
H1118 H 0.25834 0.12731 0.53711 0.0
H1119 H 0.20912 0.15988 0.53345 0.0
H1120 H 0.158 0.14839 0.44811 0.0
H1121 H 0.17323 0.14231 0.47752 0.0
C1122 C 0.85802 0.04712 0.43913 0.0
C1123 C 0.83398 0.03228 0.43237 0.0
C1124 C 0.86226 0.06167 0.45481 0.0
C1125 C 0.83408 0.06137 0.49795 0.0
H1126 H 0.89 0.12749 0.50251 0.0
C1127 C 0.89976 0.13886 0.55602 0.0
C1128 C 0.90708 0.12416 0.5657 0.0
C1129 C 0.88363 0.12914 0.54098 0.0
C1130 C 0.87395 0.10926 0.50144 0.0
H1131 H 0.7956 0.02169 0.43631 0.0
H1132 H 0.80307 0.04671 0.46416 0.0
H1133 H 0.87667 0.10907 0.4719 0.0
H1134 H 0.90145 0.08734 0.56859 0.0
H1135 H 0.87301 0.07028 0.54262 0.0
H1136 H 0.83246 0.06095 0.5276 0.0
C1137 C 0.81856 0.04715 0.45716 0.0
C1138 C 0.86648 0.09868 0.48395 0.0
C1139 C 0.81434 0.0329 0.44125 0.0
C1140 C 0.89619 0.09908 0.56127 0.0
C1141 C 0.87979 0.08929 0.54647 0.0
C1142 C 0.84176 0.07185 0.51549 0.0
C1143 C 0.84253 0.06142 0.46418 0.0
C1144 C 0.84705 0.07435 0.4821 0.0
C1145 C 0.87425 0.10449 0.53566 0.0
C1146 C 0.86231 0.09557 0.51742 0.0
H1147 H 0.87353 0.04718 0.4325 0.0
H1148 H 0.8809 0.07233 0.46006 0.0
H1149 H 0.8191 0.04253 0.49689 0.0
H1150 H 0.90792 0.15828 0.55913 0.0
H1151 H 0.87953 0.14119 0.5329 0.0
C1152 C 0.89888 0.4814 0.38731 0.0
C1153 C 0.8803 0.46742 0.40018 0.0
C1154 C 0.90287 0.46979 0.37231 0.0
C1155 C 0.89414 0.4136 0.35187 0.0
H1156 H 0.86263 0.42593 0.31034 0.0
C1157 C 0.85039 0.34395 0.29278 0.0
C1158 C 0.84782 0.35194 0.27525 0.0
C1159 C 0.8601 0.36057 0.30744 0.0
C1160 C 0.87217 0.42263 0.32147 0.0
H1161 H 0.85273 0.43068 0.4086 0.0
H1162 H 0.86049 0.41026 0.38276 0.0
H1163 H 0.87275 0.4513 0.33785 0.0
H1164 H 0.8544 0.3835 0.25883 0.0
H1165 H 0.87272 0.41292 0.28409 0.0
H1166 H 0.89384 0.38506 0.33561 0.0
C1167 C 0.87175 0.43007 0.38417 0.0
C1168 C 0.87788 0.4372 0.33727 0.0
C1169 C 0.86727 0.44168 0.39884 0.0
C1170 C 0.85577 0.3769 0.2724 0.0
C1171 C 0.8662 0.39369 0.28691 0.0
C1172 C 0.88906 0.39941 0.33584 0.0
C1173 C 0.88881 0.44412 0.37041 0.0
C1174 C 0.88819 0.43229 0.35274 0.0
C1175 C 0.86818 0.38571 0.30474 0.0
C1176 C 0.87714 0.40313 0.32067 0.0
H1177 H 0.90885 0.50132 0.38802 0.0
H1178 H 0.91589 0.48089 0.36167 0.0
H1179 H 0.90203 0.40954 0.36376 0.0
H1180 H 0.84433 0.32471 0.29525 0.0
H1181 H 0.86068 0.35347 0.32096 0.0
C1182 C 0.66918 0.51548 0.28979 0.0
C1183 C 0.66416 0.49844 0.27546 0.0
C1184 C 0.65622 0.50791 0.30646 0.0
C1185 C 0.63704 0.4814 0.34365 0.0
H1186 H 0.56641 0.43676 0.3426 0.0
C1187 C 0.58102 0.41579 0.40317 0.0
C1188 C 0.55658 0.41034 0.40568 0.0
C1189 C 0.59539 0.43166 0.389 0.0
C1190 C 0.58606 0.44953 0.34318 0.0
H1191 H 0.64133 0.46026 0.26722 0.0
H1192 H 0.6187 0.44712 0.29627 0.0
H1193 H 0.5884 0.45417 0.3138 0.0
H1194 H 0.52887 0.41911 0.39655 0.0
H1195 H 0.55402 0.44687 0.37199 0.0
H1196 H 0.63468 0.4763 0.37307 0.0
C1197 C 0.63261 0.46631 0.29459 0.0
C1198 C 0.59867 0.45926 0.32667 0.0
C1199 C 0.64569 0.4738 0.27801 0.0
C1200 C 0.54749 0.42257 0.39475 0.0
C1201 C 0.56185 0.43844 0.38065 0.0
C1202 C 0.62441 0.47153 0.36022 0.0
C1203 C 0.63783 0.48325 0.309 0.0
C1204 C 0.62432 0.47491 0.3267 0.0
C1205 C 0.58559 0.44239 0.37718 0.0
C1206 C 0.59884 0.4552 0.3601 0.0
H1207 H 0.68331 0.53461 0.28824 0.0
H1208 H 0.66047 0.52134 0.31733 0.0
H1209 H 0.65685 0.49337 0.34402 0.0
H1210 H 0.58862 0.40679 0.41144 0.0
H1211 H 0.61361 0.43429 0.38661 0.0
C1212 C 0.56687 0.09484 0.39003 0.0
C1213 C 0.56916 0.10854 0.40596 0.0
C1214 C 0.54956 0.09151 0.37646 0.0
C1215 C 0.51191 0.08742 0.34812 0.0
H1216 H 0.51592 0.1507 0.34199 0.0
C1217 C 0.47798 0.11703 0.28256 0.0
C1218 C 0.49463 0.14098 0.27629 0.0
C1219 C 0.48201 0.10858 0.29943 0.0
C1220 C 0.51455 0.13288 0.34351 0.0
H1221 H 0.55385 0.12719 0.42141 0.0
H1222 H 0.52248 0.12003 0.39835 0.0
H1223 H 0.5295 0.14156 0.37066 0.0
H1224 H 0.52913 0.17432 0.28238 0.0
H1225 H 0.53613 0.1596 0.31148 0.0
H1226 H 0.4984 0.07973 0.32018 0.0
C1227 C 0.53456 0.11266 0.39585 0.0
C1228 C 0.52196 0.12739 0.36012 0.0
C1229 C 0.55226 0.11651 0.40917 0.0
C1230 C 0.51575 0.15591 0.28687 0.0
C1231 C 0.5197 0.14753 0.30364 0.0
C1232 C 0.50454 0.09301 0.33135 0.0
C1233 C 0.53415 0.10165 0.37878 0.0
C1234 C 0.52148 0.10491 0.3625 0.0
C1235 C 0.50266 0.124 0.3103 0.0
C1236 C 0.50667 0.11618 0.32871 0.0
H1237 H 0.58004 0.08887 0.38722 0.0
H1238 H 0.54994 0.08304 0.36351 0.0
H1239 H 0.51097 0.0698 0.34954 0.0
H1240 H 0.4616 0.105 0.27466 0.0
H1241 H 0.46864 0.09032 0.30422 0.0
C1242 C 0.77952 0.54561 0.76619 0.0
C1243 C 0.77323 0.52226 0.7593 0.0
C1244 C 0.76441 0.54822 0.77902 0.0
C1245 C 0.7039 0.51422 0.80343 0.0
H1246 H 0.74213 0.55377 0.84522 0.0
C1247 C 0.67273 0.49105 0.87824 0.0
C1248 C 0.67624 0.50987 0.89054 0.0
C1249 C 0.6817 0.49659 0.86024 0.0
C1250 C 0.73115 0.54311 0.83353 0.0
H1251 H 0.74543 0.48358 0.75935 0.0
H1252 H 0.71941 0.48789 0.78227 0.0
H1253 H 0.76275 0.55613 0.8162 0.0
H1254 H 0.69178 0.54927 0.89363 0.0
H1255 H 0.70835 0.55909 0.86201 0.0
H1256 H 0.67258 0.49997 0.8214 0.0
C1257 C 0.73575 0.50433 0.77755 0.0
C1258 C 0.74292 0.54445 0.81683 0.0
C1259 C 0.75073 0.50178 0.76448 0.0
C1260 C 0.68888 0.53443 0.88443 0.0
C1261 C 0.69827 0.54003 0.8664 0.0
C1262 C 0.69219 0.51271 0.82019 0.0
C1263 C 0.74287 0.52747 0.78544 0.0
C1264 C 0.72957 0.52938 0.80178 0.0
C1265 C 0.69466 0.52109 0.85417 0.0
C1266 C 0.70588 0.52651 0.83556 0.0
H1267 H 0.79658 0.56179 0.76212 0.0
H1268 H 0.77011 0.56638 0.78445 0.0
H1269 H 0.693 0.50278 0.792 0.0
H1270 H 0.66287 0.47191 0.88245 0.0
H1271 H 0.67904 0.48169 0.8512 0.0
C1272 C 0.43368 0.2262 0.76661 0.0
C1273 C 0.4577 0.23939 0.75942 0.0
C1274 C 0.4276 0.20744 0.7796 0.0
C1275 C 0.45175 0.17034 0.80247 0.0
H1276 H 0.42697 0.18403 0.8474 0.0
C1277 C 0.4901 0.17325 0.87382 0.0
C1278 C 0.47404 0.15952 0.88821 0.0
C1279 C 0.48083 0.17492 0.85672 0.0
C1280 C 0.4333 0.17949 0.83486 0.0
H1281 H 0.49343 0.2419 0.75877 0.0
H1282 H 0.48304 0.20957 0.78128 0.0
H1283 H 0.42277 0.20064 0.81794 0.0
H1284 H 0.4357 0.13701 0.89615 0.0
H1285 H 0.41937 0.14096 0.86612 0.0
H1286 H 0.46437 0.1512 0.81979 0.0
C1287 C 0.46876 0.21344 0.77703 0.0
C1288 C 0.43084 0.18891 0.81796 0.0
C1289 C 0.47485 0.23221 0.76424 0.0
C1290 C 0.44844 0.14767 0.88523 0.0
C1291 C 0.43912 0.14986 0.86815 0.0
C1292 C 0.45446 0.16121 0.81936 0.0
C1293 C 0.44537 0.20143 0.78538 0.0
C1294 C 0.44125 0.18554 0.80176 0.0
C1295 C 0.45532 0.1633 0.85374 0.0
C1296 C 0.4463 0.16673 0.83577 0.0
H1297 H 0.42006 0.23132 0.76308 0.0
H1298 H 0.40937 0.19836 0.78568 0.0
H1299 H 0.45947 0.16697 0.79016 0.0
H1300 H 0.5099 0.1824 0.87567 0.0
H1301 H 0.49364 0.18569 0.84586 0.0
C1302 C 0.83878 0.31747 0.87093 0.0
C1303 C 0.84935 0.31337 0.88668 0.0
C1304 C 0.83812 0.30619 0.85422 0.0
C1305 C 0.82973 0.2516 0.83441 0.0
H1306 H 0.84968 0.29037 0.78932 0.0
C1307 C 0.78403 0.20751 0.76559 0.0
C1308 C 0.77344 0.22051 0.75766 0.0
C1309 C 0.80278 0.21882 0.77881 0.0
C1310 C 0.84425 0.27922 0.80174 0.0
H1311 H 0.86743 0.29417 0.89737 0.0
H1312 H 0.86517 0.2733 0.86794 0.0
H1313 H 0.86482 0.31063 0.81917 0.0
H1314 H 0.77578 0.25607 0.75586 0.0
H1315 H 0.80816 0.27569 0.77875 0.0
H1316 H 0.80719 0.22055 0.81727 0.0
C1317 C 0.85797 0.28577 0.86865 0.0
C1318 C 0.85302 0.2908 0.81878 0.0
C1319 C 0.85918 0.2976 0.8854 0.0
C1320 C 0.78343 0.24554 0.76188 0.0
C1321 C 0.80221 0.25685 0.77492 0.0
C1322 C 0.8207 0.24001 0.81735 0.0
C1323 C 0.84761 0.29022 0.85291 0.0
C1324 C 0.8448 0.27726 0.83527 0.0
C1325 C 0.8114 0.24337 0.78411 0.0
C1326 C 0.82677 0.25396 0.80095 0.0
H1327 H 0.83126 0.32968 0.87145 0.0
H1328 H 0.82968 0.30957 0.84232 0.0
H1329 H 0.82307 0.24084 0.84698 0.0
H1330 H 0.77673 0.18818 0.76254 0.0
H1331 H 0.80967 0.20804 0.78553 0.0
C1332 C 0.50148 0.32289 0.37631 0.0
C1333 C 0.48403 0.31826 0.39019 0.0
C1334 C 0.49409 0.31148 0.35915 0.0
C1335 C 0.44946 0.25547 0.33791 0.0
H1336 H 0.47833 0.29122 0.29241 0.0
C1337 C 0.44722 0.20387 0.27193 0.0
C1338 C 0.47013 0.21362 0.26299 0.0
C1339 C 0.44307 0.21783 0.28493 0.0
C1340 C 0.47009 0.28095 0.30497 0.0
H1341 H 0.44515 0.29824 0.39704 0.0
H1342 H 0.43222 0.27733 0.36689 0.0
H1343 H 0.48157 0.31382 0.32075 0.0
H1344 H 0.50616 0.24615 0.25985 0.0
H1345 H 0.49928 0.27024 0.28289 0.0
H1346 H 0.43955 0.2227 0.32265 0.0
C1347 C 0.45156 0.2902 0.36937 0.0
C1348 C 0.47179 0.29388 0.32113 0.0
C1349 C 0.45894 0.30208 0.38653 0.0
C1350 C 0.48834 0.23808 0.26655 0.0
C1351 C 0.48428 0.25197 0.27968 0.0
C1352 C 0.44796 0.24252 0.3218 0.0
C1353 C 0.46915 0.29489 0.35555 0.0
C1354 C 0.46231 0.28128 0.33786 0.0
C1355 C 0.46182 0.24179 0.28937 0.0
C1356 C 0.45911 0.25518 0.30531 0.0
H1357 H 0.52092 0.33546 0.37866 0.0
H1358 H 0.50805 0.3151 0.34884 0.0
H1359 H 0.44218 0.24536 0.35069 0.0
H1360 H 0.43265 0.18519 0.26923 0.0
H1361 H 0.42541 0.20961 0.29186 0.0
C1362 C 0.66683 0.14237 0.37137 0.0
C1363 C 0.66989 0.16058 0.38417 0.0
C1364 C 0.68213 0.14848 0.35591 0.0
C1365 C 0.74206 0.19616 0.33759 0.0
H1366 H 0.71121 0.17469 0.28945 0.0
C1367 C 0.76225 0.24005 0.2628 0.0
C1368 C 0.78742 0.24809 0.26091 0.0
C1369 C 0.7481 0.2223 0.2759 0.0
C1370 C 0.72012 0.18051 0.30281 0.0
H1371 H 0.69159 0.19941 0.39089 0.0
H1372 H 0.71815 0.21011 0.36379 0.0
H1373 H 0.68633 0.15854 0.31741 0.0
H1374 H 0.81727 0.24272 0.27017 0.0
H1375 H 0.79244 0.21174 0.29352 0.0
H1376 H 0.77556 0.21917 0.32302 0.0
C1377 C 0.70405 0.19107 0.36584 0.0
C1378 C 0.70593 0.17123 0.3188 0.0
C1379 C 0.68865 0.185 0.38123 0.0
C1380 C 0.79786 0.23679 0.2714 0.0
C1381 C 0.78373 0.2192 0.28477 0.0
C1382 C 0.75628 0.20533 0.32161 0.0
C1383 C 0.70092 0.17287 0.35303 0.0
C1384 C 0.7166 0.17968 0.33631 0.0
C1385 C 0.75892 0.21243 0.28754 0.0
C1386 C 0.74525 0.19828 0.30407 0.0
H1387 H 0.65263 0.12333 0.37328 0.0
H1388 H 0.67938 0.13409 0.34629 0.0
H1389 H 0.75081 0.20266 0.35095 0.0
H1390 H 0.75378 0.2484 0.25474 0.0
H1391 H 0.72912 0.21765 0.27781 0.0
C1392 C 0.81467 0.52146 0.38451 0.0
C1393 C 0.83887 0.52769 0.38911 0.0
C1394 C 0.81006 0.53142 0.36875 0.0
C1395 C 0.83606 0.55508 0.32318 0.0
H1396 H 0.7829 0.5696 0.3206 0.0
C1397 C 0.77364 0.53485 0.26091 0.0
C1398 C 0.76293 0.54939 0.25731 0.0
C1399 C 0.79027 0.54076 0.27544 0.0
C1400 C 0.79821 0.56622 0.3211 0.0
H1401 H 0.87733 0.55016 0.38124 0.0
H1402 H 0.86919 0.5674 0.35375 0.0
H1403 H 0.79682 0.56367 0.35067 0.0
H1404 H 0.76262 0.58262 0.26495 0.0
H1405 H 0.79167 0.59286 0.29066 0.0
H1406 H 0.83674 0.55662 0.29357 0.0
C1407 C 0.8538 0.55464 0.36222 0.0
C1408 C 0.80594 0.56248 0.33831 0.0
C1409 C 0.85842 0.54474 0.37799 0.0
C1410 C 0.7707 0.57114 0.26745 0.0
C1411 C 0.78716 0.5769 0.28221 0.0
C1412 C 0.82828 0.55874 0.30597 0.0
C1413 C 0.82955 0.54779 0.35728 0.0
C1414 C 0.82431 0.55599 0.33947 0.0
C1415 C 0.7963 0.56119 0.28678 0.0
C1416 C 0.80865 0.56342 0.30473 0.0
H1417 H 0.79922 0.50849 0.39284 0.0
H1418 H 0.79113 0.52554 0.36517 0.0
H1419 H 0.85022 0.55003 0.32361 0.0
H1420 H 0.76799 0.51804 0.2532 0.0
H1421 H 0.79682 0.52817 0.27867 0.0
C1422 C 0.58039 0.1679 0.90714 0.0
C1423 C 0.55528 0.15094 0.90423 0.0
C1424 C 0.59811 0.1691 0.89487 0.0
C1425 C 0.60843 0.1375 0.85533 0.0
H1426 H 0.65261 0.20425 0.83868 0.0
C1427 C 0.66408 0.19023 0.78575 0.0
C1428 C 0.67656 0.17754 0.78141 0.0
C1429 C 0.65209 0.18644 0.80267 0.0
C1430 C 0.64044 0.18552 0.84322 0.0
H1431 H 0.52924 0.12082 0.88693 0.0
H1432 H 0.5601 0.12325 0.86533 0.0
H1433 H 0.62653 0.1973 0.86549 0.0
H1434 H 0.68611 0.15075 0.79139 0.0
H1435 H 0.66502 0.14412 0.82106 0.0
H1436 H 0.62162 0.12577 0.83238 0.0
C1437 C 0.56614 0.13546 0.87717 0.0
C1438 C 0.62572 0.18152 0.85872 0.0
C1439 C 0.54842 0.13419 0.88949 0.0
C1440 C 0.67672 0.16088 0.79435 0.0
C1441 C 0.66459 0.15699 0.81129 0.0
C1442 C 0.62323 0.14151 0.83979 0.0
C1443 C 0.59108 0.15341 0.87943 0.0
C1444 C 0.60912 0.15746 0.86468 0.0
C1445 C 0.65223 0.16981 0.81562 0.0
C1446 C 0.63888 0.16555 0.83332 0.0
H1447 H 0.58631 0.18078 0.91858 0.0
H1448 H 0.61725 0.18281 0.89716 0.0
H1449 H 0.59599 0.11876 0.85973 0.0
H1450 H 0.6635 0.20311 0.77607 0.0
H1451 H 0.64233 0.19624 0.8055 0.0
C1452 C 0.88893 0.41844 0.8887 0.0
C1453 C 0.86685 0.40717 0.89887 0.0
C1454 C 0.89315 0.43623 0.87539 0.0
C1455 C 0.87108 0.47668 0.85664 0.0
H1456 H 0.8857 0.45817 0.80914 0.0
C1457 C 0.84235 0.47765 0.77819 0.0
C1458 C 0.85076 0.50255 0.77444 0.0
C1459 C 0.85066 0.47091 0.79375 0.0
C1460 C 0.88202 0.46381 0.82236 0.0
H1461 H 0.83274 0.40708 0.90407 0.0
H1462 H 0.84 0.43795 0.88062 0.0
H1463 H 0.88881 0.43843 0.83723 0.0
H1464 H 0.87475 0.54002 0.78376 0.0
H1465 H 0.88879 0.52801 0.81158 0.0
H1466 H 0.86309 0.50123 0.84143 0.0
C1467 C 0.85408 0.43309 0.88301 0.0
C1468 C 0.88391 0.45265 0.83845 0.0
C1469 C 0.84982 0.41524 0.89633 0.0
C1470 C 0.86802 0.52069 0.78637 0.0
C1471 C 0.87598 0.51387 0.80224 0.0
C1472 C 0.86942 0.48807 0.8405 0.0
C1473 C 0.87543 0.44317 0.87203 0.0
C1474 C 0.87766 0.45836 0.85568 0.0
C1475 C 0.86726 0.4889 0.80603 0.0
C1476 C 0.87404 0.48104 0.8232 0.0
H1477 H 0.90265 0.41295 0.89052 0.0
H1478 H 0.90992 0.44395 0.86729 0.0
H1479 H 0.86634 0.48154 0.86977 0.0
H1480 H 0.82919 0.46332 0.76912 0.0
H1481 H 0.8435 0.45152 0.7965 0.0
C1482 C 0.48319 0.33115 0.79432 0.0
C1483 C 0.50145 0.33574 0.78109 0.0
C1484 C 0.48976 0.34047 0.81226 0.0
C1485 C 0.51096 0.37546 0.84555 0.0
H1486 H 0.56603 0.37322 0.86793 0.0
C1487 C 0.57514 0.44411 0.89949 0.0
C1488 C 0.58729 0.43693 0.91223 0.0
C1489 C 0.55843 0.42723 0.88686 0.0
C1490 C 0.55027 0.37354 0.86213 0.0
H1491 H 0.5409 0.35446 0.77613 0.0
H1492 H 0.55226 0.37078 0.80733 0.0
H1493 H 0.54967 0.35281 0.83849 0.0
H1494 H 0.58947 0.4058 0.92304 0.0
H1495 H 0.56013 0.37624 0.90095 0.0
H1496 H 0.512 0.39673 0.86906 0.0
C1497 C 0.53289 0.3596 0.80393 0.0
C1498 C 0.54115 0.36216 0.84511 0.0
C1499 C 0.52637 0.35041 0.78601 0.0
C1500 C 0.58075 0.41202 0.91316 0.0
C1501 C 0.56398 0.39509 0.90051 0.0
C1502 C 0.52013 0.38692 0.8626 0.0
C1503 C 0.51468 0.35442 0.8173 0.0
C1504 C 0.52197 0.3637 0.83639 0.0
C1505 C 0.55344 0.40278 0.88675 0.0
C1506 C 0.54038 0.3867 0.87078 0.0
H1507 H 0.46382 0.31997 0.79094 0.0
H1508 H 0.47538 0.33626 0.82232 0.0
H1509 H 0.4961 0.37685 0.83912 0.0
H1510 H 0.5795 0.4631 0.89857 0.0
H1511 H 0.55076 0.4338 0.87638 0.0
C1512 C 0.49645 0.75687 0.73706 0.0
C1513 C 0.51465 0.7819 0.73651 0.0
C1514 C 0.49638 0.74049 0.72396 0.0
C1515 C 0.53352 0.73345 0.68698 0.0
H1516 H 0.46988 0.69378 0.66351 0.0
C1517 C 0.49082 0.68549 0.61253 0.0
C1518 C 0.50262 0.67182 0.60938 0.0
C1519 C 0.49314 0.6969 0.62952 0.0
C1520 C 0.48777 0.70475 0.66994 0.0
H1521 H 0.54788 0.80907 0.72249 0.0
H1522 H 0.54743 0.78065 0.6995 0.0
H1523 H 0.47291 0.71671 0.69144 0.0
H1524 H 0.52674 0.66003 0.62143 0.0
H1525 H 0.53078 0.6801 0.65123 0.0
H1526 H 0.54845 0.72223 0.66487 0.0
C1527 C 0.53336 0.77359 0.71013 0.0
C1528 C 0.48947 0.71761 0.68608 0.0
C1529 C 0.53347 0.78994 0.72322 0.0
C1530 C 0.51737 0.67039 0.62344 0.0
C1531 C 0.51973 0.6819 0.64048 0.0
C1532 C 0.5318 0.72052 0.6708 0.0
C1533 C 0.51449 0.74883 0.71009 0.0
C1534 C 0.51243 0.73255 0.69454 0.0
C1535 C 0.50732 0.69494 0.64375 0.0
C1536 C 0.50898 0.70657 0.66189 0.0
H1537 H 0.48189 0.75002 0.7473 0.0
H1538 H 0.48181 0.72141 0.72444 0.0
H1539 H 0.55142 0.74462 0.69333 0.0
H1540 H 0.4795 0.68717 0.60195 0.0
H1541 H 0.48381 0.70731 0.63152 0.0
C1542 C 0.19653 0.76169 0.72067 0.0
C1543 C 0.20725 0.76451 0.73814 0.0
C1544 C 0.20997 0.77767 0.70632 0.0
C1545 C 0.27555 0.81557 0.69389 0.0
H1546 H 0.24776 0.82192 0.64767 0.0
C1547 C 0.33273 0.85586 0.62742 0.0
C1548 C 0.32435 0.83886 0.61274 0.0
C1549 C 0.31814 0.85159 0.64306 0.0
C1550 C 0.2557 0.82037 0.66057 0.0
H1551 H 0.23906 0.78713 0.75517 0.0
H1552 H 0.26201 0.81639 0.73054 0.0
H1553 H 0.22242 0.80916 0.67563 0.0
H1554 H 0.29395 0.80451 0.60262 0.0
H1555 H 0.26814 0.79724 0.63004 0.0
H1556 H 0.30885 0.82698 0.67874 0.0
C1557 C 0.24372 0.80128 0.72751 0.0
C1558 C 0.24124 0.81299 0.67657 0.0
C1559 C 0.23051 0.78483 0.74171 0.0
C1560 C 0.3009 0.81776 0.61382 0.0
C1561 C 0.28609 0.81375 0.62935 0.0
C1562 C 0.2901 0.82347 0.67803 0.0
C1563 C 0.23426 0.79698 0.70934 0.0
C1564 C 0.25072 0.80965 0.69331 0.0
C1565 C 0.29473 0.83054 0.64412 0.0
C1566 C 0.28007 0.82519 0.66117 0.0
H1567 H 0.17871 0.74578 0.71764 0.0
H1568 H 0.202 0.77346 0.6926 0.0
H1569 H 0.28353 0.81277 0.70629 0.0
H1570 H 0.35074 0.8723 0.62694 0.0
H1571 H 0.32515 0.86469 0.65436 0.0
C1572 C 0.24512 0.47909 0.72283 0.0
C1573 C 0.25031 0.46081 0.72853 0.0
C1574 C 0.22616 0.47359 0.71033 0.0
C1575 C 0.19625 0.43396 0.67127 0.0
H1576 H 0.16092 0.46997 0.67131 0.0
C1577 C 0.15114 0.45199 0.60623 0.0
C1578 C 0.1636 0.47754 0.60298 0.0
C1579 C 0.15435 0.44273 0.62302 0.0
C1580 C 0.17022 0.45936 0.67123 0.0
H1581 H 0.23897 0.4221 0.72641 0.0
H1582 H 0.2058 0.4125 0.70409 0.0
H1583 H 0.17887 0.46562 0.70005 0.0
H1584 H 0.18875 0.51335 0.61476 0.0
H1585 H 0.19384 0.49724 0.64399 0.0
H1586 H 0.1887 0.42902 0.64212 0.0
C1587 C 0.21647 0.43108 0.70941 0.0
C1588 C 0.18057 0.45695 0.68761 0.0
C1589 C 0.23535 0.43655 0.72218 0.0
C1590 C 0.17905 0.49359 0.61678 0.0
C1591 C 0.18179 0.48441 0.63358 0.0
C1592 C 0.18567 0.43621 0.65486 0.0
C1593 C 0.21201 0.4497 0.70312 0.0
C1594 C 0.19493 0.44552 0.68756 0.0
C1595 C 0.16948 0.45897 0.63687 0.0
C1596 C 0.17377 0.45008 0.65458 0.0
H1597 H 0.2562 0.49789 0.72764 0.0
H1598 H 0.2235 0.48846 0.70558 0.0
H1599 H 0.20727 0.42512 0.67078 0.0
H1600 H 0.13914 0.43924 0.59577 0.0
H1601 H 0.14488 0.42302 0.62527 0.0
C1602 C 0.3573 0.86143 0.21878 0.0
C1603 C 0.33738 0.83793 0.22268 0.0
C1604 C 0.37009 0.86583 0.20204 0.0
C1605 C 0.38076 0.83091 0.16563 0.0
H1606 H 0.41063 0.89257 0.13859 0.0
C1607 C 0.42555 0.839 0.09576 0.0
C1608 C 0.45039 0.85769 0.0948 0.0
C1609 C 0.4104 0.83911 0.1098 0.0
C1610 C 0.40233 0.87529 0.14606 0.0
H1611 H 0.31387 0.80121 0.2118 0.0
H1612 H 0.33528 0.80908 0.18247 0.0
H1613 H 0.38634 0.88784 0.16648 0.0
H1614 H 0.47821 0.89223 0.10691 0.0
H1615 H 0.45155 0.8923 0.13152 0.0
H1616 H 0.39646 0.81826 0.14527 0.0
C1617 C 0.34191 0.82385 0.19251 0.0
C1618 C 0.38857 0.8726 0.16203 0.0
C1619 C 0.32955 0.81935 0.20928 0.0
C1620 C 0.45923 0.87742 0.10739 0.0
C1621 C 0.44397 0.87758 0.1214 0.0
C1622 C 0.39414 0.83349 0.14964 0.0
C1623 C 0.36281 0.84687 0.1889 0.0
C1624 C 0.37753 0.85029 0.17194 0.0
C1625 C 0.4197 0.85798 0.12307 0.0
C1626 C 0.40498 0.85562 0.13967 0.0
H1627 H 0.36358 0.87604 0.22895 0.0
H1628 H 0.38616 0.88375 0.19973 0.0
H1629 H 0.37322 0.81374 0.1732 0.0
H1630 H 0.41803 0.82371 0.08614 0.0
H1631 H 0.39161 0.82396 0.11069 0.0
C1632 C 0.12631 0.56785 0.10261 0.0
C1633 C 0.14599 0.58034 0.09018 0.0
C1634 C 0.12602 0.55067 0.11493 0.0
C1635 C 0.12742 0.51334 0.14017 0.0
H1636 H 0.19182 0.54197 0.16316 0.0
C1637 C 0.14622 0.48381 0.21227 0.0
C1638 C 0.16223 0.50367 0.22362 0.0
C1639 C 0.14259 0.48785 0.19377 0.0
C1640 C 0.17371 0.53369 0.15687 0.0
H1641 H 0.17926 0.58244 0.07941 0.0
H1642 H 0.17856 0.55201 0.10084 0.0
H1643 H 0.18784 0.55632 0.13295 0.0
H1644 H 0.18556 0.54339 0.22492 0.0
H1645 H 0.17884 0.55041 0.19297 0.0
H1646 H 0.11323 0.49203 0.16495 0.0
C1647 C 0.16373 0.5561 0.10139 0.0
C1648 C 0.17146 0.54161 0.13936 0.0
C1649 C 0.16411 0.57349 0.08909 0.0
C1650 C 0.1734 0.52767 0.21646 0.0
C1651 C 0.16974 0.53167 0.1981 0.0
C1652 C 0.12969 0.50552 0.15781 0.0
C1653 C 0.14529 0.54538 0.11503 0.0
C1654 C 0.14815 0.53232 0.13113 0.0
C1655 C 0.1549 0.51179 0.18641 0.0
C1656 C 0.15273 0.51647 0.16662 0.0
H1657 H 0.11179 0.57236 0.1036 0.0
H1658 H 0.1116 0.54298 0.12527 0.0
H1659 H 0.10926 0.50547 0.13404 0.0
H1660 H 0.13735 0.46509 0.21741 0.0
H1661 H 0.13091 0.47222 0.18508 0.0
C1662 C 0.45048 0.57632 0.0822 0.0
C1663 C 0.43246 0.55175 0.08529 0.0
C1664 C 0.46674 0.59009 0.09635 0.0
C1665 C 0.48224 0.58686 0.14635 0.0
H1666 H 0.48826 0.65144 0.14747 0.0
C1667 C 0.48681 0.64214 0.21225 0.0
C1668 C 0.50736 0.66598 0.21314 0.0
C1669 C 0.482 0.62811 0.19615 0.0
C1670 C 0.4869 0.63353 0.14724 0.0
H1671 H 0.41791 0.52164 0.10485 0.0
H1672 H 0.44515 0.54574 0.12987 0.0
H1673 H 0.47429 0.6271 0.1194 0.0
H1674 H 0.53886 0.69396 0.19797 0.0
H1675 H 0.52977 0.66973 0.16962 0.0
H1676 H 0.49314 0.59306 0.17493 0.0
C1677 C 0.44775 0.55445 0.11649 0.0
C1678 C 0.47918 0.6196 0.13107 0.0
C1679 C 0.43205 0.54052 0.10213 0.0
C1680 C 0.52288 0.67562 0.19766 0.0
C1681 C 0.51777 0.66182 0.18148 0.0
C1682 C 0.4894 0.60064 0.1627 0.0
C1683 C 0.46445 0.57978 0.11407 0.0
C1684 C 0.47634 0.59587 0.13045 0.0
C1685 C 0.4974 0.63795 0.18065 0.0
C1686 C 0.49144 0.6239 0.16326 0.0
H1687 H 0.45094 0.58527 0.06925 0.0
H1688 H 0.47995 0.60926 0.09372 0.0
H1689 H 0.48077 0.56893 0.14636 0.0
H1690 H 0.47471 0.63425 0.22406 0.0
H1691 H 0.46603 0.60977 0.19566 0.0
C1692 C 0.15988 0.67181 0.70563 0.0
C1693 C 0.17145 0.66804 0.72095 0.0
C1694 C 0.15707 0.65915 0.6891 0.0
C1695 C 0.15289 0.60294 0.6711 0.0
H1696 H 0.17025 0.6368 0.6238 0.0
C1697 C 0.17335 0.58093 0.59383 0.0
C1698 C 0.15305 0.55704 0.59179 0.0
C1699 C 0.17394 0.59606 0.60824 0.0
C1700 C 0.16533 0.62717 0.63693 0.0
H1701 H 0.18903 0.64803 0.731 0.0
H1702 H 0.1839 0.62579 0.70216 0.0
H1703 H 0.17519 0.66007 0.65227 0.0
H1704 H 0.11662 0.53111 0.60229 0.0
H1705 H 0.11772 0.55751 0.6273 0.0
H1706 H 0.14334 0.57016 0.65595 0.0
C1707 C 0.17704 0.63853 0.70298 0.0
C1708 C 0.168 0.6404 0.65315 0.0
C1709 C 0.18007 0.65134 0.71944 0.0
C1710 C 0.13272 0.54925 0.60365 0.0
C1711 C 0.13334 0.56432 0.61802 0.0
C1712 C 0.15002 0.58972 0.65493 0.0
C1713 C 0.16551 0.64232 0.68768 0.0
C1714 C 0.16201 0.6284 0.67039 0.0
C1715 C 0.15425 0.58753 0.62081 0.0
C1716 C 0.15632 0.60171 0.6377 0.0
H1717 H 0.15311 0.68463 0.70634 0.0
H1718 H 0.14795 0.66224 0.67753 0.0
H1719 H 0.14793 0.59323 0.6842 0.0
H1720 H 0.18924 0.58753 0.58484 0.0
H1721 H 0.19031 0.6139 0.61012 0.0
C1722 C 0.35157 0.47556 0.70693 0.0
C1723 C 0.35415 0.49572 0.71727 0.0
C1724 C 0.36746 0.47913 0.69227 0.0
C1725 C 0.42629 0.52512 0.67047 0.0
H1726 H 0.39222 0.49582 0.62449 0.0
C1727 C 0.47367 0.56467 0.60168 0.0
C1728 C 0.45986 0.57294 0.59187 0.0
C1729 C 0.46247 0.5469 0.61555 0.0
C1730 C 0.4021 0.50378 0.63726 0.0
H1731 H 0.37614 0.53529 0.72084 0.0
H1732 H 0.40357 0.54159 0.695 0.0
H1733 H 0.37011 0.48197 0.65371 0.0
H1734 H 0.42333 0.56748 0.58723 0.0
H1735 H 0.4038 0.53651 0.61121 0.0
H1736 H 0.45769 0.54831 0.65389 0.0
C1737 C 0.38943 0.52297 0.69839 0.0
C1738 C 0.38949 0.49579 0.65401 0.0
C1739 C 0.37353 0.51941 0.71306 0.0
C1740 C 0.43438 0.56155 0.59479 0.0
C1741 C 0.42317 0.54363 0.60841 0.0
C1742 C 0.4389 0.5331 0.65371 0.0
C1743 C 0.38632 0.50291 0.68766 0.0
C1744 C 0.40114 0.50726 0.67068 0.0
C1745 C 0.4373 0.53696 0.61951 0.0
C1746 C 0.42652 0.52338 0.6369 0.0
H1747 H 0.33703 0.45699 0.70998 0.0
H1748 H 0.36477 0.46332 0.68435 0.0
H1749 H 0.43584 0.53393 0.68316 0.0
H1750 H 0.49338 0.57318 0.59962 0.0
H1751 H 0.47373 0.54195 0.62385 0.0
C1752 C 0.52326 0.88351 0.71827 0.0
C1753 C 0.5033 0.86492 0.72819 0.0
C1754 C 0.51912 0.89356 0.70232 0.0
C1755 C 0.50112 0.89115 0.66217 0.0
H1756 H 0.44889 0.907 0.65894 0.0
C1757 C 0.43416 0.8658 0.60206 0.0
C1758 C 0.42519 0.88146 0.59706 0.0
C1759 C 0.45152 0.87245 0.61617 0.0
C1760 C 0.46394 0.90324 0.65961 0.0
H1761 H 0.46347 0.84335 0.72991 0.0
H1762 H 0.45627 0.86118 0.70229 0.0
H1763 H 0.46366 0.90286 0.68926 0.0
H1764 H 0.42841 0.91703 0.60192 0.0
H1765 H 0.45845 0.92843 0.62709 0.0
H1766 H 0.50012 0.88975 0.63253 0.0
C1767 C 0.47507 0.86785 0.70675 0.0
C1768 C 0.47223 0.90067 0.67695 0.0
C1769 C 0.47919 0.85749 0.72244 0.0
C1770 C 0.43512 0.90466 0.60551 0.0
C1771 C 0.4522 0.91114 0.61991 0.0
C1772 C 0.4926 0.89339 0.64482 0.0
C1773 C 0.49498 0.88559 0.69633 0.0
C1774 C 0.49021 0.89369 0.67836 0.0
C1775 C 0.45992 0.89472 0.62575 0.0
C1776 C 0.47329 0.89854 0.64342 0.0
H1777 H 0.54206 0.88961 0.7224 0.0
H1778 H 0.53474 0.90722 0.69449 0.0
H1779 H 0.51494 0.88564 0.66291 0.0
H1780 H 0.42684 0.84786 0.59566 0.0
H1781 H 0.45695 0.85932 0.62048 0.0
C1782 C 0.23772 0.47902 0.23061 0.0
C1783 C 0.24187 0.4987 0.24219 0.0
C1784 C 0.25471 0.48215 0.21699 0.0
C1785 C 0.29972 0.53081 0.18752 0.0
H1786 H 0.30959 0.47826 0.16943 0.0
C1787 C 0.34885 0.50748 0.12317 0.0
C1788 C 0.34121 0.51659 0.10835 0.0
C1789 C 0.34048 0.50717 0.14105 0.0
C1790 C 0.30737 0.4933 0.17441 0.0
H1791 H 0.26811 0.53649 0.24965 0.0
H1792 H 0.29801 0.5419 0.2258 0.0
H1793 H 0.29062 0.47428 0.19954 0.0
H1794 H 0.3188 0.53257 0.10066 0.0
H1795 H 0.30354 0.53139 0.13194 0.0
H1796 H 0.3164 0.5498 0.16234 0.0
C1797 C 0.28133 0.52419 0.22711 0.0
C1798 C 0.29633 0.49092 0.1916 0.0
C1799 C 0.26428 0.52104 0.24081 0.0
C1800 C 0.32503 0.52547 0.11181 0.0
C1801 C 0.31648 0.52498 0.12974 0.0
C1802 C 0.31088 0.53325 0.17035 0.0
C1803 C 0.27629 0.50501 0.21467 0.0
C1804 C 0.2918 0.50935 0.19811 0.0
C1805 C 0.32409 0.51576 0.14454 0.0
C1806 C 0.31428 0.51426 0.16342 0.0
H1807 H 0.22075 0.46148 0.23146 0.0
H1808 H 0.25017 0.46705 0.20757 0.0
H1809 H 0.29626 0.54523 0.19207 0.0
H1810 H 0.36155 0.50075 0.12103 0.0
H1811 H 0.34697 0.5003 0.15217 0.0
C1812 C 0.57446 0.77872 0.22518 0.0
C1813 C 0.55073 0.76603 0.23292 0.0
C1814 C 0.58031 0.79729 0.21207 0.0
C1815 C 0.55632 0.83492 0.18992 0.0
H1816 H 0.57747 0.81887 0.14419 0.0
C1817 C 0.51375 0.83071 0.12014 0.0
C1818 C 0.52898 0.84408 0.10527 0.0
C1819 C 0.52399 0.82908 0.1368 0.0
C1820 C 0.57217 0.82406 0.15693 0.0
H1821 H 0.51535 0.76419 0.23444 0.0
H1822 H 0.52538 0.7963 0.21178 0.0
H1823 H 0.58304 0.80288 0.17351 0.0
H1824 H 0.56684 0.86589 0.09598 0.0
H1825 H 0.58482 0.86201 0.12522 0.0
H1826 H 0.5433 0.8541 0.17303 0.0
C1827 C 0.53959 0.79216 0.21567 0.0
C1828 C 0.57541 0.815 0.17375 0.0
C1829 C 0.53371 0.77354 0.22855 0.0
C1830 C 0.55472 0.8555 0.10728 0.0
C1831 C 0.56499 0.85336 0.12392 0.0
C1832 C 0.55283 0.8437 0.17313 0.0
C1833 C 0.56262 0.80364 0.20676 0.0
C1834 C 0.56626 0.81923 0.19028 0.0
C1835 C 0.54963 0.84039 0.13885 0.0
C1836 C 0.55964 0.83731 0.15646 0.0
H1837 H 0.58795 0.77328 0.22836 0.0
H1838 H 0.59825 0.80594 0.20552 0.0
H1839 H 0.54955 0.83891 0.20248 0.0
H1840 H 0.49388 0.82188 0.11906 0.0
H1841 H 0.51181 0.81867 0.14808 0.0
C1842 C 0.2348 0.78116 0.22882 0.0
C1843 C 0.24284 0.77228 0.24352 0.0
C1844 C 0.21729 0.76492 0.21632 0.0
C1845 C 0.17795 0.7276 0.19136 0.0
H1846 H 0.19497 0.67869 0.17647 0.0
C1847 C 0.14519 0.67316 0.12216 0.0
C1848 C 0.16365 0.67121 0.11256 0.0
C1849 C 0.14926 0.68214 0.1403 0.0
C1850 C 0.18996 0.69223 0.18047 0.0
H1851 H 0.23673 0.73934 0.2579 0.0
H1852 H 0.20568 0.71085 0.23619 0.0
H1853 H 0.21019 0.70003 0.20565 0.0
H1854 H 0.20115 0.67812 0.11418 0.0
H1855 H 0.20838 0.69419 0.14546 0.0
H1856 H 0.1593 0.721 0.16534 0.0
C1857 C 0.21355 0.73044 0.234 0.0
C1858 C 0.19834 0.70421 0.19739 0.0
C1859 C 0.2313 0.74675 0.24646 0.0
C1860 C 0.18644 0.6791 0.12124 0.0
C1861 C 0.1905 0.6881 0.13926 0.0
C1862 C 0.16973 0.71573 0.17431 0.0
C1863 C 0.20718 0.73937 0.21832 0.0
C1864 C 0.19331 0.72278 0.2027 0.0
C1865 C 0.17185 0.68934 0.14912 0.0
C1866 C 0.17657 0.69869 0.16838 0.0
H1867 H 0.24308 0.80073 0.22626 0.0
H1868 H 0.21307 0.77256 0.20437 0.0
H1869 H 0.17331 0.74146 0.19522 0.0
H1870 H 0.12741 0.66723 0.11584 0.0
H1871 H 0.13458 0.68296 0.14755 0.0
C1872 C 0.26303 0.18122 0.1499 0.0
C1873 C 0.25814 0.17669 0.13088 0.0
C1874 C 0.28277 0.18015 0.15799 0.0
C1875 C 0.34142 0.18228 0.14646 0.0
H1876 H 0.33191 0.14942 0.19369 0.0
C1877 C 0.41204 0.15772 0.17665 0.0
C1878 C 0.41685 0.16161 0.19572 0.0
C1879 C 0.39285 0.15988 0.16867 0.0
C1880 C 0.33496 0.15889 0.18058 0.0
H1881 H 0.27024 0.16747 0.10549 0.0
H1882 H 0.3043 0.16545 0.11958 0.0
H1883 H 0.29841 0.1534 0.18025 0.0
H1884 H 0.40539 0.17114 0.2213 0.0
H1885 H 0.37228 0.17503 0.20738 0.0
H1886 H 0.37795 0.18768 0.14677 0.0
C1887 C 0.29318 0.17019 0.12822 0.0
C1888 C 0.31576 0.16121 0.1729 0.0
C1889 C 0.2735 0.17121 0.12016 0.0
C1890 C 0.40213 0.1678 0.20658 0.0
C1891 C 0.38301 0.16993 0.19863 0.0
C1892 C 0.36062 0.17995 0.15414 0.0
C1893 C 0.29805 0.17458 0.14723 0.0
C1894 C 0.31874 0.17287 0.15573 0.0
C1895 C 0.37808 0.16594 0.1796 0.0
C1896 C 0.3576 0.1682 0.17128 0.0
H1897 H 0.25155 0.18546 0.15855 0.0
H1898 H 0.28619 0.18385 0.17266 0.0
H1899 H 0.34444 0.19168 0.13333 0.0
H1900 H 0.42304 0.15297 0.1679 0.0
H1901 H 0.38937 0.15649 0.15398 0.0
C1902 C 0.8422 0.25319 0.17747 0.0
C1903 C 0.84824 0.25985 0.19611 0.0
C1904 C 0.84122 0.23199 0.17047 0.0
C1905 C 0.85929 0.18497 0.18055 0.0
H1906 H 0.8076 0.1466 0.14508 0.0
C1907 C 0.83475 0.08713 0.1559 0.0
C1908 C 0.833 0.08384 0.1366 0.0
C1909 C 0.8366 0.10837 0.16376 0.0
C1910 C 0.82218 0.15719 0.15493 0.0
H1911 H 0.8583 0.24963 0.22197 0.0
H1912 H 0.85596 0.2123 0.2099 0.0
H1913 H 0.81145 0.18439 0.15756 0.0
H1914 H 0.83151 0.10009 0.11045 0.0
H1915 H 0.83428 0.13681 0.1242 0.0
H1916 H 0.86958 0.15726 0.17808 0.0
C1917 C 0.85251 0.22372 0.20054 0.0
C1918 C 0.82452 0.17895 0.162 0.0
C1919 C 0.85379 0.24511 0.2075 0.0
C1920 C 0.83282 0.10204 0.12537 0.0
C1921 C 0.8343 0.12303 0.13323 0.0
C1922 C 0.85674 0.16301 0.17362 0.0
C1923 C 0.84591 0.21671 0.18199 0.0
C1924 C 0.84327 0.19329 0.17476 0.0
C1925 C 0.83632 0.12648 0.15247 0.0
C1926 C 0.83831 0.14906 0.1606 0.0
H1927 H 0.83801 0.26425 0.16829 0.0
H1928 H 0.83666 0.22753 0.156 0.0
H1929 H 0.87412 0.19565 0.19018 0.0
H1930 H 0.83508 0.07349 0.1649 0.0
H1931 H 0.83802 0.11056 0.17865 0.0
C1932 C 0.91555 0.75051 0.15339 0.0
C1933 C 0.92553 0.74961 0.13618 0.0
C1934 C 0.89389 0.73026 0.15986 0.0
C1935 C 0.85281 0.66332 0.15417 0.0
H1936 H 0.80365 0.67656 0.17506 0.0
C1937 C 0.75523 0.58496 0.17239 0.0
C1938 C 0.74536 0.58685 0.18937 0.0
C1939 C 0.7766 0.60498 0.16528 0.0
C1940 C 0.81726 0.67255 0.16944 0.0
H1941 H 0.92091 0.72633 0.11256 0.0
H1942 H 0.88308 0.69092 0.12393 0.0
H1943 H 0.84284 0.71064 0.16442 0.0
H1944 H 0.74996 0.61156 0.21196 0.0
H1945 H 0.78732 0.64641 0.19963 0.0
H1946 H 0.82731 0.62525 0.15932 0.0
C1947 C 0.89212 0.70732 0.13243 0.0
C1948 C 0.83974 0.69209 0.16335 0.0
C1949 C 0.91379 0.72764 0.1259 0.0
C1950 C 0.75696 0.60949 0.19879 0.0
C1951 C 0.77837 0.62951 0.19169 0.0
C1952 C 0.83034 0.64377 0.16031 0.0
C1953 C 0.88169 0.70859 0.14932 0.0
C1954 C 0.8578 0.68771 0.15571 0.0
C1955 C 0.78867 0.62738 0.175 0.0
C1956 C 0.81231 0.64816 0.16805 0.0
H1957 H 0.92409 0.7671 0.16171 0.0
H1958 H 0.88657 0.73166 0.17309 0.0
H1959 H 0.86645 0.65937 0.14853 0.0
H1960 H 0.74676 0.56782 0.16472 0.0
H1961 H 0.78377 0.60284 0.15222 0.0
C1962 C 0.19062 0.41267 0.29172 0.0
C1963 C 0.18102 0.42436 0.30273 0.0
C1964 C 0.19119 0.39202 0.29826 0.0
C1965 C 0.189 0.35879 0.34098 0.0
H1966 H 0.16826 0.30306 0.308 0.0
C1967 C 0.16998 0.26461 0.36758 0.0
C1968 C 0.17819 0.25145 0.35684 0.0
C1969 C 0.17069 0.28568 0.36061 0.0
C1970 C 0.1744 0.31857 0.3173 0.0
H1971 H 0.165 0.42379 0.32945 0.0
H1972 H 0.16595 0.38767 0.34085 0.0
H1973 H 0.16932 0.34026 0.2968 0.0
H1974 H 0.19316 0.24991 0.33016 0.0
H1975 H 0.19464 0.28699 0.31801 0.0
H1976 H 0.19408 0.33717 0.36149 0.0
C1977 C 0.17314 0.39459 0.32717 0.0
C1978 C 0.175 0.33989 0.31089 0.0
C1979 C 0.1725 0.41523 0.32061 0.0
C1980 C 0.1867 0.25963 0.33879 0.0
C1981 C 0.18746 0.28081 0.33181 0.0
C1982 C 0.18845 0.33752 0.34737 0.0
C1983 C 0.18228 0.38262 0.31599 0.0
C1984 C 0.18218 0.36019 0.32269 0.0
C1985 C 0.17968 0.29421 0.34273 0.0
C1986 C 0.18098 0.31708 0.33566 0.0
H1987 H 0.19749 0.41928 0.27792 0.0
H1988 H 0.1987 0.38345 0.28943 0.0
H1989 H 0.19499 0.37425 0.35031 0.0
H1990 H 0.16304 0.25871 0.38148 0.0
H1991 H 0.16405 0.29523 0.36925 0.0
C1992 C 0.73789 0.90691 0.36999 0.0
C1993 C 0.75593 0.92432 0.35806 0.0
C1994 C 0.71822 0.8852 0.363 0.0
C1995 C 0.69951 0.84231 0.32424 0.0
H1996 H 0.6329 0.82292 0.33936 0.0
C1997 C 0.61465 0.7627 0.28873 0.0
C1998 C 0.59328 0.74822 0.29922 0.0
C1999 C 0.63478 0.78342 0.29643 0.0
C2000 C 0.65138 0.82776 0.33524 0.0
H2001 H 0.76763 0.93238 0.32944 0.0
H2002 H 0.73331 0.89407 0.31723 0.0
H2003 H 0.66744 0.86066 0.35159 0.0
H2004 H 0.57661 0.74384 0.32625 0.0
H2005 H 0.61211 0.77955 0.33994 0.0
H2006 H 0.68371 0.80925 0.30823 0.0
C2007 C 0.73444 0.89743 0.332 0.0
C2008 C 0.67115 0.8495 0.34217 0.0
C2009 C 0.75397 0.91939 0.33897 0.0
C2010 C 0.59276 0.75464 0.31777 0.0
C2011 C 0.61306 0.77526 0.32556 0.0
C2012 C 0.67978 0.82039 0.3175 0.0
C2013 C 0.71631 0.8802 0.34396 0.0
C2014 C 0.69539 0.85706 0.33665 0.0
C2015 C 0.63424 0.79012 0.31492 0.0
C2016 C 0.6554 0.81289 0.32278 0.0
H2017 H 0.73883 0.91012 0.38477 0.0
H2018 H 0.70462 0.87214 0.37254 0.0
H2019 H 0.71806 0.84755 0.31997 0.0
H2020 H 0.61562 0.75847 0.27433 0.0
H2021 H 0.65048 0.79458 0.28765 0.0
C2022 C 0.23444 0.84139 0.29383 0.0
C2023 C 0.25084 0.83796 0.305 0.0
C2024 C 0.21372 0.84065 0.3015 0.0
C2025 C 0.16987 0.81323 0.33884 0.0
H2026 H 0.1516 0.86198 0.32608 0.0
C2027 C 0.08445 0.81224 0.36982 0.0
C2028 C 0.07141 0.82011 0.35856 0.0
C2029 C 0.10641 0.81411 0.36367 0.0
C2030 C 0.15621 0.84799 0.32956 0.0
H2031 H 0.2586 0.83135 0.33297 0.0
H2032 H 0.22179 0.8296 0.34643 0.0
H2033 H 0.19081 0.86725 0.31543 0.0
H2034 H 0.07068 0.83512 0.33169 0.0
H2035 H 0.10856 0.83758 0.32068 0.0
H2036 H 0.135 0.7935 0.35247 0.0
C2037 C 0.22524 0.83302 0.33174 0.0
C2038 C 0.17878 0.85116 0.32359 0.0
C2039 C 0.24631 0.83418 0.32409 0.0
C2040 C 0.08032 0.82899 0.34073 0.0
C2041 C 0.10219 0.83063 0.3345 0.0
C2042 C 0.14714 0.8099 0.34465 0.0
C2043 C 0.20872 0.83613 0.32045 0.0
C2044 C 0.18574 0.83374 0.32807 0.0
C2045 C 0.11577 0.82369 0.34605 0.0
C2046 C 0.13996 0.82716 0.33997 0.0
H2047 H 0.23748 0.84443 0.27907 0.0
H2048 H 0.20118 0.84289 0.29247 0.0
H2049 H 0.17468 0.79936 0.34226 0.0
H2050 H 0.07821 0.80549 0.38371 0.0
H2051 H 0.11647 0.80885 0.37303 0.0
C2052 C 0.58924 0.84068 0.81976 0.0
C2053 C 0.58051 0.8332 0.80165 0.0
C2054 C 0.61011 0.84027 0.82605 0.0
C2055 C 0.64952 0.81318 0.81709 0.0
H2056 H 0.6978 0.86946 0.84516 0.0
C2057 C 0.74295 0.82375 0.84069 0.0
C2058 C 0.74971 0.83158 0.85907 0.0
C2059 C 0.7231 0.82453 0.83245 0.0
C2060 C 0.68442 0.85352 0.83745 0.0
H2061 H 0.58646 0.81866 0.77614 0.0
H2062 H 0.62288 0.81803 0.78713 0.0
H2063 H 0.66093 0.86877 0.83372 0.0
H2064 H 0.74119 0.84683 0.88306 0.0
H2065 H 0.70677 0.84791 0.86884 0.0
H2066 H 0.67295 0.79782 0.82105 0.0
C2067 C 0.61355 0.82416 0.79647 0.0
C2068 C 0.66327 0.85311 0.83093 0.0
C2069 C 0.59274 0.82466 0.79015 0.0
C2070 C 0.73651 0.84058 0.86888 0.0
C2071 C 0.71682 0.8414 0.86068 0.0
C2072 C 0.6707 0.81356 0.82367 0.0
C2073 C 0.62266 0.83226 0.81441 0.0
C2074 C 0.64543 0.83283 0.82087 0.0
C2075 C 0.70978 0.8333 0.84241 0.0
C2076 C 0.68824 0.83361 0.83413 0.0
H2077 H 0.5802 0.84724 0.82901 0.0
H2078 H 0.61644 0.84624 0.84005 0.0
H2079 H 0.63603 0.79722 0.80948 0.0
H2080 H 0.75278 0.81677 0.83275 0.0
H2081 H 0.71825 0.81836 0.81828 0.0
C2082 C 0.15631 0.90096 0.86921 0.0
C2083 C 0.15896 0.91957 0.85697 0.0
C2084 C 0.15349 0.87888 0.86246 0.0
C2085 C 0.13327 0.83749 0.82279 0.0
H2086 H 0.17681 0.81595 0.84261 0.0
C2087 C 0.14047 0.7564 0.79143 0.0
C2088 C 0.14636 0.74235 0.80329 0.0
C2089 C 0.13986 0.77698 0.79812 0.0
C2090 C 0.16413 0.82135 0.83715 0.0
H2091 H 0.16004 0.92929 0.82805 0.0
H2092 H 0.15469 0.89029 0.81624 0.0
H2093 H 0.17994 0.85393 0.8538 0.0
H2094 H 0.15474 0.73791 0.83164 0.0
H2095 H 0.15257 0.77305 0.84349 0.0
H2096 H 0.11704 0.80466 0.80642 0.0
C2097 C 0.15499 0.89304 0.83105 0.0
C2098 C 0.16609 0.84324 0.8435 0.0
C2099 C 0.1582 0.91536 0.83781 0.0
C2100 C 0.15037 0.74852 0.82213 0.0
C2101 C 0.14936 0.76884 0.82888 0.0
C2102 C 0.13104 0.81533 0.81661 0.0
C2103 C 0.15289 0.87473 0.84334 0.0
C2104 C 0.15072 0.85154 0.83637 0.0
C2105 C 0.1448 0.78378 0.81687 0.0
C2106 C 0.14648 0.80697 0.82371 0.0
H2107 H 0.15678 0.90356 0.88405 0.0
H2108 H 0.1517 0.86496 0.87222 0.0
H2109 H 0.12105 0.84342 0.8172 0.0
H2110 H 0.13751 0.75222 0.77679 0.0
H2111 H 0.13654 0.78812 0.78839 0.0
C2112 C 0.09386 0.27614 0.86745 0.0
C2113 C 0.07845 0.25588 0.85626 0.0
C2114 C 0.11446 0.29657 0.86 0.0
C2115 C 0.14454 0.32701 0.81566 0.0
H2116 H 0.20301 0.35789 0.84657 0.0
C2117 C 0.24142 0.39661 0.78795 0.0
C2118 C 0.25507 0.41835 0.79826 0.0
C2119 C 0.21951 0.3772 0.79492 0.0
C2120 C 0.18677 0.34959 0.83785 0.0
H2121 H 0.07224 0.24129 0.8284 0.0
H2122 H 0.10878 0.27674 0.81537 0.0
H2123 H 0.1653 0.32317 0.8585 0.0
H2124 H 0.25647 0.43664 0.82407 0.0
H2125 H 0.21832 0.40237 0.83642 0.0
H2126 H 0.16652 0.35316 0.79481 0.0
C2127 C 0.10464 0.2771 0.82987 0.0
C2128 C 0.16507 0.32973 0.84469 0.0
C2129 C 0.08372 0.25673 0.83731 0.0
C2130 C 0.24643 0.42012 0.81581 0.0
C2131 C 0.22464 0.40051 0.82289 0.0
C2132 C 0.16637 0.3467 0.80874 0.0
C2133 C 0.12049 0.29713 0.84121 0.0
C2134 C 0.1436 0.31823 0.83373 0.0
C2135 C 0.21089 0.37895 0.81244 0.0
C2136 C 0.18767 0.35822 0.8198 0.0
H2137 H 0.09011 0.27616 0.88208 0.0
H2138 H 0.12576 0.31188 0.86907 0.0
H2139 H 0.12834 0.3189 0.80691 0.0
H2140 H 0.24745 0.39469 0.77432 0.0
H2141 H 0.20939 0.36069 0.78665 0.0
C2142 C 0.82997 0.58583 0.67693 0.0
C2143 C 0.83061 0.5836 0.69626 0.0
C2144 C 0.82758 0.60495 0.66914 0.0
C2145 C 0.84018 0.66715 0.67877 0.0
H2146 H 0.79009 0.65475 0.64209 0.0
C2147 C 0.82239 0.74428 0.65616 0.0
C2148 C 0.81774 0.74578 0.63734 0.0
C2149 C 0.82223 0.72346 0.66312 0.0
C2150 C 0.8044 0.65859 0.65213 0.0
H2151 H 0.82923 0.59964 0.72254 0.0
H2152 H 0.82559 0.63314 0.7089 0.0
H2153 H 0.79417 0.62051 0.65405 0.0
H2154 H 0.80867 0.72641 0.61111 0.0
H2155 H 0.80911 0.69034 0.62313 0.0
H2156 H 0.85099 0.70513 0.67666 0.0
C2157 C 0.82685 0.62009 0.69982 0.0
C2158 C 0.80667 0.63897 0.65898 0.0
C2159 C 0.82884 0.60084 0.7076 0.0
C2160 C 0.81215 0.7257 0.62573 0.0
C2161 C 0.81235 0.70498 0.63264 0.0
C2162 C 0.83815 0.68676 0.67177 0.0
C2163 C 0.8262 0.62234 0.68054 0.0
C2164 C 0.82442 0.64308 0.6725 0.0
C2165 C 0.81785 0.70381 0.65137 0.0
C2166 C 0.82004 0.68274 0.65852 0.0
H2167 H 0.83112 0.57272 0.66786 0.0
H2168 H 0.82721 0.60639 0.65421 0.0
H2169 H 0.85426 0.67083 0.689 0.0
H2170 H 0.82652 0.75936 0.6655 0.0
H2171 H 0.82586 0.72295 0.67772 0.0
C2172 C 0.25143 0.08874 0.65171 0.0
C2173 C 0.25406 0.07803 0.63541 0.0
C2174 C 0.27137 0.11008 0.65894 0.0
C2175 C 0.33931 0.14833 0.65756 0.0
H2176 H 0.32727 0.19978 0.67501 0.0
C2177 C 0.41873 0.24496 0.67676 0.0
C2178 C 0.41597 0.25537 0.69317 0.0
C2179 C 0.39884 0.22376 0.6693 0.0
C2180 C 0.33089 0.18551 0.67035 0.0
H2181 H 0.27992 0.08116 0.61417 0.0
H2182 H 0.31463 0.11844 0.62675 0.0
H2183 H 0.29306 0.16134 0.66335 0.0
H2184 H 0.38992 0.25188 0.71438 0.0
H2185 H 0.35531 0.21488 0.7014 0.0
H2186 H 0.37714 0.17251 0.66456 0.0
C2187 C 0.29719 0.11019 0.63402 0.0
C2188 C 0.31129 0.16345 0.6637 0.0
C2189 C 0.27725 0.08884 0.62678 0.0
C2190 C 0.39269 0.24443 0.70168 0.0
C2191 C 0.37281 0.22324 0.69421 0.0
C2192 C 0.35891 0.17039 0.6642 0.0
C2193 C 0.2944 0.12123 0.65006 0.0
C2194 C 0.31526 0.14459 0.65725 0.0
C2195 C 0.37573 0.21248 0.67807 0.0
C2196 C 0.35493 0.18923 0.67069 0.0
H2197 H 0.23385 0.0809 0.65874 0.0
H2198 H 0.26871 0.1179 0.67148 0.0
H2199 H 0.34293 0.13405 0.65292 0.0
H2200 H 0.43639 0.2529 0.66982 0.0
H2201 H 0.4016 0.21614 0.65669 0.0
C2202 C 0.76096 0.149 0.70366 0.0
C2203 C 0.74684 0.15687 0.69377 0.0
C2204 C 0.78209 0.15067 0.69574 0.0
C2205 C 0.82879 0.18606 0.66035 0.0
H2206 H 0.84782 0.13663 0.66735 0.0
C2207 C 0.91221 0.18886 0.6234 0.0
C2208 C 0.92608 0.18101 0.63365 0.0
C2209 C 0.89065 0.1868 0.6308 0.0
C2210 C 0.8429 0.15075 0.66547 0.0
H2211 H 0.74309 0.17136 0.66743 0.0
H2212 H 0.77961 0.17387 0.65361 0.0
H2213 H 0.80857 0.12949 0.67961 0.0
H2214 H 0.92894 0.1662 0.66011 0.0
H2215 H 0.89173 0.16309 0.67304 0.0
H2216 H 0.86317 0.20734 0.64626 0.0
C2217 C 0.77468 0.16692 0.66761 0.0
C2218 C 0.82039 0.14661 0.67246 0.0
C2219 C 0.75362 0.16528 0.6755 0.0
C2220 C 0.91859 0.17223 0.65176 0.0
C2221 C 0.89714 0.17024 0.65914 0.0
C2222 C 0.85131 0.1902 0.65337 0.0
C2223 C 0.78948 0.16022 0.67779 0.0
C2224 C 0.8131 0.16424 0.67 0.0
C2225 C 0.8826 0.17691 0.64859 0.0
C2226 C 0.85866 0.17263 0.65592 0.0
H2227 H 0.75633 0.14256 0.71779 0.0
H2228 H 0.79319 0.14547 0.70398 0.0
H2229 H 0.82389 0.20019 0.65851 0.0
H2230 H 0.91741 0.19557 0.60938 0.0
H2231 H 0.87978 0.19202 0.62229 0.0
C2232 C 0.9168 0.49485 0.48494 0.0
C2233 C 0.91962 0.51258 0.47178 0.0
C2234 C 0.93737 0.49429 0.49182 0.0
C2235 C 0.98478 0.50503 0.5112 0.0
H2236 H 0.03778 0.51792 0.47724 0.0
C2237 C 0.07666 0.51557 0.53664 0.0
C2238 C 0.08744 0.50476 0.52594 0.0
C2239 C 0.05657 0.51706 0.52993 0.0
C2240 C 0.02307 0.51408 0.48688 0.0
H2241 H 0.94639 0.54402 0.45588 0.0
H2242 H 0.98217 0.54335 0.46815 0.0
H2243 H 1.00168 0.51891 0.466 0.0
H2244 H 0.08574 0.48738 0.49962 0.0
H2245 H 0.05039 0.48963 0.488 0.0
H2246 H 0.00585 0.49949 0.53196 0.0
C2247 C 0.96405 0.52953 0.47287 0.0
C2248 C 1.00249 0.51496 0.48049 0.0
C2249 C 0.94351 0.53002 0.46594 0.0
C2250 C 0.0779 0.49586 0.50821 0.0
C2251 C 0.05769 0.49725 0.50152 0.0
C2252 C 0.00532 0.50407 0.51758 0.0
C2253 C 0.96124 0.51151 0.48574 0.0
C2254 C 0.98311 0.51051 0.49258 0.0
C2255 C 0.04666 0.5077 0.51236 0.0
C2256 C 0.02476 0.50864 0.50551 0.0
H2257 H 0.89865 0.48104 0.48964 0.0
H2258 H 0.93449 0.47998 0.50156 0.0
H2259 H 0.97031 0.50172 0.52094 0.0
H2260 H 0.08369 0.52285 0.55029 0.0
H2261 H 0.04886 0.52568 0.53851 0.0
C2262 C 0.50252 0.57733 0.51121 0.0
C2263 C 0.51684 0.59057 0.52654 0.0
C2264 C 0.50273 0.55646 0.50491 0.0
C2265 C 0.5155 0.52053 0.48808 0.0
H2266 H 0.51515 0.47385 0.52341 0.0
C2267 C 0.51948 0.43616 0.46339 0.0
C2268 C 0.50421 0.41359 0.47223 0.0
C2269 C 0.52301 0.45811 0.47092 0.0
C2270 C 0.51506 0.48662 0.51339 0.0
H2271 H 0.54301 0.59247 0.54706 0.0
H2272 H 0.54383 0.55622 0.53572 0.0
H2273 H 0.51757 0.51177 0.53447 0.0
H2274 H 0.48129 0.39634 0.49625 0.0
H2275 H 0.4868 0.43483 0.50922 0.0
H2276 H 0.51192 0.49514 0.46705 0.0
C2277 C 0.53209 0.56181 0.52881 0.0
C2278 C 0.5168 0.50852 0.5197 0.0
C2279 C 0.5318 0.58271 0.5352 0.0
C2280 C 0.49308 0.41349 0.48911 0.0
C2281 C 0.49637 0.43554 0.49657 0.0
C2282 C 0.5136 0.49866 0.4818 0.0
C2283 C 0.51739 0.54834 0.51367 0.0
C2284 C 0.51687 0.52565 0.5071 0.0
C2285 C 0.51109 0.45807 0.48738 0.0
C2286 C 0.51334 0.4814 0.49434 0.0
H2287 H 0.49059 0.58268 0.50431 0.0
H2288 H 0.49085 0.54632 0.49343 0.0
H2289 H 0.51582 0.53343 0.47796 0.0
H2290 H 0.52875 0.43691 0.45055 0.0
H2291 H 0.53502 0.47513 0.46373 0.0
C2292 C 0.5842 0.05243 0.46345 0.0
C2293 C 0.59449 0.0757 0.47188 0.0
C2294 C 0.56296 0.03236 0.47068 0.0
C2295 C 0.52303 0.01007 0.51226 0.0
H2296 H 0.47215 0.96976 0.47681 0.0
C2297 C 0.42377 0.94141 0.53498 0.0
C2298 C 0.4125 0.91793 0.52679 0.0
C2299 C 0.44591 0.9605 0.52799 0.0
C2300 C 0.48625 0.98068 0.48687 0.0
H2301 H 0.591 0.09585 0.49498 0.0
H2302 H 0.55397 0.06093 0.50749 0.0
H2303 H 0.51189 0.00261 0.46583 0.0
H2304 H 0.41538 0.89636 0.50449 0.0
H2305 H 0.45399 0.9297 0.49233 0.0
H2306 H 0.4973 0.98824 0.5333 0.0
C2307 C 0.56241 0.05811 0.49538 0.0
C2308 C 0.50907 0.99946 0.48059 0.0
C2309 C 0.58365 0.07818 0.48816 0.0
C2310 C 0.42349 0.91423 0.51109 0.0
C2311 C 0.44561 0.93336 0.50409 0.0
C2312 C 0.50021 0.99131 0.51854 0.0
C2313 C 0.55152 0.0351 0.4865 0.0
C2314 C 0.52769 0.01444 0.49322 0.0
C2315 C 0.45727 0.95659 0.51265 0.0
C2316 C 0.48152 0.97648 0.50592 0.0
H2317 H 0.59209 0.04984 0.45092 0.0
H2318 H 0.55526 0.01476 0.46371 0.0
H2319 H 0.53709 0.02105 0.52234 0.0
H2320 H 0.41583 0.94493 0.54707 0.0
H2321 H 0.45422 0.97832 0.5347 0.0
C2322 C 0.49266 0.08003 0.98757 0.0
C2323 C 0.49987 0.08743 0.96918 0.0
C2324 C 0.49313 0.05959 0.99486 0.0
C2325 C 0.49218 0.00273 0.98025 0.0
H2326 H 0.51529 0.00329 0.03011 0.0
C2327 C 0.50788 0.92528 0.00839 0.0
C2328 C 0.50122 0.918 0.02687 0.0
C2329 C 0.50736 0.94576 0.00127 0.0
C2330 C 0.50849 0.00272 0.01622 0.0
H2331 H 0.51399 0.07957 0.94423 0.0
H2332 H 0.51496 0.04424 0.95698 0.0
H2333 H 0.51542 0.0397 0.01817 0.0
H2334 H 0.48806 0.92615 0.05218 0.0
H2335 H 0.48687 0.96151 0.03972 0.0
H2336 H 0.4852 0.96575 0.9783 0.0
C2337 C 0.50851 0.0539 0.96567 0.0
C2338 C 0.50859 0.02361 0.00939 0.0
C2339 C 0.50809 0.07429 0.9584 0.0
C2340 C 0.49354 0.93135 0.03793 0.0
C2341 C 0.49299 0.95175 0.03082 0.0
C2342 C 0.49205 0.98184 0.98709 0.0
C2343 C 0.5008 0.04614 0.9839 0.0
C2344 C 0.50049 0.02388 0.99131 0.0
C2345 C 0.50012 0.95937 0.01247 0.0
C2346 C 0.50022 0.98158 0.00516 0.0
H2347 H 0.48625 0.08974 0.99625 0.0
H2348 H 0.48693 0.05399 0.00893 0.0
H2349 H 0.48544 0.0022 0.96635 0.0
H2350 H 0.5139 0.91543 -0.00051 0.0
H2351 H 0.51316 0.95125 0.98711 0.0
C2352 C 0.07 0.55932 0.03959 0.0
C2353 C 0.0827 0.58139 0.02947 0.0
C2354 C 0.0494 0.53886 0.03216 0.0
C2355 C 0.01835 0.51071 0.98826 0.0
H2356 H 0.96175 0.47229 0.01987 0.0
C2357 C 0.92752 0.43243 0.9591 0.0
C2358 C 0.91522 0.41042 0.9693 0.0
C2359 C 0.94721 0.45349 0.96677 0.0
C2360 C 0.9775 0.48265 0.01092 0.0
H2361 H 0.08381 0.599 0.00339 0.0
H2362 H 0.04759 0.56307 0.99036 0.0
H2363 H 0.99767 0.50889 0.03217 0.0
H2364 H 0.91354 0.39355 0.99584 0.0
H2365 H 0.94831 0.43046 0.00927 0.0
H2366 H 0.99832 0.48442 0.96705 0.0
C2367 C 0.05377 0.56172 0.00408 0.0
C2368 C 0.99807 0.50366 0.01795 0.0
C2369 C 0.07446 0.58232 0.01156 0.0
C2370 C 0.92264 0.4102 0.98762 0.0
C2371 C 0.94251 0.43137 0.99531 0.0
C2372 C 0.99781 0.48969 0.98124 0.0
C2373 C 0.0409 0.53981 0.01438 0.0
C2374 C 0.01876 0.5179 0.00671 0.0
C2375 C 0.95524 0.45316 0.98485 0.0
C2376 C 0.97712 0.4754 0.99248 0.0
H2377 H 0.0759 0.55778 0.05338 0.0
H2378 H 0.04024 0.52215 0.04032 0.0
H2379 H 0.03412 0.52104 0.97933 0.0
H2380 H 0.92207 0.4334 0.94503 0.0
H2381 H 0.95617 0.47008 0.95847 0.0
C2382 C 0.58269 0.49741 0.99288 0.0
C2383 C 0.58714 0.50004 0.97373 0.0
C2384 C 0.5613 0.49605 0.00012 0.0
C2385 C 0.51479 0.51343 0.98999 0.0
H2386 H 0.4709 0.45852 0.02118 0.0
C2387 C 0.41729 0.49467 0.00614 0.0
C2388 C 0.40849 0.48745 0.02425 0.0
C2389 C 0.43873 0.49508 0.0003 0.0
C2390 C 0.48308 0.47416 0.01269 0.0
H2391 H 0.57302 0.50388 0.94723 0.0
H2392 H 0.53626 0.502 0.95989 0.0
H2393 H 0.51034 0.46307 0.01157 0.0
H2394 H 0.41499 0.47435 0.05027 0.0
H2395 H 0.45257 0.4756 0.04025 0.0
H2396 H 0.48801 0.52488 0.99122 0.0
C2397 C 0.54911 0.50083 0.96929 0.0
C2398 C 0.50566 0.47674 0.00722 0.0
C2399 C 0.57012 0.50177 0.96205 0.0
C2400 C 0.42114 0.47984 0.03617 0.0
C2401 C 0.44272 0.48051 0.0304 0.0
C2402 C 0.49241 0.51103 0.99561 0.0
C2403 C 0.54438 0.49783 0.98835 0.0
C2404 C 0.52155 0.49622 0.99562 0.0
C2405 C 0.45207 0.48859 0.0125 0.0
C2406 C 0.47608 0.49118 0.00682 0.0
H2407 H 0.59543 0.49591 0.00217 0.0
H2408 H 0.55805 0.49379 0.0149 0.0
H2409 H 0.52686 0.52878 0.9812 0.0
H2410 H 0.40793 0.50054 0.99658 0.0
H2411 H 0.44503 0.50083 0.98626 0.0
C2412 C 0.24453 0.26208 0.11135 0.0
C2413 C 0.21975 0.24336 0.11042 0.0
C2414 C 0.25169 0.28588 0.10534 0.0
C2415 C 0.23678 0.31849 0.07128 0.0
H2416 H 0.28054 0.37651 0.0998 0.0
C2417 C 0.30288 0.41732 0.0418 0.0
C2418 C 0.30569 0.43703 0.05278 0.0
C2419 C 0.28744 0.39292 0.04771 0.0
C2420 C 0.26814 0.36052 0.09169 0.0
H2421 H 0.18295 0.23471 0.10257 0.0
H2422 H 0.19561 0.27654 0.09164 0.0
H2423 H 0.26328 0.33588 0.11391 0.0
H2424 H 0.29288 0.4468 0.07744 0.0
H2425 H 0.26589 0.40456 0.08751 0.0
H2426 H 0.24249 0.34327 0.04878 0.0
C2427 C 0.20936 0.27278 0.09735 0.0
C2428 C 0.25836 0.33727 0.09977 0.0
C2429 C 0.20209 0.24901 0.10383 0.0
C2430 C 0.29117 0.43193 0.06877 0.0
C2431 C 0.27585 0.40776 0.07461 0.0
C2432 C 0.24694 0.34183 0.06305 0.0
C2433 C 0.23431 0.29132 0.09779 0.0
C2434 C 0.24271 0.316 0.08964 0.0
C2435 C 0.27469 0.38803 0.06465 0.0
C2436 C 0.26278 0.3631 0.07318 0.0
H2437 H 0.25852 0.25803 0.11608 0.0
H2438 H 0.27105 0.29976 0.10573 0.0
H2439 H 0.22496 0.30233 0.0631 0.0
H2440 H 0.31405 0.42074 0.02953 0.0
H2441 H 0.28689 0.37804 0.03975 0.0
C2442 C 0.58232 0.87254 0.05228 0.0
C2443 C 0.57593 0.88843 0.04335 0.0
C2444 C 0.60582 0.88176 0.06013 0.0
C2445 C 0.65725 0.94146 0.07754 0.0
H2446 H 0.69036 0.90407 0.08508 0.0
C2447 C 0.74441 0.98205 0.12232 0.0
C2448 C 0.76371 0.97877 0.11609 0.0
C2449 C 0.72065 0.96783 0.115 0.0
C2450 C 0.68149 0.9149 0.08302 0.0
H2451 H 0.58931 0.92594 0.03459 0.0
H2452 H 0.63073 0.94176 0.04691 0.0
H2453 H 0.65256 0.88643 0.06684 0.0
H2454 H 0.7735 0.958 0.09758 0.0
H2455 H 0.73235 0.93363 0.08437 0.0
H2456 H 0.68653 0.97034 0.09284 0.0
C2457 C 0.61751 0.92238 0.04865 0.0
C2458 C 0.65958 0.90463 0.07267 0.0
C2459 C 0.59391 0.91327 0.04122 0.0
C2460 C 0.75869 0.96033 0.10299 0.0
C2461 C 0.73504 0.94643 0.09537 0.0
C2462 C 0.6792 0.95179 0.08765 0.0
C2463 C 0.62348 0.90704 0.059 0.0
C2464 C 0.64716 0.91782 0.0697 0.0
C2465 C 0.71583 0.95057 0.10079 0.0
C2466 C 0.69172 0.93872 0.09061 0.0
H2467 H 0.56853 0.85343 0.05456 0.0
H2468 H 0.60948 0.86933 0.06807 0.0
H2469 H 0.6481 0.95211 0.07606 0.0
H2470 H 0.74798 0.99649 0.13215 0.0
H2471 H 0.70631 0.97117 0.11998 0.0
C2472 C 0.09602 0.67651 0.07077 0.0
C2473 C 0.1131 0.68273 0.05624 0.0
C2474 C 0.08923 0.69318 0.07717 0.0
C2475 C 0.08309 0.74571 0.06424 0.0
H2476 H 0.07942 0.75281 0.11731 0.0
C2477 C 0.04408 0.80436 0.09304 0.0
C2478 C 0.0277 0.79446 0.10802 0.0
C2479 C 0.05914 0.79482 0.08805 0.0
C2480 C 0.08013 0.75094 0.10246 0.0
H2481 H 0.13617 0.71156 0.0369 0.0
H2482 H 0.1236 0.74077 0.04789 0.0
H2483 H 0.09665 0.72836 0.10522 0.0
H2484 H 0.01496 0.76753 0.13004 0.0
H2485 H 0.04081 0.75026 0.12112 0.0
H2486 H 0.06554 0.76718 0.06135 0.0
C2487 C 0.11574 0.72282 0.05434 0.0
C2488 C 0.09015 0.73703 0.09553 0.0
C2489 C 0.12288 0.70611 0.04802 0.0
C2490 C 0.02769 0.77573 0.11861 0.0
C2491 C 0.04252 0.76583 0.11341 0.0
C2492 C 0.07284 0.75942 0.07116 0.0
C2493 C 0.09909 0.71659 0.06918 0.0
C2494 C 0.09133 0.73389 0.07635 0.0
C2495 C 0.05785 0.77472 0.09766 0.0
C2496 C 0.07084 0.76193 0.09039 0.0
H2497 H 0.08809 0.65877 0.07757 0.0
H2498 H 0.07604 0.68763 0.08839 0.0
H2499 H 0.0835 0.7434 0.04941 0.0
H2500 H 0.04447 0.81889 0.08468 0.0
H2501 H 0.07118 0.8027 0.07622 0.0
C2502 C 0.41005 0.31275 0.45169 0.0
C2503 C 0.42928 0.30748 0.45062 0.0
C2504 C 0.38702 0.29668 0.44393 0.0
C2505 C 0.36119 0.26088 0.4042 0.0
H2506 H 0.29785 0.22928 0.42906 0.0
C2507 C 0.26665 0.23888 0.37326 0.0
C2508 C 0.24703 0.21476 0.37565 0.0
C2509 C 0.28978 0.24609 0.38094 0.0
C2510 C 0.31543 0.23777 0.42198 0.0
H2511 H 0.43969 0.28142 0.44073 0.0
H2512 H 0.39947 0.25362 0.42653 0.0
H2513 H 0.336 0.24925 0.44739 0.0
H2514 H 0.236 0.1792 0.38778 0.0
H2515 H 0.27638 0.19206 0.4018 0.0
H2516 H 0.34062 0.25095 0.37877 0.0
C2517 C 0.40206 0.26978 0.4339 0.0
C2518 C 0.33716 0.2492 0.43243 0.0
C2519 C 0.4249 0.2855 0.44216 0.0
C2520 C 0.25109 0.1977 0.3853 0.0
C2521 C 0.27404 0.2051 0.39347 0.0
C2522 C 0.33945 0.25001 0.39373 0.0
C2523 C 0.3831 0.2755 0.43444 0.0
C2524 C 0.36019 0.26101 0.42362 0.0
C2525 C 0.2934 0.2295 0.39168 0.0
C2526 C 0.3164 0.23855 0.40254 0.0
H2527 H 0.41319 0.32984 0.4578 0.0
H2528 H 0.37272 0.30155 0.44436 0.0
H2529 H 0.37878 0.27013 0.39712 0.0
H2530 H 0.26373 0.25248 0.36625 0.0
H2531 H 0.30436 0.26507 0.37954 0.0
C2532 C 0.80567 0.05293 0.38119 0.0
C2533 C 0.7882 0.0306 0.37302 0.0
C2534 C 0.79829 0.0686 0.38907 0.0
C2535 C 0.75018 0.08511 0.38924 0.0
H2536 H 0.76246 0.09727 0.44193 0.0
C2537 C 0.71471 0.14015 0.42732 0.0
C2538 C 0.69838 0.12699 0.44175 0.0
C2539 C 0.73114 0.13315 0.42063 0.0
C2540 C 0.75909 0.09417 0.42721 0.0
H2541 H 0.7497 0.00746 0.36606 0.0
H2542 H 0.73701 0.03553 0.37878 0.0
H2543 H 0.7806 0.07632 0.42486 0.0
H2544 H 0.68758 0.0974 0.46146 0.0
H2545 H 0.7168 0.08523 0.4499 0.0
H2546 H 0.72842 0.10249 0.39148 0.0
C2547 C 0.75631 0.04081 0.37929 0.0
C2548 C 0.76956 0.08237 0.41743 0.0
C2549 C 0.76356 0.02486 0.37188 0.0
C2550 C 0.70036 0.10813 0.45058 0.0
C2551 C 0.71693 0.10109 0.44385 0.0
C2552 C 0.74012 0.09726 0.39889 0.0
C2553 C 0.77344 0.06241 0.38849 0.0
C2554 C 0.76484 0.07739 0.39841 0.0
C2555 C 0.73152 0.11274 0.42818 0.0
C2556 C 0.74417 0.10164 0.41802 0.0
H2557 H 0.82465 0.05735 0.38272 0.0
H2558 H 0.81183 0.08516 0.39608 0.0
H2559 H 0.7462 0.08142 0.37462 0.0
H2560 H 0.71332 0.15459 0.42017 0.0
H2561 H 0.74239 0.14268 0.40872 0.0
C2562 C 0.90625 0.59409 0.45707 0.0
C2563 C 0.88091 0.57712 0.45675 0.0
C2564 C 0.91517 0.6184 0.45141 0.0
C2565 C 0.89572 0.65238 0.42003 0.0
H2566 H 0.96055 0.70663 0.43221 0.0
C2567 C 0.94674 0.75482 0.39211 0.0
C2568 C 0.9701 0.76199 0.38474 0.0
C2569 C 0.93256 0.73148 0.40011 0.0
C2570 C 0.9424 0.69158 0.42869 0.0
H2571 H 0.84486 0.57249 0.45172 0.0
H2572 H 0.86019 0.61538 0.44304 0.0
H2573 H 0.94205 0.66992 0.45162 0.0
H2574 H 0.9967 0.75043 0.37936 0.0
H2575 H 0.97202 0.70971 0.39345 0.0
H2576 H 0.89618 0.67473 0.39728 0.0
C2577 C 0.87336 0.60987 0.44707 0.0
C2578 C 0.93179 0.67048 0.43977 0.0
C2579 C 0.86448 0.58542 0.45251 0.0
C2580 C 0.97841 0.74499 0.38443 0.0
C2581 C 0.96449 0.7219 0.39272 0.0
C2582 C 0.90619 0.67376 0.40917 0.0
C2583 C 0.89888 0.62631 0.44539 0.0
C2584 C 0.90855 0.65026 0.43535 0.0
C2585 C 0.94191 0.71535 0.40124 0.0
C2586 C 0.92986 0.69324 0.41317 0.0
H2587 H 0.91929 0.5879 0.45973 0.0
H2588 H 0.93492 0.63021 0.4502 0.0
H2589 H 0.87802 0.63717 0.41589 0.0
H2590 H 0.94037 0.76795 0.39304 0.0
H2591 H 0.91526 0.72684 0.40671 0.0
C2592 C 0.75324 0.74175 0.88582 0.0
C2593 C 0.77831 0.75802 0.88222 0.0
C2594 C 0.74558 0.71903 0.89414 0.0
C2595 C 0.75968 0.67102 0.90603 0.0
H2596 H 0.71838 0.66276 0.9485 0.0
C2597 C 0.71347 0.58118 0.95027 0.0
C2598 C 0.68803 0.57172 0.95256 0.0
C2599 C 0.7286 0.60537 0.94385 0.0
C2600 C 0.72988 0.66473 0.93671 0.0
H2601 H 0.81484 0.76246 0.8833 0.0
H2602 H 0.80123 0.72209 0.89772 0.0
H2603 H 0.73654 0.70097 0.93092 0.0
H2604 H 0.65871 0.58035 0.95089 0.0
H2605 H 0.68484 0.62227 0.94017 0.0
H2606 H 0.75208 0.63421 0.91146 0.0
C2607 C 0.78762 0.72719 0.89409 0.0
C2608 C 0.74027 0.68661 0.92662 0.0
C2609 C 0.79536 0.75016 0.8857 0.0
C2610 C 0.67829 0.58722 0.94939 0.0
C2611 C 0.69333 0.6113 0.94325 0.0
C2612 C 0.74908 0.6489 0.91611 0.0
C2613 C 0.76278 0.71194 0.89911 0.0
C2614 C 0.75463 0.68973 0.91085 0.0
C2615 C 0.71855 0.62053 0.93993 0.0
C2616 C 0.73342 0.64525 0.93123 0.0
H2617 H 0.73965 0.74724 0.88322 0.0
H2618 H 0.72625 0.70741 0.89748 0.0
H2619 H 0.77076 0.673 0.89397 0.0
H2620 H 0.72137 0.56946 0.95234 0.0
H2621 H 0.74798 0.61199 0.94152 0.0
C2622 C 0.40757 0.08684 0.94634 0.0
C2623 C 0.42321 0.1121 0.94953 0.0
C2624 C 0.38393 0.07803 0.93923 0.0
C2625 C 0.34893 0.09706 0.90965 0.0
H2626 H 0.29467 0.03314 0.92371 0.0
C2627 C 0.24918 0.04658 0.8768 0.0
C2628 C 0.23919 0.02111 0.87427 0.0
C2629 C 0.27229 0.06067 0.88535 0.0
C2630 C 0.30968 0.05098 0.91954 0.0
H2631 H 0.42615 0.14794 0.94827 0.0
H2632 H 0.38446 0.13245 0.93579 0.0
H2633 H 0.33208 0.05216 0.94227 0.0
H2634 H 0.24633 0.9909 0.8771 0.0
H2635 H 0.28654 0.01537 0.89151 0.0
H2636 H 0.32629 0.09551 0.88671 0.0
C2637 C 0.39059 0.11949 0.93886 0.0
C2638 C 0.33111 0.06191 0.93023 0.0
C2639 C 0.41428 0.12831 0.94627 0.0
C2640 C 0.25354 0.01047 0.87892 0.0
C2641 C 0.27646 0.02444 0.88737 0.0
C2642 C 0.3273 0.0861 0.89895 0.0
C2643 C 0.37535 0.09428 0.93489 0.0
C2644 C 0.3513 0.08475 0.92515 0.0
C2645 C 0.28559 0.0494 0.89149 0.0
C2646 C 0.30775 0.06259 0.9035 0.0
H2647 H 0.41408 0.07398 0.94853 0.0
H2648 H 0.3729 0.05857 0.93616 0.0
H2649 H 0.3642 0.1146 0.90527 0.0
H2650 H 0.23833 0.05516 0.8736 0.0
H2651 H 0.27894 0.07991 0.88829 0.0
C2652 C 0.9504 0.19484 0.88179 0.0
C2653 C 0.97445 0.21283 0.8768 0.0
C2654 C 0.93367 0.20184 0.88825 0.0
C2655 C 0.9238 0.25557 0.8919 0.0
H2656 H 0.89529 0.22872 0.93992 0.0
C2657 C 0.90948 0.31229 0.9457 0.0
C2658 C 0.88481 0.30501 0.94965 0.0
C2659 C 0.91549 0.2962 0.93701 0.0
C2660 C 0.90275 0.23603 0.92637 0.0
H2661 H 0.9995 0.25193 0.87363 0.0
H2662 H 0.97047 0.26412 0.88432 0.0
H2663 H 0.91396 0.20932 0.92163 0.0
H2664 H 0.84727 0.27447 0.9488 0.0
H2665 H 0.85806 0.24584 0.93386 0.0
H2666 H 0.91399 0.28315 0.89716 0.0
C2667 C 0.96426 0.24465 0.88332 0.0
C2668 C 0.91335 0.22492 0.91585 0.0
C2669 C 0.98096 0.2377 0.87718 0.0
C2670 C 0.86647 0.28047 0.94618 0.0
C2671 C 0.87258 0.26419 0.93749 0.0
C2672 C 0.91341 0.2667 0.90242 0.0
C2673 C 0.94067 0.22691 0.88951 0.0
C2674 C 0.92481 0.23515 0.89879 0.0
C2675 C 0.89703 0.27236 0.93218 0.0
C2676 C 0.90355 0.25753 0.91999 0.0
H2677 H 0.94512 0.17555 0.88195 0.0
H2678 H 0.9156 0.18774 0.89284 0.0
H2679 H 0.93205 0.26365 0.87869 0.0
H2680 H 0.92402 0.33105 0.94821 0.0
H2681 H 0.9345 0.30279 0.9332 0.0
C2682 C 0.58067 0.71663 0.55404 0.0
C2683 C 0.57272 0.69276 0.54751 0.0
C2684 C 0.60495 0.7316 0.56022 0.0
C2685 C 0.66623 0.73419 0.5648 0.0
H2686 H 0.67257 0.77338 0.60818 0.0
C2687 C 0.74577 0.76562 0.61702 0.0
C2688 C 0.76233 0.79101 0.61555 0.0
C2689 C 0.72184 0.75539 0.60992 0.0
C2690 C 0.671 0.76252 0.59606 0.0
H2691 H 0.58384 0.66594 0.54193 0.0
H2692 H 0.62578 0.69145 0.55296 0.0
H2693 H 0.63371 0.75317 0.59111 0.0
H2694 H 0.76665 0.82574 0.60633 0.0
H2695 H 0.7242 0.80798 0.59488 0.0
H2696 H 0.70324 0.74265 0.57056 0.0
C2697 C 0.6139 0.69932 0.5528 0.0
C2698 C 0.64882 0.75113 0.58607 0.0
C2699 C 0.58978 0.68461 0.5463 0.0
C2700 C 0.75396 0.80624 0.60819 0.0
C2701 C 0.72982 0.79606 0.60145 0.0
C2702 C 0.68813 0.74511 0.57504 0.0
C2703 C 0.62163 0.72272 0.56054 0.0
C2704 C 0.64599 0.7366 0.57032 0.0
C2705 C 0.71397 0.77044 0.60151 0.0
C2706 C 0.69064 0.7592 0.59081 0.0
H2707 H 0.56764 0.72307 0.55554 0.0
H2708 H 0.61022 0.74969 0.56555 0.0
H2709 H 0.66523 0.72376 0.55258 0.0
H2710 H 0.75204 0.75342 0.62205 0.0
H2711 H 0.70993 0.73558 0.61005 0.0
C2712 C 0.24175 0.98582 0.61405 0.0
C2713 C 0.21622 0.97651 0.61459 0.0
C2714 C 0.25118 0.97133 0.60735 0.0
C2715 C 0.24162 0.91113 0.59618 0.0
H2716 H 0.2789 0.94191 0.55161 0.0
C2717 C 0.28586 0.8648 0.55488 0.0
C2718 C 0.31001 0.88063 0.54879 0.0
C2719 C 0.27092 0.8743 0.56059 0.0
C2720 C 0.26882 0.93309 0.5641 0.0
H2721 H 0.1805 0.94447 0.60959 0.0
H2722 H 0.19706 0.91854 0.59872 0.0
H2723 H 0.26118 0.96221 0.56937 0.0
H2724 H 0.33733 0.91851 0.54333 0.0
H2725 H 0.31175 0.93524 0.55335 0.0
H2726 H 0.25025 0.88264 0.59162 0.0
C2727 C 0.2097 0.93708 0.60344 0.0
C2728 C 0.25859 0.94474 0.57424 0.0
C2729 C 0.20023 0.95177 0.60988 0.0
C2730 C 0.31846 0.90588 0.54738 0.0
C2731 C 0.30372 0.91544 0.55329 0.0
C2732 C 0.25231 0.89967 0.58625 0.0
C2733 C 0.23523 0.94719 0.60126 0.0
C2734 C 0.24519 0.93404 0.59048 0.0
C2735 C 0.28008 0.8999 0.56072 0.0
C2736 C 0.26637 0.91065 0.57016 0.0
H2737 H 0.2544 0.00506 0.61707 0.0
H2738 H 0.27094 0.97948 0.60583 0.0
H2739 H 0.23128 0.90252 0.60865 0.0
H2740 H 0.27921 0.84531 0.55657 0.0
H2741 H 0.25266 0.86164 0.5658 0.0
C2742 C 0.09032 0.41343 0.55354 0.0
C2743 C 0.11301 0.42736 0.54437 0.0
C2744 C 0.08369 0.39058 0.56121 0.0
C2745 C 0.08988 0.33687 0.5599 0.0
H2746 H 0.07321 0.33146 0.61206 0.0
C2747 C 0.0493 0.24333 0.59647 0.0
C2748 C 0.02912 0.23716 0.60811 0.0
C2749 C 0.06481 0.2677 0.59093 0.0
C2750 C 0.07761 0.3325 0.59749 0.0
H2751 H 0.14583 0.4273 0.53508 0.0
H2752 H 0.13357 0.38639 0.54803 0.0
H2753 H 0.08924 0.37094 0.59631 0.0
H2754 H 0.00969 0.25156 0.62361 0.0
H2755 H 0.0363 0.29407 0.61376 0.0
H2756 H 0.07687 0.29825 0.5606 0.0
C2757 C 0.12126 0.39371 0.54945 0.0
C2758 C 0.08696 0.35519 0.58851 0.0
C2759 C 0.12815 0.41697 0.54191 0.0
C2760 C 0.02556 0.25599 0.61504 0.0
C2761 C 0.04082 0.28037 0.60925 0.0
C2762 C 0.08015 0.31403 0.56881 0.0
C2763 C 0.09935 0.38078 0.55973 0.0
C2764 C 0.0927 0.35748 0.56955 0.0
C2765 C 0.06009 0.28643 0.5965 0.0
C2766 C 0.07337 0.31137 0.58767 0.0
H2767 H 0.07805 0.42069 0.55559 0.0
H2768 H 0.06647 0.38077 0.56873 0.0
H2769 H 0.094 0.33812 0.54525 0.0
H2770 H 0.05216 0.22901 0.59072 0.0
H2771 H 0.07978 0.27161 0.58154 0.0
C2772 C 0.09202 0.62095 0.76666 0.0
C2773 C 0.09801 0.64004 0.77937 0.0
C2774 C 0.06756 0.60523 0.76136 0.0
C2775 C 1.00224 0.58955 0.77051 0.0
H2776 H 0.99521 0.57707 0.71761 0.0
C2777 C 0.91884 0.57732 0.72992 0.0
C2778 C 0.90555 0.55588 0.71917 0.0
C2779 C 0.94182 0.58371 0.73726 0.0
C2780 C 0.99685 0.58006 0.73244 0.0
H2781 H 0.08317 0.65713 0.79712 0.0
H2782 H 0.04048 0.6302 0.78768 0.0
H2783 H 0.03575 0.59436 0.73197 0.0
H2784 H 0.9069 0.52506 0.70692 0.0
H2785 H 0.94804 0.53697 0.71935 0.0
H2786 H 0.96346 0.57665 0.77058 0.0
C2787 C 0.05445 0.62671 0.78208 0.0
C2788 C 0.0201 0.58989 0.74077 0.0
C2789 C 0.07895 0.64216 0.78763 0.0
C2790 C 0.91666 0.54174 0.71504 0.0
C2791 C 0.94008 0.54844 0.72225 0.0
C2792 C 0.97912 0.58008 0.76212 0.0
C2793 C 0.04851 0.60864 0.76829 0.0
C2794 C 0.02325 0.59529 0.75989 0.0
C2795 C 0.95247 0.56911 0.73389 0.0
C2796 C 0.97629 0.57573 0.74295 0.0
H2797 H 0.10648 0.61912 0.75996 0.0
H2798 H 0.06378 0.59115 0.75115 0.0
H2799 H 0.00368 0.59284 0.78528 0.0
H2800 H 0.91111 0.58887 0.73332 0.0
H2801 H 0.95117 0.60002 0.74584 0.0
C2802 C 0.38276 0.46694 0.77776 0.0
C2803 C 0.35783 0.45149 0.78215 0.0
C2804 C 0.3975 0.45692 0.77278 0.0
C2805 C 0.39728 0.39707 0.7683 0.0
H2806 H 0.4391 0.42946 0.72589 0.0
C2807 C 0.42676 0.34522 0.71935 0.0
C2808 C 0.45233 0.35503 0.71835 0.0
C2809 C 0.41707 0.35935 0.72632 0.0
C2810 C 0.42757 0.42032 0.73777 0.0
H2811 H 0.32889 0.4137 0.78549 0.0
H2812 H 0.35418 0.39609 0.77679 0.0
H2813 H 0.42 0.44951 0.74249 0.0
H2814 H 0.48787 0.38748 0.72297 0.0
H2815 H 0.47085 0.41276 0.73441 0.0
H2816 H 0.40398 0.36738 0.7629 0.0
C2817 C 0.36288 0.41594 0.7776 0.0
C2818 C 0.4168 0.43187 0.74746 0.0
C2819 C 0.3483 0.42599 0.78276 0.0
C2820 C 0.46807 0.3798 0.72308 0.0
C2821 C 0.45835 0.39413 0.72981 0.0
C2822 C 0.40766 0.38538 0.75841 0.0
C2823 C 0.3874 0.43121 0.77172 0.0
C2824 C 0.4012 0.42026 0.76274 0.0
C2825 C 0.4328 0.38361 0.7323 0.0
C2826 C 0.42261 0.39672 0.74291 0.0
H2827 H 0.39031 0.48666 0.77671 0.0
H2828 H 0.41642 0.46933 0.76877 0.0
H2829 H 0.38593 0.38773 0.78019 0.0
H2830 H 0.41432 0.32595 0.71627 0.0
H2831 H 0.3973 0.35089 0.72798 0.0
C2832 C 0.53785 0.91853 0.78304 0.0
C2833 C 0.55442 0.91022 0.78689 0.0
C2834 C 0.54633 0.94196 0.77529 0.0
C2835 C 0.59981 0.98898 0.74812 0.0
H2836 H 0.57273 0.03111 0.75888 0.0
C2837 C 0.64085 0.08445 0.71363 0.0
C2838 C 0.64575 0.10347 0.72615 0.0
C2839 C 0.625 0.05976 0.7187 0.0
C2840 C 0.58054 0.01958 0.75569 0.0
H2841 H 0.59287 0.92034 0.78686 0.0
H2842 H 0.6078 0.96142 0.77438 0.0
H2843 H 0.55596 0.99138 0.77437 0.0
H2844 H 0.63642 0.11179 0.75302 0.0
H2845 H 0.60923 0.06935 0.76181 0.0
H2846 H 0.62518 0.01754 0.73019 0.0
C2847 C 0.58818 0.94973 0.7766 0.0
C2848 C 0.57075 0.99666 0.76449 0.0
C2849 C 0.5797 0.92633 0.78409 0.0
C2850 C 0.63305 0.09749 0.74309 0.0
C2851 C 0.61727 0.07304 0.7481 0.0
C2852 C 0.60968 0.01191 0.73942 0.0
C2853 C 0.57157 0.95752 0.77136 0.0
C2854 C 0.58066 0.98128 0.76117 0.0
C2855 C 0.6137 0.05373 0.73631 0.0
C2856 C 0.60057 0.02781 0.74337 0.0
H2857 H 0.51821 0.90627 0.78469 0.0
H2858 H 0.53296 0.94727 0.77143 0.0
H2859 H 0.60751 0.9774 0.74477 0.0
H2860 H 0.65049 0.08851 0.70053 0.0
H2861 H 0.62236 0.04539 0.70911 0.0
C2862 C 0.34536 0.91969 0.27719 0.0
C2863 C 0.35345 0.90308 0.28157 0.0
C2864 C 0.3613 0.94234 0.2691 0.0
C2865 C 0.42304 0.991 0.26012 0.0
H2866 H 0.39473 0.99667 0.21388 0.0
C2867 C 0.4667 0.08196 0.2175 0.0
C2868 C 0.44947 0.08937 0.21337 0.0
C2869 C 0.45869 0.05781 0.22351 0.0
C2870 C 0.40298 0.99541 0.22671 0.0
H2871 H 0.38512 0.89797 0.28218 0.0
H2872 H 0.41349 0.93835 0.2682 0.0
H2873 H 0.37441 0.95819 0.23118 0.0
H2874 H 0.41061 0.07723 0.21129 0.0
H2875 H 0.39667 0.03532 0.22121 0.0
H2876 H 0.45091 0.02881 0.25611 0.0
C2877 C 0.39462 0.93349 0.27102 0.0
C2878 C 0.39136 0.97336 0.23659 0.0
C2879 C 0.37848 0.91054 0.27914 0.0
C2880 C 0.42426 0.07192 0.21419 0.0
C2881 C 0.4163 0.04786 0.21989 0.0
C2882 C 0.43465 0.01328 0.25025 0.0
C2883 C 0.38578 0.94906 0.26522 0.0
C2884 C 0.40079 0.97118 0.25368 0.0
C2885 C 0.43335 0.04065 0.22517 0.0
C2886 C 0.42422 0.01597 0.23374 0.0
H2887 H 0.32621 0.91454 0.27899 0.0
H2888 H 0.35415 0.9542 0.26506 0.0
H2889 H 0.43064 0.98974 0.27327 0.0
H2890 H 0.48625 0.09523 0.21732 0.0
H2891 H 0.47227 0.05279 0.2274 0.0
C2892 C 0.92702 0.3562 0.21112 0.0
C2893 C 0.90992 0.36215 0.21839 0.0
C2894 C 0.95166 0.36908 0.21698 0.0
C2895 C 0.99956 0.42392 0.24186 0.0
H2896 H 0.01857 0.3783 0.26133 0.0
C2897 C 0.0899 0.45737 0.28457 0.0
C2898 C 0.10322 0.44535 0.28073 0.0
C2899 C 0.06583 0.448 0.27763 0.0
C2900 C 0.01385 0.39143 0.25576 0.0
H2901 H 0.90528 0.387 0.23646 0.0
H2902 H 0.94845 0.41014 0.24606 0.0
H2903 H 0.97972 0.36262 0.24495 0.0
H2904 H 0.10118 0.4135 0.26718 0.0
H2905 H 0.06025 0.39777 0.25499 0.0
H2906 H 0.03401 0.45281 0.25236 0.0
C2907 C 0.94294 0.39558 0.23594 0.0
C2908 C 0.99151 0.38237 0.24632 0.0
C2909 C 0.91827 0.38245 0.23034 0.0
C2910 C 0.09158 0.42332 0.27049 0.0
C2911 C 0.06783 0.41412 0.26354 0.0
C2912 C 0.02221 0.43307 0.25109 0.0
C2913 C 0.95964 0.38827 0.23002 0.0
C2914 C 0.98413 0.39846 0.23916 0.0
C2915 C 0.05464 0.42642 0.26674 0.0
C2916 C 0.02978 0.41693 0.25806 0.0
H2917 H 0.92091 0.34025 0.20227 0.0
H2918 H 0.96419 0.36316 0.21208 0.0
H2919 H 0.99427 0.43677 0.2366 0.0
H2920 H 0.09837 0.47447 0.29228 0.0
H2921 H 0.05616 0.45783 0.28061 0.0
C2922 C 0.54089 0.62447 0.27352 0.0
C2923 C 0.55656 0.65008 0.27247 0.0
C2924 C 0.54908 0.60854 0.26733 0.0
C2925 C 0.58915 0.60743 0.23194 0.0
H2926 H 0.59178 0.55548 0.25887 0.0
C2927 C 0.64855 0.56653 0.20751 0.0
C2928 C 0.64272 0.54297 0.21344 0.0
C2929 C 0.63396 0.57654 0.21293 0.0
C2930 C 0.59065 0.56948 0.2509 0.0
H2931 H 0.59316 0.67916 0.26513 0.0
H2932 H 0.60739 0.65154 0.25446 0.0
H2933 H 0.5744 0.57834 0.27367 0.0
H2934 H 0.61654 0.51079 0.22871 0.0
H2935 H 0.59005 0.52741 0.23713 0.0
H2936 H 0.60499 0.59868 0.20909 0.0
C2937 C 0.5889 0.64369 0.25998 0.0
C2938 C 0.58082 0.58268 0.25952 0.0
C2939 C 0.58086 0.65946 0.26629 0.0
C2940 C 0.62111 0.52886 0.22369 0.0
C2941 C 0.60625 0.53864 0.22883 0.0
C2942 C 0.59855 0.59401 0.22321 0.0
C2943 C 0.57284 0.61815 0.25977 0.0
C2944 C 0.58059 0.60219 0.25026 0.0
C2945 C 0.61308 0.56307 0.22428 0.0
C2946 C 0.60006 0.57523 0.2327 0.0
H2947 H 0.5219 0.61686 0.27781 0.0
H2948 H 0.53638 0.58887 0.2673 0.0
H2949 H 0.58884 0.6222 0.2244 0.0
H2950 H 0.66556 0.57803 0.2001 0.0
H2951 H 0.64017 0.59548 0.20928 0.0
C2952 C 0.92548 0.05505 0.15072 0.0
C2953 C 0.91034 0.06262 0.14205 0.0
C2954 C 0.95099 0.07097 0.1517 0.0
C2955 C 0.99845 0.11391 0.12273 0.0
H2956 H 0.04263 0.1324 0.16474 0.0
C2957 C 0.10319 0.16091 0.11076 0.0
C2958 C 0.11692 0.1551 0.12298 0.0
C2959 C 0.07889 0.15447 0.11499 0.0
C2960 C 0.03066 0.12714 0.15278 0.0
H2961 H 0.90966 0.09265 0.1279 0.0
H2962 H 0.95444 0.12032 0.12917 0.0
H2963 H 0.99817 0.11183 0.16979 0.0
H2964 H 0.11614 0.13824 0.1493 0.0
H2965 H 0.07361 0.12572 0.15623 0.0
H2966 H 0.03014 0.12711 0.10554 0.0
C2967 C 0.9465 0.10241 0.13569 0.0
C2968 C 0.00517 0.11559 0.15576 0.0
C2969 C 0.92092 0.08671 0.13514 0.0
C2970 C 0.1061 0.14327 0.13972 0.0
C2971 C 0.0816 0.13618 0.14372 0.0
C2972 C 0.02381 0.12482 0.11971 0.0
C2973 C 0.9618 0.0944 0.14349 0.0
C2974 C 0.98886 0.10876 0.14075 0.0
C2975 C 0.06738 0.14127 0.13128 0.0
C2976 C 0.0404 0.13143 0.13467 0.0
H2977 H 0.91775 0.03632 0.15566 0.0
H2978 H 0.96244 0.06428 0.15758 0.0
H2979 H 0.98619 0.10845 0.1109 0.0
H2980 H 0.11115 0.17017 0.0978 0.0
H2981 H 0.06906 0.15951 0.10525 0.0
C2982 C 0.84923 0.9555 0.14983 0.0
C2983 C 0.84804 0.96027 0.13093 0.0
C2984 C 0.85541 0.93789 0.15538 0.0
C2985 C 0.86263 0.88593 0.13801 0.0
H2986 H 0.91295 0.90689 0.17596 0.0
C2987 C 0.94809 0.87049 0.15389 0.0
C2988 C 0.93713 0.84589 0.14816 0.0
C2989 C 0.9335 0.88103 0.15772 0.0
C2990 C 0.89884 0.90068 0.16539 0.0
H2991 H 0.85111 0.94919 0.10308 0.0
H2992 H 0.86201 0.91879 0.11269 0.0
H2993 H 0.89355 0.93148 0.16968 0.0
H2994 H 0.90253 0.81233 0.14362 0.0
H2995 H 0.87692 0.83017 0.15137 0.0
H2996 H 0.86895 0.85615 0.13276 0.0
C2997 C 0.85802 0.92849 0.12329 0.0
C2998 C 0.8875 0.91466 0.16191 0.0
C2999 C 0.85189 0.94607 0.11775 0.0
C3000 C 0.91137 0.83128 0.14828 0.0
C3001 C 0.89675 0.84167 0.15237 0.0
C3002 C 0.87401 0.87206 0.14141 0.0
C3003 C 0.86042 0.92454 0.14216 0.0
C3004 C 0.86976 0.90783 0.14779 0.0
C3005 C 0.90765 0.86706 0.15595 0.0
C3006 C 0.89275 0.87957 0.15481 0.0
H3007 H 0.84631 0.96602 0.16038 0.0
H3008 H 0.85674 0.93507 0.17002 0.0
H3009 H 0.84876 0.87989 0.12726 0.0
H3010 H 0.96791 0.88226 0.15343 0.0
H3011 H 0.94266 0.90064 0.16032 0.0
C3012 C 0.16711 0.08254 0.12882 0.0
C3013 C 0.15958 0.09759 0.13759 0.0
C3014 C 0.15502 0.05726 0.13242 0.0
C3015 C 0.09296 0.00904 0.14543 0.0
H3016 H 0.1205 0.966 0.14172 0.0
C3017 C 0.02915 0.90477 0.14374 0.0
C3018 C 0.03417 0.8919 0.13022 0.0
C3019 C 0.04677 0.92886 0.1484 0.0
C3020 C 0.11253 0.97778 0.14271 0.0
H3021 H 0.13449 0.09864 0.15755 0.0
H3022 H 0.11378 0.05452 0.16444 0.0
H3023 H 0.14801 0.01054 0.14431 0.0
H3024 H 0.06163 0.89346 0.11134 0.0
H3025 H 0.09258 0.93607 0.11913 0.0
H3026 H 0.05763 0.9767 0.1432 0.0
C3027 C 0.12885 0.0621 0.15463 0.0
C3028 C 0.12829 0.0033 0.14425 0.0
C3029 C 0.1409 0.08738 0.15093 0.0
C3030 C 0.05751 0.90307 0.12194 0.0
C3031 C 0.07518 0.9274 0.12645 0.0
C3032 C 0.07729 0.98367 0.14389 0.0
C3033 C 0.13501 0.04655 0.14478 0.0
C3034 C 0.11868 0.01928 0.14541 0.0
C3035 C 0.06973 0.94082 0.13938 0.0
C3036 C 0.08681 0.96768 0.14231 0.0
H3037 H 0.1811 0.09002 0.11813 0.0
H3038 H 0.16012 0.04591 0.12443 0.0
H3039 H 0.08482 0.02072 0.1458 0.0
H3040 H 0.01128 0.89636 0.15038 0.0
H3041 H 0.04211 0.93836 0.15872 0.0
C3042 C 0.15867 0.10486 0.34287 0.0
C3043 C 0.16239 0.11196 0.3616 0.0
C3044 C 0.15118 0.08055 0.3378 0.0
C3045 C 0.14318 0.02124 0.35609 0.0
H3046 H 0.08844 0.99163 0.32166 0.0
C3047 C 0.05201 0.92153 0.34552 0.0
C3048 C 0.06205 0.90691 0.35081 0.0
C3049 C 0.06751 0.94641 0.34119 0.0
C3050 C 0.10372 0.99956 0.3313 0.0
H3051 H 0.16269 0.0994 0.38953 0.0
H3052 H 0.14942 0.0573 0.38081 0.0
H3053 H 0.1107 0.03608 0.32609 0.0
H3054 H 0.09572 0.90588 0.35443 0.0
H3055 H 0.12285 0.94883 0.34573 0.0
H3056 H 0.13518 0.98482 0.36243 0.0
C3057 C 0.15243 0.07039 0.36993 0.0
C3058 C 0.11674 0.02516 0.33366 0.0
C3059 C 0.15992 0.09461 0.37498 0.0
C3060 C 0.08763 0.91682 0.35013 0.0
C3061 C 0.10313 0.94154 0.34546 0.0
C3062 C 0.13006 0.9957 0.35387 0.0
C3063 C 0.14732 0.06284 0.35134 0.0
C3064 C 0.13616 0.03625 0.34653 0.0
C3065 C 0.09334 0.95704 0.34197 0.0
C3066 C 0.10968 0.98439 0.34182 0.0
H3067 H 0.16047 0.11776 0.33218 0.0
H3068 H 0.1478 0.07549 0.32333 0.0
H3069 H 0.15833 0.02914 0.36585 0.0
H3070 H 0.03232 0.91435 0.3464 0.0
H3071 H 0.05917 0.95764 0.33876 0.0
C3072 C 0.08354 0.12579 0.34704 0.0
C3073 C 0.10019 0.15065 0.35095 0.0
C3074 C 0.05855 0.11767 0.34425 0.0
C3075 C 0.01166 0.12399 0.36346 0.0
H3076 H 0.97133 0.09344 0.32011 0.0
C3077 C 0.90611 0.07304 0.36995 0.0
C3078 C 0.89286 0.05133 0.35963 0.0
C3079 C 0.93089 0.08964 0.36594 0.0
C3080 C 0.98218 0.10162 0.33245 0.0
H3081 H 0.10404 0.18662 0.35474 0.0
H3082 H 0.0599 0.17213 0.35055 0.0
H3083 H 0.01618 0.11354 0.31782 0.0
H3084 H 0.89493 0.03023 0.33671 0.0
H3085 H 0.93816 0.05818 0.33032 0.0
H3086 H 0.97826 0.11056 0.37864 0.0
C3087 C 0.06644 0.15919 0.34908 0.0
C3088 C 0.00791 0.1134 0.33101 0.0
C3089 C 0.09161 0.16746 0.35135 0.0
C3090 C 0.90456 0.04703 0.34474 0.0
C3091 C 0.92951 0.06323 0.34105 0.0
C3092 C 0.98599 0.11171 0.36505 0.0
C3093 C 0.04969 0.13414 0.34586 0.0
C3094 C 0.0228 0.12445 0.34655 0.0
C3095 C 0.9433 0.08452 0.3519 0.0
C3096 C 0.97074 0.09996 0.34963 0.0
H3097 H 0.0897 0.11246 0.34692 0.0
H3098 H 0.0459 0.09824 0.34198 0.0
H3099 H 0.02284 0.13211 0.3757 0.0
H3100 H 0.89748 0.07684 0.38148 0.0
H3101 H 0.94043 0.10612 0.37428 0.0
C3102 C 0.84209 0.92813 0.34904 0.0
C3103 C 0.8584 0.95297 0.3534 0.0
C3104 C 0.85114 0.91214 0.34545 0.0
C3105 C 0.9077 0.91091 0.33314 0.0
H3106 H 0.88525 0.8561 0.36729 0.0
C3107 C 0.97224 0.88281 0.36417 0.0
C3108 C 0.96567 0.85794 0.36588 0.0
C3109 C 0.95536 0.88934 0.35789 0.0
C3110 C 0.89129 0.87087 0.35729 0.0
H3111 H 0.89682 0.98087 0.35646 0.0
H3112 H 0.91259 0.95333 0.3497 0.0
H3113 H 0.86187 0.8776 0.36409 0.0
H3114 H 0.93608 0.82034 0.3622 0.0
H3115 H 0.90582 0.83198 0.3516 0.0
H3116 H 0.93789 0.90524 0.32716 0.0
C3117 C 0.89287 0.94606 0.34916 0.0
C3118 C 0.87794 0.8832 0.35547 0.0
C3119 C 0.88385 0.96182 0.35313 0.0
C3120 C 0.94163 0.83964 0.36101 0.0
C3121 C 0.92438 0.84627 0.35498 0.0
C3122 C 0.92094 0.8986 0.33492 0.0
C3123 C 0.87664 0.92094 0.3457 0.0
C3124 C 0.88673 0.90409 0.34405 0.0
C3125 C 0.93124 0.87125 0.35327 0.0
C3126 C 0.91357 0.87927 0.34769 0.0
H3127 H 0.82235 0.92083 0.34936 0.0
H3128 H 0.83826 0.89286 0.34284 0.0
H3129 H 0.91469 0.92672 0.32403 0.0
H3130 H 0.99063 0.89744 0.36762 0.0
H3131 H 0.96109 0.90872 0.35703 0.0
C3132 C 0.08254 0.92959 0.84705 0.0
C3133 C 0.09168 0.95483 0.85013 0.0
C3134 C 0.05703 0.91302 0.84706 0.0
C3135 C 0.00326 0.90827 0.86983 0.0
H3136 H 0.96292 0.85404 0.83685 0.0
C3137 C 0.90223 0.84397 0.88715 0.0
C3138 C 0.88582 0.84134 0.87288 0.0
C3139 C 0.92711 0.85272 0.88334 0.0
C3140 C 0.97403 0.86907 0.84621 0.0
H3141 H 0.08142 0.98281 0.8537 0.0
H3142 H 0.03724 0.95413 0.85347 0.0
H3143 H 0.00713 0.88071 0.83037 0.0
H3144 H 0.88237 0.84366 0.84315 0.0
H3145 H 0.92582 0.85913 0.83658 0.0
H3146 H 0.97059 0.89727 0.88553 0.0
C3147 C 0.04963 0.947 0.85147 0.0
C3148 C 0.99927 0.88423 0.84252 0.0
C3149 C 0.07493 0.96343 0.85148 0.0
C3150 C 0.89448 0.84557 0.85451 0.0
C3151 C 0.91943 0.85439 0.85071 0.0
C3152 C 0.97828 0.89308 0.8736 0.0
C3153 C 0.04043 0.92155 0.85015 0.0
C3154 C 0.01399 0.90428 0.85413 0.0
C3155 C 0.9362 0.85909 0.86519 0.0
C3156 C 0.96324 0.87346 0.86176 0.0
H3157 H 0.09504 0.92243 0.84614 0.0
H3158 H 0.05039 0.89347 0.84598 0.0
H3159 H 0.01422 0.92335 0.87919 0.0
H3160 H 0.89616 0.84056 0.90142 0.0
H3161 H 0.93948 0.85562 0.89476 0.0
C3162 C 0.15009 0.05186 0.84096 0.0
C3163 C 0.16422 0.05407 0.85668 0.0
C3164 C 0.14402 0.06993 0.83682 0.0
C3165 C 0.13888 0.11971 0.86094 0.0
H3166 H 0.11425 0.12517 0.81298 0.0
C3167 C 0.09025 0.1758 0.85102 0.0
C3168 C 0.06528 0.15964 0.84708 0.0
C3169 C 0.10764 0.16836 0.84823 0.0
C3170 C 0.12137 0.12405 0.82638 0.0
H3171 H 0.18494 0.07784 0.87945 0.0
H3172 H 0.17606 0.11034 0.8715 0.0
H3173 H 0.13717 0.1033 0.81572 0.0
H3174 H 0.03894 0.12379 0.83627 0.0
H3175 H 0.06955 0.11121 0.83047 0.0
H3176 H 0.1232 0.14074 0.87144 0.0
C3177 C 0.16842 0.09409 0.86285 0.0
C3178 C 0.13427 0.11127 0.82807 0.0
C3179 C 0.17387 0.07563 0.86731 0.0
C3180 C 0.0582 0.13672 0.839 0.0
C3181 C 0.07567 0.12953 0.83576 0.0
C3182 C 0.1266 0.133 0.85914 0.0
C3183 C 0.15243 0.09102 0.84804 0.0
C3184 C 0.14248 0.10814 0.84551 0.0
C3185 C 0.10033 0.14486 0.84109 0.0
C3186 C 0.1171 0.13468 0.84197 0.0
H3187 H 0.14212 0.03526 0.83265 0.0
H3188 H 0.13143 0.06644 0.82547 0.0
H3189 H 0.14428 0.11749 0.87471 0.0
H3190 H 0.09595 0.1933 0.8577 0.0
H3191 H 0.12651 0.18039 0.85257 0.0
C3192 C 0.87963 0.92085 0.85618 0.0
C3193 C 0.85394 0.90533 0.85637 0.0
C3194 C 0.89005 0.94586 0.85218 0.0
C3195 C 0.90841 0.9977 0.8379 0.0
H3196 H 0.88242 0.02961 0.86908 0.0
C3197 C 0.9591 0.10347 0.84566 0.0
C3198 C 0.96329 0.11148 0.86418 0.0
C3199 C 0.94191 0.07897 0.84131 0.0
C3200 C 0.88979 0.02099 0.86018 0.0
H3201 H 0.81896 0.90352 0.85182 0.0
H3202 H 0.83725 0.94767 0.84502 0.0
H3203 H 0.8599 0.98479 0.86615 0.0
H3204 H 0.9515 0.10036 0.89249 0.0
H3205 H 0.92154 0.05783 0.88491 0.0
H3206 H 0.93888 0.03374 0.83261 0.0
C3207 C 0.84929 0.94032 0.84784 0.0
C3208 C 0.87676 0.99532 0.85834 0.0
C3209 C 0.83883 0.91506 0.85152 0.0
C3210 C 0.94884 0.0948 0.87809 0.0
C3211 C 0.93152 0.07042 0.87373 0.0
C3212 C 0.92133 0.02336 0.83961 0.0
C3213 C 0.87502 0.95608 0.84858 0.0
C3214 C 0.88632 0.98333 0.84764 0.0
C3215 C 0.92831 0.06201 0.85534 0.0
C3216 C 0.91256 0.03526 0.85122 0.0
H3217 H 0.89168 0.91382 0.85996 0.0
H3218 H 0.90988 0.95747 0.85307 0.0
H3219 H 0.91617 0.98901 0.82946 0.0
H3220 H 0.9699 0.1158 0.83459 0.0
H3221 H 0.9397 0.07313 0.82699 0.0
C3222 C 0.9414 0.08462 0.65275 0.0
C3223 C 0.93137 0.09141 0.63806 0.0
C3224 C 0.92951 0.06016 0.65897 0.0
C3225 C 0.87275 0.99797 0.65208 0.0
H3226 H 0.92036 0.97583 0.65181 0.0
C3227 C 0.84583 0.89469 0.64372 0.0
C3228 C 0.86055 0.8911 0.63082 0.0
C3229 C 0.85249 0.91852 0.64972 0.0
C3230 C 0.90678 0.98168 0.65201 0.0
H3231 H 0.89982 0.07885 0.61988 0.0
H3232 H 0.87942 0.03658 0.63042 0.0
H3233 H 0.93455 0.01939 0.65483 0.0
H3234 H 0.89335 0.90991 0.61372 0.0
H3235 H 0.9046 0.95089 0.62393 0.0
H3236 H 0.84517 0.96017 0.64781 0.0
C3237 C 0.89628 0.04976 0.63729 0.0
C3238 C 0.9149 0.00671 0.65404 0.0
C3239 C 0.90811 0.07406 0.6311 0.0
C3240 C 0.88167 0.91184 0.62382 0.0
C3241 C 0.8883 0.93543 0.62981 0.0
C3242 C 0.86463 0.97286 0.64994 0.0
C3243 C 0.90741 0.04216 0.65063 0.0
C3244 C 0.89811 0.01534 0.65329 0.0
C3245 C 0.87404 0.93911 0.64301 0.0
C3246 C 0.88171 0.96462 0.64904 0.0
H3247 H 0.95928 0.09763 0.6584 0.0
H3248 H 0.93837 0.05506 0.66955 0.0
H3249 H 0.85925 0.0039 0.65181 0.0
H3250 H 0.82944 0.87912 0.64939 0.0
H3251 H 0.84106 0.92079 0.65984 0.0
C3252 C 0.92587 0.83406 0.63693 0.0
C3253 C 0.90994 0.84201 0.6435 0.0
C3254 C 0.95092 0.84696 0.64132 0.0
C3255 C 0.99714 0.91094 0.65003 0.0
H3256 H 0.04198 0.88531 0.64794 0.0
C3257 C 0.09098 0.96524 0.61582 0.0
C3258 C 0.11195 0.96731 0.62464 0.0
C3259 C 0.06739 0.94893 0.62233 0.0
C3260 C 0.02976 0.89279 0.64881 0.0
H3261 H 0.90723 0.86829 0.66127 0.0
H3262 H 0.95112 0.8908 0.66925 0.0
H3263 H 0.99827 0.85748 0.65464 0.0
H3264 H 0.12429 0.95279 0.64682 0.0
H3265 H 0.08259 0.92371 0.6581 0.0
H3266 H 0.02836 0.94603 0.64367 0.0
C3267 C 0.94427 0.87471 0.66046 0.0
C3268 C 0.00469 0.87684 0.65253 0.0
C3269 C 0.91905 0.86164 0.65611 0.0
C3270 C 0.10857 0.95169 0.63971 0.0
C3271 C 0.08472 0.9351 0.6462 0.0
C3272 C 0.02208 0.92678 0.64627 0.0
C3273 C 0.96071 0.86828 0.65233 0.0
C3274 C 0.9879 0.88558 0.65256 0.0
C3275 C 0.06393 0.93404 0.63782 0.0
C3276 C 0.03851 0.91776 0.64493 0.0
H3277 H 0.91931 0.81898 0.62714 0.0
H3278 H 0.96287 0.84145 0.63469 0.0
H3279 H 0.98489 0.9184 0.64974 0.0
H3280 H 0.09274 0.97668 0.60403 0.0
H3281 H 0.05176 0.94809 0.61524 0.0
C3282 C 0.1399 0.05824 0.64971 0.0
C3283 C 0.15638 0.06677 0.63475 0.0
C3284 C 0.12749 0.0707 0.65486 0.0
C3285 C 0.12278 0.127 0.64485 0.0
H3286 H 0.05266 0.08027 0.64522 0.0
C3287 C 0.04769 0.15514 0.63494 0.0
C3288 C 0.02893 0.14008 0.62242 0.0
C3289 C 0.06466 0.14835 0.64114 0.0
C3290 C 0.0722 0.09359 0.64521 0.0
H3291 H 0.17487 0.09626 0.61481 0.0
H3292 H 0.15338 0.11774 0.62359 0.0
H3293 H 0.08159 0.06566 0.64948 0.0
H3294 H 0.01389 0.10653 0.60614 0.0
H3295 H 0.04338 0.09501 0.61669 0.0
H3296 H 0.11317 0.15469 0.63925 0.0
C3297 C 0.14984 0.10161 0.63146 0.0
C3298 C 0.08883 0.08526 0.64796 0.0
C3299 C 0.16206 0.08915 0.62629 0.0
C3300 C 0.02791 0.11849 0.61591 0.0
C3301 C 0.04471 0.11172 0.62211 0.0
C3302 C 0.10609 0.13534 0.64205 0.0
C3303 C 0.13154 0.09193 0.6452 0.0
C3304 C 0.11435 0.1017 0.64703 0.0
C3305 C 0.06307 0.12633 0.63499 0.0
C3306 C 0.08064 0.11854 0.6414 0.0
H3307 H 0.13521 0.04103 0.65647 0.0
H3308 H 0.11377 0.06298 0.66571 0.0
H3309 H 0.14233 0.14022 0.64437 0.0
H3310 H 0.04899 0.17189 0.64023 0.0
H3311 H 0.07868 0.16003 0.65101 0.0
C3312 C 0.59227 0.37761 0.47946 0.0
C3313 C 0.57572 0.38636 0.47761 0.0
C3314 C 0.61726 0.39391 0.48263 0.0
C3315 C 0.66327 0.45486 0.4691 0.0
H3316 H 0.70668 0.44154 0.49898 0.0
C3317 C 0.7599 0.47687 0.44669 0.0
C3318 C 0.77903 0.48598 0.45979 0.0
C3319 C 0.73603 0.47061 0.4519 0.0
C3320 C 0.69485 0.44582 0.49079 0.0
H3321 H 0.57192 0.41876 0.4784 0.0
H3322 H 0.61602 0.44758 0.48353 0.0
H3323 H 0.66225 0.41875 0.50473 0.0
H3324 H 0.78834 0.49642 0.48853 0.0
H3325 H 0.74622 0.4848 0.49778 0.0
H3326 H 0.69568 0.4808 0.45438 0.0
C3327 C 0.60951 0.42803 0.48281 0.0
C3328 C 0.66943 0.43271 0.49402 0.0
C3329 C 0.58431 0.41157 0.48005 0.0
C3330 C 0.77397 0.48956 0.47812 0.0
C3331 C 0.7499 0.48281 0.48343 0.0
C3332 C 0.68863 0.46772 0.4657 0.0
C3333 C 0.62631 0.41938 0.4836 0.0
C3334 C 0.65332 0.43659 0.48286 0.0
C3335 C 0.73063 0.47292 0.47041 0.0
C3336 C 0.70459 0.46281 0.47615 0.0
H3337 H 0.58607 0.35825 0.4775 0.0
H3338 H 0.62975 0.38671 0.48297 0.0
H3339 H 0.6513 0.45809 0.46016 0.0
H3340 H 0.76328 0.47398 0.43246 0.0
H3341 H 0.72153 0.46281 0.4416 0.0
C3342 C 0.51232 0.28068 0.48236 0.0
C3343 C 0.51102 0.28625 0.46367 0.0
C3344 C 0.51772 0.26226 0.48712 0.0
C3345 C 0.5233 0.21029 0.46737 0.0
H3346 H 0.57396 0.22857 0.50471 0.0
C3347 C 0.6089 0.19355 0.48069 0.0
C3348 C 0.59803 0.16953 0.4737 0.0
C3349 C 0.59426 0.2039 0.48501 0.0
C3350 C 0.5598 0.22314 0.49425 0.0
H3351 H 0.51292 0.27576 0.43538 0.0
H3352 H 0.52263 0.24416 0.44359 0.0
H3353 H 0.55484 0.25375 0.50032 0.0
H3354 H 0.56358 0.13662 0.46734 0.0
H3355 H 0.53784 0.15392 0.47607 0.0
H3356 H 0.52945 0.18093 0.4602 0.0
C3357 C 0.51927 0.25374 0.45465 0.0
C3358 C 0.54857 0.23742 0.49189 0.0
C3359 C 0.51385 0.27206 0.44991 0.0
C3360 C 0.57229 0.15518 0.47281 0.0
C3361 C 0.55762 0.16528 0.47754 0.0
C3362 C 0.53467 0.19621 0.46957 0.0
C3363 C 0.52186 0.24897 0.4733 0.0
C3364 C 0.53073 0.2316 0.478 0.0
C3365 C 0.56847 0.19023 0.48262 0.0
C3366 C 0.5536 0.20281 0.48268 0.0
H3367 H 0.51014 0.29118 0.49333 0.0
H3368 H 0.51921 0.25882 0.50162 0.0
H3369 H 0.50928 0.20496 0.45679 0.0
H3370 H 0.62878 0.20508 0.48113 0.0
H3371 H 0.60342 0.22319 0.48873 0.0
C3372 C 0.69193 0.23975 0.44763 0.0
C3373 C 0.6945 0.22015 0.45442 0.0
C3374 C 0.70854 0.26398 0.45265 0.0
C3375 C 0.77122 0.30529 0.46924 0.0
H3376 H 0.74457 0.34827 0.47853 0.0
C3377 C 0.82428 0.40888 0.45508 0.0
C3378 C 0.81919 0.42489 0.46525 0.0
C3379 C 0.8121 0.38375 0.45897 0.0
C3380 C 0.75242 0.33654 0.47638 0.0
H3381 H 0.7172 0.21092 0.47148 0.0
H3382 H 0.74661 0.25365 0.48014 0.0
H3383 H 0.71677 0.30423 0.47501 0.0
H3384 H 0.79862 0.42741 0.48837 0.0
H3385 H 0.77715 0.38317 0.49528 0.0
H3386 H 0.8069 0.33778 0.47019 0.0
C3387 C 0.73148 0.25 0.47097 0.0
C3388 C 0.73643 0.31129 0.4741 0.0
C3389 C 0.71466 0.22556 0.466 0.0
C3390 C 0.80292 0.41549 0.48032 0.0
C3391 C 0.7905 0.39015 0.48415 0.0
C3392 C 0.78726 0.33063 0.47149 0.0
C3393 C 0.72833 0.26944 0.46457 0.0
C3394 C 0.74559 0.29549 0.46986 0.0
C3395 C 0.79436 0.37388 0.4731 0.0
C3396 C 0.778 0.34667 0.47448 0.0
H3397 H 0.67679 0.23642 0.43857 0.0
H3398 H 0.70591 0.27853 0.44709 0.0
H3399 H 0.77886 0.29362 0.46604 0.0
H3400 H 0.83687 0.41564 0.44346 0.0
H3401 H 0.81544 0.37187 0.45005 0.0
C3402 C 0.82355 0.443 0.68257 0.0
C3403 C 0.82562 0.44935 0.70143 0.0
C3404 C 0.81783 0.41927 0.67717 0.0
C3405 C 0.8133 0.36121 0.69473 0.0
H3406 H 0.76078 0.32966 0.65861 0.0
C3407 C 0.72845 0.25854 0.68122 0.0
C3408 C 0.74024 0.24559 0.68669 0.0
C3409 C 0.74233 0.28373 0.6772 0.0
C3410 C 0.77549 0.33817 0.66869 0.0
H3411 H 0.82482 0.43612 0.72931 0.0
H3412 H 0.81477 0.395 0.71997 0.0
H3413 H 0.7797 0.37379 0.66413 0.0
H3414 H 0.7755 0.24786 0.69054 0.0
H3415 H 0.79982 0.29133 0.68235 0.0
H3416 H 0.80808 0.32558 0.70031 0.0
C3417 C 0.81765 0.40826 0.70928 0.0
C3418 C 0.78657 0.36358 0.67171 0.0
C3419 C 0.82331 0.43189 0.71466 0.0
C3420 C 0.76604 0.25747 0.68616 0.0
C3421 C 0.77992 0.28249 0.6818 0.0
C3422 C 0.80216 0.33586 0.6918 0.0
C3423 C 0.81422 0.40142 0.69049 0.0
C3424 C 0.80513 0.37529 0.68517 0.0
C3425 C 0.76826 0.29632 0.67843 0.0
C3426 C 0.78264 0.32382 0.67909 0.0
H3427 H 0.82524 0.45598 0.67198 0.0
H3428 H 0.81569 0.41474 0.66257 0.0
H3429 H 0.82781 0.36965 0.70497 0.0
H3430 H 0.70856 0.24987 0.68197 0.0
H3431 H 0.73259 0.29365 0.67478 0.0
C3432 C 0.57568 0.37704 0.72008 0.0
C3433 C 0.55623 0.36893 0.70733 0.0
C3434 C 0.59939 0.39561 0.71533 0.0
C3435 C 0.64579 0.44316 0.70362 0.0
H3436 H 0.67284 0.42764 0.66086 0.0
C3437 C 0.74964 0.49801 0.6877 0.0
C3438 C 0.75959 0.48235 0.68807 0.0
C3439 C 0.72419 0.48821 0.6855 0.0
C3440 C 0.66545 0.43246 0.67265 0.0
H3441 H 0.54618 0.37427 0.67973 0.0
H3442 H 0.58805 0.40642 0.67119 0.0
H3443 H 0.62851 0.40361 0.66707 0.0
H3444 H 0.75134 0.44467 0.68509 0.0
H3445 H 0.70719 0.4277 0.68048 0.0
H3446 H 0.6828 0.47135 0.70964 0.0
C3447 C 0.58473 0.39856 0.68496 0.0
C3448 C 0.6401 0.41879 0.67616 0.0
C3449 C 0.56081 0.38031 0.68988 0.0
C3450 C 0.7441 0.45713 0.68464 0.0
C3451 C 0.71883 0.44744 0.68202 0.0
C3452 C 0.67105 0.45709 0.69994 0.0
C3453 C 0.6043 0.40616 0.69758 0.0
C3454 C 0.63016 0.42348 0.69203 0.0
C3455 C 0.70845 0.46269 0.68323 0.0
C3456 C 0.68127 0.45136 0.68476 0.0
H3457 H 0.57267 0.36859 0.73362 0.0
H3458 H 0.61415 0.40092 0.72527 0.0
H3459 H 0.63858 0.4472 0.71591 0.0
H3460 H 0.76118 0.51746 0.69066 0.0
H3461 H 0.71665 0.50037 0.68647 0.0
C3462 C 0.64582 0.22015 0.71458 0.0
C3463 C 0.64557 0.19927 0.70732 0.0
C3464 C 0.62917 0.2271 0.70829 0.0
C3465 C 0.56965 0.20463 0.68457 0.0
H3466 H 0.59329 0.27467 0.68164 0.0
C3467 C 0.50874 0.24613 0.69746 0.0
C3468 C 0.51562 0.2698 0.69098 0.0
C3469 C 0.52222 0.23487 0.69256 0.0
C3470 C 0.58635 0.25502 0.68188 0.0
H3471 H 0.62709 0.16891 0.68802 0.0
H3472 H 0.59791 0.18118 0.67694 0.0
H3473 H 0.62226 0.26048 0.68723 0.0
H3474 H 0.54033 0.29925 0.67276 0.0
H3475 H 0.56386 0.27934 0.6638 0.0
H3476 H 0.53365 0.19923 0.67933 0.0
C3477 C 0.61102 0.1921 0.68758 0.0
C3478 C 0.60297 0.24688 0.68545 0.0
C3479 C 0.6277 0.18505 0.69396 0.0
C3480 C 0.53463 0.28096 0.67791 0.0
C3481 C 0.54826 0.26966 0.673 0.0
C3482 C 0.55299 0.21279 0.68085 0.0
C3483 C 0.61186 0.21348 0.69446 0.0
C3484 C 0.59469 0.22165 0.68764 0.0
C3485 C 0.54299 0.24706 0.68105 0.0
C3486 C 0.56099 0.23813 0.68025 0.0
H3487 H 0.65915 0.2314 0.72501 0.0
H3488 H 0.62989 0.24323 0.71433 0.0
H3489 H 0.56264 0.18506 0.68604 0.0
H3490 H 0.49405 0.2371 0.70752 0.0
H3491 H 0.51758 0.2176 0.69917 0.0
C3492 C 0.74777 0.28215 0.18454 0.0
C3493 C 0.76181 0.27168 0.19039 0.0
C3494 C 0.72243 0.26722 0.18136 0.0
C3495 C 0.66817 0.23181 0.1736 0.0
H3496 H 0.63835 0.1812 0.21124 0.0
C3497 C 0.5627 0.17892 0.18595 0.0
C3498 C 0.55551 0.1765 0.20463 0.0
C3499 C 0.5871 0.18625 0.18119 0.0
C3500 C 0.64632 0.19526 0.20065 0.0
H3501 H 0.76112 0.23759 0.19628 0.0
H3502 H 0.7173 0.21132 0.18962 0.0
H3503 H 0.68262 0.20275 0.20703 0.0
H3504 H 0.56816 0.1787 0.2329 0.0
H3505 H 0.61042 0.19167 0.22469 0.0
H3506 H 0.63183 0.22534 0.16817 0.0
C3507 C 0.72546 0.23103 0.18801 0.0
C3508 C 0.67181 0.20743 0.19799 0.0
C3509 C 0.75066 0.246 0.1915 0.0
C3510 C 0.57298 0.18037 0.21837 0.0
C3511 C 0.5973 0.18771 0.21363 0.0
C3512 C 0.64263 0.21974 0.17638 0.0
C3513 C 0.71072 0.24151 0.18389 0.0
C3514 C 0.68322 0.22628 0.18471 0.0
C3515 C 0.60485 0.19128 0.195 0.0
C3516 C 0.63144 0.20173 0.19028 0.0
H3517 H 0.7559 0.30198 0.18409 0.0
H3518 H 0.71182 0.27609 0.17839 0.0
H3519 H 0.67618 0.24594 0.16307 0.0
H3520 H 0.54975 0.17606 0.17499 0.0
H3521 H 0.59214 0.18842 0.1667 0.0
C3522 C 0.72956 0.47474 0.17265 0.0
C3523 C 0.73878 0.4919 0.18716 0.0
C3524 C 0.74262 0.46324 0.16674 0.0
C3525 C 0.80137 0.46172 0.17409 0.0
H3526 H 0.75652 0.3914 0.17742 0.0
C3527 C 0.83006 0.38634 0.18625 0.0
C3528 C 0.81696 0.37089 0.20119 0.0
C3529 C 0.82337 0.40304 0.17912 0.0
C3530 C 0.76931 0.41099 0.17619 0.0
H3531 H 0.76999 0.51259 0.20536 0.0
H3532 H 0.79249 0.49265 0.19528 0.0
H3533 H 0.74014 0.41875 0.17259 0.0
H3534 H 0.78758 0.36202 0.22098 0.0
H3535 H 0.7761 0.39064 0.2086 0.0
H3536 H 0.83039 0.45367 0.17914 0.0
C3537 C 0.77536 0.48788 0.18834 0.0
C3538 C 0.75995 0.42671 0.17321 0.0
C3539 C 0.76232 0.49921 0.19427 0.0
C3540 C 0.79787 0.37328 0.20929 0.0
C3541 C 0.79114 0.38961 0.20212 0.0
C3542 C 0.81076 0.44589 0.17706 0.0
C3543 C 0.76513 0.46884 0.17518 0.0
C3544 C 0.77573 0.45237 0.17303 0.0
C3545 C 0.80335 0.40425 0.18672 0.0
C3546 C 0.79465 0.42049 0.17905 0.0
H3547 H 0.71147 0.4688 0.16691 0.0
H3548 H 0.7344 0.44892 0.15635 0.0
H3549 H 0.81409 0.48138 0.1737 0.0
H3550 H 0.84487 0.38498 0.17973 0.0
H3551 H 0.83325 0.41437 0.16734 0.0
C3552 C 0.50724 0.25117 0.19533 0.0
C3553 C 0.51849 0.23724 0.19129 0.0
C3554 C 0.51991 0.27664 0.19225 0.0
C3555 C 0.58435 0.32635 0.19191 0.0
H3556 H 0.55683 0.36868 0.18298 0.0
C3557 C 0.63454 0.4249 0.21739 0.0
C3558 C 0.63831 0.44358 0.20486 0.0
C3559 C 0.61767 0.40036 0.21351 0.0
C3560 C 0.56479 0.35707 0.18533 0.0
H3561 H 0.55076 0.23823 0.17978 0.0
H3562 H 0.57248 0.28241 0.17352 0.0
H3563 H 0.53144 0.32413 0.17769 0.0
H3564 H 0.62615 0.45132 0.17893 0.0
H3565 H 0.59643 0.40789 0.17201 0.0
H3566 H 0.61748 0.35891 0.19969 0.0
C3567 C 0.55419 0.27399 0.17947 0.0
C3568 C 0.55024 0.33157 0.18241 0.0
C3569 C 0.54168 0.24866 0.18281 0.0
C3570 C 0.62363 0.43728 0.18882 0.0
C3571 C 0.60667 0.41248 0.18487 0.0
C3572 C 0.59874 0.35162 0.19484 0.0
C3573 C 0.54402 0.28852 0.18506 0.0
C3574 C 0.55978 0.31586 0.18593 0.0
C3575 C 0.60418 0.39373 0.19692 0.0
C3576 C 0.58902 0.36723 0.19201 0.0
H3577 H 0.48953 0.24272 0.20224 0.0
H3578 H 0.51156 0.2872 0.19685 0.0
H3579 H 0.59231 0.31495 0.1951 0.0
H3580 H 0.64522 0.42919 0.23003 0.0
H3581 H 0.61569 0.38642 0.22332 0.0
C3582 C 0.50766 0.22925 0.98015 0.0
C3583 C 0.50096 0.2203 0.96196 0.0
C3584 C 0.51579 0.25398 0.9842 0.0
C3585 C 0.54899 0.31233 0.9599 0.0
H3586 H 0.54327 0.34153 0.0056 0.0
C3587 C 0.59066 0.41718 0.98457 0.0
C3588 C 0.61555 0.42516 0.98081 0.0
C3589 C 0.57341 0.3919 0.98572 0.0
C3590 C 0.54485 0.33354 0.99275 0.0
H3591 H 0.49479 0.22961 0.93432 0.0
H3592 H 0.50865 0.27253 0.94146 0.0
H3593 H 0.51608 0.29711 5e-05 0.0
H3594 H 0.64234 0.41331 0.97727 0.0
H3595 H 0.61245 0.36953 0.97941 0.0
H3596 H 0.57811 0.34831 0.95278 0.0
C3597 C 0.50823 0.26061 0.95247 0.0
C3598 C 0.52942 0.30821 0.98959 0.0
C3599 C 0.50019 0.23597 0.9484 0.0
C3600 C 0.62325 0.40768 0.98006 0.0
C3601 C 0.60616 0.38263 0.9812 0.0
C3602 C 0.56449 0.33737 0.96315 0.0
C3603 C 0.51729 0.2702 0.97017 0.0
C3604 C 0.5315 0.29731 0.97316 0.0
C3605 C 0.58096 0.37446 0.98313 0.0
C3606 C 0.56289 0.34817 0.97969 0.0
H3607 H 0.50839 0.21769 0.99096 0.0
H3608 H 0.52265 0.26077 -0.00202 0.0
H3609 H 0.55143 0.30455 0.94724 0.0
H3610 H 0.5842 0.43027 0.985 0.0
H3611 H 0.55404 0.38598 0.9872 0.0
C3612 C 0.76918 0.28082 0.97324 0.0
C3613 C 0.77886 0.28416 0.95521 0.0
C3614 C 0.74397 0.2651 0.97648 0.0
C3615 C 0.68614 0.24334 0.95134 0.0
H3616 H 0.6552 0.20434 0.99523 0.0
C3617 C 0.58051 0.17628 0.97643 0.0
C3618 C 0.57138 0.19204 0.97195 0.0
C3619 C 0.60605 0.18537 0.97699 0.0
C3620 C 0.66363 0.21507 0.98288 0.0
H3621 H 0.76992 0.27166 0.92679 0.0
H3622 H 0.72616 0.24413 0.93248 0.0
H3623 H 0.69976 0.22204 0.99039 0.0
H3624 H 0.5817 0.22993 0.96627 0.0
H3625 H 0.62586 0.24565 0.96747 0.0
H3626 H 0.65039 0.23684 0.9439 0.0
C3627 C 0.73795 0.25412 0.94405 0.0
C3628 C 0.6891 0.22528 0.98013 0.0
C3629 C 0.7631 0.26983 0.94081 0.0
C3630 C 0.58815 0.21727 0.96959 0.0
C3631 C 0.61347 0.22627 0.97016 0.0
C3632 C 0.66092 0.23341 0.95416 0.0
C3633 C 0.7279 0.25234 0.96176 0.0
C3634 C 0.70066 0.23967 0.96436 0.0
C3635 C 0.62272 0.21029 0.97306 0.0
C3636 C 0.6494 0.21947 0.97006 0.0
H3637 H 0.78076 0.29149 0.9847 0.0
H3638 H 0.73686 0.2642 0.99028 0.0
H3639 H 0.6944 0.25459 0.93918 0.0
H3640 H 0.56801 0.15671 0.97813 0.0
H3641 H 0.6127 0.17264 0.9793 0.0
C3642 C 0.73296 0.4964 0.95134 0.0
C3643 C 0.7153 0.49185 0.96503 0.0
C3644 C 0.7502 0.48877 0.95382 0.0
C3645 C 0.77493 0.46041 0.98676 0.0
H3646 H 0.77345 0.42416 0.94289 0.0
C3647 C 0.78756 0.37409 0.96223 0.0
C3648 C 0.81202 0.38134 0.96691 0.0
C3649 C 0.77843 0.39002 0.96482 0.0
C3650 C 0.77411 0.43423 0.95525 0.0
H3651 H 0.70326 0.4777 0.99275 0.0
H3652 H 0.73306 0.46388 0.99694 0.0
H3653 H 0.75494 0.44998 0.94197 0.0
H3654 H 0.84557 0.41036 0.97924 0.0
H3655 H 0.82937 0.43851 0.98384 0.0
H3656 H 0.7936 0.44363 8e-05 0.0
C3657 C 0.73381 0.47361 0.98436 0.0
C3658 C 0.76377 0.44934 0.95468 0.0
C3659 C 0.71669 0.48154 0.98196 0.0
C3660 C 0.82663 0.40428 0.97555 0.0
C3661 C 0.8174 0.42037 0.97814 0.0
C3662 C 0.78553 0.4453 0.98729 0.0
C3663 C 0.74995 0.47606 0.96994 0.0
C3664 C 0.76368 0.46237 0.97046 0.0
C3665 C 0.79351 0.41368 0.97211 0.0
C3666 C 0.78466 0.43163 0.97162 0.0
H3667 H 0.73251 0.50456 0.93823 0.0
H3668 H 0.76282 0.49154 0.94263 0.0
H3669 H 0.77525 0.47028 -0.00086 0.0
H3670 H 0.77569 0.3564 0.9558 0.0
H3671 H 0.75977 0.38416 0.96042 0.0
C3672 C 0.25429 0.77039 0.80605 0.0
C3673 C 0.24118 0.74542 0.81109 0.0
C3674 C 0.27943 0.78466 0.80977 0.0
C3675 C 0.33397 0.78963 0.83299 0.0
H3676 H 0.36397 0.81117 0.78465 0.0
C3677 C 0.43511 0.81607 0.81771 0.0
C3678 C 0.44727 0.83135 0.80252 0.0
C3679 C 0.4108 0.80956 0.82192 0.0
C3680 C 0.35624 0.80603 0.7984 0.0
H3681 H 0.24344 0.71641 0.82553 0.0
H3682 H 0.28767 0.74161 0.83229 0.0
H3683 H 0.31993 0.79322 0.78797 0.0
H3684 H 0.44438 0.85343 0.78076 0.0
H3685 H 0.40273 0.84367 0.78882 0.0
H3686 H 0.37042 0.80269 0.84349 0.0
C3687 C 0.27838 0.75009 0.8255 0.0
C3688 C 0.3308 0.79551 0.80026 0.0
C3689 C 0.25305 0.73572 0.82176 0.0
C3690 C 0.43535 0.84148 0.79247 0.0
C3691 C 0.41131 0.83554 0.79698 0.0
C3692 C 0.35966 0.80067 0.83121 0.0
C3693 C 0.29201 0.77425 0.81858 0.0
C3694 C 0.31933 0.787 0.8175 0.0
C3695 C 0.39823 0.81861 0.81125 0.0
C3696 C 0.37117 0.8088 0.81381 0.0
H3697 H 0.24556 0.77826 0.79774 0.0
H3698 H 0.28943 0.80332 0.80449 0.0
H3699 H 0.32557 0.7832 0.84644 0.0
H3700 H 0.44377 0.80774 0.82557 0.0
H3701 H 0.40152 0.79633 0.83287 0.0
C3702 C 0.22179 0.65099 0.79117 0.0
C3703 C 0.19816 0.64692 0.79542 0.0
C3704 C 0.22854 0.63362 0.79573 0.0
C3705 C 0.20326 0.56794 0.80406 0.0
H3706 H 0.27097 0.59019 0.818 0.0
C3707 C 0.25384 0.51761 0.78282 0.0
C3708 C 0.27326 0.51922 0.79359 0.0
C3709 C 0.24101 0.52932 0.78837 0.0
C3710 C 0.25184 0.58345 0.81453 0.0
H3711 H 0.16305 0.62122 0.80789 0.0
H3712 H 0.17491 0.59054 0.81579 0.0
H3713 H 0.25588 0.6191 0.81818 0.0
H3714 H 0.29338 0.53299 0.8193 0.0
H3715 H 0.27082 0.5536 0.82911 0.0
H3716 H 0.19941 0.53238 0.80002 0.0
C3717 C 0.18817 0.60736 0.80892 0.0
C3718 C 0.24327 0.60014 0.81439 0.0
C3719 C 0.18139 0.62492 0.80442 0.0
C3720 C 0.27856 0.53152 0.81068 0.0
C3721 C 0.26574 0.54342 0.81622 0.0
C3722 C 0.21183 0.5512 0.80424 0.0
C3723 C 0.21189 0.61159 0.80466 0.0
C3724 C 0.21922 0.59283 0.80839 0.0
C3725 C 0.24726 0.54301 0.80485 0.0
C3726 C 0.23653 0.55901 0.80873 0.0
H3727 H 0.23523 0.66766 0.78422 0.0
H3728 H 0.24675 0.63727 0.79184 0.0
H3729 H 0.18462 0.56168 0.79941 0.0
H3730 H 0.2491 0.50804 0.76966 0.0
H3731 H 0.22716 0.52879 0.77913 0.0
C3732 C 0.45112 0.74519 0.80762 0.0
C3733 C 0.47665 0.76162 0.80721 0.0
C3734 C 0.4418 0.7199 0.8096 0.0
C3735 C 0.45695 0.67341 0.79677 0.0
H3736 H 0.39832 0.62971 0.82481 0.0
C3737 C 0.38103 0.56235 0.80571 0.0
C3738 C 0.37392 0.55674 0.78708 0.0
C3739 C 0.39784 0.58664 0.81102 0.0
C3740 C 0.41493 0.64162 0.81712 0.0
H3741 H 0.5125 0.76458 0.80916 0.0
H3742 H 0.49614 0.72006 0.81225 0.0
H3743 H 0.41926 0.67411 0.83041 0.0
H3744 H 0.37991 0.57168 0.75933 0.0
H3745 H 0.40966 0.61372 0.76847 0.0
H3746 H 0.45185 0.64104 0.78278 0.0
C3747 C 0.48338 0.72689 0.81126 0.0
C3748 C 0.42682 0.66705 0.82023 0.0
C3749 C 0.49273 0.75235 0.80967 0.0
C3750 C 0.38509 0.57548 0.77378 0.0
C3751 C 0.40219 0.59955 0.77901 0.0
C3752 C 0.44486 0.64801 0.79347 0.0
C3753 C 0.4578 0.71037 0.81085 0.0
C3754 C 0.44762 0.68328 0.80979 0.0
C3755 C 0.40823 0.60558 0.79774 0.0
C3756 C 0.42338 0.63189 0.8033 0.0
H3757 H 0.43831 0.75183 0.80568 0.0
H3758 H 0.42203 0.70768 0.80905 0.0
H3759 H 0.4728 0.68543 0.78839 0.0
H3760 H 0.37253 0.54831 0.81628 0.0
H3761 H 0.40222 0.59074 0.82555 0.0
C3762 C 0.49137 0.77598 0.01286 0.0
C3763 C 0.49381 0.78215 0.03177 0.0
C3764 C 0.48453 0.75204 0.00722 0.0
C3765 C 0.47728 0.6925 0.02394 0.0
H3766 H 0.42574 0.66378 0.98683 0.0
C3767 C 0.3917 0.59127 0.00709 0.0
C3768 C 0.40302 0.57768 0.01207 0.0
C3769 C 0.40599 0.61665 0.0039 0.0
C3770 C 0.44016 0.67149 0.99718 0.0
H3771 H 0.49227 0.76818 0.0595 0.0
H3772 H 0.48022 0.72662 0.04974 0.0
H3773 H 0.4455 0.7077 0.99353 0.0
H3774 H 0.43793 0.57918 0.01587 0.0
H3775 H 0.46297 0.62304 0.00912 0.0
H3776 H 0.47098 0.65624 0.02853 0.0
C3777 C 0.48374 0.74025 0.03919 0.0
C3778 C 0.45172 0.69678 0.0009 0.0
C3779 C 0.49058 0.76415 0.04482 0.0
C3780 C 0.42882 0.58924 0.01178 0.0
C3781 C 0.44311 0.61449 0.00829 0.0
C3782 C 0.46568 0.66726 0.02031 0.0
C3783 C 0.48004 0.7337 0.02034 0.0
C3784 C 0.47002 0.70751 0.01466 0.0
C3785 C 0.43187 0.62882 0.00552 0.0
C3786 C 0.44657 0.65625 0.00716 0.0
H3787 H 0.4938 0.78937 0.00239 0.0
H3788 H 0.48228 0.74778 0.99258 0.0
H3789 H 0.49155 0.70014 0.03442 0.0
H3790 H 0.37183 0.58288 0.00772 0.0
H3791 H 0.39657 0.62696 0.0019 0.0
C3792 C 0.23701 0.72361 0.05118 0.0
C3793 C 0.21995 0.70886 0.03753 0.0
C3794 C 0.26143 0.74059 0.04648 0.0
C3795 C 0.31153 0.78079 0.03239 0.0
H3796 H 0.34076 0.75262 0.00059 0.0
C3797 C 0.41722 0.82918 0.02008 0.0
C3798 C 0.42682 0.81365 0.02385 0.0
C3799 C 0.39171 0.81927 0.01779 0.0
C3800 C 0.33287 0.76087 0.00937 0.0
H3801 H 0.21497 0.70166 0.00802 0.0
H3802 H 0.25754 0.73134 -0.00015 0.0
H3803 H 0.29619 0.73118 0.00473 0.0
H3804 H 0.41758 0.77566 0.02709 0.0
H3805 H 0.3735 0.75845 0.02266 0.0
H3806 H 0.34842 0.80994 0.03766 0.0
C3807 C 0.25205 0.72955 0.01423 0.0
C3808 C 0.30727 0.74868 0.01163 0.0
C3809 C 0.22755 0.71268 0.01891 0.0
C3810 C 0.41071 0.78807 0.02413 0.0
C3811 C 0.38542 0.7782 0.02154 0.0
C3812 C 0.33716 0.7931 0.03001 0.0
C3813 C 0.26948 0.74318 0.02802 0.0
C3814 C 0.29629 0.75812 0.02356 0.0
C3815 C 0.37547 0.79366 0.01888 0.0
C3816 C 0.34819 0.78291 0.01889 0.0
H3817 H 0.23182 0.72122 0.06565 0.0
H3818 H 0.27432 0.75062 0.05749 0.0
H3819 H 0.30368 0.78871 0.04154 0.0
H3820 H 0.42919 0.84898 0.02004 0.0
H3821 H 0.38461 0.83165 0.01567 0.0
C3822 C 0.17216 0.58805 0.0161 0.0
C3823 C 0.18668 0.61364 0.01839 0.0
C3824 C 0.1833 0.57402 0.01194 0.0
C3825 C 0.24334 0.57914 -0.00157 0.0
H3826 H 0.2256 0.52679 0.0342 0.0
C3827 C 0.31351 0.55716 0.02958 0.0
C3828 C 0.30785 0.53255 0.03126 0.0
C3829 C 0.29573 0.5628 0.02376 0.0
C3830 C 0.23047 0.54099 0.02385 0.0
H3831 H 0.22367 0.64488 0.01686 0.0
H3832 H 0.24298 0.62081 0.0093 0.0
H3833 H 0.1989 0.5444 0.02996 0.0
H3834 H 0.27889 0.49452 0.02823 0.0
H3835 H 0.24729 0.50454 0.01851 0.0
H3836 H 0.27573 0.57682 0.99325 0.0
C3837 C 0.22311 0.61131 0.01061 0.0
C3838 C 0.21513 0.55105 0.02136 0.0
C3839 C 0.21207 0.62518 0.01497 0.0
C3840 C 0.2838 0.51365 0.02705 0.0
C3841 C 0.26575 0.51935 0.02152 0.0
C3842 C 0.25871 0.56924 0.00104 0.0
C3843 C 0.20906 0.58547 0.00979 0.0
C3844 C 0.22192 0.57094 0.00916 0.0
C3845 C 0.27166 0.54403 0.01968 0.0
C3846 C 0.25293 0.55074 0.01429 0.0
H3847 H 0.15258 0.57873 0.01898 0.0
H3848 H 0.17195 0.55417 0.01127 0.0
H3849 H 0.24887 0.59408 0.98866 0.0
H3850 H 0.33187 0.57221 0.03258 0.0
H3851 H 0.30073 0.58198 0.02276 0.0
C3852 C 0.41606 0.60085 0.50754 0.0
C3853 C 0.42514 0.59273 0.52204 0.0
C3854 C 0.39115 0.587 0.50233 0.0
C3855 C 0.33244 0.52699 0.51194 0.0
H3856 H 0.30232 0.56755 0.50671 0.0
C3857 C 0.23565 0.50207 0.53865 0.0
C3858 C 0.22061 0.50682 0.52693 0.0
C3859 C 0.25961 0.50856 0.53328 0.0
C3860 C 0.31046 0.55592 0.50788 0.0
H3861 H 0.41604 0.5628 0.54119 0.0
H3862 H 0.37317 0.5392 0.53257 0.0
H3863 H 0.34691 0.58648 0.50477 0.0
H3864 H 0.21868 0.52133 0.5001 0.0
H3865 H 0.26073 0.53322 0.49101 0.0
H3866 H 0.29584 0.49679 0.51653 0.0
C3867 C 0.38481 0.55592 0.52493 0.0
C3868 C 0.33609 0.56674 0.50663 0.0
C3869 C 0.40953 0.5696 0.53001 0.0
C3870 C 0.22969 0.51722 0.5094 0.0
C3871 C 0.25381 0.52419 0.50422 0.0
C3872 C 0.30686 0.5163 0.51358 0.0
C3873 C 0.37493 0.56484 0.51156 0.0
C3874 C 0.34756 0.55257 0.50921 0.0
C3875 C 0.26916 0.52038 0.51626 0.0
C3876 C 0.2957 0.53078 0.51199 0.0
H3877 H 0.42766 0.61864 0.50119 0.0
H3878 H 0.38438 0.59425 0.49168 0.0
H3879 H 0.34041 0.51527 0.51349 0.0
H3880 H 0.22921 0.49415 0.55224 0.0
H3881 H 0.27113 0.50557 0.54287 0.0
C3882 C 0.39217 0.80536 0.51418 0.0
C3883 C 0.40021 0.82043 0.52997 0.0
C3884 C 0.40461 0.7932 0.50834 0.0
C3885 C 0.46063 0.78755 0.51742 0.0
H3886 H 0.41429 0.71778 0.51223 0.0
C3887 C 0.48899 0.71213 0.52267 0.0
C3888 C 0.47356 0.69252 0.53444 0.0
C3889 C 0.48225 0.72939 0.51711 0.0
C3890 C 0.42752 0.73724 0.51353 0.0
H3891 H 0.42882 0.83653 0.55088 0.0
H3892 H 0.45015 0.81534 0.54094 0.0
H3893 H 0.39957 0.74687 0.51033 0.0
H3894 H 0.43916 0.67607 0.54981 0.0
H3895 H 0.42773 0.70591 0.54031 0.0
H3896 H 0.48826 0.77753 0.52198 0.0
C3897 C 0.43443 0.81278 0.53293 0.0
C3898 C 0.41913 0.754 0.51218 0.0
C3899 C 0.42201 0.82478 0.53878 0.0
C3900 C 0.45148 0.69076 0.54064 0.0
C3901 C 0.44475 0.70779 0.53503 0.0
C3902 C 0.46902 0.77072 0.51883 0.0
C3903 C 0.42536 0.79606 0.51811 0.0
C3904 C 0.43538 0.77929 0.51492 0.0
C3905 C 0.45988 0.72718 0.52309 0.0
C3906 C 0.45232 0.74531 0.51773 0.0
H3907 H 0.37547 0.80173 0.50709 0.0
H3908 H 0.39734 0.7807 0.49669 0.0
H3909 H 0.47372 0.80696 0.51925 0.0
H3910 H 0.50613 0.71404 0.51765 0.0
H3911 H 0.49434 0.74423 0.50795 0.0
C3912 C 0.17619 0.58481 0.51513 0.0
C3913 C 0.19139 0.57472 0.51855 0.0
C3914 C 0.1866 0.6103 0.51251 0.0
C3915 C 0.2467 0.66818 0.50447 0.0
H3916 H 0.22053 0.69837 0.53731 0.0
C3917 C 0.30678 0.75747 0.54291 0.0
C3918 C 0.30236 0.7772 0.54065 0.0
C3919 C 0.29016 0.73411 0.53622 0.0
C3920 C 0.22773 0.69024 0.52776 0.0
H3921 H 0.22921 0.58294 0.52065 0.0
H3922 H 0.24726 0.62687 0.51591 0.0
H3923 H 0.19663 0.65399 0.53133 0.0
H3924 H 0.27654 0.78754 0.5299 0.0
H3925 H 0.24667 0.74586 0.51869 0.0
H3926 H 0.2786 0.70408 0.50209 0.0
C3927 C 0.2274 0.61545 0.51518 0.0
C3928 C 0.21406 0.66484 0.52428 0.0
C3929 C 0.21705 0.59021 0.51799 0.0
C3930 C 0.28046 0.77274 0.53184 0.0
C3931 C 0.26342 0.74899 0.52544 0.0
C3932 C 0.2604 0.69341 0.5081 0.0
C3933 C 0.21236 0.626 0.51299 0.0
C3934 C 0.22387 0.65335 0.5132 0.0
C3935 C 0.26842 0.72962 0.52734 0.0
C3936 C 0.25145 0.70449 0.5203 0.0
H3937 H 0.15633 0.57328 0.51571 0.0
H3938 H 0.17451 0.61782 0.51074 0.0
H3939 H 0.2546 0.66007 0.49556 0.0
H3940 H 0.32347 0.76014 0.54949 0.0
H3941 H 0.2943 0.71943 0.53802 0.0
C3942 C 0.16635 0.56581 0.2913 0.0
C3943 C 0.17568 0.55387 0.30224 0.0
C3944 C 0.17132 0.58956 0.29582 0.0
C3945 C 0.2033 0.64031 0.33144 0.0
H3946 H 0.21489 0.68166 0.28845 0.0
C3947 C 0.27725 0.74337 0.32209 0.0
C3948 C 0.26944 0.75873 0.31418 0.0
C3949 C 0.26047 0.71837 0.32494 0.0
C3950 C 0.21136 0.67028 0.30063 0.0
H3951 H 0.19682 0.55701 0.32682 0.0
H3952 H 0.20673 0.59862 0.33415 0.0
H3953 H 0.19508 0.63744 0.2846 0.0
H3954 H 0.23813 0.76045 0.30343 0.0
H3955 H 0.20882 0.71642 0.30787 0.0
H3956 H 0.22193 0.67397 0.34703 0.0
C3957 C 0.19469 0.58964 0.32249 0.0
C3958 C 0.19979 0.64476 0.29849 0.0
C3959 C 0.18906 0.56563 0.31827 0.0
C3960 C 0.24439 0.74904 0.31003 0.0
C3961 C 0.22772 0.72389 0.31241 0.0
C3962 C 0.21551 0.66596 0.33346 0.0
C3963 C 0.18655 0.60233 0.31102 0.0
C3964 C 0.19596 0.6293 0.31381 0.0
C3965 C 0.2358 0.70823 0.31936 0.0
C3966 C 0.21991 0.68115 0.31802 0.0
H3967 H 0.15589 0.55709 0.27888 0.0
H3968 H 0.16389 0.59815 0.28695 0.0
H3969 H 0.2002 0.62923 0.3437 0.0
H3970 H 0.2966 0.75038 0.32495 0.0
H3971 H 0.26719 0.70661 0.33008 0.0
C3972 C 0.44551 0.61707 0.29443 0.0
C3973 C 0.45065 0.64046 0.2883 0.0
C3974 C 0.42185 0.59996 0.30104 0.0
C3975 C 0.36733 0.59689 0.32235 0.0
H3976 H 0.32699 0.5353 0.29655 0.0
C3977 C 0.26338 0.55401 0.31512 0.0
C3978 C 0.24796 0.52843 0.31348 0.0
C3979 C 0.28879 0.5643 0.31724 0.0
C3980 C 0.3381 0.55209 0.30428 0.0
H3981 H 0.43507 0.6643 0.28474 0.0
H3982 H 0.39464 0.63501 0.2965 0.0
H3983 H 0.37125 0.55946 0.2901 0.0
H3984 H 0.2469 0.49343 0.31364 0.0
H3985 H 0.29162 0.51148 0.31744 0.0
H3986 H 0.33433 0.59019 0.33608 0.0
C3987 C 0.40862 0.6297 0.29607 0.0
C3988 C 0.36345 0.56593 0.30054 0.0
C3989 C 0.43182 0.64642 0.28916 0.0
C3990 C 0.25833 0.5132 0.31515 0.0
C3991 C 0.28396 0.52356 0.31706 0.0
C3992 C 0.34214 0.58303 0.3262 0.0
C3993 C 0.4033 0.60631 0.30209 0.0
C3994 C 0.37808 0.58895 0.30899 0.0
C3995 C 0.29956 0.54931 0.3176 0.0
C3996 C 0.32697 0.56098 0.31663 0.0
H3997 H 0.45962 0.61195 0.29394 0.0
H3998 H 0.41814 0.58196 0.30555 0.0
H3999 H 0.37825 0.61445 0.32922 0.0
H4000 H 0.25592 0.56621 0.31373 0.0
H4001 H 0.30011 0.58418 0.31736 0.0
C4002 C 0.50765 0.76175 0.30092 0.0
C4003 C 0.49453 0.736 0.30209 0.0
C4004 C 0.49637 0.77537 0.30558 0.0
C4005 C 0.46303 0.7958 0.29816 0.0
H4006 H 0.40645 0.77409 0.33032 0.0
C4007 C 0.38478 0.8144 0.28132 0.0
C4008 C 0.37136 0.81749 0.29559 0.0
C4009 C 0.40336 0.80906 0.28534 0.0
C4010 C 0.42248 0.78074 0.32148 0.0
H4011 H 0.45988 0.70419 0.30979 0.0
H4012 H 0.43971 0.72771 0.31735 0.0
H4013 H 0.433 0.75627 0.33371 0.0
H4014 H 0.36789 0.8186 0.32539 0.0
H4015 H 0.40071 0.80957 0.33244 0.0
H4016 H 0.45262 0.82026 0.28596 0.0
C4017 C 0.45896 0.73768 0.31346 0.0
C4018 C 0.43755 0.77027 0.32327 0.0
C4019 C 0.47049 0.72411 0.30917 0.0
C4020 C 0.37784 0.81631 0.31405 0.0
C4021 C 0.3965 0.81091 0.31809 0.0
C4022 C 0.44814 0.80638 0.2965 0.0
C4023 C 0.47141 0.76342 0.3109 0.0
C4024 C 0.45763 0.77714 0.31126 0.0
C4025 C 0.40917 0.80675 0.30376 0.0
C4026 C 0.42719 0.79842 0.3077 0.0
H4027 H 0.52617 0.77124 0.29533 0.0
H4028 H 0.50682 0.79517 0.30395 0.0
H4029 H 0.47805 0.80148 0.28845 0.0
H4030 H 0.38036 0.81524 0.26693 0.0
H4031 H 0.41241 0.80566 0.27391 0.0
loop_
_geom_bond_atom_site_label_1
_geom_bond_atom_site_label_2
_geom_bond_distance
_geom_bond_site_symmetry_2
_ccdc_geom_bond_type
Fe0 O2 1.918 . S
Fe0 O5 1.997 . S
Fe0 O6 2.002 . S
Fe0 O11 1.976 . S
Fe0 O14 1.996 . S
Fe1 O2 1.918 . S
Fe1 O9 1.997 . S
Fe1 O12 1.996 . S
Fe1 O16 1.976 . S
Fe1 O19 2.002 . S
O2 Fe0 1.918 . S
O2 Fe1 1.918 . S
O2 Fe3 1.918 . S
Fe3 O2 1.918 . S
Fe3 O4 2.002 . S
Fe3 O13 1.976 . S
Fe3 O17 1.996 . S
Fe3 O20 1.997 . S
O4 Fe3 2.002 . S
O4 C21 1.295 . S
O5 Fe0 1.997 . S
O5 C21 1.235 . S
O6 Fe0 2.002 . S
O6 C7 1.295 . S
C7 O6 1.295 . S
C7 O9 1.235 . S
C8 O13 1.287 . S
C8 O14 1.255 . S
O9 Fe1 1.997 . S
O9 C7 1.235 . S
C10 O16 1.287 . S
C10 O17 1.255 . S
O11 Fe0 1.976 . S
O11 C18 1.287 . S
O12 Fe1 1.996 . S
O12 C18 1.255 . S
O13 Fe3 1.976 . S
O13 C8 1.287 . S
O14 Fe0 1.996 . S
O14 C8 1.255 . S
C15 O19 1.295 . S
C15 O20 1.235 . S
O16 Fe1 1.976 . S
O16 C10 1.287 . S
O17 Fe3 1.996 . S
O17 C10 1.255 . S
C18 O11 1.287 . S
C18 O12 1.255 . S
O19 Fe1 2.002 . S
O19 C15 1.295 . S
O20 Fe3 1.997 . S
O20 C15 1.235 . S
C21 O4 1.295 . S
C21 O5 1.235 . S
Fe22 O24 1.918 . S
Fe22 O27 1.997 . S
Fe22 O28 2.002 1_545 S
Fe22 O33 1.976 . S
Fe22 O36 1.996 . S
Fe23 O24 1.918 . S
Fe23 O31 1.997 1_545 S
Fe23 O34 1.996 . S
Fe23 O38 1.976 . S
Fe23 O41 2.002 . S
O24 Fe22 1.918 . S
O24 Fe23 1.918 . S
O24 Fe25 1.918 . S
Fe25 O24 1.918 . S
Fe25 O26 2.002 . S
Fe25 O35 1.976 . S
Fe25 O39 1.996 . S
Fe25 O42 1.997 . S
O26 Fe25 2.002 . S
O26 C43 1.295 . S
O27 Fe22 1.997 . S
O27 C43 1.235 . S
O28 Fe22 2.002 1_565 S
O28 C29 1.295 . S
C29 O28 1.295 . S
C29 O31 1.235 . S
C30 O35 1.287 . S
C30 O36 1.255 . S
O31 Fe23 1.997 1_565 S
O31 C29 1.235 . S
C32 O38 1.287 . S
C32 O39 1.255 . S
O33 Fe22 1.976 . S
O33 C40 1.287 . S
O34 Fe23 1.996 . S
O34 C40 1.255 . S
O35 Fe25 1.976 . S
O35 C30 1.287 . S
O36 Fe22 1.996 . S
O36 C30 1.255 . S
C37 O41 1.280 . S
C37 O42 1.279 . S
O38 Fe23 1.976 . S
O38 C32 1.287 . S
O39 Fe25 1.996 . S
O39 C32 1.255 . S
C40 O33 1.287 . S
C40 O34 1.255 . S
O41 Fe23 2.002 . S
O41 C37 1.280 . S
O42 Fe25 1.997 . S
O42 C37 1.279 . S
C43 O26 1.295 . S
C43 O27 1.235 . S
Fe44 O46 1.918 . S
Fe44 O49 1.997 . S
Fe44 O50 2.002 . S
Fe44 O55 1.976 . S
Fe44 O58 1.996 . S
Fe45 O46 1.918 . S
Fe45 O53 1.997 . S
Fe45 O56 1.996 . S
Fe45 O60 1.976 . S
Fe45 O63 2.002 1_655 S
O46 Fe44 1.918 . S
O46 Fe45 1.918 . S
O46 Fe47 1.918 . S
Fe47 O46 1.918 . S
Fe47 O48 2.002 . S
Fe47 O57 1.976 . S
Fe47 O61 1.996 . S
Fe47 O64 1.997 1_655 S
O48 Fe47 2.002 . S
O48 C65 1.326 . S
O49 Fe44 1.997 . S
O49 C65 1.239 . S
O50 Fe44 2.002 . S
O50 C51 1.295 . S
C51 O50 1.295 . S
C51 O53 1.235 . S
C52 O57 1.287 . S
C52 O58 1.255 . S
O53 Fe45 1.997 . S
O53 C51 1.235 . S
C54 O60 1.287 . S
C54 O61 1.255 . S
O55 Fe44 1.976 . S
O55 C62 1.287 . S
O56 Fe45 1.996 . S
O56 C62 1.255 . S
O57 Fe47 1.976 . S
O57 C52 1.287 . S
O58 Fe44 1.996 . S
O58 C52 1.255 . S
C59 O63 1.295 . S
C59 O64 1.235 . S
O60 Fe45 1.976 . S
O60 C54 1.287 . S
O61 Fe47 1.996 . S
O61 C54 1.255 . S
C62 O55 1.287 . S
C62 O56 1.255 . S
O63 Fe45 2.002 1_455 S
O63 C59 1.295 . S
O64 Fe47 1.997 1_455 S
O64 C59 1.235 . S
C65 O48 1.326 . S
C65 O49 1.239 . S
Fe66 O68 1.918 . S
Fe66 O71 1.997 . S
Fe66 O72 2.002 . S
Fe66 O77 1.976 . S
Fe66 O80 1.996 . S
Fe67 O68 1.918 . S
Fe67 O75 1.997 . S
Fe67 O78 1.996 . S
Fe67 O82 1.976 . S
Fe67 O85 2.002 . S
O68 Fe66 1.918 . S
O68 Fe67 1.918 . S
O68 Fe69 1.918 . S
Fe69 O68 1.918 . S
Fe69 O70 2.002 . S
Fe69 O79 1.976 . S
Fe69 O83 1.996 . S
Fe69 O86 1.997 . S
O70 Fe69 2.002 . S
O70 C87 1.295 . S
O71 Fe66 1.997 . S
O71 C87 1.235 . S
O72 Fe66 2.002 . S
O72 C73 1.295 . S
C73 O72 1.295 . S
C73 O75 1.235 . S
C74 O79 1.287 . S
C74 O80 1.255 . S
O75 Fe67 1.997 . S
O75 C73 1.235 . S
C76 O82 1.287 . S
C76 O83 1.255 . S
O77 Fe66 1.976 . S
O77 C84 1.287 . S
O78 Fe67 1.996 . S
O78 C84 1.255 . S
O79 Fe69 1.976 . S
O79 C74 1.287 . S
O80 Fe66 1.996 . S
O80 C74 1.255 . S
C81 O85 1.295 . S
C81 O86 1.235 . S
O82 Fe67 1.976 . S
O82 C76 1.287 . S
O83 Fe69 1.996 . S
O83 C76 1.255 . S
C84 O77 1.287 . S
C84 O78 1.255 . S
O85 Fe67 2.002 . S
O85 C81 1.295 . S
O86 Fe69 1.997 . S
O86 C81 1.235 . S
C87 O70 1.295 . S
C87 O71 1.235 . S
Fe88 O90 1.918 . S
Fe88 O93 1.997 . S
Fe88 O94 2.002 1_565 S
Fe88 O99 1.976 . S
Fe88 O102 1.996 . S
Fe89 O90 1.918 . S
Fe89 O97 1.997 1_565 S
Fe89 O100 1.996 . S
Fe89 O104 1.976 . S
Fe89 O107 2.002 . S
O90 Fe88 1.918 . S
O90 Fe89 1.918 . S
O90 Fe91 1.918 . S
Fe91 O90 1.918 . S
Fe91 O92 2.002 . S
Fe91 O101 1.976 . S
Fe91 O105 1.996 . S
Fe91 O108 1.997 . S
O92 Fe91 2.002 . S
O92 C109 1.295 . S
O93 Fe88 1.997 . S
O93 C109 1.235 . S
O94 Fe88 2.002 1_545 S
O94 C95 1.295 . S
C95 O94 1.295 . S
C95 O97 1.235 . S
C96 O101 1.287 . S
C96 O102 1.255 . S
O97 Fe89 1.997 1_545 S
O97 C95 1.235 . S
C98 O104 1.287 . S
C98 O105 1.255 . S
O99 Fe88 1.976 . S
O99 C106 1.287 . S
O100 Fe89 1.996 . S
O100 C106 1.255 . S
O101 Fe91 1.976 . S
O101 C96 1.287 . S
O102 Fe88 1.996 . S
O102 C96 1.255 . S
C103 O107 1.326 . S
C103 O108 1.239 . S
O104 Fe89 1.976 . S
O104 C98 1.287 . S
O105 Fe91 1.996 . S
O105 C98 1.255 . S
C106 O99 1.287 . S
C106 O100 1.255 . S
O107 Fe89 2.002 . S
O107 C103 1.326 . S
O108 Fe91 1.997 . S
O108 C103 1.239 . S
C109 O92 1.295 . S
C109 O93 1.235 . S
Fe110 O112 1.918 . S
Fe110 O115 1.997 . S
Fe110 O116 2.002 1_455 S
Fe110 O121 1.976 . S
Fe110 O124 1.996 . S
Fe111 O112 1.918 . S
Fe111 O119 1.997 1_455 S
Fe111 O122 1.996 . S
Fe111 O126 1.976 . S
Fe111 O129 2.002 . S
O112 Fe110 1.918 . S
O112 Fe111 1.918 . S
O112 Fe113 1.918 . S
Fe113 O112 1.918 . S
Fe113 O114 2.002 . S
Fe113 O123 1.976 . S
Fe113 O127 1.996 . S
Fe113 O130 1.997 . S
O114 Fe113 2.002 . S
O114 C131 1.295 . S
O115 Fe110 1.997 . S
O115 C131 1.235 . S
O116 Fe110 2.002 1_655 S
O116 C117 1.295 . S
C117 O116 1.295 . S
C117 O119 1.235 . S
C118 O123 1.287 . S
C118 O124 1.255 . S
O119 Fe111 1.997 1_655 S
O119 C117 1.235 . S
C120 O126 1.287 . S
C120 O127 1.255 . S
O121 Fe110 1.976 . S
O121 C128 1.287 . S
O122 Fe111 1.996 . S
O122 C128 1.255 . S
O123 Fe113 1.976 . S
O123 C118 1.287 . S
O124 Fe110 1.996 . S
O124 C118 1.255 . S
C125 O129 1.279 . S
C125 O130 1.279 . S
O126 Fe111 1.976 . S
O126 C120 1.287 . S
O127 Fe113 1.996 . S
O127 C120 1.255 . S
C128 O121 1.287 . S
C128 O122 1.255 . S
O129 Fe111 2.002 . S
O129 C125 1.279 . S
O130 Fe113 1.997 . S
O130 C125 1.279 . S
C131 O114 1.295 . S
C131 O115 1.235 . S
Fe132 O134 1.918 . S
Fe132 O137 1.997 . S
Fe132 O138 2.002 . S
Fe132 O143 1.976 . S
Fe132 O146 1.996 . S
Fe133 O134 1.918 . S
Fe133 O141 1.997 . S
Fe133 O144 1.996 . S
Fe133 O148 1.976 . S
Fe133 O151 2.002 . S
O134 Fe132 1.918 . S
O134 Fe133 1.918 . S
O134 Fe135 1.918 . S
Fe135 O134 1.918 . S
Fe135 O136 2.002 . S
Fe135 O145 1.976 . S
Fe135 O149 1.996 . S
Fe135 O152 1.997 . S
O136 Fe135 2.002 . S
O136 C153 1.295 . S
O137 Fe132 1.997 . S
O137 C153 1.235 . S
O138 Fe132 2.002 . S
O138 C139 1.295 . S
C139 O138 1.295 . S
C139 O141 1.235 . S
C140 O145 1.287 . S
C140 O146 1.255 . S
O141 Fe133 1.997 . S
O141 C139 1.235 . S
C142 O148 1.287 . S
C142 O149 1.255 . S
O143 Fe132 1.976 . S
O143 C150 1.287 . S
O144 Fe133 1.996 . S
O144 C150 1.255 . S
O145 Fe135 1.976 . S
O145 C140 1.287 . S
O146 Fe132 1.996 . S
O146 C140 1.255 . S
C147 O151 1.295 . S
C147 O152 1.235 . S
O148 Fe133 1.976 . S
O148 C142 1.287 . S
O149 Fe135 1.996 . S
O149 C142 1.255 . S
C150 O143 1.287 . S
C150 O144 1.255 . S
O151 Fe133 2.002 . S
O151 C147 1.295 . S
O152 Fe135 1.997 . S
O152 C147 1.235 . S
C153 O136 1.295 . S
C153 O137 1.235 . S
Fe154 O156 1.918 . S
Fe154 O159 1.997 . S
Fe154 O160 2.002 1_565 S
Fe154 O165 1.976 . S
Fe154 O168 1.996 . S
Fe155 O156 1.918 . S
Fe155 O163 1.997 1_565 S
Fe155 O166 1.996 . S
Fe155 O170 1.976 . S
Fe155 O173 2.002 . S
O156 Fe154 1.918 . S
O156 Fe155 1.918 . S
O156 Fe157 1.918 . S
Fe157 O156 1.918 . S
Fe157 O158 2.002 . S
Fe157 O167 1.976 . S
Fe157 O171 1.996 . S
Fe157 O174 1.997 . S
O158 Fe157 2.002 . S
O158 C175 1.295 . S
O159 Fe154 1.997 . S
O159 C175 1.235 . S
O160 Fe154 2.002 1_545 S
O160 C161 1.295 . S
C161 O160 1.295 . S
C161 O163 1.235 . S
C162 O167 1.287 . S
C162 O168 1.255 . S
O163 Fe155 1.997 1_545 S
O163 C161 1.235 . S
C164 O170 1.287 . S
C164 O171 1.255 . S
O165 Fe154 1.976 . S
O165 C172 1.287 . S
O166 Fe155 1.996 . S
O166 C172 1.255 . S
O167 Fe157 1.976 . S
O167 C162 1.287 . S
O168 Fe154 1.996 . S
O168 C162 1.255 . S
C169 O173 1.280 . S
C169 O174 1.279 . S
O170 Fe155 1.976 . S
O170 C164 1.287 . S
O171 Fe157 1.996 . S
O171 C164 1.255 . S
C172 O165 1.287 . S
C172 O166 1.255 . S
O173 Fe155 2.002 . S
O173 C169 1.280 . S
O174 Fe157 1.997 . S
O174 C169 1.279 . S
C175 O158 1.295 . S
C175 O159 1.235 . S
Fe176 O178 1.918 . S
Fe176 O181 1.997 1_455 S
Fe176 O182 2.002 . S
Fe176 O187 1.976 . S
Fe176 O190 1.996 . S
Fe177 O178 1.918 . S
Fe177 O185 1.997 . S
Fe177 O188 1.996 . S
Fe177 O192 1.976 . S
Fe177 O195 2.002 . S
O178 Fe176 1.918 . S
O178 Fe177 1.918 . S
O178 Fe179 1.918 . S
Fe179 O178 1.918 . S
Fe179 O180 2.002 1_455 S
Fe179 O189 1.976 . S
Fe179 O193 1.996 . S
Fe179 O196 1.997 . S
O180 Fe179 2.002 1_655 S
O180 C197 1.295 . S
O181 Fe176 1.997 1_655 S
O181 C197 1.235 . S
O182 Fe176 2.002 . S
O182 C183 1.326 . S
C183 O182 1.326 . S
C183 O185 1.239 . S
C184 O189 1.287 . S
C184 O190 1.255 . S
O185 Fe177 1.997 . S
O185 C183 1.239 . S
C186 O192 1.287 . S
C186 O193 1.255 . S
O187 Fe176 1.976 . S
O187 C194 1.287 . S
O188 Fe177 1.996 . S
O188 C194 1.255 . S
O189 Fe179 1.976 . S
O189 C184 1.287 . S
O190 Fe176 1.996 . S
O190 C184 1.255 . S
C191 O195 1.295 . S
C191 O196 1.235 . S
O192 Fe177 1.976 . S
O192 C186 1.287 . S
O193 Fe179 1.996 . S
O193 C186 1.255 . S
C194 O187 1.287 . S
C194 O188 1.255 . S
O195 Fe177 2.002 . S
O195 C191 1.295 . S
O196 Fe179 1.997 . S
O196 C191 1.235 . S
C197 O180 1.295 . S
C197 O181 1.235 . S
Fe198 O200 1.918 . S
Fe198 O203 1.997 . S
Fe198 O204 2.002 . S
Fe198 O209 1.976 . S
Fe198 O212 1.996 . S
Fe199 O200 1.918 . S
Fe199 O207 1.997 . S
Fe199 O210 1.996 . S
Fe199 O214 1.976 . S
Fe199 O217 2.002 . S
O200 Fe198 1.918 . S
O200 Fe199 1.918 . S
O200 Fe201 1.918 . S
Fe201 O200 1.918 . S
Fe201 O202 2.002 . S
Fe201 O211 1.976 . S
Fe201 O215 1.996 . S
Fe201 O218 1.997 . S
O202 Fe201 2.002 . S
O202 C219 1.295 . S
O203 Fe198 1.997 . S
O203 C219 1.235 . S
O204 Fe198 2.002 . S
O204 C205 1.295 . S
C205 O204 1.295 . S
C205 O207 1.235 . S
C206 O211 1.287 . S
C206 O212 1.255 . S
O207 Fe199 1.997 . S
O207 C205 1.235 . S
C208 O214 1.287 . S
C208 O215 1.255 . S
O209 Fe198 1.976 . S
O209 C216 1.287 . S
O210 Fe199 1.996 . S
O210 C216 1.255 . S
O211 Fe201 1.976 . S
O211 C206 1.287 . S
O212 Fe198 1.996 . S
O212 C206 1.255 . S
C213 O217 1.295 . S
C213 O218 1.235 . S
O214 Fe199 1.976 . S
O214 C208 1.287 . S
O215 Fe201 1.996 . S
O215 C208 1.255 . S
C216 O209 1.287 . S
C216 O210 1.255 . S
O217 Fe199 2.002 . S
O217 C213 1.295 . S
O218 Fe201 1.997 . S
O218 C213 1.235 . S
C219 O202 1.295 . S
C219 O203 1.235 . S
Fe220 O222 1.918 . S
Fe220 O225 1.997 . S
Fe220 O226 2.002 1_545 S
Fe220 O231 1.976 . S
Fe220 O234 1.996 . S
Fe221 O222 1.918 . S
Fe221 O229 1.997 1_545 S
Fe221 O232 1.996 . S
Fe221 O236 1.976 . S
Fe221 O239 2.002 . S
O222 Fe220 1.918 . S
O222 Fe221 1.918 . S
O222 Fe223 1.918 . S
Fe223 O222 1.918 . S
Fe223 O224 2.002 . S
Fe223 O233 1.976 . S
Fe223 O237 1.996 . S
Fe223 O240 1.997 . S
O224 Fe223 2.002 . S
O224 C241 1.295 . S
O225 Fe220 1.997 . S
O225 C241 1.235 . S
O226 Fe220 2.002 1_565 S
O226 C227 1.295 . S
C227 O226 1.295 . S
C227 O229 1.235 . S
C228 O233 1.287 . S
C228 O234 1.255 . S
O229 Fe221 1.997 1_565 S
O229 C227 1.235 . S
C230 O236 1.287 . S
C230 O237 1.255 . S
O231 Fe220 1.976 . S
O231 C238 1.287 . S
O232 Fe221 1.996 . S
O232 C238 1.255 . S
O233 Fe223 1.976 . S
O233 C228 1.287 . S
O234 Fe220 1.996 . S
O234 C228 1.255 . S
C235 O239 1.326 . S
C235 O240 1.239 . S
O236 Fe221 1.976 . S
O236 C230 1.287 . S
O237 Fe223 1.996 . S
O237 C230 1.255 . S
C238 O231 1.287 . S
C238 O232 1.255 . S
O239 Fe221 2.002 . S
O239 C235 1.326 . S
O240 Fe223 1.997 . S
O240 C235 1.239 . S
C241 O224 1.295 . S
C241 O225 1.235 . S
Fe242 O244 1.918 . S
Fe242 O247 1.997 . S
Fe242 O248 2.002 1_655 S
Fe242 O253 1.976 . S
Fe242 O256 1.996 . S
Fe243 O244 1.918 . S
Fe243 O251 1.997 1_655 S
Fe243 O254 1.996 . S
Fe243 O258 1.976 . S
Fe243 O261 2.002 . S
O244 Fe242 1.918 . S
O244 Fe243 1.918 . S
O244 Fe245 1.918 . S
Fe245 O244 1.918 . S
Fe245 O246 2.002 . S
Fe245 O255 1.976 . S
Fe245 O259 1.996 . S
Fe245 O262 1.997 . S
O246 Fe245 2.002 . S
O246 C263 1.295 . S
O247 Fe242 1.997 . S
O247 C263 1.235 . S
O248 Fe242 2.002 1_455 S
O248 C249 1.295 . S
C249 O248 1.295 . S
C249 O251 1.235 . S
C250 O255 1.287 . S
C250 O256 1.255 . S
O251 Fe243 1.997 1_455 S
O251 C249 1.235 . S
C252 O258 1.287 . S
C252 O259 1.255 . S
O253 Fe242 1.976 . S
O253 C260 1.287 . S
O254 Fe243 1.996 . S
O254 C260 1.255 . S
O255 Fe245 1.976 . S
O255 C250 1.287 . S
O256 Fe242 1.996 . S
O256 C250 1.255 . S
C257 O261 1.279 . S
C257 O262 1.279 . S
O258 Fe243 1.976 . S
O258 C252 1.287 . S
O259 Fe245 1.996 . S
O259 C252 1.255 . S
C260 O253 1.287 . S
C260 O254 1.255 . S
O261 Fe243 2.002 . S
O261 C257 1.279 . S
O262 Fe245 1.997 . S
O262 C257 1.279 . S
C263 O246 1.295 . S
C263 O247 1.235 . S
Fe264 O266 1.918 . S
Fe264 O269 1.997 . S
Fe264 O270 2.002 . S
Fe264 O275 1.976 . S
Fe264 O278 1.996 . S
Fe265 O266 1.918 . S
Fe265 O273 1.997 . S
Fe265 O276 1.996 . S
Fe265 O280 1.976 . S
Fe265 O283 2.002 . S
O266 Fe264 1.918 . S
O266 Fe265 1.918 . S
O266 Fe267 1.918 . S
Fe267 O266 1.918 . S
Fe267 O268 2.002 . S
Fe267 O277 1.976 . S
Fe267 O281 1.996 . S
Fe267 O284 1.997 . S
O268 Fe267 2.002 . S
O268 C285 1.295 . S
O269 Fe264 1.997 . S
O269 C285 1.235 . S
O270 Fe264 2.002 . S
O270 C271 1.295 . S
C271 O270 1.295 . S
C271 O273 1.235 . S
C272 O277 1.287 . S
C272 O278 1.255 . S
O273 Fe265 1.997 . S
O273 C271 1.235 . S
C274 O280 1.287 . S
C274 O281 1.255 . S
O275 Fe264 1.976 . S
O275 C282 1.287 . S
O276 Fe265 1.996 . S
O276 C282 1.255 . S
O277 Fe267 1.976 . S
O277 C272 1.287 . S
O278 Fe264 1.996 . S
O278 C272 1.255 . S
C279 O283 1.295 . S
C279 O284 1.235 . S
O280 Fe265 1.976 . S
O280 C274 1.287 . S
O281 Fe267 1.996 . S
O281 C274 1.255 . S
C282 O275 1.287 . S
C282 O276 1.255 . S
O283 Fe265 2.002 . S
O283 C279 1.295 . S
O284 Fe267 1.997 . S
O284 C279 1.235 . S
C285 O268 1.295 . S
C285 O269 1.235 . S
Fe286 O288 1.918 . S
Fe286 O291 1.997 . S
Fe286 O292 2.002 . S
Fe286 O297 1.976 . S
Fe286 O300 1.996 . S
Fe287 O288 1.918 . S
Fe287 O295 1.997 . S
Fe287 O298 1.996 . S
Fe287 O302 1.976 . S
Fe287 O305 2.002 . S
O288 Fe286 1.918 . S
O288 Fe287 1.918 . S
O288 Fe289 1.918 . S
Fe289 O288 1.918 . S
Fe289 O290 2.002 . S
Fe289 O299 1.976 . S
Fe289 O303 1.996 . S
Fe289 O306 1.997 . S
O290 Fe289 2.002 . S
O290 C307 1.295 . S
O291 Fe286 1.997 . S
O291 C307 1.235 . S
O292 Fe286 2.002 . S
O292 C293 1.295 . S
C293 O292 1.295 . S
C293 O295 1.235 . S
C294 O299 1.287 . S
C294 O300 1.255 . S
O295 Fe287 1.997 . S
O295 C293 1.235 . S
C296 O302 1.287 . S
C296 O303 1.255 . S
O297 Fe286 1.976 . S
O297 C304 1.287 . S
O298 Fe287 1.996 . S
O298 C304 1.255 . S
O299 Fe289 1.976 . S
O299 C294 1.287 . S
O300 Fe286 1.996 . S
O300 C294 1.255 . S
C301 O305 1.295 . S
C301 O306 1.235 . S
O302 Fe287 1.976 . S
O302 C296 1.287 . S
O303 Fe289 1.996 . S
O303 C296 1.255 . S
C304 O297 1.287 . S
C304 O298 1.255 . S
O305 Fe287 2.002 . S
O305 C301 1.295 . S
O306 Fe289 1.997 . S
O306 C301 1.235 . S
C307 O290 1.295 . S
C307 O291 1.235 . S
Fe308 O310 1.918 . S
Fe308 O313 1.997 . S
Fe308 O314 2.002 . S
Fe308 O319 1.976 . S
Fe308 O322 1.996 . S
Fe309 O310 1.918 . S
Fe309 O317 1.997 . S
Fe309 O320 1.996 . S
Fe309 O324 1.976 . S
Fe309 O327 2.002 . S
O310 Fe308 1.918 . S
O310 Fe309 1.918 . S
O310 Fe311 1.918 . S
Fe311 O310 1.918 . S
Fe311 O312 2.002 . S
Fe311 O321 1.976 . S
Fe311 O325 1.996 . S
Fe311 O328 1.997 . S
O312 Fe311 2.002 . S
O312 C329 1.295 . S
O313 Fe308 1.997 . S
O313 C329 1.235 . S
O314 Fe308 2.002 . S
O314 C315 1.295 . S
C315 O314 1.295 . S
C315 O317 1.235 . S
C316 O321 1.287 . S
C316 O322 1.255 . S
O317 Fe309 1.997 . S
O317 C315 1.235 . S
C318 O324 1.287 . S
C318 O325 1.255 . S
O319 Fe308 1.976 . S
O319 C326 1.287 . S
O320 Fe309 1.996 . S
O320 C326 1.255 . S
O321 Fe311 1.976 . S
O321 C316 1.287 . S
O322 Fe308 1.996 . S
O322 C316 1.255 . S
C323 O327 1.295 . S
C323 O328 1.235 . S
O324 Fe309 1.976 . S
O324 C318 1.287 . S
O325 Fe311 1.996 . S
O325 C318 1.255 . S
C326 O319 1.287 . S
C326 O320 1.255 . S
O327 Fe309 2.002 . S
O327 C323 1.295 . S
O328 Fe311 1.997 . S
O328 C323 1.235 . S
C329 O312 1.295 . S
C329 O313 1.235 . S
Fe330 O332 1.918 . S
Fe330 O335 1.997 . S
Fe330 O336 2.002 . S
Fe330 O341 1.976 . S
Fe330 O344 1.996 . S
Fe331 O332 1.918 . S
Fe331 O339 1.997 . S
Fe331 O342 1.996 . S
Fe331 O346 1.976 . S
Fe331 O349 2.002 . S
O332 Fe330 1.918 . S
O332 Fe331 1.918 . S
O332 Fe333 1.918 . S
Fe333 O332 1.918 . S
Fe333 O334 2.002 . S
Fe333 O343 1.976 . S
Fe333 O347 1.996 . S
Fe333 O350 1.997 . S
O334 Fe333 2.002 . S
O334 C351 1.295 . S
O335 Fe330 1.997 . S
O335 C351 1.235 . S
O336 Fe330 2.002 . S
O336 C337 1.295 . S
C337 O336 1.295 . S
C337 O339 1.235 . S
C338 O343 1.287 . S
C338 O344 1.255 . S
O339 Fe331 1.997 . S
O339 C337 1.235 . S
C340 O346 1.287 . S
C340 O347 1.255 . S
O341 Fe330 1.976 . S
O341 C348 1.287 . S
O342 Fe331 1.996 . S
O342 C348 1.255 . S
O343 Fe333 1.976 . S
O343 C338 1.287 . S
O344 Fe330 1.996 . S
O344 C338 1.255 . S
C345 O349 1.295 . S
C345 O350 1.235 . S
O346 Fe331 1.976 . S
O346 C340 1.287 . S
O347 Fe333 1.996 . S
O347 C340 1.255 . S
C348 O341 1.287 . S
C348 O342 1.255 . S
O349 Fe331 2.002 . S
O349 C345 1.295 . S
O350 Fe333 1.997 . S
O350 C345 1.235 . S
C351 O334 1.295 . S
C351 O335 1.235 . S
Fe352 O354 1.918 . S
Fe352 O357 1.997 . S
Fe352 O358 2.002 . S
Fe352 O363 1.976 . S
Fe352 O366 1.996 . S
Fe353 O354 1.918 . S
Fe353 O361 1.997 . S
Fe353 O364 1.996 . S
Fe353 O368 1.976 . S
Fe353 O371 2.002 . S
O354 Fe352 1.918 . S
O354 Fe353 1.918 . S
O354 Fe355 1.918 . S
Fe355 O354 1.918 . S
Fe355 O356 2.002 . S
Fe355 O365 1.976 . S
Fe355 O369 1.996 . S
Fe355 O372 1.997 . S
O356 Fe355 2.002 . S
O356 C373 1.295 . S
O357 Fe352 1.997 . S
O357 C373 1.235 . S
O358 Fe352 2.002 . S
O358 C359 1.295 . S
C359 O358 1.295 . S
C359 O361 1.235 . S
C360 O365 1.287 . S
C360 O366 1.255 . S
O361 Fe353 1.997 . S
O361 C359 1.235 . S
C362 O368 1.287 . S
C362 O369 1.255 . S
O363 Fe352 1.976 . S
O363 C370 1.287 . S
O364 Fe353 1.996 . S
O364 C370 1.255 . S
O365 Fe355 1.976 . S
O365 C360 1.287 . S
O366 Fe352 1.996 . S
O366 C360 1.255 . S
C367 O371 1.295 . S
C367 O372 1.235 . S
O368 Fe353 1.976 . S
O368 C362 1.287 . S
O369 Fe355 1.996 . S
O369 C362 1.255 . S
C370 O363 1.287 . S
C370 O364 1.255 . S
O371 Fe353 2.002 . S
O371 C367 1.295 . S
O372 Fe355 1.997 . S
O372 C367 1.235 . S
C373 O356 1.295 . S
C373 O357 1.235 . S
Fe374 O376 1.918 . S
Fe374 O379 1.997 . S
Fe374 O380 2.002 . S
Fe374 O385 1.976 . S
Fe374 O388 1.996 . S
Fe375 O376 1.918 . S
Fe375 O383 1.997 . S
Fe375 O386 1.996 . S
Fe375 O390 1.976 . S
Fe375 O393 2.002 . S
O376 Fe374 1.918 . S
O376 Fe375 1.918 . S
O376 Fe377 1.918 . S
Fe377 O376 1.918 . S
Fe377 O378 2.002 . S
Fe377 O387 1.976 . S
Fe377 O391 1.996 . S
Fe377 O394 1.997 . S
O378 Fe377 2.002 . S
O378 C395 1.295 . S
O379 Fe374 1.997 . S
O379 C395 1.235 . S
O380 Fe374 2.002 . S
O380 C381 1.295 . S
C381 O380 1.295 . S
C381 O383 1.235 . S
C382 O387 1.287 . S
C382 O388 1.255 . S
O383 Fe375 1.997 . S
O383 C381 1.235 . S
C384 O390 1.287 . S
C384 O391 1.255 . S
O385 Fe374 1.976 . S
O385 C392 1.287 . S
O386 Fe375 1.996 . S
O386 C392 1.255 . S
O387 Fe377 1.976 . S
O387 C382 1.287 . S
O388 Fe374 1.996 . S
O388 C382 1.255 . S
C389 O393 1.295 . S
C389 O394 1.235 . S
O390 Fe375 1.976 . S
O390 C384 1.287 . S
O391 Fe377 1.996 . S
O391 C384 1.255 . S
C392 O385 1.287 . S
C392 O386 1.255 . S
O393 Fe375 2.002 . S
O393 C389 1.295 . S
O394 Fe377 1.997 . S
O394 C389 1.235 . S
C395 O378 1.295 . S
C395 O379 1.235 . S
Fe396 O398 1.918 . S
Fe396 O401 1.997 . S
Fe396 O402 2.002 . S
Fe396 O407 1.976 . S
Fe396 O410 1.996 . S
Fe397 O398 1.918 . S
Fe397 O405 1.997 . S
Fe397 O408 1.996 . S
Fe397 O412 1.976 . S
Fe397 O415 2.002 . S
O398 Fe396 1.918 . S
O398 Fe397 1.918 . S
O398 Fe399 1.918 . S
Fe399 O398 1.918 . S
Fe399 O400 2.002 . S
Fe399 O409 1.976 . S
Fe399 O413 1.996 . S
Fe399 O416 1.997 . S
O400 Fe399 2.002 . S
O400 C417 1.295 . S
O401 Fe396 1.997 . S
O401 C417 1.235 . S
O402 Fe396 2.002 . S
O402 C403 1.295 . S
C403 O402 1.295 . S
C403 O405 1.235 . S
C404 O409 1.287 . S
C404 O410 1.255 . S
O405 Fe397 1.997 . S
O405 C403 1.235 . S
C406 O412 1.287 . S
C406 O413 1.255 . S
O407 Fe396 1.976 . S
O407 C414 1.287 . S
O408 Fe397 1.996 . S
O408 C414 1.255 . S
O409 Fe399 1.976 . S
O409 C404 1.287 . S
O410 Fe396 1.996 . S
O410 C404 1.255 . S
C411 O415 1.295 . S
C411 O416 1.235 . S
O412 Fe397 1.976 . S
O412 C406 1.287 . S
O413 Fe399 1.996 . S
O413 C406 1.255 . S
C414 O407 1.287 . S
C414 O408 1.255 . S
O415 Fe397 2.002 . S
O415 C411 1.295 . S
O416 Fe399 1.997 . S
O416 C411 1.235 . S
C417 O400 1.295 . S
C417 O401 1.235 . S
Fe418 O420 1.918 . S
Fe418 O423 1.997 . S
Fe418 O424 2.002 . S
Fe418 O429 1.976 . S
Fe418 O432 1.996 . S
Fe419 O420 1.918 . S
Fe419 O427 1.997 . S
Fe419 O430 1.996 . S
Fe419 O434 1.976 . S
Fe419 O437 2.002 . S
O420 Fe418 1.918 . S
O420 Fe419 1.918 . S
O420 Fe421 1.918 . S
Fe421 O420 1.918 . S
Fe421 O422 2.002 . S
Fe421 O431 1.976 . S
Fe421 O435 1.996 . S
Fe421 O438 1.997 . S
O422 Fe421 2.002 . S
O422 C439 1.295 . S
O423 Fe418 1.997 . S
O423 C439 1.235 . S
O424 Fe418 2.002 . S
O424 C425 1.295 . S
C425 O424 1.295 . S
C425 O427 1.235 . S
C426 O431 1.287 . S
C426 O432 1.255 . S
O427 Fe419 1.997 . S
O427 C425 1.235 . S
C428 O434 1.287 . S
C428 O435 1.255 . S
O429 Fe418 1.976 . S
O429 C436 1.287 . S
O430 Fe419 1.996 . S
O430 C436 1.255 . S
O431 Fe421 1.976 . S
O431 C426 1.287 . S
O432 Fe418 1.996 . S
O432 C426 1.255 . S
C433 O437 1.295 . S
C433 O438 1.235 . S
O434 Fe419 1.976 . S
O434 C428 1.287 . S
O435 Fe421 1.996 . S
O435 C428 1.255 . S
C436 O429 1.287 . S
C436 O430 1.255 . S
O437 Fe419 2.002 . S
O437 C433 1.295 . S
O438 Fe421 1.997 . S
O438 C433 1.235 . S
C439 O422 1.295 . S
C439 O423 1.235 . S
Fe440 O442 1.918 . S
Fe440 O445 1.997 . S
Fe440 O446 2.002 . S
Fe440 O451 1.976 . S
Fe440 O454 1.996 . S
Fe441 O442 1.918 . S
Fe441 O449 1.997 . S
Fe441 O452 1.996 . S
Fe441 O456 1.976 . S
Fe441 O459 2.002 . S
O442 Fe440 1.918 . S
O442 Fe441 1.918 . S
O442 Fe443 1.918 . S
Fe443 O442 1.918 . S
Fe443 O444 2.002 . S
Fe443 O453 1.976 . S
Fe443 O457 1.996 . S
Fe443 O460 1.997 . S
O444 Fe443 2.002 . S
O444 C461 1.295 . S
O445 Fe440 1.997 . S
O445 C461 1.235 . S
O446 Fe440 2.002 . S
O446 C447 1.295 . S
C447 O446 1.295 . S
C447 O449 1.235 . S
C448 O453 1.287 . S
C448 O454 1.255 . S
O449 Fe441 1.997 . S
O449 C447 1.235 . S
C450 O456 1.287 . S
C450 O457 1.255 . S
O451 Fe440 1.976 . S
O451 C458 1.287 . S
O452 Fe441 1.996 . S
O452 C458 1.255 . S
O453 Fe443 1.976 . S
O453 C448 1.287 . S
O454 Fe440 1.996 . S
O454 C448 1.255 . S
C455 O459 1.295 . S
C455 O460 1.235 . S
O456 Fe441 1.976 . S
O456 C450 1.287 . S
O457 Fe443 1.996 . S
O457 C450 1.255 . S
C458 O451 1.287 . S
C458 O452 1.255 . S
O459 Fe441 2.002 . S
O459 C455 1.295 . S
O460 Fe443 1.997 . S
O460 C455 1.235 . S
C461 O444 1.295 . S
C461 O445 1.235 . S
Fe462 O464 1.918 . S
Fe462 O467 1.997 . S
Fe462 O468 2.002 . S
Fe462 O473 1.976 . S
Fe462 O476 1.996 . S
Fe463 O464 1.918 . S
Fe463 O471 1.997 . S
Fe463 O474 1.996 . S
Fe463 O478 1.976 . S
Fe463 O481 2.002 . S
O464 Fe462 1.918 . S
O464 Fe463 1.918 . S
O464 Fe465 1.918 . S
Fe465 O464 1.918 . S
Fe465 O466 2.002 . S
Fe465 O475 1.976 . S
Fe465 O479 1.996 . S
Fe465 O482 1.997 . S
O466 Fe465 2.002 . S
O466 C483 1.295 . S
O467 Fe462 1.997 . S
O467 C483 1.235 . S
O468 Fe462 2.002 . S
O468 C469 1.295 . S
C469 O468 1.295 . S
C469 O471 1.235 . S
C470 O475 1.287 . S
C470 O476 1.255 . S
O471 Fe463 1.997 . S
O471 C469 1.235 . S
C472 O478 1.287 . S
C472 O479 1.255 . S
O473 Fe462 1.976 . S
O473 C480 1.287 . S
O474 Fe463 1.996 . S
O474 C480 1.255 . S
O475 Fe465 1.976 . S
O475 C470 1.287 . S
O476 Fe462 1.996 . S
O476 C470 1.255 . S
C477 O481 1.295 . S
C477 O482 1.235 . S
O478 Fe463 1.976 . S
O478 C472 1.287 . S
O479 Fe465 1.996 . S
O479 C472 1.255 . S
C480 O473 1.287 . S
C480 O474 1.255 . S
O481 Fe463 2.002 . S
O481 C477 1.295 . S
O482 Fe465 1.997 . S
O482 C477 1.235 . S
C483 O466 1.295 . S
C483 O467 1.235 . S
Fe484 O486 1.918 . S
Fe484 O489 1.997 . S
Fe484 O490 2.002 . S
Fe484 O495 1.976 . S
Fe484 O498 1.996 . S
Fe485 O486 1.918 . S
Fe485 O493 1.997 . S
Fe485 O496 1.996 . S
Fe485 O500 1.976 . S
Fe485 O503 2.002 . S
O486 Fe484 1.918 . S
O486 Fe485 1.918 . S
O486 Fe487 1.918 . S
Fe487 O486 1.918 . S
Fe487 O488 2.002 . S
Fe487 O497 1.976 . S
Fe487 O501 1.996 . S
Fe487 O504 1.997 . S
O488 Fe487 2.002 . S
O488 C505 1.295 . S
O489 Fe484 1.997 . S
O489 C505 1.235 . S
O490 Fe484 2.002 . S
O490 C491 1.295 . S
C491 O490 1.295 . S
C491 O493 1.235 . S
C492 O497 1.287 . S
C492 O498 1.255 . S
O493 Fe485 1.997 . S
O493 C491 1.235 . S
C494 O500 1.287 . S
C494 O501 1.255 . S
O495 Fe484 1.976 . S
O495 C502 1.287 . S
O496 Fe485 1.996 . S
O496 C502 1.255 . S
O497 Fe487 1.976 . S
O497 C492 1.287 . S
O498 Fe484 1.996 . S
O498 C492 1.255 . S
C499 O503 1.295 . S
C499 O504 1.235 . S
O500 Fe485 1.976 . S
O500 C494 1.287 . S
O501 Fe487 1.996 . S
O501 C494 1.255 . S
C502 O495 1.287 . S
C502 O496 1.255 . S
O503 Fe485 2.002 . S
O503 C499 1.295 . S
O504 Fe487 1.997 . S
O504 C499 1.235 . S
C505 O488 1.295 . S
C505 O489 1.235 . S
Fe506 O508 1.918 . S
Fe506 O511 1.997 . S
Fe506 O512 2.002 . S
Fe506 O517 1.976 . S
Fe506 O520 1.996 . S
Fe507 O508 1.918 . S
Fe507 O515 1.997 . S
Fe507 O518 1.996 . S
Fe507 O522 1.976 . S
Fe507 O525 2.002 . S
O508 Fe506 1.918 . S
O508 Fe507 1.918 . S
O508 Fe509 1.918 . S
Fe509 O508 1.918 . S
Fe509 O510 2.002 . S
Fe509 O519 1.976 . S
Fe509 O523 1.996 . S
Fe509 O526 1.997 . S
O510 Fe509 2.002 . S
O510 C527 1.295 . S
O511 Fe506 1.997 . S
O511 C527 1.235 . S
O512 Fe506 2.002 . S
O512 C513 1.295 . S
C513 O512 1.295 . S
C513 O515 1.235 . S
C514 O519 1.287 . S
C514 O520 1.255 . S
O515 Fe507 1.997 . S
O515 C513 1.235 . S
C516 O522 1.287 . S
C516 O523 1.255 . S
O517 Fe506 1.976 . S
O517 C524 1.287 . S
O518 Fe507 1.996 . S
O518 C524 1.255 . S
O519 Fe509 1.976 . S
O519 C514 1.287 . S
O520 Fe506 1.996 . S
O520 C514 1.255 . S
C521 O525 1.295 . S
C521 O526 1.235 . S
O522 Fe507 1.976 . S
O522 C516 1.287 . S
O523 Fe509 1.996 . S
O523 C516 1.255 . S
C524 O517 1.287 . S
C524 O518 1.255 . S
O525 Fe507 2.002 . S
O525 C521 1.295 . S
O526 Fe509 1.997 . S
O526 C521 1.235 . S
C527 O510 1.295 . S
C527 O511 1.235 . S
Fe528 O530 1.918 . S
Fe528 O533 1.997 . S
Fe528 O534 2.002 . S
Fe528 O539 1.976 . S
Fe528 O542 1.996 . S
Fe529 O530 1.918 . S
Fe529 O537 1.997 . S
Fe529 O540 1.996 . S
Fe529 O544 1.976 . S
Fe529 O547 2.002 . S
O530 Fe528 1.918 . S
O530 Fe529 1.918 . S
O530 Fe531 1.918 . S
Fe531 O530 1.918 . S
Fe531 O532 2.002 . S
Fe531 O541 1.976 . S
Fe531 O545 1.996 . S
Fe531 O548 1.997 . S
O532 Fe531 2.002 . S
O532 C549 1.295 . S
O533 Fe528 1.997 . S
O533 C549 1.235 . S
O534 Fe528 2.002 . S
O534 C535 1.295 . S
C535 O534 1.295 . S
C535 O537 1.235 . S
C536 O541 1.287 . S
C536 O542 1.255 . S
O537 Fe529 1.997 . S
O537 C535 1.235 . S
C538 O544 1.287 . S
C538 O545 1.255 . S
O539 Fe528 1.976 . S
O539 C546 1.287 . S
O540 Fe529 1.996 . S
O540 C546 1.255 . S
O541 Fe531 1.976 . S
O541 C536 1.287 . S
O542 Fe528 1.996 . S
O542 C536 1.255 . S
C543 O547 1.295 . S
C543 O548 1.235 . S
O544 Fe529 1.976 . S
O544 C538 1.287 . S
O545 Fe531 1.996 . S
O545 C538 1.255 . S
C546 O539 1.287 . S
C546 O540 1.255 . S
O547 Fe529 2.002 . S
O547 C543 1.295 . S
O548 Fe531 1.997 . S
O548 C543 1.235 . S
C549 O532 1.295 . S
C549 O533 1.235 . S
Fe550 O552 1.918 . S
Fe550 O555 1.997 . S
Fe550 O556 2.002 . S
Fe550 O561 1.976 . S
Fe550 O564 1.996 . S
Fe551 O552 1.918 . S
Fe551 O559 1.997 . S
Fe551 O562 1.996 . S
Fe551 O566 1.976 . S
Fe551 O569 2.002 . S
O552 Fe550 1.918 . S
O552 Fe551 1.918 . S
O552 Fe553 1.918 . S
Fe553 O552 1.918 . S
Fe553 O554 2.002 . S
Fe553 O563 1.976 . S
Fe553 O567 1.996 . S
Fe553 O570 1.997 . S
O554 Fe553 2.002 . S
O554 C571 1.295 . S
O555 Fe550 1.997 . S
O555 C571 1.235 . S
O556 Fe550 2.002 . S
O556 C557 1.295 . S
C557 O556 1.295 . S
C557 O559 1.235 . S
C558 O563 1.287 . S
C558 O564 1.255 . S
O559 Fe551 1.997 . S
O559 C557 1.235 . S
C560 O566 1.287 . S
C560 O567 1.255 . S
O561 Fe550 1.976 . S
O561 C568 1.287 . S
O562 Fe551 1.996 . S
O562 C568 1.255 . S
O563 Fe553 1.976 . S
O563 C558 1.287 . S
O564 Fe550 1.996 . S
O564 C558 1.255 . S
C565 O569 1.295 . S
C565 O570 1.235 . S
O566 Fe551 1.976 . S
O566 C560 1.287 . S
O567 Fe553 1.996 . S
O567 C560 1.255 . S
C568 O561 1.287 . S
C568 O562 1.255 . S
O569 Fe551 2.002 . S
O569 C565 1.295 . S
O570 Fe553 1.997 . S
O570 C565 1.235 . S
C571 O554 1.295 . S
C571 O555 1.235 . S
Fe572 O574 1.918 . S
Fe572 O577 1.997 . S
Fe572 O578 2.002 . S
Fe572 O583 1.976 . S
Fe572 O586 1.996 . S
Fe573 O574 1.918 . S
Fe573 O581 1.997 . S
Fe573 O584 1.996 . S
Fe573 O588 1.976 . S
Fe573 O591 2.002 . S
O574 Fe572 1.918 . S
O574 Fe573 1.918 . S
O574 Fe575 1.918 . S
Fe575 O574 1.918 . S
Fe575 O576 2.002 . S
Fe575 O585 1.976 . S
Fe575 O589 1.996 . S
Fe575 O592 1.997 . S
O576 Fe575 2.002 . S
O576 C593 1.295 . S
O577 Fe572 1.997 . S
O577 C593 1.235 . S
O578 Fe572 2.002 . S
O578 C579 1.295 . S
C579 O578 1.295 . S
C579 O581 1.235 . S
C580 O585 1.287 . S
C580 O586 1.255 . S
O581 Fe573 1.997 . S
O581 C579 1.235 . S
C582 O588 1.287 . S
C582 O589 1.255 . S
O583 Fe572 1.976 . S
O583 C590 1.287 . S
O584 Fe573 1.996 . S
O584 C590 1.255 . S
O585 Fe575 1.976 . S
O585 C580 1.287 . S
O586 Fe572 1.996 . S
O586 C580 1.255 . S
C587 O591 1.295 . S
C587 O592 1.235 . S
O588 Fe573 1.976 . S
O588 C582 1.287 . S
O589 Fe575 1.996 . S
O589 C582 1.255 . S
C590 O583 1.287 . S
C590 O584 1.255 . S
O591 Fe573 2.002 . S
O591 C587 1.295 . S
O592 Fe575 1.997 . S
O592 C587 1.235 . S
C593 O576 1.295 . S
C593 O577 1.235 . S
Fe594 O596 1.918 . S
Fe594 O599 1.997 . S
Fe594 O600 2.002 . S
Fe594 O605 1.976 . S
Fe594 O608 1.996 . S
Fe595 O596 1.918 . S
Fe595 O603 1.997 . S
Fe595 O606 1.996 . S
Fe595 O610 1.976 . S
Fe595 O613 2.002 . S
O596 Fe594 1.918 . S
O596 Fe595 1.918 . S
O596 Fe597 1.918 . S
Fe597 O596 1.918 . S
Fe597 O598 2.002 . S
Fe597 O607 1.976 . S
Fe597 O611 1.996 . S
Fe597 O614 1.997 . S
O598 Fe597 2.002 . S
O598 C615 1.295 . S
O599 Fe594 1.997 . S
O599 C615 1.235 . S
O600 Fe594 2.002 . S
O600 C601 1.295 . S
C601 O600 1.295 . S
C601 O603 1.235 . S
C602 O607 1.287 . S
C602 O608 1.255 . S
O603 Fe595 1.997 . S
O603 C601 1.235 . S
C604 O610 1.287 . S
C604 O611 1.255 . S
O605 Fe594 1.976 . S
O605 C612 1.287 . S
O606 Fe595 1.996 . S
O606 C612 1.255 . S
O607 Fe597 1.976 . S
O607 C602 1.287 . S
O608 Fe594 1.996 . S
O608 C602 1.255 . S
C609 O613 1.295 . S
C609 O614 1.235 . S
O610 Fe595 1.976 . S
O610 C604 1.287 . S
O611 Fe597 1.996 . S
O611 C604 1.255 . S
C612 O605 1.287 . S
C612 O606 1.255 . S
O613 Fe595 2.002 . S
O613 C609 1.295 . S
O614 Fe597 1.997 . S
O614 C609 1.235 . S
C615 O598 1.295 . S
C615 O599 1.235 . S
Fe616 O618 1.918 . S
Fe616 O621 1.997 . S
Fe616 O622 2.002 . S
Fe616 O627 1.976 . S
Fe616 O630 1.996 . S
Fe617 O618 1.918 . S
Fe617 O625 1.997 . S
Fe617 O628 1.996 . S
Fe617 O632 1.976 . S
Fe617 O635 2.002 . S
O618 Fe616 1.918 . S
O618 Fe617 1.918 . S
O618 Fe619 1.918 . S
Fe619 O618 1.918 . S
Fe619 O620 2.002 . S
Fe619 O629 1.976 . S
Fe619 O633 1.996 . S
Fe619 O636 1.997 . S
O620 Fe619 2.002 . S
O620 C637 1.295 . S
O621 Fe616 1.997 . S
O621 C637 1.235 . S
O622 Fe616 2.002 . S
O622 C623 1.295 . S
C623 O622 1.295 . S
C623 O625 1.235 . S
C624 O629 1.287 . S
C624 O630 1.255 . S
O625 Fe617 1.997 . S
O625 C623 1.235 . S
C626 O632 1.287 . S
C626 O633 1.255 . S
O627 Fe616 1.976 . S
O627 C634 1.287 . S
O628 Fe617 1.996 . S
O628 C634 1.255 . S
O629 Fe619 1.976 . S
O629 C624 1.287 . S
O630 Fe616 1.996 . S
O630 C624 1.255 . S
C631 O635 1.295 . S
C631 O636 1.235 . S
O632 Fe617 1.976 . S
O632 C626 1.287 . S
O633 Fe619 1.996 . S
O633 C626 1.255 . S
C634 O627 1.287 . S
C634 O628 1.255 . S
O635 Fe617 2.002 . S
O635 C631 1.295 . S
O636 Fe619 1.997 . S
O636 C631 1.235 . S
C637 O620 1.295 . S
C637 O621 1.235 . S
Fe638 O640 1.918 . S
Fe638 O643 1.997 . S
Fe638 O644 2.002 . S
Fe638 O649 1.976 . S
Fe638 O652 1.996 . S
Fe639 O640 1.918 . S
Fe639 O647 1.997 . S
Fe639 O650 1.996 . S
Fe639 O654 1.976 . S
Fe639 O657 2.002 . S
O640 Fe638 1.918 . S
O640 Fe639 1.918 . S
O640 Fe641 1.918 . S
Fe641 O640 1.918 . S
Fe641 O642 2.002 . S
Fe641 O651 1.976 . S
Fe641 O655 1.996 . S
Fe641 O658 1.997 . S
O642 Fe641 2.002 . S
O642 C659 1.295 . S
O643 Fe638 1.997 . S
O643 C659 1.235 . S
O644 Fe638 2.002 . S
O644 C645 1.295 . S
C645 O644 1.295 . S
C645 O647 1.235 . S
C646 O651 1.287 . S
C646 O652 1.255 . S
O647 Fe639 1.997 . S
O647 C645 1.235 . S
C648 O654 1.287 . S
C648 O655 1.255 . S
O649 Fe638 1.976 . S
O649 C656 1.287 . S
O650 Fe639 1.996 . S
O650 C656 1.255 . S
O651 Fe641 1.976 . S
O651 C646 1.287 . S
O652 Fe638 1.996 . S
O652 C646 1.255 . S
C653 O657 1.295 . S
C653 O658 1.235 . S
O654 Fe639 1.976 . S
O654 C648 1.287 . S
O655 Fe641 1.996 . S
O655 C648 1.255 . S
C656 O649 1.287 . S
C656 O650 1.255 . S
O657 Fe639 2.002 . S
O657 C653 1.295 . S
O658 Fe641 1.997 . S
O658 C653 1.235 . S
C659 O642 1.295 . S
C659 O643 1.235 . S
Fe660 O662 1.918 . S
Fe660 O665 1.997 . S
Fe660 O666 2.002 . S
Fe660 O671 1.976 . S
Fe660 O674 1.996 . S
Fe661 O662 1.918 . S
Fe661 O669 1.997 . S
Fe661 O672 1.996 . S
Fe661 O676 1.976 . S
Fe661 O679 2.002 . S
O662 Fe660 1.918 . S
O662 Fe661 1.918 . S
O662 Fe663 1.918 . S
Fe663 O662 1.918 . S
Fe663 O664 2.002 . S
Fe663 O673 1.976 . S
Fe663 O677 1.996 . S
Fe663 O680 1.997 . S
O664 Fe663 2.002 . S
O664 C681 1.295 . S
O665 Fe660 1.997 . S
O665 C681 1.235 . S
O666 Fe660 2.002 . S
O666 C667 1.295 . S
C667 O666 1.295 . S
C667 O669 1.235 . S
C668 O673 1.287 . S
C668 O674 1.255 . S
O669 Fe661 1.997 . S
O669 C667 1.235 . S
C670 O676 1.287 . S
C670 O677 1.255 . S
O671 Fe660 1.976 . S
O671 C678 1.287 . S
O672 Fe661 1.996 . S
O672 C678 1.255 . S
O673 Fe663 1.976 . S
O673 C668 1.287 . S
O674 Fe660 1.996 . S
O674 C668 1.255 . S
C675 O679 1.295 . S
C675 O680 1.235 . S
O676 Fe661 1.976 . S
O676 C670 1.287 . S
O677 Fe663 1.996 . S
O677 C670 1.255 . S
C678 O671 1.287 . S
C678 O672 1.255 . S
O679 Fe661 2.002 . S
O679 C675 1.295 . S
O680 Fe663 1.997 . S
O680 C675 1.235 . S
C681 O664 1.295 . S
C681 O665 1.235 . S
Fe682 O684 1.918 . S
Fe682 O687 1.997 . S
Fe682 O688 2.002 . S
Fe682 O693 1.976 . S
Fe682 O696 1.996 . S
Fe683 O684 1.918 . S
Fe683 O691 1.997 . S
Fe683 O694 1.996 . S
Fe683 O698 1.976 . S
Fe683 O701 2.002 . S
O684 Fe682 1.918 . S
O684 Fe683 1.918 . S
O684 Fe685 1.918 . S
Fe685 O684 1.918 . S
Fe685 O686 2.002 . S
Fe685 O695 1.976 . S
Fe685 O699 1.996 . S
Fe685 O702 1.997 . S
O686 Fe685 2.002 . S
O686 C703 1.295 . S
O687 Fe682 1.997 . S
O687 C703 1.235 . S
O688 Fe682 2.002 . S
O688 C689 1.295 . S
C689 O688 1.295 . S
C689 O691 1.235 . S
C690 O695 1.287 . S
C690 O696 1.255 . S
O691 Fe683 1.997 . S
O691 C689 1.235 . S
C692 O698 1.287 . S
C692 O699 1.255 . S
O693 Fe682 1.976 . S
O693 C700 1.287 . S
O694 Fe683 1.996 . S
O694 C700 1.255 . S
O695 Fe685 1.976 . S
O695 C690 1.287 . S
O696 Fe682 1.996 . S
O696 C690 1.255 . S
C697 O701 1.295 . S
C697 O702 1.235 . S
O698 Fe683 1.976 . S
O698 C692 1.287 . S
O699 Fe685 1.996 . S
O699 C692 1.255 . S
C700 O693 1.287 . S
C700 O694 1.255 . S
O701 Fe683 2.002 . S
O701 C697 1.295 . S
O702 Fe685 1.997 . S
O702 C697 1.235 . S
C703 O686 1.295 . S
C703 O687 1.235 . S
Fe704 O706 1.918 . S
Fe704 O709 1.997 . S
Fe704 O710 2.002 . S
Fe704 O715 1.976 . S
Fe704 O718 1.996 . S
Fe705 O706 1.918 . S
Fe705 O713 1.997 . S
Fe705 O716 1.996 . S
Fe705 O720 1.976 . S
Fe705 O723 2.002 . S
O706 Fe704 1.918 . S
O706 Fe705 1.918 . S
O706 Fe707 1.918 . S
Fe707 O706 1.918 . S
Fe707 O708 2.002 . S
Fe707 O717 1.976 . S
Fe707 O721 1.996 . S
Fe707 O724 1.997 . S
O708 Fe707 2.002 . S
O708 C725 1.295 . S
O709 Fe704 1.997 . S
O709 C725 1.235 . S
O710 Fe704 2.002 . S
O710 C711 1.295 . S
C711 O710 1.295 . S
C711 O713 1.235 . S
C712 O717 1.287 . S
C712 O718 1.255 . S
O713 Fe705 1.997 . S
O713 C711 1.235 . S
C714 O720 1.287 . S
C714 O721 1.255 . S
O715 Fe704 1.976 . S
O715 C722 1.287 . S
O716 Fe705 1.996 . S
O716 C722 1.255 . S
O717 Fe707 1.976 . S
O717 C712 1.287 . S
O718 Fe704 1.996 . S
O718 C712 1.255 . S
C719 O723 1.295 . S
C719 O724 1.235 . S
O720 Fe705 1.976 . S
O720 C714 1.287 . S
O721 Fe707 1.996 . S
O721 C714 1.255 . S
C722 O715 1.287 . S
C722 O716 1.255 . S
O723 Fe705 2.002 . S
O723 C719 1.295 . S
O724 Fe707 1.997 . S
O724 C719 1.235 . S
C725 O708 1.295 . S
C725 O709 1.235 . S
Fe726 O728 1.918 . S
Fe726 O731 1.997 . S
Fe726 O732 2.002 . S
Fe726 O737 1.976 . S
Fe726 O740 1.996 . S
Fe727 O728 1.918 . S
Fe727 O735 1.997 . S
Fe727 O738 1.996 . S
Fe727 O742 1.976 . S
Fe727 O745 2.002 . S
O728 Fe726 1.918 . S
O728 Fe727 1.918 . S
O728 Fe729 1.918 . S
Fe729 O728 1.918 . S
Fe729 O730 2.002 . S
Fe729 O739 1.976 . S
Fe729 O743 1.996 . S
Fe729 O746 1.997 . S
O730 Fe729 2.002 . S
O730 C747 1.295 . S
O731 Fe726 1.997 . S
O731 C747 1.235 . S
O732 Fe726 2.002 . S
O732 C733 1.295 . S
C733 O732 1.295 . S
C733 O735 1.235 . S
C734 O739 1.287 . S
C734 O740 1.255 . S
O735 Fe727 1.997 . S
O735 C733 1.235 . S
C736 O742 1.287 . S
C736 O743 1.255 . S
O737 Fe726 1.976 . S
O737 C744 1.287 . S
O738 Fe727 1.996 . S
O738 C744 1.255 . S
O739 Fe729 1.976 . S
O739 C734 1.287 . S
O740 Fe726 1.996 . S
O740 C734 1.255 . S
C741 O745 1.295 . S
C741 O746 1.235 . S
O742 Fe727 1.976 . S
O742 C736 1.287 . S
O743 Fe729 1.996 . S
O743 C736 1.255 . S
C744 O737 1.287 . S
C744 O738 1.255 . S
O745 Fe727 2.002 . S
O745 C741 1.295 . S
O746 Fe729 1.997 . S
O746 C741 1.235 . S
C747 O730 1.295 . S
C747 O731 1.235 . S
Fe748 O750 1.918 . S
Fe748 O753 1.997 . S
Fe748 O754 2.002 . S
Fe748 O759 1.976 . S
Fe748 O762 1.996 . S
Fe749 O750 1.918 . S
Fe749 O757 1.997 . S
Fe749 O760 1.996 . S
Fe749 O764 1.976 . S
Fe749 O767 2.002 . S
O750 Fe748 1.918 . S
O750 Fe749 1.918 . S
O750 Fe751 1.918 . S
Fe751 O750 1.918 . S
Fe751 O752 2.002 . S
Fe751 O761 1.976 . S
Fe751 O765 1.996 . S
Fe751 O768 1.997 . S
O752 Fe751 2.002 . S
O752 C769 1.295 . S
O753 Fe748 1.997 . S
O753 C769 1.235 . S
O754 Fe748 2.002 . S
O754 C755 1.295 . S
C755 O754 1.295 . S
C755 O757 1.235 . S
C756 O761 1.287 . S
C756 O762 1.255 . S
O757 Fe749 1.997 . S
O757 C755 1.235 . S
C758 O764 1.287 . S
C758 O765 1.255 . S
O759 Fe748 1.976 . S
O759 C766 1.287 . S
O760 Fe749 1.996 . S
O760 C766 1.255 . S
O761 Fe751 1.976 . S
O761 C756 1.287 . S
O762 Fe748 1.996 . S
O762 C756 1.255 . S
C763 O767 1.295 . S
C763 O768 1.235 . S
O764 Fe749 1.976 . S
O764 C758 1.287 . S
O765 Fe751 1.996 . S
O765 C758 1.255 . S
C766 O759 1.287 . S
C766 O760 1.255 . S
O767 Fe749 2.002 . S
O767 C763 1.295 . S
O768 Fe751 1.997 . S
O768 C763 1.235 . S
C769 O752 1.295 . S
C769 O753 1.235 . S
Fe770 O772 1.918 . S
Fe770 O775 1.997 . S
Fe770 O776 2.002 . S
Fe770 O781 1.976 . S
Fe770 O784 1.996 . S
Fe771 O772 1.918 . S
Fe771 O779 1.997 . S
Fe771 O782 1.996 . S
Fe771 O786 1.976 . S
Fe771 O789 2.002 . S
O772 Fe770 1.918 . S
O772 Fe771 1.918 . S
O772 Fe773 1.918 . S
Fe773 O772 1.918 . S
Fe773 O774 2.002 . S
Fe773 O783 1.976 . S
Fe773 O787 1.996 . S
Fe773 O790 1.997 . S
O774 Fe773 2.002 . S
O774 C791 1.295 . S
O775 Fe770 1.997 . S
O775 C791 1.235 . S
O776 Fe770 2.002 . S
O776 C777 1.295 . S
C777 O776 1.295 . S
C777 O779 1.235 . S
C778 O783 1.287 . S
C778 O784 1.255 . S
O779 Fe771 1.997 . S
O779 C777 1.235 . S
C780 O786 1.287 . S
C780 O787 1.255 . S
O781 Fe770 1.976 . S
O781 C788 1.287 . S
O782 Fe771 1.996 . S
O782 C788 1.255 . S
O783 Fe773 1.976 . S
O783 C778 1.287 . S
O784 Fe770 1.996 . S
O784 C778 1.255 . S
C785 O789 1.295 . S
C785 O790 1.235 . S
O786 Fe771 1.976 . S
O786 C780 1.287 . S
O787 Fe773 1.996 . S
O787 C780 1.255 . S
C788 O781 1.287 . S
C788 O782 1.255 . S
O789 Fe771 2.002 . S
O789 C785 1.295 . S
O790 Fe773 1.997 . S
O790 C785 1.235 . S
C791 O774 1.295 . S
C791 O775 1.235 . S
C792 C793 1.349 1_565 S
C792 C794 1.327 1_565 S
C792 H817 0.950 . S
C793 C792 1.349 1_545 S
C793 C809 1.349 . S
C794 C792 1.327 1_545 S
C794 C813 1.429 . S
C794 H818 0.950 . S
C795 C812 1.543 1_556 S
C795 C814 1.368 . S
C795 H819 0.949 . S
H796 C800 0.949 . S
C797 C798 1.349 . S
C797 C799 1.327 . S
C797 H820 0.950 . S
C798 C797 1.349 . S
C798 C810 1.349 . S
C799 C797 1.327 . S
C799 C815 1.429 . S
C799 H821 0.950 . S
C800 H796 0.949 . S
C800 C808 1.574 . S
C800 C816 1.368 . S
H801 C809 0.950 . S
H802 C807 0.950 . S
H803 C808 0.949 . S
H804 C810 0.950 . S
H805 C811 0.950 . S
H806 C812 0.949 . S
C807 H802 0.950 . S
C807 C809 1.327 . S
C807 C813 1.429 . S
C808 C800 1.574 . S
C808 H803 0.949 . S
C808 C814 1.368 1_554 S
C809 C793 1.349 . S
C809 H801 0.950 . S
C809 C807 1.327 . S
C810 C798 1.349 . S
C810 H804 0.950 . S
C810 C811 1.327 . S
C811 H805 0.950 . S
C811 C810 1.327 . S
C811 C815 1.429 . S
C812 C795 1.543 1_554 S
C812 H806 0.949 . S
C812 C816 1.400 . S
C813 C794 1.429 . S
C813 C807 1.429 . S
C813 C814 1.523 . S
C814 C795 1.368 . S
C814 C808 1.368 1_556 S
C814 C813 1.523 . S
C815 C799 1.429 . S
C815 C811 1.429 . S
C815 C816 1.523 . S
C816 C800 1.368 . S
C816 C812 1.400 . S
C816 C815 1.523 . S
H817 C792 0.950 . S
H818 C794 0.950 . S
H819 C795 0.949 . S
H820 C797 0.950 . S
H821 C799 0.950 . S
C822 C823 1.347 1_455 S
C822 C824 1.326 1_455 S
C822 H847 0.953 . S
C823 C822 1.347 1_655 S
C823 C839 1.349 . S
C824 C822 1.326 1_655 S
C824 C843 1.429 . S
C824 H848 0.950 . S
C825 C842 1.574 1_556 S
C825 C844 1.368 . S
C825 H849 0.949 . S
H826 C830 0.949 . S
C827 C828 1.349 . S
C827 C829 1.327 . S
C827 H850 0.950 . S
C828 C827 1.349 . S
C828 C840 1.349 . S
C829 C827 1.327 . S
C829 C845 1.429 . S
C829 H851 0.950 . S
C830 H826 0.949 . S
C830 C838 1.574 1_554 S
C830 C846 1.368 . S
H831 C839 0.950 . S
H832 C837 0.950 . S
H833 C838 0.949 . S
H834 C840 0.950 . S
H835 C841 0.950 . S
H836 C842 0.949 . S
C837 H832 0.950 . S
C837 C839 1.327 . S
C837 C843 1.429 . S
C838 C830 1.574 1_556 S
C838 H833 0.949 . S
C838 C844 1.368 . S
C839 C823 1.349 . S
C839 H831 0.950 . S
C839 C837 1.327 . S
C840 C828 1.349 . S
C840 H834 0.950 . S
C840 C841 1.327 . S
C841 H835 0.950 . S
C841 C840 1.327 . S
C841 C845 1.429 . S
C842 C825 1.574 1_554 S
C842 H836 0.949 . S
C842 C846 1.368 . S
C843 C824 1.429 . S
C843 C837 1.429 . S
C843 C844 1.523 . S
C844 C825 1.368 . S
C844 C838 1.368 . S
C844 C843 1.523 . S
C845 C829 1.429 . S
C845 C841 1.429 . S
C845 C846 1.523 . S
C846 C830 1.368 . S
C846 C842 1.368 . S
C846 C845 1.523 . S
H847 C822 0.953 . S
H848 C824 0.950 . S
H849 C825 0.949 . S
H850 C827 0.950 . S
H851 C829 0.950 . S
C852 C853 1.349 . S
C852 C854 1.327 . S
C852 H877 0.950 . S
C853 C852 1.349 . S
C853 C869 1.349 . S
C854 C852 1.327 . S
C854 C873 1.429 . S
C854 H878 0.950 . S
C855 C872 1.574 . S
C855 C874 1.368 1_554 S
C855 H879 0.949 . S
H856 C860 0.949 . S
C857 C858 1.349 . S
C857 C859 1.327 . S
C857 H880 0.950 . S
C858 C857 1.349 . S
C858 C870 1.349 . S
C859 C857 1.327 . S
C859 C875 1.429 . S
C859 H881 0.950 . S
C860 H856 0.949 . S
C860 C868 1.574 1_554 S
C860 C876 1.368 . S
H861 C869 0.950 . S
H862 C867 0.950 . S
H863 C868 0.949 . S
H864 C870 0.950 . S
H865 C871 0.950 . S
H866 C872 0.949 . S
C867 H862 0.950 . S
C867 C869 1.327 . S
C867 C873 1.429 . S
C868 C860 1.574 1_556 S
C868 H863 0.949 . S
C868 C874 1.368 . S
C869 C853 1.349 . S
C869 H861 0.950 . S
C869 C867 1.327 . S
C870 C858 1.349 . S
C870 H864 0.950 . S
C870 C871 1.327 . S
C871 H865 0.950 . S
C871 C870 1.327 . S
C871 C875 1.429 . S
C872 C855 1.574 . S
C872 H866 0.949 . S
C872 C876 1.368 . S
C873 C854 1.429 . S
C873 C867 1.429 . S
C873 C874 1.523 . S
C874 C855 1.368 1_556 S
C874 C868 1.368 . S
C874 C873 1.523 . S
C875 C859 1.429 . S
C875 C871 1.429 . S
C875 C876 1.523 . S
C876 C860 1.368 . S
C876 C872 1.368 . S
C876 C875 1.523 . S
H877 C852 0.950 . S
H878 C854 0.950 . S
H879 C855 0.949 . S
H880 C857 0.950 . S
H881 C859 0.950 . S
C882 C883 1.349 . S
C882 C884 1.327 . S
C882 H907 0.950 . S
C883 C882 1.349 . S
C883 C899 1.349 . S
C884 C882 1.327 . S
C884 C903 1.429 . S
C884 H908 0.950 . S
C885 C902 1.574 . S
C885 C904 1.368 . S
C885 H909 0.949 . S
H886 C890 0.949 . S
C887 C888 1.349 . S
C887 C889 1.327 . S
C887 H910 0.950 . S
C888 C887 1.349 . S
C888 C900 1.349 . S
C889 C887 1.327 . S
C889 C905 1.429 . S
C889 H911 0.950 . S
C890 H886 0.949 . S
C890 C898 1.574 . S
C890 C906 1.368 . S
H891 C899 0.950 . S
H892 C897 0.950 . S
H893 C898 0.949 . S
H894 C900 0.950 . S
H895 C901 0.950 . S
H896 C902 0.949 . S
C897 H892 0.950 . S
C897 C899 1.327 . S
C897 C903 1.429 . S
C898 C890 1.574 . S
C898 H893 0.949 . S
C898 C904 1.368 . S
C899 C883 1.349 . S
C899 H891 0.950 . S
C899 C897 1.327 . S
C900 C888 1.349 . S
C900 H894 0.950 . S
C900 C901 1.327 . S
C901 H895 0.950 . S
C901 C900 1.327 . S
C901 C905 1.429 . S
C902 C885 1.574 . S
C902 H896 0.949 . S
C902 C906 1.368 . S
C903 C884 1.429 . S
C903 C897 1.429 . S
C903 C904 1.523 . S
C904 C885 1.368 . S
C904 C898 1.368 . S
C904 C903 1.523 . S
C905 C889 1.429 . S
C905 C901 1.429 . S
C905 C906 1.523 . S
C906 C890 1.368 . S
C906 C902 1.368 . S
C906 C905 1.523 . S
H907 C882 0.950 . S
H908 C884 0.950 . S
H909 C885 0.949 . S
H910 C887 0.950 . S
H911 C889 0.950 . S
C912 C913 1.349 . S
C912 C914 1.327 . S
C912 H937 0.950 . S
C913 C912 1.349 . S
C913 C929 1.349 . S
C914 C912 1.327 . S
C914 C933 1.429 . S
C914 H938 0.950 . S
C915 C932 1.574 . S
C915 C934 1.368 . S
C915 H939 0.949 . S
H916 C920 0.949 . S
C917 C918 1.349 . S
C917 C919 1.327 . S
C917 H940 0.950 . S
C918 C917 1.349 . S
C918 C930 1.349 . S
C919 C917 1.327 . S
C919 C935 1.429 . S
C919 H941 0.950 . S
C920 H916 0.949 . S
C920 C928 1.574 . S
C920 C936 1.368 . S
H921 C929 0.950 . S
H922 C927 0.950 . S
H923 C928 0.949 . S
H924 C930 0.950 . S
H925 C931 0.950 . S
H926 C932 0.949 . S
C927 H922 0.950 . S
C927 C929 1.327 . S
C927 C933 1.429 . S
C928 C920 1.574 . S
C928 H923 0.949 . S
C928 C934 1.368 . S
C929 C913 1.349 . S
C929 H921 0.950 . S
C929 C927 1.327 . S
C930 C918 1.349 . S
C930 H924 0.950 . S
C930 C931 1.327 . S
C931 H925 0.950 . S
C931 C930 1.327 . S
C931 C935 1.429 . S
C932 C915 1.574 . S
C932 H926 0.949 . S
C932 C936 1.368 . S
C933 C914 1.429 . S
C933 C927 1.429 . S
C933 C934 1.523 . S
C934 C915 1.368 . S
C934 C928 1.368 . S
C934 C933 1.523 . S
C935 C919 1.429 . S
C935 C931 1.429 . S
C935 C936 1.523 . S
C936 C920 1.368 . S
C936 C932 1.368 . S
C936 C935 1.523 . S
H937 C912 0.950 . S
H938 C914 0.950 . S
H939 C915 0.949 . S
H940 C917 0.950 . S
H941 C919 0.950 . S
C942 C943 1.349 . S
C942 C944 1.327 . S
C942 H967 0.950 . S
C943 C942 1.349 . S
C943 C959 1.349 . S
C944 C942 1.327 . S
C944 C963 1.429 . S
C944 H968 0.950 . S
C945 C962 1.574 . S
C945 C964 1.368 . S
C945 H969 0.949 . S
H946 C950 0.949 . S
C947 C948 1.349 . S
C947 C949 1.327 . S
C947 H970 0.950 . S
C948 C947 1.349 . S
C948 C960 1.349 1_565 S
C949 C947 1.327 . S
C949 C965 1.429 . S
C949 H971 0.950 . S
C950 H946 0.949 . S
C950 C958 1.574 . S
C950 C966 1.368 . S
H951 C959 0.950 . S
H952 C957 0.950 . S
H953 C958 0.949 . S
H954 C960 0.950 . S
H955 C961 0.950 . S
H956 C962 0.949 . S
C957 H952 0.950 . S
C957 C959 1.327 . S
C957 C963 1.429 . S
C958 C950 1.574 . S
C958 H953 0.949 . S
C958 C964 1.368 . S
C959 C943 1.349 . S
C959 H951 0.950 . S
C959 C957 1.327 . S
C960 C948 1.349 1_545 S
C960 H954 0.950 . S
C960 C961 1.327 1_545 S
C961 H955 0.950 . S
C961 C960 1.327 1_565 S
C961 C965 1.429 . S
C962 C945 1.574 . S
C962 H956 0.949 . S
C962 C966 1.368 . S
C963 C944 1.429 . S
C963 C957 1.429 . S
C963 C964 1.523 . S
C964 C945 1.368 . S
C964 C958 1.368 . S
C964 C963 1.523 . S
C965 C949 1.429 . S
C965 C961 1.429 . S
C965 C966 1.523 . S
C966 C950 1.368 . S
C966 C962 1.368 . S
C966 C965 1.523 . S
H967 C942 0.950 . S
H968 C944 0.950 . S
H969 C945 0.949 . S
H970 C947 0.950 . S
H971 C949 0.950 . S
C972 C973 1.349 . S
C972 C974 1.327 . S
C972 H997 0.982 . S
C973 C972 1.349 . S
C973 C989 1.349 . S
C974 C972 1.327 . S
C974 C993 1.429 . S
C974 H998 0.950 . S
C975 C992 1.574 1_554 S
C975 C994 1.368 . S
C975 H999 0.949 . S
H976 C980 0.949 . S
C977 C978 1.349 . S
C977 C979 1.327 . S
C977 H1000 0.950 . S
C978 C977 1.349 . S
C978 C990 1.349 . S
C979 C977 1.327 . S
C979 C995 1.429 . S
C979 H1001 0.950 . S
C980 H976 0.949 . S
C980 C988 1.563 1_556 S
C980 C996 1.368 . S
H981 C989 0.950 . S
H982 C987 0.950 . S
H983 C988 0.951 . S
H984 C990 0.950 . S
H985 C991 0.950 . S
H986 C992 0.949 . S
C987 H982 0.950 . S
C987 C989 1.327 . S
C987 C993 1.429 . S
C988 C980 1.563 1_554 S
C988 H983 0.951 . S
C988 C994 1.377 . S
C989 C973 1.349 . S
C989 H981 0.950 . S
C989 C987 1.327 . S
C990 C978 1.349 . S
C990 H984 0.950 . S
C990 C991 1.327 . S
C991 H985 0.950 . S
C991 C990 1.327 . S
C991 C995 1.429 . S
C992 C975 1.574 1_556 S
C992 H986 0.949 . S
C992 C996 1.368 . S
C993 C974 1.429 . S
C993 C987 1.429 . S
C993 C994 1.523 . S
C994 C975 1.368 . S
C994 C988 1.377 . S
C994 C993 1.523 . S
C995 C979 1.429 . S
C995 C991 1.429 . S
C995 C996 1.523 . S
C996 C980 1.368 . S
C996 C992 1.368 . S
C996 C995 1.523 . S
H997 C972 0.982 . S
H998 C974 0.950 . S
H999 C975 0.949 . S
H1000 C977 0.950 . S
H1001 C979 0.950 . S
C1002 C1003 1.349 . S
C1002 C1004 1.327 . S
C1002 H1027 0.950 . S
C1003 C1002 1.349 . S
C1003 C1019 1.349 . S
C1004 C1002 1.327 . S
C1004 C1023 1.429 . S
C1004 H1028 0.950 . S
C1005 C1022 1.574 . S
C1005 C1024 1.368 1_556 S
C1005 H1029 0.950 . S
H1006 C1010 0.949 . S
C1007 C1008 1.349 . S
C1007 C1009 1.327 . S
C1007 H1030 0.950 . S
C1008 C1007 1.349 . S
C1008 C1020 1.349 . S
C1009 C1007 1.327 . S
C1009 C1025 1.429 . S
C1009 H1031 0.950 . S
C1010 H1006 0.949 . S
C1010 C1018 1.574 1_556 S
C1010 C1026 1.368 . S
H1011 C1019 0.950 1_655 S
H1012 C1017 0.950 . S
H1013 C1018 0.949 . S
H1014 C1020 0.950 . S
H1015 C1021 0.950 . S
H1016 C1022 0.949 . S
C1017 H1012 0.950 . S
C1017 C1019 1.327 . S
C1017 C1023 1.429 . S
C1018 C1010 1.574 1_554 S
C1018 H1013 0.949 . S
C1018 C1024 1.368 . S
C1019 C1003 1.349 . S
C1019 H1011 0.950 1_455 S
C1019 C1017 1.327 . S
C1020 C1008 1.349 . S
C1020 H1014 0.950 . S
C1020 C1021 1.327 . S
C1021 H1015 0.950 . S
C1021 C1020 1.327 . S
C1021 C1025 1.429 . S
C1022 C1005 1.574 . S
C1022 H1016 0.949 . S
C1022 C1026 1.368 . S
C1023 C1004 1.429 . S
C1023 C1017 1.429 . S
C1023 C1024 1.523 . S
C1024 C1005 1.368 1_554 S
C1024 C1018 1.368 . S
C1024 C1023 1.523 . S
C1025 C1009 1.429 . S
C1025 C1021 1.429 . S
C1025 C1026 1.523 . S
C1026 C1010 1.368 . S
C1026 C1022 1.368 . S
C1026 C1025 1.523 . S
H1027 C1002 0.950 . S
H1028 C1004 0.950 . S
H1029 C1005 0.950 . S
H1030 C1007 0.950 . S
H1031 C1009 0.950 . S
C1032 C1033 1.349 . S
C1032 C1034 1.327 . S
C1032 H1057 0.950 . S
C1033 C1032 1.349 . S
C1033 C1049 1.349 . S
C1034 C1032 1.327 . S
C1034 C1053 1.429 . S
C1034 H1058 0.950 . S
C1035 C1052 1.574 1_554 S
C1035 C1054 1.368 . S
C1035 H1059 0.949 . S
H1036 C1040 0.949 . S
C1037 C1038 1.349 . S
C1037 C1039 1.327 . S
C1037 H1060 0.950 . S
C1038 C1037 1.349 . S
C1038 C1050 1.349 . S
C1039 C1037 1.327 . S
C1039 C1055 1.429 . S
C1039 H1061 0.950 . S
C1040 H1036 0.949 . S
C1040 C1048 1.574 1_556 S
C1040 C1056 1.368 . S
H1041 C1049 0.950 . S
H1042 C1047 0.950 . S
H1043 C1048 0.949 . S
H1044 C1050 0.950 . S
H1045 C1051 0.950 . S
H1046 C1052 0.949 . S
C1047 H1042 0.950 . S
C1047 C1049 1.327 . S
C1047 C1053 1.429 . S
C1048 C1040 1.574 1_554 S
C1048 H1043 0.949 . S
C1048 C1054 1.368 . S
C1049 C1033 1.349 . S
C1049 H1041 0.950 . S
C1049 C1047 1.327 . S
C1050 C1038 1.349 . S
C1050 H1044 0.950 . S
C1050 C1051 1.327 . S
C1051 H1045 0.950 . S
C1051 C1050 1.327 . S
C1051 C1055 1.429 . S
C1052 C1035 1.574 1_556 S
C1052 H1046 0.949 . S
C1052 C1056 1.368 . S
C1053 C1034 1.429 . S
C1053 C1047 1.429 . S
C1053 C1054 1.523 . S
C1054 C1035 1.368 . S
C1054 C1048 1.368 . S
C1054 C1053 1.523 . S
C1055 C1039 1.429 . S
C1055 C1051 1.429 . S
C1055 C1056 1.523 . S
C1056 C1040 1.368 . S
C1056 C1052 1.368 . S
C1056 C1055 1.523 . S
H1057 C1032 0.950 . S
H1058 C1034 0.950 . S
H1059 C1035 0.949 . S
H1060 C1037 0.950 . S
H1061 C1039 0.950 . S
C1062 C1063 1.349 . S
C1062 C1064 1.327 . S
C1062 H1087 0.950 . S
C1063 C1062 1.349 . S
C1063 C1079 1.349 . S
C1064 C1062 1.327 . S
C1064 C1083 1.429 . S
C1064 H1088 0.950 . S
C1065 C1082 1.574 . S
C1065 C1084 1.368 . S
C1065 H1089 0.949 . S
H1066 C1070 0.949 . S
C1067 C1068 1.349 1_455 S
C1067 C1069 1.327 1_455 S
C1067 H1090 0.950 . S
C1068 C1067 1.349 1_655 S
C1068 C1080 1.349 . S
C1069 C1067 1.327 1_655 S
C1069 C1085 1.429 . S
C1069 H1091 0.950 . S
C1070 H1066 0.949 . S
C1070 C1078 1.574 . S
C1070 C1086 1.368 . S
H1071 C1079 0.950 . S
H1072 C1077 0.950 . S
H1073 C1078 0.949 . S
H1074 C1080 0.950 . S
H1075 C1081 0.950 . S
H1076 C1082 0.949 . S
C1077 H1072 0.950 . S
C1077 C1079 1.327 . S
C1077 C1083 1.429 . S
C1078 C1070 1.574 . S
C1078 H1073 0.949 . S
C1078 C1084 1.368 . S
C1079 C1063 1.349 . S
C1079 H1071 0.950 . S
C1079 C1077 1.327 . S
C1080 C1068 1.349 . S
C1080 H1074 0.950 . S
C1080 C1081 1.327 . S
C1081 H1075 0.950 . S
C1081 C1080 1.327 . S
C1081 C1085 1.429 . S
C1082 C1065 1.574 . S
C1082 H1076 0.949 . S
C1082 C1086 1.368 . S
C1083 C1064 1.429 . S
C1083 C1077 1.429 . S
C1083 C1084 1.523 . S
C1084 C1065 1.368 . S
C1084 C1078 1.368 . S
C1084 C1083 1.523 . S
C1085 C1069 1.429 . S
C1085 C1081 1.429 . S
C1085 C1086 1.523 . S
C1086 C1070 1.368 . S
C1086 C1082 1.368 . S
C1086 C1085 1.523 . S
H1087 C1062 0.950 . S
H1088 C1064 0.950 . S
H1089 C1065 0.949 . S
H1090 C1067 0.950 . S
H1091 C1069 0.950 . S
C1092 C1093 1.349 . S
C1092 C1094 1.327 . S
C1092 H1117 0.950 . S
C1093 C1092 1.349 . S
C1093 C1109 1.349 . S
C1094 C1092 1.327 . S
C1094 C1113 1.429 . S
C1094 H1118 0.950 . S
C1095 C1112 1.574 . S
C1095 C1114 1.368 . S
C1095 H1119 0.949 . S
H1096 C1100 0.949 . S
C1097 C1098 1.349 . S
C1097 C1099 1.327 . S
C1097 H1120 0.950 . S
C1098 C1097 1.349 . S
C1098 C1110 1.349 . S
C1099 C1097 1.327 . S
C1099 C1115 1.429 . S
C1099 H1121 0.950 . S
C1100 H1096 0.949 . S
C1100 C1108 1.574 . S
C1100 C1116 1.368 . S
H1101 C1109 0.950 . S
H1102 C1107 0.950 . S
H1103 C1108 0.949 . S
H1104 C1110 0.950 . S
H1105 C1111 0.950 . S
H1106 C1112 0.949 . S
C1107 H1102 0.950 . S
C1107 C1109 1.327 . S
C1107 C1113 1.429 . S
C1108 C1100 1.574 . S
C1108 H1103 0.949 . S
C1108 C1114 1.368 . S
C1109 C1093 1.349 . S
C1109 H1101 0.950 . S
C1109 C1107 1.327 . S
C1110 C1098 1.349 . S
C1110 H1104 0.950 . S
C1110 C1111 1.327 . S
C1111 H1105 0.950 . S
C1111 C1110 1.327 . S
C1111 C1115 1.429 . S
C1112 C1095 1.574 . S
C1112 H1106 0.949 . S
C1112 C1116 1.368 . S
C1113 C1094 1.429 . S
C1113 C1107 1.429 . S
C1113 C1114 1.523 . S
C1114 C1095 1.368 . S
C1114 C1108 1.368 . S
C1114 C1113 1.523 . S
C1115 C1099 1.429 . S
C1115 C1111 1.429 . S
C1115 C1116 1.523 . S
C1116 C1100 1.368 . S
C1116 C1112 1.368 . S
C1116 C1115 1.523 . S
H1117 C1092 0.950 . S
H1118 C1094 0.950 . S
H1119 C1095 0.949 . S
H1120 C1097 0.950 . S
H1121 C1099 0.950 . S
C1122 C1123 1.349 1_565 S
C1122 C1124 1.327 1_565 S
C1122 H1147 0.950 . S
C1123 C1122 1.349 1_545 S
C1123 C1139 1.349 . S
C1124 C1122 1.327 1_545 S
C1124 C1143 1.429 . S
C1124 H1148 0.950 . S
C1125 C1142 1.574 . S
C1125 C1144 1.368 . S
C1125 H1149 0.949 . S
H1126 C1130 0.949 . S
C1127 C1128 1.349 . S
C1127 C1129 1.327 . S
C1127 H1150 0.950 . S
C1128 C1127 1.349 . S
C1128 C1140 1.349 . S
C1129 C1127 1.327 . S
C1129 C1145 1.429 . S
C1129 H1151 0.950 . S
C1130 H1126 0.949 . S
C1130 C1138 1.574 . S
C1130 C1146 1.368 . S
H1131 C1139 0.950 . S
H1132 C1137 0.950 . S
H1133 C1138 0.949 . S
H1134 C1140 0.950 . S
H1135 C1141 0.950 . S
H1136 C1142 0.949 . S
C1137 H1132 0.950 . S
C1137 C1139 1.327 . S
C1137 C1143 1.429 . S
C1138 C1130 1.574 . S
C1138 H1133 0.949 . S
C1138 C1144 1.368 . S
C1139 C1123 1.349 . S
C1139 H1131 0.950 . S
C1139 C1137 1.327 . S
C1140 C1128 1.349 . S
C1140 H1134 0.950 . S
C1140 C1141 1.327 . S
C1141 H1135 0.950 . S
C1141 C1140 1.327 . S
C1141 C1145 1.429 . S
C1142 C1125 1.574 . S
C1142 H1136 0.949 . S
C1142 C1146 1.368 . S
C1143 C1124 1.429 . S
C1143 C1137 1.429 . S
C1143 C1144 1.523 . S
C1144 C1125 1.368 . S
C1144 C1138 1.368 . S
C1144 C1143 1.523 . S
C1145 C1129 1.429 . S
C1145 C1141 1.429 . S
C1145 C1146 1.523 . S
C1146 C1130 1.368 . S
C1146 C1142 1.368 . S
C1146 C1145 1.523 . S
H1147 C1122 0.950 . S
H1148 C1124 0.950 . S
H1149 C1125 0.949 . S
H1150 C1127 0.950 . S
H1151 C1129 0.950 . S
C1152 C1153 1.349 . S
C1152 C1154 1.327 . S
C1152 H1177 0.950 . S
C1153 C1152 1.349 . S
C1153 C1169 1.349 . S
C1154 C1152 1.327 . S
C1154 C1173 1.429 . S
C1154 H1178 0.950 . S
C1155 C1172 1.574 . S
C1155 C1174 1.368 . S
C1155 H1179 0.949 . S
H1156 C1160 0.949 . S
C1157 C1158 1.349 . S
C1157 C1159 1.327 . S
C1157 H1180 0.950 . S
C1158 C1157 1.349 . S
C1158 C1170 1.349 . S
C1159 C1157 1.327 . S
C1159 C1175 1.429 . S
C1159 H1181 0.950 . S
C1160 H1156 0.949 . S
C1160 C1168 1.574 . S
C1160 C1176 1.368 . S
H1161 C1169 0.950 . S
H1162 C1167 0.950 . S
H1163 C1168 0.949 . S
H1164 C1170 0.950 . S
H1165 C1171 0.950 . S
H1166 C1172 0.949 . S
C1167 H1162 0.950 . S
C1167 C1169 1.327 . S
C1167 C1173 1.429 . S
C1168 C1160 1.574 . S
C1168 H1163 0.949 . S
C1168 C1174 1.368 . S
C1169 C1153 1.349 . S
C1169 H1161 0.950 . S
C1169 C1167 1.327 . S
C1170 C1158 1.349 . S
C1170 H1164 0.950 . S
C1170 C1171 1.327 . S
C1171 H1165 0.950 . S
C1171 C1170 1.327 . S
C1171 C1175 1.429 . S
C1172 C1155 1.574 . S
C1172 H1166 0.949 . S
C1172 C1176 1.368 . S
C1173 C1154 1.429 . S
C1173 C1167 1.429 . S
C1173 C1174 1.523 . S
C1174 C1155 1.368 . S
C1174 C1168 1.368 . S
C1174 C1173 1.523 . S
C1175 C1159 1.429 . S
C1175 C1171 1.429 . S
C1175 C1176 1.523 . S
C1176 C1160 1.368 . S
C1176 C1172 1.368 . S
C1176 C1175 1.523 . S
H1177 C1152 0.950 . S
H1178 C1154 0.950 . S
H1179 C1155 0.949 . S
H1180 C1157 0.950 . S
H1181 C1159 0.950 . S
C1182 C1183 1.349 . S
C1182 C1184 1.327 . S
C1182 H1207 0.950 . S
C1183 C1182 1.349 . S
C1183 C1199 1.349 . S
C1184 C1182 1.327 . S
C1184 C1203 1.429 . S
C1184 H1208 0.950 . S
C1185 C1202 1.574 . S
C1185 C1204 1.368 . S
C1185 H1209 0.949 . S
H1186 C1190 0.949 . S
C1187 C1188 1.349 . S
C1187 C1189 1.327 . S
C1187 H1210 0.950 . S
C1188 C1187 1.349 . S
C1188 C1200 1.349 . S
C1189 C1187 1.327 . S
C1189 C1205 1.429 . S
C1189 H1211 0.950 . S
C1190 H1186 0.949 . S
C1190 C1198 1.574 . S
C1190 C1206 1.368 . S
H1191 C1199 0.950 . S
H1192 C1197 0.950 . S
H1193 C1198 0.949 . S
H1194 C1200 0.950 . S
H1195 C1201 0.950 . S
H1196 C1202 0.949 . S
C1197 H1192 0.950 . S
C1197 C1199 1.327 . S
C1197 C1203 1.429 . S
C1198 C1190 1.574 . S
C1198 H1193 0.949 . S
C1198 C1204 1.368 . S
C1199 C1183 1.349 . S
C1199 H1191 0.950 . S
C1199 C1197 1.327 . S
C1200 C1188 1.349 . S
C1200 H1194 0.950 . S
C1200 C1201 1.327 . S
C1201 H1195 0.950 . S
C1201 C1200 1.327 . S
C1201 C1205 1.429 . S
C1202 C1185 1.574 . S
C1202 H1196 0.949 . S
C1202 C1206 1.368 . S
C1203 C1184 1.429 . S
C1203 C1197 1.429 . S
C1203 C1204 1.523 . S
C1204 C1185 1.368 . S
C1204 C1198 1.368 . S
C1204 C1203 1.523 . S
C1205 C1189 1.429 . S
C1205 C1201 1.429 . S
C1205 C1206 1.523 . S
C1206 C1190 1.368 . S
C1206 C1202 1.368 . S
C1206 C1205 1.523 . S
H1207 C1182 0.950 . S
H1208 C1184 0.950 . S
H1209 C1185 0.949 . S
H1210 C1187 0.950 . S
H1211 C1189 0.950 . S
C1212 C1213 1.349 . S
C1212 C1214 1.327 . S
C1212 H1237 0.950 . S
C1213 C1212 1.349 . S
C1213 C1229 1.349 . S
C1214 C1212 1.327 . S
C1214 C1233 1.429 . S
C1214 H1238 0.950 . S
C1215 C1232 1.574 . S
C1215 C1234 1.368 . S
C1215 H1239 0.949 . S
H1216 C1220 0.949 . S
C1217 C1218 1.349 . S
C1217 C1219 1.327 . S
C1217 H1240 0.950 . S
C1218 C1217 1.349 . S
C1218 C1230 1.349 . S
C1219 C1217 1.327 . S
C1219 C1235 1.429 . S
C1219 H1241 0.950 . S
C1220 H1216 0.949 . S
C1220 C1228 1.574 . S
C1220 C1236 1.368 . S
H1221 C1229 0.950 . S
H1222 C1227 0.950 . S
H1223 C1228 0.949 . S
H1224 C1230 0.950 . S
H1225 C1231 0.950 . S
H1226 C1232 0.949 . S
C1227 H1222 0.950 . S
C1227 C1229 1.327 . S
C1227 C1233 1.429 . S
C1228 C1220 1.574 . S
C1228 H1223 0.949 . S
C1228 C1234 1.368 . S
C1229 C1213 1.349 . S
C1229 H1221 0.950 . S
C1229 C1227 1.327 . S
C1230 C1218 1.349 . S
C1230 H1224 0.950 . S
C1230 C1231 1.327 . S
C1231 H1225 0.950 . S
C1231 C1230 1.327 . S
C1231 C1235 1.429 . S
C1232 C1215 1.574 . S
C1232 H1226 0.949 . S
C1232 C1236 1.368 . S
C1233 C1214 1.429 . S
C1233 C1227 1.429 . S
C1233 C1234 1.523 . S
C1234 C1215 1.368 . S
C1234 C1228 1.368 . S
C1234 C1233 1.523 . S
C1235 C1219 1.429 . S
C1235 C1231 1.429 . S
C1235 C1236 1.523 . S
C1236 C1220 1.368 . S
C1236 C1232 1.368 . S
C1236 C1235 1.523 . S
H1237 C1212 0.950 . S
H1238 C1214 0.950 . S
H1239 C1215 0.949 . S
H1240 C1217 0.950 . S
H1241 C1219 0.950 . S
C1242 C1243 1.349 . S
C1242 C1244 1.327 . S
C1242 H1267 0.950 . S
C1243 C1242 1.349 . S
C1243 C1259 1.349 . S
C1244 C1242 1.327 . S
C1244 C1263 1.429 . S
C1244 H1268 0.950 . S
C1245 C1262 1.574 . S
C1245 C1264 1.368 . S
C1245 H1269 0.949 . S
H1246 C1250 0.949 . S
C1247 C1248 1.349 . S
C1247 C1249 1.327 . S
C1247 H1270 0.950 . S
C1248 C1247 1.349 . S
C1248 C1260 1.349 . S
C1249 C1247 1.327 . S
C1249 C1265 1.429 . S
C1249 H1271 0.950 . S
C1250 H1246 0.949 . S
C1250 C1258 1.574 . S
C1250 C1266 1.368 . S
H1251 C1259 0.950 . S
H1252 C1257 0.950 . S
H1253 C1258 0.949 . S
H1254 C1260 0.950 . S
H1255 C1261 0.950 . S
H1256 C1262 0.949 . S
C1257 H1252 0.950 . S
C1257 C1259 1.327 . S
C1257 C1263 1.429 . S
C1258 C1250 1.574 . S
C1258 H1253 0.949 . S
C1258 C1264 1.368 . S
C1259 C1243 1.349 . S
C1259 H1251 0.950 . S
C1259 C1257 1.327 . S
C1260 C1248 1.349 . S
C1260 H1254 0.950 . S
C1260 C1261 1.327 . S
C1261 H1255 0.950 . S
C1261 C1260 1.327 . S
C1261 C1265 1.429 . S
C1262 C1245 1.574 . S
C1262 H1256 0.949 . S
C1262 C1266 1.368 . S
C1263 C1244 1.429 . S
C1263 C1257 1.429 . S
C1263 C1264 1.523 . S
C1264 C1245 1.368 . S
C1264 C1258 1.368 . S
C1264 C1263 1.523 . S
C1265 C1249 1.429 . S
C1265 C1261 1.429 . S
C1265 C1266 1.523 . S
C1266 C1250 1.368 . S
C1266 C1262 1.368 . S
C1266 C1265 1.523 . S
H1267 C1242 0.950 . S
H1268 C1244 0.950 . S
H1269 C1245 0.949 . S
H1270 C1247 0.950 . S
H1271 C1249 0.950 . S
C1272 C1273 1.349 . S
C1272 C1274 1.327 . S
C1272 H1297 0.950 . S
C1273 C1272 1.349 . S
C1273 C1289 1.349 . S
C1274 C1272 1.327 . S
C1274 C1293 1.429 . S
C1274 H1298 0.950 . S
C1275 C1292 1.574 . S
C1275 C1294 1.368 . S
C1275 H1299 0.949 . S
H1276 C1280 0.949 . S
C1277 C1278 1.349 . S
C1277 C1279 1.327 . S
C1277 H1300 0.950 . S
C1278 C1277 1.349 . S
C1278 C1290 1.349 . S
C1279 C1277 1.327 . S
C1279 C1295 1.429 . S
C1279 H1301 0.950 . S
C1280 H1276 0.949 . S
C1280 C1288 1.574 . S
C1280 C1296 1.368 . S
H1281 C1289 0.950 . S
H1282 C1287 0.950 . S
H1283 C1288 0.949 . S
H1284 C1290 0.950 . S
H1285 C1291 0.950 . S
H1286 C1292 0.949 . S
C1287 H1282 0.950 . S
C1287 C1289 1.327 . S
C1287 C1293 1.429 . S
C1288 C1280 1.574 . S
C1288 H1283 0.949 . S
C1288 C1294 1.368 . S
C1289 C1273 1.349 . S
C1289 H1281 0.950 . S
C1289 C1287 1.327 . S
C1290 C1278 1.349 . S
C1290 H1284 0.950 . S
C1290 C1291 1.327 . S
C1291 H1285 0.950 . S
C1291 C1290 1.327 . S
C1291 C1295 1.429 . S
C1292 C1275 1.574 . S
C1292 H1286 0.949 . S
C1292 C1296 1.368 . S
C1293 C1274 1.429 . S
C1293 C1287 1.429 . S
C1293 C1294 1.523 . S
C1294 C1275 1.368 . S
C1294 C1288 1.368 . S
C1294 C1293 1.523 . S
C1295 C1279 1.429 . S
C1295 C1291 1.429 . S
C1295 C1296 1.523 . S
C1296 C1280 1.368 . S
C1296 C1292 1.368 . S
C1296 C1295 1.523 . S
H1297 C1272 0.950 . S
H1298 C1274 0.950 . S
H1299 C1275 0.949 . S
H1300 C1277 0.950 . S
H1301 C1279 0.950 . S
C1302 C1303 1.349 . S
C1302 C1304 1.327 . S
C1302 H1327 0.950 . S
C1303 C1302 1.349 . S
C1303 C1319 1.349 . S
C1304 C1302 1.327 . S
C1304 C1323 1.429 . S
C1304 H1328 0.950 . S
C1305 C1322 1.574 . S
C1305 C1324 1.368 . S
C1305 H1329 0.949 . S
H1306 C1310 0.949 . S
C1307 C1308 1.349 . S
C1307 C1309 1.327 . S
C1307 H1330 0.950 . S
C1308 C1307 1.349 . S
C1308 C1320 1.349 . S
C1309 C1307 1.327 . S
C1309 C1325 1.429 . S
C1309 H1331 0.950 . S
C1310 H1306 0.949 . S
C1310 C1318 1.574 . S
C1310 C1326 1.368 . S
H1311 C1319 0.950 . S
H1312 C1317 0.950 . S
H1313 C1318 0.949 . S
H1314 C1320 0.950 . S
H1315 C1321 0.950 . S
H1316 C1322 0.949 . S
C1317 H1312 0.950 . S
C1317 C1319 1.327 . S
C1317 C1323 1.429 . S
C1318 C1310 1.574 . S
C1318 H1313 0.949 . S
C1318 C1324 1.368 . S
C1319 C1303 1.349 . S
C1319 H1311 0.950 . S
C1319 C1317 1.327 . S
C1320 C1308 1.349 . S
C1320 H1314 0.950 . S
C1320 C1321 1.327 . S
C1321 H1315 0.950 . S
C1321 C1320 1.327 . S
C1321 C1325 1.429 . S
C1322 C1305 1.574 . S
C1322 H1316 0.949 . S
C1322 C1326 1.368 . S
C1323 C1304 1.429 . S
C1323 C1317 1.429 . S
C1323 C1324 1.523 . S
C1324 C1305 1.368 . S
C1324 C1318 1.368 . S
C1324 C1323 1.523 . S
C1325 C1309 1.429 . S
C1325 C1321 1.429 . S
C1325 C1326 1.523 . S
C1326 C1310 1.368 . S
C1326 C1322 1.368 . S
C1326 C1325 1.523 . S
H1327 C1302 0.950 . S
H1328 C1304 0.950 . S
H1329 C1305 0.949 . S
H1330 C1307 0.950 . S
H1331 C1309 0.950 . S
C1332 C1333 1.349 . S
C1332 C1334 1.327 . S
C1332 H1357 0.950 . S
C1333 C1332 1.349 . S
C1333 C1349 1.349 . S
C1334 C1332 1.327 . S
C1334 C1353 1.429 . S
C1334 H1358 0.950 . S
C1335 C1352 1.574 . S
C1335 C1354 1.368 . S
C1335 H1359 0.949 . S
H1336 C1340 0.949 . S
C1337 C1338 1.349 . S
C1337 C1339 1.327 . S
C1337 H1360 0.950 . S
C1338 C1337 1.349 . S
C1338 C1350 1.349 . S
C1339 C1337 1.327 . S
C1339 C1355 1.429 . S
C1339 H1361 0.950 . S
C1340 H1336 0.949 . S
C1340 C1348 1.574 . S
C1340 C1356 1.368 . S
H1341 C1349 0.950 . S
H1342 C1347 0.950 . S
H1343 C1348 0.949 . S
H1344 C1350 0.950 . S
H1345 C1351 0.950 . S
H1346 C1352 0.949 . S
C1347 H1342 0.950 . S
C1347 C1349 1.327 . S
C1347 C1353 1.429 . S
C1348 C1340 1.574 . S
C1348 H1343 0.949 . S
C1348 C1354 1.368 . S
C1349 C1333 1.349 . S
C1349 H1341 0.950 . S
C1349 C1347 1.327 . S
C1350 C1338 1.349 . S
C1350 H1344 0.950 . S
C1350 C1351 1.327 . S
C1351 H1345 0.950 . S
C1351 C1350 1.327 . S
C1351 C1355 1.429 . S
C1352 C1335 1.574 . S
C1352 H1346 0.949 . S
C1352 C1356 1.368 . S
C1353 C1334 1.429 . S
C1353 C1347 1.429 . S
C1353 C1354 1.523 . S
C1354 C1335 1.368 . S
C1354 C1348 1.368 . S
C1354 C1353 1.523 . S
C1355 C1339 1.429 . S
C1355 C1351 1.429 . S
C1355 C1356 1.523 . S
C1356 C1340 1.368 . S
C1356 C1352 1.368 . S
C1356 C1355 1.523 . S
H1357 C1332 0.950 . S
H1358 C1334 0.950 . S
H1359 C1335 0.949 . S
H1360 C1337 0.950 . S
H1361 C1339 0.950 . S
C1362 C1363 1.349 . S
C1362 C1364 1.327 . S
C1362 H1387 0.950 . S
C1363 C1362 1.349 . S
C1363 C1379 1.349 . S
C1364 C1362 1.327 . S
C1364 C1383 1.429 . S
C1364 H1388 0.950 . S
C1365 C1382 1.574 . S
C1365 C1384 1.368 . S
C1365 H1389 0.949 . S
H1366 C1370 0.949 . S
C1367 C1368 1.349 . S
C1367 C1369 1.327 . S
C1367 H1390 0.950 . S
C1368 C1367 1.349 . S
C1368 C1380 1.349 . S
C1369 C1367 1.327 . S
C1369 C1385 1.429 . S
C1369 H1391 0.950 . S
C1370 H1366 0.949 . S
C1370 C1378 1.574 . S
C1370 C1386 1.368 . S
H1371 C1379 0.950 . S
H1372 C1377 0.950 . S
H1373 C1378 0.949 . S
H1374 C1380 0.950 . S
H1375 C1381 0.950 . S
H1376 C1382 0.949 . S
C1377 H1372 0.950 . S
C1377 C1379 1.327 . S
C1377 C1383 1.429 . S
C1378 C1370 1.574 . S
C1378 H1373 0.949 . S
C1378 C1384 1.368 . S
C1379 C1363 1.349 . S
C1379 H1371 0.950 . S
C1379 C1377 1.327 . S
C1380 C1368 1.349 . S
C1380 H1374 0.950 . S
C1380 C1381 1.327 . S
C1381 H1375 0.950 . S
C1381 C1380 1.327 . S
C1381 C1385 1.429 . S
C1382 C1365 1.574 . S
C1382 H1376 0.949 . S
C1382 C1386 1.368 . S
C1383 C1364 1.429 . S
C1383 C1377 1.429 . S
C1383 C1384 1.523 . S
C1384 C1365 1.368 . S
C1384 C1378 1.368 . S
C1384 C1383 1.523 . S
C1385 C1369 1.429 . S
C1385 C1381 1.429 . S
C1385 C1386 1.523 . S
C1386 C1370 1.368 . S
C1386 C1382 1.368 . S
C1386 C1385 1.523 . S
H1387 C1362 0.950 . S
H1388 C1364 0.950 . S
H1389 C1365 0.949 . S
H1390 C1367 0.950 . S
H1391 C1369 0.950 . S
C1392 C1393 1.349 . S
C1392 C1394 1.327 . S
C1392 H1417 0.950 . S
C1393 C1392 1.349 . S
C1393 C1409 1.349 . S
C1394 C1392 1.327 . S
C1394 C1413 1.429 . S
C1394 H1418 0.950 . S
C1395 C1412 1.574 . S
C1395 C1414 1.368 . S
C1395 H1419 0.949 . S
H1396 C1400 0.949 . S
C1397 C1398 1.349 . S
C1397 C1399 1.327 . S
C1397 H1420 0.950 . S
C1398 C1397 1.349 . S
C1398 C1410 1.349 . S
C1399 C1397 1.327 . S
C1399 C1415 1.429 . S
C1399 H1421 0.950 . S
C1400 H1396 0.949 . S
C1400 C1408 1.574 . S
C1400 C1416 1.368 . S
H1401 C1409 0.950 . S
H1402 C1407 0.950 . S
H1403 C1408 0.949 . S
H1404 C1410 0.950 . S
H1405 C1411 0.950 . S
H1406 C1412 0.949 . S
C1407 H1402 0.950 . S
C1407 C1409 1.327 . S
C1407 C1413 1.429 . S
C1408 C1400 1.574 . S
C1408 H1403 0.949 . S
C1408 C1414 1.368 . S
C1409 C1393 1.349 . S
C1409 H1401 0.950 . S
C1409 C1407 1.327 . S
C1410 C1398 1.349 . S
C1410 H1404 0.950 . S
C1410 C1411 1.327 . S
C1411 H1405 0.950 . S
C1411 C1410 1.327 . S
C1411 C1415 1.429 . S
C1412 C1395 1.574 . S
C1412 H1406 0.949 . S
C1412 C1416 1.368 . S
C1413 C1394 1.429 . S
C1413 C1407 1.429 . S
C1413 C1414 1.523 . S
C1414 C1395 1.368 . S
C1414 C1408 1.368 . S
C1414 C1413 1.523 . S
C1415 C1399 1.429 . S
C1415 C1411 1.429 . S
C1415 C1416 1.523 . S
C1416 C1400 1.368 . S
C1416 C1412 1.368 . S
C1416 C1415 1.523 . S
H1417 C1392 0.950 . S
H1418 C1394 0.950 . S
H1419 C1395 0.949 . S
H1420 C1397 0.950 . S
H1421 C1399 0.950 . S
C1422 C1423 1.349 . S
C1422 C1424 1.327 . S
C1422 H1447 0.950 . S
C1423 C1422 1.349 . S
C1423 C1439 1.349 . S
C1424 C1422 1.327 . S
C1424 C1443 1.429 . S
C1424 H1448 0.950 . S
C1425 C1442 1.574 . S
C1425 C1444 1.368 . S
C1425 H1449 0.949 . S
H1426 C1430 0.949 . S
C1427 C1428 1.349 . S
C1427 C1429 1.327 . S
C1427 H1450 0.950 . S
C1428 C1427 1.349 . S
C1428 C1440 1.349 . S
C1429 C1427 1.327 . S
C1429 C1445 1.429 . S
C1429 H1451 0.950 . S
C1430 H1426 0.949 . S
C1430 C1438 1.574 . S
C1430 C1446 1.368 . S
H1431 C1439 0.950 . S
H1432 C1437 0.950 . S
H1433 C1438 0.949 . S
H1434 C1440 0.950 . S
H1435 C1441 0.950 . S
H1436 C1442 0.949 . S
C1437 H1432 0.950 . S
C1437 C1439 1.327 . S
C1437 C1443 1.429 . S
C1438 C1430 1.574 . S
C1438 H1433 0.949 . S
C1438 C1444 1.368 . S
C1439 C1423 1.349 . S
C1439 H1431 0.950 . S
C1439 C1437 1.327 . S
C1440 C1428 1.349 . S
C1440 H1434 0.950 . S
C1440 C1441 1.327 . S
C1441 H1435 0.950 . S
C1441 C1440 1.327 . S
C1441 C1445 1.429 . S
C1442 C1425 1.574 . S
C1442 H1436 0.949 . S
C1442 C1446 1.368 . S
C1443 C1424 1.429 . S
C1443 C1437 1.429 . S
C1443 C1444 1.523 . S
C1444 C1425 1.368 . S
C1444 C1438 1.368 . S
C1444 C1443 1.523 . S
C1445 C1429 1.429 . S
C1445 C1441 1.429 . S
C1445 C1446 1.523 . S
C1446 C1430 1.368 . S
C1446 C1442 1.368 . S
C1446 C1445 1.523 . S
H1447 C1422 0.950 . S
H1448 C1424 0.950 . S
H1449 C1425 0.949 . S
H1450 C1427 0.950 . S
H1451 C1429 0.950 . S
C1452 C1453 1.349 . S
C1452 C1454 1.327 . S
C1452 H1477 0.950 . S
C1453 C1452 1.349 . S
C1453 C1469 1.349 . S
C1454 C1452 1.327 . S
C1454 C1473 1.429 . S
C1454 H1478 0.950 . S
C1455 C1472 1.574 . S
C1455 C1474 1.368 . S
C1455 H1479 0.949 . S
H1456 C1460 0.949 . S
C1457 C1458 1.349 . S
C1457 C1459 1.327 . S
C1457 H1480 0.950 . S
C1458 C1457 1.349 . S
C1458 C1470 1.349 . S
C1459 C1457 1.327 . S
C1459 C1475 1.429 . S
C1459 H1481 0.950 . S
C1460 H1456 0.949 . S
C1460 C1468 1.574 . S
C1460 C1476 1.368 . S
H1461 C1469 0.950 . S
H1462 C1467 0.950 . S
H1463 C1468 0.949 . S
H1464 C1470 0.950 . S
H1465 C1471 0.950 . S
H1466 C1472 0.949 . S
C1467 H1462 0.950 . S
C1467 C1469 1.327 . S
C1467 C1473 1.429 . S
C1468 C1460 1.574 . S
C1468 H1463 0.949 . S
C1468 C1474 1.368 . S
C1469 C1453 1.349 . S
C1469 H1461 0.950 . S
C1469 C1467 1.327 . S
C1470 C1458 1.349 . S
C1470 H1464 0.950 . S
C1470 C1471 1.327 . S
C1471 H1465 0.950 . S
C1471 C1470 1.327 . S
C1471 C1475 1.429 . S
C1472 C1455 1.574 . S
C1472 H1466 0.949 . S
C1472 C1476 1.368 . S
C1473 C1454 1.429 . S
C1473 C1467 1.429 . S
C1473 C1474 1.523 . S
C1474 C1455 1.368 . S
C1474 C1468 1.368 . S
C1474 C1473 1.523 . S
C1475 C1459 1.429 . S
C1475 C1471 1.429 . S
C1475 C1476 1.523 . S
C1476 C1460 1.368 . S
C1476 C1472 1.368 . S
C1476 C1475 1.523 . S
H1477 C1452 0.950 . S
H1478 C1454 0.950 . S
H1479 C1455 0.949 . S
H1480 C1457 0.950 . S
H1481 C1459 0.950 . S
C1482 C1483 1.349 . S
C1482 C1484 1.327 . S
C1482 H1507 0.950 . S
C1483 C1482 1.349 . S
C1483 C1499 1.349 . S
C1484 C1482 1.327 . S
C1484 C1503 1.429 . S
C1484 H1508 0.950 . S
C1485 C1502 1.574 . S
C1485 C1504 1.368 . S
C1485 H1509 0.949 . S
H1486 C1490 0.949 . S
C1487 C1488 1.349 . S
C1487 C1489 1.327 . S
C1487 H1510 0.950 . S
C1488 C1487 1.349 . S
C1488 C1500 1.349 . S
C1489 C1487 1.327 . S
C1489 C1505 1.429 . S
C1489 H1511 0.950 . S
C1490 H1486 0.949 . S
C1490 C1498 1.574 . S
C1490 C1506 1.368 . S
H1491 C1499 0.950 . S
H1492 C1497 0.950 . S
H1493 C1498 0.949 . S
H1494 C1500 0.950 . S
H1495 C1501 0.950 . S
H1496 C1502 0.949 . S
C1497 H1492 0.950 . S
C1497 C1499 1.327 . S
C1497 C1503 1.429 . S
C1498 C1490 1.574 . S
C1498 H1493 0.949 . S
C1498 C1504 1.368 . S
C1499 C1483 1.349 . S
C1499 H1491 0.950 . S
C1499 C1497 1.327 . S
C1500 C1488 1.349 . S
C1500 H1494 0.950 . S
C1500 C1501 1.327 . S
C1501 H1495 0.950 . S
C1501 C1500 1.327 . S
C1501 C1505 1.429 . S
C1502 C1485 1.574 . S
C1502 H1496 0.949 . S
C1502 C1506 1.368 . S
C1503 C1484 1.429 . S
C1503 C1497 1.429 . S
C1503 C1504 1.523 . S
C1504 C1485 1.368 . S
C1504 C1498 1.368 . S
C1504 C1503 1.523 . S
C1505 C1489 1.429 . S
C1505 C1501 1.429 . S
C1505 C1506 1.523 . S
C1506 C1490 1.368 . S
C1506 C1502 1.368 . S
C1506 C1505 1.523 . S
H1507 C1482 0.950 . S
H1508 C1484 0.950 . S
H1509 C1485 0.949 . S
H1510 C1487 0.950 . S
H1511 C1489 0.950 . S
C1512 C1513 1.349 . S
C1512 C1514 1.327 . S
C1512 H1537 0.950 . S
C1513 C1512 1.349 . S
C1513 C1529 1.349 . S
C1514 C1512 1.327 . S
C1514 C1533 1.429 . S
C1514 H1538 0.950 . S
C1515 C1532 1.574 . S
C1515 C1534 1.368 . S
C1515 H1539 0.949 . S
H1516 C1520 0.949 . S
C1517 C1518 1.349 . S
C1517 C1519 1.327 . S
C1517 H1540 0.950 . S
C1518 C1517 1.349 . S
C1518 C1530 1.349 . S
C1519 C1517 1.327 . S
C1519 C1535 1.429 . S
C1519 H1541 0.950 . S
C1520 H1516 0.949 . S
C1520 C1528 1.574 . S
C1520 C1536 1.368 . S
H1521 C1529 0.950 . S
H1522 C1527 0.950 . S
H1523 C1528 0.949 . S
H1524 C1530 0.950 . S
H1525 C1531 0.950 . S
H1526 C1532 0.949 . S
C1527 H1522 0.950 . S
C1527 C1529 1.327 . S
C1527 C1533 1.429 . S
C1528 C1520 1.574 . S
C1528 H1523 0.949 . S
C1528 C1534 1.368 . S
C1529 C1513 1.349 . S
C1529 H1521 0.950 . S
C1529 C1527 1.327 . S
C1530 C1518 1.349 . S
C1530 H1524 0.950 . S
C1530 C1531 1.327 . S
C1531 H1525 0.950 . S
C1531 C1530 1.327 . S
C1531 C1535 1.429 . S
C1532 C1515 1.574 . S
C1532 H1526 0.949 . S
C1532 C1536 1.368 . S
C1533 C1514 1.429 . S
C1533 C1527 1.429 . S
C1533 C1534 1.523 . S
C1534 C1515 1.368 . S
C1534 C1528 1.368 . S
C1534 C1533 1.523 . S
C1535 C1519 1.429 . S
C1535 C1531 1.429 . S
C1535 C1536 1.523 . S
C1536 C1520 1.368 . S
C1536 C1532 1.368 . S
C1536 C1535 1.523 . S
H1537 C1512 0.950 . S
H1538 C1514 0.950 . S
H1539 C1515 0.949 . S
H1540 C1517 0.950 . S
H1541 C1519 0.950 . S
C1542 C1543 1.349 . S
C1542 C1544 1.327 . S
C1542 H1567 0.950 . S
C1543 C1542 1.349 . S
C1543 C1559 1.349 . S
C1544 C1542 1.327 . S
C1544 C1563 1.429 . S
C1544 H1568 0.950 . S
C1545 C1562 1.574 . S
C1545 C1564 1.368 . S
C1545 H1569 0.949 . S
H1546 C1550 0.949 . S
C1547 C1548 1.349 . S
C1547 C1549 1.327 . S
C1547 H1570 0.950 . S
C1548 C1547 1.349 . S
C1548 C1560 1.349 . S
C1549 C1547 1.327 . S
C1549 C1565 1.429 . S
C1549 H1571 0.950 . S
C1550 H1546 0.949 . S
C1550 C1558 1.574 . S
C1550 C1566 1.368 . S
H1551 C1559 0.950 . S
H1552 C1557 0.950 . S
H1553 C1558 0.949 . S
H1554 C1560 0.950 . S
H1555 C1561 0.950 . S
H1556 C1562 0.949 . S
C1557 H1552 0.950 . S
C1557 C1559 1.327 . S
C1557 C1563 1.429 . S
C1558 C1550 1.574 . S
C1558 H1553 0.949 . S
C1558 C1564 1.368 . S
C1559 C1543 1.349 . S
C1559 H1551 0.950 . S
C1559 C1557 1.327 . S
C1560 C1548 1.349 . S
C1560 H1554 0.950 . S
C1560 C1561 1.327 . S
C1561 H1555 0.950 . S
C1561 C1560 1.327 . S
C1561 C1565 1.429 . S
C1562 C1545 1.574 . S
C1562 H1556 0.949 . S
C1562 C1566 1.368 . S
C1563 C1544 1.429 . S
C1563 C1557 1.429 . S
C1563 C1564 1.523 . S
C1564 C1545 1.368 . S
C1564 C1558 1.368 . S
C1564 C1563 1.523 . S
C1565 C1549 1.429 . S
C1565 C1561 1.429 . S
C1565 C1566 1.523 . S
C1566 C1550 1.368 . S
C1566 C1562 1.368 . S
C1566 C1565 1.523 . S
H1567 C1542 0.950 . S
H1568 C1544 0.950 . S
H1569 C1545 0.949 . S
H1570 C1547 0.950 . S
H1571 C1549 0.950 . S
C1572 C1573 1.349 . S
C1572 C1574 1.327 . S
C1572 H1597 0.950 . S
C1573 C1572 1.349 . S
C1573 C1589 1.349 . S
C1574 C1572 1.327 . S
C1574 C1593 1.429 . S
C1574 H1598 0.950 . S
C1575 C1592 1.574 . S
C1575 C1594 1.368 . S
C1575 H1599 0.949 . S
H1576 C1580 0.949 . S
C1577 C1578 1.349 . S
C1577 C1579 1.327 . S
C1577 H1600 0.950 . S
C1578 C1577 1.349 . S
C1578 C1590 1.349 . S
C1579 C1577 1.327 . S
C1579 C1595 1.429 . S
C1579 H1601 0.950 . S
C1580 H1576 0.949 . S
C1580 C1588 1.574 . S
C1580 C1596 1.368 . S
H1581 C1589 0.950 . S
H1582 C1587 0.950 . S
H1583 C1588 0.949 . S
H1584 C1590 0.950 . S
H1585 C1591 0.950 . S
H1586 C1592 0.949 . S
C1587 H1582 0.950 . S
C1587 C1589 1.327 . S
C1587 C1593 1.429 . S
C1588 C1580 1.574 . S
C1588 H1583 0.949 . S
C1588 C1594 1.368 . S
C1589 C1573 1.349 . S
C1589 H1581 0.950 . S
C1589 C1587 1.327 . S
C1590 C1578 1.349 . S
C1590 H1584 0.950 . S
C1590 C1591 1.327 . S
C1591 H1585 0.950 . S
C1591 C1590 1.327 . S
C1591 C1595 1.429 . S
C1592 C1575 1.574 . S
C1592 H1586 0.949 . S
C1592 C1596 1.368 . S
C1593 C1574 1.429 . S
C1593 C1587 1.429 . S
C1593 C1594 1.523 . S
C1594 C1575 1.368 . S
C1594 C1588 1.368 . S
C1594 C1593 1.523 . S
C1595 C1579 1.429 . S
C1595 C1591 1.429 . S
C1595 C1596 1.523 . S
C1596 C1580 1.368 . S
C1596 C1592 1.368 . S
C1596 C1595 1.523 . S
H1597 C1572 0.950 . S
H1598 C1574 0.950 . S
H1599 C1575 0.949 . S
H1600 C1577 0.950 . S
H1601 C1579 0.950 . S
C1602 C1603 1.349 . S
C1602 C1604 1.327 . S
C1602 H1627 0.950 . S
C1603 C1602 1.349 . S
C1603 C1619 1.349 . S
C1604 C1602 1.327 . S
C1604 C1623 1.429 . S
C1604 H1628 0.950 . S
C1605 C1622 1.574 . S
C1605 C1624 1.368 . S
C1605 H1629 0.949 . S
H1606 C1610 0.949 . S
C1607 C1608 1.349 . S
C1607 C1609 1.327 . S
C1607 H1630 0.950 . S
C1608 C1607 1.349 . S
C1608 C1620 1.349 . S
C1609 C1607 1.327 . S
C1609 C1625 1.429 . S
C1609 H1631 0.950 . S
C1610 H1606 0.949 . S
C1610 C1618 1.574 . S
C1610 C1626 1.368 . S
H1611 C1619 0.950 . S
H1612 C1617 0.950 . S
H1613 C1618 0.949 . S
H1614 C1620 0.950 . S
H1615 C1621 0.950 . S
H1616 C1622 0.949 . S
C1617 H1612 0.950 . S
C1617 C1619 1.327 . S
C1617 C1623 1.429 . S
C1618 C1610 1.574 . S
C1618 H1613 0.949 . S
C1618 C1624 1.368 . S
C1619 C1603 1.349 . S
C1619 H1611 0.950 . S
C1619 C1617 1.327 . S
C1620 C1608 1.349 . S
C1620 H1614 0.950 . S
C1620 C1621 1.327 . S
C1621 H1615 0.950 . S
C1621 C1620 1.327 . S
C1621 C1625 1.429 . S
C1622 C1605 1.574 . S
C1622 H1616 0.949 . S
C1622 C1626 1.368 . S
C1623 C1604 1.429 . S
C1623 C1617 1.429 . S
C1623 C1624 1.523 . S
C1624 C1605 1.368 . S
C1624 C1618 1.368 . S
C1624 C1623 1.523 . S
C1625 C1609 1.429 . S
C1625 C1621 1.429 . S
C1625 C1626 1.523 . S
C1626 C1610 1.368 . S
C1626 C1622 1.368 . S
C1626 C1625 1.523 . S
H1627 C1602 0.950 . S
H1628 C1604 0.950 . S
H1629 C1605 0.949 . S
H1630 C1607 0.950 . S
H1631 C1609 0.950 . S
C1632 C1633 1.349 . S
C1632 C1634 1.327 . S
C1632 H1657 0.950 . S
C1633 C1632 1.349 . S
C1633 C1649 1.349 . S
C1634 C1632 1.327 . S
C1634 C1653 1.429 . S
C1634 H1658 0.950 . S
C1635 C1652 1.574 . S
C1635 C1654 1.368 . S
C1635 H1659 0.949 . S
H1636 C1640 0.949 . S
C1637 C1638 1.349 . S
C1637 C1639 1.327 . S
C1637 H1660 0.950 . S
C1638 C1637 1.349 . S
C1638 C1650 1.349 . S
C1639 C1637 1.327 . S
C1639 C1655 1.429 . S
C1639 H1661 0.950 . S
C1640 H1636 0.949 . S
C1640 C1648 1.574 . S
C1640 C1656 1.368 . S
H1641 C1649 0.950 . S
H1642 C1647 0.950 . S
H1643 C1648 0.949 . S
H1644 C1650 0.950 . S
H1645 C1651 0.950 . S
H1646 C1652 0.949 . S
C1647 H1642 0.950 . S
C1647 C1649 1.327 . S
C1647 C1653 1.429 . S
C1648 C1640 1.574 . S
C1648 H1643 0.949 . S
C1648 C1654 1.368 . S
C1649 C1633 1.349 . S
C1649 H1641 0.950 . S
C1649 C1647 1.327 . S
C1650 C1638 1.349 . S
C1650 H1644 0.950 . S
C1650 C1651 1.327 . S
C1651 H1645 0.950 . S
C1651 C1650 1.327 . S
C1651 C1655 1.429 . S
C1652 C1635 1.574 . S
C1652 H1646 0.949 . S
C1652 C1656 1.368 . S
C1653 C1634 1.429 . S
C1653 C1647 1.429 . S
C1653 C1654 1.523 . S
C1654 C1635 1.368 . S
C1654 C1648 1.368 . S
C1654 C1653 1.523 . S
C1655 C1639 1.429 . S
C1655 C1651 1.429 . S
C1655 C1656 1.523 . S
C1656 C1640 1.368 . S
C1656 C1652 1.368 . S
C1656 C1655 1.523 . S
H1657 C1632 0.950 . S
H1658 C1634 0.950 . S
H1659 C1635 0.949 . S
H1660 C1637 0.950 . S
H1661 C1639 0.950 . S
C1662 C1663 1.349 . S
C1662 C1664 1.327 . S
C1662 H1687 0.950 . S
C1663 C1662 1.349 . S
C1663 C1679 1.349 . S
C1664 C1662 1.327 . S
C1664 C1683 1.429 . S
C1664 H1688 0.950 . S
C1665 C1682 1.574 . S
C1665 C1684 1.368 . S
C1665 H1689 0.949 . S
H1666 C1670 0.949 . S
C1667 C1668 1.349 . S
C1667 C1669 1.327 . S
C1667 H1690 0.950 . S
C1668 C1667 1.349 . S
C1668 C1680 1.349 . S
C1669 C1667 1.327 . S
C1669 C1685 1.429 . S
C1669 H1691 0.950 . S
C1670 H1666 0.949 . S
C1670 C1678 1.574 . S
C1670 C1686 1.368 . S
H1671 C1679 0.950 . S
H1672 C1677 0.950 . S
H1673 C1678 0.949 . S
H1674 C1680 0.950 . S
H1675 C1681 0.950 . S
H1676 C1682 0.949 . S
C1677 H1672 0.950 . S
C1677 C1679 1.327 . S
C1677 C1683 1.429 . S
C1678 C1670 1.574 . S
C1678 H1673 0.949 . S
C1678 C1684 1.368 . S
C1679 C1663 1.349 . S
C1679 H1671 0.950 . S
C1679 C1677 1.327 . S
C1680 C1668 1.349 . S
C1680 H1674 0.950 . S
C1680 C1681 1.327 . S
C1681 H1675 0.950 . S
C1681 C1680 1.327 . S
C1681 C1685 1.429 . S
C1682 C1665 1.574 . S
C1682 H1676 0.949 . S
C1682 C1686 1.368 . S
C1683 C1664 1.429 . S
C1683 C1677 1.429 . S
C1683 C1684 1.523 . S
C1684 C1665 1.368 . S
C1684 C1678 1.368 . S
C1684 C1683 1.523 . S
C1685 C1669 1.429 . S
C1685 C1681 1.429 . S
C1685 C1686 1.523 . S
C1686 C1670 1.368 . S
C1686 C1682 1.368 . S
C1686 C1685 1.523 . S
H1687 C1662 0.950 . S
H1688 C1664 0.950 . S
H1689 C1665 0.949 . S
H1690 C1667 0.950 . S
H1691 C1669 0.950 . S
C1692 C1693 1.349 . S
C1692 C1694 1.327 . S
C1692 H1717 0.950 . S
C1693 C1692 1.349 . S
C1693 C1709 1.349 . S
C1694 C1692 1.327 . S
C1694 C1713 1.429 . S
C1694 H1718 0.950 . S
C1695 C1712 1.574 . S
C1695 C1714 1.368 . S
C1695 H1719 0.949 . S
H1696 C1700 0.949 . S
C1697 C1698 1.349 . S
C1697 C1699 1.327 . S
C1697 H1720 0.950 . S
C1698 C1697 1.349 . S
C1698 C1710 1.349 . S
C1699 C1697 1.327 . S
C1699 C1715 1.429 . S
C1699 H1721 0.950 . S
C1700 H1696 0.949 . S
C1700 C1708 1.574 . S
C1700 C1716 1.368 . S
H1701 C1709 0.950 . S
H1702 C1707 0.950 . S
H1703 C1708 0.949 . S
H1704 C1710 0.950 . S
H1705 C1711 0.950 . S
H1706 C1712 0.949 . S
C1707 H1702 0.950 . S
C1707 C1709 1.327 . S
C1707 C1713 1.429 . S
C1708 C1700 1.574 . S
C1708 H1703 0.949 . S
C1708 C1714 1.368 . S
C1709 C1693 1.349 . S
C1709 H1701 0.950 . S
C1709 C1707 1.327 . S
C1710 C1698 1.349 . S
C1710 H1704 0.950 . S
C1710 C1711 1.327 . S
C1711 H1705 0.950 . S
C1711 C1710 1.327 . S
C1711 C1715 1.429 . S
C1712 C1695 1.574 . S
C1712 H1706 0.949 . S
C1712 C1716 1.368 . S
C1713 C1694 1.429 . S
C1713 C1707 1.429 . S
C1713 C1714 1.523 . S
C1714 C1695 1.368 . S
C1714 C1708 1.368 . S
C1714 C1713 1.523 . S
C1715 C1699 1.429 . S
C1715 C1711 1.429 . S
C1715 C1716 1.523 . S
C1716 C1700 1.368 . S
C1716 C1712 1.368 . S
C1716 C1715 1.523 . S
H1717 C1692 0.950 . S
H1718 C1694 0.950 . S
H1719 C1695 0.949 . S
H1720 C1697 0.950 . S
H1721 C1699 0.950 . S
C1722 C1723 1.349 . S
C1722 C1724 1.327 . S
C1722 H1747 0.950 . S
C1723 C1722 1.349 . S
C1723 C1739 1.349 . S
C1724 C1722 1.327 . S
C1724 C1743 1.429 . S
C1724 H1748 0.950 . S
C1725 C1742 1.574 . S
C1725 C1744 1.368 . S
C1725 H1749 0.949 . S
H1726 C1730 0.949 . S
C1727 C1728 1.349 . S
C1727 C1729 1.327 . S
C1727 H1750 0.950 . S
C1728 C1727 1.349 . S
C1728 C1740 1.349 . S
C1729 C1727 1.327 . S
C1729 C1745 1.429 . S
C1729 H1751 0.950 . S
C1730 H1726 0.949 . S
C1730 C1738 1.574 . S
C1730 C1746 1.368 . S
H1731 C1739 0.950 . S
H1732 C1737 0.950 . S
H1733 C1738 0.949 . S
H1734 C1740 0.950 . S
H1735 C1741 0.950 . S
H1736 C1742 0.949 . S
C1737 H1732 0.950 . S
C1737 C1739 1.327 . S
C1737 C1743 1.429 . S
C1738 C1730 1.574 . S
C1738 H1733 0.949 . S
C1738 C1744 1.368 . S
C1739 C1723 1.349 . S
C1739 H1731 0.950 . S
C1739 C1737 1.327 . S
C1740 C1728 1.349 . S
C1740 H1734 0.950 . S
C1740 C1741 1.327 . S
C1741 H1735 0.950 . S
C1741 C1740 1.327 . S
C1741 C1745 1.429 . S
C1742 C1725 1.574 . S
C1742 H1736 0.949 . S
C1742 C1746 1.368 . S
C1743 C1724 1.429 . S
C1743 C1737 1.429 . S
C1743 C1744 1.523 . S
C1744 C1725 1.368 . S
C1744 C1738 1.368 . S
C1744 C1743 1.523 . S
C1745 C1729 1.429 . S
C1745 C1741 1.429 . S
C1745 C1746 1.523 . S
C1746 C1730 1.368 . S
C1746 C1742 1.368 . S
C1746 C1745 1.523 . S
H1747 C1722 0.950 . S
H1748 C1724 0.950 . S
H1749 C1725 0.949 . S
H1750 C1727 0.950 . S
H1751 C1729 0.950 . S
C1752 C1753 1.349 . S
C1752 C1754 1.327 . S
C1752 H1777 0.950 . S
C1753 C1752 1.349 . S
C1753 C1769 1.349 . S
C1754 C1752 1.327 . S
C1754 C1773 1.429 . S
C1754 H1778 0.950 . S
C1755 C1772 1.574 . S
C1755 C1774 1.368 . S
C1755 H1779 0.949 . S
H1756 C1760 0.949 . S
C1757 C1758 1.349 . S
C1757 C1759 1.327 . S
C1757 H1780 0.950 . S
C1758 C1757 1.349 . S
C1758 C1770 1.349 . S
C1759 C1757 1.327 . S
C1759 C1775 1.429 . S
C1759 H1781 0.950 . S
C1760 H1756 0.949 . S
C1760 C1768 1.574 . S
C1760 C1776 1.368 . S
H1761 C1769 0.950 . S
H1762 C1767 0.950 . S
H1763 C1768 0.949 . S
H1764 C1770 0.950 . S
H1765 C1771 0.950 . S
H1766 C1772 0.949 . S
C1767 H1762 0.950 . S
C1767 C1769 1.327 . S
C1767 C1773 1.429 . S
C1768 C1760 1.574 . S
C1768 H1763 0.949 . S
C1768 C1774 1.368 . S
C1769 C1753 1.349 . S
C1769 H1761 0.950 . S
C1769 C1767 1.327 . S
C1770 C1758 1.349 . S
C1770 H1764 0.950 . S
C1770 C1771 1.327 . S
C1771 H1765 0.950 . S
C1771 C1770 1.327 . S
C1771 C1775 1.429 . S
C1772 C1755 1.574 . S
C1772 H1766 0.949 . S
C1772 C1776 1.368 . S
C1773 C1754 1.429 . S
C1773 C1767 1.429 . S
C1773 C1774 1.523 . S
C1774 C1755 1.368 . S
C1774 C1768 1.368 . S
C1774 C1773 1.523 . S
C1775 C1759 1.429 . S
C1775 C1771 1.429 . S
C1775 C1776 1.523 . S
C1776 C1760 1.368 . S
C1776 C1772 1.368 . S
C1776 C1775 1.523 . S
H1777 C1752 0.950 . S
H1778 C1754 0.950 . S
H1779 C1755 0.949 . S
H1780 C1757 0.950 . S
H1781 C1759 0.950 . S
C1782 C1783 1.349 . S
C1782 C1784 1.327 . S
C1782 H1807 0.950 . S
C1783 C1782 1.349 . S
C1783 C1799 1.349 . S
C1784 C1782 1.327 . S
C1784 C1803 1.429 . S
C1784 H1808 0.950 . S
C1785 C1802 1.574 . S
C1785 C1804 1.368 . S
C1785 H1809 0.949 . S
H1786 C1790 0.949 . S
C1787 C1788 1.349 . S
C1787 C1789 1.327 . S
C1787 H1810 0.950 . S
C1788 C1787 1.349 . S
C1788 C1800 1.349 . S
C1789 C1787 1.327 . S
C1789 C1805 1.429 . S
C1789 H1811 0.950 . S
C1790 H1786 0.949 . S
C1790 C1798 1.574 . S
C1790 C1806 1.368 . S
H1791 C1799 0.950 . S
H1792 C1797 0.950 . S
H1793 C1798 0.949 . S
H1794 C1800 0.950 . S
H1795 C1801 0.950 . S
H1796 C1802 0.949 . S
C1797 H1792 0.950 . S
C1797 C1799 1.327 . S
C1797 C1803 1.429 . S
C1798 C1790 1.574 . S
C1798 H1793 0.949 . S
C1798 C1804 1.368 . S
C1799 C1783 1.349 . S
C1799 H1791 0.950 . S
C1799 C1797 1.327 . S
C1800 C1788 1.349 . S
C1800 H1794 0.950 . S
C1800 C1801 1.327 . S
C1801 H1795 0.950 . S
C1801 C1800 1.327 . S
C1801 C1805 1.429 . S
C1802 C1785 1.574 . S
C1802 H1796 0.949 . S
C1802 C1806 1.368 . S
C1803 C1784 1.429 . S
C1803 C1797 1.429 . S
C1803 C1804 1.523 . S
C1804 C1785 1.368 . S
C1804 C1798 1.368 . S
C1804 C1803 1.523 . S
C1805 C1789 1.429 . S
C1805 C1801 1.429 . S
C1805 C1806 1.523 . S
C1806 C1790 1.368 . S
C1806 C1802 1.368 . S
C1806 C1805 1.523 . S
H1807 C1782 0.950 . S
H1808 C1784 0.950 . S
H1809 C1785 0.949 . S
H1810 C1787 0.950 . S
H1811 C1789 0.950 . S
C1812 C1813 1.349 . S
C1812 C1814 1.327 . S
C1812 H1837 0.950 . S
C1813 C1812 1.349 . S
C1813 C1829 1.349 . S
C1814 C1812 1.327 . S
C1814 C1833 1.429 . S
C1814 H1838 0.950 . S
C1815 C1832 1.574 . S
C1815 C1834 1.368 . S
C1815 H1839 0.949 . S
H1816 C1820 0.949 . S
C1817 C1818 1.349 . S
C1817 C1819 1.327 . S
C1817 H1840 0.950 . S
C1818 C1817 1.349 . S
C1818 C1830 1.349 . S
C1819 C1817 1.327 . S
C1819 C1835 1.429 . S
C1819 H1841 0.950 . S
C1820 H1816 0.949 . S
C1820 C1828 1.574 . S
C1820 C1836 1.368 . S
H1821 C1829 0.950 . S
H1822 C1827 0.950 . S
H1823 C1828 0.949 . S
H1824 C1830 0.950 . S
H1825 C1831 0.950 . S
H1826 C1832 0.949 . S
C1827 H1822 0.950 . S
C1827 C1829 1.327 . S
C1827 C1833 1.429 . S
C1828 C1820 1.574 . S
C1828 H1823 0.949 . S
C1828 C1834 1.368 . S
C1829 C1813 1.349 . S
C1829 H1821 0.950 . S
C1829 C1827 1.327 . S
C1830 C1818 1.349 . S
C1830 H1824 0.950 . S
C1830 C1831 1.327 . S
C1831 H1825 0.950 . S
C1831 C1830 1.327 . S
C1831 C1835 1.429 . S
C1832 C1815 1.574 . S
C1832 H1826 0.949 . S
C1832 C1836 1.368 . S
C1833 C1814 1.429 . S
C1833 C1827 1.429 . S
C1833 C1834 1.523 . S
C1834 C1815 1.368 . S
C1834 C1828 1.368 . S
C1834 C1833 1.523 . S
C1835 C1819 1.429 . S
C1835 C1831 1.429 . S
C1835 C1836 1.523 . S
C1836 C1820 1.368 . S
C1836 C1832 1.368 . S
C1836 C1835 1.523 . S
H1837 C1812 0.950 . S
H1838 C1814 0.950 . S
H1839 C1815 0.949 . S
H1840 C1817 0.950 . S
H1841 C1819 0.950 . S
C1842 C1843 1.349 . S
C1842 C1844 1.327 . S
C1842 H1867 0.950 . S
C1843 C1842 1.349 . S
C1843 C1859 1.349 . S
C1844 C1842 1.327 . S
C1844 C1863 1.429 . S
C1844 H1868 0.950 . S
C1845 C1862 1.574 . S
C1845 C1864 1.368 . S
C1845 H1869 0.949 . S
H1846 C1850 0.949 . S
C1847 C1848 1.349 . S
C1847 C1849 1.327 . S
C1847 H1870 0.950 . S
C1848 C1847 1.349 . S
C1848 C1860 1.349 . S
C1849 C1847 1.327 . S
C1849 C1865 1.429 . S
C1849 H1871 0.950 . S
C1850 H1846 0.949 . S
C1850 C1858 1.574 . S
C1850 C1866 1.368 . S
H1851 C1859 0.950 . S
H1852 C1857 0.950 . S
H1853 C1858 0.949 . S
H1854 C1860 0.950 . S
H1855 C1861 0.950 . S
H1856 C1862 0.949 . S
C1857 H1852 0.950 . S
C1857 C1859 1.327 . S
C1857 C1863 1.429 . S
C1858 C1850 1.574 . S
C1858 H1853 0.949 . S
C1858 C1864 1.368 . S
C1859 C1843 1.349 . S
C1859 H1851 0.950 . S
C1859 C1857 1.327 . S
C1860 C1848 1.349 . S
C1860 H1854 0.950 . S
C1860 C1861 1.327 . S
C1861 H1855 0.950 . S
C1861 C1860 1.327 . S
C1861 C1865 1.429 . S
C1862 C1845 1.574 . S
C1862 H1856 0.949 . S
C1862 C1866 1.368 . S
C1863 C1844 1.429 . S
C1863 C1857 1.429 . S
C1863 C1864 1.523 . S
C1864 C1845 1.368 . S
C1864 C1858 1.368 . S
C1864 C1863 1.523 . S
C1865 C1849 1.429 . S
C1865 C1861 1.429 . S
C1865 C1866 1.523 . S
C1866 C1850 1.368 . S
C1866 C1862 1.368 . S
C1866 C1865 1.523 . S
H1867 C1842 0.950 . S
H1868 C1844 0.950 . S
H1869 C1845 0.949 . S
H1870 C1847 0.950 . S
H1871 C1849 0.950 . S
C1872 C1873 1.349 . S
C1872 C1874 1.327 . S
C1872 H1897 0.950 . S
C1873 C1872 1.349 . S
C1873 C1889 1.349 . S
C1874 C1872 1.327 . S
C1874 C1893 1.429 . S
C1874 H1898 0.950 . S
C1875 C1892 1.574 . S
C1875 C1894 1.368 . S
C1875 H1899 0.949 . S
H1876 C1880 0.949 . S
C1877 C1878 1.349 . S
C1877 C1879 1.327 . S
C1877 H1900 0.950 . S
C1878 C1877 1.349 . S
C1878 C1890 1.349 . S
C1879 C1877 1.327 . S
C1879 C1895 1.429 . S
C1879 H1901 0.950 . S
C1880 H1876 0.949 . S
C1880 C1888 1.574 . S
C1880 C1896 1.368 . S
H1881 C1889 0.950 . S
H1882 C1887 0.950 . S
H1883 C1888 0.949 . S
H1884 C1890 0.950 . S
H1885 C1891 0.950 . S
H1886 C1892 0.949 . S
C1887 H1882 0.950 . S
C1887 C1889 1.327 . S
C1887 C1893 1.429 . S
C1888 C1880 1.574 . S
C1888 H1883 0.949 . S
C1888 C1894 1.368 . S
C1889 C1873 1.349 . S
C1889 H1881 0.950 . S
C1889 C1887 1.327 . S
C1890 C1878 1.349 . S
C1890 H1884 0.950 . S
C1890 C1891 1.327 . S
C1891 H1885 0.950 . S
C1891 C1890 1.327 . S
C1891 C1895 1.429 . S
C1892 C1875 1.574 . S
C1892 H1886 0.949 . S
C1892 C1896 1.368 . S
C1893 C1874 1.429 . S
C1893 C1887 1.429 . S
C1893 C1894 1.523 . S
C1894 C1875 1.368 . S
C1894 C1888 1.368 . S
C1894 C1893 1.523 . S
C1895 C1879 1.429 . S
C1895 C1891 1.429 . S
C1895 C1896 1.523 . S
C1896 C1880 1.368 . S
C1896 C1892 1.368 . S
C1896 C1895 1.523 . S
H1897 C1872 0.950 . S
H1898 C1874 0.950 . S
H1899 C1875 0.949 . S
H1900 C1877 0.950 . S
H1901 C1879 0.950 . S
C1902 C1903 1.349 . S
C1902 C1904 1.327 . S
C1902 H1927 0.950 . S
C1903 C1902 1.349 . S
C1903 C1919 1.349 . S
C1904 C1902 1.327 . S
C1904 C1923 1.429 . S
C1904 H1928 0.950 . S
C1905 C1922 1.574 . S
C1905 C1924 1.368 . S
C1905 H1929 0.949 . S
H1906 C1910 0.949 . S
C1907 C1908 1.349 . S
C1907 C1909 1.327 . S
C1907 H1930 0.950 . S
C1908 C1907 1.349 . S
C1908 C1920 1.349 . S
C1909 C1907 1.327 . S
C1909 C1925 1.429 . S
C1909 H1931 0.950 . S
C1910 H1906 0.949 . S
C1910 C1918 1.574 . S
C1910 C1926 1.368 . S
H1911 C1919 0.950 . S
H1912 C1917 0.950 . S
H1913 C1918 0.949 . S
H1914 C1920 0.950 . S
H1915 C1921 0.950 . S
H1916 C1922 0.949 . S
C1917 H1912 0.950 . S
C1917 C1919 1.327 . S
C1917 C1923 1.429 . S
C1918 C1910 1.574 . S
C1918 H1913 0.949 . S
C1918 C1924 1.368 . S
C1919 C1903 1.349 . S
C1919 H1911 0.950 . S
C1919 C1917 1.327 . S
C1920 C1908 1.349 . S
C1920 H1914 0.950 . S
C1920 C1921 1.327 . S
C1921 H1915 0.950 . S
C1921 C1920 1.327 . S
C1921 C1925 1.429 . S
C1922 C1905 1.574 . S
C1922 H1916 0.949 . S
C1922 C1926 1.368 . S
C1923 C1904 1.429 . S
C1923 C1917 1.429 . S
C1923 C1924 1.523 . S
C1924 C1905 1.368 . S
C1924 C1918 1.368 . S
C1924 C1923 1.523 . S
C1925 C1909 1.429 . S
C1925 C1921 1.429 . S
C1925 C1926 1.523 . S
C1926 C1910 1.368 . S
C1926 C1922 1.368 . S
C1926 C1925 1.523 . S
H1927 C1902 0.950 . S
H1928 C1904 0.950 . S
H1929 C1905 0.949 . S
H1930 C1907 0.950 . S
H1931 C1909 0.950 . S
C1932 C1933 1.349 . S
C1932 C1934 1.327 . S
C1932 H1957 0.950 . S
C1933 C1932 1.349 . S
C1933 C1949 1.349 . S
C1934 C1932 1.327 . S
C1934 C1953 1.429 . S
C1934 H1958 0.950 . S
C1935 C1952 1.574 . S
C1935 C1954 1.368 . S
C1935 H1959 0.949 . S
H1936 C1940 0.949 . S
C1937 C1938 1.349 . S
C1937 C1939 1.327 . S
C1937 H1960 0.950 . S
C1938 C1937 1.349 . S
C1938 C1950 1.349 . S
C1939 C1937 1.327 . S
C1939 C1955 1.429 . S
C1939 H1961 0.950 . S
C1940 H1936 0.949 . S
C1940 C1948 1.574 . S
C1940 C1956 1.368 . S
H1941 C1949 0.950 . S
H1942 C1947 0.950 . S
H1943 C1948 0.949 . S
H1944 C1950 0.950 . S
H1945 C1951 0.950 . S
H1946 C1952 0.949 . S
C1947 H1942 0.950 . S
C1947 C1949 1.327 . S
C1947 C1953 1.429 . S
C1948 C1940 1.574 . S
C1948 H1943 0.949 . S
C1948 C1954 1.368 . S
C1949 C1933 1.349 . S
C1949 H1941 0.950 . S
C1949 C1947 1.327 . S
C1950 C1938 1.349 . S
C1950 H1944 0.950 . S
C1950 C1951 1.327 . S
C1951 H1945 0.950 . S
C1951 C1950 1.327 . S
C1951 C1955 1.429 . S
C1952 C1935 1.574 . S
C1952 H1946 0.949 . S
C1952 C1956 1.368 . S
C1953 C1934 1.429 . S
C1953 C1947 1.429 . S
C1953 C1954 1.523 . S
C1954 C1935 1.368 . S
C1954 C1948 1.368 . S
C1954 C1953 1.523 . S
C1955 C1939 1.429 . S
C1955 C1951 1.429 . S
C1955 C1956 1.523 . S
C1956 C1940 1.368 . S
C1956 C1952 1.368 . S
C1956 C1955 1.523 . S
H1957 C1932 0.950 . S
H1958 C1934 0.950 . S
H1959 C1935 0.949 . S
H1960 C1937 0.950 . S
H1961 C1939 0.950 . S
C1962 C1963 1.349 . S
C1962 C1964 1.327 . S
C1962 H1987 0.950 . S
C1963 C1962 1.349 . S
C1963 C1979 1.349 . S
C1964 C1962 1.327 . S
C1964 C1983 1.429 . S
C1964 H1988 0.950 . S
C1965 C1982 1.574 . S
C1965 C1984 1.368 . S
C1965 H1989 0.949 . S
H1966 C1970 0.949 . S
C1967 C1968 1.349 . S
C1967 C1969 1.327 . S
C1967 H1990 0.950 . S
C1968 C1967 1.349 . S
C1968 C1980 1.349 . S
C1969 C1967 1.327 . S
C1969 C1985 1.429 . S
C1969 H1991 0.950 . S
C1970 H1966 0.949 . S
C1970 C1978 1.574 . S
C1970 C1986 1.368 . S
H1971 C1979 0.950 . S
H1972 C1977 0.950 . S
H1973 C1978 0.949 . S
H1974 C1980 0.950 . S
H1975 C1981 0.950 . S
H1976 C1982 0.949 . S
C1977 H1972 0.950 . S
C1977 C1979 1.327 . S
C1977 C1983 1.429 . S
C1978 C1970 1.574 . S
C1978 H1973 0.949 . S
C1978 C1984 1.368 . S
C1979 C1963 1.349 . S
C1979 H1971 0.950 . S
C1979 C1977 1.327 . S
C1980 C1968 1.349 . S
C1980 H1974 0.950 . S
C1980 C1981 1.327 . S
C1981 H1975 0.950 . S
C1981 C1980 1.327 . S
C1981 C1985 1.429 . S
C1982 C1965 1.574 . S
C1982 H1976 0.949 . S
C1982 C1986 1.368 . S
C1983 C1964 1.429 . S
C1983 C1977 1.429 . S
C1983 C1984 1.523 . S
C1984 C1965 1.368 . S
C1984 C1978 1.368 . S
C1984 C1983 1.523 . S
C1985 C1969 1.429 . S
C1985 C1981 1.429 . S
C1985 C1986 1.523 . S
C1986 C1970 1.368 . S
C1986 C1982 1.368 . S
C1986 C1985 1.523 . S
H1987 C1962 0.950 . S
H1988 C1964 0.950 . S
H1989 C1965 0.949 . S
H1990 C1967 0.950 . S
H1991 C1969 0.950 . S
C1992 C1993 1.349 . S
C1992 C1994 1.327 . S
C1992 H2017 0.950 . S
C1993 C1992 1.349 . S
C1993 C2009 1.349 . S
C1994 C1992 1.327 . S
C1994 C2013 1.429 . S
C1994 H2018 0.950 . S
C1995 C2012 1.574 . S
C1995 C2014 1.368 . S
C1995 H2019 0.949 . S
H1996 C2000 0.949 . S
C1997 C1998 1.349 . S
C1997 C1999 1.327 . S
C1997 H2020 0.950 . S
C1998 C1997 1.349 . S
C1998 C2010 1.349 . S
C1999 C1997 1.327 . S
C1999 C2015 1.429 . S
C1999 H2021 0.950 . S
C2000 H1996 0.949 . S
C2000 C2008 1.574 . S
C2000 C2016 1.368 . S
H2001 C2009 0.950 . S
H2002 C2007 0.950 . S
H2003 C2008 0.949 . S
H2004 C2010 0.950 . S
H2005 C2011 0.950 . S
H2006 C2012 0.949 . S
C2007 H2002 0.950 . S
C2007 C2009 1.327 . S
C2007 C2013 1.429 . S
C2008 C2000 1.574 . S
C2008 H2003 0.949 . S
C2008 C2014 1.368 . S
C2009 C1993 1.349 . S
C2009 H2001 0.950 . S
C2009 C2007 1.327 . S
C2010 C1998 1.349 . S
C2010 H2004 0.950 . S
C2010 C2011 1.327 . S
C2011 H2005 0.950 . S
C2011 C2010 1.327 . S
C2011 C2015 1.429 . S
C2012 C1995 1.574 . S
C2012 H2006 0.949 . S
C2012 C2016 1.368 . S
C2013 C1994 1.429 . S
C2013 C2007 1.429 . S
C2013 C2014 1.523 . S
C2014 C1995 1.368 . S
C2014 C2008 1.368 . S
C2014 C2013 1.523 . S
C2015 C1999 1.429 . S
C2015 C2011 1.429 . S
C2015 C2016 1.523 . S
C2016 C2000 1.368 . S
C2016 C2012 1.368 . S
C2016 C2015 1.523 . S
H2017 C1992 0.950 . S
H2018 C1994 0.950 . S
H2019 C1995 0.949 . S
H2020 C1997 0.950 . S
H2021 C1999 0.950 . S
C2022 C2023 1.349 . S
C2022 C2024 1.327 . S
C2022 H2047 0.950 . S
C2023 C2022 1.349 . S
C2023 C2039 1.349 . S
C2024 C2022 1.327 . S
C2024 C2043 1.429 . S
C2024 H2048 0.950 . S
C2025 C2042 1.574 . S
C2025 C2044 1.368 . S
C2025 H2049 0.949 . S
H2026 C2030 0.949 . S
C2027 C2028 1.349 . S
C2027 C2029 1.327 . S
C2027 H2050 0.950 . S
C2028 C2027 1.349 . S
C2028 C2040 1.349 . S
C2029 C2027 1.327 . S
C2029 C2045 1.429 . S
C2029 H2051 0.950 . S
C2030 H2026 0.949 . S
C2030 C2038 1.574 . S
C2030 C2046 1.368 . S
H2031 C2039 0.950 . S
H2032 C2037 0.950 . S
H2033 C2038 0.949 . S
H2034 C2040 0.950 . S
H2035 C2041 0.950 . S
H2036 C2042 0.949 . S
C2037 H2032 0.950 . S
C2037 C2039 1.327 . S
C2037 C2043 1.429 . S
C2038 C2030 1.574 . S
C2038 H2033 0.949 . S
C2038 C2044 1.368 . S
C2039 C2023 1.349 . S
C2039 H2031 0.950 . S
C2039 C2037 1.327 . S
C2040 C2028 1.349 . S
C2040 H2034 0.950 . S
C2040 C2041 1.327 . S
C2041 H2035 0.950 . S
C2041 C2040 1.327 . S
C2041 C2045 1.429 . S
C2042 C2025 1.574 . S
C2042 H2036 0.949 . S
C2042 C2046 1.368 . S
C2043 C2024 1.429 . S
C2043 C2037 1.429 . S
C2043 C2044 1.523 . S
C2044 C2025 1.368 . S
C2044 C2038 1.368 . S
C2044 C2043 1.523 . S
C2045 C2029 1.429 . S
C2045 C2041 1.429 . S
C2045 C2046 1.523 . S
C2046 C2030 1.368 . S
C2046 C2042 1.368 . S
C2046 C2045 1.523 . S
H2047 C2022 0.950 . S
H2048 C2024 0.950 . S
H2049 C2025 0.949 . S
H2050 C2027 0.950 . S
H2051 C2029 0.950 . S
C2052 C2053 1.349 . S
C2052 C2054 1.327 . S
C2052 H2077 0.950 . S
C2053 C2052 1.349 . S
C2053 C2069 1.349 . S
C2054 C2052 1.327 . S
C2054 C2073 1.429 . S
C2054 H2078 0.950 . S
C2055 C2072 1.574 . S
C2055 C2074 1.368 . S
C2055 H2079 0.949 . S
H2056 C2060 0.949 . S
C2057 C2058 1.349 . S
C2057 C2059 1.327 . S
C2057 H2080 0.950 . S
C2058 C2057 1.349 . S
C2058 C2070 1.349 . S
C2059 C2057 1.327 . S
C2059 C2075 1.429 . S
C2059 H2081 0.950 . S
C2060 H2056 0.949 . S
C2060 C2068 1.574 . S
C2060 C2076 1.368 . S
H2061 C2069 0.950 . S
H2062 C2067 0.950 . S
H2063 C2068 0.949 . S
H2064 C2070 0.950 . S
H2065 C2071 0.950 . S
H2066 C2072 0.949 . S
C2067 H2062 0.950 . S
C2067 C2069 1.327 . S
C2067 C2073 1.429 . S
C2068 C2060 1.574 . S
C2068 H2063 0.949 . S
C2068 C2074 1.368 . S
C2069 C2053 1.349 . S
C2069 H2061 0.950 . S
C2069 C2067 1.327 . S
C2070 C2058 1.349 . S
C2070 H2064 0.950 . S
C2070 C2071 1.327 . S
C2071 H2065 0.950 . S
C2071 C2070 1.327 . S
C2071 C2075 1.429 . S
C2072 C2055 1.574 . S
C2072 H2066 0.949 . S
C2072 C2076 1.368 . S
C2073 C2054 1.429 . S
C2073 C2067 1.429 . S
C2073 C2074 1.523 . S
C2074 C2055 1.368 . S
C2074 C2068 1.368 . S
C2074 C2073 1.523 . S
C2075 C2059 1.429 . S
C2075 C2071 1.429 . S
C2075 C2076 1.523 . S
C2076 C2060 1.368 . S
C2076 C2072 1.368 . S
C2076 C2075 1.523 . S
H2077 C2052 0.950 . S
H2078 C2054 0.950 . S
H2079 C2055 0.949 . S
H2080 C2057 0.950 . S
H2081 C2059 0.950 . S
C2082 C2083 1.349 . S
C2082 C2084 1.327 . S
C2082 H2107 0.950 . S
C2083 C2082 1.349 . S
C2083 C2099 1.349 . S
C2084 C2082 1.327 . S
C2084 C2103 1.429 . S
C2084 H2108 0.950 . S
C2085 C2102 1.574 . S
C2085 C2104 1.368 . S
C2085 H2109 0.949 . S
H2086 C2090 0.949 . S
C2087 C2088 1.349 . S
C2087 C2089 1.327 . S
C2087 H2110 0.950 . S
C2088 C2087 1.349 . S
C2088 C2100 1.349 . S
C2089 C2087 1.327 . S
C2089 C2105 1.429 . S
C2089 H2111 0.950 . S
C2090 H2086 0.949 . S
C2090 C2098 1.574 . S
C2090 C2106 1.368 . S
H2091 C2099 0.950 . S
H2092 C2097 0.950 . S
H2093 C2098 0.949 . S
H2094 C2100 0.950 . S
H2095 C2101 0.950 . S
H2096 C2102 0.949 . S
C2097 H2092 0.950 . S
C2097 C2099 1.327 . S
C2097 C2103 1.429 . S
C2098 C2090 1.574 . S
C2098 H2093 0.949 . S
C2098 C2104 1.368 . S
C2099 C2083 1.349 . S
C2099 H2091 0.950 . S
C2099 C2097 1.327 . S
C2100 C2088 1.349 . S
C2100 H2094 0.950 . S
C2100 C2101 1.327 . S
C2101 H2095 0.950 . S
C2101 C2100 1.327 . S
C2101 C2105 1.429 . S
C2102 C2085 1.574 . S
C2102 H2096 0.949 . S
C2102 C2106 1.368 . S
C2103 C2084 1.429 . S
C2103 C2097 1.429 . S
C2103 C2104 1.523 . S
C2104 C2085 1.368 . S
C2104 C2098 1.368 . S
C2104 C2103 1.523 . S
C2105 C2089 1.429 . S
C2105 C2101 1.429 . S
C2105 C2106 1.523 . S
C2106 C2090 1.368 . S
C2106 C2102 1.368 . S
C2106 C2105 1.523 . S
H2107 C2082 0.950 . S
H2108 C2084 0.950 . S
H2109 C2085 0.949 . S
H2110 C2087 0.950 . S
H2111 C2089 0.950 . S
C2112 C2113 1.349 . S
C2112 C2114 1.327 . S
C2112 H2137 0.950 . S
C2113 C2112 1.349 . S
C2113 C2129 1.349 . S
C2114 C2112 1.327 . S
C2114 C2133 1.429 . S
C2114 H2138 0.950 . S
C2115 C2132 1.574 . S
C2115 C2134 1.368 . S
C2115 H2139 0.949 . S
H2116 C2120 0.949 . S
C2117 C2118 1.349 . S
C2117 C2119 1.327 . S
C2117 H2140 0.950 . S
C2118 C2117 1.349 . S
C2118 C2130 1.349 . S
C2119 C2117 1.327 . S
C2119 C2135 1.429 . S
C2119 H2141 0.950 . S
C2120 H2116 0.949 . S
C2120 C2128 1.574 . S
C2120 C2136 1.368 . S
H2121 C2129 0.950 . S
H2122 C2127 0.950 . S
H2123 C2128 0.949 . S
H2124 C2130 0.950 . S
H2125 C2131 0.950 . S
H2126 C2132 0.949 . S
C2127 H2122 0.950 . S
C2127 C2129 1.327 . S
C2127 C2133 1.429 . S
C2128 C2120 1.574 . S
C2128 H2123 0.949 . S
C2128 C2134 1.368 . S
C2129 C2113 1.349 . S
C2129 H2121 0.950 . S
C2129 C2127 1.327 . S
C2130 C2118 1.349 . S
C2130 H2124 0.950 . S
C2130 C2131 1.327 . S
C2131 H2125 0.950 . S
C2131 C2130 1.327 . S
C2131 C2135 1.429 . S
C2132 C2115 1.574 . S
C2132 H2126 0.949 . S
C2132 C2136 1.368 . S
C2133 C2114 1.429 . S
C2133 C2127 1.429 . S
C2133 C2134 1.523 . S
C2134 C2115 1.368 . S
C2134 C2128 1.368 . S
C2134 C2133 1.523 . S
C2135 C2119 1.429 . S
C2135 C2131 1.429 . S
C2135 C2136 1.523 . S
C2136 C2120 1.368 . S
C2136 C2132 1.368 . S
C2136 C2135 1.523 . S
H2137 C2112 0.950 . S
H2138 C2114 0.950 . S
H2139 C2115 0.949 . S
H2140 C2117 0.950 . S
H2141 C2119 0.950 . S
C2142 C2143 1.349 . S
C2142 C2144 1.327 . S
C2142 H2167 0.950 . S
C2143 C2142 1.349 . S
C2143 C2159 1.349 . S
C2144 C2142 1.327 . S
C2144 C2163 1.429 . S
C2144 H2168 0.950 . S
C2145 C2162 1.574 . S
C2145 C2164 1.368 . S
C2145 H2169 0.949 . S
H2146 C2150 0.949 . S
C2147 C2148 1.349 . S
C2147 C2149 1.327 . S
C2147 H2170 0.950 . S
C2148 C2147 1.349 . S
C2148 C2160 1.349 . S
C2149 C2147 1.327 . S
C2149 C2165 1.429 . S
C2149 H2171 0.950 . S
C2150 H2146 0.949 . S
C2150 C2158 1.574 . S
C2150 C2166 1.368 . S
H2151 C2159 0.950 . S
H2152 C2157 0.950 . S
H2153 C2158 0.949 . S
H2154 C2160 0.950 . S
H2155 C2161 0.950 . S
H2156 C2162 0.949 . S
C2157 H2152 0.950 . S
C2157 C2159 1.327 . S
C2157 C2163 1.429 . S
C2158 C2150 1.574 . S
C2158 H2153 0.949 . S
C2158 C2164 1.368 . S
C2159 C2143 1.349 . S
C2159 H2151 0.950 . S
C2159 C2157 1.327 . S
C2160 C2148 1.349 . S
C2160 H2154 0.950 . S
C2160 C2161 1.327 . S
C2161 H2155 0.950 . S
C2161 C2160 1.327 . S
C2161 C2165 1.429 . S
C2162 C2145 1.574 . S
C2162 H2156 0.949 . S
C2162 C2166 1.368 . S
C2163 C2144 1.429 . S
C2163 C2157 1.429 . S
C2163 C2164 1.523 . S
C2164 C2145 1.368 . S
C2164 C2158 1.368 . S
C2164 C2163 1.523 . S
C2165 C2149 1.429 . S
C2165 C2161 1.429 . S
C2165 C2166 1.523 . S
C2166 C2150 1.368 . S
C2166 C2162 1.368 . S
C2166 C2165 1.523 . S
H2167 C2142 0.950 . S
H2168 C2144 0.950 . S
H2169 C2145 0.949 . S
H2170 C2147 0.950 . S
H2171 C2149 0.950 . S
C2172 C2173 1.349 . S
C2172 C2174 1.327 . S
C2172 H2197 0.950 . S
C2173 C2172 1.349 . S
C2173 C2189 1.349 . S
C2174 C2172 1.327 . S
C2174 C2193 1.429 . S
C2174 H2198 0.950 . S
C2175 C2192 1.574 . S
C2175 C2194 1.368 . S
C2175 H2199 0.949 . S
H2176 C2180 0.949 . S
C2177 C2178 1.349 . S
C2177 C2179 1.327 . S
C2177 H2200 0.950 . S
C2178 C2177 1.349 . S
C2178 C2190 1.349 . S
C2179 C2177 1.327 . S
C2179 C2195 1.429 . S
C2179 H2201 0.950 . S
C2180 H2176 0.949 . S
C2180 C2188 1.574 . S
C2180 C2196 1.368 . S
H2181 C2189 0.950 . S
H2182 C2187 0.950 . S
H2183 C2188 0.949 . S
H2184 C2190 0.950 . S
H2185 C2191 0.950 . S
H2186 C2192 0.949 . S
C2187 H2182 0.950 . S
C2187 C2189 1.327 . S
C2187 C2193 1.429 . S
C2188 C2180 1.574 . S
C2188 H2183 0.949 . S
C2188 C2194 1.368 . S
C2189 C2173 1.349 . S
C2189 H2181 0.950 . S
C2189 C2187 1.327 . S
C2190 C2178 1.349 . S
C2190 H2184 0.950 . S
C2190 C2191 1.327 . S
C2191 H2185 0.950 . S
C2191 C2190 1.327 . S
C2191 C2195 1.429 . S
C2192 C2175 1.574 . S
C2192 H2186 0.949 . S
C2192 C2196 1.368 . S
C2193 C2174 1.429 . S
C2193 C2187 1.429 . S
C2193 C2194 1.523 . S
C2194 C2175 1.368 . S
C2194 C2188 1.368 . S
C2194 C2193 1.523 . S
C2195 C2179 1.429 . S
C2195 C2191 1.429 . S
C2195 C2196 1.523 . S
C2196 C2180 1.368 . S
C2196 C2192 1.368 . S
C2196 C2195 1.523 . S
H2197 C2172 0.950 . S
H2198 C2174 0.950 . S
H2199 C2175 0.949 . S
H2200 C2177 0.950 . S
H2201 C2179 0.950 . S
C2202 C2203 1.349 . S
C2202 C2204 1.327 . S
C2202 H2227 0.950 . S
C2203 C2202 1.349 . S
C2203 C2219 1.349 . S
C2204 C2202 1.327 . S
C2204 C2223 1.429 . S
C2204 H2228 0.950 . S
C2205 C2222 1.574 . S
C2205 C2224 1.368 . S
C2205 H2229 0.949 . S
H2206 C2210 0.949 . S
C2207 C2208 1.349 . S
C2207 C2209 1.327 . S
C2207 H2230 0.950 . S
C2208 C2207 1.349 . S
C2208 C2220 1.349 . S
C2209 C2207 1.327 . S
C2209 C2225 1.429 . S
C2209 H2231 0.950 . S
C2210 H2206 0.949 . S
C2210 C2218 1.574 . S
C2210 C2226 1.368 . S
H2211 C2219 0.950 . S
H2212 C2217 0.950 . S
H2213 C2218 0.949 . S
H2214 C2220 0.950 . S
H2215 C2221 0.950 . S
H2216 C2222 0.949 . S
C2217 H2212 0.950 . S
C2217 C2219 1.327 . S
C2217 C2223 1.429 . S
C2218 C2210 1.574 . S
C2218 H2213 0.949 . S
C2218 C2224 1.368 . S
C2219 C2203 1.349 . S
C2219 H2211 0.950 . S
C2219 C2217 1.327 . S
C2220 C2208 1.349 . S
C2220 H2214 0.950 . S
C2220 C2221 1.327 . S
C2221 H2215 0.950 . S
C2221 C2220 1.327 . S
C2221 C2225 1.429 . S
C2222 C2205 1.574 . S
C2222 H2216 0.949 . S
C2222 C2226 1.368 . S
C2223 C2204 1.429 . S
C2223 C2217 1.429 . S
C2223 C2224 1.523 . S
C2224 C2205 1.368 . S
C2224 C2218 1.368 . S
C2224 C2223 1.523 . S
C2225 C2209 1.429 . S
C2225 C2221 1.429 . S
C2225 C2226 1.523 . S
C2226 C2210 1.368 . S
C2226 C2222 1.368 . S
C2226 C2225 1.523 . S
H2227 C2202 0.950 . S
H2228 C2204 0.950 . S
H2229 C2205 0.949 . S
H2230 C2207 0.950 . S
H2231 C2209 0.950 . S
C2232 C2233 1.349 . S
C2232 C2234 1.327 . S
C2232 H2257 0.950 . S
C2233 C2232 1.349 . S
C2233 C2249 1.349 . S
C2234 C2232 1.327 . S
C2234 C2253 1.429 . S
C2234 H2258 0.950 . S
C2235 C2252 1.574 1_655 S
C2235 C2254 1.368 . S
C2235 H2259 0.949 . S
H2236 C2240 0.949 . S
C2237 C2238 1.349 . S
C2237 C2239 1.327 . S
C2237 H2260 0.950 . S
C2238 C2237 1.349 . S
C2238 C2250 1.349 . S
C2239 C2237 1.327 . S
C2239 C2255 1.429 . S
C2239 H2261 0.950 . S
C2240 H2236 0.949 . S
C2240 C2248 1.574 1_455 S
C2240 C2256 1.368 . S
H2241 C2249 0.950 . S
H2242 C2247 0.950 . S
H2243 C2248 0.949 . S
H2244 C2250 0.950 . S
H2245 C2251 0.950 . S
H2246 C2252 0.949 . S
C2247 H2242 0.950 . S
C2247 C2249 1.327 . S
C2247 C2253 1.429 . S
C2248 C2240 1.574 1_655 S
C2248 H2243 0.949 . S
C2248 C2254 1.368 . S
C2249 C2233 1.349 . S
C2249 H2241 0.950 . S
C2249 C2247 1.327 . S
C2250 C2238 1.349 . S
C2250 H2244 0.950 . S
C2250 C2251 1.327 . S
C2251 H2245 0.950 . S
C2251 C2250 1.327 . S
C2251 C2255 1.429 . S
C2252 C2235 1.574 1_455 S
C2252 H2246 0.949 . S
C2252 C2256 1.368 . S
C2253 C2234 1.429 . S
C2253 C2247 1.429 . S
C2253 C2254 1.523 . S
C2254 C2235 1.368 . S
C2254 C2248 1.368 . S
C2254 C2253 1.523 . S
C2255 C2239 1.429 . S
C2255 C2251 1.429 . S
C2255 C2256 1.523 . S
C2256 C2240 1.368 . S
C2256 C2252 1.368 . S
C2256 C2255 1.523 . S
H2257 C2232 0.950 . S
H2258 C2234 0.950 . S
H2259 C2235 0.949 . S
H2260 C2237 0.950 . S
H2261 C2239 0.950 . S
C2262 C2263 1.349 . S
C2262 C2264 1.327 . S
C2262 H2287 0.950 . S
C2263 C2262 1.349 . S
C2263 C2279 1.349 . S
C2264 C2262 1.327 . S
C2264 C2283 1.429 . S
C2264 H2288 0.950 . S
C2265 C2282 1.574 . S
C2265 C2284 1.368 . S
C2265 H2289 0.949 . S
H2266 C2270 0.949 . S
C2267 C2268 1.349 . S
C2267 C2269 1.327 . S
C2267 H2290 0.950 . S
C2268 C2267 1.349 . S
C2268 C2280 1.349 . S
C2269 C2267 1.327 . S
C2269 C2285 1.429 . S
C2269 H2291 0.950 . S
C2270 H2266 0.949 . S
C2270 C2278 1.574 . S
C2270 C2286 1.368 . S
H2271 C2279 0.950 . S
H2272 C2277 0.950 . S
H2273 C2278 0.949 . S
H2274 C2280 0.950 . S
H2275 C2281 0.950 . S
H2276 C2282 0.949 . S
C2277 H2272 0.950 . S
C2277 C2279 1.327 . S
C2277 C2283 1.429 . S
C2278 C2270 1.574 . S
C2278 H2273 0.949 . S
C2278 C2284 1.368 . S
C2279 C2263 1.349 . S
C2279 H2271 0.950 . S
C2279 C2277 1.327 . S
C2280 C2268 1.349 . S
C2280 H2274 0.950 . S
C2280 C2281 1.327 . S
C2281 H2275 0.950 . S
C2281 C2280 1.327 . S
C2281 C2285 1.429 . S
C2282 C2265 1.574 . S
C2282 H2276 0.949 . S
C2282 C2286 1.368 . S
C2283 C2264 1.429 . S
C2283 C2277 1.429 . S
C2283 C2284 1.523 . S
C2284 C2265 1.368 . S
C2284 C2278 1.368 . S
C2284 C2283 1.523 . S
C2285 C2269 1.429 . S
C2285 C2281 1.429 . S
C2285 C2286 1.523 . S
C2286 C2270 1.368 . S
C2286 C2282 1.368 . S
C2286 C2285 1.523 . S
H2287 C2262 0.950 . S
H2288 C2264 0.950 . S
H2289 C2265 0.949 . S
H2290 C2267 0.950 . S
H2291 C2269 0.950 . S
C2292 C2293 1.349 . S
C2292 C2294 1.327 . S
C2292 H2317 0.950 . S
C2293 C2292 1.349 . S
C2293 C2309 1.349 . S
C2294 C2292 1.327 . S
C2294 C2313 1.429 . S
C2294 H2318 0.950 . S
C2295 C2312 1.574 . S
C2295 C2314 1.368 . S
C2295 H2319 0.949 . S
H2296 C2300 0.949 . S
C2297 C2298 1.349 . S
C2297 C2299 1.327 . S
C2297 H2320 0.950 . S
C2298 C2297 1.349 . S
C2298 C2310 1.349 . S
C2299 C2297 1.327 . S
C2299 C2315 1.429 . S
C2299 H2321 0.950 . S
C2300 H2296 0.949 . S
C2300 C2308 1.574 . S
C2300 C2316 1.368 . S
H2301 C2309 0.950 . S
H2302 C2307 0.950 . S
H2303 C2308 0.949 . S
H2304 C2310 0.950 . S
H2305 C2311 0.950 . S
H2306 C2312 0.949 . S
C2307 H2302 0.950 . S
C2307 C2309 1.327 . S
C2307 C2313 1.429 . S
C2308 C2300 1.574 . S
C2308 H2303 0.949 . S
C2308 C2314 1.368 1_565 S
C2309 C2293 1.349 . S
C2309 H2301 0.950 . S
C2309 C2307 1.327 . S
C2310 C2298 1.349 . S
C2310 H2304 0.950 . S
C2310 C2311 1.327 . S
C2311 H2305 0.950 . S
C2311 C2310 1.327 . S
C2311 C2315 1.429 . S
C2312 C2295 1.574 . S
C2312 H2306 0.949 . S
C2312 C2316 1.368 1_545 S
C2313 C2294 1.429 . S
C2313 C2307 1.429 . S
C2313 C2314 1.523 . S
C2314 C2295 1.368 . S
C2314 C2308 1.368 1_545 S
C2314 C2313 1.523 . S
C2315 C2299 1.429 . S
C2315 C2311 1.429 . S
C2315 C2316 1.523 . S
C2316 C2300 1.368 . S
C2316 C2312 1.368 1_565 S
C2316 C2315 1.523 . S
H2317 C2292 0.950 . S
H2318 C2294 0.950 . S
H2319 C2295 0.949 . S
H2320 C2297 0.950 . S
H2321 C2299 0.950 . S
C2322 C2323 1.349 . S
C2322 C2324 1.327 . S
C2322 H2347 0.950 . S
C2323 C2322 1.349 . S
C2323 C2339 1.349 . S
C2324 C2322 1.327 . S
C2324 C2343 1.429 . S
C2324 H2348 0.950 1_556 S
C2325 C2342 1.574 1_545 S
C2325 C2344 1.368 . S
C2325 H2349 0.949 . S
H2326 C2330 0.949 . S
C2327 C2328 1.349 . S
C2327 C2329 1.327 . S
C2327 H2350 0.950 . S
C2328 C2327 1.349 . S
C2328 C2340 1.349 . S
C2329 C2327 1.327 . S
C2329 C2345 1.429 . S
C2329 H2351 0.950 1_554 S
C2330 H2326 0.949 . S
C2330 C2338 1.574 1_565 S
C2330 C2346 1.368 . S
H2331 C2339 0.950 . S
H2332 C2337 0.950 . S
H2333 C2338 0.949 . S
H2334 C2340 0.950 . S
H2335 C2341 0.950 . S
H2336 C2342 0.949 . S
C2337 H2332 0.950 . S
C2337 C2339 1.327 . S
C2337 C2343 1.429 . S
C2338 C2330 1.574 1_545 S
C2338 H2333 0.949 . S
C2338 C2344 1.368 1_554 S
C2339 C2323 1.349 . S
C2339 H2331 0.950 . S
C2339 C2337 1.327 . S
C2340 C2328 1.349 . S
C2340 H2334 0.950 . S
C2340 C2341 1.327 . S
C2341 H2335 0.950 . S
C2341 C2340 1.327 . S
C2341 C2345 1.429 . S
C2342 C2325 1.574 1_565 S
C2342 H2336 0.949 . S
C2342 C2346 1.368 1_556 S
C2343 C2324 1.429 . S
C2343 C2337 1.429 . S
C2343 C2344 1.523 . S
C2344 C2325 1.368 . S
C2344 C2338 1.368 1_556 S
C2344 C2343 1.523 . S
C2345 C2329 1.429 . S
C2345 C2341 1.429 . S
C2345 C2346 1.523 . S
C2346 C2330 1.368 . S
C2346 C2342 1.368 1_554 S
C2346 C2345 1.523 . S
H2347 C2322 0.950 . S
H2348 C2324 0.950 1_554 S
H2349 C2325 0.949 . S
H2350 C2327 0.950 . S
H2351 C2329 0.950 1_556 S
C2352 C2353 1.349 . S
C2352 C2354 1.327 . S
C2352 H2377 0.950 . S
C2353 C2352 1.349 . S
C2353 C2369 1.349 . S
C2354 C2352 1.327 . S
C2354 C2373 1.429 . S
C2354 H2378 0.950 . S
C2355 C2372 1.574 . S
C2355 C2374 1.368 1_556 S
C2355 H2379 0.949 . S
H2356 C2360 0.949 . S
C2357 C2358 1.349 . S
C2357 C2359 1.327 . S
C2357 H2380 0.950 . S
C2358 C2357 1.349 . S
C2358 C2370 1.349 . S
C2359 C2357 1.327 . S
C2359 C2375 1.429 . S
C2359 H2381 0.950 . S
C2360 H2356 0.949 . S
C2360 C2368 1.574 . S
C2360 C2376 1.368 1_554 S
H2361 C2369 0.950 . S
H2362 C2367 0.950 . S
H2363 C2368 0.949 . S
H2364 C2370 0.950 . S
H2365 C2371 0.950 . S
H2366 C2372 0.949 . S
C2367 H2362 0.950 . S
C2367 C2369 1.327 . S
C2367 C2373 1.429 . S
C2368 C2360 1.574 . S
C2368 H2363 0.949 . S
C2368 C2374 1.368 1_655 S
C2369 C2353 1.349 . S
C2369 H2361 0.950 . S
C2369 C2367 1.327 . S
C2370 C2358 1.349 . S
C2370 H2364 0.950 . S
C2370 C2371 1.327 . S
C2371 H2365 0.950 . S
C2371 C2370 1.327 . S
C2371 C2375 1.429 . S
C2372 C2355 1.574 . S
C2372 H2366 0.949 . S
C2372 C2376 1.368 1_455 S
C2373 C2354 1.429 . S
C2373 C2367 1.429 . S
C2373 C2374 1.523 . S
C2374 C2355 1.368 1_554 S
C2374 C2368 1.368 1_455 S
C2374 C2373 1.523 . S
C2375 C2359 1.429 . S
C2375 C2371 1.429 . S
C2375 C2376 1.523 . S
C2376 C2360 1.368 1_556 S
C2376 C2372 1.368 1_655 S
C2376 C2375 1.523 . S
H2377 C2352 0.950 . S
H2378 C2354 0.950 . S
H2379 C2355 0.949 . S
H2380 C2357 0.950 . S
H2381 C2359 0.950 . S
C2382 C2383 1.349 . S
C2382 C2384 1.327 . S
C2382 H2407 0.950 . S
C2383 C2382 1.349 . S
C2383 C2399 1.349 . S
C2384 C2382 1.327 . S
C2384 C2403 1.429 . S
C2384 H2408 0.950 . S
C2385 C2402 1.574 . S
C2385 C2404 1.368 . S
C2385 H2409 0.949 . S
H2386 C2390 0.949 . S
C2387 C2388 1.349 . S
C2387 C2389 1.327 . S
C2387 H2410 0.950 . S
C2388 C2387 1.349 . S
C2388 C2400 1.349 . S
C2389 C2387 1.327 . S
C2389 C2405 1.429 . S
C2389 H2411 0.950 . S
C2390 H2386 0.949 . S
C2390 C2398 1.574 . S
C2390 C2406 1.368 . S
H2391 C2399 0.950 . S
H2392 C2397 0.950 . S
H2393 C2398 0.949 . S
H2394 C2400 0.950 . S
H2395 C2401 0.950 . S
H2396 C2402 0.949 . S
C2397 H2392 0.950 . S
C2397 C2399 1.327 . S
C2397 C2403 1.429 . S
C2398 C2390 1.574 . S
C2398 H2393 0.949 . S
C2398 C2404 1.368 1_554 S
C2399 C2383 1.349 . S
C2399 H2391 0.950 . S
C2399 C2397 1.327 . S
C2400 C2388 1.349 . S
C2400 H2394 0.950 . S
C2400 C2401 1.327 . S
C2401 H2395 0.950 . S
C2401 C2400 1.327 . S
C2401 C2405 1.429 . S
C2402 C2385 1.574 . S
C2402 H2396 0.949 . S
C2402 C2406 1.368 1_556 S
C2403 C2384 1.429 . S
C2403 C2397 1.429 . S
C2403 C2404 1.523 . S
C2404 C2385 1.368 . S
C2404 C2398 1.368 1_556 S
C2404 C2403 1.523 . S
C2405 C2389 1.429 . S
C2405 C2401 1.429 . S
C2405 C2406 1.523 . S
C2406 C2390 1.368 . S
C2406 C2402 1.368 1_554 S
C2406 C2405 1.523 . S
H2407 C2382 0.950 . S
H2408 C2384 0.950 . S
H2409 C2385 0.949 . S
H2410 C2387 0.950 . S
H2411 C2389 0.950 . S
C2412 C2413 1.349 . S
C2412 C2414 1.327 . S
C2412 H2437 0.950 . S
C2413 C2412 1.349 . S
C2413 C2429 1.349 . S
C2414 C2412 1.327 . S
C2414 C2433 1.429 . S
C2414 H2438 0.950 . S
C2415 C2432 1.574 . S
C2415 C2434 1.368 . S
C2415 H2439 0.949 . S
H2416 C2420 0.949 . S
C2417 C2418 1.349 . S
C2417 C2419 1.327 . S
C2417 H2440 0.950 . S
C2418 C2417 1.349 . S
C2418 C2430 1.349 . S
C2419 C2417 1.327 . S
C2419 C2435 1.429 . S
C2419 H2441 0.950 . S
C2420 H2416 0.949 . S
C2420 C2428 1.574 . S
C2420 C2436 1.368 . S
H2421 C2429 0.950 . S
H2422 C2427 0.950 . S
H2423 C2428 0.949 . S
H2424 C2430 0.950 . S
H2425 C2431 0.950 . S
H2426 C2432 0.949 . S
C2427 H2422 0.950 . S
C2427 C2429 1.327 . S
C2427 C2433 1.429 . S
C2428 C2420 1.574 . S
C2428 H2423 0.949 . S
C2428 C2434 1.368 . S
C2429 C2413 1.349 . S
C2429 H2421 0.950 . S
C2429 C2427 1.327 . S
C2430 C2418 1.349 . S
C2430 H2424 0.950 . S
C2430 C2431 1.327 . S
C2431 H2425 0.950 . S
C2431 C2430 1.327 . S
C2431 C2435 1.429 . S
C2432 C2415 1.574 . S
C2432 H2426 0.949 . S
C2432 C2436 1.368 . S
C2433 C2414 1.429 . S
C2433 C2427 1.429 . S
C2433 C2434 1.523 . S
C2434 C2415 1.368 . S
C2434 C2428 1.368 . S
C2434 C2433 1.523 . S
C2435 C2419 1.429 . S
C2435 C2431 1.429 . S
C2435 C2436 1.523 . S
C2436 C2420 1.368 . S
C2436 C2432 1.368 . S
C2436 C2435 1.523 . S
H2437 C2412 0.950 . S
H2438 C2414 0.950 . S
H2439 C2415 0.949 . S
H2440 C2417 0.950 . S
H2441 C2419 0.950 . S
C2442 C2443 1.349 . S
C2442 C2444 1.327 . S
C2442 H2467 0.950 . S
C2443 C2442 1.349 . S
C2443 C2459 1.349 . S
C2444 C2442 1.327 . S
C2444 C2463 1.429 . S
C2444 H2468 0.950 . S
C2445 C2462 1.574 . S
C2445 C2464 1.368 . S
C2445 H2469 0.949 . S
H2446 C2450 0.949 . S
C2447 C2448 1.349 . S
C2447 C2449 1.327 . S
C2447 H2470 0.950 1_565 S
C2448 C2447 1.349 . S
C2448 C2460 1.349 . S
C2449 C2447 1.327 . S
C2449 C2465 1.429 . S
C2449 H2471 0.950 . S
C2450 H2446 0.949 . S
C2450 C2458 1.574 . S
C2450 C2466 1.368 . S
H2451 C2459 0.950 . S
H2452 C2457 0.950 . S
H2453 C2458 0.949 . S
H2454 C2460 0.950 . S
H2455 C2461 0.950 . S
H2456 C2462 0.949 . S
C2457 H2452 0.950 . S
C2457 C2459 1.327 . S
C2457 C2463 1.429 . S
C2458 C2450 1.574 . S
C2458 H2453 0.949 . S
C2458 C2464 1.368 . S
C2459 C2443 1.349 . S
C2459 H2451 0.950 . S
C2459 C2457 1.327 . S
C2460 C2448 1.349 . S
C2460 H2454 0.950 . S
C2460 C2461 1.327 . S
C2461 H2455 0.950 . S
C2461 C2460 1.327 . S
C2461 C2465 1.429 . S
C2462 C2445 1.574 . S
C2462 H2456 0.949 . S
C2462 C2466 1.368 . S
C2463 C2444 1.429 . S
C2463 C2457 1.429 . S
C2463 C2464 1.523 . S
C2464 C2445 1.368 . S
C2464 C2458 1.368 . S
C2464 C2463 1.523 . S
C2465 C2449 1.429 . S
C2465 C2461 1.429 . S
C2465 C2466 1.523 . S
C2466 C2450 1.368 . S
C2466 C2462 1.368 . S
C2466 C2465 1.523 . S
H2467 C2442 0.950 . S
H2468 C2444 0.950 . S
H2469 C2445 0.949 . S
H2470 C2447 0.950 1_545 S
H2471 C2449 0.950 . S
C2472 C2473 1.349 . S
C2472 C2474 1.327 . S
C2472 H2497 0.950 . S
C2473 C2472 1.349 . S
C2473 C2489 1.349 . S
C2474 C2472 1.327 . S
C2474 C2493 1.429 . S
C2474 H2498 0.950 . S
C2475 C2492 1.574 . S
C2475 C2494 1.368 . S
C2475 H2499 0.949 . S
H2476 C2480 0.949 . S
C2477 C2478 1.349 . S
C2477 C2479 1.327 . S
C2477 H2500 0.950 . S
C2478 C2477 1.349 . S
C2478 C2490 1.349 . S
C2479 C2477 1.327 . S
C2479 C2495 1.429 . S
C2479 H2501 0.950 . S
C2480 H2476 0.949 . S
C2480 C2488 1.574 . S
C2480 C2496 1.368 . S
H2481 C2489 0.950 . S
H2482 C2487 0.950 . S
H2483 C2488 0.949 . S
H2484 C2490 0.950 . S
H2485 C2491 0.950 . S
H2486 C2492 0.949 . S
C2487 H2482 0.950 . S
C2487 C2489 1.327 . S
C2487 C2493 1.429 . S
C2488 C2480 1.574 . S
C2488 H2483 0.949 . S
C2488 C2494 1.368 . S
C2489 C2473 1.349 . S
C2489 H2481 0.950 . S
C2489 C2487 1.327 . S
C2490 C2478 1.349 . S
C2490 H2484 0.950 . S
C2490 C2491 1.327 . S
C2491 H2485 0.950 . S
C2491 C2490 1.327 . S
C2491 C2495 1.429 . S
C2492 C2475 1.574 . S
C2492 H2486 0.949 . S
C2492 C2496 1.368 . S
C2493 C2474 1.429 . S
C2493 C2487 1.429 . S
C2493 C2494 1.523 . S
C2494 C2475 1.368 . S
C2494 C2488 1.368 . S
C2494 C2493 1.523 . S
C2495 C2479 1.429 . S
C2495 C2491 1.429 . S
C2495 C2496 1.523 . S
C2496 C2480 1.368 . S
C2496 C2492 1.368 . S
C2496 C2495 1.523 . S
H2497 C2472 0.950 . S
H2498 C2474 0.950 . S
H2499 C2475 0.949 . S
H2500 C2477 0.950 . S
H2501 C2479 0.950 . S
C2502 C2503 1.349 . S
C2502 C2504 1.327 . S
C2502 H2527 0.950 . S
C2503 C2502 1.349 . S
C2503 C2519 1.349 . S
C2504 C2502 1.327 . S
C2504 C2523 1.429 . S
C2504 H2528 0.950 . S
C2505 C2522 1.574 . S
C2505 C2524 1.368 . S
C2505 H2529 0.949 . S
H2506 C2510 0.949 . S
C2507 C2508 1.349 . S
C2507 C2509 1.327 . S
C2507 H2530 0.950 . S
C2508 C2507 1.349 . S
C2508 C2520 1.349 . S
C2509 C2507 1.327 . S
C2509 C2525 1.429 . S
C2509 H2531 0.950 . S
C2510 H2506 0.949 . S
C2510 C2518 1.574 . S
C2510 C2526 1.368 . S
H2511 C2519 0.950 . S
H2512 C2517 0.950 . S
H2513 C2518 0.949 . S
H2514 C2520 0.950 . S
H2515 C2521 0.950 . S
H2516 C2522 0.949 . S
C2517 H2512 0.950 . S
C2517 C2519 1.327 . S
C2517 C2523 1.429 . S
C2518 C2510 1.574 . S
C2518 H2513 0.949 . S
C2518 C2524 1.368 . S
C2519 C2503 1.349 . S
C2519 H2511 0.950 . S
C2519 C2517 1.327 . S
C2520 C2508 1.349 . S
C2520 H2514 0.950 . S
C2520 C2521 1.327 . S
C2521 H2515 0.950 . S
C2521 C2520 1.327 . S
C2521 C2525 1.429 . S
C2522 C2505 1.574 . S
C2522 H2516 0.949 . S
C2522 C2526 1.368 . S
C2523 C2504 1.429 . S
C2523 C2517 1.429 . S
C2523 C2524 1.523 . S
C2524 C2505 1.368 . S
C2524 C2518 1.368 . S
C2524 C2523 1.523 . S
C2525 C2509 1.429 . S
C2525 C2521 1.429 . S
C2525 C2526 1.523 . S
C2526 C2510 1.368 . S
C2526 C2522 1.368 . S
C2526 C2525 1.523 . S
H2527 C2502 0.950 . S
H2528 C2504 0.950 . S
H2529 C2505 0.949 . S
H2530 C2507 0.950 . S
H2531 C2509 0.950 . S
C2532 C2533 1.349 . S
C2532 C2534 1.327 . S
C2532 H2557 0.950 . S
C2533 C2532 1.349 . S
C2533 C2549 1.349 . S
C2534 C2532 1.327 . S
C2534 C2553 1.429 . S
C2534 H2558 0.950 . S
C2535 C2552 1.574 . S
C2535 C2554 1.368 . S
C2535 H2559 0.949 . S
H2536 C2540 0.949 . S
C2537 C2538 1.349 . S
C2537 C2539 1.327 . S
C2537 H2560 0.950 . S
C2538 C2537 1.349 . S
C2538 C2550 1.349 . S
C2539 C2537 1.327 . S
C2539 C2555 1.429 . S
C2539 H2561 0.950 . S
C2540 H2536 0.949 . S
C2540 C2548 1.574 . S
C2540 C2556 1.368 . S
H2541 C2549 0.950 . S
H2542 C2547 0.950 . S
H2543 C2548 0.949 . S
H2544 C2550 0.950 . S
H2545 C2551 0.950 . S
H2546 C2552 0.949 . S
C2547 H2542 0.950 . S
C2547 C2549 1.327 . S
C2547 C2553 1.429 . S
C2548 C2540 1.574 . S
C2548 H2543 0.949 . S
C2548 C2554 1.368 . S
C2549 C2533 1.349 . S
C2549 H2541 0.950 . S
C2549 C2547 1.327 . S
C2550 C2538 1.349 . S
C2550 H2544 0.950 . S
C2550 C2551 1.327 . S
C2551 H2545 0.950 . S
C2551 C2550 1.327 . S
C2551 C2555 1.429 . S
C2552 C2535 1.574 . S
C2552 H2546 0.949 . S
C2552 C2556 1.368 . S
C2553 C2534 1.429 . S
C2553 C2547 1.429 . S
C2553 C2554 1.523 . S
C2554 C2535 1.368 . S
C2554 C2548 1.368 . S
C2554 C2553 1.523 . S
C2555 C2539 1.429 . S
C2555 C2551 1.429 . S
C2555 C2556 1.523 . S
C2556 C2540 1.368 . S
C2556 C2552 1.368 . S
C2556 C2555 1.523 . S
H2557 C2532 0.950 . S
H2558 C2534 0.950 . S
H2559 C2535 0.949 . S
H2560 C2537 0.950 . S
H2561 C2539 0.950 . S
C2562 C2563 1.349 . S
C2562 C2564 1.327 . S
C2562 H2587 0.950 . S
C2563 C2562 1.349 . S
C2563 C2579 1.349 . S
C2564 C2562 1.327 . S
C2564 C2583 1.429 . S
C2564 H2588 0.950 . S
C2565 C2582 1.574 . S
C2565 C2584 1.368 . S
C2565 H2589 0.949 . S
H2566 C2570 0.949 . S
C2567 C2568 1.349 . S
C2567 C2569 1.327 . S
C2567 H2590 0.950 . S
C2568 C2567 1.349 . S
C2568 C2580 1.349 . S
C2569 C2567 1.327 . S
C2569 C2585 1.429 . S
C2569 H2591 0.950 . S
C2570 H2566 0.949 . S
C2570 C2578 1.574 . S
C2570 C2586 1.368 . S
H2571 C2579 0.950 . S
H2572 C2577 0.950 . S
H2573 C2578 0.949 . S
H2574 C2580 0.950 1_455 S
H2575 C2581 0.950 . S
H2576 C2582 0.949 . S
C2577 H2572 0.950 . S
C2577 C2579 1.327 . S
C2577 C2583 1.429 . S
C2578 C2570 1.574 . S
C2578 H2573 0.949 . S
C2578 C2584 1.368 . S
C2579 C2563 1.349 . S
C2579 H2571 0.950 . S
C2579 C2577 1.327 . S
C2580 C2568 1.349 . S
C2580 H2574 0.950 1_655 S
C2580 C2581 1.327 . S
C2581 H2575 0.950 . S
C2581 C2580 1.327 . S
C2581 C2585 1.429 . S
C2582 C2565 1.574 . S
C2582 H2576 0.949 . S
C2582 C2586 1.368 . S
C2583 C2564 1.429 . S
C2583 C2577 1.429 . S
C2583 C2584 1.523 . S
C2584 C2565 1.368 . S
C2584 C2578 1.368 . S
C2584 C2583 1.523 . S
C2585 C2569 1.429 . S
C2585 C2581 1.429 . S
C2585 C2586 1.523 . S
C2586 C2570 1.368 . S
C2586 C2582 1.368 . S
C2586 C2585 1.523 . S
H2587 C2562 0.950 . S
H2588 C2564 0.950 . S
H2589 C2565 0.949 . S
H2590 C2567 0.950 . S
H2591 C2569 0.950 . S
C2592 C2593 1.349 . S
C2592 C2594 1.327 . S
C2592 H2617 0.950 . S
C2593 C2592 1.349 . S
C2593 C2609 1.349 . S
C2594 C2592 1.327 . S
C2594 C2613 1.429 . S
C2594 H2618 0.950 . S
C2595 C2612 1.574 . S
C2595 C2614 1.368 . S
C2595 H2619 0.949 . S
H2596 C2600 0.949 . S
C2597 C2598 1.349 . S
C2597 C2599 1.327 . S
C2597 H2620 0.950 . S
C2598 C2597 1.349 . S
C2598 C2610 1.349 . S
C2599 C2597 1.327 . S
C2599 C2615 1.429 . S
C2599 H2621 0.950 . S
C2600 H2596 0.949 . S
C2600 C2608 1.574 . S
C2600 C2616 1.368 . S
H2601 C2609 0.950 . S
H2602 C2607 0.950 . S
H2603 C2608 0.949 . S
H2604 C2610 0.950 . S
H2605 C2611 0.950 . S
H2606 C2612 0.949 . S
C2607 H2602 0.950 . S
C2607 C2609 1.327 . S
C2607 C2613 1.429 . S
C2608 C2600 1.574 . S
C2608 H2603 0.949 . S
C2608 C2614 1.368 . S
C2609 C2593 1.349 . S
C2609 H2601 0.950 . S
C2609 C2607 1.327 . S
C2610 C2598 1.349 . S
C2610 H2604 0.950 . S
C2610 C2611 1.327 . S
C2611 H2605 0.950 . S
C2611 C2610 1.327 . S
C2611 C2615 1.429 . S
C2612 C2595 1.574 . S
C2612 H2606 0.949 . S
C2612 C2616 1.368 . S
C2613 C2594 1.429 . S
C2613 C2607 1.429 . S
C2613 C2614 1.523 . S
C2614 C2595 1.368 . S
C2614 C2608 1.368 . S
C2614 C2613 1.523 . S
C2615 C2599 1.429 . S
C2615 C2611 1.429 . S
C2615 C2616 1.523 . S
C2616 C2600 1.368 . S
C2616 C2612 1.368 . S
C2616 C2615 1.523 . S
H2617 C2592 0.950 . S
H2618 C2594 0.950 . S
H2619 C2595 0.949 . S
H2620 C2597 0.950 . S
H2621 C2599 0.950 . S
C2622 C2623 1.349 . S
C2622 C2624 1.327 . S
C2622 H2647 0.950 . S
C2623 C2622 1.349 . S
C2623 C2639 1.349 . S
C2624 C2622 1.327 . S
C2624 C2643 1.429 . S
C2624 H2648 0.950 . S
C2625 C2642 1.574 . S
C2625 C2644 1.368 . S
C2625 H2649 0.949 . S
H2626 C2630 0.949 . S
C2627 C2628 1.349 . S
C2627 C2629 1.327 . S
C2627 H2650 0.950 . S
C2628 C2627 1.349 . S
C2628 C2640 1.349 . S
C2629 C2627 1.327 . S
C2629 C2645 1.429 . S
C2629 H2651 0.950 . S
C2630 H2626 0.949 . S
C2630 C2638 1.574 . S
C2630 C2646 1.368 . S
H2631 C2639 0.950 . S
H2632 C2637 0.950 . S
H2633 C2638 0.949 . S
H2634 C2640 0.947 1_565 S
H2635 C2641 0.950 . S
H2636 C2642 0.949 . S
C2637 H2632 0.950 . S
C2637 C2639 1.327 . S
C2637 C2643 1.429 . S
C2638 C2630 1.574 . S
C2638 H2633 0.949 . S
C2638 C2644 1.368 . S
C2639 C2623 1.349 . S
C2639 H2631 0.950 . S
C2639 C2637 1.327 . S
C2640 C2628 1.349 . S
C2640 H2634 0.947 1_545 S
C2640 C2641 1.327 . S
C2641 H2635 0.950 . S
C2641 C2640 1.327 . S
C2641 C2645 1.429 . S
C2642 C2625 1.574 . S
C2642 H2636 0.949 . S
C2642 C2646 1.368 . S
C2643 C2624 1.429 . S
C2643 C2637 1.429 . S
C2643 C2644 1.523 . S
C2644 C2625 1.368 . S
C2644 C2638 1.368 . S
C2644 C2643 1.523 . S
C2645 C2629 1.429 . S
C2645 C2641 1.429 . S
C2645 C2646 1.523 . S
C2646 C2630 1.368 . S
C2646 C2642 1.368 . S
C2646 C2645 1.523 . S
H2647 C2622 0.950 . S
H2648 C2624 0.950 . S
H2649 C2625 0.949 . S
H2650 C2627 0.950 . S
H2651 C2629 0.950 . S
C2652 C2653 1.349 . S
C2652 C2654 1.327 . S
C2652 H2677 0.950 . S
C2653 C2652 1.349 . S
C2653 C2669 1.349 . S
C2654 C2652 1.327 . S
C2654 C2673 1.429 . S
C2654 H2678 0.950 . S
C2655 C2672 1.574 . S
C2655 C2674 1.368 . S
C2655 H2679 0.949 . S
H2656 C2660 0.949 . S
C2657 C2658 1.349 . S
C2657 C2659 1.327 . S
C2657 H2680 0.950 . S
C2658 C2657 1.349 . S
C2658 C2670 1.349 . S
C2659 C2657 1.327 . S
C2659 C2675 1.429 . S
C2659 H2681 0.950 . S
C2660 H2656 0.949 . S
C2660 C2668 1.574 . S
C2660 C2676 1.368 . S
H2661 C2669 0.950 . S
H2662 C2667 0.950 . S
H2663 C2668 0.949 . S
H2664 C2670 0.950 . S
H2665 C2671 0.950 . S
H2666 C2672 0.949 . S
C2667 H2662 0.950 . S
C2667 C2669 1.327 . S
C2667 C2673 1.429 . S
C2668 C2660 1.574 . S
C2668 H2663 0.949 . S
C2668 C2674 1.368 . S
C2669 C2653 1.349 . S
C2669 H2661 0.950 . S
C2669 C2667 1.327 . S
C2670 C2658 1.349 . S
C2670 H2664 0.950 . S
C2670 C2671 1.327 . S
C2671 H2665 0.950 . S
C2671 C2670 1.327 . S
C2671 C2675 1.429 . S
C2672 C2655 1.574 . S
C2672 H2666 0.949 . S
C2672 C2676 1.368 . S
C2673 C2654 1.429 . S
C2673 C2667 1.429 . S
C2673 C2674 1.523 . S
C2674 C2655 1.368 . S
C2674 C2668 1.368 . S
C2674 C2673 1.523 . S
C2675 C2659 1.429 . S
C2675 C2671 1.429 . S
C2675 C2676 1.523 . S
C2676 C2660 1.368 . S
C2676 C2672 1.368 . S
C2676 C2675 1.523 . S
H2677 C2652 0.950 . S
H2678 C2654 0.950 . S
H2679 C2655 0.949 . S
H2680 C2657 0.950 . S
H2681 C2659 0.950 . S
C2682 C2683 1.349 . S
C2682 C2684 1.327 . S
C2682 H2707 0.950 . S
C2683 C2682 1.349 . S
C2683 C2699 1.349 . S
C2684 C2682 1.327 . S
C2684 C2703 1.429 . S
C2684 H2708 0.950 . S
C2685 C2702 1.574 . S
C2685 C2704 1.368 . S
C2685 H2709 0.949 . S
H2686 C2690 0.949 . S
C2687 C2688 1.349 . S
C2687 C2689 1.327 . S
C2687 H2710 0.950 . S
C2688 C2687 1.349 . S
C2688 C2700 1.349 . S
C2689 C2687 1.327 . S
C2689 C2705 1.429 . S
C2689 H2711 0.950 . S
C2690 H2686 0.949 . S
C2690 C2698 1.574 . S
C2690 C2706 1.368 . S
H2691 C2699 0.950 . S
H2692 C2697 0.950 . S
H2693 C2698 0.949 . S
H2694 C2700 0.950 . S
H2695 C2701 0.950 . S
H2696 C2702 0.949 . S
C2697 H2692 0.950 . S
C2697 C2699 1.327 . S
C2697 C2703 1.429 . S
C2698 C2690 1.574 . S
C2698 H2693 0.949 . S
C2698 C2704 1.368 . S
C2699 C2683 1.349 . S
C2699 H2691 0.950 . S
C2699 C2697 1.327 . S
C2700 C2688 1.349 . S
C2700 H2694 0.950 . S
C2700 C2701 1.327 . S
C2701 H2695 0.950 . S
C2701 C2700 1.327 . S
C2701 C2705 1.429 . S
C2702 C2685 1.574 . S
C2702 H2696 0.949 . S
C2702 C2706 1.368 . S
C2703 C2684 1.429 . S
C2703 C2697 1.429 . S
C2703 C2704 1.523 . S
C2704 C2685 1.368 . S
C2704 C2698 1.368 . S
C2704 C2703 1.523 . S
C2705 C2689 1.429 . S
C2705 C2701 1.429 . S
C2705 C2706 1.523 . S
C2706 C2690 1.368 . S
C2706 C2702 1.368 . S
C2706 C2705 1.523 . S
H2707 C2682 0.950 . S
H2708 C2684 0.950 . S
H2709 C2685 0.949 . S
H2710 C2687 0.950 . S
H2711 C2689 0.950 . S
C2712 C2713 1.349 . S
C2712 C2714 1.327 . S
C2712 H2737 0.950 1_565 S
C2713 C2712 1.349 . S
C2713 C2729 1.349 . S
C2714 C2712 1.327 . S
C2714 C2733 1.429 . S
C2714 H2738 0.950 . S
C2715 C2732 1.574 . S
C2715 C2734 1.368 . S
C2715 H2739 0.949 . S
H2716 C2720 0.949 . S
C2717 C2718 1.349 . S
C2717 C2719 1.327 . S
C2717 H2740 0.950 . S
C2718 C2717 1.349 . S
C2718 C2730 1.349 . S
C2719 C2717 1.327 . S
C2719 C2735 1.429 . S
C2719 H2741 0.950 . S
C2720 H2716 0.949 . S
C2720 C2728 1.574 . S
C2720 C2736 1.368 . S
H2721 C2729 0.950 . S
H2722 C2727 0.950 . S
H2723 C2728 0.949 . S
H2724 C2730 0.950 . S
H2725 C2731 0.950 . S
H2726 C2732 0.949 . S
C2727 H2722 0.950 . S
C2727 C2729 1.327 . S
C2727 C2733 1.429 . S
C2728 C2720 1.574 . S
C2728 H2723 0.949 . S
C2728 C2734 1.368 . S
C2729 C2713 1.349 . S
C2729 H2721 0.950 . S
C2729 C2727 1.327 . S
C2730 C2718 1.349 . S
C2730 H2724 0.950 . S
C2730 C2731 1.327 . S
C2731 H2725 0.950 . S
C2731 C2730 1.327 . S
C2731 C2735 1.429 . S
C2732 C2715 1.574 . S
C2732 H2726 0.949 . S
C2732 C2736 1.368 . S
C2733 C2714 1.429 . S
C2733 C2727 1.429 . S
C2733 C2734 1.523 . S
C2734 C2715 1.368 . S
C2734 C2728 1.368 . S
C2734 C2733 1.523 . S
C2735 C2719 1.429 . S
C2735 C2731 1.429 . S
C2735 C2736 1.523 . S
C2736 C2720 1.368 . S
C2736 C2732 1.368 . S
C2736 C2735 1.523 . S
H2737 C2712 0.950 1_545 S
H2738 C2714 0.950 . S
H2739 C2715 0.949 . S
H2740 C2717 0.950 . S
H2741 C2719 0.950 . S
C2742 C2743 1.349 . S
C2742 C2744 1.327 . S
C2742 H2767 0.950 . S
C2743 C2742 1.349 . S
C2743 C2759 1.349 . S
C2744 C2742 1.327 . S
C2744 C2763 1.429 . S
C2744 H2768 0.950 . S
C2745 C2762 1.574 . S
C2745 C2764 1.368 . S
C2745 H2769 0.949 . S
H2746 C2750 0.949 . S
C2747 C2748 1.349 . S
C2747 C2749 1.327 . S
C2747 H2770 0.950 . S
C2748 C2747 1.349 . S
C2748 C2760 1.349 . S
C2749 C2747 1.327 . S
C2749 C2765 1.429 . S
C2749 H2771 0.950 . S
C2750 H2746 0.949 . S
C2750 C2758 1.574 . S
C2750 C2766 1.368 . S
H2751 C2759 0.950 . S
H2752 C2757 0.950 . S
H2753 C2758 0.949 . S
H2754 C2760 0.950 . S
H2755 C2761 0.950 . S
H2756 C2762 0.949 . S
C2757 H2752 0.950 . S
C2757 C2759 1.327 . S
C2757 C2763 1.429 . S
C2758 C2750 1.574 . S
C2758 H2753 0.949 . S
C2758 C2764 1.368 . S
C2759 C2743 1.349 . S
C2759 H2751 0.950 . S
C2759 C2757 1.327 . S
C2760 C2748 1.349 . S
C2760 H2754 0.950 . S
C2760 C2761 1.327 . S
C2761 H2755 0.950 . S
C2761 C2760 1.327 . S
C2761 C2765 1.429 . S
C2762 C2745 1.574 . S
C2762 H2756 0.949 . S
C2762 C2766 1.368 . S
C2763 C2744 1.429 . S
C2763 C2757 1.429 . S
C2763 C2764 1.523 . S
C2764 C2745 1.368 . S
C2764 C2758 1.368 . S
C2764 C2763 1.523 . S
C2765 C2749 1.429 . S
C2765 C2761 1.429 . S
C2765 C2766 1.523 . S
C2766 C2750 1.368 . S
C2766 C2762 1.368 . S
C2766 C2765 1.523 . S
H2767 C2742 0.950 . S
H2768 C2744 0.950 . S
H2769 C2745 0.949 . S
H2770 C2747 0.950 . S
H2771 C2749 0.950 . S
C2772 C2773 1.349 . S
C2772 C2774 1.327 . S
C2772 H2797 0.950 . S
C2773 C2772 1.349 . S
C2773 C2789 1.349 . S
C2774 C2772 1.327 . S
C2774 C2793 1.429 . S
C2774 H2798 0.950 . S
C2775 C2792 1.574 1_455 S
C2775 C2794 1.368 . S
C2775 H2799 0.949 . S
H2776 C2780 0.949 . S
C2777 C2778 1.349 . S
C2777 C2779 1.327 . S
C2777 H2800 0.950 . S
C2778 C2777 1.349 . S
C2778 C2790 1.349 . S
C2779 C2777 1.327 . S
C2779 C2795 1.429 . S
C2779 H2801 0.950 . S
C2780 H2776 0.949 . S
C2780 C2788 1.574 1_655 S
C2780 C2796 1.368 . S
H2781 C2789 0.950 . S
H2782 C2787 0.950 . S
H2783 C2788 0.949 . S
H2784 C2790 0.950 . S
H2785 C2791 0.950 . S
H2786 C2792 0.949 . S
C2787 H2782 0.950 . S
C2787 C2789 1.327 . S
C2787 C2793 1.429 . S
C2788 C2780 1.574 1_455 S
C2788 H2783 0.949 . S
C2788 C2794 1.368 . S
C2789 C2773 1.349 . S
C2789 H2781 0.950 . S
C2789 C2787 1.327 . S
C2790 C2778 1.349 . S
C2790 H2784 0.950 . S
C2790 C2791 1.327 . S
C2791 H2785 0.950 . S
C2791 C2790 1.327 . S
C2791 C2795 1.429 . S
C2792 C2775 1.574 1_655 S
C2792 H2786 0.949 . S
C2792 C2796 1.368 . S
C2793 C2774 1.429 . S
C2793 C2787 1.429 . S
C2793 C2794 1.523 . S
C2794 C2775 1.368 . S
C2794 C2788 1.368 . S
C2794 C2793 1.523 . S
C2795 C2779 1.429 . S
C2795 C2791 1.429 . S
C2795 C2796 1.523 . S
C2796 C2780 1.368 . S
C2796 C2792 1.368 . S
C2796 C2795 1.523 . S
H2797 C2772 0.950 . S
H2798 C2774 0.950 . S
H2799 C2775 0.949 . S
H2800 C2777 0.950 . S
H2801 C2779 0.950 . S
C2802 C2803 1.349 . S
C2802 C2804 1.327 . S
C2802 H2827 0.950 . S
C2803 C2802 1.349 . S
C2803 C2819 1.349 . S
C2804 C2802 1.327 . S
C2804 C2823 1.429 . S
C2804 H2828 0.950 . S
C2805 C2822 1.574 . S
C2805 C2824 1.368 . S
C2805 H2829 0.949 . S
H2806 C2810 0.949 . S
C2807 C2808 1.349 . S
C2807 C2809 1.327 . S
C2807 H2830 0.950 . S
C2808 C2807 1.349 . S
C2808 C2820 1.349 . S
C2809 C2807 1.327 . S
C2809 C2825 1.429 . S
C2809 H2831 0.950 . S
C2810 H2806 0.949 . S
C2810 C2818 1.574 . S
C2810 C2826 1.368 . S
H2811 C2819 0.950 . S
H2812 C2817 0.950 . S
H2813 C2818 0.949 . S
H2814 C2820 0.950 . S
H2815 C2821 0.950 . S
H2816 C2822 0.949 . S
C2817 H2812 0.950 . S
C2817 C2819 1.327 . S
C2817 C2823 1.429 . S
C2818 C2810 1.574 . S
C2818 H2813 0.949 . S
C2818 C2824 1.368 . S
C2819 C2803 1.349 . S
C2819 H2811 0.950 . S
C2819 C2817 1.327 . S
C2820 C2808 1.349 . S
C2820 H2814 0.950 . S
C2820 C2821 1.327 . S
C2821 H2815 0.950 . S
C2821 C2820 1.327 . S
C2821 C2825 1.429 . S
C2822 C2805 1.574 . S
C2822 H2816 0.949 . S
C2822 C2826 1.368 . S
C2823 C2804 1.429 . S
C2823 C2817 1.429 . S
C2823 C2824 1.523 . S
C2824 C2805 1.368 . S
C2824 C2818 1.368 . S
C2824 C2823 1.523 . S
C2825 C2809 1.429 . S
C2825 C2821 1.429 . S
C2825 C2826 1.523 . S
C2826 C2810 1.368 . S
C2826 C2822 1.368 . S
C2826 C2825 1.523 . S
H2827 C2802 0.950 . S
H2828 C2804 0.950 . S
H2829 C2805 0.949 . S
H2830 C2807 0.950 . S
H2831 C2809 0.950 . S
C2832 C2833 1.349 . S
C2832 C2834 1.327 . S
C2832 H2857 0.950 . S
C2833 C2832 1.349 . S
C2833 C2849 1.349 . S
C2834 C2832 1.327 . S
C2834 C2853 1.429 . S
C2834 H2858 0.950 . S
C2835 C2852 1.574 1_565 S
C2835 C2854 1.368 . S
C2835 H2859 0.949 . S
H2836 C2840 0.949 . S
C2837 C2838 1.349 . S
C2837 C2839 1.327 . S
C2837 H2860 0.950 . S
C2838 C2837 1.349 . S
C2838 C2850 1.349 . S
C2839 C2837 1.327 . S
C2839 C2855 1.429 . S
C2839 H2861 0.950 . S
C2840 H2836 0.949 . S
C2840 C2848 1.574 1_545 S
C2840 C2856 1.368 . S
H2841 C2849 0.950 . S
H2842 C2847 0.950 . S
H2843 C2848 0.949 . S
H2844 C2850 0.950 . S
H2845 C2851 0.950 . S
H2846 C2852 0.949 . S
C2847 H2842 0.950 . S
C2847 C2849 1.327 . S
C2847 C2853 1.429 . S
C2848 C2840 1.574 1_565 S
C2848 H2843 0.949 . S
C2848 C2854 1.368 . S
C2849 C2833 1.349 . S
C2849 H2841 0.950 . S
C2849 C2847 1.327 . S
C2850 C2838 1.349 . S
C2850 H2844 0.950 . S
C2850 C2851 1.327 . S
C2851 H2845 0.950 . S
C2851 C2850 1.327 . S
C2851 C2855 1.429 . S
C2852 C2835 1.574 1_545 S
C2852 H2846 0.949 . S
C2852 C2856 1.368 . S
C2853 C2834 1.429 . S
C2853 C2847 1.429 . S
C2853 C2854 1.523 . S
C2854 C2835 1.368 . S
C2854 C2848 1.368 . S
C2854 C2853 1.523 . S
C2855 C2839 1.429 . S
C2855 C2851 1.429 . S
C2855 C2856 1.523 . S
C2856 C2840 1.368 . S
C2856 C2852 1.368 . S
C2856 C2855 1.523 . S
H2857 C2832 0.950 . S
H2858 C2834 0.950 . S
H2859 C2835 0.949 . S
H2860 C2837 0.950 . S
H2861 C2839 0.950 . S
C2862 C2863 1.349 . S
C2862 C2864 1.327 . S
C2862 H2887 0.950 . S
C2863 C2862 1.349 . S
C2863 C2879 1.349 . S
C2864 C2862 1.327 . S
C2864 C2883 1.429 . S
C2864 H2888 0.950 . S
C2865 C2882 1.574 1_565 S
C2865 C2884 1.368 . S
C2865 H2889 0.949 . S
H2866 C2870 0.949 . S
C2867 C2868 1.349 . S
C2867 C2869 1.327 . S
C2867 H2890 0.950 . S
C2868 C2867 1.349 . S
C2868 C2880 1.349 . S
C2869 C2867 1.327 . S
C2869 C2885 1.429 . S
C2869 H2891 0.950 . S
C2870 H2866 0.949 . S
C2870 C2878 1.574 1_545 S
C2870 C2886 1.368 . S
H2871 C2879 0.950 . S
H2872 C2877 0.950 . S
H2873 C2878 0.949 . S
H2874 C2880 0.950 . S
H2875 C2881 0.950 . S
H2876 C2882 0.949 . S
C2877 H2872 0.950 . S
C2877 C2879 1.327 . S
C2877 C2883 1.429 . S
C2878 C2870 1.574 1_565 S
C2878 H2873 0.949 . S
C2878 C2884 1.368 . S
C2879 C2863 1.349 . S
C2879 H2871 0.950 . S
C2879 C2877 1.327 . S
C2880 C2868 1.349 . S
C2880 H2874 0.950 . S
C2880 C2881 1.327 . S
C2881 H2875 0.950 . S
C2881 C2880 1.327 . S
C2881 C2885 1.429 . S
C2882 C2865 1.574 1_545 S
C2882 H2876 0.949 . S
C2882 C2886 1.368 . S
C2883 C2864 1.429 . S
C2883 C2877 1.429 . S
C2883 C2884 1.523 . S
C2884 C2865 1.368 . S
C2884 C2878 1.368 . S
C2884 C2883 1.523 . S
C2885 C2869 1.429 . S
C2885 C2881 1.429 . S
C2885 C2886 1.523 . S
C2886 C2870 1.368 . S
C2886 C2882 1.368 . S
C2886 C2885 1.523 . S
H2887 C2862 0.950 . S
H2888 C2864 0.950 . S
H2889 C2865 0.949 . S
H2890 C2867 0.950 . S
H2891 C2869 0.950 . S
C2892 C2893 1.349 . S
C2892 C2894 1.327 . S
C2892 H2917 0.950 . S
C2893 C2892 1.349 . S
C2893 C2909 1.349 . S
C2894 C2892 1.327 . S
C2894 C2913 1.429 . S
C2894 H2918 0.950 . S
C2895 C2912 1.574 1_655 S
C2895 C2914 1.368 . S
C2895 H2919 0.949 . S
H2896 C2900 0.949 . S
C2897 C2898 1.349 . S
C2897 C2899 1.327 . S
C2897 H2920 0.950 . S
C2898 C2897 1.349 . S
C2898 C2910 1.349 . S
C2899 C2897 1.327 . S
C2899 C2915 1.429 . S
C2899 H2921 0.950 . S
C2900 H2896 0.949 . S
C2900 C2908 1.574 1_455 S
C2900 C2916 1.368 . S
H2901 C2909 0.950 . S
H2902 C2907 0.950 . S
H2903 C2908 0.949 . S
H2904 C2910 0.950 . S
H2905 C2911 0.950 . S
H2906 C2912 0.949 . S
C2907 H2902 0.950 . S
C2907 C2909 1.327 . S
C2907 C2913 1.429 . S
C2908 C2900 1.574 1_655 S
C2908 H2903 0.949 . S
C2908 C2914 1.368 . S
C2909 C2893 1.349 . S
C2909 H2901 0.950 . S
C2909 C2907 1.327 . S
C2910 C2898 1.349 . S
C2910 H2904 0.950 . S
C2910 C2911 1.327 . S
C2911 H2905 0.950 . S
C2911 C2910 1.327 . S
C2911 C2915 1.429 . S
C2912 C2895 1.574 1_455 S
C2912 H2906 0.949 . S
C2912 C2916 1.368 . S
C2913 C2894 1.429 . S
C2913 C2907 1.429 . S
C2913 C2914 1.523 . S
C2914 C2895 1.368 . S
C2914 C2908 1.368 . S
C2914 C2913 1.523 . S
C2915 C2899 1.429 . S
C2915 C2911 1.429 . S
C2915 C2916 1.523 . S
C2916 C2900 1.368 . S
C2916 C2912 1.368 . S
C2916 C2915 1.523 . S
H2917 C2892 0.950 . S
H2918 C2894 0.950 . S
H2919 C2895 0.949 . S
H2920 C2897 0.950 . S
H2921 C2899 0.950 . S
C2922 C2923 1.349 . S
C2922 C2924 1.327 . S
C2922 H2947 0.950 . S
C2923 C2922 1.349 . S
C2923 C2939 1.349 . S
C2924 C2922 1.327 . S
C2924 C2943 1.429 . S
C2924 H2948 0.950 . S
C2925 C2942 1.574 . S
C2925 C2944 1.368 . S
C2925 H2949 0.949 . S
H2926 C2930 0.949 . S
C2927 C2928 1.349 . S
C2927 C2929 1.327 . S
C2927 H2950 0.950 . S
C2928 C2927 1.349 . S
C2928 C2940 1.349 . S
C2929 C2927 1.327 . S
C2929 C2945 1.429 . S
C2929 H2951 0.950 . S
C2930 H2926 0.949 . S
C2930 C2938 1.574 . S
C2930 C2946 1.368 . S
H2931 C2939 0.950 . S
H2932 C2937 0.950 . S
H2933 C2938 0.949 . S
H2934 C2940 0.950 . S
H2935 C2941 0.950 . S
H2936 C2942 0.949 . S
C2937 H2932 0.950 . S
C2937 C2939 1.327 . S
C2937 C2943 1.429 . S
C2938 C2930 1.574 . S
C2938 H2933 0.949 . S
C2938 C2944 1.368 . S
C2939 C2923 1.349 . S
C2939 H2931 0.950 . S
C2939 C2937 1.327 . S
C2940 C2928 1.349 . S
C2940 H2934 0.950 . S
C2940 C2941 1.327 . S
C2941 H2935 0.950 . S
C2941 C2940 1.327 . S
C2941 C2945 1.429 . S
C2942 C2925 1.574 . S
C2942 H2936 0.949 . S
C2942 C2946 1.368 . S
C2943 C2924 1.429 . S
C2943 C2937 1.429 . S
C2943 C2944 1.523 . S
C2944 C2925 1.368 . S
C2944 C2938 1.368 . S
C2944 C2943 1.523 . S
C2945 C2929 1.429 . S
C2945 C2941 1.429 . S
C2945 C2946 1.523 . S
C2946 C2930 1.368 . S
C2946 C2942 1.368 . S
C2946 C2945 1.523 . S
H2947 C2922 0.950 . S
H2948 C2924 0.950 . S
H2949 C2925 0.949 . S
H2950 C2927 0.950 . S
H2951 C2929 0.950 . S
C2952 C2953 1.349 . S
C2952 C2954 1.327 . S
C2952 H2977 0.950 . S
C2953 C2952 1.349 . S
C2953 C2969 1.349 . S
C2954 C2952 1.327 . S
C2954 C2973 1.429 . S
C2954 H2978 0.950 . S
C2955 C2972 1.574 . S
C2955 C2974 1.368 1_455 S
C2955 H2979 0.949 1_455 S
H2956 C2960 0.949 . S
C2957 C2958 1.349 . S
C2957 C2959 1.327 . S
C2957 H2980 0.950 . S
C2958 C2957 1.349 . S
C2958 C2970 1.349 . S
C2959 C2957 1.327 . S
C2959 C2975 1.429 . S
C2959 H2981 0.950 . S
C2960 H2956 0.949 . S
C2960 C2968 1.574 . S
C2960 C2976 1.368 . S
H2961 C2969 0.950 . S
H2962 C2967 0.950 . S
H2963 C2968 0.949 1_655 S
H2964 C2970 0.950 . S
H2965 C2971 0.950 . S
H2966 C2972 0.949 . S
C2967 H2962 0.950 . S
C2967 C2969 1.327 . S
C2967 C2973 1.429 . S
C2968 C2960 1.574 . S
C2968 H2963 0.949 1_455 S
C2968 C2974 1.368 1_455 S
C2969 C2953 1.349 . S
C2969 H2961 0.950 . S
C2969 C2967 1.327 . S
C2970 C2958 1.349 . S
C2970 H2964 0.950 . S
C2970 C2971 1.327 . S
C2971 H2965 0.950 . S
C2971 C2970 1.327 . S
C2971 C2975 1.429 . S
C2972 C2955 1.574 . S
C2972 H2966 0.949 . S
C2972 C2976 1.368 . S
C2973 C2954 1.429 . S
C2973 C2967 1.429 . S
C2973 C2974 1.523 . S
C2974 C2955 1.368 1_655 S
C2974 C2968 1.368 1_655 S
C2974 C2973 1.523 . S
C2975 C2959 1.429 . S
C2975 C2971 1.429 . S
C2975 C2976 1.523 . S
C2976 C2960 1.368 . S
C2976 C2972 1.368 . S
C2976 C2975 1.523 . S
H2977 C2952 0.950 . S
H2978 C2954 0.950 . S
H2979 C2955 0.949 1_655 S
H2980 C2957 0.950 . S
H2981 C2959 0.950 . S
C2982 C2983 1.349 . S
C2982 C2984 1.327 . S
C2982 H3007 0.950 . S
C2983 C2982 1.349 . S
C2983 C2999 1.349 . S
C2984 C2982 1.327 . S
C2984 C3003 1.429 . S
C2984 H3008 0.950 . S
C2985 C3002 1.574 . S
C2985 C3004 1.368 . S
C2985 H3009 0.949 . S
H2986 C2990 0.949 . S
C2987 C2988 1.349 . S
C2987 C2989 1.327 . S
C2987 H3010 0.950 . S
C2988 C2987 1.349 . S
C2988 C3000 1.349 . S
C2989 C2987 1.327 . S
C2989 C3005 1.429 . S
C2989 H3011 0.950 . S
C2990 H2986 0.949 . S
C2990 C2998 1.574 . S
C2990 C3006 1.368 . S
H2991 C2999 0.950 . S
H2992 C2997 0.950 . S
H2993 C2998 0.949 . S
H2994 C3000 0.950 . S
H2995 C3001 0.950 . S
H2996 C3002 0.949 . S
C2997 H2992 0.950 . S
C2997 C2999 1.327 . S
C2997 C3003 1.429 . S
C2998 C2990 1.574 . S
C2998 H2993 0.949 . S
C2998 C3004 1.368 . S
C2999 C2983 1.349 . S
C2999 H2991 0.950 . S
C2999 C2997 1.327 . S
C3000 C2988 1.349 . S
C3000 H2994 0.950 . S
C3000 C3001 1.327 . S
C3001 H2995 0.950 . S
C3001 C3000 1.327 . S
C3001 C3005 1.429 . S
C3002 C2985 1.574 . S
C3002 H2996 0.949 . S
C3002 C3006 1.368 . S
C3003 C2984 1.429 . S
C3003 C2997 1.429 . S
C3003 C3004 1.523 . S
C3004 C2985 1.368 . S
C3004 C2998 1.368 . S
C3004 C3003 1.523 . S
C3005 C2989 1.429 . S
C3005 C3001 1.429 . S
C3005 C3006 1.523 . S
C3006 C2990 1.368 . S
C3006 C3002 1.368 . S
C3006 C3005 1.523 . S
H3007 C2982 0.950 . S
H3008 C2984 0.950 . S
H3009 C2985 0.949 . S
H3010 C2987 0.950 . S
H3011 C2989 0.950 . S
C3012 C3013 1.349 . S
C3012 C3014 1.327 . S
C3012 H3037 0.950 . S
C3013 C3012 1.349 . S
C3013 C3029 1.349 . S
C3014 C3012 1.327 . S
C3014 C3033 1.429 . S
C3014 H3038 0.950 . S
C3015 C3032 1.574 . S
C3015 C3034 1.368 1_565 S
C3015 H3039 0.949 1_565 S
H3016 C3020 0.949 . S
C3017 C3018 1.349 . S
C3017 C3019 1.327 . S
C3017 H3040 0.993 . S
C3018 C3017 1.349 . S
C3018 C3030 1.349 . S
C3019 C3017 1.327 . S
C3019 C3035 1.429 . S
C3019 H3041 0.950 . S
C3020 H3016 0.949 . S
C3020 C3028 1.574 . S
C3020 C3036 1.368 . S
H3021 C3029 0.950 . S
H3022 C3027 0.950 . S
H3023 C3028 0.949 1_545 S
H3024 C3030 0.950 . S
H3025 C3031 0.950 . S
H3026 C3032 0.949 . S
C3027 H3022 0.950 . S
C3027 C3029 1.327 . S
C3027 C3033 1.429 . S
C3028 C3020 1.574 . S
C3028 H3023 0.949 1_565 S
C3028 C3034 1.368 1_565 S
C3029 C3013 1.349 . S
C3029 H3021 0.950 . S
C3029 C3027 1.327 . S
C3030 C3018 1.349 . S
C3030 H3024 0.950 . S
C3030 C3031 1.327 . S
C3031 H3025 0.950 . S
C3031 C3030 1.327 . S
C3031 C3035 1.429 . S
C3032 C3015 1.574 . S
C3032 H3026 0.949 . S
C3032 C3036 1.368 . S
C3033 C3014 1.429 . S
C3033 C3027 1.429 . S
C3033 C3034 1.523 . S
C3034 C3015 1.368 1_545 S
C3034 C3028 1.368 1_545 S
C3034 C3033 1.523 . S
C3035 C3019 1.429 . S
C3035 C3031 1.429 . S
C3035 C3036 1.523 . S
C3036 C3020 1.368 . S
C3036 C3032 1.368 . S
C3036 C3035 1.523 . S
H3037 C3012 0.950 . S
H3038 C3014 0.950 . S
H3039 C3015 0.949 1_545 S
H3040 C3017 0.993 . S
H3041 C3019 0.950 . S
C3042 C3043 1.349 . S
C3042 C3044 1.327 . S
C3042 H3067 0.950 . S
C3043 C3042 1.349 . S
C3043 C3059 1.349 . S
C3044 C3042 1.327 . S
C3044 C3063 1.429 . S
C3044 H3068 0.950 . S
C3045 C3062 1.616 . S
C3045 C3064 1.368 . S
C3045 H3069 0.949 . S
H3046 C3050 0.949 1_565 S
C3047 C3048 1.349 . S
C3047 C3049 1.327 . S
C3047 H3070 0.950 . S
C3048 C3047 1.349 . S
C3048 C3060 1.349 . S
C3049 C3047 1.327 . S
C3049 C3065 1.429 . S
C3049 H3071 0.950 . S
C3050 H3046 0.949 1_545 S
C3050 C3058 1.574 . S
C3050 C3066 1.368 1_545 S
H3051 C3059 0.950 . S
H3052 C3057 0.950 . S
H3053 C3058 0.949 . S
H3054 C3060 0.950 . S
H3055 C3061 0.950 . S
H3056 C3062 0.935 1_565 S
C3057 H3052 0.950 . S
C3057 C3059 1.327 . S
C3057 C3063 1.429 . S
C3058 C3050 1.574 . S
C3058 H3053 0.949 . S
C3058 C3064 1.368 . S
C3059 C3043 1.349 . S
C3059 H3051 0.950 . S
C3059 C3057 1.327 . S
C3060 C3048 1.349 . S
C3060 H3054 0.950 . S
C3060 C3061 1.327 . S
C3061 H3055 0.950 . S
C3061 C3060 1.327 . S
C3061 C3065 1.429 . S
C3062 C3045 1.616 . S
C3062 H3056 0.935 1_545 S
C3062 C3066 1.343 1_545 S
C3063 C3044 1.429 . S
C3063 C3057 1.429 . S
C3063 C3064 1.523 . S
C3064 C3045 1.368 . S
C3064 C3058 1.368 . S
C3064 C3063 1.523 . S
C3065 C3049 1.429 . S
C3065 C3061 1.429 . S
C3065 C3066 1.523 . S
C3066 C3050 1.368 1_565 S
C3066 C3062 1.343 1_565 S
C3066 C3065 1.523 . S
H3067 C3042 0.950 . S
H3068 C3044 0.950 . S
H3069 C3045 0.949 . S
H3070 C3047 0.950 . S
H3071 C3049 0.950 . S
C3072 C3073 1.349 . S
C3072 C3074 1.327 . S
C3072 H3097 0.950 . S
C3073 C3072 1.349 . S
C3073 C3089 1.349 . S
C3074 C3072 1.327 . S
C3074 C3093 1.429 . S
C3074 H3098 0.950 . S
C3075 C3092 1.574 . S
C3075 C3094 1.368 1_655 S
C3075 H3099 0.949 1_655 S
H3076 C3080 0.949 . S
C3077 C3078 1.349 . S
C3077 C3079 1.327 . S
C3077 H3100 0.950 . S
C3078 C3077 1.349 . S
C3078 C3090 1.349 . S
C3079 C3077 1.327 . S
C3079 C3095 1.429 . S
C3079 H3101 0.950 . S
C3080 H3076 0.949 . S
C3080 C3088 1.574 . S
C3080 C3096 1.368 . S
H3081 C3089 0.950 . S
H3082 C3087 0.950 . S
H3083 C3088 0.949 1_455 S
H3084 C3090 0.950 . S
H3085 C3091 0.950 . S
H3086 C3092 0.949 . S
C3087 H3082 0.950 . S
C3087 C3089 1.327 . S
C3087 C3093 1.429 . S
C3088 C3080 1.574 . S
C3088 H3083 0.949 1_655 S
C3088 C3094 1.368 1_655 S
C3089 C3073 1.349 . S
C3089 H3081 0.950 . S
C3089 C3087 1.327 . S
C3090 C3078 1.349 . S
C3090 H3084 0.950 . S
C3090 C3091 1.327 . S
C3091 H3085 0.950 . S
C3091 C3090 1.327 . S
C3091 C3095 1.429 . S
C3092 C3075 1.574 . S
C3092 H3086 0.949 . S
C3092 C3096 1.368 . S
C3093 C3074 1.429 . S
C3093 C3087 1.429 . S
C3093 C3094 1.523 . S
C3094 C3075 1.368 1_455 S
C3094 C3088 1.368 1_455 S
C3094 C3093 1.523 . S
C3095 C3079 1.429 . S
C3095 C3091 1.429 . S
C3095 C3096 1.523 . S
C3096 C3080 1.368 . S
C3096 C3092 1.368 . S
C3096 C3095 1.523 . S
H3097 C3072 0.950 . S
H3098 C3074 0.950 . S
H3099 C3075 0.949 1_455 S
H3100 C3077 0.950 . S
H3101 C3079 0.950 . S
C3102 C3103 1.349 . S
C3102 C3104 1.327 . S
C3102 H3127 0.950 . S
C3103 C3102 1.349 . S
C3103 C3119 1.349 . S
C3104 C3102 1.327 . S
C3104 C3123 1.429 . S
C3104 H3128 0.950 . S
C3105 C3122 1.574 . S
C3105 C3124 1.368 . S
C3105 H3129 0.949 . S
H3106 C3110 0.949 . S
C3107 C3108 1.349 . S
C3107 C3109 1.327 . S
C3107 H3130 0.950 . S
C3108 C3107 1.349 . S
C3108 C3120 1.349 . S
C3109 C3107 1.327 . S
C3109 C3125 1.429 . S
C3109 H3131 0.950 . S
C3110 H3106 0.949 . S
C3110 C3118 1.574 . S
C3110 C3126 1.368 . S
H3111 C3119 0.950 . S
H3112 C3117 0.950 . S
H3113 C3118 0.949 . S
H3114 C3120 0.950 . S
H3115 C3121 0.950 . S
H3116 C3122 0.949 . S
C3117 H3112 0.950 . S
C3117 C3119 1.327 . S
C3117 C3123 1.429 . S
C3118 C3110 1.574 . S
C3118 H3113 0.949 . S
C3118 C3124 1.368 . S
C3119 C3103 1.349 . S
C3119 H3111 0.950 . S
C3119 C3117 1.327 . S
C3120 C3108 1.349 . S
C3120 H3114 0.950 . S
C3120 C3121 1.327 . S
C3121 H3115 0.950 . S
C3121 C3120 1.327 . S
C3121 C3125 1.429 . S
C3122 C3105 1.574 . S
C3122 H3116 0.949 . S
C3122 C3126 1.368 . S
C3123 C3104 1.429 . S
C3123 C3117 1.429 . S
C3123 C3124 1.523 . S
C3124 C3105 1.368 . S
C3124 C3118 1.368 . S
C3124 C3123 1.523 . S
C3125 C3109 1.429 . S
C3125 C3121 1.429 . S
C3125 C3126 1.523 . S
C3126 C3110 1.368 . S
C3126 C3122 1.368 . S
C3126 C3125 1.523 . S
H3127 C3102 0.950 . S
H3128 C3104 0.950 . S
H3129 C3105 0.949 . S
H3130 C3107 0.950 . S
H3131 C3109 0.950 . S
C3132 C3133 1.349 . S
C3132 C3134 1.327 . S
C3132 H3157 0.950 . S
C3133 C3132 1.349 . S
C3133 C3149 1.349 . S
C3134 C3132 1.327 . S
C3134 C3153 1.429 . S
C3134 H3158 0.950 . S
C3135 C3152 1.621 . S
C3135 C3154 1.341 1_655 S
C3135 H3159 0.933 1_655 S
H3136 C3140 0.949 . S
C3137 C3138 1.349 . S
C3137 C3139 1.327 . S
C3137 H3160 0.950 . S
C3138 C3137 1.349 . S
C3138 C3150 1.349 . S
C3139 C3137 1.327 . S
C3139 C3155 1.429 . S
C3139 H3161 0.950 . S
C3140 H3136 0.949 . S
C3140 C3148 1.574 . S
C3140 C3156 1.368 . S
H3141 C3149 0.950 . S
H3142 C3147 0.950 . S
H3143 C3148 0.949 1_455 S
H3144 C3150 0.950 . S
H3145 C3151 0.950 . S
H3146 C3152 0.949 . S
C3147 H3142 0.950 . S
C3147 C3149 1.327 . S
C3147 C3153 1.429 . S
C3148 C3140 1.574 . S
C3148 H3143 0.949 1_655 S
C3148 C3154 1.368 1_655 S
C3149 C3133 1.349 . S
C3149 H3141 0.950 . S
C3149 C3147 1.327 . S
C3150 C3138 1.349 . S
C3150 H3144 0.950 . S
C3150 C3151 1.327 . S
C3151 H3145 0.950 . S
C3151 C3150 1.327 . S
C3151 C3155 1.429 . S
C3152 C3135 1.621 . S
C3152 H3146 0.949 . S
C3152 C3156 1.368 . S
C3153 C3134 1.429 . S
C3153 C3147 1.429 . S
C3153 C3154 1.523 . S
C3154 C3135 1.341 1_455 S
C3154 C3148 1.368 1_455 S
C3154 C3153 1.523 . S
C3155 C3139 1.429 . S
C3155 C3151 1.429 . S
C3155 C3156 1.523 . S
C3156 C3140 1.368 . S
C3156 C3152 1.368 . S
C3156 C3155 1.523 . S
H3157 C3132 0.950 . S
H3158 C3134 0.950 . S
H3159 C3135 0.933 1_455 S
H3160 C3137 0.950 . S
H3161 C3139 0.950 . S
C3162 C3163 1.349 . S
C3162 C3164 1.327 . S
C3162 H3187 0.950 . S
C3163 C3162 1.349 . S
C3163 C3179 1.349 . S
C3164 C3162 1.327 . S
C3164 C3183 1.429 . S
C3164 H3188 0.950 . S
C3165 C3182 1.574 . S
C3165 C3184 1.368 . S
C3165 H3189 0.949 . S
H3166 C3170 0.949 . S
C3167 C3168 1.349 . S
C3167 C3169 1.327 . S
C3167 H3190 0.950 . S
C3168 C3167 1.349 . S
C3168 C3180 1.349 . S
C3169 C3167 1.327 . S
C3169 C3185 1.429 . S
C3169 H3191 0.950 . S
C3170 H3166 0.949 . S
C3170 C3178 1.574 . S
C3170 C3186 1.368 . S
H3171 C3179 0.950 . S
H3172 C3177 0.950 . S
H3173 C3178 0.949 . S
H3174 C3180 0.950 . S
H3175 C3181 0.950 . S
H3176 C3182 0.949 . S
C3177 H3172 0.950 . S
C3177 C3179 1.327 . S
C3177 C3183 1.429 . S
C3178 C3170 1.574 . S
C3178 H3173 0.949 . S
C3178 C3184 1.368 . S
C3179 C3163 1.349 . S
C3179 H3171 0.950 . S
C3179 C3177 1.327 . S
C3180 C3168 1.349 . S
C3180 H3174 0.950 . S
C3180 C3181 1.327 . S
C3181 H3175 0.950 . S
C3181 C3180 1.327 . S
C3181 C3185 1.429 . S
C3182 C3165 1.574 . S
C3182 H3176 0.949 . S
C3182 C3186 1.368 . S
C3183 C3164 1.429 . S
C3183 C3177 1.429 . S
C3183 C3184 1.523 . S
C3184 C3165 1.368 . S
C3184 C3178 1.368 . S
C3184 C3183 1.523 . S
C3185 C3169 1.429 . S
C3185 C3181 1.429 . S
C3185 C3186 1.523 . S
C3186 C3170 1.368 . S
C3186 C3182 1.368 . S
C3186 C3185 1.523 . S
H3187 C3162 0.950 . S
H3188 C3164 0.950 . S
H3189 C3165 0.949 . S
H3190 C3167 0.950 . S
H3191 C3169 0.950 . S
C3192 C3193 1.349 . S
C3192 C3194 1.327 . S
C3192 H3217 0.950 . S
C3193 C3192 1.349 . S
C3193 C3209 1.349 . S
C3194 C3192 1.327 . S
C3194 C3213 1.429 . S
C3194 H3218 0.950 . S
C3195 C3212 1.574 . S
C3195 C3214 1.368 1_545 S
C3195 H3219 0.949 1_545 S
H3196 C3200 0.949 . S
C3197 C3198 1.349 . S
C3197 C3199 1.327 . S
C3197 H3220 0.950 . S
C3198 C3197 1.349 . S
C3198 C3210 1.349 . S
C3199 C3197 1.327 . S
C3199 C3215 1.429 . S
C3199 H3221 0.950 . S
C3200 H3196 0.949 . S
C3200 C3208 1.615 . S
C3200 C3216 1.368 . S
H3201 C3209 0.950 . S
H3202 C3207 0.950 . S
H3203 C3208 0.911 1_565 S
H3204 C3210 0.950 . S
H3205 C3211 0.950 . S
H3206 C3212 0.949 . S
C3207 H3202 0.950 . S
C3207 C3209 1.327 . S
C3207 C3213 1.429 . S
C3208 C3200 1.615 . S
C3208 H3203 0.911 1_545 S
C3208 C3214 1.371 1_545 S
C3209 C3193 1.349 . S
C3209 H3201 0.950 . S
C3209 C3207 1.327 . S
C3210 C3198 1.349 . S
C3210 H3204 0.950 . S
C3210 C3211 1.327 . S
C3211 H3205 0.950 . S
C3211 C3210 1.327 . S
C3211 C3215 1.429 . S
C3212 C3195 1.574 . S
C3212 H3206 0.949 . S
C3212 C3216 1.368 . S
C3213 C3194 1.429 . S
C3213 C3207 1.429 . S
C3213 C3214 1.523 . S
C3214 C3195 1.368 1_565 S
C3214 C3208 1.371 1_565 S
C3214 C3213 1.523 . S
C3215 C3199 1.429 . S
C3215 C3211 1.429 . S
C3215 C3216 1.523 . S
C3216 C3200 1.368 . S
C3216 C3212 1.368 . S
C3216 C3215 1.523 . S
H3217 C3192 0.950 . S
H3218 C3194 0.950 . S
H3219 C3195 0.949 1_565 S
H3220 C3197 0.950 . S
H3221 C3199 0.950 . S
C3222 C3223 1.349 . S
C3222 C3224 1.327 . S
C3222 H3247 0.950 . S
C3223 C3222 1.349 . S
C3223 C3239 1.349 . S
C3224 C3222 1.327 . S
C3224 C3243 1.429 . S
C3224 H3248 0.950 . S
C3225 C3242 1.574 . S
C3225 C3244 1.368 1_565 S
C3225 H3249 0.949 1_565 S
H3226 C3230 0.949 . S
C3227 C3228 1.349 . S
C3227 C3229 1.327 . S
C3227 H3250 0.950 . S
C3228 C3227 1.349 . S
C3228 C3240 1.349 . S
C3229 C3227 1.327 . S
C3229 C3245 1.429 . S
C3229 H3251 0.950 . S
C3230 H3226 0.949 . S
C3230 C3238 1.619 . S
C3230 C3246 1.368 . S
H3231 C3239 0.950 . S
H3232 C3237 0.950 . S
H3233 C3238 0.934 1_545 S
H3234 C3240 0.950 . S
H3235 C3241 0.950 . S
H3236 C3242 0.949 . S
C3237 H3232 0.950 . S
C3237 C3239 1.327 . S
C3237 C3243 1.429 . S
C3238 C3230 1.619 . S
C3238 H3233 0.934 1_565 S
C3238 C3244 1.342 1_565 S
C3239 C3223 1.349 . S
C3239 H3231 0.950 . S
C3239 C3237 1.327 . S
C3240 C3228 1.349 . S
C3240 H3234 0.950 . S
C3240 C3241 1.327 . S
C3241 H3235 0.950 . S
C3241 C3240 1.327 . S
C3241 C3245 1.429 . S
C3242 C3225 1.574 . S
C3242 H3236 0.949 . S
C3242 C3246 1.368 . S
C3243 C3224 1.429 . S
C3243 C3237 1.429 . S
C3243 C3244 1.523 . S
C3244 C3225 1.368 1_545 S
C3244 C3238 1.342 1_545 S
C3244 C3243 1.523 . S
C3245 C3229 1.429 . S
C3245 C3241 1.429 . S
C3245 C3246 1.523 . S
C3246 C3230 1.368 . S
C3246 C3242 1.368 . S
C3246 C3245 1.523 . S
H3247 C3222 0.950 . S
H3248 C3224 0.950 . S
H3249 C3225 0.949 1_545 S
H3250 C3227 0.950 . S
H3251 C3229 0.950 . S
C3252 C3253 1.349 . S
C3252 C3254 1.327 . S
C3252 H3277 0.950 . S
C3253 C3252 1.349 . S
C3253 C3269 1.349 . S
C3254 C3252 1.327 . S
C3254 C3273 1.429 . S
C3254 H3278 0.950 . S
C3255 C3272 1.617 . S
C3255 C3274 1.370 1_455 S
C3255 H3279 0.910 1_455 S
H3256 C3260 0.949 . S
C3257 C3258 1.349 . S
C3257 C3259 1.327 . S
C3257 H3280 0.950 . S
C3258 C3257 1.349 . S
C3258 C3270 1.349 . S
C3259 C3257 1.327 . S
C3259 C3275 1.429 . S
C3259 H3281 0.950 . S
C3260 H3256 0.949 . S
C3260 C3268 1.574 . S
C3260 C3276 1.368 . S
H3261 C3269 0.950 . S
H3262 C3267 0.950 . S
H3263 C3268 0.949 1_655 S
H3264 C3270 0.950 . S
H3265 C3271 0.950 . S
H3266 C3272 0.949 . S
C3267 H3262 0.950 . S
C3267 C3269 1.327 . S
C3267 C3273 1.429 . S
C3268 C3260 1.574 . S
C3268 H3263 0.949 1_455 S
C3268 C3274 1.368 1_455 S
C3269 C3253 1.349 . S
C3269 H3261 0.950 . S
C3269 C3267 1.327 . S
C3270 C3258 1.349 . S
C3270 H3264 0.950 . S
C3270 C3271 1.327 . S
C3271 H3265 0.950 . S
C3271 C3270 1.327 . S
C3271 C3275 1.429 . S
C3272 C3255 1.617 . S
C3272 H3266 0.949 . S
C3272 C3276 1.368 . S
C3273 C3254 1.429 . S
C3273 C3267 1.429 . S
C3273 C3274 1.523 . S
C3274 C3255 1.370 1_655 S
C3274 C3268 1.368 1_655 S
C3274 C3273 1.523 . S
C3275 C3259 1.429 . S
C3275 C3271 1.429 . S
C3275 C3276 1.523 . S
C3276 C3260 1.368 . S
C3276 C3272 1.368 . S
C3276 C3275 1.523 . S
H3277 C3252 0.950 . S
H3278 C3254 0.950 . S
H3279 C3255 0.910 1_655 S
H3280 C3257 0.950 . S
H3281 C3259 0.950 . S
C3282 C3283 1.349 . S
C3282 C3284 1.327 . S
C3282 H3307 0.950 . S
C3283 C3282 1.349 . S
C3283 C3299 1.349 . S
C3284 C3282 1.327 . S
C3284 C3303 1.429 . S
C3284 H3308 0.950 . S
C3285 C3302 1.574 . S
C3285 C3304 1.368 . S
C3285 H3309 0.949 . S
H3286 C3290 0.949 . S
C3287 C3288 1.349 . S
C3287 C3289 1.327 . S
C3287 H3310 0.950 . S
C3288 C3287 1.349 . S
C3288 C3300 1.349 . S
C3289 C3287 1.327 . S
C3289 C3305 1.429 . S
C3289 H3311 0.950 . S
C3290 H3286 0.949 . S
C3290 C3298 1.574 . S
C3290 C3306 1.368 . S
H3291 C3299 0.950 . S
H3292 C3297 0.950 . S
H3293 C3298 0.949 . S
H3294 C3300 0.950 . S
H3295 C3301 0.950 . S
H3296 C3302 0.949 . S
C3297 H3292 0.950 . S
C3297 C3299 1.327 . S
C3297 C3303 1.429 . S
C3298 C3290 1.574 . S
C3298 H3293 0.949 . S
C3298 C3304 1.368 . S
C3299 C3283 1.349 . S
C3299 H3291 0.950 . S
C3299 C3297 1.327 . S
C3300 C3288 1.349 . S
C3300 H3294 0.950 . S
C3300 C3301 1.327 . S
C3301 H3295 0.950 . S
C3301 C3300 1.327 . S
C3301 C3305 1.429 . S
C3302 C3285 1.574 . S
C3302 H3296 0.949 . S
C3302 C3306 1.368 . S
C3303 C3284 1.429 . S
C3303 C3297 1.429 . S
C3303 C3304 1.523 . S
C3304 C3285 1.368 . S
C3304 C3298 1.368 . S
C3304 C3303 1.523 . S
C3305 C3289 1.429 . S
C3305 C3301 1.429 . S
C3305 C3306 1.523 . S
C3306 C3290 1.368 . S
C3306 C3302 1.368 . S
C3306 C3305 1.523 . S
H3307 C3282 0.950 . S
H3308 C3284 0.950 . S
H3309 C3285 0.949 . S
H3310 C3287 0.950 . S
H3311 C3289 0.950 . S
C3312 C3313 1.349 . S
C3312 C3314 1.327 . S
C3312 H3337 0.950 . S
C3313 C3312 1.349 . S
C3313 C3329 1.349 . S
C3314 C3312 1.327 . S
C3314 C3333 1.429 . S
C3314 H3338 0.950 . S
C3315 C3332 1.574 . S
C3315 C3334 1.368 . S
C3315 H3339 0.949 . S
H3316 C3320 0.949 . S
C3317 C3318 1.349 . S
C3317 C3319 1.327 . S
C3317 H3340 0.950 . S
C3318 C3317 1.349 . S
C3318 C3330 1.349 . S
C3319 C3317 1.327 . S
C3319 C3335 1.429 . S
C3319 H3341 0.950 . S
C3320 H3316 0.949 . S
C3320 C3328 1.574 . S
C3320 C3336 1.368 . S
H3321 C3329 0.950 . S
H3322 C3327 0.950 . S
H3323 C3328 0.949 . S
H3324 C3330 0.950 . S
H3325 C3331 0.950 . S
H3326 C3332 0.949 . S
C3327 H3322 0.950 . S
C3327 C3329 1.327 . S
C3327 C3333 1.429 . S
C3328 C3320 1.574 . S
C3328 H3323 0.949 . S
C3328 C3334 1.368 . S
C3329 C3313 1.349 . S
C3329 H3321 0.950 . S
C3329 C3327 1.327 . S
C3330 C3318 1.349 . S
C3330 H3324 0.950 . S
C3330 C3331 1.327 . S
C3331 H3325 0.950 . S
C3331 C3330 1.327 . S
C3331 C3335 1.429 . S
C3332 C3315 1.574 . S
C3332 H3326 0.949 . S
C3332 C3336 1.368 . S
C3333 C3314 1.429 . S
C3333 C3327 1.429 . S
C3333 C3334 1.523 . S
C3334 C3315 1.368 . S
C3334 C3328 1.368 . S
C3334 C3333 1.523 . S
C3335 C3319 1.429 . S
C3335 C3331 1.429 . S
C3335 C3336 1.523 . S
C3336 C3320 1.368 . S
C3336 C3332 1.368 . S
C3336 C3335 1.523 . S
H3337 C3312 0.950 . S
H3338 C3314 0.950 . S
H3339 C3315 0.949 . S
H3340 C3317 0.950 . S
H3341 C3319 0.950 . S
C3342 C3343 1.349 . S
C3342 C3344 1.327 . S
C3342 H3367 0.950 . S
C3343 C3342 1.349 . S
C3343 C3359 1.349 . S
C3344 C3342 1.327 . S
C3344 C3363 1.429 . S
C3344 H3368 0.950 . S
C3345 C3362 1.574 . S
C3345 C3364 1.368 . S
C3345 H3369 0.949 . S
H3346 C3350 0.949 . S
C3347 C3348 1.349 . S
C3347 C3349 1.327 . S
C3347 H3370 0.950 . S
C3348 C3347 1.349 . S
C3348 C3360 1.349 . S
C3349 C3347 1.327 . S
C3349 C3365 1.429 . S
C3349 H3371 0.950 . S
C3350 H3346 0.949 . S
C3350 C3358 1.574 . S
C3350 C3366 1.368 . S
H3351 C3359 0.950 . S
H3352 C3357 0.950 . S
H3353 C3358 0.949 . S
H3354 C3360 0.950 . S
H3355 C3361 0.950 . S
H3356 C3362 0.949 . S
C3357 H3352 0.950 . S
C3357 C3359 1.327 . S
C3357 C3363 1.429 . S
C3358 C3350 1.574 . S
C3358 H3353 0.949 . S
C3358 C3364 1.368 . S
C3359 C3343 1.349 . S
C3359 H3351 0.950 . S
C3359 C3357 1.327 . S
C3360 C3348 1.349 . S
C3360 H3354 0.950 . S
C3360 C3361 1.327 . S
C3361 H3355 0.950 . S
C3361 C3360 1.327 . S
C3361 C3365 1.429 . S
C3362 C3345 1.574 . S
C3362 H3356 0.949 . S
C3362 C3366 1.368 . S
C3363 C3344 1.429 . S
C3363 C3357 1.429 . S
C3363 C3364 1.523 . S
C3364 C3345 1.368 . S
C3364 C3358 1.368 . S
C3364 C3363 1.523 . S
C3365 C3349 1.429 . S
C3365 C3361 1.429 . S
C3365 C3366 1.523 . S
C3366 C3350 1.368 . S
C3366 C3362 1.368 . S
C3366 C3365 1.523 . S
H3367 C3342 0.950 . S
H3368 C3344 0.950 . S
H3369 C3345 0.949 . S
H3370 C3347 0.950 . S
H3371 C3349 0.950 . S
C3372 C3373 1.349 . S
C3372 C3374 1.327 . S
C3372 H3397 0.950 . S
C3373 C3372 1.349 . S
C3373 C3389 1.349 . S
C3374 C3372 1.327 . S
C3374 C3393 1.429 . S
C3374 H3398 0.950 . S
C3375 C3392 1.574 . S
C3375 C3394 1.368 . S
C3375 H3399 0.949 . S
H3376 C3380 0.949 . S
C3377 C3378 1.349 . S
C3377 C3379 1.327 . S
C3377 H3400 0.950 . S
C3378 C3377 1.349 . S
C3378 C3390 1.349 . S
C3379 C3377 1.327 . S
C3379 C3395 1.429 . S
C3379 H3401 0.950 . S
C3380 H3376 0.949 . S
C3380 C3388 1.574 . S
C3380 C3396 1.368 . S
H3381 C3389 0.950 . S
H3382 C3387 0.950 . S
H3383 C3388 0.949 . S
H3384 C3390 0.950 . S
H3385 C3391 0.950 . S
H3386 C3392 0.949 . S
C3387 H3382 0.950 . S
C3387 C3389 1.327 . S
C3387 C3393 1.429 . S
C3388 C3380 1.574 . S
C3388 H3383 0.949 . S
C3388 C3394 1.368 . S
C3389 C3373 1.349 . S
C3389 H3381 0.950 . S
C3389 C3387 1.327 . S
C3390 C3378 1.349 . S
C3390 H3384 0.950 . S
C3390 C3391 1.327 . S
C3391 H3385 0.950 . S
C3391 C3390 1.327 . S
C3391 C3395 1.429 . S
C3392 C3375 1.574 . S
C3392 H3386 0.949 . S
C3392 C3396 1.368 . S
C3393 C3374 1.429 . S
C3393 C3387 1.429 . S
C3393 C3394 1.523 . S
C3394 C3375 1.368 . S
C3394 C3388 1.368 . S
C3394 C3393 1.523 . S
C3395 C3379 1.429 . S
C3395 C3391 1.429 . S
C3395 C3396 1.523 . S
C3396 C3380 1.368 . S
C3396 C3392 1.368 . S
C3396 C3395 1.523 . S
H3397 C3372 0.950 . S
H3398 C3374 0.950 . S
H3399 C3375 0.949 . S
H3400 C3377 0.950 . S
H3401 C3379 0.950 . S
C3402 C3403 1.349 . S
C3402 C3404 1.327 . S
C3402 H3427 0.950 . S
C3403 C3402 1.349 . S
C3403 C3419 1.349 . S
C3404 C3402 1.327 . S
C3404 C3423 1.429 . S
C3404 H3428 0.950 . S
C3405 C3422 1.574 . S
C3405 C3424 1.368 . S
C3405 H3429 0.949 . S
H3406 C3410 0.949 . S
C3407 C3408 1.349 . S
C3407 C3409 1.327 . S
C3407 H3430 0.950 . S
C3408 C3407 1.349 . S
C3408 C3420 1.349 . S
C3409 C3407 1.327 . S
C3409 C3425 1.429 . S
C3409 H3431 0.950 . S
C3410 H3406 0.949 . S
C3410 C3418 1.574 . S
C3410 C3426 1.368 . S
H3411 C3419 0.950 . S
H3412 C3417 0.950 . S
H3413 C3418 0.949 . S
H3414 C3420 0.950 . S
H3415 C3421 0.950 . S
H3416 C3422 0.949 . S
C3417 H3412 0.950 . S
C3417 C3419 1.327 . S
C3417 C3423 1.429 . S
C3418 C3410 1.574 . S
C3418 H3413 0.949 . S
C3418 C3424 1.368 . S
C3419 C3403 1.349 . S
C3419 H3411 0.950 . S
C3419 C3417 1.327 . S
C3420 C3408 1.349 . S
C3420 H3414 0.950 . S
C3420 C3421 1.327 . S
C3421 H3415 0.950 . S
C3421 C3420 1.327 . S
C3421 C3425 1.429 . S
C3422 C3405 1.574 . S
C3422 H3416 0.949 . S
C3422 C3426 1.368 . S
C3423 C3404 1.429 . S
C3423 C3417 1.429 . S
C3423 C3424 1.523 . S
C3424 C3405 1.368 . S
C3424 C3418 1.368 . S
C3424 C3423 1.523 . S
C3425 C3409 1.429 . S
C3425 C3421 1.429 . S
C3425 C3426 1.523 . S
C3426 C3410 1.368 . S
C3426 C3422 1.368 . S
C3426 C3425 1.523 . S
H3427 C3402 0.950 . S
H3428 C3404 0.950 . S
H3429 C3405 0.949 . S
H3430 C3407 0.950 . S
H3431 C3409 0.950 . S
C3432 C3433 1.349 . S
C3432 C3434 1.327 . S
C3432 H3457 0.950 . S
C3433 C3432 1.349 . S
C3433 C3449 1.349 . S
C3434 C3432 1.327 . S
C3434 C3453 1.429 . S
C3434 H3458 0.950 . S
C3435 C3452 1.574 . S
C3435 C3454 1.368 . S
C3435 H3459 0.949 . S
H3436 C3440 0.949 . S
C3437 C3438 1.349 . S
C3437 C3439 1.327 . S
C3437 H3460 0.950 . S
C3438 C3437 1.349 . S
C3438 C3450 1.349 . S
C3439 C3437 1.327 . S
C3439 C3455 1.429 . S
C3439 H3461 0.950 . S
C3440 H3436 0.949 . S
C3440 C3448 1.574 . S
C3440 C3456 1.368 . S
H3441 C3449 0.950 . S
H3442 C3447 0.950 . S
H3443 C3448 0.949 . S
H3444 C3450 0.950 . S
H3445 C3451 0.950 . S
H3446 C3452 0.949 . S
C3447 H3442 0.950 . S
C3447 C3449 1.327 . S
C3447 C3453 1.429 . S
C3448 C3440 1.574 . S
C3448 H3443 0.949 . S
C3448 C3454 1.368 . S
C3449 C3433 1.349 . S
C3449 H3441 0.950 . S
C3449 C3447 1.327 . S
C3450 C3438 1.349 . S
C3450 H3444 0.950 . S
C3450 C3451 1.327 . S
C3451 H3445 0.950 . S
C3451 C3450 1.327 . S
C3451 C3455 1.429 . S
C3452 C3435 1.574 . S
C3452 H3446 0.949 . S
C3452 C3456 1.368 . S
C3453 C3434 1.429 . S
C3453 C3447 1.429 . S
C3453 C3454 1.523 . S
C3454 C3435 1.368 . S
C3454 C3448 1.368 . S
C3454 C3453 1.523 . S
C3455 C3439 1.429 . S
C3455 C3451 1.429 . S
C3455 C3456 1.523 . S
C3456 C3440 1.368 . S
C3456 C3452 1.368 . S
C3456 C3455 1.523 . S
H3457 C3432 0.950 . S
H3458 C3434 0.950 . S
H3459 C3435 0.949 . S
H3460 C3437 0.950 . S
H3461 C3439 0.950 . S
C3462 C3463 1.349 . S
C3462 C3464 1.327 . S
C3462 H3487 0.950 . S
C3463 C3462 1.349 . S
C3463 C3479 1.349 . S
C3464 C3462 1.327 . S
C3464 C3483 1.429 . S
C3464 H3488 0.950 . S
C3465 C3482 1.574 . S
C3465 C3484 1.368 . S
C3465 H3489 0.949 . S
H3466 C3470 0.949 . S
C3467 C3468 1.349 . S
C3467 C3469 1.327 . S
C3467 H3490 0.950 . S
C3468 C3467 1.349 . S
C3468 C3480 1.349 . S
C3469 C3467 1.327 . S
C3469 C3485 1.429 . S
C3469 H3491 0.950 . S
C3470 H3466 0.949 . S
C3470 C3478 1.574 . S
C3470 C3486 1.368 . S
H3471 C3479 0.950 . S
H3472 C3477 0.950 . S
H3473 C3478 0.949 . S
H3474 C3480 0.950 . S
H3475 C3481 0.950 . S
H3476 C3482 0.949 . S
C3477 H3472 0.950 . S
C3477 C3479 1.327 . S
C3477 C3483 1.429 . S
C3478 C3470 1.574 . S
C3478 H3473 0.949 . S
C3478 C3484 1.368 . S
C3479 C3463 1.349 . S
C3479 H3471 0.950 . S
C3479 C3477 1.327 . S
C3480 C3468 1.349 . S
C3480 H3474 0.950 . S
C3480 C3481 1.327 . S
C3481 H3475 0.950 . S
C3481 C3480 1.327 . S
C3481 C3485 1.429 . S
C3482 C3465 1.574 . S
C3482 H3476 0.949 . S
C3482 C3486 1.368 . S
C3483 C3464 1.429 . S
C3483 C3477 1.429 . S
C3483 C3484 1.523 . S
C3484 C3465 1.368 . S
C3484 C3478 1.368 . S
C3484 C3483 1.523 . S
C3485 C3469 1.429 . S
C3485 C3481 1.429 . S
C3485 C3486 1.523 . S
C3486 C3470 1.368 . S
C3486 C3482 1.368 . S
C3486 C3485 1.523 . S
H3487 C3462 0.950 . S
H3488 C3464 0.950 . S
H3489 C3465 0.949 . S
H3490 C3467 0.950 . S
H3491 C3469 0.950 . S
C3492 C3493 1.349 . S
C3492 C3494 1.327 . S
C3492 H3517 0.950 . S
C3493 C3492 1.349 . S
C3493 C3509 1.349 . S
C3494 C3492 1.327 . S
C3494 C3513 1.429 . S
C3494 H3518 0.950 . S
C3495 C3512 1.574 . S
C3495 C3514 1.368 . S
C3495 H3519 0.949 . S
H3496 C3500 0.949 . S
C3497 C3498 1.349 . S
C3497 C3499 1.327 . S
C3497 H3520 0.950 . S
C3498 C3497 1.349 . S
C3498 C3510 1.349 . S
C3499 C3497 1.327 . S
C3499 C3515 1.429 . S
C3499 H3521 0.950 . S
C3500 H3496 0.949 . S
C3500 C3508 1.574 . S
C3500 C3516 1.368 . S
H3501 C3509 0.950 . S
H3502 C3507 0.950 . S
H3503 C3508 0.949 . S
H3504 C3510 0.950 . S
H3505 C3511 0.950 . S
H3506 C3512 0.949 . S
C3507 H3502 0.950 . S
C3507 C3509 1.327 . S
C3507 C3513 1.429 . S
C3508 C3500 1.574 . S
C3508 H3503 0.949 . S
C3508 C3514 1.368 . S
C3509 C3493 1.349 . S
C3509 H3501 0.950 . S
C3509 C3507 1.327 . S
C3510 C3498 1.349 . S
C3510 H3504 0.950 . S
C3510 C3511 1.327 . S
C3511 H3505 0.950 . S
C3511 C3510 1.327 . S
C3511 C3515 1.429 . S
C3512 C3495 1.574 . S
C3512 H3506 0.949 . S
C3512 C3516 1.368 . S
C3513 C3494 1.429 . S
C3513 C3507 1.429 . S
C3513 C3514 1.523 . S
C3514 C3495 1.368 . S
C3514 C3508 1.368 . S
C3514 C3513 1.523 . S
C3515 C3499 1.429 . S
C3515 C3511 1.429 . S
C3515 C3516 1.523 . S
C3516 C3500 1.368 . S
C3516 C3512 1.368 . S
C3516 C3515 1.523 . S
H3517 C3492 0.950 . S
H3518 C3494 0.950 . S
H3519 C3495 0.949 . S
H3520 C3497 0.950 . S
H3521 C3499 0.950 . S
C3522 C3523 1.349 . S
C3522 C3524 1.327 . S
C3522 H3547 0.950 . S
C3523 C3522 1.349 . S
C3523 C3539 1.349 . S
C3524 C3522 1.327 . S
C3524 C3543 1.429 . S
C3524 H3548 0.950 . S
C3525 C3542 1.574 . S
C3525 C3544 1.368 . S
C3525 H3549 0.949 . S
H3526 C3530 0.949 . S
C3527 C3528 1.349 . S
C3527 C3529 1.327 . S
C3527 H3550 0.950 . S
C3528 C3527 1.349 . S
C3528 C3540 1.349 . S
C3529 C3527 1.327 . S
C3529 C3545 1.429 . S
C3529 H3551 0.950 . S
C3530 H3526 0.949 . S
C3530 C3538 1.574 . S
C3530 C3546 1.368 . S
H3531 C3539 0.950 . S
H3532 C3537 0.950 . S
H3533 C3538 0.949 . S
H3534 C3540 0.950 . S
H3535 C3541 0.950 . S
H3536 C3542 0.949 . S
C3537 H3532 0.950 . S
C3537 C3539 1.327 . S
C3537 C3543 1.429 . S
C3538 C3530 1.574 . S
C3538 H3533 0.949 . S
C3538 C3544 1.368 . S
C3539 C3523 1.349 . S
C3539 H3531 0.950 . S
C3539 C3537 1.327 . S
C3540 C3528 1.349 . S
C3540 H3534 0.950 . S
C3540 C3541 1.327 . S
C3541 H3535 0.950 . S
C3541 C3540 1.327 . S
C3541 C3545 1.429 . S
C3542 C3525 1.574 . S
C3542 H3536 0.949 . S
C3542 C3546 1.368 . S
C3543 C3524 1.429 . S
C3543 C3537 1.429 . S
C3543 C3544 1.523 . S
C3544 C3525 1.368 . S
C3544 C3538 1.368 . S
C3544 C3543 1.523 . S
C3545 C3529 1.429 . S
C3545 C3541 1.429 . S
C3545 C3546 1.523 . S
C3546 C3530 1.368 . S
C3546 C3542 1.368 . S
C3546 C3545 1.523 . S
H3547 C3522 0.950 . S
H3548 C3524 0.950 . S
H3549 C3525 0.949 . S
H3550 C3527 0.950 . S
H3551 C3529 0.950 . S
C3552 C3553 1.349 . S
C3552 C3554 1.327 . S
C3552 H3577 0.950 . S
C3553 C3552 1.349 . S
C3553 C3569 1.349 . S
C3554 C3552 1.327 . S
C3554 C3573 1.429 . S
C3554 H3578 0.950 . S
C3555 C3572 1.574 . S
C3555 C3574 1.368 . S
C3555 H3579 0.949 . S
H3556 C3560 0.949 . S
C3557 C3558 1.349 . S
C3557 C3559 1.327 . S
C3557 H3580 0.950 . S
C3558 C3557 1.349 . S
C3558 C3570 1.349 . S
C3559 C3557 1.327 . S
C3559 C3575 1.429 . S
C3559 H3581 0.950 . S
C3560 H3556 0.949 . S
C3560 C3568 1.574 . S
C3560 C3576 1.368 . S
H3561 C3569 0.950 . S
H3562 C3567 0.950 . S
H3563 C3568 0.949 . S
H3564 C3570 0.950 . S
H3565 C3571 0.950 . S
H3566 C3572 0.949 . S
C3567 H3562 0.950 . S
C3567 C3569 1.327 . S
C3567 C3573 1.429 . S
C3568 C3560 1.574 . S
C3568 H3563 0.949 . S
C3568 C3574 1.368 . S
C3569 C3553 1.349 . S
C3569 H3561 0.950 . S
C3569 C3567 1.327 . S
C3570 C3558 1.349 . S
C3570 H3564 0.950 . S
C3570 C3571 1.327 . S
C3571 H3565 0.950 . S
C3571 C3570 1.327 . S
C3571 C3575 1.429 . S
C3572 C3555 1.574 . S
C3572 H3566 0.949 . S
C3572 C3576 1.368 . S
C3573 C3554 1.429 . S
C3573 C3567 1.429 . S
C3573 C3574 1.523 . S
C3574 C3555 1.368 . S
C3574 C3568 1.368 . S
C3574 C3573 1.523 . S
C3575 C3559 1.429 . S
C3575 C3571 1.429 . S
C3575 C3576 1.523 . S
C3576 C3560 1.368 . S
C3576 C3572 1.368 . S
C3576 C3575 1.523 . S
H3577 C3552 0.950 . S
H3578 C3554 0.950 . S
H3579 C3555 0.949 . S
H3580 C3557 0.950 . S
H3581 C3559 0.950 . S
C3582 C3583 1.349 . S
C3582 C3584 1.327 . S
C3582 H3607 0.950 . S
C3583 C3582 1.349 . S
C3583 C3599 1.349 . S
C3584 C3582 1.327 . S
C3584 C3603 1.429 . S
C3584 H3608 0.950 . S
C3585 C3602 1.574 . S
C3585 C3604 1.368 . S
C3585 H3609 0.949 . S
H3586 C3590 0.949 . S
C3587 C3588 1.349 . S
C3587 C3589 1.327 . S
C3587 H3610 0.950 . S
C3588 C3587 1.349 . S
C3588 C3600 1.349 . S
C3589 C3587 1.327 . S
C3589 C3605 1.429 . S
C3589 H3611 0.950 . S
C3590 H3586 0.949 . S
C3590 C3598 1.574 . S
C3590 C3606 1.368 . S
H3591 C3599 0.950 . S
H3592 C3597 0.950 . S
H3593 C3598 0.949 . S
H3594 C3600 0.950 . S
H3595 C3601 0.950 . S
H3596 C3602 0.949 . S
C3597 H3592 0.950 . S
C3597 C3599 1.327 . S
C3597 C3603 1.429 . S
C3598 C3590 1.574 . S
C3598 H3593 0.949 . S
C3598 C3604 1.368 . S
C3599 C3583 1.349 . S
C3599 H3591 0.950 . S
C3599 C3597 1.327 . S
C3600 C3588 1.349 . S
C3600 H3594 0.950 . S
C3600 C3601 1.327 . S
C3601 H3595 0.950 . S
C3601 C3600 1.327 . S
C3601 C3605 1.429 . S
C3602 C3585 1.574 . S
C3602 H3596 0.949 . S
C3602 C3606 1.368 . S
C3603 C3584 1.429 . S
C3603 C3597 1.429 . S
C3603 C3604 1.523 . S
C3604 C3585 1.368 . S
C3604 C3598 1.368 . S
C3604 C3603 1.523 . S
C3605 C3589 1.429 . S
C3605 C3601 1.429 . S
C3605 C3606 1.523 . S
C3606 C3590 1.368 . S
C3606 C3602 1.368 . S
C3606 C3605 1.523 . S
H3607 C3582 0.950 . S
H3608 C3584 0.950 . S
H3609 C3585 0.949 . S
H3610 C3587 0.950 . S
H3611 C3589 0.950 . S
C3612 C3613 1.349 . S
C3612 C3614 1.327 . S
C3612 H3637 0.950 . S
C3613 C3612 1.349 . S
C3613 C3629 1.349 . S
C3614 C3612 1.327 . S
C3614 C3633 1.429 . S
C3614 H3638 0.950 . S
C3615 C3632 1.574 . S
C3615 C3634 1.368 . S
C3615 H3639 0.949 . S
H3616 C3620 0.949 . S
C3617 C3618 1.349 . S
C3617 C3619 1.327 . S
C3617 H3640 0.950 . S
C3618 C3617 1.349 . S
C3618 C3630 1.349 . S
C3619 C3617 1.327 . S
C3619 C3635 1.429 . S
C3619 H3641 0.950 . S
C3620 H3616 0.949 . S
C3620 C3628 1.574 . S
C3620 C3636 1.368 . S
H3621 C3629 0.950 . S
H3622 C3627 0.950 . S
H3623 C3628 0.949 . S
H3624 C3630 0.950 . S
H3625 C3631 0.950 . S
H3626 C3632 0.949 . S
C3627 H3622 0.950 . S
C3627 C3629 1.327 . S
C3627 C3633 1.429 . S
C3628 C3620 1.574 . S
C3628 H3623 0.949 . S
C3628 C3634 1.368 . S
C3629 C3613 1.349 . S
C3629 H3621 0.950 . S
C3629 C3627 1.327 . S
C3630 C3618 1.349 . S
C3630 H3624 0.950 . S
C3630 C3631 1.327 . S
C3631 H3625 0.950 . S
C3631 C3630 1.327 . S
C3631 C3635 1.429 . S
C3632 C3615 1.574 . S
C3632 H3626 0.949 . S
C3632 C3636 1.368 . S
C3633 C3614 1.429 . S
C3633 C3627 1.429 . S
C3633 C3634 1.523 . S
C3634 C3615 1.368 . S
C3634 C3628 1.368 . S
C3634 C3633 1.523 . S
C3635 C3619 1.429 . S
C3635 C3631 1.429 . S
C3635 C3636 1.523 . S
C3636 C3620 1.368 . S
C3636 C3632 1.368 . S
C3636 C3635 1.523 . S
H3637 C3612 0.950 . S
H3638 C3614 0.950 . S
H3639 C3615 0.949 . S
H3640 C3617 0.950 . S
H3641 C3619 0.950 . S
C3642 C3643 1.349 . S
C3642 C3644 1.327 . S
C3642 H3667 0.950 . S
C3643 C3642 1.349 . S
C3643 C3659 1.349 . S
C3644 C3642 1.327 . S
C3644 C3663 1.429 . S
C3644 H3668 0.950 . S
C3645 C3662 1.574 . S
C3645 C3664 1.368 . S
C3645 H3669 0.949 . S
H3646 C3650 0.949 . S
C3647 C3648 1.349 . S
C3647 C3649 1.327 . S
C3647 H3670 0.950 . S
C3648 C3647 1.349 . S
C3648 C3660 1.349 . S
C3649 C3647 1.327 . S
C3649 C3665 1.429 . S
C3649 H3671 0.950 . S
C3650 H3646 0.949 . S
C3650 C3658 1.574 . S
C3650 C3666 1.368 . S
H3651 C3659 0.950 . S
H3652 C3657 0.950 . S
H3653 C3658 0.949 . S
H3654 C3660 0.950 . S
H3655 C3661 0.950 . S
H3656 C3662 0.949 . S
C3657 H3652 0.950 . S
C3657 C3659 1.327 . S
C3657 C3663 1.429 . S
C3658 C3650 1.574 . S
C3658 H3653 0.949 . S
C3658 C3664 1.368 . S
C3659 C3643 1.349 . S
C3659 H3651 0.950 . S
C3659 C3657 1.327 . S
C3660 C3648 1.349 . S
C3660 H3654 0.950 . S
C3660 C3661 1.327 . S
C3661 H3655 0.950 . S
C3661 C3660 1.327 . S
C3661 C3665 1.429 . S
C3662 C3645 1.574 . S
C3662 H3656 0.949 . S
C3662 C3666 1.368 . S
C3663 C3644 1.429 . S
C3663 C3657 1.429 . S
C3663 C3664 1.523 . S
C3664 C3645 1.368 . S
C3664 C3658 1.368 . S
C3664 C3663 1.523 . S
C3665 C3649 1.429 . S
C3665 C3661 1.429 . S
C3665 C3666 1.523 . S
C3666 C3650 1.368 . S
C3666 C3662 1.368 . S
C3666 C3665 1.523 . S
H3667 C3642 0.950 . S
H3668 C3644 0.950 . S
H3669 C3645 0.949 . S
H3670 C3647 0.950 . S
H3671 C3649 0.950 . S
C3672 C3673 1.349 . S
C3672 C3674 1.327 . S
C3672 H3697 0.950 . S
C3673 C3672 1.349 . S
C3673 C3689 1.349 . S
C3674 C3672 1.327 . S
C3674 C3693 1.429 . S
C3674 H3698 0.950 . S
C3675 C3692 1.574 . S
C3675 C3694 1.368 . S
C3675 H3699 0.949 . S
H3676 C3680 0.949 . S
C3677 C3678 1.349 . S
C3677 C3679 1.327 . S
C3677 H3700 0.950 . S
C3678 C3677 1.349 . S
C3678 C3690 1.349 . S
C3679 C3677 1.327 . S
C3679 C3695 1.429 . S
C3679 H3701 0.950 . S
C3680 H3676 0.949 . S
C3680 C3688 1.574 . S
C3680 C3696 1.368 . S
H3681 C3689 0.950 . S
H3682 C3687 0.950 . S
H3683 C3688 0.949 . S
H3684 C3690 0.950 . S
H3685 C3691 0.950 . S
H3686 C3692 0.949 . S
C3687 H3682 0.950 . S
C3687 C3689 1.327 . S
C3687 C3693 1.429 . S
C3688 C3680 1.574 . S
C3688 H3683 0.949 . S
C3688 C3694 1.368 . S
C3689 C3673 1.349 . S
C3689 H3681 0.950 . S
C3689 C3687 1.327 . S
C3690 C3678 1.349 . S
C3690 H3684 0.950 . S
C3690 C3691 1.327 . S
C3691 H3685 0.950 . S
C3691 C3690 1.327 . S
C3691 C3695 1.429 . S
C3692 C3675 1.574 . S
C3692 H3686 0.949 . S
C3692 C3696 1.368 . S
C3693 C3674 1.429 . S
C3693 C3687 1.429 . S
C3693 C3694 1.523 . S
C3694 C3675 1.368 . S
C3694 C3688 1.368 . S
C3694 C3693 1.523 . S
C3695 C3679 1.429 . S
C3695 C3691 1.429 . S
C3695 C3696 1.523 . S
C3696 C3680 1.368 . S
C3696 C3692 1.368 . S
C3696 C3695 1.523 . S
H3697 C3672 0.950 . S
H3698 C3674 0.950 . S
H3699 C3675 0.949 . S
H3700 C3677 0.950 . S
H3701 C3679 0.950 . S
C3702 C3703 1.349 . S
C3702 C3704 1.327 . S
C3702 H3727 0.950 . S
C3703 C3702 1.349 . S
C3703 C3719 1.349 . S
C3704 C3702 1.327 . S
C3704 C3723 1.429 . S
C3704 H3728 0.950 . S
C3705 C3722 1.574 . S
C3705 C3724 1.368 . S
C3705 H3729 0.949 . S
H3706 C3710 0.949 . S
C3707 C3708 1.349 . S
C3707 C3709 1.327 . S
C3707 H3730 0.950 . S
C3708 C3707 1.349 . S
C3708 C3720 1.349 . S
C3709 C3707 1.327 . S
C3709 C3725 1.429 . S
C3709 H3731 0.950 . S
C3710 H3706 0.949 . S
C3710 C3718 1.574 . S
C3710 C3726 1.368 . S
H3711 C3719 0.950 . S
H3712 C3717 0.950 . S
H3713 C3718 0.949 . S
H3714 C3720 0.950 . S
H3715 C3721 0.950 . S
H3716 C3722 0.949 . S
C3717 H3712 0.950 . S
C3717 C3719 1.327 . S
C3717 C3723 1.429 . S
C3718 C3710 1.574 . S
C3718 H3713 0.949 . S
C3718 C3724 1.368 . S
C3719 C3703 1.349 . S
C3719 H3711 0.950 . S
C3719 C3717 1.327 . S
C3720 C3708 1.349 . S
C3720 H3714 0.950 . S
C3720 C3721 1.327 . S
C3721 H3715 0.950 . S
C3721 C3720 1.327 . S
C3721 C3725 1.429 . S
C3722 C3705 1.574 . S
C3722 H3716 0.949 . S
C3722 C3726 1.368 . S
C3723 C3704 1.429 . S
C3723 C3717 1.429 . S
C3723 C3724 1.523 . S
C3724 C3705 1.368 . S
C3724 C3718 1.368 . S
C3724 C3723 1.523 . S
C3725 C3709 1.429 . S
C3725 C3721 1.429 . S
C3725 C3726 1.523 . S
C3726 C3710 1.368 . S
C3726 C3722 1.368 . S
C3726 C3725 1.523 . S
H3727 C3702 0.950 . S
H3728 C3704 0.950 . S
H3729 C3705 0.949 . S
H3730 C3707 0.950 . S
H3731 C3709 0.950 . S
C3732 C3733 1.349 . S
C3732 C3734 1.327 . S
C3732 H3757 0.950 . S
C3733 C3732 1.349 . S
C3733 C3749 1.349 . S
C3734 C3732 1.327 . S
C3734 C3753 1.429 . S
C3734 H3758 0.950 . S
C3735 C3752 1.574 . S
C3735 C3754 1.368 . S
C3735 H3759 0.949 . S
H3736 C3740 0.949 . S
C3737 C3738 1.349 . S
C3737 C3739 1.327 . S
C3737 H3760 0.950 . S
C3738 C3737 1.349 . S
C3738 C3750 1.349 . S
C3739 C3737 1.327 . S
C3739 C3755 1.429 . S
C3739 H3761 0.950 . S
C3740 H3736 0.949 . S
C3740 C3748 1.574 . S
C3740 C3756 1.368 . S
H3741 C3749 0.950 . S
H3742 C3747 0.950 . S
H3743 C3748 0.949 . S
H3744 C3750 0.950 . S
H3745 C3751 0.950 . S
H3746 C3752 0.949 . S
C3747 H3742 0.950 . S
C3747 C3749 1.327 . S
C3747 C3753 1.429 . S
C3748 C3740 1.574 . S
C3748 H3743 0.949 . S
C3748 C3754 1.368 . S
C3749 C3733 1.349 . S
C3749 H3741 0.950 . S
C3749 C3747 1.327 . S
C3750 C3738 1.349 . S
C3750 H3744 0.950 . S
C3750 C3751 1.327 . S
C3751 H3745 0.950 . S
C3751 C3750 1.327 . S
C3751 C3755 1.429 . S
C3752 C3735 1.574 . S
C3752 H3746 0.949 . S
C3752 C3756 1.368 . S
C3753 C3734 1.429 . S
C3753 C3747 1.429 . S
C3753 C3754 1.523 . S
C3754 C3735 1.368 . S
C3754 C3748 1.368 . S
C3754 C3753 1.523 . S
C3755 C3739 1.429 . S
C3755 C3751 1.429 . S
C3755 C3756 1.523 . S
C3756 C3740 1.368 . S
C3756 C3752 1.368 . S
C3756 C3755 1.523 . S
H3757 C3732 0.950 . S
H3758 C3734 0.950 . S
H3759 C3735 0.949 . S
H3760 C3737 0.950 . S
H3761 C3739 0.950 . S
C3762 C3763 1.349 . S
C3762 C3764 1.327 . S
C3762 H3787 0.950 . S
C3763 C3762 1.349 . S
C3763 C3779 1.349 . S
C3764 C3762 1.327 . S
C3764 C3783 1.429 . S
C3764 H3788 0.950 . S
C3765 C3782 1.574 . S
C3765 C3784 1.368 . S
C3765 H3789 0.949 . S
H3766 C3770 0.949 . S
C3767 C3768 1.349 . S
C3767 C3769 1.327 . S
C3767 H3790 0.950 . S
C3768 C3767 1.349 . S
C3768 C3780 1.349 . S
C3769 C3767 1.327 . S
C3769 C3785 1.429 . S
C3769 H3791 0.950 . S
C3770 H3766 0.949 . S
C3770 C3778 1.574 . S
C3770 C3786 1.368 . S
H3771 C3779 0.950 . S
H3772 C3777 0.950 . S
H3773 C3778 0.949 . S
H3774 C3780 0.950 . S
H3775 C3781 0.950 . S
H3776 C3782 0.949 . S
C3777 H3772 0.950 . S
C3777 C3779 1.327 . S
C3777 C3783 1.429 . S
C3778 C3770 1.574 . S
C3778 H3773 0.949 . S
C3778 C3784 1.368 . S
C3779 C3763 1.349 . S
C3779 H3771 0.950 . S
C3779 C3777 1.327 . S
C3780 C3768 1.349 . S
C3780 H3774 0.950 . S
C3780 C3781 1.327 . S
C3781 H3775 0.950 . S
C3781 C3780 1.327 . S
C3781 C3785 1.429 . S
C3782 C3765 1.574 . S
C3782 H3776 0.949 . S
C3782 C3786 1.368 . S
C3783 C3764 1.429 . S
C3783 C3777 1.429 . S
C3783 C3784 1.523 . S
C3784 C3765 1.368 . S
C3784 C3778 1.368 . S
C3784 C3783 1.523 . S
C3785 C3769 1.429 . S
C3785 C3781 1.429 . S
C3785 C3786 1.523 . S
C3786 C3770 1.368 . S
C3786 C3782 1.368 . S
C3786 C3785 1.523 . S
H3787 C3762 0.950 . S
H3788 C3764 0.950 . S
H3789 C3765 0.949 . S
H3790 C3767 0.950 . S
H3791 C3769 0.950 . S
C3792 C3793 1.349 . S
C3792 C3794 1.327 . S
C3792 H3817 0.950 . S
C3793 C3792 1.349 . S
C3793 C3809 1.349 . S
C3794 C3792 1.327 . S
C3794 C3813 1.429 . S
C3794 H3818 0.950 . S
C3795 C3812 1.574 . S
C3795 C3814 1.368 . S
C3795 H3819 0.949 . S
H3796 C3800 0.949 . S
C3797 C3798 1.349 . S
C3797 C3799 1.327 . S
C3797 H3820 0.950 . S
C3798 C3797 1.349 . S
C3798 C3810 1.349 . S
C3799 C3797 1.327 . S
C3799 C3815 1.429 . S
C3799 H3821 0.950 . S
C3800 H3796 0.949 . S
C3800 C3808 1.574 . S
C3800 C3816 1.368 . S
H3801 C3809 0.950 . S
H3802 C3807 0.950 . S
H3803 C3808 0.949 . S
H3804 C3810 0.950 . S
H3805 C3811 0.950 . S
H3806 C3812 0.949 . S
C3807 H3802 0.950 . S
C3807 C3809 1.327 . S
C3807 C3813 1.429 . S
C3808 C3800 1.574 . S
C3808 H3803 0.949 . S
C3808 C3814 1.368 . S
C3809 C3793 1.349 . S
C3809 H3801 0.950 . S
C3809 C3807 1.327 . S
C3810 C3798 1.349 . S
C3810 H3804 0.950 . S
C3810 C3811 1.327 . S
C3811 H3805 0.950 . S
C3811 C3810 1.327 . S
C3811 C3815 1.429 . S
C3812 C3795 1.574 . S
C3812 H3806 0.949 . S
C3812 C3816 1.368 . S
C3813 C3794 1.429 . S
C3813 C3807 1.429 . S
C3813 C3814 1.523 . S
C3814 C3795 1.368 . S
C3814 C3808 1.368 . S
C3814 C3813 1.523 . S
C3815 C3799 1.429 . S
C3815 C3811 1.429 . S
C3815 C3816 1.523 . S
C3816 C3800 1.368 . S
C3816 C3812 1.368 . S
C3816 C3815 1.523 . S
H3817 C3792 0.950 . S
H3818 C3794 0.950 . S
H3819 C3795 0.949 . S
H3820 C3797 0.950 . S
H3821 C3799 0.950 . S
C3822 C3823 1.349 . S
C3822 C3824 1.327 . S
C3822 H3847 0.950 . S
C3823 C3822 1.349 . S
C3823 C3839 1.349 . S
C3824 C3822 1.327 . S
C3824 C3843 1.429 . S
C3824 H3848 0.950 . S
C3825 C3842 1.574 . S
C3825 C3844 1.368 . S
C3825 H3849 0.949 . S
H3826 C3830 0.949 . S
C3827 C3828 1.349 . S
C3827 C3829 1.327 . S
C3827 H3850 0.950 . S
C3828 C3827 1.349 . S
C3828 C3840 1.349 . S
C3829 C3827 1.327 . S
C3829 C3845 1.429 . S
C3829 H3851 0.950 . S
C3830 H3826 0.949 . S
C3830 C3838 1.574 . S
C3830 C3846 1.368 . S
H3831 C3839 0.950 . S
H3832 C3837 0.950 . S
H3833 C3838 0.949 . S
H3834 C3840 0.950 . S
H3835 C3841 0.950 . S
H3836 C3842 0.949 . S
C3837 H3832 0.950 . S
C3837 C3839 1.327 . S
C3837 C3843 1.429 . S
C3838 C3830 1.574 . S
C3838 H3833 0.949 . S
C3838 C3844 1.368 . S
C3839 C3823 1.349 . S
C3839 H3831 0.950 . S
C3839 C3837 1.327 . S
C3840 C3828 1.349 . S
C3840 H3834 0.950 . S
C3840 C3841 1.327 . S
C3841 H3835 0.950 . S
C3841 C3840 1.327 . S
C3841 C3845 1.429 . S
C3842 C3825 1.574 . S
C3842 H3836 0.949 . S
C3842 C3846 1.368 . S
C3843 C3824 1.429 . S
C3843 C3837 1.429 . S
C3843 C3844 1.523 . S
C3844 C3825 1.368 . S
C3844 C3838 1.368 . S
C3844 C3843 1.523 . S
C3845 C3829 1.429 . S
C3845 C3841 1.429 . S
C3845 C3846 1.523 . S
C3846 C3830 1.368 . S
C3846 C3842 1.368 . S
C3846 C3845 1.523 . S
H3847 C3822 0.950 . S
H3848 C3824 0.950 . S
H3849 C3825 0.949 . S
H3850 C3827 0.950 . S
H3851 C3829 0.950 . S
C3852 C3853 1.349 . S
C3852 C3854 1.327 . S
C3852 H3877 0.950 . S
C3853 C3852 1.349 . S
C3853 C3869 1.349 . S
C3854 C3852 1.327 . S
C3854 C3873 1.429 . S
C3854 H3878 0.950 . S
C3855 C3872 1.574 . S
C3855 C3874 1.368 . S
C3855 H3879 0.949 . S
H3856 C3860 0.949 . S
C3857 C3858 1.349 . S
C3857 C3859 1.327 . S
C3857 H3880 0.950 . S
C3858 C3857 1.349 . S
C3858 C3870 1.349 . S
C3859 C3857 1.327 . S
C3859 C3875 1.429 . S
C3859 H3881 0.950 . S
C3860 H3856 0.949 . S
C3860 C3868 1.574 . S
C3860 C3876 1.368 . S
H3861 C3869 0.950 . S
H3862 C3867 0.950 . S
H3863 C3868 0.949 . S
H3864 C3870 0.950 . S
H3865 C3871 0.950 . S
H3866 C3872 0.949 . S
C3867 H3862 0.950 . S
C3867 C3869 1.327 . S
C3867 C3873 1.429 . S
C3868 C3860 1.574 . S
C3868 H3863 0.949 . S
C3868 C3874 1.368 . S
C3869 C3853 1.349 . S
C3869 H3861 0.950 . S
C3869 C3867 1.327 . S
C3870 C3858 1.349 . S
C3870 H3864 0.950 . S
C3870 C3871 1.327 . S
C3871 H3865 0.950 . S
C3871 C3870 1.327 . S
C3871 C3875 1.429 . S
C3872 C3855 1.574 . S
C3872 H3866 0.949 . S
C3872 C3876 1.368 . S
C3873 C3854 1.429 . S
C3873 C3867 1.429 . S
C3873 C3874 1.523 . S
C3874 C3855 1.368 . S
C3874 C3868 1.368 . S
C3874 C3873 1.523 . S
C3875 C3859 1.429 . S
C3875 C3871 1.429 . S
C3875 C3876 1.523 . S
C3876 C3860 1.368 . S
C3876 C3872 1.368 . S
C3876 C3875 1.523 . S
H3877 C3852 0.950 . S
H3878 C3854 0.950 . S
H3879 C3855 0.949 . S
H3880 C3857 0.950 . S
H3881 C3859 0.950 . S
C3882 C3883 1.349 . S
C3882 C3884 1.327 . S
C3882 H3907 0.950 . S
C3883 C3882 1.349 . S
C3883 C3899 1.349 . S
C3884 C3882 1.327 . S
C3884 C3903 1.429 . S
C3884 H3908 0.950 . S
C3885 C3902 1.574 . S
C3885 C3904 1.368 . S
C3885 H3909 0.949 . S
H3886 C3890 0.949 . S
C3887 C3888 1.349 . S
C3887 C3889 1.327 . S
C3887 H3910 0.950 . S
C3888 C3887 1.349 . S
C3888 C3900 1.349 . S
C3889 C3887 1.327 . S
C3889 C3905 1.429 . S
C3889 H3911 0.950 . S
C3890 H3886 0.949 . S
C3890 C3898 1.574 . S
C3890 C3906 1.368 . S
H3891 C3899 0.950 . S
H3892 C3897 0.950 . S
H3893 C3898 0.949 . S
H3894 C3900 0.950 . S
H3895 C3901 0.950 . S
H3896 C3902 0.949 . S
C3897 H3892 0.950 . S
C3897 C3899 1.327 . S
C3897 C3903 1.429 . S
C3898 C3890 1.574 . S
C3898 H3893 0.949 . S
C3898 C3904 1.368 . S
C3899 C3883 1.349 . S
C3899 H3891 0.950 . S
C3899 C3897 1.327 . S
C3900 C3888 1.349 . S
C3900 H3894 0.950 . S
C3900 C3901 1.327 . S
C3901 H3895 0.950 . S
C3901 C3900 1.327 . S
C3901 C3905 1.429 . S
C3902 C3885 1.574 . S
C3902 H3896 0.949 . S
C3902 C3906 1.368 . S
C3903 C3884 1.429 . S
C3903 C3897 1.429 . S
C3903 C3904 1.523 . S
C3904 C3885 1.368 . S
C3904 C3898 1.368 . S
C3904 C3903 1.523 . S
C3905 C3889 1.429 . S
C3905 C3901 1.429 . S
C3905 C3906 1.523 . S
C3906 C3890 1.368 . S
C3906 C3902 1.368 . S
C3906 C3905 1.523 . S
H3907 C3882 0.950 . S
H3908 C3884 0.950 . S
H3909 C3885 0.949 . S
H3910 C3887 0.950 . S
H3911 C3889 0.950 . S
C3912 C3913 1.349 . S
C3912 C3914 1.327 . S
C3912 H3937 0.950 . S
C3913 C3912 1.349 . S
C3913 C3929 1.349 . S
C3914 C3912 1.327 . S
C3914 C3933 1.429 . S
C3914 H3938 0.950 . S
C3915 C3932 1.574 . S
C3915 C3934 1.368 . S
C3915 H3939 0.949 . S
H3916 C3920 0.949 . S
C3917 C3918 1.349 . S
C3917 C3919 1.327 . S
C3917 H3940 0.950 . S
C3918 C3917 1.349 . S
C3918 C3930 1.349 . S
C3919 C3917 1.327 . S
C3919 C3935 1.429 . S
C3919 H3941 0.950 . S
C3920 H3916 0.949 . S
C3920 C3928 1.574 . S
C3920 C3936 1.368 . S
H3921 C3929 0.950 . S
H3922 C3927 0.950 . S
H3923 C3928 0.949 . S
H3924 C3930 0.950 . S
H3925 C3931 0.950 . S
H3926 C3932 0.949 . S
C3927 H3922 0.950 . S
C3927 C3929 1.327 . S
C3927 C3933 1.429 . S
C3928 C3920 1.574 . S
C3928 H3923 0.949 . S
C3928 C3934 1.368 . S
C3929 C3913 1.349 . S
C3929 H3921 0.950 . S
C3929 C3927 1.327 . S
C3930 C3918 1.349 . S
C3930 H3924 0.950 . S
C3930 C3931 1.327 . S
C3931 H3925 0.950 . S
C3931 C3930 1.327 . S
C3931 C3935 1.429 . S
C3932 C3915 1.574 . S
C3932 H3926 0.949 . S
C3932 C3936 1.368 . S
C3933 C3914 1.429 . S
C3933 C3927 1.429 . S
C3933 C3934 1.523 . S
C3934 C3915 1.368 . S
C3934 C3928 1.368 . S
C3934 C3933 1.523 . S
C3935 C3919 1.429 . S
C3935 C3931 1.429 . S
C3935 C3936 1.523 . S
C3936 C3920 1.368 . S
C3936 C3932 1.368 . S
C3936 C3935 1.523 . S
H3937 C3912 0.950 . S
H3938 C3914 0.950 . S
H3939 C3915 0.949 . S
H3940 C3917 0.950 . S
H3941 C3919 0.950 . S
C3942 C3943 1.349 . S
C3942 C3944 1.327 . S
C3942 H3967 0.950 . S
C3943 C3942 1.349 . S
C3943 C3959 1.349 . S
C3944 C3942 1.327 . S
C3944 C3963 1.429 . S
C3944 H3968 0.950 . S
C3945 C3962 1.574 . S
C3945 C3964 1.368 . S
C3945 H3969 0.949 . S
H3946 C3950 0.949 . S
C3947 C3948 1.349 . S
C3947 C3949 1.327 . S
C3947 H3970 0.950 . S
C3948 C3947 1.349 . S
C3948 C3960 1.349 . S
C3949 C3947 1.327 . S
C3949 C3965 1.429 . S
C3949 H3971 0.950 . S
C3950 H3946 0.949 . S
C3950 C3958 1.574 . S
C3950 C3966 1.368 . S
H3951 C3959 0.950 . S
H3952 C3957 0.950 . S
H3953 C3958 0.949 . S
H3954 C3960 0.950 . S
H3955 C3961 0.950 . S
H3956 C3962 0.949 . S
C3957 H3952 0.950 . S
C3957 C3959 1.327 . S
C3957 C3963 1.429 . S
C3958 C3950 1.574 . S
C3958 H3953 0.949 . S
C3958 C3964 1.368 . S
C3959 C3943 1.349 . S
C3959 H3951 0.950 . S
C3959 C3957 1.327 . S
C3960 C3948 1.349 . S
C3960 H3954 0.950 . S
C3960 C3961 1.327 . S
C3961 H3955 0.950 . S
C3961 C3960 1.327 . S
C3961 C3965 1.429 . S
C3962 C3945 1.574 . S
C3962 H3956 0.949 . S
C3962 C3966 1.368 . S
C3963 C3944 1.429 . S
C3963 C3957 1.429 . S
C3963 C3964 1.523 . S
C3964 C3945 1.368 . S
C3964 C3958 1.368 . S
C3964 C3963 1.523 . S
C3965 C3949 1.429 . S
C3965 C3961 1.429 . S
C3965 C3966 1.523 . S
C3966 C3950 1.368 . S
C3966 C3962 1.368 . S
C3966 C3965 1.523 . S
H3967 C3942 0.950 . S
H3968 C3944 0.950 . S
H3969 C3945 0.949 . S
H3970 C3947 0.950 . S
H3971 C3949 0.950 . S
C3972 C3973 1.349 . S
C3972 C3974 1.327 . S
C3972 H3997 0.950 . S
C3973 C3972 1.349 . S
C3973 C3989 1.349 . S
C3974 C3972 1.327 . S
C3974 C3993 1.429 . S
C3974 H3998 0.950 . S
C3975 C3992 1.574 . S
C3975 C3994 1.368 . S
C3975 H3999 0.949 . S
H3976 C3980 0.949 . S
C3977 C3978 1.349 . S
C3977 C3979 1.327 . S
C3977 H4000 0.950 . S
C3978 C3977 1.349 . S
C3978 C3990 1.349 . S
C3979 C3977 1.327 . S
C3979 C3995 1.429 . S
C3979 H4001 0.950 . S
C3980 H3976 0.949 . S
C3980 C3988 1.574 . S
C3980 C3996 1.368 . S
H3981 C3989 0.950 . S
H3982 C3987 0.950 . S
H3983 C3988 0.949 . S
H3984 C3990 0.950 . S
H3985 C3991 0.950 . S
H3986 C3992 0.949 . S
C3987 H3982 0.950 . S
C3987 C3989 1.327 . S
C3987 C3993 1.429 . S
C3988 C3980 1.574 . S
C3988 H3983 0.949 . S
C3988 C3994 1.368 . S
C3989 C3973 1.349 . S
C3989 H3981 0.950 . S
C3989 C3987 1.327 . S
C3990 C3978 1.349 . S
C3990 H3984 0.950 . S
C3990 C3991 1.327 . S
C3991 H3985 0.950 . S
C3991 C3990 1.327 . S
C3991 C3995 1.429 . S
C3992 C3975 1.574 . S
C3992 H3986 0.949 . S
C3992 C3996 1.368 . S
C3993 C3974 1.429 . S
C3993 C3987 1.429 . S
C3993 C3994 1.523 . S
C3994 C3975 1.368 . S
C3994 C3988 1.368 . S
C3994 C3993 1.523 . S
C3995 C3979 1.429 . S
C3995 C3991 1.429 . S
C3995 C3996 1.523 . S
C3996 C3980 1.368 . S
C3996 C3992 1.368 . S
C3996 C3995 1.523 . S
H3997 C3972 0.950 . S
H3998 C3974 0.950 . S
H3999 C3975 0.949 . S
H4000 C3977 0.950 . S
H4001 C3979 0.950 . S
C4002 C4003 1.349 . S
C4002 C4004 1.327 . S
C4002 H4027 0.950 . S
C4003 C4002 1.349 . S
C4003 C4019 1.349 . S
C4004 C4002 1.327 . S
C4004 C4023 1.429 . S
C4004 H4028 0.950 . S
C4005 C4022 1.574 . S
C4005 C4024 1.368 . S
C4005 H4029 0.949 . S
H4006 C4010 0.949 . S
C4007 C4008 1.349 . S
C4007 C4009 1.327 . S
C4007 H4030 0.950 . S
C4008 C4007 1.349 . S
C4008 C4020 1.349 . S
C4009 C4007 1.327 . S
C4009 C4025 1.429 . S
C4009 H4031 0.950 . S
C4010 H4006 0.949 . S
C4010 C4018 1.574 . S
C4010 C4026 1.368 . S
H4011 C4019 0.950 . S
H4012 C4017 0.950 . S
H4013 C4018 0.949 . S
H4014 C4020 0.950 . S
H4015 C4021 0.950 . S
H4016 C4022 0.949 . S
C4017 H4012 0.950 . S
C4017 C4019 1.327 . S
C4017 C4023 1.429 . S
C4018 C4010 1.574 . S
C4018 H4013 0.949 . S
C4018 C4024 1.368 . S
C4019 C4003 1.349 . S
C4019 H4011 0.950 . S
C4019 C4017 1.327 . S
C4020 C4008 1.349 . S
C4020 H4014 0.950 . S
C4020 C4021 1.327 . S
C4021 H4015 0.950 . S
C4021 C4020 1.327 . S
C4021 C4025 1.429 . S
C4022 C4005 1.574 . S
C4022 H4016 0.949 . S
C4022 C4026 1.368 . S
C4023 C4004 1.429 . S
C4023 C4017 1.429 . S
C4023 C4024 1.523 . S
C4024 C4005 1.368 . S
C4024 C4018 1.368 . S
C4024 C4023 1.523 . S
C4025 C4009 1.429 . S
C4025 C4021 1.429 . S
C4025 C4026 1.523 . S
C4026 C4010 1.368 . S
C4026 C4022 1.368 . S
C4026 C4025 1.523 . S
H4027 C4002 0.950 . S
H4028 C4004 0.950 . S
H4029 C4005 0.949 . S
H4030 C4007 0.950 . S
H4031 C4009 0.950 . S
C793 C169 0.556 1_545 S
C798 C10 0.577 . S
C823 C183 0.543 1_655 S
C828 C32 0.577 . S
C853 C139 0.581 . S
C858 C52 0.577 . S
C883 C84 0.577 . S
C888 C257 0.556 1_455 S
C913 C219 0.581 . S
C918 C98 0.577 . S
C943 C120 0.577 . S
C948 C235 0.543 1_565 S
C973 C37 0.556 1_565 S
C978 C150 0.577 . S
C1003 C65 0.543 1_455 S
C1008 C164 0.577 . S
C1033 C15 0.581 . S
C1038 C194 0.577 . S
C1063 C206 0.577 . S
C1068 C125 0.556 1_655 S
C1093 C230 0.577 . S
C1098 C73 0.581 . S
C1123 C103 0.543 1_545 S
C1128 C252 0.577 . S
C1153 C274 0.577 . S
C1158 C433 0.581 . S
C1183 C455 0.581 . S
C1188 C294 0.577 . S
C1213 C316 0.577 . S
C1218 C403 0.581 . S
C1243 C348 0.577 . S
C1248 C521 0.581 . S
C1273 C362 0.577 . S
C1278 C477 0.581 . S
C1303 C505 0.581 . S
C1308 C384 0.577 . S
C1333 C307 0.581 . S
C1338 C414 0.577 . S
C1363 C329 0.581 . S
C1368 C428 0.577 . S
C1393 C279 0.581 . S
C1398 C450 0.577 . S
C1423 C472 0.577 . S
C1428 C389 0.581 . S
C1453 C492 0.577 . S
C1458 C337 0.581 . S
C1483 C367 0.581 . S
C1488 C516 0.577 . S
C1513 C538 0.577 . S
C1518 C689 0.581 . S
C1543 C558 0.577 . S
C1548 C719 0.581 . S
C1573 C582 0.577 . S
C1578 C667 0.581 . S
C1603 C785 0.581 . S
C1608 C604 0.577 . S
C1633 C634 0.577 . S
C1638 C741 0.581 . S
C1663 C646 0.577 . S
C1668 C763 0.581 . S
C1693 C571 0.581 . S
C1698 C678 0.577 . S
C1723 C587 0.581 . S
C1728 C700 0.577 . S
C1753 C543 0.581 . S
C1758 C714 0.577 . S
C1783 C736 0.577 . S
C1788 C659 0.581 . S
C1813 C758 0.577 . S
C1818 C609 0.581 . S
C1843 C780 0.577 . S
C1848 C623 0.581 . S
C1873 C8 1.236 . S
C1878 C406 1.236 . S
C1903 C426 1.238 . S
C1908 C30 1.238 . S
C1933 C62 1.237 . S
C1938 C448 1.237 . S
C1963 C734 1.236 . S
C1968 C76 1.236 . S
C1993 C96 1.237 . S
C1998 C756 1.237 . S
C2023 C778 1.237 . S
C2028 C118 1.237 . S
C2053 C536 1.236 . S
C2058 C142 1.236 . S
C2083 C162 1.238 . S
C2088 C568 1.238 . S
C2113 C186 1.237 . S
C2118 C580 1.237 . S
C2143 C340 1.236 . S
C2148 C216 1.236 . S
C2173 C228 1.237 . S
C2178 C360 1.237 . S
C2203 C382 1.237 . S
C2208 C250 1.237 . S
C2233 C272 1.236 . S
C2238 C670 1.236 . S
C2263 C692 1.238 . S
C2268 C304 1.238 . S
C2293 C326 1.237 . S
C2298 C712 1.237 . S
C2323 C470 1.236 . S
C2328 C602 1.236 . S
C2353 C626 1.237 . S
C2358 C502 1.237 . S
C2383 C514 1.237 . S
C2388 C656 1.237 . S
C2413 C21 1.682 . S
C2418 C645 1.682 . S
C2443 C615 1.682 . S
C2448 C43 1.682 1_565 S
C2473 C631 1.681 . S
C2478 C51 1.681 1_455 S
C2503 C293 1.682 . S
C2508 C81 1.682 . S
C2533 C109 1.681 1_545 S
C2538 C315 1.681 . S
C2563 C285 1.682 . S
C2568 C131 1.682 1_655 S
C2593 C147 1.682 . S
C2598 C527 1.682 . S
C2623 C483 1.682 . S
C2628 C175 1.682 1_545 S
C2653 C191 1.681 1_655 S
C2658 C491 1.681 . S
C2683 C697 1.682 . S
C2688 C205 1.682 . S
C2713 C241 1.681 1_565 S
C2718 C725 1.681 . S
C2743 C675 1.682 . S
C2748 C263 1.682 1_455 S
C2773 C557 1.682 . S
C2778 C345 1.682 . S
C2803 C593 1.682 . S
C2808 C373 1.682 . S
C2833 C549 1.682 . S
C2838 C395 1.682 . S
C2863 C791 1.682 . S
C2868 C411 1.682 . S
C2893 C439 1.682 . S
C2898 C747 1.682 . S
C2923 C769 1.682 . S
C2928 C461 1.682 . S
C2953 C40 0.942 . S
C2958 C7 0.943 . S
C2983 C29 0.943 . S
C2988 C54 0.942 . S
C3013 C18 0.942 . S
C3018 C59 0.943 . S
C3043 C87 0.943 . S
C3048 C128 0.942 . S
C3073 C74 0.942 . S
C3078 C95 0.943 . S
C3103 C106 0.942 . S
C3108 C117 0.943 . S
C3133 C172 0.942 . S
C3138 C153 0.943 . S
C3163 C161 0.943 . S
C3168 C184 0.942 . S
C3193 C140 0.942 . S
C3198 C197 0.943 . S
C3223 C260 0.942 . S
C3228 C213 0.943 . S
C3253 C208 0.942 . S
C3258 C227 0.943 . S
C3283 C238 0.942 . S
C3288 C249 0.943 . S
C3313 C296 0.942 . S
C3318 C271 0.943 . S
C3343 C301 0.943 . S
C3348 C318 0.942 . S
C3373 C323 0.943 . S
C3378 C282 0.942 . S
C3403 C351 0.943 . S
C3408 C392 0.942 . S
C3433 C359 0.943 . S
C3438 C338 0.942 . S
C3463 C381 0.943 . S
C3468 C370 0.942 . S
C3493 C436 0.942 . S
C3498 C417 0.943 . S
C3523 C458 0.942 . S
C3528 C425 0.943 . S
C3553 C404 0.942 . S
C3558 C447 0.943 . S
C3583 C469 0.943 . S
C3588 C524 0.942 . S
C3613 C499 0.943 . S
C3618 C480 0.942 . S
C3643 C513 0.943 . S
C3648 C494 0.942 . S
C3673 C560 0.942 . S
C3678 C535 0.943 . S
C3703 C565 0.943 . S
C3708 C590 0.942 . S
C3733 C546 0.942 . S
C3738 C579 0.943 . S
C3763 C601 0.943 . S
C3768 C648 0.942 . S
C3793 C637 0.943 . S
C3798 C612 0.942 . S
C3823 C624 0.942 . S
C3828 C653 0.943 . S
C3853 C690 0.942 . S
C3858 C681 0.943 . S
C3883 C722 0.942 . S
C3888 C703 0.943 . S
C3913 C668 0.942 . S
C3918 C711 0.943 . S
C3943 C733 0.943 . S
C3948 C788 0.942 . S
C3973 C755 0.943 . S
C3978 C744 0.942 . S
C4003 C766 0.942 . S
C4008 C777 0.943 . S
