# Generated by pormake.
# Topology uom, (4)-cn, num edge types: 1
# Building blocks:
#     Node 0, Type 0, BuildingBlock: ESEHIV_clean_sbu_0, # of connection points: 4
#     Node 1, Type 0, BuildingBlock: ESEHIV_clean_sbu_0, # of connection points: 4
#     Node 2, Type 0, BuildingBlock: ESEHIV_clean_sbu_0, # of connection points: 4
#     Node 3, Type 0, BuildingBlock: ESEHIV_clean_sbu_0, # of connection points: 4
#     Node 4, Type 0, BuildingBlock: ESEHIV_clean_sbu_0, # of connection points: 4
#     Node 5, Type 0, BuildingBlock: ESEHIV_clean_sbu_0, # of connection points: 4
#     Edge 6, Type (0, 0), BuildingBlock: AJUNOK_clean_linker_0, # of connection points: 2
#     Edge 7, Type (0, 0), BuildingBlock: AJUNOK_clean_linker_0, # of connection points: 2
#     Edge 8, Type (0, 0), BuildingBlock: AJUNOK_clean_linker_0, # of connection points: 2
#     Edge 9, Type (0, 0), BuildingBlock: AJUNOK_clean_linker_0, # of connection points: 2
#     Edge 10, Type (0, 0), BuildingBlock: AJUNOK_clean_linker_0, # of connection points: 2
#     Edge 11, Type (0, 0), BuildingBlock: AJUNOK_clean_linker_0, # of connection points: 2
#     Edge 12, Type (0, 0), BuildingBlock: AJUNOK_clean_linker_0, # of connection points: 2
#     Edge 13, Type (0, 0), BuildingBlock: AJUNOK_clean_linker_0, # of connection points: 2
#     Edge 14, Type (0, 0), BuildingBlock: AJUNOK_clean_linker_0, # of connection points: 2
#     Edge 15, Type (0, 0), BuildingBlock: AJUNOK_clean_linker_0, # of connection points: 2
#     Edge 16, Type (0, 0), BuildingBlock: AJUNOK_clean_linker_0, # of connection points: 2
#     Edge 17, Type (0, 0), BuildingBlock: AJUNOK_clean_linker_0, # of connection points: 2
# Relax obj value: 0.093
# Max RMSD: 0.202
# Mean RMSD: 0.159
data_MOF--net-uom--node1-ESEHIV_clean_sbu_0--edge1-AJUNOK_clean_linker_0
_symmetry_space_group_name_H-M    P1
_symmetry_Int_Tables_number       1
_symmetry_cell_setting            triclinic
loop_
_symmetry_equiv_pos_as_xyz
'x, y, z'
_cell_length_a     21.402918
_cell_length_b     21.256149
_cell_length_c     35.838842
_cell_angle_alpha  89.987479
_cell_angle_beta   90.723037
_cell_angle_gamma 124.1407
loop_
_atom_site_label
_atom_site_type_symbol
_atom_site_fract_x
_atom_site_fract_y
_atom_site_fract_z
_atom_type_partial_charge
Cu0 Cu 0.39932 0.06905 0.0777 0.0
N1 N 0.35978 -0.01024 1.04205 0.0
N2 N 0.33875 0.93425 0.98595 0.0
C3 C 0.38393 -0.00218 1.00661 0.0
C4 C 0.2842 0.88425 1.00913 0.0
C5 C 0.29751 0.91827 1.04369 0.0
O6 O 0.50928 0.12002 0.07752 0.0
C7 C 0.29008 0.09474 0.06065 0.0
O8 O 0.25141 0.02029 0.06067 0.0
H9 H 0.43088 0.05075 0.99559 0.0
H10 H 0.2609 0.894 0.06736 0.0
N11 N 0.36382 0.03708 0.1263 0.0
N12 N 0.32811 0.04979 0.18303 0.0
C13 C 0.36932 0.08557 0.15237 0.0
C14 C 0.31862 0.96756 0.14104 0.0
C15 C 0.29609 0.97508 0.17576 0.0
C16 C 0.53628 0.0882 0.09542 0.0
O17 O 0.48998 0.02747 0.11507 0.0
H18 H 0.40112 0.1462 0.1479 0.0
H19 H 0.3005 0.91476 0.12718 0.0
O20 O 0.36154 0.13249 0.06575 0.0
H21 H 0.23633 0.82824 1.00116 0.0
H22 H 0.25554 0.92814 0.19285 0.0
Cu23 Cu 0.32396 0.26886 0.41235 0.0
N24 N 0.29922 0.25004 0.36147 0.0
N25 N 0.28589 0.19954 0.30481 0.0
C26 C 0.30548 0.20092 0.34087 0.0
C27 C 0.26701 0.25034 0.30262 0.0
C28 C 0.27493 0.28118 0.3377 0.0
O29 O 0.42728 0.35671 0.41809 0.0
C30 C 0.27718 0.10891 0.43359 0.0
O31 O 0.30577 0.07521 0.45029 0.0
H32 H 0.32698 0.16912 0.35195 0.0
H33 H 0.26479 0.32394 0.34519 0.0
N34 N 0.26493 0.29179 0.43995 0.0
N35 N 0.1912 0.28891 0.48455 0.0
C36 C 0.22895 0.25941 0.47209 0.0
C37 C 0.25013 0.34415 0.4321 0.0
C38 C 0.20442 0.34232 0.45949 0.0
C39 C 0.4825 0.36869 0.39887 0.0
O40 O 0.47048 0.31962 0.37272 0.0
H41 H 0.22982 0.21455 0.48584 0.0
H42 H 0.27064 0.38061 0.40797 0.0
O43 O 0.31974 0.18157 0.43254 0.0
H44 H 0.24957 0.26477 0.27737 0.0
H45 H 0.18127 0.37633 0.46041 0.0
Cu46 Cu 1.01251 0.19588 0.72807 0.0
N47 N 0.92975 0.14374 0.75962 0.0
N48 N 0.86802 0.08816 0.81228 0.0
C49 C 0.9338 0.12064 0.79396 0.0
C50 C 0.82052 0.09124 0.78831 0.0
C51 C 0.85876 0.12537 0.75576 0.0
O52 O 0.06596 0.30448 0.73809 0.0
C53 C 0.03893 0.08357 0.73352 0.0
O54 O 0.967 0.04336 0.72401 0.0
H55 H 0.9847 0.12821 0.80536 0.0
H56 H 0.83699 0.13768 0.73148 0.0
N57 N 0.98769 0.18068 0.67731 0.0
N58 N 1.01059 0.19277 0.61615 0.0
C59 C 0.03759 0.22224 0.65051 0.0
C60 C 0.92668 0.12259 0.6594 0.0
C61 C 0.94085 0.12976 0.62155 0.0
C62 C 0.02964 0.33501 0.73261 0.0
O63 O 0.95901 0.29161 0.72113 0.0
H64 H 0.09468 0.2702 0.6564 0.0
H65 H 0.87729 0.07621 0.67301 0.0
O66 O 0.07297 0.15533 0.73737 0.0
H67 H 0.76333 0.07317 0.79423 0.0
H68 H 0.90397 0.09039 0.59985 0.0
Cu69 Cu 0.88678 0.0359 0.07335 0.0
N70 N 0.84403 -0.00836 1.02649 0.0
N71 N 0.82562 -0.01383 0.9645 0.0
C72 C 0.86377 0.03088 0.99436 0.0
C73 C 0.7812 0.91529 0.97825 0.0
C74 C 0.79279 0.91878 1.0164 0.0
O75 O 0.83872 0.08693 0.08998 0.0
C76 C 0.05237 0.13568 0.08498 0.0
O77 O 0.04334 0.15119 0.11917 0.0
H78 H 0.90598 0.09139 0.99291 0.0
H79 H 0.76692 0.87091 1.03499 0.0
N80 N 0.86426 0.96114 0.1092 0.0
N81 N 0.86837 0.90215 0.16037 0.0
C82 C 0.90713 0.96387 0.13813 0.0
C83 C 0.79642 0.8956 0.11348 0.0
C84 C 0.79912 0.85867 0.14431 0.0
C85 C 0.82301 0.12527 0.06924 0.0
O86 O 0.85405 0.14678 1.03633 0.0
H87 H 0.96448 0.01133 0.14369 0.0
H88 H 0.74711 0.87706 0.09629 0.0
O89 O 0.99486 0.09611 0.06368 0.0
H90 H 0.74498 0.86409 0.9619 0.0
H91 H 0.75298 0.804 0.15411 0.0
Cu92 Cu 0.93338 0.75853 0.40151 0.0
N93 N 0.97015 0.79379 0.35344 0.0
N94 N 0.96806 0.83208 0.29529 0.0
C95 C 0.94067 0.82086 0.33024 0.0
C96 C 1.0188 0.8133 0.29704 0.0
C97 C 1.01968 0.78932 0.33287 0.0
O98 O 0.83419 0.66449 0.39555 0.0
C99 C 0.95511 0.90327 0.42638 0.0
O100 O 0.92296 0.93397 0.442 0.0
H101 H 0.89865 0.83063 0.33905 0.0
H102 H 0.05168 0.7672 0.3427 0.0
N103 N 0.99214 0.73758 0.43194 0.0
N104 N 0.05829 0.73726 0.48083 0.0
C105 C 1.01772 0.76313 0.46703 0.0
C106 C 1.01676 0.69341 0.42348 0.0
C107 C 0.05771 0.69322 0.45353 0.0
C108 C 0.78752 0.6402 0.42217 0.0
O109 O 0.80889 0.67848 0.4538 0.0
H110 H 1.00758 0.80078 0.48197 0.0
H111 H 1.00626 0.66401 0.39714 0.0
O112 O 0.91687 0.8308 0.42454 0.0
H113 H 0.05025 0.81317 0.27366 0.0
H114 H 0.0866 0.66471 0.45478 0.0
Cu115 Cu 0.20864 0.80794 0.73295 0.0
N116 N 0.28606 0.85149 0.7693 0.0
N117 N 0.33511 0.8904 0.82709 0.0
C118 C 0.27213 0.84462 0.80613 0.0
C119 C 0.39124 0.92726 0.80209 0.0
C120 C 0.36089 0.90295 0.76655 0.0
O121 O 0.14895 0.69821 0.73896 0.0
C122 C 0.18933 0.92487 0.74151 0.0
O123 O 0.263 0.96336 0.73848 0.0
H124 H 0.21583 0.8084 0.81711 0.0
H125 H 0.39078 0.92446 0.74064 0.0
N126 N 0.23913 0.82791 0.68313 0.0
N127 N 0.2202 0.82188 0.6212 0.0
C128 C 0.1929 0.78684 0.65421 0.0
C129 C 0.29785 0.89139 0.66788 0.0
C130 C 0.2863 0.88778 0.62969 0.0
C131 C 0.18335 0.66502 0.73782 0.0
O132 O 0.25697 0.70678 0.73383 0.0
H133 H 0.1372 0.73546 0.65773 0.0
H134 H 0.34286 0.93951 0.68347 0.0
O135 O 0.15141 0.85243 0.74044 0.0
H136 H 0.44928 0.97209 0.80852 0.0
H137 H 0.32182 0.93188 0.60992 0.0
C138 C 0.33127 0.15872 0.21068 0.0
C139 C 0.31545 0.08495 0.21428 0.0
C140 C 0.31978 0.19471 0.2399 0.0
C141 C 0.29252 0.15915 0.27442 0.0
H142 H 0.35289 0.18975 0.18506 0.0
H143 H 0.33415 0.2518 0.23567 0.0
S144 S 0.23983 0.96607 0.29955 0.0
N145 N 0.27025 -0.02222 0.25635 0.0
N146 N 0.24687 0.04516 0.3107 0.0
C147 C 0.27539 0.0853 0.27872 0.0
C148 C 0.28718 0.04831 0.24888 0.0
C149 C 0.09557 0.1881 0.52572 0.0
C150 C 0.14415 0.26568 0.51698 0.0
C151 C 0.0501 0.16438 0.55749 0.0
C152 C 0.05258 0.21749 0.58199 0.0
H153 H 0.09258 0.14551 0.50774 0.0
H154 H 1.01439 0.10425 0.56352 0.0
S155 S 0.16925 0.42695 0.57141 0.0
N156 N 0.1911 0.39531 0.53515 0.0
N157 N 0.10596 0.35075 0.59483 0.0
C158 C 0.10028 0.29507 0.57334 0.0
C159 C 0.14588 0.31915 0.54082 0.0
C160 C 0.9049 0.07068 0.91353 0.0
C161 C 0.83425 0.01006 0.92605 0.0
C162 C 0.915 0.09582 0.87661 0.0
C163 C 0.85496 0.06148 0.85038 0.0
H164 H 0.95326 0.09865 0.93234 0.0
H165 H 0.97046 0.14324 0.8687 0.0
S166 S 0.65785 0.90119 0.86903 0.0
N167 N 0.70236 0.91754 0.90951 0.0
N168 N 0.72195 0.96298 0.83968 0.0
C169 C 0.78376 0.00081 0.86249 0.0
C170 C 0.77336 0.97538 0.90032 0.0
C171 C 0.96893 0.90996 0.2 0.0
C172 C 0.89355 0.88726 0.19504 0.0
C173 C 0.99302 0.89238 0.23282 0.0
C174 C 0.94288 0.85178 0.26217 0.0
H175 H 1.00926 0.94019 0.17804 0.0
H176 H 0.05145 0.9108 0.23525 0.0
S177 S 0.73999 0.78185 0.26371 0.0
N178 N 0.7701 0.82575 0.22342 0.0
N179 N 0.81373 0.78919 0.2836 0.0
C180 C 0.86755 0.82962 0.25764 0.0
C181 C 0.84335 0.84815 0.22451 0.0
C182 C 0.18081 0.85405 0.56296 0.0
C183 C 0.18065 0.79981 0.58562 0.0
C184 C 0.13998 0.83306 0.52904 0.0
C185 C 0.09857 0.7573 0.51614 0.0
H186 H 0.21156 0.91292 0.57189 0.0
H187 H 0.14156 0.87657 0.5125 0.0
S188 S 0.08041 0.59383 0.56473 0.0
N189 N 0.13567 0.66718 0.59261 0.0
N190 N 0.05967 0.62793 0.52876 0.0
C191 C 0.09846 0.70268 0.53835 0.0
C192 C 0.13915 0.72385 0.57312 0.0
C193 C 0.27476 0.89888 0.92449 0.0
C194 C 0.34018 0.9254 0.94617 0.0
C195 C 0.27404 0.88857 0.88582 0.0
C196 C 0.33843 0.90292 0.86712 0.0
H197 H 0.22388 0.88696 0.93757 0.0
H198 H 0.22247 0.8699 0.87054 0.0
S199 S 0.52321 0.96923 0.91235 0.0
N200 N 0.47061 0.96482 0.94694 0.0
N201 N 0.46916 0.94243 0.87444 0.0
C202 C 0.40435 0.92899 0.8888 0.0
C203 C 0.40522 0.94087 0.92823 0.0
C204 C 0.18375 0.09785 1.03573 0.0
C205 C 0.24635 0.12942 0.06015 0.0
C206 C 0.12466 0.10668 1.04208 0.0
C207 C 0.12467 0.14611 0.07374 0.0
H208 H 0.17766 0.06109 1.01299 0.0
H209 H 0.07596 0.077 1.02348 0.0
S210 S 0.2832 0.25325 0.14182 0.0
N211 N 0.31108 0.21224 0.11367 0.0
N212 N 0.19919 0.22807 0.12619 0.0
C213 C 0.19063 0.18464 0.09624 0.0
C214 C 0.25168 0.17647 0.08932 0.0
C215 C 0.08386 0.92889 0.41658 0.0
C216 C 0.03588 0.95399 0.41568 0.0
C217 C 0.16238 -0.0199 0.41912 0.0
C218 C 0.19687 0.05943 0.41965 0.0
H219 H 0.06131 0.86985 0.41748 0.0
H220 H 0.1958 0.95669 0.42278 0.0
S221 S 0.09628 0.1523 0.3989 0.0
N222 N 1.02824 0.06165 0.40333 0.0
N223 N 0.17565 0.15776 0.40547 0.0
C224 C 0.14971 0.08448 0.41159 0.0
C225 C 0.06933 0.03195 0.41012 0.0
C226 C 0.03782 0.96521 0.73367 0.0
C227 C 0.07857 0.04478 0.7383 0.0
C228 C 0.07351 0.92662 0.73592 0.0
C229 C 0.1516 0.96594 0.74277 0.0
H230 H 0.97774 0.93211 0.72763 0.0
H231 H 0.03977 0.8657 0.73128 0.0
S232 S 0.28347 0.17381 0.76001 0.0
N233 N 0.20087 0.16097 0.75225 0.0
N234 N 0.26809 0.08874 0.75654 0.0
C235 C 0.19277 0.04525 0.74869 0.0
C236 C 0.15629 0.08456 0.74645 0.0
C237 C 0.7149 0.09283 0.11051 0.0
C238 C 0.75796 0.13023 0.07872 0.0
C239 C 0.64552 0.08352 0.11655 0.0
C240 C 0.61589 0.11155 0.09127 0.0
H241 H 0.73294 0.0671 0.13014 0.0
H242 H 0.61348 0.05141 0.14068 0.0
S243 S 0.71009 0.22213 1.00597 0.0
N244 N 0.76877 0.20208 1.02334 0.0
N245 N 0.63845 0.18443 1.03486 0.0
C246 C 0.66055 0.15364 0.06071 0.0
C247 C 0.73139 0.16297 0.05441 0.0
C248 C 0.69071 0.52378 0.38562 0.0
C249 C 0.70963 0.5708 0.41726 0.0
C250 C 0.61752 0.45848 0.38009 0.0
C251 C 0.55982 0.43774 0.40576 0.0
H252 H 0.73281 0.53727 0.36488 0.0
H253 H 0.60608 0.42443 0.35523 0.0
S254 S 0.57953 0.54136 0.49335 0.0
N255 N 0.66418 0.59157 0.47481 0.0
N256 N 0.527 0.46954 0.46432 0.0
C257 C 0.57791 0.48423 0.43756 0.0
C258 C 0.6526 0.55043 0.44334 0.0
C259 C 0.18281 0.54676 0.74005 0.0
C260 C 0.14198 0.58066 0.73897 0.0
C261 C 0.14614 0.46751 0.739 0.0
C262 C 0.067 0.41858 0.73657 0.0
H263 H 0.24393 0.58167 0.74125 0.0
H264 H 0.18038 0.44463 0.73922 0.0
S265 S 0.9332 0.47777 0.73518 0.0
N266 N 1.01746 0.55846 0.73702 0.0
N267 N 0.94857 0.40988 0.73498 0.0
C268 C 1.02527 0.45155 0.73643 0.0
C269 C 0.06267 0.53234 0.73767 0.0
loop_
_geom_bond_atom_site_label_1
_geom_bond_atom_site_label_2
_geom_bond_distance
_geom_bond_site_symmetry_2
_ccdc_geom_bond_type
Cu0 N1 1.999 1_554 S
Cu0 O6 1.974 . S
Cu0 N11 1.985 . S
Cu0 O20 1.959 . S
N1 Cu0 1.999 1_556 S
N1 C3 1.263 . S
N1 C5 1.389 . S
N2 C3 1.358 . S
N2 C4 1.400 . S
C3 N1 1.263 . S
C3 N2 1.358 . S
C3 H9 0.930 1_545 S
C4 N2 1.400 . S
C4 C5 1.351 . S
C4 H21 0.930 . S
C5 N1 1.389 . S
C5 C4 1.351 . S
C5 H10 0.930 . S
O6 Cu0 1.974 . S
O6 C16 1.299 . S
C7 O8 1.261 1_545 S
C7 O20 1.251 . S
O8 C7 1.261 1_565 S
H9 C3 0.930 1_565 S
H10 C5 0.930 . S
N11 Cu0 1.985 . S
N11 C13 1.335 . S
N11 C14 1.390 . S
N12 C13 1.345 . S
N12 C15 1.336 . S
C13 N11 1.335 . S
C13 N12 1.345 . S
C13 H18 0.930 . S
C14 N11 1.390 . S
C14 C15 1.346 . S
C14 H19 0.930 . S
C15 N12 1.336 . S
C15 C14 1.346 . S
C15 H22 0.929 . S
C16 O6 1.299 . S
C16 O17 1.207 1_545 S
O17 C16 1.207 1_565 S
H18 C13 0.930 . S
H19 C14 0.930 . S
O20 Cu0 1.959 . S
O20 C7 1.251 . S
H21 C4 0.930 . S
H22 C15 0.929 . S
Cu23 N24 1.999 . S
Cu23 O29 1.974 . S
Cu23 N34 1.985 . S
Cu23 O43 1.959 . S
N24 Cu23 1.999 . S
N24 C26 1.263 . S
N24 C28 1.389 . S
N25 C26 1.358 . S
N25 C27 1.400 . S
C26 N24 1.263 . S
C26 N25 1.358 . S
C26 H32 0.930 . S
C27 N25 1.400 . S
C27 C28 1.351 . S
C27 H44 0.930 . S
C28 N24 1.389 . S
C28 C27 1.351 . S
C28 H33 0.930 . S
O29 Cu23 1.974 . S
O29 C39 1.282 . S
C30 O31 1.261 . S
C30 O43 1.251 . S
O31 C30 1.261 . S
H32 C26 0.930 . S
H33 C28 0.930 . S
N34 Cu23 1.985 . S
N34 C36 1.335 . S
N34 C37 1.390 . S
N35 C36 1.345 . S
N35 C38 1.336 . S
C36 N34 1.335 . S
C36 N35 1.345 . S
C36 H41 0.930 . S
C37 N34 1.390 . S
C37 C38 1.346 . S
C37 H42 0.930 . S
C38 N35 1.336 . S
C38 C37 1.346 . S
C38 H45 0.929 . S
C39 O29 1.282 . S
C39 O40 1.216 . S
O40 C39 1.216 . S
H41 C36 0.930 . S
H42 C37 0.930 . S
O43 Cu23 1.959 . S
O43 C30 1.251 . S
H44 C27 0.930 . S
H45 C38 0.929 . S
Cu46 N47 1.999 . S
Cu46 O52 1.974 . S
Cu46 N57 1.985 . S
Cu46 O66 1.959 . S
N47 Cu46 1.999 . S
N47 C49 1.263 1_455 S
N47 C51 1.389 . S
N48 C49 1.358 . S
N48 C50 1.400 1_655 S
C49 N47 1.263 1_655 S
C49 N48 1.358 . S
C49 H55 0.930 . S
C50 N48 1.400 1_455 S
C50 C51 1.351 . S
C50 H67 0.930 . S
C51 N47 1.389 . S
C51 C50 1.351 . S
C51 H56 0.930 . S
O52 Cu46 1.974 . S
O52 C62 1.282 1_455 S
C53 O54 1.261 . S
C53 O66 1.251 1_655 S
O54 C53 1.261 . S
H55 C49 0.930 . S
H56 C51 0.930 . S
N57 Cu46 1.985 . S
N57 C59 1.335 . S
N57 C60 1.390 . S
N58 C59 1.345 . S
N58 C61 1.336 . S
C59 N57 1.335 . S
C59 N58 1.345 . S
C59 H64 0.930 . S
C60 N57 1.390 . S
C60 C61 1.346 . S
C60 H65 0.930 . S
C61 N58 1.336 . S
C61 C60 1.346 . S
C61 H68 0.929 . S
C62 O52 1.282 1_655 S
C62 O63 1.216 . S
O63 C62 1.216 . S
H64 C59 0.930 . S
H65 C60 0.930 . S
O66 Cu46 1.959 . S
O66 C53 1.251 1_455 S
H67 C50 0.930 . S
H68 C61 0.929 . S
Cu69 N70 1.999 1_564 S
Cu69 O75 1.974 1_565 S
Cu69 N80 1.985 . S
Cu69 O89 1.959 . S
N70 Cu69 1.999 1_546 S
N70 C72 1.263 . S
N70 C74 1.389 1_545 S
N71 C72 1.358 . S
N71 C73 1.400 . S
C72 N70 1.263 . S
C72 N71 1.358 . S
C72 H78 0.930 . S
C73 N71 1.400 . S
C73 C74 1.351 1_545 S
C73 H90 0.930 . S
C74 N70 1.389 1_565 S
C74 C73 1.351 1_565 S
C74 H79 0.930 . S
O75 Cu69 1.974 1_545 S
O75 C85 1.282 . S
C76 O77 1.261 . S
C76 O89 1.251 1_545 S
O77 C76 1.261 . S
H78 C72 0.930 . S
H79 C74 0.930 . S
N80 Cu69 1.985 . S
N80 C82 1.335 . S
N80 C83 1.390 1_565 S
N81 C82 1.345 . S
N81 C84 1.336 . S
C82 N80 1.335 . S
C82 N81 1.345 . S
C82 H87 0.930 . S
C83 N80 1.390 1_545 S
C83 C84 1.346 1_545 S
C83 H88 0.930 . S
C84 N81 1.336 . S
C84 C83 1.346 1_565 S
C84 H91 0.929 . S
C85 O75 1.282 . S
C85 O86 1.216 . S
O86 C85 1.216 . S
H87 C82 0.930 . S
H88 C83 0.930 . S
O89 Cu69 1.959 . S
O89 C76 1.251 1_565 S
H90 C73 0.930 . S
H91 C84 0.929 . S
Cu92 N93 1.999 . S
Cu92 O98 1.974 . S
Cu92 N103 1.985 . S
Cu92 O112 1.959 . S
N93 Cu92 1.999 . S
N93 C95 1.263 . S
N93 C97 1.389 . S
N94 C95 1.358 . S
N94 C96 1.400 . S
C95 N93 1.263 . S
C95 N94 1.358 . S
C95 H101 0.930 . S
C96 N94 1.400 . S
C96 C97 1.351 . S
C96 H113 0.930 . S
C97 N93 1.389 . S
C97 C96 1.351 . S
C97 H102 0.930 . S
O98 Cu92 1.974 . S
O98 C108 1.282 . S
C99 O100 1.261 . S
C99 O112 1.251 . S
O100 C99 1.261 . S
H101 C95 0.930 . S
H102 C97 0.930 . S
N103 Cu92 1.985 . S
N103 C105 1.335 . S
N103 C106 1.390 . S
N104 C105 1.345 . S
N104 C107 1.336 . S
C105 N103 1.335 . S
C105 N104 1.345 . S
C105 H110 0.930 . S
C106 N103 1.390 . S
C106 C107 1.346 . S
C106 H111 0.930 . S
C107 N104 1.336 . S
C107 C106 1.346 . S
C107 H114 0.929 . S
C108 O98 1.282 . S
C108 O109 1.216 . S
O109 C108 1.216 . S
H110 C105 0.930 . S
H111 C106 0.930 . S
O112 Cu92 1.959 . S
O112 C99 1.251 . S
H113 C96 0.930 . S
H114 C107 0.929 . S
Cu115 N116 1.999 . S
Cu115 O121 1.974 . S
Cu115 N126 1.985 . S
Cu115 O135 1.959 . S
N116 Cu115 1.999 . S
N116 C118 1.263 . S
N116 C120 1.389 . S
N117 C118 1.358 . S
N117 C119 1.400 . S
C118 N116 1.263 . S
C118 N117 1.358 . S
C118 H124 0.930 . S
C119 N117 1.400 . S
C119 C120 1.351 . S
C119 H136 0.930 . S
C120 N116 1.389 . S
C120 C119 1.351 . S
C120 H125 0.930 . S
O121 Cu115 1.974 . S
O121 C131 1.282 . S
C122 O123 1.261 . S
C122 O135 1.251 . S
O123 C122 1.261 . S
H124 C118 0.930 . S
H125 C120 0.930 . S
N126 Cu115 1.985 . S
N126 C128 1.335 . S
N126 C129 1.390 . S
N127 C128 1.345 . S
N127 C130 1.336 . S
C128 N126 1.335 . S
C128 N127 1.345 . S
C128 H133 0.930 . S
C129 N126 1.390 . S
C129 C130 1.346 . S
C129 H134 0.930 . S
C130 N127 1.336 . S
C130 C129 1.346 . S
C130 H137 0.929 . S
C131 O121 1.282 . S
C131 O132 1.216 . S
O132 C131 1.216 . S
H133 C128 0.930 . S
H134 C129 0.930 . S
O135 Cu115 1.959 . S
O135 C122 1.251 . S
H136 C119 0.930 . S
H137 C130 0.929 . S
C138 C139 1.369 . S
C138 C140 1.419 . S
C138 H142 0.930 . S
C139 C138 1.369 . S
C139 C148 1.429 . S
C140 C138 1.419 . S
C140 C141 1.363 . S
C140 H143 0.929 . S
C141 C140 1.363 . S
C141 C147 1.428 . S
H142 C138 0.930 . S
H143 C140 0.929 . S
S144 N145 1.613 . S
S144 N146 1.610 . S
N145 S144 1.613 . S
N145 C148 1.350 . S
N146 S144 1.610 . S
N146 C147 1.351 . S
C147 C141 1.428 . S
C147 N146 1.351 . S
C147 C148 1.434 . S
C148 C139 1.429 . S
C148 N145 1.350 . S
C148 C147 1.434 . S
C149 C150 1.369 . S
C149 C151 1.419 . S
C149 H153 0.930 . S
C150 C149 1.369 . S
C150 C159 1.429 . S
C151 C149 1.419 . S
C151 C152 1.363 . S
C151 H154 0.929 . S
C152 C151 1.363 . S
C152 C158 1.428 . S
H153 C149 0.930 . S
H154 C151 0.929 . S
S155 N156 1.613 . S
S155 N157 1.610 . S
N156 S155 1.613 . S
N156 C159 1.350 . S
N157 S155 1.610 . S
N157 C158 1.351 . S
C158 C152 1.428 . S
C158 N157 1.351 . S
C158 C159 1.434 . S
C159 C150 1.429 . S
C159 N156 1.350 . S
C159 C158 1.434 . S
C160 C161 1.369 . S
C160 C162 1.419 . S
C160 H164 0.930 . S
C161 C160 1.369 . S
C161 C170 1.429 . S
C162 C160 1.419 . S
C162 C163 1.363 . S
C162 H165 0.929 . S
C163 C162 1.363 . S
C163 C169 1.428 . S
H164 C160 0.930 . S
H165 C162 0.929 . S
S166 N167 1.613 . S
S166 N168 1.610 1_565 S
N167 S166 1.613 . S
N167 C170 1.350 1_565 S
N168 S166 1.610 1_545 S
N168 C169 1.351 . S
C169 C163 1.428 . S
C169 N168 1.351 . S
C169 C170 1.434 . S
C170 C161 1.429 . S
C170 N167 1.350 1_545 S
C170 C169 1.434 . S
C171 C172 1.369 . S
C171 C173 1.419 . S
C171 H175 0.930 . S
C172 C171 1.369 . S
C172 C181 1.429 . S
C173 C171 1.419 . S
C173 C174 1.363 . S
C173 H176 0.929 . S
C174 C173 1.363 . S
C174 C180 1.428 . S
H175 C171 0.930 . S
H176 C173 0.929 . S
S177 N178 1.613 . S
S177 N179 1.610 . S
N178 S177 1.613 . S
N178 C181 1.350 . S
N179 S177 1.610 . S
N179 C180 1.351 . S
C180 C174 1.428 . S
C180 N179 1.351 . S
C180 C181 1.434 . S
C181 C172 1.429 . S
C181 N178 1.350 . S
C181 C180 1.434 . S
C182 C183 1.369 . S
C182 C184 1.419 . S
C182 H186 0.930 . S
C183 C182 1.369 . S
C183 C192 1.429 1_455 S
C184 C182 1.419 . S
C184 C185 1.363 1_455 S
C184 H187 0.929 . S
C185 C184 1.363 1_655 S
C185 C191 1.428 . S
H186 C182 0.930 . S
H187 C184 0.929 . S
S188 N189 1.613 . S
S188 N190 1.610 . S
N189 S188 1.613 . S
N189 C192 1.350 . S
N190 S188 1.610 . S
N190 C191 1.351 . S
C191 C185 1.428 . S
C191 N190 1.351 . S
C191 C192 1.434 . S
C192 C183 1.429 1_655 S
C192 N189 1.350 . S
C192 C191 1.434 . S
C193 C194 1.369 . S
C193 C195 1.419 . S
C193 H197 0.930 . S
C194 C193 1.369 . S
C194 C203 1.429 . S
C195 C193 1.419 . S
C195 C196 1.363 . S
C195 H198 0.929 . S
C196 C195 1.363 . S
C196 C202 1.428 . S
H197 C193 0.930 . S
H198 C195 0.929 . S
S199 N200 1.613 . S
S199 N201 1.610 1_545 S
N200 S199 1.613 . S
N200 C203 1.350 1_545 S
N201 S199 1.610 1_565 S
N201 C202 1.351 . S
C202 C196 1.428 . S
C202 N201 1.351 . S
C202 C203 1.434 . S
C203 C194 1.429 . S
C203 N200 1.350 1_565 S
C203 C202 1.434 . S
C204 C205 1.369 . S
C204 C206 1.419 . S
C204 H208 0.930 1_544 S
C205 C204 1.369 . S
C205 C214 1.429 . S
C206 C204 1.419 . S
C206 C207 1.363 . S
C206 H209 0.929 1_554 S
C207 C206 1.363 . S
C207 C213 1.428 . S
H208 C204 0.930 1_566 S
H209 C206 0.929 1_556 S
S210 N211 1.613 . S
S210 N212 1.610 . S
N211 S210 1.613 . S
N211 C214 1.350 . S
N212 S210 1.610 . S
N212 C213 1.351 . S
C213 C207 1.428 . S
C213 N212 1.351 . S
C213 C214 1.434 . S
C214 C205 1.429 . S
C214 N211 1.350 . S
C214 C213 1.434 . S
C215 C216 1.369 . S
C215 C217 1.419 1_565 S
C215 H219 0.930 . S
C216 C215 1.369 . S
C216 C225 1.429 1_565 S
C217 C215 1.419 1_545 S
C217 C218 1.363 . S
C217 H220 0.929 . S
C218 C217 1.363 . S
C218 C224 1.428 . S
H219 C215 0.930 . S
H220 C217 0.929 . S
S221 N222 1.613 . S
S221 N223 1.610 . S
N222 S221 1.613 . S
N222 C225 1.350 . S
N223 S221 1.610 . S
N223 C224 1.351 . S
C224 C218 1.428 . S
C224 N223 1.351 . S
C224 C225 1.434 . S
C225 C216 1.429 1_545 S
C225 N222 1.350 . S
C225 C224 1.434 . S
C226 C227 1.369 1_565 S
C226 C228 1.419 . S
C226 H230 0.930 1_455 S
C227 C226 1.369 1_545 S
C227 C236 1.429 . S
C228 C226 1.419 . S
C228 C229 1.363 1_565 S
C228 H231 0.929 . S
C229 C228 1.363 1_545 S
C229 C235 1.428 . S
H230 C226 0.930 1_655 S
H231 C228 0.929 . S
S232 N233 1.613 . S
S232 N234 1.610 . S
N233 S232 1.613 . S
N233 C236 1.350 . S
N234 S232 1.610 . S
N234 C235 1.351 . S
C235 C229 1.428 . S
C235 N234 1.351 . S
C235 C236 1.434 . S
C236 C227 1.429 . S
C236 N233 1.350 . S
C236 C235 1.434 . S
C237 C238 1.376 1_565 S
C237 C239 1.418 . S
C237 H241 0.923 1_554 S
C238 C237 1.376 1_545 S
C238 C247 1.429 . S
C239 C237 1.418 . S
C239 C240 1.374 1_565 S
C239 H242 0.918 1_554 S
C240 C239 1.374 1_545 S
C240 C246 1.428 . S
H241 C237 0.923 1_556 S
H242 C239 0.918 1_556 S
S243 N244 1.613 . S
S243 N245 1.610 . S
N244 S243 1.613 . S
N244 C247 1.350 . S
N245 S243 1.610 . S
N245 C246 1.351 . S
C246 C240 1.428 . S
C246 N245 1.351 . S
C246 C247 1.434 . S
C247 C238 1.429 . S
C247 N244 1.350 . S
C247 C246 1.434 . S
C248 C249 1.369 . S
C248 C250 1.419 . S
C248 H252 0.930 . S
C249 C248 1.369 . S
C249 C258 1.429 . S
C250 C248 1.419 . S
C250 C251 1.363 . S
C250 H253 0.929 . S
C251 C250 1.363 . S
C251 C257 1.428 . S
H252 C248 0.930 . S
H253 C250 0.929 . S
S254 N255 1.613 . S
S254 N256 1.610 . S
N255 S254 1.613 . S
N255 C258 1.350 . S
N256 S254 1.610 . S
N256 C257 1.351 . S
C257 C251 1.428 . S
C257 N256 1.351 . S
C257 C258 1.434 . S
C258 C249 1.429 . S
C258 N255 1.350 . S
C258 C257 1.434 . S
C259 C260 1.369 . S
C259 C261 1.419 . S
C259 H263 0.930 . S
C260 C259 1.369 . S
C260 C269 1.429 . S
C261 C259 1.419 . S
C261 C262 1.363 . S
C261 H264 0.929 . S
C262 C261 1.363 . S
C262 C268 1.428 . S
H263 C259 0.930 . S
H264 C261 0.929 . S
S265 N266 1.613 . S
S265 N267 1.610 1_455 S
N266 S265 1.613 . S
N266 C269 1.350 . S
N267 S265 1.610 1_655 S
N267 C268 1.351 1_655 S
C268 C262 1.428 . S
C268 N267 1.351 1_455 S
C268 C269 1.434 . S
C269 C260 1.429 . S
C269 N266 1.350 . S
C269 C268 1.434 . S
C139 N12 1.686 . S
C141 N25 1.573 . S
C150 N35 1.619 . S
C152 N58 1.601 . S
C161 N71 1.699 . S
C163 N48 1.666 . S
C172 N81 1.683 . S
C174 N94 1.577 . S
C183 N127 1.603 . S
C185 N104 1.619 . S
C194 N2 1.702 1_565 S
C196 N117 1.667 . S
C205 C7 1.740 . S
C207 C76 1.739 1_455 S
C216 C99 0.449 1_455 S
C218 C30 0.440 . S
C227 C53 1.756 1_455 S
C229 C122 1.757 1_545 S
C238 C85 1.759 . S
C240 C16 1.751 . S
C249 C108 1.328 . S
C251 C39 1.328 . S
C260 C131 2.149 . S
C262 C62 2.150 1_455 S
