# Generated by pormake.
# Topology umx, (4)-cn, num edge types: 1
# Building blocks:
#     Node 0, Type 0, BuildingBlock: NAWXER_clean_sbu_0, # of connection points: 4
#     Node 1, Type 0, BuildingBlock: NAWXER_clean_sbu_0, # of connection points: 4
#     Node 2, Type 0, BuildingBlock: NAWXER_clean_sbu_0, # of connection points: 4
#     Node 3, Type 0, BuildingBlock: NAWXER_clean_sbu_0, # of connection points: 4
#     Node 4, Type 0, BuildingBlock: NAWXER_clean_sbu_0, # of connection points: 4
#     Node 5, Type 0, BuildingBlock: NAWXER_clean_sbu_0, # of connection points: 4
#     Node 6, Type 0, BuildingBlock: NAWXER_clean_sbu_0, # of connection points: 4
#     Node 7, Type 0, BuildingBlock: NAWXER_clean_sbu_0, # of connection points: 4
#     Edge 8, Type (0, 0), BuildingBlock: OJICUG_clean_linker_0, # of connection points: 2
#     Edge 9, Type (0, 0), BuildingBlock: OJICUG_clean_linker_0, # of connection points: 2
#     Edge 10, Type (0, 0), BuildingBlock: OJICUG_clean_linker_0, # of connection points: 2
#     Edge 11, Type (0, 0), BuildingBlock: OJICUG_clean_linker_0, # of connection points: 2
#     Edge 12, Type (0, 0), BuildingBlock: OJICUG_clean_linker_0, # of connection points: 2
#     Edge 13, Type (0, 0), BuildingBlock: OJICUG_clean_linker_0, # of connection points: 2
#     Edge 14, Type (0, 0), BuildingBlock: OJICUG_clean_linker_0, # of connection points: 2
#     Edge 15, Type (0, 0), BuildingBlock: OJICUG_clean_linker_0, # of connection points: 2
#     Edge 16, Type (0, 0), BuildingBlock: OJICUG_clean_linker_0, # of connection points: 2
#     Edge 17, Type (0, 0), BuildingBlock: OJICUG_clean_linker_0, # of connection points: 2
#     Edge 18, Type (0, 0), BuildingBlock: OJICUG_clean_linker_0, # of connection points: 2
#     Edge 19, Type (0, 0), BuildingBlock: OJICUG_clean_linker_0, # of connection points: 2
#     Edge 20, Type (0, 0), BuildingBlock: OJICUG_clean_linker_0, # of connection points: 2
#     Edge 21, Type (0, 0), BuildingBlock: OJICUG_clean_linker_0, # of connection points: 2
#     Edge 22, Type (0, 0), BuildingBlock: OJICUG_clean_linker_0, # of connection points: 2
#     Edge 23, Type (0, 0), BuildingBlock: OJICUG_clean_linker_0, # of connection points: 2
# Relax obj value: 0.027
# Max RMSD: 0.221
# Mean RMSD: 0.220
data_MOF--net-umx--node1-NAWXER_clean_sbu_0--edge1-OJICUG_clean_linker_0
_symmetry_space_group_name_H-M    P1
_symmetry_Int_Tables_number       1
_symmetry_cell_setting            triclinic
loop_
_symmetry_equiv_pos_as_xyz
'x, y, z'
_cell_length_a     28.973567
_cell_length_b     28.861085
_cell_length_c     21.101243
_cell_angle_alpha  94.296946
_cell_angle_beta   94.055592
_cell_angle_gamma 89.97116
loop_
_atom_site_label
_atom_site_type_symbol
_atom_site_fract_x
_atom_site_fract_y
_atom_site_fract_z
_atom_type_partial_charge
C0 C 0.22305 0.36638 0.02307 0.0
C1 C 0.08068 0.45343 0.02363 0.0
O2 O 0.18122 0.35299 0.0169 0.0
Zn3 Zn 0.15299 0.41171 0.02169 0.0
O4 O 0.23228 0.41015 0.02978 0.0
Zn5 Zn 0.19052 0.47353 0.03372 0.0
O6 O 0.20815 0.50313 0.11621 0.0
O7 O 0.16972 0.43744 0.11976 0.0
O8 O 0.11579 0.48096 0.03042 0.0
O9 O 0.08703 0.40999 0.01589 0.0
O10 O 0.16971 0.43996 0.93414 0.0
O11 O 0.20702 0.50573 0.96199 0.0
C12 C 0.19053 0.47315 0.14848 0.0
C13 C 0.19023 0.47642 0.91871 0.0
C14 C 0.50005 0.18781 0.42196 0.0
C15 C 0.50508 0.19496 0.65301 0.0
O16 O 0.47086 0.20522 0.45891 0.0
Zn17 Zn 0.50401 0.19165 0.53727 0.0
O18 O 0.53662 0.16836 0.44536 0.0
Zn19 Zn 0.56561 0.15462 0.5397 0.0
O20 O 0.56758 0.0884 0.5368 0.0
O21 O 0.49684 0.11659 0.53495 0.0
O22 O 0.54046 0.17358 0.63217 0.0
O23 O 0.47547 0.21167 0.61393 0.0
O24 O 0.56687 0.23405 0.5388 0.0
O25 O 0.62399 0.18366 0.54359 0.0
C26 C 0.52429 0.08163 0.5351 0.0
C27 C 0.61047 0.22526 0.54084 0.0
C28 C 0.89527 0.52536 0.03961 0.0
C29 C 0.75298 0.61249 0.04069 0.0
O30 O 0.86016 0.49784 0.03286 0.0
Zn31 Zn 0.7855 0.50531 0.02976 0.0
O32 O 0.88891 0.56879 0.04745 0.0
Zn33 Zn 0.82293 0.56718 0.04176 0.0
O34 O 0.80596 0.53901 0.12937 0.0
O35 O 0.7689 0.47313 0.10133 0.0
O36 O 0.79477 0.62602 0.04671 0.0
O37 O 0.74385 0.5687 0.03396 0.0
O38 O 0.76756 0.47583 0.94742 0.0
O39 O 0.80581 0.54159 0.94361 0.0
C40 C 0.7854 0.50252 0.14468 0.0
C41 C 0.7849 0.50589 0.91502 0.0
C42 C 0.46686 0.78422 0.4091 0.0
C43 C 0.474 0.78612 0.64039 0.0
O44 O 0.43381 0.80813 0.43206 0.0
Zn45 Zn 0.40854 0.82317 0.52521 0.0
O46 O 0.49451 0.7628 0.44582 0.0
Zn47 Zn 0.4689 0.78402 0.52483 0.0
O48 O 0.40549 0.74348 0.52413 0.0
O49 O 0.34937 0.79489 0.52002 0.0
O50 O 0.50245 0.76846 0.60245 0.0
O51 O 0.43789 0.80696 0.61819 0.0
O52 O 0.40788 0.88905 0.53203 0.0
O53 O 0.47806 0.85951 0.52947 0.0
C54 C 0.36213 0.75302 0.52231 0.0
C55 C 0.45123 0.89504 0.53204 0.0
C56 C 0.18566 0.50251 0.42119 0.0
C57 C 0.19223 0.50743 0.65207 0.0
O58 O 0.16597 0.53908 0.44481 0.0
Zn59 Zn 0.15167 0.56791 0.53931 0.0
O60 O 0.20286 0.47314 0.4579 0.0
Zn61 Zn 0.18873 0.50617 0.53635 0.0
O62 O 0.11406 0.49843 0.53368 0.0
O63 O 0.08577 0.56937 0.53647 0.0
O64 O 0.20876 0.47762 0.61272 0.0
O65 O 0.1708 0.54286 0.63154 0.0
O66 O 0.18016 0.62681 0.54347 0.0
O67 O 0.23054 0.56957 0.53828 0.0
C68 C 0.07914 0.52586 0.53409 0.0
C69 C 0.22164 0.61332 0.54058 0.0
C70 C 0.36383 0.22419 0.02405 0.0
C71 C 0.44976 0.08072 0.02316 0.0
O72 O 0.40746 0.23323 0.03059 0.0
Zn73 Zn 0.47033 0.19098 0.03431 0.0
O74 O 0.35028 0.18225 0.01807 0.0
Zn75 Zn 0.40863 0.15359 0.02244 0.0
O76 O 0.43431 0.17022 0.12059 0.0
O77 O 0.49985 0.2085 0.11671 0.0
O78 O 0.40651 0.08727 0.01603 0.0
O79 O 0.47729 0.11588 0.03004 0.0
O80 O 0.50261 0.20753 0.96277 0.0
O81 O 0.43696 0.17042 0.93474 0.0
C82 C 0.46999 0.19096 0.14915 0.0
C83 C 0.47341 0.19093 0.91942 0.0
C84 C 0.7869 0.47659 0.64196 0.0
C85 C 0.78044 0.47165 0.41099 0.0
O86 O 0.76953 0.50595 0.60535 0.0
Zn87 Zn 0.78342 0.47283 0.52673 0.0
O88 O 0.80644 0.43999 0.61821 0.0
Zn89 Zn 0.82044 0.41103 0.5238 0.0
O90 O 0.88635 0.40934 0.52668 0.0
O91 O 0.85815 0.48033 0.52947 0.0
O92 O 0.80172 0.4362 0.43167 0.0
O93 O 0.76369 0.50144 0.45018 0.0
O94 O 0.74135 0.40958 0.52482 0.0
O95 O 0.79167 0.35232 0.51957 0.0
C96 C 0.89303 0.45284 0.52908 0.0
C97 C 0.7502 0.36581 0.52248 0.0
C98 C 0.61084 0.75317 0.04007 0.0
C99 C 0.52199 0.8946 0.03601 0.0
O100 O 0.62345 0.79536 0.04661 0.0
Zn101 Zn 0.56434 0.82307 0.03943 0.0
O102 O 0.5675 0.74324 0.03242 0.0
Zn103 Zn 0.50402 0.78346 0.02838 0.0
O104 O 0.47491 0.76439 0.94599 0.0
O105 O 0.53929 0.80448 0.94149 0.0
O106 O 0.49493 0.85896 0.031 0.0
O107 O 0.56541 0.88884 0.04225 0.0
O108 O 0.53448 0.8102 0.12756 0.0
O109 O 0.4737 0.76505 0.10099 0.0
C110 C 0.50429 0.78241 0.91321 0.0
C111 C 0.50004 0.78689 0.14362 0.0
C112 C 0.19216 0.52572 0.24811 0.0
C113 C 0.19163 0.48047 0.21849 0.0
H114 H 0.18967 0.5681 0.33563 0.0
C115 C 0.19007 0.44244 0.25612 0.0
H116 H 0.19303 0.55565 0.22013 0.0
C117 C 0.18914 0.44957 0.32229 0.0
C118 C 0.18839 0.49484 0.35169 0.0
H119 H 0.18967 0.40721 0.2344 0.0
H120 H 0.18791 0.41968 0.3503 0.0
C121 C 0.18992 0.53285 0.31404 0.0
C122 C 0.53471 0.19588 0.76745 0.0
C123 C 0.49726 0.19711 0.72156 0.0
H124 H 0.55644 0.194 0.8665 0.0
C125 C 0.45197 0.1978 0.74144 0.0
H126 H 0.56995 0.19532 0.75336 0.0
C127 C 0.44423 0.1958 0.80582 0.0
C128 C 0.48165 0.19438 0.85169 0.0
H129 H 0.42246 0.1984 0.707 0.0
H130 H 0.40896 0.19543 0.81974 0.0
C131 C 0.52697 0.19522 0.83208 0.0
C132 C 0.77968 0.44156 0.29661 0.0
C133 C 0.77843 0.47931 0.34248 0.0
H134 H 0.78185 0.41938 0.19759 0.0
C135 C 0.77793 0.52471 0.32259 0.0
H136 H 0.78009 0.40622 0.31072 0.0
C137 C 0.78019 0.53224 0.25822 0.0
C138 C 0.78168 0.49451 0.21238 0.0
H139 H 0.77731 0.55446 0.35703 0.0
H140 H 0.78072 0.5676 0.24428 0.0
C141 C 0.78061 0.44908 0.23199 0.0
C142 C 0.5346 0.78221 0.80493 0.0
C143 C 0.49689 0.78048 0.84309 0.0
H144 H 0.55689 0.78422 0.7103 0.0
C145 C 0.45178 0.77917 0.81387 0.0
H146 H 0.56974 0.7832 0.82631 0.0
C147 C 0.44444 0.78103 0.74793 0.0
C148 C 0.4821 0.78289 0.70977 0.0
H149 H 0.42208 0.77814 0.84219 0.0
H150 H 0.40926 0.78089 0.72675 0.0
C151 C 0.52727 0.78268 0.73869 0.0
C152 C 0.78351 0.44632 0.74922 0.0
C153 C 0.78473 0.48433 0.71154 0.0
H154 H 0.78143 0.42349 0.84324 0.0
C155 C 0.78451 0.5296 0.74102 0.0
H156 H 0.78339 0.41106 0.72759 0.0
C157 C 0.78441 0.53671 0.8073 0.0
C158 C 0.78317 0.49867 0.84496 0.0
H159 H 0.78555 0.55948 0.71298 0.0
H160 H 0.78518 0.57193 0.82908 0.0
C161 C 0.7821 0.45343 0.81527 0.0
C162 C 0.49287 0.82724 0.25105 0.0
C163 C 0.49098 0.78596 0.21132 0.0
H164 H 0.48508 0.85893 0.34501 0.0
C165 C 0.48069 0.74391 0.23689 0.0
H166 H 0.50058 0.86006 0.2322 0.0
C167 C 0.47342 0.74307 0.30172 0.0
C168 C 0.4746 0.78451 0.34106 0.0
H169 H 0.47927 0.71165 0.20705 0.0
H170 H 0.46631 0.71026 0.32096 0.0
C171 C 0.48389 0.82663 0.31522 0.0
C172 C 0.19386 0.53 0.8313 0.0
C173 C 0.19335 0.48455 0.85093 0.0
H174 H 0.19312 0.57289 0.75247 0.0
C175 C 0.19453 0.44685 0.805 0.0
H176 H 0.19281 0.55967 0.86579 0.0
C177 C 0.19593 0.45442 0.74052 0.0
C178 C 0.19487 0.49982 0.72063 0.0
H179 H 0.19438 0.41148 0.81894 0.0
H180 H 0.19636 0.42469 0.70604 0.0
C181 C 0.19392 0.53756 0.76658 0.0
C182 C 0.44699 0.19036 0.32346 0.0
C183 C 0.49216 0.18996 0.35241 0.0
H184 H 0.40455 0.19019 0.23592 0.0
C185 C 0.52986 0.19125 0.31427 0.0
H186 H 0.41733 0.18927 0.35184 0.0
C187 C 0.52256 0.193 0.24833 0.0
C188 C 0.47742 0.1922 0.21916 0.0
H189 H 0.56503 0.19125 0.33548 0.0
H190 H 0.55227 0.19378 0.22 0.0
C191 C 0.43969 0.19079 0.25727 0.0
C192 C 0.98105 0.53714 0.04267 0.0
C193 C 0.94271 0.50686 0.03624 0.0
H194 H 0.05461 0.54411 0.04344 0.0
C195 C 0.95011 0.45894 0.0251 0.0
H196 H 0.97655 0.57429 0.05115 0.0
C197 C -0.00511 0.44166 0.02049 0.0
C198 C 0.03323 0.47193 0.02693 0.0
H199 H 0.92133 0.43469 0.01972 0.0
H200 H -0.00061 0.4045 1.01201 0.0
C201 C 0.02583 0.51986 0.03806 0.0
C202 C 0.44038 0.98114 0.53459 0.0
C203 C 0.47024 0.94269 0.53354 0.0
H204 H 0.43393 0.055 0.53571 0.0
C205 C 0.51807 0.9503 0.53293 0.0
H206 H 0.40331 0.97652 0.53501 0.0
C207 C 0.53564 -0.00457 0.5333 0.0
C208 C 0.50572 0.03385 0.5342 0.0
H209 H 0.54199 0.92144 0.53201 0.0
H210 H 0.57269 0.00014 0.53283 0.0
C211 C 0.45791 0.02619 0.53488 0.0
C212 C 0.02374 0.45898 0.53075 0.0
C213 C 0.03155 0.50711 0.53254 0.0
H214 H 0.97395 0.40412 0.52838 0.0
C215 C -0.00658 0.53727 0.53337 0.0
H216 H 0.05234 0.43481 0.53014 0.0
C217 C 0.94845 0.51969 0.53243 0.0
C218 C 0.94064 0.47157 0.53064 0.0
H219 H -0.00177 0.57455 0.5348 0.0
H220 H 0.91985 0.54386 0.53304 0.0
C221 C 0.97877 0.4414 0.52981 0.0
C222 C 0.53324 0.98066 0.03875 0.0
C223 C 0.50316 0.9421 0.03308 0.0
H224 H 0.54007 0.05448 0.03982 0.0
C225 C 0.45534 0.94946 0.0235 0.0
H226 H 0.57031 0.97625 0.04606 0.0
C227 C 0.43799 -0.00554 0.01974 0.0
C228 C 0.46812 0.033 0.02552 0.0
H229 H 0.43127 0.9205 0.01877 0.0
H230 H 0.40093 -0.00101 1.01251 0.0
C231 C 0.51592 0.02558 0.03502 0.0
C232 C 0.24797 0.28382 0.01389 0.0
C233 C 0.26013 0.33108 0.02275 0.0
H234 H 0.27074 0.21367 1.00731 0.0
C235 C 0.30725 0.3434 0.03157 0.0
H236 H 0.21209 0.27291 1.00681 0.0
C237 C 0.34142 0.30889 0.03186 0.0
C238 C 0.3289 0.26162 0.02334 0.0
H239 H 0.31769 0.37956 0.03851 0.0
H240 H 0.37747 0.31919 0.03898 0.0
C241 C 0.28179 0.24966 0.01419 0.0
C242 C 0.72551 0.28385 0.52875 0.0
C243 C 0.71334 0.33082 0.52617 0.0
H244 H 0.70309 0.21442 0.536 0.0
C245 C 0.66655 0.34333 0.52911 0.0
H246 H 0.76117 0.27283 0.52687 0.0
C247 C 0.6327 0.30928 0.53433 0.0
C248 C 0.64524 0.26233 0.53707 0.0
H249 H 0.65611 0.37928 0.52744 0.0
H250 H 0.59687 0.31969 0.53617 0.0
C251 C 0.69204 0.25019 0.53428 0.0
C252 C 0.66875 0.63479 0.03218 0.0
C253 C 0.71573 0.64756 0.04126 0.0
H254 H 0.59836 0.65825 0.02463 0.0
C255 C 0.72746 0.69492 0.05056 0.0
H256 H 0.65864 0.59855 0.02491 0.0
C257 C 0.69328 0.72878 0.0504 0.0
C258 C 0.64633 0.71631 0.04093 0.0
H259 H 0.76324 0.70612 0.05785 0.0
H260 H 0.7039 0.76488 0.05757 0.0
C261 C 0.63429 0.66893 0.03201 0.0
C262 C 0.3392 0.66931 0.5284 0.0
C263 C 0.32694 0.71636 0.52595 0.0
H264 H 0.31547 0.59946 0.53512 0.0
C265 C 0.28026 0.72882 0.52901 0.0
H266 H 0.37494 0.65864 0.52634 0.0
C267 C 0.24659 0.69531 0.53455 0.0
C268 C 0.25853 0.64825 0.53688 0.0
H269 H 0.2695 0.7647 0.52752 0.0
H270 H 0.211 0.70649 0.53665 0.0
C271 C 0.30521 0.63548 0.53366 0.0
loop_
_geom_bond_atom_site_label_1
_geom_bond_atom_site_label_2
_geom_bond_distance
_geom_bond_site_symmetry_2
_ccdc_geom_bond_type
C0 O2 1.247 . S
C0 O4 1.258 . S
C1 O8 1.247 . S
C1 O9 1.258 . S
O2 C0 1.247 . S
O2 Zn3 2.028 . S
Zn3 O2 2.028 . S
Zn3 O7 2.043 . S
Zn3 O9 2.036 . S
Zn3 O10 2.020 1_554 S
O4 C0 1.258 . S
O4 Zn5 2.035 . S
Zn5 O4 2.035 . S
Zn5 O6 2.028 . S
Zn5 O8 2.028 . S
Zn5 O11 2.035 1_554 S
O6 Zn5 2.028 . S
O6 C12 1.247 . S
O7 Zn3 2.043 . S
O7 C12 1.258 . S
O8 C1 1.247 . S
O8 Zn5 2.028 . S
O9 C1 1.258 . S
O9 Zn3 2.036 . S
O10 Zn3 2.020 1_556 S
O10 C13 1.247 . S
O11 Zn5 2.035 1_556 S
O11 C13 1.258 . S
C12 O6 1.247 . S
C12 O7 1.258 . S
C13 O10 1.247 . S
C13 O11 1.258 . S
C14 O16 1.247 . S
C14 O18 1.258 . S
C15 O22 1.247 . S
C15 O23 1.258 . S
O16 C14 1.247 . S
O16 Zn17 2.028 . S
Zn17 O16 2.028 . S
Zn17 O21 2.035 . S
Zn17 O23 2.035 . S
Zn17 O24 2.028 . S
O18 C14 1.258 . S
O18 Zn19 2.035 . S
Zn19 O18 2.035 . S
Zn19 O20 2.028 . S
Zn19 O22 2.028 . S
Zn19 O25 2.035 . S
O20 Zn19 2.028 . S
O20 C26 1.247 . S
O21 Zn17 2.035 . S
O21 C26 1.258 . S
O22 C15 1.247 . S
O22 Zn19 2.028 . S
O23 C15 1.258 . S
O23 Zn17 2.035 . S
O24 Zn17 2.028 . S
O24 C27 1.247 . S
O25 Zn19 2.035 . S
O25 C27 1.258 . S
C26 O20 1.247 . S
C26 O21 1.258 . S
C27 O24 1.247 . S
C27 O25 1.258 . S
C28 O30 1.247 . S
C28 O32 1.258 . S
C29 O36 1.247 . S
C29 O37 1.258 . S
O30 C28 1.247 . S
O30 Zn31 2.028 . S
Zn31 O30 2.028 . S
Zn31 O35 2.035 . S
Zn31 O37 2.035 . S
Zn31 O38 2.028 1_554 S
O32 C28 1.258 . S
O32 Zn33 2.035 . S
Zn33 O32 2.035 . S
Zn33 O34 2.028 . S
Zn33 O36 2.028 . S
Zn33 O39 2.035 1_554 S
O34 Zn33 2.028 . S
O34 C40 1.247 . S
O35 Zn31 2.035 . S
O35 C40 1.258 . S
O36 C29 1.247 . S
O36 Zn33 2.028 . S
O37 C29 1.258 . S
O37 Zn31 2.035 . S
O38 Zn31 2.028 1_556 S
O38 C41 1.247 . S
O39 Zn33 2.035 1_556 S
O39 C41 1.258 . S
C40 O34 1.247 . S
C40 O35 1.258 . S
C41 O38 1.247 . S
C41 O39 1.258 . S
C42 O44 1.247 . S
C42 O46 1.258 . S
C43 O50 1.247 . S
C43 O51 1.258 . S
O44 C42 1.247 . S
O44 Zn45 2.028 . S
Zn45 O44 2.028 . S
Zn45 O49 2.035 . S
Zn45 O51 2.035 . S
Zn45 O52 2.028 . S
O46 C42 1.258 . S
O46 Zn47 2.035 . S
Zn47 O46 2.035 . S
Zn47 O48 2.028 . S
Zn47 O50 2.028 . S
Zn47 O53 2.035 . S
O48 Zn47 2.028 . S
O48 C54 1.247 . S
O49 Zn45 2.035 . S
O49 C54 1.258 . S
O50 C43 1.247 . S
O50 Zn47 2.028 . S
O51 C43 1.258 . S
O51 Zn45 2.035 . S
O52 Zn45 2.028 . S
O52 C55 1.247 . S
O53 Zn47 2.035 . S
O53 C55 1.258 . S
C54 O48 1.247 . S
C54 O49 1.258 . S
C55 O52 1.247 . S
C55 O53 1.258 . S
C56 O58 1.247 . S
C56 O60 1.258 . S
C57 O64 1.247 . S
C57 O65 1.258 . S
O58 C56 1.247 . S
O58 Zn59 2.028 . S
Zn59 O58 2.028 . S
Zn59 O63 2.035 . S
Zn59 O65 2.035 . S
Zn59 O66 2.028 . S
O60 C56 1.258 . S
O60 Zn61 2.035 . S
Zn61 O60 2.035 . S
Zn61 O62 2.028 . S
Zn61 O64 2.028 . S
Zn61 O67 2.035 . S
O62 Zn61 2.028 . S
O62 C68 1.247 . S
O63 Zn59 2.035 . S
O63 C68 1.258 . S
O64 C57 1.247 . S
O64 Zn61 2.028 . S
O65 C57 1.258 . S
O65 Zn59 2.035 . S
O66 Zn59 2.028 . S
O66 C69 1.247 . S
O67 Zn61 2.035 . S
O67 C69 1.258 . S
C68 O62 1.247 . S
C68 O63 1.258 . S
C69 O66 1.247 . S
C69 O67 1.258 . S
C70 O72 1.247 . S
C70 O74 1.258 . S
C71 O78 1.247 . S
C71 O79 1.258 . S
O72 C70 1.247 . S
O72 Zn73 2.028 . S
Zn73 O72 2.028 . S
Zn73 O77 2.035 . S
Zn73 O79 2.035 . S
Zn73 O80 2.028 1_554 S
O74 C70 1.258 . S
O74 Zn75 2.035 . S
Zn75 O74 2.035 . S
Zn75 O76 2.028 . S
Zn75 O78 2.028 . S
Zn75 O81 2.035 1_554 S
O76 Zn75 2.028 . S
O76 C82 1.247 . S
O77 Zn73 2.035 . S
O77 C82 1.258 . S
O78 C71 1.247 . S
O78 Zn75 2.028 . S
O79 C71 1.258 . S
O79 Zn73 2.035 . S
O80 Zn73 2.028 1_556 S
O80 C83 1.247 . S
O81 Zn75 2.035 1_556 S
O81 C83 1.258 . S
C82 O76 1.247 . S
C82 O77 1.258 . S
C83 O80 1.247 . S
C83 O81 1.258 . S
C84 O86 1.247 . S
C84 O88 1.258 . S
C85 O92 1.247 . S
C85 O93 1.258 . S
O86 C84 1.247 . S
O86 Zn87 2.028 . S
Zn87 O86 2.028 . S
Zn87 O91 2.035 . S
Zn87 O93 2.035 . S
Zn87 O94 2.028 . S
O88 C84 1.258 . S
O88 Zn89 2.035 . S
Zn89 O88 2.035 . S
Zn89 O90 2.028 . S
Zn89 O92 2.028 . S
Zn89 O95 2.035 . S
O90 Zn89 2.028 . S
O90 C96 1.247 . S
O91 Zn87 2.035 . S
O91 C96 1.258 . S
O92 C85 1.247 . S
O92 Zn89 2.028 . S
O93 C85 1.258 . S
O93 Zn87 2.035 . S
O94 Zn87 2.028 . S
O94 C97 1.247 . S
O95 Zn89 2.035 . S
O95 C97 1.258 . S
C96 O90 1.247 . S
C96 O91 1.258 . S
C97 O94 1.247 . S
C97 O95 1.258 . S
C98 O100 1.247 . S
C98 O102 1.258 . S
C99 O106 1.247 . S
C99 O107 1.258 . S
O100 C98 1.247 . S
O100 Zn101 2.028 . S
Zn101 O100 2.028 . S
Zn101 O105 2.035 1_554 S
Zn101 O107 2.035 . S
Zn101 O108 2.028 . S
O102 C98 1.258 . S
O102 Zn103 2.035 . S
Zn103 O102 2.035 . S
Zn103 O104 2.028 1_554 S
Zn103 O106 2.028 . S
Zn103 O109 2.035 . S
O104 Zn103 2.028 1_556 S
O104 C110 1.247 . S
O105 Zn101 2.035 1_556 S
O105 C110 1.258 . S
O106 C99 1.247 . S
O106 Zn103 2.028 . S
O107 C99 1.258 . S
O107 Zn101 2.035 . S
O108 Zn101 2.028 . S
O108 C111 1.247 . S
O109 Zn103 2.035 . S
O109 C111 1.258 . S
C110 O104 1.247 . S
C110 O105 1.258 . S
C111 O108 1.247 . S
C111 O109 1.258 . S
C112 C113 1.387 . S
C112 H116 0.950 . S
C112 C121 1.390 . S
C113 C112 1.387 . S
C113 C115 1.387 . S
H114 C121 0.950 . S
C115 C113 1.387 . S
C115 C117 1.390 . S
C115 H119 0.950 . S
H116 C112 0.950 . S
C117 C115 1.390 . S
C117 C118 1.387 . S
C117 H120 0.950 . S
C118 C117 1.387 . S
C118 C121 1.387 . S
H119 C115 0.950 . S
H120 C117 0.950 . S
C121 C112 1.390 . S
C121 H114 0.950 . S
C121 C118 1.387 . S
C122 C123 1.387 . S
C122 H126 0.950 . S
C122 C131 1.390 . S
C123 C122 1.387 . S
C123 C125 1.387 . S
H124 C131 0.950 . S
C125 C123 1.387 . S
C125 C127 1.390 . S
C125 H129 0.950 . S
H126 C122 0.950 . S
C127 C125 1.390 . S
C127 C128 1.387 . S
C127 H130 0.950 . S
C128 C127 1.387 . S
C128 C131 1.387 . S
H129 C125 0.950 . S
H130 C127 0.950 . S
C131 C122 1.390 . S
C131 H124 0.950 . S
C131 C128 1.387 . S
C132 C133 1.387 . S
C132 H136 0.950 . S
C132 C141 1.390 . S
C133 C132 1.387 . S
C133 C135 1.387 . S
H134 C141 0.950 . S
C135 C133 1.387 . S
C135 C137 1.390 . S
C135 H139 0.950 . S
H136 C132 0.950 . S
C137 C135 1.390 . S
C137 C138 1.387 . S
C137 H140 0.950 . S
C138 C137 1.387 . S
C138 C141 1.387 . S
H139 C135 0.950 . S
H140 C137 0.950 . S
C141 C132 1.390 . S
C141 H134 0.950 . S
C141 C138 1.387 . S
C142 C143 1.387 . S
C142 H146 0.950 . S
C142 C151 1.390 . S
C143 C142 1.387 . S
C143 C145 1.387 . S
H144 C151 0.950 . S
C145 C143 1.387 . S
C145 C147 1.390 . S
C145 H149 0.950 . S
H146 C142 0.950 . S
C147 C145 1.390 . S
C147 C148 1.387 . S
C147 H150 0.950 . S
C148 C147 1.387 . S
C148 C151 1.387 . S
H149 C145 0.950 . S
H150 C147 0.950 . S
C151 C142 1.390 . S
C151 H144 0.950 . S
C151 C148 1.387 . S
C152 C153 1.387 . S
C152 H156 0.950 . S
C152 C161 1.390 . S
C153 C152 1.387 . S
C153 C155 1.387 . S
H154 C161 0.950 . S
C155 C153 1.387 . S
C155 C157 1.390 . S
C155 H159 0.950 . S
H156 C152 0.950 . S
C157 C155 1.390 . S
C157 C158 1.387 . S
C157 H160 0.950 . S
C158 C157 1.387 . S
C158 C161 1.387 . S
H159 C155 0.950 . S
H160 C157 0.950 . S
C161 C152 1.390 . S
C161 H154 0.950 . S
C161 C158 1.387 . S
C162 C163 1.387 . S
C162 H166 0.950 . S
C162 C171 1.390 . S
C163 C162 1.387 . S
C163 C165 1.387 . S
H164 C171 0.950 . S
C165 C163 1.387 . S
C165 C167 1.390 . S
C165 H169 0.950 . S
H166 C162 0.950 . S
C167 C165 1.390 . S
C167 C168 1.387 . S
C167 H170 0.950 . S
C168 C167 1.387 . S
C168 C171 1.387 . S
H169 C165 0.950 . S
H170 C167 0.950 . S
C171 C162 1.390 . S
C171 H164 0.950 . S
C171 C168 1.387 . S
C172 C173 1.387 . S
C172 H176 0.950 . S
C172 C181 1.390 . S
C173 C172 1.387 . S
C173 C175 1.387 . S
H174 C181 0.950 . S
C175 C173 1.387 . S
C175 C177 1.390 . S
C175 H179 0.950 . S
H176 C172 0.950 . S
C177 C175 1.390 . S
C177 C178 1.387 . S
C177 H180 0.950 . S
C178 C177 1.387 . S
C178 C181 1.387 . S
H179 C175 0.950 . S
H180 C177 0.950 . S
C181 C172 1.390 . S
C181 H174 0.950 . S
C181 C178 1.387 . S
C182 C183 1.387 . S
C182 H186 0.950 . S
C182 C191 1.390 . S
C183 C182 1.387 . S
C183 C185 1.387 . S
H184 C191 0.950 . S
C185 C183 1.387 . S
C185 C187 1.390 . S
C185 H189 0.950 . S
H186 C182 0.950 . S
C187 C185 1.390 . S
C187 C188 1.387 . S
C187 H190 0.950 . S
C188 C187 1.387 . S
C188 C191 1.387 . S
H189 C185 0.950 . S
H190 C187 0.950 . S
C191 C182 1.390 . S
C191 H184 0.950 . S
C191 C188 1.387 . S
C192 C193 1.387 . S
C192 H196 0.950 . S
C192 C201 1.390 1_655 S
C193 C192 1.387 . S
C193 C195 1.387 1_554 S
H194 C201 0.950 . S
C195 C193 1.387 1_556 S
C195 C197 1.390 1_655 S
C195 H199 0.950 . S
H196 C192 0.950 . S
C197 C195 1.390 1_455 S
C197 C198 1.387 1_556 S
C197 H200 0.950 . S
C198 C197 1.387 1_554 S
C198 C201 1.387 . S
H199 C195 0.950 . S
H200 C197 0.950 . S
C201 C192 1.390 1_455 S
C201 H194 0.950 . S
C201 C198 1.387 . S
C202 C203 1.387 . S
C202 H206 0.950 . S
C202 C211 1.390 1_565 S
C203 C202 1.387 . S
C203 C205 1.387 . S
H204 C211 0.950 . S
C205 C203 1.387 . S
C205 C207 1.390 1_565 S
C205 H209 0.950 . S
H206 C202 0.950 . S
C207 C205 1.390 1_545 S
C207 C208 1.387 . S
C207 H210 0.950 . S
C208 C207 1.387 . S
C208 C211 1.387 . S
H209 C205 0.950 . S
H210 C207 0.950 . S
C211 C202 1.390 1_545 S
C211 H204 0.950 . S
C211 C208 1.387 . S
C212 C213 1.387 . S
C212 H216 0.950 . S
C212 C221 1.390 1_455 S
C213 C212 1.387 . S
C213 C215 1.387 . S
H214 C221 0.950 . S
C215 C213 1.387 . S
C215 C217 1.390 1_455 S
C215 H219 0.950 . S
H216 C212 0.950 . S
C217 C215 1.390 1_655 S
C217 C218 1.387 . S
C217 H220 0.950 . S
C218 C217 1.387 . S
C218 C221 1.387 . S
H219 C215 0.950 . S
H220 C217 0.950 . S
C221 C212 1.390 1_655 S
C221 H214 0.950 . S
C221 C218 1.387 . S
C222 C223 1.387 . S
C222 H226 0.950 . S
C222 C231 1.390 1_565 S
C223 C222 1.387 . S
C223 C225 1.387 1_554 S
H224 C231 0.950 . S
C225 C223 1.387 1_556 S
C225 C227 1.390 1_565 S
C225 H229 0.950 . S
H226 C222 0.950 . S
C227 C225 1.390 1_545 S
C227 C228 1.387 1_556 S
C227 H230 0.950 . S
C228 C227 1.387 1_554 S
C228 C231 1.387 . S
H229 C225 0.950 . S
H230 C227 0.950 . S
C231 C222 1.390 1_545 S
C231 H224 0.950 . S
C231 C228 1.387 . S
C232 C233 1.387 1_556 S
C232 H236 0.950 . S
C232 C241 1.390 . S
C233 C232 1.387 1_554 S
C233 C235 1.387 . S
H234 C241 0.950 . S
C235 C233 1.387 . S
C235 C237 1.390 . S
C235 H239 0.950 . S
H236 C232 0.950 . S
C237 C235 1.390 . S
C237 C238 1.387 . S
C237 H240 0.950 . S
C238 C237 1.387 . S
C238 C241 1.387 1_554 S
H239 C235 0.950 . S
H240 C237 0.950 . S
C241 C232 1.390 . S
C241 H234 0.950 . S
C241 C238 1.387 1_556 S
C242 C243 1.387 . S
C242 H246 0.950 . S
C242 C251 1.390 . S
C243 C242 1.387 . S
C243 C245 1.387 . S
H244 C251 0.950 . S
C245 C243 1.387 . S
C245 C247 1.390 . S
C245 H249 0.950 . S
H246 C242 0.950 . S
C247 C245 1.390 . S
C247 C248 1.387 . S
C247 H250 0.950 . S
C248 C247 1.387 . S
C248 C251 1.387 . S
H249 C245 0.950 . S
H250 C247 0.950 . S
C251 C242 1.390 . S
C251 H244 0.950 . S
C251 C248 1.387 . S
C252 C253 1.387 1_556 S
C252 H256 0.950 . S
C252 C261 1.390 . S
C253 C252 1.387 1_554 S
C253 C255 1.387 . S
H254 C261 0.950 . S
C255 C253 1.387 . S
C255 C257 1.390 . S
C255 H259 0.950 . S
H256 C252 0.950 . S
C257 C255 1.390 . S
C257 C258 1.387 . S
C257 H260 0.950 . S
C258 C257 1.387 . S
C258 C261 1.387 1_554 S
H259 C255 0.950 . S
H260 C257 0.950 . S
C261 C252 1.390 . S
C261 H254 0.950 . S
C261 C258 1.387 1_556 S
C262 C263 1.387 . S
C262 H266 0.950 . S
C262 C271 1.390 . S
C263 C262 1.387 . S
C263 C265 1.387 . S
H264 C271 0.950 . S
C265 C263 1.387 . S
C265 C267 1.390 . S
C265 H269 0.950 . S
H266 C262 0.950 . S
C267 C265 1.390 . S
C267 C268 1.387 . S
C267 H270 0.950 . S
C268 C267 1.387 . S
C268 C271 1.387 . S
H269 C265 0.950 . S
H270 C267 0.950 . S
C271 C262 1.390 . S
C271 H264 0.950 . S
C271 C268 1.387 . S
C113 C12 1.542 . S
C118 C56 1.536 . S
C123 C15 1.560 . S
C128 C83 1.547 . S
C133 C85 1.562 . S
C138 C40 1.550 . S
C143 C110 1.543 . S
C148 C43 1.536 . S
C153 C84 1.536 . S
C158 C41 1.543 . S
C163 C111 1.550 . S
C168 C42 1.562 . S
C173 C13 1.550 . S
C178 C57 1.560 . S
C183 C14 1.536 . S
C188 C82 1.544 . S
C193 C28 1.954 . S
C198 C1 1.954 . S
C203 C55 1.953 . S
C208 C26 1.953 . S
C213 C68 1.957 . S
C218 C96 1.953 . S
C223 C99 1.957 . S
C228 C71 1.952 . S
C233 C0 1.844 . S
C238 C70 1.848 . S
C243 C97 1.840 . S
C248 C27 1.841 . S
C253 C29 1.844 . S
C258 C98 1.846 . S
C263 C54 1.840 . S
C268 C69 1.839 . S
