# Generated by pormake.
# Topology vmb, (5)-cn, num edge types: 1
# Building blocks:
#     Node 0, Type 0, BuildingBlock: XOMCOT_clean_sbu_0, # of connection points: 5
#     Node 1, Type 0, BuildingBlock: XOMCOT_clean_sbu_0, # of connection points: 5
#     Node 2, Type 0, BuildingBlock: XOMCOT_clean_sbu_0, # of connection points: 5
#     Node 3, Type 0, BuildingBlock: XOMCOT_clean_sbu_0, # of connection points: 5
#     Node 4, Type 0, BuildingBlock: XOMCOT_clean_sbu_0, # of connection points: 5
#     Node 5, Type 0, BuildingBlock: XOMCOT_clean_sbu_0, # of connection points: 5
#     Node 6, Type 0, BuildingBlock: XOMCOT_clean_sbu_0, # of connection points: 5
#     Node 7, Type 0, BuildingBlock: XOMCOT_clean_sbu_0, # of connection points: 5
#     Edge 8, Type (0, 0), BuildingBlock: OJICUG_clean_linker_0, # of connection points: 2
#     Edge 9, Type (0, 0), BuildingBlock: OJICUG_clean_linker_0, # of connection points: 2
#     Edge 10, Type (0, 0), BuildingBlock: OJICUG_clean_linker_0, # of connection points: 2
#     Edge 11, Type (0, 0), BuildingBlock: OJICUG_clean_linker_0, # of connection points: 2
#     Edge 12, Type (0, 0), BuildingBlock: OJICUG_clean_linker_0, # of connection points: 2
#     Edge 13, Type (0, 0), BuildingBlock: OJICUG_clean_linker_0, # of connection points: 2
#     Edge 14, Type (0, 0), BuildingBlock: OJICUG_clean_linker_0, # of connection points: 2
#     Edge 15, Type (0, 0), BuildingBlock: OJICUG_clean_linker_0, # of connection points: 2
#     Edge 16, Type (0, 0), BuildingBlock: OJICUG_clean_linker_0, # of connection points: 2
#     Edge 17, Type (0, 0), BuildingBlock: OJICUG_clean_linker_0, # of connection points: 2
#     Edge 18, Type (0, 0), BuildingBlock: OJICUG_clean_linker_0, # of connection points: 2
#     Edge 19, Type (0, 0), BuildingBlock: OJICUG_clean_linker_0, # of connection points: 2
#     Edge 20, Type (0, 0), BuildingBlock: OJICUG_clean_linker_0, # of connection points: 2
#     Edge 21, Type (0, 0), BuildingBlock: OJICUG_clean_linker_0, # of connection points: 2
#     Edge 22, Type (0, 0), BuildingBlock: OJICUG_clean_linker_0, # of connection points: 2
#     Edge 23, Type (0, 0), BuildingBlock: OJICUG_clean_linker_0, # of connection points: 2
#     Edge 24, Type (0, 0), BuildingBlock: OJICUG_clean_linker_0, # of connection points: 2
#     Edge 25, Type (0, 0), BuildingBlock: OJICUG_clean_linker_0, # of connection points: 2
#     Edge 26, Type (0, 0), BuildingBlock: OJICUG_clean_linker_0, # of connection points: 2
#     Edge 27, Type (0, 0), BuildingBlock: OJICUG_clean_linker_0, # of connection points: 2
# Relax obj value: 0.123
# Max RMSD: 0.192
# Mean RMSD: 0.192
data_MOF--net-vmb--node1-XOMCOT_clean_sbu_0--edge1-OJICUG_clean_linker_0
_symmetry_space_group_name_H-M    P1
_symmetry_Int_Tables_number       1
_symmetry_cell_setting            triclinic
loop_
_symmetry_equiv_pos_as_xyz
'x, y, z'
_cell_length_a     27.837037
_cell_length_b     31.680432
_cell_length_c     23.454202
_cell_angle_alpha  90.200668
_cell_angle_beta   112.49886
_cell_angle_gamma 89.875751
loop_
_atom_site_label
_atom_site_type_symbol
_atom_site_fract_x
_atom_site_fract_y
_atom_site_fract_z
_atom_type_partial_charge
Co0 Co 0.29227 0.09 0.39002 0.0
C1 C 0.39757 0.05397 0.43008 0.0
C2 C 0.39804 0.12086 0.41566 0.0
C3 C 0.44769 0.10559 0.43056 0.0
N4 N 0.36684 0.08847 0.41564 0.0
N5 N 0.44729 0.06349 0.43933 0.0
H6 H 0.38345 0.0225 0.43251 0.0
H7 H 0.3853 0.15301 0.40336 0.0
C8 C 0.27684 0.17092 0.45141 0.0
O9 O 0.24937 0.15154 0.47793 0.0
N10 N 0.21645 0.09168 0.36383 0.0
C11 C 0.18839 0.08797 0.39965 0.0
C12 C 0.13645 0.09067 0.36368 0.0
C13 C 0.18027 0.09633 0.30594 0.0
N14 N 0.13135 0.09581 0.30482 0.0
C15 C 0.27744 0.02706 0.46749 0.0
C16 C 0.32953 0.06718 0.57898 0.0
C17 C 0.30291 0.02939 0.57819 0.0
C18 C 0.27777 1.00883 0.52152 0.0
C19 C 0.32806 0.08446 0.5235 0.0
N20 N 0.29961 0.06557 0.46857 0.0
H21 H 0.25649 1.01145 0.42401 0.0
H22 H 0.34903 0.11331 0.52459 0.0
H23 H 0.20377 0.08338 0.44895 0.0
H24 H 0.18918 0.10006 0.26525 0.0
O25 O 0.28755 0.03825 0.34404 0.0
O26 O 0.28712 0.10282 0.30764 0.0
O27 O 0.29732 0.15037 0.41955 0.0
C28 C 0.28714 0.06223 0.29891 0.0
H29 H 0.48097 0.12384 0.43205 0.0
H30 H 0.10478 0.08777 0.37944 0.0
H31 H 0.35115 0.08331 0.62195 0.0
H32 H 0.25672 0.97964 0.51836 0.0
Co33 Co 0.77483 0.08981 0.02297 0.0
C34 C 0.66822 0.05789 -0.01386 0.0
C35 C 0.67166 0.12434 0.00552 0.0
C36 C 0.62164 0.11047 -0.00744 0.0
N37 N 0.70062 0.0913 0.00127 0.0
N38 N 0.61969 0.06861 -0.01918 0.0
H39 H 0.68039 0.02622 -0.01945 0.0
H40 H 0.68625 0.15589 0.01948 0.0
C41 C 0.79559 0.17134 -0.03092 0.0
O42 O 0.82347 0.15174 0.94309 0.0
N43 N 0.85029 0.08811 0.04515 0.0
C44 C 0.87612 0.08124 0.00745 0.0
C45 C 0.92856 0.08275 0.04097 0.0
C46 C 0.88835 0.09361 0.10165 0.0
N47 N 0.93647 0.09033 0.10038 0.0
C48 C 0.77967 0.02748 0.93864 0.0
C49 C 0.73357 0.07352 0.83151 0.0
C50 C 0.75528 0.03387 0.82856 0.0
C51 C 0.77729 1.01043 0.88302 0.0
C52 C 0.73696 0.08955 0.88867 0.0
N53 N 0.76269 0.06753 0.94156 0.0
H54 H 0.79882 1.00956 -0.01969 0.0
H55 H 0.71977 0.11987 0.89047 0.0
H56 H 0.85887 0.07672 0.95813 0.0
H57 H 0.88114 0.09935 0.1431 0.0
O58 O 0.77759 0.03699 0.06496 0.0
O59 O 0.78459 0.10045 0.10774 0.0
O60 O 0.77262 0.15078 -0.00208 0.0
C61 C 0.78211 0.05972 0.11299 0.0
H62 H 0.58985 0.12937 -0.00556 0.0
H63 H 0.95842 0.07931 0.02238 0.0
H64 H 0.71448 0.09205 0.79025 0.0
H65 H 0.79482 0.97982 0.88347 0.0
Co66 Co 0.77439 0.93464 0.52275 0.0
C67 C 0.66674 0.96354 0.48412 0.0
C68 C 0.67172 0.89691 0.50128 0.0
C69 C 0.6213 0.90994 0.4887 0.0
N70 N 0.69996 0.93065 0.49815 0.0
N71 N 0.61854 0.95196 0.47854 0.0
H72 H 0.67818 0.99566 0.48034 0.0
H73 H 0.68708 0.86556 0.51487 0.0
C74 C 0.81117 0.85075 0.49212 0.0
O75 O 0.85228 0.86842 0.48791 0.0
N76 N 0.84941 0.94003 0.54801 0.0
C77 C 0.87508 0.96254 0.51981 0.0
C78 C 0.92745 0.95989 0.55365 0.0
C79 C 0.88707 0.92428 0.59927 0.0
N80 N 0.93522 0.93582 0.60365 0.0
C81 C 0.75888 0.99763 0.43034 0.0
C82 C 0.7621 0.94472 0.3381 0.0
C83 C 0.76217 0.9885 0.32939 0.0
C84 C 0.75828 0.01495 0.3755 0.0
C85 C 0.76151 0.92867 0.39317 0.0
N86 N 0.76336 0.95506 0.44018 0.0
H87 H 0.7583 0.01892 0.466 0.0
H88 H 0.7604 0.89503 0.39729 0.0
H89 H 0.85782 0.9804 0.4779 0.0
H90 H 0.87929 0.90479 0.63251 0.0
O91 O 0.77364 0.98783 0.56386 0.0
O92 O 0.78214 0.92463 0.60663 0.0
O93 O 0.7762 0.87322 0.50045 0.0
C94 C 0.77754 0.96513 0.61153 0.0
H95 H 0.58996 0.89045 0.49029 0.0
H96 H 0.95733 0.97594 0.54313 0.0
H97 H 0.76417 0.92276 0.30367 0.0
H98 H 0.75589 0.0489 0.37007 0.0
Co99 Co 0.29205 0.93289 0.88915 0.0
C100 C 0.39797 0.96756 0.92867 0.0
C101 C 0.39697 0.90085 0.91177 0.0
C102 C 0.44682 0.91551 0.92632 0.0
N103 N 0.36656 0.93351 0.91351 0.0
N104 N 0.44736 0.95751 0.93664 0.0
H105 H 0.38454 0.99911 0.93252 0.0
H106 H 0.38353 0.86894 0.89852 0.0
C107 C 0.27358 0.85238 0.94724 0.0
O108 O 0.24332 0.87199 -0.03006 0.0
N109 N 0.21621 0.93214 0.86408 0.0
C110 C 0.18857 0.94006 0.89946 0.0
C111 C 0.13655 0.93688 0.86428 0.0
C112 C 0.17964 0.92403 0.80732 0.0
N113 N 0.1307 0.92681 0.80622 0.0
C114 C 0.28214 0.99706 -0.03105 0.0
C115 C 0.32921 0.95412 0.07877 0.0
C116 C 0.30547 0.99326 0.07925 0.0
C117 C 0.28303 0.01523 0.02346 0.0
C118 C 0.32724 0.93697 0.02286 0.0
N119 N 0.30101 0.95732 -0.03142 0.0
H120 H 0.26289 0.0138 0.92616 0.0
H121 H 0.34615 0.90712 0.02317 0.0
H122 H 0.20425 0.94693 0.94822 0.0
H123 H 0.18847 0.91621 0.76751 0.0
O124 O 0.28747 0.98456 0.84363 0.0
O125 O 0.28551 0.91997 0.80614 0.0
O126 O 0.29665 0.87268 0.91825 0.0
C127 C 0.28586 0.96054 0.79783 0.0
H128 H 0.47955 0.89693 0.92653 0.0
H129 H 0.10547 0.94264 0.88029 0.0
H130 H 0.34892 0.93683 0.1211 0.0
H131 H 0.26425 0.04549 0.02121 0.0
Co132 Co 0.79822 0.58967 0.40065 0.0
C133 C 0.9045 0.55607 0.43797 0.0
C134 C 0.90188 0.62253 0.41943 0.0
C135 C 0.95178 0.6083 0.4327 0.0
N136 N 0.8725 0.58978 0.42308 0.0
N137 N 0.95329 0.56646 0.44401 0.0
H138 H 0.89189 0.52449 0.44288 0.0
H139 H 0.88762 0.65413 0.40549 0.0
C140 C 0.78092 0.67021 0.46124 0.0
O141 O 0.75077 0.65087 0.4841 0.0
N142 N 0.72258 0.58949 0.37762 0.0
C143 C 0.69638 0.58287 0.41488 0.0
C144 C 0.64403 0.58447 0.38099 0.0
C145 C 0.68476 0.59477 0.32087 0.0
N146 N 0.63643 0.59168 0.32164 0.0
C147 C 0.78983 0.52541 0.48034 0.0
C148 C 0.83812 0.56824 0.59038 0.0
C149 C 0.81416 0.5293 0.59076 0.0
C150 C 0.79117 0.50733 0.53488 0.0
C151 C 0.8357 0.58532 0.53441 0.0
N152 N 0.80888 0.56502 0.48012 0.0
H153 H 0.77 0.5088 0.43744 0.0
H154 H 0.85455 0.61512 0.53467 0.0
H155 H 0.71336 0.57794 0.4641 0.0
H156 H 0.69233 0.59995 0.27958 0.0
O157 O 0.79367 0.53814 0.35442 0.0
O158 O 0.78996 0.60287 0.31727 0.0
O159 O 0.80293 0.64985 0.43086 0.0
C160 C 0.79107 0.56233 0.30862 0.0
H161 H 0.98379 0.62697 0.43122 0.0
H162 H 0.61403 0.581 0.39931 0.0
H163 H 0.85818 0.58551 0.63278 0.0
H164 H 0.77216 0.47723 0.53259 0.0
Co165 Co 0.28067 0.59057 0.0306 0.0
C166 C 0.17417 0.55703 -0.00852 0.0
C167 C 0.17601 0.62409 0.00551 0.0
C168 C 0.12611 0.61005 -0.00778 0.0
N169 N 0.20599 0.59082 0.00496 0.0
N170 N 0.12506 0.56783 -0.01623 0.0
H171 H 0.18742 0.52498 -0.0094 0.0
H172 H 0.18977 0.65608 0.01719 0.0
C173 C 0.29905 0.67103 -0.02856 0.0
O174 O 0.32731 0.65121 0.94616 0.0
N175 N 0.3566 0.59062 0.05699 0.0
C176 C 0.38474 0.58554 0.02142 0.0
C177 C 0.4367 0.58796 0.05747 0.0
C178 C 0.39279 0.59582 0.11482 0.0
N179 N 0.44178 0.59434 0.11615 0.0
C180 C 0.29329 0.5271 0.95172 0.0
C181 C 0.24401 0.56877 0.84122 0.0
C182 C 0.26933 0.5303 0.84128 0.0
C183 C 0.29299 0.50898 0.89745 0.0
C184 C 0.24548 0.58592 0.89695 0.0
N185 N 0.27264 0.56621 0.95149 0.0
H186 H 0.31326 0.51088 -0.00518 0.0
H187 H 0.22557 0.61533 0.89637 0.0
H188 H 0.36938 0.58062 -0.02785 0.0
H189 H 0.38383 0.6008 0.1553 0.0
O190 O 0.28385 0.53877 0.07541 0.0
O191 O 0.28614 0.60331 0.11328 0.0
O192 O 0.27737 0.6509 0.00215 0.0
C193 C 0.28496 0.56272 0.12108 0.0
H194 H 0.09342 0.62941 -0.00982 0.0
H195 H 0.46838 0.58429 0.04186 0.0
H196 H 0.22345 0.58554 0.79864 0.0
H197 H 0.31304 0.47928 0.90015 0.0
Co198 Co 0.28146 0.4337 0.52993 0.0
C199 C 0.17498 0.46672 0.49227 0.0
C200 C 0.1777 0.40007 0.50947 0.0
C201 C 0.1277 0.41411 0.4961 0.0
N202 N 0.2071 0.4331 0.50683 0.0
N203 N 0.12613 0.45608 0.48566 0.0
H204 H 0.18756 0.49843 0.48802 0.0
H205 H 0.19198 0.36837 0.52267 0.0
C206 C 0.29919 0.35277 0.47004 0.0
O207 O 0.32659 0.37229 0.44357 0.0
N208 N 0.35707 0.43423 0.55344 0.0
C209 C 0.38335 0.43951 0.51597 0.0
C210 C 0.43567 0.4382 0.55005 0.0
C211 C 0.39477 0.42991 0.61046 0.0
N212 N 0.44312 0.4324 0.60965 0.0
C213 C 0.29056 0.49745 0.4501 0.0
C214 C 0.24155 0.45495 0.33994 0.0
C215 C 0.26567 0.49384 0.33955 0.0
C216 C 0.28912 0.51558 0.39554 0.0
C217 C 0.24405 0.43781 0.39597 0.0
N218 N 0.27111 0.45799 0.45029 0.0
H219 H 0.31062 0.51396 0.49303 0.0
H220 H 0.2251 0.40806 0.39577 0.0
H221 H 0.36642 0.44359 0.46658 0.0
H222 H 0.38712 0.42576 0.6519 0.0
O223 O 0.28516 0.48552 0.57541 0.0
O224 O 0.28934 0.42101 0.61337 0.0
O225 O 0.27801 0.37325 0.50123 0.0
C226 C 0.28777 0.46158 0.62147 0.0
H227 H 0.09564 0.39518 0.49687 0.0
H228 H 0.46578 0.44086 0.53175 0.0
H229 H 0.22126 0.4378 0.2975 0.0
H230 H 0.30831 0.5456 0.39789 0.0
Co231 Co 0.79875 0.43399 0.89991 0.0
C232 C 0.90535 0.46712 0.93885 0.0
C233 C 0.9032 0.40008 0.9245 0.0
C234 C 0.95315 0.41401 0.93774 0.0
N235 N 0.8734 0.43342 0.92528 0.0
N236 N 0.95439 0.45622 0.9464 0.0
H237 H 0.89224 0.49918 0.93993 0.0
H238 H 0.88928 0.36814 0.91273 0.0
C239 C 0.77957 0.35353 0.95837 0.0
O240 O 0.75173 0.37334 -0.01577 0.0
N241 N 0.72289 0.43429 0.8739 0.0
C242 C 0.69497 0.4396 0.90967 0.0
C243 C 0.64295 0.43733 0.87383 0.0
C244 C 0.68655 0.42909 0.81619 0.0
N245 N 0.63766 0.43082 0.81511 0.0
C246 C 0.78692 0.4977 -0.02118 0.0
C247 C 0.8353 0.45564 0.08917 0.0
C248 C 0.81029 0.49426 0.0891 0.0
C249 C 0.78715 0.5158 0.03305 0.0
C250 C 0.83391 0.4385 0.03348 0.0
N251 N 0.80714 0.45842 -0.02099 0.0
H252 H 0.76722 0.51404 0.93577 0.0
H253 H 0.85347 0.40893 0.03401 0.0
H254 H 0.71052 0.44449 0.95895 0.0
H255 H 0.69533 0.42389 0.77562 0.0
O256 O 0.79576 0.48567 0.85498 0.0
O257 O 0.79293 0.421 0.81726 0.0
O258 O 0.80163 0.37373 0.92816 0.0
C259 C 0.79433 0.46155 0.80933 0.0
H260 H 0.98574 0.39458 0.93962 0.0
H261 H 0.61139 0.44116 0.88962 0.0
H262 H 0.85547 0.4387 0.1317 0.0
H263 H 0.76736 0.54563 0.03038 0.0
C264 C 0.30623 0.05442 0.14815 0.0
C265 C 0.30236 1.01068 0.13673 0.0
H266 H 0.30368 0.10491 0.20764 0.0
C267 C 0.29296 0.98401 0.17919 0.0
H268 H 0.31431 0.07587 0.11709 0.0
C269 C 0.28735 1.00073 0.23159 0.0
C270 C 0.29064 0.04446 0.24236 0.0
H271 H 0.28893 0.95026 0.17141 0.0
H272 H 0.28027 0.9794 0.26352 0.0
C273 C 0.30017 0.07111 0.20014 0.0
C274 C 0.8006 0.0615 0.22567 0.0
C275 C 0.77958 0.04055 0.16875 0.0
H276 H 0.81329 0.06087 0.32132 0.0
C277 C 0.75302 1.00235 0.16455 0.0
H278 H 0.82136 0.09099 0.23 0.0
C279 C 0.74673 0.9857 0.2163 0.0
C280 C 0.7678 1.0065 0.27369 0.0
H281 H 0.73564 0.98598 0.12077 0.0
H282 H 0.72451 0.95692 0.21084 0.0
C283 C 0.79533 0.04442 0.27777 0.0
C284 C 0.7594 0.95696 0.70667 0.0
C285 C 0.77144 0.98346 0.66619 0.0
H286 H 0.74218 0.95221 0.7875 0.0
C287 C 0.77497 0.02717 0.67708 0.0
H288 H 0.75521 0.92322 0.69869 0.0
C289 C 0.76825 0.04388 0.7289 0.0
C290 C 0.75723 0.01718 0.77019 0.0
H291 H 0.78373 0.04832 0.64618 0.0
H292 H 0.77317 0.07751 0.73749 0.0
C293 C 0.75189 0.97363 0.75764 0.0
C294 C 0.29542 0.95139 0.69698 0.0
C295 C 0.28871 0.97825 0.7411 0.0
H296 H 0.30701 0.94639 0.61229 0.0
C297 C 0.28779 0.0221 0.73211 0.0
H298 H 0.29701 0.91747 0.70302 0.0
C299 C 0.29314 0.03876 0.67972 0.0
C300 C 0.29982 0.01189 0.63543 0.0
H301 H 0.2829 0.04359 0.76551 0.0
H302 H 0.29113 0.07265 0.67343 0.0
C303 C 0.30114 0.96801 0.6449 0.0
C304 C 0.79216 0.5011 0.24141 0.0
C305 C 0.79413 0.54487 0.25171 0.0
H306 H 0.79517 0.45079 0.18175 0.0
C307 C 0.80248 0.57181 0.20902 0.0
H308 H 0.786 0.47955 0.27372 0.0
C309 C 0.80891 0.55535 0.15713 0.0
C310 C 0.80655 0.51155 0.1463 0.0
H311 H 0.80499 0.60567 0.21619 0.0
H312 H 0.81619 0.57703 0.12575 0.0
C313 C 0.7981 0.48461 0.18911 0.0
C314 C 0.27159 0.57166 0.21972 0.0
C315 C 0.28085 0.54495 0.17714 0.0
H316 H 0.25744 0.5765 0.30281 0.0
C317 C 0.28335 0.50116 0.18705 0.0
H318 H 0.26862 0.60551 0.21283 0.0
C319 C 0.2774 0.48446 0.2391 0.0
C320 C 0.26845 0.5112 0.28204 0.0
H321 H 0.29019 0.47978 0.1548 0.0
H322 H 0.28095 0.45066 0.24632 0.0
C323 C 0.26517 0.55498 0.27135 0.0
C324 C 0.28038 0.53973 0.74046 0.0
C325 C 0.27271 0.51288 0.7839 0.0
H326 H 0.29167 0.54458 0.65531 0.0
C327 C 0.27074 0.46904 0.77349 0.0
H328 H 0.28293 0.57359 0.74743 0.0
C329 C 0.27689 0.45244 0.72148 0.0
C330 C 0.28458 0.47928 0.67823 0.0
H331 H 0.26401 0.4474 0.8053 0.0
H332 H 0.27478 0.41855 0.71474 0.0
C333 C 0.28604 0.5231 0.68804 0.0
C334 C 0.80791 0.45208 0.71099 0.0
C335 C 0.79839 0.47902 0.75316 0.0
H336 H 0.82244 0.44682 0.62821 0.0
C337 C 0.79564 0.52274 0.74274 0.0
H338 H 0.81105 0.41828 0.71829 0.0
C339 C 0.80168 0.53916 0.69062 0.0
C340 C 0.81101 0.5122 0.64817 0.0
H341 H 0.78857 0.54427 0.77466 0.0
H342 H 0.79796 0.57291 0.683 0.0
C343 C 0.81445 0.46848 0.65931 0.0
C344 C 0.52373 0.96496 0.44159 0.0
C345 C 0.57509 0.9796 0.46991 0.0
H346 H 0.44271 0.98024 0.4088 0.0
C347 C 0.58349 0.02184 0.48984 0.0
H348 H 0.516 0.93269 0.42541 0.0
C349 C 0.54166 0.049 0.48062 0.0
C350 C 0.49026 0.0347 0.45125 0.0
H351 H 0.62248 0.03394 0.51328 0.0
H352 H 0.54964 0.08123 0.49692 0.0
C353 C 0.48175 0.99222 0.43226 0.0
C354 C 0.54211 0.97087 -0.02363 0.0
C355 C 0.49077 0.98586 0.94893 0.0
H356 H 0.62316 0.98535 0.00875 0.0
C357 C 0.48267 0.02873 0.9325 0.0
H358 H 0.54984 0.93826 -0.00946 0.0
C359 C 0.52486 0.0558 0.94291 0.0
C360 C 0.57615 0.04068 -0.03013 0.0
H361 H 0.44376 0.04128 0.9104 0.0
H362 H 0.51726 0.08845 0.92886 0.0
C363 C 0.58423 0.9979 -0.01333 0.0
C364 C 0.04807 0.5537 0.48201 0.0
C365 C 0.99687 0.53843 0.4552 0.0
H366 H 0.12919 0.53956 0.51349 0.0
C367 C 0.98898 0.4956 0.43836 0.0
H368 H 0.05555 0.58635 0.4963 0.0
C369 C 1.03127 0.46873 0.44801 0.0
C370 C 0.08249 0.48401 0.47475 0.0
H371 H 0.95011 0.48291 0.41659 0.0
H372 H 1.02377 0.43609 0.43368 0.0
C373 C 0.09035 0.52684 0.49169 0.0
C374 C 0.04173 0.55106 -0.00633 0.0
C375 C 0.08182 0.53976 -0.02603 0.0
H376 H 0.97043 0.53314 0.00144 0.0
C377 C 0.07936 0.50031 0.9454 0.0
H378 H 0.04276 0.58082 0.01688 0.0
C379 C 0.03783 0.47289 0.93667 0.0
C380 C 0.99771 0.48422 0.95633 0.0
H381 H 0.10915 0.49083 0.92892 0.0
H382 H 0.03679 0.44314 0.91346 0.0
C383 C 1.00021 0.52365 -0.01505 0.0
C384 C 0.07922 0.07848 0.19606 0.0
C385 C 0.0831 0.09704 0.25197 0.0
H386 H 1.02968 0.06055 0.10493 0.0
C387 C 0.03839 0.11458 0.25681 0.0
H388 H 0.11287 0.06416 0.19137 0.0
C389 C 0.9905 0.11292 0.20704 0.0
C390 C 0.98616 0.09338 0.15138 0.0
H391 H 0.04048 0.12957 0.29924 0.0
H392 H 0.95706 0.12704 0.21237 0.0
C393 C 1.0313 0.07644 0.14648 0.0
C394 C 0.07942 0.93066 0.69371 0.0
C395 C 0.08192 0.92359 0.75384 0.0
H396 H 1.03112 0.93889 0.59869 0.0
C397 C 1.03527 0.91618 0.76247 0.0
H398 H 0.11431 0.93639 0.68503 0.0
C399 C 0.98725 0.91855 0.71299 0.0
C400 C 0.98462 0.92804 0.65343 0.0
H401 H 1.0356 0.90951 0.80781 0.0
H402 H 0.95226 0.91462 0.72209 0.0
C403 C 1.03142 0.93268 0.64414 0.0
C404 C 0.53487 0.61293 0.16379 0.0
C405 C 0.49001 0.59621 0.16905 0.0
H406 H 0.6162 0.62549 0.20811 0.0
C407 C 0.4937 0.57916 0.22561 0.0
H408 H 0.53296 0.62676 0.12083 0.0
C409 C 0.54152 0.57782 0.27545 0.0
C410 C 0.58683 0.594 0.27024 0.0
H411 H 0.45996 0.56549 0.23069 0.0
H412 H 0.54285 0.56305 0.31749 0.0
C413 C 0.58268 0.61202 0.21383 0.0
C414 C 0.54451 0.41241 0.76792 0.0
C415 C 0.58936 0.4289 0.76236 0.0
H416 H 0.46319 0.39975 0.72374 0.0
C417 C 0.58566 0.44554 0.70556 0.0
H418 H 0.54643 0.3989 0.81107 0.0
C419 C 0.53786 0.44661 0.6557 0.0
C420 C 0.49261 0.43057 0.66118 0.0
H421 H 0.61939 0.45905 0.70026 0.0
H422 H 0.53646 0.46101 0.61339 0.0
C423 C 0.49672 0.41308 0.71787 0.0
C424 C 0.26524 0.28485 0.49464 0.0
C425 C 0.29308 0.30629 0.46464 0.0
H426 H 0.23856 0.22549 0.51441 0.0
C427 C 0.31611 0.28272 0.43095 0.0
H428 H 0.2472 0.30194 0.52129 0.0
C429 C 0.31131 0.23877 0.42723 0.0
C430 C 0.28339 0.21735 0.45715 0.0
H431 H 0.33796 0.29817 0.40744 0.0
H432 H 0.32933 0.22166 0.40058 0.0
C433 C 0.26045 0.24092 0.49093 0.0
C434 C 0.75959 0.28352 -0.00622 0.0
C435 C 0.78454 0.30699 -0.03757 0.0
H436 H 0.74324 0.22239 0.02023 0.0
C437 C 0.81289 0.28541 0.93294 0.0
H438 H 0.73732 0.29909 0.01682 0.0
C439 C 0.81613 0.2414 0.93466 0.0
C440 C 0.79107 0.21792 -0.03415 0.0
H441 H 0.83242 0.30245 0.9081 0.0
H442 H 0.83835 0.22585 0.91154 0.0
C443 C 0.76282 0.23948 -0.00452 0.0
C444 C 0.7588 0.74064 0.49353 0.0
C445 C 0.78954 0.71625 0.47041 0.0
H446 H 0.74132 0.80214 0.51814 0.0
C447 C 0.82767 0.73648 0.45465 0.0
H448 H 0.72899 0.72611 0.50596 0.0
C449 C 0.83487 0.78013 0.46182 0.0
C450 C 0.80369 0.80456 0.48425 0.0
H451 H 0.85208 0.71863 0.43677 0.0
H452 H 0.86458 0.79472 0.44928 0.0
C453 C 0.76565 0.78431 0.50013 0.0
C454 C 0.31081 0.78441 0.9272 0.0
C455 C 0.2808 0.80609 0.95443 0.0
H456 H 0.33986 0.72493 0.91082 0.0
C457 C 0.25665 0.78291 -0.01301 0.0
H458 H 0.32981 0.80122 0.90154 0.0
C459 C 0.26235 0.73908 -0.00782 0.0
C460 C 0.29223 0.71739 -0.0352 0.0
H461 H 0.2332 0.79856 0.00843 0.0
H462 H 0.24335 0.72228 0.01783 0.0
C463 C 0.31644 0.74057 0.93231 0.0
loop_
_geom_bond_atom_site_label_1
_geom_bond_atom_site_label_2
_geom_bond_distance
_geom_bond_site_symmetry_2
_ccdc_geom_bond_type
Co0 N4 2.148 . S
Co0 N10 2.128 . S
Co0 N20 2.194 . S
Co0 O25 2.351 . S
Co0 O26 2.155 . S
Co0 O27 2.096 . S
C1 N4 1.301 . S
C1 N5 1.328 . S
C1 H6 0.930 . S
C2 C3 1.333 . S
C2 N4 1.317 . S
C2 H7 0.930 . S
C3 C2 1.333 . S
C3 N5 1.350 . S
C3 H29 0.931 . S
N4 Co0 2.148 . S
N4 C1 1.301 . S
N4 C2 1.317 . S
N5 C1 1.328 . S
N5 C3 1.350 . S
H6 C1 0.930 . S
H7 C2 0.930 . S
C8 O9 1.224 . S
C8 O27 1.247 . S
O9 C8 1.224 . S
N10 Co0 2.128 . S
N10 C11 1.355 . S
N10 C13 1.311 . S
C11 N10 1.355 . S
C11 C12 1.363 . S
C11 H23 0.929 . S
C12 C11 1.363 . S
C12 N14 1.375 . S
C12 H30 0.931 . S
C13 N10 1.311 . S
C13 N14 1.347 . S
C13 H24 0.929 . S
N14 C12 1.375 . S
N14 C13 1.347 . S
C15 C18 1.365 1_545 S
C15 N20 1.328 . S
C15 H21 0.929 1_545 S
C16 C17 1.362 . S
C16 C19 1.378 . S
C16 H31 0.929 . S
C17 C16 1.362 . S
C17 C18 1.366 1_545 S
C18 C15 1.365 1_565 S
C18 C17 1.366 1_565 S
C18 H32 0.930 . S
C19 C16 1.378 . S
C19 N20 1.315 . S
C19 H22 0.930 . S
N20 Co0 2.194 . S
N20 C15 1.328 . S
N20 C19 1.315 . S
H21 C15 0.929 1_565 S
H22 C19 0.930 . S
H23 C11 0.929 . S
H24 C13 0.929 . S
O25 Co0 2.351 . S
O25 C28 1.244 . S
O26 Co0 2.155 . S
O26 C28 1.240 . S
O27 Co0 2.096 . S
O27 C8 1.247 . S
C28 O25 1.244 . S
C28 O26 1.240 . S
H29 C3 0.931 . S
H30 C12 0.931 . S
H31 C16 0.929 . S
H32 C18 0.930 . S
Co33 N37 2.148 . S
Co33 N43 2.128 . S
Co33 N53 2.196 . S
Co33 O58 2.351 . S
Co33 O59 2.155 . S
Co33 O60 2.096 . S
C34 N37 1.301 . S
C34 N38 1.328 . S
C34 H39 0.930 . S
C35 C36 1.333 1_554 S
C35 N37 1.317 . S
C35 H40 0.930 . S
C36 C35 1.333 1_556 S
C36 N38 1.350 1_556 S
C36 H62 0.931 . S
N37 Co33 2.148 . S
N37 C34 1.301 . S
N37 C35 1.317 . S
N38 C34 1.328 . S
N38 C36 1.350 1_554 S
H39 C34 0.930 . S
H40 C35 0.930 . S
C41 O42 1.224 . S
C41 O60 1.247 . S
O42 C41 1.224 . S
N43 Co33 2.128 . S
N43 C44 1.355 . S
N43 C46 1.311 . S
C44 N43 1.355 . S
C44 C45 1.363 . S
C44 H56 0.929 . S
C45 C44 1.363 . S
C45 N47 1.375 . S
C45 H63 0.931 . S
C46 N43 1.311 . S
C46 N47 1.347 . S
C46 H57 0.929 . S
N47 C45 1.375 . S
N47 C46 1.347 . S
C48 C51 1.365 1_545 S
C48 N53 1.328 1_556 S
C48 H54 0.929 1_546 S
C49 C50 1.362 . S
C49 C52 1.378 . S
C49 H64 0.929 . S
C50 C49 1.362 . S
C50 C51 1.366 1_545 S
C51 C48 1.365 1_565 S
C51 C50 1.366 1_565 S
C51 H65 0.930 . S
C52 C49 1.378 . S
C52 N53 1.312 1_556 S
C52 H55 0.930 . S
N53 Co33 2.196 . S
N53 C48 1.328 1_554 S
N53 C52 1.312 1_554 S
H54 C48 0.929 1_564 S
H55 C52 0.930 . S
H56 C44 0.929 . S
H57 C46 0.929 . S
O58 Co33 2.351 . S
O58 C61 1.244 . S
O59 Co33 2.155 . S
O59 C61 1.240 . S
O60 Co33 2.096 . S
O60 C41 1.247 . S
C61 O58 1.244 . S
C61 O59 1.240 . S
H62 C36 0.931 . S
H63 C45 0.931 . S
H64 C49 0.929 . S
H65 C51 0.930 . S
Co66 N70 2.148 . S
Co66 N76 2.128 . S
Co66 N86 2.194 . S
Co66 O91 2.351 . S
Co66 O92 2.155 . S
Co66 O93 2.096 . S
C67 N70 1.301 . S
C67 N71 1.328 . S
C67 H72 0.930 . S
C68 C69 1.333 . S
C68 N70 1.317 . S
C68 H73 0.930 . S
C69 C68 1.333 . S
C69 N71 1.350 . S
C69 H95 0.931 . S
N70 Co66 2.148 . S
N70 C67 1.301 . S
N70 C68 1.317 . S
N71 C67 1.328 . S
N71 C69 1.350 . S
H72 C67 0.930 . S
H73 C68 0.930 . S
C74 O75 1.224 . S
C74 O93 1.247 . S
O75 C74 1.224 . S
N76 Co66 2.128 . S
N76 C77 1.355 . S
N76 C79 1.311 . S
C77 N76 1.355 . S
C77 C78 1.363 . S
C77 H89 0.929 . S
C78 C77 1.363 . S
C78 N80 1.375 . S
C78 H96 0.931 . S
C79 N76 1.311 . S
C79 N80 1.347 . S
C79 H90 0.929 . S
N80 C78 1.375 . S
N80 C79 1.347 . S
C81 C84 1.365 1_565 S
C81 N86 1.328 . S
C81 H87 0.929 1_565 S
C82 C83 1.362 . S
C82 C85 1.378 . S
C82 H97 0.929 . S
C83 C82 1.362 . S
C83 C84 1.366 1_565 S
C84 C81 1.365 1_545 S
C84 C83 1.366 1_545 S
C84 H98 0.930 . S
C85 C82 1.378 . S
C85 N86 1.315 . S
C85 H88 0.930 . S
N86 Co66 2.194 . S
N86 C81 1.328 . S
N86 C85 1.315 . S
H87 C81 0.929 1_545 S
H88 C85 0.930 . S
H89 C77 0.929 . S
H90 C79 0.929 . S
O91 Co66 2.351 . S
O91 C94 1.244 . S
O92 Co66 2.155 . S
O92 C94 1.240 . S
O93 Co66 2.096 . S
O93 C74 1.247 . S
C94 O91 1.244 . S
C94 O92 1.240 . S
H95 C69 0.931 . S
H96 C78 0.931 . S
H97 C82 0.929 . S
H98 C84 0.930 . S
Co99 N103 2.148 . S
Co99 N109 2.128 . S
Co99 N119 2.196 . S
Co99 O124 2.351 . S
Co99 O125 2.155 . S
Co99 O126 2.096 . S
C100 N103 1.301 . S
C100 N104 1.328 . S
C100 H105 0.930 . S
C101 C102 1.333 1_556 S
C101 N103 1.317 . S
C101 H106 0.930 . S
C102 C101 1.333 1_554 S
C102 N104 1.350 1_554 S
C102 H128 0.931 . S
N103 Co99 2.148 . S
N103 C100 1.301 . S
N103 C101 1.317 . S
N104 C100 1.328 . S
N104 C102 1.350 1_556 S
H105 C100 0.930 . S
H106 C101 0.930 . S
C107 O108 1.224 . S
C107 O126 1.247 . S
O108 C107 1.224 . S
N109 Co99 2.128 . S
N109 C110 1.355 . S
N109 C112 1.311 . S
C110 N109 1.355 . S
C110 C111 1.363 . S
C110 H122 0.929 . S
C111 C110 1.363 . S
C111 N113 1.375 . S
C111 H129 0.931 . S
C112 N109 1.311 . S
C112 N113 1.347 . S
C112 H123 0.929 . S
N113 C111 1.375 . S
N113 C112 1.347 . S
C114 C117 1.365 1_565 S
C114 N119 1.328 1_554 S
C114 H120 0.929 1_564 S
C115 C116 1.362 . S
C115 C118 1.378 . S
C115 H130 0.929 . S
C116 C115 1.362 . S
C116 C117 1.366 1_565 S
C117 C114 1.365 1_545 S
C117 C116 1.366 1_545 S
C117 H131 0.930 . S
C118 C115 1.378 . S
C118 N119 1.312 1_554 S
C118 H121 0.930 . S
N119 Co99 2.196 . S
N119 C114 1.328 1_556 S
N119 C118 1.312 1_556 S
H120 C114 0.929 1_546 S
H121 C118 0.930 . S
H122 C110 0.929 . S
H123 C112 0.929 . S
O124 Co99 2.351 . S
O124 C127 1.244 . S
O125 Co99 2.155 . S
O125 C127 1.240 . S
O126 Co99 2.096 . S
O126 C107 1.247 . S
C127 O124 1.244 . S
C127 O125 1.240 . S
H128 C102 0.931 . S
H129 C111 0.931 . S
H130 C115 0.929 . S
H131 C117 0.930 . S
Co132 N136 2.148 . S
Co132 N142 2.128 . S
Co132 N152 2.194 . S
Co132 O157 2.351 . S
Co132 O158 2.155 . S
Co132 O159 2.096 . S
C133 N136 1.301 . S
C133 N137 1.328 . S
C133 H138 0.930 . S
C134 C135 1.333 . S
C134 N136 1.317 . S
C134 H139 0.930 . S
C135 C134 1.333 . S
C135 N137 1.350 . S
C135 H161 0.931 . S
N136 Co132 2.148 . S
N136 C133 1.301 . S
N136 C134 1.317 . S
N137 C133 1.328 . S
N137 C135 1.350 . S
H138 C133 0.930 . S
H139 C134 0.930 . S
C140 O141 1.224 . S
C140 O159 1.247 . S
O141 C140 1.224 . S
N142 Co132 2.128 . S
N142 C143 1.355 . S
N142 C145 1.311 . S
C143 N142 1.355 . S
C143 C144 1.363 . S
C143 H155 0.929 . S
C144 C143 1.363 . S
C144 N146 1.375 . S
C144 H162 0.931 . S
C145 N142 1.311 . S
C145 N146 1.347 . S
C145 H156 0.929 . S
N146 C144 1.375 . S
N146 C145 1.347 . S
C147 C150 1.365 . S
C147 N152 1.328 . S
C147 H153 0.929 . S
C148 C149 1.362 . S
C148 C151 1.378 . S
C148 H163 0.929 . S
C149 C148 1.362 . S
C149 C150 1.366 . S
C150 C147 1.365 . S
C150 C149 1.366 . S
C150 H164 0.930 . S
C151 C148 1.378 . S
C151 N152 1.315 . S
C151 H154 0.930 . S
N152 Co132 2.194 . S
N152 C147 1.328 . S
N152 C151 1.315 . S
H153 C147 0.929 . S
H154 C151 0.930 . S
H155 C143 0.929 . S
H156 C145 0.929 . S
O157 Co132 2.351 . S
O157 C160 1.244 . S
O158 Co132 2.155 . S
O158 C160 1.240 . S
O159 Co132 2.096 . S
O159 C140 1.247 . S
C160 O157 1.244 . S
C160 O158 1.240 . S
H161 C135 0.931 . S
H162 C144 0.931 . S
H163 C148 0.929 . S
H164 C150 0.930 . S
Co165 N169 2.148 . S
Co165 N175 2.128 . S
Co165 N185 2.196 . S
Co165 O190 2.351 . S
Co165 O191 2.155 . S
Co165 O192 2.096 . S
C166 N169 1.301 . S
C166 N170 1.328 . S
C166 H171 0.930 . S
C167 C168 1.333 1_554 S
C167 N169 1.317 . S
C167 H172 0.930 . S
C168 C167 1.333 1_556 S
C168 N170 1.350 1_556 S
C168 H194 0.931 . S
N169 Co165 2.148 . S
N169 C166 1.301 . S
N169 C167 1.317 . S
N170 C166 1.328 . S
N170 C168 1.350 1_554 S
H171 C166 0.930 . S
H172 C167 0.930 . S
C173 O174 1.224 . S
C173 O192 1.247 . S
O174 C173 1.224 . S
N175 Co165 2.128 . S
N175 C176 1.355 . S
N175 C178 1.311 . S
C176 N175 1.355 . S
C176 C177 1.363 . S
C176 H188 0.929 . S
C177 C176 1.363 . S
C177 N179 1.375 . S
C177 H195 0.931 . S
C178 N175 1.311 . S
C178 N179 1.347 . S
C178 H189 0.929 . S
N179 C177 1.375 . S
N179 C178 1.347 . S
C180 C183 1.365 . S
C180 N185 1.328 1_556 S
C180 H186 0.929 1_556 S
C181 C182 1.362 . S
C181 C184 1.378 . S
C181 H196 0.929 . S
C182 C181 1.362 . S
C182 C183 1.366 . S
C183 C180 1.365 . S
C183 C182 1.366 . S
C183 H197 0.930 . S
C184 C181 1.378 . S
C184 N185 1.312 1_556 S
C184 H187 0.930 . S
N185 Co165 2.196 . S
N185 C180 1.328 1_554 S
N185 C184 1.312 1_554 S
H186 C180 0.929 1_554 S
H187 C184 0.930 . S
H188 C176 0.929 . S
H189 C178 0.929 . S
O190 Co165 2.351 . S
O190 C193 1.244 . S
O191 Co165 2.155 . S
O191 C193 1.240 . S
O192 Co165 2.096 . S
O192 C173 1.247 . S
C193 O190 1.244 . S
C193 O191 1.240 . S
H194 C168 0.931 . S
H195 C177 0.931 . S
H196 C181 0.929 . S
H197 C183 0.930 . S
Co198 N202 2.148 . S
Co198 N208 2.128 . S
Co198 N218 2.194 . S
Co198 O223 2.351 . S
Co198 O224 2.155 . S
Co198 O225 2.096 . S
C199 N202 1.301 . S
C199 N203 1.328 . S
C199 H204 0.930 . S
C200 C201 1.333 . S
C200 N202 1.317 . S
C200 H205 0.930 . S
C201 C200 1.333 . S
C201 N203 1.350 . S
C201 H227 0.931 . S
N202 Co198 2.148 . S
N202 C199 1.301 . S
N202 C200 1.317 . S
N203 C199 1.328 . S
N203 C201 1.350 . S
H204 C199 0.930 . S
H205 C200 0.930 . S
C206 O207 1.224 . S
C206 O225 1.247 . S
O207 C206 1.224 . S
N208 Co198 2.128 . S
N208 C209 1.355 . S
N208 C211 1.311 . S
C209 N208 1.355 . S
C209 C210 1.363 . S
C209 H221 0.929 . S
C210 C209 1.363 . S
C210 N212 1.375 . S
C210 H228 0.931 . S
C211 N208 1.311 . S
C211 N212 1.347 . S
C211 H222 0.929 . S
N212 C210 1.375 . S
N212 C211 1.347 . S
C213 C216 1.365 . S
C213 N218 1.328 . S
C213 H219 0.929 . S
C214 C215 1.362 . S
C214 C217 1.378 . S
C214 H229 0.929 . S
C215 C214 1.362 . S
C215 C216 1.366 . S
C216 C213 1.365 . S
C216 C215 1.366 . S
C216 H230 0.930 . S
C217 C214 1.378 . S
C217 N218 1.315 . S
C217 H220 0.930 . S
N218 Co198 2.194 . S
N218 C213 1.328 . S
N218 C217 1.315 . S
H219 C213 0.929 . S
H220 C217 0.930 . S
H221 C209 0.929 . S
H222 C211 0.929 . S
O223 Co198 2.351 . S
O223 C226 1.244 . S
O224 Co198 2.155 . S
O224 C226 1.240 . S
O225 Co198 2.096 . S
O225 C206 1.247 . S
C226 O223 1.244 . S
C226 O224 1.240 . S
H227 C201 0.931 . S
H228 C210 0.931 . S
H229 C214 0.929 . S
H230 C216 0.930 . S
Co231 N235 2.148 . S
Co231 N241 2.128 . S
Co231 N251 2.196 . S
Co231 O256 2.351 . S
Co231 O257 2.155 . S
Co231 O258 2.096 . S
C232 N235 1.301 . S
C232 N236 1.328 . S
C232 H237 0.930 . S
C233 C234 1.333 1_556 S
C233 N235 1.317 . S
C233 H238 0.930 . S
C234 C233 1.333 1_554 S
C234 N236 1.350 1_554 S
C234 H260 0.931 . S
N235 Co231 2.148 . S
N235 C232 1.301 . S
N235 C233 1.317 . S
N236 C232 1.328 . S
N236 C234 1.350 1_556 S
H237 C232 0.930 . S
H238 C233 0.930 . S
C239 O240 1.224 . S
C239 O258 1.247 . S
O240 C239 1.224 . S
N241 Co231 2.128 . S
N241 C242 1.355 . S
N241 C244 1.311 . S
C242 N241 1.355 . S
C242 C243 1.363 . S
C242 H254 0.929 . S
C243 C242 1.363 . S
C243 N245 1.375 . S
C243 H261 0.931 . S
C244 N241 1.311 . S
C244 N245 1.347 . S
C244 H255 0.929 . S
N245 C243 1.375 . S
N245 C244 1.347 . S
C246 C249 1.365 . S
C246 N251 1.328 1_554 S
C246 H252 0.929 1_554 S
C247 C248 1.362 . S
C247 C250 1.378 . S
C247 H262 0.929 . S
C248 C247 1.362 . S
C248 C249 1.366 . S
C249 C246 1.365 . S
C249 C248 1.366 . S
C249 H263 0.930 . S
C250 C247 1.378 . S
C250 N251 1.312 1_554 S
C250 H253 0.930 . S
N251 Co231 2.196 . S
N251 C246 1.328 1_556 S
N251 C250 1.312 1_556 S
H252 C246 0.929 1_556 S
H253 C250 0.930 . S
H254 C242 0.929 . S
H255 C244 0.929 . S
O256 Co231 2.351 . S
O256 C259 1.244 . S
O257 Co231 2.155 . S
O257 C259 1.240 . S
O258 Co231 2.096 . S
O258 C239 1.247 . S
C259 O256 1.244 . S
C259 O257 1.240 . S
H260 C234 0.931 . S
H261 C243 0.931 . S
H262 C247 0.929 . S
H263 C249 0.930 . S
C264 C265 1.387 . S
C264 H268 0.950 . S
C264 C273 1.390 . S
C265 C264 1.387 . S
C265 C267 1.387 1_545 S
H266 C273 0.950 . S
C267 C265 1.387 1_565 S
C267 C269 1.390 1_565 S
C267 H271 0.950 . S
H268 C264 0.950 . S
C269 C267 1.390 1_545 S
C269 C270 1.387 . S
C269 H272 0.950 1_545 S
C270 C269 1.387 . S
C270 C273 1.387 . S
H271 C267 0.950 . S
H272 C269 0.950 1_565 S
C273 C264 1.390 . S
C273 H266 0.950 . S
C273 C270 1.387 . S
C274 C275 1.387 . S
C274 H278 0.950 . S
C274 C283 1.390 . S
C275 C274 1.387 . S
C275 C277 1.387 1_545 S
H276 C283 0.950 . S
C277 C275 1.387 1_565 S
C277 C279 1.390 . S
C277 H281 0.950 . S
H278 C274 0.950 . S
C279 C277 1.390 . S
C279 C280 1.387 1_565 S
C279 H282 0.950 . S
C280 C279 1.387 1_545 S
C280 C283 1.387 . S
H281 C277 0.950 . S
H282 C279 0.950 . S
C283 C274 1.390 . S
C283 H276 0.950 . S
C283 C280 1.387 . S
C284 C285 1.387 . S
C284 H288 0.950 . S
C284 C293 1.390 . S
C285 C284 1.387 . S
C285 C287 1.387 . S
H286 C293 0.950 . S
C287 C285 1.387 . S
C287 C289 1.390 . S
C287 H291 0.950 . S
H288 C284 0.950 . S
C289 C287 1.390 . S
C289 C290 1.387 . S
C289 H292 0.950 . S
C290 C289 1.387 . S
C290 C293 1.387 . S
H291 C287 0.950 . S
H292 C289 0.950 . S
C293 C284 1.390 . S
C293 H286 0.950 . S
C293 C290 1.387 . S
C294 C295 1.387 . S
C294 H298 0.950 . S
C294 C303 1.390 . S
C295 C294 1.387 . S
C295 C297 1.387 1_565 S
H296 C303 0.950 . S
C297 C295 1.387 1_545 S
C297 C299 1.390 . S
C297 H301 0.950 . S
H298 C294 0.950 . S
C299 C297 1.390 . S
C299 C300 1.387 1_545 S
C299 H302 0.950 . S
C300 C299 1.387 1_565 S
C300 C303 1.387 . S
H301 C297 0.950 . S
H302 C299 0.950 . S
C303 C294 1.390 . S
C303 H296 0.950 . S
C303 C300 1.387 . S
C304 C305 1.387 . S
C304 H308 0.950 . S
C304 C313 1.390 . S
C305 C304 1.387 . S
C305 C307 1.387 . S
H306 C313 0.950 . S
C307 C305 1.387 . S
C307 C309 1.390 . S
C307 H311 0.950 . S
H308 C304 0.950 . S
C309 C307 1.390 . S
C309 C310 1.387 . S
C309 H312 0.950 . S
C310 C309 1.387 . S
C310 C313 1.387 . S
H311 C307 0.950 . S
H312 C309 0.950 . S
C313 C304 1.390 . S
C313 H306 0.950 . S
C313 C310 1.387 . S
C314 C315 1.387 . S
C314 H318 0.950 . S
C314 C323 1.390 . S
C315 C314 1.387 . S
C315 C317 1.387 . S
H316 C323 0.950 . S
C317 C315 1.387 . S
C317 C319 1.390 . S
C317 H321 0.950 . S
H318 C314 0.950 . S
C319 C317 1.390 . S
C319 C320 1.387 . S
C319 H322 0.950 . S
C320 C319 1.387 . S
C320 C323 1.387 . S
H321 C317 0.950 . S
H322 C319 0.950 . S
C323 C314 1.390 . S
C323 H316 0.950 . S
C323 C320 1.387 . S
C324 C325 1.387 . S
C324 H328 0.950 . S
C324 C333 1.390 . S
C325 C324 1.387 . S
C325 C327 1.387 . S
H326 C333 0.950 . S
C327 C325 1.387 . S
C327 C329 1.390 . S
C327 H331 0.950 . S
H328 C324 0.950 . S
C329 C327 1.390 . S
C329 C330 1.387 . S
C329 H332 0.950 . S
C330 C329 1.387 . S
C330 C333 1.387 . S
H331 C327 0.950 . S
H332 C329 0.950 . S
C333 C324 1.390 . S
C333 H326 0.950 . S
C333 C330 1.387 . S
C334 C335 1.387 . S
C334 H338 0.950 . S
C334 C343 1.390 . S
C335 C334 1.387 . S
C335 C337 1.387 . S
H336 C343 0.950 . S
C337 C335 1.387 . S
C337 C339 1.390 . S
C337 H341 0.950 . S
H338 C334 0.950 . S
C339 C337 1.390 . S
C339 C340 1.387 . S
C339 H342 0.950 . S
C340 C339 1.387 . S
C340 C343 1.387 . S
H341 C337 0.950 . S
H342 C339 0.950 . S
C343 C334 1.390 . S
C343 H336 0.950 . S
C343 C340 1.387 . S
C344 C345 1.387 . S
C344 H348 0.950 . S
C344 C353 1.390 . S
C345 C344 1.387 . S
C345 C347 1.387 1_565 S
H346 C353 0.950 . S
C347 C345 1.387 1_545 S
C347 C349 1.390 . S
C347 H351 0.950 . S
H348 C344 0.950 . S
C349 C347 1.390 . S
C349 C350 1.387 . S
C349 H352 0.950 . S
C350 C349 1.387 . S
C350 C353 1.387 1_545 S
H351 C347 0.950 . S
H352 C349 0.950 . S
C353 C344 1.390 . S
C353 H346 0.950 . S
C353 C350 1.387 1_565 S
C354 C355 1.387 1_556 S
C354 H358 0.950 . S
C354 C363 1.390 1_565 S
C355 C354 1.387 1_554 S
C355 C357 1.387 . S
H356 C363 0.950 . S
C357 C355 1.387 . S
C357 C359 1.390 1_565 S
C357 H361 0.950 . S
H358 C354 0.950 . S
C359 C357 1.390 1_545 S
C359 C360 1.387 1_554 S
C359 H362 0.950 . S
C360 C359 1.387 1_556 S
C360 C363 1.387 . S
H361 C357 0.950 . S
H362 C359 0.950 . S
C363 C354 1.390 1_545 S
C363 H356 0.950 . S
C363 C360 1.387 . S
C364 C365 1.387 . S
C364 H368 0.950 . S
C364 C373 1.390 1_655 S
C365 C364 1.387 . S
C365 C367 1.387 . S
H366 C373 0.950 . S
C367 C365 1.387 . S
C367 C369 1.390 1_655 S
C367 H371 0.950 . S
H368 C364 0.950 . S
C369 C367 1.390 1_455 S
C369 C370 1.387 . S
C369 H372 0.950 . S
C370 C369 1.387 . S
C370 C373 1.387 . S
H371 C367 0.950 . S
H372 C369 0.950 . S
C373 C364 1.390 1_455 S
C373 H366 0.950 . S
C373 C370 1.387 . S
C374 C375 1.387 1_554 S
C374 H378 0.950 . S
C374 C383 1.390 1_455 S
C375 C374 1.387 1_556 S
C375 C377 1.387 . S
H376 C383 0.950 . S
C377 C375 1.387 . S
C377 C379 1.390 1_455 S
C377 H381 0.950 . S
H378 C374 0.950 . S
C379 C377 1.390 1_655 S
C379 C380 1.387 1_556 S
C379 H382 0.950 . S
C380 C379 1.387 1_554 S
C380 C383 1.387 . S
H381 C377 0.950 . S
H382 C379 0.950 . S
C383 C374 1.390 1_655 S
C383 H376 0.950 . S
C383 C380 1.387 . S
C384 C385 1.387 . S
C384 H388 0.950 . S
C384 C393 1.390 1_455 S
C385 C384 1.387 . S
C385 C387 1.387 . S
H386 C393 0.950 . S
C387 C385 1.387 . S
C387 C389 1.390 1_455 S
C387 H391 0.950 . S
H388 C384 0.950 . S
C389 C387 1.390 1_655 S
C389 C390 1.387 . S
C389 H392 0.950 . S
C390 C389 1.387 . S
C390 C393 1.387 . S
H391 C387 0.950 . S
H392 C389 0.950 . S
C393 C384 1.390 1_655 S
C393 H386 0.950 . S
C393 C390 1.387 . S
C394 C395 1.387 . S
C394 H398 0.950 . S
C394 C403 1.390 1_455 S
C395 C394 1.387 . S
C395 C397 1.387 . S
H396 C403 0.950 . S
C397 C395 1.387 . S
C397 C399 1.390 1_455 S
C397 H401 0.950 . S
H398 C394 0.950 . S
C399 C397 1.390 1_655 S
C399 C400 1.387 . S
C399 H402 0.950 . S
C400 C399 1.387 . S
C400 C403 1.387 . S
H401 C397 0.950 . S
H402 C399 0.950 . S
C403 C394 1.390 1_655 S
C403 H396 0.950 . S
C403 C400 1.387 . S
C404 C405 1.387 . S
C404 H408 0.950 . S
C404 C413 1.390 . S
C405 C404 1.387 . S
C405 C407 1.387 . S
H406 C413 0.950 . S
C407 C405 1.387 . S
C407 C409 1.390 . S
C407 H411 0.950 . S
H408 C404 0.950 . S
C409 C407 1.390 . S
C409 C410 1.387 . S
C409 H412 0.950 . S
C410 C409 1.387 . S
C410 C413 1.387 . S
H411 C407 0.950 . S
H412 C409 0.950 . S
C413 C404 1.390 . S
C413 H406 0.950 . S
C413 C410 1.387 . S
C414 C415 1.387 . S
C414 H418 0.950 . S
C414 C423 1.390 . S
C415 C414 1.387 . S
C415 C417 1.387 . S
H416 C423 0.950 . S
C417 C415 1.387 . S
C417 C419 1.390 . S
C417 H421 0.950 . S
H418 C414 0.950 . S
C419 C417 1.390 . S
C419 C420 1.387 . S
C419 H422 0.950 . S
C420 C419 1.387 . S
C420 C423 1.387 . S
H421 C417 0.950 . S
H422 C419 0.950 . S
C423 C414 1.390 . S
C423 H416 0.950 . S
C423 C420 1.387 . S
C424 C425 1.387 . S
C424 H428 0.950 . S
C424 C433 1.390 . S
C425 C424 1.387 . S
C425 C427 1.387 . S
H426 C433 0.950 . S
C427 C425 1.387 . S
C427 C429 1.390 . S
C427 H431 0.950 . S
H428 C424 0.950 . S
C429 C427 1.390 . S
C429 C430 1.387 . S
C429 H432 0.950 . S
C430 C429 1.387 . S
C430 C433 1.387 . S
H431 C427 0.950 . S
H432 C429 0.950 . S
C433 C424 1.390 . S
C433 H426 0.950 . S
C433 C430 1.387 . S
C434 C435 1.387 . S
C434 H438 0.950 . S
C434 C443 1.390 . S
C435 C434 1.387 . S
C435 C437 1.387 1_556 S
H436 C443 0.950 . S
C437 C435 1.387 1_554 S
C437 C439 1.390 . S
C437 H441 0.950 . S
H438 C434 0.950 . S
C439 C437 1.390 . S
C439 C440 1.387 . S
C439 H442 0.950 . S
C440 C439 1.387 . S
C440 C443 1.387 1_554 S
H441 C437 0.950 . S
H442 C439 0.950 . S
C443 C434 1.390 . S
C443 H436 0.950 . S
C443 C440 1.387 1_556 S
C444 C445 1.387 . S
C444 H448 0.950 . S
C444 C453 1.390 . S
C445 C444 1.387 . S
C445 C447 1.387 . S
H446 C453 0.950 . S
C447 C445 1.387 . S
C447 C449 1.390 . S
C447 H451 0.950 . S
H448 C444 0.950 . S
C449 C447 1.390 . S
C449 C450 1.387 . S
C449 H452 0.950 . S
C450 C449 1.387 . S
C450 C453 1.387 . S
H451 C447 0.950 . S
H452 C449 0.950 . S
C453 C444 1.390 . S
C453 H446 0.950 . S
C453 C450 1.387 . S
C454 C455 1.387 1_554 S
C454 H458 0.950 . S
C454 C463 1.390 . S
C455 C454 1.387 1_556 S
C455 C457 1.387 . S
H456 C463 0.950 . S
C457 C455 1.387 . S
C457 C459 1.390 . S
C457 H461 0.950 . S
H458 C454 0.950 . S
C459 C457 1.390 . S
C459 C460 1.387 1_556 S
C459 H462 0.950 . S
C460 C459 1.387 1_554 S
C460 C463 1.387 . S
H461 C457 0.950 . S
H462 C459 0.950 . S
C463 C454 1.390 . S
C463 H456 0.950 . S
C463 C460 1.387 . S
C265 C116 1.106 1_545 S
C270 C28 1.109 . S
C275 C61 1.111 . S
C280 C83 1.108 1_545 S
C285 C94 1.112 . S
C290 C50 1.109 1_565 S
C295 C127 1.112 . S
C300 C17 1.109 1_565 S
C305 C160 1.112 . S
C310 C248 1.109 . S
C315 C193 1.109 . S
C320 C215 1.106 . S
C325 C182 1.106 . S
C330 C226 1.109 . S
C335 C259 1.112 . S
C340 C149 1.109 . S
C345 N71 2.101 . S
C350 N5 2.101 . S
C355 N104 2.103 1_554 S
C360 N38 2.103 1_556 S
C365 N137 2.099 . S
C370 N203 2.099 . S
C375 N170 2.101 1_556 S
C380 N236 2.101 1_554 S
C385 N14 1.730 . S
C390 N47 1.730 . S
C395 N113 1.732 . S
C400 N80 1.732 . S
C405 N179 1.732 . S
C410 N146 1.732 . S
C415 N245 1.730 . S
C420 N212 1.730 . S
C425 C206 1.576 . S
C430 C8 1.576 . S
C435 C239 1.573 . S
C440 C41 1.573 . S
C445 C140 1.576 . S
C450 C74 1.576 . S
C455 C107 1.576 . S
C460 C173 1.576 . S
