# Generated by pormake.
# Topology ukh, (4)-cn, num edge types: 1
# Building blocks:
#     Node 0, Type 0, BuildingBlock: QUQFOY_clean_sbu_3, # of connection points: 4
#     Node 1, Type 0, BuildingBlock: QUQFOY_clean_sbu_3, # of connection points: 4
#     Node 2, Type 0, BuildingBlock: QUQFOY_clean_sbu_3, # of connection points: 4
#     Node 3, Type 0, BuildingBlock: QUQFOY_clean_sbu_3, # of connection points: 4
#     Node 4, Type 0, BuildingBlock: QUQFOY_clean_sbu_3, # of connection points: 4
#     Node 5, Type 0, BuildingBlock: QUQFOY_clean_sbu_3, # of connection points: 4
#     Node 6, Type 0, BuildingBlock: QUQFOY_clean_sbu_3, # of connection points: 4
#     Node 7, Type 0, BuildingBlock: QUQFOY_clean_sbu_3, # of connection points: 4
#     Node 8, Type 0, BuildingBlock: QUQFOY_clean_sbu_3, # of connection points: 4
#     Node 9, Type 0, BuildingBlock: QUQFOY_clean_sbu_3, # of connection points: 4
#     Node 10, Type 0, BuildingBlock: QUQFOY_clean_sbu_3, # of connection points: 4
#     Node 11, Type 0, BuildingBlock: QUQFOY_clean_sbu_3, # of connection points: 4
#     Edge 12, Type (0, 0), BuildingBlock: TEMPAE_clean_linker_10, # of connection points: 2
#     Edge 13, Type (0, 0), BuildingBlock: TEMPAE_clean_linker_10, # of connection points: 2
#     Edge 14, Type (0, 0), BuildingBlock: TEMPAE_clean_linker_10, # of connection points: 2
#     Edge 15, Type (0, 0), BuildingBlock: TEMPAE_clean_linker_10, # of connection points: 2
#     Edge 16, Type (0, 0), BuildingBlock: TEMPAE_clean_linker_10, # of connection points: 2
#     Edge 17, Type (0, 0), BuildingBlock: TEMPAE_clean_linker_10, # of connection points: 2
#     Edge 18, Type (0, 0), BuildingBlock: TEMPAE_clean_linker_10, # of connection points: 2
#     Edge 19, Type (0, 0), BuildingBlock: TEMPAE_clean_linker_10, # of connection points: 2
#     Edge 20, Type (0, 0), BuildingBlock: TEMPAE_clean_linker_10, # of connection points: 2
#     Edge 21, Type (0, 0), BuildingBlock: TEMPAE_clean_linker_10, # of connection points: 2
#     Edge 22, Type (0, 0), BuildingBlock: TEMPAE_clean_linker_10, # of connection points: 2
#     Edge 23, Type (0, 0), BuildingBlock: TEMPAE_clean_linker_10, # of connection points: 2
#     Edge 24, Type (0, 0), BuildingBlock: TEMPAE_clean_linker_10, # of connection points: 2
#     Edge 25, Type (0, 0), BuildingBlock: TEMPAE_clean_linker_10, # of connection points: 2
#     Edge 26, Type (0, 0), BuildingBlock: TEMPAE_clean_linker_10, # of connection points: 2
#     Edge 27, Type (0, 0), BuildingBlock: TEMPAE_clean_linker_10, # of connection points: 2
#     Edge 28, Type (0, 0), BuildingBlock: TEMPAE_clean_linker_10, # of connection points: 2
#     Edge 29, Type (0, 0), BuildingBlock: TEMPAE_clean_linker_10, # of connection points: 2
#     Edge 30, Type (0, 0), BuildingBlock: TEMPAE_clean_linker_10, # of connection points: 2
#     Edge 31, Type (0, 0), BuildingBlock: TEMPAE_clean_linker_10, # of connection points: 2
#     Edge 32, Type (0, 0), BuildingBlock: TEMPAE_clean_linker_10, # of connection points: 2
#     Edge 33, Type (0, 0), BuildingBlock: TEMPAE_clean_linker_10, # of connection points: 2
#     Edge 34, Type (0, 0), BuildingBlock: TEMPAE_clean_linker_10, # of connection points: 2
#     Edge 35, Type (0, 0), BuildingBlock: TEMPAE_clean_linker_10, # of connection points: 2
# Relax obj value: 0.081
# Max RMSD: 0.104
# Mean RMSD: 0.098
data_MOF--net-ukh--node1-QUQFOY_clean_sbu_3--edge1-TEMPAE_clean_linker_10
_symmetry_space_group_name_H-M    P1
_symmetry_Int_Tables_number       1
_symmetry_cell_setting            triclinic
loop_
_symmetry_equiv_pos_as_xyz
'x, y, z'
_cell_length_a     32.494183
_cell_length_b     33.416105
_cell_length_c     65.850258
_cell_angle_alpha  90.018111
_cell_angle_beta   89.956799
_cell_angle_gamma 118.96985
loop_
_atom_site_label
_atom_site_type_symbol
_atom_site_fract_x
_atom_site_fract_y
_atom_site_fract_z
_atom_type_partial_charge
C0 C 0.19886 0.18704 0.04603 0.0
O1 O 0.18335 0.16163 0.06161 0.0
Cd2 Cd 0.23365 0.14441 0.08183 0.0
O3 O 0.24265 0.20751 0.04189 0.0
Cd4 Cd 0.32008 0.22172 0.05473 0.0
C5 C 0.28168 0.11145 0.04196 0.0
O6 O 0.29976 0.21598 0.08992 0.0
O7 O 0.36321 0.21265 0.08376 0.0
O8 O 0.34208 0.30136 0.05283 0.0
C9 C 0.33502 0.21392 0.09679 0.0
O10 O 0.25415 0.10263 0.0571 0.0
C11 C 0.37821 0.31402 0.04176 0.0
O12 O 0.31041 0.15265 0.03697 0.0
O13 O 0.38788 0.2831 0.03602 0.0
C14 C 0.183 0.35159 0.33423 0.0
O15 O 0.16071 0.35789 0.31988 0.0
Cd16 Cd 0.086 0.35534 0.32476 0.0
O17 O 0.16476 0.33928 0.35175 0.0
Cd18 Cd 0.09012 0.31837 0.36879 0.0
C19 C 0.01581 0.24176 0.33401 0.0
O20 O 0.08623 0.38566 0.35787 0.0
O21 O 0.02588 0.33454 0.37435 0.0
O22 O 0.12184 0.34578 0.40247 0.0
C23 C 0.04681 0.3739 0.36625 0.0
O24 O 0.0254 0.27548 0.32231 0.0
C25 C 0.10853 0.3065 0.41002 0.0
O26 O 0.03664 0.24774 0.35102 0.0
O27 O 0.08679 0.27232 0.39838 0.0
C28 C 0.81674 0.18218 0.66543 0.0
O29 O 0.78137 0.16863 0.65379 0.0
Cd30 Cd 0.71049 0.09843 0.66134 0.0
O31 O 0.8139 0.16186 0.68211 0.0
Cd32 Cd 0.75764 0.10159 0.70424 0.0
C33 C 0.75388 0.02367 0.67105 0.0
O34 O 0.6862 0.1037 0.69501 0.0
O35 O 0.67818 0.0449 0.71199 0.0
O36 O 0.78511 0.15703 0.73156 0.0
C37 C 0.65922 0.06644 0.70401 0.0
O38 O 0.72986 0.03592 0.65989 0.0
C39 C 0.79226 0.13211 0.74403 0.0
O40 O 0.77141 0.04402 0.68776 0.0
O41 O 0.78458 0.09312 0.73775 0.0
C42 C 0.76643 0.78482 0.04166 0.0
O43 O 0.78063 0.80834 0.05783 0.0
Cd44 Cd 0.72781 0.81994 0.0791 0.0
O45 O 0.72274 0.76311 0.03737 0.0
Cd46 Cd 0.64388 0.74341 0.05048 0.0
C47 C 0.67787 0.85415 0.04041 0.0
O48 O 0.66396 0.74607 0.0856 0.0
O49 O 0.59896 0.74677 0.08017 0.0
O50 O 0.62928 0.66656 0.04522 0.0
C51 C 0.62775 0.74569 0.09288 0.0
O52 O 0.70434 0.86198 0.05585 0.0
C53 C 0.59024 0.65162 0.03611 0.0
O54 O 0.65154 0.81329 0.03419 0.0
O55 O 0.57574 0.68028 0.03278 0.0
C56 C 0.79783 0.6351 0.34025 0.0
O57 O 0.81938 0.62706 0.3261 0.0
Cd58 Cd 0.89145 0.62492 0.33157 0.0
O59 O 0.81508 0.64541 0.35802 0.0
Cd60 Cd 0.88569 0.65767 0.3764 0.0
C61 C 0.96177 0.73739 0.34333 0.0
O62 O 0.88348 0.58828 0.36382 0.0
O63 O 0.94305 0.63215 0.38251 0.0
O64 O 0.83502 0.63318 0.40618 0.0
C65 C 0.92054 0.59482 0.37294 0.0
O66 O 0.95356 0.70461 0.33124 0.0
C67 C 0.8636 0.66536 0.41755 0.0
O68 O 0.93929 0.73004 0.35998 0.0
O69 O 0.90234 0.69435 0.40964 0.0
C70 C 0.15136 0.79977 0.664 0.0
O71 O 0.18291 0.82221 0.65092 0.0
Cd72 Cd 0.25334 0.89172 0.65946 0.0
O73 O 0.15479 0.81418 0.68211 0.0
Cd74 Cd 0.20795 0.87845 0.70337 0.0
C75 C 0.20351 0.9579 0.67324 0.0
O76 O 0.28182 0.88376 0.69193 0.0
O77 O 0.28604 0.93846 0.71093 0.0
O78 O 0.18743 0.82279 0.73049 0.0
C79 C 0.3071 0.92032 0.70173 0.0
O80 O 0.2303 0.95083 0.66137 0.0
C81 C 0.17821 0.8454 0.74346 0.0
O82 O 0.18618 0.93344 0.68906 0.0
O83 O 0.18166 0.88313 0.7376 0.0
C84 C 0.81526 0.62996 0.64344 0.0
O85 O 0.78406 0.62002 0.65703 0.0
Cd86 Cd 0.70819 0.61338 0.65008 0.0
O87 O 0.80911 0.63998 0.62548 0.0
Cd88 Cd 0.75009 0.64909 0.60605 0.0
C89 C 0.74467 0.72507 0.63886 0.0
O90 O 0.68324 0.57766 0.6174 0.0
O91 O 0.66797 0.62133 0.59824 0.0
O92 O 0.7801 0.62763 0.5765 0.0
C93 C 0.65315 0.58371 0.60757 0.0
O94 O 0.72042 0.69138 0.65055 0.0
C95 C 0.78392 0.6604 0.56545 0.0
O96 O 0.76261 0.71956 0.62262 0.0
O97 O 0.7726 0.68827 0.57345 0.0
C98 C 0.00347 0.78927 0.94181 0.0
O99 O 0.01446 0.81507 0.92632 0.0
Cd100 Cd 0.07908 0.82752 0.90496 0.0
O101 O 0.02443 0.76627 0.94557 0.0
Cd102 Cd 0.08417 0.74774 0.93215 0.0
C103 C 0.1622 0.85751 0.94365 0.0
O104 O 0.06852 0.75387 0.89717 0.0
O105 O 0.13373 0.75348 0.90251 0.0
O106 O 0.02335 0.66953 0.93498 0.0
C107 C 0.10446 0.75381 0.88983 0.0
O108 O 0.14475 0.86715 0.9283 0.0
C109 C 0.04648 0.65501 0.94519 0.0
O110 O 0.14614 0.81607 0.94939 0.0
O111 O 0.08832 0.68431 0.95012 0.0
C112 C 0.36182 0.19621 0.32331 0.0
O113 O 0.3713 0.17454 0.33666 0.0
Cd114 Cd 0.36904 0.1029 0.32908 0.0
O115 O 0.34856 0.17979 0.30563 0.0
Cd116 Cd 0.3333 0.11239 0.28573 0.0
C117 C 0.25189 0.0368 0.31788 0.0
O118 O 0.40163 0.10516 0.29609 0.0
O119 O 0.3469 0.04931 0.27909 0.0
O120 O 0.36653 0.1632 0.25679 0.0
C121 C 0.38735 0.06707 0.28709 0.0
O122 O 0.28662 0.04446 0.32927 0.0
C123 C 0.33239 0.13998 0.24493 0.0
O124 O 0.25793 0.05995 0.3017 0.0
O125 O 0.29786 0.10437 0.25225 0.0
C126 C 0.14151 0.35375 0.6269 0.0
O127 O 0.16981 0.36835 0.64179 0.0
Cd128 Cd 0.23973 0.3603 0.64273 0.0
O129 O 0.15002 0.33512 0.61182 0.0
Cd130 Cd 0.20804 0.31509 0.59887 0.0
C131 C 0.19429 0.24401 0.63811 0.0
O132 O 0.27798 0.38272 0.61036 0.0
O133 O 0.2877 0.32718 0.59866 0.0
O134 O 0.21019 0.34154 0.56442 0.0
C135 C 0.30587 0.36783 0.60536 0.0
O136 O 0.21566 0.27964 0.64913 0.0
C137 C 0.18735 0.30203 0.55664 0.0
O138 O 0.18467 0.24714 0.61963 0.0
O139 O 0.17381 0.26798 0.56849 0.0
C140 C 0.96892 0.18704 0.94392 0.0
O141 O 0.96047 0.16228 0.92818 0.0
Cd142 Cd 0.89574 0.14664 0.90636 0.0
O143 O 0.94562 0.20785 0.94755 0.0
Cd144 Cd 0.88468 0.224 0.93353 0.0
C145 C 0.81068 0.11311 0.94468 0.0
O146 O 0.90249 0.21879 0.89874 0.0
O147 O 0.83624 0.21749 0.90345 0.0
O148 O 0.94464 0.30215 0.93722 0.0
C149 C 0.86628 0.21764 0.89106 0.0
O150 O 0.83045 0.10503 0.92971 0.0
C151 C 0.9202 0.31643 0.94661 0.0
O152 O 0.82358 0.15413 0.95027 0.0
O153 O 0.87785 0.28691 0.95072 0.0
C154 C 0.61656 0.78955 0.32026 0.0
O155 O 0.60712 0.81272 0.33286 0.0
Cd156 Cd 0.60356 0.88059 0.32342 0.0
O157 O 0.62702 0.80241 0.30193 0.0
Cd158 Cd 0.63674 0.86429 0.27929 0.0
C159 C 0.71892 0.94752 0.30899 0.0
O160 O 0.56781 0.86846 0.29066 0.0
O161 O 0.61481 0.92106 0.26999 0.0
O162 O 0.60455 0.80753 0.25236 0.0
C163 C 0.57701 0.90365 0.28016 0.0
O164 O 0.68517 0.94058 0.32089 0.0
C165 C 0.63702 0.83048 0.2397 0.0
O166 O 0.71204 0.92216 0.29349 0.0
O167 O 0.67012 0.86869 0.24571 0.0
C168 C 0.57537 0.57154 0.03959 0.0
C169 C 0.56176 0.60219 0.03147 0.0
C170 C 0.54619 0.52416 0.03814 0.0
C171 C 0.50261 0.50677 0.0279 0.0
C172 C 0.49018 0.53742 0.01834 0.0
C173 C 0.51968 0.58491 0.02045 0.0
C174 C 0.56053 0.49288 0.0489 0.0
C175 C 0.44463 0.52013 0.00679 0.0
C176 C 0.43934 0.37751 0.02042 0.0
C177 C 0.4084 0.36306 0.03701 0.0
C178 C 0.46857 0.42443 0.01649 0.0
C179 C 0.46774 0.45732 0.02986 0.0
C180 C 0.43607 0.4427 0.04645 0.0
C181 C 0.40645 0.39589 0.04963 0.0
C182 C 0.50089 0.4388 -0.00168 0.0
C183 C 0.43477 0.47642 0.06139 0.0
H184 H 0.60793 0.58452 0.04807 0.0
H185 H 0.50917 0.60838 0.01395 0.0
H186 H 0.53648 0.47614 0.0619 0.0
H187 H 0.55757 0.46544 0.03855 0.0
H188 H 0.59713 0.51156 0.05475 0.0
H189 H 0.444 0.54737 -0.00266 0.0
H190 H 0.43889 0.49107 -0.00317 0.0
H191 H 0.41483 0.50745 0.01764 0.0
H192 H 0.44059 0.35221 0.01051 0.0
H193 H 0.38272 0.38494 0.06253 0.0
H194 H 0.53792 0.45374 0.00344 0.0
H195 H 0.49779 0.46563 0.98959 0.0
H196 H 0.49311 0.4096 0.98805 0.0
H197 H 0.46947 0.49567 0.06896 0.0
H198 H 0.40741 0.45944 0.07327 0.0
H199 H 0.4278 0.50167 0.05335 0.0
C200 C 0.04613 0.44459 0.35476 0.0
C201 C 0.02636 0.40475 0.3666 0.0
C202 C 0.02787 0.47489 0.35534 0.0
C203 C -0.01068 0.46524 0.36823 0.0
C204 C 0.96897 0.4249 0.3801 0.0
C205 C -0.01238 0.39494 0.37905 0.0
C206 C 0.05009 0.51741 0.34232 0.0
C207 C 0.92808 0.41384 0.39416 0.0
C208 C 0.97399 0.56572 0.3847 0.0
C209 C 0.9376 0.5613 0.3719 0.0
C210 C -0.00922 0.53428 0.38383 0.0
C211 C 0.97101 0.49798 0.36965 0.0
C212 C 0.93427 0.49332 0.35668 0.0
C213 C 0.91777 0.52497 0.35804 0.0
C214 C 0.02971 0.53994 0.39805 0.0
C215 C 0.91276 0.45523 0.34123 0.0
H216 H 0.07595 0.45215 0.34503 0.0
H217 H 0.97234 0.36421 0.38827 0.0
H218 H 0.0231 0.51868 0.33244 0.0
H219 H 0.06474 0.54829 0.35211 0.0
H220 H 0.07877 0.51901 0.33258 0.0
H221 H 0.91587 0.38069 0.40213 0.0
H222 H 0.93841 0.44126 0.4057 0.0
H223 H 0.89817 0.41245 0.38548 0.0
H224 H -0.01079 0.59365 0.39551 0.0
H225 H 0.88972 0.52157 0.34807 0.0
H226 H 0.06094 0.54512 0.38917 0.0
H227 H 0.0182 0.50844 0.40722 0.0
H228 H 0.04042 0.56939 0.40853 0.0
H229 H 0.94027 0.4575 0.33057 0.0
H230 H 0.88432 0.45637 0.33233 0.0
H231 H 0.89804 0.42157 0.34895 0.0
C232 C 0.38212 0.92663 0.68872 0.0
C233 C 0.35877 0.9423 0.70168 0.0
C234 C 0.43134 0.94773 0.68852 0.0
C235 C 0.45746 0.98495 0.70174 0.0
C236 C 0.43407 0.00093 0.71483 0.0
C237 C 0.38492 0.97948 0.71458 0.0
C238 C 0.45538 0.9301 0.67428 0.0
C239 C 0.46091 0.04029 0.72926 0.0
C240 C 0.57987 0.00913 0.71615 0.0
C241 C 0.60777 0.04674 0.70375 0.0
C242 C 0.53081 -0.01119 0.71569 0.0
C243 C 0.5093 0.00634 0.70237 0.0
C244 C 0.53723 0.04439 0.68985 0.0
C245 C 0.58633 0.06438 0.69078 0.0
C246 C 0.50201 0.94858 0.72944 0.0
C247 C 0.51524 0.06367 0.67538 0.0
H248 H 0.36197 0.89803 0.67866 0.0
H249 H 0.36695 -0.00836 0.72466 0.0
H250 H 0.48062 0.95823 0.66442 0.0
H251 H 0.47583 0.9175 0.68314 0.0
H252 H 0.42997 0.90185 0.66449 0.0
H253 H 0.43732 0.04895 0.73823 0.0
H254 H 0.48178 0.03158 0.73994 0.0
H255 H 0.48606 0.0711 0.7207 0.0
H256 H 0.5964 -0.00446 0.72626 0.0
H257 H 0.60788 0.09334 0.6811 0.0
H258 H 0.47835 0.91828 0.72023 0.0
H259 H 0.47943 0.95646 0.73948 0.0
H260 H 0.52431 0.93948 0.73907 0.0
H261 H 0.49182 0.03677 0.66458 0.0
H262 H 0.54199 0.09321 0.66658 0.0
H263 H 0.49315 0.07487 0.68391 0.0
C264 C 0.57271 0.55241 0.59321 0.0
C265 C 0.60288 0.54954 0.60761 0.0
C266 C 0.52461 0.52092 0.59322 0.0
C267 C 0.50626 0.48625 0.6082 0.0
C268 C 0.53655 0.48301 0.62274 0.0
C269 C 0.58474 0.51459 0.62217 0.0
C270 C 0.49338 0.52497 0.57729 0.0
C271 C 0.51793 0.44676 0.63907 0.0
C272 C 0.37612 0.43725 0.6184 0.0
C273 C 0.3572 0.39666 0.60711 0.0
C274 C 0.42484 0.46599 0.61949 0.0
C275 C 0.4551 0.45404 0.60878 0.0
C276 C 0.43624 0.41266 0.59768 0.0
C277 C 0.3874 0.38423 0.5971 0.0
C278 C 0.44387 0.5096 0.63171 0.0
C279 C 0.46751 0.39918 0.58588 0.0
H280 H 0.58675 0.57924 0.58185 0.0
H281 H 0.60804 0.51247 0.63337 0.0
H282 H 0.47417 0.4923 0.56884 0.0
H283 H 0.46667 0.53174 0.58467 0.0
H284 H 0.51356 0.55285 0.56625 0.0
H285 H 0.54631 0.44851 0.64905 0.0
H286 H 0.49196 0.45075 0.64859 0.0
H287 H 0.49935 0.41226 0.6321 0.0
H288 H 0.35283 0.44672 0.62631 0.0
H289 H 0.37282 0.35285 0.58834 0.0
H290 H 0.46122 0.53956 0.62144 0.0
H291 H 0.47088 0.51163 0.64259 0.0
H292 H 0.41585 0.51222 0.64032 0.0
H293 H 0.48601 0.42462 0.5737 0.0
H294 H 0.44742 0.36483 0.57882 0.0
H295 H 0.49483 0.39917 0.59596 0.0
C296 C 0.98163 0.39726 0.9412 0.0
C297 C 0.94 0.36585 0.95097 0.0
C298 C -0.00083 0.44447 0.94319 0.0
C299 C 0.97516 0.46095 0.95566 0.0
C300 C 0.93462 0.42953 0.96655 0.0
C301 C 0.91707 0.3822 0.96386 0.0
C302 C 0.04189 0.47659 0.93094 0.0
C303 C 0.90887 0.44587 0.98044 0.0
C304 C 0.04486 0.58941 0.96463 0.0
C305 C 0.02597 0.60559 0.94965 0.0
C306 C 0.02656 0.54212 0.96778 0.0
C307 C -0.01036 0.51058 0.95522 0.0
C308 C 0.96977 0.52691 0.94046 0.0
C309 C -0.01224 0.57409 0.93805 0.0
C310 C 0.04766 0.52594 0.98409 0.0
C311 C 0.93121 0.49466 0.92637 0.0
H312 H -0.00038 0.38497 0.93122 0.0
H313 H 0.88516 0.3581 0.9716 0.0
H314 H 0.03181 0.4949 0.91962 0.0
H315 H 0.06899 0.50277 0.94095 0.0
H316 H 0.05783 0.45838 0.92276 0.0
H317 H 0.88275 0.41785 0.99014 0.0
H318 H 0.9341 0.4739 0.99035 0.0
H319 H 0.89007 0.45977 0.97126 0.0
H320 H 0.07407 0.61364 0.97377 0.0
H321 H 0.97302 0.58633 0.92641 0.0
H322 H 0.06876 0.51172 0.97699 0.0
H323 H 0.01949 0.49818 -0.00684 0.0
H324 H 0.07085 0.5541 -0.00552 0.0
H325 H 0.94456 0.47617 0.91673 0.0
H326 H 0.9182 0.51279 0.9163 0.0
H327 H 0.90111 0.46864 0.93523 0.0
C328 C 0.45694 0.05949 0.29778 0.0
C329 C 0.41518 0.04308 0.28664 0.0
C330 C 0.48323 0.03641 0.29743 0.0
C331 C 0.46736 -0.00365 0.28554 0.0
C332 C 0.42519 0.9796 0.2743 0.0
C333 C 0.39951 0.00314 0.27503 0.0
C334 C 0.52804 0.05495 0.30966 0.0
C335 C 0.40748 0.93714 0.26132 0.0
C336 C 0.55651 0.96208 0.26791 0.0
C337 C 0.54804 0.92637 0.28134 0.0
C338 C 0.5305 0.98526 0.26916 0.0
C339 C 0.49552 0.97254 0.28431 0.0
C340 C 0.48673 0.9365 0.29792 0.0
C341 C 0.51303 0.9136 0.2962 0.0
C342 C 0.54035 0.02322 0.25425 0.0
C343 C 0.44971 0.9223 0.3143 0.0
H344 H 0.469 0.09026 0.30683 0.0
H345 H 0.36724 -0.00964 0.26636 0.0
H346 H 0.52632 0.02833 0.32023 0.0
H347 H 0.55839 0.06411 0.29939 0.0
H348 H 0.5347 0.0857 0.31861 0.0
H349 H 0.37358 0.92832 0.25376 0.0
H350 H 0.43386 0.94221 0.24946 0.0
H351 H 0.4026 0.90765 0.27075 0.0
H352 H 0.58349 0.97192 0.25635 0.0
H353 H 0.50661 0.88615 0.30667 0.0
H354 H 0.55049 0.0556 0.26251 0.0
H355 H 0.50807 0.01497 0.24546 0.0
H356 H 0.56891 0.02892 0.24341 0.0
H357 H 0.45726 0.95194 0.3242 0.0
H358 H 0.44786 0.89413 0.32389 0.0
H359 H 0.41469 0.91091 0.30734 0.0
C360 C 0.30146 0.12177 0.20952 0.0
C361 C 0.33376 0.15291 0.22341 0.0
C362 C 0.30372 0.13281 0.18887 0.0
C363 C 0.33872 0.17626 0.18204 0.0
C364 C 0.37113 0.20804 0.19601 0.0
C365 C 0.36845 0.19585 0.21654 0.0
C366 C 0.26881 0.0979 0.17434 0.0
C367 C 0.40844 0.25494 0.1893 0.0
C368 C 0.36761 0.18953 0.12573 0.0
C369 C 0.33906 0.2073 0.11869 0.0
C370 C 0.36839 0.17978 0.14642 0.0
C371 C 0.34053 0.18875 0.16031 0.0
C372 C 0.31296 0.20818 0.15334 0.0
C373 C 0.31231 0.21692 0.13258 0.0
C374 C 0.39787 0.15864 0.15333 0.0
C375 C 0.28338 0.21888 0.16774 0.0
H376 H 0.2748 0.08841 0.21474 0.0
H377 H 0.39347 0.22007 0.22724 0.0
H378 H 0.24752 0.11167 0.16704 0.0
H379 H 0.28771 0.09066 0.16208 0.0
H380 H 0.2446 0.06522 0.18202 0.0
H381 H 0.43093 0.27567 0.2021 0.0
H382 H 0.43122 0.25179 0.17757 0.0
H383 H 0.39167 0.27364 0.18228 0.0
H384 H 0.38822 0.18194 0.11501 0.0
H385 H 0.29047 0.23101 0.1272 0.0
H386 H 0.37473 0.12416 0.15974 0.0
H387 H 0.42225 0.17958 0.16557 0.0
H388 H 0.41878 0.1553 0.14074 0.0
H389 H 0.25572 0.18678 0.17464 0.0
H390 H 0.2661 0.2364 0.16004 0.0
H391 H 0.30545 0.24094 0.1803 0.0
C392 C 0.11497 0.32993 0.44612 0.0
C393 C 0.11771 0.3011 0.43141 0.0
C394 C 0.12432 0.326 0.46657 0.0
C395 C 0.13861 0.2937 0.47223 0.0
C396 C 0.14153 0.26452 0.45737 0.0
C397 C 0.13011 0.26799 0.43712 0.0
C398 C 0.11931 0.35672 0.48207 0.0
C399 C 0.15825 0.23084 0.46273 0.0
C400 C 0.20949 0.32577 0.52084 0.0
C401 C 0.17617 0.29647 0.53487 0.0
C402 C 0.19846 0.32333 0.50016 0.0
C403 C 0.15238 0.29213 0.49358 0.0
C404 C 0.11879 0.26193 0.5077 0.0
C405 C 0.13144 0.2639 0.52821 0.0
C406 C 0.23573 0.355 0.48546 0.0
C407 C 0.06889 0.22931 0.50137 0.0
H408 H 0.10491 0.35523 0.44165 0.0
H409 H 0.1325 0.24597 0.42563 0.0
H410 H 0.09666 0.33601 0.49482 0.0
H411 H 0.15426 0.38067 0.48851 0.0
H412 H 0.10392 0.37708 0.47544 0.0
H413 H 0.15768 0.21004 0.44946 0.0
H414 H 0.19473 0.24954 0.46868 0.0
H415 H 0.13599 0.20747 0.47491 0.0
H416 H 0.24422 0.3507 0.52608 0.0
H417 H 0.10564 0.24157 0.53919 0.0
H418 H 0.22649 0.38082 0.47968 0.0
H419 H 0.23761 0.3355 0.47217 0.0
H420 H 0.27106 0.37326 0.49261 0.0
H421 H 0.05158 0.24907 0.49614 0.0
H422 H 0.04779 0.20649 0.51398 0.0
H423 H 0.06856 0.20789 0.48844 0.0
C424 C 0.80394 0.11565 0.7799 0.0
C425 C 0.80645 0.14703 0.76518 0.0
C426 C 0.81409 0.12861 0.80032 0.0
C427 C 0.82759 0.17416 0.80604 0.0
C428 C 0.83118 0.20625 0.79118 0.0
C429 C 0.82029 0.19222 0.77092 0.0
C430 C 0.80965 0.09341 0.81581 0.0
C431 C 0.84614 0.25528 0.79671 0.0
C432 C 0.81162 0.1954 0.86137 0.0
C433 C 0.85678 0.20971 0.8691 0.0
C434 C 0.80172 0.18428 0.84075 0.0
C435 C 0.83801 0.18814 0.82762 0.0
C436 C 0.884 0.204 0.83524 0.0
C437 C 0.89277 0.21438 0.85592 0.0
C438 C 0.75218 0.16722 0.83313 0.0
C439 C 0.92371 0.20911 0.82164 0.0
H440 H 0.79301 0.08062 0.77555 0.0
H441 H 0.82241 0.21664 0.75957 0.0
H442 H 0.84374 0.10494 0.82366 0.0
H443 H 0.78343 0.08952 0.82754 0.0
H444 H 0.7987 0.05942 0.80886 0.0
H445 H 0.84833 0.27624 0.78324 0.0
H446 H 0.82079 0.25643 0.80767 0.0
H447 H 0.881 0.27107 0.80427 0.0
H448 H 0.7837 0.19168 0.87152 0.0
H449 H 0.92784 0.22574 0.86182 0.0
H450 H 0.73781 0.13173 0.82738 0.0
H451 H 0.75216 0.18862 0.82026 0.0
H452 H 0.72834 0.16754 0.84515 0.0
H453 H 0.91596 0.17517 0.8156 0.0
H454 H 0.95796 0.22419 0.82974 0.0
H455 H 0.9271 0.23111 0.80843 0.0
C456 C 0.59364 0.76686 0.12235 0.0
C457 C 0.62395 0.75153 0.11488 0.0
C458 C 0.59365 0.77704 0.14303 0.0
C459 C 0.62423 0.77107 0.15649 0.0
C460 C 0.65331 0.75361 0.14916 0.0
C461 C 0.65303 0.74432 0.12841 0.0
C462 C 0.5624 0.79594 0.15031 0.0
C463 C 0.68585 0.74615 0.16312 0.0
C464 C 0.66501 0.8446 0.20382 0.0
C465 C 0.63509 0.81448 0.21865 0.0
C466 C 0.66166 0.83087 0.1835 0.0
C467 C 0.628 0.78575 0.17798 0.0
C468 C 0.5983 0.75489 0.19294 0.0
C469 C 0.602 0.76974 0.21312 0.0
C470 C 0.69371 0.86483 0.1679 0.0
C471 C 0.56254 0.70633 0.18763 0.0
H472 H 0.57115 0.77252 0.11193 0.0
H473 H 0.67624 0.73207 0.1227 0.0
H474 H 0.54057 0.77553 0.16329 0.0
H475 H 0.58445 0.83151 0.15579 0.0
H476 H 0.53878 0.79608 0.13816 0.0
H477 H 0.70327 0.72884 0.15533 0.0
H478 H 0.71347 0.77954 0.16899 0.0
H479 H 0.66611 0.72523 0.1764 0.0
H480 H 0.69046 0.87929 0.208 0.0
H481 H 0.57887 0.74631 0.22456 0.0
H482 H 0.67244 0.86952 0.15591 0.0
H483 H 0.71531 0.85162 0.1604 0.0
H484 H 0.71768 0.89873 0.17468 0.0
H485 H 0.537 0.70632 0.17646 0.0
H486 H 0.54287 0.68631 0.20115 0.0
H487 H 0.58028 0.68876 0.18039 0.0
C488 C 0.8164 0.63684 0.53626 0.0
C489 C 0.79916 0.6649 0.54405 0.0
C490 C 0.82871 0.63907 0.51572 0.0
C491 C 0.82318 0.66978 0.50267 0.0
C492 C 0.80657 0.69876 0.51051 0.0
C493 C 0.79495 0.69613 0.53117 0.0
C494 C 0.84682 0.60798 0.50791 0.0
C495 C 0.79993 0.73169 0.497 0.0
C496 C 0.88786 0.69872 0.45227 0.0
C497 C 0.85279 0.66811 0.43912 0.0
C498 C 0.87863 0.69999 0.473 0.0
C499 C 0.83315 0.67027 0.48065 0.0
C500 C 0.79733 0.64004 0.46736 0.0
C501 C 0.80765 0.63916 0.44676 0.0
C502 C 0.91776 0.73243 0.48678 0.0
C503 C 0.74825 0.60817 0.47497 0.0
H504 H 0.81994 0.6128 0.54618 0.0
H505 H 0.78156 0.71785 0.53711 0.0
H506 H 0.82199 0.58398 0.49652 0.0
H507 H 0.88116 0.62838 0.50019 0.0
H508 H 0.85127 0.58771 0.52024 0.0
H509 H 0.78828 0.75303 0.50561 0.0
H510 H 0.83327 0.75461 0.48904 0.0
H511 H 0.77329 0.71239 0.48517 0.0
H512 H 0.92285 0.7211 0.44644 0.0
H513 H 0.78036 0.6156 0.43663 0.0
H514 H 0.92499 0.71273 0.49846 0.0
H515 H 0.90699 0.75498 0.49489 0.0
H516 H 0.95082 0.75416 0.47833 0.0
H517 H 0.74935 0.58401 0.48622 0.0
H518 H 0.72395 0.58809 0.46251 0.0
H519 H 0.73368 0.62798 0.4828 0.0
C520 C 0.16067 0.7777 0.86062 0.0
C521 C 0.11481 0.76148 0.86793 0.0
C522 C 0.17131 0.78942 0.84008 0.0
C523 C 0.13504 0.78411 0.82661 0.0
C524 C 0.08834 0.7659 0.83377 0.0
C525 C 0.07886 0.75508 0.85439 0.0
C526 C 0.22158 0.80905 0.83296 0.0
C527 C 0.04862 0.75909 0.81979 0.0
C528 C 0.16635 0.85901 0.77972 0.0
C529 C 0.16588 0.82929 0.7646 0.0
C530 C 0.15692 0.84484 0.80003 0.0
C531 C 0.14615 0.79969 0.80523 0.0
C532 C 0.14508 0.76935 0.79 0.0
C533 C 0.15527 0.78463 0.76985 0.0
C534 C 0.15873 0.87825 0.81592 0.0
C535 C 0.13302 0.72076 0.79497 0.0
H536 H 0.18855 0.78277 0.87107 0.0
H537 H 0.04326 0.74216 0.85997 0.0
H538 H 0.22357 0.78939 0.81978 0.0
H539 H 0.23479 0.84484 0.82782 0.0
H540 H 0.24519 0.80883 0.8451 0.0
H541 H 0.01383 0.74158 0.82747 0.0
H542 H 0.05446 0.79273 0.81415 0.0
H543 H 0.04767 0.73863 0.80636 0.0
H544 H 0.17485 0.89365 0.77575 0.0
H545 H 0.15478 0.7615 0.75819 0.0
H546 H 0.18449 0.88234 0.8279 0.0
H547 H 0.1239 0.86486 0.82337 0.0
H548 H 0.16875 0.91245 0.80943 0.0
H549 H 0.15833 0.72067 0.80624 0.0
H550 H 0.13356 0.70146 0.78133 0.0
H551 H 0.09754 0.70251 0.80195 0.0
C552 C 0.20741 0.94089 0.9515 0.0
C553 C 0.19661 0.89591 0.95637 0.0
C554 C 0.23079 0.97677 0.96532 0.0
C555 C 0.24495 0.96785 0.98432 0.0
C556 C 0.239 0.92372 0.9884 0.0
C557 C 0.21431 0.88801 0.97447 0.0
C558 C 0.23596 0.02312 0.96033 0.0
C559 C 0.25562 0.91342 0.00811 0.0
C560 C 0.31157 0.07483 0.01671 0.0
C561 C 0.27501 0.07301 0.02869 0.0
C562 C 0.30334 0.03907 0.00315 0.0
C563 C 0.25713 0.00192 0.00097 0.0
C564 C 0.2205 -0.00034 0.0134 0.0
C565 C 0.2301 0.03476 0.0273 0.0
C566 C 0.34374 0.04189 0.99077 0.0
C567 C 0.17039 0.96146 0.01126 0.0
H568 H 0.19469 0.94773 0.93742 0.0
H569 H 0.20696 0.8536 0.97824 0.0
H570 H 0.21199 0.02956 0.97015 0.0
H571 H 0.27231 0.05055 0.96339 0.0
H572 H 0.22736 0.02565 0.94421 0.0
H573 H 0.258 0.88142 0.00712 0.0
H574 H 0.29054 0.94204 0.01243 0.0
H575 H 0.23051 0.90929 0.02041 0.0
H576 H 0.34644 0.10417 0.01787 0.0
H577 H 0.20158 0.03328 0.03641 0.0
H578 H 0.34293 0.05486 0.97536 0.0
H579 H 0.34103 0.00765 0.98905 0.0
H580 H 0.37821 0.0655 -0.00222 0.0
H581 H 0.15744 0.96168 -0.00431 0.0
H582 H 0.14618 0.96451 0.02229 0.0
H583 H 0.16874 0.92785 0.01354 0.0
C584 C 0.22466 0.3192 0.31489 0.0
C585 C 0.22601 0.34929 0.32993 0.0
C586 C 0.25857 0.30485 0.3144 0.0
C587 C 0.29577 0.32287 0.32875 0.0
C588 C 0.30037 0.35767 0.34229 0.0
C589 C 0.26445 0.36949 0.34317 0.0
C590 C 0.25157 0.26688 0.29996 0.0
C591 C 0.34113 0.38005 0.35685 0.0
C592 C 0.32543 0.23157 0.34422 0.0
C593 C 0.35731 0.23626 0.32895 0.0
C594 C 0.3077 0.26222 0.34549 0.0
C595 C 0.32401 0.29931 0.33164 0.0
C596 C 0.36108 0.30756 0.31809 0.0
C597 C 0.37636 0.27499 0.31645 0.0
C598 C 0.26771 0.2517 0.36002 0.0
C599 C 0.3818 0.34853 0.30417 0.0
H600 H 0.19453 0.3034 0.30482 0.0
H601 H 0.2654 0.39302 0.35474 0.0
H602 H 0.28358 0.2772 0.29066 0.0
H603 H 0.24521 0.23604 0.30873 0.0
H604 H 0.22135 0.2574 0.28954 0.0
H605 H 0.34861 0.41535 0.36063 0.0
H606 H 0.33223 0.36024 0.3712 0.0
H607 H 0.37344 0.38143 0.3505 0.0
H608 H 0.31062 0.20128 0.35374 0.0
H609 H 0.40134 0.27855 0.3047 0.0
H610 H 0.2352 0.24298 0.3513 0.0
H611 H 0.27566 0.28204 0.36945 0.0
H612 H 0.26058 0.22265 0.37027 0.0
H613 H 0.35989 0.34082 0.29031 0.0
H614 H 0.418 0.3573 0.29939 0.0
H615 H 0.38278 0.37876 0.31165 0.0
C616 C 0.90288 0.21528 0.66376 0.0
C617 C 0.86295 0.219 0.65899 0.0
C618 C 0.94736 0.24791 0.65705 0.0
C619 C 0.95228 0.28619 0.64584 0.0
C620 C 0.91226 0.29118 0.64165 0.0
C621 C 0.86767 0.25691 0.64802 0.0
C622 C -0.01118 0.24038 0.66143 0.0
C623 C 0.91659 0.33273 0.63072 0.0
C624 C 0.08172 0.36618 0.64582 0.0
C625 C 0.09454 0.3504 0.62848 0.0
C626 C 0.03415 0.35082 0.65028 0.0
C627 C -0.00082 0.31817 0.63739 0.0
C628 C 0.0122 0.3075 0.61849 0.0
C629 C 0.0599 0.32431 0.61414 0.0
C630 C 0.02141 0.36515 0.66998 0.0
C631 C 0.97612 0.27299 0.60419 0.0
H632 H 0.89908 0.18576 0.67216 0.0
H633 H 0.83665 0.25998 0.64465 0.0
H634 H 0.00607 0.23949 0.64702 0.0
H635 H 0.01528 0.269 0.67069 0.0
H636 H 0.97843 0.20795 0.66975 0.0
H637 H 0.88173 0.32879 0.62647 0.0
H638 H 0.93465 0.36303 0.64076 0.0
H639 H 0.93831 0.33991 0.61681 0.0
H640 H 0.10839 0.38756 0.6567 0.0
H641 H 0.06952 0.31302 0.60038 0.0
H642 H 0.01477 0.33903 0.68179 0.0
H643 H -0.01109 0.36792 0.66827 0.0
H644 H 0.05032 0.39844 0.67538 0.0
H645 H 0.96367 0.23807 0.61035 0.0
H646 H -0.00902 0.27464 0.58882 0.0
H647 H 0.94513 0.2783 0.60275 0.0
C648 C 0.7234 0.93671 0.03136 0.0
C649 C 0.68363 0.89386 0.02817 0.0
C650 C 0.73523 0.97301 0.01786 0.0
C651 C 0.70582 0.96698 0.001 0.0
C652 C 0.6632 0.92533 -0.00124 0.0
C653 C 0.65296 0.88886 0.01218 0.0
C654 C 0.78149 0.01641 0.02071 0.0
C655 C 0.62978 0.91835 0.98155 0.0
C656 C 0.74828 0.07825 0.97183 0.0
C657 C 0.77697 0.07372 0.9571 0.0
C658 C 0.7211 0.04201 0.9852 0.0
C659 C 0.72419 0.00116 0.98424 0.0
C660 C 0.75119 -0.0043 0.96871 0.0
C661 C 0.77656 0.03167 0.9552 0.0
C662 C 0.69103 0.04837 0.00095 0.0
C663 C 0.75644 0.95322 0.96731 0.0
H664 H 0.74729 0.9412 0.04371 0.0
H665 H 0.62177 0.85613 0.00977 0.0
H666 H 0.80571 0.02 0.00808 0.0
H667 H 0.77613 0.04672 0.02031 0.0
H668 H 0.79885 0.01671 0.03528 0.0
H669 H 0.59401 0.88961 0.98468 0.0
H670 H 0.62731 0.94987 0.97874 0.0
H671 H 0.64297 0.91032 0.96743 0.0
H672 H 0.74787 0.11038 0.97323 0.0
H673 H 0.79845 0.02762 0.94385 0.0
H674 H 0.71003 0.05804 0.01565 0.0
H675 H 0.65757 0.01615 0.00334 0.0
H676 H 0.68286 0.07585 -0.00346 0.0
H677 H 0.77451 0.95038 0.98109 0.0
H678 H 0.77704 0.95353 0.95378 0.0
H679 H 0.72144 0.9222 0.96661 0.0
C680 C 0.65763 0.76111 0.3424 0.0
C681 C 0.62398 0.75207 0.32735 0.0
C682 C 0.67664 0.73184 0.34518 0.0
C683 C 0.65991 0.69177 0.33314 0.0
C684 C 0.62173 0.6798 0.31973 0.0
C685 C 0.60506 0.71092 0.31652 0.0
C686 C 0.71804 0.74648 0.35935 0.0
C687 C 0.60095 0.63602 0.30761 0.0
C688 C 0.75776 0.66692 0.31927 0.0
C689 C 0.75619 0.63964 0.33563 0.0
C690 C 0.72456 0.682 0.31755 0.0
C691 C 0.68795 0.66766 0.33211 0.0
C692 C 0.68329 0.63585 0.34732 0.0
C693 C 0.71839 0.62316 0.34926 0.0
C694 C 0.73146 0.7167 0.30132 0.0
C695 C 0.64317 0.61759 0.36232 0.0
H696 H 0.67241 0.79331 0.35057 0.0
H697 H 0.5788 0.70409 0.30491 0.0
H698 H 0.71182 0.71855 0.37007 0.0
H699 H 0.75001 0.75412 0.35041 0.0
H700 H 0.72515 0.77738 0.36828 0.0
H701 H 0.56451 0.62581 0.30266 0.0
H702 H 0.62253 0.64096 0.29383 0.0
H703 H 0.60057 0.60772 0.31658 0.0
H704 H 0.78732 0.67979 0.30885 0.0
H705 H 0.71718 0.60167 0.36184 0.0
H706 H 0.73905 0.74959 0.30856 0.0
H707 H 0.69897 0.70494 0.29222 0.0
H708 H 0.76088 0.72314 0.29086 0.0
H709 H 0.65155 0.64247 0.37488 0.0
H710 H 0.63715 0.58467 0.36902 0.0
H711 H 0.61016 0.61241 0.35503 0.0
C712 C 0.08573 0.72121 0.66975 0.0
C713 C 0.10668 0.76075 0.65777 0.0
C714 C 0.03841 0.6885 0.66692 0.0
C715 C 0.01127 0.6972 0.6526 0.0
C716 C 0.03331 0.73568 0.63957 0.0
C717 C 0.0812 0.76659 0.64207 0.0
C718 C 0.01686 0.64648 0.68022 0.0
C719 C 0.00547 0.74684 0.6244 0.0
C720 C 0.88553 0.62111 0.63639 0.0
C721 C 0.86212 0.63745 0.64894 0.0
C722 C 0.9338 0.63663 0.63884 0.0
C723 C 0.9592 0.67108 0.65336 0.0
C724 C 0.93494 0.68551 0.66686 0.0
C725 C 0.88632 0.66767 0.66473 0.0
C726 C 0.95791 0.61838 0.62501 0.0
C727 C 0.96079 0.72298 0.68227 0.0
H728 H 0.10581 0.71683 0.68186 0.0
H729 H 0.09759 0.79755 0.633 0.0
H730 H -0.00131 0.6522 0.69325 0.0
H731 H -0.00957 0.61628 0.67169 0.0
H732 H 0.04407 0.63872 0.68634 0.0
H733 H 0.02833 0.77691 0.61484 0.0
H734 H -0.01502 0.71723 0.61429 0.0
H735 H 0.98001 0.75424 0.63257 0.0
H736 H 0.86645 0.59749 0.62422 0.0
H737 H 0.86801 0.68049 0.67425 0.0
H738 H -0.01365 0.61561 0.63313 0.0
H739 H 0.97403 0.64207 0.61203 0.0
H740 H 0.93259 0.58426 0.61882 0.0
H741 H 0.98286 0.71428 0.69218 0.0
H742 H 0.93646 0.72908 0.69202 0.0
H743 H -0.01539 0.75534 0.6743 0.0
C744 C 0.01661 0.22014 0.97534 0.0
C745 C 0.00506 0.19071 0.95857 0.0
C746 C 0.04905 0.22232 0.98991 0.0
C747 C 0.07024 0.19427 0.98767 0.0
C748 C 0.05936 0.16505 0.97064 0.0
C749 C 0.02696 0.1637 0.95625 0.0
C750 C 0.06011 0.2541 0.00784 0.0
C751 C 0.0813 0.13458 0.9678 0.0
C752 C 0.18272 0.22236 0.01576 0.0
C753 C 0.16571 0.19125 0.03198 0.0
C754 C 0.15191 0.22449 0.00147 0.0
C755 C 0.10302 0.1946 0.00339 0.0
C756 C 0.0855 0.16389 0.01996 0.0
C757 C 0.11708 0.16269 0.03411 0.0
C758 C 0.17175 0.25797 0.98406 0.0
C759 C 0.03351 0.13143 0.02244 0.0
H760 H -1e-05 0.24127 0.97722 0.0
H761 H 0.01822 0.14084 0.94335 0.0
H762 H 0.04936 0.23399 0.02212 0.0
H763 H 0.09856 0.27754 0.00878 0.0
H764 H 0.04191 0.2749 0.00694 0.0
H765 H 0.06983 0.11454 0.95349 0.0
H766 H 0.1202 0.15546 0.96765 0.0
H767 H 0.07171 0.1104 0.98074 0.0
H768 H 0.22024 0.24474 0.01406 0.0
H769 H 0.10365 0.13852 0.04658 0.0
H770 H 0.15464 0.27973 0.98344 0.0
H771 H 0.16417 0.23908 0.96948 0.0
H772 H 0.21038 0.28046 0.98535 0.0
H773 H 0.01377 0.15077 0.02272 0.0
H774 H 0.02548 0.11081 0.03657 0.0
H775 H 0.0204 0.10777 0.00928 0.0
C776 C 0.80534 -0.00648 0.30143 0.0
C777 C 0.76603 0.98718 0.31276 0.0
C778 C 0.84938 0.03258 0.30421 0.0
C779 C 0.85392 0.06622 0.31845 0.0
C780 C 0.81462 0.05955 0.33019 0.0
C781 C 0.7713 0.02005 0.3273 0.0
C782 C 0.89076 0.0383 0.29165 0.0
C783 C 0.81791 0.09483 0.34543 0.0
C784 C 0.97048 0.15706 0.33966 0.0
C785 C 0.97771 0.19565 0.32845 0.0
C786 C 0.93163 0.11398 0.3358 0.0
C787 C 0.89898 0.10957 0.32057 0.0
C788 C 0.90716 0.14796 0.30864 0.0
C789 C 0.94659 0.19047 0.31264 0.0
C790 C 0.92446 0.07363 0.34861 0.0
C791 C 0.87292 0.14475 0.29238 0.0
H792 H 0.80165 0.96818 0.29024 0.0
H793 H 0.74118 0.01558 0.33611 0.0
H794 H 0.90218 0.06812 0.28137 0.0
H795 H 0.92099 0.04531 0.30164 0.0
H796 H 0.88227 0.00756 0.28231 0.0
H797 H 0.78431 0.08394 0.35367 0.0
H798 H 0.84587 0.10157 0.3567 0.0
H799 H 0.82768 0.1276 0.33755 0.0
H800 H -0.00538 0.16067 0.35177 0.0
H801 H 0.9519 0.22005 0.30387 0.0
H802 H 0.91661 0.04372 0.33884 0.0
H803 H 0.89381 0.06363 0.35881 0.0
H804 H 0.95573 0.08141 0.35808 0.0
H805 H 0.86558 0.11616 0.28184 0.0
H806 H 0.8862 0.17682 0.28343 0.0
H807 H 0.83903 0.13743 0.29951 0.0
C808 C 0.78395 0.80986 0.63349 0.0
C809 C 0.75083 0.77084 0.64392 0.0
C810 C 0.78877 0.85313 0.63766 0.0
C811 C 0.75935 0.85731 0.65239 0.0
C812 C 0.72634 0.81818 0.66316 0.0
C813 C 0.72269 0.77548 0.65888 0.0
C814 C 0.8248 0.89424 0.62608 0.0
C815 C 0.69402 0.82121 0.67885 0.0
C816 C 0.7884 0.9716 0.67607 0.0
C817 C 0.75877 0.98339 0.66513 0.0
C818 C 0.79026 0.93141 0.67162 0.0
C819 C 0.76145 0.90215 0.65601 0.0
C820 C 0.73252 0.91451 0.64453 0.0
C821 C 0.73172 0.95508 0.64915 0.0
C822 C 0.82202 0.91961 0.68399 0.0
C823 C 0.70105 0.88402 0.62785 0.0
H824 H 0.80608 0.80662 0.62201 0.0
H825 H 0.69694 0.74552 0.66697 0.0
H826 H 0.80685 0.90867 0.61667 0.0
H827 H 0.84815 0.92137 0.63681 0.0
H828 H 0.84683 0.88565 0.61599 0.0
H829 H 0.67107 0.78775 0.68622 0.0
H830 H 0.71491 0.84634 0.69077 0.0
H831 H 0.67136 0.83349 0.6716 0.0
H832 H 0.80965 -0.0066 0.68835 0.0
H833 H 0.70869 0.96384 0.64062 0.0
H834 H 0.84458 0.91196 0.67383 0.0
H835 H 0.80043 0.88841 0.6931 0.0
H836 H 0.84493 0.94768 0.69447 0.0
H837 H 0.72199 0.87664 0.61663 0.0
H838 H 0.68225 0.89954 0.61975 0.0
H839 H 0.67458 0.85081 0.63438 0.0
C840 C 0.7852 0.75588 0.00992 0.0
C841 C 0.80081 0.78346 0.02734 0.0
C842 C 0.81725 0.75551 -0.00422 0.0
C843 C 0.86603 0.78348 -0.00088 0.0
C844 C 0.8821 0.81106 0.01674 0.0
C845 C 0.84926 0.81066 0.03068 0.0
C846 C 0.79892 0.72551 0.97718 0.0
C847 C 0.93395 0.84137 0.02075 0.0
C848 C 0.95161 0.75516 0.97206 0.0
C849 C 0.96697 0.7867 0.95599 0.0
C850 C 0.91841 0.75345 0.98611 0.0
C851 C 0.90033 0.78416 0.98409 0.0
C852 C 0.91528 0.81578 0.96782 0.0
C853 C 0.94836 0.81659 0.95391 0.0
C854 C 0.90298 0.71907 0.00321 0.0
C855 C 0.89677 0.84913 0.96526 0.0
H856 H 0.74783 0.73467 0.00723 0.0
H857 H 0.86163 0.83213 0.04407 0.0
H858 H 0.81056 0.7469 0.96327 0.0
H859 H 0.81361 0.7017 0.97645 0.0
H860 H 0.75992 0.70513 0.97703 0.0
H861 H 0.94064 0.8604 0.03529 0.0
H862 H 0.95205 0.82049 0.02122 0.0
H863 H 0.95001 0.86642 0.00821 0.0
H864 H 0.96569 0.73183 0.97374 0.0
H865 H 0.96013 0.84114 0.94158 0.0
H866 H 0.86423 0.69695 0.00286 0.0
H867 H 0.91198 0.73711 0.01803 0.0
H868 H 0.91973 0.69697 0.00238 0.0
H869 H 0.85787 0.83032 0.96391 0.0
H870 H 0.91159 0.87119 0.95165 0.0
H871 H 0.90549 0.87136 0.97887 0.0
C872 C 0.00301 0.82209 0.34915 0.0
C873 C -0.00067 0.78421 0.33841 0.0
C874 C 0.04044 0.86621 0.34555 0.0
C875 C 0.07537 0.87236 0.33114 0.0
C876 C 0.07101 0.8345 0.3198 0.0
C877 C 0.03285 0.79095 0.32347 0.0
C878 C 0.04347 0.90592 0.35765 0.0
C879 C 0.10781 0.83958 0.30445 0.0
C880 C 0.16543 -0.01124 0.3109 0.0
C881 C 0.20497 -0.00221 0.32268 0.0
C882 C 0.12217 0.94898 0.31407 0.0
C883 C 0.1187 0.91734 0.32917 0.0
C884 C 0.15796 0.92714 0.3416 0.0
C885 C 0.20045 0.96733 0.3383 0.0
C886 C 0.08074 0.94002 0.30078 0.0
C887 C 0.1558 0.89412 0.35778 0.0
H888 H 0.97694 0.81723 0.36056 0.0
H889 H 0.03027 0.76188 0.3151 0.0
H890 H 0.07353 0.91837 0.36835 0.0
H891 H 0.04996 0.93479 0.34743 0.0
H892 H 0.01092 0.89638 0.36653 0.0
H893 H 0.09786 0.80728 0.29609 0.0
H894 H 0.11362 0.86668 0.2933 0.0
H895 H 0.14177 0.85018 0.31229 0.0
H896 H 0.16848 0.01222 0.29889 0.0
H897 H 0.2307 0.97394 0.34753 0.0
H898 H 0.04902 0.93051 0.31021 0.0
H899 H 0.07267 0.91078 0.29053 0.0
H900 H 0.08759 0.97018 0.29135 0.0
H901 H 0.12611 0.88598 0.36831 0.0
H902 H 0.18877 0.90785 0.36678 0.0
H903 H 0.14941 0.86156 0.3506 0.0
C904 C 0.22269 0.02973 0.65459 0.0
C905 C 0.19468 -0.00341 0.66892 0.0
C906 C 0.21708 0.06805 0.6509 0.0
C907 C 0.1821 0.07318 0.66156 0.0
C908 C 0.15286 0.03939 0.67571 0.0
C909 C 0.15975 0.00158 0.67935 0.0
C910 C 0.24936 0.10355 0.63583 0.0
C911 C 0.11471 0.04344 0.68709 0.0
C912 C 0.20824 0.19641 0.66356 0.0
C913 C 0.18453 0.19895 0.64624 0.0
C914 C 0.20539 0.15485 0.66954 0.0
C915 C 0.1776 0.11482 0.65809 0.0
C916 C 0.15068 0.11649 0.64155 0.0
C917 C 0.15476 0.15865 0.63571 0.0
C918 C 0.23495 0.15458 0.68717 0.0
C919 C 0.1199 0.07435 0.62922 0.0
H920 H 0.24992 0.02634 0.64652 0.0
H921 H 0.13784 0.97601 0.69038 0.0
H922 H 0.22841 0.10779 0.62356 0.0
H923 H 0.26943 0.13714 0.6435 0.0
H924 H 0.27477 0.09437 0.62881 0.0
H925 H 0.09328 0.01301 0.69671 0.0
H926 H 0.13061 0.07421 0.69694 0.0
H927 H 0.0911 0.04785 0.67624 0.0
H928 H 0.23122 0.22735 0.67183 0.0
H929 H 0.13579 0.16023 0.62247 0.0
H930 H 0.26424 0.14959 0.68139 0.0
H931 H 0.21377 0.1258 0.69761 0.0
H932 H 0.25016 0.18704 0.69593 0.0
H933 H 0.14235 0.06518 0.61974 0.0
H934 H 0.09579 0.07976 0.61902 0.0
H935 H 0.09865 0.04485 0.63931 0.0
loop_
_geom_bond_atom_site_label_1
_geom_bond_atom_site_label_2
_geom_bond_distance
_geom_bond_site_symmetry_2
_ccdc_geom_bond_type
C0 O1 1.306 . S
C0 O3 1.160 . S
O1 C0 1.306 . S
O1 Cd2 2.228 . S
Cd2 O1 2.228 . S
Cd2 O6 2.273 . S
Cd2 O10 2.277 . S
O3 C0 1.160 . S
O3 Cd4 2.203 . S
Cd4 O3 2.203 . S
Cd4 O6 2.411 . S
Cd4 O7 2.333 . S
Cd4 O8 2.352 . S
Cd4 O12 2.277 . S
Cd4 O13 2.356 . S
C5 O10 1.209 . S
C5 O12 1.226 . S
O6 Cd2 2.273 . S
O6 Cd4 2.411 . S
O6 C9 1.320 . S
O7 Cd4 2.333 . S
O7 C9 1.214 . S
O8 Cd4 2.352 . S
O8 C11 1.258 . S
C9 O6 1.320 . S
C9 O7 1.214 . S
O10 Cd2 2.277 . S
O10 C5 1.209 . S
C11 O8 1.258 . S
C11 O13 1.282 . S
O12 Cd4 2.277 . S
O12 C5 1.226 . S
O13 Cd4 2.356 . S
O13 C11 1.282 . S
C14 O15 1.306 . S
C14 O17 1.160 . S
O15 C14 1.306 . S
O15 Cd16 2.228 . S
Cd16 O15 2.228 . S
Cd16 O20 2.273 . S
Cd16 O24 2.277 . S
O17 C14 1.160 . S
O17 Cd18 2.203 . S
Cd18 O17 2.203 . S
Cd18 O20 2.411 . S
Cd18 O21 2.333 . S
Cd18 O22 2.352 . S
Cd18 O26 2.277 . S
Cd18 O27 2.356 . S
C19 O24 1.209 . S
C19 O26 1.226 . S
O20 Cd16 2.273 . S
O20 Cd18 2.411 . S
O20 C23 1.320 . S
O21 Cd18 2.333 . S
O21 C23 1.214 . S
O22 Cd18 2.352 . S
O22 C25 1.258 . S
C23 O20 1.320 . S
C23 O21 1.214 . S
O24 Cd16 2.277 . S
O24 C19 1.209 . S
C25 O22 1.258 . S
C25 O27 1.282 . S
O26 Cd18 2.277 . S
O26 C19 1.226 . S
O27 Cd18 2.356 . S
O27 C25 1.282 . S
C28 O29 1.306 . S
C28 O31 1.160 . S
O29 C28 1.306 . S
O29 Cd30 2.228 . S
Cd30 O29 2.228 . S
Cd30 O34 2.273 . S
Cd30 O38 2.277 . S
O31 C28 1.160 . S
O31 Cd32 2.203 . S
Cd32 O31 2.203 . S
Cd32 O34 2.411 . S
Cd32 O35 2.333 . S
Cd32 O36 2.352 . S
Cd32 O40 2.277 . S
Cd32 O41 2.356 . S
C33 O38 1.209 . S
C33 O40 1.226 . S
O34 Cd30 2.273 . S
O34 Cd32 2.411 . S
O34 C37 1.320 . S
O35 Cd32 2.333 . S
O35 C37 1.214 . S
O36 Cd32 2.352 . S
O36 C39 1.258 . S
C37 O34 1.320 . S
C37 O35 1.214 . S
O38 Cd30 2.277 . S
O38 C33 1.209 . S
C39 O36 1.258 . S
C39 O41 1.282 . S
O40 Cd32 2.277 . S
O40 C33 1.226 . S
O41 Cd32 2.356 . S
O41 C39 1.282 . S
C42 O43 1.306 . S
C42 O45 1.160 . S
O43 C42 1.306 . S
O43 Cd44 2.228 . S
Cd44 O43 2.228 . S
Cd44 O48 2.273 . S
Cd44 O52 2.277 . S
O45 C42 1.160 . S
O45 Cd46 2.203 . S
Cd46 O45 2.203 . S
Cd46 O48 2.411 . S
Cd46 O49 2.333 . S
Cd46 O50 2.352 . S
Cd46 O54 2.277 . S
Cd46 O55 2.356 . S
C47 O52 1.209 . S
C47 O54 1.226 . S
O48 Cd44 2.273 . S
O48 Cd46 2.411 . S
O48 C51 1.320 . S
O49 Cd46 2.333 . S
O49 C51 1.214 . S
O50 Cd46 2.352 . S
O50 C53 1.258 . S
C51 O48 1.320 . S
C51 O49 1.214 . S
O52 Cd44 2.277 . S
O52 C47 1.209 . S
C53 O50 1.258 . S
C53 O55 1.282 . S
O54 Cd46 2.277 . S
O54 C47 1.226 . S
O55 Cd46 2.356 . S
O55 C53 1.282 . S
C56 O57 1.306 . S
C56 O59 1.160 . S
O57 C56 1.306 . S
O57 Cd58 2.228 . S
Cd58 O57 2.228 . S
Cd58 O62 2.273 . S
Cd58 O66 2.277 . S
O59 C56 1.160 . S
O59 Cd60 2.203 . S
Cd60 O59 2.203 . S
Cd60 O62 2.411 . S
Cd60 O63 2.333 . S
Cd60 O64 2.352 . S
Cd60 O68 2.277 . S
Cd60 O69 2.356 . S
C61 O66 1.209 . S
C61 O68 1.226 . S
O62 Cd58 2.273 . S
O62 Cd60 2.411 . S
O62 C65 1.320 . S
O63 Cd60 2.333 . S
O63 C65 1.214 . S
O64 Cd60 2.352 . S
O64 C67 1.258 . S
C65 O62 1.320 . S
C65 O63 1.214 . S
O66 Cd58 2.277 . S
O66 C61 1.209 . S
C67 O64 1.258 . S
C67 O69 1.282 . S
O68 Cd60 2.277 . S
O68 C61 1.226 . S
O69 Cd60 2.356 . S
O69 C67 1.282 . S
C70 O71 1.306 . S
C70 O73 1.160 . S
O71 C70 1.306 . S
O71 Cd72 2.228 . S
Cd72 O71 2.228 . S
Cd72 O76 2.273 . S
Cd72 O80 2.277 . S
O73 C70 1.160 . S
O73 Cd74 2.203 . S
Cd74 O73 2.203 . S
Cd74 O76 2.411 . S
Cd74 O77 2.333 . S
Cd74 O78 2.352 . S
Cd74 O82 2.277 . S
Cd74 O83 2.356 . S
C75 O80 1.209 . S
C75 O82 1.226 . S
O76 Cd72 2.273 . S
O76 Cd74 2.411 . S
O76 C79 1.320 . S
O77 Cd74 2.333 . S
O77 C79 1.214 . S
O78 Cd74 2.352 . S
O78 C81 1.258 . S
C79 O76 1.320 . S
C79 O77 1.214 . S
O80 Cd72 2.277 . S
O80 C75 1.209 . S
C81 O78 1.258 . S
C81 O83 1.282 . S
O82 Cd74 2.277 . S
O82 C75 1.226 . S
O83 Cd74 2.356 . S
O83 C81 1.282 . S
C84 O85 1.306 . S
C84 O87 1.160 . S
O85 C84 1.306 . S
O85 Cd86 2.228 . S
Cd86 O85 2.228 . S
Cd86 O90 2.273 . S
Cd86 O94 2.277 . S
O87 C84 1.160 . S
O87 Cd88 2.203 . S
Cd88 O87 2.203 . S
Cd88 O90 2.411 . S
Cd88 O91 2.333 . S
Cd88 O92 2.352 . S
Cd88 O96 2.277 . S
Cd88 O97 2.356 . S
C89 O94 1.209 . S
C89 O96 1.226 . S
O90 Cd86 2.273 . S
O90 Cd88 2.411 . S
O90 C93 1.320 . S
O91 Cd88 2.333 . S
O91 C93 1.214 . S
O92 Cd88 2.352 . S
O92 C95 1.258 . S
C93 O90 1.320 . S
C93 O91 1.214 . S
O94 Cd86 2.277 . S
O94 C89 1.209 . S
C95 O92 1.258 . S
C95 O97 1.282 . S
O96 Cd88 2.277 . S
O96 C89 1.226 . S
O97 Cd88 2.356 . S
O97 C95 1.282 . S
C98 O99 1.306 . S
C98 O101 1.160 . S
O99 C98 1.306 . S
O99 Cd100 2.228 . S
Cd100 O99 2.228 . S
Cd100 O104 2.273 . S
Cd100 O108 2.277 . S
O101 C98 1.160 . S
O101 Cd102 2.203 . S
Cd102 O101 2.203 . S
Cd102 O104 2.411 . S
Cd102 O105 2.333 . S
Cd102 O106 2.352 . S
Cd102 O110 2.277 . S
Cd102 O111 2.356 . S
C103 O108 1.209 . S
C103 O110 1.226 . S
O104 Cd100 2.273 . S
O104 Cd102 2.411 . S
O104 C107 1.320 . S
O105 Cd102 2.333 . S
O105 C107 1.214 . S
O106 Cd102 2.352 . S
O106 C109 1.258 . S
C107 O104 1.320 . S
C107 O105 1.214 . S
O108 Cd100 2.277 . S
O108 C103 1.209 . S
C109 O106 1.258 . S
C109 O111 1.282 . S
O110 Cd102 2.277 . S
O110 C103 1.226 . S
O111 Cd102 2.356 . S
O111 C109 1.282 . S
C112 O113 1.306 . S
C112 O115 1.160 . S
O113 C112 1.306 . S
O113 Cd114 2.228 . S
Cd114 O113 2.228 . S
Cd114 O118 2.273 . S
Cd114 O122 2.277 . S
O115 C112 1.160 . S
O115 Cd116 2.203 . S
Cd116 O115 2.203 . S
Cd116 O118 2.411 . S
Cd116 O119 2.333 . S
Cd116 O120 2.352 . S
Cd116 O124 2.277 . S
Cd116 O125 2.356 . S
C117 O122 1.209 . S
C117 O124 1.226 . S
O118 Cd114 2.273 . S
O118 Cd116 2.411 . S
O118 C121 1.320 . S
O119 Cd116 2.333 . S
O119 C121 1.214 . S
O120 Cd116 2.352 . S
O120 C123 1.258 . S
C121 O118 1.320 . S
C121 O119 1.214 . S
O122 Cd114 2.277 . S
O122 C117 1.209 . S
C123 O120 1.258 . S
C123 O125 1.282 . S
O124 Cd116 2.277 . S
O124 C117 1.226 . S
O125 Cd116 2.356 . S
O125 C123 1.282 . S
C126 O127 1.306 . S
C126 O129 1.160 . S
O127 C126 1.306 . S
O127 Cd128 2.228 . S
Cd128 O127 2.228 . S
Cd128 O132 2.273 . S
Cd128 O136 2.277 . S
O129 C126 1.160 . S
O129 Cd130 2.203 . S
Cd130 O129 2.203 . S
Cd130 O132 2.411 . S
Cd130 O133 2.333 . S
Cd130 O134 2.352 . S
Cd130 O138 2.277 . S
Cd130 O139 2.356 . S
C131 O136 1.209 . S
C131 O138 1.226 . S
O132 Cd128 2.273 . S
O132 Cd130 2.411 . S
O132 C135 1.320 . S
O133 Cd130 2.333 . S
O133 C135 1.214 . S
O134 Cd130 2.352 . S
O134 C137 1.258 . S
C135 O132 1.320 . S
C135 O133 1.214 . S
O136 Cd128 2.277 . S
O136 C131 1.209 . S
C137 O134 1.258 . S
C137 O139 1.282 . S
O138 Cd130 2.277 . S
O138 C131 1.226 . S
O139 Cd130 2.356 . S
O139 C137 1.282 . S
C140 O141 1.306 . S
C140 O143 1.160 . S
O141 C140 1.306 . S
O141 Cd142 2.228 . S
Cd142 O141 2.228 . S
Cd142 O146 2.273 . S
Cd142 O150 2.277 . S
O143 C140 1.160 . S
O143 Cd144 2.203 . S
Cd144 O143 2.203 . S
Cd144 O146 2.411 . S
Cd144 O147 2.333 . S
Cd144 O148 2.352 . S
Cd144 O152 2.277 . S
Cd144 O153 2.356 . S
C145 O150 1.209 . S
C145 O152 1.226 . S
O146 Cd142 2.273 . S
O146 Cd144 2.411 . S
O146 C149 1.320 . S
O147 Cd144 2.333 . S
O147 C149 1.214 . S
O148 Cd144 2.352 . S
O148 C151 1.258 . S
C149 O146 1.320 . S
C149 O147 1.214 . S
O150 Cd142 2.277 . S
O150 C145 1.209 . S
C151 O148 1.258 . S
C151 O153 1.282 . S
O152 Cd144 2.277 . S
O152 C145 1.226 . S
O153 Cd144 2.356 . S
O153 C151 1.282 . S
C154 O155 1.306 . S
C154 O157 1.160 . S
O155 C154 1.306 . S
O155 Cd156 2.228 . S
Cd156 O155 2.228 . S
Cd156 O160 2.273 . S
Cd156 O164 2.277 . S
O157 C154 1.160 . S
O157 Cd158 2.203 . S
Cd158 O157 2.203 . S
Cd158 O160 2.411 . S
Cd158 O161 2.333 . S
Cd158 O162 2.352 . S
Cd158 O166 2.277 . S
Cd158 O167 2.356 . S
C159 O164 1.209 . S
C159 O166 1.226 . S
O160 Cd156 2.273 . S
O160 Cd158 2.411 . S
O160 C163 1.320 . S
O161 Cd158 2.333 . S
O161 C163 1.214 . S
O162 Cd158 2.352 . S
O162 C165 1.258 . S
C163 O160 1.320 . S
C163 O161 1.214 . S
O164 Cd156 2.277 . S
O164 C159 1.209 . S
C165 O162 1.258 . S
C165 O167 1.282 . S
O166 Cd158 2.277 . S
O166 C159 1.226 . S
O167 Cd158 2.356 . S
O167 C165 1.282 . S
C168 C169 1.391 . S
C168 C170 1.394 . S
C168 H184 0.931 . S
C169 C168 1.391 . S
C169 C173 1.376 . S
C170 C168 1.394 . S
C170 C171 1.369 . S
C170 C174 1.531 . S
C171 C170 1.369 . S
C171 C172 1.410 . S
C171 C179 1.503 . S
C172 C171 1.410 . S
C172 C173 1.392 . S
C172 C175 1.511 . S
C173 C169 1.376 . S
C173 C172 1.392 . S
C173 H185 0.929 . S
C174 C170 1.531 . S
C174 H186 0.960 . S
C174 H187 0.962 . S
C174 H188 0.960 . S
C175 C172 1.511 . S
C175 H189 0.961 . S
C175 H190 0.961 . S
C175 H191 0.961 . S
C176 C177 1.370 . S
C176 C178 1.363 . S
C176 H192 0.931 . S
C177 C176 1.370 . S
C177 C181 1.408 . S
C178 C176 1.363 . S
C178 C179 1.370 . S
C178 C182 1.524 . S
C179 C171 1.503 . S
C179 C178 1.370 . S
C179 C180 1.403 . S
C180 C179 1.403 . S
C180 C181 1.404 . S
C180 C183 1.539 . S
C181 C177 1.408 . S
C181 C180 1.404 . S
C181 H193 0.930 . S
C182 C178 1.524 . S
C182 H194 0.956 . S
C182 H195 0.961 . S
C182 H196 0.961 1_554 S
C183 C180 1.539 . S
C183 H197 0.958 . S
C183 H198 0.961 . S
C183 H199 0.960 . S
H184 C168 0.931 . S
H185 C173 0.929 . S
H186 C174 0.960 . S
H187 C174 0.962 . S
H188 C174 0.960 . S
H189 C175 0.961 . S
H190 C175 0.961 . S
H191 C175 0.961 . S
H192 C176 0.931 . S
H193 C181 0.930 . S
H194 C182 0.956 . S
H195 C182 0.961 . S
H196 C182 0.961 1_556 S
H197 C183 0.958 . S
H198 C183 0.961 . S
H199 C183 0.960 . S
C200 C201 1.391 . S
C200 C202 1.394 . S
C200 H216 0.931 . S
C201 C200 1.391 . S
C201 C205 1.376 . S
C202 C200 1.394 . S
C202 C203 1.369 . S
C202 C206 1.531 . S
C203 C202 1.369 . S
C203 C204 1.410 1_455 S
C203 C211 1.503 1_455 S
C204 C203 1.410 1_655 S
C204 C205 1.392 1_655 S
C204 C207 1.511 . S
C205 C201 1.376 . S
C205 C204 1.392 1_455 S
C205 H217 0.929 1_455 S
C206 C202 1.531 . S
C206 H218 0.960 . S
C206 H219 0.962 . S
C206 H220 0.960 . S
C207 C204 1.511 . S
C207 H221 0.961 . S
C207 H222 0.961 . S
C207 H223 0.961 . S
C208 C209 1.370 . S
C208 C210 1.363 . S
C208 H224 0.931 . S
C209 C208 1.370 . S
C209 C213 1.408 . S
C210 C208 1.363 . S
C210 C211 1.370 . S
C210 C214 1.524 . S
C211 C203 1.503 1_655 S
C211 C210 1.370 . S
C211 C212 1.403 . S
C212 C211 1.403 . S
C212 C213 1.404 . S
C212 C215 1.539 . S
C213 C209 1.408 . S
C213 C212 1.404 . S
C213 H225 0.930 . S
C214 C210 1.524 . S
C214 H226 0.956 1_655 S
C214 H227 0.961 . S
C214 H228 0.961 . S
C215 C212 1.539 . S
C215 H229 0.958 1_655 S
C215 H230 0.961 . S
C215 H231 0.960 . S
H216 C200 0.931 . S
H217 C205 0.929 1_655 S
H218 C206 0.960 . S
H219 C206 0.962 . S
H220 C206 0.960 . S
H221 C207 0.961 . S
H222 C207 0.961 . S
H223 C207 0.961 . S
H224 C208 0.931 . S
H225 C213 0.930 . S
H226 C214 0.956 1_455 S
H227 C214 0.961 . S
H228 C214 0.961 . S
H229 C215 0.958 1_455 S
H230 C215 0.961 . S
H231 C215 0.960 . S
C232 C233 1.391 . S
C232 C234 1.394 . S
C232 H248 0.931 . S
C233 C232 1.391 . S
C233 C237 1.376 . S
C234 C232 1.394 . S
C234 C235 1.369 . S
C234 C238 1.531 . S
C235 C234 1.369 . S
C235 C236 1.410 1_565 S
C235 C243 1.503 1_565 S
C236 C235 1.410 1_545 S
C236 C237 1.392 1_545 S
C236 C239 1.511 . S
C237 C233 1.376 . S
C237 C236 1.392 1_565 S
C237 H249 0.929 1_565 S
C238 C234 1.531 . S
C238 H250 0.960 . S
C238 H251 0.962 . S
C238 H252 0.960 . S
C239 C236 1.511 . S
C239 H253 0.961 . S
C239 H254 0.961 . S
C239 H255 0.961 . S
C240 C241 1.370 . S
C240 C242 1.363 . S
C240 H256 0.931 . S
C241 C240 1.370 . S
C241 C245 1.408 . S
C242 C240 1.363 . S
C242 C243 1.370 . S
C242 C246 1.524 1_545 S
C243 C235 1.503 1_545 S
C243 C242 1.370 . S
C243 C244 1.403 . S
C244 C243 1.403 . S
C244 C245 1.404 . S
C244 C247 1.539 . S
C245 C241 1.408 . S
C245 C244 1.404 . S
C245 H257 0.930 . S
C246 C242 1.524 1_565 S
C246 H258 0.956 . S
C246 H259 0.961 1_565 S
C246 H260 0.961 1_565 S
C247 C244 1.539 . S
C247 H261 0.958 . S
C247 H262 0.961 . S
C247 H263 0.960 . S
H248 C232 0.931 . S
H249 C237 0.929 1_545 S
H250 C238 0.960 . S
H251 C238 0.962 . S
H252 C238 0.960 . S
H253 C239 0.961 . S
H254 C239 0.961 . S
H255 C239 0.961 . S
H256 C240 0.931 . S
H257 C245 0.930 . S
H258 C246 0.956 . S
H259 C246 0.961 1_545 S
H260 C246 0.961 1_545 S
H261 C247 0.958 . S
H262 C247 0.961 . S
H263 C247 0.960 . S
C264 C265 1.391 . S
C264 C266 1.394 . S
C264 H280 0.931 . S
C265 C264 1.391 . S
C265 C269 1.376 . S
C266 C264 1.394 . S
C266 C267 1.369 . S
C266 C270 1.531 . S
C267 C266 1.369 . S
C267 C268 1.410 . S
C267 C275 1.503 . S
C268 C267 1.410 . S
C268 C269 1.392 . S
C268 C271 1.511 . S
C269 C265 1.376 . S
C269 C268 1.392 . S
C269 H281 0.929 . S
C270 C266 1.531 . S
C270 H282 0.960 . S
C270 H283 0.962 . S
C270 H284 0.960 . S
C271 C268 1.511 . S
C271 H285 0.961 . S
C271 H286 0.961 . S
C271 H287 0.961 . S
C272 C273 1.370 . S
C272 C274 1.363 . S
C272 H288 0.931 . S
C273 C272 1.370 . S
C273 C277 1.408 . S
C274 C272 1.363 . S
C274 C275 1.370 . S
C274 C278 1.524 . S
C275 C267 1.503 . S
C275 C274 1.370 . S
C275 C276 1.403 . S
C276 C275 1.403 . S
C276 C277 1.404 . S
C276 C279 1.539 . S
C277 C273 1.408 . S
C277 C276 1.404 . S
C277 H289 0.930 . S
C278 C274 1.524 . S
C278 H290 0.956 . S
C278 H291 0.961 . S
C278 H292 0.961 . S
C279 C276 1.539 . S
C279 H293 0.958 . S
C279 H294 0.961 . S
C279 H295 0.960 . S
H280 C264 0.931 . S
H281 C269 0.929 . S
H282 C270 0.960 . S
H283 C270 0.962 . S
H284 C270 0.960 . S
H285 C271 0.961 . S
H286 C271 0.961 . S
H287 C271 0.961 . S
H288 C272 0.931 . S
H289 C277 0.930 . S
H290 C278 0.956 . S
H291 C278 0.961 . S
H292 C278 0.961 . S
H293 C279 0.958 . S
H294 C279 0.961 . S
H295 C279 0.960 . S
C296 C297 1.391 . S
C296 C298 1.394 1_655 S
C296 H312 0.931 . S
C297 C296 1.391 . S
C297 C301 1.376 . S
C298 C296 1.394 1_455 S
C298 C299 1.369 1_455 S
C298 C302 1.531 . S
C299 C298 1.369 1_655 S
C299 C300 1.410 . S
C299 C307 1.503 1_655 S
C300 C299 1.410 . S
C300 C301 1.392 . S
C300 C303 1.511 . S
C301 C297 1.376 . S
C301 C300 1.392 . S
C301 H313 0.929 . S
C302 C298 1.531 . S
C302 H314 0.960 . S
C302 H315 0.962 . S
C302 H316 0.960 . S
C303 C300 1.511 . S
C303 H317 0.961 . S
C303 H318 0.961 . S
C303 H319 0.961 . S
C304 C305 1.370 . S
C304 C306 1.363 . S
C304 H320 0.931 . S
C305 C304 1.370 . S
C305 C309 1.408 . S
C306 C304 1.363 . S
C306 C307 1.370 . S
C306 C310 1.524 . S
C307 C299 1.503 1_455 S
C307 C306 1.370 . S
C307 C308 1.403 . S
C308 C307 1.403 . S
C308 C309 1.404 . S
C308 C311 1.539 1_455 S
C309 C305 1.408 . S
C309 C308 1.404 . S
C309 H321 0.930 . S
C310 C306 1.524 . S
C310 H322 0.956 . S
C310 H323 0.961 1_455 S
C310 H324 0.961 1_556 S
C311 C308 1.539 1_655 S
C311 H325 0.958 1_655 S
C311 H326 0.961 . S
C311 H327 0.960 . S
H312 C296 0.931 . S
H313 C301 0.929 . S
H314 C302 0.960 . S
H315 C302 0.962 . S
H316 C302 0.960 . S
H317 C303 0.961 . S
H318 C303 0.961 . S
H319 C303 0.961 . S
H320 C304 0.931 . S
H321 C309 0.930 . S
H322 C310 0.956 . S
H323 C310 0.961 1_655 S
H324 C310 0.961 1_554 S
H325 C311 0.958 1_455 S
H326 C311 0.961 . S
H327 C311 0.960 . S
C328 C329 1.391 . S
C328 C330 1.394 . S
C328 H344 0.931 . S
C329 C328 1.391 . S
C329 C333 1.376 . S
C330 C328 1.394 . S
C330 C331 1.369 . S
C330 C334 1.531 . S
C331 C330 1.369 . S
C331 C332 1.410 1_545 S
C331 C339 1.503 1_545 S
C332 C331 1.410 1_565 S
C332 C333 1.392 1_565 S
C332 C335 1.511 . S
C333 C329 1.376 . S
C333 C332 1.392 1_545 S
C333 H345 0.929 . S
C334 C330 1.531 . S
C334 H346 0.960 . S
C334 H347 0.962 . S
C334 H348 0.960 . S
C335 C332 1.511 . S
C335 H349 0.961 . S
C335 H350 0.961 . S
C335 H351 0.961 . S
C336 C337 1.370 . S
C336 C338 1.363 . S
C336 H352 0.931 . S
C337 C336 1.370 . S
C337 C341 1.408 . S
C338 C336 1.363 . S
C338 C339 1.370 . S
C338 C342 1.524 . S
C339 C331 1.503 1_565 S
C339 C338 1.370 . S
C339 C340 1.403 . S
C340 C339 1.403 . S
C340 C341 1.404 . S
C340 C343 1.539 1_565 S
C341 C337 1.408 . S
C341 C340 1.404 . S
C341 H353 0.930 . S
C342 C338 1.524 . S
C342 H354 0.956 . S
C342 H355 0.961 . S
C342 H356 0.961 . S
C343 C340 1.539 1_545 S
C343 H357 0.958 . S
C343 H358 0.961 1_545 S
C343 H359 0.960 . S
H344 C328 0.931 . S
H345 C333 0.929 . S
H346 C334 0.960 . S
H347 C334 0.962 . S
H348 C334 0.960 . S
H349 C335 0.961 . S
H350 C335 0.961 . S
H351 C335 0.961 . S
H352 C336 0.931 . S
H353 C341 0.930 . S
H354 C342 0.956 . S
H355 C342 0.961 . S
H356 C342 0.961 . S
H357 C343 0.958 . S
H358 C343 0.961 1_565 S
H359 C343 0.960 . S
C360 C361 1.391 . S
C360 C362 1.394 . S
C360 H376 0.931 . S
C361 C360 1.391 . S
C361 C365 1.376 . S
C362 C360 1.394 . S
C362 C363 1.369 . S
C362 C366 1.531 . S
C363 C362 1.369 . S
C363 C364 1.410 . S
C363 C371 1.503 . S
C364 C363 1.410 . S
C364 C365 1.392 . S
C364 C367 1.511 . S
C365 C361 1.376 . S
C365 C364 1.392 . S
C365 H377 0.929 . S
C366 C362 1.531 . S
C366 H378 0.960 . S
C366 H379 0.962 . S
C366 H380 0.960 . S
C367 C364 1.511 . S
C367 H381 0.961 . S
C367 H382 0.961 . S
C367 H383 0.961 . S
C368 C369 1.370 . S
C368 C370 1.363 . S
C368 H384 0.931 . S
C369 C368 1.370 . S
C369 C373 1.408 . S
C370 C368 1.363 . S
C370 C371 1.370 . S
C370 C374 1.524 . S
C371 C363 1.503 . S
C371 C370 1.370 . S
C371 C372 1.403 . S
C372 C371 1.403 . S
C372 C373 1.404 . S
C372 C375 1.539 . S
C373 C369 1.408 . S
C373 C372 1.404 . S
C373 H385 0.930 . S
C374 C370 1.524 . S
C374 H386 0.956 . S
C374 H387 0.961 . S
C374 H388 0.961 . S
C375 C372 1.539 . S
C375 H389 0.958 . S
C375 H390 0.961 . S
C375 H391 0.960 . S
H376 C360 0.931 . S
H377 C365 0.929 . S
H378 C366 0.960 . S
H379 C366 0.962 . S
H380 C366 0.960 . S
H381 C367 0.961 . S
H382 C367 0.961 . S
H383 C367 0.961 . S
H384 C368 0.931 . S
H385 C373 0.930 . S
H386 C374 0.956 . S
H387 C374 0.961 . S
H388 C374 0.961 . S
H389 C375 0.958 . S
H390 C375 0.961 . S
H391 C375 0.960 . S
C392 C393 1.391 . S
C392 C394 1.394 . S
C392 H408 0.931 . S
C393 C392 1.391 . S
C393 C397 1.376 . S
C394 C392 1.394 . S
C394 C395 1.369 . S
C394 C398 1.531 . S
C395 C394 1.369 . S
C395 C396 1.410 . S
C395 C403 1.503 . S
C396 C395 1.410 . S
C396 C397 1.392 . S
C396 C399 1.511 . S
C397 C393 1.376 . S
C397 C396 1.392 . S
C397 H409 0.929 . S
C398 C394 1.531 . S
C398 H410 0.960 . S
C398 H411 0.962 . S
C398 H412 0.960 . S
C399 C396 1.511 . S
C399 H413 0.961 . S
C399 H414 0.961 . S
C399 H415 0.961 . S
C400 C401 1.370 . S
C400 C402 1.363 . S
C400 H416 0.931 . S
C401 C400 1.370 . S
C401 C405 1.408 . S
C402 C400 1.363 . S
C402 C403 1.370 . S
C402 C406 1.524 . S
C403 C395 1.503 . S
C403 C402 1.370 . S
C403 C404 1.403 . S
C404 C403 1.403 . S
C404 C405 1.404 . S
C404 C407 1.539 . S
C405 C401 1.408 . S
C405 C404 1.404 . S
C405 H417 0.930 . S
C406 C402 1.524 . S
C406 H418 0.956 . S
C406 H419 0.961 . S
C406 H420 0.961 . S
C407 C404 1.539 . S
C407 H421 0.958 . S
C407 H422 0.961 . S
C407 H423 0.960 . S
H408 C392 0.931 . S
H409 C397 0.929 . S
H410 C398 0.960 . S
H411 C398 0.962 . S
H412 C398 0.960 . S
H413 C399 0.961 . S
H414 C399 0.961 . S
H415 C399 0.961 . S
H416 C400 0.931 . S
H417 C405 0.930 . S
H418 C406 0.956 . S
H419 C406 0.961 . S
H420 C406 0.961 . S
H421 C407 0.958 . S
H422 C407 0.961 . S
H423 C407 0.960 . S
C424 C425 1.391 . S
C424 C426 1.394 . S
C424 H440 0.931 . S
C425 C424 1.391 . S
C425 C429 1.376 . S
C426 C424 1.394 . S
C426 C427 1.369 . S
C426 C430 1.531 . S
C427 C426 1.369 . S
C427 C428 1.410 . S
C427 C435 1.503 . S
C428 C427 1.410 . S
C428 C429 1.392 . S
C428 C431 1.511 . S
C429 C425 1.376 . S
C429 C428 1.392 . S
C429 H441 0.929 . S
C430 C426 1.531 . S
C430 H442 0.960 . S
C430 H443 0.962 . S
C430 H444 0.960 . S
C431 C428 1.511 . S
C431 H445 0.961 . S
C431 H446 0.961 . S
C431 H447 0.961 . S
C432 C433 1.370 . S
C432 C434 1.363 . S
C432 H448 0.931 . S
C433 C432 1.370 . S
C433 C437 1.408 . S
C434 C432 1.363 . S
C434 C435 1.370 . S
C434 C438 1.524 . S
C435 C427 1.503 . S
C435 C434 1.370 . S
C435 C436 1.403 . S
C436 C435 1.403 . S
C436 C437 1.404 . S
C436 C439 1.539 . S
C437 C433 1.408 . S
C437 C436 1.404 . S
C437 H449 0.930 . S
C438 C434 1.524 . S
C438 H450 0.956 . S
C438 H451 0.961 . S
C438 H452 0.961 . S
C439 C436 1.539 . S
C439 H453 0.958 . S
C439 H454 0.961 . S
C439 H455 0.960 . S
H440 C424 0.931 . S
H441 C429 0.929 . S
H442 C430 0.960 . S
H443 C430 0.962 . S
H444 C430 0.960 . S
H445 C431 0.961 . S
H446 C431 0.961 . S
H447 C431 0.961 . S
H448 C432 0.931 . S
H449 C437 0.930 . S
H450 C438 0.956 . S
H451 C438 0.961 . S
H452 C438 0.961 . S
H453 C439 0.958 . S
H454 C439 0.961 . S
H455 C439 0.960 . S
C456 C457 1.391 . S
C456 C458 1.394 . S
C456 H472 0.931 . S
C457 C456 1.391 . S
C457 C461 1.376 . S
C458 C456 1.394 . S
C458 C459 1.369 . S
C458 C462 1.531 . S
C459 C458 1.369 . S
C459 C460 1.410 . S
C459 C467 1.503 . S
C460 C459 1.410 . S
C460 C461 1.392 . S
C460 C463 1.511 . S
C461 C457 1.376 . S
C461 C460 1.392 . S
C461 H473 0.929 . S
C462 C458 1.531 . S
C462 H474 0.960 . S
C462 H475 0.962 . S
C462 H476 0.960 . S
C463 C460 1.511 . S
C463 H477 0.961 . S
C463 H478 0.961 . S
C463 H479 0.961 . S
C464 C465 1.370 . S
C464 C466 1.363 . S
C464 H480 0.931 . S
C465 C464 1.370 . S
C465 C469 1.408 . S
C466 C464 1.363 . S
C466 C467 1.370 . S
C466 C470 1.524 . S
C467 C459 1.503 . S
C467 C466 1.370 . S
C467 C468 1.403 . S
C468 C467 1.403 . S
C468 C469 1.404 . S
C468 C471 1.539 . S
C469 C465 1.408 . S
C469 C468 1.404 . S
C469 H481 0.930 . S
C470 C466 1.524 . S
C470 H482 0.956 . S
C470 H483 0.961 . S
C470 H484 0.961 . S
C471 C468 1.539 . S
C471 H485 0.958 . S
C471 H486 0.961 . S
C471 H487 0.960 . S
H472 C456 0.931 . S
H473 C461 0.929 . S
H474 C462 0.960 . S
H475 C462 0.962 . S
H476 C462 0.960 . S
H477 C463 0.961 . S
H478 C463 0.961 . S
H479 C463 0.961 . S
H480 C464 0.931 . S
H481 C469 0.930 . S
H482 C470 0.956 . S
H483 C470 0.961 . S
H484 C470 0.961 . S
H485 C471 0.958 . S
H486 C471 0.961 . S
H487 C471 0.960 . S
C488 C489 1.391 . S
C488 C490 1.394 . S
C488 H504 0.931 . S
C489 C488 1.391 . S
C489 C493 1.376 . S
C490 C488 1.394 . S
C490 C491 1.369 . S
C490 C494 1.531 . S
C491 C490 1.369 . S
C491 C492 1.410 . S
C491 C499 1.503 . S
C492 C491 1.410 . S
C492 C493 1.392 . S
C492 C495 1.511 . S
C493 C489 1.376 . S
C493 C492 1.392 . S
C493 H505 0.929 . S
C494 C490 1.531 . S
C494 H506 0.960 . S
C494 H507 0.962 . S
C494 H508 0.960 . S
C495 C492 1.511 . S
C495 H509 0.961 . S
C495 H510 0.961 . S
C495 H511 0.961 . S
C496 C497 1.370 . S
C496 C498 1.363 . S
C496 H512 0.931 . S
C497 C496 1.370 . S
C497 C501 1.408 . S
C498 C496 1.363 . S
C498 C499 1.370 . S
C498 C502 1.524 . S
C499 C491 1.503 . S
C499 C498 1.370 . S
C499 C500 1.403 . S
C500 C499 1.403 . S
C500 C501 1.404 . S
C500 C503 1.539 . S
C501 C497 1.408 . S
C501 C500 1.404 . S
C501 H513 0.930 . S
C502 C498 1.524 . S
C502 H514 0.956 . S
C502 H515 0.961 . S
C502 H516 0.961 . S
C503 C500 1.539 . S
C503 H517 0.958 . S
C503 H518 0.961 . S
C503 H519 0.960 . S
H504 C488 0.931 . S
H505 C493 0.929 . S
H506 C494 0.960 . S
H507 C494 0.962 . S
H508 C494 0.960 . S
H509 C495 0.961 . S
H510 C495 0.961 . S
H511 C495 0.961 . S
H512 C496 0.931 . S
H513 C501 0.930 . S
H514 C502 0.956 . S
H515 C502 0.961 . S
H516 C502 0.961 . S
H517 C503 0.958 . S
H518 C503 0.961 . S
H519 C503 0.960 . S
C520 C521 1.391 . S
C520 C522 1.394 . S
C520 H536 0.931 . S
C521 C520 1.391 . S
C521 C525 1.376 . S
C522 C520 1.394 . S
C522 C523 1.369 . S
C522 C526 1.531 . S
C523 C522 1.369 . S
C523 C524 1.410 . S
C523 C531 1.503 . S
C524 C523 1.410 . S
C524 C525 1.392 . S
C524 C527 1.511 . S
C525 C521 1.376 . S
C525 C524 1.392 . S
C525 H537 0.929 . S
C526 C522 1.531 . S
C526 H538 0.960 . S
C526 H539 0.962 . S
C526 H540 0.960 . S
C527 C524 1.511 . S
C527 H541 0.961 . S
C527 H542 0.961 . S
C527 H543 0.961 . S
C528 C529 1.370 . S
C528 C530 1.363 . S
C528 H544 0.931 . S
C529 C528 1.370 . S
C529 C533 1.408 . S
C530 C528 1.363 . S
C530 C531 1.370 . S
C530 C534 1.524 . S
C531 C523 1.503 . S
C531 C530 1.370 . S
C531 C532 1.403 . S
C532 C531 1.403 . S
C532 C533 1.404 . S
C532 C535 1.539 . S
C533 C529 1.408 . S
C533 C532 1.404 . S
C533 H545 0.930 . S
C534 C530 1.524 . S
C534 H546 0.956 . S
C534 H547 0.961 . S
C534 H548 0.961 . S
C535 C532 1.539 . S
C535 H549 0.958 . S
C535 H550 0.961 . S
C535 H551 0.960 . S
H536 C520 0.931 . S
H537 C525 0.929 . S
H538 C526 0.960 . S
H539 C526 0.962 . S
H540 C526 0.960 . S
H541 C527 0.961 . S
H542 C527 0.961 . S
H543 C527 0.961 . S
H544 C528 0.931 . S
H545 C533 0.930 . S
H546 C534 0.956 . S
H547 C534 0.961 . S
H548 C534 0.961 . S
H549 C535 0.958 . S
H550 C535 0.961 . S
H551 C535 0.960 . S
C552 C553 1.391 . S
C552 C554 1.394 . S
C552 H568 0.931 . S
C553 C552 1.391 . S
C553 C557 1.376 . S
C554 C552 1.394 . S
C554 C555 1.369 . S
C554 C558 1.531 1_565 S
C555 C554 1.369 . S
C555 C556 1.410 1_556 S
C555 C563 1.503 1_566 S
C556 C555 1.410 1_554 S
C556 C557 1.392 1_554 S
C556 C559 1.511 . S
C557 C553 1.376 . S
C557 C556 1.392 1_556 S
C557 H569 0.929 1_556 S
C558 C554 1.531 1_545 S
C558 H570 0.960 . S
C558 H571 0.962 . S
C558 H572 0.957 1_545 S
C559 C556 1.511 . S
C559 H573 0.961 . S
C559 H574 0.961 . S
C559 H575 0.961 . S
C560 C561 1.370 . S
C560 C562 1.363 . S
C560 H576 0.931 . S
C561 C560 1.370 . S
C561 C565 1.408 . S
C562 C560 1.363 . S
C562 C563 1.370 . S
C562 C566 1.524 . S
C563 C555 1.503 1_544 S
C563 C562 1.370 . S
C563 C564 1.403 1_554 S
C564 C563 1.403 1_556 S
C564 C565 1.404 1_556 S
C564 C567 1.539 . S
C565 C561 1.408 . S
C565 C564 1.404 1_554 S
C565 H577 0.930 . S
C566 C562 1.524 . S
C566 H578 0.956 1_545 S
C566 H579 0.961 1_545 S
C566 H580 0.961 . S
C567 C564 1.539 . S
C567 H581 0.958 . S
C567 H582 0.961 . S
C567 H583 0.960 . S
H568 C552 0.931 . S
H569 C557 0.929 1_554 S
H570 C558 0.960 . S
H571 C558 0.962 . S
H572 C558 0.957 1_565 S
H573 C559 0.961 . S
H574 C559 0.961 . S
H575 C559 0.961 . S
H576 C560 0.931 . S
H577 C565 0.930 . S
H578 C566 0.956 1_565 S
H579 C566 0.961 1_565 S
H580 C566 0.961 . S
H581 C567 0.958 . S
H582 C567 0.961 . S
H583 C567 0.960 . S
C584 C585 1.391 . S
C584 C586 1.394 . S
C584 H600 0.931 . S
C585 C584 1.391 . S
C585 C589 1.376 . S
C586 C584 1.394 . S
C586 C587 1.369 . S
C586 C590 1.531 . S
C587 C586 1.369 . S
C587 C588 1.410 . S
C587 C595 1.503 . S
C588 C587 1.410 . S
C588 C589 1.392 . S
C588 C591 1.511 . S
C589 C585 1.376 . S
C589 C588 1.392 . S
C589 H601 0.929 . S
C590 C586 1.531 . S
C590 H602 0.960 . S
C590 H603 0.962 . S
C590 H604 0.960 . S
C591 C588 1.511 . S
C591 H605 0.961 . S
C591 H606 0.961 . S
C591 H607 0.961 . S
C592 C593 1.370 . S
C592 C594 1.363 . S
C592 H608 0.931 . S
C593 C592 1.370 . S
C593 C597 1.408 . S
C594 C592 1.363 . S
C594 C595 1.370 . S
C594 C598 1.524 . S
C595 C587 1.503 . S
C595 C594 1.370 . S
C595 C596 1.403 . S
C596 C595 1.403 . S
C596 C597 1.404 . S
C596 C599 1.539 . S
C597 C593 1.408 . S
C597 C596 1.404 . S
C597 H609 0.930 . S
C598 C594 1.524 . S
C598 H610 0.956 . S
C598 H611 0.961 . S
C598 H612 0.961 . S
C599 C596 1.539 . S
C599 H613 0.958 . S
C599 H614 0.961 . S
C599 H615 0.960 . S
H600 C584 0.931 . S
H601 C589 0.929 . S
H602 C590 0.960 . S
H603 C590 0.962 . S
H604 C590 0.960 . S
H605 C591 0.961 . S
H606 C591 0.961 . S
H607 C591 0.961 . S
H608 C592 0.931 . S
H609 C597 0.930 . S
H610 C598 0.956 . S
H611 C598 0.961 . S
H612 C598 0.961 . S
H613 C599 0.958 . S
H614 C599 0.961 . S
H615 C599 0.960 . S
C616 C617 1.391 . S
C616 C618 1.394 . S
C616 H632 0.931 . S
C617 C616 1.391 . S
C617 C621 1.376 . S
C618 C616 1.394 . S
C618 C619 1.369 . S
C618 C622 1.531 . S
C619 C618 1.369 . S
C619 C620 1.410 . S
C619 C627 1.503 1_655 S
C620 C619 1.410 . S
C620 C621 1.392 . S
C620 C623 1.511 . S
C621 C617 1.376 . S
C621 C620 1.392 . S
C621 H633 0.929 . S
C622 C618 1.531 . S
C622 H634 0.960 . S
C622 H635 0.962 . S
C622 H636 0.960 . S
C623 C620 1.511 . S
C623 H637 0.961 . S
C623 H638 0.961 . S
C623 H639 0.961 . S
C624 C625 1.370 . S
C624 C626 1.363 . S
C624 H640 0.931 . S
C625 C624 1.370 . S
C625 C629 1.408 . S
C626 C624 1.363 . S
C626 C627 1.370 . S
C626 C630 1.524 . S
C627 C619 1.503 1_455 S
C627 C626 1.370 . S
C627 C628 1.403 . S
C628 C627 1.403 . S
C628 C629 1.404 . S
C628 C631 1.539 1_455 S
C629 C625 1.408 . S
C629 C628 1.404 . S
C629 H641 0.930 . S
C630 C626 1.524 . S
C630 H642 0.956 . S
C630 H643 0.961 . S
C630 H644 0.961 . S
C631 C628 1.539 1_655 S
C631 H645 0.958 . S
C631 H646 0.961 1_655 S
C631 H647 0.960 . S
H632 C616 0.931 . S
H633 C621 0.929 . S
H634 C622 0.960 . S
H635 C622 0.962 . S
H636 C622 0.960 . S
H637 C623 0.961 . S
H638 C623 0.961 . S
H639 C623 0.961 . S
H640 C624 0.931 . S
H641 C629 0.930 . S
H642 C630 0.956 . S
H643 C630 0.961 . S
H644 C630 0.961 . S
H645 C631 0.958 . S
H646 C631 0.961 1_455 S
H647 C631 0.960 . S
C648 C649 1.391 . S
C648 C650 1.394 . S
C648 H664 0.931 . S
C649 C648 1.391 . S
C649 C653 1.376 . S
C650 C648 1.394 . S
C650 C651 1.401 . S
C650 C654 1.531 . S
C651 C650 1.401 . S
C651 C652 1.397 1_554 S
C651 C659 1.489 1_564 S
C652 C651 1.397 1_556 S
C652 C653 1.392 1_556 S
C652 C655 1.511 . S
C653 C649 1.376 . S
C653 C652 1.392 1_554 S
C653 H665 0.928 1_554 S
C654 C650 1.531 . S
C654 H666 0.960 1_565 S
C654 H667 0.962 1_565 S
C654 H668 0.960 . S
C655 C652 1.511 . S
C655 H669 0.961 . S
C655 H670 0.961 . S
C655 H671 0.961 . S
C656 C657 1.370 . S
C656 C658 1.363 1_556 S
C656 H672 0.931 1_556 S
C657 C656 1.370 . S
C657 C661 1.408 . S
C658 C656 1.363 1_554 S
C658 C659 1.370 1_554 S
C658 C662 1.524 . S
C659 C651 1.489 1_546 S
C659 C658 1.370 1_556 S
C659 C660 1.403 . S
C660 C659 1.403 . S
C660 C661 1.404 . S
C660 C663 1.539 1_545 S
C661 C657 1.408 . S
C661 C660 1.404 . S
C661 H673 0.930 . S
C662 C658 1.524 . S
C662 H674 0.956 . S
C662 H675 0.961 . S
C662 H676 0.961 . S
C663 C660 1.539 1_565 S
C663 H677 0.958 . S
C663 H678 0.961 1_565 S
C663 H679 0.960 . S
H664 C648 0.931 . S
H665 C653 0.928 1_556 S
H666 C654 0.960 1_545 S
H667 C654 0.962 1_545 S
H668 C654 0.960 . S
H669 C655 0.961 . S
H670 C655 0.961 . S
H671 C655 0.961 . S
H672 C656 0.931 1_554 S
H673 C661 0.930 . S
H674 C662 0.956 . S
H675 C662 0.961 . S
H676 C662 0.961 . S
H677 C663 0.958 . S
H678 C663 0.961 1_545 S
H679 C663 0.960 . S
C680 C681 1.391 . S
C680 C682 1.394 . S
C680 H696 0.931 . S
C681 C680 1.391 . S
C681 C685 1.376 . S
C682 C680 1.394 . S
C682 C683 1.369 . S
C682 C686 1.531 . S
C683 C682 1.369 . S
C683 C684 1.410 . S
C683 C691 1.503 . S
C684 C683 1.410 . S
C684 C685 1.392 . S
C684 C687 1.511 . S
C685 C681 1.376 . S
C685 C684 1.392 . S
C685 H697 0.929 . S
C686 C682 1.531 . S
C686 H698 0.960 . S
C686 H699 0.962 . S
C686 H700 0.960 . S
C687 C684 1.511 . S
C687 H701 0.961 . S
C687 H702 0.961 . S
C687 H703 0.961 . S
C688 C689 1.370 . S
C688 C690 1.363 . S
C688 H704 0.931 . S
C689 C688 1.370 . S
C689 C693 1.408 . S
C690 C688 1.363 . S
C690 C691 1.370 . S
C690 C694 1.524 . S
C691 C683 1.503 . S
C691 C690 1.370 . S
C691 C692 1.403 . S
C692 C691 1.403 . S
C692 C693 1.404 . S
C692 C695 1.539 . S
C693 C689 1.408 . S
C693 C692 1.404 . S
C693 H705 0.930 . S
C694 C690 1.524 . S
C694 H706 0.956 . S
C694 H707 0.961 . S
C694 H708 0.961 . S
C695 C692 1.539 . S
C695 H709 0.958 . S
C695 H710 0.961 . S
C695 H711 0.960 . S
H696 C680 0.931 . S
H697 C685 0.929 . S
H698 C686 0.960 . S
H699 C686 0.962 . S
H700 C686 0.960 . S
H701 C687 0.961 . S
H702 C687 0.961 . S
H703 C687 0.961 . S
H704 C688 0.931 . S
H705 C693 0.930 . S
H706 C694 0.956 . S
H707 C694 0.961 . S
H708 C694 0.961 . S
H709 C695 0.958 . S
H710 C695 0.961 . S
H711 C695 0.960 . S
C712 C713 1.391 . S
C712 C714 1.394 . S
C712 H728 0.931 . S
C713 C712 1.391 . S
C713 C717 1.376 . S
C714 C712 1.394 . S
C714 C715 1.369 . S
C714 C718 1.531 1_455 S
C715 C714 1.369 . S
C715 C716 1.410 . S
C715 C723 1.503 1_455 S
C716 C715 1.410 . S
C716 C717 1.392 . S
C716 C719 1.511 . S
C717 C713 1.376 . S
C717 C716 1.392 . S
C717 H729 0.929 . S
C718 C714 1.531 1_655 S
C718 H730 0.960 . S
C718 H731 0.962 . S
C718 H732 0.960 1_655 S
C719 C716 1.511 . S
C719 H733 0.961 . S
C719 H734 0.961 . S
C719 H735 0.961 . S
C720 C721 1.370 . S
C720 C722 1.363 . S
C720 H736 0.931 . S
C721 C720 1.370 . S
C721 C725 1.408 . S
C722 C720 1.363 . S
C722 C723 1.370 . S
C722 C726 1.524 1_655 S
C723 C715 1.503 1_655 S
C723 C722 1.370 . S
C723 C724 1.403 . S
C724 C723 1.403 . S
C724 C725 1.404 . S
C724 C727 1.539 . S
C725 C721 1.408 . S
C725 C724 1.404 . S
C725 H737 0.930 . S
C726 C722 1.524 1_455 S
C726 H738 0.956 . S
C726 H739 0.961 . S
C726 H740 0.961 1_455 S
C727 C724 1.539 . S
C727 H741 0.958 . S
C727 H742 0.961 . S
C727 H743 0.960 . S
H728 C712 0.931 . S
H729 C717 0.929 . S
H730 C718 0.960 . S
H731 C718 0.962 . S
H732 C718 0.960 1_455 S
H733 C719 0.961 . S
H734 C719 0.961 . S
H735 C719 0.961 . S
H736 C720 0.931 . S
H737 C725 0.930 . S
H738 C726 0.956 . S
H739 C726 0.961 . S
H740 C726 0.961 1_655 S
H741 C727 0.958 . S
H742 C727 0.961 . S
H743 C727 0.960 . S
C744 C745 1.391 . S
C744 C746 1.394 1_556 S
C744 H760 0.920 1_456 S
C745 C744 1.391 . S
C745 C749 1.376 . S
C746 C744 1.394 1_554 S
C746 C747 1.369 1_554 S
C746 C750 1.531 . S
C747 C746 1.369 1_556 S
C747 C748 1.410 . S
C747 C755 1.503 1_556 S
C748 C747 1.410 . S
C748 C749 1.392 . S
C748 C751 1.511 . S
C749 C745 1.376 . S
C749 C748 1.392 . S
C749 H761 0.929 . S
C750 C746 1.531 . S
C750 H762 0.960 . S
C750 H763 0.962 . S
C750 H764 0.960 . S
C751 C748 1.511 . S
C751 H765 0.961 . S
C751 H766 0.961 . S
C751 H767 0.961 . S
C752 C753 1.370 . S
C752 C754 1.363 . S
C752 H768 0.931 . S
C753 C752 1.370 . S
C753 C757 1.408 . S
C754 C752 1.363 . S
C754 C755 1.370 . S
C754 C758 1.524 . S
C755 C747 1.503 1_554 S
C755 C754 1.370 . S
C755 C756 1.403 1_554 S
C756 C755 1.403 1_556 S
C756 C757 1.404 1_556 S
C756 C759 1.539 . S
C757 C753 1.408 . S
C757 C756 1.404 1_554 S
C757 H769 0.930 . S
C758 C754 1.524 . S
C758 H770 0.956 . S
C758 H771 0.961 . S
C758 H772 0.961 . S
C759 C756 1.539 . S
C759 H773 0.958 . S
C759 H774 0.961 . S
C759 H775 0.960 . S
H760 C744 0.920 1_654 S
H761 C749 0.929 . S
H762 C750 0.960 . S
H763 C750 0.962 . S
H764 C750 0.960 . S
H765 C751 0.961 . S
H766 C751 0.961 . S
H767 C751 0.961 . S
H768 C752 0.931 . S
H769 C757 0.930 . S
H770 C758 0.956 . S
H771 C758 0.961 . S
H772 C758 0.961 . S
H773 C759 0.958 . S
H774 C759 0.961 . S
H775 C759 0.960 . S
C776 C777 1.391 . S
C776 C778 1.394 . S
C776 H792 0.931 . S
C777 C776 1.391 . S
C777 C781 1.376 . S
C778 C776 1.394 . S
C778 C779 1.369 . S
C778 C782 1.531 . S
C779 C778 1.369 . S
C779 C780 1.410 . S
C779 C787 1.503 . S
C780 C779 1.410 . S
C780 C781 1.392 . S
C780 C783 1.511 . S
C781 C777 1.376 . S
C781 C780 1.392 . S
C781 H793 0.929 . S
C782 C778 1.531 . S
C782 H794 0.960 . S
C782 H795 0.962 . S
C782 H796 0.960 . S
C783 C780 1.511 . S
C783 H797 0.961 . S
C783 H798 0.961 . S
C783 H799 0.961 . S
C784 C785 1.370 . S
C784 C786 1.363 . S
C784 H800 0.931 . S
C785 C784 1.370 . S
C785 C789 1.408 . S
C786 C784 1.363 . S
C786 C787 1.370 . S
C786 C790 1.524 . S
C787 C779 1.503 . S
C787 C786 1.370 . S
C787 C788 1.403 . S
C788 C787 1.403 . S
C788 C789 1.404 . S
C788 C791 1.539 . S
C789 C785 1.408 . S
C789 C788 1.404 . S
C789 H801 0.930 . S
C790 C786 1.524 . S
C790 H802 0.956 . S
C790 H803 0.961 . S
C790 H804 0.961 . S
C791 C788 1.539 . S
C791 H805 0.958 . S
C791 H806 0.961 . S
C791 H807 0.960 . S
H792 C776 0.931 . S
H793 C781 0.929 . S
H794 C782 0.960 . S
H795 C782 0.962 . S
H796 C782 0.960 . S
H797 C783 0.961 . S
H798 C783 0.961 . S
H799 C783 0.961 . S
H800 C784 0.931 . S
H801 C789 0.930 . S
H802 C790 0.956 . S
H803 C790 0.961 . S
H804 C790 0.961 . S
H805 C791 0.958 . S
H806 C791 0.961 . S
H807 C791 0.960 . S
C808 C809 1.391 . S
C808 C810 1.394 . S
C808 H824 0.931 . S
C809 C808 1.391 . S
C809 C813 1.376 . S
C810 C808 1.394 . S
C810 C811 1.369 . S
C810 C814 1.531 . S
C811 C810 1.369 . S
C811 C812 1.410 . S
C811 C819 1.503 . S
C812 C811 1.410 . S
C812 C813 1.392 . S
C812 C815 1.511 . S
C813 C809 1.376 . S
C813 C812 1.392 . S
C813 H825 0.929 . S
C814 C810 1.531 . S
C814 H826 0.960 . S
C814 H827 0.962 . S
C814 H828 0.960 . S
C815 C812 1.511 . S
C815 H829 0.961 . S
C815 H830 0.961 . S
C815 H831 0.961 . S
C816 C817 1.370 . S
C816 C818 1.363 . S
C816 H832 0.931 . S
C817 C816 1.370 . S
C817 C821 1.408 . S
C818 C816 1.363 . S
C818 C819 1.370 . S
C818 C822 1.524 . S
C819 C811 1.503 . S
C819 C818 1.370 . S
C819 C820 1.403 . S
C820 C819 1.403 . S
C820 C821 1.404 . S
C820 C823 1.539 . S
C821 C817 1.408 . S
C821 C820 1.404 . S
C821 H833 0.930 1_565 S
C822 C818 1.524 . S
C822 H834 0.956 . S
C822 H835 0.961 . S
C822 H836 0.961 . S
C823 C820 1.539 . S
C823 H837 0.958 . S
C823 H838 0.961 . S
C823 H839 0.960 . S
H824 C808 0.931 . S
H825 C813 0.929 . S
H826 C814 0.960 . S
H827 C814 0.962 . S
H828 C814 0.960 . S
H829 C815 0.961 . S
H830 C815 0.961 . S
H831 C815 0.961 . S
H832 C816 0.931 . S
H833 C821 0.930 1_545 S
H834 C822 0.956 . S
H835 C822 0.961 . S
H836 C822 0.961 . S
H837 C823 0.958 . S
H838 C823 0.961 . S
H839 C823 0.960 . S
C840 C841 1.391 . S
C840 C842 1.394 1_554 S
C840 H856 0.931 1_554 S
C841 C840 1.391 . S
C841 C845 1.376 . S
C842 C840 1.394 1_556 S
C842 C843 1.369 1_556 S
C842 C846 1.531 . S
C843 C842 1.369 1_554 S
C843 C844 1.410 . S
C843 C851 1.503 1_554 S
C844 C843 1.410 . S
C844 C845 1.392 . S
C844 C847 1.511 . S
C845 C841 1.376 . S
C845 C844 1.392 . S
C845 H857 0.929 . S
C846 C842 1.531 . S
C846 H858 0.960 . S
C846 H859 0.962 . S
C846 H860 0.960 . S
C847 C844 1.511 . S
C847 H861 0.961 . S
C847 H862 0.961 . S
C847 H863 0.961 . S
C848 C849 1.370 . S
C848 C850 1.363 . S
C848 H864 0.931 . S
C849 C848 1.370 . S
C849 C853 1.408 . S
C850 C848 1.363 . S
C850 C851 1.370 . S
C850 C854 1.524 . S
C851 C843 1.503 1_556 S
C851 C850 1.370 . S
C851 C852 1.403 . S
C852 C851 1.403 . S
C852 C853 1.404 . S
C852 C855 1.539 1_556 S
C853 C849 1.408 . S
C853 C852 1.404 . S
C853 H865 0.930 1_655 S
C854 C850 1.524 . S
C854 H866 0.956 . S
C854 H867 0.987 . S
C854 H868 0.961 . S
C855 C852 1.539 1_554 S
C855 H869 0.945 1_554 S
C855 H870 0.961 . S
C855 H871 0.960 . S
H856 C840 0.931 1_556 S
H857 C845 0.929 . S
H858 C846 0.960 . S
H859 C846 0.962 . S
H860 C846 0.960 . S
H861 C847 0.961 . S
H862 C847 0.961 . S
H863 C847 0.961 . S
H864 C848 0.931 . S
H865 C853 0.930 1_455 S
H866 C854 0.956 . S
H867 C854 0.987 . S
H868 C854 0.961 . S
H869 C855 0.945 1_556 S
H870 C855 0.961 . S
H871 C855 0.960 . S
C872 C873 1.391 . S
C872 C874 1.394 . S
C872 H888 0.931 . S
C873 C872 1.391 . S
C873 C877 1.376 . S
C874 C872 1.394 . S
C874 C875 1.369 . S
C874 C878 1.531 . S
C875 C874 1.369 . S
C875 C876 1.410 . S
C875 C883 1.503 . S
C876 C875 1.410 . S
C876 C877 1.392 . S
C876 C879 1.511 . S
C877 C873 1.376 . S
C877 C876 1.392 . S
C877 H889 0.929 . S
C878 C874 1.531 . S
C878 H890 0.960 . S
C878 H891 0.962 . S
C878 H892 0.960 . S
C879 C876 1.511 . S
C879 H893 0.961 . S
C879 H894 0.961 . S
C879 H895 0.961 . S
C880 C881 1.370 . S
C880 C882 1.363 . S
C880 H896 0.931 . S
C881 C880 1.370 . S
C881 C885 1.408 . S
C882 C880 1.363 . S
C882 C883 1.370 . S
C882 C886 1.524 . S
C883 C875 1.503 . S
C883 C882 1.370 . S
C883 C884 1.403 . S
C884 C883 1.403 . S
C884 C885 1.404 . S
C884 C887 1.539 . S
C885 C881 1.408 . S
C885 C884 1.404 . S
C885 H897 0.930 . S
C886 C882 1.524 . S
C886 H898 0.956 . S
C886 H899 0.961 . S
C886 H900 0.961 . S
C887 C884 1.539 . S
C887 H901 0.958 . S
C887 H902 0.961 . S
C887 H903 0.960 . S
H888 C872 0.931 . S
H889 C877 0.929 . S
H890 C878 0.960 . S
H891 C878 0.962 . S
H892 C878 0.960 . S
H893 C879 0.961 . S
H894 C879 0.961 . S
H895 C879 0.961 . S
H896 C880 0.931 . S
H897 C885 0.930 . S
H898 C886 0.956 . S
H899 C886 0.961 . S
H900 C886 0.961 . S
H901 C887 0.958 . S
H902 C887 0.961 . S
H903 C887 0.960 . S
C904 C905 1.391 . S
C904 C906 1.394 . S
C904 H920 0.931 . S
C905 C904 1.391 . S
C905 C909 1.376 . S
C906 C904 1.394 . S
C906 C907 1.369 . S
C906 C910 1.531 . S
C907 C906 1.369 . S
C907 C908 1.410 . S
C907 C915 1.503 . S
C908 C907 1.410 . S
C908 C909 1.392 . S
C908 C911 1.511 . S
C909 C905 1.376 . S
C909 C908 1.392 . S
C909 H921 0.929 1_545 S
C910 C906 1.531 . S
C910 H922 0.960 . S
C910 H923 0.962 . S
C910 H924 0.960 . S
C911 C908 1.511 . S
C911 H925 0.961 . S
C911 H926 0.961 . S
C911 H927 0.961 . S
C912 C913 1.370 . S
C912 C914 1.363 . S
C912 H928 0.931 . S
C913 C912 1.370 . S
C913 C917 1.408 . S
C914 C912 1.363 . S
C914 C915 1.370 . S
C914 C918 1.524 . S
C915 C907 1.503 . S
C915 C914 1.370 . S
C915 C916 1.403 . S
C916 C915 1.403 . S
C916 C917 1.404 . S
C916 C919 1.539 . S
C917 C913 1.408 . S
C917 C916 1.404 . S
C917 H929 0.930 . S
C918 C914 1.524 . S
C918 H930 0.956 . S
C918 H931 0.961 . S
C918 H932 0.961 . S
C919 C916 1.539 . S
C919 H933 0.958 . S
C919 H934 0.961 . S
C919 H935 0.960 . S
H920 C904 0.931 . S
H921 C909 0.929 1_565 S
H922 C910 0.960 . S
H923 C910 0.962 . S
H924 C910 0.960 . S
H925 C911 0.961 . S
H926 C911 0.961 . S
H927 C911 0.961 . S
H928 C912 0.931 . S
H929 C917 0.930 . S
H930 C918 0.956 . S
H931 C918 0.961 . S
H932 C918 0.961 . S
H933 C919 0.958 . S
H934 C919 0.961 . S
H935 C919 0.960 . S
C169 C53 1.309 . S
C177 C11 1.304 . S
C201 C23 1.426 . S
C209 C65 1.423 . S
C233 C79 1.330 . S
C241 C37 1.333 . S
C265 C93 1.432 . S
C273 C135 1.405 . S
C297 C151 1.309 . S
C305 C109 1.305 . S
C329 C121 1.344 . S
C337 C163 1.328 . S
C361 C123 1.630 . S
C369 C9 1.635 . S
C393 C25 1.641 . S
C401 C137 1.655 . S
C425 C39 1.611 . S
C433 C149 1.638 . S
C457 C51 1.627 . S
C465 C165 1.632 . S
C489 C95 1.651 . S
C497 C67 1.661 . S
C521 C107 1.629 . S
C529 C81 1.630 . S
C553 C103 1.182 . S
C561 C5 1.202 . S
C585 C14 1.339 . S
C593 C112 1.348 . S
C617 C28 1.339 . S
C625 C126 1.340 . S
C649 C47 1.201 . S
C657 C145 1.202 . S
C681 C154 1.347 . S
C689 C56 1.344 . S
C713 C70 1.325 . S
C721 C84 1.328 . S
C745 C140 1.302 1_455 S
C753 C0 1.319 . S
C777 C159 1.486 1_545 S
C785 C19 1.487 1_655 S
C809 C89 1.475 . S
C817 C33 1.485 1_565 S
C841 C42 1.301 . S
C849 C98 1.317 1_655 S
C873 C61 1.484 1_455 S
C881 C117 1.488 1_565 S
C905 C75 1.484 1_545 S
C913 C131 1.484 . S
