# Generated by pormake.
# Topology fnz, (5)-cn, num edge types: 1
# Building blocks:
#     Node 0, Type 0, BuildingBlock: XOMCOT_clean_sbu_0, # of connection points: 5
#     Node 1, Type 0, BuildingBlock: XOMCOT_clean_sbu_0, # of connection points: 5
#     Node 2, Type 0, BuildingBlock: XOMCOT_clean_sbu_0, # of connection points: 5
#     Node 3, Type 0, BuildingBlock: XOMCOT_clean_sbu_0, # of connection points: 5
#     Node 4, Type 0, BuildingBlock: XOMCOT_clean_sbu_0, # of connection points: 5
#     Node 5, Type 0, BuildingBlock: XOMCOT_clean_sbu_0, # of connection points: 5
#     Node 6, Type 0, BuildingBlock: XOMCOT_clean_sbu_0, # of connection points: 5
#     Node 7, Type 0, BuildingBlock: XOMCOT_clean_sbu_0, # of connection points: 5
#     Node 8, Type 0, BuildingBlock: XOMCOT_clean_sbu_0, # of connection points: 5
#     Node 9, Type 0, BuildingBlock: XOMCOT_clean_sbu_0, # of connection points: 5
#     Node 10, Type 0, BuildingBlock: XOMCOT_clean_sbu_0, # of connection points: 5
#     Node 11, Type 0, BuildingBlock: XOMCOT_clean_sbu_0, # of connection points: 5
#     Edge 12, Type (0, 0), BuildingBlock: OJICUG_clean_linker_0, # of connection points: 2
#     Edge 13, Type (0, 0), BuildingBlock: OJICUG_clean_linker_0, # of connection points: 2
#     Edge 14, Type (0, 0), BuildingBlock: OJICUG_clean_linker_0, # of connection points: 2
#     Edge 15, Type (0, 0), BuildingBlock: OJICUG_clean_linker_0, # of connection points: 2
#     Edge 16, Type (0, 0), BuildingBlock: OJICUG_clean_linker_0, # of connection points: 2
#     Edge 17, Type (0, 0), BuildingBlock: OJICUG_clean_linker_0, # of connection points: 2
#     Edge 18, Type (0, 0), BuildingBlock: OJICUG_clean_linker_0, # of connection points: 2
#     Edge 19, Type (0, 0), BuildingBlock: OJICUG_clean_linker_0, # of connection points: 2
#     Edge 20, Type (0, 0), BuildingBlock: OJICUG_clean_linker_0, # of connection points: 2
#     Edge 21, Type (0, 0), BuildingBlock: OJICUG_clean_linker_0, # of connection points: 2
#     Edge 22, Type (0, 0), BuildingBlock: OJICUG_clean_linker_0, # of connection points: 2
#     Edge 23, Type (0, 0), BuildingBlock: OJICUG_clean_linker_0, # of connection points: 2
#     Edge 24, Type (0, 0), BuildingBlock: OJICUG_clean_linker_0, # of connection points: 2
#     Edge 25, Type (0, 0), BuildingBlock: OJICUG_clean_linker_0, # of connection points: 2
#     Edge 26, Type (0, 0), BuildingBlock: OJICUG_clean_linker_0, # of connection points: 2
#     Edge 27, Type (0, 0), BuildingBlock: OJICUG_clean_linker_0, # of connection points: 2
#     Edge 28, Type (0, 0), BuildingBlock: OJICUG_clean_linker_0, # of connection points: 2
#     Edge 29, Type (0, 0), BuildingBlock: OJICUG_clean_linker_0, # of connection points: 2
#     Edge 30, Type (0, 0), BuildingBlock: OJICUG_clean_linker_0, # of connection points: 2
#     Edge 31, Type (0, 0), BuildingBlock: OJICUG_clean_linker_0, # of connection points: 2
#     Edge 32, Type (0, 0), BuildingBlock: OJICUG_clean_linker_0, # of connection points: 2
#     Edge 33, Type (0, 0), BuildingBlock: OJICUG_clean_linker_0, # of connection points: 2
#     Edge 34, Type (0, 0), BuildingBlock: OJICUG_clean_linker_0, # of connection points: 2
#     Edge 35, Type (0, 0), BuildingBlock: OJICUG_clean_linker_0, # of connection points: 2
#     Edge 36, Type (0, 0), BuildingBlock: OJICUG_clean_linker_0, # of connection points: 2
#     Edge 37, Type (0, 0), BuildingBlock: OJICUG_clean_linker_0, # of connection points: 2
#     Edge 38, Type (0, 0), BuildingBlock: OJICUG_clean_linker_0, # of connection points: 2
#     Edge 39, Type (0, 0), BuildingBlock: OJICUG_clean_linker_0, # of connection points: 2
#     Edge 40, Type (0, 0), BuildingBlock: OJICUG_clean_linker_0, # of connection points: 2
#     Edge 41, Type (0, 0), BuildingBlock: OJICUG_clean_linker_0, # of connection points: 2
# Relax obj value: 0.173
# Max RMSD: 0.244
# Mean RMSD: 0.244
data_MOF--net-fnz--node1-XOMCOT_clean_sbu_0--edge1-OJICUG_clean_linker_0
_symmetry_space_group_name_H-M    P1
_symmetry_Int_Tables_number       1
_symmetry_cell_setting            triclinic
loop_
_symmetry_equiv_pos_as_xyz
'x, y, z'
_cell_length_a     34.088289
_cell_length_b     34.089732
_cell_length_c     23.229705
_cell_angle_alpha  89.950336
_cell_angle_beta   89.961601
_cell_angle_gamma 119.99461
loop_
_atom_site_label
_atom_site_type_symbol
_atom_site_fract_x
_atom_site_fract_y
_atom_site_fract_z
_atom_type_partial_charge
Co0 Co 0.41878 0.14374 0.0742 0.0
C1 C 0.37947 0.20272 0.06262 0.0
C2 C 0.33247 0.13966 0.10283 0.0
C3 C 0.31248 0.1661 0.0984 0.0
N4 N 0.37435 0.16273 0.08019 0.0
N5 N 0.34212 0.20577 0.07305 0.0
H6 H 0.41036 0.22932 0.04363 0.0
H7 H 0.31759 0.10616 0.12147 0.0
C8 C 0.36414 0.04627 0.03406 0.0
O9 O 0.39548 0.05237 0.99637 0.0
N10 N 0.46377 0.12485 0.06899 0.0
C11 C 0.50514 0.14674 0.04442 0.0
C12 C 0.52508 0.12038 0.04958 0.0
C13 C 0.46002 0.08638 0.09079 0.0
N14 N 0.49645 0.08216 0.07823 0.0
C15 C 0.45861 0.19605 0.9718 0.0
C16 C 0.38744 0.14409 0.89881 0.0
C17 C 0.42438 0.1839 0.87701 0.0
C18 C 0.46021 0.2101 0.91486 0.0
C19 C 0.38649 0.1323 0.95649 0.0
N20 N 0.42262 0.15691 0.99188 0.0
H21 H 0.4855 0.21812 1.00049 0.0
H22 H 0.35548 0.10441 0.9727 0.0
H23 H 0.52018 0.17937 0.02375 0.0
H24 H 0.43073 0.0615 0.11445 0.0
O25 O 0.4641 0.20261 0.10295 0.0
O26 O 0.42188 0.142 0.1567 0.0
O27 O 0.36836 0.07921 0.06477 0.0
C28 C 0.45231 0.18466 0.15403 0.0
H29 H 0.27861 0.15658 0.1125 0.0
H30 H 0.55743 0.12804 0.03152 0.0
H31 H 0.35865 0.12228 0.87223 0.0
H32 H 0.48868 0.24219 0.90169 0.0
Co33 Co 0.27748 0.41528 0.07227 0.0
C34 C 0.17922 0.37646 0.06101 0.0
C35 C 0.19498 0.32914 0.10086 0.0
C36 C 0.14855 0.3095 0.09693 0.0
N37 N 0.21397 0.37101 0.07815 0.0
N38 N 0.13871 0.33934 0.07182 0.0
H39 H 0.18366 0.40746 0.04221 0.0
H40 H 0.21346 0.31408 0.11935 0.0
C41 C 0.32035 0.36049 0.03247 0.0
O42 O 0.34577 0.3919 0.99493 0.0
N43 N 0.34143 0.46019 0.06713 0.0
C44 C 0.36088 0.50156 0.04257 0.0
C45 C 0.40717 0.52161 0.04779 0.0
C46 C 0.3762 0.45654 0.08897 0.0
N47 N 0.41682 0.49305 0.07648 0.0
C48 C 0.26509 0.45524 0.96996 0.0
C49 C 0.24645 0.38447 0.8965 0.0
C50 C 0.24346 0.42141 0.87488 0.0
C51 C 0.25282 0.45702 0.913 0.0
C52 C 0.25713 0.38333 0.95422 0.0
N53 N 0.26834 0.41926 0.98987 0.0
H54 H 0.26973 0.482 0.99878 0.0
H55 H 0.25418 0.35234 0.97022 0.0
H56 H 0.34325 0.51654 0.0219 0.0
H57 H 0.37182 0.42727 0.11265 0.0
O58 O 0.26402 0.46072 0.10104 0.0
O59 O 0.28211 0.41835 0.15484 0.0
O60 O 0.29143 0.36466 0.06292 0.0
C61 C 0.26999 0.44887 0.15215 0.0
H62 H 0.12407 0.27575 0.11129 0.0
H63 H 0.43181 0.554 0.02979 0.0
H64 H 0.23969 0.35584 0.86973 0.0
H65 H 0.24911 0.48547 0.90003 0.0
Co66 Co 0.86461 0.27553 0.07328 0.0
C67 C 0.80584 0.17738 0.0625 0.0
C68 C 0.86891 0.19337 0.10238 0.0
C69 C 0.84241 0.14693 0.09804 0.0
N70 N 0.84584 0.21221 0.07988 0.0
N71 N 0.80274 0.13697 0.07285 0.0
H72 H 0.77923 0.1817 0.04367 0.0
H73 H 0.90246 0.21197 0.12079 0.0
C74 C 0.96246 0.31893 0.03367 0.0
O75 O 0.95642 0.34425 0.99606 0.0
N76 N 0.88299 0.33925 0.06715 0.0
C77 C 0.86099 0.35799 0.04108 0.0
C78 C 0.8868 0.40433 0.04532 0.0
C79 C 0.92099 0.37451 0.08894 0.0
N80 N 0.92482 0.41481 0.07495 0.0
C81 C 0.81189 0.26163 0.97111 0.0
C82 C 0.86488 0.24405 0.89768 0.0
C83 C 0.82475 0.24053 0.87609 0.0
C84 C 0.79801 0.24925 0.91419 0.0
C85 C 0.87662 0.25496 0.95538 0.0
N86 N 0.85146 0.26571 0.99097 0.0
H87 H 0.78944 0.26582 0.99992 0.0
H88 H 0.90496 0.25258 0.97138 0.0
H89 H 0.82864 0.33987 0.01996 0.0
H90 H 0.94577 0.37064 0.11354 0.0
O91 O 0.8056 0.26182 0.10204 0.0
O92 O 0.86619 0.28076 0.15581 0.0
O93 O 0.92935 0.28991 0.06405 0.0
C94 C 0.82347 0.26827 0.15314 0.0
H95 H 0.85188 0.12252 0.11203 0.0
H96 H 0.8788 0.42836 0.02596 0.0
H97 H 0.887 0.23762 0.87086 0.0
H98 H 0.76566 0.24502 0.90116 0.0
Co99 Co 0.5924 0.86331 0.07221 0.0
C100 C 0.63134 0.80408 0.06019 0.0
C101 C 0.67861 0.86707 0.10007 0.0
C102 C 0.69841 0.84048 0.09556 0.0
N103 N 0.63669 0.84414 0.07768 0.0
N104 N 0.6686 0.80085 0.07045 0.0
H105 H 0.60034 0.77752 0.0415 0.0
H106 H 0.69363 0.90055 0.11866 0.0
C107 C 0.64735 0.96105 0.03252 0.0
O108 O 0.61595 0.95532 0.9952 0.0
N109 N 0.54754 0.88238 0.06749 0.0
C110 C 0.5062 0.86069 0.04297 0.0
C111 C 0.48631 0.88706 0.04852 0.0
C112 C 0.55134 0.92075 0.08962 0.0
N113 N 0.51495 0.92509 0.07735 0.0
C114 C 0.55227 0.8111 0.97002 0.0
C115 C 0.62291 0.86326 0.89617 0.0
C116 C 0.58595 0.82334 0.87473 0.0
C117 C 0.55039 0.79708 0.91304 0.0
C118 C 0.62415 0.87506 0.95392 0.0
N119 N 0.58829 0.85029 0.98978 0.0
H120 H 0.52555 0.78897 0.99897 0.0
H121 H 0.65516 0.90308 0.96976 0.0
H122 H 0.49116 0.82818 0.02208 0.0
H123 H 0.58064 0.94547 0.11329 0.0
O124 O 0.54698 0.80439 0.10109 0.0
O125 O 0.58943 0.86475 0.15482 0.0
O126 O 0.64305 0.92783 0.06279 0.0
C127 C 0.55889 0.82214 0.15218 0.0
H128 H 0.73225 0.84983 0.10954 0.0
H129 H 0.45399 0.87955 0.0306 0.0
H130 H 0.6515 0.88514 0.86924 0.0
H131 H 0.52192 0.76492 0.90019 0.0
Co132 Co 0.73227 0.59083 0.0714 0.0
C133 C 0.8309 0.63136 0.0583 0.0
C134 C 0.81403 0.67696 0.10071 0.0
C135 C 0.86047 0.69765 0.09589 0.0
N136 N 0.79568 0.63554 0.07696 0.0
N137 N 0.87104 0.66893 0.06918 0.0
H138 H 0.8271 0.60102 0.03828 0.0
H139 H 0.79507 0.69105 0.12043 0.0
C140 C 0.68912 0.64533 0.03134 0.0
O141 O 0.66371 0.61389 0.99395 0.0
N142 N 0.66837 0.54567 0.06669 0.0
C143 C 0.64896 0.50415 0.04269 0.0
C144 C 0.60266 0.48405 0.04814 0.0
C145 C 0.63358 0.54935 0.08845 0.0
N146 N 0.59298 0.51272 0.07641 0.0
C147 C 0.74436 0.55067 0.96931 0.0
C148 C 0.76258 0.62115 0.89533 0.0
C149 C 0.7653 0.58405 0.87388 0.0
C150 C 0.75621 0.54861 0.91226 0.0
C151 C 0.75232 0.62257 0.95316 0.0
N152 N 0.74127 0.58675 0.98905 0.0
H153 H 0.73989 0.52402 0.9983 0.0
H154 H 0.75541 0.65363 0.96902 0.0
H155 H 0.66661 0.48908 0.02228 0.0
H156 H 0.63793 0.57871 0.11178 0.0
O157 O 0.74608 0.54566 0.10015 0.0
O158 O 0.72768 0.58777 0.15397 0.0
O159 O 0.71798 0.64117 0.06185 0.0
C160 C 0.73988 0.55731 0.15124 0.0
H161 H 0.88449 0.73138 0.11071 0.0
H162 H 0.57804 0.45152 0.03057 0.0
H163 H 0.7692 0.64967 0.86833 0.0
H164 H 0.75981 0.52008 0.89938 0.0
Co165 Co 0.14435 0.73172 0.0728 0.0
C166 C 0.20445 0.82988 0.06157 0.0
C167 C 0.14189 0.81447 0.10273 0.0
C168 C 0.16886 0.86083 0.09877 0.0
N169 N 0.1643 0.79531 0.07917 0.0
N170 N 0.20821 0.87046 0.07286 0.0
H171 H 0.23058 0.8252 0.04183 0.0
H172 H 0.10849 0.7961 0.12171 0.0
C173 C 0.04899 0.69466 0.02705 0.0
O174 O 0.05643 0.67262 0.98605 0.0
N175 N 0.12438 0.66736 0.06806 0.0
C176 C 0.14982 0.64792 0.05793 0.0
C177 C 0.12301 0.60167 0.06243 0.0
C178 C 0.08304 0.63247 0.08198 0.0
N179 N 0.08081 0.59187 0.07727 0.0
C180 C 0.18974 0.7339 0.96653 0.0
C181 C 0.15186 0.77418 0.90107 0.0
C182 C 0.18414 0.7657 0.8757 0.0
C183 C 0.20292 0.74496 0.90899 0.0
C184 C 0.13897 0.76174 0.9583 0.0
N185 N 0.15707 0.7409 0.99023 0.0
H186 H 0.20779 0.72211 0.99255 0.0
H187 H 0.11586 0.77088 0.97766 0.0
H188 H 0.18584 0.66563 0.05035 0.0
H189 H 0.05547 0.63672 0.09725 0.0
O190 O 0.20315 0.74459 0.10132 0.0
O191 O 0.14276 0.72684 0.15528 0.0
O192 O 0.08028 0.71902 0.06271 0.0
C193 C 0.18532 0.73862 0.15254 0.0
H194 H 0.15994 0.88543 0.11363 0.0
H195 H 0.13401 0.57731 0.0552 0.0
H196 H 0.13715 0.79094 0.87709 0.0
H197 H 0.22918 0.73935 0.89153 0.0
Co198 Co 0.86357 0.58838 0.44029 0.0
C199 C 0.80471 0.62783 0.45187 0.0
C200 C 0.86784 0.6748 0.41179 0.0
C201 C 0.84146 0.69485 0.41618 0.0
N202 N 0.8447 0.63291 0.43437 0.0
N203 N 0.80174 0.66524 0.44144 0.0
H204 H 0.77804 0.59694 0.47077 0.0
H205 H 0.90136 0.68965 0.39321 0.0
C206 C 0.96109 0.64281 0.48033 0.0
O207 O 0.95497 0.61137 0.51789 0.0
N208 N 0.88235 0.54332 0.44542 0.0
C209 C 0.86057 0.50204 0.47027 0.0
C210 C 0.8869 0.48207 0.465 0.0
C211 C 0.92071 0.54697 0.42338 0.0
N212 N 0.92498 0.51058 0.43602 0.0
C213 C 0.81119 0.54861 0.54266 0.0
C214 C 0.86338 0.61962 0.61574 0.0
C215 C 0.82346 0.58278 0.63749 0.0
C216 C 0.79716 0.54702 0.5996 0.0
C217 C 0.87515 0.62057 0.55806 0.0
N218 N 0.85041 0.58451 0.52262 0.0
H219 H 0.78907 0.52177 0.51394 0.0
H220 H 0.90313 0.65154 0.5419 0.0
H221 H 0.82806 0.48712 0.49124 0.0
H222 H 0.9455 0.5762 0.39953 0.0
O223 O 0.80466 0.54316 0.41153 0.0
O224 O 0.86529 0.58534 0.35779 0.0
O225 O 0.92814 0.63871 0.44973 0.0
C226 C 0.82261 0.55497 0.36045 0.0
H227 H 0.85104 0.72874 0.4021 0.0
H228 H 0.87933 0.4498 0.48324 0.0
H229 H 0.88528 0.64834 0.64237 0.0
H230 H 0.765 0.51863 0.61274 0.0
Co231 Co 0.27562 0.86302 0.44228 0.0
C232 C 0.17748 0.80282 0.45359 0.0
C233 C 0.19281 0.86544 0.41264 0.0
C234 C 0.14644 0.83839 0.41651 0.0
N235 N 0.21201 0.84304 0.43612 0.0
N236 N 0.13686 0.799 0.44227 0.0
H237 H 0.18221 0.77668 0.47319 0.0
H238 H 0.21113 0.89886 0.39372 0.0
C239 C 0.31268 0.95843 0.4879 0.0
O240 O 0.33475 0.95104 0.52892 0.0
N241 N 0.34 0.88299 0.4468 0.0
C242 C 0.35943 0.8575 0.45659 0.0
C243 C 0.40569 0.88432 0.45211 0.0
C244 C 0.37489 0.92438 0.43306 0.0
N245 N 0.41549 0.92657 0.43761 0.0
C246 C 0.27393 0.81801 0.5487 0.0
C247 C 0.23421 0.85624 0.61443 0.0
C248 C 0.243 0.82419 0.64036 0.0
C249 C 0.26342 0.80523 0.60643 0.0
C250 C 0.246 0.86861 0.55692 0.0
N251 N 0.26668 0.85045 0.5249 0.0
H252 H 0.28586 0.80007 0.52274 0.0
H253 H 0.23644 0.89137 0.53744 0.0
H254 H 0.3417 0.82145 0.46394 0.0
H255 H 0.37067 0.95201 0.41802 0.0
O256 O 0.26269 0.80417 0.41386 0.0
O257 O 0.28032 0.86449 0.35979 0.0
O258 O 0.28833 0.9271 0.45227 0.0
C259 C 0.26856 0.82194 0.36261 0.0
H260 H 0.12182 0.84728 0.40164 0.0
H261 H 0.43004 0.87328 0.45914 0.0
H262 H 0.21674 0.87056 0.63751 0.0
H263 H 0.27068 0.78007 0.62378 0.0
Co264 Co 0.41669 0.27513 0.44299 0.0
C265 C 0.3761 0.1765 0.45619 0.0
C266 C 0.33056 0.19337 0.41361 0.0
C267 C 0.30984 0.14694 0.41848 0.0
N268 N 0.37197 0.21172 0.43744 0.0
N269 N 0.33853 0.13636 0.4453 0.0
H270 H 0.40641 0.18029 0.47629 0.0
H271 H 0.31651 0.21234 0.39381 0.0
C272 C 0.36225 0.31843 0.48265 0.0
O273 O 0.3937 0.34396 0.51996 0.0
N274 N 0.46187 0.33901 0.44771 0.0
C275 C 0.50325 0.35843 0.47213 0.0
C276 C 0.52339 0.40472 0.46656 0.0
C277 C 0.45833 0.37378 0.42561 0.0
N278 N 0.4949 0.41439 0.43781 0.0
C279 C 0.45669 0.26286 0.54513 0.0
C280 C 0.38633 0.24504 0.61912 0.0
C281 C 0.42332 0.2421 0.64058 0.0
C282 C 0.45869 0.25099 0.60219 0.0
C283 C 0.38495 0.2553 0.56127 0.0
N284 N 0.42072 0.26614 0.52537 0.0
H285 H 0.48331 0.26723 0.51615 0.0
H286 H 0.35396 0.25238 0.54542 0.0
H287 H 0.51817 0.34079 0.49294 0.0
H288 H 0.42908 0.36941 0.40197 0.0
O289 O 0.46186 0.26128 0.41433 0.0
O290 O 0.4198 0.27969 0.36042 0.0
O291 O 0.36637 0.28944 0.45238 0.0
C292 C 0.45025 0.26748 0.36321 0.0
H293 H 0.27613 0.12293 0.40362 0.0
H294 H 0.55581 0.42935 0.4844 0.0
H295 H 0.35787 0.23859 0.64612 0.0
H296 H 0.48713 0.24724 0.61508 0.0
Co297 Co 0.14408 0.4149 0.4412 0.0
C298 C 0.20343 0.3761 0.45315 0.0
C299 C 0.14043 0.32873 0.41336 0.0
C300 C 0.16708 0.30899 0.41791 0.0
N301 N 0.16334 0.37068 0.43567 0.0
N302 N 0.20671 0.33886 0.44298 0.0
H303 H 0.22996 0.40712 0.47182 0.0
H304 H 0.10692 0.31365 0.39483 0.0
C305 C 0.04649 0.35991 0.48127 0.0
O306 O 0.05239 0.39131 0.51867 0.0
N307 N 0.12493 0.45969 0.44596 0.0
C308 C 0.1467 0.50113 0.47023 0.0
C309 C 0.12027 0.52096 0.46477 0.0
C310 C 0.08645 0.45579 0.42405 0.0
N311 N 0.08212 0.49219 0.43623 0.0
C312 C 0.19623 0.45509 0.54344 0.0
C313 C 0.14435 0.38419 0.6171 0.0
C314 C 0.18414 0.42127 0.63863 0.0
C315 C 0.21027 0.45695 0.60041 0.0
C316 C 0.13255 0.38299 0.55936 0.0
N317 N 0.15714 0.41898 0.52361 0.0
H318 H 0.21828 0.4819 0.51454 0.0
H319 H 0.10466 0.35192 0.54343 0.0
H320 H 0.17932 0.51629 0.49086 0.0
H321 H 0.06165 0.42641 0.40057 0.0
O322 O 0.20297 0.46037 0.41232 0.0
O323 O 0.1426 0.4179 0.3586 0.0
O324 O 0.07958 0.36422 0.45071 0.0
C325 C 0.18521 0.44848 0.36123 0.0
H326 H 0.15775 0.27514 0.40403 0.0
H327 H 0.12783 0.55334 0.48252 0.0
H328 H 0.12258 0.3555 0.64394 0.0
H329 H 0.24234 0.48552 0.61333 0.0
Co330 Co 0.73182 0.14265 0.44233 0.0
C331 C 0.83003 0.20136 0.45287 0.0
C332 C 0.81387 0.13829 0.41288 0.0
C333 C 0.86033 0.16477 0.41696 0.0
N334 N 0.79513 0.16136 0.43562 0.0
N335 N 0.8704 0.20444 0.4422 0.0
H336 H 0.82579 0.228 0.47177 0.0
H337 H 0.79521 0.10477 0.39443 0.0
C338 C 0.68836 0.04469 0.48166 0.0
O339 O 0.66292 0.05059 0.51923 0.0
N340 N 0.66813 0.1243 0.44856 0.0
C341 C 0.64939 0.14618 0.47493 0.0
C342 C 0.60305 0.1204 0.47066 0.0
C343 C 0.63286 0.0864 0.42657 0.0
N344 N 0.59256 0.08252 0.44071 0.0
C345 C 0.74593 0.19542 0.54446 0.0
C346 C 0.76306 0.14219 0.61804 0.0
C347 C 0.76672 0.18238 0.63958 0.0
C348 C 0.75823 0.20925 0.6014 0.0
C349 C 0.75224 0.1305 0.56031 0.0
N350 N 0.74171 0.15579 0.52464 0.0
H351 H 0.74184 0.21792 0.51562 0.0
H352 H 0.75447 0.10207 0.54437 0.0
H353 H 0.66752 0.17842 0.49631 0.0
H354 H 0.63673 0.06172 0.40175 0.0
O355 O 0.74554 0.20167 0.4136 0.0
O356 O 0.72653 0.14109 0.35981 0.0
O357 O 0.71744 0.07791 0.45148 0.0
C358 C 0.73905 0.18382 0.36249 0.0
H359 H 0.88468 0.15531 0.4027 0.0
H360 H 0.57902 0.12832 0.49021 0.0
H361 H 0.76931 0.11998 0.64492 0.0
H362 H 0.76256 0.24165 0.6144 0.0
Co363 Co 0.59221 0.72988 0.44128 0.0
C364 C 0.63093 0.82808 0.4529 0.0
C365 C 0.67839 0.81249 0.41313 0.0
C366 C 0.69802 0.8589 0.41736 0.0
N367 N 0.63645 0.7934 0.43561 0.0
N368 N 0.66809 0.86864 0.44242 0.0
H369 H 0.59988 0.82355 0.47162 0.0
H370 H 0.69354 0.79409 0.39465 0.0
C371 C 0.64701 0.6871 0.48138 0.0
O372 O 0.61555 0.66172 0.5189 0.0
N373 N 0.54732 0.6659 0.4462 0.0
C374 C 0.50578 0.64642 0.47029 0.0
C375 C 0.48578 0.60013 0.46504 0.0
C376 C 0.55113 0.63116 0.42459 0.0
N377 N 0.51453 0.59052 0.43681 0.0
C378 C 0.55198 0.74194 0.54356 0.0
C379 C 0.62287 0.761 0.61703 0.0
C380 C 0.58583 0.76381 0.6386 0.0
C381 C 0.55014 0.75422 0.60049 0.0
C382 C 0.62405 0.75028 0.55933 0.0
N383 N 0.58807 0.73888 0.52368 0.0
H384 H 0.5252 0.73721 0.51471 0.0
H385 H 0.6551 0.7534 0.54334 0.0
H386 H 0.49064 0.66403 0.49062 0.0
H387 H 0.58053 0.63556 0.40125 0.0
O388 O 0.54679 0.74333 0.41239 0.0
O389 O 0.5893 0.72538 0.35869 0.0
O390 O 0.64284 0.71596 0.45078 0.0
C391 C 0.55875 0.73745 0.3613 0.0
H392 H 0.73183 0.88344 0.40326 0.0
H393 H 0.45326 0.57547 0.48272 0.0
H394 H 0.65156 0.76793 0.6438 0.0
H395 H 0.5216 0.75779 0.61345 0.0
C396 C 0.5442 0.04667 0.08689 0.0
C397 C 0.50109 0.04263 0.08563 0.0
H398 H 0.58251 0.01262 0.08514 0.0
C399 C 0.46263 0.99907 0.08698 0.0
H400 H 0.5745 0.07968 0.0866 0.0
C401 C 0.4672 0.96053 0.08672 0.0
C402 C 0.51031 0.96458 0.08519 0.0
H403 H 0.42889 0.99458 0.08558 0.0
H404 H 0.4369 0.92752 0.08629 0.0
C405 C 0.54878 0.00813 0.08673 0.0
C406 C 0.54328 0.54608 0.08527 0.0
C407 C 0.54868 0.50779 0.08405 0.0
H408 H 0.49711 0.5714 0.08475 0.0
C409 C 0.50976 0.46457 0.0857 0.0
H410 H 0.57238 0.57989 0.0836 0.0
C411 C 0.46651 0.4597 0.08578 0.0
C412 C 0.46111 0.49799 0.0841 0.0
H413 H 0.51269 0.43439 0.08554 0.0
H414 H 0.4374 0.42588 0.0845 0.0
C415 C 0.50003 0.54122 0.08526 0.0
C416 C 0.99742 0.54157 0.07823 0.0
C417 C 0.04117 0.54742 0.08309 0.0
H418 H 0.92627 0.49519 0.07346 0.0
C419 C 0.04546 0.50872 0.09028 0.0
H420 H 0.99248 0.57028 0.07235 0.0
C421 C 0.00728 0.46535 0.08978 0.0
C422 C 0.96371 0.45949 0.08244 0.0
H423 H 0.07837 0.51168 0.09519 0.0
H424 H 0.01227 0.43649 0.0929 0.0
C425 C 0.95925 0.49824 0.07816 0.0
C426 C 0.04659 0.53985 0.4268 0.0
C427 C 0.04258 0.49677 0.42856 0.0
H428 H 0.01252 0.57813 0.42792 0.0
C429 C 0.99903 0.45828 0.42743 0.0
H430 H 0.0796 0.57016 0.42692 0.0
C431 C 0.96047 0.46283 0.42743 0.0
C432 C 0.96449 0.50593 0.42846 0.0
H433 H 0.99457 0.42456 0.4292 0.0
H434 H 0.92747 0.43252 0.42804 0.0
C435 C 0.00804 0.5444 0.42671 0.0
C436 C 0.50913 0.04812 0.43753 0.0
C437 C 0.54788 0.04368 0.43303 0.0
H438 H 0.43709 0.01488 0.44332 0.0
C439 C 0.54201 1.00014 0.42528 0.0
H440 H 0.51219 0.08108 0.44255 0.0
C441 C 0.49865 0.96197 0.42458 0.0
C442 C 0.45995 0.96623 0.43198 0.0
H443 H 0.57088 0.99516 0.42199 0.0
H444 H 0.49567 0.92908 0.41935 0.0
C445 C 0.4658 0.00996 0.43725 0.0
C446 C 0.46159 0.46409 0.42802 0.0
C447 C 0.49987 0.45869 0.4299 0.0
H448 H 0.43626 0.51025 0.4278 0.0
C449 C 0.54311 0.49761 0.42864 0.0
H450 H 0.42776 0.43499 0.42937 0.0
C451 C 0.54796 0.54086 0.42833 0.0
C452 C 0.50966 0.54624 0.42937 0.0
H453 H 0.57329 0.49469 0.4293 0.0
H454 H 0.58177 0.56997 0.42994 0.0
C455 C 0.46645 0.50732 0.42779 0.0
C456 C 0.29131 0.99487 0.08446 0.0
C457 C 0.32346 1.00107 0.04215 0.0
H458 H 0.23021 0.94882 0.12792 0.0
C459 C 0.31667 0.96364 0.00924 0.0
H460 H 0.29548 0.02283 0.11092 0.0
C461 C 0.27869 0.92089 0.01882 0.0
C462 C 0.24678 0.91466 0.06164 0.0
H463 H 0.34074 0.96725 0.97626 0.0
H464 H 0.27427 0.89284 0.99242 0.0
C465 C 0.25355 0.95229 0.09409 0.0
C466 C 0.30409 0.25 0.09274 0.0
C467 C 0.33589 0.24394 0.06133 0.0
H468 H 0.27428 0.2911 0.10833 0.0
C469 C 0.36196 0.2762 0.01902 0.0
H470 H 0.28384 0.22634 0.12612 0.0
C471 C 0.35669 0.31384 0.00898 0.0
C472 C 0.32516 0.31998 0.0409 0.0
H473 H 0.38632 0.27236 0.99337 0.0
H474 H 0.37752 0.3382 0.97646 0.0
C475 C 0.29877 0.28744 0.08265 0.0
C476 C 0.01397 0.29719 0.08338 0.0
C477 C 0.00776 0.32356 0.04171 0.0
H478 H 0.0601 0.28187 0.12613 0.0
C479 C 0.04532 0.35477 0.00929 0.0
H480 H 0.98591 0.27295 0.10945 0.0
C481 C 0.08815 0.35968 0.01871 0.0
C482 C 0.09439 0.33356 0.06086 0.0
H483 H 0.04176 0.37558 0.9768 0.0
H484 H 0.11625 0.38377 0.99266 0.0
C485 C 0.05665 0.30213 0.09283 0.0
C486 C 0.73235 0.08672 0.01883 0.0
C487 C 0.7645 0.09267 0.06109 0.0
H488 H 0.67025 0.04065 0.97643 0.0
C489 C 0.75818 0.0547 0.09247 0.0
H490 H 0.7364 0.11501 0.99316 0.0
C491 C 0.72053 0.01209 0.08247 0.0
C492 C 0.68808 0.00621 0.04084 0.0
H493 H 0.78178 0.05793 0.12577 0.0
H494 H 0.71665 0.98384 0.10816 0.0
C495 C 0.69452 0.04398 0.00889 0.0
C496 C 0.64829 0.73017 0.01697 0.0
C497 C 0.6745 0.76247 0.05905 0.0
H498 H 0.63231 0.66792 0.97496 0.0
C499 C 0.70608 0.75621 0.09062 0.0
H500 H 0.62409 0.73417 0.99123 0.0
C501 C 0.71105 0.71854 0.08091 0.0
C502 C 0.68454 0.68598 0.0394 0.0
H503 H 0.72641 0.77988 0.12384 0.0
H504 H 0.7354 0.71476 0.1067 0.0
C505 C 0.65322 0.6923 0.00731 0.0
C506 C 0.92283 0.65207 0.0128 0.0
C507 C 0.91577 0.6762 0.05693 0.0
H508 H 0.97035 0.63907 0.9683 0.0
C509 C 0.95317 0.70724 0.08958 0.0
H510 H 0.89495 0.62833 0.98626 0.0
C511 C 0.99628 0.7136 0.07903 0.0
C512 C 1.00333 0.68912 0.03548 0.0
H513 H 0.9491 0.72602 0.12432 0.0
H514 H 0.02403 0.73744 0.10572 0.0
C515 C 0.96615 0.65848 1.00216 0.0
C516 C 0.08646 0.72824 0.49582 0.0
C517 C 0.09268 0.76033 0.45325 0.0
H518 H 0.04011 0.66601 0.53803 0.0
C519 C 0.05507 0.75362 0.42081 0.0
H520 H 0.1145 0.73258 0.52219 0.0
C521 C 0.0125 0.7158 0.43026 0.0
C522 C 0.00629 0.6835 0.47237 0.0
H523 H 0.05853 0.77708 0.38715 0.0
H524 H 0.98455 0.71169 0.40383 0.0
C525 C 0.04372 0.69019 0.50522 0.0
C526 C 0.3553 0.0846 0.5019 0.0
C527 C 0.33121 0.09163 0.45767 0.0
H528 H 0.36823 0.0371 0.54658 0.0
C529 C 0.30019 0.05422 0.42504 0.0
H530 H 0.37902 0.11249 0.52842 0.0
C531 C 0.2938 0.01111 0.43571 0.0
C532 C 0.31823 0.00408 0.47935 0.0
H533 H 0.28145 0.05827 0.39023 0.0
H534 H 0.26998 0.98334 0.40903 0.0
C535 C 0.34886 0.04128 0.51265 0.0
C536 C 0.27741 0.35931 0.49652 0.0
C537 C 0.24511 0.333 0.45449 0.0
H538 H 0.33966 0.37539 0.53863 0.0
C539 C 0.25137 0.30135 0.42311 0.0
H540 H 0.27341 0.38358 0.52213 0.0
C541 C 0.28904 0.2964 0.43296 0.0
C542 C 0.3216 0.323 0.47443 0.0
H543 H 0.2277 0.28094 0.38993 0.0
H544 H 0.29283 0.27199 0.40731 0.0
C545 C 0.31528 0.35441 0.50632 0.0
C546 C 0.99522 0.28669 0.43156 0.0
C547 C 1.0013 0.31918 0.47323 0.0
H548 H 0.94916 0.22539 0.38854 0.0
C549 C 0.96369 0.31275 0.50554 0.0
H550 H 0.02334 0.29056 0.40561 0.0
C551 C 0.92091 0.27491 0.49592 0.0
C552 C 0.91475 0.24271 0.45363 0.0
H553 H 0.96718 0.33705 0.53805 0.0
H554 H 0.89275 0.27086 0.52186 0.0
C555 C 0.95256 0.24902 0.42188 0.0
C556 C 0.65244 0.96172 0.50549 0.0
C557 C 0.68378 0.99944 0.47339 0.0
H558 H 0.62337 0.89072 0.5216 0.0
C559 C 0.71031 0.99342 0.43178 0.0
H560 H 0.63151 0.96514 0.53792 0.0
C561 C 0.7054 0.95079 0.42206 0.0
C562 C 0.67385 0.9129 0.45369 0.0
H563 H 0.73465 0.0216 0.40595 0.0
H564 H 0.72579 0.9475 0.3888 0.0
C565 C 0.64757 0.91895 0.4958 0.0
C566 C 0.72017 0.70869 0.4315 0.0
C567 C 0.68753 0.68229 0.47313 0.0
H568 H 0.78135 0.72362 0.38826 0.0
C569 C 0.69358 0.65071 0.50511 0.0
H570 H 0.71658 0.73322 0.40579 0.0
C571 C 0.73122 0.64543 0.49523 0.0
C572 C 0.76358 0.67151 0.45302 0.0
H573 H 0.66914 0.62987 0.53755 0.0
H574 H 0.73498 0.62103 0.52091 0.0
C575 C 0.75762 0.70336 0.42157 0.0
C576 C 0.46587 0.2745 0.25788 0.0
C577 C 0.46421 0.25363 0.31068 0.0
H578 H 0.46534 0.26943 0.16592 0.0
C579 C 0.46729 0.21409 0.31119 0.0
H580 H 0.46331 0.30491 0.25656 0.0
C581 C 0.46721 0.19318 0.25942 0.0
C582 C 0.46552 0.21233 0.2066 0.0
H583 H 0.46551 0.1971 0.35138 0.0
H584 H 0.4656 0.16063 0.26072 0.0
C585 C 0.46725 0.25433 0.20612 0.0
C586 C 0.27616 0.46385 0.25761 0.0
C587 C 0.25551 0.46222 0.20469 0.0
H588 H 0.27048 0.46266 0.34957 0.0
C589 C 0.21549 0.46445 0.20405 0.0
H590 H 0.30689 0.46186 0.25906 0.0
C591 C 0.19403 0.4636 0.25574 0.0
C592 C 0.21307 0.462 0.30866 0.0
H593 H 0.19862 0.4626 0.16379 0.0
H594 H 0.16123 0.46142 0.25429 0.0
C595 C 0.25543 0.46448 0.3093 0.0
C596 C 0.75333 0.21398 0.20526 0.0
C597 C 0.79565 0.2539 0.20577 0.0
H598 H 0.70201 0.15986 0.25564 0.0
C599 C 0.81472 0.27458 0.25864 0.0
H600 H 0.73825 0.19709 0.16504 0.0
C601 C 0.79336 0.25394 0.31039 0.0
C602 C 0.75341 0.21165 0.30988 0.0
H603 H 0.84748 0.30525 0.26 0.0
H604 H 0.81028 0.269 0.3506 0.0
C605 C 0.7327 0.19261 0.25701 0.0
C606 C 0.54317 0.752 0.20411 0.0
C607 C 0.54545 0.79426 0.20474 0.0
H608 H 0.54601 0.70065 0.25435 0.0
C609 C 0.54375 0.81324 0.25766 0.0
H610 H 0.54508 0.73701 0.16384 0.0
C611 C 0.54297 0.7918 0.30936 0.0
C612 C 0.54538 0.75189 0.30872 0.0
H613 H 0.54577 0.84597 0.25911 0.0
H614 H 0.54472 0.80863 0.34962 0.0
C615 C 0.54387 0.7313 0.2558 0.0
C616 C 0.75302 0.54034 0.30837 0.0
C617 C 0.79493 0.54186 0.30789 0.0
H618 H 0.70255 0.54451 0.25795 0.0
C619 C 0.81401 0.54007 0.25506 0.0
H620 H 0.73799 0.54233 0.34859 0.0
C621 C 0.79312 0.54007 0.20329 0.0
C622 C 0.75369 0.54334 0.20381 0.0
H623 H 0.84649 0.54153 0.25376 0.0
H624 H 0.81007 0.54176 0.1631 0.0
C625 C 0.73288 0.54179 0.25661 0.0
C626 C 0.19362 0.7316 0.25805 0.0
C627 C 0.213 0.75256 0.2053 0.0
H628 H 0.19746 0.73668 0.35011 0.0
C629 C 0.25532 0.79247 0.20518 0.0
H630 H 0.16082 0.70096 0.25916 0.0
C631 C 0.27564 0.81352 0.25715 0.0
C632 C 0.25461 0.79421 0.3099 0.0
H633 H 0.27063 0.80961 0.1651 0.0
H634 H 0.30632 0.84629 0.25604 0.0
C635 C 0.21466 0.75193 0.31003 0.0
C636 C 0.54468 0.76545 0.72873 0.0
C637 C 0.58559 0.77882 0.69921 0.0
H638 H 0.51236 0.77029 0.8049 0.0
C639 C 0.62645 0.80722 0.72814 0.0
H640 H 0.51233 0.74309 0.7089 0.0
C641 C 0.62648 0.82087 0.78478 0.0
C642 C 0.58565 0.80818 0.81405 0.0
H643 H 0.65889 0.81958 0.70724 0.0
H644 H 0.65895 0.84113 0.80543 0.0
C645 C 0.54471 0.78044 0.78483 0.0
C646 C 0.82111 0.62384 0.72679 0.0
C647 C 0.80839 0.58282 0.6981 0.0
H648 H 0.82026 0.65671 0.80401 0.0
C649 C 0.78085 0.54205 0.72787 0.0
H650 H 0.84117 0.65618 0.70565 0.0
C651 C 0.76618 0.54237 0.78406 0.0
C652 C 0.77973 0.58346 0.81308 0.0
H653 H 0.77066 0.5096 0.7082 0.0
H654 H 0.74397 0.51013 0.80438 0.0
C655 C 0.80782 0.62415 0.78352 0.0
C656 C 0.21464 0.76449 0.71873 0.0
C657 C 0.22905 0.80934 0.70132 0.0
H658 H 0.18949 0.71574 0.78743 0.0
C659 C 0.22907 0.83966 0.74254 0.0
H660 H 0.21314 0.73972 0.68838 0.0
C661 C 0.21427 0.82537 0.79888 0.0
C662 C 0.19988 0.78066 0.81587 0.0
H663 H 0.24082 0.87467 0.73157 0.0
H664 H 0.21464 0.84952 0.82949 0.0
C665 C 0.20067 0.7505 0.77546 0.0
C666 C 0.38339 0.18648 0.78775 0.0
C667 C 0.42438 0.19899 0.8164 0.0
H668 H 0.35057 0.1875 0.71055 0.0
C669 C 0.46517 0.22633 0.78658 0.0
H670 H 0.35105 0.16657 0.80893 0.0
C671 C 0.46492 0.24102 0.73038 0.0
C672 C 0.42385 0.22767 0.70139 0.0
H673 H 0.4976 0.23635 0.80623 0.0
H674 H 0.49718 0.26308 0.71003 0.0
C675 C 0.38312 0.19978 0.731 0.0
C676 C 0.20041 0.38077 0.78515 0.0
C677 C 0.22855 0.42164 0.81421 0.0
H678 H 0.16676 0.34828 0.70773 0.0
C679 C 0.24174 0.46255 0.78478 0.0
H680 H 0.1882 0.34833 0.80597 0.0
C681 C 0.2268 0.46251 0.72864 0.0
C682 C 0.1993 0.42157 0.6993 0.0
H683 H 0.26392 0.49491 0.80469 0.0
H684 H 0.23678 0.49484 0.70865 0.0
C685 C 0.18682 0.38074 0.72847 0.0
C686 C 0.78253 0.23936 0.7859 0.0
C687 C 0.80992 0.22584 0.81538 0.0
H688 H 0.74581 0.23495 0.70956 0.0
C689 C 0.82264 0.19766 0.78633 0.0
H690 H 0.77241 0.26159 0.80589 0.0
C691 C 0.80927 0.18427 0.72956 0.0
C692 C 0.7813 0.19716 0.70034 0.0
H693 H 0.8427 0.18531 0.80728 0.0
H694 H 0.82151 0.16406 0.70875 0.0
C695 C 0.76791 0.22471 0.72967 0.0
loop_
_geom_bond_atom_site_label_1
_geom_bond_atom_site_label_2
_geom_bond_distance
_geom_bond_site_symmetry_2
_ccdc_geom_bond_type
Co0 N4 2.148 . S
Co0 N10 2.128 . S
Co0 N20 2.194 1_554 S
Co0 O25 2.351 . S
Co0 O26 2.155 . S
Co0 O27 2.096 . S
C1 N4 1.301 . S
C1 N5 1.328 . S
C1 H6 0.930 . S
C2 C3 1.333 . S
C2 N4 1.317 . S
C2 H7 0.930 . S
C3 C2 1.333 . S
C3 N5 1.350 . S
C3 H29 0.931 . S
N4 Co0 2.148 . S
N4 C1 1.301 . S
N4 C2 1.317 . S
N5 C1 1.328 . S
N5 C3 1.350 . S
H6 C1 0.930 . S
H7 C2 0.930 . S
C8 O9 1.224 1_554 S
C8 O27 1.247 . S
O9 C8 1.224 1_556 S
N10 Co0 2.128 . S
N10 C11 1.355 . S
N10 C13 1.311 . S
C11 N10 1.355 . S
C11 C12 1.363 . S
C11 H23 0.929 . S
C12 C11 1.363 . S
C12 N14 1.375 . S
C12 H30 0.931 . S
C13 N10 1.311 . S
C13 N14 1.347 . S
C13 H24 0.929 . S
N14 C12 1.375 . S
N14 C13 1.347 . S
C15 C18 1.365 . S
C15 N20 1.328 . S
C15 H21 0.929 1_556 S
C16 C17 1.362 . S
C16 C19 1.378 . S
C16 H31 0.929 . S
C17 C16 1.362 . S
C17 C18 1.366 . S
C18 C15 1.365 . S
C18 C17 1.366 . S
C18 H32 0.930 . S
C19 C16 1.378 . S
C19 N20 1.315 . S
C19 H22 0.930 . S
N20 Co0 2.194 1_556 S
N20 C15 1.328 . S
N20 C19 1.315 . S
H21 C15 0.929 1_554 S
H22 C19 0.930 . S
H23 C11 0.929 . S
H24 C13 0.929 . S
O25 Co0 2.351 . S
O25 C28 1.244 . S
O26 Co0 2.155 . S
O26 C28 1.240 . S
O27 Co0 2.096 . S
O27 C8 1.247 . S
C28 O25 1.244 . S
C28 O26 1.240 . S
H29 C3 0.931 . S
H30 C12 0.931 . S
H31 C16 0.929 . S
H32 C18 0.930 . S
Co33 N37 2.148 . S
Co33 N43 2.128 . S
Co33 N53 2.194 1_554 S
Co33 O58 2.351 . S
Co33 O59 2.155 . S
Co33 O60 2.096 . S
C34 N37 1.301 . S
C34 N38 1.328 . S
C34 H39 0.930 . S
C35 C36 1.333 . S
C35 N37 1.317 . S
C35 H40 0.930 . S
C36 C35 1.333 . S
C36 N38 1.350 . S
C36 H62 0.931 . S
N37 Co33 2.148 . S
N37 C34 1.301 . S
N37 C35 1.317 . S
N38 C34 1.328 . S
N38 C36 1.350 . S
H39 C34 0.930 . S
H40 C35 0.930 . S
C41 O42 1.224 1_554 S
C41 O60 1.247 . S
O42 C41 1.224 1_556 S
N43 Co33 2.128 . S
N43 C44 1.355 . S
N43 C46 1.311 . S
C44 N43 1.355 . S
C44 C45 1.363 . S
C44 H56 0.929 . S
C45 C44 1.363 . S
C45 N47 1.375 . S
C45 H63 0.931 . S
C46 N43 1.311 . S
C46 N47 1.347 . S
C46 H57 0.929 . S
N47 C45 1.375 . S
N47 C46 1.347 . S
C48 C51 1.365 . S
C48 N53 1.328 . S
C48 H54 0.929 1_556 S
C49 C50 1.362 . S
C49 C52 1.378 . S
C49 H64 0.929 . S
C50 C49 1.362 . S
C50 C51 1.366 . S
C51 C48 1.365 . S
C51 C50 1.366 . S
C51 H65 0.930 . S
C52 C49 1.378 . S
C52 N53 1.315 . S
C52 H55 0.930 . S
N53 Co33 2.194 1_556 S
N53 C48 1.328 . S
N53 C52 1.315 . S
H54 C48 0.929 1_554 S
H55 C52 0.930 . S
H56 C44 0.929 . S
H57 C46 0.929 . S
O58 Co33 2.351 . S
O58 C61 1.244 . S
O59 Co33 2.155 . S
O59 C61 1.240 . S
O60 Co33 2.096 . S
O60 C41 1.247 . S
C61 O58 1.244 . S
C61 O59 1.240 . S
H62 C36 0.931 . S
H63 C45 0.931 . S
H64 C49 0.929 . S
H65 C51 0.930 . S
Co66 N70 2.148 . S
Co66 N76 2.128 . S
Co66 N86 2.194 1_554 S
Co66 O91 2.351 . S
Co66 O92 2.155 . S
Co66 O93 2.096 . S
C67 N70 1.301 . S
C67 N71 1.328 . S
C67 H72 0.930 . S
C68 C69 1.333 . S
C68 N70 1.317 . S
C68 H73 0.930 . S
C69 C68 1.333 . S
C69 N71 1.350 . S
C69 H95 0.931 . S
N70 Co66 2.148 . S
N70 C67 1.301 . S
N70 C68 1.317 . S
N71 C67 1.328 . S
N71 C69 1.350 . S
H72 C67 0.930 . S
H73 C68 0.930 . S
C74 O75 1.224 1_554 S
C74 O93 1.247 . S
O75 C74 1.224 1_556 S
N76 Co66 2.128 . S
N76 C77 1.355 . S
N76 C79 1.311 . S
C77 N76 1.355 . S
C77 C78 1.363 . S
C77 H89 0.929 . S
C78 C77 1.363 . S
C78 N80 1.375 . S
C78 H96 0.931 . S
C79 N76 1.311 . S
C79 N80 1.347 . S
C79 H90 0.929 . S
N80 C78 1.375 . S
N80 C79 1.347 . S
C81 C84 1.365 . S
C81 N86 1.328 . S
C81 H87 0.929 1_556 S
C82 C83 1.362 . S
C82 C85 1.378 . S
C82 H97 0.929 . S
C83 C82 1.362 . S
C83 C84 1.366 . S
C84 C81 1.365 . S
C84 C83 1.366 . S
C84 H98 0.930 . S
C85 C82 1.378 . S
C85 N86 1.315 . S
C85 H88 0.930 . S
N86 Co66 2.194 1_556 S
N86 C81 1.328 . S
N86 C85 1.315 . S
H87 C81 0.929 1_554 S
H88 C85 0.930 . S
H89 C77 0.929 . S
H90 C79 0.929 . S
O91 Co66 2.351 . S
O91 C94 1.244 . S
O92 Co66 2.155 . S
O92 C94 1.240 . S
O93 Co66 2.096 . S
O93 C74 1.247 . S
C94 O91 1.244 . S
C94 O92 1.240 . S
H95 C69 0.931 . S
H96 C78 0.931 . S
H97 C82 0.929 . S
H98 C84 0.930 . S
Co99 N103 2.148 . S
Co99 N109 2.128 . S
Co99 N119 2.194 1_554 S
Co99 O124 2.351 . S
Co99 O125 2.155 . S
Co99 O126 2.096 . S
C100 N103 1.301 . S
C100 N104 1.328 . S
C100 H105 0.930 . S
C101 C102 1.333 . S
C101 N103 1.317 . S
C101 H106 0.930 . S
C102 C101 1.333 . S
C102 N104 1.350 . S
C102 H128 0.931 . S
N103 Co99 2.148 . S
N103 C100 1.301 . S
N103 C101 1.317 . S
N104 C100 1.328 . S
N104 C102 1.350 . S
H105 C100 0.930 . S
H106 C101 0.930 . S
C107 O108 1.224 1_554 S
C107 O126 1.247 . S
O108 C107 1.224 1_556 S
N109 Co99 2.128 . S
N109 C110 1.355 . S
N109 C112 1.311 . S
C110 N109 1.355 . S
C110 C111 1.363 . S
C110 H122 0.929 . S
C111 C110 1.363 . S
C111 N113 1.375 . S
C111 H129 0.931 . S
C112 N109 1.311 . S
C112 N113 1.347 . S
C112 H123 0.929 . S
N113 C111 1.375 . S
N113 C112 1.347 . S
C114 C117 1.365 . S
C114 N119 1.328 . S
C114 H120 0.929 1_556 S
C115 C116 1.362 . S
C115 C118 1.378 . S
C115 H130 0.929 . S
C116 C115 1.362 . S
C116 C117 1.366 . S
C117 C114 1.365 . S
C117 C116 1.366 . S
C117 H131 0.930 . S
C118 C115 1.378 . S
C118 N119 1.315 . S
C118 H121 0.930 . S
N119 Co99 2.194 1_556 S
N119 C114 1.328 . S
N119 C118 1.315 . S
H120 C114 0.929 1_554 S
H121 C118 0.930 . S
H122 C110 0.929 . S
H123 C112 0.929 . S
O124 Co99 2.351 . S
O124 C127 1.244 . S
O125 Co99 2.155 . S
O125 C127 1.240 . S
O126 Co99 2.096 . S
O126 C107 1.247 . S
C127 O124 1.244 . S
C127 O125 1.240 . S
H128 C102 0.931 . S
H129 C111 0.931 . S
H130 C115 0.929 . S
H131 C117 0.930 . S
Co132 N136 2.148 . S
Co132 N142 2.128 . S
Co132 N152 2.194 1_554 S
Co132 O157 2.351 . S
Co132 O158 2.155 . S
Co132 O159 2.096 . S
C133 N136 1.301 . S
C133 N137 1.328 . S
C133 H138 0.930 . S
C134 C135 1.333 . S
C134 N136 1.317 . S
C134 H139 0.930 . S
C135 C134 1.333 . S
C135 N137 1.350 . S
C135 H161 0.931 . S
N136 Co132 2.148 . S
N136 C133 1.301 . S
N136 C134 1.317 . S
N137 C133 1.328 . S
N137 C135 1.350 . S
H138 C133 0.930 . S
H139 C134 0.930 . S
C140 O141 1.224 1_554 S
C140 O159 1.247 . S
O141 C140 1.224 1_556 S
N142 Co132 2.128 . S
N142 C143 1.355 . S
N142 C145 1.311 . S
C143 N142 1.355 . S
C143 C144 1.363 . S
C143 H155 0.929 . S
C144 C143 1.363 . S
C144 N146 1.375 . S
C144 H162 0.931 . S
C145 N142 1.311 . S
C145 N146 1.347 . S
C145 H156 0.929 . S
N146 C144 1.375 . S
N146 C145 1.347 . S
C147 C150 1.365 . S
C147 N152 1.328 . S
C147 H153 0.929 1_556 S
C148 C149 1.362 . S
C148 C151 1.378 . S
C148 H163 0.929 . S
C149 C148 1.362 . S
C149 C150 1.366 . S
C150 C147 1.365 . S
C150 C149 1.366 . S
C150 H164 0.930 . S
C151 C148 1.378 . S
C151 N152 1.315 . S
C151 H154 0.930 . S
N152 Co132 2.194 1_556 S
N152 C147 1.328 . S
N152 C151 1.315 . S
H153 C147 0.929 1_554 S
H154 C151 0.930 . S
H155 C143 0.929 . S
H156 C145 0.929 . S
O157 Co132 2.351 . S
O157 C160 1.244 . S
O158 Co132 2.155 . S
O158 C160 1.240 . S
O159 Co132 2.096 . S
O159 C140 1.247 . S
C160 O157 1.244 . S
C160 O158 1.240 . S
H161 C135 0.931 . S
H162 C144 0.931 . S
H163 C148 0.929 . S
H164 C150 0.930 . S
Co165 N169 2.148 . S
Co165 N175 2.128 . S
Co165 N185 2.194 1_554 S
Co165 O190 2.351 . S
Co165 O191 2.155 . S
Co165 O192 2.096 . S
C166 N169 1.301 . S
C166 N170 1.328 . S
C166 H171 0.930 . S
C167 C168 1.333 . S
C167 N169 1.317 . S
C167 H172 0.930 . S
C168 C167 1.333 . S
C168 N170 1.350 . S
C168 H194 0.931 . S
N169 Co165 2.148 . S
N169 C166 1.301 . S
N169 C167 1.317 . S
N170 C166 1.328 . S
N170 C168 1.350 . S
H171 C166 0.930 . S
H172 C167 0.930 . S
C173 O174 1.224 1_554 S
C173 O192 1.247 . S
O174 C173 1.224 1_556 S
N175 Co165 2.128 . S
N175 C176 1.355 . S
N175 C178 1.311 . S
C176 N175 1.355 . S
C176 C177 1.363 . S
C176 H188 0.929 . S
C177 C176 1.363 . S
C177 N179 1.375 . S
C177 H195 0.931 . S
C178 N175 1.311 . S
C178 N179 1.347 . S
C178 H189 0.929 . S
N179 C177 1.375 . S
N179 C178 1.347 . S
C180 C183 1.365 . S
C180 N185 1.328 . S
C180 H186 0.929 1_556 S
C181 C182 1.362 . S
C181 C184 1.378 . S
C181 H196 0.929 . S
C182 C181 1.362 . S
C182 C183 1.366 . S
C183 C180 1.365 . S
C183 C182 1.366 . S
C183 H197 0.930 . S
C184 C181 1.378 . S
C184 N185 1.315 . S
C184 H187 0.930 . S
N185 Co165 2.194 1_556 S
N185 C180 1.328 . S
N185 C184 1.315 . S
H186 C180 0.929 1_554 S
H187 C184 0.930 . S
H188 C176 0.929 . S
H189 C178 0.929 . S
O190 Co165 2.351 . S
O190 C193 1.244 . S
O191 Co165 2.155 . S
O191 C193 1.240 . S
O192 Co165 2.096 . S
O192 C173 1.247 . S
C193 O190 1.244 . S
C193 O191 1.240 . S
H194 C168 0.931 . S
H195 C177 0.931 . S
H196 C181 0.929 . S
H197 C183 0.930 . S
Co198 N202 2.148 . S
Co198 N208 2.128 . S
Co198 N218 2.194 . S
Co198 O223 2.351 . S
Co198 O224 2.155 . S
Co198 O225 2.096 . S
C199 N202 1.301 . S
C199 N203 1.328 . S
C199 H204 0.930 . S
C200 C201 1.333 . S
C200 N202 1.317 . S
C200 H205 0.930 . S
C201 C200 1.333 . S
C201 N203 1.350 . S
C201 H227 0.931 . S
N202 Co198 2.148 . S
N202 C199 1.301 . S
N202 C200 1.317 . S
N203 C199 1.328 . S
N203 C201 1.350 . S
H204 C199 0.930 . S
H205 C200 0.930 . S
C206 O207 1.224 . S
C206 O225 1.247 . S
O207 C206 1.224 . S
N208 Co198 2.128 . S
N208 C209 1.355 . S
N208 C211 1.311 . S
C209 N208 1.355 . S
C209 C210 1.363 . S
C209 H221 0.929 . S
C210 C209 1.363 . S
C210 N212 1.375 . S
C210 H228 0.931 . S
C211 N208 1.311 . S
C211 N212 1.347 . S
C211 H222 0.929 . S
N212 C210 1.375 . S
N212 C211 1.347 . S
C213 C216 1.365 . S
C213 N218 1.328 . S
C213 H219 0.929 . S
C214 C215 1.362 . S
C214 C217 1.378 . S
C214 H229 0.929 . S
C215 C214 1.362 . S
C215 C216 1.366 . S
C216 C213 1.365 . S
C216 C215 1.366 . S
C216 H230 0.930 . S
C217 C214 1.378 . S
C217 N218 1.315 . S
C217 H220 0.930 . S
N218 Co198 2.194 . S
N218 C213 1.328 . S
N218 C217 1.315 . S
H219 C213 0.929 . S
H220 C217 0.930 . S
H221 C209 0.929 . S
H222 C211 0.929 . S
O223 Co198 2.351 . S
O223 C226 1.244 . S
O224 Co198 2.155 . S
O224 C226 1.240 . S
O225 Co198 2.096 . S
O225 C206 1.247 . S
C226 O223 1.244 . S
C226 O224 1.240 . S
H227 C201 0.931 . S
H228 C210 0.931 . S
H229 C214 0.929 . S
H230 C216 0.930 . S
Co231 N235 2.148 . S
Co231 N241 2.128 . S
Co231 N251 2.194 . S
Co231 O256 2.351 . S
Co231 O257 2.155 . S
Co231 O258 2.096 . S
C232 N235 1.301 . S
C232 N236 1.328 . S
C232 H237 0.930 . S
C233 C234 1.333 . S
C233 N235 1.317 . S
C233 H238 0.930 . S
C234 C233 1.333 . S
C234 N236 1.350 . S
C234 H260 0.931 . S
N235 Co231 2.148 . S
N235 C232 1.301 . S
N235 C233 1.317 . S
N236 C232 1.328 . S
N236 C234 1.350 . S
H237 C232 0.930 . S
H238 C233 0.930 . S
C239 O240 1.224 . S
C239 O258 1.247 . S
O240 C239 1.224 . S
N241 Co231 2.128 . S
N241 C242 1.355 . S
N241 C244 1.311 . S
C242 N241 1.355 . S
C242 C243 1.363 . S
C242 H254 0.929 . S
C243 C242 1.363 . S
C243 N245 1.375 . S
C243 H261 0.931 . S
C244 N241 1.311 . S
C244 N245 1.347 . S
C244 H255 0.929 . S
N245 C243 1.375 . S
N245 C244 1.347 . S
C246 C249 1.365 . S
C246 N251 1.328 . S
C246 H252 0.929 . S
C247 C248 1.362 . S
C247 C250 1.378 . S
C247 H262 0.929 . S
C248 C247 1.362 . S
C248 C249 1.366 . S
C249 C246 1.365 . S
C249 C248 1.366 . S
C249 H263 0.930 . S
C250 C247 1.378 . S
C250 N251 1.315 . S
C250 H253 0.930 . S
N251 Co231 2.194 . S
N251 C246 1.328 . S
N251 C250 1.315 . S
H252 C246 0.929 . S
H253 C250 0.930 . S
H254 C242 0.929 . S
H255 C244 0.929 . S
O256 Co231 2.351 . S
O256 C259 1.244 . S
O257 Co231 2.155 . S
O257 C259 1.240 . S
O258 Co231 2.096 . S
O258 C239 1.247 . S
C259 O256 1.244 . S
C259 O257 1.240 . S
H260 C234 0.931 . S
H261 C243 0.931 . S
H262 C247 0.929 . S
H263 C249 0.930 . S
Co264 N268 2.148 . S
Co264 N274 2.128 . S
Co264 N284 2.194 . S
Co264 O289 2.351 . S
Co264 O290 2.155 . S
Co264 O291 2.096 . S
C265 N268 1.301 . S
C265 N269 1.328 . S
C265 H270 0.930 . S
C266 C267 1.333 . S
C266 N268 1.317 . S
C266 H271 0.930 . S
C267 C266 1.333 . S
C267 N269 1.350 . S
C267 H293 0.931 . S
N268 Co264 2.148 . S
N268 C265 1.301 . S
N268 C266 1.317 . S
N269 C265 1.328 . S
N269 C267 1.350 . S
H270 C265 0.930 . S
H271 C266 0.930 . S
C272 O273 1.224 . S
C272 O291 1.247 . S
O273 C272 1.224 . S
N274 Co264 2.128 . S
N274 C275 1.355 . S
N274 C277 1.311 . S
C275 N274 1.355 . S
C275 C276 1.363 . S
C275 H287 0.929 . S
C276 C275 1.363 . S
C276 N278 1.375 . S
C276 H294 0.931 . S
C277 N274 1.311 . S
C277 N278 1.347 . S
C277 H288 0.929 . S
N278 C276 1.375 . S
N278 C277 1.347 . S
C279 C282 1.365 . S
C279 N284 1.328 . S
C279 H285 0.929 . S
C280 C281 1.362 . S
C280 C283 1.378 . S
C280 H295 0.929 . S
C281 C280 1.362 . S
C281 C282 1.366 . S
C282 C279 1.365 . S
C282 C281 1.366 . S
C282 H296 0.930 . S
C283 C280 1.378 . S
C283 N284 1.315 . S
C283 H286 0.930 . S
N284 Co264 2.194 . S
N284 C279 1.328 . S
N284 C283 1.315 . S
H285 C279 0.929 . S
H286 C283 0.930 . S
H287 C275 0.929 . S
H288 C277 0.929 . S
O289 Co264 2.351 . S
O289 C292 1.244 . S
O290 Co264 2.155 . S
O290 C292 1.240 . S
O291 Co264 2.096 . S
O291 C272 1.247 . S
C292 O289 1.244 . S
C292 O290 1.240 . S
H293 C267 0.931 . S
H294 C276 0.931 . S
H295 C280 0.929 . S
H296 C282 0.930 . S
Co297 N301 2.148 . S
Co297 N307 2.128 . S
Co297 N317 2.194 . S
Co297 O322 2.351 . S
Co297 O323 2.155 . S
Co297 O324 2.096 . S
C298 N301 1.301 . S
C298 N302 1.328 . S
C298 H303 0.930 . S
C299 C300 1.333 . S
C299 N301 1.317 . S
C299 H304 0.930 . S
C300 C299 1.333 . S
C300 N302 1.350 . S
C300 H326 0.931 . S
N301 Co297 2.148 . S
N301 C298 1.301 . S
N301 C299 1.317 . S
N302 C298 1.328 . S
N302 C300 1.350 . S
H303 C298 0.930 . S
H304 C299 0.930 . S
C305 O306 1.224 . S
C305 O324 1.247 . S
O306 C305 1.224 . S
N307 Co297 2.128 . S
N307 C308 1.355 . S
N307 C310 1.311 . S
C308 N307 1.355 . S
C308 C309 1.363 . S
C308 H320 0.929 . S
C309 C308 1.363 . S
C309 N311 1.375 . S
C309 H327 0.931 . S
C310 N307 1.311 . S
C310 N311 1.347 . S
C310 H321 0.929 . S
N311 C309 1.375 . S
N311 C310 1.347 . S
C312 C315 1.365 . S
C312 N317 1.328 . S
C312 H318 0.929 . S
C313 C314 1.362 . S
C313 C316 1.378 . S
C313 H328 0.929 . S
C314 C313 1.362 . S
C314 C315 1.366 . S
C315 C312 1.365 . S
C315 C314 1.366 . S
C315 H329 0.930 . S
C316 C313 1.378 . S
C316 N317 1.315 . S
C316 H319 0.930 . S
N317 Co297 2.194 . S
N317 C312 1.328 . S
N317 C316 1.315 . S
H318 C312 0.929 . S
H319 C316 0.930 . S
H320 C308 0.929 . S
H321 C310 0.929 . S
O322 Co297 2.351 . S
O322 C325 1.244 . S
O323 Co297 2.155 . S
O323 C325 1.240 . S
O324 Co297 2.096 . S
O324 C305 1.247 . S
C325 O322 1.244 . S
C325 O323 1.240 . S
H326 C300 0.931 . S
H327 C309 0.931 . S
H328 C313 0.929 . S
H329 C315 0.930 . S
Co330 N334 2.148 . S
Co330 N340 2.128 . S
Co330 N350 2.194 . S
Co330 O355 2.351 . S
Co330 O356 2.155 . S
Co330 O357 2.096 . S
C331 N334 1.301 . S
C331 N335 1.328 . S
C331 H336 0.930 . S
C332 C333 1.333 . S
C332 N334 1.317 . S
C332 H337 0.930 . S
C333 C332 1.333 . S
C333 N335 1.350 . S
C333 H359 0.931 . S
N334 Co330 2.148 . S
N334 C331 1.301 . S
N334 C332 1.317 . S
N335 C331 1.328 . S
N335 C333 1.350 . S
H336 C331 0.930 . S
H337 C332 0.930 . S
C338 O339 1.224 . S
C338 O357 1.247 . S
O339 C338 1.224 . S
N340 Co330 2.128 . S
N340 C341 1.355 . S
N340 C343 1.311 . S
C341 N340 1.355 . S
C341 C342 1.363 . S
C341 H353 0.929 . S
C342 C341 1.363 . S
C342 N344 1.375 . S
C342 H360 0.931 . S
C343 N340 1.311 . S
C343 N344 1.347 . S
C343 H354 0.929 . S
N344 C342 1.375 . S
N344 C343 1.347 . S
C345 C348 1.365 . S
C345 N350 1.328 . S
C345 H351 0.929 . S
C346 C347 1.362 . S
C346 C349 1.378 . S
C346 H361 0.929 . S
C347 C346 1.362 . S
C347 C348 1.366 . S
C348 C345 1.365 . S
C348 C347 1.366 . S
C348 H362 0.930 . S
C349 C346 1.378 . S
C349 N350 1.315 . S
C349 H352 0.930 . S
N350 Co330 2.194 . S
N350 C345 1.328 . S
N350 C349 1.315 . S
H351 C345 0.929 . S
H352 C349 0.930 . S
H353 C341 0.929 . S
H354 C343 0.929 . S
O355 Co330 2.351 . S
O355 C358 1.244 . S
O356 Co330 2.155 . S
O356 C358 1.240 . S
O357 Co330 2.096 . S
O357 C338 1.247 . S
C358 O355 1.244 . S
C358 O356 1.240 . S
H359 C333 0.931 . S
H360 C342 0.931 . S
H361 C346 0.929 . S
H362 C348 0.930 . S
Co363 N367 2.148 . S
Co363 N373 2.128 . S
Co363 N383 2.194 . S
Co363 O388 2.351 . S
Co363 O389 2.155 . S
Co363 O390 2.096 . S
C364 N367 1.301 . S
C364 N368 1.328 . S
C364 H369 0.930 . S
C365 C366 1.333 . S
C365 N367 1.317 . S
C365 H370 0.930 . S
C366 C365 1.333 . S
C366 N368 1.350 . S
C366 H392 0.931 . S
N367 Co363 2.148 . S
N367 C364 1.301 . S
N367 C365 1.317 . S
N368 C364 1.328 . S
N368 C366 1.350 . S
H369 C364 0.930 . S
H370 C365 0.930 . S
C371 O372 1.224 . S
C371 O390 1.247 . S
O372 C371 1.224 . S
N373 Co363 2.128 . S
N373 C374 1.355 . S
N373 C376 1.311 . S
C374 N373 1.355 . S
C374 C375 1.363 . S
C374 H386 0.929 . S
C375 C374 1.363 . S
C375 N377 1.375 . S
C375 H393 0.931 . S
C376 N373 1.311 . S
C376 N377 1.347 . S
C376 H387 0.929 . S
N377 C375 1.375 . S
N377 C376 1.347 . S
C378 C381 1.365 . S
C378 N383 1.328 . S
C378 H384 0.929 . S
C379 C380 1.362 . S
C379 C382 1.378 . S
C379 H394 0.929 . S
C380 C379 1.362 . S
C380 C381 1.366 . S
C381 C378 1.365 . S
C381 C380 1.366 . S
C381 H395 0.930 . S
C382 C379 1.378 . S
C382 N383 1.315 . S
C382 H385 0.930 . S
N383 Co363 2.194 . S
N383 C378 1.328 . S
N383 C382 1.315 . S
H384 C378 0.929 . S
H385 C382 0.930 . S
H386 C374 0.929 . S
H387 C376 0.929 . S
O388 Co363 2.351 . S
O388 C391 1.244 . S
O389 Co363 2.155 . S
O389 C391 1.240 . S
O390 Co363 2.096 . S
O390 C371 1.247 . S
C391 O388 1.244 . S
C391 O389 1.240 . S
H392 C366 0.931 . S
H393 C375 0.931 . S
H394 C379 0.929 . S
H395 C381 0.930 . S
C396 C397 1.387 . S
C396 H400 0.950 . S
C396 C405 1.390 1_545 S
C397 C396 1.387 . S
C397 C399 1.387 1_554 S
H398 C405 0.950 . S
C399 C397 1.387 1_556 S
C399 C401 1.390 1_545 S
C399 H403 0.950 . S
H400 C396 0.950 . S
C401 C399 1.390 1_565 S
C401 C402 1.387 1_556 S
C401 H404 0.950 . S
C402 C401 1.387 1_554 S
C402 C405 1.387 . S
H403 C399 0.950 . S
H404 C401 0.950 . S
C405 C396 1.390 1_565 S
C405 H398 0.950 . S
C405 C402 1.387 . S
C406 C407 1.387 1_556 S
C406 H410 0.950 . S
C406 C415 1.390 . S
C407 C406 1.387 1_554 S
C407 C409 1.387 . S
H408 C415 0.950 . S
C409 C407 1.387 . S
C409 C411 1.390 . S
C409 H413 0.950 . S
H410 C406 0.950 . S
C411 C409 1.390 . S
C411 C412 1.387 . S
C411 H414 0.950 . S
C412 C411 1.387 . S
C412 C415 1.387 1_554 S
H413 C409 0.950 . S
H414 C411 0.950 . S
C415 C406 1.390 . S
C415 H408 0.950 . S
C415 C412 1.387 1_556 S
C416 C417 1.387 . S
C416 H420 0.950 . S
C416 C425 1.390 1_455 S
C417 C416 1.387 . S
C417 C419 1.387 1_554 S
H418 C425 0.950 . S
C419 C417 1.387 1_556 S
C419 C421 1.390 1_455 S
C419 H423 0.950 . S
H420 C416 0.950 . S
C421 C419 1.390 1_655 S
C421 C422 1.387 1_556 S
C421 H424 0.950 . S
C422 C421 1.387 1_554 S
C422 C425 1.387 . S
H423 C419 0.950 . S
H424 C421 0.950 . S
C425 C416 1.390 1_655 S
C425 H418 0.950 . S
C425 C422 1.387 . S
C426 C427 1.387 . S
C426 H430 0.950 . S
C426 C435 1.390 1_455 S
C427 C426 1.387 . S
C427 C429 1.387 . S
H428 C435 0.950 . S
C429 C427 1.387 . S
C429 C431 1.390 1_455 S
C429 H433 0.950 . S
H430 C426 0.950 . S
C431 C429 1.390 1_655 S
C431 C432 1.387 . S
C431 H434 0.950 . S
C432 C431 1.387 . S
C432 C435 1.387 . S
H433 C429 0.950 . S
H434 C431 0.950 . S
C435 C426 1.390 1_655 S
C435 H428 0.950 . S
C435 C432 1.387 . S
C436 C437 1.387 . S
C436 H440 0.950 . S
C436 C445 1.390 1_545 S
C437 C436 1.387 . S
C437 C439 1.387 . S
H438 C445 0.950 . S
C439 C437 1.387 . S
C439 C441 1.390 1_545 S
C439 H443 0.950 . S
H440 C436 0.950 . S
C441 C439 1.390 1_565 S
C441 C442 1.387 . S
C441 H444 0.950 . S
C442 C441 1.387 . S
C442 C445 1.387 . S
H443 C439 0.950 . S
H444 C441 0.950 . S
C445 C436 1.390 1_565 S
C445 H438 0.950 . S
C445 C442 1.387 . S
C446 C447 1.387 . S
C446 H450 0.950 . S
C446 C455 1.390 . S
C447 C446 1.387 . S
C447 C449 1.387 . S
H448 C455 0.950 . S
C449 C447 1.387 . S
C449 C451 1.390 . S
C449 H453 0.950 . S
H450 C446 0.950 . S
C451 C449 1.390 . S
C451 C452 1.387 . S
C451 H454 0.950 . S
C452 C451 1.387 . S
C452 C455 1.387 . S
H453 C449 0.950 . S
H454 C451 0.950 . S
C455 C446 1.390 . S
C455 H448 0.950 . S
C455 C452 1.387 . S
C456 C457 1.387 1_565 S
C456 H460 0.950 1_565 S
C456 C465 1.390 . S
C457 C456 1.387 1_545 S
C457 C459 1.387 1_545 S
H458 C465 0.950 . S
C459 C457 1.387 1_565 S
C459 C461 1.390 . S
C459 H463 0.950 1_554 S
H460 C456 0.950 1_545 S
C461 C459 1.390 . S
C461 C462 1.387 . S
C461 H464 0.950 1_554 S
C462 C461 1.387 . S
C462 C465 1.387 . S
H463 C459 0.950 1_556 S
H464 C461 0.950 1_556 S
C465 C456 1.390 . S
C465 H458 0.950 . S
C465 C462 1.387 . S
C466 C467 1.387 . S
C466 H470 0.950 . S
C466 C475 1.390 . S
C467 C466 1.387 . S
C467 C469 1.387 . S
H468 C475 0.950 . S
C469 C467 1.387 . S
C469 C471 1.392 . S
C469 H473 0.950 1_554 S
H470 C466 0.950 . S
C471 C469 1.392 . S
C471 C472 1.404 . S
C471 H474 0.931 1_554 S
C472 C471 1.404 . S
C472 C475 1.387 . S
H473 C469 0.950 1_556 S
H474 C471 0.931 1_556 S
C475 C466 1.390 . S
C475 H468 0.950 . S
C475 C472 1.387 . S
C476 C477 1.399 . S
C476 H480 0.958 . S
C476 C485 1.371 1_655 S
C477 C476 1.399 . S
C477 C479 1.387 1_655 S
H478 C485 0.950 . S
C479 C477 1.387 1_455 S
C479 C481 1.390 . S
C479 H483 0.950 . S
H480 C476 0.958 . S
C481 C479 1.390 . S
C481 C482 1.387 . S
C481 H484 0.950 . S
C482 C481 1.387 . S
C482 C485 1.387 . S
H483 C479 0.950 . S
H484 C481 0.950 . S
C485 C476 1.371 1_455 S
C485 H478 0.950 . S
C485 C482 1.387 . S
C486 C487 1.387 . S
C486 H490 0.950 1_554 S
C486 C495 1.392 . S
C487 C486 1.387 . S
C487 C489 1.387 . S
H488 C495 0.931 1_556 S
C489 C487 1.387 . S
C489 C491 1.390 . S
C489 H493 0.950 . S
H490 C486 0.950 1_556 S
C491 C489 1.390 . S
C491 C492 1.387 1_545 S
C491 H494 0.950 1_545 S
C492 C491 1.387 1_565 S
C492 C495 1.405 1_565 S
H493 C489 0.950 . S
H494 C491 0.950 1_565 S
C495 C486 1.392 . S
C495 H488 0.931 1_554 S
C495 C492 1.405 1_545 S
C496 C497 1.387 . S
C496 H500 0.950 1_554 S
C496 C505 1.390 . S
C497 C496 1.387 . S
C497 C499 1.387 . S
H498 C505 0.950 1_556 S
C499 C497 1.387 . S
C499 C501 1.390 . S
C499 H503 0.950 . S
H500 C496 0.950 1_556 S
C501 C499 1.390 . S
C501 C502 1.387 . S
C501 H504 0.950 . S
C502 C501 1.387 . S
C502 C505 1.387 . S
H503 C499 0.950 . S
H504 C501 0.950 . S
C505 C496 1.390 . S
C505 H498 0.950 1_554 S
C505 C502 1.387 . S
C506 C507 1.387 . S
C506 H510 0.950 1_554 S
C506 C515 1.390 . S
C507 C506 1.387 . S
C507 C509 1.387 . S
H508 C515 0.950 1_556 S
C509 C507 1.387 . S
C509 C511 1.390 . S
C509 H513 0.950 . S
H510 C506 0.950 1_556 S
C511 C509 1.390 . S
C511 C512 1.387 1_655 S
C511 H514 0.950 1_655 S
C512 C511 1.387 1_455 S
C512 C515 1.387 1_455 S
H513 C509 0.950 . S
H514 C511 0.950 1_455 S
C515 C506 1.390 . S
C515 H508 0.950 1_554 S
C515 C512 1.387 1_655 S
C516 C517 1.387 . S
C516 H520 0.950 . S
C516 C525 1.390 . S
C517 C516 1.387 . S
C517 C519 1.387 . S
H518 C525 0.950 . S
C519 C517 1.387 . S
C519 C521 1.390 . S
C519 H523 0.950 . S
H520 C516 0.950 . S
C521 C519 1.390 . S
C521 C522 1.387 1_455 S
C521 H524 0.946 1_455 S
C522 C521 1.387 1_655 S
C522 C525 1.387 1_655 S
H523 C519 0.950 . S
H524 C521 0.946 1_655 S
C525 C516 1.390 . S
C525 H518 0.950 . S
C525 C522 1.387 1_455 S
C526 C527 1.387 . S
C526 H530 0.950 . S
C526 C535 1.390 . S
C527 C526 1.387 . S
C527 C529 1.387 . S
H528 C535 0.950 . S
C529 C527 1.387 . S
C529 C531 1.390 . S
C529 H533 0.950 . S
H530 C526 0.950 . S
C531 C529 1.390 . S
C531 C532 1.387 1_545 S
C531 H534 0.950 1_545 S
C532 C531 1.387 1_565 S
C532 C535 1.387 1_565 S
H533 C529 0.950 . S
H534 C531 0.950 1_565 S
C535 C526 1.390 . S
C535 H528 0.950 . S
C535 C532 1.387 1_545 S
C536 C537 1.387 . S
C536 H540 0.950 . S
C536 C545 1.390 . S
C537 C536 1.387 . S
C537 C539 1.387 . S
H538 C545 0.950 . S
C539 C537 1.387 . S
C539 C541 1.390 . S
C539 H543 0.950 . S
H540 C536 0.950 . S
C541 C539 1.390 . S
C541 C542 1.387 . S
C541 H544 0.950 . S
C542 C541 1.387 . S
C542 C545 1.387 . S
H543 C539 0.950 . S
H544 C541 0.950 . S
C545 C536 1.390 . S
C545 H538 0.950 . S
C545 C542 1.387 . S
C546 C547 1.387 1_655 S
C546 H550 0.950 1_655 S
C546 C555 1.390 . S
C547 C546 1.387 1_455 S
C547 C549 1.387 1_455 S
H548 C555 0.950 . S
C549 C547 1.387 1_655 S
C549 C551 1.390 . S
C549 H553 0.950 . S
H550 C546 0.950 1_455 S
C551 C549 1.390 . S
C551 C552 1.387 . S
C551 H554 0.950 . S
C552 C551 1.387 . S
C552 C555 1.387 . S
H553 C549 0.950 . S
H554 C551 0.950 . S
C555 C546 1.390 . S
C555 H548 0.950 . S
C555 C552 1.387 . S
C556 C557 1.387 1_565 S
C556 H560 0.950 . S
C556 C565 1.390 . S
C557 C556 1.387 1_545 S
C557 C559 1.387 1_545 S
H558 C565 0.950 . S
C559 C557 1.387 1_565 S
C559 C561 1.390 . S
C559 H563 0.950 1_565 S
H560 C556 0.950 . S
C561 C559 1.390 . S
C561 C562 1.387 . S
C561 H564 0.950 . S
C562 C561 1.387 . S
C562 C565 1.387 . S
H563 C559 0.950 1_545 S
H564 C561 0.950 . S
C565 C556 1.390 . S
C565 H558 0.950 . S
C565 C562 1.387 . S
C566 C567 1.387 . S
C566 H570 0.950 . S
C566 C575 1.390 . S
C567 C566 1.387 . S
C567 C569 1.387 . S
H568 C575 0.950 . S
C569 C567 1.387 . S
C569 C571 1.390 . S
C569 H573 0.950 . S
H570 C566 0.950 . S
C571 C569 1.390 . S
C571 C572 1.387 . S
C571 H574 0.950 . S
C572 C571 1.387 . S
C572 C575 1.387 . S
H573 C569 0.950 . S
H574 C571 0.950 . S
C575 C566 1.390 . S
C575 H568 0.950 . S
C575 C572 1.387 . S
C576 C577 1.387 . S
C576 H580 0.950 . S
C576 C585 1.390 . S
C577 C576 1.387 . S
C577 C579 1.387 . S
H578 C585 0.950 . S
C579 C577 1.387 . S
C579 C581 1.390 . S
C579 H583 0.950 . S
H580 C576 0.950 . S
C581 C579 1.390 . S
C581 C582 1.387 . S
C581 H584 0.950 . S
C582 C581 1.387 . S
C582 C585 1.387 . S
H583 C579 0.950 . S
H584 C581 0.950 . S
C585 C576 1.390 . S
C585 H578 0.950 . S
C585 C582 1.387 . S
C586 C587 1.387 . S
C586 H590 0.950 . S
C586 C595 1.390 . S
C587 C586 1.387 . S
C587 C589 1.387 . S
H588 C595 0.950 . S
C589 C587 1.387 . S
C589 C591 1.390 . S
C589 H593 0.950 . S
H590 C586 0.950 . S
C591 C589 1.390 . S
C591 C592 1.387 . S
C591 H594 0.950 . S
C592 C591 1.387 . S
C592 C595 1.387 . S
H593 C589 0.950 . S
H594 C591 0.950 . S
C595 C586 1.390 . S
C595 H588 0.950 . S
C595 C592 1.387 . S
C596 C597 1.387 . S
C596 H600 0.950 . S
C596 C605 1.390 . S
C597 C596 1.387 . S
C597 C599 1.387 . S
H598 C605 0.950 . S
C599 C597 1.387 . S
C599 C601 1.390 . S
C599 H603 0.950 . S
H600 C596 0.950 . S
C601 C599 1.390 . S
C601 C602 1.387 . S
C601 H604 0.950 . S
C602 C601 1.387 . S
C602 C605 1.387 . S
H603 C599 0.950 . S
H604 C601 0.950 . S
C605 C596 1.390 . S
C605 H598 0.950 . S
C605 C602 1.387 . S
C606 C607 1.387 . S
C606 H610 0.950 . S
C606 C615 1.390 . S
C607 C606 1.387 . S
C607 C609 1.387 . S
H608 C615 0.950 . S
C609 C607 1.387 . S
C609 C611 1.390 . S
C609 H613 0.950 . S
H610 C606 0.950 . S
C611 C609 1.390 . S
C611 C612 1.387 . S
C611 H614 0.950 . S
C612 C611 1.387 . S
C612 C615 1.387 . S
H613 C609 0.950 . S
H614 C611 0.950 . S
C615 C606 1.390 . S
C615 H608 0.950 . S
C615 C612 1.387 . S
C616 C617 1.387 . S
C616 H620 0.950 . S
C616 C625 1.390 . S
C617 C616 1.387 . S
C617 C619 1.387 . S
H618 C625 0.950 . S
C619 C617 1.387 . S
C619 C621 1.390 . S
C619 H623 0.950 . S
H620 C616 0.950 . S
C621 C619 1.390 . S
C621 C622 1.387 . S
C621 H624 0.950 . S
C622 C621 1.387 . S
C622 C625 1.387 . S
H623 C619 0.950 . S
H624 C621 0.950 . S
C625 C616 1.390 . S
C625 H618 0.950 . S
C625 C622 1.387 . S
C626 C627 1.387 . S
C626 H630 0.950 . S
C626 C635 1.390 . S
C627 C626 1.387 . S
C627 C629 1.387 . S
H628 C635 0.950 . S
C629 C627 1.387 . S
C629 C631 1.390 . S
C629 H633 0.950 . S
H630 C626 0.950 . S
C631 C629 1.390 . S
C631 C632 1.387 . S
C631 H634 0.950 . S
C632 C631 1.387 . S
C632 C635 1.387 . S
H633 C629 0.950 . S
H634 C631 0.950 . S
C635 C626 1.390 . S
C635 H628 0.950 . S
C635 C632 1.387 . S
C636 C637 1.387 . S
C636 H640 0.950 . S
C636 C645 1.390 . S
C637 C636 1.387 . S
C637 C639 1.387 . S
H638 C645 0.950 . S
C639 C637 1.387 . S
C639 C641 1.390 . S
C639 H643 0.950 . S
H640 C636 0.950 . S
C641 C639 1.390 . S
C641 C642 1.387 . S
C641 H644 0.950 . S
C642 C641 1.387 . S
C642 C645 1.387 . S
H643 C639 0.950 . S
H644 C641 0.950 . S
C645 C636 1.390 . S
C645 H638 0.950 . S
C645 C642 1.387 . S
C646 C647 1.387 . S
C646 H650 0.950 . S
C646 C655 1.390 . S
C647 C646 1.387 . S
C647 C649 1.387 . S
H648 C655 0.950 . S
C649 C647 1.387 . S
C649 C651 1.390 . S
C649 H653 0.950 . S
H650 C646 0.950 . S
C651 C649 1.390 . S
C651 C652 1.387 . S
C651 H654 0.950 . S
C652 C651 1.387 . S
C652 C655 1.387 . S
H653 C649 0.950 . S
H654 C651 0.950 . S
C655 C646 1.390 . S
C655 H648 0.950 . S
C655 C652 1.387 . S
C656 C657 1.387 . S
C656 H660 0.950 . S
C656 C665 1.390 . S
C657 C656 1.387 . S
C657 C659 1.387 . S
H658 C665 0.950 . S
C659 C657 1.387 . S
C659 C661 1.390 . S
C659 H663 0.950 . S
H660 C656 0.950 . S
C661 C659 1.390 . S
C661 C662 1.387 . S
C661 H664 0.950 . S
C662 C661 1.387 . S
C662 C665 1.387 . S
H663 C659 0.950 . S
H664 C661 0.950 . S
C665 C656 1.390 . S
C665 H658 0.950 . S
C665 C662 1.387 . S
C666 C667 1.387 . S
C666 H670 0.950 . S
C666 C675 1.390 . S
C667 C666 1.387 . S
C667 C669 1.387 . S
H668 C675 0.950 . S
C669 C667 1.387 . S
C669 C671 1.390 . S
C669 H673 0.950 . S
H670 C666 0.950 . S
C671 C669 1.390 . S
C671 C672 1.387 . S
C671 H674 0.950 . S
C672 C671 1.387 . S
C672 C675 1.387 . S
H673 C669 0.950 . S
H674 C671 0.950 . S
C675 C666 1.390 . S
C675 H668 0.950 . S
C675 C672 1.387 . S
C676 C677 1.387 . S
C676 H680 0.950 . S
C676 C685 1.390 . S
C677 C676 1.387 . S
C677 C679 1.387 . S
H678 C685 0.950 . S
C679 C677 1.387 . S
C679 C681 1.390 . S
C679 H683 0.950 . S
H680 C676 0.950 . S
C681 C679 1.390 . S
C681 C682 1.387 . S
C681 H684 0.950 . S
C682 C681 1.387 . S
C682 C685 1.387 . S
H683 C679 0.950 . S
H684 C681 0.950 . S
C685 C676 1.390 . S
C685 H678 0.950 . S
C685 C682 1.387 . S
C686 C687 1.387 . S
C686 H690 0.950 . S
C686 C695 1.390 . S
C687 C686 1.387 . S
C687 C689 1.387 . S
H688 C695 0.950 . S
C689 C687 1.387 . S
C689 C691 1.390 . S
C689 H693 0.950 . S
H690 C686 0.950 . S
C691 C689 1.390 . S
C691 C692 1.387 . S
C691 H694 0.950 . S
C692 C691 1.387 . S
C692 C695 1.387 . S
H693 C689 0.950 . S
H694 C691 0.950 . S
C695 C686 1.390 . S
C695 H688 0.950 . S
C695 C692 1.387 . S
C397 N14 1.559 . S
C402 N113 1.559 . S
C407 N146 1.560 . S
C412 N47 1.560 . S
C417 N179 1.559 . S
C422 N80 1.559 . S
C427 N311 1.560 . S
C432 N212 1.560 . S
C437 N344 1.560 . S
C442 N245 1.560 . S
C447 N278 1.559 . S
C452 N377 1.559 . S
C457 C8 1.246 . S
C462 N170 1.244 . S
C467 N5 1.244 . S
C472 C41 1.246 . S
C477 C74 1.245 . S
C482 N38 1.243 . S
C487 N71 1.243 . S
C492 C107 1.245 . S
C497 N104 1.243 . S
C502 C140 1.245 . S
C507 N137 1.244 . S
C512 C173 1.245 . S
C517 N236 1.243 . S
C522 C206 1.245 . S
C527 N269 1.244 . S
C532 C239 1.245 . S
C537 N302 1.243 . S
C542 C272 1.245 . S
C547 C305 1.246 . S
C552 N335 1.244 . S
C557 C338 1.245 . S
C562 N368 1.243 . S
C567 C371 1.246 . S
C572 N203 1.243 . S
C577 C292 1.322 . S
C582 C28 1.324 . S
C587 C61 1.323 . S
C592 C325 1.323 . S
C597 C94 1.325 . S
C602 C358 1.324 . S
C607 C127 1.325 . S
C612 C391 1.323 . S
C617 C226 1.324 . S
C622 C160 1.324 . S
C627 C193 1.324 . S
C632 C259 1.325 . S
C637 C380 1.585 . S
C642 C116 1.583 . S
C647 C215 1.584 . S
C652 C149 1.584 . S
C657 C248 1.583 . S
C662 C182 1.585 . S
C667 C17 1.585 . S
C672 C281 1.584 . S
C677 C50 1.584 . S
C682 C314 1.584 . S
C687 C83 1.585 . S
C692 C347 1.583 . S
