# Generated by pormake.
# Topology smc, (6)-cn, num edge types: 1
# Building blocks:
#     Node 0, Type 0, BuildingBlock: CUKXOW_clean_sbu_0, # of connection points: 6
#     Node 1, Type 0, BuildingBlock: CUKXOW_clean_sbu_0, # of connection points: 6
#     Node 2, Type 0, BuildingBlock: CUKXOW_clean_sbu_0, # of connection points: 6
#     Node 3, Type 0, BuildingBlock: CUKXOW_clean_sbu_0, # of connection points: 6
#     Node 4, Type 0, BuildingBlock: CUKXOW_clean_sbu_0, # of connection points: 6
#     Node 5, Type 0, BuildingBlock: CUKXOW_clean_sbu_0, # of connection points: 6
#     Node 6, Type 0, BuildingBlock: CUKXOW_clean_sbu_0, # of connection points: 6
#     Node 7, Type 0, BuildingBlock: CUKXOW_clean_sbu_0, # of connection points: 6
#     Node 8, Type 0, BuildingBlock: CUKXOW_clean_sbu_0, # of connection points: 6
#     Edge 9, Type (0, 0), BuildingBlock: KIFKEQ_clean_linker_1, # of connection points: 2
#     Edge 10, Type (0, 0), BuildingBlock: KIFKEQ_clean_linker_1, # of connection points: 2
#     Edge 11, Type (0, 0), BuildingBlock: KIFKEQ_clean_linker_1, # of connection points: 2
#     Edge 12, Type (0, 0), BuildingBlock: KIFKEQ_clean_linker_1, # of connection points: 2
#     Edge 13, Type (0, 0), BuildingBlock: KIFKEQ_clean_linker_1, # of connection points: 2
#     Edge 14, Type (0, 0), BuildingBlock: KIFKEQ_clean_linker_1, # of connection points: 2
#     Edge 15, Type (0, 0), BuildingBlock: KIFKEQ_clean_linker_1, # of connection points: 2
#     Edge 16, Type (0, 0), BuildingBlock: KIFKEQ_clean_linker_1, # of connection points: 2
#     Edge 17, Type (0, 0), BuildingBlock: KIFKEQ_clean_linker_1, # of connection points: 2
#     Edge 18, Type (0, 0), BuildingBlock: KIFKEQ_clean_linker_1, # of connection points: 2
#     Edge 19, Type (0, 0), BuildingBlock: KIFKEQ_clean_linker_1, # of connection points: 2
#     Edge 20, Type (0, 0), BuildingBlock: KIFKEQ_clean_linker_1, # of connection points: 2
#     Edge 21, Type (0, 0), BuildingBlock: KIFKEQ_clean_linker_1, # of connection points: 2
#     Edge 22, Type (0, 0), BuildingBlock: KIFKEQ_clean_linker_1, # of connection points: 2
#     Edge 23, Type (0, 0), BuildingBlock: KIFKEQ_clean_linker_1, # of connection points: 2
#     Edge 24, Type (0, 0), BuildingBlock: KIFKEQ_clean_linker_1, # of connection points: 2
#     Edge 25, Type (0, 0), BuildingBlock: KIFKEQ_clean_linker_1, # of connection points: 2
#     Edge 26, Type (0, 0), BuildingBlock: KIFKEQ_clean_linker_1, # of connection points: 2
#     Edge 27, Type (0, 0), BuildingBlock: KIFKEQ_clean_linker_1, # of connection points: 2
#     Edge 28, Type (0, 0), BuildingBlock: KIFKEQ_clean_linker_1, # of connection points: 2
#     Edge 29, Type (0, 0), BuildingBlock: KIFKEQ_clean_linker_1, # of connection points: 2
#     Edge 30, Type (0, 0), BuildingBlock: KIFKEQ_clean_linker_1, # of connection points: 2
#     Edge 31, Type (0, 0), BuildingBlock: KIFKEQ_clean_linker_1, # of connection points: 2
#     Edge 32, Type (0, 0), BuildingBlock: KIFKEQ_clean_linker_1, # of connection points: 2
#     Edge 33, Type (0, 0), BuildingBlock: KIFKEQ_clean_linker_1, # of connection points: 2
#     Edge 34, Type (0, 0), BuildingBlock: KIFKEQ_clean_linker_1, # of connection points: 2
#     Edge 35, Type (0, 0), BuildingBlock: KIFKEQ_clean_linker_1, # of connection points: 2
# Relax obj value: 0.121
# Max RMSD: 0.269
# Mean RMSD: 0.255
data_MOF--net-smc--node1-CUKXOW_clean_sbu_0--edge1-KIFKEQ_clean_linker_1
_symmetry_space_group_name_H-M    P1
_symmetry_Int_Tables_number       1
_symmetry_cell_setting            triclinic
loop_
_symmetry_equiv_pos_as_xyz
'x, y, z'
_cell_length_a     29.091017
_cell_length_b     33.109114
_cell_length_c     41.75364
_cell_angle_alpha  90.740406
_cell_angle_beta   91.303314
_cell_angle_gamma 119.61141
loop_
_atom_site_label
_atom_site_type_symbol
_atom_site_fract_x
_atom_site_fract_y
_atom_site_fract_z
_atom_type_partial_charge
Tb0 Tb 1.02479 0.42204 0.04107 0.0
C1 C 0.09333 0.47784 0.09951 0.0
Tb2 Tb 0.10551 0.52622 0.03136 0.0
O3 O 0.09147 0.4082 0.05106 0.0
O4 O 0.10216 0.4621 1.02241 0.0
O5 O 0.045 0.44629 0.09002 0.0
C6 C 0.18891 0.61087 1.02456 0.0
O7 O 0.12628 0.51008 0.07967 0.0
C8 C 1.0099 0.51606 0.04214 0.0
C9 C 1.04169 0.4589 0.97147 0.0
O10 O 0.178 0.58672 0.05034 0.0
O11 O 0.154 0.58633 1.00216 0.0
O12 O 0.0519 0.55518 0.03727 0.0
O13 O 1.02455 0.48595 0.0415 0.0
O14 O 0.08706 0.49639 0.98149 0.0
O15 O 1.00718 0.43032 0.99189 0.0
C16 C 0.93378 0.34286 0.04769 0.0
O17 O 0.97097 0.34841 0.02844 0.0
O18 O 0.94838 0.38161 0.06337 0.0
C19 C 0.12646 0.44405 0.03585 0.0
Tb20 Tb 0.63684 0.61521 1.01173 0.0
C21 C 0.6153 0.53728 0.96577 0.0
Tb22 Tb 0.59951 0.53057 0.0408 0.0
O23 O 0.70919 0.61575 0.99525 0.0
O24 O 0.67756 0.5859 0.03817 0.0
O25 O 0.60831 0.57325 0.9686 0.0
C26 C 0.56378 0.44318 0.05719 0.0
O27 O 0.62042 0.51755 0.99209 0.0
C28 C 0.52376 0.55317 0.03876 0.0
C29 C 0.63453 0.61688 0.08599 0.0
O30 O 0.54685 0.4566 0.03302 0.0
O31 O 0.60244 0.47896 0.07197 0.0
O32 O 0.53511 0.53459 0.06233 0.0
O33 O 0.55574 0.55918 1.0164 0.0
O34 O 0.6307 0.57522 0.08447 0.0
O35 O 0.62831 0.63564 0.0598 0.0
C36 C 0.65153 0.69639 0.99007 0.0
O37 O 0.67399 0.69112 1.01555 0.0
O38 O 0.62172 0.65603 0.97664 0.0
C39 C 0.71254 0.59182 1.01861 0.0
Tb40 Tb 0.462 0.04501 0.04523 0.0
C41 C 0.464 0.97462 0.09197 0.0
Tb42 Tb 0.49219 0.97827 1.01774 0.0
O43 O 0.38257 0.98599 0.05409 0.0
O44 O 0.42437 0.98443 1.01522 0.0
O45 O 0.47004 0.01664 0.0897 0.0
C46 C 0.50264 0.90639 0.9977 0.0
O47 O 0.46614 0.951 0.06646 0.0
C48 C 0.57324 0.06046 0.03116 0.0
C49 C 0.48013 0.04631 0.97152 0.0
O50 O 0.48144 0.90862 1.02412 0.0
O51 O 0.51691 0.9442 0.98236 0.0
O52 O 0.5728 0.03199 1.00967 0.0
O53 O 0.53225 0.03985 0.04735 0.0
O54 O 0.47062 1.00281 0.97426 0.0
O55 O 0.48566 0.07228 0.99732 0.0
C56 C 0.46016 0.11864 0.06916 0.0
O57 O 0.4226 0.0862 0.05131 0.0
O58 O 0.49881 0.1101 0.07271 0.0
C59 C 0.38309 0.9607 0.03019 0.0
Tb60 Tb 0.68548 0.75792 0.35556 0.0
C61 C 0.76301 0.80268 0.41671 0.0
Tb62 Tb 0.77336 0.86008 0.35399 0.0
O63 O 0.729 0.73377 0.32516 0.0
O64 O 0.76822 0.7947 0.35286 0.0
O65 O 0.71791 0.76862 0.40409 0.0
C66 C 0.84247 0.94939 0.3421 0.0
O67 O 0.79534 0.84023 0.40019 0.0
C68 C 0.68767 0.84322 0.38293 0.0
C69 C 0.70058 0.80418 0.29237 0.0
O70 O 0.85414 0.92077 0.35659 0.0
O71 O 0.79275 0.92708 0.33353 0.0
O72 O 0.73423 0.8767 0.39107 0.0
O73 O 0.68987 0.82366 0.35746 0.0
O74 O 0.74893 0.83584 0.30302 0.0
O75 O 0.66356 0.78058 0.31289 0.0
C76 C 0.5948 0.68328 0.36885 0.0
O77 O 0.62234 0.68735 0.34385 0.0
O78 O 0.61885 0.72076 0.38669 0.0
C79 C 0.77392 0.77136 0.33112 0.0
Tb80 Tb 0.32769 0.92179 0.38175 0.0
C81 C 0.25288 0.9241 0.43006 0.0
Tb82 Tb 0.22273 0.89159 0.3573 0.0
O83 O 0.34053 0.99179 0.39389 0.0
O84 O 0.29334 0.95524 0.35444 0.0
O85 O 0.28848 0.91118 0.42641 0.0
C86 C 0.13963 0.88831 0.32773 0.0
O87 O 0.22318 0.9227 0.40494 0.0
C88 C 0.21882 0.81275 0.37376 0.0
C89 C 0.30846 0.89841 0.30896 0.0
O90 O 0.15755 0.9063 0.35619 0.0
O91 O 0.16809 0.87194 0.3162 0.0
O92 O 0.17927 0.81726 0.36396 0.0
O93 O 0.25962 0.85324 0.37679 0.0
O94 O 0.26403 0.89988 0.31215 0.0
O95 O 0.33724 0.90027 0.33435 0.0
C96 C 0.4191 0.93167 0.40318 0.0
O97 O 0.41293 0.95179 0.37833 0.0
O98 O 0.3738 0.906 0.41574 0.0
C99 C 0.30902 0.99176 0.37148 0.0
Tb100 Tb 0.13734 0.38828 0.37408 0.0
C101 C 0.12558 0.324 0.433 0.0
Tb102 Tb 0.1785 0.31401 0.36803 0.0
O103 O 0.05795 0.33576 0.35223 0.0
O104 O 0.10896 0.31652 0.37239 0.0
O105 O 0.13035 0.36445 0.42374 0.0
C106 C 0.19846 0.24185 0.3638 0.0
O107 O 0.13479 0.29663 0.41326 0.0
C108 C 0.24798 0.3996 0.38653 0.0
C109 C 0.16695 0.36649 0.30617 0.0
O110 O 0.19643 0.26284 0.3897 0.0
O111 O 0.18857 0.26133 0.33962 0.0
O112 O 0.25375 0.36395 0.39199 0.0
O113 O 0.20878 0.38656 0.36779 0.0
O114 O 0.16845 0.32899 0.31698 0.0
O115 O 0.16219 0.39671 0.32504 0.0
C116 C 0.15085 0.47539 0.38366 0.0
O117 O 0.10784 0.4389 0.37234 0.0
O118 O 0.18479 0.46183 0.39077 0.0
C119 C 0.06692 0.30099 0.35615 0.0
Tb120 Tb 0.34667 0.08822 0.69909 0.0
C121 C 0.40884 0.14664 0.75824 0.0
Tb122 Tb 0.42482 0.19311 0.68936 0.0
O123 O 0.41447 0.07755 0.71236 0.0
O124 O 0.42536 0.13013 0.68216 0.0
O125 O 0.36187 0.11371 0.74779 0.0
C126 C 0.50712 0.27949 0.69109 0.0
O127 O 0.44298 0.17794 0.73849 0.0
C128 C 0.32768 0.1798 0.6977 0.0
C129 C 0.36247 0.12632 0.6291 0.0
O130 O 0.48335 0.25519 0.71557 0.0
O131 O 0.48582 0.25429 0.66503 0.0
O132 O 0.36824 0.21929 0.69149 0.0
O133 O 0.3441 0.15094 0.69832 0.0
O134 O 0.40609 0.16561 0.63899 0.0
O135 O 0.33058 0.0946 0.64909 0.0
C136 C 0.25777 1.00725 0.70591 0.0
O137 O 0.29832 0.01282 0.68988 0.0
O138 O 0.26764 0.04709 0.71804 0.0
C139 C 0.44975 0.11341 0.69733 0.0
Tb140 Tb 0.96095 0.2853 0.68394 0.0
C141 C 0.92961 0.20873 0.63688 0.0
Tb142 Tb 0.92319 0.19962 0.71155 0.0
O143 O 1.03193 0.28545 0.66565 0.0
O144 O 1.00154 0.25446 0.70841 0.0
O145 O 0.91815 0.2414 0.64339 0.0
C146 C 0.89414 0.11322 0.72797 0.0
O147 O 0.94062 0.18946 0.66134 0.0
C148 C 0.84757 0.22267 0.7106 0.0
C149 C 0.96124 0.28524 0.75826 0.0
O150 O 0.87119 0.12488 0.70606 0.0
O151 O 0.93436 0.15015 0.74039 0.0
O152 O 0.85851 0.20294 0.73368 0.0
O153 O 0.87975 0.2295 0.68827 0.0
O154 O 0.955 0.2428 0.75576 0.0
O155 O 0.95621 0.30576 0.7327 0.0
C156 C 0.97986 0.36835 0.66387 0.0
O157 O 0.98245 0.35759 0.69322 0.0
O158 O 0.96729 0.33228 0.6457 0.0
C159 C 1.03542 0.26042 0.68807 0.0
Tb160 Tb 0.79928 0.71011 0.71376 0.0
C161 C 0.79186 0.63374 0.75923 0.0
Tb162 Tb 0.81425 0.6356 0.68426 0.0
O163 O 0.71801 0.65717 0.72511 0.0
O164 O 0.75244 0.65045 0.68416 0.0
O165 O 0.80374 0.67777 0.75765 0.0
C166 C 0.81042 0.55859 0.66098 0.0
O167 O 0.78997 0.6093 0.73312 0.0
C168 C 0.90346 0.71287 0.69587 0.0
C169 C 0.8089 0.70742 0.63888 0.0
O170 O 0.79364 0.56284 0.68862 0.0
O171 O 0.82838 0.59746 0.64647 0.0
O172 O 0.89662 0.68204 0.67429 0.0
O173 O 0.86353 0.69647 0.71322 0.0
O174 O 0.79451 0.66282 0.64185 0.0
O175 O 0.81895 0.73478 0.66463 0.0
C176 C 0.80957 0.78899 0.73723 0.0
O177 O 0.76676 0.75573 0.72366 0.0
O178 O 0.84668 0.77817 0.73707 0.0
C179 C 0.71199 0.63042 0.70049 0.0
H180 H 0.46144 0.54575 0.98392 0.0
H181 H 0.45819 0.54055 0.08701 0.0
H182 H 0.36602 0.5207 0.98192 0.0
H183 H 0.36441 0.51549 0.08506 0.0
H184 H 0.18651 0.41621 0.071 0.0
H185 H 0.28186 0.44531 0.06962 0.0
H186 H 0.29542 0.54121 0.99656 0.0
H187 H 0.19975 0.51206 0.99816 0.0
C188 C 0.44084 0.54006 1.00612 0.0
C189 C 0.46799 0.5451 0.03562 0.0
C190 C 0.38592 0.52545 1.00504 0.0
C191 C 0.35659 0.51497 0.03335 0.0
C192 C 0.38464 0.52192 0.06266 0.0
C193 C 0.43899 0.5368 0.06375 0.0
C194 C 0.20972 0.44342 0.05458 0.0
C195 C 0.18506 0.46161 0.03472 0.0
C196 C 0.26472 0.46042 0.05384 0.0
C197 C 0.29716 0.49596 0.03298 0.0
C198 C 0.27221 0.51368 1.01275 0.0
C199 C 0.21719 0.49707 1.01381 0.0
H200 H 0.49323 0.83661 0.03505 0.0
H201 H 0.55443 0.90259 0.94525 0.0
H202 H 0.53844 0.7916 0.02881 0.0
H203 H 0.59923 0.85683 0.93887 0.0
H204 H 0.60616 0.7117 0.93751 0.0
H205 H 0.5708 0.76517 0.93514 0.0
H206 H 0.64301 0.82292 0.02819 0.0
H207 H 0.679 0.77016 0.03042 0.0
C208 C 0.5155 0.84078 1.01371 0.0
C209 C 0.52075 0.87313 0.99073 0.0
C210 C 0.54175 0.81548 1.01032 0.0
C211 C 0.57309 0.82179 0.98374 0.0
C212 C 0.5756 0.85188 0.95967 0.0
C213 C 0.54982 0.87771 0.96327 0.0
C214 C 0.61601 0.73703 0.95688 0.0
C215 C 0.64472 0.7367 0.98428 0.0
C216 C 0.59569 0.76738 0.95555 0.0
C217 C 0.60339 0.79713 0.9818 0.0
C218 C 0.63605 0.79962 1.00791 0.0
C219 C 0.657 0.76983 1.00902 0.0
H220 H 0.38832 0.90551 0.98353 0.0
H221 H 0.31026 0.90026 0.07133 0.0
H222 H 0.34605 0.82094 0.98154 0.0
H223 H 0.26728 0.81525 0.06922 0.0
H224 H 0.24652 0.66961 0.07428 0.0
H225 H 0.29359 0.75455 0.07487 0.0
H226 H 0.25761 0.75157 0.97364 0.0
H227 H 0.2107 0.66662 0.97309 0.0
C228 C 0.36153 0.88616 1.00222 0.0
C229 C 0.35256 0.90941 1.02763 0.0
C230 C 0.33731 0.83771 1.00105 0.0
C231 C 0.30359 0.81135 1.02532 0.0
C232 C 0.29369 0.83463 0.0504 0.0
C233 C 0.31776 0.88321 0.05145 0.0
C234 C 0.24954 0.68714 0.05205 0.0
C235 C 0.22497 0.66157 1.02363 0.0
C236 C 0.27593 0.73576 0.05247 0.0
C237 C 0.27866 0.7598 1.02442 0.0
C238 C 0.2563 0.73412 0.99565 0.0
C239 C 0.22953 0.68548 0.9953 0.0
H240 H 0.38567 0.14485 0.05994 0.0
H241 H 0.54056 0.18947 0.10263 0.0
H242 H 0.39945 0.22341 0.06755 0.0
H243 H 0.55551 0.26788 0.10888 0.0
H244 H 0.58011 0.40989 0.11326 0.0
H245 H 0.54053 0.32816 0.12762 0.0
H246 H 0.45505 0.28741 0.03605 0.0
H247 H 0.49255 0.36824 1.02269 0.0
C248 C 0.42212 0.17128 0.07155 0.0
C249 C 0.46271 0.16188 0.0799 0.0
C250 C 0.43013 0.21617 0.07583 0.0
C251 C 0.47913 0.25212 0.08801 0.0
C252 C 0.51729 0.24115 0.09948 0.0
C253 C 0.509 0.19628 0.09555 0.0
C254 C 0.55242 0.38318 0.09653 0.0
C255 C 0.53991 0.39487 0.06673 0.0
C256 C 0.5296 0.33659 0.10473 0.0
C257 C 0.49463 0.30126 0.083 0.0
C258 C 0.48082 0.31356 0.05371 0.0
C259 C 0.50304 0.3599 0.04577 0.0
H260 H 0.62048 0.10595 0.08873 0.0
H261 H 0.63059 0.11889 0.98615 0.0
H262 H 0.70855 0.17574 0.09542 0.0
H263 H 0.71672 0.18847 0.99257 0.0
H264 H 0.893 0.26469 1.00963 0.0
H265 H 0.80306 0.19898 1.00844 0.0
H266 H 0.76423 0.26167 0.08703 0.0
H267 H 0.85485 0.32743 0.08838 0.0
C268 C 0.64087 0.12452 0.06776 0.0
C269 C 0.61931 0.10708 0.03693 0.0
C270 C 0.69125 0.16424 0.07151 0.0
C271 C 0.72026 0.1869 0.04444 0.0
C272 C 0.69635 0.17105 1.01386 0.0
C273 C 0.64677 0.13148 1.01018 0.0
C274 C 0.86544 0.2642 1.02686 0.0
C275 C 0.8808 0.30119 0.04897 0.0
C276 C 0.81375 0.22678 1.02604 0.0
C277 C 0.77614 0.2254 0.04735 0.0
C278 C 0.79216 0.26164 0.07033 0.0
C279 C 0.84396 0.2993 0.07102 0.0
H280 H 0.93908 0.4897 0.99131 0.0
H281 H 0.96253 0.53728 0.0898 0.0
H282 H 0.86442 0.50431 0.98543 0.0
H283 H 0.88803 0.55179 0.08431 0.0
H284 H 0.72873 0.54834 0.06983 0.0
H285 H 0.79347 0.52185 0.07625 0.0
H286 H 0.8513 0.5715 0.98239 0.0
H287 H 0.78643 0.59784 0.9761 0.0
C288 C 0.92688 0.50146 1.01211 0.0
C289 C 0.95574 0.5107 0.04137 0.0
C290 C 0.88462 0.51079 1.00861 0.0
C291 C 0.8698 0.52968 0.03431 0.0
C292 C 0.89735 0.53682 0.06398 0.0
C293 C 0.93998 0.52807 0.06729 0.0
C294 C 0.75533 0.5537 0.05057 0.0
C295 C 0.75245 0.57569 1.02254 0.0
C296 C 0.79271 0.53852 0.05427 0.0
C297 C 0.82817 0.54428 0.02989 0.0
C298 C 0.82459 0.56574 1.00164 0.0
C299 C 0.78756 0.58133 0.9981 0.0
H300 H 0.83843 0.85954 0.31345 0.0
H301 H 0.81935 0.72176 0.30911 0.0
H302 H 0.92534 0.89165 0.29306 0.0
H303 H 0.91144 0.75552 0.29303 0.0
H304 H 0.08496 0.83036 0.27721 0.0
H305 H 0.99227 0.80324 0.26181 0.0
H306 H 0.9897 0.89897 0.33241 0.0
H307 H 0.08121 0.92587 0.34715 0.0
C308 C 0.85196 0.83569 0.30714 0.0
C309 C 0.82201 0.78809 0.3129 0.0
C310 C 0.90239 0.85434 0.29568 0.0
C311 C 0.92578 0.82646 0.29267 0.0
C312 C 0.89432 0.77793 0.29525 0.0
C313 C 0.84199 0.75867 0.30486 0.0
C314 C 0.06464 0.84643 0.28855 0.0
C315 C 0.08933 0.87967 0.31357 0.0
C316 C 1.01182 0.83082 0.27983 0.0
C317 C 0.98379 0.84888 0.29584 0.0
C318 C 1.01033 0.88485 0.31911 0.0
C319 C 0.06267 0.9001 0.32786 0.0
H320 H 0.20788 0.19381 0.31154 0.0
H321 H 0.21912 0.20227 0.41475 0.0
H322 H 0.23341 0.13319 0.31201 0.0
H323 H 0.24325 0.14169 0.41545 0.0
H324 H 0.34054 0.06958 0.40896 0.0
H325 H 0.31356 0.12825 0.40559 0.0
H326 H 0.21015 0.05402 0.3242 0.0
H327 H 0.23871 0.99556 0.32726 0.0
C328 C 0.21549 0.1826 0.33433 0.0
C329 C 0.21173 0.20334 0.36309 0.0
C330 C 0.22992 0.14755 0.33467 0.0
C331 C 0.24123 0.13234 0.36379 0.0
C332 C 0.23629 0.15274 0.39244 0.0
C333 C 0.22193 0.18751 0.39207 0.0
C334 C 0.31221 0.06576 0.3902 0.0
C335 C 0.29205 0.02772 0.36835 0.0
C336 C 0.2962 0.0994 0.3884 0.0
C337 C 0.25906 0.0963 0.36474 0.0
C338 C 0.23912 0.05827 0.34261 0.0
C339 C 0.25531 0.02446 0.34443 0.0
H340 H 0.0968 0.23646 0.35674 0.0
H341 H 0.95915 0.25062 0.33949 0.0
H342 H 0.04478 0.15343 0.34952 0.0
H343 H 0.9045 0.16544 0.3344 0.0
H344 H 0.82533 0.00959 0.30642 0.0
H345 H 0.87803 0.0944 0.30643 0.0
H346 H 0.98702 0.08944 0.37635 0.0
H347 H 0.93586 1.005 0.37475 0.0
C348 C 0.0552 0.22171 0.35108 0.0
C349 C 1.03258 0.25046 0.34838 0.0
C350 C 1.02477 0.17355 0.34754 0.0
C351 C 0.96974 0.15179 0.34208 0.0
C352 C 0.94677 0.18059 0.33844 0.0
C353 C 0.97798 0.22951 0.34139 0.0
C354 C 0.86112 0.02681 0.32138 0.0
C355 C 0.87686 1.00057 0.34028 0.0
C356 C 0.89108 0.07558 0.32169 0.0
C357 C 0.9373 0.09951 0.34127 0.0
C358 C 0.95268 0.07282 0.36022 0.0
C359 C 0.92321 0.02413 0.35947 0.0
H360 H 0.13943 0.73153 0.34946 0.0
H361 H 0.28616 0.78462 0.40412 0.0
H362 H 0.12533 0.65372 0.35229 0.0
H363 H 0.27065 0.70471 0.40879 0.0
H364 H 0.24696 0.55608 0.39119 0.0
H365 H 0.26618 0.63678 0.38965 0.0
H366 H 0.09864 0.5884 0.37908 0.0
H367 H 0.0805 0.50832 0.37868 0.0
C368 C 0.16873 0.72659 0.36262 0.0
C369 C 0.21391 0.76514 0.37672 0.0
C370 C 0.16019 0.68106 0.3646 0.0
C371 C 0.19584 0.67109 0.38143 0.0
C372 C 0.2418 0.70989 0.3954 0.0
C373 C 0.25085 0.75616 0.39291 0.0
C374 C 0.21421 0.56278 0.38856 0.0
C375 C 0.16202 0.52519 0.38492 0.0
C376 C 0.22526 0.60952 0.38782 0.0
C377 C 0.18445 0.62072 0.3838 0.0
C378 C 0.13204 0.58262 0.38116 0.0
C379 C 0.12119 0.53602 0.38132 0.0
H380 H 0.32862 0.43386 0.43066 0.0
H381 H 0.26615 0.47223 0.34898 0.0
H382 H 0.41062 0.5086 0.4294 0.0
H383 H 0.34836 0.54662 0.3475 0.0
H384 H 0.53079 0.61538 0.32608 0.0
H385 H 0.44084 0.5525 0.33402 0.0
H386 H 0.44934 0.60121 0.43158 0.0
H387 H 0.53937 0.66501 0.42344 0.0
C388 C 0.33205 0.45884 0.41301 0.0
C389 C 0.29162 0.44749 0.38981 0.0
C390 C 0.37867 0.50147 0.41237 0.0
C391 C 0.38558 0.53278 0.38817 0.0
C392 C 0.34375 0.52269 0.36624 0.0
C393 C 0.29682 0.48036 0.3672 0.0
C394 C 0.51341 0.61263 0.34919 0.0
C395 C 0.54176 0.64458 0.37424 0.0
C396 C 0.46192 0.57711 0.3536 0.0
C397 C 0.43838 0.57263 0.38328 0.0
C398 C 0.46685 0.60434 0.40847 0.0
C399 C 0.51813 0.64049 0.40385 0.0
H400 H 0.50325 0.95891 0.36573 0.0
H401 H 0.43615 0.88976 0.45379 0.0
H402 H 0.56388 0.92798 0.36708 0.0
H403 H 0.49783 0.85936 0.45526 0.0
H404 H 0.67745 0.87621 0.44 0.0
H405 H 0.61043 0.89783 0.45212 0.0
H406 H 0.52599 0.83093 0.36348 0.0
H407 H 0.59257 0.8088 0.35141 0.0
C408 C 0.50275 0.93842 0.38589 0.0
C409 C 0.46488 0.92595 0.40941 0.0
C410 C 0.53678 0.92035 0.38643 0.0
C411 C 0.53368 0.89039 0.41074 0.0
C412 C 0.49977 0.88186 0.43611 0.0
C413 C 0.4651 0.89947 0.43535 0.0
C414 C 0.64342 0.86467 0.42376 0.0
C415 C 0.64027 0.84198 0.39449 0.0
C416 C 0.60538 0.87697 0.43072 0.0
C417 C 0.56448 0.86676 0.40828 0.0
C418 C 0.55804 0.83943 0.38077 0.0
C419 C 0.59573 0.82664 0.37399 0.0
H420 H 0.77791 0.20469 0.75763 0.0
H421 H 0.78935 0.22042 0.65533 0.0
H422 H 0.68437 0.1806 0.75363 0.0
H423 H 0.69431 0.19594 0.65117 0.0
H424 H 0.52641 0.18381 0.66233 0.0
H425 H 0.62237 0.21345 0.66388 0.0
H426 H 0.60257 0.11408 0.73575 0.0
H427 H 0.50723 0.08488 0.73415 0.0
C428 C 0.76056 0.20339 0.73414 0.0
C429 C 0.79178 0.21446 0.70682 0.0
C430 C 0.70632 0.18904 0.73181 0.0
C431 C 0.68061 0.18523 0.70202 0.0
C432 C 0.71224 0.1983 0.67463 0.0
C433 C 0.76698 0.21251 0.67697 0.0
C434 C 0.5426 0.16828 0.67844 0.0
C435 C 0.50868 0.13181 0.69813 0.0
C436 C 0.59782 0.18516 0.67921 0.0
C437 C 0.62115 0.16658 0.70003 0.0
C438 C 0.58688 0.13005 0.71966 0.0
C439 C 0.5318 0.11295 0.71866 0.0
H440 H 0.94016 0.37955 0.60707 0.0
H441 H 0.99674 0.44144 0.70168 0.0
H442 H 0.89527 0.42513 0.6005 0.0
H443 H 0.95204 0.48672 0.69505 0.0
H444 H 0.85897 0.55343 0.60752 0.0
H445 H 0.90834 0.51159 0.60246 0.0
H446 H 0.84727 0.44529 0.69209 0.0
H447 H 0.79795 0.48681 0.69718 0.0
C448 C 0.94473 0.40425 0.62587 0.0
C449 C 0.9708 0.40651 0.65514 0.0
C450 C 0.91881 0.42995 0.62218 0.0
C451 C 0.91896 0.45786 0.64775 0.0
C452 C 0.95038 0.46427 0.6754 0.0
C453 C 0.97636 0.43884 0.67904 0.0
C454 C 0.85482 0.52873 0.62557 0.0
C455 C 0.82547 0.52366 0.65299 0.0
C456 C 0.88325 0.50516 0.62273 0.0
C457 C 0.88263 0.47666 0.64739 0.0
C458 C 0.84921 0.4682 0.67321 0.0
C459 C 0.82056 0.49142 0.67593 0.0
H460 H 0.6653 0.57277 0.75 0.0
H461 H 0.68308 0.57378 0.64779 0.0
H462 H 0.62177 0.48857 0.74858 0.0
H463 H 0.6343 0.48933 0.64531 0.0
H464 H 0.58297 0.33697 0.64983 0.0
H465 H 0.63358 0.42186 0.65292 0.0
H466 H 0.54988 0.42054 0.73781 0.0
H467 H 0.50445 0.33679 0.73619 0.0
C468 C 0.6583 0.55469 0.72706 0.0
C469 C 0.67736 0.57959 0.69903 0.0
C470 C 0.63293 0.50613 0.72606 0.0
C471 C 0.62395 0.48114 0.69674 0.0
C472 C 0.6414 0.50662 0.66852 0.0
C473 C 0.66853 0.55519 0.66976 0.0
C474 C 0.57648 0.35526 0.66935 0.0
C475 C 0.54036 0.3305 0.69291 0.0
C476 C 0.60486 0.40402 0.671 0.0
C477 C 0.59608 0.42901 0.69559 0.0
C478 C 0.55945 0.40348 0.71898 0.0
C479 C 0.53282 0.35506 0.71795 0.0
H480 H 0.90167 0.86515 0.75583 0.0
H481 H 0.73437 0.81452 0.74103 0.0
H482 H 0.91728 0.9441 0.76201 0.0
H483 H 0.74949 0.89346 0.74849 0.0
H484 H 0.93373 0.08394 0.77651 0.0
H485 H 0.90659 1.00339 0.78927 0.0
H486 H 0.78898 0.95561 0.71166 0.0
H487 H 0.81486 0.03542 0.69986 0.0
C488 C 0.86809 0.8709 0.75485 0.0
C489 C 0.81705 0.83432 0.74727 0.0
C490 C 0.87691 0.91602 0.75867 0.0
C491 C 0.83466 0.92501 0.75522 0.0
C492 C 0.78291 0.88759 0.75058 0.0
C493 C 0.7742 0.84252 0.7464 0.0
C494 C 0.90168 0.05597 0.76257 0.0
C495 C 0.87666 0.06546 0.73704 0.0
C496 C 0.88614 0.01005 0.76984 0.0
C497 C 0.84564 0.97321 0.7515 0.0
C498 C 0.81956 0.98309 0.72669 0.0
C499 C 0.83482 0.02881 0.71962 0.0
H500 H 0.94117 0.775 0.74799 0.0
H501 H 0.97928 0.75101 0.65285 0.0
H502 H 1.02817 0.84604 0.75355 0.0
H503 H 0.06426 0.82123 0.65791 0.0
H504 H 0.23303 0.92068 0.68398 0.0
H505 H 0.14754 0.84955 0.6851 0.0
H506 H 0.08162 0.92449 0.73357 0.0
H507 H 0.16785 0.99529 0.73332 0.0
C508 C 0.96785 0.7851 0.72826 0.0
C509 C 0.95369 0.75731 0.70013 0.0
C510 C 1.01762 0.82569 0.73137 0.0
C511 C 0.05379 0.83899 0.70637 0.0
C512 C 1.03841 0.81154 0.67805 0.0
C513 C 0.98931 0.77132 0.67506 0.0
C514 C 0.20038 0.92179 0.69511 0.0
C515 C 0.20695 0.96351 0.70831 0.0
C516 C 0.15123 0.88113 0.69562 0.0
C517 C 0.10728 0.88131 0.70905 0.0
C518 C 0.1145 0.92289 0.72323 0.0
C519 C 0.16384 0.96353 0.72289 0.0
H520 H 0.26021 0.1624 0.64656 0.0
H521 H 0.27606 0.18829 0.74854 0.0
H522 H 0.18545 0.17692 0.64409 0.0
H523 H 0.20209 0.20373 0.7464 0.0
H524 H 0.04832 0.20952 0.73543 0.0
H525 H 0.11067 0.18005 0.73803 0.0
H526 H 0.17256 0.24231 0.64739 0.0
H527 H 0.10945 0.27068 0.64467 0.0
C528 C 0.24625 0.16935 0.66867 0.0
C529 C 0.27297 0.17259 0.6979 0.0
C530 C 0.20401 0.17875 0.66724 0.0
C531 C 0.18755 0.19227 0.69498 0.0
C532 C 0.21272 0.19303 0.72448 0.0
C533 C 0.25502 0.1837 0.72584 0.0
C534 C 0.07524 0.21684 0.71606 0.0
C535 C 0.07398 0.24279 0.68994 0.0
C536 C 0.11128 0.20003 0.71756 0.0
C537 C 0.14716 0.20846 0.69292 0.0
C538 C 0.14534 0.23418 0.66667 0.0
C539 C 0.10938 0.25102 0.66522 0.0
H540 H 0.09811 0.31366 0.25729 0.0
H541 H 0.23755 0.4457 0.27833 0.0
H542 H 0.08531 0.34299 0.2061 0.0
H543 H 0.22513 0.47515 0.22737 0.0
H544 H 0.19499 0.50123 0.1201 0.0
H545 H 0.21981 0.47099 0.167 0.0
H546 H 0.05741 0.40137 0.19556 0.0
H547 H 1.03301 0.43166 0.14954 0.0
C548 C 0.12736 0.34818 0.25032 0.0
C549 C 0.16936 0.37702 0.27158 0.0
C550 C 0.11956 0.36542 0.22126 0.0
C551 C 0.15376 0.41184 0.21273 0.0
C552 C 0.19812 0.43932 0.23293 0.0
C553 C 0.20547 0.42228 0.26208 0.0
C554 C 0.16496 0.48057 0.13691 0.0
C555 C 0.11201 0.4692 0.131 0.0
C556 C 0.17902 0.46269 0.16359 0.0
C557 C 0.14035 0.43264 0.18472 0.0
C558 C 0.08804 0.42316 0.17942 0.0
C559 C 0.07419 0.4412 0.15315 0.0
H560 H 0.77264 0.82441 0.24467 0.0
H561 H 0.60781 0.73581 0.26518 0.0
H562 H 0.75939 0.77912 0.19489 0.0
H563 H 0.59545 0.69034 0.21631 0.0
H564 H 0.61328 0.58686 0.14818 0.0
H565 H 0.6306 0.63532 0.19705 0.0
H566 H 0.70418 0.75882 0.14097 0.0
H567 H 0.68609 0.71087 0.09245 0.0
C568 C 0.73344 0.79608 0.23834 0.0
C569 C 0.69137 0.78409 0.25907 0.0
C570 C 0.72598 0.7698 0.20998 0.0
C571 C 0.67657 0.73053 0.20203 0.0
C572 C 0.63421 0.71973 0.22208 0.0
C573 C 0.64133 0.74632 0.24997 0.0
C574 C 0.63346 0.62432 0.14641 0.0
C575 C 0.64791 0.6449 0.11642 0.0
C576 C 0.64316 0.65208 0.17429 0.0
C577 C 0.66865 0.70097 0.17282 0.0
C578 C 0.68473 0.72141 0.14297 0.0
C579 C 0.67402 0.69377 0.11514 0.0
H580 H 0.5057 0.01498 0.14999 0.0
H581 H 0.38382 0.88732 0.10543 0.0
H582 H 0.46701 0.98882 0.20212 0.0
H583 H 0.34355 0.86154 0.15783 0.0
H584 H 0.25897 0.8862 0.24951 0.0
H585 H 0.29846 0.89588 0.19681 0.0
H586 H 0.44615 0.92412 0.24259 0.0
H587 H 0.40706 0.91392 0.29489 0.0
C588 C 0.47135 0.9807 0.15152 0.0
C589 C 0.4481 0.95304 0.12366 0.0
C590 C 0.44899 0.9658 0.18137 0.0
C591 C 0.40195 0.92327 0.1841 0.0
C592 C 0.37963 0.89462 0.15644 0.0
C593 C 0.40298 0.90911 0.12653 0.0
C594 C 0.2996 0.89378 0.2483 0.0
C595 C 0.32977 0.89953 0.27658 0.0
C596 C 0.32212 0.89904 0.2181 0.0
C597 C 0.37551 0.91089 0.21555 0.0
C598 C 0.40503 0.91519 0.24374 0.0
C599 C 0.38243 0.90925 0.27377 0.0
H600 H 0.51776 0.13725 0.95583 0.0
H601 H 0.44072 0.99803 0.91448 0.0
H602 H 0.50775 0.16724 0.90429 0.0
H603 H 0.4301 0.02812 0.86329 0.0
H604 H 0.34504 0.09062 0.80396 0.0
H605 H 0.37027 0.06932 0.85391 0.0
H606 H 0.53404 0.16856 0.83927 0.0
H607 H 0.50903 0.18936 0.78776 0.0
C608 C 0.49917 0.11309 0.9357 0.0
C609 C 0.47939 0.06507 0.93942 0.0
C610 C 0.49384 0.13041 0.90616 0.0
C611 C 0.46789 0.09999 0.8799 0.0
C612 C 0.45007 0.05231 0.88324 0.0
C613 C 0.45619 0.03509 0.91256 0.0
C614 C 0.38657 0.10847 0.8112 0.0
C615 C 0.42503 0.1416 0.79146 0.0
C616 C 0.40093 0.09591 0.83988 0.0
C617 C 0.45409 0.1166 0.85018 0.0
C618 C 0.4927 0.15184 0.8317 0.0
C619 C 0.47833 0.16398 0.80238 0.0
H620 H 0.94788 0.39382 0.94409 0.0
H621 H 0.11159 0.48371 0.92174 0.0
H622 H 0.93242 0.35253 0.89307 0.0
H623 H 0.09509 0.44256 0.86952 0.0
H624 H 1.01267 0.37925 0.7667 0.0
H625 H 1.03524 0.42501 0.81668 0.0
H626 H 0.96685 0.29884 0.87007 0.0
H627 H 0.945 0.25265 0.81981 0.0
C628 C 0.98058 0.4054 0.92809 0.0
C629 C 1.03128 0.44206 0.93734 0.0
C630 C 0.97161 0.38129 0.89887 0.0
C631 C 1.01272 0.39352 0.87759 0.0
C632 C 0.06271 0.43211 0.88564 0.0
C633 C 0.07204 0.45599 0.91537 0.0
C634 C 1.0026 0.3611 0.78909 0.0
C635 C 0.97655 0.31213 0.78923 0.0
C636 C 1.01597 0.38749 0.81772 0.0
C637 C 1.00271 0.36562 0.84728 0.0
C638 C 0.97731 0.31666 0.84757 0.0
C639 C 0.9649 0.29019 0.81886 0.0
H640 H 0.80199 0.6748 0.81812 0.0
H641 H 0.73667 0.53968 0.77118 0.0
H642 H 0.75671 0.63824 0.86684 0.0
H643 H 0.69077 0.50324 0.82042 0.0
H644 H 0.57895 0.54608 0.90739 0.0
H645 H 0.62529 0.56094 0.85707 0.0
H646 H 0.74099 0.5327 0.90176 0.0
H647 H 0.69412 0.51716 0.95243 0.0
C648 C 0.77894 0.63723 0.81829 0.0
C649 C 0.7729 0.61034 0.79044 0.0
C650 C 0.75303 0.61635 0.84631 0.0
C651 C 0.72037 0.568 0.84738 0.0
C652 C 0.71613 0.5406 0.82026 0.0
C653 C 0.74252 0.56155 0.79212 0.0
C654 C 0.61292 0.54099 0.90619 0.0
C655 C 0.63254 0.53007 0.93393 0.0
C656 C 0.63957 0.54974 0.87739 0.0
C657 C 0.68661 0.54793 0.87554 0.0
C658 C 0.70443 0.5338 0.90249 0.0
C659 C 0.67734 0.52456 0.9314 0.0
H660 H 0.85616 0.85323 0.45412 0.0
H661 H 0.69795 0.73511 0.45612 0.0
H662 H 0.8743 0.83442 0.50845 0.0
H663 H 0.7163 0.71688 0.50874 0.0
H664 H 0.78132 0.65926 0.58161 0.0
H665 H 0.77799 0.68756 0.52862 0.0
H666 H 0.8366 0.82582 0.56856 0.0
H667 H 0.84012 0.79751 0.62215 0.0
C668 C 0.82538 0.82362 0.46595 0.0
C669 C 0.77594 0.79542 0.45025 0.0
C670 C 0.83572 0.81288 0.497 0.0
C671 C 0.79696 0.77358 0.51256 0.0
C672 C 0.7474 0.74668 0.49718 0.0
C673 C 0.737 0.75744 0.46676 0.0
C674 C 0.79392 0.69579 0.57928 0.0
C675 C 0.81022 0.72588 0.60635 0.0
C676 C 0.79208 0.71203 0.54881 0.0
C677 C 0.80676 0.75889 0.54442 0.0
C678 C 0.82534 0.78962 0.57118 0.0
C679 C 0.82685 0.77324 0.60188 0.0
H680 H 0.21848 0.98752 0.44118 0.0
H681 H 0.30465 0.92692 0.48591 0.0
H682 H 0.24692 0.04492 0.48585 0.0
H683 H 0.33375 0.98443 0.52949 0.0
H684 H 0.42625 0.12027 0.58437 0.0
H685 H 0.39597 0.07251 0.53473 0.0
H686 H 0.23787 0.04863 0.54782 0.0
H687 H 0.26807 0.09567 0.59757 0.0
C688 C 0.24229 0.98561 0.46079 0.0
C689 C 0.25888 0.95219 0.45985 0.0
C690 C 0.2592 0.01892 0.48618 0.0
C691 C 0.29377 0.02004 0.51088 0.0
C692 C 0.30833 0.98543 0.51052 0.0
C693 C 0.29091 0.95194 0.48561 0.0
C694 C 0.38562 0.10649 0.57591 0.0
C695 C 0.34976 0.11231 0.59466 0.0
C696 C 0.36797 0.07846 0.54775 0.0
C697 C 0.31422 0.05616 0.53749 0.0
C698 C 0.27942 0.06527 0.55488 0.0
C699 C 0.29685 0.09253 0.58329 0.0
H700 H 1.00984 0.1926 0.61891 0.0
H701 H 0.89633 0.22935 0.58146 0.0
H702 H 0.05891 0.21825 0.56936 0.0
H703 H 0.94485 0.25463 0.53223 0.0
H704 H 0.08178 0.35942 0.47459 0.0
H705 H 1.03137 0.32357 0.52187 0.0
H706 H 0.05904 0.20787 0.50908 0.0
H707 H 0.10983 0.2438 0.46156 0.0
C708 C 0.99416 0.20437 0.59967 0.0
C709 C 0.94909 0.20891 0.6042 0.0
C710 C 1.02261 0.21956 0.57136 0.0
C711 C 1.0066 0.23967 0.5471 0.0
C712 C 0.95914 0.2405 0.5507 0.0
C713 C 0.93082 0.22532 0.57879 0.0
C714 C 0.0777 0.32657 0.48189 0.0
C715 C 0.09989 0.30458 0.46398 0.0
C716 C 0.04824 0.30571 0.50892 0.0
C717 C 1.04032 0.26237 0.51906 0.0
C718 C 0.06423 0.24117 0.50196 0.0
C719 C 0.09336 0.26186 0.47467 0.0
loop_
_geom_bond_atom_site_label_1
_geom_bond_atom_site_label_2
_geom_bond_distance
_geom_bond_site_symmetry_2
_ccdc_geom_bond_type
Tb0 O3 2.453 1_654 S
Tb0 O4 2.596 1_655 S
Tb0 O5 2.374 . S
Tb0 O13 2.343 . S
Tb0 O15 2.353 1_554 S
Tb0 O17 2.427 1_554 S
Tb0 O18 2.513 . S
C1 O5 1.250 1_455 S
C1 O7 1.263 . S
Tb2 O4 2.343 . S
Tb2 O7 2.353 . S
Tb2 O10 2.427 . S
Tb2 O11 2.513 1_554 S
Tb2 O12 2.453 1_455 S
Tb2 O13 2.596 1_455 S
Tb2 O14 2.374 1_554 S
O3 Tb0 2.453 1_456 S
O3 C19 1.245 1_556 S
O4 Tb0 2.596 1_455 S
O4 Tb2 2.343 . S
O4 C19 1.259 . S
O5 Tb0 2.374 . S
O5 C1 1.250 1_655 S
C6 O10 1.275 1_556 S
C6 O11 1.246 . S
O7 C1 1.263 . S
O7 Tb2 2.353 . S
C8 O12 1.245 . S
C8 O13 1.259 . S
C9 O14 1.250 1_655 S
C9 O15 1.263 . S
O10 Tb2 2.427 . S
O10 C6 1.275 1_554 S
O11 Tb2 2.513 1_556 S
O11 C6 1.246 . S
O12 Tb2 2.453 1_655 S
O12 C8 1.245 . S
O13 Tb0 2.343 . S
O13 Tb2 2.596 1_655 S
O13 C8 1.259 . S
O14 Tb2 2.374 1_556 S
O14 C9 1.250 1_455 S
O15 Tb0 2.353 1_556 S
O15 C9 1.263 . S
C16 O17 1.275 1_554 S
C16 O18 1.246 . S
O17 Tb0 2.427 1_556 S
O17 C16 1.275 1_556 S
O18 Tb0 2.513 . S
O18 C16 1.246 . S
C19 O3 1.245 1_554 S
C19 O4 1.259 . S
Tb20 O23 2.453 . S
Tb20 O24 2.596 . S
Tb20 O25 2.374 1_554 S
Tb20 O33 2.343 . S
Tb20 O35 2.353 . S
Tb20 O37 2.427 . S
Tb20 O38 2.513 1_554 S
C21 O25 1.251 . S
C21 O27 1.263 . S
Tb22 O24 2.343 . S
Tb22 O27 2.353 1_554 S
Tb22 O30 2.427 1_554 S
Tb22 O31 2.513 . S
Tb22 O32 2.453 1_554 S
Tb22 O33 2.596 . S
Tb22 O34 2.374 . S
O23 Tb20 2.453 . S
O23 C39 1.245 . S
O24 Tb20 2.596 . S
O24 Tb22 2.343 . S
O24 C39 1.259 . S
O25 Tb20 2.374 1_556 S
O25 C21 1.251 . S
C26 O30 1.275 1_554 S
C26 O31 1.246 . S
O27 C21 1.263 . S
O27 Tb22 2.353 1_556 S
C28 O32 1.245 1_554 S
C28 O33 1.259 . S
C29 O34 1.250 . S
C29 O35 1.263 . S
O30 Tb22 2.427 1_556 S
O30 C26 1.275 1_556 S
O31 Tb22 2.513 . S
O31 C26 1.246 . S
O32 Tb22 2.453 1_556 S
O32 C28 1.245 1_556 S
O33 Tb20 2.343 . S
O33 Tb22 2.596 . S
O33 C28 1.259 . S
O34 Tb22 2.374 . S
O34 C29 1.250 . S
O35 Tb20 2.353 . S
O35 C29 1.263 . S
C36 O37 1.275 1_556 S
C36 O38 1.246 . S
O37 Tb20 2.427 . S
O37 C36 1.275 1_554 S
O38 Tb20 2.513 1_556 S
O38 C36 1.246 . S
C39 O23 1.245 . S
C39 O24 1.259 . S
Tb40 O43 2.453 1_544 S
Tb40 O44 2.596 1_545 S
Tb40 O45 2.374 . S
Tb40 O53 2.343 . S
Tb40 O55 2.353 1_554 S
Tb40 O57 2.427 1_554 S
Tb40 O58 2.513 . S
C41 O45 1.251 1_565 S
C41 O47 1.263 . S
Tb42 O44 2.343 . S
Tb42 O47 2.353 . S
Tb42 O50 2.427 . S
Tb42 O51 2.513 1_554 S
Tb42 O52 2.453 1_565 S
Tb42 O53 2.596 1_565 S
Tb42 O54 2.379 1_554 S
O43 Tb40 2.453 1_566 S
O43 C59 1.245 1_556 S
O44 Tb40 2.596 1_565 S
O44 Tb42 2.343 . S
O44 C59 1.259 . S
O45 Tb40 2.374 . S
O45 C41 1.251 1_545 S
C46 O50 1.275 1_556 S
C46 O51 1.246 . S
O47 C41 1.263 . S
O47 Tb42 2.353 . S
C48 O52 1.245 . S
C48 O53 1.259 . S
C49 O54 1.239 1_545 S
C49 O55 1.263 . S
O50 Tb42 2.427 . S
O50 C46 1.275 1_554 S
O51 Tb42 2.513 1_556 S
O51 C46 1.246 . S
O52 Tb42 2.453 1_545 S
O52 C48 1.245 . S
O53 Tb40 2.343 . S
O53 Tb42 2.596 1_545 S
O53 C48 1.259 . S
O54 Tb42 2.379 1_556 S
O54 C49 1.239 1_565 S
O55 Tb40 2.353 1_556 S
O55 C49 1.263 . S
C56 O57 1.275 1_554 S
C56 O58 1.246 . S
O57 Tb40 2.427 1_556 S
O57 C56 1.275 1_556 S
O58 Tb40 2.513 . S
O58 C56 1.246 . S
C59 O43 1.245 1_554 S
C59 O44 1.259 . S
Tb60 O63 2.453 . S
Tb60 O64 2.596 . S
Tb60 O65 2.374 . S
Tb60 O73 2.343 . S
Tb60 O75 2.353 . S
Tb60 O77 2.427 . S
Tb60 O78 2.513 . S
C61 O65 1.251 . S
C61 O67 1.263 . S
Tb62 O64 2.343 . S
Tb62 O67 2.353 . S
Tb62 O70 2.427 . S
Tb62 O71 2.513 . S
Tb62 O72 2.453 . S
Tb62 O73 2.596 . S
Tb62 O74 2.374 . S
O63 Tb60 2.453 . S
O63 C79 1.245 . S
O64 Tb60 2.596 . S
O64 Tb62 2.343 . S
O64 C79 1.259 . S
O65 Tb60 2.374 . S
O65 C61 1.251 . S
C66 O70 1.275 . S
C66 O71 1.246 . S
O67 C61 1.263 . S
O67 Tb62 2.353 . S
C68 O72 1.245 . S
C68 O73 1.259 . S
C69 O74 1.250 . S
C69 O75 1.263 . S
O70 Tb62 2.427 . S
O70 C66 1.275 . S
O71 Tb62 2.513 . S
O71 C66 1.246 . S
O72 Tb62 2.453 . S
O72 C68 1.245 . S
O73 Tb60 2.343 . S
O73 Tb62 2.596 . S
O73 C68 1.259 . S
O74 Tb62 2.374 . S
O74 C69 1.250 . S
O75 Tb60 2.353 . S
O75 C69 1.263 . S
C76 O77 1.275 . S
C76 O78 1.246 . S
O77 Tb60 2.427 . S
O77 C76 1.275 . S
O78 Tb60 2.513 . S
O78 C76 1.246 . S
C79 O63 1.245 . S
C79 O64 1.259 . S
Tb80 O83 2.453 . S
Tb80 O84 2.596 . S
Tb80 O85 2.374 . S
Tb80 O93 2.343 . S
Tb80 O95 2.353 . S
Tb80 O97 2.427 . S
Tb80 O98 2.513 . S
C81 O85 1.251 . S
C81 O87 1.263 . S
Tb82 O84 2.343 . S
Tb82 O87 2.353 . S
Tb82 O90 2.427 . S
Tb82 O91 2.513 . S
Tb82 O92 2.453 . S
Tb82 O93 2.596 . S
Tb82 O94 2.374 . S
O83 Tb80 2.453 . S
O83 C99 1.245 . S
O84 Tb80 2.596 . S
O84 Tb82 2.343 . S
O84 C99 1.259 . S
O85 Tb80 2.374 . S
O85 C81 1.251 . S
C86 O90 1.275 . S
C86 O91 1.246 . S
O87 C81 1.263 . S
O87 Tb82 2.353 . S
C88 O92 1.245 . S
C88 O93 1.259 . S
C89 O94 1.250 . S
C89 O95 1.263 . S
O90 Tb82 2.427 . S
O90 C86 1.275 . S
O91 Tb82 2.513 . S
O91 C86 1.246 . S
O92 Tb82 2.453 . S
O92 C88 1.245 . S
O93 Tb80 2.343 . S
O93 Tb82 2.596 . S
O93 C88 1.259 . S
O94 Tb82 2.374 . S
O94 C89 1.250 . S
O95 Tb80 2.353 . S
O95 C89 1.263 . S
C96 O97 1.275 . S
C96 O98 1.246 . S
O97 Tb80 2.427 . S
O97 C96 1.275 . S
O98 Tb80 2.513 . S
O98 C96 1.246 . S
C99 O83 1.245 . S
C99 O84 1.259 . S
Tb100 O103 2.453 . S
Tb100 O104 2.596 . S
Tb100 O105 2.374 . S
Tb100 O113 2.343 . S
Tb100 O115 2.353 . S
Tb100 O117 2.427 . S
Tb100 O118 2.513 . S
C101 O105 1.251 . S
C101 O107 1.263 . S
Tb102 O104 2.343 . S
Tb102 O107 2.353 . S
Tb102 O110 2.427 . S
Tb102 O111 2.513 . S
Tb102 O112 2.453 . S
Tb102 O113 2.596 . S
Tb102 O114 2.374 . S
O103 Tb100 2.453 . S
O103 C119 1.245 . S
O104 Tb100 2.596 . S
O104 Tb102 2.343 . S
O104 C119 1.259 . S
O105 Tb100 2.374 . S
O105 C101 1.251 . S
C106 O110 1.275 . S
C106 O111 1.246 . S
O107 C101 1.263 . S
O107 Tb102 2.353 . S
C108 O112 1.245 . S
C108 O113 1.259 . S
C109 O114 1.250 . S
C109 O115 1.263 . S
O110 Tb102 2.427 . S
O110 C106 1.275 . S
O111 Tb102 2.513 . S
O111 C106 1.246 . S
O112 Tb102 2.453 . S
O112 C108 1.245 . S
O113 Tb100 2.343 . S
O113 Tb102 2.596 . S
O113 C108 1.259 . S
O114 Tb102 2.374 . S
O114 C109 1.250 . S
O115 Tb100 2.353 . S
O115 C109 1.263 . S
C116 O117 1.275 . S
C116 O118 1.246 . S
O117 Tb100 2.427 . S
O117 C116 1.275 . S
O118 Tb100 2.513 . S
O118 C116 1.246 . S
C119 O103 1.245 . S
C119 O104 1.259 . S
Tb120 O123 2.453 . S
Tb120 O124 2.596 . S
Tb120 O125 2.374 . S
Tb120 O133 2.343 . S
Tb120 O135 2.353 . S
Tb120 O137 2.427 . S
Tb120 O138 2.513 . S
C121 O125 1.251 . S
C121 O127 1.263 . S
Tb122 O124 2.343 . S
Tb122 O127 2.353 . S
Tb122 O130 2.427 . S
Tb122 O131 2.513 . S
Tb122 O132 2.453 . S
Tb122 O133 2.596 . S
Tb122 O134 2.374 . S
O123 Tb120 2.453 . S
O123 C139 1.245 . S
O124 Tb120 2.596 . S
O124 Tb122 2.343 . S
O124 C139 1.259 . S
O125 Tb120 2.374 . S
O125 C121 1.251 . S
C126 O130 1.275 . S
C126 O131 1.246 . S
O127 C121 1.263 . S
O127 Tb122 2.353 . S
C128 O132 1.245 . S
C128 O133 1.259 . S
C129 O134 1.250 . S
C129 O135 1.263 . S
O130 Tb122 2.427 . S
O130 C126 1.275 . S
O131 Tb122 2.513 . S
O131 C126 1.246 . S
O132 Tb122 2.453 . S
O132 C128 1.245 . S
O133 Tb120 2.343 . S
O133 Tb122 2.596 . S
O133 C128 1.259 . S
O134 Tb122 2.374 . S
O134 C129 1.250 . S
O135 Tb120 2.353 . S
O135 C129 1.263 . S
C136 O137 1.275 . S
C136 O138 1.246 . S
O137 Tb120 2.427 . S
O137 C136 1.275 . S
O138 Tb120 2.513 . S
O138 C136 1.246 . S
C139 O123 1.245 . S
C139 O124 1.259 . S
Tb140 O143 2.453 . S
Tb140 O144 2.596 . S
Tb140 O145 2.374 . S
Tb140 O153 2.343 . S
Tb140 O155 2.353 . S
Tb140 O157 2.427 . S
Tb140 O158 2.513 . S
C141 O145 1.251 . S
C141 O147 1.263 . S
Tb142 O144 2.343 . S
Tb142 O147 2.353 . S
Tb142 O150 2.427 . S
Tb142 O151 2.513 . S
Tb142 O152 2.453 . S
Tb142 O153 2.596 . S
Tb142 O154 2.374 . S
O143 Tb140 2.453 . S
O143 C159 1.245 . S
O144 Tb140 2.596 . S
O144 Tb142 2.343 . S
O144 C159 1.259 . S
O145 Tb140 2.374 . S
O145 C141 1.251 . S
C146 O150 1.275 . S
C146 O151 1.246 . S
O147 C141 1.263 . S
O147 Tb142 2.353 . S
C148 O152 1.245 . S
C148 O153 1.259 . S
C149 O154 1.250 . S
C149 O155 1.263 . S
O150 Tb142 2.427 . S
O150 C146 1.275 . S
O151 Tb142 2.513 . S
O151 C146 1.246 . S
O152 Tb142 2.453 . S
O152 C148 1.245 . S
O153 Tb140 2.343 . S
O153 Tb142 2.596 . S
O153 C148 1.259 . S
O154 Tb142 2.374 . S
O154 C149 1.250 . S
O155 Tb140 2.353 . S
O155 C149 1.263 . S
C156 O157 1.275 . S
C156 O158 1.246 . S
O157 Tb140 2.427 . S
O157 C156 1.275 . S
O158 Tb140 2.513 . S
O158 C156 1.246 . S
C159 O143 1.245 . S
C159 O144 1.259 . S
Tb160 O163 2.453 . S
Tb160 O164 2.596 . S
Tb160 O165 2.374 . S
Tb160 O173 2.343 . S
Tb160 O175 2.353 . S
Tb160 O177 2.427 . S
Tb160 O178 2.513 . S
C161 O165 1.251 . S
C161 O167 1.263 . S
Tb162 O164 2.343 . S
Tb162 O167 2.353 . S
Tb162 O170 2.427 . S
Tb162 O171 2.513 . S
Tb162 O172 2.453 . S
Tb162 O173 2.596 . S
Tb162 O174 2.374 . S
O163 Tb160 2.453 . S
O163 C179 1.245 . S
O164 Tb160 2.596 . S
O164 Tb162 2.343 . S
O164 C179 1.259 . S
O165 Tb160 2.374 . S
O165 C161 1.251 . S
C166 O170 1.275 . S
C166 O171 1.246 . S
O167 C161 1.263 . S
O167 Tb162 2.353 . S
C168 O172 1.245 . S
C168 O173 1.259 . S
C169 O174 1.250 . S
C169 O175 1.263 . S
O170 Tb162 2.427 . S
O170 C166 1.275 . S
O171 Tb162 2.513 . S
O171 C166 1.246 . S
O172 Tb162 2.453 . S
O172 C168 1.245 . S
O173 Tb160 2.343 . S
O173 Tb162 2.596 . S
O173 C168 1.259 . S
O174 Tb162 2.374 . S
O174 C169 1.250 . S
O175 Tb160 2.353 . S
O175 C169 1.263 . S
C176 O177 1.275 . S
C176 O178 1.246 . S
O177 Tb160 2.427 . S
O177 C176 1.275 . S
O178 Tb160 2.513 . S
O178 C176 1.246 . S
C179 O163 1.245 . S
C179 O164 1.259 . S
H180 C188 0.950 . S
H181 C193 0.950 . S
H182 C190 0.950 . S
H183 C192 0.950 . S
H184 C194 0.950 . S
H185 C196 0.950 . S
H186 C198 0.950 . S
H187 C199 0.950 . S
C188 H180 0.950 . S
C188 C189 1.386 1_556 S
C188 C190 1.391 . S
C189 C188 1.386 1_554 S
C189 C193 1.393 . S
C190 H182 0.950 . S
C190 C188 1.391 . S
C190 C191 1.400 1_556 S
C191 C190 1.400 1_554 S
C191 C192 1.398 . S
C191 C197 1.491 . S
C192 H183 0.950 . S
C192 C191 1.398 . S
C192 C193 1.391 . S
C193 H181 0.950 . S
C193 C189 1.393 . S
C193 C192 1.391 . S
C194 H184 0.950 . S
C194 C195 1.386 . S
C194 C196 1.391 . S
C195 C194 1.386 . S
C195 C199 1.393 1_554 S
C196 H185 0.950 . S
C196 C194 1.391 . S
C196 C197 1.400 . S
C197 C191 1.491 . S
C197 C196 1.400 . S
C197 C198 1.398 1_554 S
C198 H186 0.950 . S
C198 C197 1.398 1_556 S
C198 C199 1.391 . S
C199 H187 0.950 . S
C199 C195 1.393 1_556 S
C199 C198 1.391 . S
H200 C208 0.950 . S
H201 C213 0.950 . S
H202 C210 0.950 . S
H203 C212 0.950 . S
H204 C214 0.950 . S
H205 C216 0.950 . S
H206 C218 0.950 . S
H207 C219 0.950 . S
C208 H200 0.950 . S
C208 C209 1.386 1_554 S
C208 C210 1.391 . S
C209 C208 1.386 1_556 S
C209 C213 1.393 . S
C210 H202 0.950 . S
C210 C208 1.391 . S
C210 C211 1.400 1_554 S
C211 C210 1.400 1_556 S
C211 C212 1.398 . S
C211 C217 1.491 . S
C212 H203 0.950 . S
C212 C211 1.398 . S
C212 C213 1.391 . S
C213 H201 0.950 . S
C213 C209 1.393 . S
C213 C212 1.391 . S
C214 H204 0.950 . S
C214 C215 1.386 . S
C214 C216 1.391 . S
C215 C214 1.386 . S
C215 C219 1.393 1_556 S
C216 H205 0.950 . S
C216 C214 1.391 . S
C216 C217 1.400 . S
C217 C211 1.491 . S
C217 C216 1.400 . S
C217 C218 1.398 1_556 S
C218 H206 0.950 . S
C218 C217 1.398 1_554 S
C218 C219 1.391 . S
C219 H207 0.950 . S
C219 C215 1.393 1_554 S
C219 C218 1.391 . S
H220 C228 0.950 . S
H221 C233 0.950 . S
H222 C230 0.950 . S
H223 C232 0.950 . S
H224 C234 0.950 . S
H225 C236 0.950 . S
H226 C238 0.950 . S
H227 C239 0.950 . S
C228 H220 0.950 . S
C228 C229 1.386 1_556 S
C228 C230 1.391 . S
C229 C228 1.386 1_554 S
C229 C233 1.393 . S
C230 H222 0.950 . S
C230 C228 1.391 . S
C230 C231 1.400 1_556 S
C231 C230 1.400 1_554 S
C231 C232 1.398 . S
C231 C237 1.492 . S
C232 H223 0.950 . S
C232 C231 1.398 . S
C232 C233 1.391 . S
C233 H221 0.950 . S
C233 C229 1.393 . S
C233 C232 1.391 . S
C234 H224 0.950 . S
C234 C235 1.386 1_554 S
C234 C236 1.391 . S
C235 C234 1.386 1_556 S
C235 C239 1.393 . S
C236 H225 0.950 . S
C236 C234 1.391 . S
C236 C237 1.433 . S
C237 C231 1.492 . S
C237 C236 1.433 . S
C237 C238 1.365 1_554 S
C238 H226 0.950 . S
C238 C237 1.365 1_556 S
C238 C239 1.391 . S
C239 H227 0.950 . S
C239 C235 1.393 . S
C239 C238 1.391 . S
H240 C248 0.950 . S
H241 C253 0.950 . S
H242 C250 0.950 . S
H243 C252 0.950 . S
H244 C254 0.950 . S
H245 C256 0.950 . S
H246 C258 0.950 1_556 S
H247 C259 0.950 1_556 S
C248 H240 0.950 . S
C248 C249 1.386 . S
C248 C250 1.391 . S
C249 C248 1.386 . S
C249 C253 1.393 . S
C250 H242 0.950 . S
C250 C248 1.391 . S
C250 C251 1.400 . S
C251 C250 1.400 . S
C251 C252 1.398 . S
C251 C257 1.491 . S
C252 H243 0.950 . S
C252 C251 1.398 . S
C252 C253 1.391 . S
C253 H241 0.950 . S
C253 C249 1.393 . S
C253 C252 1.391 . S
C254 H244 0.950 . S
C254 C255 1.386 . S
C254 C256 1.391 . S
C255 C254 1.386 . S
C255 C259 1.393 . S
C256 H245 0.950 . S
C256 C254 1.391 . S
C256 C257 1.400 . S
C257 C251 1.491 . S
C257 C256 1.400 . S
C257 C258 1.398 . S
C258 H246 0.950 1_554 S
C258 C257 1.398 . S
C258 C259 1.391 . S
C259 H247 0.950 1_554 S
C259 C255 1.393 . S
C259 C258 1.391 . S
H260 C268 0.950 . S
H261 C273 0.950 . S
H262 C270 0.950 . S
H263 C272 0.950 . S
H264 C274 0.950 . S
H265 C276 0.950 . S
H266 C278 0.950 . S
H267 C279 0.950 . S
C268 H260 0.950 . S
C268 C269 1.402 . S
C268 C270 1.391 . S
C269 C268 1.402 . S
C269 C273 1.377 1_554 S
C270 H262 0.950 . S
C270 C268 1.391 . S
C270 C271 1.400 . S
C271 C270 1.400 . S
C271 C272 1.398 1_554 S
C271 C277 1.491 . S
C272 H263 0.950 . S
C272 C271 1.398 1_556 S
C272 C273 1.391 . S
C273 H261 0.950 . S
C273 C269 1.377 1_556 S
C273 C272 1.391 . S
C274 H264 0.950 . S
C274 C275 1.386 1_556 S
C274 C276 1.391 . S
C275 C274 1.386 1_554 S
C275 C279 1.393 . S
C276 H265 0.950 . S
C276 C274 1.391 . S
C276 C277 1.400 1_556 S
C277 C271 1.491 . S
C277 C276 1.400 1_554 S
C277 C278 1.398 . S
C278 H266 0.950 . S
C278 C277 1.398 . S
C278 C279 1.391 . S
C279 H267 0.950 . S
C279 C275 1.393 . S
C279 C278 1.391 . S
H280 C288 0.950 . S
H281 C293 0.950 . S
H282 C290 0.950 . S
H283 C292 0.950 . S
H284 C294 0.950 . S
H285 C296 0.950 . S
H286 C298 0.950 . S
H287 C299 0.950 . S
C288 H280 0.950 . S
C288 C289 1.409 . S
C288 C290 1.391 . S
C289 C288 1.409 . S
C289 C293 1.370 1_556 S
C290 H282 0.950 . S
C290 C288 1.391 . S
C290 C291 1.419 . S
C291 C290 1.419 . S
C291 C292 1.381 1_556 S
C291 C297 1.490 . S
C292 H283 0.950 . S
C292 C291 1.381 1_554 S
C292 C293 1.391 . S
C293 H281 0.950 . S
C293 C289 1.370 1_554 S
C293 C292 1.391 . S
C294 H284 0.950 . S
C294 C295 1.386 1_554 S
C294 C296 1.391 . S
C295 C294 1.386 1_556 S
C295 C299 1.393 . S
C296 H285 0.950 . S
C296 C294 1.391 . S
C296 C297 1.395 1_554 S
C297 C291 1.490 . S
C297 C296 1.395 1_556 S
C297 C298 1.403 . S
C298 H286 0.950 . S
C298 C297 1.403 . S
C298 C299 1.391 . S
C299 H287 0.950 . S
C299 C295 1.393 . S
C299 C298 1.391 . S
H300 C308 0.950 . S
H301 C313 0.950 . S
H302 C310 0.950 . S
H303 C312 0.950 . S
H304 C314 0.950 . S
H305 C316 0.950 . S
H306 C318 0.950 . S
H307 C319 0.950 . S
C308 H300 0.950 . S
C308 C309 1.386 . S
C308 C310 1.391 . S
C309 C308 1.386 . S
C309 C313 1.393 . S
C310 H302 0.950 . S
C310 C308 1.391 . S
C310 C311 1.400 . S
C311 C310 1.400 . S
C311 C312 1.398 . S
C311 C317 1.491 . S
C312 H303 0.950 . S
C312 C311 1.398 . S
C312 C313 1.391 . S
C313 H301 0.950 . S
C313 C309 1.393 . S
C313 C312 1.391 . S
C314 H304 0.950 . S
C314 C315 1.386 . S
C314 C316 1.391 1_455 S
C315 C314 1.386 . S
C315 C319 1.393 . S
C316 H305 0.950 . S
C316 C314 1.391 1_655 S
C316 C317 1.400 . S
C317 C311 1.491 . S
C317 C316 1.400 . S
C317 C318 1.398 . S
C318 H306 0.950 . S
C318 C317 1.398 . S
C318 C319 1.391 1_655 S
C319 H307 0.950 . S
C319 C315 1.393 . S
C319 C318 1.391 1_455 S
H320 C328 0.950 . S
H321 C333 0.950 . S
H322 C330 0.950 . S
H323 C332 0.950 . S
H324 C334 0.950 . S
H325 C336 0.950 . S
H326 C338 0.950 . S
H327 C339 0.950 1_565 S
C328 H320 0.950 . S
C328 C329 1.386 . S
C328 C330 1.391 . S
C329 C328 1.386 . S
C329 C333 1.393 . S
C330 H322 0.950 . S
C330 C328 1.391 . S
C330 C331 1.400 . S
C331 C330 1.400 . S
C331 C332 1.398 . S
C331 C337 1.491 . S
C332 H323 0.950 . S
C332 C331 1.398 . S
C332 C333 1.391 . S
C333 H321 0.950 . S
C333 C329 1.393 . S
C333 C332 1.391 . S
C334 H324 0.950 . S
C334 C335 1.386 1_545 S
C334 C336 1.391 . S
C335 C334 1.386 1_565 S
C335 C339 1.393 1_565 S
C336 H325 0.950 . S
C336 C334 1.391 . S
C336 C337 1.400 . S
C337 C331 1.491 . S
C337 C336 1.400 . S
C337 C338 1.398 . S
C338 H326 0.950 . S
C338 C337 1.398 . S
C338 C339 1.391 . S
C339 H327 0.950 1_545 S
C339 C335 1.393 1_545 S
C339 C338 1.391 . S
H340 C348 0.950 . S
H341 C353 0.950 . S
H342 C350 0.950 1_455 S
H343 C352 0.950 . S
H344 C354 0.950 1_565 S
H345 C356 0.950 . S
H346 C358 0.950 . S
H347 C359 0.950 . S
C348 H340 0.950 . S
C348 C349 1.386 . S
C348 C350 1.391 1_455 S
C349 C348 1.386 . S
C349 C353 1.393 1_455 S
C350 H342 0.950 1_655 S
C350 C348 1.391 1_655 S
C350 C351 1.400 . S
C351 C350 1.400 . S
C351 C352 1.398 . S
C351 C357 1.491 . S
C352 H343 0.950 . S
C352 C351 1.398 . S
C352 C353 1.391 . S
C353 H341 0.950 . S
C353 C349 1.393 1_655 S
C353 C352 1.391 . S
C354 H344 0.950 1_545 S
C354 C355 1.386 1_545 S
C354 C356 1.391 . S
C355 C354 1.386 1_565 S
C355 C359 1.393 . S
C356 H345 0.950 . S
C356 C354 1.391 . S
C356 C357 1.400 . S
C357 C351 1.491 . S
C357 C356 1.400 . S
C357 C358 1.398 . S
C358 H346 0.950 . S
C358 C357 1.398 . S
C358 C359 1.391 1_545 S
C359 H347 0.950 . S
C359 C355 1.393 . S
C359 C358 1.391 1_565 S
H360 C368 0.950 . S
H361 C373 0.950 . S
H362 C370 0.950 . S
H363 C372 0.950 . S
H364 C374 0.950 . S
H365 C376 0.950 . S
H366 C378 0.950 . S
H367 C379 0.950 . S
C368 H360 0.950 . S
C368 C369 1.386 . S
C368 C370 1.391 . S
C369 C368 1.386 . S
C369 C373 1.393 . S
C370 H362 0.950 . S
C370 C368 1.391 . S
C370 C371 1.400 . S
C371 C370 1.400 . S
C371 C372 1.398 . S
C371 C377 1.491 . S
C372 H363 0.950 . S
C372 C371 1.398 . S
C372 C373 1.391 . S
C373 H361 0.950 . S
C373 C369 1.393 . S
C373 C372 1.391 . S
C374 H364 0.950 . S
C374 C375 1.386 . S
C374 C376 1.391 . S
C375 C374 1.386 . S
C375 C379 1.393 . S
C376 H365 0.950 . S
C376 C374 1.391 . S
C376 C377 1.400 . S
C377 C371 1.491 . S
C377 C376 1.400 . S
C377 C378 1.398 . S
C378 H366 0.950 . S
C378 C377 1.398 . S
C378 C379 1.391 . S
C379 H367 0.950 . S
C379 C375 1.393 . S
C379 C378 1.391 . S
H380 C388 0.950 . S
H381 C393 0.950 . S
H382 C390 0.950 . S
H383 C392 0.950 . S
H384 C394 0.950 . S
H385 C396 0.950 . S
H386 C398 0.950 . S
H387 C399 0.950 . S
C388 H380 0.950 . S
C388 C389 1.386 . S
C388 C390 1.391 . S
C389 C388 1.386 . S
C389 C393 1.393 . S
C390 H382 0.950 . S
C390 C388 1.391 . S
C390 C391 1.400 . S
C391 C390 1.400 . S
C391 C392 1.398 . S
C391 C397 1.491 . S
C392 H383 0.950 . S
C392 C391 1.398 . S
C392 C393 1.391 . S
C393 H381 0.950 . S
C393 C389 1.393 . S
C393 C392 1.391 . S
C394 H384 0.950 . S
C394 C395 1.386 . S
C394 C396 1.391 . S
C395 C394 1.386 . S
C395 C399 1.393 . S
C396 H385 0.950 . S
C396 C394 1.391 . S
C396 C397 1.400 . S
C397 C391 1.491 . S
C397 C396 1.400 . S
C397 C398 1.398 . S
C398 H386 0.950 . S
C398 C397 1.398 . S
C398 C399 1.391 . S
C399 H387 0.950 . S
C399 C395 1.393 . S
C399 C398 1.391 . S
H400 C408 0.950 . S
H401 C413 0.950 . S
H402 C410 0.950 . S
H403 C412 0.950 . S
H404 C414 0.950 . S
H405 C416 0.950 . S
H406 C418 0.950 . S
H407 C419 0.950 . S
C408 H400 0.950 . S
C408 C409 1.386 . S
C408 C410 1.391 . S
C409 C408 1.386 . S
C409 C413 1.393 . S
C410 H402 0.950 . S
C410 C408 1.391 . S
C410 C411 1.400 . S
C411 C410 1.400 . S
C411 C412 1.398 . S
C411 C417 1.491 . S
C412 H403 0.950 . S
C412 C411 1.398 . S
C412 C413 1.391 . S
C413 H401 0.950 . S
C413 C409 1.393 . S
C413 C412 1.391 . S
C414 H404 0.950 . S
C414 C415 1.386 . S
C414 C416 1.391 . S
C415 C414 1.386 . S
C415 C419 1.393 . S
C416 H405 0.950 . S
C416 C414 1.391 . S
C416 C417 1.400 . S
C417 C411 1.491 . S
C417 C416 1.400 . S
C417 C418 1.398 . S
C418 H406 0.950 . S
C418 C417 1.398 . S
C418 C419 1.391 . S
C419 H407 0.950 . S
C419 C415 1.393 . S
C419 C418 1.391 . S
H420 C428 0.950 . S
H421 C433 0.950 . S
H422 C430 0.950 . S
H423 C432 0.950 . S
H424 C434 0.950 . S
H425 C436 0.950 . S
H426 C438 0.950 . S
H427 C439 0.950 . S
C428 H420 0.950 . S
C428 C429 1.386 . S
C428 C430 1.391 . S
C429 C428 1.386 . S
C429 C433 1.393 . S
C430 H422 0.950 . S
C430 C428 1.391 . S
C430 C431 1.400 . S
C431 C430 1.400 . S
C431 C432 1.398 . S
C431 C437 1.491 . S
C432 H423 0.950 . S
C432 C431 1.398 . S
C432 C433 1.391 . S
C433 H421 0.950 . S
C433 C429 1.393 . S
C433 C432 1.391 . S
C434 H424 0.950 . S
C434 C435 1.386 . S
C434 C436 1.391 . S
C435 C434 1.386 . S
C435 C439 1.393 . S
C436 H425 0.950 . S
C436 C434 1.391 . S
C436 C437 1.400 . S
C437 C431 1.491 . S
C437 C436 1.400 . S
C437 C438 1.398 . S
C438 H426 0.950 . S
C438 C437 1.398 . S
C438 C439 1.391 . S
C439 H427 0.950 . S
C439 C435 1.393 . S
C439 C438 1.391 . S
H440 C448 0.950 . S
H441 C453 0.950 . S
H442 C450 0.950 . S
H443 C452 0.950 . S
H444 C454 0.950 . S
H445 C456 0.950 . S
H446 C458 0.950 . S
H447 C459 0.950 . S
C448 H440 0.950 . S
C448 C449 1.386 . S
C448 C450 1.391 . S
C449 C448 1.386 . S
C449 C453 1.393 . S
C450 H442 0.950 . S
C450 C448 1.391 . S
C450 C451 1.400 . S
C451 C450 1.400 . S
C451 C452 1.398 . S
C451 C457 1.491 . S
C452 H443 0.950 . S
C452 C451 1.398 . S
C452 C453 1.391 . S
C453 H441 0.950 . S
C453 C449 1.393 . S
C453 C452 1.391 . S
C454 H444 0.950 . S
C454 C455 1.386 . S
C454 C456 1.391 . S
C455 C454 1.386 . S
C455 C459 1.393 . S
C456 H445 0.950 . S
C456 C454 1.391 . S
C456 C457 1.400 . S
C457 C451 1.491 . S
C457 C456 1.400 . S
C457 C458 1.398 . S
C458 H446 0.950 . S
C458 C457 1.398 . S
C458 C459 1.391 . S
C459 H447 0.950 . S
C459 C455 1.393 . S
C459 C458 1.391 . S
H460 C468 0.950 . S
H461 C473 0.950 . S
H462 C470 0.950 . S
H463 C472 0.950 . S
H464 C474 0.950 . S
H465 C476 0.950 . S
H466 C478 0.950 . S
H467 C479 0.950 . S
C468 H460 0.950 . S
C468 C469 1.386 . S
C468 C470 1.391 . S
C469 C468 1.386 . S
C469 C473 1.393 . S
C470 H462 0.950 . S
C470 C468 1.391 . S
C470 C471 1.400 . S
C471 C470 1.400 . S
C471 C472 1.398 . S
C471 C477 1.491 . S
C472 H463 0.950 . S
C472 C471 1.398 . S
C472 C473 1.391 . S
C473 H461 0.950 . S
C473 C469 1.393 . S
C473 C472 1.391 . S
C474 H464 0.950 . S
C474 C475 1.386 . S
C474 C476 1.391 . S
C475 C474 1.386 . S
C475 C479 1.393 . S
C476 H465 0.950 . S
C476 C474 1.391 . S
C476 C477 1.400 . S
C477 C471 1.491 . S
C477 C476 1.400 . S
C477 C478 1.398 . S
C478 H466 0.950 . S
C478 C477 1.398 . S
C478 C479 1.391 . S
C479 H467 0.950 . S
C479 C475 1.393 . S
C479 C478 1.391 . S
H480 C488 0.950 . S
H481 C493 0.950 . S
H482 C490 0.950 . S
H483 C492 0.950 . S
H484 C494 0.950 . S
H485 C496 0.950 . S
H486 C498 0.942 1_565 S
H487 C499 0.950 . S
C488 H480 0.950 . S
C488 C489 1.386 . S
C488 C490 1.391 . S
C489 C488 1.386 . S
C489 C493 1.393 . S
C490 H482 0.950 . S
C490 C488 1.391 . S
C490 C491 1.400 . S
C491 C490 1.400 . S
C491 C492 1.398 . S
C491 C497 1.491 . S
C492 H483 0.950 . S
C492 C491 1.398 . S
C492 C493 1.391 . S
C493 H481 0.950 . S
C493 C489 1.393 . S
C493 C492 1.391 . S
C494 H484 0.950 . S
C494 C495 1.386 . S
C494 C496 1.391 1_545 S
C495 C494 1.386 . S
C495 C499 1.393 . S
C496 H485 0.950 . S
C496 C494 1.391 1_565 S
C496 C497 1.400 . S
C497 C491 1.491 . S
C497 C496 1.400 . S
C497 C498 1.398 1_565 S
C498 H486 0.942 1_545 S
C498 C497 1.398 1_545 S
C498 C499 1.391 . S
C499 H487 0.950 . S
C499 C495 1.393 . S
C499 C498 1.391 . S
H500 C508 0.950 . S
H501 C513 0.950 . S
H502 C510 0.950 . S
H503 C512 0.950 . S
H504 C514 0.950 . S
H505 C516 0.950 . S
H506 C518 0.950 . S
H507 C519 0.950 1_545 S
C508 H500 0.950 . S
C508 C509 1.386 . S
C508 C510 1.391 . S
C509 C508 1.386 . S
C509 C513 1.393 . S
C510 H502 0.950 . S
C510 C508 1.391 . S
C510 C511 1.400 1_655 S
C511 C510 1.400 1_455 S
C511 C512 1.398 . S
C511 C517 1.491 . S
C512 H503 0.950 . S
C512 C511 1.398 . S
C512 C513 1.391 1_455 S
C513 H501 0.950 . S
C513 C509 1.393 . S
C513 C512 1.391 1_655 S
C514 H504 0.950 . S
C514 C515 1.386 . S
C514 C516 1.391 . S
C515 C514 1.386 . S
C515 C519 1.393 . S
C516 H505 0.950 . S
C516 C514 1.391 . S
C516 C517 1.400 . S
C517 C511 1.491 . S
C517 C516 1.400 . S
C517 C518 1.398 . S
C518 H506 0.950 . S
C518 C517 1.398 . S
C518 C519 1.391 . S
C519 H507 0.950 1_565 S
C519 C515 1.393 . S
C519 C518 1.391 . S
H520 C528 0.950 . S
H521 C533 0.950 . S
H522 C530 0.950 . S
H523 C532 0.950 . S
H524 C534 0.950 1_655 S
H525 C536 0.950 . S
H526 C538 0.950 . S
H527 C539 0.950 . S
C528 H520 0.950 . S
C528 C529 1.386 . S
C528 C530 1.391 . S
C529 C528 1.386 . S
C529 C533 1.393 . S
C530 H522 0.950 . S
C530 C528 1.391 . S
C530 C531 1.400 . S
C531 C530 1.400 . S
C531 C532 1.398 . S
C531 C537 1.491 . S
C532 H523 0.950 . S
C532 C531 1.398 . S
C532 C533 1.391 . S
C533 H521 0.950 . S
C533 C529 1.393 . S
C533 C532 1.391 . S
C534 H524 0.950 1_455 S
C534 C535 1.386 . S
C534 C536 1.391 . S
C535 C534 1.386 . S
C535 C539 1.393 . S
C536 H525 0.950 . S
C536 C534 1.391 . S
C536 C537 1.400 . S
C537 C531 1.491 . S
C537 C536 1.400 . S
C537 C538 1.398 . S
C538 H526 0.950 . S
C538 C537 1.398 . S
C538 C539 1.391 . S
C539 H527 0.950 . S
C539 C535 1.393 . S
C539 C538 1.391 . S
H540 C548 0.950 . S
H541 C553 0.950 . S
H542 C550 0.950 . S
H543 C552 0.950 . S
H544 C554 0.950 . S
H545 C556 0.950 . S
H546 C558 0.950 . S
H547 C559 0.971 . S
C548 H540 0.950 . S
C548 C549 1.386 . S
C548 C550 1.391 . S
C549 C548 1.386 . S
C549 C553 1.393 . S
C550 H542 0.950 . S
C550 C548 1.391 . S
C550 C551 1.400 . S
C551 C550 1.400 . S
C551 C552 1.398 . S
C551 C557 1.491 . S
C552 H543 0.950 . S
C552 C551 1.398 . S
C552 C553 1.391 . S
C553 H541 0.950 . S
C553 C549 1.393 . S
C553 C552 1.391 . S
C554 H544 0.950 . S
C554 C555 1.386 . S
C554 C556 1.391 . S
C555 C554 1.386 . S
C555 C559 1.393 . S
C556 H545 0.950 . S
C556 C554 1.391 . S
C556 C557 1.400 . S
C557 C551 1.491 . S
C557 C556 1.400 . S
C557 C558 1.398 . S
C558 H546 0.950 . S
C558 C557 1.398 . S
C558 C559 1.391 . S
C559 H547 0.971 . S
C559 C555 1.393 . S
C559 C558 1.391 . S
H560 C568 0.950 . S
H561 C573 0.950 . S
H562 C570 0.950 . S
H563 C572 0.950 . S
H564 C574 0.950 . S
H565 C576 0.950 . S
H566 C578 0.950 . S
H567 C579 0.950 . S
C568 H560 0.950 . S
C568 C569 1.386 . S
C568 C570 1.391 . S
C569 C568 1.386 . S
C569 C573 1.393 . S
C570 H562 0.950 . S
C570 C568 1.391 . S
C570 C571 1.400 . S
C571 C570 1.400 . S
C571 C572 1.398 . S
C571 C577 1.491 . S
C572 H563 0.950 . S
C572 C571 1.398 . S
C572 C573 1.391 . S
C573 H561 0.950 . S
C573 C569 1.393 . S
C573 C572 1.391 . S
C574 H564 0.950 . S
C574 C575 1.386 . S
C574 C576 1.391 . S
C575 C574 1.386 . S
C575 C579 1.393 . S
C576 H565 0.950 . S
C576 C574 1.391 . S
C576 C577 1.400 . S
C577 C571 1.491 . S
C577 C576 1.400 . S
C577 C578 1.398 . S
C578 H566 0.950 . S
C578 C577 1.398 . S
C578 C579 1.391 . S
C579 H567 0.950 . S
C579 C575 1.393 . S
C579 C578 1.391 . S
H580 C588 0.950 . S
H581 C593 0.950 . S
H582 C590 0.950 . S
H583 C592 0.950 . S
H584 C594 0.950 . S
H585 C596 0.950 . S
H586 C598 0.950 . S
H587 C599 0.950 . S
C588 H580 0.950 . S
C588 C589 1.386 . S
C588 C590 1.391 . S
C589 C588 1.386 . S
C589 C593 1.393 . S
C590 H582 0.950 . S
C590 C588 1.391 . S
C590 C591 1.400 . S
C591 C590 1.400 . S
C591 C592 1.398 . S
C591 C597 1.491 . S
C592 H583 0.950 . S
C592 C591 1.398 . S
C592 C593 1.391 . S
C593 H581 0.950 . S
C593 C589 1.393 . S
C593 C592 1.391 . S
C594 H584 0.950 . S
C594 C595 1.386 . S
C594 C596 1.391 . S
C595 C594 1.386 . S
C595 C599 1.393 . S
C596 H585 0.950 . S
C596 C594 1.391 . S
C596 C597 1.400 . S
C597 C591 1.491 . S
C597 C596 1.400 . S
C597 C598 1.398 . S
C598 H586 0.950 . S
C598 C597 1.398 . S
C598 C599 1.391 . S
C599 H587 0.950 . S
C599 C595 1.393 . S
C599 C598 1.391 . S
H600 C608 0.950 . S
H601 C613 0.950 . S
H602 C610 0.950 . S
H603 C612 0.950 . S
H604 C614 0.950 . S
H605 C616 0.950 . S
H606 C618 0.950 . S
H607 C619 0.950 . S
C608 H600 0.950 . S
C608 C609 1.386 . S
C608 C610 1.391 . S
C609 C608 1.386 . S
C609 C613 1.393 . S
C610 H602 0.950 . S
C610 C608 1.391 . S
C610 C611 1.400 . S
C611 C610 1.400 . S
C611 C612 1.398 . S
C611 C617 1.491 . S
C612 H603 0.950 . S
C612 C611 1.398 . S
C612 C613 1.391 . S
C613 H601 0.950 . S
C613 C609 1.393 . S
C613 C612 1.391 . S
C614 H604 0.950 . S
C614 C615 1.386 . S
C614 C616 1.391 . S
C615 C614 1.386 . S
C615 C619 1.393 . S
C616 H605 0.950 . S
C616 C614 1.391 . S
C616 C617 1.400 . S
C617 C611 1.491 . S
C617 C616 1.400 . S
C617 C618 1.398 . S
C618 H606 0.950 . S
C618 C617 1.398 . S
C618 C619 1.391 . S
C619 H607 0.950 . S
C619 C615 1.393 . S
C619 C618 1.391 . S
H620 C628 0.950 . S
H621 C633 0.950 1_455 S
H622 C630 0.950 . S
H623 C632 0.950 . S
H624 C634 0.950 . S
H625 C636 0.950 . S
H626 C638 0.950 . S
H627 C639 0.950 . S
C628 H620 0.950 . S
C628 C629 1.386 . S
C628 C630 1.391 . S
C629 C628 1.386 . S
C629 C633 1.393 . S
C630 H622 0.950 . S
C630 C628 1.391 . S
C630 C631 1.400 . S
C631 C630 1.400 . S
C631 C632 1.398 . S
C631 C637 1.491 . S
C632 H623 0.950 . S
C632 C631 1.398 . S
C632 C633 1.391 . S
C633 H621 0.950 1_655 S
C633 C629 1.393 . S
C633 C632 1.391 . S
C634 H624 0.950 . S
C634 C635 1.386 . S
C634 C636 1.391 . S
C635 C634 1.386 . S
C635 C639 1.393 . S
C636 H625 0.950 . S
C636 C634 1.391 . S
C636 C637 1.400 . S
C637 C631 1.491 . S
C637 C636 1.400 . S
C637 C638 1.398 . S
C638 H626 0.950 . S
C638 C637 1.398 . S
C638 C639 1.391 . S
C639 H627 0.950 . S
C639 C635 1.393 . S
C639 C638 1.391 . S
H640 C648 0.950 . S
H641 C653 0.950 . S
H642 C650 0.950 . S
H643 C652 0.950 . S
H644 C654 0.950 . S
H645 C656 0.950 . S
H646 C658 0.950 . S
H647 C659 0.950 . S
C648 H640 0.950 . S
C648 C649 1.386 . S
C648 C650 1.391 . S
C649 C648 1.386 . S
C649 C653 1.393 . S
C650 H642 0.950 . S
C650 C648 1.391 . S
C650 C651 1.400 . S
C651 C650 1.400 . S
C651 C652 1.398 . S
C651 C657 1.491 . S
C652 H643 0.950 . S
C652 C651 1.398 . S
C652 C653 1.391 . S
C653 H641 0.950 . S
C653 C649 1.393 . S
C653 C652 1.391 . S
C654 H644 0.950 . S
C654 C655 1.386 . S
C654 C656 1.391 . S
C655 C654 1.386 . S
C655 C659 1.393 . S
C656 H645 0.950 . S
C656 C654 1.391 . S
C656 C657 1.400 . S
C657 C651 1.491 . S
C657 C656 1.400 . S
C657 C658 1.398 . S
C658 H646 0.950 . S
C658 C657 1.398 . S
C658 C659 1.391 . S
C659 H647 0.950 . S
C659 C655 1.393 . S
C659 C658 1.391 . S
H660 C668 0.950 . S
H661 C673 0.950 . S
H662 C670 0.950 . S
H663 C672 0.950 . S
H664 C674 0.950 . S
H665 C676 0.950 . S
H666 C678 0.950 . S
H667 C679 0.950 . S
C668 H660 0.950 . S
C668 C669 1.386 . S
C668 C670 1.391 . S
C669 C668 1.386 . S
C669 C673 1.393 . S
C670 H662 0.950 . S
C670 C668 1.391 . S
C670 C671 1.400 . S
C671 C670 1.400 . S
C671 C672 1.398 . S
C671 C677 1.491 . S
C672 H663 0.950 . S
C672 C671 1.398 . S
C672 C673 1.391 . S
C673 H661 0.950 . S
C673 C669 1.393 . S
C673 C672 1.391 . S
C674 H664 0.950 . S
C674 C675 1.386 . S
C674 C676 1.391 . S
C675 C674 1.386 . S
C675 C679 1.393 . S
C676 H665 0.950 . S
C676 C674 1.391 . S
C676 C677 1.400 . S
C677 C671 1.491 . S
C677 C676 1.400 . S
C677 C678 1.398 . S
C678 H666 0.950 . S
C678 C677 1.398 . S
C678 C679 1.391 . S
C679 H667 0.950 . S
C679 C675 1.393 . S
C679 C678 1.391 . S
H680 C688 0.950 . S
H681 C693 0.950 . S
H682 C690 0.961 . S
H683 C692 0.950 . S
H684 C694 0.950 . S
H685 C696 0.950 . S
H686 C698 0.950 . S
H687 C699 0.950 . S
C688 H680 0.950 . S
C688 C689 1.386 . S
C688 C690 1.391 . S
C689 C688 1.386 . S
C689 C693 1.393 . S
C690 H682 0.961 . S
C690 C688 1.391 . S
C690 C691 1.400 1_565 S
C691 C690 1.400 1_545 S
C691 C692 1.398 1_545 S
C691 C697 1.491 . S
C692 H683 0.950 . S
C692 C691 1.398 1_565 S
C692 C693 1.391 . S
C693 H681 0.950 . S
C693 C689 1.393 . S
C693 C692 1.391 . S
C694 H684 0.950 . S
C694 C695 1.386 . S
C694 C696 1.391 . S
C695 C694 1.386 . S
C695 C699 1.393 . S
C696 H685 0.950 . S
C696 C694 1.391 . S
C696 C697 1.400 . S
C697 C691 1.491 . S
C697 C696 1.400 . S
C697 C698 1.398 . S
C698 H686 0.950 . S
C698 C697 1.398 . S
C698 C699 1.391 . S
C699 H687 0.950 . S
C699 C695 1.393 . S
C699 C698 1.391 . S
H700 C708 0.950 . S
H701 C713 0.950 . S
H702 C710 0.935 1_455 S
H703 C712 0.950 . S
H704 C714 0.950 . S
H705 C716 0.950 1_655 S
H706 C718 0.950 . S
H707 C719 0.950 . S
C708 H700 0.950 . S
C708 C709 1.386 . S
C708 C710 1.399 . S
C709 C708 1.386 . S
C709 C713 1.393 . S
C710 H702 0.935 1_655 S
C710 C708 1.399 . S
C710 C711 1.407 . S
C711 C710 1.407 . S
C711 C712 1.398 . S
C711 C717 1.491 1_655 S
C712 H703 0.950 . S
C712 C711 1.398 . S
C712 C713 1.391 . S
C713 H701 0.950 . S
C713 C709 1.393 . S
C713 C712 1.391 . S
C714 H704 0.950 . S
C714 C715 1.386 . S
C714 C716 1.391 . S
C715 C714 1.386 . S
C715 C719 1.393 . S
C716 H705 0.950 1_455 S
C716 C714 1.391 . S
C716 C717 1.400 . S
C717 C711 1.491 1_455 S
C717 C716 1.400 . S
C717 C718 1.398 . S
C718 H706 0.950 . S
C718 C717 1.398 . S
C718 C719 1.391 . S
C719 H707 0.950 . S
C719 C715 1.393 . S
C719 C718 1.391 . S
C189 C28 1.702 . S
C195 C19 1.838 . S
C209 C46 0.839 . S
C215 C36 0.831 . S
C229 C59 1.570 . S
C235 C6 1.465 . S
C249 C56 1.070 . S
C255 C26 1.017 . S
C269 C48 1.234 . S
C275 C16 1.351 . S
C289 C8 1.916 1_556 S
C295 C39 2.053 1_556 S
C309 C79 1.046 . S
C315 C86 1.034 . S
C329 C106 1.561 . S
C335 C99 1.611 . S
C349 C119 1.627 . S
C355 C66 1.556 . S
C369 C88 1.717 . S
C375 C116 1.857 . S
C389 C108 1.158 . S
C395 C76 1.277 . S
C409 C96 1.312 . S
C415 C68 1.186 . S
C429 C148 1.716 . S
C435 C139 1.803 . S
C449 C156 0.828 . S
C455 C166 0.833 . S
C469 C179 1.548 . S
C475 C126 1.480 . S
C489 C176 1.036 . S
C495 C146 1.003 . S
C509 C168 1.212 . S
C515 C136 1.338 1_565 S
C529 C128 1.912 . S
C535 C159 2.044 1_455 S
C549 C109 2.160 . S
C555 C1 2.213 . S
C569 C69 2.254 . S
C575 C29 2.277 . S
C589 C41 2.220 . S
C595 C89 2.143 . S
C609 C49 2.168 . S
C615 C121 2.226 . S
C629 C9 2.224 . S
C635 C149 2.226 . S
C649 C161 2.167 . S
C655 C21 2.164 . S
C669 C61 2.228 . S
C675 C169 2.162 . S
C689 C81 2.269 . S
C695 C129 2.177 . S
C709 C141 2.124 . S
C715 C101 2.124 . S
