# Generated by pormake.
# Topology smk, (6)-cn, num edge types: 1
# Building blocks:
#     Node 0, Type 0, BuildingBlock: OJICUG_clean_sbu_0, # of connection points: 6
#     Node 1, Type 0, BuildingBlock: OJICUG_clean_sbu_0, # of connection points: 6
#     Node 2, Type 0, BuildingBlock: OJICUG_clean_sbu_0, # of connection points: 6
#     Node 3, Type 0, BuildingBlock: OJICUG_clean_sbu_0, # of connection points: 6
#     Node 4, Type 0, BuildingBlock: OJICUG_clean_sbu_0, # of connection points: 6
#     Node 5, Type 0, BuildingBlock: OJICUG_clean_sbu_0, # of connection points: 6
#     Edge 6, Type (0, 0), BuildingBlock: XIVTED_clean_linker_0, # of connection points: 2
#     Edge 7, Type (0, 0), BuildingBlock: XIVTED_clean_linker_0, # of connection points: 2
#     Edge 8, Type (0, 0), BuildingBlock: XIVTED_clean_linker_0, # of connection points: 2
#     Edge 9, Type (0, 0), BuildingBlock: XIVTED_clean_linker_0, # of connection points: 2
#     Edge 10, Type (0, 0), BuildingBlock: XIVTED_clean_linker_0, # of connection points: 2
#     Edge 11, Type (0, 0), BuildingBlock: XIVTED_clean_linker_0, # of connection points: 2
#     Edge 12, Type (0, 0), BuildingBlock: XIVTED_clean_linker_0, # of connection points: 2
#     Edge 13, Type (0, 0), BuildingBlock: XIVTED_clean_linker_0, # of connection points: 2
#     Edge 14, Type (0, 0), BuildingBlock: XIVTED_clean_linker_0, # of connection points: 2
#     Edge 15, Type (0, 0), BuildingBlock: XIVTED_clean_linker_0, # of connection points: 2
#     Edge 16, Type (0, 0), BuildingBlock: XIVTED_clean_linker_0, # of connection points: 2
#     Edge 17, Type (0, 0), BuildingBlock: XIVTED_clean_linker_0, # of connection points: 2
#     Edge 18, Type (0, 0), BuildingBlock: XIVTED_clean_linker_0, # of connection points: 2
#     Edge 19, Type (0, 0), BuildingBlock: XIVTED_clean_linker_0, # of connection points: 2
#     Edge 20, Type (0, 0), BuildingBlock: XIVTED_clean_linker_0, # of connection points: 2
#     Edge 21, Type (0, 0), BuildingBlock: XIVTED_clean_linker_0, # of connection points: 2
#     Edge 22, Type (0, 0), BuildingBlock: XIVTED_clean_linker_0, # of connection points: 2
#     Edge 23, Type (0, 0), BuildingBlock: XIVTED_clean_linker_0, # of connection points: 2
# Relax obj value: 0.194
# Max RMSD: 0.221
# Mean RMSD: 0.221
data_MOF--net-smk--node1-OJICUG_clean_sbu_0--edge1-XIVTED_clean_linker_0
_symmetry_space_group_name_H-M    P1
_symmetry_Int_Tables_number       1
_symmetry_cell_setting            triclinic
loop_
_symmetry_equiv_pos_as_xyz
'x, y, z'
_cell_length_a     44.299186
_cell_length_b     44.214228
_cell_length_c     15.921148
_cell_angle_alpha  89.968888
_cell_angle_beta   89.954599
_cell_angle_gamma 119.93143
loop_
_atom_site_label
_atom_site_type_symbol
_atom_site_fract_x
_atom_site_fract_y
_atom_site_fract_z
_atom_type_partial_charge
Sc0 Sc 0.44379 0.19807 0.47804 0.0
Sc1 Sc 0.36544 0.17864 0.57365 0.0
Sc2 Sc 0.44406 0.24084 0.66043 0.0
O3 O 0.41786 0.20583 0.57059 0.0
C4 C 0.49354 0.20836 0.62613 0.0
C5 C 0.38237 0.12083 0.52402 0.0
C6 C 0.38565 0.1838 0.76851 0.0
C7 C 0.38111 0.19192 0.37711 0.0
C8 C 0.48738 0.28128 0.50407 0.0
C9 C 0.37929 0.25205 0.62366 0.0
O10 O 0.47632 0.1899 0.56388 0.0
O11 O 0.3662 0.13061 0.5731 0.0
O12 O 0.41813 0.20213 0.75479 0.0
O13 O 0.41382 0.2064 0.38624 0.0
O14 O 0.47176 0.2813 0.57094 0.0
O15 O 0.3637 0.22625 0.57399 0.0
O16 O 0.48216 0.25332 0.46789 0.0
O17 O 0.35975 0.17631 0.43689 0.0
O18 O 0.40533 0.25716 0.66819 0.0
O19 O 0.40795 0.14193 0.47812 0.0
O20 O 0.48656 0.22982 0.66237 0.0
O21 O 0.36307 0.17686 0.71103 0.0
Sc22 Sc 0.23798 0.4463 0.64819 0.0
Sc23 Sc 0.18133 0.36704 0.74674 0.0
Sc24 Sc 0.19641 0.44595 0.83474 0.0
O25 O 0.20521 0.41986 0.74332 0.0
C26 C 0.27859 0.49366 0.80272 0.0
C27 C 0.25613 0.38612 0.69132 0.0
C28 C 0.19474 0.38575 0.94242 0.0
C29 C 0.18159 0.38228 0.5496 0.0
C30 C 0.20013 0.49116 0.67786 0.0
C31 C 0.12053 0.38026 0.79735 0.0
O32 O 0.27863 0.48034 0.73202 0.0
O33 O 0.23051 0.36913 0.74061 0.0
O34 O 0.20514 0.41784 0.93125 0.0
O35 O 0.19981 0.4151 0.55749 0.0
O36 O 0.18726 0.47755 0.7485 0.0
O37 O 0.13126 0.36303 0.75496 0.0
O38 O 0.2201 0.48366 0.63647 0.0
O39 O 0.176 0.36124 0.61013 0.0
O40 O 0.14089 0.40906 0.83387 0.0
O41 O 0.25996 0.41189 0.64716 0.0
O42 O 0.25091 0.48502 0.84453 0.0
O43 O 0.18244 0.36353 0.88321 0.0
Sc44 Sc 0.79187 0.24841 0.82778 0.0
Sc45 Sc 0.80138 0.18048 0.91485 0.0
Sc46 Sc 0.73377 0.19419 0.98525 0.0
O47 O 0.77565 0.20769 0.90937 0.0
C48 C 0.77104 0.27741 0.98774 0.0
C49 C 0.86424 0.25855 0.89056 0.0
C50 C 0.78503 0.18403 0.10808 0.0
C51 C 0.8021 0.19367 0.71857 0.0
C52 C 0.70931 0.21203 0.81287 0.0
C53 C 0.72243 0.11951 0.9373 0.0
O54 O 0.78609 0.2807 0.91785 0.0
O55 O 0.85149 0.2265 0.90872 0.0
O56 O 0.75871 0.18743 0.09314 0.0
O57 O 0.80014 0.22115 0.72752 0.0
O58 O 0.70371 0.1981 0.88512 0.0
O59 O 0.75447 0.13122 0.92176 0.0
O60 O 0.73966 0.23055 0.78189 0.0
O61 O 0.80057 0.17433 0.77951 0.0
O62 O 0.71022 0.13912 0.95764 0.0
O63 O 0.84579 0.27125 0.86429 0.0
O64 O 0.75217 0.24793 0.02302 0.0
O65 O 0.80476 0.18332 0.05081 0.0
Sc66 Sc 0.53386 0.78701 0.99777 0.0
Sc67 Sc 0.61259 0.80312 0.0863 0.0
Sc68 Sc 0.53421 0.74455 0.18311 0.0
O69 O 0.56 0.7782 0.08902 0.0
C70 C 0.48849 0.78159 0.15649 0.0
C71 C 0.59789 0.86332 0.04207 0.0
C72 C 0.59786 0.79952 0.28349 0.0
C73 C 0.59526 0.79238 0.89068 0.0
C74 C 0.48724 0.70448 0.02687 0.0
C75 C 0.59487 0.72792 0.1337 0.0
O76 O 0.50142 0.7945 0.08527 0.0
O77 O 0.61481 0.85254 0.08552 0.0
O78 O 0.56506 0.78184 0.27668 0.0
O79 O 0.56277 0.77967 0.9 0.0
O80 O 0.50038 0.70441 0.09776 0.0
O81 O 0.61133 0.75413 0.08549 0.0
O82 O 0.49566 0.73226 0.9855 0.0
O83 O 0.61678 0.8054 0.95071 0.0
O84 O 0.56928 0.72335 0.17968 0.0
O85 O 0.5701 0.84293 0.00181 0.0
O86 O 0.49674 0.76203 0.19735 0.0
O87 O 0.61838 0.80553 0.22201 0.0
Sc88 Sc 0.74312 0.54213 0.16144 0.0
Sc89 Sc 0.80342 0.62031 0.25498 0.0
Sc90 Sc 0.78241 0.541 0.35011 0.0
O91 O 0.77625 0.56757 0.25559 0.0
C92 C 0.70014 0.49664 0.31603 0.0
C93 C 0.72977 0.6056 0.20371 0.0
C94 C 0.78956 0.6043 0.45133 0.0
C95 C 0.80048 0.60329 0.05883 0.0
C96 C 0.77581 0.49291 0.19747 0.0
C97 C 0.86021 0.602 0.30544 0.0
O98 O 0.70139 0.51048 0.24526 0.0
O99 O 0.75575 0.62168 0.25261 0.0
O100 O 0.77462 0.57156 0.44169 0.0
O101 O 0.78219 0.57064 0.06968 0.0
O102 O 0.78932 0.50657 0.26767 0.0
O103 O 0.85111 0.61913 0.25751 0.0
O104 O 0.75763 0.50222 0.15432 0.0
O105 O 0.80672 0.62495 0.11808 0.0
O106 O 0.83871 0.57599 0.34991 0.0
O107 O 0.7247 0.57947 0.1591 0.0
O108 O 0.72718 0.50388 0.35903 0.0
O109 O 0.80522 0.62561 0.39161 0.0
Sc110 Sc 0.19394 0.74703 0.32461 0.0
Sc111 Sc 0.17493 0.80578 0.42184 0.0
Sc112 Sc 0.23333 0.7854 0.51522 0.0
O113 O 0.20091 0.77919 0.42057 0.0
C114 C 0.19775 0.70345 0.47762 0.0
C115 C 0.11689 0.7315 0.37392 0.0
C116 C 0.17871 0.79338 0.6175 0.0
C117 C 0.18623 0.80258 0.22544 0.0
C118 C 0.27586 0.78209 0.35928 0.0
C119 C 0.24945 0.86308 0.46928 0.0
O120 O 0.18582 0.70503 0.4062 0.0
O121 O 0.12672 0.7573 0.42378 0.0
O122 O 0.19462 0.77653 0.60771 0.0
O123 O 0.2027 0.78624 0.23366 0.0
O124 O 0.27479 0.79367 0.43161 0.0
O125 O 0.22364 0.85374 0.4199 0.0
O126 O 0.2488 0.76386 0.31491 0.0
O127 O 0.17042 0.80721 0.28619 0.0
O128 O 0.25353 0.84168 0.51548 0.0
O129 O 0.13786 0.72723 0.32661 0.0
O130 O 0.21624 0.73027 0.52265 0.0
O131 O 0.17413 0.80966 0.55773 0.0
H132 H 0.4093 0.24283 0.26015 0.0
H133 H 0.32188 0.16528 0.84074 0.0
H134 H 0.32613 0.13694 0.2967 0.0
H135 H 0.42473 0.18312 0.89908 0.0
H136 H 0.31025 0.16432 0.9928 0.0
H137 H 0.40096 0.23492 0.10845 0.0
C138 C 0.38849 0.21828 0.23624 0.0
C139 C 0.3686 0.19036 0.29064 0.0
C140 C 0.33494 0.16762 0.97144 0.0
C141 C 0.35925 0.18126 0.11789 0.0
C142 C 0.34162 0.16808 0.88515 0.0
C143 C 0.37458 0.17489 0.85713 0.0
C144 C 0.36154 0.1743 0.02872 0.0
C145 C 0.39922 0.17845 0.91748 0.0
C146 C 0.38385 0.21382 0.15 0.0
C147 C 0.34192 0.15907 0.25648 0.0
N148 N 0.39244 0.17883 0.00025 0.0
N149 N 0.33846 0.15497 0.17145 0.0
H150 H 0.15869 0.40958 0.43069 0.0
H151 H 0.15013 0.32159 0.01385 0.0
H152 H 0.18216 0.32704 0.47156 0.0
H153 H 0.23516 0.42446 0.07201 0.0
H154 H 0.13944 0.30994 0.16602 0.0
H155 H 0.15887 0.40065 0.27932 0.0
C156 C 0.16268 0.38875 0.40781 0.0
C157 C 0.17072 0.36921 0.46339 0.0
C158 C 0.16091 0.33459 0.14466 0.0
C159 C 0.17122 0.35922 0.29093 0.0
C160 C 0.16718 0.34125 0.05831 0.0
C161 C 0.19328 0.37426 0.03034 0.0
C162 C 0.18081 0.36126 0.20196 0.0
C163 C 0.21441 0.39889 0.09062 0.0
C164 C 0.16287 0.38379 0.32173 0.0
C165 C 0.17575 0.34253 0.43046 0.0
N166 N 0.20723 0.39215 0.17342 0.0
N167 N 0.17675 0.33877 0.3456 0.0
H168 H 0.73633 0.14485 0.22363 0.0
H169 H 0.85295 0.23456 0.6095 0.0
H170 H 0.8473 0.21054 0.19251 0.0
H171 H 0.76044 0.13374 0.63183 0.0
H172 H 0.85327 0.2258 0.45775 0.0
H173 H 0.74501 0.13965 0.37315 0.0
C174 C 0.7626 0.158 0.24847 0.0
C175 C 0.79115 0.17857 0.19628 0.0
C176 C 0.83342 0.20518 0.49596 0.0
C177 C 0.80122 0.17298 0.36729 0.0
C178 C 0.83322 0.21017 0.58231 0.0
C179 C 0.80659 0.18479 0.63244 0.0
C180 C 0.80612 0.1751 0.45945 0.0
C181 C 0.78145 0.15376 0.59489 0.0
C182 C 0.76755 0.15476 0.33357 0.0
C183 C 0.82466 0.19463 0.23105 0.0
N184 N 0.78134 0.15008 0.51002 0.0
N185 N 0.82876 0.19212 0.31508 0.0
H186 H 0.59812 0.84737 0.39129 0.0
H187 H 0.58444 0.74111 0.78014 0.0
H188 H 0.62653 0.76764 0.36953 0.0
H189 H 0.63371 0.85279 0.80602 0.0
H190 H 0.59716 0.74858 0.62882 0.0
H191 H 0.60905 0.85015 0.54329 0.0
C192 C 0.60769 0.83128 0.41848 0.0
C193 C 0.61194 0.80759 0.36875 0.0
C194 C 0.60595 0.77146 0.66809 0.0
C195 C 0.62288 0.80945 0.5411 0.0
C196 C 0.59869 0.76718 0.75393 0.0
C197 C 0.60841 0.79642 0.80466 0.0
C198 C 0.62172 0.80507 0.63299 0.0
C199 C 0.62626 0.82972 0.76836 0.0
C200 C 0.61386 0.8328 0.50475 0.0
C201 C 0.62352 0.78657 0.40637 0.0
N202 N 0.63166 0.83318 0.68401 0.0
N203 N 0.62783 0.78736 0.49096 0.0
H204 H 0.74057 0.57498 0.57285 0.0
H205 H 0.81094 0.66462 0.98679 0.0
H206 H 0.84427 0.66089 0.5281 0.0
H207 H 0.81058 0.56891 0.93069 0.0
H208 H 0.81159 0.67567 0.83446 0.0
H209 H 0.74999 0.58521 0.72386 0.0
C210 C 0.76494 0.59668 0.59475 0.0
C211 C 0.79182 0.61693 0.53816 0.0
C212 C 0.81241 0.65289 0.85633 0.0
C213 C 0.80258 0.62848 0.7102 0.0
C214 C 0.81217 0.64659 0.94279 0.0
C215 C 0.81023 0.61554 0.97127 0.0
C216 C 0.81066 0.62791 0.79936 0.0
C217 C 0.81152 0.59288 0.91156 0.0
C218 C 0.77023 0.60243 0.68061 0.0
C219 C 0.82291 0.64479 0.56992 0.0
N220 N 0.81092 0.59916 0.82848 0.0
N221 N 0.82786 0.64934 0.65459 0.0
H222 H 0.1244 0.77428 0.14484 0.0
H223 H 0.20183 0.85522 0.69697 0.0
H224 H 0.23414 0.84568 0.1109 0.0
H225 H 0.13986 0.74404 0.73414 0.0
H226 H 0.19924 0.86378 0.8491 0.0
H227 H 0.11591 0.77576 0.9924 0.0
C228 C 0.14641 0.79125 0.1055 0.0
C229 C 0.17996 0.81008 0.13959 0.0
C230 C 0.18544 0.83766 0.82321 0.0
C231 C 0.17041 0.81211 0.96742 0.0
C232 C 0.1867 0.83276 0.73693 0.0
C233 C 0.17091 0.7989 0.70383 0.0
C234 C 0.16748 0.80851 0.87557 0.0
C235 C 0.15224 0.77051 0.75783 0.0
C236 C 0.14159 0.79187 0.01903 0.0
C237 C 0.20789 0.83103 0.08641 0.0
N238 N 0.15101 0.77593 0.84145 0.0
N239 N 0.20252 0.83149 0.00249 0.0
H240 H 0.38318 0.08488 0.38531 0.0
H241 H 0.28737 0.89828 0.60709 0.0
H242 H 0.35161 0.07111 0.64548 0.0
H243 H 0.26874 0.9132 0.34838 0.0
H244 H 0.32541 0.96161 0.6211 0.0
H245 H 0.35548 0.02125 0.3708 0.0
C246 C 0.37093 0.06849 0.43962 0.0
C247 C 0.36936 0.08311 0.51653 0.0
C248 C 0.31322 0.95085 0.56117 0.0
C249 C 0.33822 0.01087 0.50056 0.0
C250 C 0.2917 0.91484 0.55299 0.0
C251 C 0.27474 0.90065 0.47664 0.0
C252 C 0.31831 0.97258 0.49204 0.0
C253 C 0.28107 0.92322 0.40856 0.0
C254 C 0.35504 0.03232 0.43116 0.0
C255 C 0.35303 0.06077 0.5849 0.0
N256 N 0.30243 0.95816 0.4178 0.0
N257 N 0.33807 0.02569 0.57535 0.0
H258 H 0.38447 0.2917 0.76005 0.0
H259 H 0.2893 0.3848 0.54789 0.0
H260 H 0.34403 0.26805 0.50733 0.0
H261 H 0.27849 0.35797 0.81107 0.0
H262 H 0.32413 0.35606 0.52912 0.0
H263 H 0.35973 0.33008 0.77593 0.0
C264 C 0.37068 0.29485 0.70767 0.0
C265 C 0.36595 0.27647 0.63251 0.0
C266 C 0.31444 0.35694 0.59102 0.0
C267 C 0.33828 0.32058 0.64994 0.0
C268 C 0.29487 0.37348 0.60189 0.0
C269 C 0.28095 0.37347 0.68103 0.0
C270 C 0.32064 0.34111 0.66017 0.0
C271 C 0.28858 0.35821 0.74894 0.0
C272 C 0.35657 0.31664 0.71691 0.0
C273 C 0.34785 0.28145 0.56665 0.0
N274 N 0.30797 0.34262 0.73699 0.0
N275 N 0.33467 0.30315 0.57681 0.0
H276 H 0.90455 0.32857 0.85165 0.0
H277 H 0.07135 0.31183 0.78224 0.0
H278 H 0.91166 0.23872 0.93031 0.0
H279 H 0.08364 0.41256 0.84338 0.0
H280 H 0.00951 0.28488 0.81375 0.0
H281 H 0.96811 0.36094 0.8323 0.0
C282 C 0.91938 0.3158 0.86595 0.0
C283 C 0.90261 0.28067 0.89147 0.0
C284 C 0.02576 0.31289 0.82026 0.0
C285 C 0.97462 0.31718 0.86791 0.0
C286 C 0.06099 0.32836 0.80152 0.0
C287 C 0.08268 0.3645 0.81035 0.0
C288 C 0.01188 0.33368 0.84678 0.0
C289 C 0.06777 0.38455 0.83622 0.0
C290 C 0.95553 0.33427 0.85482 0.0
C291 C 0.92321 0.26554 0.90951 0.0
N292 N 0.03307 0.36886 0.8532 0.0
N293 N 0.95801 0.2837 0.8961 0.0
H294 H 0.6642 0.91382 0.07812 0.0
H295 H 0.65176 0.08078 0.97096 0.0
H296 H 0.56682 0.89964 0.98151 0.0
H297 H 0.74159 0.07049 0.91291 0.0
H298 H 0.6181 0.01741 0.99683 0.0
H299 H 0.69144 0.9758 0.04732 0.0
C300 C 0.64837 0.92374 0.05133 0.0
C301 C 0.61319 0.9014 0.03172 0.0
C302 C 0.64509 0.02929 0.97746 0.0
C303 C 0.64446 0.97248 0.99625 0.0
C304 C 0.66428 0.0653 0.9626 0.0
C305 C 0.69973 0.08114 0.94072 0.0
C306 C 0.66181 0.00951 0.97195 0.0
C307 C 0.71454 0.05973 0.9305 0.0
C308 C 0.66406 0.9591 0.03318 0.0
C309 C 0.5941 0.91595 0.9969 0.0
N310 N 0.69567 0.0252 0.94747 0.0
N311 N 0.61001 0.95078 0.9802 0.0
H312 H 0.71287 0.6391 0.32271 0.0
H313 H 0.62441 0.70813 0.01123 0.0
H314 H 0.6907 0.60175 0.06724 0.0
H315 H 0.59606 0.69281 0.27354 0.0
H316 H 0.65261 0.67293 0.02889 0.0
H317 H 0.67412 0.66335 0.30593 0.0
C318 C 0.69974 0.63592 0.26325 0.0
C319 C 0.70506 0.61859 0.19608 0.0
C320 C 0.63977 0.67688 0.0822 0.0
C321 C 0.66124 0.64648 0.17639 0.0
C322 C 0.62383 0.697 0.07227 0.0
C323 C 0.60802 0.70334 0.14112 0.0
C324 C 0.64071 0.66392 0.16199 0.0
C325 C 0.60784 0.68832 0.21886 0.0
C326 C 0.6775 0.64951 0.25397 0.0
C327 C 0.68722 0.6149 0.12058 0.0
N328 N 0.62454 0.66976 0.22764 0.0
N329 N 0.66647 0.62923 0.11227 0.0
H330 H 0.90982 0.63179 0.18388 0.0
H331 H 0.06717 0.71325 0.49531 0.0
H332 H 0.89575 0.6009 0.44453 0.0
H333 H 0.08112 0.69348 0.23677 0.0
H334 H 0.00412 0.6755 0.47895 0.0
H335 H 0.97287 0.65792 0.20124 0.0
C336 C 0.92005 0.63026 0.24454 0.0
C337 C 0.89771 0.61434 0.31301 0.0
C338 C 0.02108 0.67911 0.42624 0.0
C339 C 0.96952 0.64462 0.33354 0.0
C340 C 0.05694 0.70076 0.43533 0.0
C341 C 0.07927 0.70656 0.36713 0.0
C342 C 0.00749 0.66396 0.34787 0.0
C343 C 0.06477 0.6896 0.29093 0.0
C344 C 0.95593 0.645 0.25427 0.0
C345 C 0.91218 0.61287 0.39019 0.0
N346 N 0.02967 0.66947 0.28289 0.0
N347 N 0.94732 0.62841 0.39885 0.0
H348 H 0.51483 0.29742 0.34499 0.0
H349 H 0.67993 0.47385 0.47738 0.0
H350 H 0.52312 0.34225 0.59071 0.0
H351 H 0.64294 0.45518 0.22134 0.0
H352 H 0.62479 0.42332 0.52182 0.0
H353 H 0.56432 0.35296 0.29815 0.0
C354 C 0.52687 0.31898 0.38878 0.0
C355 C 0.51495 0.31522 0.47183 0.0
C356 C 0.62869 0.43062 0.45609 0.0
C357 C 0.57159 0.37826 0.41931 0.0
C358 C 0.66011 0.45931 0.43074 0.0
C359 C 0.66599 0.46863 0.34564 0.0
C360 C 0.60346 0.41073 0.39559 0.0
C361 C 0.63941 0.44897 0.28769 0.0
C362 C 0.55495 0.35063 0.36201 0.0
C363 C 0.5314 0.34404 0.52601 0.0
N364 N 0.60946 0.4206 0.31357 0.0
N365 N 0.55922 0.37421 0.49914 0.0
H366 H 0.17722 0.5286 0.7669 0.0
H367 H 0.18231 0.6462 0.38211 0.0
H368 H 0.20858 0.51718 0.51738 0.0
H369 H 0.20046 0.68283 0.63853 0.0
H370 H 0.17813 0.59155 0.42911 0.0
H371 H 0.17176 0.57794 0.71763 0.0
C372 C 0.18255 0.53615 0.70146 0.0
C373 C 0.19363 0.51885 0.64622 0.0
C374 C 0.18277 0.6115 0.47496 0.0
C375 C 0.18724 0.57521 0.5898 0.0
C376 C 0.18495 0.64259 0.44845 0.0
C377 C 0.19194 0.6692 0.50655 0.0
C378 C 0.18698 0.60675 0.56029 0.0
C379 C 0.19533 0.66313 0.5916 0.0
C380 C 0.17959 0.56444 0.67368 0.0
C381 C 0.20026 0.52995 0.56223 0.0
N382 N 0.19278 0.63248 0.61597 0.0
N383 N 0.19696 0.55749 0.53649 0.0
H384 H 0.64488 0.15459 0.80186 0.0
H385 H 0.55307 0.26159 0.69187 0.0
H386 H 0.70445 0.2623 0.7247 0.0
H387 H 0.50624 0.15382 0.61558 0.0
H388 H 0.60709 0.26158 0.7238 0.0
H389 H 0.5919 0.15244 0.74851 0.0
C390 C 0.64681 0.17757 0.77226 0.0
C391 C 0.67892 0.20866 0.76731 0.0
C392 C 0.58496 0.23798 0.69998 0.0
C393 C 0.61865 0.20668 0.70927 0.0
C394 C 0.55404 0.23781 0.68281 0.0
C395 C 0.52512 0.20756 0.65165 0.0
C396 C 0.5867 0.20749 0.68775 0.0
C397 C 0.52797 0.17763 0.63971 0.0
C398 C 0.61668 0.17632 0.74205 0.0
C399 C 0.68017 0.23779 0.72892 0.0
N400 N 0.55818 0.17821 0.6587 0.0
N401 N 0.65026 0.23631 0.70275 0.0
H402 H 0.44636 0.6442 0.11361 0.0
H403 H 0.33797 0.53591 0.71452 0.0
H404 H 0.46496 0.68831 0.86402 0.0
H405 H 0.29522 0.51554 0.96553 0.0
H406 H 0.39159 0.58538 0.76852 0.0
H407 H 0.39764 0.5902 0.05903 0.0
C408 C 0.44046 0.64241 0.04717 0.0
C409 C 0.45958 0.67089 0.9933 0.0
C410 C 0.3705 0.56989 0.81166 0.0
C411 C 0.4041 0.60921 0.93083 0.0
C412 C 0.34 0.54158 0.78112 0.0
C413 C 0.31201 0.52176 0.83563 0.0
C414 C 0.37322 0.57802 0.8974 0.0
C415 C 0.31604 0.53037 0.92126 0.0
C416 C 0.41257 0.61167 0.01631 0.0
C417 C 0.45068 0.66711 0.90785 0.0
N418 N 0.34613 0.5579 0.94959 0.0
N419 N 0.42353 0.63678 0.87916 0.0
H420 H 0.7734 0.47148 0.03572 0.0
H421 H 0.75545 0.28851 0.14932 0.0
H422 H 0.7847 0.44608 0.29133 0.0
H423 H 0.79391 0.33988 0.91018 0.0
H424 H 0.75944 0.34254 0.20376 0.0
H425 H 0.77415 0.41931 0.98822 0.0
C426 C 0.77626 0.45502 0.08173 0.0
C427 C 0.77915 0.46315 0.16743 0.0
C428 C 0.76719 0.3418 0.13961 0.0
C429 C 0.77935 0.40315 0.11384 0.0
C430 C 0.76481 0.31103 0.10851 0.0
C431 C 0.77432 0.30958 0.0251 0.0
C432 C 0.77848 0.37083 0.08627 0.0
C433 C 0.78637 0.33964 0.97497 0.0
C434 C 0.77672 0.42531 0.05468 0.0
C435 C 0.78275 0.44088 0.22452 0.0
N436 N 0.78778 0.3688 0.00608 0.0
N437 N 0.78237 0.41161 0.1968 0.0
H438 H 0.46449 0.77358 0.31862 0.0
H439 H 0.29499 0.78007 0.19662 0.0
H440 H 0.44905 0.80288 0.07036 0.0
H441 H 0.33384 0.79719 0.45095 0.0
H442 H 0.34977 0.78507 0.14829 0.0
H443 H 0.41504 0.77885 0.36891 0.0
C444 C 0.45089 0.78135 0.27488 0.0
C445 C 0.46082 0.78763 0.1901 0.0
C446 C 0.34638 0.78809 0.21455 0.0
C447 C 0.40412 0.79324 0.24688 0.0
C448 C 0.31512 0.78512 0.24217 0.0
C449 C 0.30981 0.78809 0.32792 0.0
C450 C 0.37218 0.79334 0.2733 0.0
C451 C 0.33686 0.79481 0.38421 0.0
C452 C 0.42279 0.78447 0.30366 0.0
C453 C 0.44235 0.79781 0.13625 0.0
N454 N 0.36673 0.79674 0.35604 0.0
N455 N 0.41461 0.79985 0.16531 0.0
loop_
_geom_bond_atom_site_label_1
_geom_bond_atom_site_label_2
_geom_bond_distance
_geom_bond_site_symmetry_2
_ccdc_geom_bond_type
Sc0 O3 2.025 . S
Sc0 O10 2.105 . S
Sc0 O13 2.105 . S
Sc0 O16 2.105 . S
Sc0 O19 2.105 . S
Sc1 O3 2.025 . S
Sc1 O11 2.105 . S
Sc1 O15 2.105 . S
Sc1 O17 2.105 . S
Sc1 O21 2.105 . S
Sc2 O3 2.025 . S
Sc2 O12 2.105 . S
Sc2 O14 2.105 . S
Sc2 O18 2.105 . S
Sc2 O20 2.105 . S
O3 Sc0 2.025 . S
O3 Sc1 2.025 . S
O3 Sc2 2.025 . S
C4 O10 1.268 . S
C4 O20 1.268 . S
C5 O11 1.268 . S
C5 O19 1.268 . S
C6 O12 1.268 . S
C6 O21 1.268 . S
C7 O13 1.268 . S
C7 O17 1.268 . S
C8 O14 1.268 . S
C8 O16 1.268 . S
C9 O15 1.268 . S
C9 O18 1.268 . S
O10 Sc0 2.105 . S
O10 C4 1.268 . S
O11 Sc1 2.105 . S
O11 C5 1.268 . S
O12 Sc2 2.105 . S
O12 C6 1.268 . S
O13 Sc0 2.105 . S
O13 C7 1.268 . S
O14 Sc2 2.105 . S
O14 C8 1.268 . S
O15 Sc1 2.105 . S
O15 C9 1.268 . S
O16 Sc0 2.105 . S
O16 C8 1.268 . S
O17 Sc1 2.105 . S
O17 C7 1.268 . S
O18 Sc2 2.105 . S
O18 C9 1.268 . S
O19 Sc0 2.105 . S
O19 C5 1.268 . S
O20 Sc2 2.105 . S
O20 C4 1.268 . S
O21 Sc1 2.105 . S
O21 C6 1.268 . S
Sc22 O25 2.025 . S
Sc22 O32 2.105 . S
Sc22 O35 2.105 . S
Sc22 O38 2.105 . S
Sc22 O41 2.105 . S
Sc23 O25 2.025 . S
Sc23 O33 2.105 . S
Sc23 O37 2.105 . S
Sc23 O39 2.105 . S
Sc23 O43 2.105 . S
Sc24 O25 2.025 . S
Sc24 O34 2.105 . S
Sc24 O36 2.105 . S
Sc24 O40 2.105 . S
Sc24 O42 2.105 . S
O25 Sc22 2.025 . S
O25 Sc23 2.025 . S
O25 Sc24 2.025 . S
C26 O32 1.268 . S
C26 O42 1.268 . S
C27 O33 1.268 . S
C27 O41 1.268 . S
C28 O34 1.268 . S
C28 O43 1.268 . S
C29 O35 1.268 . S
C29 O39 1.268 . S
C30 O36 1.268 . S
C30 O38 1.268 . S
C31 O37 1.268 . S
C31 O40 1.268 . S
O32 Sc22 2.105 . S
O32 C26 1.268 . S
O33 Sc23 2.105 . S
O33 C27 1.268 . S
O34 Sc24 2.105 . S
O34 C28 1.268 . S
O35 Sc22 2.105 . S
O35 C29 1.268 . S
O36 Sc24 2.105 . S
O36 C30 1.268 . S
O37 Sc23 2.105 . S
O37 C31 1.268 . S
O38 Sc22 2.105 . S
O38 C30 1.268 . S
O39 Sc23 2.105 . S
O39 C29 1.268 . S
O40 Sc24 2.105 . S
O40 C31 1.268 . S
O41 Sc22 2.105 . S
O41 C27 1.268 . S
O42 Sc24 2.105 . S
O42 C26 1.268 . S
O43 Sc23 2.105 . S
O43 C28 1.268 . S
Sc44 O47 2.025 . S
Sc44 O54 2.105 . S
Sc44 O57 2.105 . S
Sc44 O60 2.105 . S
Sc44 O63 2.105 . S
Sc45 O47 2.025 . S
Sc45 O55 2.105 . S
Sc45 O59 2.105 . S
Sc45 O61 2.105 . S
Sc45 O65 2.105 1_556 S
Sc46 O47 2.025 1_554 S
Sc46 O56 2.105 . S
Sc46 O58 2.105 1_554 S
Sc46 O62 2.105 1_554 S
Sc46 O64 2.105 . S
O47 Sc44 2.025 . S
O47 Sc45 2.025 . S
O47 Sc46 2.025 1_556 S
C48 O54 1.268 . S
C48 O64 1.268 1_556 S
C49 O55 1.268 . S
C49 O63 1.268 . S
C50 O56 1.268 . S
C50 O65 1.268 . S
C51 O57 1.268 . S
C51 O61 1.268 . S
C52 O58 1.268 . S
C52 O60 1.268 . S
C53 O59 1.268 . S
C53 O62 1.268 . S
O54 Sc44 2.105 . S
O54 C48 1.268 . S
O55 Sc45 2.105 . S
O55 C49 1.268 . S
O56 Sc46 2.105 . S
O56 C50 1.268 . S
O57 Sc44 2.105 . S
O57 C51 1.268 . S
O58 Sc46 2.105 1_556 S
O58 C52 1.268 . S
O59 Sc45 2.105 . S
O59 C53 1.268 . S
O60 Sc44 2.105 . S
O60 C52 1.268 . S
O61 Sc45 2.105 . S
O61 C51 1.268 . S
O62 Sc46 2.105 1_556 S
O62 C53 1.268 . S
O63 Sc44 2.105 . S
O63 C49 1.268 . S
O64 Sc46 2.105 . S
O64 C48 1.268 1_554 S
O65 Sc45 2.105 1_554 S
O65 C50 1.268 . S
Sc66 O69 2.025 1_556 S
Sc66 O76 2.105 1_556 S
Sc66 O79 2.105 . S
Sc66 O82 2.105 . S
Sc66 O85 2.105 1_556 S
Sc67 O69 2.025 . S
Sc67 O77 2.105 . S
Sc67 O81 2.105 . S
Sc67 O83 2.105 1_554 S
Sc67 O87 2.105 . S
Sc68 O69 2.025 . S
Sc68 O78 2.105 . S
Sc68 O80 2.105 . S
Sc68 O84 2.105 . S
Sc68 O86 2.105 . S
O69 Sc66 2.025 1_554 S
O69 Sc67 2.025 . S
O69 Sc68 2.025 . S
C70 O76 1.268 . S
C70 O86 1.268 . S
C71 O77 1.268 . S
C71 O85 1.268 . S
C72 O78 1.268 . S
C72 O87 1.268 . S
C73 O79 1.268 . S
C73 O83 1.268 . S
C74 O80 1.268 . S
C74 O82 1.268 1_554 S
C75 O81 1.268 . S
C75 O84 1.268 . S
O76 Sc66 2.105 1_554 S
O76 C70 1.268 . S
O77 Sc67 2.105 . S
O77 C71 1.268 . S
O78 Sc68 2.105 . S
O78 C72 1.268 . S
O79 Sc66 2.105 . S
O79 C73 1.268 . S
O80 Sc68 2.105 . S
O80 C74 1.268 . S
O81 Sc67 2.105 . S
O81 C75 1.268 . S
O82 Sc66 2.105 . S
O82 C74 1.268 1_556 S
O83 Sc67 2.105 1_556 S
O83 C73 1.268 . S
O84 Sc68 2.105 . S
O84 C75 1.268 . S
O85 Sc66 2.105 1_554 S
O85 C71 1.268 . S
O86 Sc68 2.105 . S
O86 C70 1.268 . S
O87 Sc67 2.105 . S
O87 C72 1.268 . S
Sc88 O91 2.025 . S
Sc88 O98 2.105 . S
Sc88 O101 2.105 . S
Sc88 O104 2.105 . S
Sc88 O107 2.105 . S
Sc89 O91 2.025 . S
Sc89 O99 2.105 . S
Sc89 O103 2.105 . S
Sc89 O105 2.105 . S
Sc89 O109 2.105 . S
Sc90 O91 2.025 . S
Sc90 O100 2.105 . S
Sc90 O102 2.105 . S
Sc90 O106 2.105 . S
Sc90 O108 2.105 . S
O91 Sc88 2.025 . S
O91 Sc89 2.025 . S
O91 Sc90 2.025 . S
C92 O98 1.268 . S
C92 O108 1.268 . S
C93 O99 1.268 . S
C93 O107 1.268 . S
C94 O100 1.268 . S
C94 O109 1.268 . S
C95 O101 1.268 . S
C95 O105 1.268 . S
C96 O102 1.268 . S
C96 O104 1.268 . S
C97 O103 1.268 . S
C97 O106 1.268 . S
O98 Sc88 2.105 . S
O98 C92 1.268 . S
O99 Sc89 2.105 . S
O99 C93 1.268 . S
O100 Sc90 2.105 . S
O100 C94 1.268 . S
O101 Sc88 2.105 . S
O101 C95 1.268 . S
O102 Sc90 2.105 . S
O102 C96 1.268 . S
O103 Sc89 2.105 . S
O103 C97 1.268 . S
O104 Sc88 2.105 . S
O104 C96 1.268 . S
O105 Sc89 2.105 . S
O105 C95 1.268 . S
O106 Sc90 2.105 . S
O106 C97 1.268 . S
O107 Sc88 2.105 . S
O107 C93 1.268 . S
O108 Sc90 2.105 . S
O108 C92 1.268 . S
O109 Sc89 2.105 . S
O109 C94 1.268 . S
Sc110 O113 2.025 . S
Sc110 O120 2.105 . S
Sc110 O123 2.105 . S
Sc110 O126 2.105 . S
Sc110 O129 2.105 . S
Sc111 O113 2.025 . S
Sc111 O121 2.105 . S
Sc111 O125 2.105 . S
Sc111 O127 2.105 . S
Sc111 O131 2.105 . S
Sc112 O113 2.025 . S
Sc112 O122 2.105 . S
Sc112 O124 2.105 . S
Sc112 O128 2.105 . S
Sc112 O130 2.105 . S
O113 Sc110 2.025 . S
O113 Sc111 2.025 . S
O113 Sc112 2.025 . S
C114 O120 1.268 . S
C114 O130 1.268 . S
C115 O121 1.268 . S
C115 O129 1.268 . S
C116 O122 1.268 . S
C116 O131 1.268 . S
C117 O123 1.268 . S
C117 O127 1.268 . S
C118 O124 1.268 . S
C118 O126 1.268 . S
C119 O125 1.268 . S
C119 O128 1.268 . S
O120 Sc110 2.105 . S
O120 C114 1.268 . S
O121 Sc111 2.105 . S
O121 C115 1.268 . S
O122 Sc112 2.105 . S
O122 C116 1.268 . S
O123 Sc110 2.105 . S
O123 C117 1.268 . S
O124 Sc112 2.105 . S
O124 C118 1.268 . S
O125 Sc111 2.105 . S
O125 C119 1.268 . S
O126 Sc110 2.105 . S
O126 C118 1.268 . S
O127 Sc111 2.105 . S
O127 C117 1.268 . S
O128 Sc112 2.105 . S
O128 C119 1.268 . S
O129 Sc110 2.105 . S
O129 C115 1.268 . S
O130 Sc112 2.105 . S
O130 C114 1.268 . S
O131 Sc111 2.105 . S
O131 C116 1.268 . S
H132 C138 0.930 . S
H133 C142 0.930 . S
H134 C147 0.929 . S
H135 C145 0.929 . S
H136 C140 0.929 1_554 S
H137 C146 0.929 . S
C138 H132 0.930 . S
C138 C139 1.367 . S
C138 C146 1.378 . S
C139 C138 1.367 . S
C139 C147 1.433 . S
C140 H136 0.929 1_556 S
C140 C142 1.378 . S
C140 C144 1.350 1_556 S
C141 C144 1.463 . S
C141 C146 1.350 . S
C141 N149 1.427 . S
C142 H133 0.930 . S
C142 C140 1.378 . S
C142 C143 1.367 . S
C143 C142 1.367 . S
C143 C145 1.433 . S
C144 C140 1.350 1_554 S
C144 C141 1.463 . S
C144 N148 1.427 1_554 S
C145 H135 0.929 . S
C145 C143 1.433 . S
C145 N148 1.384 . S
C146 H137 0.929 . S
C146 C138 1.378 . S
C146 C141 1.350 . S
C147 H134 0.929 . S
C147 C139 1.433 . S
C147 N149 1.384 . S
N148 C144 1.427 1_556 S
N148 C145 1.384 . S
N149 C141 1.427 . S
N149 C147 1.384 . S
H150 C156 0.930 . S
H151 C160 0.930 . S
H152 C165 0.929 . S
H153 C163 0.929 . S
H154 C158 0.929 . S
H155 C164 0.929 . S
C156 H150 0.930 . S
C156 C157 1.367 . S
C156 C164 1.378 . S
C157 C156 1.367 . S
C157 C165 1.433 . S
C158 H154 0.929 . S
C158 C160 1.378 . S
C158 C162 1.350 . S
C159 C162 1.463 . S
C159 C164 1.350 . S
C159 N167 1.427 . S
C160 H151 0.930 . S
C160 C158 1.378 . S
C160 C161 1.367 . S
C161 C160 1.367 . S
C161 C163 1.433 . S
C162 C158 1.350 . S
C162 C159 1.463 . S
C162 N166 1.427 . S
C163 H153 0.929 . S
C163 C161 1.433 . S
C163 N166 1.384 . S
C164 H155 0.929 . S
C164 C156 1.378 . S
C164 C159 1.350 . S
C165 H152 0.929 . S
C165 C157 1.433 . S
C165 N167 1.384 . S
N166 C162 1.427 . S
N166 C163 1.384 . S
N167 C159 1.427 . S
N167 C165 1.384 . S
H168 C174 0.930 . S
H169 C178 0.930 . S
H170 C183 0.929 . S
H171 C181 0.929 . S
H172 C176 0.929 . S
H173 C182 0.929 . S
C174 H168 0.930 . S
C174 C175 1.367 . S
C174 C182 1.378 . S
C175 C174 1.367 . S
C175 C183 1.433 . S
C176 H172 0.929 . S
C176 C178 1.378 . S
C176 C180 1.350 . S
C177 C180 1.463 . S
C177 C182 1.350 . S
C177 N185 1.427 . S
C178 H169 0.930 . S
C178 C176 1.378 . S
C178 C179 1.367 . S
C179 C178 1.367 . S
C179 C181 1.433 . S
C180 C176 1.350 . S
C180 C177 1.463 . S
C180 N184 1.427 . S
C181 H171 0.929 . S
C181 C179 1.433 . S
C181 N184 1.384 . S
C182 H173 0.929 . S
C182 C174 1.378 . S
C182 C177 1.350 . S
C183 H170 0.929 . S
C183 C175 1.433 . S
C183 N185 1.384 . S
N184 C180 1.427 . S
N184 C181 1.384 . S
N185 C177 1.427 . S
N185 C183 1.384 . S
H186 C192 0.930 . S
H187 C196 0.930 . S
H188 C201 0.929 . S
H189 C199 0.929 . S
H190 C194 0.929 . S
H191 C200 0.929 . S
C192 H186 0.930 . S
C192 C193 1.367 . S
C192 C200 1.378 . S
C193 C192 1.367 . S
C193 C201 1.433 . S
C194 H190 0.929 . S
C194 C196 1.378 . S
C194 C198 1.350 . S
C195 C198 1.463 . S
C195 C200 1.350 . S
C195 N203 1.427 . S
C196 H187 0.930 . S
C196 C194 1.378 . S
C196 C197 1.367 . S
C197 C196 1.367 . S
C197 C199 1.433 . S
C198 C194 1.350 . S
C198 C195 1.463 . S
C198 N202 1.427 . S
C199 H189 0.929 . S
C199 C197 1.433 . S
C199 N202 1.384 . S
C200 H191 0.929 . S
C200 C192 1.378 . S
C200 C195 1.350 . S
C201 H188 0.929 . S
C201 C193 1.433 . S
C201 N203 1.384 . S
N202 C198 1.427 . S
N202 C199 1.384 . S
N203 C195 1.427 . S
N203 C201 1.384 . S
H204 C210 0.930 . S
H205 C214 0.930 . S
H206 C219 0.929 . S
H207 C217 0.929 . S
H208 C212 0.929 . S
H209 C218 0.929 . S
C210 H204 0.930 . S
C210 C211 1.367 . S
C210 C218 1.378 . S
C211 C210 1.367 . S
C211 C219 1.433 . S
C212 H208 0.929 . S
C212 C214 1.378 . S
C212 C216 1.350 . S
C213 C216 1.463 . S
C213 C218 1.350 . S
C213 N221 1.427 . S
C214 H205 0.930 . S
C214 C212 1.378 . S
C214 C215 1.367 . S
C215 C214 1.367 . S
C215 C217 1.433 . S
C216 C212 1.350 . S
C216 C213 1.463 . S
C216 N220 1.427 . S
C217 H207 0.929 . S
C217 C215 1.433 . S
C217 N220 1.384 . S
C218 H209 0.929 . S
C218 C210 1.378 . S
C218 C213 1.350 . S
C219 H206 0.929 . S
C219 C211 1.433 . S
C219 N221 1.384 . S
N220 C216 1.427 . S
N220 C217 1.384 . S
N221 C213 1.427 . S
N221 C219 1.384 . S
H222 C228 0.930 . S
H223 C232 0.930 . S
H224 C237 0.929 . S
H225 C235 0.929 . S
H226 C230 0.929 . S
H227 C236 0.929 1_556 S
C228 H222 0.930 . S
C228 C229 1.367 . S
C228 C236 1.378 . S
C229 C228 1.367 . S
C229 C237 1.433 . S
C230 H226 0.929 . S
C230 C232 1.378 . S
C230 C234 1.350 . S
C231 C234 1.463 . S
C231 C236 1.350 1_556 S
C231 N239 1.427 . S
C232 H223 0.930 . S
C232 C230 1.378 . S
C232 C233 1.367 . S
C233 C232 1.367 . S
C233 C235 1.433 . S
C234 C230 1.350 . S
C234 C231 1.463 . S
C234 N238 1.427 . S
C235 H225 0.929 . S
C235 C233 1.433 . S
C235 N238 1.384 . S
C236 H227 0.929 1_554 S
C236 C228 1.378 . S
C236 C231 1.350 1_554 S
C237 H224 0.929 . S
C237 C229 1.433 . S
C237 N239 1.384 1_554 S
N238 C234 1.427 . S
N238 C235 1.384 . S
N239 C231 1.427 . S
N239 C237 1.384 1_556 S
H240 C246 0.930 . S
H241 C250 0.930 . S
H242 C255 0.929 . S
H243 C253 0.929 . S
H244 C248 0.929 . S
H245 C254 0.929 . S
C246 H240 0.930 . S
C246 C247 1.367 . S
C246 C254 1.378 . S
C247 C246 1.367 . S
C247 C255 1.433 . S
C248 H244 0.929 . S
C248 C250 1.378 . S
C248 C252 1.350 . S
C249 C252 1.463 1_545 S
C249 C254 1.350 . S
C249 N257 1.427 . S
C250 H241 0.930 . S
C250 C248 1.378 . S
C250 C251 1.367 . S
C251 C250 1.367 . S
C251 C253 1.433 . S
C252 C248 1.350 . S
C252 C249 1.463 1_565 S
C252 N256 1.427 . S
C253 H243 0.929 . S
C253 C251 1.433 . S
C253 N256 1.384 . S
C254 H245 0.929 . S
C254 C246 1.378 . S
C254 C249 1.350 . S
C255 H242 0.929 . S
C255 C247 1.433 . S
C255 N257 1.384 . S
N256 C252 1.427 . S
N256 C253 1.384 . S
N257 C249 1.427 . S
N257 C255 1.384 . S
H258 C264 0.930 . S
H259 C268 0.930 . S
H260 C273 0.929 . S
H261 C271 0.929 . S
H262 C266 0.929 . S
H263 C272 0.929 . S
C264 H258 0.930 . S
C264 C265 1.367 . S
C264 C272 1.378 . S
C265 C264 1.367 . S
C265 C273 1.433 . S
C266 H262 0.929 . S
C266 C268 1.378 . S
C266 C270 1.350 . S
C267 C270 1.463 . S
C267 C272 1.350 . S
C267 N275 1.427 . S
C268 H259 0.930 . S
C268 C266 1.378 . S
C268 C269 1.367 . S
C269 C268 1.367 . S
C269 C271 1.433 . S
C270 C266 1.350 . S
C270 C267 1.463 . S
C270 N274 1.427 . S
C271 H261 0.929 . S
C271 C269 1.433 . S
C271 N274 1.384 . S
C272 H263 0.929 . S
C272 C264 1.378 . S
C272 C267 1.350 . S
C273 H260 0.929 . S
C273 C265 1.433 . S
C273 N275 1.384 . S
N274 C270 1.427 . S
N274 C271 1.384 . S
N275 C267 1.427 . S
N275 C273 1.384 . S
H276 C282 0.930 . S
H277 C286 0.930 . S
H278 C291 0.929 . S
H279 C289 0.929 . S
H280 C284 0.929 . S
H281 C290 0.929 . S
C282 H276 0.930 . S
C282 C283 1.367 . S
C282 C290 1.378 . S
C283 C282 1.367 . S
C283 C291 1.433 . S
C284 H280 0.929 . S
C284 C286 1.378 . S
C284 C288 1.350 . S
C285 C288 1.463 1_655 S
C285 C290 1.350 . S
C285 N293 1.427 . S
C286 H277 0.930 . S
C286 C284 1.378 . S
C286 C287 1.367 . S
C287 C286 1.367 . S
C287 C289 1.433 . S
C288 C284 1.350 . S
C288 C285 1.463 1_455 S
C288 N292 1.427 . S
C289 H279 0.929 . S
C289 C287 1.433 . S
C289 N292 1.384 . S
C290 H281 0.929 . S
C290 C282 1.378 . S
C290 C285 1.350 . S
C291 H278 0.929 . S
C291 C283 1.433 . S
C291 N293 1.384 . S
N292 C288 1.427 . S
N292 C289 1.384 . S
N293 C285 1.427 . S
N293 C291 1.384 . S
H294 C300 0.930 . S
H295 C304 0.930 . S
H296 C309 0.929 . S
H297 C307 0.929 . S
H298 C302 0.929 . S
H299 C308 0.929 . S
C300 H294 0.930 . S
C300 C301 1.367 . S
C300 C308 1.378 . S
C301 C300 1.367 . S
C301 C309 1.433 1_554 S
C302 H298 0.929 . S
C302 C304 1.378 . S
C302 C306 1.350 . S
C303 C306 1.463 1_564 S
C303 C308 1.350 . S
C303 N311 1.427 1_554 S
C304 H295 0.930 . S
C304 C302 1.378 . S
C304 C305 1.367 . S
C305 C304 1.367 . S
C305 C307 1.433 1_556 S
C306 C302 1.350 . S
C306 C303 1.463 1_546 S
C306 N310 1.427 1_556 S
C307 H297 0.929 . S
C307 C305 1.433 1_554 S
C307 N310 1.384 . S
C308 H299 0.929 . S
C308 C300 1.378 . S
C308 C303 1.350 . S
C309 H296 0.929 . S
C309 C301 1.433 1_556 S
C309 N311 1.384 . S
N310 C306 1.427 1_554 S
N310 C307 1.384 . S
N311 C303 1.427 1_556 S
N311 C309 1.384 . S
H312 C318 0.930 . S
H313 C322 0.930 . S
H314 C327 0.929 . S
H315 C325 0.929 . S
H316 C320 0.929 . S
H317 C326 0.929 . S
C318 H312 0.930 . S
C318 C319 1.367 . S
C318 C326 1.378 . S
C319 C318 1.367 . S
C319 C327 1.433 . S
C320 H316 0.929 . S
C320 C322 1.378 . S
C320 C324 1.350 . S
C321 C324 1.463 . S
C321 C326 1.350 . S
C321 N329 1.427 . S
C322 H313 0.930 . S
C322 C320 1.378 . S
C322 C323 1.367 . S
C323 C322 1.367 . S
C323 C325 1.433 . S
C324 C320 1.350 . S
C324 C321 1.463 . S
C324 N328 1.427 . S
C325 H315 0.929 . S
C325 C323 1.433 . S
C325 N328 1.384 . S
C326 H317 0.929 . S
C326 C318 1.378 . S
C326 C321 1.350 . S
C327 H314 0.929 . S
C327 C319 1.433 . S
C327 N329 1.384 . S
N328 C324 1.427 . S
N328 C325 1.384 . S
N329 C321 1.427 . S
N329 C327 1.384 . S
H330 C336 0.930 . S
H331 C340 0.930 . S
H332 C345 0.929 . S
H333 C343 0.929 . S
H334 C338 0.929 . S
H335 C344 0.929 . S
C336 H330 0.930 . S
C336 C337 1.367 . S
C336 C344 1.378 . S
C337 C336 1.367 . S
C337 C345 1.433 . S
C338 H334 0.929 . S
C338 C340 1.378 . S
C338 C342 1.350 . S
C339 C342 1.463 1_655 S
C339 C344 1.350 . S
C339 N347 1.427 . S
C340 H331 0.930 . S
C340 C338 1.378 . S
C340 C341 1.367 . S
C341 C340 1.367 . S
C341 C343 1.433 . S
C342 C338 1.350 . S
C342 C339 1.463 1_455 S
C342 N346 1.427 . S
C343 H333 0.929 . S
C343 C341 1.433 . S
C343 N346 1.384 . S
C344 H335 0.929 . S
C344 C336 1.378 . S
C344 C339 1.350 . S
C345 H332 0.929 . S
C345 C337 1.433 . S
C345 N347 1.384 . S
N346 C342 1.427 . S
N346 C343 1.384 . S
N347 C339 1.427 . S
N347 C345 1.384 . S
H348 C354 0.930 . S
H349 C358 0.930 . S
H350 C363 0.929 . S
H351 C361 0.929 . S
H352 C356 0.929 . S
H353 C362 0.929 . S
C354 H348 0.930 . S
C354 C355 1.367 . S
C354 C362 1.378 . S
C355 C354 1.367 . S
C355 C363 1.433 . S
C356 H352 0.929 . S
C356 C358 1.378 . S
C356 C360 1.350 . S
C357 C360 1.463 . S
C357 C362 1.350 . S
C357 N365 1.427 . S
C358 H349 0.930 . S
C358 C356 1.378 . S
C358 C359 1.367 . S
C359 C358 1.367 . S
C359 C361 1.433 . S
C360 C356 1.350 . S
C360 C357 1.463 . S
C360 N364 1.427 . S
C361 H351 0.929 . S
C361 C359 1.433 . S
C361 N364 1.384 . S
C362 H353 0.929 . S
C362 C354 1.378 . S
C362 C357 1.350 . S
C363 H350 0.929 . S
C363 C355 1.433 . S
C363 N365 1.384 . S
N364 C360 1.427 . S
N364 C361 1.384 . S
N365 C357 1.427 . S
N365 C363 1.384 . S
H366 C372 0.930 . S
H367 C376 0.930 . S
H368 C381 0.929 . S
H369 C379 0.929 . S
H370 C374 0.929 . S
H371 C380 0.929 . S
C372 H366 0.930 . S
C372 C373 1.367 . S
C372 C380 1.378 . S
C373 C372 1.367 . S
C373 C381 1.433 . S
C374 H370 0.929 . S
C374 C376 1.378 . S
C374 C378 1.350 . S
C375 C378 1.463 . S
C375 C380 1.350 . S
C375 N383 1.427 . S
C376 H367 0.930 . S
C376 C374 1.378 . S
C376 C377 1.367 . S
C377 C376 1.367 . S
C377 C379 1.433 . S
C378 C374 1.350 . S
C378 C375 1.463 . S
C378 N382 1.427 . S
C379 H369 0.929 . S
C379 C377 1.433 . S
C379 N382 1.384 . S
C380 H371 0.929 . S
C380 C372 1.378 . S
C380 C375 1.350 . S
C381 H368 0.929 . S
C381 C373 1.433 . S
C381 N383 1.384 . S
N382 C378 1.427 . S
N382 C379 1.384 . S
N383 C375 1.427 . S
N383 C381 1.384 . S
H384 C390 0.930 . S
H385 C394 0.930 . S
H386 C399 0.929 . S
H387 C397 0.929 . S
H388 C392 0.929 . S
H389 C398 0.929 . S
C390 H384 0.930 . S
C390 C391 1.367 . S
C390 C398 1.378 . S
C391 C390 1.367 . S
C391 C399 1.433 . S
C392 H388 0.929 . S
C392 C394 1.378 . S
C392 C396 1.350 . S
C393 C396 1.463 . S
C393 C398 1.350 . S
C393 N401 1.427 . S
C394 H385 0.930 . S
C394 C392 1.378 . S
C394 C395 1.367 . S
C395 C394 1.367 . S
C395 C397 1.433 . S
C396 C392 1.350 . S
C396 C393 1.463 . S
C396 N400 1.427 . S
C397 H387 0.929 . S
C397 C395 1.433 . S
C397 N400 1.384 . S
C398 H389 0.929 . S
C398 C390 1.378 . S
C398 C393 1.350 . S
C399 H386 0.929 . S
C399 C391 1.433 . S
C399 N401 1.384 . S
N400 C396 1.427 . S
N400 C397 1.384 . S
N401 C393 1.427 . S
N401 C399 1.384 . S
H402 C408 0.930 . S
H403 C412 0.930 . S
H404 C417 0.929 . S
H405 C415 0.929 . S
H406 C410 0.929 . S
H407 C416 0.929 . S
C408 H402 0.930 . S
C408 C409 1.367 1_554 S
C408 C416 1.378 . S
C409 C408 1.367 1_556 S
C409 C417 1.433 . S
C410 H406 0.929 . S
C410 C412 1.378 . S
C410 C414 1.350 . S
C411 C414 1.463 . S
C411 C416 1.350 1_556 S
C411 N419 1.427 . S
C412 H403 0.930 . S
C412 C410 1.378 . S
C412 C413 1.367 . S
C413 C412 1.367 . S
C413 C415 1.433 . S
C414 C410 1.350 . S
C414 C411 1.463 . S
C414 N418 1.427 . S
C415 H405 0.929 . S
C415 C413 1.433 . S
C415 N418 1.384 . S
C416 H407 0.929 . S
C416 C408 1.378 . S
C416 C411 1.350 1_554 S
C417 H404 0.929 . S
C417 C409 1.433 . S
C417 N419 1.384 . S
N418 C414 1.427 . S
N418 C415 1.384 . S
N419 C411 1.427 . S
N419 C417 1.384 . S
H420 C426 0.930 . S
H421 C430 0.930 . S
H422 C435 0.929 . S
H423 C433 0.929 . S
H424 C428 0.929 . S
H425 C434 0.929 1_556 S
C426 H420 0.930 . S
C426 C427 1.367 . S
C426 C434 1.378 . S
C427 C426 1.367 . S
C427 C435 1.433 . S
C428 H424 0.929 . S
C428 C430 1.378 . S
C428 C432 1.350 . S
C429 C432 1.463 . S
C429 C434 1.350 . S
C429 N437 1.427 . S
C430 H421 0.930 . S
C430 C428 1.378 . S
C430 C431 1.367 . S
C431 C430 1.367 . S
C431 C433 1.433 1_554 S
C432 C428 1.350 . S
C432 C429 1.463 . S
C432 N436 1.427 1_554 S
C433 H423 0.929 . S
C433 C431 1.433 1_556 S
C433 N436 1.384 . S
C434 H425 0.929 1_554 S
C434 C426 1.378 . S
C434 C429 1.350 . S
C435 H422 0.929 . S
C435 C427 1.433 . S
C435 N437 1.384 . S
N436 C432 1.427 1_556 S
N436 C433 1.384 . S
N437 C429 1.427 . S
N437 C435 1.384 . S
H438 C444 0.930 . S
H439 C448 0.930 . S
H440 C453 0.929 . S
H441 C451 0.929 . S
H442 C446 0.929 . S
H443 C452 0.929 . S
C444 H438 0.930 . S
C444 C445 1.367 . S
C444 C452 1.378 . S
C445 C444 1.367 . S
C445 C453 1.433 . S
C446 H442 0.929 . S
C446 C448 1.378 . S
C446 C450 1.350 . S
C447 C450 1.463 . S
C447 C452 1.350 . S
C447 N455 1.427 . S
C448 H439 0.930 . S
C448 C446 1.378 . S
C448 C449 1.367 . S
C449 C448 1.367 . S
C449 C451 1.433 . S
C450 C446 1.350 . S
C450 C447 1.463 . S
C450 N454 1.427 . S
C451 H441 0.929 . S
C451 C449 1.433 . S
C451 N454 1.384 . S
C452 H443 0.929 . S
C452 C444 1.378 . S
C452 C447 1.350 . S
C453 H440 0.929 . S
C453 C445 1.433 . S
C453 N455 1.384 . S
N454 C450 1.427 . S
N454 C451 1.384 . S
N455 C447 1.427 . S
N455 C453 1.384 . S
C139 C7 1.481 . S
C143 C6 1.488 . S
C157 C29 1.477 . S
C161 C28 1.483 1_554 S
C175 C50 1.479 . S
C179 C51 1.487 . S
C193 C72 1.489 . S
C197 C73 1.490 . S
C211 C94 1.480 . S
C215 C95 1.487 1_556 S
C229 C117 1.476 . S
C233 C116 1.476 . S
C247 C5 1.651 . S
C251 C119 1.647 . S
C265 C9 1.651 . S
C269 C27 1.647 . S
C283 C49 1.657 . S
C287 C31 1.651 . S
C301 C71 1.654 . S
C305 C53 1.659 . S
C319 C93 1.655 . S
C323 C75 1.659 . S
C337 C97 1.658 . S
C341 C115 1.659 . S
C355 C8 1.261 . S
C359 C92 1.262 . S
C373 C30 1.247 . S
C377 C114 1.255 . S
C391 C52 1.261 . S
C395 C4 1.250 . S
C409 C74 1.250 1_556 S
C413 C26 1.249 . S
C427 C96 1.262 . S
C431 C48 1.260 1_554 S
C445 C70 1.262 . S
C449 C118 1.261 . S
