# Generated by pormake.
# Topology lcs, (4)-cn, num edge types: 1
# Building blocks:
#     Node 0, Type 0, BuildingBlock: UXUYUI_clean_sbu_0, # of connection points: 4
#     Node 1, Type 0, BuildingBlock: UXUYUI_clean_sbu_0, # of connection points: 4
#     Node 2, Type 0, BuildingBlock: UXUYUI_clean_sbu_0, # of connection points: 4
#     Node 3, Type 0, BuildingBlock: UXUYUI_clean_sbu_0, # of connection points: 4
#     Node 4, Type 0, BuildingBlock: UXUYUI_clean_sbu_0, # of connection points: 4
#     Node 5, Type 0, BuildingBlock: UXUYUI_clean_sbu_0, # of connection points: 4
#     Node 6, Type 0, BuildingBlock: UXUYUI_clean_sbu_0, # of connection points: 4
#     Node 7, Type 0, BuildingBlock: UXUYUI_clean_sbu_0, # of connection points: 4
#     Node 8, Type 0, BuildingBlock: UXUYUI_clean_sbu_0, # of connection points: 4
#     Node 9, Type 0, BuildingBlock: UXUYUI_clean_sbu_0, # of connection points: 4
#     Node 10, Type 0, BuildingBlock: UXUYUI_clean_sbu_0, # of connection points: 4
#     Node 11, Type 0, BuildingBlock: UXUYUI_clean_sbu_0, # of connection points: 4
#     Node 12, Type 0, BuildingBlock: UXUYUI_clean_sbu_0, # of connection points: 4
#     Node 13, Type 0, BuildingBlock: UXUYUI_clean_sbu_0, # of connection points: 4
#     Node 14, Type 0, BuildingBlock: UXUYUI_clean_sbu_0, # of connection points: 4
#     Node 15, Type 0, BuildingBlock: UXUYUI_clean_sbu_0, # of connection points: 4
#     Node 16, Type 0, BuildingBlock: UXUYUI_clean_sbu_0, # of connection points: 4
#     Node 17, Type 0, BuildingBlock: UXUYUI_clean_sbu_0, # of connection points: 4
#     Node 18, Type 0, BuildingBlock: UXUYUI_clean_sbu_0, # of connection points: 4
#     Node 19, Type 0, BuildingBlock: UXUYUI_clean_sbu_0, # of connection points: 4
#     Node 20, Type 0, BuildingBlock: UXUYUI_clean_sbu_0, # of connection points: 4
#     Node 21, Type 0, BuildingBlock: UXUYUI_clean_sbu_0, # of connection points: 4
#     Node 22, Type 0, BuildingBlock: UXUYUI_clean_sbu_0, # of connection points: 4
#     Node 23, Type 0, BuildingBlock: UXUYUI_clean_sbu_0, # of connection points: 4
#     Edge 24, Type (0, 0), BuildingBlock: MIFKUJ_clean_linker_0, # of connection points: 2
#     Edge 25, Type (0, 0), BuildingBlock: MIFKUJ_clean_linker_0, # of connection points: 2
#     Edge 26, Type (0, 0), BuildingBlock: MIFKUJ_clean_linker_0, # of connection points: 2
#     Edge 27, Type (0, 0), BuildingBlock: MIFKUJ_clean_linker_0, # of connection points: 2
#     Edge 28, Type (0, 0), BuildingBlock: MIFKUJ_clean_linker_0, # of connection points: 2
#     Edge 29, Type (0, 0), BuildingBlock: MIFKUJ_clean_linker_0, # of connection points: 2
#     Edge 30, Type (0, 0), BuildingBlock: MIFKUJ_clean_linker_0, # of connection points: 2
#     Edge 31, Type (0, 0), BuildingBlock: MIFKUJ_clean_linker_0, # of connection points: 2
#     Edge 32, Type (0, 0), BuildingBlock: MIFKUJ_clean_linker_0, # of connection points: 2
#     Edge 33, Type (0, 0), BuildingBlock: MIFKUJ_clean_linker_0, # of connection points: 2
#     Edge 34, Type (0, 0), BuildingBlock: MIFKUJ_clean_linker_0, # of connection points: 2
#     Edge 35, Type (0, 0), BuildingBlock: MIFKUJ_clean_linker_0, # of connection points: 2
#     Edge 36, Type (0, 0), BuildingBlock: MIFKUJ_clean_linker_0, # of connection points: 2
#     Edge 37, Type (0, 0), BuildingBlock: MIFKUJ_clean_linker_0, # of connection points: 2
#     Edge 38, Type (0, 0), BuildingBlock: MIFKUJ_clean_linker_0, # of connection points: 2
#     Edge 39, Type (0, 0), BuildingBlock: MIFKUJ_clean_linker_0, # of connection points: 2
#     Edge 40, Type (0, 0), BuildingBlock: MIFKUJ_clean_linker_0, # of connection points: 2
#     Edge 41, Type (0, 0), BuildingBlock: MIFKUJ_clean_linker_0, # of connection points: 2
#     Edge 42, Type (0, 0), BuildingBlock: MIFKUJ_clean_linker_0, # of connection points: 2
#     Edge 43, Type (0, 0), BuildingBlock: MIFKUJ_clean_linker_0, # of connection points: 2
#     Edge 44, Type (0, 0), BuildingBlock: MIFKUJ_clean_linker_0, # of connection points: 2
#     Edge 45, Type (0, 0), BuildingBlock: MIFKUJ_clean_linker_0, # of connection points: 2
#     Edge 46, Type (0, 0), BuildingBlock: MIFKUJ_clean_linker_0, # of connection points: 2
#     Edge 47, Type (0, 0), BuildingBlock: MIFKUJ_clean_linker_0, # of connection points: 2
#     Edge 48, Type (0, 0), BuildingBlock: MIFKUJ_clean_linker_0, # of connection points: 2
#     Edge 49, Type (0, 0), BuildingBlock: MIFKUJ_clean_linker_0, # of connection points: 2
#     Edge 50, Type (0, 0), BuildingBlock: MIFKUJ_clean_linker_0, # of connection points: 2
#     Edge 51, Type (0, 0), BuildingBlock: MIFKUJ_clean_linker_0, # of connection points: 2
#     Edge 52, Type (0, 0), BuildingBlock: MIFKUJ_clean_linker_0, # of connection points: 2
#     Edge 53, Type (0, 0), BuildingBlock: MIFKUJ_clean_linker_0, # of connection points: 2
#     Edge 54, Type (0, 0), BuildingBlock: MIFKUJ_clean_linker_0, # of connection points: 2
#     Edge 55, Type (0, 0), BuildingBlock: MIFKUJ_clean_linker_0, # of connection points: 2
#     Edge 56, Type (0, 0), BuildingBlock: MIFKUJ_clean_linker_0, # of connection points: 2
#     Edge 57, Type (0, 0), BuildingBlock: MIFKUJ_clean_linker_0, # of connection points: 2
#     Edge 58, Type (0, 0), BuildingBlock: MIFKUJ_clean_linker_0, # of connection points: 2
#     Edge 59, Type (0, 0), BuildingBlock: MIFKUJ_clean_linker_0, # of connection points: 2
#     Edge 60, Type (0, 0), BuildingBlock: MIFKUJ_clean_linker_0, # of connection points: 2
#     Edge 61, Type (0, 0), BuildingBlock: MIFKUJ_clean_linker_0, # of connection points: 2
#     Edge 62, Type (0, 0), BuildingBlock: MIFKUJ_clean_linker_0, # of connection points: 2
#     Edge 63, Type (0, 0), BuildingBlock: MIFKUJ_clean_linker_0, # of connection points: 2
#     Edge 64, Type (0, 0), BuildingBlock: MIFKUJ_clean_linker_0, # of connection points: 2
#     Edge 65, Type (0, 0), BuildingBlock: MIFKUJ_clean_linker_0, # of connection points: 2
#     Edge 66, Type (0, 0), BuildingBlock: MIFKUJ_clean_linker_0, # of connection points: 2
#     Edge 67, Type (0, 0), BuildingBlock: MIFKUJ_clean_linker_0, # of connection points: 2
#     Edge 68, Type (0, 0), BuildingBlock: MIFKUJ_clean_linker_0, # of connection points: 2
#     Edge 69, Type (0, 0), BuildingBlock: MIFKUJ_clean_linker_0, # of connection points: 2
#     Edge 70, Type (0, 0), BuildingBlock: MIFKUJ_clean_linker_0, # of connection points: 2
#     Edge 71, Type (0, 0), BuildingBlock: MIFKUJ_clean_linker_0, # of connection points: 2
# Relax obj value: 0.148
# Max RMSD: 0.190
# Mean RMSD: 0.190
data_MOF--net-lcs--node1-UXUYUI_clean_sbu_0--edge1-MIFKUJ_clean_linker_0
_symmetry_space_group_name_H-M    P1
_symmetry_Int_Tables_number       1
_symmetry_cell_setting            triclinic
loop_
_symmetry_equiv_pos_as_xyz
'x, y, z'
_cell_length_a     86.235349
_cell_length_b     86.254312
_cell_length_c     86.243488
_cell_angle_alpha  90.00593
_cell_angle_beta   90.008159
_cell_angle_gamma 90.020737
loop_
_atom_site_label
_atom_site_type_symbol
_atom_site_fract_x
_atom_site_fract_y
_atom_site_fract_z
_atom_type_partial_charge
Li0 Li 0.00334 0.26184 0.36122 0.0
Li1 Li 0.0116 0.24443 0.3821 0.0
Li2 Li 0.99331 0.23511 0.36122 0.0
Li3 Li 0.98468 0.25263 0.38169 0.0
C4 C 0.02567 0.24153 0.34766 0.0
N5 N 0.04698 0.24023 0.32375 0.0
C6 C 0.04155 0.24252 0.35081 0.0
C7 C 0.02067 0.23959 0.33237 0.0
C8 C 0.05213 0.24193 0.33857 0.0
C9 C 0.03161 0.23903 0.32044 0.0
C10 C 0.01176 0.27355 0.39495 0.0
C11 C 0.01856 0.27788 0.42173 0.0
N12 N 0.02907 0.28875 0.41723 0.0
C13 C 0.02249 0.2849 0.3906 0.0
C14 C 0.00965 0.27013 0.41064 0.0
C15 C 0.03118 0.2924 0.40204 0.0
C16 C -0.00105 0.28911 0.34351 0.0
N17 N 0.00968 0.27891 0.34893 0.0
C18 C 0.03025 0.29396 0.33819 0.0
C19 C 0.02507 0.28113 0.34649 0.0
C20 C 0.01948 0.30479 0.33253 0.0
C21 C 0.00362 0.30218 0.33516 0.0
H22 H 0.98678 0.28724 0.34593 0.0
H23 H 0.03339 0.27318 0.35138 0.0
C24 C 0.02862 0.2249 0.40194 0.0
N25 N 0.02881 0.2388 0.39456 0.0
C26 C 0.04143 0.22009 0.41058 0.0
C27 C 0.05431 0.24409 0.40397 0.0
C28 C 0.04134 0.24833 0.39531 0.0
C29 C 0.05455 0.22973 0.41166 0.0
H30 H 0.01864 0.21739 0.40085 0.0
H31 H 0.04139 0.2591 0.38894 0.0
C32 C 0.97216 0.25506 0.34618 0.0
N33 N 0.95326 0.25572 0.32031 0.0
C34 C 0.95607 0.25393 0.34781 0.0
C35 C 0.9786 0.2568 0.33142 0.0
C36 C 0.94672 0.2542 0.33458 0.0
C37 C 0.96886 0.25704 0.31848 0.0
C38 C 0.98426 0.22417 0.39524 0.0
C39 C 0.97273 0.21348 0.39126 0.0
C40 C 0.987 0.22755 0.41084 0.0
C41 C 0.96388 0.20663 0.40297 0.0
C42 C 0.97791 0.22045 0.42222 0.0
N43 N 0.96662 0.21025 0.41808 0.0
C44 C 0.99816 0.20798 0.34347 0.0
C45 C 0.97187 0.21526 0.34684 0.0
C46 C 0.99371 0.19469 0.33534 0.0
N47 N 0.98725 0.21792 0.34899 0.0
C48 C 0.96691 0.20214 0.33883 0.0
C49 C 0.97788 0.19156 0.33311 0.0
H50 H 0.0103 0.21017 0.3457 0.0
H51 H 0.96343 0.22306 0.35178 0.0
C52 C 0.96737 0.2712 0.40243 0.0
N53 N 0.96712 0.25812 0.39366 0.0
C54 C 0.95417 0.27578 0.41059 0.0
C55 C 0.94078 0.25324 0.40064 0.0
C56 C 0.95419 0.24919 0.39258 0.0
C57 C 0.94058 0.2668 0.40966 0.0
H58 H 0.97771 0.27828 0.4028 0.0
H59 H 0.9542 0.23905 0.38522 0.0
O60 O 0.01517 0.24209 0.35954 0.0
O61 O 0.00323 0.26601 0.38389 0.0
O62 O 0.98148 0.25482 0.35903 0.0
O63 O 0.99296 0.23109 0.38391 0.0
H64 H 0.04565 0.24385 0.36259 0.0
H65 H 0.00849 0.2383 0.32974 0.0
H66 H 0.06444 0.24281 0.34084 0.0
H67 H 0.02788 0.23757 0.30855 0.0
H68 H 0.0171 0.27529 0.43391 0.0
H69 H 0.02417 0.28783 0.37854 0.0
H70 H 0.00117 0.26165 0.41423 0.0
H71 H 0.03961 0.30112 0.39883 0.0
H72 H 0.04258 0.29545 0.33634 0.0
H73 H 0.99495 0.31036 0.33122 0.0
H74 H 0.04119 0.20877 0.41599 0.0
H75 H 0.06406 0.25198 0.40455 0.0
H76 H 0.95086 0.25277 0.35915 0.0
H77 H 0.99096 0.25816 0.32997 0.0
H78 H 0.93426 0.25322 0.33567 0.0
H79 H 0.97371 0.25835 0.30699 0.0
H80 H 0.97056 0.21059 0.37927 0.0
H81 H 0.9961 0.23549 0.41414 0.0
H82 H 0.95484 0.19844 0.40005 0.0
H83 H 0.97986 0.22303 0.43434 0.0
H84 H 0.00253 0.1867 0.33135 0.0
H85 H 0.95459 0.20018 0.33732 0.0
H86 H 0.95447 0.28648 0.41714 0.0
H87 H 0.93064 0.24589 0.39968 0.0
Li88 Li 0.00305 0.75939 0.63272 0.0
Li89 Li 0.98501 0.7527 0.61205 0.0
Li90 Li 0.99375 0.73325 0.63177 0.0
Li91 Li 0.01143 0.74157 0.61122 0.0
C92 C 0.97524 0.76198 0.64575 0.0
N93 N 0.96379 0.78214 0.66785 0.0
C94 C 0.96475 0.77358 0.64153 0.0
C95 C 0.97975 0.76051 0.66125 0.0
C96 C 0.95912 0.78369 0.65287 0.0
C97 C 0.97389 0.77086 0.67224 0.0
C98 C 0.00721 0.77353 0.59792 0.0
C99 C 0.01244 0.77784 0.57077 0.0
N100 N 0.01176 0.7934 0.57317 0.0
C101 C 0.00682 0.78958 0.60015 0.0
C102 C 0.01027 0.76762 0.58314 0.0
C103 C 0.00903 0.79943 0.58748 0.0
C104 C 0.02175 0.7742 0.65527 0.0
N105 N 0.0095 0.77604 0.64553 0.0
C106 C 0.00675 0.80253 0.65307 0.0
C107 C 0.00196 0.78982 0.64432 0.0
C108 C 0.01952 0.80108 0.66307 0.0
C109 C 0.02698 0.78664 0.66421 0.0
H110 H 0.02759 0.76313 0.65592 0.0
H111 H 0.99235 0.79099 0.63637 0.0
C112 C 0.95708 0.74971 0.59527 0.0
N113 N 0.96808 0.75995 0.60002 0.0
C114 C 0.94446 0.75477 0.5865 0.0
C115 C 0.9545 0.7809 0.58807 0.0
C116 C 0.96694 0.77531 0.59675 0.0
C117 C 0.94307 0.77057 0.58278 0.0
H118 H 0.95809 0.73759 0.59833 0.0
H119 H 0.9755 0.78329 0.60118 0.0
C120 C 0.02198 0.72916 0.64326 0.0
N121 N 0.03416 0.70633 0.66215 0.0
C122 C 0.03127 0.71747 0.63695 0.0
C123 C 0.01905 0.72935 0.65919 0.0
C124 C 0.03728 0.70601 0.64669 0.0
C125 C 0.02525 0.71767 0.66854 0.0
C126 C 0.9884 0.7225 0.59574 0.0
C127 C 0.98645 0.70642 0.59632 0.0
C128 C 0.98716 0.73017 0.58152 0.0
C129 C 0.9836 0.69826 0.58261 0.0
C130 C 0.98428 0.72161 0.56808 0.0
N131 N 0.9826 0.70596 0.56889 0.0
C132 C 0.97679 0.71671 0.6546 0.0
C133 C 0.99452 0.70177 0.63984 0.0
C134 C 0.97211 0.70354 0.66278 0.0
N135 N 0.98777 0.71556 0.64337 0.0
C136 C 0.99022 0.68834 0.64772 0.0
C137 C 0.97877 0.68909 0.65927 0.0
H138 H 0.97148 0.72779 0.65704 0.0
H139 H 0.00317 0.7012 0.63079 0.0
C140 C 0.04073 0.74525 0.59773 0.0
N141 N 0.0283 0.73558 0.59845 0.0
C142 C 0.05373 0.74119 0.58898 0.0
C143 C 0.04079 0.71739 0.58176 0.0
C144 C 0.02814 0.72184 0.59076 0.0
C145 C 0.0539 0.72704 0.58088 0.0
H146 H 0.04059 0.75603 0.60414 0.0
H147 H 0.01832 0.71417 0.59178 0.0
O148 O 0.98103 0.7521 0.63477 0.0
O149 O 0.00519 0.76373 0.61027 0.0
O150 O 0.0158 0.74035 0.63387 0.0
O151 O 0.99125 0.73063 0.60908 0.0
H152 H 0.96103 0.77481 0.62962 0.0
H153 H 0.9878 0.75156 0.66472 0.0
H154 H 0.95106 0.79277 0.64975 0.0
H155 H 0.97738 0.76992 0.68425 0.0
H156 H 0.01477 0.77339 0.55927 0.0
H157 H 0.00473 0.79442 0.61151 0.0
H158 H 0.01117 0.75529 0.58122 0.0
H159 H 0.00862 0.81187 0.58904 0.0
H160 H 0.00081 0.8135 0.65165 0.0
H161 H 0.0368 0.78501 0.67187 0.0
H162 H 0.93595 0.74639 0.58261 0.0
H163 H 0.95368 0.79323 0.58584 0.0
H164 H 0.0337 0.71717 0.62466 0.0
H165 H 0.01198 0.73836 0.66428 0.0
H166 H 0.04441 0.69684 0.64196 0.0
H167 H 0.02299 0.71761 0.68088 0.0
H168 H 0.98716 0.70027 0.60721 0.0
H169 H 0.98812 0.74263 0.58088 0.0
H170 H 0.98216 0.6858 0.5829 0.0
H171 H 0.9833 0.72743 0.55701 0.0
H172 H 0.96307 0.7046 0.67144 0.0
H173 H 0.99577 0.67747 0.64476 0.0
H174 H 0.06365 0.74888 0.58888 0.0
H175 H 0.04029 0.70647 0.57559 0.0
Li176 Li 0.50331 0.76257 0.86081 0.0
Li177 Li 0.51364 0.74619 0.88105 0.0
Li178 Li 0.49452 0.73586 0.86235 0.0
Li179 Li 0.48671 0.75424 0.88246 0.0
C180 C 0.53094 0.74689 0.85393 0.0
N181 N 0.56114 0.7538 0.84576 0.0
C182 C 0.53794 0.76048 0.85929 0.0
C183 C 0.53929 0.73682 0.84438 0.0
C184 C 0.55322 0.76377 0.85504 0.0
C185 C 0.55455 0.74051 0.84038 0.0
C186 C 0.51114 0.77534 0.89558 0.0
C187 C 0.51351 0.77858 0.92325 0.0
N188 N 0.52305 0.79092 0.92091 0.0
C189 C 0.52084 0.78816 0.89344 0.0
C190 C 0.50734 0.77059 0.91059 0.0
C191 C 0.52679 0.79584 0.9064 0.0
C192 C 0.50362 0.79379 0.85245 0.0
N193 N 0.50738 0.77939 0.84732 0.0
C194 C 0.51747 0.7898 0.82373 0.0
C195 C 0.51403 0.77714 0.8332 0.0
C196 C 0.51401 0.80487 0.82885 0.0
C197 C 0.50686 0.80677 0.84337 0.0
H198 H 0.49831 0.79518 0.86373 0.0
H199 H 0.51681 0.76554 0.82937 0.0
C200 C 0.53295 0.72521 0.89615 0.0
N201 N 0.53145 0.74052 0.89277 0.0
C202 C 0.54578 0.7199 0.90444 0.0
C203 C 0.55543 0.7462 0.90545 0.0
C204 C 0.5424 0.751 0.89715 0.0
C205 C 0.55725 0.73045 0.90919 0.0
H206 H 0.52421 0.7171 0.89228 0.0
H207 H 0.54116 0.76305 0.89407 0.0
C208 C 0.47597 0.75622 0.84524 0.0
N209 N 0.46471 0.75938 0.81541 0.0
C210 C 0.46166 0.76335 0.84266 0.0
C211 C 0.48457 0.75069 0.83265 0.0
C212 C 0.45616 0.76484 0.82749 0.0
C213 C 0.47868 0.7524 0.81767 0.0
C214 C 0.48956 0.72484 0.89712 0.0
C215 C 0.47787 0.71389 0.89464 0.0
C216 C 0.49555 0.7269 0.91204 0.0
C217 C 0.47205 0.70549 0.90721 0.0
C218 C 0.48945 0.71826 0.9243 0.0
N219 N 0.4779 0.70785 0.92166 0.0
C220 C 0.49802 0.70813 0.84514 0.0
C221 C 0.47213 0.71605 0.85004 0.0
C222 C 0.49277 0.69498 0.83728 0.0
N223 N 0.48767 0.71826 0.85134 0.0
C224 C 0.46639 0.70306 0.84235 0.0
C225 C 0.47676 0.69227 0.83593 0.0
H226 H 0.51031 0.71021 0.84645 0.0
H227 H 0.46422 0.72435 0.85512 0.0
C228 C 0.46928 0.7748 0.901 0.0
N229 N 0.46982 0.76014 0.89525 0.0
C230 C 0.45658 0.77966 0.90977 0.0
C231 C 0.44509 0.75433 0.9063 0.0
C232 C 0.45799 0.74999 0.89755 0.0
C233 C 0.44424 0.76937 0.91249 0.0
H234 H 0.47855 0.78285 0.8985 0.0
H235 H 0.45839 0.73864 0.89231 0.0
O236 O 0.516 0.74337 0.85796 0.0
O237 O 0.50528 0.76765 0.883 0.0
O238 O 0.48149 0.75474 0.86004 0.0
O239 O 0.49547 0.73306 0.88489 0.0
H240 H 0.53165 0.76844 0.86663 0.0
H241 H 0.53404 0.72626 0.8401 0.0
H242 H 0.55877 0.77425 0.85913 0.0
H243 H 0.56116 0.73282 0.833 0.0
H244 H 0.51068 0.77501 0.93493 0.0
H245 H 0.52382 0.79207 0.8819 0.0
H246 H 0.49954 0.76097 0.91244 0.0
H247 H 0.53439 0.80572 0.90493 0.0
H248 H 0.52282 0.78781 0.81255 0.0
H249 H 0.50418 0.81819 0.84787 0.0
H250 H 0.54686 0.70762 0.90682 0.0
H251 H 0.56396 0.75473 0.90893 0.0
H252 H 0.45488 0.76768 0.85229 0.0
H253 H 0.49567 0.74515 0.83442 0.0
H254 H 0.4451 0.77033 0.82532 0.0
H255 H 0.48521 0.74819 0.80782 0.0
H256 H 0.47323 0.71199 0.88314 0.0
H257 H 0.50495 0.73492 0.91412 0.0
H258 H 0.4629 0.69709 0.90547 0.0
H259 H 0.49395 0.71978 0.93591 0.0
H260 H 0.50114 0.68686 0.83261 0.0
H261 H 0.45396 0.7015 0.84139 0.0
H262 H 0.45624 0.79149 0.91396 0.0
H263 H 0.43585 0.74601 0.9081 0.0
Li264 Li 0.50413 0.261 0.1347 0.0
Li265 Li 0.4866 0.25452 0.1134 0.0
Li266 Li 0.49516 0.23461 0.13295 0.0
Li267 Li 0.51314 0.24382 0.11297 0.0
C268 C 0.47585 0.26232 0.14744 0.0
N269 N 0.46309 0.28054 0.17049 0.0
C270 C 0.46542 0.27413 0.14365 0.0
C271 C 0.4796 0.25963 0.16297 0.0
C272 C 0.45914 0.28325 0.15547 0.0
C273 C 0.47309 0.26901 0.17445 0.0
C274 C 0.50801 0.27601 0.10028 0.0
C275 C 0.51156 0.28102 0.07299 0.0
N276 N 0.51107 0.29652 0.07584 0.0
C277 C 0.50775 0.292 0.10296 0.0
C278 C 0.51009 0.27048 0.0852 0.0
C279 C 0.50923 0.30217 0.09045 0.0
C280 C 0.52319 0.27569 0.15683 0.0
N281 N 0.51028 0.2774 0.14795 0.0
C282 C 0.50722 0.30358 0.15642 0.0
C283 C 0.50227 0.29097 0.1476 0.0
C284 C 0.52071 0.30227 0.16543 0.0
C285 C 0.52866 0.28807 0.1657 0.0
H286 H 0.52945 0.26484 0.15671 0.0
H287 H 0.49229 0.29213 0.14012 0.0
C288 C 0.45942 0.25154 0.09539 0.0
N289 N 0.46986 0.26182 0.1012 0.0
C290 C 0.44673 0.25678 0.08681 0.0
C291 C 0.4557 0.28308 0.09057 0.0
C292 C 0.46819 0.27733 0.09905 0.0
C293 C 0.44471 0.27276 0.08439 0.0
H294 H 0.46083 0.23928 0.0976 0.0
H295 H 0.47637 0.28527 0.10421 0.0
C296 C 0.5238 0.23144 0.14529 0.0
N297 N 0.53743 0.20997 0.16476 0.0
C298 C 0.53423 0.22054 0.13937 0.0
C299 C 0.52048 0.23157 0.16115 0.0
C300 C 0.54096 0.20975 0.14939 0.0
C301 C 0.52744 0.22057 0.17079 0.0
C302 C 0.49197 0.22346 0.09727 0.0
C303 C 0.4922 0.20732 0.09881 0.0
C304 C 0.49022 0.23005 0.08257 0.0
C305 C 0.49101 0.19806 0.08557 0.0
C306 C 0.48905 0.22041 0.06962 0.0
N307 N 0.48949 0.20474 0.07137 0.0
C308 C 0.47527 0.21751 0.15233 0.0
C309 C 0.497 0.20344 0.1431 0.0
C310 C 0.46968 0.20439 0.15998 0.0
N311 N 0.48868 0.21678 0.14408 0.0
C312 C 0.49197 0.19011 0.15074 0.0
C313 C 0.47806 0.19047 0.15917 0.0
H314 H 0.46875 0.22821 0.15272 0.0
H315 H 0.50737 0.20304 0.13609 0.0
C316 C 0.54139 0.24966 0.09805 0.0
N317 N 0.53032 0.23865 0.10025 0.0
C318 C 0.55449 0.24638 0.08914 0.0
C319 C 0.54456 0.22049 0.08499 0.0
C320 C 0.53172 0.22424 0.09406 0.0
C321 C 0.55617 0.23162 0.08248 0.0
H322 H 0.54007 0.26096 0.10331 0.0
H323 H 0.52309 0.21551 0.09643 0.0
O324 O 0.48223 0.25337 0.13602 0.0
O325 O 0.5066 0.2659 0.11243 0.0
O326 O 0.51703 0.24204 0.13563 0.0
O327 O 0.49313 0.23267 0.11014 0.0
H328 H 0.46227 0.27629 0.13171 0.0
H329 H 0.48748 0.25041 0.16611 0.0
H330 H 0.45113 0.2925 0.15269 0.0
H331 H 0.47597 0.26711 0.18651 0.0
H332 H 0.51315 0.27688 0.06126 0.0
H333 H 0.50633 0.2965 0.11458 0.0
H334 H 0.5108 0.25819 0.08294 0.0
H335 H 0.50894 0.31457 0.09236 0.0
H336 H 0.50094 0.31443 0.1557 0.0
H337 H 0.53911 0.28664 0.17252 0.0
H338 H 0.43838 0.24846 0.08248 0.0
H339 H 0.45462 0.29548 0.08894 0.0
H340 H 0.53702 0.22035 0.12715 0.0
H341 H 0.51261 0.24004 0.16595 0.0
H342 H 0.54898 0.20119 0.14495 0.0
H343 H 0.5249 0.22047 0.18308 0.0
H344 H 0.49338 0.202 0.11009 0.0
H345 H 0.48954 0.24248 0.08118 0.0
H346 H 0.49128 0.18557 0.08659 0.0
H347 H 0.48771 0.22537 0.05818 0.0
H348 H 0.45891 0.2051 0.1664 0.0
H349 H 0.4986 0.1795 0.14963 0.0
H350 H 0.5632 0.25527 0.08746 0.0
H351 H 0.54561 0.20886 0.08036 0.0
Li352 Li 0.00273 0.7339 0.13459 0.0
Li353 Li 0.01206 0.7511 0.11427 0.0
Li354 Li 0.99438 0.76031 0.13437 0.0
Li355 Li 0.98553 0.74289 0.114 0.0
C356 C 0.0221 0.76352 0.14619 0.0
N357 N 0.03378 0.7869 0.16474 0.0
C358 C 0.03221 0.77457 0.13998 0.0
C359 C 0.01799 0.76433 0.16185 0.0
C360 C 0.03799 0.7863 0.14956 0.0
C361 C 0.02398 0.77626 0.17103 0.0
C362 C 0.01424 0.72311 0.10204 0.0
C363 C 0.02518 0.72091 0.07639 0.0
N364 N 0.03593 0.7108 0.08193 0.0
C365 C 0.02537 0.71266 0.10747 0.0
C366 C 0.01409 0.72723 0.08636 0.0
C367 C 0.03625 0.70657 0.09712 0.0
C368 C 0.00311 0.70238 0.14316 0.0
N369 N 0.008 0.71677 0.1473 0.0
C370 C 0.02067 0.70667 0.16973 0.0
C371 C 0.01662 0.71913 0.16027 0.0
C372 C 0.01593 0.69161 0.1657 0.0
C373 C 0.00697 0.68956 0.15223 0.0
H374 H 0.99635 0.70087 0.1327 0.0
H375 H 0.02042 0.73068 0.16323 0.0
C376 C 0.0289 0.76842 0.09206 0.0
N377 N 0.02967 0.75648 0.1023 0.0
C378 C 0.04214 0.77312 0.08404 0.0
C379 C 0.0566 0.75292 0.09703 0.0
C380 C 0.04315 0.74879 0.10497 0.0
C381 C 0.0563 0.7654 0.08654 0.0
H382 H 0.01809 0.77456 0.09045 0.0
H383 H 0.04349 0.73958 0.11347 0.0
C384 C 0.97503 0.73076 0.14586 0.0
N385 N 0.96374 0.70732 0.16454 0.0
C386 C 0.96651 0.71858 0.13939 0.0
C387 C 0.97778 0.73104 0.16183 0.0
C388 C 0.96089 0.70685 0.14904 0.0
C389 C 0.972 0.71906 0.17108 0.0
C390 C 0.98308 0.77065 0.10203 0.0
C391 C 0.9709 0.77953 0.10797 0.0
C392 C 0.98392 0.76781 0.0861 0.0
C393 C 0.95966 0.78534 0.09785 0.0
C394 C 0.97244 0.7738 0.07637 0.0
N395 N 0.96064 0.78236 0.0824 0.0
C396 C 0.99498 0.79172 0.14324 0.0
C397 C 0.97759 0.77598 0.1576 0.0
C398 C 0.99045 0.80482 0.15157 0.0
N399 N 0.98855 0.77769 0.14643 0.0
C400 C 0.97266 0.78877 0.16616 0.0
C401 C 0.97903 0.80344 0.1631 0.0
H402 H 0.00348 0.79274 0.13407 0.0
H403 H 0.9725 0.76474 0.1597 0.0
C404 C 0.96909 0.72826 0.08929 0.0
N405 N 0.96798 0.73782 0.10176 0.0
C406 C 0.95583 0.72428 0.08089 0.0
C407 C 0.94061 0.7401 0.09832 0.0
C408 C 0.95414 0.74375 0.10638 0.0
C409 C 0.94133 0.73013 0.08547 0.0
H410 H 0.98021 0.72351 0.08603 0.0
H411 H 0.95362 0.7512 0.11646 0.0
O412 O 0.01613 0.75207 0.13695 0.0
O413 O 0.0036 0.72933 0.11202 0.0
O414 O 0.98097 0.74216 0.13656 0.0
O415 O 0.994 0.76457 0.11179 0.0
H416 H 0.03549 0.77419 0.1279 0.0
H417 H 0.00999 0.75603 0.1668 0.0
H418 H 0.04578 0.79495 0.1449 0.0
H419 H 0.02079 0.77709 0.18313 0.0
H420 H 0.02526 0.72408 0.06426 0.0
H421 H 0.02574 0.70942 0.11958 0.0
H422 H 0.00564 0.73539 0.08198 0.0
H423 H 0.04497 0.69853 0.10118 0.0
H424 H 0.02743 0.70883 0.18009 0.0
H425 H 0.00328 0.67814 0.14853 0.0
H426 H 0.04137 0.78301 0.07635 0.0
H427 H 0.06714 0.74647 0.09921 0.0
H428 H 0.9644 0.71808 0.12704 0.0
H429 H 0.98455 0.74025 0.16701 0.0
H430 H 0.95433 0.69732 0.14419 0.0
H431 H 0.97413 0.71907 0.18344 0.0
H432 H 0.97001 0.78177 0.12028 0.0
H433 H 0.99325 0.76094 0.08132 0.0
H434 H 0.95012 0.79216 0.10229 0.0
H435 H 0.97289 0.77161 0.06402 0.0
H436 H 0.99547 0.81597 0.1487 0.0
H437 H 0.96388 0.78722 0.17501 0.0
H438 H 0.95687 0.71636 0.0712 0.0
H439 H 0.92971 0.74501 0.10216 0.0
Li440 Li 0.49481 0.76016 0.36547 0.0
Li441 Li 0.51335 0.75151 0.38498 0.0
Li442 Li 0.5051 0.73448 0.36402 0.0
Li443 Li 0.48759 0.74119 0.38512 0.0
C444 C 0.52816 0.75036 0.35248 0.0
N445 N 0.55124 0.74074 0.33247 0.0
C446 C 0.54293 0.74688 0.35817 0.0
C447 C 0.52515 0.74905 0.33661 0.0
C448 C 0.55444 0.74202 0.34786 0.0
C449 C 0.53696 0.74412 0.32669 0.0
C450 C 0.49779 0.77414 0.39844 0.0
C451 C 0.5056 0.782 0.42412 0.0
N452 N 0.5076 0.79675 0.41891 0.0
C453 C 0.49987 0.78939 0.39335 0.0
C454 C 0.5006 0.77042 0.41396 0.0
C455 C 0.50485 0.80065 0.40388 0.0
C456 C 0.47378 0.78381 0.35875 0.0
N457 N 0.48754 0.77759 0.3543 0.0
C458 C 0.49054 0.79685 0.33464 0.0
C459 C 0.49597 0.7838 0.34254 0.0
C460 C 0.47631 0.80353 0.33896 0.0
C461 C 0.46785 0.79675 0.35114 0.0
H462 H 0.46743 0.7787 0.36829 0.0
H463 H 0.507 0.77874 0.33941 0.0
C464 C 0.53689 0.74807 0.40772 0.0
N465 N 0.53046 0.75785 0.39717 0.0
C466 C 0.54952 0.7529 0.41663 0.0
C467 C 0.54859 0.77773 0.40362 0.0
C468 C 0.53617 0.77234 0.3948 0.0
C469 C 0.5554 0.76794 0.41469 0.0
H470 H 0.53225 0.73652 0.40916 0.0
H471 H 0.53104 0.77971 0.38605 0.0
C472 C 0.47135 0.74519 0.35334 0.0
N473 N 0.44758 0.75617 0.33487 0.0
C474 C 0.45665 0.74777 0.35966 0.0
C475 C 0.47394 0.74812 0.33761 0.0
C476 C 0.44478 0.75333 0.35013 0.0
C477 C 0.46178 0.7537 0.32848 0.0
C478 C 0.50321 0.7175 0.39553 0.0
C479 C 0.49944 0.70321 0.38889 0.0
C480 C 0.50198 0.71948 0.41157 0.0
C481 C 0.4944 0.69113 0.39844 0.0
C482 C 0.49687 0.70713 0.42071 0.0
N483 N 0.49321 0.69333 0.41401 0.0
C484 C 0.52526 0.711 0.35448 0.0
C485 C 0.50268 0.71325 0.33895 0.0
C486 C 0.53043 0.6985 0.34565 0.0
N487 N 0.51165 0.7181 0.35096 0.0
C488 C 0.50737 0.70074 0.32983 0.0
C489 C 0.5214 0.69317 0.33318 0.0
H490 H 0.53198 0.71495 0.36431 0.0
H491 H 0.49179 0.71897 0.33658 0.0
C492 C 0.46603 0.74194 0.40993 0.0
N493 N 0.47095 0.73381 0.39737 0.0
C494 C 0.45319 0.73686 0.41838 0.0
C495 C 0.45084 0.71513 0.4008 0.0
C496 C 0.4637 0.72063 0.39272 0.0
C497 C 0.44533 0.72338 0.41373 0.0
H498 H 0.47185 0.75253 0.41319 0.0
H499 H 0.46779 0.71453 0.38255 0.0
O500 O 0.51663 0.75482 0.36242 0.0
O501 O 0.49315 0.76289 0.38825 0.0
O502 O 0.4832 0.74003 0.36254 0.0
O503 O 0.50786 0.72957 0.38635 0.0
H504 H 0.54545 0.74776 0.37042 0.0
H505 H 0.51375 0.7516 0.33203 0.0
H506 H 0.56591 0.73922 0.35211 0.0
H507 H 0.53477 0.74295 0.31439 0.0
H508 H 0.50794 0.77925 0.43613 0.0
H509 H 0.49783 0.79248 0.38137 0.0
H510 H 0.49918 0.75865 0.41807 0.0
H511 H 0.50657 0.81248 0.40009 0.0
H512 H 0.49755 0.80182 0.32549 0.0
H513 H 0.45674 0.80136 0.35472 0.0
H514 H 0.55453 0.74504 0.42505 0.0
H515 H 0.55301 0.78932 0.40162 0.0
H516 H 0.45445 0.74569 0.37183 0.0
H517 H 0.48527 0.74633 0.33256 0.0
H518 H 0.43337 0.75545 0.35488 0.0
H519 H 0.46365 0.75613 0.31631 0.0
H520 H 0.50022 0.70149 0.3765 0.0
H521 H 0.50476 0.7305 0.41688 0.0
H522 H 0.49137 0.68002 0.39346 0.0
H523 H 0.49576 0.70853 0.43312 0.0
H524 H 0.54117 0.69282 0.34881 0.0
H525 H 0.50011 0.69702 0.32028 0.0
H526 H 0.44919 0.74368 0.42813 0.0
H527 H 0.4452 0.7046 0.39692 0.0
Li528 Li 0.50428 0.23547 0.63509 0.0
Li529 Li 0.51229 0.25396 0.61505 0.0
Li530 Li 0.4957 0.26206 0.6365 0.0
Li531 Li 0.48525 0.24577 0.61635 0.0
C532 C 0.52291 0.25595 0.65229 0.0
N533 N 0.534 0.25944 0.68214 0.0
C534 C 0.53702 0.26347 0.6549 0.0
C535 C 0.51442 0.25021 0.66485 0.0
C536 C 0.54244 0.26512 0.67008 0.0
C537 C 0.52023 0.25209 0.67985 0.0
C538 C 0.50822 0.22253 0.60155 0.0
C539 C 0.50608 0.21146 0.57595 0.0
N540 N 0.51735 0.20105 0.57958 0.0
C541 C 0.51967 0.21161 0.60508 0.0
C542 C 0.50126 0.22237 0.58691 0.0
C543 C 0.52417 0.2009 0.5938 0.0
C544 C 0.50021 0.20681 0.65032 0.0
N545 N 0.51079 0.21765 0.64596 0.0
C546 C 0.53151 0.20254 0.6563 0.0
C547 C 0.52616 0.21583 0.64884 0.0
C548 C 0.52092 0.191 0.66078 0.0
C549 C 0.50505 0.19331 0.65783 0.0
H550 H 0.48806 0.20859 0.64776 0.0
H551 H 0.53429 0.22463 0.64514 0.0
C552 C 0.53097 0.27533 0.59919 0.0
N553 N 0.52905 0.25998 0.60215 0.0
C554 C 0.5435 0.28043 0.59033 0.0
C555 C 0.55189 0.25381 0.58776 0.0
C556 C 0.5392 0.24924 0.5967 0.0
C557 C 0.55423 0.2696 0.58456 0.0
H558 H 0.52287 0.28365 0.60395 0.0
H559 H 0.53765 0.23716 0.59949 0.0
C560 C 0.46797 0.24681 0.64327 0.0
N561 N 0.4379 0.25439 0.65132 0.0
C562 C 0.46092 0.25998 0.63698 0.0
C563 C 0.45973 0.2375 0.65365 0.0
C564 C 0.44572 0.26362 0.64119 0.0
C565 C 0.44454 0.24153 0.65758 0.0
C566 C 0.49013 0.27385 0.60024 0.0
C567 C 0.48206 0.28788 0.5996 0.0
C568 C 0.49475 0.26662 0.5865 0.0
C569 C 0.47862 0.29439 0.58517 0.0
C570 C 0.4911 0.2735 0.5723 0.0
N571 N 0.48317 0.28712 0.57193 0.0
C572 C 0.49445 0.29331 0.64486 0.0
C573 C 0.48459 0.27625 0.66405 0.0
C574 C 0.49047 0.30615 0.65385 0.0
N575 N 0.49128 0.27877 0.65 0.0
C576 C 0.48036 0.28875 0.67338 0.0
C577 C 0.48311 0.30394 0.66821 0.0
H578 H 0.49978 0.29491 0.63362 0.0
H579 H 0.48226 0.26454 0.66787 0.0
C580 C 0.46467 0.22451 0.60385 0.0
N581 N 0.46749 0.23997 0.60476 0.0
C582 C 0.45186 0.21902 0.59566 0.0
C583 C 0.44494 0.24552 0.58967 0.0
C584 C 0.45788 0.25049 0.59803 0.0
C585 C 0.44182 0.22958 0.58837 0.0
H586 H 0.47239 0.21644 0.60955 0.0
H587 H 0.46014 0.26274 0.59921 0.0
O588 O 0.51745 0.25434 0.63748 0.0
O589 O 0.5035 0.23295 0.61257 0.0
O590 O 0.48286 0.24296 0.63936 0.0
O591 O 0.49346 0.26733 0.6143 0.0
H592 H 0.5437 0.268 0.64528 0.0
H593 H 0.50346 0.24438 0.66306 0.0
H594 H 0.55334 0.27091 0.67228 0.0
H595 H 0.51378 0.24771 0.68968 0.0
H596 H 0.50081 0.21123 0.56457 0.0
H597 H 0.52514 0.2115 0.61635 0.0
H598 H 0.49215 0.23047 0.58403 0.0
H599 H 0.5331 0.19246 0.59635 0.0
H600 H 0.54381 0.20133 0.65854 0.0
H601 H 0.49654 0.18463 0.66096 0.0
H602 H 0.54502 0.29274 0.58841 0.0
H603 H 0.55981 0.24506 0.58348 0.0
H604 H 0.46711 0.26738 0.62897 0.0
H605 H 0.46503 0.22727 0.65863 0.0
H606 H 0.44013 0.27378 0.63642 0.0
H607 H 0.43802 0.23443 0.6656 0.0
H608 H 0.4784 0.29362 0.61015 0.0
H609 H 0.50118 0.2559 0.5868 0.0
H610 H 0.47232 0.30522 0.5845 0.0
H611 H 0.49461 0.26803 0.56158 0.0
H612 H 0.49262 0.31768 0.64935 0.0
H613 H 0.47484 0.28656 0.68445 0.0
H614 H 0.44972 0.20666 0.59524 0.0
H615 H 0.43754 0.25406 0.5842 0.0
Li616 Li 0.996 0.26218 0.8633 0.0
Li617 Li 0.01322 0.2545 0.88459 0.0
Li618 Li 0.00533 0.23513 0.86425 0.0
Li619 Li 0.9873 0.24392 0.88415 0.0
C620 C 0.02606 0.2601 0.84966 0.0
N621 N 0.04292 0.2714 0.82485 0.0
C622 C 0.03694 0.27192 0.85189 0.0
C623 C 0.02386 0.25394 0.83482 0.0
C624 C 0.04531 0.2775 0.8392 0.0
C625 C 0.03247 0.25983 0.82243 0.0
C626 C 0.99594 0.27837 0.89536 0.0
C627 C -0.00125 0.2893 0.92095 0.0
N628 N 0.0016 0.30342 0.91452 0.0
C629 C -0.00123 0.29301 0.88901 0.0
C630 C 0.99579 0.27651 0.91146 0.0
C631 C 0.00165 0.30552 0.89889 0.0
C632 C 0.97386 0.28307 0.85418 0.0
N633 N 0.98869 0.27891 0.85093 0.0
C634 C 0.99096 0.29949 0.83253 0.0
C635 C 0.99727 0.28676 0.84029 0.0
C636 C 0.97574 0.30425 0.83586 0.0
C637 C 0.96713 0.29577 0.84679 0.0
H638 H 0.96737 0.27668 0.8628 0.0
H639 H 0.00904 0.28339 0.83788 0.0
C640 C 0.03688 0.25047 0.90674 0.0
N641 N 0.02987 0.26107 0.89743 0.0
C642 C 0.04943 0.25477 0.916 0.0
C643 C 0.04728 0.28085 0.90595 0.0
C644 C 0.03486 0.276 0.8968 0.0
C645 C 0.05478 0.27014 0.91565 0.0
H646 H 0.03286 0.2386 0.90683 0.0
H647 H 0.02937 0.28411 0.88901 0.0
C648 C 0.97686 0.23733 0.84834 0.0
N649 N 0.9627 0.22648 0.82172 0.0
C650 C 0.96536 0.22593 0.84928 0.0
C651 C 0.98096 0.24339 0.83389 0.0
C652 C 0.9584 0.22054 0.83569 0.0
C653 C 0.97371 0.23771 0.82056 0.0
C654 C 0.00393 0.22217 0.89865 0.0
C655 C 0.00285 0.20633 0.89543 0.0
C656 C 0.0017 0.22744 0.91381 0.0
C657 C -0.00072 0.19603 0.90742 0.0
C658 C 0.99814 0.21678 0.92547 0.0
N659 N 0.997 0.20143 0.92206 0.0
C660 C 0.02654 0.2166 0.84763 0.0
C661 C 0.00163 0.2055 0.85095 0.0
C662 C 0.03173 0.20333 0.83998 0.0
N663 N 0.01169 0.21747 0.85282 0.0
C664 C 0.00635 0.19194 0.8435 0.0
C665 C 0.02163 0.19069 0.83796 0.0
H666 H 0.03444 0.22612 0.84965 0.0
H667 H 0.99008 0.20625 0.85574 0.0
C668 C 0.96171 0.24821 0.90418 0.0
N669 N 0.96989 0.2376 0.89589 0.0
C670 C 0.94828 0.24376 0.91207 0.0
C671 C 0.95223 0.21753 0.90298 0.0
C672 C 0.96541 0.22254 0.8951 0.0
C673 C 0.94331 0.22823 0.91145 0.0
H674 H 0.96539 0.26018 0.90434 0.0
H675 H 0.97197 0.21443 0.88815 0.0
O676 O 0.01781 0.25448 0.86199 0.0
O677 O 0.99313 0.26597 0.88588 0.0
O678 O 0.98376 0.24274 0.86156 0.0
O679 O 0.00723 0.23245 0.88704 0.0
H680 H 0.03887 0.27676 0.86328 0.0
H681 H 0.01566 0.24467 0.83288 0.0
H682 H 0.05372 0.28667 0.84075 0.0
H683 H 0.03086 0.25519 0.81089 0.0
H684 H -0.00126 0.28801 0.93343 0.0
H685 H -0.00106 0.29468 0.87659 0.0
H686 H 0.99341 0.26532 0.91658 0.0
H687 H 0.00397 0.31689 0.89414 0.0
H688 H 0.99796 0.30555 0.82405 0.0
H689 H 0.95545 0.29915 0.84994 0.0
H690 H 0.0549 0.24618 0.92335 0.0
H691 H 0.05125 0.29274 0.90511 0.0
H692 H 0.96193 0.22123 0.8604 0.0
H693 H 0.98954 0.25245 0.83296 0.0
H694 H 0.94957 0.21164 0.83624 0.0
H695 H 0.97682 0.24226 0.80929 0.0
H696 H 0.00467 0.20203 0.8838 0.0
H697 H 0.00266 0.23964 0.91652 0.0
H698 H 0.99832 0.18375 0.90508 0.0
H699 H 0.99629 0.22072 0.93724 0.0
H700 H 0.04356 0.20295 0.83581 0.0
H701 H 0.99827 0.18238 0.84256 0.0
H702 H 0.94166 0.25248 0.91819 0.0
H703 H 0.94904 0.20541 0.90234 0.0
Li704 Li 0.38367 0.01083 0.24386 0.0
Li705 Li 0.36294 0.00388 0.26205 0.0
Li706 Li 0.38304 0.98425 0.2544 0.0
Li707 Li 0.36244 0.99207 0.23663 0.0
C708 C 0.3985 0.00965 0.27333 0.0
N709 N 0.42446 0.0209 0.28839 0.0
C710 C 0.39691 0.02025 0.2855 0.0
C711 C 0.41327 0.00464 0.26896 0.0
C712 C 0.41018 0.02584 0.29293 0.0
C713 C 0.42626 0.0105 0.27668 0.0
C714 C 0.35123 0.02671 0.24382 0.0
C715 C 0.32541 0.03706 0.24665 0.0
N716 N 0.33149 0.05148 0.24862 0.0
C717 C 0.35722 0.04165 0.2457 0.0
C718 C 0.33519 0.02441 0.24413 0.0
C719 C 0.34705 0.05402 0.24818 0.0
C720 C 0.39734 0.02824 0.22043 0.0
N721 N 0.39621 0.02717 0.23611 0.0
C722 C 0.41137 0.05013 0.23933 0.0
C723 C 0.40295 0.03781 0.24558 0.0
C724 C 0.41256 0.05163 0.22317 0.0
C725 C 0.40548 0.04048 0.21366 0.0
H726 H 0.39169 0.0197 0.21318 0.0
H727 H 0.40146 0.03707 0.25797 0.0
C728 C 0.34128 0.0018 0.2866 0.0
N729 N 0.35085 0.01153 0.27873 0.0
C730 C 0.33263 0.00726 0.29914 0.0
C731 C 0.34383 0.03264 0.29518 0.0
C732 C 0.35236 0.02666 0.28284 0.0
C733 C 0.33387 0.02288 0.30361 0.0
H734 H 0.34056 0.98973 0.28333 0.0
H735 H 0.36034 0.03405 0.27663 0.0
C736 C 0.39705 0.98405 0.22475 0.0
N737 N 0.42136 0.97039 0.20896 0.0
C738 C 0.39434 0.97143 0.21496 0.0
C739 C 0.41208 0.98994 0.22624 0.0
C740 C 0.40679 0.96461 0.20716 0.0
C741 C 0.42422 0.98282 0.21823 0.0
C742 C 0.34856 0.9711 0.25549 0.0
C743 C 0.35171 0.95521 0.25574 0.0
C744 C 0.3333 0.97621 0.25359 0.0
C745 C 0.33955 0.94468 0.25379 0.0
C746 C 0.32146 0.96532 0.25167 0.0
N747 N 0.32481 0.94992 0.25179 0.0
C748 C 0.4016 0.96748 0.27554 0.0
C749 C 0.39585 0.95423 0.25217 0.0
C750 C 0.40974 0.95468 0.28112 0.0
N751 N 0.39497 0.96707 0.26125 0.0
C752 C 0.40379 0.94111 0.25732 0.0
C753 C 0.41081 0.94119 0.27203 0.0
H754 H 0.40033 0.97765 0.28274 0.0
H755 H 0.38993 0.95396 0.24114 0.0
C756 C 0.34229 0.99562 0.21112 0.0
N757 N 0.34986 0.98509 0.22005 0.0
C758 C 0.33351 0.99073 0.19842 0.0
C759 C 0.34027 0.96424 0.20459 0.0
C760 C 0.3491 0.96967 0.21699 0.0
C761 C 0.33246 0.97483 0.19496 0.0
H762 H 0.34333 0.00785 0.21368 0.0
H763 H 0.35551 0.96156 0.22407 0.0
O764 O 0.38561 0.00416 0.26587 0.0
O765 O 0.36101 0.01445 0.24148 0.0
O766 O 0.38496 0.99092 0.23239 0.0
O767 O 0.36035 0.98159 0.25721 0.0
H768 H 0.38557 0.02416 0.28912 0.0
H769 H 0.4147 0.99618 0.25984 0.0
H770 H 0.40913 0.0341 0.30231 0.0
H771 H 0.43776 0.00672 0.2734 0.0
H772 H 0.31297 0.03543 0.247 0.0
H773 H 0.36959 0.04367 0.2454 0.0
H774 H 0.33034 0.01298 0.24241 0.0
H775 H 0.35154 0.06562 0.24976 0.0
H776 H 0.41644 0.05867 0.24701 0.0
H777 H 0.40619 0.04126 0.20115 0.0
H778 H 0.32534 -0.00077 0.30548 0.0
H779 H 0.34506 0.0448 0.29807 0.0
H780 H 0.38275 0.96686 0.21349 0.0
H781 H 0.41435 -0.0 0.23336 0.0
H782 H 0.40487 0.95475 0.19966 0.0
H783 H 0.43592 0.98723 0.21933 0.0
H784 H 0.36342 0.95104 0.25736 0.0
H785 H 0.33065 0.98845 0.25357 0.0
H786 H 0.34183 0.93235 0.25387 0.0
H787 H 0.30961 0.96912 0.2501 0.0
H788 H 0.41504 0.9553 0.29249 0.0
H789 H 0.40397 0.93086 0.25007 0.0
H790 H 0.32796 -0.00064 0.1912 0.0
H791 H 0.33965 0.95187 0.20258 0.0
Li792 Li 0.23531 0.13603 0.49491 0.0
Li793 Li 0.24371 0.1153 0.51248 0.0
Li794 Li 0.26215 0.13579 0.50318 0.0
Li795 Li 0.2537 0.11522 0.48568 0.0
C796 C 0.23495 0.14897 0.52394 0.0
N797 N 0.21738 0.17116 0.53893 0.0
C798 C 0.22478 0.14466 0.5358 0.0
C799 C 0.23634 0.16458 0.51985 0.0
C800 C 0.21596 0.15604 0.5432 0.0
C801 C 0.22731 0.17562 0.52752 0.0
C802 C 0.2214 0.10163 0.49156 0.0
C803 C 0.2154 0.07463 0.48741 0.0
N804 N 0.20003 0.07789 0.48882 0.0
C805 C 0.20553 0.10475 0.49275 0.0
C806 C 0.22637 0.08648 0.48868 0.0
C807 C 0.19492 0.09258 0.49143 0.0
C808 C 0.21791 0.15492 0.47485 0.0
N809 N 0.21797 0.1482 0.48908 0.0
C810 C 0.19247 0.15762 0.49427 0.0
C811 C 0.20558 0.1493 0.49874 0.0
C812 C 0.19189 0.16452 0.47951 0.0
C813 C 0.20491 0.16312 0.46977 0.0
H814 H 0.22782 0.15358 0.46728 0.0
H815 H 0.20572 0.14344 0.5098 0.0
C816 C 0.24818 0.0986 0.5403 0.0
N817 N 0.23746 0.10318 0.52969 0.0
C818 C 0.24358 0.09052 0.55357 0.0
C819 C 0.21704 0.09204 0.54466 0.0
C820 C 0.22214 0.10012 0.53165 0.0
C821 C 0.22779 0.08727 0.55594 0.0
H822 H 0.26026 0.1015 0.53861 0.0
H823 H 0.2138 0.10434 0.52335 0.0
C824 C 0.26322 0.14876 0.47473 0.0
N825 N 0.28208 0.17069 0.46095 0.0
C826 C 0.27521 0.14415 0.46485 0.0
C827 C 0.26065 0.16453 0.47738 0.0
C828 C 0.28467 0.15541 0.45805 0.0
C829 C 0.27036 0.17544 0.47037 0.0
C830 C 0.2743 0.09997 0.50646 0.0
C831 C 0.29049 0.10093 0.50639 0.0
C832 C 0.26715 0.08551 0.50793 0.0
C833 C 0.29924 0.08735 0.50748 0.0
C834 C 0.2763 0.0722 0.50902 0.0
N835 N 0.29203 0.07338 0.50875 0.0
C836 C 0.27884 0.15737 0.52133 0.0
C837 C 0.29295 0.14612 0.50061 0.0
C838 C 0.29193 0.16559 0.52613 0.0
N839 N 0.27961 0.14787 0.50879 0.0
C840 C 0.30628 0.15422 0.5049 0.0
C841 C 0.30594 0.16399 0.51794 0.0
H842 H 0.26819 0.15825 0.52786 0.0
H843 H 0.29333 0.1382 0.49091 0.0
C844 C 0.24864 0.09942 0.4576 0.0
N845 N 0.25953 0.10299 0.46842 0.0
C846 C 0.25282 0.09146 0.44414 0.0
C847 C 0.27931 0.09091 0.4533 0.0
C848 C 0.27463 0.09892 0.46653 0.0
C849 C 0.26838 0.08727 0.44178 0.0
H850 H 0.23677 0.10311 0.45926 0.0
H851 H 0.28314 0.1023 0.47505 0.0
O852 O 0.24361 0.13796 0.51649 0.0
O853 O 0.23192 0.11345 0.49276 0.0
O854 O 0.25392 0.1379 0.48158 0.0
O855 O 0.26558 0.11318 0.50537 0.0
H856 H 0.22366 0.13265 0.53921 0.0
H857 H 0.2443 0.16814 0.51086 0.0
H858 H 0.20798 0.15286 0.55235 0.0
H859 H 0.22821 0.18774 0.52442 0.0
H860 H 0.2191 0.06285 0.48521 0.0
H861 H 0.20146 0.11642 0.4948 0.0
H862 H 0.23854 0.08391 0.48723 0.0
H863 H 0.18262 0.09481 0.49246 0.0
H864 H 0.18286 0.15851 0.50229 0.0
H865 H 0.20495 0.16791 0.45817 0.0
H866 H 0.25223 0.08729 0.56207 0.0
H867 H 0.20477 0.08968 0.54593 0.0
H868 H 0.27728 0.132 0.46257 0.0
H869 H 0.25124 0.16831 0.48473 0.0
H870 H 0.29407 0.15199 0.45049 0.0
H871 H 0.26855 0.18769 0.47239 0.0
H872 H 0.29622 0.11204 0.5054 0.0
H873 H 0.25467 0.08459 0.50844 0.0
H874 H 0.31177 0.08792 0.50733 0.0
H875 H 0.2709 0.06093 0.51014 0.0
H876 H 0.29119 0.17271 0.53644 0.0
H877 H 0.31675 0.15272 0.49815 0.0
H878 H 0.24406 0.08911 0.43545 0.0
H879 H 0.29141 0.0878 0.45203 0.0
Li880 Li 0.13303 0.00252 0.7354 0.0
Li881 Li 0.11268 0.00864 0.75424 0.0
Li882 Li 0.13338 0.99029 0.76062 0.0
Li883 Li 0.11282 0.98381 0.7421 0.0
C884 C 0.1453 0.02437 0.75392 0.0
N885 N 0.1657 0.04851 0.74872 0.0
C886 C 0.13977 0.03954 0.75252 0.0
C887 C 0.16121 0.0215 0.75284 0.0
C888 C 0.15027 0.05158 0.74986 0.0
C889 C 0.17133 0.03385 0.75015 0.0
C890 C 0.10076 0.00061 0.72004 0.0
C891 C 0.07541 0.99373 0.71044 0.0
N892 N 0.08153 0.99154 0.69607 0.0
C893 C 0.1068 0.99837 0.70517 0.0
C894 C 0.08493 0.99836 0.7227 0.0
C895 C 0.09689 0.99377 0.69321 0.0
C896 C 0.15488 0.00084 0.7111 0.0
N897 N 0.14525 0.01047 0.71901 0.0
C898 C 0.15179 0.03159 0.70238 0.0
C899 C 0.14347 0.02555 0.71485 0.0
C900 C 0.16172 0.0219 0.69382 0.0
C901 C 0.16326 0.00633 0.69839 0.0
H902 H 0.15574 0.98879 0.71439 0.0
H903 H 0.13539 0.03282 0.72108 0.0
C904 C 0.10448 0.03028 0.77685 0.0
N905 N 0.10072 0.02507 0.76248 0.0
C906 C 0.0966 0.04283 0.78327 0.0
C907 C 0.08123 0.04455 0.75987 0.0
C908 C 0.08934 0.03184 0.75396 0.0
C909 C 0.08492 0.05029 0.77468 0.0
H910 H 0.11375 0.02477 0.78325 0.0
H911 H 0.08679 0.02759 0.74244 0.0
C912 C 0.14606 0.96887 0.74167 0.0
N913 N 0.16759 0.94557 0.74603 0.0
C914 C 0.1413 0.95339 0.7422 0.0
C915 C 0.16178 0.97249 0.74324 0.0
C916 C 0.15236 0.94177 0.74443 0.0
C917 C 0.17248 0.96055 0.74548 0.0
C918 C 0.10125 0.99131 0.77651 0.0
C919 C 0.10722 0.99247 0.79153 0.0
C920 C 0.08548 0.99406 0.7739 0.0
C921 C 0.09733 0.99652 0.8037 0.0
C922 C 0.07598 0.99811 0.78638 0.0
N923 N 0.08205 -0.00074 0.80089 0.0
C924 C 0.15383 0.99336 0.78578 0.0
C925 C 0.14598 0.96756 0.78054 0.0
C926 C 0.16208 0.98851 0.79882 0.0
N927 N 0.14596 0.9829 0.77701 0.0
C928 C 0.15438 0.96214 0.79323 0.0
C929 C 0.16236 0.97269 0.80279 0.0
H930 H 0.15325 0.00556 0.78296 0.0
H931 H 0.13921 0.95956 0.77368 0.0
C932 C 0.10489 0.96099 0.72036 0.0
N933 N 0.10084 0.96717 0.73428 0.0
C934 C 0.09709 0.94804 0.71464 0.0
C935 C 0.08099 0.94816 0.73761 0.0
C936 C 0.08911 0.96113 0.74289 0.0
C937 C 0.08509 0.94133 0.7234 0.0
H938 H 0.1144 0.96597 0.71387 0.0
H939 H 0.08632 0.96615 0.75402 0.0
O940 O 0.1352 0.01241 0.75641 0.0
O941 O 0.11032 0.00481 0.73197 0.0
O942 O 0.1354 0.98041 0.73955 0.0
O943 O 0.11079 0.98761 0.7644 0.0
H944 H 0.12749 0.04197 0.75332 0.0
H945 H 0.16568 0.00985 0.75403 0.0
H946 H 0.14616 0.06337 0.74866 0.0
H947 H 0.18367 0.03179 0.74921 0.0
H948 H 0.06316 0.99184 0.71236 0.0
H949 H 0.11903 2e-05 0.70291 0.0
H950 H 0.08009 -1e-05 0.73416 0.0
H951 H 0.10141 0.99192 0.68166 0.0
H952 H 0.15033 0.0437 0.69943 0.0
H953 H 0.17048 0.99832 0.69197 0.0
H954 H 0.0997 0.04669 0.79481 0.0
H955 H 0.0725 0.05007 0.75274 0.0
H956 H 0.12917 0.95037 0.74107 0.0
H957 H 0.16566 0.98441 0.74278 0.0
H958 H 0.14883 0.92975 0.74494 0.0
H959 H 0.18468 0.96319 0.74677 0.0
H960 H 0.11938 0.99037 0.79377 0.0
H961 H 0.08069 0.99328 0.76234 0.0
H962 H 0.10181 0.99753 0.81537 0.0
H963 H 0.06379 0.00039 0.78451 0.0
H964 H 0.16771 0.99715 0.80597 0.0
H965 H 0.15439 0.94982 0.79561 0.0
H966 H 0.10051 0.94324 0.70356 0.0
H967 H 0.07197 0.94324 0.74482 0.0
Li968 Li 0.26322 0.86271 0.99493 0.0
Li969 Li 0.2541 0.88337 0.01206 0.0
Li970 Li 0.23597 0.86203 0.00379 0.0
Li971 Li 0.24397 0.88266 0.98605 0.0
C972 C 0.26039 0.8486 0.02505 0.0
N973 N 0.27068 0.82396 0.04277 0.0
C974 C 0.27103 0.85105 0.03704 0.0
C975 C 0.25477 0.83366 0.02228 0.0
C976 C 0.27616 0.83844 0.0458 0.0
C977 C 0.26017 0.82134 0.03131 0.0
C978 C 0.27687 0.89652 0.99503 0.0
C979 C 0.28399 0.92324 -0.00084 0.0
N980 N 0.29903 0.91888 0.00099 0.0
C981 C 0.29242 0.89231 0.99679 0.0
C982 C 0.27262 0.91212 0.99607 0.0
C983 C 0.30344 0.90378 -0.00015 0.0
C984 C 0.28228 0.84686 0.97388 0.0
N985 N 0.28071 0.85078 0.98906 0.0
C986 C 0.30491 0.83883 0.99523 0.0
C987 C 0.29171 0.84702 -0.0003 0.0
C988 C 0.30688 0.8346 0.97962 0.0
C989 C 0.2953 0.83867 0.96889 0.0
H990 H 0.27351 0.85032 0.96561 0.0
H991 H 0.29043 0.85069 0.01159 0.0
C992 C 0.24918 0.90414 0.03693 0.0
N993 N 0.26005 0.89587 0.02909 0.0
C994 C 0.25326 0.91235 0.05029 0.0
C995 C 0.2797 0.90368 0.04693 0.0
C996 C 0.27507 0.8955 0.03379 0.0
C997 C 0.26869 0.91203 0.05556 0.0
H998 H 0.23725 0.904 0.03308 0.0
H999 H 0.2834 0.88854 0.02755 0.0
C1000 C 0.2399 0.84699 0.97428 0.0
N1001 N 0.23149 0.82077 0.95788 0.0
C1002 C 0.22986 0.84816 0.96161 0.0
C1003 C 0.24584 0.83251 0.97846 0.0
C1004 C 0.22569 0.83476 0.95351 0.0
C1005 C 0.24141 0.81938 0.97006 0.0
C1006 C 0.22029 0.89474 0.00267 0.0
C1007 C 0.20516 0.88924 0.0007 0.0
C1008 C 0.22327 0.91061 0.00149 0.0
C1009 C 0.19331 0.89972 0.99727 0.0
C1010 C 0.2111 0.92072 0.99803 0.0
N1011 N 0.1965 0.91511 0.99599 0.0
C1012 C 0.21714 0.84745 0.0257 0.0
C1013 C 0.20911 0.84324 -0.00024 0.0
C1014 C 0.20454 0.83896 0.03127 0.0
N1015 N 0.21918 0.84939 0.01021 0.0
C1016 C 0.19641 0.83457 0.0048 0.0
C1017 C 0.19392 0.83242 0.02075 0.0
H1018 H 0.22518 0.85274 0.03375 0.0
H1019 H 0.21071 0.8453 0.98754 0.0
C1020 C 0.24702 0.9038 0.96106 0.0
N1021 N 0.2371 0.89433 0.96882 0.0
C1022 C 0.24201 0.91181 0.94791 0.0
C1023 C 0.21663 0.90036 0.95122 0.0
C1024 C 0.2222 0.89241 0.96412 0.0
C1025 C 0.22662 0.91009 0.94277 0.0
H1026 H 0.2589 0.90489 0.96491 0.0
H1027 H 0.21467 0.88453 0.97029 0.0
O1028 O 0.25518 0.86087 0.01644 0.0
O1029 O 0.2659 0.88544 0.99214 0.0
O1030 O 0.24408 0.86002 0.98232 0.0
O1031 O 0.23206 0.88463 0.00591 0.0
H1032 H 0.27536 0.86256 0.03949 0.0
H1033 H 0.24619 0.83158 0.0134 0.0
H1034 H 0.28449 0.84016 0.05503 0.0
H1035 H 0.25593 0.80972 0.02925 0.0
H1036 H 0.28085 0.93535 8e-05 0.0
H1037 H 0.29593 0.88031 0.9959 0.0
H1038 H 0.26068 0.91559 0.99453 0.0
H1039 H 0.31551 0.90068 0.00134 0.0
H1040 H 0.31351 0.83589 0.0039 0.0
H1041 H 0.29649 0.83593 0.9567 0.0
H1042 H 0.24432 0.91842 0.05668 0.0
H1043 H 0.29177 0.90326 0.05038 0.0
H1044 H 0.22527 0.85929 0.95811 0.0
H1045 H 0.25395 0.83142 0.98793 0.0
H1046 H 0.21786 0.83549 0.94374 0.0
H1047 H 0.24592 0.80811 0.97319 0.0
H1048 H 0.20263 0.87699 0.00168 0.0
H1049 H 0.23486 0.91508 0.0032 0.0
H1050 H 0.18157 0.89562 0.9956 0.0
H1051 H 0.21326 0.93303 0.99698 0.0
H1052 H 0.20293 0.8379 0.04367 0.0
H1053 H 0.18861 0.82968 0.99626 0.0
H1054 H 0.25021 0.91895 0.94164 0.0
H1055 H 0.20462 0.89883 0.94791 0.0
Li1056 Li 0.24499 0.38611 0.01039 0.0
Li1057 Li 0.26302 0.36537 0.00289 0.0
Li1058 Li 0.25319 0.38444 0.98379 0.0
Li1059 Li 0.23605 0.36415 0.99312 0.0
C1060 C 0.27383 0.39918 0.0107 0.0
N1061 N 0.28851 0.42155 0.02834 0.0
C1062 C 0.2861 0.3951 0.02046 0.0
C1063 C 0.2691 0.41466 0.00981 0.0
C1064 C 0.29336 0.40657 0.02931 0.0
C1065 C 0.27664 0.42579 0.01885 0.0
C1066 C 0.24169 0.35372 0.02707 0.0
C1067 C 0.2345 0.32873 0.0374 0.0
N1068 N 0.23752 0.33395 0.05197 0.0
C1069 C 0.24455 0.35888 0.04218 0.0
C1070 C 0.23647 0.33856 0.02468 0.0
C1071 C 0.24246 0.34869 0.05459 0.0
C1072 C 0.22339 0.40394 0.02659 0.0
N1073 N 0.23835 0.399 0.027 0.0
C1074 C 0.2422 0.41099 0.05169 0.0
C1075 C 0.24775 0.40229 0.03924 0.0
C1076 C 0.22673 0.41596 0.05168 0.0
C1077 C 0.21727 0.41243 0.03893 0.0
H1078 H 0.21611 0.40097 0.01682 0.0
H1079 H 0.25943 0.39779 0.03959 0.0
C1080 C 0.29109 0.34929 -0.00146 0.0
N1081 N 0.28051 0.35369 0.00936 0.0
C1082 C 0.30444 0.34128 0.00297 0.0
C1083 C 0.29578 0.34259 0.0296 0.0
C1084 C 0.28261 0.35054 0.02465 0.0
C1085 C 0.30696 0.33795 0.01871 0.0
H1086 H 0.28928 0.35223 0.98649 0.0
H1087 H 0.27428 0.35451 0.03307 0.0
C1088 C 0.22545 0.39654 0.98098 0.0
N1089 N 0.21373 0.41641 0.95878 0.0
C1090 C 0.2173 0.39064 0.96828 0.0
C1091 C 0.22747 0.41254 0.98252 0.0
C1092 C 0.2115 0.40088 0.95715 0.0
C1093 C 0.22151 0.42239 0.97113 0.0
C1094 C 0.25765 0.34697 0.97554 0.0
C1095 C 0.26005 0.34459 0.95969 0.0
C1096 C 0.25744 0.33428 0.98559 0.0
C1097 C 0.26202 0.32949 0.95414 0.0
C1098 C 0.25947 0.31937 0.97962 0.0
N1099 N 0.26168 0.3173 0.96414 0.0
C1100 C 0.26735 0.40846 0.96617 0.0
C1101 C 0.25259 0.39016 0.95192 0.0
C1102 C 0.27121 0.41634 0.95257 0.0
N1103 N 0.25821 0.39565 0.96558 0.0
C1104 C 0.25613 0.39768 0.93805 0.0
C1105 C 0.26564 0.4109 0.93825 0.0
H1106 H 0.27185 0.41244 0.97715 0.0
H1107 H 0.24538 0.37991 0.95183 0.0
C1108 C 0.20735 0.35015 -0.00112 0.0
N1109 N 0.21892 0.35134 0.98825 0.0
C1110 C 0.19409 0.34148 0.99555 0.0
C1111 C 0.20497 0.33542 0.97042 0.0
C1112 C 0.21795 0.34429 0.97419 0.0
C1113 C 0.19279 0.33401 0.98114 0.0
H1114 H 0.20837 0.3561 0.00988 0.0
H1115 H 0.22706 0.34585 0.96575 0.0
O1116 O 0.26659 0.38809 0.00197 0.0
O1117 O 0.24344 0.36365 0.01479 0.0
O1118 O 0.23152 0.38668 0.9918 0.0
O1119 O 0.2556 0.36169 0.98109 0.0
H1120 H 0.28999 0.38321 0.02121 0.0
H1121 H 0.25961 0.41802 0.00234 0.0
H1122 H 0.30284 0.40357 0.03695 0.0
H1123 H 0.27304 0.43779 0.01835 0.0
H1124 H 0.2305 0.31696 0.03569 0.0
H1125 H 0.24853 0.37056 0.04429 0.0
H1126 H 0.23382 0.33441 0.01315 0.0
H1127 H 0.24475 0.35252 0.06632 0.0
H1128 H 0.24973 0.41328 0.06148 0.0
H1129 H 0.20526 0.41608 0.03858 0.0
H1130 H 0.31289 0.33813 0.99423 0.0
H1131 H 0.29724 0.3402 0.04184 0.0
H1132 H 0.21563 0.37828 0.96693 0.0
H1133 H 0.23362 0.41728 0.99236 0.0
H1134 H 0.20527 0.39648 0.94719 0.0
H1135 H 0.22306 0.4348 0.97211 0.0
H1136 H 0.26033 0.35429 0.95174 0.0
H1137 H 0.25592 0.33595 0.99789 0.0
H1138 H 0.26383 0.32747 0.9419 0.0
H1139 H 0.25934 0.30945 0.98729 0.0
H1140 H 0.27878 0.42633 0.95323 0.0
H1141 H 0.25145 0.39319 0.92729 0.0
H1142 H 0.18496 0.34065 0.00412 0.0
H1143 H 0.20426 0.33012 0.95906 0.0
Li1144 Li 0.73557 0.13518 0.00329 0.0
Li1145 Li 0.75274 0.11434 0.01212 0.0
Li1146 Li 0.76218 0.13448 0.99303 0.0
Li1147 Li 0.74423 0.11396 0.98529 0.0
C1148 C 0.7554 0.14858 0.02578 0.0
N1149 N 0.75544 0.17181 0.04788 0.0
C1150 C 0.75288 0.14501 0.04139 0.0
C1151 C 0.75828 0.16394 0.02148 0.0
C1152 C 0.75285 0.15692 0.05237 0.0
C1153 C 0.75816 0.17552 0.0328 0.0
C1154 C 0.72342 0.10187 0.01295 0.0
C1155 C 0.71916 0.0754 0.02089 0.0
N1156 N 0.70803 0.08028 0.03094 0.0
C1157 C 0.71183 0.10661 0.02324 0.0
C1158 C 0.72702 0.08613 0.01165 0.0
C1159 C 0.70423 0.09552 0.03228 0.0
C1160 C 0.7096 0.1542 0.99759 0.0
N1161 N 0.71873 0.1482 0.00895 0.0
C1162 C 0.703 0.15992 0.02849 0.0
C1163 C 0.71561 0.15077 0.02418 0.0
C1164 C 0.69342 0.16638 0.01702 0.0
C1165 C 0.69688 0.16345 0.00137 0.0
H1166 H 0.71208 0.15166 0.98558 0.0
H1167 H 0.72261 0.14534 0.033 0.0
C1168 C 0.77311 0.09577 0.02934 0.0
N1169 N 0.75874 0.10223 0.02951 0.0
C1170 C 0.77849 0.08749 0.04216 0.0
C1171 C 0.75412 0.09252 0.05504 0.0
C1172 C 0.74926 0.1008 0.04202 0.0
C1173 C 0.76899 0.08586 0.0553 0.0
H1174 H 0.78054 0.09735 0.01937 0.0
H1175 H 0.73807 0.10638 0.04207 0.0
C1176 C 0.74251 0.1493 0.97189 0.0
N1177 N 0.74285 0.17509 0.95286 0.0
C1178 C 0.74237 0.14755 0.95577 0.0
C1179 C 0.74258 0.16417 0.97831 0.0
C1180 C 0.74262 0.16072 0.94635 0.0
C1181 C 0.74281 0.17706 0.96851 0.0
C1182 C 0.77228 0.10004 0.98481 0.0
C1183 C 0.78212 0.1035 0.9724 0.0
C1184 C 0.76925 0.08457 0.98854 0.0
C1185 C 0.78848 0.0914 0.96371 0.0
C1186 C 0.77583 0.0728 0.97958 0.0
N1187 N 0.78521 0.07643 0.96744 0.0
C1188 C 0.78944 0.15237 0.9969 0.0
C1189 C 0.78155 0.14839 0.97088 0.0
C1190 C 0.80236 0.16082 0.99197 0.0
N1191 N 0.77935 0.14644 0.98634 0.0
C1192 C 0.79421 0.15682 0.96544 0.0
C1193 C 0.8049 0.16308 0.97603 0.0
H1194 H 0.78757 0.15035 0.00913 0.0
H1195 H 0.77361 0.14317 0.96272 0.0
C1196 C 0.72601 0.09188 0.9691 0.0
N1197 N 0.73845 0.1015 0.96814 0.0
C1198 C 0.72134 0.08328 0.9562 0.0
C1199 C 0.74239 0.09469 0.9416 0.0
C1200 C 0.74662 0.10305 0.95476 0.0
C1201 C 0.72951 0.08473 0.94217 0.0
H1202 H 0.71949 0.09113 0.97976 0.0
H1203 H 0.75629 0.11101 0.95425 0.0
O1204 O 0.75552 0.13703 0.01489 0.0
O1205 O 0.73102 0.11259 0.00406 0.0
O1206 O 0.74246 0.13651 0.98128 0.0
O1207 O 0.76584 0.11174 0.99337 0.0
H1208 H 0.75082 0.13319 0.04498 0.0
H1209 H 0.76076 0.16689 0.00956 0.0
H1210 H 0.75077 0.15432 0.06446 0.0
H1211 H 0.76031 0.18746 0.0296 0.0
H1212 H 0.72189 0.06319 0.02005 0.0
H1213 H 0.70876 0.11871 0.02428 0.0
H1214 H 0.73575 0.08224 0.00357 0.0
H1215 H 0.69529 0.09903 0.04036 0.0
H1216 H 0.70053 0.16153 0.0407 0.0
H1217 H 0.68981 0.16822 0.99215 0.0
H1218 H 0.79015 0.08284 0.04194 0.0
H1219 H 0.74634 0.09148 0.06484 0.0
H1220 H 0.74214 0.13614 0.95058 0.0
H1221 H 0.74226 0.16574 0.99072 0.0
H1222 H 0.74262 0.15953 0.93387 0.0
H1223 H 0.74289 0.18864 0.97334 0.0
H1224 H 0.78472 0.1154 0.96943 0.0
H1225 H 0.76196 0.08168 0.99831 0.0
H1226 H 0.79601 0.09392 0.954 0.0
H1227 H 0.77352 0.06078 0.98231 0.0
H1228 H 0.81043 0.1652 0.00053 0.0
H1229 H 0.7956 0.15837 0.95306 0.0
H1230 H 0.71118 0.07596 0.95707 0.0
H1231 H 0.74907 0.09607 0.93106 0.0
Li1232 Li 0.13456 0.50375 0.26118 0.0
Li1233 Li 0.11405 0.48605 0.25299 0.0
Li1234 Li 0.13438 0.49577 0.23436 0.0
Li1235 Li 0.11354 0.513 0.24332 0.0
C1236 C 0.14825 0.47587 0.26162 0.0
N1237 N 0.17147 0.46318 0.27967 0.0
C1238 C 0.14466 0.46481 0.2729 0.0
C1239 C 0.16367 0.48031 0.25936 0.0
C1240 C 0.15655 0.45857 0.28195 0.0
C1241 C 0.17524 0.47381 0.26865 0.0
C1242 C 0.09902 0.50644 0.27408 0.0
C1243 C 0.07132 0.50925 0.27669 0.0
N1244 N 0.07279 0.50846 0.29237 0.0
C1245 C 0.10028 0.50584 0.29023 0.0
C1246 C 0.08445 0.50831 0.26725 0.0
C1247 C 0.08688 0.5068 0.29927 0.0
C1248 C 0.15598 0.52203 0.27806 0.0
N1249 N 0.14682 0.50922 0.27855 0.0
C1250 C 0.15393 0.50443 0.30486 0.0
C1251 C 0.14561 0.50047 0.29158 0.0
C1252 C 0.1633 0.51777 0.30488 0.0
C1253 C 0.16433 0.52656 0.29117 0.0
H1254 H 0.1565 0.52892 0.2676 0.0
H1255 H 0.13799 0.49052 0.29173 0.0
C1256 C 0.09682 0.45858 0.24833 0.0
N1257 N 0.10202 0.46878 0.25916 0.0
C1258 C 0.08845 0.44548 0.25283 0.0
C1259 C 0.09124 0.45351 0.27956 0.0
C1260 C 0.09948 0.46646 0.27453 0.0
C1261 C 0.08568 0.44277 0.26865 0.0
H1262 H 0.09939 0.46049 0.23621 0.0
H1263 H 0.10417 0.47449 0.28292 0.0
C1264 C 0.14583 0.52516 0.2329 0.0
N1265 N 0.16527 0.54094 0.21292 0.0
C1266 C 0.13972 0.53576 0.22227 0.0
C1267 C 0.16184 0.52275 0.23352 0.0
C1268 C 0.14974 0.54359 0.21223 0.0
C1269 C 0.17147 0.53078 0.22326 0.0
C1270 C 0.09982 0.49179 0.22096 0.0
C1271 C 0.10275 0.49266 0.20504 0.0
C1272 C 0.08471 0.48909 0.22618 0.0
C1273 C 0.09046 0.49104 0.19461 0.0
C1274 C 0.07274 0.48753 0.21538 0.0
N1275 N 0.07583 0.48854 0.19995 0.0
C1276 C 0.15397 0.47608 0.21747 0.0
C1277 C 0.14696 0.49901 0.20404 0.0
C1278 C 0.16221 0.47075 0.20461 0.0
N1279 N 0.14653 0.48996 0.21694 0.0
C1280 C 0.15526 0.49425 0.191 0.0
C1281 C 0.16285 0.47987 0.19116 0.0
H1282 H 0.15321 0.46898 0.22777 0.0
H1283 H 0.1405 0.50972 0.20369 0.0
C1284 C 0.10024 0.54189 0.24896 0.0
N1285 N 0.1007 0.53019 0.2384 0.0
C1286 C 0.09135 0.55511 0.2461 0.0
C1287 C 0.08343 0.54388 0.22166 0.0
C1288 C 0.09263 0.531 0.22489 0.0
C1289 C 0.08279 0.55616 0.2323 0.0
H1290 H 0.10687 0.54096 0.25956 0.0
H1291 H 0.09346 0.52182 0.21647 0.0
O1292 O 0.13674 0.48225 0.25278 0.0
O1293 O 0.11206 0.50553 0.26508 0.0
O1294 O 0.1362 0.51739 0.2428 0.0
O1295 O 0.11174 0.49339 0.23132 0.0
H1296 H 0.13279 0.46116 0.27472 0.0
H1297 H 0.16665 0.48872 0.25055 0.0
H1298 H 0.15393 0.45007 0.29079 0.0
H1299 H 0.18721 0.47722 0.26709 0.0
H1300 H 0.05997 0.51067 0.27155 0.0
H1301 H 0.11149 0.50454 0.29572 0.0
H1302 H 0.08328 0.50918 0.25482 0.0
H1303 H 0.08768 0.50624 0.31178 0.0
H1304 H 0.1529 0.49714 0.31503 0.0
H1305 H 0.17114 0.5371 0.29068 0.0
H1306 H 0.08461 0.43732 0.24408 0.0
H1307 H 0.08932 0.45186 0.29186 0.0
H1308 H 0.12736 0.53784 0.22169 0.0
H1309 H 0.16677 0.51474 0.2418 0.0
H1310 H 0.14516 0.55175 0.20388 0.0
H1311 H 0.18388 0.52896 0.22355 0.0
H1312 H 0.11437 0.49465 0.20079 0.0
H1313 H 0.08225 0.48806 0.23842 0.0
H1314 H 0.09256 0.49176 0.18226 0.0
H1315 H 0.06099 0.48545 0.21927 0.0
H1316 H 0.16792 0.45958 0.20513 0.0
H1317 H 0.15526 0.50145 0.18071 0.0
H1318 H 0.09113 0.56438 0.25457 0.0
H1319 H 0.07721 0.54442 0.21076 0.0
Li1320 Li 0.74342 0.88494 0.51062 0.0
Li1321 Li 0.7621 0.86554 0.50262 0.0
Li1322 Li 0.7526 0.88509 0.48413 0.0
Li1323 Li 0.73572 0.86397 0.49281 0.0
C1324 C 0.77475 0.89211 0.5155 0.0
N1325 N 0.79434 0.89884 0.53997 0.0
C1326 C 0.77211 0.8856 0.5301 0.0
C1327 C 0.78738 0.90203 0.51335 0.0
C1328 C 0.78212 0.88915 0.54232 0.0
C1329 C 0.79715 0.9053 0.52586 0.0
C1330 C 0.74116 0.8498 0.52381 0.0
C1331 C 0.73792 0.82223 0.52719 0.0
N1332 N 0.73799 0.8242 0.54283 0.0
C1333 C 0.741 0.85158 0.53993 0.0
C1334 C 0.73944 0.83503 0.51738 0.0
C1335 C 0.73946 0.83849 0.54934 0.0
C1336 C 0.72372 0.89053 0.53521 0.0
N1337 N 0.73591 0.8968 0.52748 0.0
C1338 C 0.73711 0.91794 0.54533 0.0
C1339 C 0.7425 0.91038 0.53206 0.0
C1340 C 0.72485 0.91143 0.55387 0.0
C1341 C 0.71798 0.89767 0.5485 0.0
H1342 H 0.71864 0.8798 0.53116 0.0
H1343 H 0.75214 0.91515 0.52561 0.0
C1344 C 0.79126 0.85218 0.49781 0.0
N1345 N 0.77987 0.85397 0.50855 0.0
C1346 C 0.80478 0.8441 0.50153 0.0
C1347 C 0.79465 0.84003 0.52735 0.0
C1348 C 0.78133 0.84814 0.52312 0.0
C1349 C 0.8066 0.83793 0.51649 0.0
H1350 H 0.78983 0.85708 0.48636 0.0
H1351 H 0.77233 0.85003 0.53158 0.0
C1352 C 0.72535 0.90131 0.48974 0.0
N1353 N 0.71435 0.93122 0.48664 0.0
C1354 C 0.7099 0.9039 0.48563 0.0
C1355 C 0.73522 0.91392 0.49228 0.0
C1356 C 0.70455 0.91912 0.48411 0.0
C1357 C 0.72943 0.92896 0.49065 0.0
C1358 C 0.75782 0.84991 0.47186 0.0
C1359 C 0.75751 0.85131 0.45572 0.0
C1360 C 0.7609 0.8355 0.47858 0.0
C1361 C 0.75998 0.83818 0.44656 0.0
C1362 C 0.76333 0.82264 0.46903 0.0
N1363 N 0.7628 0.82423 0.45335 0.0
C1364 C 0.76956 0.90722 0.4668 0.0
C1365 C 0.74854 0.89523 0.45371 0.0
C1366 C 0.77343 0.91557 0.45349 0.0
N1367 N 0.75741 0.8972 0.46658 0.0
C1368 C 0.75208 0.90322 0.4401 0.0
C1369 C 0.76476 0.91343 0.43986 0.0
H1370 H 0.77636 0.90854 0.47724 0.0
H1371 H 0.73887 0.88724 0.45399 0.0
C1372 C 0.7075 0.84942 0.49818 0.0
N1373 N 0.71886 0.85101 0.48737 0.0
C1374 C 0.69424 0.84077 0.49485 0.0
C1375 C 0.7047 0.83544 0.46938 0.0
C1376 C 0.71771 0.84429 0.47317 0.0
C1377 C 0.69269 0.83374 0.48026 0.0
H1378 H 0.70868 0.85507 0.50931 0.0
H1379 H 0.72667 0.84607 0.46463 0.0
O1380 O 0.76517 0.88872 0.50329 0.0
O1381 O 0.74258 0.86255 0.51445 0.0
O1382 O 0.7307 0.88646 0.49128 0.0
O1383 O 0.75547 0.86271 0.48096 0.0
H1384 H 0.76242 0.87793 0.53201 0.0
H1385 H 0.78965 0.90715 0.50212 0.0
H1386 H 0.78019 0.88418 0.55368 0.0
H1387 H 0.80696 0.91296 0.52435 0.0
H1388 H 0.73661 0.81073 0.52235 0.0
H1389 H 0.74213 0.86293 0.54514 0.0
H1390 H 0.73906 0.83345 0.50497 0.0
H1391 H 0.73943 0.83969 0.56183 0.0
H1392 H 0.74277 0.9285 0.54911 0.0
H1393 H 0.7083 0.89243 0.55456 0.0
H1394 H 0.81367 0.84267 0.49278 0.0
H1395 H 0.79571 0.83577 0.53911 0.0
H1396 H 0.70212 0.89425 0.48363 0.0
H1397 H 0.74721 0.91215 0.49547 0.0
H1398 H 0.69262 0.9213 0.48094 0.0
H1399 H 0.73694 0.93882 0.49259 0.0
H1400 H 0.75531 0.8624 0.4503 0.0
H1401 H 0.76164 0.83424 0.49101 0.0
H1402 H 0.75968 0.83908 0.43405 0.0
H1403 H 0.76571 0.81142 0.47409 0.0
H1404 H 0.78337 0.92325 0.45371 0.0
H1405 H 0.74503 0.90139 0.42987 0.0
H1406 H 0.68525 0.83968 0.50356 0.0
H1407 H 0.70379 0.83045 0.4579 0.0
Li1408 Li 0.8842 0.00954 0.25416 0.0
Li1409 Li 0.86331 0.99258 0.26126 0.0
Li1410 Li 0.88381 0.9836 0.24451 0.0
Li1411 Li 0.86515 0.00187 0.23515 0.0
C1412 C 0.90033 0.98752 0.27153 0.0
N1413 N 0.93018 0.98211 0.28183 0.0
C1414 C 0.90283 0.97999 0.28565 0.0
C1415 C 0.91301 0.9923 0.26264 0.0
C1416 C 0.91801 0.97736 0.29066 0.0
C1417 C 0.92801 0.98946 0.26805 0.0
C1418 C 0.85845 0.02436 0.26599 0.0
C1419 C 0.84692 0.048 0.27547 0.0
N1420 N 0.8521 0.04463 0.28998 0.0
C1421 C 0.86365 0.02112 0.28101 0.0
C1422 C 0.85002 0.0379 0.26319 0.0
C1423 C 0.86032 0.03151 0.29297 0.0
C1424 C 0.90051 0.03747 0.25055 0.0
N1425 N 0.89674 0.02625 0.26096 0.0
C1426 C 0.90976 0.03985 0.28124 0.0
C1427 C 0.90128 0.02713 0.27602 0.0
C1428 C 0.91362 0.05176 0.27083 0.0
C1429 C 0.90905 0.0504 0.25526 0.0
H1430 H 0.89662 0.03648 0.23867 0.0
H1431 H 0.89812 0.01806 0.28407 0.0
C1432 C 0.85377 0.97307 0.28502 0.0
N1433 N 0.8497 0.98616 0.27728 0.0
C1434 C 0.84468 0.96771 0.29727 0.0
C1435 C 0.82733 0.98938 0.29329 0.0
C1436 C 0.83665 0.99421 0.28098 0.0
C1437 C 0.83138 0.976 0.30163 0.0
H1438 H 0.86418 0.9669 0.28174 0.0
H1439 H 0.83354 0.00446 0.27447 0.0
C1440 C 0.89165 -0.00042 0.21745 0.0
N1441 N 0.89893 0.99314 0.18692 0.0
C1442 C 0.88518 0.98668 0.21006 0.0
C1443 C 0.90182 0.0092 0.2093 0.0
C1444 C 0.88901 0.98362 0.19463 0.0
C1445 C 0.90536 0.00575 0.19388 0.0
C1446 C 0.84599 0.97634 0.23993 0.0
C1447 C 0.84199 0.96116 0.23593 0.0
C1448 C 0.83435 0.98745 0.24187 0.0
C1449 C 0.82637 0.95734 0.23391 0.0
C1450 C 0.81887 0.98317 0.23976 0.0
N1451 N 0.81523 0.96833 0.23586 0.0
C1452 C 0.89001 0.95196 0.24339 0.0
C1453 C 0.90989 0.96738 0.2323 0.0
C1454 C 0.89792 0.93843 0.23945 0.0
N1455 N 0.89598 0.96602 0.23958 0.0
C1456 C 0.91816 0.95415 0.22804 0.0
C1457 C 0.91209 0.93941 0.23144 0.0
H1458 H 0.87898 0.95129 0.24933 0.0
H1459 H 0.91443 0.97872 0.2295 0.0
C1460 C 0.85207 0.02429 0.2158 0.0
N1461 N 0.85396 0.00876 0.21753 0.0
C1462 C 0.84422 0.03015 0.20292 0.0
C1463 C 0.84048 0.00388 0.19383 0.0
C1464 C 0.84837 -0.00146 0.2069 0.0
C1465 C 0.83835 0.01988 0.19171 0.0
H1466 H 0.85679 0.03212 0.22438 0.0
H1467 H 0.85008 0.98623 0.20853 0.0
O1468 O 0.88549 0.99009 0.26651 0.0
O1469 O 0.86165 0.01446 0.25401 0.0
O1470 O 0.88808 0.00292 0.23255 0.0
O1471 O 0.86126 0.98016 0.24197 0.0
H1472 H 0.89312 0.97621 0.29266 0.0
H1473 H 0.91134 0.99818 0.2517 0.0
H1474 H 0.92011 0.97154 0.30157 0.0
H1475 H 0.93793 0.9931 0.26128 0.0
H1476 H 0.84041 0.05853 0.27346 0.0
H1477 H 0.87016 0.01069 0.28343 0.0
H1478 H 0.84592 0.04057 0.25163 0.0
H1479 H 0.86428 0.02915 0.30464 0.0
H1480 H 0.91322 0.04038 0.2933 0.0
H1481 H 0.91166 0.05942 0.24692 0.0
H1482 H 0.84823 0.9574 0.30352 0.0
H1483 H 0.81706 0.99597 0.29624 0.0
H1484 H 0.87732 0.97905 0.21616 0.0
H1485 H 0.90693 0.01923 0.21486 0.0
H1486 H 0.88409 0.97367 0.18878 0.0
H1487 H 0.91322 0.01311 0.18743 0.0
H1488 H 0.85087 0.95243 0.23438 0.0
H1489 H 0.83719 -0.00073 0.24492 0.0
H1490 H 0.82311 0.94564 0.2308 0.0
H1491 H 0.80975 0.99166 0.24121 0.0
H1492 H 0.89294 0.92733 0.24254 0.0
H1493 H 0.92893 0.95547 0.22174 0.0
H1494 H 0.84303 0.04257 0.20161 0.0
H1495 H 0.836 0.99557 0.18555 0.0
Li1496 Li 0.23514 0.63548 0.50065 0.0
Li1497 Li 0.25246 0.6157 0.51144 0.0
Li1498 Li 0.2612 0.63492 0.49314 0.0
Li1499 Li 0.24361 0.6143 0.48452 0.0
C1500 C 0.26323 0.64943 0.5199 0.0
N1501 N 0.28416 0.67139 0.5303 0.0
C1502 C 0.27366 0.6458 0.53177 0.0
C1503 C 0.26325 0.66434 0.51357 0.0
C1504 C 0.28419 0.65703 0.53682 0.0
C1505 C 0.27398 0.67525 0.5189 0.0
C1506 C 0.22043 0.61024 0.51506 0.0
C1507 C 0.1989 0.59593 0.52574 0.0
N1508 N 0.19905 0.60532 0.53842 0.0
C1509 C 0.22036 0.61976 0.52821 0.0
C1510 C 0.2096 0.59826 0.5138 0.0
C1511 C 0.20946 0.61708 0.53988 0.0
C1512 C 0.20354 0.64261 0.49983 0.0
N1513 N 0.21747 0.64793 0.50492 0.0
C1514 C 0.2054 0.66971 0.51699 0.0
C1515 C 0.21868 0.66122 0.51329 0.0
C1516 C 0.19081 0.6643 0.51217 0.0
C1517 C 0.18999 0.65066 0.50334 0.0
H1518 H 0.20296 0.63195 0.49324 0.0
H1519 H 0.22988 0.66506 0.51737 0.0
C1520 C 0.27507 0.60352 0.53061 0.0
N1521 N 0.25945 0.60342 0.52852 0.0
C1522 C 0.28177 0.59534 0.54283 0.0
C1523 C 0.25623 0.58657 0.5503 0.0
C1524 C 0.25004 0.59487 0.53785 0.0
C1525 C 0.27229 0.58689 0.55303 0.0
H1526 H 0.28234 0.61013 0.5228 0.0
H1527 H 0.23773 0.59442 0.53577 0.0
C1528 C 0.23223 0.64591 0.47248 0.0
N1529 N 0.20932 0.66452 0.45996 0.0
C1530 C 0.22023 0.63936 0.46377 0.0
C1531 C 0.23267 0.66197 0.47463 0.0
C1532 C 0.20874 0.64895 0.45757 0.0
C1533 C 0.22096 0.67117 0.46828 0.0
C1534 C 0.26968 0.59709 0.49195 0.0
C1535 C 0.28488 0.59339 0.48774 0.0
C1536 C 0.25922 0.58522 0.49553 0.0
C1537 C 0.28936 0.57784 0.48712 0.0
C1538 C 0.26415 0.56982 0.49478 0.0
N1539 N 0.279 0.56647 0.49063 0.0
C1540 C 0.29259 0.64325 0.49451 0.0
C1541 C 0.27791 0.65721 0.47591 0.0
C1542 C 0.306 0.65129 0.49039 0.0
N1543 N 0.27894 0.64637 0.48728 0.0
C1544 C 0.29104 0.6655 0.47139 0.0
C1545 C 0.30534 0.66251 0.4786 0.0
H1546 H 0.29303 0.63444 0.50343 0.0
H1547 H 0.26693 0.65933 0.47027 0.0
C1548 C 0.22337 0.59564 0.46724 0.0
N1549 N 0.23824 0.60072 0.46819 0.0
C1550 C 0.21868 0.5865 0.45476 0.0
C1551 C 0.2449 0.58742 0.44485 0.0
C1552 C 0.24902 0.59674 0.45743 0.0
C1553 C 0.22947 0.58237 0.44323 0.0
H1554 H 0.21504 0.59914 0.47593 0.0
H1555 H 0.26078 0.60098 0.45852 0.0
O1556 O 0.25297 0.63849 0.51464 0.0
O1557 O 0.2307 0.61284 0.50325 0.0
O1558 O 0.2434 0.63664 0.47894 0.0
O1559 O 0.26521 0.61229 0.4927 0.0
H1560 H 0.27357 0.63449 0.53712 0.0
H1561 H 0.25522 0.66741 0.50447 0.0
H1562 H 0.29237 0.65434 0.54594 0.0
H1563 H 0.27423 0.68677 0.51395 0.0
H1564 H 0.19047 0.58668 0.52492 0.0
H1565 H 0.22864 0.62909 0.52944 0.0
H1566 H 0.20946 0.59082 0.50369 0.0
H1567 H 0.20928 0.62434 0.5501 0.0
H1568 H 0.20648 0.68008 0.52399 0.0
H1569 H 0.17896 0.64619 0.49931 0.0
H1570 H 0.29424 0.59562 0.54424 0.0
H1571 H 0.24846 0.58025 0.55787 0.0
H1572 H 0.21971 0.627 0.46187 0.0
H1573 H 0.24187 0.66729 0.48126 0.0
H1574 H 0.19935 0.644 0.45089 0.0
H1575 H 0.2211 0.6836 0.46998 0.0
H1576 H 0.29312 0.60245 0.48499 0.0
H1577 H 0.24743 0.58784 0.49888 0.0
H1578 H 0.30109 0.5748 0.48387 0.0
H1579 H 0.25619 0.56053 0.49751 0.0
H1580 H 0.31683 0.64848 0.49609 0.0
H1581 H 0.29001 0.67415 0.46235 0.0
H1582 H 0.2066 0.58318 0.45391 0.0
H1583 H 0.25369 0.58433 0.43644 0.0
Li1584 Li 0.3838 0.51063 0.75352 0.0
Li1585 Li 0.36349 0.49298 0.7604 0.0
Li1586 Li 0.38429 0.48473 0.74369 0.0
Li1587 Li 0.36506 0.50255 0.73441 0.0
C1588 C 0.40068 0.48919 0.77066 0.0
N1589 N 0.43079 0.485 0.78079 0.0
C1590 C 0.40355 0.48228 0.78502 0.0
C1591 C 0.41313 0.49398 0.76144 0.0
C1592 C 0.41885 0.48026 0.78994 0.0
C1593 C 0.42826 0.49176 0.76677 0.0
C1594 C 0.35754 0.52441 0.76552 0.0
C1595 C 0.34511 0.54743 0.77539 0.0
N1596 N 0.35042 0.54402 0.78984 0.0
C1597 C 0.36287 0.52113 0.78047 0.0
C1598 C 0.34858 0.53765 0.76294 0.0
C1599 C 0.35915 0.53119 0.79261 0.0
C1600 C 0.39888 0.53924 0.75018 0.0
N1601 N 0.39574 0.52773 0.76047 0.0
C1602 C 0.40815 0.54176 0.78084 0.0
C1603 C 0.4003 0.52867 0.77552 0.0
C1604 C 0.41132 0.55398 0.77056 0.0
C1605 C 0.40677 0.55254 0.75499 0.0
H1606 H 0.39497 0.5382 0.7383 0.0
H1607 H 0.39761 0.51939 0.78349 0.0
C1608 C 0.35493 0.47342 0.78448 0.0
N1609 N 0.35009 0.486 0.77635 0.0
C1610 C 0.34598 0.46767 0.79665 0.0
C1611 C 0.32716 0.48788 0.79177 0.0
C1612 C 0.33644 0.49319 0.77961 0.0
C1613 C 0.33195 0.47499 0.80049 0.0
H1614 H 0.36583 0.46795 0.78156 0.0
H1615 H 0.33279 0.50309 0.77285 0.0
C1616 C 0.39166 0.50131 0.71674 0.0
N1617 N 0.39905 0.4957 0.68607 0.0
C1618 C 0.38568 0.48829 0.70916 0.0
C1619 C 0.40139 0.51148 0.70872 0.0
C1620 C 0.38955 0.48565 0.69366 0.0
C1621 C 0.40499 0.50844 0.69322 0.0
C1622 C 0.34676 0.47631 0.7389 0.0
C1623 C 0.3433 0.46093 0.73515 0.0
C1624 C 0.33474 0.48705 0.74055 0.0
C1625 C 0.32784 0.45655 0.73308 0.0
C1626 C 0.31943 0.48222 0.73839 0.0
N1627 N 0.31632 0.4672 0.73473 0.0
C1628 C 0.39186 0.45356 0.7446 0.0
C1629 C 0.41016 0.46848 0.73055 0.0
C1630 C 0.40003 0.43999 0.74139 0.0
N1631 N 0.3969 0.46737 0.739 0.0
C1632 C 0.41856 0.45517 0.72683 0.0
C1633 C 0.41344 0.44061 0.73212 0.0
H1634 H 0.38139 0.45311 0.75151 0.0
H1635 H 0.4141 0.47966 0.72648 0.0
C1636 C 0.3516 0.52481 0.71519 0.0
N1637 N 0.35384 0.50931 0.71675 0.0
C1638 C 0.34415 0.53068 0.70209 0.0
C1639 C 0.34137 0.50447 0.69251 0.0
C1640 C 0.34882 0.49912 0.70583 0.0
C1641 C 0.33904 0.52047 0.69045 0.0
H1642 H 0.35579 0.53263 0.72407 0.0
H1643 H 0.35085 0.48684 0.70731 0.0
O1644 O 0.38572 0.49115 0.76573 0.0
O1645 O 0.36108 0.51484 0.75337 0.0
O1646 O 0.38794 0.5043 0.73188 0.0
O1647 O 0.36187 0.48067 0.74101 0.0
H1648 H 0.39403 0.47851 0.79229 0.0
H1649 H 0.41118 0.49938 0.7503 0.0
H1650 H 0.42124 0.47493 0.80104 0.0
H1651 H 0.438 0.4954 0.75975 0.0
H1652 H 0.33819 0.55772 0.77355 0.0
H1653 H 0.36979 0.51093 0.78273 0.0
H1654 H 0.34436 0.54036 0.75143 0.0
H1655 H 0.36321 0.52879 0.80423 0.0
H1656 H 0.41162 0.54235 0.7929 0.0
H1657 H 0.40884 0.56177 0.74674 0.0
H1658 H 0.35016 0.4578 0.8032 0.0
H1659 H 0.31635 0.49374 0.79428 0.0
H1660 H 0.37816 0.48026 0.71517 0.0
H1661 H 0.4061 0.52163 0.71442 0.0
H1662 H 0.38501 0.47562 0.68766 0.0
H1663 H 0.41251 0.51622 0.68687 0.0
H1664 H 0.35249 0.45248 0.73384 0.0
H1665 H 0.33716 0.499 0.74343 0.0
H1666 H 0.325 0.44469 0.73016 0.0
H1667 H 0.31002 0.49041 0.73963 0.0
H1668 H 0.39582 0.42913 0.74608 0.0
H1669 H 0.42872 0.45627 0.71954 0.0
H1670 H 0.34241 0.54307 0.7011 0.0
H1671 H 0.33782 0.4962 0.68375 0.0
Li1672 Li 0.63389 0.00157 0.76277 0.0
Li1673 Li 0.61298 0.98409 0.75487 0.0
Li1674 Li 0.63379 0.99117 0.73763 0.0
Li1675 Li 0.61429 0.01043 0.74484 0.0
C1676 C 0.64651 0.96878 0.7535 0.0
N1677 N 0.66892 0.94761 0.74473 0.0
C1678 C 0.64274 0.9531 0.75189 0.0
C1679 C 0.66177 0.97361 0.75096 0.0
C1680 C 0.65421 0.94259 0.74738 0.0
C1681 C 0.67291 0.96277 0.74644 0.0
C1682 C 0.60784 0.00167 0.78193 0.0
C1683 C 0.5938 0.00829 0.8052 0.0
N1684 N 0.60143 0.99689 0.81297 0.0
C1685 C 0.61555 0.99001 0.79017 0.0
C1686 C 0.59689 0.0109 0.78952 0.0
C1687 C 0.61214 0.98778 0.80584 0.0
C1688 C 0.64289 0.02222 0.78618 0.0
N1689 N 0.64608 0.00812 0.77992 0.0
C1690 C 0.66562 0.00347 0.79899 0.0
C1691 C 0.65711 -0.00131 0.78607 0.0
C1692 C 0.66273 0.0181 0.80553 0.0
C1693 C 0.65123 0.02754 0.79896 0.0
H1694 H 0.63374 0.02926 0.78131 0.0
H1695 H 0.65916 0.98739 0.7811 0.0
C1696 C 0.59979 0.95517 0.74999 0.0
N1697 N 0.59898 0.96762 0.75962 0.0
C1698 C 0.5905 0.94219 0.7526 0.0
C1699 C 0.57899 0.95543 0.77444 0.0
C1700 C 0.58851 0.96815 0.7714 0.0
C1701 C 0.5801 0.94211 0.76512 0.0
H1702 H 0.60777 0.95531 0.74032 0.0
H1703 H 0.5875 0.97837 0.77852 0.0
C1704 C 0.64633 0.02513 0.74758 0.0
N1705 N 0.66498 0.04925 0.75754 0.0
C1706 C 0.63995 0.03976 0.7504 0.0
C1707 C 0.66226 0.02285 0.74962 0.0
C1708 C 0.64956 0.05178 0.75546 0.0
C1709 C 0.67147 0.03516 0.75474 0.0
C1710 C 0.59622 0.98962 0.7283 0.0
C1711 C 0.59284 0.98343 0.71372 0.0
C1712 C 0.58413 0.99449 0.73795 0.0
C1713 C 0.57739 0.98225 0.70899 0.0
C1714 C 0.56884 0.99312 0.7328 0.0
N1715 N 0.56581 0.98708 0.71855 0.0
C1716 C 0.64097 0.97027 0.714 0.0
C1717 C 0.65777 0.99201 0.71515 0.0
C1718 C 0.64888 0.96448 0.70115 0.0
N1719 N 0.64552 0.98378 0.72067 0.0
C1720 C 0.66603 0.98665 0.7023 0.0
C1721 C 0.66155 0.97274 0.69508 0.0
H1722 H 0.63107 0.96408 0.71861 0.0
H1723 H 0.66105 0.00278 0.72064 0.0
C1724 C 0.59515 0.03695 0.74757 0.0
N1725 N 0.60236 0.02722 0.7375 0.0
C1726 C 0.58695 0.04975 0.74202 0.0
C1727 C 0.59348 0.04198 0.71587 0.0
C1728 C 0.6016 0.02939 0.72193 0.0
C1729 C 0.58618 0.05248 0.72597 0.0
H1730 H 0.5961 0.03496 0.7599 0.0
H1731 H 0.60745 0.02139 0.71424 0.0
O1732 O 0.63536 0.97932 0.75761 0.0
O1733 O 0.61114 0.00432 0.76663 0.0
O1734 O 0.63706 0.01313 0.74283 0.0
O1735 O 0.61131 0.99073 0.73308 0.0
H1736 H 0.63112 0.94903 0.75419 0.0
H1737 H 0.66493 0.98564 0.7523 0.0
H1738 H 0.65142 0.93044 0.74601 0.0
H1739 H 0.68472 0.96641 0.74428 0.0
H1740 H 0.58534 0.01534 0.8112 0.0
H1741 H 0.62404 0.98271 0.78457 0.0
H1742 H 0.59082 0.01998 0.78335 0.0
H1743 H 0.61802 0.97881 0.81234 0.0
H1744 H 0.67439 0.99587 0.80377 0.0
H1745 H 0.64847 0.03877 0.80385 0.0
H1746 H 0.59146 0.93231 0.7449 0.0
H1747 H 0.57112 0.95589 0.78421 0.0
H1748 H 0.62771 0.04181 0.74883 0.0
H1749 H 0.66747 0.0117 0.74737 0.0
H1750 H 0.64474 0.06313 0.75778 0.0
H1751 H 0.68378 0.0335 0.75647 0.0
H1752 H 0.60208 0.97956 0.70615 0.0
H1753 H 0.5865 -0.00074 0.7493 0.0
H1754 H 0.5746 0.97748 0.69773 0.0
H1755 H 0.55938 0.99684 0.74014 0.0
H1756 H 0.64488 0.95384 0.69581 0.0
H1757 H 0.6758 0.99331 0.69808 0.0
H1758 H 0.58168 0.05765 0.75023 0.0
H1759 H 0.59298 0.04351 0.70342 0.0
Li1760 Li 0.75331 0.61416 0.98667 0.0
Li1761 Li 0.76199 0.63466 0.00331 0.0
Li1762 Li 0.74456 0.6139 0.01324 0.0
Li1763 Li 0.73532 0.63379 0.99418 0.0
C1764 C 0.77648 0.60071 0.00756 0.0
N1765 N 0.79794 0.57733 0.01199 0.0
C1766 C 0.79227 0.60359 0.00529 0.0
C1767 C 0.77164 0.586 0.01237 0.0
C1768 C 0.80293 0.5916 0.00751 0.0
C1769 C 0.78266 0.57431 0.01446 0.0
C1770 C 0.76615 0.64068 0.97202 0.0
C1771 C 0.77691 0.65727 0.95226 0.0
N1772 N 0.79031 0.64896 0.95268 0.0
C1773 C 0.78 0.6323 0.97225 0.0
C1774 C 0.76456 0.65326 0.96194 0.0
C1775 C 0.79208 0.63666 0.96238 0.0
C1776 C 0.75542 0.60709 0.95501 0.0
N1777 N 0.75852 0.60125 0.96932 0.0
C1778 C 0.76793 0.57771 0.95813 0.0
C1779 C 0.76447 0.58676 0.97108 0.0
C1780 C 0.76516 0.5836 0.94321 0.0
C1781 C 0.75872 0.59847 0.94174 0.0
H1782 H 0.75031 0.61848 0.95389 0.0
H1783 H 0.76632 0.58207 0.98249 0.0
C1784 C 0.78668 0.64258 0.0223 0.0
N1785 N 0.77868 0.64743 0.00964 0.0
C1786 C 0.79927 0.65114 0.02775 0.0
C1787 C 0.79507 0.66961 0.00707 0.0
C1788 C 0.78248 0.66074 0.00208 0.0
C1789 C 0.80364 0.66481 0.02006 0.0
H1790 H 0.7833 0.63199 0.0281 0.0
H1791 H 0.77573 0.66451 0.99223 0.0
C1792 C 0.72685 0.59965 0.98485 0.0
N1793 N 0.71814 0.57636 0.96468 0.0
C1794 C 0.71996 0.60334 0.97066 0.0
C1795 C 0.72918 0.58413 0.98887 0.0
C1796 C 0.71568 0.59139 0.96059 0.0
C1797 C 0.72472 0.57252 0.97849 0.0
C1798 C 0.7412 0.65204 0.02062 0.0
C1799 C 0.73792 0.65545 0.03611 0.0
C1800 C 0.74294 0.6641 0.00993 0.0
C1801 C 0.73642 0.67093 0.04067 0.0
C1802 C 0.74136 0.67942 0.01495 0.0
N1803 N 0.73815 0.68249 0.03008 0.0
C1804 C 0.74972 0.60058 0.04249 0.0
C1805 C 0.72493 0.59562 0.03164 0.0
C1806 C 0.74593 0.5921 0.05573 0.0
N1807 N 0.73924 0.60213 0.03083 0.0
C1808 C 0.72062 0.58712 0.04471 0.0
C1809 C 0.73116 0.5853 0.05701 0.0
H1810 H 0.76102 0.60595 0.04147 0.0
H1811 H 0.71683 0.59719 0.0222 0.0
C1812 C 0.7174 0.6506 0.97309 0.0
N1813 N 0.71803 0.64562 0.98801 0.0
C1814 C 0.70467 0.65911 0.9679 0.0
C1815 C 0.69352 0.6572 0.99357 0.0
C1816 C 0.70648 0.64872 0.99826 0.0
C1817 C 0.69248 0.66247 0.97818 0.0
H1818 H 0.72671 0.64778 0.96518 0.0
H1819 H 0.70735 0.64456 0.01006 0.0
O1820 O 0.76593 0.61242 0.00581 0.0
O1821 O 0.75417 0.63675 0.98166 0.0
O1822 O 0.73157 0.61119 0.99462 0.0
O1823 O 0.74277 0.63695 0.01603 0.0
H1824 H 0.7963 0.61499 0.00195 0.0
H1825 H 0.75949 0.58355 0.01426 0.0
H1826 H 0.81518 0.59366 0.00572 0.0
H1827 H 0.77906 0.56285 0.01805 0.0
H1828 H 0.77586 0.66701 0.94442 0.0
H1829 H 0.78137 0.62248 0.97987 0.0
H1830 H 0.75392 0.65991 0.96167 0.0
H1831 H 0.80286 0.63025 0.96243 0.0
H1832 H 0.77258 0.56617 0.9598 0.0
H1833 H 0.75647 0.60351 0.93046 0.0
H1834 H 0.80567 0.64697 0.03772 0.0
H1835 H 0.79798 0.68019 0.00096 0.0
H1836 H 0.71813 0.61532 0.96737 0.0
H1837 H 0.73451 0.5811 -0.00019 0.0
H1838 H 0.71044 0.59407 0.94951 0.0
H1839 H 0.72655 0.56046 0.98139 0.0
H1840 H 0.73656 0.64623 0.04452 0.0
H1841 H 0.74551 0.66169 0.9979 0.0
H1842 H 0.73388 0.67375 0.05262 0.0
H1843 H 0.74268 0.68887 0.0068 0.0
H1844 H 0.75449 0.59085 0.06484 0.0
H1845 H 0.70902 0.58233 0.0453 0.0
H1846 H 0.70422 0.66271 0.95588 0.0
H1847 H 0.68444 0.65966 0.0019 0.0
Li1848 Li 0.8818 0.51186 0.74619 0.0
Li1849 Li 0.86068 0.50507 0.76392 0.0
Li1850 Li 0.88078 0.48701 0.75704 0.0
Li1851 Li 0.86148 0.49458 0.73764 0.0
C1852 C 0.89395 0.50256 0.77932 0.0
N1853 N 0.91558 0.49285 0.80092 0.0
C1854 C 0.88976 0.50087 0.79488 0.0
C1855 C 0.90925 0.49964 0.77483 0.0
C1856 C 0.90083 0.49587 0.8056 0.0
C1857 C 0.91998 0.49464 0.78589 0.0
C1858 C 0.85631 0.53192 0.74574 0.0
C1859 C 0.84265 0.55528 0.73869 0.0
N1860 N 0.85073 0.56323 0.74966 0.0
C1861 C 0.8645 0.54034 0.75694 0.0
C1862 C 0.84532 0.53945 0.73652 0.0
C1863 C 0.8615 0.55615 0.75874 0.0
C1864 C 0.89061 0.53459 0.72501 0.0
N1865 N 0.89442 0.52842 0.73899 0.0
C1866 C 0.91516 0.54654 0.74195 0.0
C1867 C 0.90635 0.53415 0.74755 0.0
C1868 C 0.91159 0.55301 0.72744 0.0
C1869 C 0.89913 0.54688 0.71894 0.0
H1870 H 0.88084 0.52998 0.71862 0.0
H1871 H 0.90894 0.52921 0.75877 0.0
C1872 C 0.84698 0.50069 0.79265 0.0
N1873 N 0.84687 0.51053 0.78034 0.0
C1874 C 0.83782 0.50371 0.80563 0.0
C1875 C 0.82781 0.52642 0.79264 0.0
C1876 C 0.83719 0.52297 0.77992 0.0
C1877 C 0.82826 0.51688 0.80582 0.0
H1878 H 0.85432 0.49053 0.79241 0.0
H1879 H 0.83671 0.5303 0.76983 0.0
C1880 C 0.89379 0.49592 0.72304 0.0
N1881 N 0.91308 0.50509 0.69911 0.0
C1882 C 0.88779 0.49836 0.70818 0.0
C1883 C 0.90967 0.49791 0.72564 0.0
C1884 C 0.89771 0.50304 0.69625 0.0
C1885 C 0.91921 0.50263 0.71343 0.0
C1886 C 0.84285 0.47911 0.75876 0.0
C1887 C 0.83892 0.46475 0.76513 0.0
C1888 C 0.83114 0.48917 0.7538 0.0
C1889 C 0.82329 0.46065 0.7664 0.0
C1890 C 0.81566 0.48464 0.75527 0.0
N1891 N 0.81209 0.4706 0.76149 0.0
C1892 C 0.8859 0.46253 0.7775 0.0
C1893 C 0.90481 0.46448 0.75763 0.0
C1894 C 0.89311 0.44936 0.78347 0.0
N1895 N 0.89179 0.46972 0.76479 0.0
C1896 C 0.9125 0.45142 0.76329 0.0
C1897 C 0.90654 0.44361 0.77628 0.0
H1898 H 0.87551 0.46701 0.78292 0.0
H1899 H 0.90913 0.47036 0.74745 0.0
C1900 C 0.84389 0.49809 0.71026 0.0
N1901 N 0.84921 0.48772 0.72086 0.0
C1902 C 0.83581 0.49294 0.69721 0.0
C1903 C 0.83826 0.46666 0.70668 0.0
C1904 C 0.84646 0.47229 0.71942 0.0
C1905 C 0.83308 0.477 0.69518 0.0
H1906 H 0.84642 0.51028 0.71168 0.0
H1907 H 0.85084 0.46435 0.72808 0.0
O1908 O 0.88319 0.50714 0.76856 0.0
O1909 O 0.8592 0.51648 0.74351 0.0
O1910 O 0.88417 0.49161 0.73494 0.0
O1911 O 0.85812 0.48327 0.75757 0.0
H1912 H 0.87814 0.50348 0.7987 0.0
H1913 H 0.91276 0.50103 0.76291 0.0
H1914 H 0.8977 0.49444 0.81767 0.0
H1915 H 0.9318 0.49217 0.78251 0.0
H1916 H 0.83416 0.56125 0.73165 0.0
H1917 H 0.87304 0.53477 0.76421 0.0
H1918 H 0.8389 0.53313 0.72779 0.0
H1919 H 0.86774 0.56279 0.76736 0.0
H1920 H 0.92469 0.55093 0.74885 0.0
H1921 H 0.89579 0.55174 0.70785 0.0
H1922 H 0.83825 0.49586 0.81541 0.0
H1923 H 0.82058 0.53669 0.79231 0.0
H1924 H 0.87561 0.49675 0.70584 0.0
H1925 H 0.9146 0.49599 0.73697 0.0
H1926 H 0.89318 0.50506 0.68473 0.0
H1927 H 0.93149 0.50435 0.71534 0.0
H1928 H 0.84785 0.45686 0.76906 0.0
H1929 H 0.83394 0.50036 0.74889 0.0
H1930 H 0.82008 0.44956 0.7713 0.0
H1931 H 0.80648 0.4923 0.75148 0.0
H1932 H 0.88827 0.44374 0.7936 0.0
H1933 H 0.92274 0.44724 0.75735 0.0
H1934 H 0.83226 0.50132 0.68857 0.0
H1935 H 0.83617 0.45431 0.70577 0.0
Li1936 Li 0.76181 0.36343 0.49357 0.0
Li1937 Li 0.75419 0.38387 0.51174 0.0
Li1938 Li 0.73464 0.36435 0.50253 0.0
Li1939 Li 0.74395 0.38518 0.48574 0.0
C1940 C 0.75814 0.34792 0.52263 0.0
N1941 N 0.76692 0.32126 0.53807 0.0
C1942 C 0.7681 0.34879 0.53539 0.0
C1943 C 0.75247 0.3335 0.51788 0.0
C1944 C 0.77246 0.33518 0.543 0.0
C1945 C 0.75708 0.32016 0.5258 0.0
C1946 C 0.77803 0.39583 0.49534 0.0
C1947 C 0.7878 0.42156 0.50027 0.0
N1948 N 0.80223 0.41558 0.50247 0.0
C1949 C 0.79298 0.38995 0.49748 0.0
C1950 C 0.77543 0.41177 0.49658 0.0
C1951 C 0.80505 0.40013 0.50114 0.0
C1952 C 0.78003 0.34856 0.47132 0.0
N1953 N 0.77834 0.35062 0.48684 0.0
C1954 C 0.80105 0.33561 0.49188 0.0
C1955 C 0.78856 0.34444 0.49712 0.0
C1956 C 0.80319 0.33334 0.47588 0.0
C1957 C 0.79242 0.33991 0.46555 0.0
H1958 H 0.77187 0.35387 0.46342 0.0
H1959 H 0.78725 0.34661 0.50936 0.0
C1960 C 0.75137 0.40487 0.53682 0.0
N1961 N 0.76121 0.39525 0.52916 0.0
C1962 C 0.75638 0.41285 0.54999 0.0
C1963 C 0.78158 0.40094 0.54699 0.0
C1964 C 0.77602 0.39308 0.53403 0.0
C1965 C 0.77169 0.4109 0.55528 0.0
H1966 H 0.73954 0.40615 0.53287 0.0
H1967 H 0.78349 0.38509 0.52791 0.0
C1968 C 0.73644 0.35098 0.47227 0.0
N1969 N 0.7243 0.32725 0.45446 0.0
C1970 C 0.72521 0.35414 0.46101 0.0
C1971 C 0.74172 0.33578 0.47423 0.0
C1972 C 0.71914 0.34198 0.4522 0.0
C1973 C 0.73538 0.32394 0.46517 0.0
C1974 C 0.72158 0.39847 0.5033 0.0
C1975 C 0.70586 0.39474 0.50188 0.0
C1976 C 0.72627 0.41395 0.50235 0.0
C1977 C 0.69512 0.40657 0.49923 0.0
C1978 C 0.71517 0.42544 0.49967 0.0
N1979 N 0.69996 0.42155 0.49816 0.0
C1980 C 0.71616 0.34724 0.52313 0.0
C1981 C 0.70543 0.3499 0.49797 0.0
C1982 C 0.70328 0.33878 0.52803 0.0
N1983 N 0.71707 0.35245 0.50829 0.0
C1984 C 0.6923 0.34153 0.50238 0.0
C1985 C 0.69112 0.33586 0.5176 0.0
H1986 H 0.72538 0.34982 0.53123 0.0
H1987 H 0.70617 0.35463 0.48642 0.0
C1988 C 0.74931 0.40633 0.46133 0.0
N1989 N 0.73818 0.39829 0.46909 0.0
C1990 C 0.74532 0.41559 0.44866 0.0
C1991 C 0.7185 0.40828 0.45239 0.0
C1992 C 0.72304 0.39897 0.46479 0.0
C1993 C 0.72973 0.41665 0.44412 0.0
H1994 H 0.7613 0.40538 0.46486 0.0
H1995 H 0.7145 0.3921 0.47085 0.0
O1996 O 0.7538 0.36116 0.51504 0.0
O1997 O 0.76604 0.38603 0.49188 0.0
O1998 O 0.74257 0.36279 0.48093 0.0
O1999 O 0.73227 0.38703 0.50576 0.0
H2000 H 0.77249 0.35986 0.53933 0.0
H2001 H 0.74442 0.33264 0.50833 0.0
H2002 H 0.78024 0.33568 0.55282 0.0
H2003 H 0.75278 0.30893 0.52222 0.0
H2004 H 0.78594 0.43391 0.50136 0.0
H2005 H 0.79522 0.37767 0.49645 0.0
H2006 H 0.76399 0.41653 0.49473 0.0
H2007 H 0.81666 0.39573 0.50293 0.0
H2008 H 0.80898 0.33069 0.50028 0.0
H2009 H 0.79376 0.33875 0.45313 0.0
H2010 H 0.74825 0.42016 0.55615 0.0
H2011 H 0.79352 0.39921 0.55047 0.0
H2012 H 0.72113 0.36585 0.45918 0.0
H2013 H 0.75075 0.33316 0.4825 0.0
H2014 H 0.71035 0.34426 0.44355 0.0
H2015 H 0.73933 0.31213 0.46661 0.0
H2016 H 0.70201 0.38284 0.50272 0.0
H2017 H 0.73834 0.41705 0.50362 0.0
H2018 H 0.68294 0.40385 0.49801 0.0
H2019 H 0.71866 0.43746 0.49881 0.0
H2020 H 0.70268 0.33491 0.53996 0.0
H2021 H 0.68318 0.33955 0.49398 0.0
H2022 H 0.75429 0.42187 0.44249 0.0
H2023 H 0.7064 0.40859 0.44903 0.0
Li2024 Li 0.63474 0.50381 0.23639 0.0
Li2025 Li 0.61432 0.51128 0.2542 0.0
Li2026 Li 0.63504 0.49359 0.26263 0.0
Li2027 Li 0.61498 0.48468 0.24466 0.0
C2028 C 0.64988 0.52421 0.25649 0.0
N2029 N 0.67658 0.54191 0.25697 0.0
C2030 C 0.64892 0.54039 0.25691 0.0
C2031 C 0.6644 0.51704 0.25646 0.0
C2032 C 0.66256 0.54913 0.25711 0.0
C2033 C 0.67777 0.52619 0.25667 0.0
C2034 C 0.60831 0.51561 0.22216 0.0
C2035 C 0.59645 0.5242 0.19834 0.0
N2036 N 0.60131 0.5389 0.20131 0.0
C2037 C 0.61317 0.53081 0.22499 0.0
C2038 C 0.59987 0.51226 0.20874 0.0
C2039 C 0.60952 0.54242 0.21431 0.0
C2040 C 0.65216 0.49919 0.20921 0.0
N2041 N 0.64725 0.51017 0.21939 0.0
C2042 C 0.65978 0.53006 0.20476 0.0
C2043 C 0.65083 0.52539 0.21737 0.0
C2044 C 0.66508 0.51899 0.19407 0.0
C2045 C 0.66117 0.50335 0.19642 0.0
H2046 H 0.649 0.48718 0.21101 0.0
H2047 H 0.64657 0.53397 0.22539 0.0
C2048 C 0.60739 0.5366 0.27273 0.0
N2049 N 0.60166 0.52786 0.26097 0.0
C2050 C 0.5994 0.5497 0.27777 0.0
C2051 C 0.57946 0.54427 0.25879 0.0
C2052 C 0.58788 0.53126 0.2541 0.0
C2053 C 0.58534 0.5538 0.27063 0.0
H2054 H 0.61834 0.53351 0.27803 0.0
H2055 H 0.58361 0.52408 0.24475 0.0
C2056 C 0.64811 0.47039 0.24288 0.0
N2057 N 0.66934 0.44641 0.24276 0.0
C2058 C 0.64318 0.45514 0.24527 0.0
C2059 C 0.66379 0.47341 0.24014 0.0
C2060 C 0.6541 0.44318 0.24524 0.0
C2061 C 0.67436 0.46114 0.24021 0.0
C2062 C 0.5973 0.49024 0.2714 0.0
C2063 C 0.59408 0.48699 0.28694 0.0
C2064 C 0.58509 0.4921 0.2609 0.0
C2065 C 0.57866 0.48561 0.29173 0.0
C2066 C 0.56983 0.49064 0.26614 0.0
N2067 N 0.56696 0.48745 0.28131 0.0
C2068 C 0.65227 0.49946 0.28962 0.0
C2069 C 0.6511 0.4729 0.28269 0.0
C2070 C 0.6611 0.49595 0.30272 0.0
N2071 N 0.64759 0.48799 0.27986 0.0
C2072 C 0.66 0.46887 0.29558 0.0
C2073 C 0.66507 0.48048 0.3058 0.0
H2074 H 0.64898 0.51134 0.28733 0.0
H2075 H 0.64671 0.46393 0.27518 0.0
C2076 C 0.60248 0.46478 0.2225 0.0
N2077 N 0.60351 0.46722 0.23802 0.0
C2078 C 0.59479 0.45174 0.21681 0.0
C2079 C 0.58914 0.44411 0.24321 0.0
C2080 C 0.59712 0.4572 0.2484 0.0
C2081 C 0.58803 0.44122 0.22723 0.0
H2082 H 0.60783 0.47289 0.21457 0.0
H2083 H 0.59842 0.45924 0.26069 0.0
O2084 O 0.63663 0.5155 0.25613 0.0
O2085 O 0.61176 0.50401 0.2324 0.0
O2086 O 0.63754 0.48222 0.24271 0.0
O2087 O 0.61235 0.49173 0.26662 0.0
H2088 H 0.63776 0.54612 0.25695 0.0
H2089 H 0.66532 0.50456 0.25638 0.0
H2090 H 0.66199 0.56166 0.25735 0.0
H2091 H 0.68908 0.52079 0.25663 0.0
H2092 H 0.58993 0.52177 0.1879 0.0
H2093 H 0.61971 0.53362 0.2353 0.0
H2094 H 0.59601 0.50055 0.20639 0.0
H2095 H 0.61323 0.55423 0.21636 0.0
H2096 H 0.66221 0.54229 0.20323 0.0
H2097 H 0.66508 0.49443 0.1885 0.0
H2098 H 0.6042 0.55658 0.28711 0.0
H2099 H 0.56873 0.54708 0.25292 0.0
H2100 H 0.63107 0.45256 0.24728 0.0
H2101 H 0.66777 0.48507 0.23785 0.0
H2102 H 0.65047 0.43134 0.2472 0.0
H2103 H 0.68654 0.46332 0.23816 0.0
H2104 H 0.60342 0.48556 0.29522 0.0
H2105 H 0.58734 0.49461 0.24883 0.0
H2106 H 0.576 0.48309 0.30372 0.0
H2107 H 0.56027 0.49204 0.25813 0.0
H2108 H 0.66475 0.50523 0.31036 0.0
H2109 H 0.6625 0.45676 0.29777 0.0
H2110 H 0.59411 0.4499 0.2044 0.0
H2111 H 0.58426 0.43613 0.25158 0.0
H2112 H 0.0596 0.42943 0.25632 0.0
H2113 H 0.04676 0.40551 0.26481 0.0
H2114 H 0.08076 0.40016 0.30112 0.0
H2115 H 0.09379 0.42378 0.29253 0.0
H2116 H 0.07588 0.3733 0.28529 0.0
H2117 H 0.04506 0.41361 0.30919 0.0
H2118 H 0.02873 0.43707 0.30927 0.0
H2119 H 0.99554 0.41438 0.27987 0.0
H2120 H 0.0118 0.39084 0.27945 0.0
H2121 H 0.04423 0.32296 0.34012 0.0
H2122 H 0.05383 0.34578 0.32652 0.0
H2123 H 0.0165 0.34204 0.29344 0.0
H2124 H 0.00689 0.31888 0.30689 0.0
H2125 H 0.02141 0.37232 0.30383 0.0
H2126 H 0.05102 0.331 0.28227 0.0
H2127 H 0.06723 0.30746 0.28266 0.0
H2128 H 0.10268 0.33197 0.3076 0.0
H2129 H 0.08658 0.3556 0.30757 0.0
C2130 C 0.06435 0.42309 0.26606 0.0
C2131 C 0.07765 0.4285 0.27382 0.0
C2132 C 0.05696 0.40952 0.27095 0.0
C2133 C 0.06277 0.40115 0.28364 0.0
C2134 C 0.07609 0.40648 0.29131 0.0
C2135 C 0.08343 0.42004 0.28648 0.0
C2136 C 0.05516 0.38674 0.28898 0.0
C2137 C 0.064 0.3731 0.28943 0.0
C2138 C 0.03951 0.3864 0.29388 0.0
C2139 C 0.02974 0.40054 0.29413 0.0
C2140 C 0.03435 0.41367 0.30263 0.0
C2141 C 0.02509 0.42698 0.30276 0.0
C2142 C 0.01113 0.42724 0.29454 0.0
C2143 C 0.00638 0.41418 0.2862 0.0
C2144 C 0.0156 0.40085 0.28602 0.0
C2145 C 0.03814 0.32684 0.32985 0.0
C2146 C 0.02492 0.31897 0.32446 0.0
C2147 C 0.04361 0.33993 0.32214 0.0
C2148 C 0.036 0.34543 0.30886 0.0
C2149 C 0.02255 0.33791 0.30365 0.0
C2150 C 0.01707 0.32473 0.31136 0.0
C2151 C 0.04229 0.35903 0.30053 0.0
C2152 C 0.03321 0.37248 0.29947 0.0
C2153 C 0.05774 0.35921 0.29505 0.0
C2154 C 0.06754 0.34505 0.295 0.0
C2155 C 0.06223 0.33134 0.28793 0.0
C2156 C 0.0714 0.31799 0.28808 0.0
C2157 C 0.08597 0.31822 0.29517 0.0
C2158 C 0.0914 0.33181 0.30211 0.0
C2159 C 0.08226 0.3452 0.30202 0.0
H2160 H 0.09305 0.30786 0.29527 0.0
H2161 H 0.00398 0.43754 0.29466 0.0
H2162 H 0.91271 0.76166 0.58537 0.0
H2163 H 0.89037 0.772 0.57138 0.0
H2164 H 0.92036 0.80316 0.54626 0.0
H2165 H 0.94284 0.7927 0.56002 0.0
H2166 H 0.89535 0.81793 0.55865 0.0
H2167 H 0.90478 0.77263 0.52802 0.0
H2168 H 0.90927 0.74481 0.52328 0.0
H2169 H 0.86473 0.73402 0.54275 0.0
H2170 H 0.86006 0.76178 0.54782 0.0
H2171 H 0.83645 0.8457 0.50903 0.0
H2172 H 0.8603 0.83311 0.51771 0.0
H2173 H 0.83337 0.79954 0.54323 0.0
H2174 H 0.80946 0.81172 0.53412 0.0
H2175 H 0.85773 0.78601 0.52901 0.0
H2176 H 0.84902 0.83056 0.56142 0.0
H2177 H 0.8443 0.85822 0.56688 0.0
H2178 H 0.88734 0.87017 0.54486 0.0
H2179 H 0.8922 0.84258 0.53907 0.0
C2180 C 0.91461 0.77051 0.57667 0.0
C2181 C 0.92957 0.77636 0.57381 0.0
C2182 C 0.90182 0.77643 0.56871 0.0
C2183 C 0.90374 0.78826 0.55772 0.0
C2184 C 0.91865 0.79404 0.55473 0.0
C2185 C 0.93146 0.7881 0.56265 0.0
C2186 C 0.89009 0.79513 0.54992 0.0
C2187 C 0.88727 0.81101 0.55192 0.0
C2188 C 0.87938 0.78599 0.54149 0.0
C2189 C 0.88213 0.76928 0.53842 0.0
C2190 C 0.89599 0.76432 0.53141 0.0
C2191 C 0.89856 0.74856 0.52864 0.0
C2192 C 0.88731 0.73765 0.53274 0.0
C2193 C 0.87344 0.74248 0.53959 0.0
C2194 C 0.87082 0.75823 0.5424 0.0
C2195 C 0.83559 0.83547 0.51626 0.0
C2196 C 0.82106 0.82977 0.52098 0.0
C2197 C 0.84923 0.82837 0.52132 0.0
C2198 C 0.84859 0.81554 0.5313 0.0
C2199 C 0.83411 0.80948 0.53558 0.0
C2200 C 0.82047 0.81654 0.53049 0.0
C2201 C 0.86297 0.80879 0.5378 0.0
C2202 C 0.8659 0.79294 0.5356 0.0
C2203 C 0.87376 0.81793 0.54614 0.0
C2204 C 0.87089 0.83452 0.54966 0.0
C2205 C 0.85742 0.8391 0.55763 0.0
C2206 C 0.85473 0.85476 0.5608 0.0
C2207 C 0.86549 0.86595 0.55617 0.0
C2208 C 0.87899 0.86149 0.54841 0.0
C2209 C 0.88173 0.84584 0.54519 0.0
H2210 H 0.86339 0.87807 0.55864 0.0
H2211 H 0.88932 0.72545 0.53059 0.0
H2212 H 0.43439 0.57085 0.75667 0.0
H2213 H 0.44631 0.59489 0.76609 0.0
H2214 H 0.41707 0.5935 0.80665 0.0
H2215 H 0.40493 0.56974 0.79719 0.0
H2216 H 0.41785 0.62221 0.79345 0.0
H2217 H 0.45446 0.58271 0.80891 0.0
H2218 H 0.47226 0.56078 0.80449 0.0
H2219 H 0.49941 0.58871 0.77348 0.0
H2220 H 0.48164 0.61076 0.77756 0.0
H2221 H 0.45344 0.67329 0.84567 0.0
H2222 H 0.44316 0.65035 0.83268 0.0
H2223 H 0.47637 0.65621 0.79573 0.0
H2224 H 0.48679 0.67925 0.80874 0.0
H2225 H 0.47421 0.62626 0.80438 0.0
H2226 H 0.43885 0.66635 0.79023 0.0
H2227 H 0.42119 0.6884 0.79455 0.0
H2228 H 0.39167 0.65964 0.82248 0.0
H2229 H 0.40928 0.63746 0.81852 0.0
C2230 C 0.43047 0.57573 0.76756 0.0
C2231 C 0.41879 0.56838 0.77624 0.0
C2232 C 0.43735 0.58938 0.77296 0.0
C2233 C 0.43264 0.59588 0.78712 0.0
C2234 C 0.42089 0.58864 0.79572 0.0
C2235 C 0.41406 0.575 0.79036 0.0
C2236 C 0.4398 0.61032 0.79302 0.0
C2237 C 0.43015 0.62307 0.79597 0.0
C2238 C 0.45592 0.61155 0.79582 0.0
C2239 C 0.46662 0.59832 0.7934 0.0
C2240 C 0.46415 0.58413 0.80105 0.0
C2241 C 0.47425 0.57169 0.79862 0.0
C2242 C 0.48693 0.57333 0.78867 0.0
C2243 C 0.48956 0.58744 0.78116 0.0
C2244 C 0.47949 0.59992 0.78353 0.0
C2245 C 0.45848 0.66978 0.83471 0.0
C2246 C 0.47082 0.67815 0.82814 0.0
C2247 C 0.45261 0.65666 0.82731 0.0
C2248 C 0.45883 0.65174 0.81311 0.0
C2249 C 0.47138 0.65986 0.80666 0.0
C2250 C 0.47732 0.67298 0.81411 0.0
C2251 C 0.4522 0.63806 0.80511 0.0
C2252 C 0.46193 0.62547 0.80173 0.0
C2253 C 0.43615 0.63698 0.80184 0.0
C2254 C 0.42546 0.65027 0.80417 0.0
C2255 C 0.42865 0.66475 0.79738 0.0
C2256 C 0.41864 0.67727 0.79975 0.0
C2257 C 0.40533 0.67543 0.80881 0.0
C2258 C 0.40199 0.66105 0.81548 0.0
C2259 C 0.41198 0.6485 0.81316 0.0
H2260 H 0.3976 0.68514 0.81063 0.0
H2261 H 0.49473 0.56369 0.78682 0.0
H2262 H 0.55767 0.21618 0.0549 0.0
H2263 H 0.58096 0.20746 0.04125 0.0
H2264 H 0.60958 0.22894 0.07623 0.0
H2265 H 0.58633 0.23785 0.08982 0.0
H2266 H 0.62193 0.23283 0.04781 0.0
H2267 H 0.60136 0.19044 0.07774 0.0
H2268 H 0.58115 0.17212 0.08635 0.0
H2269 H 0.57684 0.15466 0.03991 0.0
H2270 H 0.59688 0.17305 0.03099 0.0
H2271 H 0.69081 0.18806 0.04005 0.0
H2272 H 0.66731 0.20137 0.04864 0.0
H2273 H 0.64118 0.17882 0.01241 0.0
H2274 H 0.6645 0.16507 0.00408 0.0
H2275 H 0.62713 0.17609 0.03985 0.0
H2276 H 0.64961 0.21751 0.01046 0.0
H2277 H 0.67018 0.2357 0.0025 0.0
H2278 H 0.67152 0.25475 0.04847 0.0
H2279 H 0.6511 0.23653 0.05678 0.0
C2280 C 0.56894 0.2191 0.05961 0.0
C2281 C 0.57021 0.22756 0.07348 0.0
C2282 C 0.58221 0.21414 0.05181 0.0
C2283 C 0.59698 0.21734 0.05788 0.0
C2284 C 0.59829 0.22635 0.07136 0.0
C2285 C 0.58501 0.23143 0.07911 0.0
C2286 C 0.61102 0.21055 0.05068 0.0
C2287 C 0.62314 0.22042 0.04617 0.0
C2288 C 0.61245 0.19438 0.04831 0.0
C2289 C 0.60049 0.18323 0.05367 0.0
C2290 C 0.59602 0.18278 0.06935 0.0
C2291 C 0.58461 0.17237 0.07428 0.0
C2292 C 0.57769 0.16227 0.06367 0.0
C2293 C 0.58219 0.16252 0.04811 0.0
C2294 C 0.59358 0.17292 0.04311 0.0
C2295 C 0.68006 0.18596 0.03389 0.0
C2296 C 0.67951 0.17548 0.02141 0.0
C2297 C 0.66668 0.1937 0.03871 0.0
C2298 C 0.65253 0.19118 0.03106 0.0
C2299 C 0.65201 0.18097 0.01841 0.0
C2300 C 0.66537 0.17321 0.0136 0.0
C2301 C 0.63808 0.19836 0.03694 0.0
C2302 C 0.62588 0.18853 0.0413 0.0
C2303 C 0.63665 0.21454 0.03925 0.0
C2304 C 0.6489 0.22556 0.03427 0.0
C2305 C 0.65437 0.2255 0.01891 0.0
C2306 C 0.66599 0.23583 0.01433 0.0
C2307 C 0.67218 0.24635 0.02498 0.0
C2308 C 0.66673 0.24659 0.04024 0.0
C2309 C 0.65512 0.23627 0.04488 0.0
H2310 H 0.68118 0.25434 0.02141 0.0
H2311 H 0.56886 0.15422 0.06752 0.0
H2312 H 0.09236 0.58618 0.23394 0.0
H2313 H 0.07824 0.60925 0.22552 0.0
H2314 H 0.03857 0.58088 0.21415 0.0
H2315 H 0.05291 0.55771 0.2221 0.0
H2316 H 0.04423 0.59925 0.19142 0.0
H2317 H 0.03898 0.60671 0.24589 0.0
H2318 H 0.0475 0.60867 0.27311 0.0
H2319 H 0.0764 0.64754 0.26155 0.0
H2320 H 0.06822 0.64568 0.23421 0.0
H2321 H -0.00108 0.66578 0.17315 0.0
H2322 H 0.00773 0.64277 0.18722 0.0
H2323 H 0.05257 0.6639 0.19391 0.0
H2324 H 0.04405 0.68674 0.17957 0.0
H2325 H 0.04135 0.64881 0.22048 0.0
H2326 H 0.04818 0.63899 0.16552 0.0
H2327 H 0.03918 0.63694 0.13845 0.0
H2328 H 0.00621 0.60208 0.15177 0.0
H2329 H 0.01488 0.60409 0.17898 0.0
C2330 C 0.08054 0.58493 0.22988 0.0
C2331 C 0.0737 0.57021 0.22865 0.0
C2332 C 0.07244 0.59811 0.22513 0.0
C2333 C 0.05725 0.59684 0.21937 0.0
C2334 C 0.05027 0.58215 0.21854 0.0
C2335 C 0.05845 0.56894 0.22307 0.0
C2336 C 0.04912 0.61066 0.21314 0.0
C2337 C 0.04331 0.60997 0.19794 0.0
C2338 C 0.04815 0.62477 0.2215 0.0
C2339 C 0.05306 0.62597 0.23796 0.0
C2340 C 0.04723 0.61561 0.24912 0.0
C2341 C 0.05199 0.61671 0.26458 0.0
C2342 C 0.06251 0.6282 0.26905 0.0
C2343 C 0.06826 0.63864 0.25807 0.0
C2344 C 0.06354 0.63758 0.24259 0.0
C2345 C 0.01067 0.66552 0.17757 0.0
C2346 C 0.02081 0.67807 0.17514 0.0
C2347 C 0.01564 0.65242 0.18569 0.0
C2348 C 0.03081 0.65165 0.19151 0.0
C2349 C 0.04078 0.66433 0.18957 0.0
C2350 C 0.03586 0.67739 0.1814 0.0
C2351 C 0.03666 0.63731 0.19884 0.0
C2352 C 0.04207 0.63796 0.21416 0.0
C2353 C 0.03717 0.62311 0.19067 0.0
C2354 C 0.03205 0.62182 0.1743 0.0
C2355 C 0.03892 0.63098 0.16269 0.0
C2356 C 0.0339 0.62981 0.14733 0.0
C2357 C 0.0221 0.61942 0.1434 0.0
C2358 C 0.01533 0.61014 0.15483 0.0
C2359 C 0.0203 0.61129 0.17023 0.0
H2360 H 0.01823 0.61853 0.1315 0.0
H2361 H 0.06618 0.62904 0.28102 0.0
H2362 H 0.58305 0.7533 0.41914 0.0
H2363 H 0.6059 0.76334 0.43265 0.0
H2364 H 0.58058 0.80482 0.44465 0.0
H2365 H 0.5579 0.79499 0.43071 0.0
H2366 H 0.60727 0.81246 0.43385 0.0
H2367 H 0.59026 0.77585 0.47188 0.0
H2368 H 0.58195 0.75039 0.48188 0.0
H2369 H 0.62582 0.73071 0.46895 0.0
H2370 H 0.63432 0.75602 0.45868 0.0
H2371 H 0.66293 0.84296 0.48546 0.0
H2372 H 0.6391 0.83034 0.47665 0.0
H2373 H 0.66601 0.79335 0.45645 0.0
H2374 H 0.68995 0.80587 0.46537 0.0
H2375 H 0.63855 0.78332 0.47235 0.0
H2376 H 0.65468 0.82035 0.43354 0.0
H2377 H 0.6627 0.8462 0.42433 0.0
H2378 H 0.61953 0.86544 0.43998 0.0
H2379 H 0.61135 0.83973 0.4495 0.0
C2380 C 0.58234 0.76446 0.42485 0.0
C2381 C 0.56878 0.77341 0.42389 0.0
C2382 C 0.59537 0.77017 0.43261 0.0
C2383 C 0.59492 0.78478 0.43982 0.0
C2384 C 0.58121 0.79354 0.43916 0.0
C2385 C 0.56828 0.78794 0.43121 0.0
C2386 C 0.609 0.79138 0.44719 0.0
C2387 C 0.61392 0.80616 0.44247 0.0
C2388 C 0.61793 0.78304 0.45818 0.0
C2389 C 0.61287 0.76781 0.46438 0.0
C2390 C 0.59809 0.76607 0.47106 0.0
C2391 C 0.59336 0.75167 0.4768 0.0
C2392 C 0.60334 0.73893 0.47601 0.0
C2393 C 0.61809 0.74058 0.46953 0.0
C2394 C 0.62288 0.75496 0.46376 0.0
C2395 C 0.66376 0.832 0.47939 0.0
C2396 C 0.67828 0.82542 0.47603 0.0
C2397 C 0.65016 0.82486 0.47431 0.0
C2398 C 0.65086 0.811 0.46582 0.0
C2399 C 0.66528 0.80406 0.46299 0.0
C2400 C 0.67891 0.81126 0.46797 0.0
C2401 C 0.6366 0.80433 0.45905 0.0
C2402 C 0.63175 0.78957 0.46382 0.0
C2403 C 0.62762 0.81271 0.44822 0.0
C2404 C 0.63247 0.82815 0.44238 0.0
C2405 C 0.64695 0.83012 0.43513 0.0
C2406 C 0.65152 0.84474 0.42984 0.0
C2407 C 0.64165 0.85746 0.43161 0.0
C2408 C 0.62717 0.85558 0.43864 0.0
C2409 C 0.62256 0.84098 0.44398 0.0
H2410 H 0.64521 0.86878 0.4275 0.0
H2411 H 0.59965 0.72779 0.48046 0.0
H2412 H 0.45508 0.30715 0.68243 0.0
H2413 H 0.44474 0.33016 0.6953 0.0
H2414 H 0.48768 0.35437 0.68687 0.0
H2415 H 0.49825 0.33124 0.67415 0.0
H2416 H 0.47471 0.35983 0.71686 0.0
H2417 H 0.45962 0.36071 0.66304 0.0
H2418 H 0.4483 0.34965 0.63922 0.0
H2419 H 0.40441 0.34449 0.66217 0.0
H2420 H 0.41555 0.35532 0.6862 0.0
H2421 H 0.44478 0.43609 0.72797 0.0
H2422 H 0.45774 0.41279 0.71855 0.0
H2423 H 0.41385 0.38878 0.71729 0.0
H2424 H 0.40067 0.41228 0.72553 0.0
H2425 H 0.42843 0.38338 0.69207 0.0
H2426 H 0.44281 0.38214 0.74589 0.0
H2427 H 0.45379 0.39237 0.77023 0.0
H2428 H 0.49823 0.39746 0.74835 0.0
H2429 H 0.48746 0.38744 0.72382 0.0
C2430 C 0.46245 0.31725 0.68359 0.0
C2431 C 0.47745 0.31742 0.67722 0.0
C2432 C 0.45649 0.33041 0.69086 0.0
C2433 C 0.46541 0.34397 0.69187 0.0
C2434 C 0.48063 0.344 0.68615 0.0
C2435 C 0.48659 0.33085 0.6788 0.0
C2436 C 0.45844 0.35837 0.698 0.0
C2437 C 0.4647 0.36513 0.71139 0.0
C2438 C 0.44522 0.36503 0.69096 0.0
C2439 C 0.43846 0.3587 0.67646 0.0
C2440 C 0.44759 0.35712 0.66304 0.0
C2441 C 0.4412 0.3509 0.6495 0.0
C2442 C 0.42565 0.34634 0.64919 0.0
C2443 C 0.41645 0.34802 0.66242 0.0
C2444 C 0.42279 0.3542 0.676 0.0
C2445 C 0.43784 0.4259 0.72558 0.0
C2446 C 0.42163 0.42614 0.72752 0.0
C2447 C 0.44533 0.4125 0.72041 0.0
C2448 C 0.43681 0.39895 0.71739 0.0
C2449 C 0.42069 0.39908 0.71958 0.0
C2450 C 0.41317 0.41252 0.72449 0.0
C2451 C 0.44448 0.38484 0.7112 0.0
C2452 C 0.43841 0.37814 0.69767 0.0
C2453 C 0.45777 0.3782 0.71822 0.0
C2454 C 0.46428 0.38418 0.73297 0.0
C2455 C 0.45489 0.38555 0.74624 0.0
C2456 C 0.46109 0.39129 0.76007 0.0
C2457 C 0.47669 0.39561 0.76083 0.0
C2458 C 0.48614 0.39414 0.74775 0.0
C2459 C 0.48 0.38842 0.73388 0.0
H2460 H 0.48146 0.40005 0.77155 0.0
H2461 H 0.42073 0.34153 0.6387 0.0
H2462 H 0.9221 0.20711 0.90087 0.0
H2463 H 0.8983 0.19869 0.91333 0.0
H2464 H 0.90657 0.23044 0.9511 0.0
H2465 H 0.93112 0.2382 0.93921 0.0
H2466 H 0.89664 0.20423 0.96217 0.0
H2467 H 0.87889 0.23797 0.92246 0.0
H2468 H 0.87687 0.24889 0.89612 0.0
H2469 H 0.85902 0.20559 0.87922 0.0
H2470 H 0.86114 0.19433 0.90542 0.0
H2471 H 0.81847 0.18916 0.98832 0.0
H2472 H 0.84148 0.20284 0.97876 0.0
H2473 H 0.84556 0.16991 0.94135 0.0
H2474 H 0.82295 0.15597 0.95099 0.0
H2475 H 0.84792 0.20076 0.93175 0.0
H2476 H 0.86867 0.16691 0.97186 0.0
H2477 H 0.87037 0.15691 -0.0014 0.0
H2478 H 0.88176 0.20245 0.01519 0.0
H2479 H 0.87992 0.21276 0.98856 0.0
C2480 C 0.91905 0.21217 0.91195 0.0
C2481 C 0.92862 0.22332 0.91904 0.0
C2482 C 0.90525 0.20752 0.91894 0.0
C2483 C 0.90045 0.21418 0.93299 0.0
C2484 C 0.90997 0.22524 0.94019 0.0
C2485 C 0.92394 0.22976 0.93329 0.0
C2486 C 0.88567 0.20919 0.94025 0.0
C2487 C 0.88591 0.20378 0.9556 0.0
C2488 C 0.87166 0.20852 0.93169 0.0
C2489 C 0.87027 0.21528 0.91591 0.0
C2490 C 0.87462 0.23074 0.91311 0.0
C2491 C 0.87345 0.237 0.8982 0.0
C2492 C 0.86785 0.22794 0.886 0.0
C2493 C 0.86337 0.2126 0.88869 0.0
C2494 C 0.86453 0.20628 0.90357 0.0
C2495 C 0.82437 0.18474 0.97815 0.0
C2496 C 0.81882 0.1715 0.97038 0.0
C2497 C 0.83745 0.19261 0.97268 0.0
C2498 C 0.84517 0.18736 0.95936 0.0
C2499 C 0.83966 0.1742 0.95158 0.0
C2500 C 0.82669 0.1663 0.95708 0.0
C2501 C 0.85908 0.19544 0.95342 0.0
C2502 C 0.85861 0.20147 0.93833 0.0
C2503 C 0.87279 0.19687 0.96229 0.0
C2504 C 0.87398 0.19064 0.97826 0.0
C2505 C 0.87141 0.17481 0.98123 0.0
C2506 C 0.87242 0.16908 0.99636 0.0
C2507 C 0.87612 0.17905 0.0086 0.0
C2508 C 0.87887 0.19475 0.00571 0.0
C2509 C 0.87785 0.20054 0.99061 0.0
H2510 H 0.8769 0.17459 0.0203 0.0
H2511 H 0.86695 0.2328 0.87447 0.0
H2512 H 0.25351 0.06456 0.42511 0.0
H2513 H 0.26176 0.05296 0.40053 0.0
H2514 H 0.3029 0.08144 0.4009 0.0
H2515 H 0.29446 0.09349 0.425 0.0
H2516 H 0.29002 0.08141 0.373 0.0
H2517 H 0.30365 0.04285 0.41136 0.0
H2518 H 0.29846 0.02458 0.43273 0.0
H2519 H 0.26602 -9e-05 0.4041 0.0
H2520 H 0.27087 0.01818 0.38262 0.0
H2521 H 0.34398 0.04355 0.32542 0.0
H2522 H 0.3297 0.05383 0.34753 0.0
H2523 H 0.29017 0.02572 0.33539 0.0
H2524 H 0.30421 0.01568 0.31282 0.0
H2525 H 0.29835 0.02476 0.3674 0.0
H2526 H 0.2874 0.06202 0.32797 0.0
H2527 H 0.29363 0.08006 0.30669 0.0
H2528 H 0.32185 0.10712 0.33753 0.0
H2529 H 0.31598 0.0891 0.35895 0.0
C2530 C 0.26425 0.06841 0.41988 0.0
C2531 C 0.27339 0.07987 0.42707 0.0
C2532 C 0.26901 0.06169 0.40592 0.0
C2533 C 0.28301 0.06624 0.39897 0.0
C2534 C 0.29207 0.07774 0.40607 0.0
C2535 C 0.28731 0.08449 0.41995 0.0
C2536 C 0.28837 0.05917 0.38426 0.0
C2537 C 0.29192 0.06903 0.37181 0.0
C2538 C 0.2904 0.04297 0.38255 0.0
C2539 C 0.28748 0.03199 0.39545 0.0
C2540 C 0.29531 0.03361 0.40967 0.0
C2541 C 0.29245 0.02324 0.42179 0.0
C2542 C 0.28188 0.01112 0.41979 0.0
C2543 C 0.27418 0.00933 0.40565 0.0
C2544 C 0.27698 0.01968 0.39349 0.0
C2545 C 0.33217 0.0397 0.32726 0.0
C2546 C 0.3252 0.02889 0.31723 0.0
C2547 C 0.32407 0.04552 0.33997 0.0
C2548 C 0.30886 0.04062 0.34296 0.0
C2549 C 0.30191 0.02963 0.33322 0.0
C2550 C 0.30998 0.02387 0.32038 0.0
C2551 C 0.30038 0.04707 0.35638 0.0
C2552 C 0.29621 0.03711 0.36853 0.0
C2553 C 0.29786 0.06319 0.35787 0.0
C2554 C 0.30133 0.07414 0.34505 0.0
C2555 C 0.29503 0.07175 0.33019 0.0
C2556 C 0.29848 0.08198 0.3181 0.0
C2557 C 0.30815 0.09471 0.32075 0.0
C2558 C 0.31436 0.09725 0.3355 0.0
C2559 C 0.31096 0.08704 0.34762 0.0
H2560 H 0.31081 0.10262 0.31138 0.0
H2561 H 0.27968 0.0031 0.42919 0.0
H2562 H 0.19093 0.01446 0.68336 0.0
H2563 H 0.20365 0.0235 0.65973 0.0
H2564 H 0.16409 0.05234 0.64942 0.0
H2565 H 0.15089 0.0426 0.67234 0.0
H2566 H 0.17285 0.03832 0.62445 0.0
H2567 H 0.1993 0.06671 0.6649 0.0
H2568 H 0.21453 0.06955 0.68894 0.0
H2569 H 0.25163 0.04311 0.66886 0.0
H2570 H 0.23652 0.03995 0.64476 0.0
H2571 H 0.2021 0.0941 0.57312 0.0
H2572 H 0.19266 0.08089 0.59624 0.0
H2573 H 0.23197 0.05002 0.59492 0.0
H2574 H 0.24139 0.063 0.57143 0.0
H2575 H 0.22527 0.06207 0.6248 0.0
H2576 H 0.19905 0.0362 0.58321 0.0
H2577 H 0.18365 0.03468 0.55917 0.0
H2578 H 0.14571 0.05773 0.58169 0.0
H2579 H 0.16097 0.0596 0.60581 0.0
C2580 C 0.18486 0.02261 0.67599 0.0
C2581 C 0.16987 0.02783 0.67983 0.0
C2582 C 0.19224 0.02792 0.66257 0.0
C2583 C 0.18491 0.03876 0.65289 0.0
C2584 C 0.17 0.044 0.65672 0.0
C2585 C 0.16253 0.03856 0.66998 0.0
C2586 C 0.19252 0.04452 0.63859 0.0
C2587 C 0.18426 0.04363 0.62459 0.0
C2588 C 0.20762 0.05102 0.63863 0.0
C2589 C 0.21671 0.05294 0.6531 0.0
C2590 C 0.21065 0.0614 0.66566 0.0
C2591 C 0.21927 0.06309 0.67928 0.0
C2592 C 0.23402 0.05647 0.68044 0.0
C2593 C 0.24019 0.0482 0.66796 0.0
C2594 C 0.23161 0.04646 0.65431 0.0
C2595 C 0.20867 0.08438 0.57759 0.0
C2596 C 0.2224 0.07947 0.5703 0.0
C2597 C 0.2033 0.07691 0.59086 0.0
C2598 C 0.21153 0.06439 0.59714 0.0
C2599 C 0.22546 0.05967 0.59019 0.0
C2600 C 0.23083 0.06711 0.57682 0.0
C2601 C 0.20537 0.05624 0.61089 0.0
C2602 C 0.21393 0.05661 0.62471 0.0
C2603 C 0.19048 0.04939 0.61075 0.0
C2604 C 0.1812 0.04813 0.5963 0.0
C2605 C 0.18746 0.04104 0.58301 0.0
C2606 C 0.17875 0.0401 0.56937 0.0
C2607 C 0.16372 0.04613 0.5689 0.0
C2608 C 0.15735 0.05307 0.58208 0.0
C2609 C 0.16602 0.05406 0.59574 0.0
H2610 H 0.157 0.0454 0.55832 0.0
H2611 H 0.24067 0.05779 0.691 0.0
H2612 H 0.15352 0.94907 0.82218 0.0
H2613 H 0.16596 0.94053 0.84588 0.0
H2614 H 0.20056 0.97634 0.84095 0.0
H2615 H 0.18897 0.98413 0.81633 0.0
H2616 H 0.21394 0.95182 0.851 0.0
H2617 H 0.16922 0.97944 0.86712 0.0
H2618 H 0.14165 0.98698 0.86774 0.0
H2619 H 0.12917 0.94121 0.88284 0.0
H2620 H 0.15665 0.93332 0.88211 0.0
H2621 H 0.23431 0.93915 0.93199 0.0
H2622 H 0.22491 0.95189 0.90841 0.0
H2623 H 0.19661 0.91203 0.89801 0.0
H2624 H 0.20642 0.89888 0.92099 0.0
H2625 H 0.18111 0.94239 0.89731 0.0
H2626 H 0.22716 0.91534 0.87853 0.0
H2627 H 0.25516 0.90954 0.87872 0.0
H2628 H 0.26544 0.95749 0.87011 0.0
H2629 H 0.23748 0.96361 0.8701 0.0
C2630 C 0.16397 0.95497 0.82586 0.0
C2631 C 0.17019 0.96735 0.81723 0.0
C2632 C 0.17092 0.95024 0.83965 0.0
C2633 C 0.18395 0.95806 0.84546 0.0
C2634 C 0.1904 0.97023 0.83679 0.0
C2635 C 0.18364 0.97478 0.82278 0.0
C2636 C 0.19084 0.95334 0.86051 0.0
C2637 C 0.20678 0.95005 0.86119 0.0
C2638 C 0.18156 0.95104 0.87388 0.0
C2639 C 0.165 0.95576 0.87446 0.0
C2640 C 0.16059 0.97095 0.87049 0.0
C2641 C 0.14498 0.97529 0.87087 0.0
C2642 C 0.13367 0.96457 0.8753 0.0
C2643 C 0.13795 0.9495 0.8794 0.0
C2644 C 0.15354 0.94509 0.87903 0.0
C2645 C 0.22626 0.93298 0.92459 0.0
C2646 C 0.22106 0.91799 0.92849 0.0
C2647 C 0.22084 0.94033 0.91119 0.0
C2648 C 0.21005 0.93288 0.90158 0.0
C2649 C 0.20485 0.91798 0.9054 0.0
C2650 C 0.2104 0.91055 0.91862 0.0
C2651 C 0.20398 0.94052 0.88754 0.0
C2652 C 0.18822 0.9444 0.88712 0.0
C2653 C 0.21347 0.94368 0.87458 0.0
C2654 C 0.23025 0.93996 0.87451 0.0
C2655 C 0.2354 0.92467 0.87683 0.0
C2656 C 0.25126 0.92132 0.87687 0.0
C2657 C 0.26208 0.93315 0.87448 0.0
C2658 C 0.25705 0.94835 0.87199 0.0
C2659 C 0.2412 0.95176 0.87196 0.0
H2660 H 0.27435 0.93053 0.87451 0.0
H2661 H 0.12158 0.96795 0.87558 0.0
H2662 H 0.28907 0.90141 0.07738 0.0
H2663 H 0.29667 0.91374 0.10151 0.0
H2664 H 0.26541 0.95168 0.09224 0.0
H2665 H 0.2584 0.93981 0.06741 0.0
H2666 H 0.29161 0.96251 0.10314 0.0
H2667 H 0.25652 0.92363 0.11956 0.0
H2668 H 0.24476 0.89762 0.12112 0.0
H2669 H 0.28692 0.87942 0.14033 0.0
H2670 H 0.29903 0.90527 0.13868 0.0
H2671 H 0.30533 0.98645 0.18275 0.0
H2672 H 0.2915 0.97746 0.15962 0.0
H2673 H 0.32556 0.94148 0.15314 0.0
H2674 H 0.33987 0.95075 0.17564 0.0
H2675 H 0.29328 0.93167 0.15169 0.0
H2676 H 0.3286 0.97104 0.13158 0.0
H2677 H 0.33928 0.99754 0.13037 0.0
H2678 H 0.29423 0.01542 0.11897 0.0
H2679 H 0.28324 0.98902 0.12035 0.0
C2680 C 0.28395 0.91249 0.08029 0.0
C2681 C 0.27315 0.91963 0.07037 0.0
C2682 C 0.28813 0.91942 0.09426 0.0
C2683 C 0.28137 0.93348 0.09886 0.0
C2684 C 0.27067 0.94075 0.08898 0.0
C2685 C 0.26659 0.93389 0.07486 0.0
C2686 C 0.28589 0.94063 0.11383 0.0
C2687 C 0.29165 0.95587 0.11383 0.0
C2688 C 0.28597 0.93198 0.1278 0.0
C2689 C 0.27872 0.9164 0.12891 0.0
C2690 C 0.26333 0.91406 0.12402 0.0
C2691 C 0.25659 0.89935 0.12494 0.0
C2692 C 0.26509 0.88687 0.1308 0.0
C2693 C 0.28035 0.8891 0.13579 0.0
C2694 C 0.28715 0.90379 0.13489 0.0
C2695 C 0.31 0.97674 0.17631 0.0
C2696 C 0.32372 0.96931 0.18115 0.0
C2697 C 0.30201 0.97157 0.16318 0.0
C2698 C 0.30753 0.9588 0.15478 0.0
C2699 C 0.32108 0.95128 0.1596 0.0
C2700 C 0.32918 0.95655 0.17255 0.0
C2701 C 0.29938 0.95324 0.14079 0.0
C2702 C 0.29293 0.93834 0.14104 0.0
C2703 C 0.29844 0.96227 0.12715 0.0
C2704 C 0.30506 0.9781 0.12627 0.0
C2705 C 0.32094 0.98064 0.12897 0.0
C2706 C 0.32706 0.99564 0.12822 0.0
C2707 C 0.31743 0.00816 0.12465 0.0
C2708 C 0.30167 0.00571 0.12177 0.0
C2709 C 0.29549 0.99074 0.12253 0.0
H2710 H 0.32219 0.01976 0.12406 0.0
H2711 H 0.25986 0.87549 0.13149 0.0
H2712 H 0.32488 0.3455 0.04362 0.0
H2713 H 0.34887 0.33319 0.05211 0.0
H2714 H 0.34623 0.30118 0.01377 0.0
H2715 H 0.32186 0.31323 0.00539 0.0
H2716 H 0.35398 0.28673 0.04107 0.0
H2717 H 0.37142 0.3303 0.01192 0.0
H2718 H 0.37237 0.3577 0.00387 0.0
H2719 H 0.38702 0.37091 0.04958 0.0
H2720 H 0.38594 0.3436 0.05799 0.0
H2721 H 0.43154 0.26131 0.05781 0.0
H2722 H 0.40871 0.27128 0.04414 0.0
H2723 H 0.40408 0.30752 0.07832 0.0
H2724 H 0.42675 0.29762 0.09202 0.0
H2725 H 0.40111 0.31871 0.04931 0.0
H2726 H 0.38093 0.27551 0.07897 0.0
H2727 H 0.37965 0.24814 0.08716 0.0
H2728 H 0.37015 0.23429 0.04029 0.0
H2729 H 0.37159 0.26157 0.03178 0.0
C2730 C 0.3293 0.33574 0.03708 0.0
C2731 C 0.32147 0.33032 0.02385 0.0
C2732 C 0.34309 0.32882 0.04185 0.0
C2733 C 0.34942 0.31642 0.03344 0.0
C2734 C 0.34156 0.3108 0.02035 0.0
C2735 C 0.32772 0.31775 0.01553 0.0
C2736 C 0.36422 0.30937 0.03851 0.0
C2737 C 0.36439 0.29363 0.04259 0.0
C2738 C 0.37771 0.31845 0.04064 0.0
C2739 C 0.37849 0.3349 0.03561 0.0
C2740 C 0.37474 0.33905 0.02029 0.0
C2741 C 0.37532 0.35457 0.01566 0.0
C2742 C 0.37973 0.36604 0.02621 0.0
C2743 C 0.3836 0.36201 0.04142 0.0
C2744 C 0.38303 0.34651 0.04612 0.0
C2745 C 0.42558 0.27134 0.06245 0.0
C2746 C 0.43096 0.27871 0.07597 0.0
C2747 C 0.41257 0.27703 0.05462 0.0
C2748 C 0.40468 0.29009 0.06027 0.0
C2749 C 0.41007 0.29748 0.07371 0.0
C2750 C 0.42306 0.29184 0.08151 0.0
C2751 C 0.39076 0.29618 0.05229 0.0
C2752 C 0.39077 0.31175 0.0476 0.0
C2753 C 0.37746 0.28693 0.0496 0.0
C2754 C 0.37655 0.27055 0.05471 0.0
C2755 C 0.3787 0.26661 0.07039 0.0
C2756 C 0.37792 0.25112 0.07509 0.0
C2757 C 0.37487 0.23948 0.06424 0.0
C2758 C 0.37255 0.24331 0.04867 0.0
C2759 C 0.37334 0.25878 0.04391 0.0
H2760 H 0.37427 0.22749 0.06791 0.0
H2761 H 0.38017 0.37805 0.0226 0.0
H2762 H 0.99595 0.82741 0.17529 0.0
H2763 H 0.98603 0.85087 0.18793 0.0
H2764 H 0.93921 0.83419 0.18214 0.0
H2765 H 0.94899 0.81093 0.1693 0.0
H2766 H 0.94283 0.86429 0.17263 0.0
H2767 H 0.95626 0.83279 0.21701 0.0
H2768 H 0.97389 0.81726 0.23329 0.0
H2769 H 0.00389 0.85662 0.23883 0.0
H2770 H 0.98652 0.87234 0.22239 0.0
H2771 H 0.89885 0.91325 0.21946 0.0
H2772 H 0.91186 0.89042 0.20915 0.0
H2773 H 0.95634 0.91068 0.21981 0.0
H2774 H 0.94336 0.93338 0.23086 0.0
H2775 H 0.95601 0.88006 0.22638 0.0
H2776 H 0.94265 0.91196 0.18325 0.0
H2777 H 0.92558 0.92791 0.16678 0.0
H2778 H 0.89648 0.88841 0.15824 0.0
H2779 H 0.91325 0.87228 0.17486 0.0
C2780 C 0.98355 0.82878 0.17672 0.0
C2781 C 0.97324 0.81734 0.17135 0.0
C2782 C 0.97792 0.8421 0.18403 0.0
C2783 C 0.9619 0.84418 0.18603 0.0
C2784 C 0.95162 0.83276 0.18073 0.0
C2785 C 0.95723 0.81944 0.17351 0.0
C2786 C 0.95571 0.85847 0.1932 0.0
C2787 C 0.94557 0.86766 0.18444 0.0
C2788 C 0.95977 0.86311 0.20841 0.0
C2789 C 0.97018 0.85368 0.21833 0.0
C2790 C 0.96668 0.83809 0.22158 0.0
C2791 C 0.97661 0.82927 0.23086 0.0
C2792 C 0.99003 0.83594 0.23705 0.0
C2793 C 0.99351 0.85146 0.234 0.0
C2794 C 0.98362 0.86034 0.22472 0.0
C2795 C 0.91139 0.91277 0.21992 0.0
C2796 C 0.92006 0.92519 0.22595 0.0
C2797 C 0.91881 0.89977 0.21384 0.0
C2798 C 0.93506 0.89899 0.21346 0.0
C2799 C 0.94378 0.91111 0.21991 0.0
C2800 C 0.93635 0.92412 0.22608 0.0
C2801 C 0.94283 0.88568 0.20591 0.0
C2802 C 0.95332 0.87673 0.21455 0.0
C2803 C 0.93922 0.8813 0.19051 0.0
C2804 C 0.92915 0.89094 0.18041 0.0
C2805 C 0.93255 0.9067 0.17795 0.0
C2806 C 0.92293 0.91577 0.16857 0.0
C2807 C 0.90993 0.90918 0.16149 0.0
C2808 C 0.90654 0.8935 0.16374 0.0
C2809 C 0.91611 0.88438 0.17313 0.0
H2810 H 0.9025 0.91622 0.15424 0.0
H2811 H 0.9977 0.82908 0.24423 0.0
H2812 H 0.1646 0.65129 0.52388 0.0
H2813 H 0.14115 0.6644 0.53266 0.0
H2814 H 0.16108 0.70862 0.52032 0.0
H2815 H 0.1848 0.69548 0.5117 0.0
H2816 H 0.14796 0.71037 0.54778 0.0
H2817 H 0.13177 0.69229 0.49841 0.0
H2818 H 0.12811 0.6736 0.47709 0.0
H2819 H 0.0993 0.64545 0.50635 0.0
H2820 H 0.10297 0.66385 0.52793 0.0
H2821 H 0.07344 0.74506 0.56327 0.0
H2822 H 0.09666 0.73674 0.54919 0.0
H2823 H 0.08879 0.68962 0.5639 0.0
H2824 H 0.06599 0.69782 0.57843 0.0
H2825 H 0.09551 0.69273 0.53194 0.0
H2826 H 0.11492 0.70997 0.58199 0.0
H2827 H 0.11863 0.72917 0.60286 0.0
H2828 H 0.14124 0.75993 0.5709 0.0
H2829 H 0.13746 0.74099 0.54978 0.0
C2830 C 0.16391 0.66379 0.52284 0.0
C2831 C 0.17646 0.67237 0.517 0.0
C2832 C 0.15049 0.67127 0.52784 0.0
C2833 C 0.14924 0.68747 0.52688 0.0
C2834 C 0.16178 0.6961 0.52109 0.0
C2835 C 0.1753 0.68861 0.5162 0.0
C2836 C 0.13503 0.69531 0.53256 0.0
C2837 C 0.1365 0.70675 0.54405 0.0
C2838 C 0.12006 0.69051 0.5278 0.0
C2839 C 0.11773 0.67942 0.51483 0.0
C2840 C 0.12474 0.68206 0.50034 0.0
C2841 C 0.12265 0.67152 0.4882 0.0
C2842 C 0.1135 0.65833 0.49037 0.0
C2843 C 0.10639 0.65567 0.50469 0.0
C2844 C 0.10845 0.66616 0.51687 0.0
C2845 C 0.07673 0.73295 0.56364 0.0
C2846 C 0.06781 0.72211 0.57198 0.0
C2847 C 0.08993 0.72822 0.5555 0.0
C2848 C 0.09438 0.71258 0.55552 0.0
C2849 C 0.08544 0.70173 0.56366 0.0
C2850 C 0.07236 0.70644 0.57189 0.0
C2851 C 0.10852 0.70741 0.54736 0.0
C2852 C 0.107 0.69651 0.53541 0.0
C2853 C 0.12342 0.71281 0.55157 0.0
C2854 C 0.12573 0.72416 0.56427 0.0
C2855 C 0.12055 0.72089 0.57938 0.0
C2856 C 0.12269 0.73171 0.59127 0.0
C2857 C 0.13012 0.74578 0.5882 0.0
C2858 C 0.13546 0.74904 0.57325 0.0
C2859 C 0.13333 0.73827 0.56133 0.0
H2860 H 0.13177 0.75414 0.59742 0.0
H2861 H 0.1119 0.65018 0.48096 0.0
H2862 H 0.97317 0.66081 0.64619 0.0
H2863 H 0.96333 0.63749 0.65883 0.0
H2864 H 0.96168 0.66169 0.70257 0.0
H2865 H 0.97201 0.68503 0.69007 0.0
H2866 H 0.97297 0.63199 0.70563 0.0
H2867 H 0.92915 0.65707 0.68233 0.0
H2868 H 0.9144 0.66934 0.66114 0.0
H2869 H 0.91652 0.62713 0.63484 0.0
H2870 H 0.9315 0.61467 0.65579 0.0
H2871 H 0.92122 0.57892 0.74302 0.0
H2872 H 0.93432 0.60167 0.73227 0.0
H2873 H 0.93504 0.58002 0.68718 0.0
H2874 H 0.92196 0.55726 0.69784 0.0
H2875 H 0.92424 0.60892 0.6855 0.0
H2876 H 0.96807 0.58376 0.70885 0.0
H2877 H 0.98286 0.57153 0.73004 0.0
H2878 H 0.98064 0.61374 0.75634 0.0
H2879 H 0.96564 0.62617 0.73538 0.0
C2880 C 0.97095 0.66113 0.65855 0.0
C2881 C 0.97333 0.67479 0.66713 0.0
C2882 C 0.9652 0.64783 0.66572 0.0
C2883 C 0.9616 0.64794 0.68158 0.0
C2884 C 0.96434 0.6614 0.6903 0.0
C2885 C 0.9701 0.67474 0.68312 0.0
C2886 C 0.95454 0.63412 0.68891 0.0
C2887 C 0.96221 0.62704 0.70139 0.0
C2888 C 0.94066 0.62754 0.68315 0.0
C2889 C 0.93157 0.63498 0.67057 0.0
C2890 C 0.92658 0.65044 0.67198 0.0
C2891 C 0.91816 0.65743 0.66002 0.0
C2892 C 0.91456 0.64903 0.64664 0.0
C2893 C 0.91934 0.63362 0.6452 0.0
C2894 C 0.92778 0.62659 0.65712 0.0
C2895 C 0.92441 0.57891 0.73088 0.0
C2896 C 0.92052 0.56634 0.72125 0.0
C2897 C 0.93188 0.59192 0.72475 0.0
C2898 C 0.93572 0.5925 0.70894 0.0
C2899 C 0.93213 0.57983 0.6994 0.0
C2900 C 0.92462 0.56686 0.70549 0.0
C2901 C 0.94274 0.60662 0.70213 0.0
C2902 C 0.93502 0.61383 0.68976 0.0
C2903 C 0.95655 0.61328 0.70801 0.0
C2904 C 0.9656 0.60584 0.72061 0.0
C2905 C 0.97062 0.59039 0.71921 0.0
C2906 C 0.97907 0.58343 0.73117 0.0
C2907 C 0.98265 0.59184 0.74455 0.0
C2908 C 0.97784 0.60724 0.74598 0.0
C2909 C 0.96938 0.61425 0.73406 0.0
H2910 H 0.98919 0.58643 0.75379 0.0
H2911 H 0.90804 0.65446 0.63739 0.0
H2912 H 0.18962 0.19007 0.46055 0.0
H2913 H 0.16612 0.20202 0.45042 0.0
H2914 H 0.13826 0.16989 0.47679 0.0
H2915 H 0.16162 0.15705 0.48592 0.0
H2916 H 0.12685 0.17187 0.44979 0.0
H2917 H 0.14306 0.20968 0.48687 0.0
H2918 H 0.16102 0.2278 0.49979 0.0
H2919 H 0.16549 0.25386 0.45761 0.0
H2920 H 0.14771 0.23577 0.44437 0.0
H2921 H 0.05601 0.21293 0.43867 0.0
H2922 H 0.07918 0.20296 0.45161 0.0
H2923 H 0.10806 0.22518 0.4174 0.0
H2924 H 0.08503 0.23466 0.40398 0.0
H2925 H 0.11819 0.22874 0.44936 0.0
H2926 H 0.10216 0.1893 0.41264 0.0
H2927 H 0.08331 0.17128 0.4009 0.0
H2928 H 0.07747 0.14843 0.44475 0.0
H2929 H 0.09613 0.16648 0.4568 0.0
C2930 C 0.17851 0.18542 0.46409 0.0
C2931 C 0.1776 0.17255 0.47409 0.0
C2932 C 0.16505 0.19245 0.45848 0.0
C2933 C 0.15038 0.18704 0.46303 0.0
C2934 C 0.14943 0.17434 0.47315 0.0
C2935 C 0.16286 0.16711 0.47853 0.0
C2936 C 0.13601 0.19411 0.4567 0.0
C2937 C 0.12488 0.1843 0.44997 0.0
C2938 C 0.13349 0.21035 0.45666 0.0
C2939 C 0.14416 0.22128 0.46459 0.0
C2940 C 0.14796 0.21921 0.48032 0.0
C2941 C 0.15809 0.22949 0.4877 0.0
C2942 C 0.16442 0.24195 0.47951 0.0
C2943 C 0.16059 0.24419 0.46393 0.0
C2944 C 0.15047 0.23394 0.45648 0.0
C2945 C 0.06727 0.21563 0.43381 0.0
C2946 C 0.0686 0.22454 0.42021 0.0
C2947 C 0.08048 0.21002 0.4413 0.0
C2948 C 0.09526 0.21333 0.4354 0.0
C2949 C 0.09671 0.22261 0.42216 0.0
C2950 C 0.08351 0.22807 0.41455 0.0
C2951 C 0.10921 0.20647 0.44259 0.0
C2952 C 0.12021 0.21633 0.44938 0.0
C2953 C 0.11153 0.19027 0.44292 0.0
C2954 C 0.10041 0.17934 0.43565 0.0
C2955 C 0.09676 0.18052 0.41981 0.0
C2956 C 0.08612 0.17028 0.41309 0.0
C2957 C 0.07916 0.15875 0.42208 0.0
C2958 C 0.08285 0.15739 0.4378 0.0
C2959 C 0.09346 0.16761 0.44458 0.0
H2960 H 0.07093 0.15083 0.41687 0.0
H2961 H 0.17226 0.2499 0.48525 0.0
H2962 H 0.55973 0.42977 0.23569 0.0
H2963 H 0.54701 0.40626 0.22609 0.0
H2964 H 0.58638 0.39706 0.19657 0.0
H2965 H 0.59888 0.42076 0.20581 0.0
H2966 H 0.56114 0.39218 0.18113 0.0
H2967 H 0.57956 0.37724 0.23161 0.0
H2968 H 0.58241 0.37928 0.25999 0.0
H2969 H 0.53317 0.37427 0.26554 0.0
H2970 H 0.53002 0.3724 0.23716 0.0
H2971 H 0.55045 0.31276 0.16508 0.0
H2972 H 0.56057 0.33654 0.17678 0.0
H2973 H 0.51538 0.34666 0.19564 0.0
H2974 H 0.50512 0.32282 0.18389 0.0
H2975 H 0.54155 0.35141 0.21671 0.0
H2976 H 0.52395 0.36513 0.16559 0.0
H2977 H 0.52209 0.36214 0.13722 0.0
H2978 H 0.57129 0.36856 0.13307 0.0
H2979 H 0.57348 0.37135 0.16146 0.0
C2980 C 0.56565 0.42268 0.22718 0.0
C2981 C 0.58027 0.42705 0.22147 0.0
C2982 C 0.55841 0.40924 0.22174 0.0
C2983 C 0.56583 0.39977 0.21075 0.0
C2984 C 0.58042 0.40419 0.20502 0.0
C2985 C 0.58754 0.41772 0.21028 0.0
C2986 C 0.55839 0.38535 0.20502 0.0
C2987 C 0.55703 0.38322 0.18894 0.0
C2988 C 0.55266 0.37378 0.21519 0.0
C2989 C 0.55454 0.37485 0.23226 0.0
C2990 C 0.56933 0.37669 0.23888 0.0
C2991 C 0.571 0.3778 0.25496 0.0
C2992 C 0.55797 0.37695 0.26456 0.0
C2993 C 0.54325 0.37495 0.25809 0.0
C2994 C 0.54152 0.37386 0.24201 0.0
C2995 C 0.54273 0.31993 0.17192 0.0
C2996 C 0.52701 0.31599 0.17359 0.0
C2997 C 0.54849 0.33353 0.17851 0.0
C2998 C 0.53867 0.34335 0.18696 0.0
C2999 C 0.5231 0.33919 0.18913 0.0
C3000 C 0.51726 0.32566 0.18237 0.0
C3001 C 0.54461 0.35826 0.19292 0.0
C3002 C 0.54564 0.36046 0.20899 0.0
C3003 C 0.55019 0.36984 0.18276 0.0
C3004 C 0.54889 0.3683 0.16567 0.0
C3005 C 0.53439 0.36577 0.15865 0.0
C3006 C 0.53327 0.36414 0.14256 0.0
C3007 C 0.54657 0.36512 0.13335 0.0
C3008 C 0.56101 0.36779 0.14022 0.0
C3009 C 0.56219 0.36941 0.15631 0.0
H3010 H 0.54568 0.36386 0.1209 0.0
H3011 H 0.55929 0.3778 0.27701 0.0
H3012 H 0.30937 0.81098 0.95855 0.0
H3013 H 0.33309 0.79876 0.94901 0.0
H3014 H 0.36032 0.82742 0.97968 0.0
H3015 H 0.33672 0.84012 0.98883 0.0
H3016 H 0.37225 0.82737 0.95136 0.0
H3017 H 0.35478 0.78877 0.98711 0.0
H3018 H 0.33617 0.77058 -0.00104 0.0
H3019 H 0.33251 0.74583 0.95592 0.0
H3020 H 0.35094 0.76401 0.94373 0.0
H3021 H 0.44304 0.78767 0.93842 0.0
H3022 H 0.41994 0.79758 0.95155 0.0
H3023 H 0.39084 0.7726 0.91944 0.0
H3024 H 0.41383 0.76287 0.90607 0.0
H3025 H 0.38045 0.77045 0.94976 0.0
H3026 H 0.39683 0.80999 0.91386 0.0
H3027 H 0.41548 0.82817 0.90205 0.0
H3028 H 0.42117 0.85117 0.94585 0.0
H3029 H 0.40272 0.83297 0.95797 0.0
C3030 C 0.32041 0.81471 0.96323 0.0
C3031 C 0.32116 0.82653 0.97445 0.0
C3032 C 0.33394 0.8076 0.9579 0.0
C3033 C 0.34846 0.81207 0.96377 0.0
C3034 C 0.34923 0.82376 0.97505 0.0
C3035 C 0.33572 0.8309 0.98036 0.0
C3036 C 0.36288 0.80506 0.95761 0.0
C3037 C 0.37416 0.81494 0.95127 0.0
C3038 C 0.3652 0.78882 0.95717 0.0
C3039 C 0.35414 0.77784 0.96447 0.0
C3040 C 0.34991 0.77952 0.98013 0.0
C3041 C 0.33941 0.7692 0.98692 0.0
C3042 C 0.33313 0.75708 0.97819 0.0
C3043 C 0.33737 0.75524 0.96266 0.0
C3044 C 0.34786 0.76553 0.95581 0.0
C3045 C 0.43173 0.78432 0.93412 0.0
C3046 C 0.43029 0.77456 0.92114 0.0
C3047 C 0.41856 0.78993 0.94168 0.0
C3048 C 0.40371 0.78591 0.93636 0.0
C3049 C 0.40221 0.77578 0.92374 0.0
C3050 C 0.41537 0.7702 0.91615 0.0
C3051 C 0.38973 0.79278 0.94355 0.0
C3052 C 0.37855 0.78288 0.95001 0.0
C3053 C 0.38749 0.80901 0.94414 0.0
C3054 C 0.39853 0.82001 0.93685 0.0
C3055 C 0.40216 0.81884 0.921 0.0
C3056 C 0.41268 0.82916 0.91425 0.0
C3057 C 0.41954 0.84079 0.9232 0.0
C3058 C 0.41587 0.84214 0.93893 0.0
C3059 C 0.40537 0.83183 0.94574 0.0
H3060 H 0.42768 0.84877 0.91795 0.0
H3061 H 0.32501 0.7491 0.98347 0.0
H3062 H 0.89257 0.41642 0.78419 0.0
H3063 H 0.90486 0.39275 0.79372 0.0
H3064 H 0.94969 0.41486 0.79108 0.0
H3065 H 0.93743 0.43852 0.78123 0.0
H3066 H 0.95146 0.3863 0.78035 0.0
H3067 H 0.93074 0.40985 0.82603 0.0
H3068 H 0.91072 0.42187 0.84252 0.0
H3069 H 0.88358 0.38018 0.84045 0.0
H3070 H 0.90334 0.36798 0.82375 0.0
H3071 H 0.99032 0.3317 0.82927 0.0
H3072 H 0.97897 0.35511 0.81807 0.0
H3073 H 0.93459 0.33225 0.81495 0.0
H3074 H 0.94592 0.30863 0.82575 0.0
H3075 H 0.93312 0.36133 0.82883 0.0
H3076 H 0.95472 0.33801 0.78294 0.0
H3077 H 0.97547 0.32641 0.76706 0.0
H3078 H 0.00201 0.3684 0.77058 0.0
H3079 H 0.9815 0.38018 0.78667 0.0
C3080 C 0.90504 0.41626 0.78575 0.0
C3081 C 0.91405 0.42932 0.78209 0.0
C3082 C 0.91204 0.40274 0.7912 0.0
C3083 C 0.92817 0.40211 0.79336 0.0
C3084 C 0.93723 0.41509 0.78952 0.0
C3085 C 0.93023 0.42858 0.78391 0.0
C3086 C 0.93555 0.38788 0.79956 0.0
C3087 C 0.9476 0.38097 0.79106 0.0
C3088 C 0.93034 0.38077 0.81341 0.0
C3089 C 0.91846 0.38805 0.82351 0.0
C3090 C 0.92045 0.40329 0.82899 0.0
C3091 C 0.90916 0.41013 0.83839 0.0
C3092 C 0.89587 0.40181 0.8425 0.0
C3093 C 0.89387 0.38662 0.83724 0.0
C3094 C 0.90512 0.37973 0.82782 0.0
C3095 C 0.97822 0.33153 0.82593 0.0
C3096 C 0.96903 0.31826 0.82842 0.0
C3097 C 0.97174 0.34494 0.8196 0.0
C3098 C 0.95597 0.34536 0.81565 0.0
C3099 C 0.94679 0.33215 0.81799 0.0
C3100 C 0.95327 0.31869 0.82423 0.0
C3101 C 0.94892 0.35975 0.80956 0.0
C3102 C 0.93696 0.3667 0.81811 0.0
C3103 C 0.95433 0.36696 0.79587 0.0
C3104 C 0.96664 0.35992 0.78614 0.0
C3105 C 0.96504 0.34472 0.78044 0.0
C3106 C 0.97675 0.33813 0.77138 0.0
C3107 C 0.99007 0.34665 0.76785 0.0
C3108 C 0.99169 0.3618 0.77334 0.0
C3109 C 0.98003 0.36845 0.78242 0.0
H3110 H -0.00088 0.34152 0.76083 0.0
H3111 H 0.88714 0.40713 0.84978 0.0
H3112 H 0.30883 0.19317 0.53035 0.0
H3113 H 0.33214 0.20516 0.54106 0.0
H3114 H 0.35887 0.16488 0.52819 0.0
H3115 H 0.33551 0.15247 0.51826 0.0
H3116 H 0.36539 0.17287 0.55659 0.0
H3117 H 0.3615 0.19993 0.50822 0.0
H3118 H 0.34875 0.21555 0.48795 0.0
H3119 H 0.34238 0.25284 0.52031 0.0
H3120 H 0.35491 0.23736 0.54085 0.0
H3121 H 0.43996 0.20443 0.56915 0.0
H3122 H 0.41698 0.19431 0.55602 0.0
H3123 H 0.3897 0.23195 0.57442 0.0
H3124 H 0.41257 0.24201 0.58787 0.0
H3125 H 0.38359 0.22576 0.5431 0.0
H3126 H 0.38739 0.19809 0.59143 0.0
H3127 H 0.40061 0.18237 0.61131 0.0
H3128 H 0.40763 0.1459 0.57815 0.0
H3129 H 0.39463 0.16151 0.558 0.0
C3130 C 0.31965 0.18682 0.52985 0.0
C3131 C 0.32027 0.17184 0.52344 0.0
C3132 C 0.33301 0.19378 0.53581 0.0
C3133 C 0.34729 0.18599 0.53527 0.0
C3134 C 0.34799 0.17113 0.52868 0.0
C3135 C 0.33462 0.16412 0.52285 0.0
C3136 C 0.36138 0.19295 0.54226 0.0
C3137 C 0.36949 0.18434 0.55344 0.0
C3138 C 0.36652 0.20808 0.53845 0.0
C3139 C 0.35901 0.21742 0.52611 0.0
C3140 C 0.35727 0.21142 0.51105 0.0
C3141 C 0.3501 0.22025 0.49951 0.0
C3142 C 0.34472 0.23516 0.50285 0.0
C3143 C 0.34654 0.24128 0.51774 0.0
C3144 C 0.35368 0.23249 0.52934 0.0
C3145 C 0.42906 0.21052 0.57048 0.0
C3146 C 0.42807 0.22395 0.57967 0.0
C3147 C 0.41597 0.20476 0.56291 0.0
C3148 C 0.40165 0.21231 0.56439 0.0
C3149 C 0.40068 0.22599 0.57313 0.0
C3150 C 0.41377 0.23173 0.58076 0.0
C3151 C 0.38757 0.2056 0.55726 0.0
C3152 C 0.37947 0.21427 0.54615 0.0
C3153 C 0.38246 0.19048 0.56104 0.0
C3154 C 0.39017 0.18103 0.57317 0.0
C3155 C 0.39186 0.18677 0.58835 0.0
C3156 C 0.39929 0.17787 0.59967 0.0
C3157 C 0.40499 0.16316 0.59598 0.0
C3158 C 0.40322 0.1573 0.58098 0.0
C3159 C 0.39582 0.16617 0.56961 0.0
H3160 H 0.41074 0.15628 0.60477 0.0
H3161 H 0.33918 0.24198 0.4939 0.0
H3162 H 0.50356 0.66886 0.32333 0.0
H3163 H 0.51219 0.64536 0.31001 0.0
H3164 H 0.55913 0.66268 0.30976 0.0
H3165 H 0.55052 0.68639 0.32269 0.0
H3166 H 0.55162 0.64881 0.28239 0.0
H3167 H 0.54756 0.63732 0.33708 0.0
H3168 H 0.53406 0.63561 0.36223 0.0
H3169 H 0.50065 0.60441 0.34246 0.0
H3170 H 0.51385 0.60611 0.31712 0.0
H3171 H 0.59806 0.58212 0.27657 0.0
H3172 H 0.58481 0.60572 0.28476 0.0
H3173 H 0.54086 0.58187 0.28291 0.0
H3174 H 0.55415 0.55799 0.27509 0.0
H3175 H 0.54402 0.59854 0.30934 0.0
H3176 H 0.55002 0.60786 0.2552 0.0
H3177 H 0.56395 0.60943 0.2303 0.0
H3178 H 0.59392 0.64455 0.24896 0.0
H3179 H 0.58031 0.64303 0.27407 0.0
C3180 C 0.51567 0.66778 0.32019 0.0
C3181 C 0.52639 0.67942 0.32415 0.0
C3182 C 0.5206 0.6543 0.31269 0.0
C3183 C 0.53633 0.65221 0.30908 0.0
C3184 C 0.54695 0.66405 0.3125 0.0
C3185 C 0.54203 0.67752 0.32 0.0
C3186 C 0.54191 0.63744 0.30238 0.0
C3187 C 0.55005 0.63782 0.28831 0.0
C3188 C 0.53948 0.62307 0.30993 0.0
C3189 C 0.53158 0.62198 0.32517 0.0
C3190 C 0.53727 0.63019 0.33807 0.0
C3191 C 0.52968 0.62921 0.35236 0.0
C3192 C 0.51648 0.61994 0.35393 0.0
C3193 C 0.51086 0.6116 0.34122 0.0
C3194 C 0.51839 0.61257 0.32689 0.0
C3195 C 0.58558 0.58186 0.278 0.0
C3196 C 0.57715 0.56818 0.27525 0.0
C3197 C 0.57801 0.5954 0.2825 0.0
C3198 C 0.56183 0.59559 0.28424 0.0
C3199 C 0.55335 0.58197 0.28153 0.0
C3200 C 0.56093 0.56839 0.27699 0.0
C3201 C 0.55396 0.60993 0.28946 0.0
C3202 C 0.5454 0.60947 0.30328 0.0
C3203 C 0.55603 0.62423 0.28168 0.0
C3204 C 0.5642 0.62525 0.26656 0.0
C3205 C 0.55965 0.61584 0.25404 0.0
C3206 C 0.56748 0.61673 0.23987 0.0
C3207 C 0.57983 0.62706 0.23806 0.0
C3208 C 0.58435 0.63655 0.25039 0.0
C3209 C 0.57657 0.63569 0.26458 0.0
H3210 H 0.58588 0.62773 0.22708 0.0
H3211 H 0.51062 0.61919 0.365 0.0
H3212 H 0.05977 0.77712 0.05708 0.0
H3213 H 0.0833 0.78738 0.04523 0.0
H3214 H 0.10933 0.77532 0.08623 0.0
H3215 H 0.0857 0.76612 0.0986 0.0
H3216 H 0.11703 0.80269 0.07776 0.0
H3217 H 0.11158 0.75431 0.05098 0.0
H3218 H 0.09825 0.73432 0.03548 0.0
H3219 H 0.09293 0.7666 0.99795 0.0
H3220 H 0.10605 0.78685 0.01332 0.0
H3221 H 0.19199 0.81251 0.04546 0.0
H3222 H 0.16877 0.79992 0.05575 0.0
H3223 H 0.14138 0.82008 0.01911 0.0
H3224 H 0.1644 0.83311 0.00897 0.0
H3225 H 0.13473 0.78833 0.02494 0.0
H3226 H 0.14014 0.83665 0.05265 0.0
H3227 H 0.1542 0.85598 0.06835 0.0
H3228 H 0.16042 0.82241 0.10459 0.0
H3229 H 0.14658 0.80281 0.08899 0.0
C3230 C 0.07046 0.77675 0.06365 0.0
C3231 C 0.07077 0.77075 0.07882 0.0
C3232 C 0.08398 0.78242 0.05675 0.0
C3233 C 0.09816 0.78192 0.06474 0.0
C3234 C 0.09854 0.77578 0.0798 0.0
C3235 C 0.08501 0.77034 0.08679 0.0
C3236 C 0.11249 0.78839 0.05774 0.0
C3237 C 0.121 0.79933 0.06631 0.0
C3238 C 0.11753 0.78431 0.04265 0.0
C3239 C 0.10967 0.77214 0.03336 0.0
C3240 C 0.10747 0.75718 0.03947 0.0
C3241 C 0.09996 0.74579 0.0307 0.0
C3242 C 0.09471 0.7492 0.01575 0.0
C3243 C 0.09698 0.76398 0.00953 0.0
C3244 C 0.10447 0.77541 0.01826 0.0
C3245 C 0.18102 0.81435 0.03962 0.0
C3246 C 0.18006 0.82392 0.02644 0.0
C3247 C 0.1678 0.80707 0.04547 0.0
C3248 C 0.15339 0.80917 0.03822 0.0
C3249 C 0.15244 0.81828 0.0248 0.0
C3250 C 0.16563 0.82566 0.01901 0.0
C3251 C 0.13919 0.80242 0.04505 0.0
C3252 C 0.13073 0.79154 0.03643 0.0
C3253 C 0.13425 0.80641 0.06015 0.0
C3254 C 0.14246 0.81822 0.06959 0.0
C3255 C 0.14461 0.83336 0.06392 0.0
C3256 C 0.15252 0.84437 0.0728 0.0
C3257 C 0.15824 0.84041 0.08744 0.0
C3258 C 0.15601 0.82545 0.09324 0.0
C3259 C 0.14812 0.81439 0.08438 0.0
H3260 H 0.16436 0.84895 0.09431 0.0
H3261 H 0.0889 0.74037 0.00898 0.0
H3262 H 0.71748 0.89681 0.58091 0.0
H3263 H 0.70762 0.90836 0.60477 0.0
H3264 H 0.71041 0.95382 0.58411 0.0
H3265 H 0.72023 0.9423 0.56004 0.0
H3266 H 0.72104 0.95352 0.61421 0.0
H3267 H 0.67607 0.93645 0.58656 0.0
H3268 H 0.65977 0.9179 0.57215 0.0
H3269 H 0.65847 0.88783 0.6118 0.0
H3270 H 0.67497 0.9061 0.62639 0.0
H3271 H 0.67174 0.98977 0.67031 0.0
H3272 H 0.68387 0.98021 0.64655 0.0
H3273 H 0.68161 0.93344 0.66411 0.0
H3274 H 0.66962 0.94291 0.68798 0.0
H3275 H 0.67046 0.93549 0.6349 0.0
H3276 H 0.71583 0.95257 0.66242 0.0
H3277 H 0.73214 0.97121 0.67671 0.0
H3278 H 0.73247 0.00156 0.63724 0.0
H3279 H 0.71597 0.98318 0.62279 0.0
C3280 C 0.71589 0.90926 0.58138 0.0
C3281 C 0.71944 0.91863 0.56852 0.0
C3282 C 0.71031 0.91584 0.59504 0.0
C3283 C 0.70808 0.93191 0.59611 0.0
C3284 C 0.71203 0.94138 0.58348 0.0
C3285 C 0.71765 0.93479 0.56977 0.0
C3286 C 0.70132 0.93869 0.61035 0.0
C3287 C 0.70988 0.94977 0.61864 0.0
C3288 C 0.68688 0.93356 0.61622 0.0
C3289 C 0.67688 0.92258 0.60752 0.0
C3290 C 0.67241 0.92582 0.59217 0.0
C3291 C 0.66312 0.91537 0.58397 0.0
C3292 C 0.65812 0.90168 0.59104 0.0
C3293 C 0.66237 0.89843 0.60634 0.0
C3294 C 0.67168 0.90884 0.61458 0.0
C3295 C 0.67407 0.97748 0.66923 0.0
C3296 C 0.66969 0.96709 0.68102 0.0
C3297 C 0.68097 0.97204 0.65563 0.0
C3298 C 0.6837 0.95613 0.65361 0.0
C3299 C 0.67955 0.94576 0.66543 0.0
C3300 C 0.67265 0.95118 0.67903 0.0
C3301 C 0.69027 0.95018 0.63891 0.0
C3302 C 0.68162 0.93928 0.63049 0.0
C3303 C 0.70459 0.95552 0.63292 0.0
C3304 C 0.71453 0.96657 0.64158 0.0
C3305 C 0.71927 0.96328 0.65684 0.0
C3306 C 0.72857 0.97378 0.66495 0.0
C3307 C 0.73331 0.98758 0.6579 0.0
C3308 C 0.72878 0.99088 0.6427 0.0
C3309 C 0.71946 0.98041 0.63453 0.0
H3310 H 0.74051 0.9957 0.66421 0.0
H3311 H 0.65092 0.8936 0.58468 0.0
H3312 H 0.82091 0.94685 0.30803 0.0
H3313 H 0.80696 0.9382 0.33122 0.0
H3314 H 0.80717 0.98498 0.3489 0.0
H3315 H 0.8211 0.99371 0.3257 0.0
H3316 H 0.818 0.96246 0.37004 0.0
H3317 H 0.77437 0.97126 0.33674 0.0
H3318 H 0.75904 0.96875 0.31273 0.0
H3319 H 0.7567 0.91942 0.31905 0.0
H3320 H 0.77222 0.92161 0.34298 0.0
H3321 H 0.7726 0.94388 0.43581 0.0
H3322 H 0.78152 0.95638 0.41193 0.0
H3323 H 0.77655 0.91306 0.38737 0.0
H3324 H 0.76734 0.90063 0.4111 0.0
H3325 H 0.76694 0.93592 0.36973 0.0
H3326 H 0.81209 0.92604 0.40083 0.0
H3327 H 0.82843 0.92726 0.42427 0.0
H3328 H 0.82919 0.97696 0.42147 0.0
H3329 H 0.81267 0.97604 0.39812 0.0
C3330 C 0.81789 0.95529 0.31683 0.0
C3331 C 0.82207 0.97094 0.31512 0.0
C3332 C 0.80986 0.95036 0.33 0.0
C3333 C 0.80599 0.96099 0.34169 0.0
C3334 C 0.81002 0.97665 0.33995 0.0
C3335 C 0.81789 0.98161 0.32669 0.0
C3336 C 0.79848 0.95554 0.3561 0.0
C3337 C 0.8067 0.95692 0.37005 0.0
C3338 C 0.78396 0.94794 0.35596 0.0
C3339 C 0.77457 0.94659 0.34159 0.0
C3340 C 0.7707 0.95986 0.33294 0.0
C3341 C 0.76196 0.9585 0.31936 0.0
C3342 C 0.75693 0.94393 0.31435 0.0
C3343 C 0.76061 0.9307 0.32294 0.0
C3344 C 0.76937 0.93199 0.33652 0.0
C3345 C 0.77338 0.93707 0.42529 0.0
C3346 C 0.76935 0.92128 0.4253 0.0
C3347 C 0.77848 0.9442 0.41167 0.0
C3348 C 0.77993 0.9356 0.39791 0.0
C3349 C 0.77551 0.91993 0.39783 0.0
C3350 C 0.77025 0.91285 0.41139 0.0
C3351 C 0.78652 0.94271 0.38371 0.0
C3352 C 0.77816 0.94161 0.36978 0.0
C3353 C 0.80105 0.95039 0.38382 0.0
C3354 C 0.811 0.95097 0.39784 0.0
C3355 C 0.81564 0.93723 0.40529 0.0
C3356 C 0.82495 0.93787 0.41854 0.0
C3357 C 0.8298 0.95218 0.42438 0.0
C3358 C 0.82539 0.96589 0.41695 0.0
C3359 C 0.81606 0.96531 0.4037 0.0
H3360 H 0.83701 0.95266 0.43465 0.0
H3361 H 0.75016 0.9429 0.30383 0.0
H3362 H 0.76428 0.09409 0.0856 0.0
H3363 H 0.77479 0.08176 0.10875 0.0
H3364 H 0.79812 0.04789 0.08029 0.0
H3365 H 0.787 0.0597 0.05704 0.0
H3366 H 0.78604 0.03452 0.1055 0.0
H3367 H 0.8176 0.07916 0.09508 0.0
H3368 H 0.82273 0.10681 0.08991 0.0
H3369 H 0.80277 0.11901 0.13385 0.0
H3370 H 0.79732 0.09144 0.1392 0.0
H3371 H 0.8414 0.01005 0.16171 0.0
H3372 H 0.82843 0.02032 0.1387 0.0
H3373 H 0.80414 0.05354 0.16713 0.0
H3374 H 0.81703 0.0433 0.19021 0.0
H3375 H 0.81655 0.06699 0.14192 0.0
H3376 H 0.78555 0.02188 0.15243 0.0
H3377 H 0.78088 0.99412 0.15741 0.0
H3378 H 0.80044 0.98261 0.1131 0.0
H3379 H 0.80543 0.0103 0.10794 0.0
C3380 C 0.7714 0.08384 0.08423 0.0
C3381 C 0.77484 0.07793 0.06942 0.0
C3382 C 0.77755 0.07691 0.09749 0.0
C3383 C 0.78746 0.06408 0.09622 0.0
C3384 C 0.79057 0.05785 0.08152 0.0
C3385 C 0.78433 0.06471 0.06824 0.0
C3386 C 0.79488 0.0574 0.11021 0.0
C3387 C 0.79287 0.04157 0.11337 0.0
C3388 C 0.80356 0.06667 0.12062 0.0
C3389 C 0.80692 0.08325 0.11747 0.0
C3390 C 0.81421 0.08775 0.10359 0.0
C3391 C 0.81719 0.10341 0.10064 0.0
C3392 C 0.81305 0.11466 0.11152 0.0
C3393 C 0.80595 0.11028 0.12542 0.0
C3394 C 0.80293 0.09464 0.12843 0.0
C3395 C 0.83314 0.01941 0.16309 0.0
C3396 C 0.83022 0.02586 0.17778 0.0
C3397 C 0.82575 0.02527 0.14993 0.0
C3398 C 0.81521 0.0376 0.15123 0.0
C3399 C 0.81225 0.04404 0.16588 0.0
C3400 C 0.81966 0.03821 0.17903 0.0
C3401 C 0.80764 0.04412 0.13726 0.0
C3402 C 0.80968 0.05994 0.13408 0.0
C3403 C 0.79906 0.03481 0.12682 0.0
C3404 C 0.796 0.01816 0.12986 0.0
C3405 C 0.78897 0.01342 0.1438 0.0
C3406 C 0.78624 0.9977 0.14664 0.0
C3407 C 0.7904 0.98661 0.13559 0.0
C3408 C 0.79725 0.99122 0.12165 0.0
C3409 C 0.80001 0.00693 0.11876 0.0
H3410 H 0.78828 0.97444 0.13782 0.0
H3411 H 0.81536 0.12678 0.10921 0.0
H3412 H 0.67619 0.04631 0.81022 0.0
H3413 H 0.68938 0.05553 0.83361 0.0
H3414 H 0.68189 0.01116 0.85544 0.0
H3415 H 0.6686 0.00188 0.83207 0.0
H3416 H 0.67331 0.03629 0.87391 0.0
H3417 H 0.71708 0.01977 0.8441 0.0
H3418 H 0.73377 0.01821 0.82095 0.0
H3419 H 0.74162 0.06733 0.82296 0.0
H3420 H 0.72477 0.06923 0.846 0.0
H3421 H 0.71918 0.05478 0.93983 0.0
H3422 H 0.70938 0.04162 0.91668 0.0
H3423 H 0.71808 0.08274 0.88955 0.0
H3424 H 0.72781 0.09597 0.91261 0.0
H3425 H 0.72696 0.05712 0.87416 0.0
H3426 H 0.68191 0.07431 0.90209 0.0
H3427 H 0.66465 0.07673 0.92475 0.0
H3428 H 0.6586 0.02732 0.92575 0.0
H3429 H 0.67602 0.02459 0.90321 0.0
C3430 C 0.6774 0.03852 0.82 0.0
C3431 C 0.67139 0.0234 0.81937 0.0
C3432 C 0.68501 0.04376 0.83329 0.0
C3433 C 0.68668 0.03398 0.84618 0.0
C3434 C 0.68075 0.01884 0.84557 0.0
C3435 C 0.67326 0.01355 0.83221 0.0
C3436 C 0.69408 0.03983 0.86051 0.0
C3437 C 0.68514 0.04057 0.87407 0.0
C3438 C 0.70937 0.04576 0.86054 0.0
C3439 C 0.71955 0.04466 0.8467 0.0
C3440 C 0.72225 0.03027 0.83953 0.0
C3441 C 0.73176 0.02932 0.82644 0.0
C3442 C 0.73872 0.04267 0.82046 0.0
C3443 C 0.73621 0.057 0.82759 0.0
C3444 C 0.72669 0.05802 0.84068 0.0
C3445 C 0.71896 0.06102 0.92894 0.0
C3446 C 0.72422 0.07643 0.92806 0.0
C3447 C 0.7134 0.05348 0.91572 0.0
C3448 C 0.71287 0.06126 0.90143 0.0
C3449 C 0.71844 0.07651 0.90046 0.0
C3450 C 0.72403 0.08404 0.91364 0.0
C3451 C 0.70614 0.0537 0.88755 0.0
C3452 C 0.71519 0.05267 0.87406 0.0
C3453 C 0.69089 0.04762 0.88754 0.0
C3454 C 0.68041 0.04923 0.90108 0.0
C3455 C 0.67701 0.06395 0.90723 0.0
C3456 C 0.66718 0.06538 0.92003 0.0
C3457 C 0.66057 0.05219 0.92672 0.0
C3458 C 0.66375 0.03753 0.92058 0.0
C3459 C 0.6736 0.03604 0.90779 0.0
H3460 H 0.65296 0.05332 0.93663 0.0
H3461 H 0.74609 0.04191 0.81033 0.0
H3462 H 0.55873 0.70892 0.93245 0.0
H3463 H 0.58191 0.69896 0.94536 0.0
H3464 H 0.61042 0.72982 0.91821 0.0
H3465 H 0.58735 0.73947 0.90488 0.0
H3466 H 0.6219 0.70101 0.91826 0.0
H3467 H 0.60359 0.73688 0.95653 0.0
H3468 H 0.58446 0.74872 0.97416 0.0
H3469 H 0.57969 0.70552 0.99844 0.0
H3470 H 0.59864 0.69335 0.98081 0.0
H3471 H 0.6916 0.68784 0.95918 0.0
H3472 H 0.66868 0.70084 0.94874 0.0
H3473 H 0.63915 0.66962 0.97435 0.0
H3474 H 0.66202 0.65649 0.98478 0.0
H3475 H 0.62848 0.69941 0.9754 0.0
H3476 H 0.64577 0.66333 0.93662 0.0
H3477 H 0.66474 0.65124 0.91897 0.0
H3478 H 0.67114 0.69474 0.89562 0.0
H3479 H 0.65236 0.70715 0.91328 0.0
C3480 C 0.56994 0.71355 0.9292 0.0
C3481 C 0.57121 0.72497 0.91763 0.0
C3482 C 0.58316 0.70797 0.9367 0.0
C3483 C 0.59787 0.71377 0.93285 0.0
C3484 C 0.59917 0.72524 0.9214 0.0
C3485 C 0.58596 0.73083 0.91388 0.0
C3486 C 0.61198 0.70737 0.94029 0.0
C3487 C 0.62345 0.70091 0.93075 0.0
C3488 C 0.6138 0.70687 0.95659 0.0
C3489 C 0.60243 0.71417 0.96725 0.0
C3490 C 0.59837 0.72987 0.96555 0.0
C3491 C 0.58758 0.73665 0.97556 0.0
C3492 C 0.58084 0.72787 0.98739 0.0
C3493 C 0.58491 0.7123 0.98926 0.0
C3494 C 0.59569 0.70546 0.97927 0.0
C3495 C 0.68022 0.68373 0.96257 0.0
C3496 C 0.67862 0.67105 0.9727 0.0
C3497 C 0.66715 0.69119 0.95664 0.0
C3498 C 0.65223 0.68605 0.96062 0.0
C3499 C 0.65057 0.67376 0.97114 0.0
C3500 C 0.66365 0.6663 0.97711 0.0
C3501 C 0.63837 0.69312 0.95336 0.0
C3502 C 0.62694 0.69963 0.96292 0.0
C3503 C 0.63655 0.69365 0.93706 0.0
C3504 C 0.64778 0.6862 0.92637 0.0
C3505 C 0.65131 0.67034 0.9278 0.0
C3506 C 0.66202 0.66343 0.91778 0.0
C3507 C 0.66917 0.67223 0.90621 0.0
C3508 C 0.66561 0.68795 0.9046 0.0
C3509 C 0.65493 0.69492 0.91461 0.0
H3510 H 0.67746 0.66685 0.89847 0.0
H3511 H 0.57249 0.73314 0.99513 0.0
H3512 H 0.09789 0.07394 0.79134 0.0
H3513 H 0.08508 0.09677 0.80195 0.0
H3514 H 0.04158 0.08171 0.7824 0.0
H3515 H 0.05424 0.05848 0.77205 0.0
H3516 H 0.04832 0.11333 0.77715 0.0
H3517 H 0.04618 0.07754 0.81952 0.0
H3518 H 0.05672 0.05855 0.8381 0.0
H3519 H 0.08766 0.09308 0.85625 0.0
H3520 H 0.07747 0.11223 0.83761 0.0
H3521 H 0.00582 0.17122 0.81832 0.0
H3522 H 0.01475 0.14663 0.80745 0.0
H3523 H 0.05905 0.15274 0.82991 0.0
H3524 H 0.04995 0.17684 0.84149 0.0
H3525 H 0.04944 0.12421 0.83364 0.0
H3526 H 0.05349 0.15933 0.79038 0.0
H3527 H 0.04394 0.1785 0.77143 0.0
H3528 H 0.01045 0.14566 0.75469 0.0
H3529 H 0.01968 0.12635 0.77369 0.0
C3530 C 0.08555 0.07531 0.78948 0.0
C3531 C 0.07707 0.06427 0.78096 0.0
C3532 C 0.07827 0.08843 0.79548 0.0
C3533 C 0.06237 0.09082 0.79307 0.0
C3534 C 0.05388 0.08003 0.78437 0.0
C3535 C 0.06114 0.06681 0.77843 0.0
C3536 C 0.05476 0.10469 0.79966 0.0
C3537 C 0.04829 0.11562 0.78952 0.0
C3538 C 0.05505 0.10775 0.81577 0.0
C3539 C 0.06114 0.09629 0.82708 0.0
C3540 C 0.05531 0.08106 0.82739 0.0
C3541 C 0.06121 0.07027 0.83795 0.0
C3542 C 0.07288 0.0746 0.84833 0.0
C3543 C 0.07864 0.08974 0.8482 0.0
C3544 C 0.07279 0.10057 0.83765 0.0
C3545 C 0.01742 0.16727 0.82105 0.0
C3546 C 0.02718 0.17606 0.83075 0.0
C3547 C 0.02257 0.15329 0.81468 0.0
C3548 C 0.03764 0.14793 0.81772 0.0
C3549 C 0.04739 0.15667 0.82737 0.0
C3550 C 0.04222 0.17056 0.83384 0.0
C3551 C 0.04325 0.13309 0.81111 0.0
C3552 C 0.04933 0.12192 0.82127 0.0
C3553 C 0.0427 0.12988 0.79501 0.0
C3554 C 0.03716 0.14146 0.78357 0.0
C3555 C 0.044 0.15624 0.78274 0.0
C3556 C 0.03866 0.16712 0.77198 0.0
C3557 C 0.02656 0.16331 0.7619 0.0
C3558 C 0.0198 0.1486 0.76253 0.0
C3559 C 0.02509 0.13768 0.77328 0.0
H3560 H 0.02244 0.17175 0.75357 0.0
H3561 H 0.07743 0.06623 0.8565 0.0
H3562 H 0.91088 0.26495 0.39862 0.0
H3563 H 0.88722 0.27433 0.41085 0.0
H3564 H 0.91373 0.29049 0.45009 0.0
H3565 H 0.93744 0.28039 0.43827 0.0
H3566 H 0.88722 0.27778 0.45952 0.0
H3567 H 0.90207 0.31544 0.42152 0.0
H3568 H 0.90962 0.32486 0.39561 0.0
H3569 H 0.86618 0.3092 0.37697 0.0
H3570 H 0.85845 0.29948 0.40274 0.0
H3571 H 0.83292 0.33388 0.48709 0.0
H3572 H 0.85559 0.32045 0.47676 0.0
H3573 H 0.82742 0.30034 0.44067 0.0
H3574 H 0.80452 0.31334 0.45119 0.0
H3575 H 0.85437 0.31451 0.42981 0.0
H3576 H 0.83943 0.27788 0.46899 0.0
H3577 H 0.83233 0.26951 0.49539 0.0
H3578 H 0.87658 0.28474 0.5124 0.0
H3579 H 0.88387 0.29341 0.48613 0.0
C3580 C 0.91169 0.27022 0.40998 0.0
C3581 C 0.9261 0.27196 0.41743 0.0
C3582 C 0.89815 0.27575 0.41688 0.0
C3583 C 0.89875 0.28335 0.43125 0.0
C3584 C 0.91302 0.28473 0.43894 0.0
C3585 C 0.92658 0.27909 0.4321 0.0
C3586 C 0.88454 0.29024 0.43802 0.0
C3587 C 0.88013 0.28595 0.45309 0.0
C3588 C 0.87516 0.30071 0.42954 0.0
C3589 C 0.87975 0.30659 0.41403 0.0
C3590 C 0.89418 0.31389 0.41187 0.0
C3591 C 0.89848 0.31931 0.39722 0.0
C3592 C 0.88841 0.31759 0.38464 0.0
C3593 C 0.87398 0.3105 0.38671 0.0
C3594 C 0.86963 0.30505 0.40134 0.0
C3595 C 0.83144 0.32636 0.47715 0.0
C3596 C 0.81687 0.32469 0.46998 0.0
C3597 C 0.84443 0.31875 0.47123 0.0
C3598 C 0.84313 0.30936 0.45802 0.0
C3599 C 0.82863 0.30757 0.45088 0.0
C3600 C 0.81559 0.31508 0.45685 0.0
C3601 C 0.85705 0.30201 0.45124 0.0
C3602 C 0.86143 0.30628 0.43619 0.0
C3603 C 0.86647 0.29168 0.45981 0.0
C3604 C 0.86213 0.28643 0.47561 0.0
C3605 C 0.8476 0.27957 0.47839 0.0
C3606 C 0.84355 0.27475 0.49332 0.0
C3607 C 0.85398 0.27663 0.50557 0.0
C3608 C 0.8685 0.28331 0.5029 0.0
C3609 C 0.8726 0.28816 0.48799 0.0
H3610 H 0.85083 0.27289 0.51713 0.0
H3611 H 0.89176 0.3218 0.3733 0.0
H3612 H 0.58988 0.91204 0.76457 0.0
H3613 H 0.57548 0.88897 0.77232 0.0
H3614 H 0.53536 0.91715 0.7822 0.0
H3615 H 0.54972 0.94036 0.77436 0.0
H3616 H 0.5417 0.89801 0.80569 0.0
H3617 H 0.5356 0.8928 0.75104 0.0
H3618 H 0.54388 0.8919 0.72369 0.0
H3619 H 0.57254 0.85238 0.73339 0.0
H3620 H 0.56461 0.85317 0.76085 0.0
H3621 H 0.49713 0.83129 0.82379 0.0
H3622 H 0.50546 0.85475 0.81017 0.0
H3623 H 0.5491 0.83294 0.79914 0.0
H3624 H 0.54092 0.80952 0.81279 0.0
H3625 H 0.53783 0.84968 0.77471 0.0
H3626 H 0.54635 0.857 0.82963 0.0
H3627 H 0.5385 0.85793 0.85711 0.0
H3628 H 0.50549 0.89372 0.84672 0.0
H3629 H 0.513 0.89283 0.81912 0.0
C3630 C 0.5779 0.91331 0.76808 0.0
C3631 C 0.57094 0.92803 0.76884 0.0
C3632 C 0.56967 0.90011 0.77252 0.0
C3633 C 0.55429 0.90132 0.77768 0.0
C3634 C 0.54722 0.91596 0.77823 0.0
C3635 C 0.55545 0.9292 0.77382 0.0
C3636 C 0.54603 0.88742 0.78348 0.0
C3637 C 0.54054 0.88755 0.79879 0.0
C3638 C 0.54482 0.87368 0.77458 0.0
C3639 C 0.54959 0.87312 0.75804 0.0
C3640 C 0.54376 0.88398 0.74737 0.0
C3641 C 0.54838 0.88348 0.73184 0.0
C3642 C 0.55875 0.87211 0.72681 0.0
C3643 C 0.56451 0.86119 0.7373 0.0
C3644 C 0.55994 0.86165 0.75285 0.0
C3645 C 0.50849 0.83149 0.81843 0.0
C3646 C 0.51842 0.8186 0.81947 0.0
C3647 C 0.5132 0.84487 0.81062 0.0
C3648 C 0.52796 0.84562 0.8038 0.0
C3649 C 0.53764 0.83257 0.80428 0.0
C3650 C 0.53293 0.81919 0.81207 0.0
C3651 C 0.53372 0.86026 0.79694 0.0
C3652 C 0.53877 0.86024 0.78148 0.0
C3653 C 0.53456 0.87412 0.80569 0.0
C3654 C 0.5301 0.87472 0.82229 0.0
C3655 C 0.53733 0.86498 0.83319 0.0
C3656 C 0.53296 0.86551 0.84879 0.0
C3657 C 0.52147 0.87584 0.85365 0.0
C3658 C 0.51436 0.8857 0.84293 0.0
C3659 C 0.51867 0.88519 0.82731 0.0
H3660 H 0.5181 0.87624 0.86573 0.0
H3661 H 0.56231 0.87174 0.71479 0.0
H3662 H 0.95457 0.17236 0.34237 0.0
H3663 H 0.9462 0.14817 0.33037 0.0
H3664 H 0.98148 0.15317 0.29526 0.0
H3665 H 0.98973 0.17772 0.30706 0.0
H3666 H 0.95304 0.14445 0.28317 0.0
H3667 H 0.98717 0.12777 0.32345 0.0
H3668 H 0.99769 0.12679 0.35001 0.0
H3669 H 0.95417 0.10948 0.3669 0.0
H3670 H 0.9433 0.11057 0.34046 0.0
H3671 H 0.93777 0.06704 0.25695 0.0
H3672 H 0.95114 0.09033 0.26627 0.0
H3673 H 0.92126 0.09139 0.3064 0.0
H3674 H 0.90798 0.06816 0.29721 0.0
H3675 H 0.95058 0.09628 0.31453 0.0
H3676 H 0.91566 0.11562 0.27515 0.0
H3677 H 0.90457 0.11711 0.24883 0.0
H3678 H 0.94913 0.12968 0.23049 0.0
H3679 H 0.96053 0.12806 0.25669 0.0
C3680 C 0.96045 0.16842 0.332 0.0
C3681 C 0.97279 0.17696 0.32563 0.0
C3682 C 0.95576 0.15452 0.32525 0.0
C3683 C 0.96336 0.14881 0.31205 0.0
C3684 C 0.97553 0.15737 0.3055 0.0
C3685 C 0.98028 0.17131 0.31229 0.0
C3686 C 0.95839 0.1339 0.30516 0.0
C3687 C 0.95278 0.13382 0.2899 0.0
C3688 C 0.95785 0.12014 0.31406 0.0
C3689 C 0.96439 0.11935 0.32998 0.0
C3690 C 0.9798 0.12385 0.33284 0.0
C3691 C 0.98584 0.12327 0.34788 0.0
C3692 C 0.9766 0.1181 0.36014 0.0
C3693 C 0.96131 0.11348 0.35739 0.0
C3694 C 0.95521 0.11406 0.34238 0.0
C3695 C 0.93404 0.07231 0.26772 0.0
C3696 C 0.92186 0.06578 0.27638 0.0
C3697 C 0.94167 0.08559 0.27303 0.0
C3698 C 0.93712 0.09264 0.28698 0.0
C3699 C 0.92502 0.08608 0.29565 0.0
C3700 C 0.91746 0.07279 0.29041 0.0
C3701 C 0.94484 0.1069 0.29267 0.0
C3702 C 0.95103 0.10684 0.30771 0.0
C3703 C 0.94584 0.12053 0.28358 0.0
C3704 C 0.93898 0.12154 0.26784 0.0
C3705 C 0.92312 0.11858 0.26548 0.0
C3706 C 0.91677 0.11947 0.25059 0.0
C3707 C 0.92615 0.12344 0.23799 0.0
C3708 C 0.94188 0.12657 0.24026 0.0
C3709 C 0.94829 0.12568 0.25513 0.0
H3710 H 0.92121 0.12412 0.22647 0.0
H3711 H 0.98129 0.11766 0.37177 0.0
H3712 H 0.55888 0.06561 0.73573 0.0
H3713 H 0.54661 0.08925 0.72596 0.0
H3714 H 0.58329 0.09443 0.69233 0.0
H3715 H 0.59591 0.07123 0.70239 0.0
H3716 H 0.57741 0.12123 0.70638 0.0
H3717 H 0.54718 0.08084 0.68217 0.0
H3718 H 0.53074 0.05745 0.68171 0.0
H3719 H 0.49655 0.0806 0.70952 0.0
H3720 H 0.5129 0.10408 0.71032 0.0
H3721 H 0.54622 0.17382 0.65277 0.0
H3722 H 0.556 0.15044 0.66532 0.0
H3723 H 0.51799 0.15178 0.69781 0.0
H3724 H 0.50815 0.17535 0.68534 0.0
H3725 H 0.52335 0.12242 0.68668 0.0
H3726 H 0.553 0.16344 0.70936 0.0
H3727 H 0.56939 0.18687 0.70936 0.0
H3728 H 0.60475 0.16247 0.68421 0.0
H3729 H 0.58847 0.13895 0.68385 0.0
C3730 C 0.56437 0.07184 0.72631 0.0
C3731 C 0.57835 0.0665 0.7198 0.0
C3732 C 0.55727 0.08526 0.72065 0.0
C3733 C 0.56397 0.09351 0.70832 0.0
C3734 C 0.5779 0.08822 0.70183 0.0
C3735 C 0.58502 0.07486 0.7075 0.0
C3736 C 0.5567 0.10786 0.70229 0.0
C3737 C 0.56564 0.12145 0.70193 0.0
C3738 C 0.54119 0.10825 0.69694 0.0
C3739 C 0.53134 0.09415 0.69645 0.0
C3740 C 0.53622 0.0809 0.68829 0.0
C3741 C 0.5269 0.06764 0.68795 0.0
C3742 C 0.51263 0.06752 0.69562 0.0
C3743 C 0.50762 0.0807 0.70361 0.0
C3744 C 0.5169 0.09399 0.70401 0.0
C3745 C 0.54001 0.16924 0.66267 0.0
C3746 C 0.52651 0.17653 0.66818 0.0
C3747 C 0.54558 0.15585 0.6698 0.0
C3748 C 0.53784 0.14953 0.68263 0.0
C3749 C 0.52415 0.15652 0.68794 0.0
C3750 C 0.51854 0.16995 0.68079 0.0
C3751 C 0.54419 0.13566 0.69048 0.0
C3752 C 0.53508 0.12221 0.69124 0.0
C3753 C 0.55957 0.13537 0.69618 0.0
C3754 C 0.56946 0.14946 0.69648 0.0
C3755 C 0.56423 0.1631 0.70373 0.0
C3756 C 0.57351 0.17639 0.70381 0.0
C3757 C 0.58809 0.17617 0.69677 0.0
C3758 C 0.59344 0.16263 0.68966 0.0
C3759 C 0.5842 0.14931 0.68953 0.0
H3760 H 0.59526 0.18647 0.69684 0.0
H3761 H 0.50544 0.05724 0.69534 0.0
H3762 H 0.16279 0.34299 0.98557 0.0
H3763 H 0.13931 0.32976 0.97684 0.0
H3764 H 0.1671 0.29243 0.95845 0.0
H3765 H 0.19066 0.30575 0.967 0.0
H3766 H 0.14687 0.30154 0.93777 0.0
H3767 H 0.1443 0.2878 0.9913 0.0
H3768 H 0.14446 0.29217 0.01955 0.0
H3769 H 0.10406 0.32098 0.01559 0.0
H3770 H 0.10378 0.31696 0.98727 0.0
H3771 H 0.0822 0.25468 0.91878 0.0
H3772 H 0.10554 0.26343 0.93235 0.0
H3773 H 0.08182 0.30512 0.94648 0.0
H3774 H 0.05835 0.29636 0.93307 0.0
H3775 H 0.10024 0.29192 0.97009 0.0
H3776 H 0.10435 0.30692 0.9163 0.0
H3777 H 0.10425 0.30224 0.88809 0.0
H3778 H 0.14215 0.27034 0.89299 0.0
H3779 H 0.14233 0.27466 0.92128 0.0
C3780 C 0.16387 0.33183 0.97991 0.0
C3781 C 0.17854 0.32539 0.97695 0.0
C3782 C 0.15045 0.32427 0.97495 0.0
C3783 C 0.15143 0.31002 0.96713 0.0
C3784 C 0.16607 0.30342 0.96445 0.0
C3785 C 0.1795 0.31104 0.96931 0.0
C3786 C 0.13728 0.30255 0.96084 0.0
C3787 C 0.1368 0.29916 0.94493 0.0
C3788 C 0.124 0.29976 0.97009 0.0
C3789 C 0.1241 0.30218 0.98713 0.0
C3790 C 0.13552 0.29517 0.99643 0.0
C3791 C 0.13562 0.29756 0.01246 0.0
C3792 C 0.1243 0.30687 0.01936 0.0
C3793 C 0.11283 0.31378 0.01023 0.0
C3794 C 0.11268 0.31143 0.99419 0.0
C3795 C 0.08188 0.26559 0.925 0.0
C3796 C 0.0685 0.27489 0.92481 0.0
C3797 C 0.09523 0.2706 0.93266 0.0
C3798 C 0.0954 0.28497 0.94029 0.0
C3799 C 0.08189 0.294 0.94064 0.0
C3800 C 0.06856 0.28905 0.93288 0.0
C3801 C 0.10993 0.29099 0.94711 0.0
C3802 C 0.11042 0.29415 0.96305 0.0
C3803 C 0.12327 0.29352 0.93793 0.0
C3804 C 0.12324 0.29098 0.92092 0.0
C3805 C 0.11258 0.2988 0.91138 0.0
C3806 C 0.11252 0.29624 0.89537 0.0
C3807 C 0.12316 0.28597 0.88876 0.0
C3808 C 0.1339 0.27827 0.89813 0.0
C3809 C 0.13399 0.28078 0.91415 0.0
H3810 H 0.1231 0.284 0.87636 0.0
H3811 H 0.1244 0.30872 0.03177 0.0
H3812 H 0.43991 0.72258 0.44504 0.0
H3813 H 0.41613 0.71441 0.45826 0.0
H3814 H 0.39497 0.70435 0.41405 0.0
H3815 H 0.41845 0.71289 0.40078 0.0
H3816 H 0.37543 0.72001 0.43298 0.0
H3817 H 0.40959 0.67558 0.43659 0.0
H3818 H 0.43374 0.6621 0.44384 0.0
H3819 H 0.42622 0.67378 0.49166 0.0
H3820 H 0.40211 0.68752 0.48465 0.0
H3821 H 0.31435 0.66867 0.44893 0.0
H3822 H 0.33809 0.68138 0.4403 0.0
H3823 H 0.35248 0.68721 0.48786 0.0
H3824 H 0.32863 0.67448 0.49663 0.0
H3825 H 0.37571 0.67623 0.47029 0.0
H3826 H 0.34003 0.71821 0.46711 0.0
H3827 H 0.31579 0.73156 0.45994 0.0
H3828 H 0.32603 0.72484 0.41169 0.0
H3829 H 0.35023 0.71124 0.41856 0.0
C3830 C 0.43014 0.71872 0.43815 0.0
C3831 C 0.43108 0.71828 0.42188 0.0
C3832 C 0.41662 0.71397 0.44572 0.0
C3833 C 0.40385 0.70866 0.43713 0.0
C3834 C 0.40471 0.70838 0.42089 0.0
C3835 C 0.41819 0.71311 0.41334 0.0
C3836 C 0.38956 0.70326 0.44493 0.0
C3837 C 0.37545 0.71038 0.44106 0.0
C3838 C 0.3897 0.69103 0.45586 0.0
C3839 C 0.40416 0.68273 0.46007 0.0
C3840 C 0.41316 0.67538 0.44863 0.0
C3841 C 0.42682 0.66768 0.4527 0.0
C3842 C 0.43154 0.66713 0.46819 0.0
C3843 C 0.42257 0.67424 0.47966 0.0
C3844 C 0.4089 0.68198 0.47565 0.0
C3845 C 0.32244 0.67287 0.45758 0.0
C3846 C 0.31958 0.67065 0.47346 0.0
C3847 C 0.33601 0.68012 0.45263 0.0
C3848 C 0.34694 0.68543 0.46345 0.0
C3849 C 0.34416 0.68322 0.47933 0.0
C3850 C 0.33058 0.67592 0.4843 0.0
C3851 C 0.36151 0.69274 0.45804 0.0
C3852 C 0.37567 0.68601 0.46238 0.0
C3853 C 0.36142 0.70536 0.44756 0.0
C3854 C 0.3469 0.71361 0.44336 0.0
C3855 C 0.33706 0.71948 0.45497 0.0
C3856 C 0.32334 0.7271 0.45096 0.0
C3857 C 0.31936 0.72902 0.43537 0.0
C3858 C 0.32912 0.72334 0.42376 0.0
C3859 C 0.34286 0.71569 0.4277 0.0
H3860 H 0.30872 0.73493 0.43229 0.0
H3861 H 0.44212 0.66115 0.47132 0.0
H3862 H 0.79838 0.52751 0.80767 0.0
H3863 H 0.78464 0.53636 0.83088 0.0
H3864 H 0.82435 0.5246 0.85894 0.0
H3865 H 0.83812 0.51574 0.83585 0.0
H3866 H 0.79773 0.51678 0.87334 0.0
H3867 H 0.81838 0.56157 0.84677 0.0
H3868 H 0.82203 0.57899 0.82439 0.0
H3869 H 0.77301 0.58755 0.82276 0.0
H3870 H 0.76905 0.57 0.84502 0.0
H3871 H 0.79116 0.56614 0.93848 0.0
H3872 H 0.79861 0.55216 0.91504 0.0
H3873 H 0.75618 0.56656 0.89278 0.0
H3874 H 0.74856 0.58049 0.9163 0.0
H3875 H 0.78105 0.57182 0.8747 0.0
H3876 H 0.76103 0.52913 0.90365 0.0
H3877 H 0.75796 0.51206 0.92637 0.0
H3878 H 0.80616 0.49981 0.924 0.0
H3879 H 0.80958 0.51698 0.90139 0.0
C3880 C 0.80415 0.52678 0.8188 0.0
C3881 C 0.81937 0.52103 0.81993 0.0
C3882 C 0.79628 0.53179 0.83204 0.0
C3883 C 0.80356 0.53131 0.84659 0.0
C3884 C 0.81851 0.52504 0.84782 0.0
C3885 C 0.82636 0.51996 0.83462 0.0
C3886 C 0.79601 0.53809 0.86044 0.0
C3887 C 0.79415 0.52883 0.87369 0.0
C3888 C 0.79103 0.55372 0.86075 0.0
C3889 C 0.7934 0.56434 0.84743 0.0
C3890 C 0.80837 0.56708 0.84156 0.0
C3891 C 0.8105 0.57699 0.82891 0.0
C3892 C 0.79775 0.58434 0.82213 0.0
C3893 C 0.78286 0.58183 0.82801 0.0
C3894 C 0.78067 0.5719 0.84064 0.0
C3895 C 0.78327 0.5661 0.92871 0.0
C3896 C 0.76927 0.57443 0.92925 0.0
C3897 C 0.78755 0.55811 0.91531 0.0
C3898 C 0.77787 0.5582 0.90222 0.0
C3899 C 0.7638 0.56635 0.90277 0.0
C3900 C 0.75951 0.57435 0.91618 0.0
C3901 C 0.78294 0.55058 0.8877 0.0
C3902 C 0.78439 0.5597 0.87432 0.0
C3903 C 0.7876 0.53485 0.88732 0.0
C3904 C 0.78558 0.52444 0.90088 0.0
C3905 C 0.771 0.52289 0.90804 0.0
C3906 C 0.7692 0.51318 0.92089 0.0
C3907 C 0.78186 0.50488 0.92664 0.0
C3908 C 0.79636 0.50625 0.91953 0.0
C3909 C 0.79823 0.51596 0.90669 0.0
H3910 H 0.78044 0.49737 0.93659 0.0
H3911 H 0.79942 0.59201 0.81234 0.0
H3912 H 0.66243 0.50865 0.16417 0.0
H3913 H 0.67617 0.51823 0.1413 0.0
H3914 H 0.70183 0.5502 0.16998 0.0
H3915 H 0.68829 0.54056 0.19293 0.0
H3916 H 0.68868 0.56439 0.14527 0.0
H3917 H 0.71962 0.51909 0.15433 0.0
H3918 H 0.72436 0.49125 0.15876 0.0
H3919 H 0.70399 0.48048 0.11462 0.0
H3920 H 0.69892 0.50825 0.11001 0.0
H3921 H 0.73806 0.59273 0.08709 0.0
H3922 H 0.72926 0.57971 0.1106 0.0
H3923 H 0.70445 0.54621 0.08294 0.0
H3924 H 0.71381 0.55875 0.0593 0.0
H3925 H 0.71799 0.53249 0.10742 0.0
H3926 H 0.68571 0.57702 0.09882 0.0
H3927 H 0.6802 0.60467 0.09414 0.0
H3928 H 0.70209 0.61662 0.13724 0.0
H3929 H 0.70792 0.58903 0.14208 0.0
C3930 C 0.67122 0.5175 0.16566 0.0
C3931 C 0.67423 0.5239 0.18036 0.0
C3932 C 0.67904 0.52297 0.15257 0.0
C3933 C 0.69006 0.53488 0.15397 0.0
C3934 C 0.69334 0.54103 0.16866 0.0
C3935 C 0.68554 0.53556 0.18174 0.0
C3936 C 0.69743 0.54161 0.14001 0.0
C3937 C 0.69532 0.55747 0.13714 0.0
C3938 C 0.70568 0.53245 0.12918 0.0
C3939 C 0.70876 0.51575 0.13189 0.0
C3940 C 0.71603 0.51078 0.14562 0.0
C3941 C 0.7188 0.49501 0.14815 0.0
C3942 C 0.71445 0.4841 0.13699 0.0
C3943 C 0.70734 0.48894 0.12326 0.0
C3944 C 0.70454 0.5047 0.12067 0.0
C3945 C 0.73099 0.58242 0.08597 0.0
C3946 C 0.72655 0.57685 0.07129 0.0
C3947 C 0.72584 0.57507 0.09943 0.0
C3948 C 0.71598 0.56216 0.09851 0.0
C3949 C 0.71198 0.55622 0.08391 0.0
C3950 C 0.71721 0.5635 0.07042 0.0
C3951 C 0.70929 0.55528 0.11276 0.0
C3952 C 0.71145 0.53941 0.11564 0.0
C3953 C 0.70097 0.56439 0.12358 0.0
C3954 C 0.69739 0.58098 0.12074 0.0
C3955 C 0.68945 0.58555 0.10725 0.0
C3956 C 0.68625 0.60121 0.10457 0.0
C3957 C 0.69083 0.6124 0.11536 0.0
C3958 C 0.69857 0.60794 0.12888 0.0
C3959 C 0.70182 0.5923 0.1316 0.0
H3960 H 0.68834 0.62452 0.11327 0.0
H3961 H 0.7166 0.4719 0.13897 0.0
H3962 H 0.74232 0.41578 0.41518 0.0
H3963 H 0.73305 0.42915 0.39196 0.0
H3964 H 0.6977 0.45188 0.41917 0.0
H3965 H 0.70663 0.43806 0.44228 0.0
H3966 H 0.68527 0.44062 0.39466 0.0
H3967 H 0.73049 0.47139 0.40385 0.0
H3968 H 0.7582 0.47648 0.40873 0.0
H3969 H 0.77001 0.45536 0.36522 0.0
H3970 H 0.74237 0.44996 0.36017 0.0
H3971 H 0.66014 0.49099 0.33521 0.0
H3972 H 0.67312 0.48256 0.35899 0.0
H3973 H 0.70237 0.45201 0.33233 0.0
H3974 H 0.6895 0.46048 0.30844 0.0
H3975 H 0.71816 0.46852 0.35657 0.0
H3976 H 0.67266 0.43679 0.34856 0.0
H3977 H 0.6448 0.43239 0.34382 0.0
H3978 H 0.63358 0.45653 0.38589 0.0
H3979 H 0.66139 0.46128 0.39076 0.0
C3980 C 0.73273 0.42383 0.4162 0.0
C3981 C 0.72516 0.42591 0.43046 0.0
C3982 C 0.72747 0.43151 0.40296 0.0
C3983 C 0.71476 0.44167 0.40382 0.0
C3984 C 0.70749 0.44408 0.4182 0.0
C3985 C 0.71259 0.43621 0.43138 0.0
C3986 C 0.70833 0.44891 0.38959 0.0
C3987 C 0.69245 0.44697 0.38651 0.0
C3988 C 0.71773 0.45687 0.37872 0.0
C3989 C 0.73436 0.46015 0.3817 0.0
C3990 C 0.739 0.46773 0.39537 0.0
C3991 C 0.7547 0.47069 0.39816 0.0
C3992 C 0.76586 0.46621 0.38731 0.0
C3993 C 0.76135 0.45881 0.37362 0.0
C3994 C 0.74567 0.45581 0.37078 0.0
C3995 C 0.66952 0.48268 0.33439 0.0
C3996 C 0.67377 0.47632 0.32 0.0
C3997 C 0.67686 0.47784 0.34797 0.0
C3998 C 0.6886 0.46661 0.34738 0.0
C3999 C 0.69333 0.4607 0.33299 0.0
C4000 C 0.68589 0.46544 0.3194 0.0
C4001 C 0.69521 0.46027 0.36186 0.0
C4002 C 0.71105 0.4623 0.36489 0.0
C4003 C 0.6858 0.45249 0.37278 0.0
C4004 C 0.66909 0.44953 0.36993 0.0
C4005 C 0.66425 0.44127 0.35673 0.0
C4006 C 0.64847 0.43869 0.35403 0.0
C4007 C 0.63743 0.44421 0.36452 0.0
C4008 C 0.64215 0.45228 0.37776 0.0
C4009 C 0.65791 0.45491 0.3805 0.0
H4010 H 0.62522 0.44221 0.36242 0.0
H4011 H 0.77801 0.46851 0.38949 0.0
H4012 H 0.84022 0.45065 0.67904 0.0
H4013 H 0.82858 0.44123 0.65516 0.0
H4014 H 0.79812 0.48089 0.65409 0.0
H4015 H 0.80911 0.48998 0.67862 0.0
H4016 H 0.78277 0.45577 0.64582 0.0
H4017 H 0.83039 0.47903 0.63067 0.0
H4018 H 0.85847 0.48438 0.6314 0.0
H4019 H 0.86809 0.4368 0.62038 0.0
H4020 H 0.84006 0.4311 0.6198 0.0
H4021 H 0.76469 0.4403 0.56542 0.0
H4022 H 0.77393 0.45315 0.58899 0.0
H4023 H 0.80077 0.41265 0.60067 0.0
H4024 H 0.79119 0.39948 0.57758 0.0
H4025 H 0.81738 0.44118 0.60222 0.0
H4026 H 0.76887 0.41837 0.61932 0.0
H4027 H 0.74063 0.41406 0.61806 0.0
H4028 H 0.73267 0.4628 0.62435 0.0
H4029 H 0.7609 0.46742 0.62542 0.0
C4030 C 0.83085 0.45726 0.67394 0.0
C4031 C 0.82562 0.4711 0.6808 0.0
C4032 C 0.82435 0.45196 0.66012 0.0
C4033 C 0.81271 0.46052 0.65266 0.0
C4034 C 0.8072 0.47417 0.65959 0.0
C4035 C 0.81359 0.47942 0.67354 0.0
C4036 C 0.80638 0.45513 0.63761 0.0
C4037 C 0.79032 0.45285 0.63619 0.0
C4038 C 0.81623 0.45123 0.62506 0.0
C4039 C 0.83311 0.45461 0.62531 0.0
C4040 C 0.83849 0.46968 0.62851 0.0
C4041 C 0.8544 0.47278 0.62888 0.0
C4042 C 0.86506 0.46093 0.62597 0.0
C4043 C 0.85982 0.44596 0.62264 0.0
C4044 C 0.84392 0.44279 0.62227 0.0
C4045 C 0.77239 0.43403 0.5731 0.0
C4046 C 0.77723 0.41885 0.56954 0.0
C4047 C 0.77771 0.44143 0.5865 0.0
C4048 C 0.78802 0.43382 0.59651 0.0
C4049 C 0.7929 0.41873 0.593 0.0
C4050 C 0.78747 0.41127 0.57973 0.0
C4051 C 0.79389 0.44152 0.61063 0.0
C4052 C 0.80986 0.44428 0.61183 0.0
C4053 C 0.78395 0.44605 0.62285 0.0
C4054 C 0.76699 0.44326 0.62226 0.0
C4055 C 0.7611 0.42818 0.62028 0.0
C4056 C 0.7451 0.42568 0.61964 0.0
C4057 C 0.73486 0.43815 0.62107 0.0
C4058 C 0.74061 0.45315 0.62321 0.0
C4059 C 0.75661 0.45572 0.62384 0.0
H4060 H 0.72247 0.43619 0.62057 0.0
H4061 H 0.87737 0.46336 0.62626 0.0
H4062 H 0.40183 0.07063 0.20042 0.0
H4063 H 0.41437 0.09365 0.18973 0.0
H4064 H 0.45383 0.08614 0.21962 0.0
H4065 H 0.44103 0.06331 0.2307 0.0
H4066 H 0.44672 0.1153 0.21989 0.0
H4067 H 0.45493 0.07827 0.17978 0.0
H4068 H 0.44798 0.05801 0.16084 0.0
H4069 H 0.41779 0.0899 0.1374 0.0
H4070 H 0.42439 0.1103 0.15633 0.0
H4071 H 0.49367 0.16987 0.17747 0.0
H4072 H 0.48365 0.14573 0.18875 0.0
H4073 H 0.4389 0.1547 0.16831 0.0
H4074 H 0.4488 0.17883 0.15708 0.0
H4075 H 0.45075 0.12416 0.16319 0.0
H4076 H 0.44255 0.16079 0.20491 0.0
H4077 H 0.45078 0.18063 0.22378 0.0
H4078 H 0.48309 0.14852 0.24387 0.0
H4079 H 0.4752 0.12854 0.22496 0.0
C4080 C 0.41325 0.07381 0.20458 0.0
C4081 C 0.42052 0.06517 0.21629 0.0
C4082 C 0.42043 0.08694 0.19845 0.0
C4083 C 0.43518 0.09149 0.20367 0.0
C4084 C 0.44247 0.08285 0.21539 0.0
C4085 C 0.43518 0.06982 0.22169 0.0
C4086 C 0.44272 0.10554 0.19721 0.0
C4087 C 0.44784 0.11709 0.20749 0.0
C4088 C 0.44404 0.108 0.18102 0.0
C4089 C 0.44007 0.09578 0.16956 0.0
C4090 C 0.44673 0.08093 0.17065 0.0
C4091 C 0.44286 0.06943 0.15991 0.0
C4092 C 0.43242 0.07266 0.14794 0.0
C4093 C 0.42586 0.08742 0.14668 0.0
C4094 C 0.42968 0.09896 0.1574 0.0
C4095 C 0.4817 0.16667 0.17543 0.0
C4096 C 0.47198 0.17619 0.16646 0.0
C4097 C 0.47599 0.15295 0.1819 0.0
C4098 C 0.46055 0.14851 0.17936 0.0
C4099 C 0.45085 0.15798 0.17038 0.0
C4100 C 0.45648 0.17177 0.16408 0.0
C4101 C 0.4545 0.13387 0.18586 0.0
C4102 C 0.4497 0.12224 0.17557 0.0
C4103 C 0.4537 0.13124 0.20201 0.0
C4104 C 0.45841 0.14323 0.21341 0.0
C4105 C 0.45151 0.15801 0.21326 0.0
C4106 C 0.45609 0.16927 0.22398 0.0
C4107 C 0.46748 0.16586 0.23499 0.0
C4108 C 0.47429 0.15116 0.23532 0.0
C4109 C 0.46976 0.13986 0.22461 0.0
H4110 H 0.47101 0.17459 0.24328 0.0
H4111 H 0.42944 0.06374 0.13964 0.0
H4112 H 0.04966 0.80992 0.66694 0.0
H4113 H 0.05936 0.83335 0.6795 0.0
H4114 H 0.01253 0.84681 0.69084 0.0
H4115 H 0.00272 0.82332 0.67827 0.0
H4116 H 0.02817 0.87042 0.67831 0.0
H4117 H 0.03722 0.83406 0.719 0.0
H4118 H 0.04673 0.80987 0.73089 0.0
H4119 H 0.0935 0.82206 0.71891 0.0
H4120 H 0.08425 0.84623 0.70675 0.0
H4121 H 0.05417 0.93407 0.72458 0.0
H4122 H 0.04174 0.90991 0.71632 0.0
H4123 H 0.08613 0.89202 0.70177 0.0
H4124 H 0.09867 0.91589 0.71041 0.0
H4125 H 0.06985 0.87068 0.71797 0.0
H4126 H 0.06038 0.90592 0.67551 0.0
H4127 H 0.05083 0.93004 0.66349 0.0
H4128 H 0.00464 0.91979 0.67899 0.0
H4129 H 0.01396 0.8957 0.6913 0.0
C4130 C 0.04144 0.81771 0.67236 0.0
C4131 C 0.02542 0.81476 0.67164 0.0
C4132 C 0.047 0.83112 0.67952 0.0
C4133 C 0.03667 0.84175 0.68624 0.0
C4134 C 0.02069 0.83875 0.68572 0.0
C4135 C 0.01511 0.82536 0.67851 0.0
C4136 C 0.04258 0.85635 0.6931 0.0
C4137 C 0.03707 0.87048 0.6872 0.0
C4138 C 0.0544 0.85642 0.70449 0.0
C4139 C 0.06002 0.84191 0.71185 0.0
C4140 C 0.04953 0.83153 0.71879 0.0
C4141 C 0.05487 0.81783 0.7256 0.0
C4142 C 0.07071 0.81442 0.72563 0.0
C4143 C 0.08124 0.82472 0.71888 0.0
C4144 C 0.07595 0.83843 0.71204 0.0
C4145 C 0.06128 0.92495 0.7197 0.0
C4146 C 0.07739 0.92692 0.71806 0.0
C4147 C 0.05416 0.91121 0.71489 0.0
C4148 C 0.06301 0.89924 0.70832 0.0
C4149 C 0.07909 0.90113 0.70679 0.0
C4150 C 0.08621 0.91484 0.71158 0.0
C4151 C 0.0556 0.88469 0.703 0.0
C4152 C 0.06082 0.87059 0.7092 0.0
C4153 C 0.04351 0.88465 0.6919 0.0
C4154 C 0.0379 0.89911 0.68448 0.0
C4155 C 0.04821 0.90888 0.67647 0.0
C4156 C 0.04284 0.92253 0.66958 0.0
C4157 C 0.02715 0.92647 0.67051 0.0
C4158 C 0.01679 0.91674 0.6783 0.0
C4159 C 0.02211 0.90308 0.68523 0.0
H4160 H 0.02301 0.93704 0.66517 0.0
H4161 H 0.07482 0.8038 0.73091 0.0
H4162 H 0.46171 0.82842 0.35206 0.0
H4163 H 0.45108 0.85113 0.339 0.0
H4164 H 0.46722 0.83368 0.29502 0.0
H4165 H 0.47759 0.81062 0.30795 0.0
H4166 H 0.47338 0.86551 0.29973 0.0
H4167 H 0.43057 0.83025 0.30246 0.0
H4168 H 0.41259 0.81209 0.31527 0.0
H4169 H 0.39708 0.84841 0.34558 0.0
H4170 H 0.41515 0.86674 0.3331 0.0
H4171 H 0.42916 0.92051 0.25627 0.0
H4172 H 0.4408 0.89666 0.26622 0.0
H4173 H 0.42199 0.90633 0.31156 0.0
H4174 H 0.40973 0.92974 0.30156 0.0
H4175 H 0.41719 0.87712 0.30412 0.0
H4176 H 0.46081 0.91198 0.30276 0.0
H4177 H 0.47915 0.93028 0.29065 0.0
H4178 H 0.49337 0.89509 0.25843 0.0
H4179 H 0.47496 0.87664 0.27023 0.0
C4180 C 0.46287 0.82929 0.33958 0.0
C4181 C 0.47037 0.8176 0.33103 0.0
C4182 C 0.45686 0.84232 0.33216 0.0
C4183 C 0.45824 0.84397 0.31605 0.0
C4184 C 0.46605 0.83258 0.30748 0.0
C4185 C 0.47201 0.81945 0.31489 0.0
C4186 C 0.4513 0.85755 0.30824 0.0
C4187 C 0.46106 0.86796 0.30044 0.0
C4188 C 0.43528 0.86081 0.30946 0.0
C4189 C 0.42431 0.84984 0.31693 0.0
C4190 C 0.42341 0.83434 0.31194 0.0
C4191 C 0.41319 0.82401 0.31913 0.0
C4192 C 0.40372 0.82908 0.33125 0.0
C4193 C 0.40443 0.84449 0.33619 0.0
C4194 C 0.41465 0.85486 0.32905 0.0
C4195 C 0.42743 0.91751 0.26834 0.0
C4196 C 0.41854 0.92707 0.27813 0.0
C4197 C 0.43422 0.90396 0.27405 0.0
C4198 C 0.4324 0.8998 0.28968 0.0
C4199 C 0.42359 0.90934 0.29947 0.0
C4200 C 0.41672 0.92282 0.29377 0.0
C4201 C 0.4393 0.88532 0.29584 0.0
C4202 C 0.42951 0.87468 0.3033 0.0
C4203 C 0.4553 0.88191 0.29436 0.0
C4204 C 0.46638 0.89299 0.28727 0.0
C4205 C 0.46776 0.90819 0.29301 0.0
C4206 C 0.47818 0.91858 0.28622 0.0
C4207 C 0.48738 0.91386 0.27375 0.0
C4208 C 0.48621 0.89873 0.26807 0.0
C4209 C 0.4758 0.8883 0.27482 0.0
H4210 H 0.49545 0.92193 0.2685 0.0
H4211 H 0.39581 0.82107 0.33681 0.0
H4212 H 0.82699 0.6772 0.00258 0.0
H4213 H 0.85016 0.69081 0.01182 0.0
H4214 H 0.83415 0.68617 0.05898 0.0
H4215 H 0.8109 0.67274 0.04982 0.0
H4216 H 0.84621 0.71536 0.05269 0.0
H4217 H 0.86026 0.66159 0.04565 0.0
H4218 H 0.86295 0.63731 0.03079 0.0
H4219 H 0.89268 0.66031 0.99814 0.0
H4220 H 0.88997 0.6848 0.0127 0.0
H4221 H 0.91349 0.72236 0.09837 0.0
H4222 H 0.88995 0.71398 0.08514 0.0
H4223 H 0.91301 0.71836 0.04097 0.0
H4224 H 0.93669 0.72689 0.05417 0.0
H4225 H 0.89762 0.69135 0.04314 0.0
H4226 H 0.88578 0.74458 0.05168 0.0
H4227 H 0.88318 0.76881 0.06661 0.0
H4228 H 0.84945 0.74726 0.09622 0.0
H4229 H 0.85201 0.72281 0.08161 0.0
C4230 C 0.82833 0.67927 0.0149 0.0
C4231 C 0.81721 0.67383 0.0255 0.0
C4232 C 0.84159 0.68696 0.02015 0.0
C4233 C 0.8439 0.68937 0.03608 0.0
C4234 C 0.83257 0.6844 0.04664 0.0
C4235 C 0.81938 0.67663 0.04141 0.0
C4236 C 0.85841 0.69648 0.04187 0.0
C4237 C 0.85746 0.71009 0.05071 0.0
C4238 C 0.87308 0.68978 0.03888 0.0
C4239 C 0.87476 0.67506 0.03015 0.0
C4240 C 0.86726 0.6615 0.03523 0.0
C4241 C 0.86881 0.6477 0.02687 0.0
C4242 C 0.87794 0.64728 0.0135 0.0
C4243 C 0.88558 0.66066 0.00848 0.0
C4244 C 0.88405 0.6745 0.01678 0.0
C4245 C 0.9135 0.72179 0.08582 0.0
C4246 C 0.92693 0.72538 0.07731 0.0
C4247 C 0.90003 0.71698 0.07828 0.0
C4248 C 0.89966 0.71575 0.06206 0.0
C4249 C 0.91305 0.71927 0.0535 0.0
C4250 C 0.92657 0.72409 0.06105 0.0
C4251 C 0.88545 0.71016 0.05419 0.0
C4252 C 0.88643 0.6968 0.04496 0.0
C4253 C 0.87081 0.71711 0.0568 0.0
C4254 C 0.86918 0.73182 0.06561 0.0
C4255 C 0.87789 0.74497 0.06145 0.0
C4256 C 0.87641 0.75875 0.06985 0.0
C4257 C 0.86618 0.75957 0.08238 0.0
C4258 C 0.85738 0.7466 0.08652 0.0
C4259 C 0.85883 0.73279 0.07817 0.0
H4260 H 0.86505 0.77025 0.08886 0.0
H4261 H 0.87913 0.63658 0.00705 0.0
H4262 H 0.5839 0.25876 0.58716 0.0
H4263 H 0.60704 0.26828 0.57397 0.0
H4264 H 0.57943 0.30218 0.54969 0.0
H4265 H 0.55606 0.29233 0.56244 0.0
H4266 H 0.60119 0.28917 0.53081 0.0
H4267 H 0.59956 0.31253 0.58141 0.0
H4268 H 0.59774 0.31263 0.60994 0.0
H4269 H 0.63925 0.28531 0.61293 0.0
H4270 H 0.64119 0.28486 0.58439 0.0
H4271 H 0.66085 0.34277 0.51121 0.0
H4272 H 0.63768 0.32962 0.52087 0.0
H4273 H 0.66641 0.29686 0.54544 0.0
H4274 H 0.68966 0.30994 0.53579 0.0
H4275 H 0.64426 0.30843 0.56377 0.0
H4276 H 0.64653 0.28614 0.51295 0.0
H4277 H 0.64826 0.28633 0.48441 0.0
H4278 H 0.60565 0.31192 0.48173 0.0
H4279 H 0.60377 0.31208 0.51027 0.0
C4280 C 0.58268 0.26805 0.57881 0.0
C4281 C 0.56814 0.27484 0.5759 0.0
C4282 C 0.59595 0.27357 0.57138 0.0
C4283 C 0.59497 0.28608 0.56103 0.0
C4284 C 0.58043 0.29256 0.5577 0.0
C4285 C 0.56712 0.28701 0.5651 0.0
C4286 C 0.6092 0.2928 0.55418 0.0
C4287 C 0.61055 0.29354 0.53799 0.0
C4288 C 0.62151 0.2982 0.56359 0.0
C4289 C 0.62043 0.29853 0.58076 0.0
C4290 C 0.60823 0.30645 0.58815 0.0
C4291 C 0.60719 0.30658 0.60432 0.0
C4292 C 0.61835 0.29894 0.61324 0.0
C4293 C 0.6306 0.2912 0.60601 0.0
C4294 C 0.63168 0.29101 0.58983 0.0
C4295 C 0.66224 0.3326 0.51846 0.0
C4296 C 0.67707 0.32739 0.52275 0.0
C4297 C 0.64899 0.32511 0.52397 0.0
C4298 C 0.65033 0.31219 0.53377 0.0
C4299 C 0.66513 0.30683 0.53791 0.0
C4300 C 0.67838 0.31434 0.53243 0.0
C4301 C 0.63632 0.30477 0.54037 0.0
C4302 C 0.63496 0.30397 0.55655 0.0
C4303 C 0.62402 0.29936 0.53094 0.0
C4304 C 0.62509 0.29924 0.51376 0.0
C4305 C 0.63759 0.29192 0.50628 0.0
C4306 C 0.63859 0.29194 0.4901 0.0
C4307 C 0.62709 0.29917 0.48126 0.0
C4308 C 0.61455 0.30635 0.48859 0.0
C4309 C 0.61351 0.30637 0.50477 0.0
H4310 H 0.62788 0.29917 0.46874 0.0
H4311 H 0.61753 0.29906 0.62576 0.0
H4312 H 0.23821 0.44152 0.06636 0.0
H4313 H 0.22788 0.45416 0.08962 0.0
H4314 H 0.19085 0.42048 0.09138 0.0
H4315 H 0.20078 0.40832 0.06779 0.0
H4316 H 0.17956 0.44695 0.09803 0.0
H4317 H 0.22448 0.41891 0.11522 0.0
H4318 H 0.25203 0.41125 0.11542 0.0
H4319 H 0.26525 0.45807 0.12602 0.0
H4320 H 0.23777 0.46605 0.12567 0.0
H4321 H 0.15918 0.45168 0.17756 0.0
H4322 H 0.17089 0.44245 0.15339 0.0
H4323 H 0.19568 0.48564 0.14876 0.0
H4324 H 0.18383 0.49504 0.17291 0.0
H4325 H 0.2136 0.45646 0.14346 0.0
H4326 H 0.16701 0.48321 0.12764 0.0
H4327 H 0.13902 0.48893 0.12876 0.0
H4328 H 0.12862 0.44168 0.11698 0.0
H4329 H 0.15657 0.43562 0.11603 0.0
C4330 C 0.22783 0.43692 0.07173 0.0
C4331 C 0.22026 0.42399 0.06535 0.0
C4332 C 0.22198 0.44407 0.08504 0.0
C4333 C 0.20873 0.43811 0.09244 0.0
C4334 C 0.20107 0.42531 0.0859 0.0
C4335 C 0.20673 0.41837 0.07243 0.0
C4336 C 0.20283 0.44509 0.10703 0.0
C4337 C 0.18702 0.44888 0.10798 0.0
C4338 C 0.21256 0.44788 0.11999 0.0
C4339 C 0.22909 0.44311 0.12025 0.0
C4340 C 0.23327 0.42759 0.11748 0.0
C4341 C 0.24887 0.42319 0.11764 0.0
C4342 C 0.26039 0.43418 0.12069 0.0
C4343 C 0.25632 0.44958 0.12363 0.0
C4344 C 0.24073 0.45405 0.12346 0.0
C4345 C 0.16725 0.45913 0.17147 0.0
C4346 C 0.17063 0.47405 0.17705 0.0
C4347 C 0.17386 0.45389 0.15766 0.0
C4348 C 0.18406 0.46342 0.14933 0.0
C4349 C 0.18781 0.47816 0.15508 0.0
C4350 C 0.18101 0.48351 0.16878 0.0
C4351 C 0.19042 0.45806 0.13438 0.0
C4352 C 0.20626 0.4546 0.13341 0.0
C4353 C 0.18069 0.45527 0.1215 0.0
C4354 C 0.16388 0.45894 0.1219 0.0
C4355 C 0.15876 0.47401 0.12541 0.0
C4356 C 0.1429 0.47732 0.12599 0.0
C4357 C 0.13205 0.46567 0.12298 0.0
C4358 C 0.13704 0.45069 0.11933 0.0
C4359 C 0.15288 0.44732 0.11876 0.0
H4360 H 0.11977 0.46825 0.12343 0.0
H4361 H 0.27246 0.43075 0.12081 0.0
H4362 H 0.31827 0.49229 0.82321 0.0
H4363 H 0.30433 0.48288 0.84609 0.0
H4364 H 0.31091 0.43573 0.83078 0.0
H4365 H 0.32465 0.44506 0.80778 0.0
H4366 H 0.28132 0.44105 0.84225 0.0
H4367 H 0.33448 0.45019 0.85725 0.0
H4368 H 0.35823 0.46585 0.86015 0.0
H4369 H 0.33363 0.49832 0.88876 0.0
H4370 H 0.30966 0.48295 0.88584 0.0
H4371 H 0.27404 0.39719 0.91097 0.0
H4372 H 0.28246 0.4098 0.88709 0.0
H4373 H 0.27634 0.45462 0.90843 0.0
H4374 H 0.26778 0.44206 0.93241 0.0
H4375 H 0.30381 0.4526 0.89395 0.0
H4376 H 0.25111 0.44214 0.88097 0.0
H4377 H 0.22743 0.42637 0.87818 0.0
H4378 H 0.25079 0.39651 0.84592 0.0
H4379 H 0.2747 0.41197 0.84869 0.0
C4380 C 0.31653 0.47994 0.82461 0.0
C4381 C 0.32262 0.46939 0.81377 0.0
C4382 C 0.30866 0.47458 0.83771 0.0
C4383 C 0.30673 0.45861 0.84017 0.0
C4384 C 0.31231 0.44809 0.82909 0.0
C4385 C 0.32025 0.45343 0.81604 0.0
C4386 C 0.29955 0.45279 0.85462 0.0
C4387 C 0.28627 0.44347 0.85356 0.0
C4388 C 0.30583 0.45631 0.86936 0.0
C4389 C 0.32024 0.46552 0.87117 0.0
C4390 C 0.3341 0.46074 0.86405 0.0
C4391 C 0.34761 0.46955 0.86571 0.0
C4392 C 0.34743 0.4831 0.87459 0.0
C4393 C 0.33375 0.48784 0.88186 0.0
C4394 C 0.3202 0.47908 0.88021 0.0
C4395 C 0.27423 0.40974 0.91051 0.0
C4396 C 0.2702 0.41863 0.92357 0.0
C4397 C 0.27906 0.41693 0.89685 0.0
C4398 C 0.27985 0.43315 0.89593 0.0
C4399 C 0.27579 0.44208 0.90891 0.0
C4400 C 0.27096 0.43489 0.9226 0.0
C4401 C 0.28562 0.44069 0.88161 0.0
C4402 C 0.29869 0.45033 0.88268 0.0
C4403 C 0.27912 0.43747 0.86689 0.0
C4404 C 0.26475 0.42816 0.86514 0.0
C4405 C 0.25124 0.43215 0.87337 0.0
C4406 C 0.23777 0.42327 0.87177 0.0
C4407 C 0.23762 0.41043 0.8619 0.0
C4408 C 0.25093 0.40646 0.85357 0.0
C4409 C 0.26444 0.41529 0.85514 0.0
H4410 H 0.22717 0.40358 0.86068 0.0
H4411 H 0.3579 0.4899 0.87588 0.0
H4412 H 0.2957 0.59697 0.57189 0.0
H4413 H 0.3068 0.58384 0.59433 0.0
H4414 H 0.27518 0.54564 0.58785 0.0
H4415 H 0.26419 0.55854 0.56508 0.0
H4416 H 0.27666 0.55582 0.61838 0.0
H4417 H 0.31178 0.54074 0.57817 0.0
H4418 H 0.3294 0.54485 0.55604 0.0
H4419 H 0.35903 0.573 0.58449 0.0
H4420 H 0.34146 0.56925 0.60676 0.0
H4421 H 0.31442 0.5083 0.6744 0.0
H4422 H 0.30289 0.51801 0.6504 0.0
H4423 H 0.33524 0.55618 0.65025 0.0
H4424 H 0.34726 0.54619 0.67383 0.0
H4425 H 0.33285 0.54403 0.62215 0.0
H4426 H 0.29723 0.56078 0.6617 0.0
H4427 H 0.27954 0.55745 0.68392 0.0
H4428 H 0.25089 0.52698 0.65689 0.0
H4429 H 0.26853 0.52997 0.63456 0.0
C4430 C 0.29125 0.58566 0.57505 0.0
C4431 C 0.2791 0.57877 0.56661 0.0
C4432 C 0.29757 0.57821 0.58793 0.0
C4433 C 0.29189 0.56372 0.59265 0.0
C4434 C 0.2797 0.55683 0.58438 0.0
C4435 C 0.27341 0.56425 0.57142 0.0
C4436 C 0.29857 0.55596 0.60641 0.0
C4437 C 0.28889 0.55298 0.61914 0.0
C4438 C 0.31459 0.55259 0.60745 0.0
C4439 C 0.32523 0.55481 0.5941 0.0
C4440 C 0.32199 0.54791 0.57968 0.0
C4441 C 0.33198 0.55016 0.56712 0.0
C4442 C 0.3453 0.55921 0.56885 0.0
C4443 C 0.34869 0.566 0.58317 0.0
C4444 C 0.33873 0.5638 0.59577 0.0
C4445 C 0.31916 0.51869 0.66919 0.0
C4446 C 0.33172 0.5265 0.67608 0.0
C4447 C 0.31246 0.52431 0.65555 0.0
C4448 C 0.3181 0.53792 0.64863 0.0
C4449 C 0.33068 0.54568 0.65542 0.0
C4450 C 0.33743 0.54004 0.669 0.0
C4451 C 0.31099 0.54409 0.63425 0.0
C4452 C 0.32059 0.54676 0.62138 0.0
C4453 C 0.29492 0.54725 0.63312 0.0
C4454 C 0.28429 0.54546 0.64652 0.0
C4455 C 0.28723 0.55327 0.66053 0.0
C4456 C 0.2772 0.55146 0.67314 0.0
C4457 C 0.26413 0.54197 0.67183 0.0
C4458 C 0.26103 0.5343 0.6579 0.0
C4459 C 0.27104 0.53606 0.64526 0.0
H4460 H 0.25637 0.54059 0.6816 0.0
H4461 H 0.35303 0.56093 0.55911 0.0
H4462 H 0.15293 0.5155 0.33484 0.0
H4463 H 0.16567 0.52446 0.35834 0.0
H4464 H 0.20408 0.54157 0.33123 0.0
H4465 H 0.19191 0.53162 0.30766 0.0
H4466 H 0.21463 0.5293 0.35684 0.0
H4467 H 0.17497 0.56591 0.34474 0.0
H4468 H 0.14861 0.57492 0.33831 0.0
H4469 H 0.13167 0.55715 0.38162 0.0
H4470 H 0.1579 0.54784 0.38823 0.0
H4471 H 0.23954 0.58572 0.41322 0.0
H4472 H 0.22992 0.57249 0.39013 0.0
H4473 H 0.19778 0.54647 0.41819 0.0
H4474 H 0.20781 0.55905 0.44151 0.0
H4475 H 0.18454 0.56319 0.39227 0.0
H4476 H 0.22593 0.52755 0.40407 0.0
H4477 H 0.25299 0.52034 0.40981 0.0
H4478 H 0.26753 0.53892 0.36597 0.0
H4479 H 0.24057 0.54646 0.36006 0.0
C4480 C 0.16424 0.52086 0.33383 0.0
C4481 C 0.17134 0.52286 0.31927 0.0
C4482 C 0.17142 0.52619 0.3473 0.0
C4483 C 0.18568 0.53399 0.34653 0.0
C4484 C 0.19302 0.53568 0.3321 0.0
C4485 C 0.18594 0.53014 0.31861 0.0
C4486 C 0.19272 0.54067 0.36074 0.0
C4487 C 0.2081 0.53686 0.36448 0.0
C4488 C 0.18416 0.55042 0.37082 0.0
C4489 C 0.16837 0.55604 0.36691 0.0
C4490 C 0.1656 0.56382 0.35284 0.0
C4491 C 0.15068 0.569 0.34917 0.0
C4492 C 0.13846 0.56657 0.35953 0.0
C4493 C 0.14114 0.559 0.3736 0.0
C4494 C 0.15603 0.55378 0.37732 0.0
C4495 C 0.23072 0.5769 0.4146 0.0
C4496 C 0.22443 0.57352 0.42929 0.0
C4497 C 0.22517 0.56943 0.40135 0.0
C4498 C 0.21316 0.55855 0.4025 0.0
C4499 C 0.20704 0.5549 0.4171 0.0
C4500 C 0.21271 0.5622 0.43039 0.0
C4501 C 0.20633 0.55169 0.38837 0.0
C4502 C 0.19101 0.55557 0.38463 0.0
C4503 C 0.21504 0.54228 0.37818 0.0
C4504 C 0.23125 0.53771 0.38169 0.0
C4505 C 0.23491 0.53024 0.39571 0.0
C4506 C 0.25023 0.52606 0.39898 0.0
C4507 C 0.26198 0.5292 0.38828 0.0
C4508 C 0.25842 0.5365 0.37426 0.0
C4509 C 0.24312 0.54072 0.37094 0.0
H4510 H 0.27383 0.52596 0.39083 0.0
H4511 H 0.12692 0.57059 0.35667 0.0
loop_
_geom_bond_atom_site_label_1
_geom_bond_atom_site_label_2
_geom_bond_distance
_geom_bond_site_symmetry_2
_ccdc_geom_bond_type
Li0 N17 1.990 . S
Li0 O60 1.956 . S
Li0 O61 1.970 . S
Li0 O62 1.961 1_455 S
Li1 N25 1.990 . S
Li1 O60 1.970 . S
Li1 O61 1.956 . S
Li1 O63 1.961 1_455 S
Li2 N47 1.990 . S
Li2 O60 1.961 1_655 S
Li2 O62 1.956 . S
Li2 O63 1.970 . S
Li3 N53 1.990 . S
Li3 O61 1.961 1_655 S
Li3 O62 1.970 . S
Li3 O63 1.956 . S
C4 C6 1.348 . S
C4 C7 1.356 . S
C4 O60 1.325 . S
N5 C8 1.314 . S
N5 C9 1.279 . S
C6 C4 1.348 . S
C6 C8 1.353 . S
C6 H64 0.929 . S
C7 C4 1.356 . S
C7 C9 1.358 . S
C7 H65 0.930 . S
C8 N5 1.314 . S
C8 C6 1.353 . S
C8 H66 0.930 . S
C9 N5 1.279 . S
C9 C7 1.358 . S
C9 H67 0.930 . S
C10 C13 1.348 . S
C10 C14 1.356 . S
C10 O61 1.325 . S
C11 N12 1.279 . S
C11 C14 1.358 . S
C11 H68 0.930 . S
N12 C11 1.279 . S
N12 C15 1.314 . S
C13 C10 1.348 . S
C13 C15 1.353 . S
C13 H69 0.929 . S
C14 C10 1.356 . S
C14 C11 1.358 . S
C14 H70 0.930 . S
C15 N12 1.314 . S
C15 C13 1.353 . S
C15 H71 0.930 . S
C16 N17 1.314 . S
C16 C21 1.353 . S
C16 H22 0.930 1_455 S
N17 Li0 1.990 . S
N17 C16 1.314 . S
N17 C19 1.279 . S
C18 C19 1.358 . S
C18 C20 1.356 . S
C18 H72 0.930 . S
C19 N17 1.279 . S
C19 C18 1.358 . S
C19 H23 0.930 . S
C20 C18 1.356 . S
C20 C21 1.348 . S
C21 C16 1.353 . S
C21 C20 1.348 . S
C21 H73 0.929 . S
H22 C16 0.930 1_655 S
H23 C19 0.930 . S
C24 N25 1.314 . S
C24 C26 1.353 . S
C24 H30 0.930 . S
N25 Li1 1.990 . S
N25 C24 1.314 . S
N25 C28 1.279 . S
C26 C24 1.353 . S
C26 C29 1.348 . S
C26 H74 0.929 . S
C27 C28 1.358 . S
C27 C29 1.356 . S
C27 H75 0.930 . S
C28 N25 1.279 . S
C28 C27 1.358 . S
C28 H31 0.930 . S
C29 C26 1.348 . S
C29 C27 1.356 . S
H30 C24 0.930 . S
H31 C28 0.930 . S
C32 C34 1.348 . S
C32 C35 1.356 . S
C32 O62 1.325 . S
N33 C36 1.314 . S
N33 C37 1.279 . S
C34 C32 1.348 . S
C34 C36 1.353 . S
C34 H76 0.929 . S
C35 C32 1.356 . S
C35 C37 1.358 . S
C35 H77 0.930 . S
C36 N33 1.314 . S
C36 C34 1.353 . S
C36 H78 0.930 . S
C37 N33 1.279 . S
C37 C35 1.358 . S
C37 H79 0.930 . S
C38 C39 1.348 . S
C38 C40 1.356 . S
C38 O63 1.325 . S
C39 C38 1.348 . S
C39 C41 1.353 . S
C39 H80 0.929 . S
C40 C38 1.356 . S
C40 C42 1.358 . S
C40 H81 0.930 . S
C41 C39 1.353 . S
C41 N43 1.314 . S
C41 H82 0.930 . S
C42 C40 1.358 . S
C42 N43 1.279 . S
C42 H83 0.930 . S
N43 C41 1.314 . S
N43 C42 1.279 . S
C44 C46 1.353 . S
C44 N47 1.314 . S
C44 H50 0.930 1_655 S
C45 N47 1.279 . S
C45 C48 1.358 . S
C45 H51 0.930 . S
C46 C44 1.353 . S
C46 C49 1.348 . S
C46 H84 0.929 . S
N47 Li2 1.990 . S
N47 C44 1.314 . S
N47 C45 1.279 . S
C48 C45 1.358 . S
C48 C49 1.356 . S
C48 H85 0.930 . S
C49 C46 1.348 . S
C49 C48 1.356 . S
H50 C44 0.930 1_455 S
H51 C45 0.930 . S
C52 N53 1.314 . S
C52 C54 1.353 . S
C52 H58 0.930 . S
N53 Li3 1.990 . S
N53 C52 1.314 . S
N53 C56 1.279 . S
C54 C52 1.353 . S
C54 C57 1.348 . S
C54 H86 0.929 . S
C55 C56 1.358 . S
C55 C57 1.356 . S
C55 H87 0.930 . S
C56 N53 1.279 . S
C56 C55 1.358 . S
C56 H59 0.930 . S
C57 C54 1.348 . S
C57 C55 1.356 . S
H58 C52 0.930 . S
H59 C56 0.930 . S
O60 Li0 1.956 . S
O60 Li1 1.970 . S
O60 Li2 1.961 1_455 S
O60 C4 1.325 . S
O61 Li0 1.970 . S
O61 Li1 1.956 . S
O61 Li3 1.961 1_455 S
O61 C10 1.325 . S
O62 Li0 1.961 1_655 S
O62 Li2 1.956 . S
O62 Li3 1.970 . S
O62 C32 1.325 . S
O63 Li1 1.961 1_655 S
O63 Li2 1.970 . S
O63 Li3 1.956 . S
O63 C38 1.325 . S
H64 C6 0.929 . S
H65 C7 0.930 . S
H66 C8 0.930 . S
H67 C9 0.930 . S
H68 C11 0.930 . S
H69 C13 0.929 . S
H70 C14 0.930 . S
H71 C15 0.930 . S
H72 C18 0.930 . S
H73 C21 0.929 . S
H74 C26 0.929 . S
H75 C27 0.930 . S
H76 C34 0.929 . S
H77 C35 0.930 . S
H78 C36 0.930 . S
H79 C37 0.930 . S
H80 C39 0.929 . S
H81 C40 0.930 . S
H82 C41 0.930 . S
H83 C42 0.930 . S
H84 C46 0.929 . S
H85 C48 0.930 . S
H86 C54 0.929 . S
H87 C55 0.930 . S
Li88 N105 1.990 . S
Li88 O148 1.956 1_455 S
Li88 O149 1.970 . S
Li88 O150 1.961 . S
Li89 N113 1.990 . S
Li89 O148 1.970 . S
Li89 O149 1.956 1_655 S
Li89 O151 1.961 . S
Li90 N135 1.990 . S
Li90 O148 1.961 . S
Li90 O150 1.956 1_655 S
Li90 O151 1.970 . S
Li91 N141 1.990 . S
Li91 O149 1.961 . S
Li91 O150 1.970 . S
Li91 O151 1.956 1_455 S
C92 C94 1.348 . S
C92 C95 1.356 . S
C92 O148 1.325 . S
N93 C96 1.314 . S
N93 C97 1.279 . S
C94 C92 1.348 . S
C94 C96 1.353 . S
C94 H152 0.929 . S
C95 C92 1.356 . S
C95 C97 1.358 . S
C95 H153 0.930 . S
C96 N93 1.314 . S
C96 C94 1.353 . S
C96 H154 0.930 . S
C97 N93 1.279 . S
C97 C95 1.358 . S
C97 H155 0.930 . S
C98 C101 1.348 . S
C98 C102 1.356 . S
C98 O149 1.325 . S
C99 N100 1.279 . S
C99 C102 1.358 . S
C99 H156 0.930 . S
N100 C99 1.279 . S
N100 C103 1.314 . S
C101 C98 1.348 . S
C101 C103 1.353 . S
C101 H157 0.929 . S
C102 C98 1.356 . S
C102 C99 1.358 . S
C102 H158 0.930 . S
C103 N100 1.314 . S
C103 C101 1.353 . S
C103 H159 0.930 . S
C104 N105 1.314 . S
C104 C109 1.353 . S
C104 H110 0.930 . S
N105 Li88 1.990 . S
N105 C104 1.314 . S
N105 C107 1.279 . S
C106 C107 1.358 . S
C106 C108 1.356 . S
C106 H160 0.930 . S
C107 N105 1.279 . S
C107 C106 1.358 . S
C107 H111 0.930 1_455 S
C108 C106 1.356 . S
C108 C109 1.348 . S
C109 C104 1.353 . S
C109 C108 1.348 . S
C109 H161 0.929 . S
H110 C104 0.930 . S
H111 C107 0.930 1_655 S
C112 N113 1.314 . S
C112 C114 1.353 . S
C112 H118 0.930 . S
N113 Li89 1.990 . S
N113 C112 1.314 . S
N113 C116 1.279 . S
C114 C112 1.353 . S
C114 C117 1.348 . S
C114 H162 0.929 . S
C115 C116 1.358 . S
C115 C117 1.356 . S
C115 H163 0.930 . S
C116 N113 1.279 . S
C116 C115 1.358 . S
C116 H119 0.930 . S
C117 C114 1.348 . S
C117 C115 1.356 . S
H118 C112 0.930 . S
H119 C116 0.930 . S
C120 C122 1.348 . S
C120 C123 1.356 . S
C120 O150 1.325 . S
N121 C124 1.314 . S
N121 C125 1.279 . S
C122 C120 1.348 . S
C122 C124 1.353 . S
C122 H164 0.929 . S
C123 C120 1.356 . S
C123 C125 1.358 . S
C123 H165 0.930 . S
C124 N121 1.314 . S
C124 C122 1.353 . S
C124 H166 0.930 . S
C125 N121 1.279 . S
C125 C123 1.358 . S
C125 H167 0.930 . S
C126 C127 1.348 . S
C126 C128 1.356 . S
C126 O151 1.325 . S
C127 C126 1.348 . S
C127 C129 1.353 . S
C127 H168 0.929 . S
C128 C126 1.356 . S
C128 C130 1.358 . S
C128 H169 0.930 . S
C129 C127 1.353 . S
C129 N131 1.314 . S
C129 H170 0.930 . S
C130 C128 1.358 . S
C130 N131 1.279 . S
C130 H171 0.930 . S
N131 C129 1.314 . S
N131 C130 1.279 . S
C132 C134 1.353 . S
C132 N135 1.314 . S
C132 H138 0.930 . S
C133 N135 1.279 . S
C133 C136 1.358 . S
C133 H139 0.930 1_655 S
C134 C132 1.353 . S
C134 C137 1.348 . S
C134 H172 0.929 . S
N135 Li90 1.990 . S
N135 C132 1.314 . S
N135 C133 1.279 . S
C136 C133 1.358 . S
C136 C137 1.356 . S
C136 H173 0.930 . S
C137 C134 1.348 . S
C137 C136 1.356 . S
H138 C132 0.930 . S
H139 C133 0.930 1_455 S
C140 N141 1.314 . S
C140 C142 1.353 . S
C140 H146 0.930 . S
N141 Li91 1.990 . S
N141 C140 1.314 . S
N141 C144 1.279 . S
C142 C140 1.353 . S
C142 C145 1.348 . S
C142 H174 0.929 . S
C143 C144 1.358 . S
C143 C145 1.356 . S
C143 H175 0.930 . S
C144 N141 1.279 . S
C144 C143 1.358 . S
C144 H147 0.930 . S
C145 C142 1.348 . S
C145 C143 1.356 . S
H146 C140 0.930 . S
H147 C144 0.930 . S
O148 Li88 1.956 1_655 S
O148 Li89 1.970 . S
O148 Li90 1.961 . S
O148 C92 1.325 . S
O149 Li88 1.970 . S
O149 Li89 1.956 1_455 S
O149 Li91 1.961 . S
O149 C98 1.325 . S
O150 Li88 1.961 . S
O150 Li90 1.956 1_455 S
O150 Li91 1.970 . S
O150 C120 1.325 . S
O151 Li89 1.961 . S
O151 Li90 1.970 . S
O151 Li91 1.956 1_655 S
O151 C126 1.325 . S
H152 C94 0.929 . S
H153 C95 0.930 . S
H154 C96 0.930 . S
H155 C97 0.930 . S
H156 C99 0.930 . S
H157 C101 0.929 . S
H158 C102 0.930 . S
H159 C103 0.930 . S
H160 C106 0.930 . S
H161 C109 0.929 . S
H162 C114 0.929 . S
H163 C115 0.930 . S
H164 C122 0.929 . S
H165 C123 0.930 . S
H166 C124 0.930 . S
H167 C125 0.930 . S
H168 C127 0.929 . S
H169 C128 0.930 . S
H170 C129 0.930 . S
H171 C130 0.930 . S
H172 C134 0.929 . S
H173 C136 0.930 . S
H174 C142 0.929 . S
H175 C143 0.930 . S
Li176 N193 1.990 . S
Li176 O236 1.956 . S
Li176 O237 1.970 . S
Li176 O238 1.961 . S
Li177 N201 1.990 . S
Li177 O236 1.970 . S
Li177 O237 1.956 . S
Li177 O239 1.961 . S
Li178 N223 1.990 . S
Li178 O236 1.961 . S
Li178 O238 1.956 . S
Li178 O239 1.970 . S
Li179 N229 1.990 . S
Li179 O237 1.961 . S
Li179 O238 1.970 . S
Li179 O239 1.956 . S
C180 C182 1.348 . S
C180 C183 1.356 . S
C180 O236 1.325 . S
N181 C184 1.314 . S
N181 C185 1.279 . S
C182 C180 1.348 . S
C182 C184 1.353 . S
C182 H240 0.929 . S
C183 C180 1.356 . S
C183 C185 1.358 . S
C183 H241 0.930 . S
C184 N181 1.314 . S
C184 C182 1.353 . S
C184 H242 0.930 . S
C185 N181 1.279 . S
C185 C183 1.358 . S
C185 H243 0.930 . S
C186 C189 1.348 . S
C186 C190 1.356 . S
C186 O237 1.325 . S
C187 N188 1.279 . S
C187 C190 1.358 . S
C187 H244 0.930 . S
N188 C187 1.279 . S
N188 C191 1.314 . S
C189 C186 1.348 . S
C189 C191 1.353 . S
C189 H245 0.929 . S
C190 C186 1.356 . S
C190 C187 1.358 . S
C190 H246 0.930 . S
C191 N188 1.314 . S
C191 C189 1.353 . S
C191 H247 0.930 . S
C192 N193 1.314 . S
C192 C197 1.353 . S
C192 H198 0.930 . S
N193 Li176 1.990 . S
N193 C192 1.314 . S
N193 C195 1.279 . S
C194 C195 1.358 . S
C194 C196 1.356 . S
C194 H248 0.930 . S
C195 N193 1.279 . S
C195 C194 1.358 . S
C195 H199 0.930 . S
C196 C194 1.356 . S
C196 C197 1.348 . S
C197 C192 1.353 . S
C197 C196 1.348 . S
C197 H249 0.929 . S
H198 C192 0.930 . S
H199 C195 0.930 . S
C200 N201 1.314 . S
C200 C202 1.353 . S
C200 H206 0.930 . S
N201 Li177 1.990 . S
N201 C200 1.314 . S
N201 C204 1.279 . S
C202 C200 1.353 . S
C202 C205 1.348 . S
C202 H250 0.929 . S
C203 C204 1.358 . S
C203 C205 1.356 . S
C203 H251 0.930 . S
C204 N201 1.279 . S
C204 C203 1.358 . S
C204 H207 0.930 . S
C205 C202 1.348 . S
C205 C203 1.356 . S
H206 C200 0.930 . S
H207 C204 0.930 . S
C208 C210 1.348 . S
C208 C211 1.356 . S
C208 O238 1.325 . S
N209 C212 1.314 . S
N209 C213 1.279 . S
C210 C208 1.348 . S
C210 C212 1.353 . S
C210 H252 0.929 . S
C211 C208 1.356 . S
C211 C213 1.358 . S
C211 H253 0.930 . S
C212 N209 1.314 . S
C212 C210 1.353 . S
C212 H254 0.930 . S
C213 N209 1.279 . S
C213 C211 1.358 . S
C213 H255 0.930 . S
C214 C215 1.348 . S
C214 C216 1.356 . S
C214 O239 1.325 . S
C215 C214 1.348 . S
C215 C217 1.353 . S
C215 H256 0.929 . S
C216 C214 1.356 . S
C216 C218 1.358 . S
C216 H257 0.930 . S
C217 C215 1.353 . S
C217 N219 1.314 . S
C217 H258 0.930 . S
C218 C216 1.358 . S
C218 N219 1.279 . S
C218 H259 0.930 . S
N219 C217 1.314 . S
N219 C218 1.279 . S
C220 C222 1.353 . S
C220 N223 1.314 . S
C220 H226 0.930 . S
C221 N223 1.279 . S
C221 C224 1.358 . S
C221 H227 0.930 . S
C222 C220 1.353 . S
C222 C225 1.348 . S
C222 H260 0.929 . S
N223 Li178 1.990 . S
N223 C220 1.314 . S
N223 C221 1.279 . S
C224 C221 1.358 . S
C224 C225 1.356 . S
C224 H261 0.930 . S
C225 C222 1.348 . S
C225 C224 1.356 . S
H226 C220 0.930 . S
H227 C221 0.930 . S
C228 N229 1.314 . S
C228 C230 1.353 . S
C228 H234 0.930 . S
N229 Li179 1.990 . S
N229 C228 1.314 . S
N229 C232 1.279 . S
C230 C228 1.353 . S
C230 C233 1.348 . S
C230 H262 0.929 . S
C231 C232 1.358 . S
C231 C233 1.356 . S
C231 H263 0.930 . S
C232 N229 1.279 . S
C232 C231 1.358 . S
C232 H235 0.930 . S
C233 C230 1.348 . S
C233 C231 1.356 . S
H234 C228 0.930 . S
H235 C232 0.930 . S
O236 Li176 1.956 . S
O236 Li177 1.970 . S
O236 Li178 1.961 . S
O236 C180 1.325 . S
O237 Li176 1.970 . S
O237 Li177 1.956 . S
O237 Li179 1.961 . S
O237 C186 1.325 . S
O238 Li176 1.961 . S
O238 Li178 1.956 . S
O238 Li179 1.970 . S
O238 C208 1.325 . S
O239 Li177 1.961 . S
O239 Li178 1.970 . S
O239 Li179 1.956 . S
O239 C214 1.325 . S
H240 C182 0.929 . S
H241 C183 0.930 . S
H242 C184 0.930 . S
H243 C185 0.930 . S
H244 C187 0.930 . S
H245 C189 0.929 . S
H246 C190 0.930 . S
H247 C191 0.930 . S
H248 C194 0.930 . S
H249 C197 0.929 . S
H250 C202 0.929 . S
H251 C203 0.930 . S
H252 C210 0.929 . S
H253 C211 0.930 . S
H254 C212 0.930 . S
H255 C213 0.930 . S
H256 C215 0.929 . S
H257 C216 0.930 . S
H258 C217 0.930 . S
H259 C218 0.930 . S
H260 C222 0.929 . S
H261 C224 0.930 . S
H262 C230 0.929 . S
H263 C231 0.930 . S
Li264 N281 1.990 . S
Li264 O324 1.956 . S
Li264 O325 1.970 . S
Li264 O326 1.961 . S
Li265 N289 1.990 . S
Li265 O324 1.970 . S
Li265 O325 1.956 . S
Li265 O327 1.961 . S
Li266 N311 1.990 . S
Li266 O324 1.961 . S
Li266 O326 1.956 . S
Li266 O327 1.970 . S
Li267 N317 1.990 . S
Li267 O325 1.961 . S
Li267 O326 1.970 . S
Li267 O327 1.956 . S
C268 C270 1.348 . S
C268 C271 1.356 . S
C268 O324 1.325 . S
N269 C272 1.314 . S
N269 C273 1.279 . S
C270 C268 1.348 . S
C270 C272 1.353 . S
C270 H328 0.929 . S
C271 C268 1.356 . S
C271 C273 1.358 . S
C271 H329 0.930 . S
C272 N269 1.314 . S
C272 C270 1.353 . S
C272 H330 0.930 . S
C273 N269 1.279 . S
C273 C271 1.358 . S
C273 H331 0.930 . S
C274 C277 1.348 . S
C274 C278 1.356 . S
C274 O325 1.325 . S
C275 N276 1.279 . S
C275 C278 1.358 . S
C275 H332 0.930 . S
N276 C275 1.279 . S
N276 C279 1.314 . S
C277 C274 1.348 . S
C277 C279 1.353 . S
C277 H333 0.929 . S
C278 C274 1.356 . S
C278 C275 1.358 . S
C278 H334 0.930 . S
C279 N276 1.314 . S
C279 C277 1.353 . S
C279 H335 0.930 . S
C280 N281 1.314 . S
C280 C285 1.353 . S
C280 H286 0.930 . S
N281 Li264 1.990 . S
N281 C280 1.314 . S
N281 C283 1.279 . S
C282 C283 1.358 . S
C282 C284 1.356 . S
C282 H336 0.930 . S
C283 N281 1.279 . S
C283 C282 1.358 . S
C283 H287 0.930 . S
C284 C282 1.356 . S
C284 C285 1.348 . S
C285 C280 1.353 . S
C285 C284 1.348 . S
C285 H337 0.929 . S
H286 C280 0.930 . S
H287 C283 0.930 . S
C288 N289 1.314 . S
C288 C290 1.353 . S
C288 H294 0.930 . S
N289 Li265 1.990 . S
N289 C288 1.314 . S
N289 C292 1.279 . S
C290 C288 1.353 . S
C290 C293 1.348 . S
C290 H338 0.929 . S
C291 C292 1.358 . S
C291 C293 1.356 . S
C291 H339 0.930 . S
C292 N289 1.279 . S
C292 C291 1.358 . S
C292 H295 0.930 . S
C293 C290 1.348 . S
C293 C291 1.356 . S
H294 C288 0.930 . S
H295 C292 0.930 . S
C296 C298 1.348 . S
C296 C299 1.356 . S
C296 O326 1.325 . S
N297 C300 1.314 . S
N297 C301 1.279 . S
C298 C296 1.348 . S
C298 C300 1.353 . S
C298 H340 0.929 . S
C299 C296 1.356 . S
C299 C301 1.358 . S
C299 H341 0.930 . S
C300 N297 1.314 . S
C300 C298 1.353 . S
C300 H342 0.930 . S
C301 N297 1.279 . S
C301 C299 1.358 . S
C301 H343 0.930 . S
C302 C303 1.348 . S
C302 C304 1.356 . S
C302 O327 1.325 . S
C303 C302 1.348 . S
C303 C305 1.353 . S
C303 H344 0.929 . S
C304 C302 1.356 . S
C304 C306 1.358 . S
C304 H345 0.930 . S
C305 C303 1.353 . S
C305 N307 1.314 . S
C305 H346 0.930 . S
C306 C304 1.358 . S
C306 N307 1.279 . S
C306 H347 0.930 . S
N307 C305 1.314 . S
N307 C306 1.279 . S
C308 C310 1.353 . S
C308 N311 1.314 . S
C308 H314 0.930 . S
C309 N311 1.279 . S
C309 C312 1.358 . S
C309 H315 0.930 . S
C310 C308 1.353 . S
C310 C313 1.348 . S
C310 H348 0.929 . S
N311 Li266 1.990 . S
N311 C308 1.314 . S
N311 C309 1.279 . S
C312 C309 1.358 . S
C312 C313 1.356 . S
C312 H349 0.930 . S
C313 C310 1.348 . S
C313 C312 1.356 . S
H314 C308 0.930 . S
H315 C309 0.930 . S
C316 N317 1.314 . S
C316 C318 1.353 . S
C316 H322 0.930 . S
N317 Li267 1.990 . S
N317 C316 1.314 . S
N317 C320 1.279 . S
C318 C316 1.353 . S
C318 C321 1.348 . S
C318 H350 0.929 . S
C319 C320 1.358 . S
C319 C321 1.356 . S
C319 H351 0.930 . S
C320 N317 1.279 . S
C320 C319 1.358 . S
C320 H323 0.930 . S
C321 C318 1.348 . S
C321 C319 1.356 . S
H322 C316 0.930 . S
H323 C320 0.930 . S
O324 Li264 1.956 . S
O324 Li265 1.970 . S
O324 Li266 1.961 . S
O324 C268 1.325 . S
O325 Li264 1.970 . S
O325 Li265 1.956 . S
O325 Li267 1.961 . S
O325 C274 1.325 . S
O326 Li264 1.961 . S
O326 Li266 1.956 . S
O326 Li267 1.970 . S
O326 C296 1.325 . S
O327 Li265 1.961 . S
O327 Li266 1.970 . S
O327 Li267 1.956 . S
O327 C302 1.325 . S
H328 C270 0.929 . S
H329 C271 0.930 . S
H330 C272 0.930 . S
H331 C273 0.930 . S
H332 C275 0.930 . S
H333 C277 0.929 . S
H334 C278 0.930 . S
H335 C279 0.930 . S
H336 C282 0.930 . S
H337 C285 0.929 . S
H338 C290 0.929 . S
H339 C291 0.930 . S
H340 C298 0.929 . S
H341 C299 0.930 . S
H342 C300 0.930 . S
H343 C301 0.930 . S
H344 C303 0.929 . S
H345 C304 0.930 . S
H346 C305 0.930 . S
H347 C306 0.930 . S
H348 C310 0.929 . S
H349 C312 0.930 . S
H350 C318 0.929 . S
H351 C319 0.930 . S
Li352 N369 1.990 . S
Li352 O412 1.956 . S
Li352 O413 1.970 . S
Li352 O414 1.961 1_455 S
Li353 N377 1.990 . S
Li353 O412 1.970 . S
Li353 O413 1.956 . S
Li353 O415 1.961 1_455 S
Li354 N399 1.990 . S
Li354 O412 1.961 1_655 S
Li354 O414 1.956 . S
Li354 O415 1.970 . S
Li355 N405 1.990 . S
Li355 O413 1.961 1_655 S
Li355 O414 1.970 . S
Li355 O415 1.956 . S
C356 C358 1.348 . S
C356 C359 1.356 . S
C356 O412 1.325 . S
N357 C360 1.314 . S
N357 C361 1.279 . S
C358 C356 1.348 . S
C358 C360 1.353 . S
C358 H416 0.929 . S
C359 C356 1.356 . S
C359 C361 1.358 . S
C359 H417 0.930 . S
C360 N357 1.314 . S
C360 C358 1.353 . S
C360 H418 0.930 . S
C361 N357 1.279 . S
C361 C359 1.358 . S
C361 H419 0.930 . S
C362 C365 1.348 . S
C362 C366 1.356 . S
C362 O413 1.325 . S
C363 N364 1.279 . S
C363 C366 1.358 . S
C363 H420 0.930 . S
N364 C363 1.279 . S
N364 C367 1.314 . S
C365 C362 1.348 . S
C365 C367 1.353 . S
C365 H421 0.929 . S
C366 C362 1.356 . S
C366 C363 1.358 . S
C366 H422 0.930 . S
C367 N364 1.314 . S
C367 C365 1.353 . S
C367 H423 0.930 . S
C368 N369 1.314 . S
C368 C373 1.353 . S
C368 H374 0.930 1_455 S
N369 Li352 1.990 . S
N369 C368 1.314 . S
N369 C371 1.279 . S
C370 C371 1.358 . S
C370 C372 1.356 . S
C370 H424 0.930 . S
C371 N369 1.279 . S
C371 C370 1.358 . S
C371 H375 0.930 . S
C372 C370 1.356 . S
C372 C373 1.348 . S
C373 C368 1.353 . S
C373 C372 1.348 . S
C373 H425 0.929 . S
H374 C368 0.930 1_655 S
H375 C371 0.930 . S
C376 N377 1.314 . S
C376 C378 1.353 . S
C376 H382 0.930 . S
N377 Li353 1.990 . S
N377 C376 1.314 . S
N377 C380 1.279 . S
C378 C376 1.353 . S
C378 C381 1.348 . S
C378 H426 0.929 . S
C379 C380 1.358 . S
C379 C381 1.356 . S
C379 H427 0.930 . S
C380 N377 1.279 . S
C380 C379 1.358 . S
C380 H383 0.930 . S
C381 C378 1.348 . S
C381 C379 1.356 . S
H382 C376 0.930 . S
H383 C380 0.930 . S
C384 C386 1.348 . S
C384 C387 1.356 . S
C384 O414 1.325 . S
N385 C388 1.314 . S
N385 C389 1.279 . S
C386 C384 1.348 . S
C386 C388 1.353 . S
C386 H428 0.929 . S
C387 C384 1.356 . S
C387 C389 1.358 . S
C387 H429 0.930 . S
C388 N385 1.314 . S
C388 C386 1.353 . S
C388 H430 0.930 . S
C389 N385 1.279 . S
C389 C387 1.358 . S
C389 H431 0.930 . S
C390 C391 1.348 . S
C390 C392 1.356 . S
C390 O415 1.325 . S
C391 C390 1.348 . S
C391 C393 1.353 . S
C391 H432 0.929 . S
C392 C390 1.356 . S
C392 C394 1.358 . S
C392 H433 0.930 . S
C393 C391 1.353 . S
C393 N395 1.314 . S
C393 H434 0.930 . S
C394 C392 1.358 . S
C394 N395 1.279 . S
C394 H435 0.930 . S
N395 C393 1.314 . S
N395 C394 1.279 . S
C396 C398 1.353 . S
C396 N399 1.314 . S
C396 H402 0.930 1_655 S
C397 N399 1.279 . S
C397 C400 1.358 . S
C397 H403 0.930 . S
C398 C396 1.353 . S
C398 C401 1.348 . S
C398 H436 0.929 . S
N399 Li354 1.990 . S
N399 C396 1.314 . S
N399 C397 1.279 . S
C400 C397 1.358 . S
C400 C401 1.356 . S
C400 H437 0.930 . S
C401 C398 1.348 . S
C401 C400 1.356 . S
H402 C396 0.930 1_455 S
H403 C397 0.930 . S
C404 N405 1.314 . S
C404 C406 1.353 . S
C404 H410 0.930 . S
N405 Li355 1.990 . S
N405 C404 1.314 . S
N405 C408 1.279 . S
C406 C404 1.353 . S
C406 C409 1.348 . S
C406 H438 0.929 . S
C407 C408 1.358 . S
C407 C409 1.356 . S
C407 H439 0.930 . S
C408 N405 1.279 . S
C408 C407 1.358 . S
C408 H411 0.930 . S
C409 C406 1.348 . S
C409 C407 1.356 . S
H410 C404 0.930 . S
H411 C408 0.930 . S
O412 Li352 1.956 . S
O412 Li353 1.970 . S
O412 Li354 1.961 1_455 S
O412 C356 1.325 . S
O413 Li352 1.970 . S
O413 Li353 1.956 . S
O413 Li355 1.961 1_455 S
O413 C362 1.325 . S
O414 Li352 1.961 1_655 S
O414 Li354 1.956 . S
O414 Li355 1.970 . S
O414 C384 1.325 . S
O415 Li353 1.961 1_655 S
O415 Li354 1.970 . S
O415 Li355 1.956 . S
O415 C390 1.325 . S
H416 C358 0.929 . S
H417 C359 0.930 . S
H418 C360 0.930 . S
H419 C361 0.930 . S
H420 C363 0.930 . S
H421 C365 0.929 . S
H422 C366 0.930 . S
H423 C367 0.930 . S
H424 C370 0.930 . S
H425 C373 0.929 . S
H426 C378 0.929 . S
H427 C379 0.930 . S
H428 C386 0.929 . S
H429 C387 0.930 . S
H430 C388 0.930 . S
H431 C389 0.930 . S
H432 C391 0.929 . S
H433 C392 0.930 . S
H434 C393 0.930 . S
H435 C394 0.930 . S
H436 C398 0.929 . S
H437 C400 0.930 . S
H438 C406 0.929 . S
H439 C407 0.930 . S
Li440 N457 1.990 . S
Li440 O500 1.956 . S
Li440 O501 1.970 . S
Li440 O502 1.961 . S
Li441 N465 1.990 . S
Li441 O500 1.970 . S
Li441 O501 1.956 . S
Li441 O503 1.961 . S
Li442 N487 1.990 . S
Li442 O500 1.961 . S
Li442 O502 1.956 . S
Li442 O503 1.970 . S
Li443 N493 1.990 . S
Li443 O501 1.961 . S
Li443 O502 1.970 . S
Li443 O503 1.956 . S
C444 C446 1.348 . S
C444 C447 1.356 . S
C444 O500 1.325 . S
N445 C448 1.314 . S
N445 C449 1.279 . S
C446 C444 1.348 . S
C446 C448 1.353 . S
C446 H504 0.929 . S
C447 C444 1.356 . S
C447 C449 1.358 . S
C447 H505 0.930 . S
C448 N445 1.314 . S
C448 C446 1.353 . S
C448 H506 0.930 . S
C449 N445 1.279 . S
C449 C447 1.358 . S
C449 H507 0.930 . S
C450 C453 1.348 . S
C450 C454 1.356 . S
C450 O501 1.325 . S
C451 N452 1.279 . S
C451 C454 1.358 . S
C451 H508 0.930 . S
N452 C451 1.279 . S
N452 C455 1.314 . S
C453 C450 1.348 . S
C453 C455 1.353 . S
C453 H509 0.929 . S
C454 C450 1.356 . S
C454 C451 1.358 . S
C454 H510 0.930 . S
C455 N452 1.314 . S
C455 C453 1.353 . S
C455 H511 0.930 . S
C456 N457 1.314 . S
C456 C461 1.353 . S
C456 H462 0.930 . S
N457 Li440 1.990 . S
N457 C456 1.314 . S
N457 C459 1.279 . S
C458 C459 1.358 . S
C458 C460 1.356 . S
C458 H512 0.930 . S
C459 N457 1.279 . S
C459 C458 1.358 . S
C459 H463 0.930 . S
C460 C458 1.356 . S
C460 C461 1.348 . S
C461 C456 1.353 . S
C461 C460 1.348 . S
C461 H513 0.929 . S
H462 C456 0.930 . S
H463 C459 0.930 . S
C464 N465 1.314 . S
C464 C466 1.353 . S
C464 H470 0.930 . S
N465 Li441 1.990 . S
N465 C464 1.314 . S
N465 C468 1.279 . S
C466 C464 1.353 . S
C466 C469 1.348 . S
C466 H514 0.929 . S
C467 C468 1.358 . S
C467 C469 1.356 . S
C467 H515 0.930 . S
C468 N465 1.279 . S
C468 C467 1.358 . S
C468 H471 0.930 . S
C469 C466 1.348 . S
C469 C467 1.356 . S
H470 C464 0.930 . S
H471 C468 0.930 . S
C472 C474 1.348 . S
C472 C475 1.356 . S
C472 O502 1.325 . S
N473 C476 1.314 . S
N473 C477 1.279 . S
C474 C472 1.348 . S
C474 C476 1.353 . S
C474 H516 0.929 . S
C475 C472 1.356 . S
C475 C477 1.358 . S
C475 H517 0.930 . S
C476 N473 1.314 . S
C476 C474 1.353 . S
C476 H518 0.930 . S
C477 N473 1.279 . S
C477 C475 1.358 . S
C477 H519 0.930 . S
C478 C479 1.348 . S
C478 C480 1.356 . S
C478 O503 1.325 . S
C479 C478 1.348 . S
C479 C481 1.353 . S
C479 H520 0.929 . S
C480 C478 1.356 . S
C480 C482 1.358 . S
C480 H521 0.930 . S
C481 C479 1.353 . S
C481 N483 1.314 . S
C481 H522 0.930 . S
C482 C480 1.358 . S
C482 N483 1.279 . S
C482 H523 0.930 . S
N483 C481 1.314 . S
N483 C482 1.279 . S
C484 C486 1.353 . S
C484 N487 1.314 . S
C484 H490 0.930 . S
C485 N487 1.279 . S
C485 C488 1.358 . S
C485 H491 0.930 . S
C486 C484 1.353 . S
C486 C489 1.348 . S
C486 H524 0.929 . S
N487 Li442 1.990 . S
N487 C484 1.314 . S
N487 C485 1.279 . S
C488 C485 1.358 . S
C488 C489 1.356 . S
C488 H525 0.930 . S
C489 C486 1.348 . S
C489 C488 1.356 . S
H490 C484 0.930 . S
H491 C485 0.930 . S
C492 N493 1.314 . S
C492 C494 1.353 . S
C492 H498 0.930 . S
N493 Li443 1.990 . S
N493 C492 1.314 . S
N493 C496 1.279 . S
C494 C492 1.353 . S
C494 C497 1.348 . S
C494 H526 0.929 . S
C495 C496 1.358 . S
C495 C497 1.356 . S
C495 H527 0.930 . S
C496 N493 1.279 . S
C496 C495 1.358 . S
C496 H499 0.930 . S
C497 C494 1.348 . S
C497 C495 1.356 . S
H498 C492 0.930 . S
H499 C496 0.930 . S
O500 Li440 1.956 . S
O500 Li441 1.970 . S
O500 Li442 1.961 . S
O500 C444 1.325 . S
O501 Li440 1.970 . S
O501 Li441 1.956 . S
O501 Li443 1.961 . S
O501 C450 1.325 . S
O502 Li440 1.961 . S
O502 Li442 1.956 . S
O502 Li443 1.970 . S
O502 C472 1.325 . S
O503 Li441 1.961 . S
O503 Li442 1.970 . S
O503 Li443 1.956 . S
O503 C478 1.325 . S
H504 C446 0.929 . S
H505 C447 0.930 . S
H506 C448 0.930 . S
H507 C449 0.930 . S
H508 C451 0.930 . S
H509 C453 0.929 . S
H510 C454 0.930 . S
H511 C455 0.930 . S
H512 C458 0.930 . S
H513 C461 0.929 . S
H514 C466 0.929 . S
H515 C467 0.930 . S
H516 C474 0.929 . S
H517 C475 0.930 . S
H518 C476 0.930 . S
H519 C477 0.930 . S
H520 C479 0.929 . S
H521 C480 0.930 . S
H522 C481 0.930 . S
H523 C482 0.930 . S
H524 C486 0.929 . S
H525 C488 0.930 . S
H526 C494 0.929 . S
H527 C495 0.930 . S
Li528 N545 1.990 . S
Li528 O588 1.956 . S
Li528 O589 1.970 . S
Li528 O590 1.961 . S
Li529 N553 1.990 . S
Li529 O588 1.970 . S
Li529 O589 1.956 . S
Li529 O591 1.961 . S
Li530 N575 1.990 . S
Li530 O588 1.961 . S
Li530 O590 1.956 . S
Li530 O591 1.970 . S
Li531 N581 1.990 . S
Li531 O589 1.961 . S
Li531 O590 1.970 . S
Li531 O591 1.956 . S
C532 C534 1.348 . S
C532 C535 1.356 . S
C532 O588 1.325 . S
N533 C536 1.314 . S
N533 C537 1.279 . S
C534 C532 1.348 . S
C534 C536 1.353 . S
C534 H592 0.929 . S
C535 C532 1.356 . S
C535 C537 1.358 . S
C535 H593 0.930 . S
C536 N533 1.314 . S
C536 C534 1.353 . S
C536 H594 0.930 . S
C537 N533 1.279 . S
C537 C535 1.358 . S
C537 H595 0.930 . S
C538 C541 1.348 . S
C538 C542 1.356 . S
C538 O589 1.325 . S
C539 N540 1.279 . S
C539 C542 1.358 . S
C539 H596 0.930 . S
N540 C539 1.279 . S
N540 C543 1.314 . S
C541 C538 1.348 . S
C541 C543 1.353 . S
C541 H597 0.929 . S
C542 C538 1.356 . S
C542 C539 1.358 . S
C542 H598 0.930 . S
C543 N540 1.314 . S
C543 C541 1.353 . S
C543 H599 0.930 . S
C544 N545 1.314 . S
C544 C549 1.353 . S
C544 H550 0.930 . S
N545 Li528 1.990 . S
N545 C544 1.314 . S
N545 C547 1.279 . S
C546 C547 1.358 . S
C546 C548 1.356 . S
C546 H600 0.930 . S
C547 N545 1.279 . S
C547 C546 1.358 . S
C547 H551 0.930 . S
C548 C546 1.356 . S
C548 C549 1.348 . S
C549 C544 1.353 . S
C549 C548 1.348 . S
C549 H601 0.929 . S
H550 C544 0.930 . S
H551 C547 0.930 . S
C552 N553 1.314 . S
C552 C554 1.353 . S
C552 H558 0.930 . S
N553 Li529 1.990 . S
N553 C552 1.314 . S
N553 C556 1.279 . S
C554 C552 1.353 . S
C554 C557 1.348 . S
C554 H602 0.929 . S
C555 C556 1.358 . S
C555 C557 1.356 . S
C555 H603 0.930 . S
C556 N553 1.279 . S
C556 C555 1.358 . S
C556 H559 0.930 . S
C557 C554 1.348 . S
C557 C555 1.356 . S
H558 C552 0.930 . S
H559 C556 0.930 . S
C560 C562 1.348 . S
C560 C563 1.356 . S
C560 O590 1.325 . S
N561 C564 1.314 . S
N561 C565 1.279 . S
C562 C560 1.348 . S
C562 C564 1.353 . S
C562 H604 0.929 . S
C563 C560 1.356 . S
C563 C565 1.358 . S
C563 H605 0.930 . S
C564 N561 1.314 . S
C564 C562 1.353 . S
C564 H606 0.930 . S
C565 N561 1.279 . S
C565 C563 1.358 . S
C565 H607 0.930 . S
C566 C567 1.348 . S
C566 C568 1.356 . S
C566 O591 1.325 . S
C567 C566 1.348 . S
C567 C569 1.353 . S
C567 H608 0.929 . S
C568 C566 1.356 . S
C568 C570 1.358 . S
C568 H609 0.930 . S
C569 C567 1.353 . S
C569 N571 1.314 . S
C569 H610 0.930 . S
C570 C568 1.358 . S
C570 N571 1.279 . S
C570 H611 0.930 . S
N571 C569 1.314 . S
N571 C570 1.279 . S
C572 C574 1.353 . S
C572 N575 1.314 . S
C572 H578 0.930 . S
C573 N575 1.279 . S
C573 C576 1.358 . S
C573 H579 0.930 . S
C574 C572 1.353 . S
C574 C577 1.348 . S
C574 H612 0.929 . S
N575 Li530 1.990 . S
N575 C572 1.314 . S
N575 C573 1.279 . S
C576 C573 1.358 . S
C576 C577 1.356 . S
C576 H613 0.930 . S
C577 C574 1.348 . S
C577 C576 1.356 . S
H578 C572 0.930 . S
H579 C573 0.930 . S
C580 N581 1.314 . S
C580 C582 1.353 . S
C580 H586 0.930 . S
N581 Li531 1.990 . S
N581 C580 1.314 . S
N581 C584 1.279 . S
C582 C580 1.353 . S
C582 C585 1.348 . S
C582 H614 0.929 . S
C583 C584 1.358 . S
C583 C585 1.356 . S
C583 H615 0.930 . S
C584 N581 1.279 . S
C584 C583 1.358 . S
C584 H587 0.930 . S
C585 C582 1.348 . S
C585 C583 1.356 . S
H586 C580 0.930 . S
H587 C584 0.930 . S
O588 Li528 1.956 . S
O588 Li529 1.970 . S
O588 Li530 1.961 . S
O588 C532 1.325 . S
O589 Li528 1.970 . S
O589 Li529 1.956 . S
O589 Li531 1.961 . S
O589 C538 1.325 . S
O590 Li528 1.961 . S
O590 Li530 1.956 . S
O590 Li531 1.970 . S
O590 C560 1.325 . S
O591 Li529 1.961 . S
O591 Li530 1.970 . S
O591 Li531 1.956 . S
O591 C566 1.325 . S
H592 C534 0.929 . S
H593 C535 0.930 . S
H594 C536 0.930 . S
H595 C537 0.930 . S
H596 C539 0.930 . S
H597 C541 0.929 . S
H598 C542 0.930 . S
H599 C543 0.930 . S
H600 C546 0.930 . S
H601 C549 0.929 . S
H602 C554 0.929 . S
H603 C555 0.930 . S
H604 C562 0.929 . S
H605 C563 0.930 . S
H606 C564 0.930 . S
H607 C565 0.930 . S
H608 C567 0.929 . S
H609 C568 0.930 . S
H610 C569 0.930 . S
H611 C570 0.930 . S
H612 C574 0.929 . S
H613 C576 0.930 . S
H614 C582 0.929 . S
H615 C583 0.930 . S
Li616 N633 1.990 . S
Li616 O676 1.956 1_655 S
Li616 O677 1.970 . S
Li616 O678 1.961 . S
Li617 N641 1.990 . S
Li617 O676 1.970 . S
Li617 O677 1.956 1_455 S
Li617 O679 1.961 . S
Li618 N663 1.990 . S
Li618 O676 1.961 . S
Li618 O678 1.956 1_455 S
Li618 O679 1.970 . S
Li619 N669 1.990 . S
Li619 O677 1.961 . S
Li619 O678 1.970 . S
Li619 O679 1.956 1_655 S
C620 C622 1.348 . S
C620 C623 1.356 . S
C620 O676 1.325 . S
N621 C624 1.314 . S
N621 C625 1.279 . S
C622 C620 1.348 . S
C622 C624 1.353 . S
C622 H680 0.929 . S
C623 C620 1.356 . S
C623 C625 1.358 . S
C623 H681 0.930 . S
C624 N621 1.314 . S
C624 C622 1.353 . S
C624 H682 0.930 . S
C625 N621 1.279 . S
C625 C623 1.358 . S
C625 H683 0.930 . S
C626 C629 1.348 . S
C626 C630 1.356 . S
C626 O677 1.325 . S
C627 N628 1.279 . S
C627 C630 1.358 . S
C627 H684 0.930 . S
N628 C627 1.279 . S
N628 C631 1.314 . S
C629 C626 1.348 . S
C629 C631 1.353 . S
C629 H685 0.929 . S
C630 C626 1.356 . S
C630 C627 1.358 . S
C630 H686 0.930 . S
C631 N628 1.314 . S
C631 C629 1.353 . S
C631 H687 0.930 . S
C632 N633 1.314 . S
C632 C637 1.353 . S
C632 H638 0.930 . S
N633 Li616 1.990 . S
N633 C632 1.314 . S
N633 C635 1.279 . S
C634 C635 1.358 . S
C634 C636 1.356 . S
C634 H688 0.930 . S
C635 N633 1.279 . S
C635 C634 1.358 . S
C635 H639 0.930 1_655 S
C636 C634 1.356 . S
C636 C637 1.348 . S
C637 C632 1.353 . S
C637 C636 1.348 . S
C637 H689 0.929 . S
H638 C632 0.930 . S
H639 C635 0.930 1_455 S
C640 N641 1.314 . S
C640 C642 1.353 . S
C640 H646 0.930 . S
N641 Li617 1.990 . S
N641 C640 1.314 . S
N641 C644 1.279 . S
C642 C640 1.353 . S
C642 C645 1.348 . S
C642 H690 0.929 . S
C643 C644 1.358 . S
C643 C645 1.356 . S
C643 H691 0.930 . S
C644 N641 1.279 . S
C644 C643 1.358 . S
C644 H647 0.930 . S
C645 C642 1.348 . S
C645 C643 1.356 . S
H646 C640 0.930 . S
H647 C644 0.930 . S
C648 C650 1.348 . S
C648 C651 1.356 . S
C648 O678 1.325 . S
N649 C652 1.314 . S
N649 C653 1.279 . S
C650 C648 1.348 . S
C650 C652 1.353 . S
C650 H692 0.929 . S
C651 C648 1.356 . S
C651 C653 1.358 . S
C651 H693 0.930 . S
C652 N649 1.314 . S
C652 C650 1.353 . S
C652 H694 0.930 . S
C653 N649 1.279 . S
C653 C651 1.358 . S
C653 H695 0.930 . S
C654 C655 1.348 . S
C654 C656 1.356 . S
C654 O679 1.325 . S
C655 C654 1.348 . S
C655 C657 1.353 . S
C655 H696 0.929 . S
C656 C654 1.356 . S
C656 C658 1.358 . S
C656 H697 0.930 . S
C657 C655 1.353 . S
C657 N659 1.314 . S
C657 H698 0.930 . S
C658 C656 1.358 . S
C658 N659 1.279 . S
C658 H699 0.930 . S
N659 C657 1.314 . S
N659 C658 1.279 . S
C660 C662 1.353 . S
C660 N663 1.314 . S
C660 H666 0.930 . S
C661 N663 1.279 . S
C661 C664 1.358 . S
C661 H667 0.930 1_455 S
C662 C660 1.353 . S
C662 C665 1.348 . S
C662 H700 0.929 . S
N663 Li618 1.990 . S
N663 C660 1.314 . S
N663 C661 1.279 . S
C664 C661 1.358 . S
C664 C665 1.356 . S
C664 H701 0.930 . S
C665 C662 1.348 . S
C665 C664 1.356 . S
H666 C660 0.930 . S
H667 C661 0.930 1_655 S
C668 N669 1.314 . S
C668 C670 1.353 . S
C668 H674 0.930 . S
N669 Li619 1.990 . S
N669 C668 1.314 . S
N669 C672 1.279 . S
C670 C668 1.353 . S
C670 C673 1.348 . S
C670 H702 0.929 . S
C671 C672 1.358 . S
C671 C673 1.356 . S
C671 H703 0.930 . S
C672 N669 1.279 . S
C672 C671 1.358 . S
C672 H675 0.930 . S
C673 C670 1.348 . S
C673 C671 1.356 . S
H674 C668 0.930 . S
H675 C672 0.930 . S
O676 Li616 1.956 1_455 S
O676 Li617 1.970 . S
O676 Li618 1.961 . S
O676 C620 1.325 . S
O677 Li616 1.970 . S
O677 Li617 1.956 1_655 S
O677 Li619 1.961 . S
O677 C626 1.325 . S
O678 Li616 1.961 . S
O678 Li618 1.956 1_655 S
O678 Li619 1.970 . S
O678 C648 1.325 . S
O679 Li617 1.961 . S
O679 Li618 1.970 . S
O679 Li619 1.956 1_455 S
O679 C654 1.325 . S
H680 C622 0.929 . S
H681 C623 0.930 . S
H682 C624 0.930 . S
H683 C625 0.930 . S
H684 C627 0.930 . S
H685 C629 0.929 . S
H686 C630 0.930 . S
H687 C631 0.930 . S
H688 C634 0.930 . S
H689 C637 0.929 . S
H690 C642 0.929 . S
H691 C643 0.930 . S
H692 C650 0.929 . S
H693 C651 0.930 . S
H694 C652 0.930 . S
H695 C653 0.930 . S
H696 C655 0.929 . S
H697 C656 0.930 . S
H698 C657 0.930 . S
H699 C658 0.930 . S
H700 C662 0.929 . S
H701 C664 0.930 . S
H702 C670 0.929 . S
H703 C671 0.930 . S
Li704 N721 1.990 . S
Li704 O764 1.956 . S
Li704 O765 1.970 . S
Li704 O766 1.961 1_545 S
Li705 N729 1.990 . S
Li705 O764 1.970 . S
Li705 O765 1.956 . S
Li705 O767 1.961 1_545 S
Li706 N751 1.990 . S
Li706 O764 1.961 1_565 S
Li706 O766 1.956 . S
Li706 O767 1.970 . S
Li707 N757 1.990 . S
Li707 O765 1.961 1_565 S
Li707 O766 1.970 . S
Li707 O767 1.956 . S
C708 C710 1.348 . S
C708 C711 1.356 . S
C708 O764 1.325 . S
N709 C712 1.314 . S
N709 C713 1.279 . S
C710 C708 1.348 . S
C710 C712 1.353 . S
C710 H768 0.929 . S
C711 C708 1.356 . S
C711 C713 1.358 . S
C711 H769 0.930 . S
C712 N709 1.314 . S
C712 C710 1.353 . S
C712 H770 0.930 . S
C713 N709 1.279 . S
C713 C711 1.358 . S
C713 H771 0.930 . S
C714 C717 1.348 . S
C714 C718 1.356 . S
C714 O765 1.325 . S
C715 N716 1.279 . S
C715 C718 1.358 . S
C715 H772 0.930 . S
N716 C715 1.279 . S
N716 C719 1.314 . S
C717 C714 1.348 . S
C717 C719 1.353 . S
C717 H773 0.929 . S
C718 C714 1.356 . S
C718 C715 1.358 . S
C718 H774 0.930 . S
C719 N716 1.314 . S
C719 C717 1.353 . S
C719 H775 0.930 . S
C720 N721 1.314 . S
C720 C725 1.353 . S
C720 H726 0.930 . S
N721 Li704 1.990 . S
N721 C720 1.314 . S
N721 C723 1.279 . S
C722 C723 1.358 . S
C722 C724 1.356 . S
C722 H776 0.930 . S
C723 N721 1.279 . S
C723 C722 1.358 . S
C723 H727 0.930 . S
C724 C722 1.356 . S
C724 C725 1.348 . S
C725 C720 1.353 . S
C725 C724 1.348 . S
C725 H777 0.929 . S
H726 C720 0.930 . S
H727 C723 0.930 . S
C728 N729 1.314 . S
C728 C730 1.353 . S
C728 H734 0.930 1_545 S
N729 Li705 1.990 . S
N729 C728 1.314 . S
N729 C732 1.279 . S
C730 C728 1.353 . S
C730 C733 1.348 . S
C730 H778 0.929 . S
C731 C732 1.358 . S
C731 C733 1.356 . S
C731 H779 0.930 . S
C732 N729 1.279 . S
C732 C731 1.358 . S
C732 H735 0.930 . S
C733 C730 1.348 . S
C733 C731 1.356 . S
H734 C728 0.930 1_565 S
H735 C732 0.930 . S
C736 C738 1.348 . S
C736 C739 1.356 . S
C736 O766 1.325 . S
N737 C740 1.314 . S
N737 C741 1.279 . S
C738 C736 1.348 . S
C738 C740 1.353 . S
C738 H780 0.929 . S
C739 C736 1.356 . S
C739 C741 1.358 . S
C739 H781 0.930 . S
C740 N737 1.314 . S
C740 C738 1.353 . S
C740 H782 0.930 . S
C741 N737 1.279 . S
C741 C739 1.358 . S
C741 H783 0.930 . S
C742 C743 1.348 . S
C742 C744 1.356 . S
C742 O767 1.325 . S
C743 C742 1.348 . S
C743 C745 1.353 . S
C743 H784 0.929 . S
C744 C742 1.356 . S
C744 C746 1.358 . S
C744 H785 0.930 . S
C745 C743 1.353 . S
C745 N747 1.314 . S
C745 H786 0.930 . S
C746 C744 1.358 . S
C746 N747 1.279 . S
C746 H787 0.930 . S
N747 C745 1.314 . S
N747 C746 1.279 . S
C748 C750 1.353 . S
C748 N751 1.314 . S
C748 H754 0.930 . S
C749 N751 1.279 . S
C749 C752 1.358 . S
C749 H755 0.930 . S
C750 C748 1.353 . S
C750 C753 1.348 . S
C750 H788 0.929 . S
N751 Li706 1.990 . S
N751 C748 1.314 . S
N751 C749 1.279 . S
C752 C749 1.358 . S
C752 C753 1.356 . S
C752 H789 0.930 . S
C753 C750 1.348 . S
C753 C752 1.356 . S
H754 C748 0.930 . S
H755 C749 0.930 . S
C756 N757 1.314 . S
C756 C758 1.353 . S
C756 H762 0.930 1_565 S
N757 Li707 1.990 . S
N757 C756 1.314 . S
N757 C760 1.279 . S
C758 C756 1.353 . S
C758 C761 1.348 . S
C758 H790 0.929 . S
C759 C760 1.358 . S
C759 C761 1.356 . S
C759 H791 0.930 . S
C760 N757 1.279 . S
C760 C759 1.358 . S
C760 H763 0.930 . S
C761 C758 1.348 . S
C761 C759 1.356 . S
H762 C756 0.930 1_545 S
H763 C760 0.930 . S
O764 Li704 1.956 . S
O764 Li705 1.970 . S
O764 Li706 1.961 1_545 S
O764 C708 1.325 . S
O765 Li704 1.970 . S
O765 Li705 1.956 . S
O765 Li707 1.961 1_545 S
O765 C714 1.325 . S
O766 Li704 1.961 1_565 S
O766 Li706 1.956 . S
O766 Li707 1.970 . S
O766 C736 1.325 . S
O767 Li705 1.961 1_565 S
O767 Li706 1.970 . S
O767 Li707 1.956 . S
O767 C742 1.325 . S
H768 C710 0.929 . S
H769 C711 0.930 . S
H770 C712 0.930 . S
H771 C713 0.930 . S
H772 C715 0.930 . S
H773 C717 0.929 . S
H774 C718 0.930 . S
H775 C719 0.930 . S
H776 C722 0.930 . S
H777 C725 0.929 . S
H778 C730 0.929 . S
H779 C731 0.930 . S
H780 C738 0.929 . S
H781 C739 0.930 . S
H782 C740 0.930 . S
H783 C741 0.930 . S
H784 C743 0.929 . S
H785 C744 0.930 . S
H786 C745 0.930 . S
H787 C746 0.930 . S
H788 C750 0.929 . S
H789 C752 0.930 . S
H790 C758 0.929 . S
H791 C759 0.930 . S
Li792 N809 1.990 . S
Li792 O852 1.956 . S
Li792 O853 1.970 . S
Li792 O854 1.961 . S
Li793 N817 1.990 . S
Li793 O852 1.970 . S
Li793 O853 1.956 . S
Li793 O855 1.961 . S
Li794 N839 1.990 . S
Li794 O852 1.961 . S
Li794 O854 1.956 . S
Li794 O855 1.970 . S
Li795 N845 1.990 . S
Li795 O853 1.961 . S
Li795 O854 1.970 . S
Li795 O855 1.956 . S
C796 C798 1.348 . S
C796 C799 1.356 . S
C796 O852 1.325 . S
N797 C800 1.314 . S
N797 C801 1.279 . S
C798 C796 1.348 . S
C798 C800 1.353 . S
C798 H856 0.929 . S
C799 C796 1.356 . S
C799 C801 1.358 . S
C799 H857 0.930 . S
C800 N797 1.314 . S
C800 C798 1.353 . S
C800 H858 0.930 . S
C801 N797 1.279 . S
C801 C799 1.358 . S
C801 H859 0.930 . S
C802 C805 1.348 . S
C802 C806 1.356 . S
C802 O853 1.325 . S
C803 N804 1.279 . S
C803 C806 1.358 . S
C803 H860 0.930 . S
N804 C803 1.279 . S
N804 C807 1.314 . S
C805 C802 1.348 . S
C805 C807 1.353 . S
C805 H861 0.929 . S
C806 C802 1.356 . S
C806 C803 1.358 . S
C806 H862 0.930 . S
C807 N804 1.314 . S
C807 C805 1.353 . S
C807 H863 0.930 . S
C808 N809 1.314 . S
C808 C813 1.353 . S
C808 H814 0.930 . S
N809 Li792 1.990 . S
N809 C808 1.314 . S
N809 C811 1.279 . S
C810 C811 1.358 . S
C810 C812 1.356 . S
C810 H864 0.930 . S
C811 N809 1.279 . S
C811 C810 1.358 . S
C811 H815 0.930 . S
C812 C810 1.356 . S
C812 C813 1.348 . S
C813 C808 1.353 . S
C813 C812 1.348 . S
C813 H865 0.929 . S
H814 C808 0.930 . S
H815 C811 0.930 . S
C816 N817 1.314 . S
C816 C818 1.353 . S
C816 H822 0.930 . S
N817 Li793 1.990 . S
N817 C816 1.314 . S
N817 C820 1.279 . S
C818 C816 1.353 . S
C818 C821 1.348 . S
C818 H866 0.929 . S
C819 C820 1.358 . S
C819 C821 1.356 . S
C819 H867 0.930 . S
C820 N817 1.279 . S
C820 C819 1.358 . S
C820 H823 0.930 . S
C821 C818 1.348 . S
C821 C819 1.356 . S
H822 C816 0.930 . S
H823 C820 0.930 . S
C824 C826 1.348 . S
C824 C827 1.356 . S
C824 O854 1.325 . S
N825 C828 1.314 . S
N825 C829 1.279 . S
C826 C824 1.348 . S
C826 C828 1.353 . S
C826 H868 0.929 . S
C827 C824 1.356 . S
C827 C829 1.358 . S
C827 H869 0.930 . S
C828 N825 1.314 . S
C828 C826 1.353 . S
C828 H870 0.930 . S
C829 N825 1.279 . S
C829 C827 1.358 . S
C829 H871 0.930 . S
C830 C831 1.348 . S
C830 C832 1.356 . S
C830 O855 1.325 . S
C831 C830 1.348 . S
C831 C833 1.353 . S
C831 H872 0.929 . S
C832 C830 1.356 . S
C832 C834 1.358 . S
C832 H873 0.930 . S
C833 C831 1.353 . S
C833 N835 1.314 . S
C833 H874 0.930 . S
C834 C832 1.358 . S
C834 N835 1.279 . S
C834 H875 0.930 . S
N835 C833 1.314 . S
N835 C834 1.279 . S
C836 C838 1.353 . S
C836 N839 1.314 . S
C836 H842 0.930 . S
C837 N839 1.279 . S
C837 C840 1.358 . S
C837 H843 0.930 . S
C838 C836 1.353 . S
C838 C841 1.348 . S
C838 H876 0.929 . S
N839 Li794 1.990 . S
N839 C836 1.314 . S
N839 C837 1.279 . S
C840 C837 1.358 . S
C840 C841 1.356 . S
C840 H877 0.930 . S
C841 C838 1.348 . S
C841 C840 1.356 . S
H842 C836 0.930 . S
H843 C837 0.930 . S
C844 N845 1.314 . S
C844 C846 1.353 . S
C844 H850 0.930 . S
N845 Li795 1.990 . S
N845 C844 1.314 . S
N845 C848 1.279 . S
C846 C844 1.353 . S
C846 C849 1.348 . S
C846 H878 0.929 . S
C847 C848 1.358 . S
C847 C849 1.356 . S
C847 H879 0.930 . S
C848 N845 1.279 . S
C848 C847 1.358 . S
C848 H851 0.930 . S
C849 C846 1.348 . S
C849 C847 1.356 . S
H850 C844 0.930 . S
H851 C848 0.930 . S
O852 Li792 1.956 . S
O852 Li793 1.970 . S
O852 Li794 1.961 . S
O852 C796 1.325 . S
O853 Li792 1.970 . S
O853 Li793 1.956 . S
O853 Li795 1.961 . S
O853 C802 1.325 . S
O854 Li792 1.961 . S
O854 Li794 1.956 . S
O854 Li795 1.970 . S
O854 C824 1.325 . S
O855 Li793 1.961 . S
O855 Li794 1.970 . S
O855 Li795 1.956 . S
O855 C830 1.325 . S
H856 C798 0.929 . S
H857 C799 0.930 . S
H858 C800 0.930 . S
H859 C801 0.930 . S
H860 C803 0.930 . S
H861 C805 0.929 . S
H862 C806 0.930 . S
H863 C807 0.930 . S
H864 C810 0.930 . S
H865 C813 0.929 . S
H866 C818 0.929 . S
H867 C819 0.930 . S
H868 C826 0.929 . S
H869 C827 0.930 . S
H870 C828 0.930 . S
H871 C829 0.930 . S
H872 C831 0.929 . S
H873 C832 0.930 . S
H874 C833 0.930 . S
H875 C834 0.930 . S
H876 C838 0.929 . S
H877 C840 0.930 . S
H878 C846 0.929 . S
H879 C847 0.930 . S
Li880 N897 1.990 . S
Li880 O940 1.956 . S
Li880 O941 1.970 . S
Li880 O942 1.961 1_545 S
Li881 N905 1.990 . S
Li881 O940 1.970 . S
Li881 O941 1.956 . S
Li881 O943 1.961 1_545 S
Li882 N927 1.990 . S
Li882 O940 1.961 1_565 S
Li882 O942 1.956 . S
Li882 O943 1.970 . S
Li883 N933 1.990 . S
Li883 O941 1.961 1_565 S
Li883 O942 1.970 . S
Li883 O943 1.956 . S
C884 C886 1.348 . S
C884 C887 1.356 . S
C884 O940 1.325 . S
N885 C888 1.314 . S
N885 C889 1.279 . S
C886 C884 1.348 . S
C886 C888 1.353 . S
C886 H944 0.929 . S
C887 C884 1.356 . S
C887 C889 1.358 . S
C887 H945 0.930 . S
C888 N885 1.314 . S
C888 C886 1.353 . S
C888 H946 0.930 . S
C889 N885 1.279 . S
C889 C887 1.358 . S
C889 H947 0.930 . S
C890 C893 1.348 . S
C890 C894 1.356 . S
C890 O941 1.325 . S
C891 N892 1.279 . S
C891 C894 1.358 . S
C891 H948 0.930 . S
N892 C891 1.279 . S
N892 C895 1.314 . S
C893 C890 1.348 . S
C893 C895 1.353 . S
C893 H949 0.929 . S
C894 C890 1.356 . S
C894 C891 1.358 . S
C894 H950 0.930 . S
C895 N892 1.314 . S
C895 C893 1.353 . S
C895 H951 0.930 . S
C896 N897 1.314 . S
C896 C901 1.353 . S
C896 H902 0.930 1_545 S
N897 Li880 1.990 . S
N897 C896 1.314 . S
N897 C899 1.279 . S
C898 C899 1.358 . S
C898 C900 1.356 . S
C898 H952 0.930 . S
C899 N897 1.279 . S
C899 C898 1.358 . S
C899 H903 0.930 . S
C900 C898 1.356 . S
C900 C901 1.348 . S
C901 C896 1.353 . S
C901 C900 1.348 . S
C901 H953 0.929 . S
H902 C896 0.930 1_565 S
H903 C899 0.930 . S
C904 N905 1.314 . S
C904 C906 1.353 . S
C904 H910 0.930 . S
N905 Li881 1.990 . S
N905 C904 1.314 . S
N905 C908 1.279 . S
C906 C904 1.353 . S
C906 C909 1.348 . S
C906 H954 0.929 . S
C907 C908 1.358 . S
C907 C909 1.356 . S
C907 H955 0.930 . S
C908 N905 1.279 . S
C908 C907 1.358 . S
C908 H911 0.930 . S
C909 C906 1.348 . S
C909 C907 1.356 . S
H910 C904 0.930 . S
H911 C908 0.930 . S
C912 C914 1.348 . S
C912 C915 1.356 . S
C912 O942 1.325 . S
N913 C916 1.314 . S
N913 C917 1.279 . S
C914 C912 1.348 . S
C914 C916 1.353 . S
C914 H956 0.929 . S
C915 C912 1.356 . S
C915 C917 1.358 . S
C915 H957 0.930 . S
C916 N913 1.314 . S
C916 C914 1.353 . S
C916 H958 0.930 . S
C917 N913 1.279 . S
C917 C915 1.358 . S
C917 H959 0.930 . S
C918 C919 1.348 . S
C918 C920 1.356 . S
C918 O943 1.325 . S
C919 C918 1.348 . S
C919 C921 1.353 . S
C919 H960 0.929 . S
C920 C918 1.356 . S
C920 C922 1.358 . S
C920 H961 0.930 . S
C921 C919 1.353 . S
C921 N923 1.314 . S
C921 H962 0.930 . S
C922 C920 1.358 . S
C922 N923 1.279 . S
C922 H963 0.930 . S
N923 C921 1.314 . S
N923 C922 1.279 . S
C924 C926 1.353 . S
C924 N927 1.314 . S
C924 H930 0.930 1_565 S
C925 N927 1.279 . S
C925 C928 1.358 . S
C925 H931 0.930 . S
C926 C924 1.353 . S
C926 C929 1.348 . S
C926 H964 0.929 . S
N927 Li882 1.990 . S
N927 C924 1.314 . S
N927 C925 1.279 . S
C928 C925 1.358 . S
C928 C929 1.356 . S
C928 H965 0.930 . S
C929 C926 1.348 . S
C929 C928 1.356 . S
H930 C924 0.930 1_545 S
H931 C925 0.930 . S
C932 N933 1.314 . S
C932 C934 1.353 . S
C932 H938 0.930 . S
N933 Li883 1.990 . S
N933 C932 1.314 . S
N933 C936 1.279 . S
C934 C932 1.353 . S
C934 C937 1.348 . S
C934 H966 0.929 . S
C935 C936 1.358 . S
C935 C937 1.356 . S
C935 H967 0.930 . S
C936 N933 1.279 . S
C936 C935 1.358 . S
C936 H939 0.930 . S
C937 C934 1.348 . S
C937 C935 1.356 . S
H938 C932 0.930 . S
H939 C936 0.930 . S
O940 Li880 1.956 . S
O940 Li881 1.970 . S
O940 Li882 1.961 1_545 S
O940 C884 1.325 . S
O941 Li880 1.970 . S
O941 Li881 1.956 . S
O941 Li883 1.961 1_545 S
O941 C890 1.325 . S
O942 Li880 1.961 1_565 S
O942 Li882 1.956 . S
O942 Li883 1.970 . S
O942 C912 1.325 . S
O943 Li881 1.961 1_565 S
O943 Li882 1.970 . S
O943 Li883 1.956 . S
O943 C918 1.325 . S
H944 C886 0.929 . S
H945 C887 0.930 . S
H946 C888 0.930 . S
H947 C889 0.930 . S
H948 C891 0.930 . S
H949 C893 0.929 . S
H950 C894 0.930 . S
H951 C895 0.930 . S
H952 C898 0.930 . S
H953 C901 0.929 . S
H954 C906 0.929 . S
H955 C907 0.930 . S
H956 C914 0.929 . S
H957 C915 0.930 . S
H958 C916 0.930 . S
H959 C917 0.930 . S
H960 C919 0.929 . S
H961 C920 0.930 . S
H962 C921 0.930 . S
H963 C922 0.930 . S
H964 C926 0.929 . S
H965 C928 0.930 . S
H966 C934 0.929 . S
H967 C935 0.930 . S
Li968 N985 1.990 . S
Li968 O1028 1.956 1_556 S
Li968 O1029 1.970 . S
Li968 O1030 1.961 . S
Li969 N993 1.990 . S
Li969 O1028 1.970 . S
Li969 O1029 1.956 1_554 S
Li969 O1031 1.961 . S
Li970 N1015 1.990 . S
Li970 O1028 1.961 . S
Li970 O1030 1.956 1_554 S
Li970 O1031 1.970 . S
Li971 N1021 1.990 . S
Li971 O1029 1.961 . S
Li971 O1030 1.970 . S
Li971 O1031 1.956 1_556 S
C972 C974 1.348 . S
C972 C975 1.356 . S
C972 O1028 1.325 . S
N973 C976 1.314 . S
N973 C977 1.279 . S
C974 C972 1.348 . S
C974 C976 1.353 . S
C974 H1032 0.929 . S
C975 C972 1.356 . S
C975 C977 1.358 . S
C975 H1033 0.930 . S
C976 N973 1.314 . S
C976 C974 1.353 . S
C976 H1034 0.930 . S
C977 N973 1.279 . S
C977 C975 1.358 . S
C977 H1035 0.930 . S
C978 C981 1.348 . S
C978 C982 1.356 . S
C978 O1029 1.325 . S
C979 N980 1.279 . S
C979 C982 1.358 . S
C979 H1036 0.930 . S
N980 C979 1.279 . S
N980 C983 1.314 . S
C981 C978 1.348 . S
C981 C983 1.353 . S
C981 H1037 0.929 . S
C982 C978 1.356 . S
C982 C979 1.358 . S
C982 H1038 0.930 . S
C983 N980 1.314 . S
C983 C981 1.353 . S
C983 H1039 0.930 . S
C984 N985 1.314 . S
C984 C989 1.353 . S
C984 H990 0.930 . S
N985 Li968 1.990 . S
N985 C984 1.314 . S
N985 C987 1.279 . S
C986 C987 1.358 . S
C986 C988 1.356 . S
C986 H1040 0.930 . S
C987 N985 1.279 . S
C987 C986 1.358 . S
C987 H991 0.930 1_556 S
C988 C986 1.356 . S
C988 C989 1.348 . S
C989 C984 1.353 . S
C989 C988 1.348 . S
C989 H1041 0.929 . S
H990 C984 0.930 . S
H991 C987 0.930 1_554 S
C992 N993 1.314 . S
C992 C994 1.353 . S
C992 H998 0.930 . S
N993 Li969 1.990 . S
N993 C992 1.314 . S
N993 C996 1.279 . S
C994 C992 1.353 . S
C994 C997 1.348 . S
C994 H1042 0.929 . S
C995 C996 1.358 . S
C995 C997 1.356 . S
C995 H1043 0.930 . S
C996 N993 1.279 . S
C996 C995 1.358 . S
C996 H999 0.930 . S
C997 C994 1.348 . S
C997 C995 1.356 . S
H998 C992 0.930 . S
H999 C996 0.930 . S
C1000 C1002 1.348 . S
C1000 C1003 1.356 . S
C1000 O1030 1.325 . S
N1001 C1004 1.314 . S
N1001 C1005 1.279 . S
C1002 C1000 1.348 . S
C1002 C1004 1.353 . S
C1002 H1044 0.929 . S
C1003 C1000 1.356 . S
C1003 C1005 1.358 . S
C1003 H1045 0.930 . S
C1004 N1001 1.314 . S
C1004 C1002 1.353 . S
C1004 H1046 0.930 . S
C1005 N1001 1.279 . S
C1005 C1003 1.358 . S
C1005 H1047 0.930 . S
C1006 C1007 1.348 . S
C1006 C1008 1.356 . S
C1006 O1031 1.325 . S
C1007 C1006 1.348 . S
C1007 C1009 1.353 . S
C1007 H1048 0.929 . S
C1008 C1006 1.356 . S
C1008 C1010 1.358 . S
C1008 H1049 0.930 . S
C1009 C1007 1.353 . S
C1009 N1011 1.314 . S
C1009 H1050 0.930 . S
C1010 C1008 1.358 . S
C1010 N1011 1.279 . S
C1010 H1051 0.930 . S
N1011 C1009 1.314 . S
N1011 C1010 1.279 . S
C1012 C1014 1.353 . S
C1012 N1015 1.314 . S
C1012 H1018 0.930 . S
C1013 N1015 1.279 . S
C1013 C1016 1.358 . S
C1013 H1019 0.930 1_554 S
C1014 C1012 1.353 . S
C1014 C1017 1.348 . S
C1014 H1052 0.929 . S
N1015 Li970 1.990 . S
N1015 C1012 1.314 . S
N1015 C1013 1.279 . S
C1016 C1013 1.358 . S
C1016 C1017 1.356 . S
C1016 H1053 0.930 . S
C1017 C1014 1.348 . S
C1017 C1016 1.356 . S
H1018 C1012 0.930 . S
H1019 C1013 0.930 1_556 S
C1020 N1021 1.314 . S
C1020 C1022 1.353 . S
C1020 H1026 0.930 . S
N1021 Li971 1.990 . S
N1021 C1020 1.314 . S
N1021 C1024 1.279 . S
C1022 C1020 1.353 . S
C1022 C1025 1.348 . S
C1022 H1054 0.929 . S
C1023 C1024 1.358 . S
C1023 C1025 1.356 . S
C1023 H1055 0.930 . S
C1024 N1021 1.279 . S
C1024 C1023 1.358 . S
C1024 H1027 0.930 . S
C1025 C1022 1.348 . S
C1025 C1023 1.356 . S
H1026 C1020 0.930 . S
H1027 C1024 0.930 . S
O1028 Li968 1.956 1_554 S
O1028 Li969 1.970 . S
O1028 Li970 1.961 . S
O1028 C972 1.325 . S
O1029 Li968 1.970 . S
O1029 Li969 1.956 1_556 S
O1029 Li971 1.961 . S
O1029 C978 1.325 . S
O1030 Li968 1.961 . S
O1030 Li970 1.956 1_556 S
O1030 Li971 1.970 . S
O1030 C1000 1.325 . S
O1031 Li969 1.961 . S
O1031 Li970 1.970 . S
O1031 Li971 1.956 1_554 S
O1031 C1006 1.325 . S
H1032 C974 0.929 . S
H1033 C975 0.930 . S
H1034 C976 0.930 . S
H1035 C977 0.930 . S
H1036 C979 0.930 . S
H1037 C981 0.929 . S
H1038 C982 0.930 . S
H1039 C983 0.930 . S
H1040 C986 0.930 . S
H1041 C989 0.929 . S
H1042 C994 0.929 . S
H1043 C995 0.930 . S
H1044 C1002 0.929 . S
H1045 C1003 0.930 . S
H1046 C1004 0.930 . S
H1047 C1005 0.930 . S
H1048 C1007 0.929 . S
H1049 C1008 0.930 . S
H1050 C1009 0.930 . S
H1051 C1010 0.930 . S
H1052 C1014 0.929 . S
H1053 C1016 0.930 . S
H1054 C1022 0.929 . S
H1055 C1023 0.930 . S
Li1056 N1073 1.990 . S
Li1056 O1116 1.956 . S
Li1056 O1117 1.970 . S
Li1056 O1118 1.961 1_554 S
Li1057 N1081 1.990 . S
Li1057 O1116 1.970 . S
Li1057 O1117 1.956 . S
Li1057 O1119 1.961 1_554 S
Li1058 N1103 1.990 . S
Li1058 O1116 1.961 1_556 S
Li1058 O1118 1.956 . S
Li1058 O1119 1.970 . S
Li1059 N1109 1.990 . S
Li1059 O1117 1.961 1_556 S
Li1059 O1118 1.970 . S
Li1059 O1119 1.956 . S
C1060 C1062 1.348 . S
C1060 C1063 1.356 . S
C1060 O1116 1.325 . S
N1061 C1064 1.314 . S
N1061 C1065 1.279 . S
C1062 C1060 1.348 . S
C1062 C1064 1.353 . S
C1062 H1120 0.929 . S
C1063 C1060 1.356 . S
C1063 C1065 1.358 . S
C1063 H1121 0.930 . S
C1064 N1061 1.314 . S
C1064 C1062 1.353 . S
C1064 H1122 0.930 . S
C1065 N1061 1.279 . S
C1065 C1063 1.358 . S
C1065 H1123 0.930 . S
C1066 C1069 1.348 . S
C1066 C1070 1.356 . S
C1066 O1117 1.325 . S
C1067 N1068 1.279 . S
C1067 C1070 1.358 . S
C1067 H1124 0.930 . S
N1068 C1067 1.279 . S
N1068 C1071 1.314 . S
C1069 C1066 1.348 . S
C1069 C1071 1.353 . S
C1069 H1125 0.929 . S
C1070 C1066 1.356 . S
C1070 C1067 1.358 . S
C1070 H1126 0.930 . S
C1071 N1068 1.314 . S
C1071 C1069 1.353 . S
C1071 H1127 0.930 . S
C1072 N1073 1.314 . S
C1072 C1077 1.353 . S
C1072 H1078 0.930 . S
N1073 Li1056 1.990 . S
N1073 C1072 1.314 . S
N1073 C1075 1.279 . S
C1074 C1075 1.358 . S
C1074 C1076 1.356 . S
C1074 H1128 0.930 . S
C1075 N1073 1.279 . S
C1075 C1074 1.358 . S
C1075 H1079 0.930 . S
C1076 C1074 1.356 . S
C1076 C1077 1.348 . S
C1077 C1072 1.353 . S
C1077 C1076 1.348 . S
C1077 H1129 0.929 . S
H1078 C1072 0.930 . S
H1079 C1075 0.930 . S
C1080 N1081 1.314 . S
C1080 C1082 1.353 . S
C1080 H1086 0.930 1_554 S
N1081 Li1057 1.990 . S
N1081 C1080 1.314 . S
N1081 C1084 1.279 . S
C1082 C1080 1.353 . S
C1082 C1085 1.348 . S
C1082 H1130 0.929 . S
C1083 C1084 1.358 . S
C1083 C1085 1.356 . S
C1083 H1131 0.930 . S
C1084 N1081 1.279 . S
C1084 C1083 1.358 . S
C1084 H1087 0.930 . S
C1085 C1082 1.348 . S
C1085 C1083 1.356 . S
H1086 C1080 0.930 1_556 S
H1087 C1084 0.930 . S
C1088 C1090 1.348 . S
C1088 C1091 1.356 . S
C1088 O1118 1.325 . S
N1089 C1092 1.314 . S
N1089 C1093 1.279 . S
C1090 C1088 1.348 . S
C1090 C1092 1.353 . S
C1090 H1132 0.929 . S
C1091 C1088 1.356 . S
C1091 C1093 1.358 . S
C1091 H1133 0.930 . S
C1092 N1089 1.314 . S
C1092 C1090 1.353 . S
C1092 H1134 0.930 . S
C1093 N1089 1.279 . S
C1093 C1091 1.358 . S
C1093 H1135 0.930 . S
C1094 C1095 1.348 . S
C1094 C1096 1.356 . S
C1094 O1119 1.325 . S
C1095 C1094 1.348 . S
C1095 C1097 1.353 . S
C1095 H1136 0.929 . S
C1096 C1094 1.356 . S
C1096 C1098 1.358 . S
C1096 H1137 0.930 . S
C1097 C1095 1.353 . S
C1097 N1099 1.314 . S
C1097 H1138 0.930 . S
C1098 C1096 1.358 . S
C1098 N1099 1.279 . S
C1098 H1139 0.930 . S
N1099 C1097 1.314 . S
N1099 C1098 1.279 . S
C1100 C1102 1.353 . S
C1100 N1103 1.314 . S
C1100 H1106 0.930 . S
C1101 N1103 1.279 . S
C1101 C1104 1.358 . S
C1101 H1107 0.930 . S
C1102 C1100 1.353 . S
C1102 C1105 1.348 . S
C1102 H1140 0.929 . S
N1103 Li1058 1.990 . S
N1103 C1100 1.314 . S
N1103 C1101 1.279 . S
C1104 C1101 1.358 . S
C1104 C1105 1.356 . S
C1104 H1141 0.930 . S
C1105 C1102 1.348 . S
C1105 C1104 1.356 . S
H1106 C1100 0.930 . S
H1107 C1101 0.930 . S
C1108 N1109 1.314 . S
C1108 C1110 1.353 . S
C1108 H1114 0.930 1_556 S
N1109 Li1059 1.990 . S
N1109 C1108 1.314 . S
N1109 C1112 1.279 . S
C1110 C1108 1.353 . S
C1110 C1113 1.348 . S
C1110 H1142 0.929 . S
C1111 C1112 1.358 . S
C1111 C1113 1.356 . S
C1111 H1143 0.930 . S
C1112 N1109 1.279 . S
C1112 C1111 1.358 . S
C1112 H1115 0.930 . S
C1113 C1110 1.348 . S
C1113 C1111 1.356 . S
H1114 C1108 0.930 1_554 S
H1115 C1112 0.930 . S
O1116 Li1056 1.956 . S
O1116 Li1057 1.970 . S
O1116 Li1058 1.961 1_554 S
O1116 C1060 1.325 . S
O1117 Li1056 1.970 . S
O1117 Li1057 1.956 . S
O1117 Li1059 1.961 1_554 S
O1117 C1066 1.325 . S
O1118 Li1056 1.961 1_556 S
O1118 Li1058 1.956 . S
O1118 Li1059 1.970 . S
O1118 C1088 1.325 . S
O1119 Li1057 1.961 1_556 S
O1119 Li1058 1.970 . S
O1119 Li1059 1.956 . S
O1119 C1094 1.325 . S
H1120 C1062 0.929 . S
H1121 C1063 0.930 . S
H1122 C1064 0.930 . S
H1123 C1065 0.930 . S
H1124 C1067 0.930 . S
H1125 C1069 0.929 . S
H1126 C1070 0.930 . S
H1127 C1071 0.930 . S
H1128 C1074 0.930 . S
H1129 C1077 0.929 . S
H1130 C1082 0.929 . S
H1131 C1083 0.930 . S
H1132 C1090 0.929 . S
H1133 C1091 0.930 . S
H1134 C1092 0.930 . S
H1135 C1093 0.930 . S
H1136 C1095 0.929 . S
H1137 C1096 0.930 . S
H1138 C1097 0.930 . S
H1139 C1098 0.930 . S
H1140 C1102 0.929 . S
H1141 C1104 0.930 . S
H1142 C1110 0.929 . S
H1143 C1111 0.930 . S
Li1144 N1161 1.990 . S
Li1144 O1204 1.956 . S
Li1144 O1205 1.970 . S
Li1144 O1206 1.961 1_554 S
Li1145 N1169 1.990 . S
Li1145 O1204 1.970 . S
Li1145 O1205 1.956 . S
Li1145 O1207 1.961 1_554 S
Li1146 N1191 1.990 . S
Li1146 O1204 1.961 1_556 S
Li1146 O1206 1.956 . S
Li1146 O1207 1.970 . S
Li1147 N1197 1.990 . S
Li1147 O1205 1.961 1_556 S
Li1147 O1206 1.970 . S
Li1147 O1207 1.956 . S
C1148 C1150 1.348 . S
C1148 C1151 1.356 . S
C1148 O1204 1.325 . S
N1149 C1152 1.314 . S
N1149 C1153 1.279 . S
C1150 C1148 1.348 . S
C1150 C1152 1.353 . S
C1150 H1208 0.929 . S
C1151 C1148 1.356 . S
C1151 C1153 1.358 . S
C1151 H1209 0.930 . S
C1152 N1149 1.314 . S
C1152 C1150 1.353 . S
C1152 H1210 0.930 . S
C1153 N1149 1.279 . S
C1153 C1151 1.358 . S
C1153 H1211 0.930 . S
C1154 C1157 1.348 . S
C1154 C1158 1.356 . S
C1154 O1205 1.325 . S
C1155 N1156 1.279 . S
C1155 C1158 1.358 . S
C1155 H1212 0.930 . S
N1156 C1155 1.279 . S
N1156 C1159 1.314 . S
C1157 C1154 1.348 . S
C1157 C1159 1.353 . S
C1157 H1213 0.929 . S
C1158 C1154 1.356 . S
C1158 C1155 1.358 . S
C1158 H1214 0.930 . S
C1159 N1156 1.314 . S
C1159 C1157 1.353 . S
C1159 H1215 0.930 . S
C1160 N1161 1.314 . S
C1160 C1165 1.353 . S
C1160 H1166 0.930 1_554 S
N1161 Li1144 1.990 . S
N1161 C1160 1.314 . S
N1161 C1163 1.279 . S
C1162 C1163 1.358 . S
C1162 C1164 1.356 . S
C1162 H1216 0.930 . S
C1163 N1161 1.279 . S
C1163 C1162 1.358 . S
C1163 H1167 0.930 . S
C1164 C1162 1.356 . S
C1164 C1165 1.348 . S
C1165 C1160 1.353 . S
C1165 C1164 1.348 . S
C1165 H1217 0.929 . S
H1166 C1160 0.930 1_556 S
H1167 C1163 0.930 . S
C1168 N1169 1.314 . S
C1168 C1170 1.353 . S
C1168 H1174 0.930 . S
N1169 Li1145 1.990 . S
N1169 C1168 1.314 . S
N1169 C1172 1.279 . S
C1170 C1168 1.353 . S
C1170 C1173 1.348 . S
C1170 H1218 0.929 . S
C1171 C1172 1.358 . S
C1171 C1173 1.356 . S
C1171 H1219 0.930 . S
C1172 N1169 1.279 . S
C1172 C1171 1.358 . S
C1172 H1175 0.930 . S
C1173 C1170 1.348 . S
C1173 C1171 1.356 . S
H1174 C1168 0.930 . S
H1175 C1172 0.930 . S
C1176 C1178 1.348 . S
C1176 C1179 1.356 . S
C1176 O1206 1.325 . S
N1177 C1180 1.314 . S
N1177 C1181 1.279 . S
C1178 C1176 1.348 . S
C1178 C1180 1.353 . S
C1178 H1220 0.929 . S
C1179 C1176 1.356 . S
C1179 C1181 1.358 . S
C1179 H1221 0.930 . S
C1180 N1177 1.314 . S
C1180 C1178 1.353 . S
C1180 H1222 0.930 . S
C1181 N1177 1.279 . S
C1181 C1179 1.358 . S
C1181 H1223 0.930 . S
C1182 C1183 1.348 . S
C1182 C1184 1.356 . S
C1182 O1207 1.325 . S
C1183 C1182 1.348 . S
C1183 C1185 1.353 . S
C1183 H1224 0.929 . S
C1184 C1182 1.356 . S
C1184 C1186 1.358 . S
C1184 H1225 0.930 . S
C1185 C1183 1.353 . S
C1185 N1187 1.314 . S
C1185 H1226 0.930 . S
C1186 C1184 1.358 . S
C1186 N1187 1.279 . S
C1186 H1227 0.930 . S
N1187 C1185 1.314 . S
N1187 C1186 1.279 . S
C1188 C1190 1.353 . S
C1188 N1191 1.314 . S
C1188 H1194 0.930 1_556 S
C1189 N1191 1.279 . S
C1189 C1192 1.358 . S
C1189 H1195 0.930 . S
C1190 C1188 1.353 . S
C1190 C1193 1.348 . S
C1190 H1228 0.929 . S
N1191 Li1146 1.990 . S
N1191 C1188 1.314 . S
N1191 C1189 1.279 . S
C1192 C1189 1.358 . S
C1192 C1193 1.356 . S
C1192 H1229 0.930 . S
C1193 C1190 1.348 . S
C1193 C1192 1.356 . S
H1194 C1188 0.930 1_554 S
H1195 C1189 0.930 . S
C1196 N1197 1.314 . S
C1196 C1198 1.353 . S
C1196 H1202 0.930 . S
N1197 Li1147 1.990 . S
N1197 C1196 1.314 . S
N1197 C1200 1.279 . S
C1198 C1196 1.353 . S
C1198 C1201 1.348 . S
C1198 H1230 0.929 . S
C1199 C1200 1.358 . S
C1199 C1201 1.356 . S
C1199 H1231 0.930 . S
C1200 N1197 1.279 . S
C1200 C1199 1.358 . S
C1200 H1203 0.930 . S
C1201 C1198 1.348 . S
C1201 C1199 1.356 . S
H1202 C1196 0.930 . S
H1203 C1200 0.930 . S
O1204 Li1144 1.956 . S
O1204 Li1145 1.970 . S
O1204 Li1146 1.961 1_554 S
O1204 C1148 1.325 . S
O1205 Li1144 1.970 . S
O1205 Li1145 1.956 . S
O1205 Li1147 1.961 1_554 S
O1205 C1154 1.325 . S
O1206 Li1144 1.961 1_556 S
O1206 Li1146 1.956 . S
O1206 Li1147 1.970 . S
O1206 C1176 1.325 . S
O1207 Li1145 1.961 1_556 S
O1207 Li1146 1.970 . S
O1207 Li1147 1.956 . S
O1207 C1182 1.325 . S
H1208 C1150 0.929 . S
H1209 C1151 0.930 . S
H1210 C1152 0.930 . S
H1211 C1153 0.930 . S
H1212 C1155 0.930 . S
H1213 C1157 0.929 . S
H1214 C1158 0.930 . S
H1215 C1159 0.930 . S
H1216 C1162 0.930 . S
H1217 C1165 0.929 . S
H1218 C1170 0.929 . S
H1219 C1171 0.930 . S
H1220 C1178 0.929 . S
H1221 C1179 0.930 . S
H1222 C1180 0.930 . S
H1223 C1181 0.930 . S
H1224 C1183 0.929 . S
H1225 C1184 0.930 . S
H1226 C1185 0.930 . S
H1227 C1186 0.930 . S
H1228 C1190 0.929 . S
H1229 C1192 0.930 . S
H1230 C1198 0.929 . S
H1231 C1199 0.930 . S
Li1232 N1249 1.990 . S
Li1232 O1292 1.956 . S
Li1232 O1293 1.970 . S
Li1232 O1294 1.961 . S
Li1233 N1257 1.990 . S
Li1233 O1292 1.970 . S
Li1233 O1293 1.956 . S
Li1233 O1295 1.961 . S
Li1234 N1279 1.990 . S
Li1234 O1292 1.961 . S
Li1234 O1294 1.956 . S
Li1234 O1295 1.970 . S
Li1235 N1285 1.990 . S
Li1235 O1293 1.961 . S
Li1235 O1294 1.970 . S
Li1235 O1295 1.956 . S
C1236 C1238 1.348 . S
C1236 C1239 1.356 . S
C1236 O1292 1.325 . S
N1237 C1240 1.314 . S
N1237 C1241 1.279 . S
C1238 C1236 1.348 . S
C1238 C1240 1.353 . S
C1238 H1296 0.929 . S
C1239 C1236 1.356 . S
C1239 C1241 1.358 . S
C1239 H1297 0.930 . S
C1240 N1237 1.314 . S
C1240 C1238 1.353 . S
C1240 H1298 0.930 . S
C1241 N1237 1.279 . S
C1241 C1239 1.358 . S
C1241 H1299 0.930 . S
C1242 C1245 1.348 . S
C1242 C1246 1.356 . S
C1242 O1293 1.325 . S
C1243 N1244 1.279 . S
C1243 C1246 1.358 . S
C1243 H1300 0.930 . S
N1244 C1243 1.279 . S
N1244 C1247 1.314 . S
C1245 C1242 1.348 . S
C1245 C1247 1.353 . S
C1245 H1301 0.929 . S
C1246 C1242 1.356 . S
C1246 C1243 1.358 . S
C1246 H1302 0.930 . S
C1247 N1244 1.314 . S
C1247 C1245 1.353 . S
C1247 H1303 0.930 . S
C1248 N1249 1.314 . S
C1248 C1253 1.353 . S
C1248 H1254 0.930 . S
N1249 Li1232 1.990 . S
N1249 C1248 1.314 . S
N1249 C1251 1.279 . S
C1250 C1251 1.358 . S
C1250 C1252 1.356 . S
C1250 H1304 0.930 . S
C1251 N1249 1.279 . S
C1251 C1250 1.358 . S
C1251 H1255 0.930 . S
C1252 C1250 1.356 . S
C1252 C1253 1.348 . S
C1253 C1248 1.353 . S
C1253 C1252 1.348 . S
C1253 H1305 0.929 . S
H1254 C1248 0.930 . S
H1255 C1251 0.930 . S
C1256 N1257 1.314 . S
C1256 C1258 1.353 . S
C1256 H1262 0.930 . S
N1257 Li1233 1.990 . S
N1257 C1256 1.314 . S
N1257 C1260 1.279 . S
C1258 C1256 1.353 . S
C1258 C1261 1.348 . S
C1258 H1306 0.929 . S
C1259 C1260 1.358 . S
C1259 C1261 1.356 . S
C1259 H1307 0.930 . S
C1260 N1257 1.279 . S
C1260 C1259 1.358 . S
C1260 H1263 0.930 . S
C1261 C1258 1.348 . S
C1261 C1259 1.356 . S
H1262 C1256 0.930 . S
H1263 C1260 0.930 . S
C1264 C1266 1.348 . S
C1264 C1267 1.356 . S
C1264 O1294 1.325 . S
N1265 C1268 1.314 . S
N1265 C1269 1.279 . S
C1266 C1264 1.348 . S
C1266 C1268 1.353 . S
C1266 H1308 0.929 . S
C1267 C1264 1.356 . S
C1267 C1269 1.358 . S
C1267 H1309 0.930 . S
C1268 N1265 1.314 . S
C1268 C1266 1.353 . S
C1268 H1310 0.930 . S
C1269 N1265 1.279 . S
C1269 C1267 1.358 . S
C1269 H1311 0.930 . S
C1270 C1271 1.348 . S
C1270 C1272 1.356 . S
C1270 O1295 1.325 . S
C1271 C1270 1.348 . S
C1271 C1273 1.353 . S
C1271 H1312 0.929 . S
C1272 C1270 1.356 . S
C1272 C1274 1.358 . S
C1272 H1313 0.930 . S
C1273 C1271 1.353 . S
C1273 N1275 1.314 . S
C1273 H1314 0.930 . S
C1274 C1272 1.358 . S
C1274 N1275 1.279 . S
C1274 H1315 0.930 . S
N1275 C1273 1.314 . S
N1275 C1274 1.279 . S
C1276 C1278 1.353 . S
C1276 N1279 1.314 . S
C1276 H1282 0.930 . S
C1277 N1279 1.279 . S
C1277 C1280 1.358 . S
C1277 H1283 0.930 . S
C1278 C1276 1.353 . S
C1278 C1281 1.348 . S
C1278 H1316 0.929 . S
N1279 Li1234 1.990 . S
N1279 C1276 1.314 . S
N1279 C1277 1.279 . S
C1280 C1277 1.358 . S
C1280 C1281 1.356 . S
C1280 H1317 0.930 . S
C1281 C1278 1.348 . S
C1281 C1280 1.356 . S
H1282 C1276 0.930 . S
H1283 C1277 0.930 . S
C1284 N1285 1.314 . S
C1284 C1286 1.353 . S
C1284 H1290 0.930 . S
N1285 Li1235 1.990 . S
N1285 C1284 1.314 . S
N1285 C1288 1.279 . S
C1286 C1284 1.353 . S
C1286 C1289 1.348 . S
C1286 H1318 0.929 . S
C1287 C1288 1.358 . S
C1287 C1289 1.356 . S
C1287 H1319 0.930 . S
C1288 N1285 1.279 . S
C1288 C1287 1.358 . S
C1288 H1291 0.930 . S
C1289 C1286 1.348 . S
C1289 C1287 1.356 . S
H1290 C1284 0.930 . S
H1291 C1288 0.930 . S
O1292 Li1232 1.956 . S
O1292 Li1233 1.970 . S
O1292 Li1234 1.961 . S
O1292 C1236 1.325 . S
O1293 Li1232 1.970 . S
O1293 Li1233 1.956 . S
O1293 Li1235 1.961 . S
O1293 C1242 1.325 . S
O1294 Li1232 1.961 . S
O1294 Li1234 1.956 . S
O1294 Li1235 1.970 . S
O1294 C1264 1.325 . S
O1295 Li1233 1.961 . S
O1295 Li1234 1.970 . S
O1295 Li1235 1.956 . S
O1295 C1270 1.325 . S
H1296 C1238 0.929 . S
H1297 C1239 0.930 . S
H1298 C1240 0.930 . S
H1299 C1241 0.930 . S
H1300 C1243 0.930 . S
H1301 C1245 0.929 . S
H1302 C1246 0.930 . S
H1303 C1247 0.930 . S
H1304 C1250 0.930 . S
H1305 C1253 0.929 . S
H1306 C1258 0.929 . S
H1307 C1259 0.930 . S
H1308 C1266 0.929 . S
H1309 C1267 0.930 . S
H1310 C1268 0.930 . S
H1311 C1269 0.930 . S
H1312 C1271 0.929 . S
H1313 C1272 0.930 . S
H1314 C1273 0.930 . S
H1315 C1274 0.930 . S
H1316 C1278 0.929 . S
H1317 C1280 0.930 . S
H1318 C1286 0.929 . S
H1319 C1287 0.930 . S
Li1320 N1337 1.990 . S
Li1320 O1380 1.956 . S
Li1320 O1381 1.970 . S
Li1320 O1382 1.961 . S
Li1321 N1345 1.990 . S
Li1321 O1380 1.970 . S
Li1321 O1381 1.956 . S
Li1321 O1383 1.961 . S
Li1322 N1367 1.990 . S
Li1322 O1380 1.961 . S
Li1322 O1382 1.956 . S
Li1322 O1383 1.970 . S
Li1323 N1373 1.990 . S
Li1323 O1381 1.961 . S
Li1323 O1382 1.970 . S
Li1323 O1383 1.956 . S
C1324 C1326 1.348 . S
C1324 C1327 1.356 . S
C1324 O1380 1.325 . S
N1325 C1328 1.314 . S
N1325 C1329 1.279 . S
C1326 C1324 1.348 . S
C1326 C1328 1.353 . S
C1326 H1384 0.929 . S
C1327 C1324 1.356 . S
C1327 C1329 1.358 . S
C1327 H1385 0.930 . S
C1328 N1325 1.314 . S
C1328 C1326 1.353 . S
C1328 H1386 0.930 . S
C1329 N1325 1.279 . S
C1329 C1327 1.358 . S
C1329 H1387 0.930 . S
C1330 C1333 1.348 . S
C1330 C1334 1.356 . S
C1330 O1381 1.325 . S
C1331 N1332 1.279 . S
C1331 C1334 1.358 . S
C1331 H1388 0.930 . S
N1332 C1331 1.279 . S
N1332 C1335 1.314 . S
C1333 C1330 1.348 . S
C1333 C1335 1.353 . S
C1333 H1389 0.929 . S
C1334 C1330 1.356 . S
C1334 C1331 1.358 . S
C1334 H1390 0.930 . S
C1335 N1332 1.314 . S
C1335 C1333 1.353 . S
C1335 H1391 0.930 . S
C1336 N1337 1.314 . S
C1336 C1341 1.353 . S
C1336 H1342 0.930 . S
N1337 Li1320 1.990 . S
N1337 C1336 1.314 . S
N1337 C1339 1.279 . S
C1338 C1339 1.358 . S
C1338 C1340 1.356 . S
C1338 H1392 0.930 . S
C1339 N1337 1.279 . S
C1339 C1338 1.358 . S
C1339 H1343 0.930 . S
C1340 C1338 1.356 . S
C1340 C1341 1.348 . S
C1341 C1336 1.353 . S
C1341 C1340 1.348 . S
C1341 H1393 0.929 . S
H1342 C1336 0.930 . S
H1343 C1339 0.930 . S
C1344 N1345 1.314 . S
C1344 C1346 1.353 . S
C1344 H1350 0.930 . S
N1345 Li1321 1.990 . S
N1345 C1344 1.314 . S
N1345 C1348 1.279 . S
C1346 C1344 1.353 . S
C1346 C1349 1.348 . S
C1346 H1394 0.929 . S
C1347 C1348 1.358 . S
C1347 C1349 1.356 . S
C1347 H1395 0.930 . S
C1348 N1345 1.279 . S
C1348 C1347 1.358 . S
C1348 H1351 0.930 . S
C1349 C1346 1.348 . S
C1349 C1347 1.356 . S
H1350 C1344 0.930 . S
H1351 C1348 0.930 . S
C1352 C1354 1.348 . S
C1352 C1355 1.356 . S
C1352 O1382 1.325 . S
N1353 C1356 1.314 . S
N1353 C1357 1.279 . S
C1354 C1352 1.348 . S
C1354 C1356 1.353 . S
C1354 H1396 0.929 . S
C1355 C1352 1.356 . S
C1355 C1357 1.358 . S
C1355 H1397 0.930 . S
C1356 N1353 1.314 . S
C1356 C1354 1.353 . S
C1356 H1398 0.930 . S
C1357 N1353 1.279 . S
C1357 C1355 1.358 . S
C1357 H1399 0.930 . S
C1358 C1359 1.348 . S
C1358 C1360 1.356 . S
C1358 O1383 1.325 . S
C1359 C1358 1.348 . S
C1359 C1361 1.353 . S
C1359 H1400 0.929 . S
C1360 C1358 1.356 . S
C1360 C1362 1.358 . S
C1360 H1401 0.930 . S
C1361 C1359 1.353 . S
C1361 N1363 1.314 . S
C1361 H1402 0.930 . S
C1362 C1360 1.358 . S
C1362 N1363 1.279 . S
C1362 H1403 0.930 . S
N1363 C1361 1.314 . S
N1363 C1362 1.279 . S
C1364 C1366 1.353 . S
C1364 N1367 1.314 . S
C1364 H1370 0.930 . S
C1365 N1367 1.279 . S
C1365 C1368 1.358 . S
C1365 H1371 0.930 . S
C1366 C1364 1.353 . S
C1366 C1369 1.348 . S
C1366 H1404 0.929 . S
N1367 Li1322 1.990 . S
N1367 C1364 1.314 . S
N1367 C1365 1.279 . S
C1368 C1365 1.358 . S
C1368 C1369 1.356 . S
C1368 H1405 0.930 . S
C1369 C1366 1.348 . S
C1369 C1368 1.356 . S
H1370 C1364 0.930 . S
H1371 C1365 0.930 . S
C1372 N1373 1.314 . S
C1372 C1374 1.353 . S
C1372 H1378 0.930 . S
N1373 Li1323 1.990 . S
N1373 C1372 1.314 . S
N1373 C1376 1.279 . S
C1374 C1372 1.353 . S
C1374 C1377 1.348 . S
C1374 H1406 0.929 . S
C1375 C1376 1.358 . S
C1375 C1377 1.356 . S
C1375 H1407 0.930 . S
C1376 N1373 1.279 . S
C1376 C1375 1.358 . S
C1376 H1379 0.930 . S
C1377 C1374 1.348 . S
C1377 C1375 1.356 . S
H1378 C1372 0.930 . S
H1379 C1376 0.930 . S
O1380 Li1320 1.956 . S
O1380 Li1321 1.970 . S
O1380 Li1322 1.961 . S
O1380 C1324 1.325 . S
O1381 Li1320 1.970 . S
O1381 Li1321 1.956 . S
O1381 Li1323 1.961 . S
O1381 C1330 1.325 . S
O1382 Li1320 1.961 . S
O1382 Li1322 1.956 . S
O1382 Li1323 1.970 . S
O1382 C1352 1.325 . S
O1383 Li1321 1.961 . S
O1383 Li1322 1.970 . S
O1383 Li1323 1.956 . S
O1383 C1358 1.325 . S
H1384 C1326 0.929 . S
H1385 C1327 0.930 . S
H1386 C1328 0.930 . S
H1387 C1329 0.930 . S
H1388 C1331 0.930 . S
H1389 C1333 0.929 . S
H1390 C1334 0.930 . S
H1391 C1335 0.930 . S
H1392 C1338 0.930 . S
H1393 C1341 0.929 . S
H1394 C1346 0.929 . S
H1395 C1347 0.930 . S
H1396 C1354 0.929 . S
H1397 C1355 0.930 . S
H1398 C1356 0.930 . S
H1399 C1357 0.930 . S
H1400 C1359 0.929 . S
H1401 C1360 0.930 . S
H1402 C1361 0.930 . S
H1403 C1362 0.930 . S
H1404 C1366 0.929 . S
H1405 C1368 0.930 . S
H1406 C1374 0.929 . S
H1407 C1375 0.930 . S
Li1408 N1425 1.990 . S
Li1408 O1468 1.956 1_545 S
Li1408 O1469 1.970 . S
Li1408 O1470 1.961 . S
Li1409 N1433 1.990 . S
Li1409 O1468 1.970 . S
Li1409 O1469 1.956 1_565 S
Li1409 O1471 1.961 . S
Li1410 N1455 1.990 . S
Li1410 O1468 1.961 . S
Li1410 O1470 1.956 1_565 S
Li1410 O1471 1.970 . S
Li1411 N1461 1.990 . S
Li1411 O1469 1.961 . S
Li1411 O1470 1.970 . S
Li1411 O1471 1.956 1_545 S
C1412 C1414 1.348 . S
C1412 C1415 1.356 . S
C1412 O1468 1.325 . S
N1413 C1416 1.314 . S
N1413 C1417 1.279 . S
C1414 C1412 1.348 . S
C1414 C1416 1.353 . S
C1414 H1472 0.929 . S
C1415 C1412 1.356 . S
C1415 C1417 1.358 . S
C1415 H1473 0.930 . S
C1416 N1413 1.314 . S
C1416 C1414 1.353 . S
C1416 H1474 0.930 . S
C1417 N1413 1.279 . S
C1417 C1415 1.358 . S
C1417 H1475 0.930 . S
C1418 C1421 1.348 . S
C1418 C1422 1.356 . S
C1418 O1469 1.325 . S
C1419 N1420 1.279 . S
C1419 C1422 1.358 . S
C1419 H1476 0.930 . S
N1420 C1419 1.279 . S
N1420 C1423 1.314 . S
C1421 C1418 1.348 . S
C1421 C1423 1.353 . S
C1421 H1477 0.929 . S
C1422 C1418 1.356 . S
C1422 C1419 1.358 . S
C1422 H1478 0.930 . S
C1423 N1420 1.314 . S
C1423 C1421 1.353 . S
C1423 H1479 0.930 . S
C1424 N1425 1.314 . S
C1424 C1429 1.353 . S
C1424 H1430 0.930 . S
N1425 Li1408 1.990 . S
N1425 C1424 1.314 . S
N1425 C1427 1.279 . S
C1426 C1427 1.358 . S
C1426 C1428 1.356 . S
C1426 H1480 0.930 . S
C1427 N1425 1.279 . S
C1427 C1426 1.358 . S
C1427 H1431 0.930 . S
C1428 C1426 1.356 . S
C1428 C1429 1.348 . S
C1429 C1424 1.353 . S
C1429 C1428 1.348 . S
C1429 H1481 0.929 . S
H1430 C1424 0.930 . S
H1431 C1427 0.930 . S
C1432 N1433 1.314 . S
C1432 C1434 1.353 . S
C1432 H1438 0.930 . S
N1433 Li1409 1.990 . S
N1433 C1432 1.314 . S
N1433 C1436 1.279 . S
C1434 C1432 1.353 . S
C1434 C1437 1.348 . S
C1434 H1482 0.929 . S
C1435 C1436 1.358 . S
C1435 C1437 1.356 . S
C1435 H1483 0.930 . S
C1436 N1433 1.279 . S
C1436 C1435 1.358 . S
C1436 H1439 0.930 1_565 S
C1437 C1434 1.348 . S
C1437 C1435 1.356 . S
H1438 C1432 0.930 . S
H1439 C1436 0.930 1_545 S
C1440 C1442 1.348 . S
C1440 C1443 1.356 . S
C1440 O1470 1.325 . S
N1441 C1444 1.314 . S
N1441 C1445 1.279 . S
C1442 C1440 1.348 . S
C1442 C1444 1.353 . S
C1442 H1484 0.929 . S
C1443 C1440 1.356 . S
C1443 C1445 1.358 . S
C1443 H1485 0.930 . S
C1444 N1441 1.314 . S
C1444 C1442 1.353 . S
C1444 H1486 0.930 . S
C1445 N1441 1.279 . S
C1445 C1443 1.358 . S
C1445 H1487 0.930 . S
C1446 C1447 1.348 . S
C1446 C1448 1.356 . S
C1446 O1471 1.325 . S
C1447 C1446 1.348 . S
C1447 C1449 1.353 . S
C1447 H1488 0.929 . S
C1448 C1446 1.356 . S
C1448 C1450 1.358 . S
C1448 H1489 0.930 . S
C1449 C1447 1.353 . S
C1449 N1451 1.314 . S
C1449 H1490 0.930 . S
C1450 C1448 1.358 . S
C1450 N1451 1.279 . S
C1450 H1491 0.930 . S
N1451 C1449 1.314 . S
N1451 C1450 1.279 . S
C1452 C1454 1.353 . S
C1452 N1455 1.314 . S
C1452 H1458 0.930 . S
C1453 N1455 1.279 . S
C1453 C1456 1.358 . S
C1453 H1459 0.930 . S
C1454 C1452 1.353 . S
C1454 C1457 1.348 . S
C1454 H1492 0.929 . S
N1455 Li1410 1.990 . S
N1455 C1452 1.314 . S
N1455 C1453 1.279 . S
C1456 C1453 1.358 . S
C1456 C1457 1.356 . S
C1456 H1493 0.930 . S
C1457 C1454 1.348 . S
C1457 C1456 1.356 . S
H1458 C1452 0.930 . S
H1459 C1453 0.930 . S
C1460 N1461 1.314 . S
C1460 C1462 1.353 . S
C1460 H1466 0.930 . S
N1461 Li1411 1.990 . S
N1461 C1460 1.314 . S
N1461 C1464 1.279 . S
C1462 C1460 1.353 . S
C1462 C1465 1.348 . S
C1462 H1494 0.929 . S
C1463 C1464 1.358 . S
C1463 C1465 1.356 . S
C1463 H1495 0.930 . S
C1464 N1461 1.279 . S
C1464 C1463 1.358 . S
C1464 H1467 0.930 1_545 S
C1465 C1462 1.348 . S
C1465 C1463 1.356 . S
H1466 C1460 0.930 . S
H1467 C1464 0.930 1_565 S
O1468 Li1408 1.956 1_565 S
O1468 Li1409 1.970 . S
O1468 Li1410 1.961 . S
O1468 C1412 1.325 . S
O1469 Li1408 1.970 . S
O1469 Li1409 1.956 1_545 S
O1469 Li1411 1.961 . S
O1469 C1418 1.325 . S
O1470 Li1408 1.961 . S
O1470 Li1410 1.956 1_545 S
O1470 Li1411 1.970 . S
O1470 C1440 1.325 . S
O1471 Li1409 1.961 . S
O1471 Li1410 1.970 . S
O1471 Li1411 1.956 1_565 S
O1471 C1446 1.325 . S
H1472 C1414 0.929 . S
H1473 C1415 0.930 . S
H1474 C1416 0.930 . S
H1475 C1417 0.930 . S
H1476 C1419 0.930 . S
H1477 C1421 0.929 . S
H1478 C1422 0.930 . S
H1479 C1423 0.930 . S
H1480 C1426 0.930 . S
H1481 C1429 0.929 . S
H1482 C1434 0.929 . S
H1483 C1435 0.930 . S
H1484 C1442 0.929 . S
H1485 C1443 0.930 . S
H1486 C1444 0.930 . S
H1487 C1445 0.930 . S
H1488 C1447 0.929 . S
H1489 C1448 0.930 . S
H1490 C1449 0.930 . S
H1491 C1450 0.930 . S
H1492 C1454 0.929 . S
H1493 C1456 0.930 . S
H1494 C1462 0.929 . S
H1495 C1463 0.930 . S
Li1496 N1513 1.990 . S
Li1496 O1556 1.956 . S
Li1496 O1557 1.970 . S
Li1496 O1558 1.961 . S
Li1497 N1521 1.990 . S
Li1497 O1556 1.970 . S
Li1497 O1557 1.956 . S
Li1497 O1559 1.961 . S
Li1498 N1543 1.990 . S
Li1498 O1556 1.961 . S
Li1498 O1558 1.956 . S
Li1498 O1559 1.970 . S
Li1499 N1549 1.990 . S
Li1499 O1557 1.961 . S
Li1499 O1558 1.970 . S
Li1499 O1559 1.956 . S
C1500 C1502 1.348 . S
C1500 C1503 1.356 . S
C1500 O1556 1.325 . S
N1501 C1504 1.314 . S
N1501 C1505 1.279 . S
C1502 C1500 1.348 . S
C1502 C1504 1.353 . S
C1502 H1560 0.929 . S
C1503 C1500 1.356 . S
C1503 C1505 1.358 . S
C1503 H1561 0.930 . S
C1504 N1501 1.314 . S
C1504 C1502 1.353 . S
C1504 H1562 0.930 . S
C1505 N1501 1.279 . S
C1505 C1503 1.358 . S
C1505 H1563 0.930 . S
C1506 C1509 1.348 . S
C1506 C1510 1.356 . S
C1506 O1557 1.325 . S
C1507 N1508 1.279 . S
C1507 C1510 1.358 . S
C1507 H1564 0.930 . S
N1508 C1507 1.279 . S
N1508 C1511 1.314 . S
C1509 C1506 1.348 . S
C1509 C1511 1.353 . S
C1509 H1565 0.929 . S
C1510 C1506 1.356 . S
C1510 C1507 1.358 . S
C1510 H1566 0.930 . S
C1511 N1508 1.314 . S
C1511 C1509 1.353 . S
C1511 H1567 0.930 . S
C1512 N1513 1.314 . S
C1512 C1517 1.353 . S
C1512 H1518 0.930 . S
N1513 Li1496 1.990 . S
N1513 C1512 1.314 . S
N1513 C1515 1.279 . S
C1514 C1515 1.358 . S
C1514 C1516 1.356 . S
C1514 H1568 0.930 . S
C1515 N1513 1.279 . S
C1515 C1514 1.358 . S
C1515 H1519 0.930 . S
C1516 C1514 1.356 . S
C1516 C1517 1.348 . S
C1517 C1512 1.353 . S
C1517 C1516 1.348 . S
C1517 H1569 0.929 . S
H1518 C1512 0.930 . S
H1519 C1515 0.930 . S
C1520 N1521 1.314 . S
C1520 C1522 1.353 . S
C1520 H1526 0.930 . S
N1521 Li1497 1.990 . S
N1521 C1520 1.314 . S
N1521 C1524 1.279 . S
C1522 C1520 1.353 . S
C1522 C1525 1.348 . S
C1522 H1570 0.929 . S
C1523 C1524 1.358 . S
C1523 C1525 1.356 . S
C1523 H1571 0.930 . S
C1524 N1521 1.279 . S
C1524 C1523 1.358 . S
C1524 H1527 0.930 . S
C1525 C1522 1.348 . S
C1525 C1523 1.356 . S
H1526 C1520 0.930 . S
H1527 C1524 0.930 . S
C1528 C1530 1.348 . S
C1528 C1531 1.356 . S
C1528 O1558 1.325 . S
N1529 C1532 1.314 . S
N1529 C1533 1.279 . S
C1530 C1528 1.348 . S
C1530 C1532 1.353 . S
C1530 H1572 0.929 . S
C1531 C1528 1.356 . S
C1531 C1533 1.358 . S
C1531 H1573 0.930 . S
C1532 N1529 1.314 . S
C1532 C1530 1.353 . S
C1532 H1574 0.930 . S
C1533 N1529 1.279 . S
C1533 C1531 1.358 . S
C1533 H1575 0.930 . S
C1534 C1535 1.348 . S
C1534 C1536 1.356 . S
C1534 O1559 1.325 . S
C1535 C1534 1.348 . S
C1535 C1537 1.353 . S
C1535 H1576 0.929 . S
C1536 C1534 1.356 . S
C1536 C1538 1.358 . S
C1536 H1577 0.930 . S
C1537 C1535 1.353 . S
C1537 N1539 1.314 . S
C1537 H1578 0.930 . S
C1538 C1536 1.358 . S
C1538 N1539 1.279 . S
C1538 H1579 0.930 . S
N1539 C1537 1.314 . S
N1539 C1538 1.279 . S
C1540 C1542 1.353 . S
C1540 N1543 1.314 . S
C1540 H1546 0.930 . S
C1541 N1543 1.279 . S
C1541 C1544 1.358 . S
C1541 H1547 0.930 . S
C1542 C1540 1.353 . S
C1542 C1545 1.348 . S
C1542 H1580 0.929 . S
N1543 Li1498 1.990 . S
N1543 C1540 1.314 . S
N1543 C1541 1.279 . S
C1544 C1541 1.358 . S
C1544 C1545 1.356 . S
C1544 H1581 0.930 . S
C1545 C1542 1.348 . S
C1545 C1544 1.356 . S
H1546 C1540 0.930 . S
H1547 C1541 0.930 . S
C1548 N1549 1.314 . S
C1548 C1550 1.353 . S
C1548 H1554 0.930 . S
N1549 Li1499 1.990 . S
N1549 C1548 1.314 . S
N1549 C1552 1.279 . S
C1550 C1548 1.353 . S
C1550 C1553 1.348 . S
C1550 H1582 0.929 . S
C1551 C1552 1.358 . S
C1551 C1553 1.356 . S
C1551 H1583 0.930 . S
C1552 N1549 1.279 . S
C1552 C1551 1.358 . S
C1552 H1555 0.930 . S
C1553 C1550 1.348 . S
C1553 C1551 1.356 . S
H1554 C1548 0.930 . S
H1555 C1552 0.930 . S
O1556 Li1496 1.956 . S
O1556 Li1497 1.970 . S
O1556 Li1498 1.961 . S
O1556 C1500 1.325 . S
O1557 Li1496 1.970 . S
O1557 Li1497 1.956 . S
O1557 Li1499 1.961 . S
O1557 C1506 1.325 . S
O1558 Li1496 1.961 . S
O1558 Li1498 1.956 . S
O1558 Li1499 1.970 . S
O1558 C1528 1.325 . S
O1559 Li1497 1.961 . S
O1559 Li1498 1.970 . S
O1559 Li1499 1.956 . S
O1559 C1534 1.325 . S
H1560 C1502 0.929 . S
H1561 C1503 0.930 . S
H1562 C1504 0.930 . S
H1563 C1505 0.930 . S
H1564 C1507 0.930 . S
H1565 C1509 0.929 . S
H1566 C1510 0.930 . S
H1567 C1511 0.930 . S
H1568 C1514 0.930 . S
H1569 C1517 0.929 . S
H1570 C1522 0.929 . S
H1571 C1523 0.930 . S
H1572 C1530 0.929 . S
H1573 C1531 0.930 . S
H1574 C1532 0.930 . S
H1575 C1533 0.930 . S
H1576 C1535 0.929 . S
H1577 C1536 0.930 . S
H1578 C1537 0.930 . S
H1579 C1538 0.930 . S
H1580 C1542 0.929 . S
H1581 C1544 0.930 . S
H1582 C1550 0.929 . S
H1583 C1551 0.930 . S
Li1584 N1601 1.990 . S
Li1584 O1644 1.956 . S
Li1584 O1645 1.970 . S
Li1584 O1646 1.961 . S
Li1585 N1609 1.990 . S
Li1585 O1644 1.970 . S
Li1585 O1645 1.956 . S
Li1585 O1647 1.961 . S
Li1586 N1631 1.990 . S
Li1586 O1644 1.961 . S
Li1586 O1646 1.956 . S
Li1586 O1647 1.970 . S
Li1587 N1637 1.990 . S
Li1587 O1645 1.961 . S
Li1587 O1646 1.970 . S
Li1587 O1647 1.956 . S
C1588 C1590 1.348 . S
C1588 C1591 1.356 . S
C1588 O1644 1.325 . S
N1589 C1592 1.314 . S
N1589 C1593 1.279 . S
C1590 C1588 1.348 . S
C1590 C1592 1.353 . S
C1590 H1648 0.929 . S
C1591 C1588 1.356 . S
C1591 C1593 1.358 . S
C1591 H1649 0.930 . S
C1592 N1589 1.314 . S
C1592 C1590 1.353 . S
C1592 H1650 0.930 . S
C1593 N1589 1.279 . S
C1593 C1591 1.358 . S
C1593 H1651 0.930 . S
C1594 C1597 1.348 . S
C1594 C1598 1.356 . S
C1594 O1645 1.325 . S
C1595 N1596 1.279 . S
C1595 C1598 1.358 . S
C1595 H1652 0.930 . S
N1596 C1595 1.279 . S
N1596 C1599 1.314 . S
C1597 C1594 1.348 . S
C1597 C1599 1.353 . S
C1597 H1653 0.929 . S
C1598 C1594 1.356 . S
C1598 C1595 1.358 . S
C1598 H1654 0.930 . S
C1599 N1596 1.314 . S
C1599 C1597 1.353 . S
C1599 H1655 0.930 . S
C1600 N1601 1.314 . S
C1600 C1605 1.353 . S
C1600 H1606 0.930 . S
N1601 Li1584 1.990 . S
N1601 C1600 1.314 . S
N1601 C1603 1.279 . S
C1602 C1603 1.358 . S
C1602 C1604 1.356 . S
C1602 H1656 0.930 . S
C1603 N1601 1.279 . S
C1603 C1602 1.358 . S
C1603 H1607 0.930 . S
C1604 C1602 1.356 . S
C1604 C1605 1.348 . S
C1605 C1600 1.353 . S
C1605 C1604 1.348 . S
C1605 H1657 0.929 . S
H1606 C1600 0.930 . S
H1607 C1603 0.930 . S
C1608 N1609 1.314 . S
C1608 C1610 1.353 . S
C1608 H1614 0.930 . S
N1609 Li1585 1.990 . S
N1609 C1608 1.314 . S
N1609 C1612 1.279 . S
C1610 C1608 1.353 . S
C1610 C1613 1.348 . S
C1610 H1658 0.929 . S
C1611 C1612 1.358 . S
C1611 C1613 1.356 . S
C1611 H1659 0.930 . S
C1612 N1609 1.279 . S
C1612 C1611 1.358 . S
C1612 H1615 0.930 . S
C1613 C1610 1.348 . S
C1613 C1611 1.356 . S
H1614 C1608 0.930 . S
H1615 C1612 0.930 . S
C1616 C1618 1.348 . S
C1616 C1619 1.356 . S
C1616 O1646 1.325 . S
N1617 C1620 1.314 . S
N1617 C1621 1.279 . S
C1618 C1616 1.348 . S
C1618 C1620 1.353 . S
C1618 H1660 0.929 . S
C1619 C1616 1.356 . S
C1619 C1621 1.358 . S
C1619 H1661 0.930 . S
C1620 N1617 1.314 . S
C1620 C1618 1.353 . S
C1620 H1662 0.930 . S
C1621 N1617 1.279 . S
C1621 C1619 1.358 . S
C1621 H1663 0.930 . S
C1622 C1623 1.348 . S
C1622 C1624 1.356 . S
C1622 O1647 1.325 . S
C1623 C1622 1.348 . S
C1623 C1625 1.353 . S
C1623 H1664 0.929 . S
C1624 C1622 1.356 . S
C1624 C1626 1.358 . S
C1624 H1665 0.930 . S
C1625 C1623 1.353 . S
C1625 N1627 1.314 . S
C1625 H1666 0.930 . S
C1626 C1624 1.358 . S
C1626 N1627 1.279 . S
C1626 H1667 0.930 . S
N1627 C1625 1.314 . S
N1627 C1626 1.279 . S
C1628 C1630 1.353 . S
C1628 N1631 1.314 . S
C1628 H1634 0.930 . S
C1629 N1631 1.279 . S
C1629 C1632 1.358 . S
C1629 H1635 0.930 . S
C1630 C1628 1.353 . S
C1630 C1633 1.348 . S
C1630 H1668 0.929 . S
N1631 Li1586 1.990 . S
N1631 C1628 1.314 . S
N1631 C1629 1.279 . S
C1632 C1629 1.358 . S
C1632 C1633 1.356 . S
C1632 H1669 0.930 . S
C1633 C1630 1.348 . S
C1633 C1632 1.356 . S
H1634 C1628 0.930 . S
H1635 C1629 0.930 . S
C1636 N1637 1.314 . S
C1636 C1638 1.353 . S
C1636 H1642 0.930 . S
N1637 Li1587 1.990 . S
N1637 C1636 1.314 . S
N1637 C1640 1.279 . S
C1638 C1636 1.353 . S
C1638 C1641 1.348 . S
C1638 H1670 0.929 . S
C1639 C1640 1.358 . S
C1639 C1641 1.356 . S
C1639 H1671 0.930 . S
C1640 N1637 1.279 . S
C1640 C1639 1.358 . S
C1640 H1643 0.930 . S
C1641 C1638 1.348 . S
C1641 C1639 1.356 . S
H1642 C1636 0.930 . S
H1643 C1640 0.930 . S
O1644 Li1584 1.956 . S
O1644 Li1585 1.970 . S
O1644 Li1586 1.961 . S
O1644 C1588 1.325 . S
O1645 Li1584 1.970 . S
O1645 Li1585 1.956 . S
O1645 Li1587 1.961 . S
O1645 C1594 1.325 . S
O1646 Li1584 1.961 . S
O1646 Li1586 1.956 . S
O1646 Li1587 1.970 . S
O1646 C1616 1.325 . S
O1647 Li1585 1.961 . S
O1647 Li1586 1.970 . S
O1647 Li1587 1.956 . S
O1647 C1622 1.325 . S
H1648 C1590 0.929 . S
H1649 C1591 0.930 . S
H1650 C1592 0.930 . S
H1651 C1593 0.930 . S
H1652 C1595 0.930 . S
H1653 C1597 0.929 . S
H1654 C1598 0.930 . S
H1655 C1599 0.930 . S
H1656 C1602 0.930 . S
H1657 C1605 0.929 . S
H1658 C1610 0.929 . S
H1659 C1611 0.930 . S
H1660 C1618 0.929 . S
H1661 C1619 0.930 . S
H1662 C1620 0.930 . S
H1663 C1621 0.930 . S
H1664 C1623 0.929 . S
H1665 C1624 0.930 . S
H1666 C1625 0.930 . S
H1667 C1626 0.930 . S
H1668 C1630 0.929 . S
H1669 C1632 0.930 . S
H1670 C1638 0.929 . S
H1671 C1639 0.930 . S
Li1672 N1689 1.990 . S
Li1672 O1732 1.956 1_545 S
Li1672 O1733 1.970 . S
Li1672 O1734 1.961 . S
Li1673 N1697 1.990 . S
Li1673 O1732 1.970 . S
Li1673 O1733 1.956 1_565 S
Li1673 O1735 1.961 . S
Li1674 N1719 1.990 . S
Li1674 O1732 1.961 . S
Li1674 O1734 1.956 1_565 S
Li1674 O1735 1.970 . S
Li1675 N1725 1.990 . S
Li1675 O1733 1.961 . S
Li1675 O1734 1.970 . S
Li1675 O1735 1.956 1_545 S
C1676 C1678 1.348 . S
C1676 C1679 1.356 . S
C1676 O1732 1.325 . S
N1677 C1680 1.314 . S
N1677 C1681 1.279 . S
C1678 C1676 1.348 . S
C1678 C1680 1.353 . S
C1678 H1736 0.929 . S
C1679 C1676 1.356 . S
C1679 C1681 1.358 . S
C1679 H1737 0.930 . S
C1680 N1677 1.314 . S
C1680 C1678 1.353 . S
C1680 H1738 0.930 . S
C1681 N1677 1.279 . S
C1681 C1679 1.358 . S
C1681 H1739 0.930 . S
C1682 C1685 1.348 . S
C1682 C1686 1.356 . S
C1682 O1733 1.325 . S
C1683 N1684 1.279 . S
C1683 C1686 1.358 . S
C1683 H1740 0.930 . S
N1684 C1683 1.279 . S
N1684 C1687 1.314 . S
C1685 C1682 1.348 . S
C1685 C1687 1.353 . S
C1685 H1741 0.929 . S
C1686 C1682 1.356 . S
C1686 C1683 1.358 . S
C1686 H1742 0.930 . S
C1687 N1684 1.314 . S
C1687 C1685 1.353 . S
C1687 H1743 0.930 . S
C1688 N1689 1.314 . S
C1688 C1693 1.353 . S
C1688 H1694 0.930 . S
N1689 Li1672 1.990 . S
N1689 C1688 1.314 . S
N1689 C1691 1.279 . S
C1690 C1691 1.358 . S
C1690 C1692 1.356 . S
C1690 H1744 0.930 . S
C1691 N1689 1.279 . S
C1691 C1690 1.358 . S
C1691 H1695 0.930 1_545 S
C1692 C1690 1.356 . S
C1692 C1693 1.348 . S
C1693 C1688 1.353 . S
C1693 C1692 1.348 . S
C1693 H1745 0.929 . S
H1694 C1688 0.930 . S
H1695 C1691 0.930 1_565 S
C1696 N1697 1.314 . S
C1696 C1698 1.353 . S
C1696 H1702 0.930 . S
N1697 Li1673 1.990 . S
N1697 C1696 1.314 . S
N1697 C1700 1.279 . S
C1698 C1696 1.353 . S
C1698 C1701 1.348 . S
C1698 H1746 0.929 . S
C1699 C1700 1.358 . S
C1699 C1701 1.356 . S
C1699 H1747 0.930 . S
C1700 N1697 1.279 . S
C1700 C1699 1.358 . S
C1700 H1703 0.930 . S
C1701 C1698 1.348 . S
C1701 C1699 1.356 . S
H1702 C1696 0.930 . S
H1703 C1700 0.930 . S
C1704 C1706 1.348 . S
C1704 C1707 1.356 . S
C1704 O1734 1.325 . S
N1705 C1708 1.314 . S
N1705 C1709 1.279 . S
C1706 C1704 1.348 . S
C1706 C1708 1.353 . S
C1706 H1748 0.929 . S
C1707 C1704 1.356 . S
C1707 C1709 1.358 . S
C1707 H1749 0.930 . S
C1708 N1705 1.314 . S
C1708 C1706 1.353 . S
C1708 H1750 0.930 . S
C1709 N1705 1.279 . S
C1709 C1707 1.358 . S
C1709 H1751 0.930 . S
C1710 C1711 1.348 . S
C1710 C1712 1.356 . S
C1710 O1735 1.325 . S
C1711 C1710 1.348 . S
C1711 C1713 1.353 . S
C1711 H1752 0.929 . S
C1712 C1710 1.356 . S
C1712 C1714 1.358 . S
C1712 H1753 0.930 . S
C1713 C1711 1.353 . S
C1713 N1715 1.314 . S
C1713 H1754 0.930 . S
C1714 C1712 1.358 . S
C1714 N1715 1.279 . S
C1714 H1755 0.930 . S
N1715 C1713 1.314 . S
N1715 C1714 1.279 . S
C1716 C1718 1.353 . S
C1716 N1719 1.314 . S
C1716 H1722 0.930 . S
C1717 N1719 1.279 . S
C1717 C1720 1.358 . S
C1717 H1723 0.930 1_565 S
C1718 C1716 1.353 . S
C1718 C1721 1.348 . S
C1718 H1756 0.929 . S
N1719 Li1674 1.990 . S
N1719 C1716 1.314 . S
N1719 C1717 1.279 . S
C1720 C1717 1.358 . S
C1720 C1721 1.356 . S
C1720 H1757 0.930 . S
C1721 C1718 1.348 . S
C1721 C1720 1.356 . S
H1722 C1716 0.930 . S
H1723 C1717 0.930 1_545 S
C1724 N1725 1.314 . S
C1724 C1726 1.353 . S
C1724 H1730 0.930 . S
N1725 Li1675 1.990 . S
N1725 C1724 1.314 . S
N1725 C1728 1.279 . S
C1726 C1724 1.353 . S
C1726 C1729 1.348 . S
C1726 H1758 0.929 . S
C1727 C1728 1.358 . S
C1727 C1729 1.356 . S
C1727 H1759 0.930 . S
C1728 N1725 1.279 . S
C1728 C1727 1.358 . S
C1728 H1731 0.930 . S
C1729 C1726 1.348 . S
C1729 C1727 1.356 . S
H1730 C1724 0.930 . S
H1731 C1728 0.930 . S
O1732 Li1672 1.956 1_565 S
O1732 Li1673 1.970 . S
O1732 Li1674 1.961 . S
O1732 C1676 1.325 . S
O1733 Li1672 1.970 . S
O1733 Li1673 1.956 1_545 S
O1733 Li1675 1.961 . S
O1733 C1682 1.325 . S
O1734 Li1672 1.961 . S
O1734 Li1674 1.956 1_545 S
O1734 Li1675 1.970 . S
O1734 C1704 1.325 . S
O1735 Li1673 1.961 . S
O1735 Li1674 1.970 . S
O1735 Li1675 1.956 1_565 S
O1735 C1710 1.325 . S
H1736 C1678 0.929 . S
H1737 C1679 0.930 . S
H1738 C1680 0.930 . S
H1739 C1681 0.930 . S
H1740 C1683 0.930 . S
H1741 C1685 0.929 . S
H1742 C1686 0.930 . S
H1743 C1687 0.930 . S
H1744 C1690 0.930 . S
H1745 C1693 0.929 . S
H1746 C1698 0.929 . S
H1747 C1699 0.930 . S
H1748 C1706 0.929 . S
H1749 C1707 0.930 . S
H1750 C1708 0.930 . S
H1751 C1709 0.930 . S
H1752 C1711 0.929 . S
H1753 C1712 0.930 . S
H1754 C1713 0.930 . S
H1755 C1714 0.930 . S
H1756 C1718 0.929 . S
H1757 C1720 0.930 . S
H1758 C1726 0.929 . S
H1759 C1727 0.930 . S
Li1760 N1777 1.990 . S
Li1760 O1820 1.956 1_556 S
Li1760 O1821 1.970 . S
Li1760 O1822 1.961 . S
Li1761 N1785 1.990 . S
Li1761 O1820 1.970 . S
Li1761 O1821 1.956 1_554 S
Li1761 O1823 1.961 . S
Li1762 N1807 1.990 . S
Li1762 O1820 1.961 . S
Li1762 O1822 1.956 1_554 S
Li1762 O1823 1.970 . S
Li1763 N1813 1.990 . S
Li1763 O1821 1.961 . S
Li1763 O1822 1.970 . S
Li1763 O1823 1.956 1_556 S
C1764 C1766 1.348 . S
C1764 C1767 1.356 . S
C1764 O1820 1.325 . S
N1765 C1768 1.314 . S
N1765 C1769 1.279 . S
C1766 C1764 1.348 . S
C1766 C1768 1.353 . S
C1766 H1824 0.929 . S
C1767 C1764 1.356 . S
C1767 C1769 1.358 . S
C1767 H1825 0.930 . S
C1768 N1765 1.314 . S
C1768 C1766 1.353 . S
C1768 H1826 0.930 . S
C1769 N1765 1.279 . S
C1769 C1767 1.358 . S
C1769 H1827 0.930 . S
C1770 C1773 1.348 . S
C1770 C1774 1.356 . S
C1770 O1821 1.325 . S
C1771 N1772 1.279 . S
C1771 C1774 1.358 . S
C1771 H1828 0.930 . S
N1772 C1771 1.279 . S
N1772 C1775 1.314 . S
C1773 C1770 1.348 . S
C1773 C1775 1.353 . S
C1773 H1829 0.929 . S
C1774 C1770 1.356 . S
C1774 C1771 1.358 . S
C1774 H1830 0.930 . S
C1775 N1772 1.314 . S
C1775 C1773 1.353 . S
C1775 H1831 0.930 . S
C1776 N1777 1.314 . S
C1776 C1781 1.353 . S
C1776 H1782 0.930 . S
N1777 Li1760 1.990 . S
N1777 C1776 1.314 . S
N1777 C1779 1.279 . S
C1778 C1779 1.358 . S
C1778 C1780 1.356 . S
C1778 H1832 0.930 . S
C1779 N1777 1.279 . S
C1779 C1778 1.358 . S
C1779 H1783 0.930 . S
C1780 C1778 1.356 . S
C1780 C1781 1.348 . S
C1781 C1776 1.353 . S
C1781 C1780 1.348 . S
C1781 H1833 0.929 . S
H1782 C1776 0.930 . S
H1783 C1779 0.930 . S
C1784 N1785 1.314 . S
C1784 C1786 1.353 . S
C1784 H1790 0.930 . S
N1785 Li1761 1.990 . S
N1785 C1784 1.314 . S
N1785 C1788 1.279 . S
C1786 C1784 1.353 . S
C1786 C1789 1.348 . S
C1786 H1834 0.929 . S
C1787 C1788 1.358 . S
C1787 C1789 1.356 . S
C1787 H1835 0.930 . S
C1788 N1785 1.279 . S
C1788 C1787 1.358 . S
C1788 H1791 0.930 1_554 S
C1789 C1786 1.348 . S
C1789 C1787 1.356 . S
H1790 C1784 0.930 . S
H1791 C1788 0.930 1_556 S
C1792 C1794 1.348 . S
C1792 C1795 1.356 . S
C1792 O1822 1.325 . S
N1793 C1796 1.314 . S
N1793 C1797 1.279 . S
C1794 C1792 1.348 . S
C1794 C1796 1.353 . S
C1794 H1836 0.929 . S
C1795 C1792 1.356 . S
C1795 C1797 1.358 . S
C1795 H1837 0.930 . S
C1796 N1793 1.314 . S
C1796 C1794 1.353 . S
C1796 H1838 0.930 . S
C1797 N1793 1.279 . S
C1797 C1795 1.358 . S
C1797 H1839 0.930 . S
C1798 C1799 1.348 . S
C1798 C1800 1.356 . S
C1798 O1823 1.325 . S
C1799 C1798 1.348 . S
C1799 C1801 1.353 . S
C1799 H1840 0.929 . S
C1800 C1798 1.356 . S
C1800 C1802 1.358 . S
C1800 H1841 0.930 . S
C1801 C1799 1.353 . S
C1801 N1803 1.314 . S
C1801 H1842 0.930 . S
C1802 C1800 1.358 . S
C1802 N1803 1.279 . S
C1802 H1843 0.930 . S
N1803 C1801 1.314 . S
N1803 C1802 1.279 . S
C1804 C1806 1.353 . S
C1804 N1807 1.314 . S
C1804 H1810 0.930 . S
C1805 N1807 1.279 . S
C1805 C1808 1.358 . S
C1805 H1811 0.930 . S
C1806 C1804 1.353 . S
C1806 C1809 1.348 . S
C1806 H1844 0.929 . S
N1807 Li1762 1.990 . S
N1807 C1804 1.314 . S
N1807 C1805 1.279 . S
C1808 C1805 1.358 . S
C1808 C1809 1.356 . S
C1808 H1845 0.930 . S
C1809 C1806 1.348 . S
C1809 C1808 1.356 . S
H1810 C1804 0.930 . S
H1811 C1805 0.930 . S
C1812 N1813 1.314 . S
C1812 C1814 1.353 . S
C1812 H1818 0.930 . S
N1813 Li1763 1.990 . S
N1813 C1812 1.314 . S
N1813 C1816 1.279 . S
C1814 C1812 1.353 . S
C1814 C1817 1.348 . S
C1814 H1846 0.929 . S
C1815 C1816 1.358 . S
C1815 C1817 1.356 . S
C1815 H1847 0.930 . S
C1816 N1813 1.279 . S
C1816 C1815 1.358 . S
C1816 H1819 0.930 1_556 S
C1817 C1814 1.348 . S
C1817 C1815 1.356 . S
H1818 C1812 0.930 . S
H1819 C1816 0.930 1_554 S
O1820 Li1760 1.956 1_554 S
O1820 Li1761 1.970 . S
O1820 Li1762 1.961 . S
O1820 C1764 1.325 . S
O1821 Li1760 1.970 . S
O1821 Li1761 1.956 1_556 S
O1821 Li1763 1.961 . S
O1821 C1770 1.325 . S
O1822 Li1760 1.961 . S
O1822 Li1762 1.956 1_556 S
O1822 Li1763 1.970 . S
O1822 C1792 1.325 . S
O1823 Li1761 1.961 . S
O1823 Li1762 1.970 . S
O1823 Li1763 1.956 1_554 S
O1823 C1798 1.325 . S
H1824 C1766 0.929 . S
H1825 C1767 0.930 . S
H1826 C1768 0.930 . S
H1827 C1769 0.930 . S
H1828 C1771 0.930 . S
H1829 C1773 0.929 . S
H1830 C1774 0.930 . S
H1831 C1775 0.930 . S
H1832 C1778 0.930 . S
H1833 C1781 0.929 . S
H1834 C1786 0.929 . S
H1835 C1787 0.930 . S
H1836 C1794 0.929 . S
H1837 C1795 0.930 . S
H1838 C1796 0.930 . S
H1839 C1797 0.930 . S
H1840 C1799 0.929 . S
H1841 C1800 0.930 . S
H1842 C1801 0.930 . S
H1843 C1802 0.930 . S
H1844 C1806 0.929 . S
H1845 C1808 0.930 . S
H1846 C1814 0.929 . S
H1847 C1815 0.930 . S
Li1848 N1865 1.990 . S
Li1848 O1908 1.956 . S
Li1848 O1909 1.970 . S
Li1848 O1910 1.961 . S
Li1849 N1873 1.990 . S
Li1849 O1908 1.970 . S
Li1849 O1909 1.956 . S
Li1849 O1911 1.961 . S
Li1850 N1895 1.990 . S
Li1850 O1908 1.961 . S
Li1850 O1910 1.956 . S
Li1850 O1911 1.970 . S
Li1851 N1901 1.990 . S
Li1851 O1909 1.961 . S
Li1851 O1910 1.970 . S
Li1851 O1911 1.956 . S
C1852 C1854 1.348 . S
C1852 C1855 1.356 . S
C1852 O1908 1.325 . S
N1853 C1856 1.314 . S
N1853 C1857 1.279 . S
C1854 C1852 1.348 . S
C1854 C1856 1.353 . S
C1854 H1912 0.929 . S
C1855 C1852 1.356 . S
C1855 C1857 1.358 . S
C1855 H1913 0.930 . S
C1856 N1853 1.314 . S
C1856 C1854 1.353 . S
C1856 H1914 0.930 . S
C1857 N1853 1.279 . S
C1857 C1855 1.358 . S
C1857 H1915 0.930 . S
C1858 C1861 1.348 . S
C1858 C1862 1.356 . S
C1858 O1909 1.325 . S
C1859 N1860 1.279 . S
C1859 C1862 1.358 . S
C1859 H1916 0.930 . S
N1860 C1859 1.279 . S
N1860 C1863 1.314 . S
C1861 C1858 1.348 . S
C1861 C1863 1.353 . S
C1861 H1917 0.929 . S
C1862 C1858 1.356 . S
C1862 C1859 1.358 . S
C1862 H1918 0.930 . S
C1863 N1860 1.314 . S
C1863 C1861 1.353 . S
C1863 H1919 0.930 . S
C1864 N1865 1.314 . S
C1864 C1869 1.353 . S
C1864 H1870 0.930 . S
N1865 Li1848 1.990 . S
N1865 C1864 1.314 . S
N1865 C1867 1.279 . S
C1866 C1867 1.358 . S
C1866 C1868 1.356 . S
C1866 H1920 0.930 . S
C1867 N1865 1.279 . S
C1867 C1866 1.358 . S
C1867 H1871 0.930 . S
C1868 C1866 1.356 . S
C1868 C1869 1.348 . S
C1869 C1864 1.353 . S
C1869 C1868 1.348 . S
C1869 H1921 0.929 . S
H1870 C1864 0.930 . S
H1871 C1867 0.930 . S
C1872 N1873 1.314 . S
C1872 C1874 1.353 . S
C1872 H1878 0.930 . S
N1873 Li1849 1.990 . S
N1873 C1872 1.314 . S
N1873 C1876 1.279 . S
C1874 C1872 1.353 . S
C1874 C1877 1.348 . S
C1874 H1922 0.929 . S
C1875 C1876 1.358 . S
C1875 C1877 1.356 . S
C1875 H1923 0.930 . S
C1876 N1873 1.279 . S
C1876 C1875 1.358 . S
C1876 H1879 0.930 . S
C1877 C1874 1.348 . S
C1877 C1875 1.356 . S
H1878 C1872 0.930 . S
H1879 C1876 0.930 . S
C1880 C1882 1.348 . S
C1880 C1883 1.356 . S
C1880 O1910 1.325 . S
N1881 C1884 1.314 . S
N1881 C1885 1.279 . S
C1882 C1880 1.348 . S
C1882 C1884 1.353 . S
C1882 H1924 0.929 . S
C1883 C1880 1.356 . S
C1883 C1885 1.358 . S
C1883 H1925 0.930 . S
C1884 N1881 1.314 . S
C1884 C1882 1.353 . S
C1884 H1926 0.930 . S
C1885 N1881 1.279 . S
C1885 C1883 1.358 . S
C1885 H1927 0.930 . S
C1886 C1887 1.348 . S
C1886 C1888 1.356 . S
C1886 O1911 1.325 . S
C1887 C1886 1.348 . S
C1887 C1889 1.353 . S
C1887 H1928 0.929 . S
C1888 C1886 1.356 . S
C1888 C1890 1.358 . S
C1888 H1929 0.930 . S
C1889 C1887 1.353 . S
C1889 N1891 1.314 . S
C1889 H1930 0.930 . S
C1890 C1888 1.358 . S
C1890 N1891 1.279 . S
C1890 H1931 0.930 . S
N1891 C1889 1.314 . S
N1891 C1890 1.279 . S
C1892 C1894 1.353 . S
C1892 N1895 1.314 . S
C1892 H1898 0.930 . S
C1893 N1895 1.279 . S
C1893 C1896 1.358 . S
C1893 H1899 0.930 . S
C1894 C1892 1.353 . S
C1894 C1897 1.348 . S
C1894 H1932 0.929 . S
N1895 Li1850 1.990 . S
N1895 C1892 1.314 . S
N1895 C1893 1.279 . S
C1896 C1893 1.358 . S
C1896 C1897 1.356 . S
C1896 H1933 0.930 . S
C1897 C1894 1.348 . S
C1897 C1896 1.356 . S
H1898 C1892 0.930 . S
H1899 C1893 0.930 . S
C1900 N1901 1.314 . S
C1900 C1902 1.353 . S
C1900 H1906 0.930 . S
N1901 Li1851 1.990 . S
N1901 C1900 1.314 . S
N1901 C1904 1.279 . S
C1902 C1900 1.353 . S
C1902 C1905 1.348 . S
C1902 H1934 0.929 . S
C1903 C1904 1.358 . S
C1903 C1905 1.356 . S
C1903 H1935 0.930 . S
C1904 N1901 1.279 . S
C1904 C1903 1.358 . S
C1904 H1907 0.930 . S
C1905 C1902 1.348 . S
C1905 C1903 1.356 . S
H1906 C1900 0.930 . S
H1907 C1904 0.930 . S
O1908 Li1848 1.956 . S
O1908 Li1849 1.970 . S
O1908 Li1850 1.961 . S
O1908 C1852 1.325 . S
O1909 Li1848 1.970 . S
O1909 Li1849 1.956 . S
O1909 Li1851 1.961 . S
O1909 C1858 1.325 . S
O1910 Li1848 1.961 . S
O1910 Li1850 1.956 . S
O1910 Li1851 1.970 . S
O1910 C1880 1.325 . S
O1911 Li1849 1.961 . S
O1911 Li1850 1.970 . S
O1911 Li1851 1.956 . S
O1911 C1886 1.325 . S
H1912 C1854 0.929 . S
H1913 C1855 0.930 . S
H1914 C1856 0.930 . S
H1915 C1857 0.930 . S
H1916 C1859 0.930 . S
H1917 C1861 0.929 . S
H1918 C1862 0.930 . S
H1919 C1863 0.930 . S
H1920 C1866 0.930 . S
H1921 C1869 0.929 . S
H1922 C1874 0.929 . S
H1923 C1875 0.930 . S
H1924 C1882 0.929 . S
H1925 C1883 0.930 . S
H1926 C1884 0.930 . S
H1927 C1885 0.930 . S
H1928 C1887 0.929 . S
H1929 C1888 0.930 . S
H1930 C1889 0.930 . S
H1931 C1890 0.930 . S
H1932 C1894 0.929 . S
H1933 C1896 0.930 . S
H1934 C1902 0.929 . S
H1935 C1903 0.930 . S
Li1936 N1953 1.990 . S
Li1936 O1996 1.956 . S
Li1936 O1997 1.970 . S
Li1936 O1998 1.961 . S
Li1937 N1961 1.990 . S
Li1937 O1996 1.970 . S
Li1937 O1997 1.956 . S
Li1937 O1999 1.961 . S
Li1938 N1983 1.990 . S
Li1938 O1996 1.961 . S
Li1938 O1998 1.956 . S
Li1938 O1999 1.970 . S
Li1939 N1989 1.990 . S
Li1939 O1997 1.961 . S
Li1939 O1998 1.970 . S
Li1939 O1999 1.956 . S
C1940 C1942 1.348 . S
C1940 C1943 1.356 . S
C1940 O1996 1.325 . S
N1941 C1944 1.314 . S
N1941 C1945 1.279 . S
C1942 C1940 1.348 . S
C1942 C1944 1.353 . S
C1942 H2000 0.929 . S
C1943 C1940 1.356 . S
C1943 C1945 1.358 . S
C1943 H2001 0.930 . S
C1944 N1941 1.314 . S
C1944 C1942 1.353 . S
C1944 H2002 0.930 . S
C1945 N1941 1.279 . S
C1945 C1943 1.358 . S
C1945 H2003 0.930 . S
C1946 C1949 1.348 . S
C1946 C1950 1.356 . S
C1946 O1997 1.325 . S
C1947 N1948 1.279 . S
C1947 C1950 1.358 . S
C1947 H2004 0.930 . S
N1948 C1947 1.279 . S
N1948 C1951 1.314 . S
C1949 C1946 1.348 . S
C1949 C1951 1.353 . S
C1949 H2005 0.929 . S
C1950 C1946 1.356 . S
C1950 C1947 1.358 . S
C1950 H2006 0.930 . S
C1951 N1948 1.314 . S
C1951 C1949 1.353 . S
C1951 H2007 0.930 . S
C1952 N1953 1.314 . S
C1952 C1957 1.353 . S
C1952 H1958 0.930 . S
N1953 Li1936 1.990 . S
N1953 C1952 1.314 . S
N1953 C1955 1.279 . S
C1954 C1955 1.358 . S
C1954 C1956 1.356 . S
C1954 H2008 0.930 . S
C1955 N1953 1.279 . S
C1955 C1954 1.358 . S
C1955 H1959 0.930 . S
C1956 C1954 1.356 . S
C1956 C1957 1.348 . S
C1957 C1952 1.353 . S
C1957 C1956 1.348 . S
C1957 H2009 0.929 . S
H1958 C1952 0.930 . S
H1959 C1955 0.930 . S
C1960 N1961 1.314 . S
C1960 C1962 1.353 . S
C1960 H1966 0.930 . S
N1961 Li1937 1.990 . S
N1961 C1960 1.314 . S
N1961 C1964 1.279 . S
C1962 C1960 1.353 . S
C1962 C1965 1.348 . S
C1962 H2010 0.929 . S
C1963 C1964 1.358 . S
C1963 C1965 1.356 . S
C1963 H2011 0.930 . S
C1964 N1961 1.279 . S
C1964 C1963 1.358 . S
C1964 H1967 0.930 . S
C1965 C1962 1.348 . S
C1965 C1963 1.356 . S
H1966 C1960 0.930 . S
H1967 C1964 0.930 . S
C1968 C1970 1.348 . S
C1968 C1971 1.356 . S
C1968 O1998 1.325 . S
N1969 C1972 1.314 . S
N1969 C1973 1.279 . S
C1970 C1968 1.348 . S
C1970 C1972 1.353 . S
C1970 H2012 0.929 . S
C1971 C1968 1.356 . S
C1971 C1973 1.358 . S
C1971 H2013 0.930 . S
C1972 N1969 1.314 . S
C1972 C1970 1.353 . S
C1972 H2014 0.930 . S
C1973 N1969 1.279 . S
C1973 C1971 1.358 . S
C1973 H2015 0.930 . S
C1974 C1975 1.348 . S
C1974 C1976 1.356 . S
C1974 O1999 1.325 . S
C1975 C1974 1.348 . S
C1975 C1977 1.353 . S
C1975 H2016 0.929 . S
C1976 C1974 1.356 . S
C1976 C1978 1.358 . S
C1976 H2017 0.930 . S
C1977 C1975 1.353 . S
C1977 N1979 1.314 . S
C1977 H2018 0.930 . S
C1978 C1976 1.358 . S
C1978 N1979 1.279 . S
C1978 H2019 0.930 . S
N1979 C1977 1.314 . S
N1979 C1978 1.279 . S
C1980 C1982 1.353 . S
C1980 N1983 1.314 . S
C1980 H1986 0.930 . S
C1981 N1983 1.279 . S
C1981 C1984 1.358 . S
C1981 H1987 0.930 . S
C1982 C1980 1.353 . S
C1982 C1985 1.348 . S
C1982 H2020 0.929 . S
N1983 Li1938 1.990 . S
N1983 C1980 1.314 . S
N1983 C1981 1.279 . S
C1984 C1981 1.358 . S
C1984 C1985 1.356 . S
C1984 H2021 0.930 . S
C1985 C1982 1.348 . S
C1985 C1984 1.356 . S
H1986 C1980 0.930 . S
H1987 C1981 0.930 . S
C1988 N1989 1.314 . S
C1988 C1990 1.353 . S
C1988 H1994 0.930 . S
N1989 Li1939 1.990 . S
N1989 C1988 1.314 . S
N1989 C1992 1.279 . S
C1990 C1988 1.353 . S
C1990 C1993 1.348 . S
C1990 H2022 0.929 . S
C1991 C1992 1.358 . S
C1991 C1993 1.356 . S
C1991 H2023 0.930 . S
C1992 N1989 1.279 . S
C1992 C1991 1.358 . S
C1992 H1995 0.930 . S
C1993 C1990 1.348 . S
C1993 C1991 1.356 . S
H1994 C1988 0.930 . S
H1995 C1992 0.930 . S
O1996 Li1936 1.956 . S
O1996 Li1937 1.970 . S
O1996 Li1938 1.961 . S
O1996 C1940 1.325 . S
O1997 Li1936 1.970 . S
O1997 Li1937 1.956 . S
O1997 Li1939 1.961 . S
O1997 C1946 1.325 . S
O1998 Li1936 1.961 . S
O1998 Li1938 1.956 . S
O1998 Li1939 1.970 . S
O1998 C1968 1.325 . S
O1999 Li1937 1.961 . S
O1999 Li1938 1.970 . S
O1999 Li1939 1.956 . S
O1999 C1974 1.325 . S
H2000 C1942 0.929 . S
H2001 C1943 0.930 . S
H2002 C1944 0.930 . S
H2003 C1945 0.930 . S
H2004 C1947 0.930 . S
H2005 C1949 0.929 . S
H2006 C1950 0.930 . S
H2007 C1951 0.930 . S
H2008 C1954 0.930 . S
H2009 C1957 0.929 . S
H2010 C1962 0.929 . S
H2011 C1963 0.930 . S
H2012 C1970 0.929 . S
H2013 C1971 0.930 . S
H2014 C1972 0.930 . S
H2015 C1973 0.930 . S
H2016 C1975 0.929 . S
H2017 C1976 0.930 . S
H2018 C1977 0.930 . S
H2019 C1978 0.930 . S
H2020 C1982 0.929 . S
H2021 C1984 0.930 . S
H2022 C1990 0.929 . S
H2023 C1991 0.930 . S
Li2024 N2041 1.990 . S
Li2024 O2084 1.956 . S
Li2024 O2085 1.970 . S
Li2024 O2086 1.961 . S
Li2025 N2049 1.990 . S
Li2025 O2084 1.970 . S
Li2025 O2085 1.956 . S
Li2025 O2087 1.961 . S
Li2026 N2071 1.990 . S
Li2026 O2084 1.961 . S
Li2026 O2086 1.956 . S
Li2026 O2087 1.970 . S
Li2027 N2077 1.990 . S
Li2027 O2085 1.961 . S
Li2027 O2086 1.970 . S
Li2027 O2087 1.956 . S
C2028 C2030 1.348 . S
C2028 C2031 1.356 . S
C2028 O2084 1.325 . S
N2029 C2032 1.314 . S
N2029 C2033 1.279 . S
C2030 C2028 1.348 . S
C2030 C2032 1.353 . S
C2030 H2088 0.929 . S
C2031 C2028 1.356 . S
C2031 C2033 1.358 . S
C2031 H2089 0.930 . S
C2032 N2029 1.314 . S
C2032 C2030 1.353 . S
C2032 H2090 0.930 . S
C2033 N2029 1.279 . S
C2033 C2031 1.358 . S
C2033 H2091 0.930 . S
C2034 C2037 1.348 . S
C2034 C2038 1.356 . S
C2034 O2085 1.325 . S
C2035 N2036 1.279 . S
C2035 C2038 1.358 . S
C2035 H2092 0.930 . S
N2036 C2035 1.279 . S
N2036 C2039 1.314 . S
C2037 C2034 1.348 . S
C2037 C2039 1.353 . S
C2037 H2093 0.929 . S
C2038 C2034 1.356 . S
C2038 C2035 1.358 . S
C2038 H2094 0.930 . S
C2039 N2036 1.314 . S
C2039 C2037 1.353 . S
C2039 H2095 0.930 . S
C2040 N2041 1.314 . S
C2040 C2045 1.353 . S
C2040 H2046 0.930 . S
N2041 Li2024 1.990 . S
N2041 C2040 1.314 . S
N2041 C2043 1.279 . S
C2042 C2043 1.358 . S
C2042 C2044 1.356 . S
C2042 H2096 0.930 . S
C2043 N2041 1.279 . S
C2043 C2042 1.358 . S
C2043 H2047 0.930 . S
C2044 C2042 1.356 . S
C2044 C2045 1.348 . S
C2045 C2040 1.353 . S
C2045 C2044 1.348 . S
C2045 H2097 0.929 . S
H2046 C2040 0.930 . S
H2047 C2043 0.930 . S
C2048 N2049 1.314 . S
C2048 C2050 1.353 . S
C2048 H2054 0.930 . S
N2049 Li2025 1.990 . S
N2049 C2048 1.314 . S
N2049 C2052 1.279 . S
C2050 C2048 1.353 . S
C2050 C2053 1.348 . S
C2050 H2098 0.929 . S
C2051 C2052 1.358 . S
C2051 C2053 1.356 . S
C2051 H2099 0.930 . S
C2052 N2049 1.279 . S
C2052 C2051 1.358 . S
C2052 H2055 0.930 . S
C2053 C2050 1.348 . S
C2053 C2051 1.356 . S
H2054 C2048 0.930 . S
H2055 C2052 0.930 . S
C2056 C2058 1.348 . S
C2056 C2059 1.356 . S
C2056 O2086 1.325 . S
N2057 C2060 1.314 . S
N2057 C2061 1.279 . S
C2058 C2056 1.348 . S
C2058 C2060 1.353 . S
C2058 H2100 0.929 . S
C2059 C2056 1.356 . S
C2059 C2061 1.358 . S
C2059 H2101 0.930 . S
C2060 N2057 1.314 . S
C2060 C2058 1.353 . S
C2060 H2102 0.930 . S
C2061 N2057 1.279 . S
C2061 C2059 1.358 . S
C2061 H2103 0.930 . S
C2062 C2063 1.348 . S
C2062 C2064 1.356 . S
C2062 O2087 1.325 . S
C2063 C2062 1.348 . S
C2063 C2065 1.353 . S
C2063 H2104 0.929 . S
C2064 C2062 1.356 . S
C2064 C2066 1.358 . S
C2064 H2105 0.930 . S
C2065 C2063 1.353 . S
C2065 N2067 1.314 . S
C2065 H2106 0.930 . S
C2066 C2064 1.358 . S
C2066 N2067 1.279 . S
C2066 H2107 0.930 . S
N2067 C2065 1.314 . S
N2067 C2066 1.279 . S
C2068 C2070 1.353 . S
C2068 N2071 1.314 . S
C2068 H2074 0.930 . S
C2069 N2071 1.279 . S
C2069 C2072 1.358 . S
C2069 H2075 0.930 . S
C2070 C2068 1.353 . S
C2070 C2073 1.348 . S
C2070 H2108 0.929 . S
N2071 Li2026 1.990 . S
N2071 C2068 1.314 . S
N2071 C2069 1.279 . S
C2072 C2069 1.358 . S
C2072 C2073 1.356 . S
C2072 H2109 0.930 . S
C2073 C2070 1.348 . S
C2073 C2072 1.356 . S
H2074 C2068 0.930 . S
H2075 C2069 0.930 . S
C2076 N2077 1.314 . S
C2076 C2078 1.353 . S
C2076 H2082 0.930 . S
N2077 Li2027 1.990 . S
N2077 C2076 1.314 . S
N2077 C2080 1.279 . S
C2078 C2076 1.353 . S
C2078 C2081 1.348 . S
C2078 H2110 0.929 . S
C2079 C2080 1.358 . S
C2079 C2081 1.356 . S
C2079 H2111 0.930 . S
C2080 N2077 1.279 . S
C2080 C2079 1.358 . S
C2080 H2083 0.930 . S
C2081 C2078 1.348 . S
C2081 C2079 1.356 . S
H2082 C2076 0.930 . S
H2083 C2080 0.930 . S
O2084 Li2024 1.956 . S
O2084 Li2025 1.970 . S
O2084 Li2026 1.961 . S
O2084 C2028 1.325 . S
O2085 Li2024 1.970 . S
O2085 Li2025 1.956 . S
O2085 Li2027 1.961 . S
O2085 C2034 1.325 . S
O2086 Li2024 1.961 . S
O2086 Li2026 1.956 . S
O2086 Li2027 1.970 . S
O2086 C2056 1.325 . S
O2087 Li2025 1.961 . S
O2087 Li2026 1.970 . S
O2087 Li2027 1.956 . S
O2087 C2062 1.325 . S
H2088 C2030 0.929 . S
H2089 C2031 0.930 . S
H2090 C2032 0.930 . S
H2091 C2033 0.930 . S
H2092 C2035 0.930 . S
H2093 C2037 0.929 . S
H2094 C2038 0.930 . S
H2095 C2039 0.930 . S
H2096 C2042 0.930 . S
H2097 C2045 0.929 . S
H2098 C2050 0.929 . S
H2099 C2051 0.930 . S
H2100 C2058 0.929 . S
H2101 C2059 0.930 . S
H2102 C2060 0.930 . S
H2103 C2061 0.930 . S
H2104 C2063 0.929 . S
H2105 C2064 0.930 . S
H2106 C2065 0.930 . S
H2107 C2066 0.930 . S
H2108 C2070 0.929 . S
H2109 C2072 0.930 . S
H2110 C2078 0.929 . S
H2111 C2079 0.930 . S
H2112 C2130 0.951 . S
H2113 C2132 0.951 . S
H2114 C2134 0.950 . S
H2115 C2135 0.950 . S
H2116 C2137 0.950 . S
H2117 C2140 0.950 . S
H2118 C2141 0.950 . S
H2119 C2143 0.950 1_655 S
H2120 C2144 0.950 . S
H2121 C2145 0.951 . S
H2122 C2147 0.951 . S
H2123 C2149 0.950 . S
H2124 C2150 0.950 . S
H2125 C2152 0.950 . S
H2126 C2155 0.950 . S
H2127 C2156 0.950 . S
H2128 C2158 0.950 . S
H2129 C2159 0.950 . S
C2130 H2112 0.951 . S
C2130 C2131 1.366 . S
C2130 C2132 1.388 . S
C2131 C2130 1.366 . S
C2131 C2135 1.385 . S
C2132 H2113 0.951 . S
C2132 C2130 1.388 . S
C2132 C2133 1.366 . S
C2133 C2132 1.366 . S
C2133 C2134 1.414 . S
C2133 C2136 1.499 . S
C2134 H2114 0.950 . S
C2134 C2133 1.414 . S
C2134 C2135 1.374 . S
C2135 H2115 0.950 . S
C2135 C2131 1.385 . S
C2135 C2134 1.374 . S
C2136 C2133 1.499 . S
C2136 C2137 1.373 . S
C2136 C2138 1.389 . S
C2137 H2116 0.950 . S
C2137 C2136 1.373 . S
C2137 C2153 1.377 . S
C2138 C2136 1.389 . S
C2138 C2139 1.524 . S
C2138 C2152 1.377 . S
C2139 C2138 1.524 . S
C2139 C2140 1.397 . S
C2139 C2144 1.363 . S
C2140 H2117 0.950 . S
C2140 C2139 1.397 . S
C2140 C2141 1.334 . S
C2141 H2118 0.950 . S
C2141 C2140 1.334 . S
C2141 C2142 1.287 . S
C2142 C2141 1.287 . S
C2142 C2143 1.524 . S
C2142 H2161 0.913 . S
C2143 H2119 0.950 1_455 S
C2143 C2142 1.524 . S
C2143 C2144 1.415 . S
C2144 H2120 0.950 . S
C2144 C2139 1.363 . S
C2144 C2143 1.415 . S
C2145 H2121 0.951 . S
C2145 C2146 1.366 . S
C2145 C2147 1.388 . S
C2146 C2145 1.366 . S
C2146 C2150 1.385 . S
C2147 H2122 0.951 . S
C2147 C2145 1.388 . S
C2147 C2148 1.366 . S
C2148 C2147 1.366 . S
C2148 C2149 1.414 . S
C2148 C2151 1.499 . S
C2149 H2123 0.950 . S
C2149 C2148 1.414 . S
C2149 C2150 1.374 . S
C2150 H2124 0.950 . S
C2150 C2146 1.385 . S
C2150 C2149 1.374 . S
C2151 C2148 1.499 . S
C2151 C2152 1.373 . S
C2151 C2153 1.389 . S
C2152 H2125 0.950 . S
C2152 C2138 1.377 . S
C2152 C2151 1.373 . S
C2153 C2137 1.377 . S
C2153 C2151 1.389 . S
C2153 C2154 1.524 . S
C2154 C2153 1.524 . S
C2154 C2155 1.397 . S
C2154 C2159 1.363 . S
C2155 H2126 0.950 . S
C2155 C2154 1.397 . S
C2155 C2156 1.334 . S
C2156 H2127 0.950 . S
C2156 C2155 1.334 . S
C2156 C2157 1.287 . S
C2157 C2156 1.287 . S
C2157 C2158 1.524 . S
C2157 H2160 0.999 . S
C2158 H2128 0.950 . S
C2158 C2157 1.524 . S
C2158 C2159 1.415 . S
C2159 H2129 0.950 . S
C2159 C2154 1.363 . S
C2159 C2158 1.415 . S
H2160 C2157 0.999 . S
H2161 C2142 0.913 . S
H2162 C2180 0.951 . S
H2163 C2182 0.951 . S
H2164 C2184 0.950 . S
H2165 C2185 0.950 . S
H2166 C2187 0.950 . S
H2167 C2190 0.950 . S
H2168 C2191 0.950 . S
H2169 C2193 0.950 . S
H2170 C2194 0.950 . S
H2171 C2195 0.951 . S
H2172 C2197 0.951 . S
H2173 C2199 0.950 . S
H2174 C2200 0.950 . S
H2175 C2202 0.950 . S
H2176 C2205 0.950 . S
H2177 C2206 0.950 . S
H2178 C2208 0.950 . S
H2179 C2209 0.950 . S
C2180 H2162 0.951 . S
C2180 C2181 1.366 . S
C2180 C2182 1.388 . S
C2181 C2180 1.366 . S
C2181 C2185 1.385 . S
C2182 H2163 0.951 . S
C2182 C2180 1.388 . S
C2182 C2183 1.366 . S
C2183 C2182 1.366 . S
C2183 C2184 1.414 . S
C2183 C2186 1.499 . S
C2184 H2164 0.950 . S
C2184 C2183 1.414 . S
C2184 C2185 1.374 . S
C2185 H2165 0.950 . S
C2185 C2181 1.385 . S
C2185 C2184 1.374 . S
C2186 C2183 1.499 . S
C2186 C2187 1.373 . S
C2186 C2188 1.389 . S
C2187 H2166 0.950 . S
C2187 C2186 1.373 . S
C2187 C2203 1.377 . S
C2188 C2186 1.389 . S
C2188 C2189 1.524 . S
C2188 C2202 1.377 . S
C2189 C2188 1.524 . S
C2189 C2190 1.397 . S
C2189 C2194 1.363 . S
C2190 H2167 0.950 . S
C2190 C2189 1.397 . S
C2190 C2191 1.334 . S
C2191 H2168 0.950 . S
C2191 C2190 1.334 . S
C2191 C2192 1.287 . S
C2192 C2191 1.287 . S
C2192 C2193 1.524 . S
C2192 H2211 0.913 . S
C2193 H2169 0.950 . S
C2193 C2192 1.524 . S
C2193 C2194 1.415 . S
C2194 H2170 0.950 . S
C2194 C2189 1.363 . S
C2194 C2193 1.415 . S
C2195 H2171 0.951 . S
C2195 C2196 1.366 . S
C2195 C2197 1.388 . S
C2196 C2195 1.366 . S
C2196 C2200 1.385 . S
C2197 H2172 0.951 . S
C2197 C2195 1.388 . S
C2197 C2198 1.366 . S
C2198 C2197 1.366 . S
C2198 C2199 1.414 . S
C2198 C2201 1.499 . S
C2199 H2173 0.950 . S
C2199 C2198 1.414 . S
C2199 C2200 1.374 . S
C2200 H2174 0.950 . S
C2200 C2196 1.385 . S
C2200 C2199 1.374 . S
C2201 C2198 1.499 . S
C2201 C2202 1.373 . S
C2201 C2203 1.389 . S
C2202 H2175 0.950 . S
C2202 C2188 1.377 . S
C2202 C2201 1.373 . S
C2203 C2187 1.377 . S
C2203 C2201 1.389 . S
C2203 C2204 1.524 . S
C2204 C2203 1.524 . S
C2204 C2205 1.397 . S
C2204 C2209 1.363 . S
C2205 H2176 0.950 . S
C2205 C2204 1.397 . S
C2205 C2206 1.334 . S
C2206 H2177 0.950 . S
C2206 C2205 1.334 . S
C2206 C2207 1.287 . S
C2207 C2206 1.287 . S
C2207 C2208 1.524 . S
C2207 H2210 0.999 . S
C2208 H2178 0.950 . S
C2208 C2207 1.524 . S
C2208 C2209 1.415 . S
C2209 H2179 0.950 . S
C2209 C2204 1.363 . S
C2209 C2208 1.415 . S
H2210 C2207 0.999 . S
H2211 C2192 0.913 . S
H2212 C2230 0.951 . S
H2213 C2232 0.951 . S
H2214 C2234 0.950 . S
H2215 C2235 0.950 . S
H2216 C2237 0.950 . S
H2217 C2240 0.950 . S
H2218 C2241 0.950 . S
H2219 C2243 0.950 . S
H2220 C2244 0.950 . S
H2221 C2245 0.951 . S
H2222 C2247 0.951 . S
H2223 C2249 0.950 . S
H2224 C2250 0.950 . S
H2225 C2252 0.950 . S
H2226 C2255 0.950 . S
H2227 C2256 0.950 . S
H2228 C2258 0.950 . S
H2229 C2259 0.950 . S
C2230 H2212 0.951 . S
C2230 C2231 1.366 . S
C2230 C2232 1.388 . S
C2231 C2230 1.366 . S
C2231 C2235 1.385 . S
C2232 H2213 0.951 . S
C2232 C2230 1.388 . S
C2232 C2233 1.366 . S
C2233 C2232 1.366 . S
C2233 C2234 1.414 . S
C2233 C2236 1.499 . S
C2234 H2214 0.950 . S
C2234 C2233 1.414 . S
C2234 C2235 1.374 . S
C2235 H2215 0.950 . S
C2235 C2231 1.385 . S
C2235 C2234 1.374 . S
C2236 C2233 1.499 . S
C2236 C2237 1.373 . S
C2236 C2238 1.389 . S
C2237 H2216 0.950 . S
C2237 C2236 1.373 . S
C2237 C2253 1.377 . S
C2238 C2236 1.389 . S
C2238 C2239 1.524 . S
C2238 C2252 1.377 . S
C2239 C2238 1.524 . S
C2239 C2240 1.397 . S
C2239 C2244 1.363 . S
C2240 H2217 0.950 . S
C2240 C2239 1.397 . S
C2240 C2241 1.334 . S
C2241 H2218 0.950 . S
C2241 C2240 1.334 . S
C2241 C2242 1.287 . S
C2242 C2241 1.287 . S
C2242 C2243 1.524 . S
C2242 H2261 0.913 . S
C2243 H2219 0.950 . S
C2243 C2242 1.524 . S
C2243 C2244 1.415 . S
C2244 H2220 0.950 . S
C2244 C2239 1.363 . S
C2244 C2243 1.415 . S
C2245 H2221 0.951 . S
C2245 C2246 1.366 . S
C2245 C2247 1.388 . S
C2246 C2245 1.366 . S
C2246 C2250 1.385 . S
C2247 H2222 0.951 . S
C2247 C2245 1.388 . S
C2247 C2248 1.366 . S
C2248 C2247 1.366 . S
C2248 C2249 1.414 . S
C2248 C2251 1.499 . S
C2249 H2223 0.950 . S
C2249 C2248 1.414 . S
C2249 C2250 1.374 . S
C2250 H2224 0.950 . S
C2250 C2246 1.385 . S
C2250 C2249 1.374 . S
C2251 C2248 1.499 . S
C2251 C2252 1.373 . S
C2251 C2253 1.389 . S
C2252 H2225 0.950 . S
C2252 C2238 1.377 . S
C2252 C2251 1.373 . S
C2253 C2237 1.377 . S
C2253 C2251 1.389 . S
C2253 C2254 1.524 . S
C2254 C2253 1.524 . S
C2254 C2255 1.397 . S
C2254 C2259 1.363 . S
C2255 H2226 0.950 . S
C2255 C2254 1.397 . S
C2255 C2256 1.334 . S
C2256 H2227 0.950 . S
C2256 C2255 1.334 . S
C2256 C2257 1.287 . S
C2257 C2256 1.287 . S
C2257 C2258 1.524 . S
C2257 H2260 0.999 . S
C2258 H2228 0.950 . S
C2258 C2257 1.524 . S
C2258 C2259 1.415 . S
C2259 H2229 0.950 . S
C2259 C2254 1.363 . S
C2259 C2258 1.415 . S
H2260 C2257 0.999 . S
H2261 C2242 0.913 . S
H2262 C2280 0.951 . S
H2263 C2282 0.951 . S
H2264 C2284 0.950 . S
H2265 C2285 0.950 . S
H2266 C2287 0.950 . S
H2267 C2290 0.950 . S
H2268 C2291 0.950 . S
H2269 C2293 0.950 . S
H2270 C2294 0.950 . S
H2271 C2295 0.951 . S
H2272 C2297 0.951 . S
H2273 C2299 0.950 . S
H2274 C2300 0.950 . S
H2275 C2302 0.950 . S
H2276 C2305 0.950 . S
H2277 C2306 0.950 . S
H2278 C2308 0.950 . S
H2279 C2309 0.950 . S
C2280 H2262 0.951 . S
C2280 C2281 1.366 . S
C2280 C2282 1.388 . S
C2281 C2280 1.366 . S
C2281 C2285 1.385 . S
C2282 H2263 0.951 . S
C2282 C2280 1.388 . S
C2282 C2283 1.366 . S
C2283 C2282 1.366 . S
C2283 C2284 1.414 . S
C2283 C2286 1.499 . S
C2284 H2264 0.950 . S
C2284 C2283 1.414 . S
C2284 C2285 1.374 . S
C2285 H2265 0.950 . S
C2285 C2281 1.385 . S
C2285 C2284 1.374 . S
C2286 C2283 1.499 . S
C2286 C2287 1.373 . S
C2286 C2288 1.389 . S
C2287 H2266 0.950 . S
C2287 C2286 1.373 . S
C2287 C2303 1.377 . S
C2288 C2286 1.389 . S
C2288 C2289 1.524 . S
C2288 C2302 1.377 . S
C2289 C2288 1.524 . S
C2289 C2290 1.397 . S
C2289 C2294 1.363 . S
C2290 H2267 0.950 . S
C2290 C2289 1.397 . S
C2290 C2291 1.334 . S
C2291 H2268 0.950 . S
C2291 C2290 1.334 . S
C2291 C2292 1.287 . S
C2292 C2291 1.287 . S
C2292 C2293 1.524 . S
C2292 H2311 0.913 . S
C2293 H2269 0.950 . S
C2293 C2292 1.524 . S
C2293 C2294 1.415 . S
C2294 H2270 0.950 . S
C2294 C2289 1.363 . S
C2294 C2293 1.415 . S
C2295 H2271 0.951 . S
C2295 C2296 1.366 . S
C2295 C2297 1.388 . S
C2296 C2295 1.366 . S
C2296 C2300 1.385 . S
C2297 H2272 0.951 . S
C2297 C2295 1.388 . S
C2297 C2298 1.366 . S
C2298 C2297 1.366 . S
C2298 C2299 1.414 . S
C2298 C2301 1.499 . S
C2299 H2273 0.950 . S
C2299 C2298 1.414 . S
C2299 C2300 1.374 . S
C2300 H2274 0.950 . S
C2300 C2296 1.385 . S
C2300 C2299 1.374 . S
C2301 C2298 1.499 . S
C2301 C2302 1.373 . S
C2301 C2303 1.389 . S
C2302 H2275 0.950 . S
C2302 C2288 1.377 . S
C2302 C2301 1.373 . S
C2303 C2287 1.377 . S
C2303 C2301 1.389 . S
C2303 C2304 1.524 . S
C2304 C2303 1.524 . S
C2304 C2305 1.397 . S
C2304 C2309 1.363 . S
C2305 H2276 0.950 . S
C2305 C2304 1.397 . S
C2305 C2306 1.334 . S
C2306 H2277 0.950 . S
C2306 C2305 1.334 . S
C2306 C2307 1.287 . S
C2307 C2306 1.287 . S
C2307 C2308 1.524 . S
C2307 H2310 0.999 . S
C2308 H2278 0.950 . S
C2308 C2307 1.524 . S
C2308 C2309 1.415 . S
C2309 H2279 0.950 . S
C2309 C2304 1.363 . S
C2309 C2308 1.415 . S
H2310 C2307 0.999 . S
H2311 C2292 0.913 . S
H2312 C2330 0.951 . S
H2313 C2332 0.951 . S
H2314 C2334 0.950 . S
H2315 C2335 0.950 . S
H2316 C2337 0.950 . S
H2317 C2340 0.950 . S
H2318 C2341 0.950 . S
H2319 C2343 0.950 . S
H2320 C2344 0.950 . S
H2321 C2345 0.951 . S
H2322 C2347 0.951 . S
H2323 C2349 0.950 . S
H2324 C2350 0.950 . S
H2325 C2352 0.950 . S
H2326 C2355 0.950 . S
H2327 C2356 0.950 . S
H2328 C2358 0.950 . S
H2329 C2359 0.950 . S
C2330 H2312 0.951 . S
C2330 C2331 1.366 . S
C2330 C2332 1.388 . S
C2331 C2330 1.366 . S
C2331 C2335 1.385 . S
C2332 H2313 0.951 . S
C2332 C2330 1.388 . S
C2332 C2333 1.366 . S
C2333 C2332 1.366 . S
C2333 C2334 1.414 . S
C2333 C2336 1.499 . S
C2334 H2314 0.950 . S
C2334 C2333 1.414 . S
C2334 C2335 1.374 . S
C2335 H2315 0.950 . S
C2335 C2331 1.385 . S
C2335 C2334 1.374 . S
C2336 C2333 1.499 . S
C2336 C2337 1.373 . S
C2336 C2338 1.389 . S
C2337 H2316 0.950 . S
C2337 C2336 1.373 . S
C2337 C2353 1.377 . S
C2338 C2336 1.389 . S
C2338 C2339 1.524 . S
C2338 C2352 1.377 . S
C2339 C2338 1.524 . S
C2339 C2340 1.397 . S
C2339 C2344 1.363 . S
C2340 H2317 0.950 . S
C2340 C2339 1.397 . S
C2340 C2341 1.334 . S
C2341 H2318 0.950 . S
C2341 C2340 1.334 . S
C2341 C2342 1.287 . S
C2342 C2341 1.287 . S
C2342 C2343 1.524 . S
C2342 H2361 0.913 . S
C2343 H2319 0.950 . S
C2343 C2342 1.524 . S
C2343 C2344 1.415 . S
C2344 H2320 0.950 . S
C2344 C2339 1.363 . S
C2344 C2343 1.415 . S
C2345 H2321 0.951 . S
C2345 C2346 1.366 . S
C2345 C2347 1.388 . S
C2346 C2345 1.366 . S
C2346 C2350 1.385 . S
C2347 H2322 0.951 . S
C2347 C2345 1.388 . S
C2347 C2348 1.366 . S
C2348 C2347 1.366 . S
C2348 C2349 1.414 . S
C2348 C2351 1.499 . S
C2349 H2323 0.950 . S
C2349 C2348 1.414 . S
C2349 C2350 1.374 . S
C2350 H2324 0.950 . S
C2350 C2346 1.385 . S
C2350 C2349 1.374 . S
C2351 C2348 1.499 . S
C2351 C2352 1.373 . S
C2351 C2353 1.389 . S
C2352 H2325 0.950 . S
C2352 C2338 1.377 . S
C2352 C2351 1.373 . S
C2353 C2337 1.377 . S
C2353 C2351 1.389 . S
C2353 C2354 1.524 . S
C2354 C2353 1.524 . S
C2354 C2355 1.397 . S
C2354 C2359 1.363 . S
C2355 H2326 0.950 . S
C2355 C2354 1.397 . S
C2355 C2356 1.334 . S
C2356 H2327 0.950 . S
C2356 C2355 1.334 . S
C2356 C2357 1.287 . S
C2357 C2356 1.287 . S
C2357 C2358 1.524 . S
C2357 H2360 0.999 . S
C2358 H2328 0.950 . S
C2358 C2357 1.524 . S
C2358 C2359 1.415 . S
C2359 H2329 0.950 . S
C2359 C2354 1.363 . S
C2359 C2358 1.415 . S
H2360 C2357 0.999 . S
H2361 C2342 0.913 . S
H2362 C2380 0.951 . S
H2363 C2382 0.951 . S
H2364 C2384 0.950 . S
H2365 C2385 0.950 . S
H2366 C2387 0.950 . S
H2367 C2390 0.950 . S
H2368 C2391 0.950 . S
H2369 C2393 0.950 . S
H2370 C2394 0.950 . S
H2371 C2395 0.951 . S
H2372 C2397 0.951 . S
H2373 C2399 0.950 . S
H2374 C2400 0.950 . S
H2375 C2402 0.950 . S
H2376 C2405 0.950 . S
H2377 C2406 0.950 . S
H2378 C2408 0.950 . S
H2379 C2409 0.950 . S
C2380 H2362 0.951 . S
C2380 C2381 1.366 . S
C2380 C2382 1.388 . S
C2381 C2380 1.366 . S
C2381 C2385 1.385 . S
C2382 H2363 0.951 . S
C2382 C2380 1.388 . S
C2382 C2383 1.366 . S
C2383 C2382 1.366 . S
C2383 C2384 1.414 . S
C2383 C2386 1.499 . S
C2384 H2364 0.950 . S
C2384 C2383 1.414 . S
C2384 C2385 1.374 . S
C2385 H2365 0.950 . S
C2385 C2381 1.385 . S
C2385 C2384 1.374 . S
C2386 C2383 1.499 . S
C2386 C2387 1.373 . S
C2386 C2388 1.389 . S
C2387 H2366 0.950 . S
C2387 C2386 1.373 . S
C2387 C2403 1.377 . S
C2388 C2386 1.389 . S
C2388 C2389 1.524 . S
C2388 C2402 1.377 . S
C2389 C2388 1.524 . S
C2389 C2390 1.397 . S
C2389 C2394 1.363 . S
C2390 H2367 0.950 . S
C2390 C2389 1.397 . S
C2390 C2391 1.334 . S
C2391 H2368 0.950 . S
C2391 C2390 1.334 . S
C2391 C2392 1.287 . S
C2392 C2391 1.287 . S
C2392 C2393 1.524 . S
C2392 H2411 0.913 . S
C2393 H2369 0.950 . S
C2393 C2392 1.524 . S
C2393 C2394 1.415 . S
C2394 H2370 0.950 . S
C2394 C2389 1.363 . S
C2394 C2393 1.415 . S
C2395 H2371 0.951 . S
C2395 C2396 1.366 . S
C2395 C2397 1.388 . S
C2396 C2395 1.366 . S
C2396 C2400 1.385 . S
C2397 H2372 0.951 . S
C2397 C2395 1.388 . S
C2397 C2398 1.366 . S
C2398 C2397 1.366 . S
C2398 C2399 1.414 . S
C2398 C2401 1.499 . S
C2399 H2373 0.950 . S
C2399 C2398 1.414 . S
C2399 C2400 1.374 . S
C2400 H2374 0.950 . S
C2400 C2396 1.385 . S
C2400 C2399 1.374 . S
C2401 C2398 1.499 . S
C2401 C2402 1.373 . S
C2401 C2403 1.389 . S
C2402 H2375 0.950 . S
C2402 C2388 1.377 . S
C2402 C2401 1.373 . S
C2403 C2387 1.377 . S
C2403 C2401 1.389 . S
C2403 C2404 1.524 . S
C2404 C2403 1.524 . S
C2404 C2405 1.397 . S
C2404 C2409 1.363 . S
C2405 H2376 0.950 . S
C2405 C2404 1.397 . S
C2405 C2406 1.334 . S
C2406 H2377 0.950 . S
C2406 C2405 1.334 . S
C2406 C2407 1.287 . S
C2407 C2406 1.287 . S
C2407 C2408 1.524 . S
C2407 H2410 0.999 . S
C2408 H2378 0.950 . S
C2408 C2407 1.524 . S
C2408 C2409 1.415 . S
C2409 H2379 0.950 . S
C2409 C2404 1.363 . S
C2409 C2408 1.415 . S
H2410 C2407 0.999 . S
H2411 C2392 0.913 . S
H2412 C2430 0.951 . S
H2413 C2432 0.951 . S
H2414 C2434 0.950 . S
H2415 C2435 0.950 . S
H2416 C2437 0.950 . S
H2417 C2440 0.950 . S
H2418 C2441 0.950 . S
H2419 C2443 0.950 . S
H2420 C2444 0.950 . S
H2421 C2445 0.951 . S
H2422 C2447 0.951 . S
H2423 C2449 0.950 . S
H2424 C2450 0.950 . S
H2425 C2452 0.950 . S
H2426 C2455 0.950 . S
H2427 C2456 0.950 . S
H2428 C2458 0.950 . S
H2429 C2459 0.950 . S
C2430 H2412 0.951 . S
C2430 C2431 1.366 . S
C2430 C2432 1.388 . S
C2431 C2430 1.366 . S
C2431 C2435 1.385 . S
C2432 H2413 0.951 . S
C2432 C2430 1.388 . S
C2432 C2433 1.366 . S
C2433 C2432 1.366 . S
C2433 C2434 1.414 . S
C2433 C2436 1.499 . S
C2434 H2414 0.950 . S
C2434 C2433 1.414 . S
C2434 C2435 1.374 . S
C2435 H2415 0.950 . S
C2435 C2431 1.385 . S
C2435 C2434 1.374 . S
C2436 C2433 1.499 . S
C2436 C2437 1.373 . S
C2436 C2438 1.389 . S
C2437 H2416 0.950 . S
C2437 C2436 1.373 . S
C2437 C2453 1.377 . S
C2438 C2436 1.389 . S
C2438 C2439 1.524 . S
C2438 C2452 1.377 . S
C2439 C2438 1.524 . S
C2439 C2440 1.397 . S
C2439 C2444 1.363 . S
C2440 H2417 0.950 . S
C2440 C2439 1.397 . S
C2440 C2441 1.334 . S
C2441 H2418 0.950 . S
C2441 C2440 1.334 . S
C2441 C2442 1.287 . S
C2442 C2441 1.287 . S
C2442 C2443 1.524 . S
C2442 H2461 0.913 . S
C2443 H2419 0.950 . S
C2443 C2442 1.524 . S
C2443 C2444 1.415 . S
C2444 H2420 0.950 . S
C2444 C2439 1.363 . S
C2444 C2443 1.415 . S
C2445 H2421 0.951 . S
C2445 C2446 1.366 . S
C2445 C2447 1.388 . S
C2446 C2445 1.366 . S
C2446 C2450 1.385 . S
C2447 H2422 0.951 . S
C2447 C2445 1.388 . S
C2447 C2448 1.366 . S
C2448 C2447 1.366 . S
C2448 C2449 1.414 . S
C2448 C2451 1.499 . S
C2449 H2423 0.950 . S
C2449 C2448 1.414 . S
C2449 C2450 1.374 . S
C2450 H2424 0.950 . S
C2450 C2446 1.385 . S
C2450 C2449 1.374 . S
C2451 C2448 1.499 . S
C2451 C2452 1.373 . S
C2451 C2453 1.389 . S
C2452 H2425 0.950 . S
C2452 C2438 1.377 . S
C2452 C2451 1.373 . S
C2453 C2437 1.377 . S
C2453 C2451 1.389 . S
C2453 C2454 1.524 . S
C2454 C2453 1.524 . S
C2454 C2455 1.397 . S
C2454 C2459 1.363 . S
C2455 H2426 0.950 . S
C2455 C2454 1.397 . S
C2455 C2456 1.334 . S
C2456 H2427 0.950 . S
C2456 C2455 1.334 . S
C2456 C2457 1.287 . S
C2457 C2456 1.287 . S
C2457 C2458 1.524 . S
C2457 H2460 0.999 . S
C2458 H2428 0.950 . S
C2458 C2457 1.524 . S
C2458 C2459 1.415 . S
C2459 H2429 0.950 . S
C2459 C2454 1.363 . S
C2459 C2458 1.415 . S
H2460 C2457 0.999 . S
H2461 C2442 0.913 . S
H2462 C2480 0.951 . S
H2463 C2482 0.951 . S
H2464 C2484 0.950 . S
H2465 C2485 0.950 . S
H2466 C2487 0.950 . S
H2467 C2490 0.950 . S
H2468 C2491 0.950 . S
H2469 C2493 0.950 . S
H2470 C2494 0.950 . S
H2471 C2495 0.951 . S
H2472 C2497 0.951 . S
H2473 C2499 0.950 . S
H2474 C2500 0.950 . S
H2475 C2502 0.950 . S
H2476 C2505 0.950 . S
H2477 C2506 0.950 . S
H2478 C2508 0.950 . S
H2479 C2509 0.950 . S
C2480 H2462 0.951 . S
C2480 C2481 1.366 . S
C2480 C2482 1.388 . S
C2481 C2480 1.366 . S
C2481 C2485 1.385 . S
C2482 H2463 0.951 . S
C2482 C2480 1.388 . S
C2482 C2483 1.366 . S
C2483 C2482 1.366 . S
C2483 C2484 1.414 . S
C2483 C2486 1.499 . S
C2484 H2464 0.950 . S
C2484 C2483 1.414 . S
C2484 C2485 1.374 . S
C2485 H2465 0.950 . S
C2485 C2481 1.385 . S
C2485 C2484 1.374 . S
C2486 C2483 1.499 . S
C2486 C2487 1.373 . S
C2486 C2488 1.389 . S
C2487 H2466 0.950 . S
C2487 C2486 1.373 . S
C2487 C2503 1.377 . S
C2488 C2486 1.389 . S
C2488 C2489 1.524 . S
C2488 C2502 1.377 . S
C2489 C2488 1.524 . S
C2489 C2490 1.397 . S
C2489 C2494 1.363 . S
C2490 H2467 0.950 . S
C2490 C2489 1.397 . S
C2490 C2491 1.334 . S
C2491 H2468 0.950 . S
C2491 C2490 1.334 . S
C2491 C2492 1.287 . S
C2492 C2491 1.287 . S
C2492 C2493 1.524 . S
C2492 H2511 0.913 . S
C2493 H2469 0.950 . S
C2493 C2492 1.524 . S
C2493 C2494 1.415 . S
C2494 H2470 0.950 . S
C2494 C2489 1.363 . S
C2494 C2493 1.415 . S
C2495 H2471 0.951 . S
C2495 C2496 1.366 . S
C2495 C2497 1.388 . S
C2496 C2495 1.366 . S
C2496 C2500 1.385 . S
C2497 H2472 0.951 . S
C2497 C2495 1.388 . S
C2497 C2498 1.366 . S
C2498 C2497 1.366 . S
C2498 C2499 1.414 . S
C2498 C2501 1.499 . S
C2499 H2473 0.950 . S
C2499 C2498 1.414 . S
C2499 C2500 1.374 . S
C2500 H2474 0.950 . S
C2500 C2496 1.385 . S
C2500 C2499 1.374 . S
C2501 C2498 1.499 . S
C2501 C2502 1.373 . S
C2501 C2503 1.389 . S
C2502 H2475 0.950 . S
C2502 C2488 1.377 . S
C2502 C2501 1.373 . S
C2503 C2487 1.377 . S
C2503 C2501 1.389 . S
C2503 C2504 1.524 . S
C2504 C2503 1.524 . S
C2504 C2505 1.397 . S
C2504 C2509 1.363 . S
C2505 H2476 0.950 . S
C2505 C2504 1.397 . S
C2505 C2506 1.334 1_556 S
C2506 H2477 0.950 . S
C2506 C2505 1.334 1_554 S
C2506 C2507 1.287 . S
C2507 C2506 1.287 . S
C2507 C2508 1.524 . S
C2507 H2510 0.999 . S
C2508 H2478 0.950 . S
C2508 C2507 1.524 . S
C2508 C2509 1.415 1_554 S
C2509 H2479 0.950 . S
C2509 C2504 1.363 . S
C2509 C2508 1.415 1_556 S
H2510 C2507 0.999 . S
H2511 C2492 0.913 . S
H2512 C2530 0.951 . S
H2513 C2532 0.951 . S
H2514 C2534 0.950 . S
H2515 C2535 0.950 . S
H2516 C2537 0.950 . S
H2517 C2540 0.950 . S
H2518 C2541 0.950 . S
H2519 C2543 0.950 1_565 S
H2520 C2544 0.950 . S
H2521 C2545 0.951 . S
H2522 C2547 0.951 . S
H2523 C2549 0.950 . S
H2524 C2550 0.950 . S
H2525 C2552 0.950 . S
H2526 C2555 0.950 . S
H2527 C2556 0.950 . S
H2528 C2558 0.950 . S
H2529 C2559 0.950 . S
C2530 H2512 0.951 . S
C2530 C2531 1.366 . S
C2530 C2532 1.388 . S
C2531 C2530 1.366 . S
C2531 C2535 1.385 . S
C2532 H2513 0.951 . S
C2532 C2530 1.388 . S
C2532 C2533 1.366 . S
C2533 C2532 1.366 . S
C2533 C2534 1.414 . S
C2533 C2536 1.499 . S
C2534 H2514 0.950 . S
C2534 C2533 1.414 . S
C2534 C2535 1.374 . S
C2535 H2515 0.950 . S
C2535 C2531 1.385 . S
C2535 C2534 1.374 . S
C2536 C2533 1.499 . S
C2536 C2537 1.373 . S
C2536 C2538 1.389 . S
C2537 H2516 0.950 . S
C2537 C2536 1.373 . S
C2537 C2553 1.377 . S
C2538 C2536 1.389 . S
C2538 C2539 1.524 . S
C2538 C2552 1.377 . S
C2539 C2538 1.524 . S
C2539 C2540 1.397 . S
C2539 C2544 1.363 . S
C2540 H2517 0.950 . S
C2540 C2539 1.397 . S
C2540 C2541 1.334 . S
C2541 H2518 0.950 . S
C2541 C2540 1.334 . S
C2541 C2542 1.287 . S
C2542 C2541 1.287 . S
C2542 C2543 1.524 . S
C2542 H2561 0.908 . S
C2543 H2519 0.950 1_545 S
C2543 C2542 1.524 . S
C2543 C2544 1.415 . S
C2544 H2520 0.950 . S
C2544 C2539 1.363 . S
C2544 C2543 1.415 . S
C2545 H2521 0.951 . S
C2545 C2546 1.366 . S
C2545 C2547 1.388 . S
C2546 C2545 1.366 . S
C2546 C2550 1.385 . S
C2547 H2522 0.951 . S
C2547 C2545 1.388 . S
C2547 C2548 1.366 . S
C2548 C2547 1.366 . S
C2548 C2549 1.414 . S
C2548 C2551 1.499 . S
C2549 H2523 0.950 . S
C2549 C2548 1.414 . S
C2549 C2550 1.374 . S
C2550 H2524 0.950 . S
C2550 C2546 1.385 . S
C2550 C2549 1.374 . S
C2551 C2548 1.499 . S
C2551 C2552 1.373 . S
C2551 C2553 1.389 . S
C2552 H2525 0.950 . S
C2552 C2538 1.377 . S
C2552 C2551 1.373 . S
C2553 C2537 1.377 . S
C2553 C2551 1.389 . S
C2553 C2554 1.524 . S
C2554 C2553 1.524 . S
C2554 C2555 1.397 . S
C2554 C2559 1.363 . S
C2555 H2526 0.950 . S
C2555 C2554 1.397 . S
C2555 C2556 1.334 . S
C2556 H2527 0.950 . S
C2556 C2555 1.334 . S
C2556 C2557 1.287 . S
C2557 C2556 1.287 . S
C2557 C2558 1.524 . S
C2557 H2560 0.999 . S
C2558 H2528 0.950 . S
C2558 C2557 1.524 . S
C2558 C2559 1.415 . S
C2559 H2529 0.950 . S
C2559 C2554 1.363 . S
C2559 C2558 1.415 . S
H2560 C2557 0.999 . S
H2561 C2542 0.908 . S
H2562 C2580 0.951 . S
H2563 C2582 0.951 . S
H2564 C2584 0.950 . S
H2565 C2585 0.950 . S
H2566 C2587 0.950 . S
H2567 C2590 0.950 . S
H2568 C2591 0.950 . S
H2569 C2593 0.950 . S
H2570 C2594 0.950 . S
H2571 C2595 0.951 . S
H2572 C2597 0.951 . S
H2573 C2599 0.950 . S
H2574 C2600 0.950 . S
H2575 C2602 0.950 . S
H2576 C2605 0.950 . S
H2577 C2606 0.950 . S
H2578 C2608 0.950 . S
H2579 C2609 0.950 . S
C2580 H2562 0.951 . S
C2580 C2581 1.366 . S
C2580 C2582 1.388 . S
C2581 C2580 1.366 . S
C2581 C2585 1.385 . S
C2582 H2563 0.951 . S
C2582 C2580 1.388 . S
C2582 C2583 1.366 . S
C2583 C2582 1.366 . S
C2583 C2584 1.414 . S
C2583 C2586 1.499 . S
C2584 H2564 0.950 . S
C2584 C2583 1.414 . S
C2584 C2585 1.374 . S
C2585 H2565 0.950 . S
C2585 C2581 1.385 . S
C2585 C2584 1.374 . S
C2586 C2583 1.499 . S
C2586 C2587 1.373 . S
C2586 C2588 1.389 . S
C2587 H2566 0.950 . S
C2587 C2586 1.373 . S
C2587 C2603 1.377 . S
C2588 C2586 1.389 . S
C2588 C2589 1.524 . S
C2588 C2602 1.377 . S
C2589 C2588 1.524 . S
C2589 C2590 1.397 . S
C2589 C2594 1.363 . S
C2590 H2567 0.950 . S
C2590 C2589 1.397 . S
C2590 C2591 1.334 . S
C2591 H2568 0.950 . S
C2591 C2590 1.334 . S
C2591 C2592 1.287 . S
C2592 C2591 1.287 . S
C2592 C2593 1.524 . S
C2592 H2611 0.913 . S
C2593 H2569 0.950 . S
C2593 C2592 1.524 . S
C2593 C2594 1.415 . S
C2594 H2570 0.950 . S
C2594 C2589 1.363 . S
C2594 C2593 1.415 . S
C2595 H2571 0.951 . S
C2595 C2596 1.366 . S
C2595 C2597 1.388 . S
C2596 C2595 1.366 . S
C2596 C2600 1.385 . S
C2597 H2572 0.951 . S
C2597 C2595 1.388 . S
C2597 C2598 1.366 . S
C2598 C2597 1.366 . S
C2598 C2599 1.414 . S
C2598 C2601 1.499 . S
C2599 H2573 0.950 . S
C2599 C2598 1.414 . S
C2599 C2600 1.374 . S
C2600 H2574 0.950 . S
C2600 C2596 1.385 . S
C2600 C2599 1.374 . S
C2601 C2598 1.499 . S
C2601 C2602 1.373 . S
C2601 C2603 1.389 . S
C2602 H2575 0.950 . S
C2602 C2588 1.377 . S
C2602 C2601 1.373 . S
C2603 C2587 1.377 . S
C2603 C2601 1.389 . S
C2603 C2604 1.524 . S
C2604 C2603 1.524 . S
C2604 C2605 1.397 . S
C2604 C2609 1.363 . S
C2605 H2576 0.950 . S
C2605 C2604 1.397 . S
C2605 C2606 1.334 . S
C2606 H2577 0.950 . S
C2606 C2605 1.334 . S
C2606 C2607 1.287 . S
C2607 C2606 1.287 . S
C2607 C2608 1.524 . S
C2607 H2610 0.999 . S
C2608 H2578 0.950 . S
C2608 C2607 1.524 . S
C2608 C2609 1.415 . S
C2609 H2579 0.950 . S
C2609 C2604 1.363 . S
C2609 C2608 1.415 . S
H2610 C2607 0.999 . S
H2611 C2592 0.913 . S
H2612 C2630 0.951 . S
H2613 C2632 0.951 . S
H2614 C2634 0.950 . S
H2615 C2635 0.950 . S
H2616 C2637 0.950 . S
H2617 C2640 0.950 . S
H2618 C2641 0.950 . S
H2619 C2643 0.950 . S
H2620 C2644 0.950 . S
H2621 C2645 0.951 . S
H2622 C2647 0.951 . S
H2623 C2649 0.950 . S
H2624 C2650 0.950 . S
H2625 C2652 0.950 . S
H2626 C2655 0.950 . S
H2627 C2656 0.950 . S
H2628 C2658 0.950 . S
H2629 C2659 0.950 . S
C2630 H2612 0.951 . S
C2630 C2631 1.366 . S
C2630 C2632 1.388 . S
C2631 C2630 1.366 . S
C2631 C2635 1.385 . S
C2632 H2613 0.951 . S
C2632 C2630 1.388 . S
C2632 C2633 1.366 . S
C2633 C2632 1.366 . S
C2633 C2634 1.414 . S
C2633 C2636 1.499 . S
C2634 H2614 0.950 . S
C2634 C2633 1.414 . S
C2634 C2635 1.374 . S
C2635 H2615 0.950 . S
C2635 C2631 1.385 . S
C2635 C2634 1.374 . S
C2636 C2633 1.499 . S
C2636 C2637 1.373 . S
C2636 C2638 1.389 . S
C2637 H2616 0.950 . S
C2637 C2636 1.373 . S
C2637 C2653 1.377 . S
C2638 C2636 1.389 . S
C2638 C2639 1.524 . S
C2638 C2652 1.377 . S
C2639 C2638 1.524 . S
C2639 C2640 1.397 . S
C2639 C2644 1.363 . S
C2640 H2617 0.950 . S
C2640 C2639 1.397 . S
C2640 C2641 1.334 . S
C2641 H2618 0.950 . S
C2641 C2640 1.334 . S
C2641 C2642 1.287 . S
C2642 C2641 1.287 . S
C2642 C2643 1.524 . S
C2642 H2661 0.913 . S
C2643 H2619 0.950 . S
C2643 C2642 1.524 . S
C2643 C2644 1.415 . S
C2644 H2620 0.950 . S
C2644 C2639 1.363 . S
C2644 C2643 1.415 . S
C2645 H2621 0.951 . S
C2645 C2646 1.366 . S
C2645 C2647 1.388 . S
C2646 C2645 1.366 . S
C2646 C2650 1.385 . S
C2647 H2622 0.951 . S
C2647 C2645 1.388 . S
C2647 C2648 1.366 . S
C2648 C2647 1.366 . S
C2648 C2649 1.414 . S
C2648 C2651 1.499 . S
C2649 H2623 0.950 . S
C2649 C2648 1.414 . S
C2649 C2650 1.374 . S
C2650 H2624 0.950 . S
C2650 C2646 1.385 . S
C2650 C2649 1.374 . S
C2651 C2648 1.499 . S
C2651 C2652 1.373 . S
C2651 C2653 1.389 . S
C2652 H2625 0.950 . S
C2652 C2638 1.377 . S
C2652 C2651 1.373 . S
C2653 C2637 1.377 . S
C2653 C2651 1.389 . S
C2653 C2654 1.524 . S
C2654 C2653 1.524 . S
C2654 C2655 1.397 . S
C2654 C2659 1.363 . S
C2655 H2626 0.950 . S
C2655 C2654 1.397 . S
C2655 C2656 1.334 . S
C2656 H2627 0.950 . S
C2656 C2655 1.334 . S
C2656 C2657 1.287 . S
C2657 C2656 1.287 . S
C2657 C2658 1.524 . S
C2657 H2660 0.999 . S
C2658 H2628 0.950 . S
C2658 C2657 1.524 . S
C2658 C2659 1.415 . S
C2659 H2629 0.950 . S
C2659 C2654 1.363 . S
C2659 C2658 1.415 . S
H2660 C2657 0.999 . S
H2661 C2642 0.913 . S
H2662 C2680 0.951 . S
H2663 C2682 0.951 . S
H2664 C2684 0.950 . S
H2665 C2685 0.950 . S
H2666 C2687 0.950 . S
H2667 C2690 0.950 . S
H2668 C2691 0.950 . S
H2669 C2693 0.950 . S
H2670 C2694 0.950 . S
H2671 C2695 0.951 . S
H2672 C2697 0.951 . S
H2673 C2699 0.950 . S
H2674 C2700 0.950 . S
H2675 C2702 0.950 . S
H2676 C2705 0.950 . S
H2677 C2706 0.950 . S
H2678 C2708 0.950 . S
H2679 C2709 0.950 . S
C2680 H2662 0.951 . S
C2680 C2681 1.366 . S
C2680 C2682 1.388 . S
C2681 C2680 1.366 . S
C2681 C2685 1.385 . S
C2682 H2663 0.951 . S
C2682 C2680 1.388 . S
C2682 C2683 1.366 . S
C2683 C2682 1.366 . S
C2683 C2684 1.414 . S
C2683 C2686 1.499 . S
C2684 H2664 0.950 . S
C2684 C2683 1.414 . S
C2684 C2685 1.374 . S
C2685 H2665 0.950 . S
C2685 C2681 1.385 . S
C2685 C2684 1.374 . S
C2686 C2683 1.499 . S
C2686 C2687 1.373 . S
C2686 C2688 1.389 . S
C2687 H2666 0.950 . S
C2687 C2686 1.373 . S
C2687 C2703 1.377 . S
C2688 C2686 1.389 . S
C2688 C2689 1.524 . S
C2688 C2702 1.377 . S
C2689 C2688 1.524 . S
C2689 C2690 1.397 . S
C2689 C2694 1.363 . S
C2690 H2667 0.950 . S
C2690 C2689 1.397 . S
C2690 C2691 1.334 . S
C2691 H2668 0.950 . S
C2691 C2690 1.334 . S
C2691 C2692 1.287 . S
C2692 C2691 1.287 . S
C2692 C2693 1.524 . S
C2692 H2711 0.913 . S
C2693 H2669 0.950 . S
C2693 C2692 1.524 . S
C2693 C2694 1.415 . S
C2694 H2670 0.950 . S
C2694 C2689 1.363 . S
C2694 C2693 1.415 . S
C2695 H2671 0.951 . S
C2695 C2696 1.366 . S
C2695 C2697 1.388 . S
C2696 C2695 1.366 . S
C2696 C2700 1.385 . S
C2697 H2672 0.951 . S
C2697 C2695 1.388 . S
C2697 C2698 1.366 . S
C2698 C2697 1.366 . S
C2698 C2699 1.414 . S
C2698 C2701 1.499 . S
C2699 H2673 0.950 . S
C2699 C2698 1.414 . S
C2699 C2700 1.374 . S
C2700 H2674 0.950 . S
C2700 C2696 1.385 . S
C2700 C2699 1.374 . S
C2701 C2698 1.499 . S
C2701 C2702 1.373 . S
C2701 C2703 1.389 . S
C2702 H2675 0.950 . S
C2702 C2688 1.377 . S
C2702 C2701 1.373 . S
C2703 C2687 1.377 . S
C2703 C2701 1.389 . S
C2703 C2704 1.524 . S
C2704 C2703 1.524 . S
C2704 C2705 1.397 . S
C2704 C2709 1.363 . S
C2705 H2676 0.950 . S
C2705 C2704 1.397 . S
C2705 C2706 1.334 . S
C2706 H2677 0.950 . S
C2706 C2705 1.334 . S
C2706 C2707 1.287 1_565 S
C2707 C2706 1.287 1_545 S
C2707 C2708 1.524 . S
C2707 H2710 0.999 . S
C2708 H2678 0.950 . S
C2708 C2707 1.524 . S
C2708 C2709 1.415 1_545 S
C2709 H2679 0.950 . S
C2709 C2704 1.363 . S
C2709 C2708 1.415 1_565 S
H2710 C2707 0.999 . S
H2711 C2692 0.913 . S
H2712 C2730 0.951 . S
H2713 C2732 0.951 . S
H2714 C2734 0.950 . S
H2715 C2735 0.950 . S
H2716 C2737 0.950 . S
H2717 C2740 0.950 . S
H2718 C2741 0.950 . S
H2719 C2743 0.950 . S
H2720 C2744 0.950 . S
H2721 C2745 0.951 . S
H2722 C2747 0.951 . S
H2723 C2749 0.950 . S
H2724 C2750 0.950 . S
H2725 C2752 0.950 . S
H2726 C2755 0.950 . S
H2727 C2756 0.950 . S
H2728 C2758 0.950 . S
H2729 C2759 0.950 . S
C2730 H2712 0.951 . S
C2730 C2731 1.366 . S
C2730 C2732 1.388 . S
C2731 C2730 1.366 . S
C2731 C2735 1.385 . S
C2732 H2713 0.951 . S
C2732 C2730 1.388 . S
C2732 C2733 1.366 . S
C2733 C2732 1.366 . S
C2733 C2734 1.414 . S
C2733 C2736 1.499 . S
C2734 H2714 0.950 . S
C2734 C2733 1.414 . S
C2734 C2735 1.374 . S
C2735 H2715 0.950 . S
C2735 C2731 1.385 . S
C2735 C2734 1.374 . S
C2736 C2733 1.499 . S
C2736 C2737 1.373 . S
C2736 C2738 1.389 . S
C2737 H2716 0.950 . S
C2737 C2736 1.373 . S
C2737 C2753 1.377 . S
C2738 C2736 1.389 . S
C2738 C2739 1.524 . S
C2738 C2752 1.377 . S
C2739 C2738 1.524 . S
C2739 C2740 1.397 . S
C2739 C2744 1.363 . S
C2740 H2717 0.950 . S
C2740 C2739 1.397 . S
C2740 C2741 1.334 . S
C2741 H2718 0.950 . S
C2741 C2740 1.334 . S
C2741 C2742 1.287 . S
C2742 C2741 1.287 . S
C2742 C2743 1.524 . S
C2742 H2761 0.913 . S
C2743 H2719 0.950 . S
C2743 C2742 1.524 . S
C2743 C2744 1.415 . S
C2744 H2720 0.950 . S
C2744 C2739 1.363 . S
C2744 C2743 1.415 . S
C2745 H2721 0.951 . S
C2745 C2746 1.366 . S
C2745 C2747 1.388 . S
C2746 C2745 1.366 . S
C2746 C2750 1.385 . S
C2747 H2722 0.951 . S
C2747 C2745 1.388 . S
C2747 C2748 1.366 . S
C2748 C2747 1.366 . S
C2748 C2749 1.414 . S
C2748 C2751 1.499 . S
C2749 H2723 0.950 . S
C2749 C2748 1.414 . S
C2749 C2750 1.374 . S
C2750 H2724 0.950 . S
C2750 C2746 1.385 . S
C2750 C2749 1.374 . S
C2751 C2748 1.499 . S
C2751 C2752 1.373 . S
C2751 C2753 1.389 . S
C2752 H2725 0.950 . S
C2752 C2738 1.377 . S
C2752 C2751 1.373 . S
C2753 C2737 1.377 . S
C2753 C2751 1.389 . S
C2753 C2754 1.524 . S
C2754 C2753 1.524 . S
C2754 C2755 1.397 . S
C2754 C2759 1.363 . S
C2755 H2726 0.950 . S
C2755 C2754 1.397 . S
C2755 C2756 1.334 . S
C2756 H2727 0.950 . S
C2756 C2755 1.334 . S
C2756 C2757 1.287 . S
C2757 C2756 1.287 . S
C2757 C2758 1.524 . S
C2757 H2760 0.999 . S
C2758 H2728 0.950 . S
C2758 C2757 1.524 . S
C2758 C2759 1.415 . S
C2759 H2729 0.950 . S
C2759 C2754 1.363 . S
C2759 C2758 1.415 . S
H2760 C2757 0.999 . S
H2761 C2742 0.913 . S
H2762 C2780 0.951 . S
H2763 C2782 0.951 . S
H2764 C2784 0.950 . S
H2765 C2785 0.950 . S
H2766 C2787 0.950 . S
H2767 C2790 0.950 . S
H2768 C2791 0.950 . S
H2769 C2793 0.950 1_455 S
H2770 C2794 0.950 . S
H2771 C2795 0.951 . S
H2772 C2797 0.951 . S
H2773 C2799 0.950 . S
H2774 C2800 0.950 . S
H2775 C2802 0.950 . S
H2776 C2805 0.950 . S
H2777 C2806 0.950 . S
H2778 C2808 0.950 . S
H2779 C2809 0.950 . S
C2780 H2762 0.951 . S
C2780 C2781 1.366 . S
C2780 C2782 1.388 . S
C2781 C2780 1.366 . S
C2781 C2785 1.385 . S
C2782 H2763 0.951 . S
C2782 C2780 1.388 . S
C2782 C2783 1.366 . S
C2783 C2782 1.366 . S
C2783 C2784 1.414 . S
C2783 C2786 1.499 . S
C2784 H2764 0.950 . S
C2784 C2783 1.414 . S
C2784 C2785 1.374 . S
C2785 H2765 0.950 . S
C2785 C2781 1.385 . S
C2785 C2784 1.374 . S
C2786 C2783 1.499 . S
C2786 C2787 1.373 . S
C2786 C2788 1.389 . S
C2787 H2766 0.950 . S
C2787 C2786 1.373 . S
C2787 C2803 1.377 . S
C2788 C2786 1.389 . S
C2788 C2789 1.524 . S
C2788 C2802 1.377 . S
C2789 C2788 1.524 . S
C2789 C2790 1.397 . S
C2789 C2794 1.363 . S
C2790 H2767 0.950 . S
C2790 C2789 1.397 . S
C2790 C2791 1.334 . S
C2791 H2768 0.950 . S
C2791 C2790 1.334 . S
C2791 C2792 1.287 . S
C2792 C2791 1.287 . S
C2792 C2793 1.524 . S
C2792 H2811 0.913 . S
C2793 H2769 0.950 1_655 S
C2793 C2792 1.524 . S
C2793 C2794 1.415 . S
C2794 H2770 0.950 . S
C2794 C2789 1.363 . S
C2794 C2793 1.415 . S
C2795 H2771 0.951 . S
C2795 C2796 1.366 . S
C2795 C2797 1.388 . S
C2796 C2795 1.366 . S
C2796 C2800 1.385 . S
C2797 H2772 0.951 . S
C2797 C2795 1.388 . S
C2797 C2798 1.366 . S
C2798 C2797 1.366 . S
C2798 C2799 1.414 . S
C2798 C2801 1.499 . S
C2799 H2773 0.950 . S
C2799 C2798 1.414 . S
C2799 C2800 1.374 . S
C2800 H2774 0.950 . S
C2800 C2796 1.385 . S
C2800 C2799 1.374 . S
C2801 C2798 1.499 . S
C2801 C2802 1.373 . S
C2801 C2803 1.389 . S
C2802 H2775 0.950 . S
C2802 C2788 1.377 . S
C2802 C2801 1.373 . S
C2803 C2787 1.377 . S
C2803 C2801 1.389 . S
C2803 C2804 1.524 . S
C2804 C2803 1.524 . S
C2804 C2805 1.397 . S
C2804 C2809 1.363 . S
C2805 H2776 0.950 . S
C2805 C2804 1.397 . S
C2805 C2806 1.334 . S
C2806 H2777 0.950 . S
C2806 C2805 1.334 . S
C2806 C2807 1.287 . S
C2807 C2806 1.287 . S
C2807 C2808 1.524 . S
C2807 H2810 0.999 . S
C2808 H2778 0.950 . S
C2808 C2807 1.524 . S
C2808 C2809 1.415 . S
C2809 H2779 0.950 . S
C2809 C2804 1.363 . S
C2809 C2808 1.415 . S
H2810 C2807 0.999 . S
H2811 C2792 0.913 . S
H2812 C2830 0.951 . S
H2813 C2832 0.951 . S
H2814 C2834 0.950 . S
H2815 C2835 0.950 . S
H2816 C2837 0.950 . S
H2817 C2840 0.950 . S
H2818 C2841 0.950 . S
H2819 C2843 0.950 . S
H2820 C2844 0.950 . S
H2821 C2845 0.951 . S
H2822 C2847 0.951 . S
H2823 C2849 0.950 . S
H2824 C2850 0.950 . S
H2825 C2852 0.950 . S
H2826 C2855 0.950 . S
H2827 C2856 0.950 . S
H2828 C2858 0.950 . S
H2829 C2859 0.950 . S
C2830 H2812 0.951 . S
C2830 C2831 1.366 . S
C2830 C2832 1.388 . S
C2831 C2830 1.366 . S
C2831 C2835 1.385 . S
C2832 H2813 0.951 . S
C2832 C2830 1.388 . S
C2832 C2833 1.366 . S
C2833 C2832 1.366 . S
C2833 C2834 1.414 . S
C2833 C2836 1.499 . S
C2834 H2814 0.950 . S
C2834 C2833 1.414 . S
C2834 C2835 1.374 . S
C2835 H2815 0.950 . S
C2835 C2831 1.385 . S
C2835 C2834 1.374 . S
C2836 C2833 1.499 . S
C2836 C2837 1.373 . S
C2836 C2838 1.389 . S
C2837 H2816 0.950 . S
C2837 C2836 1.373 . S
C2837 C2853 1.377 . S
C2838 C2836 1.389 . S
C2838 C2839 1.524 . S
C2838 C2852 1.377 . S
C2839 C2838 1.524 . S
C2839 C2840 1.397 . S
C2839 C2844 1.363 . S
C2840 H2817 0.950 . S
C2840 C2839 1.397 . S
C2840 C2841 1.334 . S
C2841 H2818 0.950 . S
C2841 C2840 1.334 . S
C2841 C2842 1.287 . S
C2842 C2841 1.287 . S
C2842 C2843 1.524 . S
C2842 H2861 0.913 . S
C2843 H2819 0.950 . S
C2843 C2842 1.524 . S
C2843 C2844 1.415 . S
C2844 H2820 0.950 . S
C2844 C2839 1.363 . S
C2844 C2843 1.415 . S
C2845 H2821 0.951 . S
C2845 C2846 1.366 . S
C2845 C2847 1.388 . S
C2846 C2845 1.366 . S
C2846 C2850 1.385 . S
C2847 H2822 0.951 . S
C2847 C2845 1.388 . S
C2847 C2848 1.366 . S
C2848 C2847 1.366 . S
C2848 C2849 1.414 . S
C2848 C2851 1.499 . S
C2849 H2823 0.950 . S
C2849 C2848 1.414 . S
C2849 C2850 1.374 . S
C2850 H2824 0.950 . S
C2850 C2846 1.385 . S
C2850 C2849 1.374 . S
C2851 C2848 1.499 . S
C2851 C2852 1.373 . S
C2851 C2853 1.389 . S
C2852 H2825 0.950 . S
C2852 C2838 1.377 . S
C2852 C2851 1.373 . S
C2853 C2837 1.377 . S
C2853 C2851 1.389 . S
C2853 C2854 1.524 . S
C2854 C2853 1.524 . S
C2854 C2855 1.397 . S
C2854 C2859 1.363 . S
C2855 H2826 0.950 . S
C2855 C2854 1.397 . S
C2855 C2856 1.334 . S
C2856 H2827 0.950 . S
C2856 C2855 1.334 . S
C2856 C2857 1.287 . S
C2857 C2856 1.287 . S
C2857 C2858 1.524 . S
C2857 H2860 0.999 . S
C2858 H2828 0.950 . S
C2858 C2857 1.524 . S
C2858 C2859 1.415 . S
C2859 H2829 0.950 . S
C2859 C2854 1.363 . S
C2859 C2858 1.415 . S
H2860 C2857 0.999 . S
H2861 C2842 0.913 . S
H2862 C2880 0.951 . S
H2863 C2882 0.951 . S
H2864 C2884 0.950 . S
H2865 C2885 0.950 . S
H2866 C2887 0.950 . S
H2867 C2890 0.950 . S
H2868 C2891 0.950 . S
H2869 C2893 0.950 . S
H2870 C2894 0.950 . S
H2871 C2895 0.951 . S
H2872 C2897 0.951 . S
H2873 C2899 0.950 . S
H2874 C2900 0.950 . S
H2875 C2902 0.950 . S
H2876 C2905 0.950 . S
H2877 C2906 0.950 . S
H2878 C2908 0.950 . S
H2879 C2909 0.950 . S
C2880 H2862 0.951 . S
C2880 C2881 1.366 . S
C2880 C2882 1.388 . S
C2881 C2880 1.366 . S
C2881 C2885 1.385 . S
C2882 H2863 0.951 . S
C2882 C2880 1.388 . S
C2882 C2883 1.366 . S
C2883 C2882 1.366 . S
C2883 C2884 1.414 . S
C2883 C2886 1.499 . S
C2884 H2864 0.950 . S
C2884 C2883 1.414 . S
C2884 C2885 1.374 . S
C2885 H2865 0.950 . S
C2885 C2881 1.385 . S
C2885 C2884 1.374 . S
C2886 C2883 1.499 . S
C2886 C2887 1.373 . S
C2886 C2888 1.389 . S
C2887 H2866 0.950 . S
C2887 C2886 1.373 . S
C2887 C2903 1.377 . S
C2888 C2886 1.389 . S
C2888 C2889 1.524 . S
C2888 C2902 1.377 . S
C2889 C2888 1.524 . S
C2889 C2890 1.397 . S
C2889 C2894 1.363 . S
C2890 H2867 0.950 . S
C2890 C2889 1.397 . S
C2890 C2891 1.334 . S
C2891 H2868 0.950 . S
C2891 C2890 1.334 . S
C2891 C2892 1.287 . S
C2892 C2891 1.287 . S
C2892 C2893 1.524 . S
C2892 H2911 0.913 . S
C2893 H2869 0.950 . S
C2893 C2892 1.524 . S
C2893 C2894 1.415 . S
C2894 H2870 0.950 . S
C2894 C2889 1.363 . S
C2894 C2893 1.415 . S
C2895 H2871 0.951 . S
C2895 C2896 1.366 . S
C2895 C2897 1.388 . S
C2896 C2895 1.366 . S
C2896 C2900 1.385 . S
C2897 H2872 0.951 . S
C2897 C2895 1.388 . S
C2897 C2898 1.366 . S
C2898 C2897 1.366 . S
C2898 C2899 1.414 . S
C2898 C2901 1.499 . S
C2899 H2873 0.950 . S
C2899 C2898 1.414 . S
C2899 C2900 1.374 . S
C2900 H2874 0.950 . S
C2900 C2896 1.385 . S
C2900 C2899 1.374 . S
C2901 C2898 1.499 . S
C2901 C2902 1.373 . S
C2901 C2903 1.389 . S
C2902 H2875 0.950 . S
C2902 C2888 1.377 . S
C2902 C2901 1.373 . S
C2903 C2887 1.377 . S
C2903 C2901 1.389 . S
C2903 C2904 1.524 . S
C2904 C2903 1.524 . S
C2904 C2905 1.397 . S
C2904 C2909 1.363 . S
C2905 H2876 0.950 . S
C2905 C2904 1.397 . S
C2905 C2906 1.334 . S
C2906 H2877 0.950 . S
C2906 C2905 1.334 . S
C2906 C2907 1.287 . S
C2907 C2906 1.287 . S
C2907 C2908 1.524 . S
C2907 H2910 0.999 . S
C2908 H2878 0.950 . S
C2908 C2907 1.524 . S
C2908 C2909 1.415 . S
C2909 H2879 0.950 . S
C2909 C2904 1.363 . S
C2909 C2908 1.415 . S
H2910 C2907 0.999 . S
H2911 C2892 0.913 . S
H2912 C2930 0.951 . S
H2913 C2932 0.951 . S
H2914 C2934 0.950 . S
H2915 C2935 0.950 . S
H2916 C2937 0.950 . S
H2917 C2940 0.950 . S
H2918 C2941 0.950 . S
H2919 C2943 0.950 . S
H2920 C2944 0.950 . S
H2921 C2945 0.951 . S
H2922 C2947 0.951 . S
H2923 C2949 0.950 . S
H2924 C2950 0.950 . S
H2925 C2952 0.950 . S
H2926 C2955 0.950 . S
H2927 C2956 0.950 . S
H2928 C2958 0.950 . S
H2929 C2959 0.950 . S
C2930 H2912 0.951 . S
C2930 C2931 1.366 . S
C2930 C2932 1.388 . S
C2931 C2930 1.366 . S
C2931 C2935 1.385 . S
C2932 H2913 0.951 . S
C2932 C2930 1.388 . S
C2932 C2933 1.366 . S
C2933 C2932 1.366 . S
C2933 C2934 1.414 . S
C2933 C2936 1.499 . S
C2934 H2914 0.950 . S
C2934 C2933 1.414 . S
C2934 C2935 1.374 . S
C2935 H2915 0.950 . S
C2935 C2931 1.385 . S
C2935 C2934 1.374 . S
C2936 C2933 1.499 . S
C2936 C2937 1.373 . S
C2936 C2938 1.389 . S
C2937 H2916 0.950 . S
C2937 C2936 1.373 . S
C2937 C2953 1.377 . S
C2938 C2936 1.389 . S
C2938 C2939 1.524 . S
C2938 C2952 1.377 . S
C2939 C2938 1.524 . S
C2939 C2940 1.397 . S
C2939 C2944 1.363 . S
C2940 H2917 0.950 . S
C2940 C2939 1.397 . S
C2940 C2941 1.334 . S
C2941 H2918 0.950 . S
C2941 C2940 1.334 . S
C2941 C2942 1.287 . S
C2942 C2941 1.287 . S
C2942 C2943 1.524 . S
C2942 H2961 0.913 . S
C2943 H2919 0.950 . S
C2943 C2942 1.524 . S
C2943 C2944 1.415 . S
C2944 H2920 0.950 . S
C2944 C2939 1.363 . S
C2944 C2943 1.415 . S
C2945 H2921 0.951 . S
C2945 C2946 1.366 . S
C2945 C2947 1.388 . S
C2946 C2945 1.366 . S
C2946 C2950 1.385 . S
C2947 H2922 0.951 . S
C2947 C2945 1.388 . S
C2947 C2948 1.366 . S
C2948 C2947 1.366 . S
C2948 C2949 1.414 . S
C2948 C2951 1.499 . S
C2949 H2923 0.950 . S
C2949 C2948 1.414 . S
C2949 C2950 1.374 . S
C2950 H2924 0.950 . S
C2950 C2946 1.385 . S
C2950 C2949 1.374 . S
C2951 C2948 1.499 . S
C2951 C2952 1.373 . S
C2951 C2953 1.389 . S
C2952 H2925 0.950 . S
C2952 C2938 1.377 . S
C2952 C2951 1.373 . S
C2953 C2937 1.377 . S
C2953 C2951 1.389 . S
C2953 C2954 1.524 . S
C2954 C2953 1.524 . S
C2954 C2955 1.397 . S
C2954 C2959 1.363 . S
C2955 H2926 0.950 . S
C2955 C2954 1.397 . S
C2955 C2956 1.334 . S
C2956 H2927 0.950 . S
C2956 C2955 1.334 . S
C2956 C2957 1.287 . S
C2957 C2956 1.287 . S
C2957 C2958 1.524 . S
C2957 H2960 0.999 . S
C2958 H2928 0.950 . S
C2958 C2957 1.524 . S
C2958 C2959 1.415 . S
C2959 H2929 0.950 . S
C2959 C2954 1.363 . S
C2959 C2958 1.415 . S
H2960 C2957 0.999 . S
H2961 C2942 0.913 . S
H2962 C2980 0.951 . S
H2963 C2982 0.951 . S
H2964 C2984 0.950 . S
H2965 C2985 0.950 . S
H2966 C2987 0.950 . S
H2967 C2990 0.950 . S
H2968 C2991 0.950 . S
H2969 C2993 0.950 . S
H2970 C2994 0.950 . S
H2971 C2995 0.951 . S
H2972 C2997 0.951 . S
H2973 C2999 0.950 . S
H2974 C3000 0.950 . S
H2975 C3002 0.950 . S
H2976 C3005 0.950 . S
H2977 C3006 0.950 . S
H2978 C3008 0.950 . S
H2979 C3009 0.950 . S
C2980 H2962 0.951 . S
C2980 C2981 1.366 . S
C2980 C2982 1.388 . S
C2981 C2980 1.366 . S
C2981 C2985 1.385 . S
C2982 H2963 0.951 . S
C2982 C2980 1.388 . S
C2982 C2983 1.366 . S
C2983 C2982 1.366 . S
C2983 C2984 1.414 . S
C2983 C2986 1.499 . S
C2984 H2964 0.950 . S
C2984 C2983 1.414 . S
C2984 C2985 1.374 . S
C2985 H2965 0.950 . S
C2985 C2981 1.385 . S
C2985 C2984 1.374 . S
C2986 C2983 1.499 . S
C2986 C2987 1.373 . S
C2986 C2988 1.389 . S
C2987 H2966 0.950 . S
C2987 C2986 1.373 . S
C2987 C3003 1.377 . S
C2988 C2986 1.389 . S
C2988 C2989 1.524 . S
C2988 C3002 1.377 . S
C2989 C2988 1.524 . S
C2989 C2990 1.397 . S
C2989 C2994 1.363 . S
C2990 H2967 0.950 . S
C2990 C2989 1.397 . S
C2990 C2991 1.334 . S
C2991 H2968 0.950 . S
C2991 C2990 1.334 . S
C2991 C2992 1.287 . S
C2992 C2991 1.287 . S
C2992 C2993 1.524 . S
C2992 H3011 0.913 . S
C2993 H2969 0.950 . S
C2993 C2992 1.524 . S
C2993 C2994 1.415 . S
C2994 H2970 0.950 . S
C2994 C2989 1.363 . S
C2994 C2993 1.415 . S
C2995 H2971 0.951 . S
C2995 C2996 1.366 . S
C2995 C2997 1.388 . S
C2996 C2995 1.366 . S
C2996 C3000 1.385 . S
C2997 H2972 0.951 . S
C2997 C2995 1.388 . S
C2997 C2998 1.366 . S
C2998 C2997 1.366 . S
C2998 C2999 1.414 . S
C2998 C3001 1.499 . S
C2999 H2973 0.950 . S
C2999 C2998 1.414 . S
C2999 C3000 1.374 . S
C3000 H2974 0.950 . S
C3000 C2996 1.385 . S
C3000 C2999 1.374 . S
C3001 C2998 1.499 . S
C3001 C3002 1.373 . S
C3001 C3003 1.389 . S
C3002 H2975 0.950 . S
C3002 C2988 1.377 . S
C3002 C3001 1.373 . S
C3003 C2987 1.377 . S
C3003 C3001 1.389 . S
C3003 C3004 1.524 . S
C3004 C3003 1.524 . S
C3004 C3005 1.397 . S
C3004 C3009 1.363 . S
C3005 H2976 0.950 . S
C3005 C3004 1.397 . S
C3005 C3006 1.334 . S
C3006 H2977 0.950 . S
C3006 C3005 1.334 . S
C3006 C3007 1.287 . S
C3007 C3006 1.287 . S
C3007 C3008 1.524 . S
C3007 H3010 0.999 . S
C3008 H2978 0.950 . S
C3008 C3007 1.524 . S
C3008 C3009 1.415 . S
C3009 H2979 0.950 . S
C3009 C3004 1.363 . S
C3009 C3008 1.415 . S
H3010 C3007 0.999 . S
H3011 C2992 0.913 . S
H3012 C3030 0.951 . S
H3013 C3032 0.951 . S
H3014 C3034 0.950 . S
H3015 C3035 0.950 . S
H3016 C3037 0.950 . S
H3017 C3040 0.950 . S
H3018 C3041 0.950 . S
H3019 C3043 0.950 . S
H3020 C3044 0.950 . S
H3021 C3045 0.951 . S
H3022 C3047 0.951 . S
H3023 C3049 0.950 . S
H3024 C3050 0.950 . S
H3025 C3052 0.950 . S
H3026 C3055 0.950 . S
H3027 C3056 0.950 . S
H3028 C3058 0.950 . S
H3029 C3059 0.950 . S
C3030 H3012 0.951 . S
C3030 C3031 1.366 . S
C3030 C3032 1.388 . S
C3031 C3030 1.366 . S
C3031 C3035 1.385 . S
C3032 H3013 0.951 . S
C3032 C3030 1.388 . S
C3032 C3033 1.366 . S
C3033 C3032 1.366 . S
C3033 C3034 1.414 . S
C3033 C3036 1.499 . S
C3034 H3014 0.950 . S
C3034 C3033 1.414 . S
C3034 C3035 1.374 . S
C3035 H3015 0.950 . S
C3035 C3031 1.385 . S
C3035 C3034 1.374 . S
C3036 C3033 1.499 . S
C3036 C3037 1.373 . S
C3036 C3038 1.389 . S
C3037 H3016 0.950 . S
C3037 C3036 1.373 . S
C3037 C3053 1.377 . S
C3038 C3036 1.389 . S
C3038 C3039 1.524 . S
C3038 C3052 1.377 . S
C3039 C3038 1.524 . S
C3039 C3040 1.397 . S
C3039 C3044 1.363 . S
C3040 H3017 0.950 . S
C3040 C3039 1.397 . S
C3040 C3041 1.334 . S
C3041 H3018 0.950 . S
C3041 C3040 1.334 . S
C3041 C3042 1.287 . S
C3042 C3041 1.287 . S
C3042 C3043 1.524 . S
C3042 H3061 0.913 . S
C3043 H3019 0.950 . S
C3043 C3042 1.524 . S
C3043 C3044 1.415 . S
C3044 H3020 0.950 . S
C3044 C3039 1.363 . S
C3044 C3043 1.415 . S
C3045 H3021 0.951 . S
C3045 C3046 1.366 . S
C3045 C3047 1.388 . S
C3046 C3045 1.366 . S
C3046 C3050 1.385 . S
C3047 H3022 0.951 . S
C3047 C3045 1.388 . S
C3047 C3048 1.366 . S
C3048 C3047 1.366 . S
C3048 C3049 1.414 . S
C3048 C3051 1.499 . S
C3049 H3023 0.950 . S
C3049 C3048 1.414 . S
C3049 C3050 1.374 . S
C3050 H3024 0.950 . S
C3050 C3046 1.385 . S
C3050 C3049 1.374 . S
C3051 C3048 1.499 . S
C3051 C3052 1.373 . S
C3051 C3053 1.389 . S
C3052 H3025 0.950 . S
C3052 C3038 1.377 . S
C3052 C3051 1.373 . S
C3053 C3037 1.377 . S
C3053 C3051 1.389 . S
C3053 C3054 1.524 . S
C3054 C3053 1.524 . S
C3054 C3055 1.397 . S
C3054 C3059 1.363 . S
C3055 H3026 0.950 . S
C3055 C3054 1.397 . S
C3055 C3056 1.334 . S
C3056 H3027 0.950 . S
C3056 C3055 1.334 . S
C3056 C3057 1.287 . S
C3057 C3056 1.287 . S
C3057 C3058 1.524 . S
C3057 H3060 0.999 . S
C3058 H3028 0.950 . S
C3058 C3057 1.524 . S
C3058 C3059 1.415 . S
C3059 H3029 0.950 . S
C3059 C3054 1.363 . S
C3059 C3058 1.415 . S
H3060 C3057 0.999 . S
H3061 C3042 0.913 . S
H3062 C3080 0.951 . S
H3063 C3082 0.951 . S
H3064 C3084 0.950 . S
H3065 C3085 0.950 . S
H3066 C3087 0.950 . S
H3067 C3090 0.950 . S
H3068 C3091 0.950 . S
H3069 C3093 0.950 . S
H3070 C3094 0.950 . S
H3071 C3095 0.951 . S
H3072 C3097 0.951 . S
H3073 C3099 0.950 . S
H3074 C3100 0.950 . S
H3075 C3102 0.950 . S
H3076 C3105 0.950 . S
H3077 C3106 0.950 . S
H3078 C3108 0.886 1_455 S
H3079 C3109 0.950 . S
C3080 H3062 0.951 . S
C3080 C3081 1.366 . S
C3080 C3082 1.388 . S
C3081 C3080 1.366 . S
C3081 C3085 1.385 . S
C3082 H3063 0.951 . S
C3082 C3080 1.388 . S
C3082 C3083 1.366 . S
C3083 C3082 1.366 . S
C3083 C3084 1.414 . S
C3083 C3086 1.499 . S
C3084 H3064 0.950 . S
C3084 C3083 1.414 . S
C3084 C3085 1.374 . S
C3085 H3065 0.950 . S
C3085 C3081 1.385 . S
C3085 C3084 1.374 . S
C3086 C3083 1.499 . S
C3086 C3087 1.373 . S
C3086 C3088 1.389 . S
C3087 H3066 0.950 . S
C3087 C3086 1.373 . S
C3087 C3103 1.377 . S
C3088 C3086 1.389 . S
C3088 C3089 1.524 . S
C3088 C3102 1.377 . S
C3089 C3088 1.524 . S
C3089 C3090 1.397 . S
C3089 C3094 1.363 . S
C3090 H3067 0.950 . S
C3090 C3089 1.397 . S
C3090 C3091 1.334 . S
C3091 H3068 0.950 . S
C3091 C3090 1.334 . S
C3091 C3092 1.287 . S
C3092 C3091 1.287 . S
C3092 C3093 1.524 . S
C3092 H3111 0.913 . S
C3093 H3069 0.950 . S
C3093 C3092 1.524 . S
C3093 C3094 1.415 . S
C3094 H3070 0.950 . S
C3094 C3089 1.363 . S
C3094 C3093 1.415 . S
C3095 H3071 0.951 . S
C3095 C3096 1.366 . S
C3095 C3097 1.388 . S
C3096 C3095 1.366 . S
C3096 C3100 1.385 . S
C3097 H3072 0.951 . S
C3097 C3095 1.388 . S
C3097 C3098 1.366 . S
C3098 C3097 1.366 . S
C3098 C3099 1.414 . S
C3098 C3101 1.499 . S
C3099 H3073 0.950 . S
C3099 C3098 1.414 . S
C3099 C3100 1.374 . S
C3100 H3074 0.950 . S
C3100 C3096 1.385 . S
C3100 C3099 1.374 . S
C3101 C3098 1.499 . S
C3101 C3102 1.373 . S
C3101 C3103 1.389 . S
C3102 H3075 0.950 . S
C3102 C3088 1.377 . S
C3102 C3101 1.373 . S
C3103 C3087 1.377 . S
C3103 C3101 1.389 . S
C3103 C3104 1.524 . S
C3104 C3103 1.524 . S
C3104 C3105 1.397 . S
C3104 C3109 1.363 . S
C3105 H3076 0.950 . S
C3105 C3104 1.397 . S
C3105 C3106 1.334 . S
C3106 H3077 0.950 . S
C3106 C3105 1.334 . S
C3106 C3107 1.287 . S
C3107 C3106 1.287 . S
C3107 C3108 1.524 . S
C3107 H3110 0.999 . S
C3108 H3078 0.886 1_655 S
C3108 C3107 1.524 . S
C3108 C3109 1.415 . S
C3109 H3079 0.950 . S
C3109 C3104 1.363 . S
C3109 C3108 1.415 . S
H3110 C3107 0.999 . S
H3111 C3092 0.913 . S
H3112 C3130 0.951 . S
H3113 C3132 0.951 . S
H3114 C3134 0.950 . S
H3115 C3135 0.950 . S
H3116 C3137 0.950 . S
H3117 C3140 0.950 . S
H3118 C3141 0.950 . S
H3119 C3143 0.950 . S
H3120 C3144 0.950 . S
H3121 C3145 0.951 . S
H3122 C3147 0.951 . S
H3123 C3149 0.950 . S
H3124 C3150 0.950 . S
H3125 C3152 0.950 . S
H3126 C3155 0.950 . S
H3127 C3156 0.950 . S
H3128 C3158 0.950 . S
H3129 C3159 0.950 . S
C3130 H3112 0.951 . S
C3130 C3131 1.366 . S
C3130 C3132 1.388 . S
C3131 C3130 1.366 . S
C3131 C3135 1.385 . S
C3132 H3113 0.951 . S
C3132 C3130 1.388 . S
C3132 C3133 1.366 . S
C3133 C3132 1.366 . S
C3133 C3134 1.414 . S
C3133 C3136 1.499 . S
C3134 H3114 0.950 . S
C3134 C3133 1.414 . S
C3134 C3135 1.374 . S
C3135 H3115 0.950 . S
C3135 C3131 1.385 . S
C3135 C3134 1.374 . S
C3136 C3133 1.499 . S
C3136 C3137 1.373 . S
C3136 C3138 1.389 . S
C3137 H3116 0.950 . S
C3137 C3136 1.373 . S
C3137 C3153 1.377 . S
C3138 C3136 1.389 . S
C3138 C3139 1.524 . S
C3138 C3152 1.377 . S
C3139 C3138 1.524 . S
C3139 C3140 1.397 . S
C3139 C3144 1.363 . S
C3140 H3117 0.950 . S
C3140 C3139 1.397 . S
C3140 C3141 1.334 . S
C3141 H3118 0.950 . S
C3141 C3140 1.334 . S
C3141 C3142 1.287 . S
C3142 C3141 1.287 . S
C3142 C3143 1.524 . S
C3142 H3161 0.913 . S
C3143 H3119 0.950 . S
C3143 C3142 1.524 . S
C3143 C3144 1.415 . S
C3144 H3120 0.950 . S
C3144 C3139 1.363 . S
C3144 C3143 1.415 . S
C3145 H3121 0.951 . S
C3145 C3146 1.366 . S
C3145 C3147 1.388 . S
C3146 C3145 1.366 . S
C3146 C3150 1.385 . S
C3147 H3122 0.951 . S
C3147 C3145 1.388 . S
C3147 C3148 1.366 . S
C3148 C3147 1.366 . S
C3148 C3149 1.414 . S
C3148 C3151 1.499 . S
C3149 H3123 0.950 . S
C3149 C3148 1.414 . S
C3149 C3150 1.374 . S
C3150 H3124 0.950 . S
C3150 C3146 1.385 . S
C3150 C3149 1.374 . S
C3151 C3148 1.499 . S
C3151 C3152 1.373 . S
C3151 C3153 1.389 . S
C3152 H3125 0.950 . S
C3152 C3138 1.377 . S
C3152 C3151 1.373 . S
C3153 C3137 1.377 . S
C3153 C3151 1.389 . S
C3153 C3154 1.524 . S
C3154 C3153 1.524 . S
C3154 C3155 1.397 . S
C3154 C3159 1.363 . S
C3155 H3126 0.950 . S
C3155 C3154 1.397 . S
C3155 C3156 1.334 . S
C3156 H3127 0.950 . S
C3156 C3155 1.334 . S
C3156 C3157 1.287 . S
C3157 C3156 1.287 . S
C3157 C3158 1.524 . S
C3157 H3160 0.999 . S
C3158 H3128 0.950 . S
C3158 C3157 1.524 . S
C3158 C3159 1.415 . S
C3159 H3129 0.950 . S
C3159 C3154 1.363 . S
C3159 C3158 1.415 . S
H3160 C3157 0.999 . S
H3161 C3142 0.913 . S
H3162 C3180 0.951 . S
H3163 C3182 0.951 . S
H3164 C3184 0.950 . S
H3165 C3185 0.950 . S
H3166 C3187 0.950 . S
H3167 C3190 0.950 . S
H3168 C3191 0.950 . S
H3169 C3193 0.950 . S
H3170 C3194 0.950 . S
H3171 C3195 0.951 . S
H3172 C3197 0.951 . S
H3173 C3199 0.950 . S
H3174 C3200 0.950 . S
H3175 C3202 0.950 . S
H3176 C3205 0.950 . S
H3177 C3206 0.950 . S
H3178 C3208 0.950 . S
H3179 C3209 0.950 . S
C3180 H3162 0.951 . S
C3180 C3181 1.366 . S
C3180 C3182 1.388 . S
C3181 C3180 1.366 . S
C3181 C3185 1.385 . S
C3182 H3163 0.951 . S
C3182 C3180 1.388 . S
C3182 C3183 1.366 . S
C3183 C3182 1.366 . S
C3183 C3184 1.414 . S
C3183 C3186 1.499 . S
C3184 H3164 0.950 . S
C3184 C3183 1.414 . S
C3184 C3185 1.374 . S
C3185 H3165 0.950 . S
C3185 C3181 1.385 . S
C3185 C3184 1.374 . S
C3186 C3183 1.499 . S
C3186 C3187 1.373 . S
C3186 C3188 1.389 . S
C3187 H3166 0.950 . S
C3187 C3186 1.373 . S
C3187 C3203 1.377 . S
C3188 C3186 1.389 . S
C3188 C3189 1.524 . S
C3188 C3202 1.377 . S
C3189 C3188 1.524 . S
C3189 C3190 1.397 . S
C3189 C3194 1.363 . S
C3190 H3167 0.950 . S
C3190 C3189 1.397 . S
C3190 C3191 1.334 . S
C3191 H3168 0.950 . S
C3191 C3190 1.334 . S
C3191 C3192 1.287 . S
C3192 C3191 1.287 . S
C3192 C3193 1.524 . S
C3192 H3211 0.913 . S
C3193 H3169 0.950 . S
C3193 C3192 1.524 . S
C3193 C3194 1.415 . S
C3194 H3170 0.950 . S
C3194 C3189 1.363 . S
C3194 C3193 1.415 . S
C3195 H3171 0.951 . S
C3195 C3196 1.366 . S
C3195 C3197 1.388 . S
C3196 C3195 1.366 . S
C3196 C3200 1.385 . S
C3197 H3172 0.951 . S
C3197 C3195 1.388 . S
C3197 C3198 1.366 . S
C3198 C3197 1.366 . S
C3198 C3199 1.414 . S
C3198 C3201 1.499 . S
C3199 H3173 0.950 . S
C3199 C3198 1.414 . S
C3199 C3200 1.374 . S
C3200 H3174 0.950 . S
C3200 C3196 1.385 . S
C3200 C3199 1.374 . S
C3201 C3198 1.499 . S
C3201 C3202 1.373 . S
C3201 C3203 1.389 . S
C3202 H3175 0.950 . S
C3202 C3188 1.377 . S
C3202 C3201 1.373 . S
C3203 C3187 1.377 . S
C3203 C3201 1.389 . S
C3203 C3204 1.524 . S
C3204 C3203 1.524 . S
C3204 C3205 1.397 . S
C3204 C3209 1.363 . S
C3205 H3176 0.950 . S
C3205 C3204 1.397 . S
C3205 C3206 1.334 . S
C3206 H3177 0.950 . S
C3206 C3205 1.334 . S
C3206 C3207 1.287 . S
C3207 C3206 1.287 . S
C3207 C3208 1.524 . S
C3207 H3210 0.999 . S
C3208 H3178 0.950 . S
C3208 C3207 1.524 . S
C3208 C3209 1.415 . S
C3209 H3179 0.950 . S
C3209 C3204 1.363 . S
C3209 C3208 1.415 . S
H3210 C3207 0.999 . S
H3211 C3192 0.913 . S
H3212 C3230 0.951 . S
H3213 C3232 0.951 . S
H3214 C3234 0.950 . S
H3215 C3235 0.950 . S
H3216 C3237 0.950 . S
H3217 C3240 0.950 . S
H3218 C3241 0.950 . S
H3219 C3243 0.950 1_556 S
H3220 C3244 0.950 . S
H3221 C3245 0.951 . S
H3222 C3247 0.951 . S
H3223 C3249 0.950 . S
H3224 C3250 0.950 . S
H3225 C3252 0.950 . S
H3226 C3255 0.950 . S
H3227 C3256 0.950 . S
H3228 C3258 0.950 . S
H3229 C3259 0.950 . S
C3230 H3212 0.951 . S
C3230 C3231 1.366 . S
C3230 C3232 1.388 . S
C3231 C3230 1.366 . S
C3231 C3235 1.385 . S
C3232 H3213 0.951 . S
C3232 C3230 1.388 . S
C3232 C3233 1.366 . S
C3233 C3232 1.366 . S
C3233 C3234 1.414 . S
C3233 C3236 1.499 . S
C3234 H3214 0.950 . S
C3234 C3233 1.414 . S
C3234 C3235 1.374 . S
C3235 H3215 0.950 . S
C3235 C3231 1.385 . S
C3235 C3234 1.374 . S
C3236 C3233 1.499 . S
C3236 C3237 1.373 . S
C3236 C3238 1.389 . S
C3237 H3216 0.950 . S
C3237 C3236 1.373 . S
C3237 C3253 1.377 . S
C3238 C3236 1.389 . S
C3238 C3239 1.524 . S
C3238 C3252 1.377 . S
C3239 C3238 1.524 . S
C3239 C3240 1.397 . S
C3239 C3244 1.363 . S
C3240 H3217 0.950 . S
C3240 C3239 1.397 . S
C3240 C3241 1.334 . S
C3241 H3218 0.950 . S
C3241 C3240 1.334 . S
C3241 C3242 1.287 . S
C3242 C3241 1.287 . S
C3242 C3243 1.524 . S
C3242 H3261 0.913 . S
C3243 H3219 0.950 1_554 S
C3243 C3242 1.524 . S
C3243 C3244 1.415 . S
C3244 H3220 0.950 . S
C3244 C3239 1.363 . S
C3244 C3243 1.415 . S
C3245 H3221 0.951 . S
C3245 C3246 1.366 . S
C3245 C3247 1.388 . S
C3246 C3245 1.366 . S
C3246 C3250 1.385 . S
C3247 H3222 0.951 . S
C3247 C3245 1.388 . S
C3247 C3248 1.366 . S
C3248 C3247 1.366 . S
C3248 C3249 1.414 . S
C3248 C3251 1.499 . S
C3249 H3223 0.950 . S
C3249 C3248 1.414 . S
C3249 C3250 1.374 . S
C3250 H3224 0.950 . S
C3250 C3246 1.385 . S
C3250 C3249 1.374 . S
C3251 C3248 1.499 . S
C3251 C3252 1.373 . S
C3251 C3253 1.389 . S
C3252 H3225 0.950 . S
C3252 C3238 1.377 . S
C3252 C3251 1.373 . S
C3253 C3237 1.377 . S
C3253 C3251 1.389 . S
C3253 C3254 1.524 . S
C3254 C3253 1.524 . S
C3254 C3255 1.397 . S
C3254 C3259 1.363 . S
C3255 H3226 0.950 . S
C3255 C3254 1.397 . S
C3255 C3256 1.334 . S
C3256 H3227 0.950 . S
C3256 C3255 1.334 . S
C3256 C3257 1.287 . S
C3257 C3256 1.287 . S
C3257 C3258 1.524 . S
C3257 H3260 0.999 . S
C3258 H3228 0.950 . S
C3258 C3257 1.524 . S
C3258 C3259 1.415 . S
C3259 H3229 0.950 . S
C3259 C3254 1.363 . S
C3259 C3258 1.415 . S
H3260 C3257 0.999 . S
H3261 C3242 0.913 . S
H3262 C3280 0.951 . S
H3263 C3282 0.951 . S
H3264 C3284 0.950 . S
H3265 C3285 0.950 . S
H3266 C3287 0.950 . S
H3267 C3290 0.950 . S
H3268 C3291 0.950 . S
H3269 C3293 0.950 . S
H3270 C3294 0.950 . S
H3271 C3295 0.951 . S
H3272 C3297 0.951 . S
H3273 C3299 0.950 . S
H3274 C3300 0.950 . S
H3275 C3302 0.950 . S
H3276 C3305 0.950 . S
H3277 C3306 0.950 . S
H3278 C3308 0.960 . S
H3279 C3309 0.950 . S
C3280 H3262 0.951 . S
C3280 C3281 1.366 . S
C3280 C3282 1.388 . S
C3281 C3280 1.366 . S
C3281 C3285 1.385 . S
C3282 H3263 0.951 . S
C3282 C3280 1.388 . S
C3282 C3283 1.366 . S
C3283 C3282 1.366 . S
C3283 C3284 1.414 . S
C3283 C3286 1.499 . S
C3284 H3264 0.950 . S
C3284 C3283 1.414 . S
C3284 C3285 1.374 . S
C3285 H3265 0.950 . S
C3285 C3281 1.385 . S
C3285 C3284 1.374 . S
C3286 C3283 1.499 . S
C3286 C3287 1.373 . S
C3286 C3288 1.389 . S
C3287 H3266 0.950 . S
C3287 C3286 1.373 . S
C3287 C3303 1.377 . S
C3288 C3286 1.389 . S
C3288 C3289 1.524 . S
C3288 C3302 1.377 . S
C3289 C3288 1.524 . S
C3289 C3290 1.397 . S
C3289 C3294 1.363 . S
C3290 H3267 0.950 . S
C3290 C3289 1.397 . S
C3290 C3291 1.334 . S
C3291 H3268 0.950 . S
C3291 C3290 1.334 . S
C3291 C3292 1.287 . S
C3292 C3291 1.287 . S
C3292 C3293 1.524 . S
C3292 H3311 0.913 . S
C3293 H3269 0.950 . S
C3293 C3292 1.524 . S
C3293 C3294 1.415 . S
C3294 H3270 0.950 . S
C3294 C3289 1.363 . S
C3294 C3293 1.415 . S
C3295 H3271 0.951 . S
C3295 C3296 1.366 . S
C3295 C3297 1.388 . S
C3296 C3295 1.366 . S
C3296 C3300 1.385 . S
C3297 H3272 0.951 . S
C3297 C3295 1.388 . S
C3297 C3298 1.366 . S
C3298 C3297 1.366 . S
C3298 C3299 1.414 . S
C3298 C3301 1.499 . S
C3299 H3273 0.950 . S
C3299 C3298 1.414 . S
C3299 C3300 1.374 . S
C3300 H3274 0.950 . S
C3300 C3296 1.385 . S
C3300 C3299 1.374 . S
C3301 C3298 1.499 . S
C3301 C3302 1.373 . S
C3301 C3303 1.389 . S
C3302 H3275 0.950 . S
C3302 C3288 1.377 . S
C3302 C3301 1.373 . S
C3303 C3287 1.377 . S
C3303 C3301 1.389 . S
C3303 C3304 1.524 . S
C3304 C3303 1.524 . S
C3304 C3305 1.397 . S
C3304 C3309 1.363 . S
C3305 H3276 0.950 . S
C3305 C3304 1.397 . S
C3305 C3306 1.334 . S
C3306 H3277 0.950 . S
C3306 C3305 1.334 . S
C3306 C3307 1.287 . S
C3307 C3306 1.287 . S
C3307 C3308 1.524 . S
C3307 H3310 0.999 . S
C3308 H3278 0.960 . S
C3308 C3307 1.524 . S
C3308 C3309 1.415 . S
C3309 H3279 0.950 . S
C3309 C3304 1.363 . S
C3309 C3308 1.415 . S
H3310 C3307 0.999 . S
H3311 C3292 0.913 . S
H3312 C3330 0.951 . S
H3313 C3332 0.951 . S
H3314 C3334 0.950 . S
H3315 C3335 0.950 . S
H3316 C3337 0.950 . S
H3317 C3340 0.950 . S
H3318 C3341 0.950 . S
H3319 C3343 0.950 . S
H3320 C3344 0.950 . S
H3321 C3345 0.951 . S
H3322 C3347 0.951 . S
H3323 C3349 0.950 . S
H3324 C3350 0.950 . S
H3325 C3352 0.950 . S
H3326 C3355 0.950 . S
H3327 C3356 0.950 . S
H3328 C3358 0.950 . S
H3329 C3359 0.950 . S
C3330 H3312 0.951 . S
C3330 C3331 1.366 . S
C3330 C3332 1.388 . S
C3331 C3330 1.366 . S
C3331 C3335 1.385 . S
C3332 H3313 0.951 . S
C3332 C3330 1.388 . S
C3332 C3333 1.366 . S
C3333 C3332 1.366 . S
C3333 C3334 1.414 . S
C3333 C3336 1.499 . S
C3334 H3314 0.950 . S
C3334 C3333 1.414 . S
C3334 C3335 1.374 . S
C3335 H3315 0.950 . S
C3335 C3331 1.385 . S
C3335 C3334 1.374 . S
C3336 C3333 1.499 . S
C3336 C3337 1.373 . S
C3336 C3338 1.389 . S
C3337 H3316 0.950 . S
C3337 C3336 1.373 . S
C3337 C3353 1.377 . S
C3338 C3336 1.389 . S
C3338 C3339 1.524 . S
C3338 C3352 1.377 . S
C3339 C3338 1.524 . S
C3339 C3340 1.397 . S
C3339 C3344 1.363 . S
C3340 H3317 0.950 . S
C3340 C3339 1.397 . S
C3340 C3341 1.334 . S
C3341 H3318 0.950 . S
C3341 C3340 1.334 . S
C3341 C3342 1.287 . S
C3342 C3341 1.287 . S
C3342 C3343 1.524 . S
C3342 H3361 0.913 . S
C3343 H3319 0.950 . S
C3343 C3342 1.524 . S
C3343 C3344 1.415 . S
C3344 H3320 0.950 . S
C3344 C3339 1.363 . S
C3344 C3343 1.415 . S
C3345 H3321 0.951 . S
C3345 C3346 1.366 . S
C3345 C3347 1.388 . S
C3346 C3345 1.366 . S
C3346 C3350 1.385 . S
C3347 H3322 0.951 . S
C3347 C3345 1.388 . S
C3347 C3348 1.366 . S
C3348 C3347 1.366 . S
C3348 C3349 1.414 . S
C3348 C3351 1.499 . S
C3349 H3323 0.950 . S
C3349 C3348 1.414 . S
C3349 C3350 1.374 . S
C3350 H3324 0.950 . S
C3350 C3346 1.385 . S
C3350 C3349 1.374 . S
C3351 C3348 1.499 . S
C3351 C3352 1.373 . S
C3351 C3353 1.389 . S
C3352 H3325 0.950 . S
C3352 C3338 1.377 . S
C3352 C3351 1.373 . S
C3353 C3337 1.377 . S
C3353 C3351 1.389 . S
C3353 C3354 1.524 . S
C3354 C3353 1.524 . S
C3354 C3355 1.397 . S
C3354 C3359 1.363 . S
C3355 H3326 0.950 . S
C3355 C3354 1.397 . S
C3355 C3356 1.334 . S
C3356 H3327 0.950 . S
C3356 C3355 1.334 . S
C3356 C3357 1.287 . S
C3357 C3356 1.287 . S
C3357 C3358 1.524 . S
C3357 H3360 0.999 . S
C3358 H3328 0.950 . S
C3358 C3357 1.524 . S
C3358 C3359 1.415 . S
C3359 H3329 0.950 . S
C3359 C3354 1.363 . S
C3359 C3358 1.415 . S
H3360 C3357 0.999 . S
H3361 C3342 0.913 . S
H3362 C3380 0.951 . S
H3363 C3382 0.951 . S
H3364 C3384 0.950 . S
H3365 C3385 0.950 . S
H3366 C3387 0.950 . S
H3367 C3390 0.950 . S
H3368 C3391 0.950 . S
H3369 C3393 0.950 . S
H3370 C3394 0.950 . S
H3371 C3395 0.951 . S
H3372 C3397 0.951 . S
H3373 C3399 0.950 . S
H3374 C3400 0.950 . S
H3375 C3402 0.950 . S
H3376 C3405 0.950 . S
H3377 C3406 0.950 1_565 S
H3378 C3408 0.950 . S
H3379 C3409 0.950 . S
C3380 H3362 0.951 . S
C3380 C3381 1.366 . S
C3380 C3382 1.388 . S
C3381 C3380 1.366 . S
C3381 C3385 1.385 . S
C3382 H3363 0.951 . S
C3382 C3380 1.388 . S
C3382 C3383 1.366 . S
C3383 C3382 1.366 . S
C3383 C3384 1.414 . S
C3383 C3386 1.499 . S
C3384 H3364 0.950 . S
C3384 C3383 1.414 . S
C3384 C3385 1.374 . S
C3385 H3365 0.950 . S
C3385 C3381 1.385 . S
C3385 C3384 1.374 . S
C3386 C3383 1.499 . S
C3386 C3387 1.373 . S
C3386 C3388 1.389 . S
C3387 H3366 0.950 . S
C3387 C3386 1.373 . S
C3387 C3403 1.377 . S
C3388 C3386 1.389 . S
C3388 C3389 1.524 . S
C3388 C3402 1.377 . S
C3389 C3388 1.524 . S
C3389 C3390 1.397 . S
C3389 C3394 1.363 . S
C3390 H3367 0.950 . S
C3390 C3389 1.397 . S
C3390 C3391 1.334 . S
C3391 H3368 0.950 . S
C3391 C3390 1.334 . S
C3391 C3392 1.287 . S
C3392 C3391 1.287 . S
C3392 C3393 1.524 . S
C3392 H3411 0.913 . S
C3393 H3369 0.950 . S
C3393 C3392 1.524 . S
C3393 C3394 1.415 . S
C3394 H3370 0.950 . S
C3394 C3389 1.363 . S
C3394 C3393 1.415 . S
C3395 H3371 0.951 . S
C3395 C3396 1.366 . S
C3395 C3397 1.388 . S
C3396 C3395 1.366 . S
C3396 C3400 1.385 . S
C3397 H3372 0.951 . S
C3397 C3395 1.388 . S
C3397 C3398 1.366 . S
C3398 C3397 1.366 . S
C3398 C3399 1.414 . S
C3398 C3401 1.499 . S
C3399 H3373 0.950 . S
C3399 C3398 1.414 . S
C3399 C3400 1.374 . S
C3400 H3374 0.950 . S
C3400 C3396 1.385 . S
C3400 C3399 1.374 . S
C3401 C3398 1.499 . S
C3401 C3402 1.373 . S
C3401 C3403 1.389 . S
C3402 H3375 0.950 . S
C3402 C3388 1.377 . S
C3402 C3401 1.373 . S
C3403 C3387 1.377 . S
C3403 C3401 1.389 . S
C3403 C3404 1.524 . S
C3404 C3403 1.524 . S
C3404 C3405 1.397 . S
C3404 C3409 1.363 . S
C3405 H3376 0.950 . S
C3405 C3404 1.397 . S
C3405 C3406 1.334 . S
C3406 H3377 0.950 1_545 S
C3406 C3405 1.334 . S
C3406 C3407 1.287 1_545 S
C3407 C3406 1.287 1_565 S
C3407 C3408 1.524 . S
C3407 H3410 0.999 . S
C3408 H3378 0.950 . S
C3408 C3407 1.524 . S
C3408 C3409 1.415 1_565 S
C3409 H3379 0.950 . S
C3409 C3404 1.363 . S
C3409 C3408 1.415 1_545 S
H3410 C3407 0.999 . S
H3411 C3392 0.913 . S
H3412 C3430 0.951 . S
H3413 C3432 0.951 . S
H3414 C3434 0.950 . S
H3415 C3435 0.950 . S
H3416 C3437 0.950 . S
H3417 C3440 0.950 . S
H3418 C3441 0.950 . S
H3419 C3443 0.950 . S
H3420 C3444 0.950 . S
H3421 C3445 0.951 . S
H3422 C3447 0.951 . S
H3423 C3449 0.950 . S
H3424 C3450 0.950 . S
H3425 C3452 0.950 . S
H3426 C3455 0.950 . S
H3427 C3456 0.950 . S
H3428 C3458 0.950 . S
H3429 C3459 0.950 . S
C3430 H3412 0.951 . S
C3430 C3431 1.366 . S
C3430 C3432 1.388 . S
C3431 C3430 1.366 . S
C3431 C3435 1.385 . S
C3432 H3413 0.951 . S
C3432 C3430 1.388 . S
C3432 C3433 1.366 . S
C3433 C3432 1.366 . S
C3433 C3434 1.414 . S
C3433 C3436 1.499 . S
C3434 H3414 0.950 . S
C3434 C3433 1.414 . S
C3434 C3435 1.374 . S
C3435 H3415 0.950 . S
C3435 C3431 1.385 . S
C3435 C3434 1.374 . S
C3436 C3433 1.499 . S
C3436 C3437 1.373 . S
C3436 C3438 1.389 . S
C3437 H3416 0.950 . S
C3437 C3436 1.373 . S
C3437 C3453 1.377 . S
C3438 C3436 1.389 . S
C3438 C3439 1.524 . S
C3438 C3452 1.377 . S
C3439 C3438 1.524 . S
C3439 C3440 1.397 . S
C3439 C3444 1.363 . S
C3440 H3417 0.950 . S
C3440 C3439 1.397 . S
C3440 C3441 1.334 . S
C3441 H3418 0.950 . S
C3441 C3440 1.334 . S
C3441 C3442 1.287 . S
C3442 C3441 1.287 . S
C3442 C3443 1.524 . S
C3442 H3461 0.913 . S
C3443 H3419 0.950 . S
C3443 C3442 1.524 . S
C3443 C3444 1.415 . S
C3444 H3420 0.950 . S
C3444 C3439 1.363 . S
C3444 C3443 1.415 . S
C3445 H3421 0.951 . S
C3445 C3446 1.366 . S
C3445 C3447 1.388 . S
C3446 C3445 1.366 . S
C3446 C3450 1.385 . S
C3447 H3422 0.951 . S
C3447 C3445 1.388 . S
C3447 C3448 1.366 . S
C3448 C3447 1.366 . S
C3448 C3449 1.414 . S
C3448 C3451 1.499 . S
C3449 H3423 0.950 . S
C3449 C3448 1.414 . S
C3449 C3450 1.374 . S
C3450 H3424 0.950 . S
C3450 C3446 1.385 . S
C3450 C3449 1.374 . S
C3451 C3448 1.499 . S
C3451 C3452 1.373 . S
C3451 C3453 1.389 . S
C3452 H3425 0.950 . S
C3452 C3438 1.377 . S
C3452 C3451 1.373 . S
C3453 C3437 1.377 . S
C3453 C3451 1.389 . S
C3453 C3454 1.524 . S
C3454 C3453 1.524 . S
C3454 C3455 1.397 . S
C3454 C3459 1.363 . S
C3455 H3426 0.950 . S
C3455 C3454 1.397 . S
C3455 C3456 1.334 . S
C3456 H3427 0.950 . S
C3456 C3455 1.334 . S
C3456 C3457 1.287 . S
C3457 C3456 1.287 . S
C3457 C3458 1.524 . S
C3457 H3460 0.999 . S
C3458 H3428 0.950 . S
C3458 C3457 1.524 . S
C3458 C3459 1.415 . S
C3459 H3429 0.950 . S
C3459 C3454 1.363 . S
C3459 C3458 1.415 . S
H3460 C3457 0.999 . S
H3461 C3442 0.913 . S
H3462 C3480 0.951 . S
H3463 C3482 0.951 . S
H3464 C3484 0.950 . S
H3465 C3485 0.950 . S
H3466 C3487 0.950 . S
H3467 C3490 0.950 . S
H3468 C3491 0.950 . S
H3469 C3493 0.950 1_554 S
H3470 C3494 0.950 . S
H3471 C3495 0.951 . S
H3472 C3497 0.951 . S
H3473 C3499 0.950 . S
H3474 C3500 0.950 . S
H3475 C3502 0.950 . S
H3476 C3505 0.950 . S
H3477 C3506 0.950 . S
H3478 C3508 0.950 . S
H3479 C3509 0.950 . S
C3480 H3462 0.951 . S
C3480 C3481 1.366 . S
C3480 C3482 1.388 . S
C3481 C3480 1.366 . S
C3481 C3485 1.385 . S
C3482 H3463 0.951 . S
C3482 C3480 1.388 . S
C3482 C3483 1.366 . S
C3483 C3482 1.366 . S
C3483 C3484 1.414 . S
C3483 C3486 1.499 . S
C3484 H3464 0.950 . S
C3484 C3483 1.414 . S
C3484 C3485 1.374 . S
C3485 H3465 0.950 . S
C3485 C3481 1.385 . S
C3485 C3484 1.374 . S
C3486 C3483 1.499 . S
C3486 C3487 1.373 . S
C3486 C3488 1.389 . S
C3487 H3466 0.950 . S
C3487 C3486 1.373 . S
C3487 C3503 1.377 . S
C3488 C3486 1.389 . S
C3488 C3489 1.524 . S
C3488 C3502 1.377 . S
C3489 C3488 1.524 . S
C3489 C3490 1.397 . S
C3489 C3494 1.363 . S
C3490 H3467 0.950 . S
C3490 C3489 1.397 . S
C3490 C3491 1.334 . S
C3491 H3468 0.950 . S
C3491 C3490 1.334 . S
C3491 C3492 1.287 . S
C3492 C3491 1.287 . S
C3492 C3493 1.524 . S
C3492 H3511 0.926 . S
C3493 H3469 0.950 1_556 S
C3493 C3492 1.524 . S
C3493 C3494 1.415 . S
C3494 H3470 0.950 . S
C3494 C3489 1.363 . S
C3494 C3493 1.415 . S
C3495 H3471 0.951 . S
C3495 C3496 1.366 . S
C3495 C3497 1.388 . S
C3496 C3495 1.366 . S
C3496 C3500 1.385 . S
C3497 H3472 0.951 . S
C3497 C3495 1.388 . S
C3497 C3498 1.366 . S
C3498 C3497 1.366 . S
C3498 C3499 1.414 . S
C3498 C3501 1.499 . S
C3499 H3473 0.950 . S
C3499 C3498 1.414 . S
C3499 C3500 1.374 . S
C3500 H3474 0.950 . S
C3500 C3496 1.385 . S
C3500 C3499 1.374 . S
C3501 C3498 1.499 . S
C3501 C3502 1.373 . S
C3501 C3503 1.389 . S
C3502 H3475 0.950 . S
C3502 C3488 1.377 . S
C3502 C3501 1.373 . S
C3503 C3487 1.377 . S
C3503 C3501 1.389 . S
C3503 C3504 1.524 . S
C3504 C3503 1.524 . S
C3504 C3505 1.397 . S
C3504 C3509 1.363 . S
C3505 H3476 0.950 . S
C3505 C3504 1.397 . S
C3505 C3506 1.334 . S
C3506 H3477 0.950 . S
C3506 C3505 1.334 . S
C3506 C3507 1.287 . S
C3507 C3506 1.287 . S
C3507 C3508 1.524 . S
C3507 H3510 0.999 . S
C3508 H3478 0.950 . S
C3508 C3507 1.524 . S
C3508 C3509 1.415 . S
C3509 H3479 0.950 . S
C3509 C3504 1.363 . S
C3509 C3508 1.415 . S
H3510 C3507 0.999 . S
H3511 C3492 0.926 . S
H3512 C3530 0.951 . S
H3513 C3532 0.951 . S
H3514 C3534 0.950 . S
H3515 C3535 0.950 . S
H3516 C3537 0.950 . S
H3517 C3540 0.950 . S
H3518 C3541 0.950 . S
H3519 C3543 0.950 . S
H3520 C3544 0.950 . S
H3521 C3545 0.951 . S
H3522 C3547 0.951 . S
H3523 C3549 0.950 . S
H3524 C3550 0.950 . S
H3525 C3552 0.950 . S
H3526 C3555 0.950 . S
H3527 C3556 0.950 . S
H3528 C3558 0.950 . S
H3529 C3559 0.950 . S
C3530 H3512 0.951 . S
C3530 C3531 1.366 . S
C3530 C3532 1.388 . S
C3531 C3530 1.366 . S
C3531 C3535 1.385 . S
C3532 H3513 0.951 . S
C3532 C3530 1.388 . S
C3532 C3533 1.366 . S
C3533 C3532 1.366 . S
C3533 C3534 1.414 . S
C3533 C3536 1.499 . S
C3534 H3514 0.950 . S
C3534 C3533 1.414 . S
C3534 C3535 1.374 . S
C3535 H3515 0.950 . S
C3535 C3531 1.385 . S
C3535 C3534 1.374 . S
C3536 C3533 1.499 . S
C3536 C3537 1.373 . S
C3536 C3538 1.389 . S
C3537 H3516 0.950 . S
C3537 C3536 1.373 . S
C3537 C3553 1.377 . S
C3538 C3536 1.389 . S
C3538 C3539 1.524 . S
C3538 C3552 1.377 . S
C3539 C3538 1.524 . S
C3539 C3540 1.397 . S
C3539 C3544 1.363 . S
C3540 H3517 0.950 . S
C3540 C3539 1.397 . S
C3540 C3541 1.334 . S
C3541 H3518 0.950 . S
C3541 C3540 1.334 . S
C3541 C3542 1.287 . S
C3542 C3541 1.287 . S
C3542 C3543 1.524 . S
C3542 H3561 0.913 . S
C3543 H3519 0.950 . S
C3543 C3542 1.524 . S
C3543 C3544 1.415 . S
C3544 H3520 0.950 . S
C3544 C3539 1.363 . S
C3544 C3543 1.415 . S
C3545 H3521 0.951 . S
C3545 C3546 1.366 . S
C3545 C3547 1.388 . S
C3546 C3545 1.366 . S
C3546 C3550 1.385 . S
C3547 H3522 0.951 . S
C3547 C3545 1.388 . S
C3547 C3548 1.366 . S
C3548 C3547 1.366 . S
C3548 C3549 1.414 . S
C3548 C3551 1.499 . S
C3549 H3523 0.950 . S
C3549 C3548 1.414 . S
C3549 C3550 1.374 . S
C3550 H3524 0.950 . S
C3550 C3546 1.385 . S
C3550 C3549 1.374 . S
C3551 C3548 1.499 . S
C3551 C3552 1.373 . S
C3551 C3553 1.389 . S
C3552 H3525 0.950 . S
C3552 C3538 1.377 . S
C3552 C3551 1.373 . S
C3553 C3537 1.377 . S
C3553 C3551 1.389 . S
C3553 C3554 1.524 . S
C3554 C3553 1.524 . S
C3554 C3555 1.397 . S
C3554 C3559 1.363 . S
C3555 H3526 0.950 . S
C3555 C3554 1.397 . S
C3555 C3556 1.334 . S
C3556 H3527 0.950 . S
C3556 C3555 1.334 . S
C3556 C3557 1.287 . S
C3557 C3556 1.287 . S
C3557 C3558 1.524 . S
C3557 H3560 0.999 . S
C3558 H3528 0.950 . S
C3558 C3557 1.524 . S
C3558 C3559 1.415 . S
C3559 H3529 0.950 . S
C3559 C3554 1.363 . S
C3559 C3558 1.415 . S
H3560 C3557 0.999 . S
H3561 C3542 0.913 . S
H3562 C3580 0.951 . S
H3563 C3582 0.951 . S
H3564 C3584 0.950 . S
H3565 C3585 0.950 . S
H3566 C3587 0.950 . S
H3567 C3590 0.950 . S
H3568 C3591 0.950 . S
H3569 C3593 0.950 . S
H3570 C3594 0.950 . S
H3571 C3595 0.951 . S
H3572 C3597 0.951 . S
H3573 C3599 0.950 . S
H3574 C3600 0.950 . S
H3575 C3602 0.950 . S
H3576 C3605 0.950 . S
H3577 C3606 0.950 . S
H3578 C3608 0.950 . S
H3579 C3609 0.950 . S
C3580 H3562 0.951 . S
C3580 C3581 1.366 . S
C3580 C3582 1.388 . S
C3581 C3580 1.366 . S
C3581 C3585 1.385 . S
C3582 H3563 0.951 . S
C3582 C3580 1.388 . S
C3582 C3583 1.366 . S
C3583 C3582 1.366 . S
C3583 C3584 1.414 . S
C3583 C3586 1.499 . S
C3584 H3564 0.950 . S
C3584 C3583 1.414 . S
C3584 C3585 1.374 . S
C3585 H3565 0.950 . S
C3585 C3581 1.385 . S
C3585 C3584 1.374 . S
C3586 C3583 1.499 . S
C3586 C3587 1.373 . S
C3586 C3588 1.389 . S
C3587 H3566 0.950 . S
C3587 C3586 1.373 . S
C3587 C3603 1.377 . S
C3588 C3586 1.389 . S
C3588 C3589 1.524 . S
C3588 C3602 1.377 . S
C3589 C3588 1.524 . S
C3589 C3590 1.397 . S
C3589 C3594 1.363 . S
C3590 H3567 0.950 . S
C3590 C3589 1.397 . S
C3590 C3591 1.334 . S
C3591 H3568 0.950 . S
C3591 C3590 1.334 . S
C3591 C3592 1.287 . S
C3592 C3591 1.287 . S
C3592 C3593 1.524 . S
C3592 H3611 0.913 . S
C3593 H3569 0.950 . S
C3593 C3592 1.524 . S
C3593 C3594 1.415 . S
C3594 H3570 0.950 . S
C3594 C3589 1.363 . S
C3594 C3593 1.415 . S
C3595 H3571 0.951 . S
C3595 C3596 1.366 . S
C3595 C3597 1.388 . S
C3596 C3595 1.366 . S
C3596 C3600 1.385 . S
C3597 H3572 0.951 . S
C3597 C3595 1.388 . S
C3597 C3598 1.366 . S
C3598 C3597 1.366 . S
C3598 C3599 1.414 . S
C3598 C3601 1.499 . S
C3599 H3573 0.950 . S
C3599 C3598 1.414 . S
C3599 C3600 1.374 . S
C3600 H3574 0.950 . S
C3600 C3596 1.385 . S
C3600 C3599 1.374 . S
C3601 C3598 1.499 . S
C3601 C3602 1.373 . S
C3601 C3603 1.389 . S
C3602 H3575 0.950 . S
C3602 C3588 1.377 . S
C3602 C3601 1.373 . S
C3603 C3587 1.377 . S
C3603 C3601 1.389 . S
C3603 C3604 1.524 . S
C3604 C3603 1.524 . S
C3604 C3605 1.397 . S
C3604 C3609 1.363 . S
C3605 H3576 0.950 . S
C3605 C3604 1.397 . S
C3605 C3606 1.334 . S
C3606 H3577 0.950 . S
C3606 C3605 1.334 . S
C3606 C3607 1.287 . S
C3607 C3606 1.287 . S
C3607 C3608 1.524 . S
C3607 H3610 0.999 . S
C3608 H3578 0.950 . S
C3608 C3607 1.524 . S
C3608 C3609 1.415 . S
C3609 H3579 0.950 . S
C3609 C3604 1.363 . S
C3609 C3608 1.415 . S
H3610 C3607 0.999 . S
H3611 C3592 0.913 . S
H3612 C3630 0.951 . S
H3613 C3632 0.951 . S
H3614 C3634 0.950 . S
H3615 C3635 0.950 . S
H3616 C3637 0.950 . S
H3617 C3640 0.950 . S
H3618 C3641 0.950 . S
H3619 C3643 0.950 . S
H3620 C3644 0.950 . S
H3621 C3645 0.951 . S
H3622 C3647 0.951 . S
H3623 C3649 0.950 . S
H3624 C3650 0.950 . S
H3625 C3652 0.950 . S
H3626 C3655 0.950 . S
H3627 C3656 0.950 . S
H3628 C3658 0.950 . S
H3629 C3659 0.950 . S
C3630 H3612 0.951 . S
C3630 C3631 1.366 . S
C3630 C3632 1.388 . S
C3631 C3630 1.366 . S
C3631 C3635 1.385 . S
C3632 H3613 0.951 . S
C3632 C3630 1.388 . S
C3632 C3633 1.366 . S
C3633 C3632 1.366 . S
C3633 C3634 1.414 . S
C3633 C3636 1.499 . S
C3634 H3614 0.950 . S
C3634 C3633 1.414 . S
C3634 C3635 1.374 . S
C3635 H3615 0.950 . S
C3635 C3631 1.385 . S
C3635 C3634 1.374 . S
C3636 C3633 1.499 . S
C3636 C3637 1.373 . S
C3636 C3638 1.389 . S
C3637 H3616 0.950 . S
C3637 C3636 1.373 . S
C3637 C3653 1.377 . S
C3638 C3636 1.389 . S
C3638 C3639 1.524 . S
C3638 C3652 1.377 . S
C3639 C3638 1.524 . S
C3639 C3640 1.397 . S
C3639 C3644 1.363 . S
C3640 H3617 0.950 . S
C3640 C3639 1.397 . S
C3640 C3641 1.334 . S
C3641 H3618 0.950 . S
C3641 C3640 1.334 . S
C3641 C3642 1.287 . S
C3642 C3641 1.287 . S
C3642 C3643 1.524 . S
C3642 H3661 0.913 . S
C3643 H3619 0.950 . S
C3643 C3642 1.524 . S
C3643 C3644 1.415 . S
C3644 H3620 0.950 . S
C3644 C3639 1.363 . S
C3644 C3643 1.415 . S
C3645 H3621 0.951 . S
C3645 C3646 1.366 . S
C3645 C3647 1.388 . S
C3646 C3645 1.366 . S
C3646 C3650 1.385 . S
C3647 H3622 0.951 . S
C3647 C3645 1.388 . S
C3647 C3648 1.366 . S
C3648 C3647 1.366 . S
C3648 C3649 1.414 . S
C3648 C3651 1.499 . S
C3649 H3623 0.950 . S
C3649 C3648 1.414 . S
C3649 C3650 1.374 . S
C3650 H3624 0.950 . S
C3650 C3646 1.385 . S
C3650 C3649 1.374 . S
C3651 C3648 1.499 . S
C3651 C3652 1.373 . S
C3651 C3653 1.389 . S
C3652 H3625 0.950 . S
C3652 C3638 1.377 . S
C3652 C3651 1.373 . S
C3653 C3637 1.377 . S
C3653 C3651 1.389 . S
C3653 C3654 1.524 . S
C3654 C3653 1.524 . S
C3654 C3655 1.397 . S
C3654 C3659 1.363 . S
C3655 H3626 0.950 . S
C3655 C3654 1.397 . S
C3655 C3656 1.334 . S
C3656 H3627 0.950 . S
C3656 C3655 1.334 . S
C3656 C3657 1.287 . S
C3657 C3656 1.287 . S
C3657 C3658 1.524 . S
C3657 H3660 0.999 . S
C3658 H3628 0.950 . S
C3658 C3657 1.524 . S
C3658 C3659 1.415 . S
C3659 H3629 0.950 . S
C3659 C3654 1.363 . S
C3659 C3658 1.415 . S
H3660 C3657 0.999 . S
H3661 C3642 0.913 . S
H3662 C3680 0.951 . S
H3663 C3682 0.951 . S
H3664 C3684 0.950 . S
H3665 C3685 0.950 . S
H3666 C3687 0.950 . S
H3667 C3690 0.950 . S
H3668 C3691 0.950 . S
H3669 C3693 0.950 . S
H3670 C3694 0.950 . S
H3671 C3695 0.951 . S
H3672 C3697 0.951 . S
H3673 C3699 0.950 . S
H3674 C3700 0.950 . S
H3675 C3702 0.950 . S
H3676 C3705 0.950 . S
H3677 C3706 0.950 . S
H3678 C3708 0.950 . S
H3679 C3709 0.950 . S
C3680 H3662 0.951 . S
C3680 C3681 1.366 . S
C3680 C3682 1.388 . S
C3681 C3680 1.366 . S
C3681 C3685 1.385 . S
C3682 H3663 0.951 . S
C3682 C3680 1.388 . S
C3682 C3683 1.366 . S
C3683 C3682 1.366 . S
C3683 C3684 1.414 . S
C3683 C3686 1.499 . S
C3684 H3664 0.950 . S
C3684 C3683 1.414 . S
C3684 C3685 1.374 . S
C3685 H3665 0.950 . S
C3685 C3681 1.385 . S
C3685 C3684 1.374 . S
C3686 C3683 1.499 . S
C3686 C3687 1.373 . S
C3686 C3688 1.389 . S
C3687 H3666 0.950 . S
C3687 C3686 1.373 . S
C3687 C3703 1.377 . S
C3688 C3686 1.389 . S
C3688 C3689 1.524 . S
C3688 C3702 1.377 . S
C3689 C3688 1.524 . S
C3689 C3690 1.397 . S
C3689 C3694 1.363 . S
C3690 H3667 0.950 . S
C3690 C3689 1.397 . S
C3690 C3691 1.334 . S
C3691 H3668 0.950 . S
C3691 C3690 1.334 . S
C3691 C3692 1.287 . S
C3692 C3691 1.287 . S
C3692 C3693 1.524 . S
C3692 H3711 0.913 . S
C3693 H3669 0.950 . S
C3693 C3692 1.524 . S
C3693 C3694 1.415 . S
C3694 H3670 0.950 . S
C3694 C3689 1.363 . S
C3694 C3693 1.415 . S
C3695 H3671 0.951 . S
C3695 C3696 1.366 . S
C3695 C3697 1.388 . S
C3696 C3695 1.366 . S
C3696 C3700 1.385 . S
C3697 H3672 0.951 . S
C3697 C3695 1.388 . S
C3697 C3698 1.366 . S
C3698 C3697 1.366 . S
C3698 C3699 1.414 . S
C3698 C3701 1.499 . S
C3699 H3673 0.950 . S
C3699 C3698 1.414 . S
C3699 C3700 1.374 . S
C3700 H3674 0.950 . S
C3700 C3696 1.385 . S
C3700 C3699 1.374 . S
C3701 C3698 1.499 . S
C3701 C3702 1.373 . S
C3701 C3703 1.389 . S
C3702 H3675 0.950 . S
C3702 C3688 1.377 . S
C3702 C3701 1.373 . S
C3703 C3687 1.377 . S
C3703 C3701 1.389 . S
C3703 C3704 1.524 . S
C3704 C3703 1.524 . S
C3704 C3705 1.397 . S
C3704 C3709 1.363 . S
C3705 H3676 0.950 . S
C3705 C3704 1.397 . S
C3705 C3706 1.334 . S
C3706 H3677 0.950 . S
C3706 C3705 1.334 . S
C3706 C3707 1.287 . S
C3707 C3706 1.287 . S
C3707 C3708 1.524 . S
C3707 H3710 0.999 . S
C3708 H3678 0.950 . S
C3708 C3707 1.524 . S
C3708 C3709 1.415 . S
C3709 H3679 0.950 . S
C3709 C3704 1.363 . S
C3709 C3708 1.415 . S
H3710 C3707 0.999 . S
H3711 C3692 0.913 . S
H3712 C3730 0.951 . S
H3713 C3732 0.951 . S
H3714 C3734 0.950 . S
H3715 C3735 0.950 . S
H3716 C3737 0.950 . S
H3717 C3740 0.950 . S
H3718 C3741 0.950 . S
H3719 C3743 0.950 . S
H3720 C3744 0.950 . S
H3721 C3745 0.951 . S
H3722 C3747 0.951 . S
H3723 C3749 0.950 . S
H3724 C3750 0.950 . S
H3725 C3752 0.950 . S
H3726 C3755 0.950 . S
H3727 C3756 0.950 . S
H3728 C3758 0.950 . S
H3729 C3759 0.950 . S
C3730 H3712 0.951 . S
C3730 C3731 1.366 . S
C3730 C3732 1.388 . S
C3731 C3730 1.366 . S
C3731 C3735 1.385 . S
C3732 H3713 0.951 . S
C3732 C3730 1.388 . S
C3732 C3733 1.366 . S
C3733 C3732 1.366 . S
C3733 C3734 1.414 . S
C3733 C3736 1.499 . S
C3734 H3714 0.950 . S
C3734 C3733 1.414 . S
C3734 C3735 1.374 . S
C3735 H3715 0.950 . S
C3735 C3731 1.385 . S
C3735 C3734 1.374 . S
C3736 C3733 1.499 . S
C3736 C3737 1.373 . S
C3736 C3738 1.389 . S
C3737 H3716 0.950 . S
C3737 C3736 1.373 . S
C3737 C3753 1.377 . S
C3738 C3736 1.389 . S
C3738 C3739 1.524 . S
C3738 C3752 1.377 . S
C3739 C3738 1.524 . S
C3739 C3740 1.397 . S
C3739 C3744 1.363 . S
C3740 H3717 0.950 . S
C3740 C3739 1.397 . S
C3740 C3741 1.334 . S
C3741 H3718 0.950 . S
C3741 C3740 1.334 . S
C3741 C3742 1.287 . S
C3742 C3741 1.287 . S
C3742 C3743 1.524 . S
C3742 H3761 0.913 . S
C3743 H3719 0.950 . S
C3743 C3742 1.524 . S
C3743 C3744 1.415 . S
C3744 H3720 0.950 . S
C3744 C3739 1.363 . S
C3744 C3743 1.415 . S
C3745 H3721 0.951 . S
C3745 C3746 1.366 . S
C3745 C3747 1.388 . S
C3746 C3745 1.366 . S
C3746 C3750 1.385 . S
C3747 H3722 0.951 . S
C3747 C3745 1.388 . S
C3747 C3748 1.366 . S
C3748 C3747 1.366 . S
C3748 C3749 1.414 . S
C3748 C3751 1.499 . S
C3749 H3723 0.950 . S
C3749 C3748 1.414 . S
C3749 C3750 1.374 . S
C3750 H3724 0.950 . S
C3750 C3746 1.385 . S
C3750 C3749 1.374 . S
C3751 C3748 1.499 . S
C3751 C3752 1.373 . S
C3751 C3753 1.389 . S
C3752 H3725 0.950 . S
C3752 C3738 1.377 . S
C3752 C3751 1.373 . S
C3753 C3737 1.377 . S
C3753 C3751 1.389 . S
C3753 C3754 1.524 . S
C3754 C3753 1.524 . S
C3754 C3755 1.397 . S
C3754 C3759 1.363 . S
C3755 H3726 0.950 . S
C3755 C3754 1.397 . S
C3755 C3756 1.334 . S
C3756 H3727 0.950 . S
C3756 C3755 1.334 . S
C3756 C3757 1.287 . S
C3757 C3756 1.287 . S
C3757 C3758 1.524 . S
C3757 H3760 0.999 . S
C3758 H3728 0.950 . S
C3758 C3757 1.524 . S
C3758 C3759 1.415 . S
C3759 H3729 0.950 . S
C3759 C3754 1.363 . S
C3759 C3758 1.415 . S
H3760 C3757 0.999 . S
H3761 C3742 0.913 . S
H3762 C3780 0.951 . S
H3763 C3782 0.951 . S
H3764 C3784 0.950 . S
H3765 C3785 0.950 . S
H3766 C3787 0.950 . S
H3767 C3790 0.950 . S
H3768 C3791 0.950 . S
H3769 C3793 0.950 . S
H3770 C3794 0.950 . S
H3771 C3795 0.951 . S
H3772 C3797 0.951 . S
H3773 C3799 0.950 . S
H3774 C3800 0.950 . S
H3775 C3802 0.950 . S
H3776 C3805 0.950 . S
H3777 C3806 0.950 . S
H3778 C3808 0.950 . S
H3779 C3809 0.950 . S
C3780 H3762 0.951 . S
C3780 C3781 1.366 . S
C3780 C3782 1.388 . S
C3781 C3780 1.366 . S
C3781 C3785 1.385 . S
C3782 H3763 0.951 . S
C3782 C3780 1.388 . S
C3782 C3783 1.366 . S
C3783 C3782 1.366 . S
C3783 C3784 1.414 . S
C3783 C3786 1.499 . S
C3784 H3764 0.950 . S
C3784 C3783 1.414 . S
C3784 C3785 1.374 . S
C3785 H3765 0.950 . S
C3785 C3781 1.385 . S
C3785 C3784 1.374 . S
C3786 C3783 1.499 . S
C3786 C3787 1.373 . S
C3786 C3788 1.389 . S
C3787 H3766 0.950 . S
C3787 C3786 1.373 . S
C3787 C3803 1.377 . S
C3788 C3786 1.389 . S
C3788 C3789 1.524 . S
C3788 C3802 1.377 . S
C3789 C3788 1.524 . S
C3789 C3790 1.397 . S
C3789 C3794 1.363 . S
C3790 H3767 0.950 . S
C3790 C3789 1.397 . S
C3790 C3791 1.334 1_556 S
C3791 H3768 0.950 . S
C3791 C3790 1.334 1_554 S
C3791 C3792 1.287 . S
C3792 C3791 1.287 . S
C3792 C3793 1.524 . S
C3792 H3811 0.913 . S
C3793 H3769 0.950 . S
C3793 C3792 1.524 . S
C3793 C3794 1.415 1_554 S
C3794 H3770 0.950 . S
C3794 C3789 1.363 . S
C3794 C3793 1.415 1_556 S
C3795 H3771 0.951 . S
C3795 C3796 1.366 . S
C3795 C3797 1.388 . S
C3796 C3795 1.366 . S
C3796 C3800 1.385 . S
C3797 H3772 0.951 . S
C3797 C3795 1.388 . S
C3797 C3798 1.366 . S
C3798 C3797 1.366 . S
C3798 C3799 1.414 . S
C3798 C3801 1.499 . S
C3799 H3773 0.950 . S
C3799 C3798 1.414 . S
C3799 C3800 1.374 . S
C3800 H3774 0.950 . S
C3800 C3796 1.385 . S
C3800 C3799 1.374 . S
C3801 C3798 1.499 . S
C3801 C3802 1.373 . S
C3801 C3803 1.389 . S
C3802 H3775 0.950 . S
C3802 C3788 1.377 . S
C3802 C3801 1.373 . S
C3803 C3787 1.377 . S
C3803 C3801 1.389 . S
C3803 C3804 1.524 . S
C3804 C3803 1.524 . S
C3804 C3805 1.397 . S
C3804 C3809 1.363 . S
C3805 H3776 0.950 . S
C3805 C3804 1.397 . S
C3805 C3806 1.334 . S
C3806 H3777 0.950 . S
C3806 C3805 1.334 . S
C3806 C3807 1.287 . S
C3807 C3806 1.287 . S
C3807 C3808 1.524 . S
C3807 H3810 0.999 . S
C3808 H3778 0.950 . S
C3808 C3807 1.524 . S
C3808 C3809 1.415 . S
C3809 H3779 0.950 . S
C3809 C3804 1.363 . S
C3809 C3808 1.415 . S
H3810 C3807 0.999 . S
H3811 C3792 0.913 . S
H3812 C3830 0.951 . S
H3813 C3832 0.951 . S
H3814 C3834 0.950 . S
H3815 C3835 0.950 . S
H3816 C3837 0.950 . S
H3817 C3840 0.950 . S
H3818 C3841 0.950 . S
H3819 C3843 0.950 . S
H3820 C3844 0.950 . S
H3821 C3845 0.951 . S
H3822 C3847 0.951 . S
H3823 C3849 0.950 . S
H3824 C3850 0.950 . S
H3825 C3852 0.950 . S
H3826 C3855 0.950 . S
H3827 C3856 0.950 . S
H3828 C3858 0.950 . S
H3829 C3859 0.950 . S
C3830 H3812 0.951 . S
C3830 C3831 1.366 . S
C3830 C3832 1.388 . S
C3831 C3830 1.366 . S
C3831 C3835 1.385 . S
C3832 H3813 0.951 . S
C3832 C3830 1.388 . S
C3832 C3833 1.366 . S
C3833 C3832 1.366 . S
C3833 C3834 1.414 . S
C3833 C3836 1.499 . S
C3834 H3814 0.950 . S
C3834 C3833 1.414 . S
C3834 C3835 1.374 . S
C3835 H3815 0.950 . S
C3835 C3831 1.385 . S
C3835 C3834 1.374 . S
C3836 C3833 1.499 . S
C3836 C3837 1.373 . S
C3836 C3838 1.389 . S
C3837 H3816 0.950 . S
C3837 C3836 1.373 . S
C3837 C3853 1.377 . S
C3838 C3836 1.389 . S
C3838 C3839 1.524 . S
C3838 C3852 1.377 . S
C3839 C3838 1.524 . S
C3839 C3840 1.397 . S
C3839 C3844 1.363 . S
C3840 H3817 0.950 . S
C3840 C3839 1.397 . S
C3840 C3841 1.334 . S
C3841 H3818 0.950 . S
C3841 C3840 1.334 . S
C3841 C3842 1.287 . S
C3842 C3841 1.287 . S
C3842 C3843 1.524 . S
C3842 H3861 0.913 . S
C3843 H3819 0.950 . S
C3843 C3842 1.524 . S
C3843 C3844 1.415 . S
C3844 H3820 0.950 . S
C3844 C3839 1.363 . S
C3844 C3843 1.415 . S
C3845 H3821 0.951 . S
C3845 C3846 1.366 . S
C3845 C3847 1.388 . S
C3846 C3845 1.366 . S
C3846 C3850 1.385 . S
C3847 H3822 0.951 . S
C3847 C3845 1.388 . S
C3847 C3848 1.366 . S
C3848 C3847 1.366 . S
C3848 C3849 1.414 . S
C3848 C3851 1.499 . S
C3849 H3823 0.950 . S
C3849 C3848 1.414 . S
C3849 C3850 1.374 . S
C3850 H3824 0.950 . S
C3850 C3846 1.385 . S
C3850 C3849 1.374 . S
C3851 C3848 1.499 . S
C3851 C3852 1.373 . S
C3851 C3853 1.389 . S
C3852 H3825 0.950 . S
C3852 C3838 1.377 . S
C3852 C3851 1.373 . S
C3853 C3837 1.377 . S
C3853 C3851 1.389 . S
C3853 C3854 1.524 . S
C3854 C3853 1.524 . S
C3854 C3855 1.397 . S
C3854 C3859 1.363 . S
C3855 H3826 0.950 . S
C3855 C3854 1.397 . S
C3855 C3856 1.334 . S
C3856 H3827 0.950 . S
C3856 C3855 1.334 . S
C3856 C3857 1.287 . S
C3857 C3856 1.287 . S
C3857 C3858 1.524 . S
C3857 H3860 0.999 . S
C3858 H3828 0.950 . S
C3858 C3857 1.524 . S
C3858 C3859 1.415 . S
C3859 H3829 0.950 . S
C3859 C3854 1.363 . S
C3859 C3858 1.415 . S
H3860 C3857 0.999 . S
H3861 C3842 0.913 . S
H3862 C3880 0.951 . S
H3863 C3882 0.951 . S
H3864 C3884 0.950 . S
H3865 C3885 0.950 . S
H3866 C3887 0.950 . S
H3867 C3890 0.950 . S
H3868 C3891 0.950 . S
H3869 C3893 0.950 . S
H3870 C3894 0.950 . S
H3871 C3895 0.951 . S
H3872 C3897 0.951 . S
H3873 C3899 0.950 . S
H3874 C3900 0.950 . S
H3875 C3902 0.950 . S
H3876 C3905 0.950 . S
H3877 C3906 0.950 . S
H3878 C3908 0.950 . S
H3879 C3909 0.950 . S
C3880 H3862 0.951 . S
C3880 C3881 1.366 . S
C3880 C3882 1.388 . S
C3881 C3880 1.366 . S
C3881 C3885 1.385 . S
C3882 H3863 0.951 . S
C3882 C3880 1.388 . S
C3882 C3883 1.366 . S
C3883 C3882 1.366 . S
C3883 C3884 1.414 . S
C3883 C3886 1.499 . S
C3884 H3864 0.950 . S
C3884 C3883 1.414 . S
C3884 C3885 1.374 . S
C3885 H3865 0.950 . S
C3885 C3881 1.385 . S
C3885 C3884 1.374 . S
C3886 C3883 1.499 . S
C3886 C3887 1.373 . S
C3886 C3888 1.389 . S
C3887 H3866 0.950 . S
C3887 C3886 1.373 . S
C3887 C3903 1.377 . S
C3888 C3886 1.389 . S
C3888 C3889 1.524 . S
C3888 C3902 1.377 . S
C3889 C3888 1.524 . S
C3889 C3890 1.397 . S
C3889 C3894 1.363 . S
C3890 H3867 0.950 . S
C3890 C3889 1.397 . S
C3890 C3891 1.334 . S
C3891 H3868 0.950 . S
C3891 C3890 1.334 . S
C3891 C3892 1.287 . S
C3892 C3891 1.287 . S
C3892 C3893 1.524 . S
C3892 H3911 0.913 . S
C3893 H3869 0.950 . S
C3893 C3892 1.524 . S
C3893 C3894 1.415 . S
C3894 H3870 0.950 . S
C3894 C3889 1.363 . S
C3894 C3893 1.415 . S
C3895 H3871 0.951 . S
C3895 C3896 1.366 . S
C3895 C3897 1.388 . S
C3896 C3895 1.366 . S
C3896 C3900 1.385 . S
C3897 H3872 0.951 . S
C3897 C3895 1.388 . S
C3897 C3898 1.366 . S
C3898 C3897 1.366 . S
C3898 C3899 1.414 . S
C3898 C3901 1.499 . S
C3899 H3873 0.950 . S
C3899 C3898 1.414 . S
C3899 C3900 1.374 . S
C3900 H3874 0.950 . S
C3900 C3896 1.385 . S
C3900 C3899 1.374 . S
C3901 C3898 1.499 . S
C3901 C3902 1.373 . S
C3901 C3903 1.389 . S
C3902 H3875 0.950 . S
C3902 C3888 1.377 . S
C3902 C3901 1.373 . S
C3903 C3887 1.377 . S
C3903 C3901 1.389 . S
C3903 C3904 1.524 . S
C3904 C3903 1.524 . S
C3904 C3905 1.397 . S
C3904 C3909 1.363 . S
C3905 H3876 0.950 . S
C3905 C3904 1.397 . S
C3905 C3906 1.334 . S
C3906 H3877 0.950 . S
C3906 C3905 1.334 . S
C3906 C3907 1.287 . S
C3907 C3906 1.287 . S
C3907 C3908 1.524 . S
C3907 H3910 0.999 . S
C3908 H3878 0.950 . S
C3908 C3907 1.524 . S
C3908 C3909 1.415 . S
C3909 H3879 0.950 . S
C3909 C3904 1.363 . S
C3909 C3908 1.415 . S
H3910 C3907 0.999 . S
H3911 C3892 0.913 . S
H3912 C3930 0.951 . S
H3913 C3932 0.951 . S
H3914 C3934 0.950 . S
H3915 C3935 0.950 . S
H3916 C3937 0.950 . S
H3917 C3940 0.950 . S
H3918 C3941 0.950 . S
H3919 C3943 0.950 . S
H3920 C3944 0.950 . S
H3921 C3945 0.951 . S
H3922 C3947 0.951 . S
H3923 C3949 0.950 . S
H3924 C3950 0.950 . S
H3925 C3952 0.950 . S
H3926 C3955 0.950 . S
H3927 C3956 0.950 . S
H3928 C3958 0.950 . S
H3929 C3959 0.950 . S
C3930 H3912 0.951 . S
C3930 C3931 1.366 . S
C3930 C3932 1.388 . S
C3931 C3930 1.366 . S
C3931 C3935 1.385 . S
C3932 H3913 0.951 . S
C3932 C3930 1.388 . S
C3932 C3933 1.366 . S
C3933 C3932 1.366 . S
C3933 C3934 1.414 . S
C3933 C3936 1.499 . S
C3934 H3914 0.950 . S
C3934 C3933 1.414 . S
C3934 C3935 1.374 . S
C3935 H3915 0.950 . S
C3935 C3931 1.385 . S
C3935 C3934 1.374 . S
C3936 C3933 1.499 . S
C3936 C3937 1.373 . S
C3936 C3938 1.389 . S
C3937 H3916 0.950 . S
C3937 C3936 1.373 . S
C3937 C3953 1.377 . S
C3938 C3936 1.389 . S
C3938 C3939 1.524 . S
C3938 C3952 1.377 . S
C3939 C3938 1.524 . S
C3939 C3940 1.397 . S
C3939 C3944 1.363 . S
C3940 H3917 0.950 . S
C3940 C3939 1.397 . S
C3940 C3941 1.334 . S
C3941 H3918 0.950 . S
C3941 C3940 1.334 . S
C3941 C3942 1.287 . S
C3942 C3941 1.287 . S
C3942 C3943 1.524 . S
C3942 H3961 0.913 . S
C3943 H3919 0.950 . S
C3943 C3942 1.524 . S
C3943 C3944 1.415 . S
C3944 H3920 0.950 . S
C3944 C3939 1.363 . S
C3944 C3943 1.415 . S
C3945 H3921 0.951 . S
C3945 C3946 1.366 . S
C3945 C3947 1.388 . S
C3946 C3945 1.366 . S
C3946 C3950 1.385 . S
C3947 H3922 0.951 . S
C3947 C3945 1.388 . S
C3947 C3948 1.366 . S
C3948 C3947 1.366 . S
C3948 C3949 1.414 . S
C3948 C3951 1.499 . S
C3949 H3923 0.950 . S
C3949 C3948 1.414 . S
C3949 C3950 1.374 . S
C3950 H3924 0.950 . S
C3950 C3946 1.385 . S
C3950 C3949 1.374 . S
C3951 C3948 1.499 . S
C3951 C3952 1.373 . S
C3951 C3953 1.389 . S
C3952 H3925 0.950 . S
C3952 C3938 1.377 . S
C3952 C3951 1.373 . S
C3953 C3937 1.377 . S
C3953 C3951 1.389 . S
C3953 C3954 1.524 . S
C3954 C3953 1.524 . S
C3954 C3955 1.397 . S
C3954 C3959 1.363 . S
C3955 H3926 0.950 . S
C3955 C3954 1.397 . S
C3955 C3956 1.334 . S
C3956 H3927 0.950 . S
C3956 C3955 1.334 . S
C3956 C3957 1.287 . S
C3957 C3956 1.287 . S
C3957 C3958 1.524 . S
C3957 H3960 0.999 . S
C3958 H3928 0.950 . S
C3958 C3957 1.524 . S
C3958 C3959 1.415 . S
C3959 H3929 0.950 . S
C3959 C3954 1.363 . S
C3959 C3958 1.415 . S
H3960 C3957 0.999 . S
H3961 C3942 0.913 . S
H3962 C3980 0.951 . S
H3963 C3982 0.951 . S
H3964 C3984 0.950 . S
H3965 C3985 0.950 . S
H3966 C3987 0.950 . S
H3967 C3990 0.950 . S
H3968 C3991 0.950 . S
H3969 C3993 0.950 . S
H3970 C3994 0.950 . S
H3971 C3995 0.951 . S
H3972 C3997 0.951 . S
H3973 C3999 0.950 . S
H3974 C4000 0.950 . S
H3975 C4002 0.950 . S
H3976 C4005 0.950 . S
H3977 C4006 0.950 . S
H3978 C4008 0.950 . S
H3979 C4009 0.950 . S
C3980 H3962 0.951 . S
C3980 C3981 1.366 . S
C3980 C3982 1.388 . S
C3981 C3980 1.366 . S
C3981 C3985 1.385 . S
C3982 H3963 0.951 . S
C3982 C3980 1.388 . S
C3982 C3983 1.366 . S
C3983 C3982 1.366 . S
C3983 C3984 1.414 . S
C3983 C3986 1.499 . S
C3984 H3964 0.950 . S
C3984 C3983 1.414 . S
C3984 C3985 1.374 . S
C3985 H3965 0.950 . S
C3985 C3981 1.385 . S
C3985 C3984 1.374 . S
C3986 C3983 1.499 . S
C3986 C3987 1.373 . S
C3986 C3988 1.389 . S
C3987 H3966 0.950 . S
C3987 C3986 1.373 . S
C3987 C4003 1.377 . S
C3988 C3986 1.389 . S
C3988 C3989 1.524 . S
C3988 C4002 1.377 . S
C3989 C3988 1.524 . S
C3989 C3990 1.397 . S
C3989 C3994 1.363 . S
C3990 H3967 0.950 . S
C3990 C3989 1.397 . S
C3990 C3991 1.334 . S
C3991 H3968 0.950 . S
C3991 C3990 1.334 . S
C3991 C3992 1.287 . S
C3992 C3991 1.287 . S
C3992 C3993 1.524 . S
C3992 H4011 0.913 . S
C3993 H3969 0.950 . S
C3993 C3992 1.524 . S
C3993 C3994 1.415 . S
C3994 H3970 0.950 . S
C3994 C3989 1.363 . S
C3994 C3993 1.415 . S
C3995 H3971 0.951 . S
C3995 C3996 1.366 . S
C3995 C3997 1.388 . S
C3996 C3995 1.366 . S
C3996 C4000 1.385 . S
C3997 H3972 0.951 . S
C3997 C3995 1.388 . S
C3997 C3998 1.366 . S
C3998 C3997 1.366 . S
C3998 C3999 1.414 . S
C3998 C4001 1.499 . S
C3999 H3973 0.950 . S
C3999 C3998 1.414 . S
C3999 C4000 1.374 . S
C4000 H3974 0.950 . S
C4000 C3996 1.385 . S
C4000 C3999 1.374 . S
C4001 C3998 1.499 . S
C4001 C4002 1.373 . S
C4001 C4003 1.389 . S
C4002 H3975 0.950 . S
C4002 C3988 1.377 . S
C4002 C4001 1.373 . S
C4003 C3987 1.377 . S
C4003 C4001 1.389 . S
C4003 C4004 1.524 . S
C4004 C4003 1.524 . S
C4004 C4005 1.397 . S
C4004 C4009 1.363 . S
C4005 H3976 0.950 . S
C4005 C4004 1.397 . S
C4005 C4006 1.334 . S
C4006 H3977 0.950 . S
C4006 C4005 1.334 . S
C4006 C4007 1.287 . S
C4007 C4006 1.287 . S
C4007 C4008 1.524 . S
C4007 H4010 0.999 . S
C4008 H3978 0.950 . S
C4008 C4007 1.524 . S
C4008 C4009 1.415 . S
C4009 H3979 0.950 . S
C4009 C4004 1.363 . S
C4009 C4008 1.415 . S
H4010 C4007 0.999 . S
H4011 C3992 0.913 . S
H4012 C4030 0.951 . S
H4013 C4032 0.951 . S
H4014 C4034 0.950 . S
H4015 C4035 0.950 . S
H4016 C4037 0.950 . S
H4017 C4040 0.950 . S
H4018 C4041 0.950 . S
H4019 C4043 0.950 . S
H4020 C4044 0.950 . S
H4021 C4045 0.951 . S
H4022 C4047 0.951 . S
H4023 C4049 0.950 . S
H4024 C4050 0.950 . S
H4025 C4052 0.950 . S
H4026 C4055 0.950 . S
H4027 C4056 0.950 . S
H4028 C4058 0.950 . S
H4029 C4059 0.950 . S
C4030 H4012 0.951 . S
C4030 C4031 1.366 . S
C4030 C4032 1.388 . S
C4031 C4030 1.366 . S
C4031 C4035 1.385 . S
C4032 H4013 0.951 . S
C4032 C4030 1.388 . S
C4032 C4033 1.366 . S
C4033 C4032 1.366 . S
C4033 C4034 1.414 . S
C4033 C4036 1.499 . S
C4034 H4014 0.950 . S
C4034 C4033 1.414 . S
C4034 C4035 1.374 . S
C4035 H4015 0.950 . S
C4035 C4031 1.385 . S
C4035 C4034 1.374 . S
C4036 C4033 1.499 . S
C4036 C4037 1.373 . S
C4036 C4038 1.389 . S
C4037 H4016 0.950 . S
C4037 C4036 1.373 . S
C4037 C4053 1.377 . S
C4038 C4036 1.389 . S
C4038 C4039 1.524 . S
C4038 C4052 1.377 . S
C4039 C4038 1.524 . S
C4039 C4040 1.397 . S
C4039 C4044 1.363 . S
C4040 H4017 0.950 . S
C4040 C4039 1.397 . S
C4040 C4041 1.334 . S
C4041 H4018 0.950 . S
C4041 C4040 1.334 . S
C4041 C4042 1.287 . S
C4042 C4041 1.287 . S
C4042 C4043 1.524 . S
C4042 H4061 0.913 . S
C4043 H4019 0.950 . S
C4043 C4042 1.524 . S
C4043 C4044 1.415 . S
C4044 H4020 0.950 . S
C4044 C4039 1.363 . S
C4044 C4043 1.415 . S
C4045 H4021 0.951 . S
C4045 C4046 1.366 . S
C4045 C4047 1.388 . S
C4046 C4045 1.366 . S
C4046 C4050 1.385 . S
C4047 H4022 0.951 . S
C4047 C4045 1.388 . S
C4047 C4048 1.366 . S
C4048 C4047 1.366 . S
C4048 C4049 1.414 . S
C4048 C4051 1.499 . S
C4049 H4023 0.950 . S
C4049 C4048 1.414 . S
C4049 C4050 1.374 . S
C4050 H4024 0.950 . S
C4050 C4046 1.385 . S
C4050 C4049 1.374 . S
C4051 C4048 1.499 . S
C4051 C4052 1.373 . S
C4051 C4053 1.389 . S
C4052 H4025 0.950 . S
C4052 C4038 1.377 . S
C4052 C4051 1.373 . S
C4053 C4037 1.377 . S
C4053 C4051 1.389 . S
C4053 C4054 1.524 . S
C4054 C4053 1.524 . S
C4054 C4055 1.397 . S
C4054 C4059 1.363 . S
C4055 H4026 0.950 . S
C4055 C4054 1.397 . S
C4055 C4056 1.334 . S
C4056 H4027 0.950 . S
C4056 C4055 1.334 . S
C4056 C4057 1.287 . S
C4057 C4056 1.287 . S
C4057 C4058 1.524 . S
C4057 H4060 0.999 . S
C4058 H4028 0.950 . S
C4058 C4057 1.524 . S
C4058 C4059 1.415 . S
C4059 H4029 0.950 . S
C4059 C4054 1.363 . S
C4059 C4058 1.415 . S
H4060 C4057 0.999 . S
H4061 C4042 0.913 . S
H4062 C4080 0.951 . S
H4063 C4082 0.951 . S
H4064 C4084 0.950 . S
H4065 C4085 0.950 . S
H4066 C4087 0.950 . S
H4067 C4090 0.950 . S
H4068 C4091 0.950 . S
H4069 C4093 0.950 . S
H4070 C4094 0.950 . S
H4071 C4095 0.951 . S
H4072 C4097 0.951 . S
H4073 C4099 0.950 . S
H4074 C4100 0.950 . S
H4075 C4102 0.950 . S
H4076 C4105 0.950 . S
H4077 C4106 0.950 . S
H4078 C4108 0.950 . S
H4079 C4109 0.950 . S
C4080 H4062 0.951 . S
C4080 C4081 1.366 . S
C4080 C4082 1.388 . S
C4081 C4080 1.366 . S
C4081 C4085 1.385 . S
C4082 H4063 0.951 . S
C4082 C4080 1.388 . S
C4082 C4083 1.366 . S
C4083 C4082 1.366 . S
C4083 C4084 1.414 . S
C4083 C4086 1.499 . S
C4084 H4064 0.950 . S
C4084 C4083 1.414 . S
C4084 C4085 1.374 . S
C4085 H4065 0.950 . S
C4085 C4081 1.385 . S
C4085 C4084 1.374 . S
C4086 C4083 1.499 . S
C4086 C4087 1.373 . S
C4086 C4088 1.389 . S
C4087 H4066 0.950 . S
C4087 C4086 1.373 . S
C4087 C4103 1.377 . S
C4088 C4086 1.389 . S
C4088 C4089 1.524 . S
C4088 C4102 1.377 . S
C4089 C4088 1.524 . S
C4089 C4090 1.397 . S
C4089 C4094 1.363 . S
C4090 H4067 0.950 . S
C4090 C4089 1.397 . S
C4090 C4091 1.334 . S
C4091 H4068 0.950 . S
C4091 C4090 1.334 . S
C4091 C4092 1.287 . S
C4092 C4091 1.287 . S
C4092 C4093 1.524 . S
C4092 H4111 0.913 . S
C4093 H4069 0.950 . S
C4093 C4092 1.524 . S
C4093 C4094 1.415 . S
C4094 H4070 0.950 . S
C4094 C4089 1.363 . S
C4094 C4093 1.415 . S
C4095 H4071 0.951 . S
C4095 C4096 1.366 . S
C4095 C4097 1.388 . S
C4096 C4095 1.366 . S
C4096 C4100 1.385 . S
C4097 H4072 0.951 . S
C4097 C4095 1.388 . S
C4097 C4098 1.366 . S
C4098 C4097 1.366 . S
C4098 C4099 1.414 . S
C4098 C4101 1.499 . S
C4099 H4073 0.950 . S
C4099 C4098 1.414 . S
C4099 C4100 1.374 . S
C4100 H4074 0.950 . S
C4100 C4096 1.385 . S
C4100 C4099 1.374 . S
C4101 C4098 1.499 . S
C4101 C4102 1.373 . S
C4101 C4103 1.389 . S
C4102 H4075 0.950 . S
C4102 C4088 1.377 . S
C4102 C4101 1.373 . S
C4103 C4087 1.377 . S
C4103 C4101 1.389 . S
C4103 C4104 1.524 . S
C4104 C4103 1.524 . S
C4104 C4105 1.397 . S
C4104 C4109 1.363 . S
C4105 H4076 0.950 . S
C4105 C4104 1.397 . S
C4105 C4106 1.334 . S
C4106 H4077 0.950 . S
C4106 C4105 1.334 . S
C4106 C4107 1.287 . S
C4107 C4106 1.287 . S
C4107 C4108 1.524 . S
C4107 H4110 0.999 . S
C4108 H4078 0.950 . S
C4108 C4107 1.524 . S
C4108 C4109 1.415 . S
C4109 H4079 0.950 . S
C4109 C4104 1.363 . S
C4109 C4108 1.415 . S
H4110 C4107 0.999 . S
H4111 C4092 0.913 . S
H4112 C4130 0.951 . S
H4113 C4132 0.951 . S
H4114 C4134 0.950 . S
H4115 C4135 0.950 . S
H4116 C4137 0.950 . S
H4117 C4140 0.950 . S
H4118 C4141 0.950 . S
H4119 C4143 0.950 . S
H4120 C4144 0.950 . S
H4121 C4145 0.951 . S
H4122 C4147 0.951 . S
H4123 C4149 0.950 . S
H4124 C4150 0.950 . S
H4125 C4152 0.950 . S
H4126 C4155 0.950 . S
H4127 C4156 0.950 . S
H4128 C4158 0.950 . S
H4129 C4159 0.950 . S
C4130 H4112 0.951 . S
C4130 C4131 1.366 . S
C4130 C4132 1.388 . S
C4131 C4130 1.366 . S
C4131 C4135 1.385 . S
C4132 H4113 0.951 . S
C4132 C4130 1.388 . S
C4132 C4133 1.366 . S
C4133 C4132 1.366 . S
C4133 C4134 1.414 . S
C4133 C4136 1.499 . S
C4134 H4114 0.950 . S
C4134 C4133 1.414 . S
C4134 C4135 1.374 . S
C4135 H4115 0.950 . S
C4135 C4131 1.385 . S
C4135 C4134 1.374 . S
C4136 C4133 1.499 . S
C4136 C4137 1.373 . S
C4136 C4138 1.389 . S
C4137 H4116 0.950 . S
C4137 C4136 1.373 . S
C4137 C4153 1.377 . S
C4138 C4136 1.389 . S
C4138 C4139 1.524 . S
C4138 C4152 1.377 . S
C4139 C4138 1.524 . S
C4139 C4140 1.397 . S
C4139 C4144 1.363 . S
C4140 H4117 0.950 . S
C4140 C4139 1.397 . S
C4140 C4141 1.334 . S
C4141 H4118 0.950 . S
C4141 C4140 1.334 . S
C4141 C4142 1.287 . S
C4142 C4141 1.287 . S
C4142 C4143 1.524 . S
C4142 H4161 0.913 . S
C4143 H4119 0.950 . S
C4143 C4142 1.524 . S
C4143 C4144 1.415 . S
C4144 H4120 0.950 . S
C4144 C4139 1.363 . S
C4144 C4143 1.415 . S
C4145 H4121 0.951 . S
C4145 C4146 1.366 . S
C4145 C4147 1.388 . S
C4146 C4145 1.366 . S
C4146 C4150 1.385 . S
C4147 H4122 0.951 . S
C4147 C4145 1.388 . S
C4147 C4148 1.366 . S
C4148 C4147 1.366 . S
C4148 C4149 1.414 . S
C4148 C4151 1.499 . S
C4149 H4123 0.950 . S
C4149 C4148 1.414 . S
C4149 C4150 1.374 . S
C4150 H4124 0.950 . S
C4150 C4146 1.385 . S
C4150 C4149 1.374 . S
C4151 C4148 1.499 . S
C4151 C4152 1.373 . S
C4151 C4153 1.389 . S
C4152 H4125 0.950 . S
C4152 C4138 1.377 . S
C4152 C4151 1.373 . S
C4153 C4137 1.377 . S
C4153 C4151 1.389 . S
C4153 C4154 1.524 . S
C4154 C4153 1.524 . S
C4154 C4155 1.397 . S
C4154 C4159 1.363 . S
C4155 H4126 0.950 . S
C4155 C4154 1.397 . S
C4155 C4156 1.334 . S
C4156 H4127 0.950 . S
C4156 C4155 1.334 . S
C4156 C4157 1.287 . S
C4157 C4156 1.287 . S
C4157 C4158 1.524 . S
C4157 H4160 0.999 . S
C4158 H4128 0.950 . S
C4158 C4157 1.524 . S
C4158 C4159 1.415 . S
C4159 H4129 0.950 . S
C4159 C4154 1.363 . S
C4159 C4158 1.415 . S
H4160 C4157 0.999 . S
H4161 C4142 0.913 . S
H4162 C4180 0.951 . S
H4163 C4182 0.951 . S
H4164 C4184 0.950 . S
H4165 C4185 0.950 . S
H4166 C4187 0.950 . S
H4167 C4190 0.950 . S
H4168 C4191 0.950 . S
H4169 C4193 0.950 . S
H4170 C4194 0.950 . S
H4171 C4195 0.951 . S
H4172 C4197 0.951 . S
H4173 C4199 0.950 . S
H4174 C4200 0.950 . S
H4175 C4202 0.950 . S
H4176 C4205 0.950 . S
H4177 C4206 0.950 . S
H4178 C4208 0.950 . S
H4179 C4209 0.950 . S
C4180 H4162 0.951 . S
C4180 C4181 1.366 . S
C4180 C4182 1.388 . S
C4181 C4180 1.366 . S
C4181 C4185 1.385 . S
C4182 H4163 0.951 . S
C4182 C4180 1.388 . S
C4182 C4183 1.366 . S
C4183 C4182 1.366 . S
C4183 C4184 1.414 . S
C4183 C4186 1.499 . S
C4184 H4164 0.950 . S
C4184 C4183 1.414 . S
C4184 C4185 1.374 . S
C4185 H4165 0.950 . S
C4185 C4181 1.385 . S
C4185 C4184 1.374 . S
C4186 C4183 1.499 . S
C4186 C4187 1.373 . S
C4186 C4188 1.389 . S
C4187 H4166 0.950 . S
C4187 C4186 1.373 . S
C4187 C4203 1.377 . S
C4188 C4186 1.389 . S
C4188 C4189 1.524 . S
C4188 C4202 1.377 . S
C4189 C4188 1.524 . S
C4189 C4190 1.397 . S
C4189 C4194 1.363 . S
C4190 H4167 0.950 . S
C4190 C4189 1.397 . S
C4190 C4191 1.334 . S
C4191 H4168 0.950 . S
C4191 C4190 1.334 . S
C4191 C4192 1.287 . S
C4192 C4191 1.287 . S
C4192 C4193 1.524 . S
C4192 H4211 0.913 . S
C4193 H4169 0.950 . S
C4193 C4192 1.524 . S
C4193 C4194 1.415 . S
C4194 H4170 0.950 . S
C4194 C4189 1.363 . S
C4194 C4193 1.415 . S
C4195 H4171 0.951 . S
C4195 C4196 1.366 . S
C4195 C4197 1.388 . S
C4196 C4195 1.366 . S
C4196 C4200 1.385 . S
C4197 H4172 0.951 . S
C4197 C4195 1.388 . S
C4197 C4198 1.366 . S
C4198 C4197 1.366 . S
C4198 C4199 1.414 . S
C4198 C4201 1.499 . S
C4199 H4173 0.950 . S
C4199 C4198 1.414 . S
C4199 C4200 1.374 . S
C4200 H4174 0.950 . S
C4200 C4196 1.385 . S
C4200 C4199 1.374 . S
C4201 C4198 1.499 . S
C4201 C4202 1.373 . S
C4201 C4203 1.389 . S
C4202 H4175 0.950 . S
C4202 C4188 1.377 . S
C4202 C4201 1.373 . S
C4203 C4187 1.377 . S
C4203 C4201 1.389 . S
C4203 C4204 1.524 . S
C4204 C4203 1.524 . S
C4204 C4205 1.397 . S
C4204 C4209 1.363 . S
C4205 H4176 0.950 . S
C4205 C4204 1.397 . S
C4205 C4206 1.334 . S
C4206 H4177 0.950 . S
C4206 C4205 1.334 . S
C4206 C4207 1.287 . S
C4207 C4206 1.287 . S
C4207 C4208 1.524 . S
C4207 H4210 0.999 . S
C4208 H4178 0.950 . S
C4208 C4207 1.524 . S
C4208 C4209 1.415 . S
C4209 H4179 0.950 . S
C4209 C4204 1.363 . S
C4209 C4208 1.415 . S
H4210 C4207 0.999 . S
H4211 C4192 0.913 . S
H4212 C4230 0.951 . S
H4213 C4232 0.951 . S
H4214 C4234 0.950 . S
H4215 C4235 0.950 . S
H4216 C4237 0.950 . S
H4217 C4240 0.950 . S
H4218 C4241 0.950 . S
H4219 C4243 0.950 . S
H4220 C4244 0.950 . S
H4221 C4245 0.951 . S
H4222 C4247 0.951 . S
H4223 C4249 0.950 . S
H4224 C4250 0.950 . S
H4225 C4252 0.950 . S
H4226 C4255 0.950 . S
H4227 C4256 0.950 . S
H4228 C4258 0.950 . S
H4229 C4259 0.950 . S
C4230 H4212 0.951 . S
C4230 C4231 1.366 . S
C4230 C4232 1.388 . S
C4231 C4230 1.366 . S
C4231 C4235 1.385 . S
C4232 H4213 0.951 . S
C4232 C4230 1.388 . S
C4232 C4233 1.366 . S
C4233 C4232 1.366 . S
C4233 C4234 1.414 . S
C4233 C4236 1.499 . S
C4234 H4214 0.950 . S
C4234 C4233 1.414 . S
C4234 C4235 1.374 . S
C4235 H4215 0.950 . S
C4235 C4231 1.385 . S
C4235 C4234 1.374 . S
C4236 C4233 1.499 . S
C4236 C4237 1.373 . S
C4236 C4238 1.389 . S
C4237 H4216 0.950 . S
C4237 C4236 1.373 . S
C4237 C4253 1.377 . S
C4238 C4236 1.389 . S
C4238 C4239 1.524 . S
C4238 C4252 1.377 . S
C4239 C4238 1.524 . S
C4239 C4240 1.397 . S
C4239 C4244 1.363 . S
C4240 H4217 0.950 . S
C4240 C4239 1.397 . S
C4240 C4241 1.334 . S
C4241 H4218 0.950 . S
C4241 C4240 1.334 . S
C4241 C4242 1.287 . S
C4242 C4241 1.287 . S
C4242 C4243 1.524 . S
C4242 H4261 0.913 . S
C4243 H4219 0.950 . S
C4243 C4242 1.524 . S
C4243 C4244 1.415 . S
C4244 H4220 0.950 . S
C4244 C4239 1.363 . S
C4244 C4243 1.415 . S
C4245 H4221 0.951 . S
C4245 C4246 1.366 . S
C4245 C4247 1.388 . S
C4246 C4245 1.366 . S
C4246 C4250 1.385 . S
C4247 H4222 0.951 . S
C4247 C4245 1.388 . S
C4247 C4248 1.366 . S
C4248 C4247 1.366 . S
C4248 C4249 1.414 . S
C4248 C4251 1.499 . S
C4249 H4223 0.950 . S
C4249 C4248 1.414 . S
C4249 C4250 1.374 . S
C4250 H4224 0.950 . S
C4250 C4246 1.385 . S
C4250 C4249 1.374 . S
C4251 C4248 1.499 . S
C4251 C4252 1.373 . S
C4251 C4253 1.389 . S
C4252 H4225 0.950 . S
C4252 C4238 1.377 . S
C4252 C4251 1.373 . S
C4253 C4237 1.377 . S
C4253 C4251 1.389 . S
C4253 C4254 1.524 . S
C4254 C4253 1.524 . S
C4254 C4255 1.397 . S
C4254 C4259 1.363 . S
C4255 H4226 0.950 . S
C4255 C4254 1.397 . S
C4255 C4256 1.334 . S
C4256 H4227 0.950 . S
C4256 C4255 1.334 . S
C4256 C4257 1.287 . S
C4257 C4256 1.287 . S
C4257 C4258 1.524 . S
C4257 H4260 0.999 . S
C4258 H4228 0.950 . S
C4258 C4257 1.524 . S
C4258 C4259 1.415 . S
C4259 H4229 0.950 . S
C4259 C4254 1.363 . S
C4259 C4258 1.415 . S
H4260 C4257 0.999 . S
H4261 C4242 0.913 . S
H4262 C4280 0.951 . S
H4263 C4282 0.951 . S
H4264 C4284 0.950 . S
H4265 C4285 0.950 . S
H4266 C4287 0.950 . S
H4267 C4290 0.950 . S
H4268 C4291 0.950 . S
H4269 C4293 0.950 . S
H4270 C4294 0.950 . S
H4271 C4295 0.951 . S
H4272 C4297 0.951 . S
H4273 C4299 0.950 . S
H4274 C4300 0.950 . S
H4275 C4302 0.950 . S
H4276 C4305 0.950 . S
H4277 C4306 0.950 . S
H4278 C4308 0.950 . S
H4279 C4309 0.950 . S
C4280 H4262 0.951 . S
C4280 C4281 1.366 . S
C4280 C4282 1.388 . S
C4281 C4280 1.366 . S
C4281 C4285 1.385 . S
C4282 H4263 0.951 . S
C4282 C4280 1.388 . S
C4282 C4283 1.366 . S
C4283 C4282 1.366 . S
C4283 C4284 1.414 . S
C4283 C4286 1.499 . S
C4284 H4264 0.950 . S
C4284 C4283 1.414 . S
C4284 C4285 1.374 . S
C4285 H4265 0.950 . S
C4285 C4281 1.385 . S
C4285 C4284 1.374 . S
C4286 C4283 1.499 . S
C4286 C4287 1.373 . S
C4286 C4288 1.389 . S
C4287 H4266 0.950 . S
C4287 C4286 1.373 . S
C4287 C4303 1.377 . S
C4288 C4286 1.389 . S
C4288 C4289 1.524 . S
C4288 C4302 1.377 . S
C4289 C4288 1.524 . S
C4289 C4290 1.397 . S
C4289 C4294 1.363 . S
C4290 H4267 0.950 . S
C4290 C4289 1.397 . S
C4290 C4291 1.334 . S
C4291 H4268 0.950 . S
C4291 C4290 1.334 . S
C4291 C4292 1.287 . S
C4292 C4291 1.287 . S
C4292 C4293 1.524 . S
C4292 H4311 0.913 . S
C4293 H4269 0.950 . S
C4293 C4292 1.524 . S
C4293 C4294 1.415 . S
C4294 H4270 0.950 . S
C4294 C4289 1.363 . S
C4294 C4293 1.415 . S
C4295 H4271 0.951 . S
C4295 C4296 1.366 . S
C4295 C4297 1.388 . S
C4296 C4295 1.366 . S
C4296 C4300 1.385 . S
C4297 H4272 0.951 . S
C4297 C4295 1.388 . S
C4297 C4298 1.366 . S
C4298 C4297 1.366 . S
C4298 C4299 1.414 . S
C4298 C4301 1.499 . S
C4299 H4273 0.950 . S
C4299 C4298 1.414 . S
C4299 C4300 1.374 . S
C4300 H4274 0.950 . S
C4300 C4296 1.385 . S
C4300 C4299 1.374 . S
C4301 C4298 1.499 . S
C4301 C4302 1.373 . S
C4301 C4303 1.389 . S
C4302 H4275 0.950 . S
C4302 C4288 1.377 . S
C4302 C4301 1.373 . S
C4303 C4287 1.377 . S
C4303 C4301 1.389 . S
C4303 C4304 1.524 . S
C4304 C4303 1.524 . S
C4304 C4305 1.397 . S
C4304 C4309 1.363 . S
C4305 H4276 0.950 . S
C4305 C4304 1.397 . S
C4305 C4306 1.334 . S
C4306 H4277 0.950 . S
C4306 C4305 1.334 . S
C4306 C4307 1.287 . S
C4307 C4306 1.287 . S
C4307 C4308 1.524 . S
C4307 H4310 0.999 . S
C4308 H4278 0.950 . S
C4308 C4307 1.524 . S
C4308 C4309 1.415 . S
C4309 H4279 0.950 . S
C4309 C4304 1.363 . S
C4309 C4308 1.415 . S
H4310 C4307 0.999 . S
H4311 C4292 0.913 . S
H4312 C4330 0.951 . S
H4313 C4332 0.951 . S
H4314 C4334 0.950 . S
H4315 C4335 0.950 . S
H4316 C4337 0.950 . S
H4317 C4340 0.950 . S
H4318 C4341 0.950 . S
H4319 C4343 0.950 . S
H4320 C4344 0.950 . S
H4321 C4345 0.951 . S
H4322 C4347 0.951 . S
H4323 C4349 0.950 . S
H4324 C4350 0.950 . S
H4325 C4352 0.950 . S
H4326 C4355 0.950 . S
H4327 C4356 0.950 . S
H4328 C4358 0.950 . S
H4329 C4359 0.950 . S
C4330 H4312 0.951 . S
C4330 C4331 1.366 . S
C4330 C4332 1.388 . S
C4331 C4330 1.366 . S
C4331 C4335 1.385 . S
C4332 H4313 0.951 . S
C4332 C4330 1.388 . S
C4332 C4333 1.366 . S
C4333 C4332 1.366 . S
C4333 C4334 1.414 . S
C4333 C4336 1.499 . S
C4334 H4314 0.950 . S
C4334 C4333 1.414 . S
C4334 C4335 1.374 . S
C4335 H4315 0.950 . S
C4335 C4331 1.385 . S
C4335 C4334 1.374 . S
C4336 C4333 1.499 . S
C4336 C4337 1.373 . S
C4336 C4338 1.389 . S
C4337 H4316 0.950 . S
C4337 C4336 1.373 . S
C4337 C4353 1.377 . S
C4338 C4336 1.389 . S
C4338 C4339 1.524 . S
C4338 C4352 1.377 . S
C4339 C4338 1.524 . S
C4339 C4340 1.397 . S
C4339 C4344 1.363 . S
C4340 H4317 0.950 . S
C4340 C4339 1.397 . S
C4340 C4341 1.334 . S
C4341 H4318 0.950 . S
C4341 C4340 1.334 . S
C4341 C4342 1.287 . S
C4342 C4341 1.287 . S
C4342 C4343 1.524 . S
C4342 H4361 0.913 . S
C4343 H4319 0.950 . S
C4343 C4342 1.524 . S
C4343 C4344 1.415 . S
C4344 H4320 0.950 . S
C4344 C4339 1.363 . S
C4344 C4343 1.415 . S
C4345 H4321 0.951 . S
C4345 C4346 1.366 . S
C4345 C4347 1.388 . S
C4346 C4345 1.366 . S
C4346 C4350 1.385 . S
C4347 H4322 0.951 . S
C4347 C4345 1.388 . S
C4347 C4348 1.366 . S
C4348 C4347 1.366 . S
C4348 C4349 1.414 . S
C4348 C4351 1.499 . S
C4349 H4323 0.950 . S
C4349 C4348 1.414 . S
C4349 C4350 1.374 . S
C4350 H4324 0.950 . S
C4350 C4346 1.385 . S
C4350 C4349 1.374 . S
C4351 C4348 1.499 . S
C4351 C4352 1.373 . S
C4351 C4353 1.389 . S
C4352 H4325 0.950 . S
C4352 C4338 1.377 . S
C4352 C4351 1.373 . S
C4353 C4337 1.377 . S
C4353 C4351 1.389 . S
C4353 C4354 1.524 . S
C4354 C4353 1.524 . S
C4354 C4355 1.397 . S
C4354 C4359 1.363 . S
C4355 H4326 0.950 . S
C4355 C4354 1.397 . S
C4355 C4356 1.334 . S
C4356 H4327 0.950 . S
C4356 C4355 1.334 . S
C4356 C4357 1.287 . S
C4357 C4356 1.287 . S
C4357 C4358 1.524 . S
C4357 H4360 0.999 . S
C4358 H4328 0.950 . S
C4358 C4357 1.524 . S
C4358 C4359 1.415 . S
C4359 H4329 0.950 . S
C4359 C4354 1.363 . S
C4359 C4358 1.415 . S
H4360 C4357 0.999 . S
H4361 C4342 0.913 . S
H4362 C4380 0.951 . S
H4363 C4382 0.951 . S
H4364 C4384 0.950 . S
H4365 C4385 0.950 . S
H4366 C4387 0.950 . S
H4367 C4390 0.950 . S
H4368 C4391 0.950 . S
H4369 C4393 0.950 . S
H4370 C4394 0.950 . S
H4371 C4395 0.951 . S
H4372 C4397 0.951 . S
H4373 C4399 0.950 . S
H4374 C4400 0.950 . S
H4375 C4402 0.950 . S
H4376 C4405 0.950 . S
H4377 C4406 0.950 . S
H4378 C4408 0.950 . S
H4379 C4409 0.950 . S
C4380 H4362 0.951 . S
C4380 C4381 1.366 . S
C4380 C4382 1.388 . S
C4381 C4380 1.366 . S
C4381 C4385 1.385 . S
C4382 H4363 0.951 . S
C4382 C4380 1.388 . S
C4382 C4383 1.366 . S
C4383 C4382 1.366 . S
C4383 C4384 1.414 . S
C4383 C4386 1.499 . S
C4384 H4364 0.950 . S
C4384 C4383 1.414 . S
C4384 C4385 1.374 . S
C4385 H4365 0.950 . S
C4385 C4381 1.385 . S
C4385 C4384 1.374 . S
C4386 C4383 1.499 . S
C4386 C4387 1.373 . S
C4386 C4388 1.389 . S
C4387 H4366 0.950 . S
C4387 C4386 1.373 . S
C4387 C4403 1.377 . S
C4388 C4386 1.389 . S
C4388 C4389 1.524 . S
C4388 C4402 1.377 . S
C4389 C4388 1.524 . S
C4389 C4390 1.397 . S
C4389 C4394 1.363 . S
C4390 H4367 0.950 . S
C4390 C4389 1.397 . S
C4390 C4391 1.334 . S
C4391 H4368 0.950 . S
C4391 C4390 1.334 . S
C4391 C4392 1.287 . S
C4392 C4391 1.287 . S
C4392 C4393 1.524 . S
C4392 H4411 0.913 . S
C4393 H4369 0.950 . S
C4393 C4392 1.524 . S
C4393 C4394 1.415 . S
C4394 H4370 0.950 . S
C4394 C4389 1.363 . S
C4394 C4393 1.415 . S
C4395 H4371 0.951 . S
C4395 C4396 1.366 . S
C4395 C4397 1.388 . S
C4396 C4395 1.366 . S
C4396 C4400 1.385 . S
C4397 H4372 0.951 . S
C4397 C4395 1.388 . S
C4397 C4398 1.366 . S
C4398 C4397 1.366 . S
C4398 C4399 1.414 . S
C4398 C4401 1.499 . S
C4399 H4373 0.950 . S
C4399 C4398 1.414 . S
C4399 C4400 1.374 . S
C4400 H4374 0.950 . S
C4400 C4396 1.385 . S
C4400 C4399 1.374 . S
C4401 C4398 1.499 . S
C4401 C4402 1.373 . S
C4401 C4403 1.389 . S
C4402 H4375 0.950 . S
C4402 C4388 1.377 . S
C4402 C4401 1.373 . S
C4403 C4387 1.377 . S
C4403 C4401 1.389 . S
C4403 C4404 1.524 . S
C4404 C4403 1.524 . S
C4404 C4405 1.397 . S
C4404 C4409 1.363 . S
C4405 H4376 0.950 . S
C4405 C4404 1.397 . S
C4405 C4406 1.334 . S
C4406 H4377 0.950 . S
C4406 C4405 1.334 . S
C4406 C4407 1.287 . S
C4407 C4406 1.287 . S
C4407 C4408 1.524 . S
C4407 H4410 0.999 . S
C4408 H4378 0.950 . S
C4408 C4407 1.524 . S
C4408 C4409 1.415 . S
C4409 H4379 0.950 . S
C4409 C4404 1.363 . S
C4409 C4408 1.415 . S
H4410 C4407 0.999 . S
H4411 C4392 0.913 . S
H4412 C4430 0.951 . S
H4413 C4432 0.951 . S
H4414 C4434 0.950 . S
H4415 C4435 0.950 . S
H4416 C4437 0.950 . S
H4417 C4440 0.950 . S
H4418 C4441 0.950 . S
H4419 C4443 0.950 . S
H4420 C4444 0.950 . S
H4421 C4445 0.951 . S
H4422 C4447 0.951 . S
H4423 C4449 0.950 . S
H4424 C4450 0.950 . S
H4425 C4452 0.950 . S
H4426 C4455 0.950 . S
H4427 C4456 0.950 . S
H4428 C4458 0.950 . S
H4429 C4459 0.950 . S
C4430 H4412 0.951 . S
C4430 C4431 1.366 . S
C4430 C4432 1.388 . S
C4431 C4430 1.366 . S
C4431 C4435 1.385 . S
C4432 H4413 0.951 . S
C4432 C4430 1.388 . S
C4432 C4433 1.366 . S
C4433 C4432 1.366 . S
C4433 C4434 1.414 . S
C4433 C4436 1.499 . S
C4434 H4414 0.950 . S
C4434 C4433 1.414 . S
C4434 C4435 1.374 . S
C4435 H4415 0.950 . S
C4435 C4431 1.385 . S
C4435 C4434 1.374 . S
C4436 C4433 1.499 . S
C4436 C4437 1.373 . S
C4436 C4438 1.389 . S
C4437 H4416 0.950 . S
C4437 C4436 1.373 . S
C4437 C4453 1.377 . S
C4438 C4436 1.389 . S
C4438 C4439 1.524 . S
C4438 C4452 1.377 . S
C4439 C4438 1.524 . S
C4439 C4440 1.397 . S
C4439 C4444 1.363 . S
C4440 H4417 0.950 . S
C4440 C4439 1.397 . S
C4440 C4441 1.334 . S
C4441 H4418 0.950 . S
C4441 C4440 1.334 . S
C4441 C4442 1.287 . S
C4442 C4441 1.287 . S
C4442 C4443 1.524 . S
C4442 H4461 0.913 . S
C4443 H4419 0.950 . S
C4443 C4442 1.524 . S
C4443 C4444 1.415 . S
C4444 H4420 0.950 . S
C4444 C4439 1.363 . S
C4444 C4443 1.415 . S
C4445 H4421 0.951 . S
C4445 C4446 1.366 . S
C4445 C4447 1.388 . S
C4446 C4445 1.366 . S
C4446 C4450 1.385 . S
C4447 H4422 0.951 . S
C4447 C4445 1.388 . S
C4447 C4448 1.366 . S
C4448 C4447 1.366 . S
C4448 C4449 1.414 . S
C4448 C4451 1.499 . S
C4449 H4423 0.950 . S
C4449 C4448 1.414 . S
C4449 C4450 1.374 . S
C4450 H4424 0.950 . S
C4450 C4446 1.385 . S
C4450 C4449 1.374 . S
C4451 C4448 1.499 . S
C4451 C4452 1.373 . S
C4451 C4453 1.389 . S
C4452 H4425 0.950 . S
C4452 C4438 1.377 . S
C4452 C4451 1.373 . S
C4453 C4437 1.377 . S
C4453 C4451 1.389 . S
C4453 C4454 1.524 . S
C4454 C4453 1.524 . S
C4454 C4455 1.397 . S
C4454 C4459 1.363 . S
C4455 H4426 0.950 . S
C4455 C4454 1.397 . S
C4455 C4456 1.334 . S
C4456 H4427 0.950 . S
C4456 C4455 1.334 . S
C4456 C4457 1.287 . S
C4457 C4456 1.287 . S
C4457 C4458 1.524 . S
C4457 H4460 0.999 . S
C4458 H4428 0.950 . S
C4458 C4457 1.524 . S
C4458 C4459 1.415 . S
C4459 H4429 0.950 . S
C4459 C4454 1.363 . S
C4459 C4458 1.415 . S
H4460 C4457 0.999 . S
H4461 C4442 0.913 . S
H4462 C4480 0.951 . S
H4463 C4482 0.951 . S
H4464 C4484 0.950 . S
H4465 C4485 0.950 . S
H4466 C4487 0.950 . S
H4467 C4490 0.950 . S
H4468 C4491 0.950 . S
H4469 C4493 0.950 . S
H4470 C4494 0.950 . S
H4471 C4495 0.951 . S
H4472 C4497 0.951 . S
H4473 C4499 0.950 . S
H4474 C4500 0.950 . S
H4475 C4502 0.950 . S
H4476 C4505 0.950 . S
H4477 C4506 0.950 . S
H4478 C4508 0.950 . S
H4479 C4509 0.950 . S
C4480 H4462 0.951 . S
C4480 C4481 1.366 . S
C4480 C4482 1.388 . S
C4481 C4480 1.366 . S
C4481 C4485 1.385 . S
C4482 H4463 0.951 . S
C4482 C4480 1.388 . S
C4482 C4483 1.366 . S
C4483 C4482 1.366 . S
C4483 C4484 1.414 . S
C4483 C4486 1.499 . S
C4484 H4464 0.950 . S
C4484 C4483 1.414 . S
C4484 C4485 1.374 . S
C4485 H4465 0.950 . S
C4485 C4481 1.385 . S
C4485 C4484 1.374 . S
C4486 C4483 1.499 . S
C4486 C4487 1.373 . S
C4486 C4488 1.389 . S
C4487 H4466 0.950 . S
C4487 C4486 1.373 . S
C4487 C4503 1.377 . S
C4488 C4486 1.389 . S
C4488 C4489 1.524 . S
C4488 C4502 1.377 . S
C4489 C4488 1.524 . S
C4489 C4490 1.397 . S
C4489 C4494 1.363 . S
C4490 H4467 0.950 . S
C4490 C4489 1.397 . S
C4490 C4491 1.334 . S
C4491 H4468 0.950 . S
C4491 C4490 1.334 . S
C4491 C4492 1.287 . S
C4492 C4491 1.287 . S
C4492 C4493 1.524 . S
C4492 H4511 0.913 . S
C4493 H4469 0.950 . S
C4493 C4492 1.524 . S
C4493 C4494 1.415 . S
C4494 H4470 0.950 . S
C4494 C4489 1.363 . S
C4494 C4493 1.415 . S
C4495 H4471 0.951 . S
C4495 C4496 1.366 . S
C4495 C4497 1.388 . S
C4496 C4495 1.366 . S
C4496 C4500 1.385 . S
C4497 H4472 0.951 . S
C4497 C4495 1.388 . S
C4497 C4498 1.366 . S
C4498 C4497 1.366 . S
C4498 C4499 1.414 . S
C4498 C4501 1.499 . S
C4499 H4473 0.950 . S
C4499 C4498 1.414 . S
C4499 C4500 1.374 . S
C4500 H4474 0.950 . S
C4500 C4496 1.385 . S
C4500 C4499 1.374 . S
C4501 C4498 1.499 . S
C4501 C4502 1.373 . S
C4501 C4503 1.389 . S
C4502 H4475 0.950 . S
C4502 C4488 1.377 . S
C4502 C4501 1.373 . S
C4503 C4487 1.377 . S
C4503 C4501 1.389 . S
C4503 C4504 1.524 . S
C4504 C4503 1.524 . S
C4504 C4505 1.397 . S
C4504 C4509 1.363 . S
C4505 H4476 0.950 . S
C4505 C4504 1.397 . S
C4505 C4506 1.334 . S
C4506 H4477 0.950 . S
C4506 C4505 1.334 . S
C4506 C4507 1.287 . S
C4507 C4506 1.287 . S
C4507 C4508 1.524 . S
C4507 H4510 0.999 . S
C4508 H4478 0.950 . S
C4508 C4507 1.524 . S
C4508 C4509 1.415 . S
C4509 H4479 0.950 . S
C4509 C4504 1.363 . S
C4509 C4508 1.415 . S
H4510 C4507 0.999 . S
H4511 C4492 0.913 . S
C2131 C1261 1.224 . S
C2146 C20 1.222 . S
C2181 C117 1.224 . S
C2196 C1349 1.232 . S
C2231 C1604 1.224 . S
C2246 C225 1.225 . S
C2281 C321 1.225 . S
C2296 C1164 1.222 . S
C2331 C1289 1.225 . S
C2346 C372 1.222 . S
C2381 C469 1.225 . S
C2396 C1377 1.225 . S
C2431 C577 1.225 . S
C2446 C1633 1.225 . S
C2481 C673 1.225 . S
C2496 C1193 1.234 . S
C2531 C849 1.224 . S
C2546 C733 1.222 . S
C2581 C900 1.224 . S
C2596 C821 1.221 . S
C2631 C929 1.225 . S
C2646 C1025 1.235 . S
C2681 C997 1.225 . S
C2696 C761 1.221 . S
C2731 C1085 1.225 . S
C2746 C293 1.221 . S
C2781 C401 1.224 . S
C2796 C1457 1.235 . S
C2831 C1516 1.225 . S
C2846 C145 1.218 . S
C2881 C137 1.235 . S
C2896 C1868 1.238 . S
C2931 C812 1.234 . S
C2946 C29 1.228 . S
C2981 C2081 1.235 . S
C2996 C284 1.235 . S
C3031 C988 1.234 . S
C3046 C233 1.239 . S
C3081 C1897 1.235 . S
C3096 C636 1.238 . S
C3131 C841 1.235 . S
C3146 C585 1.235 . S
C3181 C489 1.235 . S
C3196 C2053 1.235 . S
C3231 C381 1.235 . S
C3246 C1017 1.225 . S
C3281 C1340 1.235 . S
C3296 C1721 1.237 . S
C3331 C1437 1.234 . S
C3346 C1369 1.238 . S
C3381 C1173 1.235 . S
C3396 C1465 1.226 . S
C3431 C1692 1.234 . S
C3446 C1201 1.237 . S
C3481 C205 1.234 . S
C3496 C1817 1.238 . S
C3531 C909 1.235 . S
C3546 C665 1.225 . S
C3581 C57 1.235 . S
C3596 C1956 1.241 . S
C3631 C1701 1.225 . S
C3646 C196 1.232 . S
C3681 C49 1.225 . S
C3696 C1428 1.222 . S
C3731 C1729 1.224 . S
C3746 C548 1.218 . S
C3781 C1113 1.225 . S
C3796 C645 1.222 . S
C3831 C497 1.225 . S
C3846 C1545 1.224 . S
C3881 C1877 1.225 . S
C3896 C1780 1.231 . S
C3931 C2044 1.225 . S
C3946 C1809 1.218 . S
C3981 C1993 1.225 . S
C3996 C2073 1.225 . S
C4031 C1905 1.225 . S
C4046 C1965 1.225 . S
C4081 C724 1.234 . S
C4096 C313 1.228 . S
C4131 C108 1.234 . S
C4146 C937 1.237 . S
C4181 C460 1.235 . S
C4196 C753 1.241 . S
C4231 C1789 1.235 . S
C4246 C409 1.237 . S
C4281 C557 1.235 . S
C4296 C1985 1.235 . S
C4331 C1076 1.235 . S
C4346 C1281 1.229 . S
C4381 C1613 1.235 . S
C4396 C1105 1.241 . S
C4431 C1525 1.234 . S
C4446 C1641 1.234 . S
C4481 C1252 1.235 . S
C4496 C1553 1.234 . S
