# Generated by pormake.
# Topology wkc, (5)-cn, num edge types: 1
# Building blocks:
#     Node 0, Type 0, BuildingBlock: XOMCOT_clean_sbu_1, # of connection points: 5
#     Node 1, Type 0, BuildingBlock: XOMCOT_clean_sbu_1, # of connection points: 5
#     Node 2, Type 0, BuildingBlock: XOMCOT_clean_sbu_1, # of connection points: 5
#     Node 3, Type 0, BuildingBlock: XOMCOT_clean_sbu_1, # of connection points: 5
#     Node 4, Type 0, BuildingBlock: XOMCOT_clean_sbu_1, # of connection points: 5
#     Node 5, Type 0, BuildingBlock: XOMCOT_clean_sbu_1, # of connection points: 5
#     Node 6, Type 0, BuildingBlock: XOMCOT_clean_sbu_1, # of connection points: 5
#     Node 7, Type 0, BuildingBlock: XOMCOT_clean_sbu_1, # of connection points: 5
#     Node 8, Type 0, BuildingBlock: XOMCOT_clean_sbu_1, # of connection points: 5
#     Node 9, Type 0, BuildingBlock: XOMCOT_clean_sbu_1, # of connection points: 5
#     Node 10, Type 0, BuildingBlock: XOMCOT_clean_sbu_1, # of connection points: 5
#     Node 11, Type 0, BuildingBlock: XOMCOT_clean_sbu_1, # of connection points: 5
#     Edge 12, Type (0, 0), BuildingBlock: OJICUG_clean_linker_0, # of connection points: 2
#     Edge 13, Type (0, 0), BuildingBlock: OJICUG_clean_linker_0, # of connection points: 2
#     Edge 14, Type (0, 0), BuildingBlock: OJICUG_clean_linker_0, # of connection points: 2
#     Edge 15, Type (0, 0), BuildingBlock: OJICUG_clean_linker_0, # of connection points: 2
#     Edge 16, Type (0, 0), BuildingBlock: OJICUG_clean_linker_0, # of connection points: 2
#     Edge 17, Type (0, 0), BuildingBlock: OJICUG_clean_linker_0, # of connection points: 2
#     Edge 18, Type (0, 0), BuildingBlock: OJICUG_clean_linker_0, # of connection points: 2
#     Edge 19, Type (0, 0), BuildingBlock: OJICUG_clean_linker_0, # of connection points: 2
#     Edge 20, Type (0, 0), BuildingBlock: OJICUG_clean_linker_0, # of connection points: 2
#     Edge 21, Type (0, 0), BuildingBlock: OJICUG_clean_linker_0, # of connection points: 2
#     Edge 22, Type (0, 0), BuildingBlock: OJICUG_clean_linker_0, # of connection points: 2
#     Edge 23, Type (0, 0), BuildingBlock: OJICUG_clean_linker_0, # of connection points: 2
#     Edge 24, Type (0, 0), BuildingBlock: OJICUG_clean_linker_0, # of connection points: 2
#     Edge 25, Type (0, 0), BuildingBlock: OJICUG_clean_linker_0, # of connection points: 2
#     Edge 26, Type (0, 0), BuildingBlock: OJICUG_clean_linker_0, # of connection points: 2
#     Edge 27, Type (0, 0), BuildingBlock: OJICUG_clean_linker_0, # of connection points: 2
#     Edge 28, Type (0, 0), BuildingBlock: OJICUG_clean_linker_0, # of connection points: 2
#     Edge 29, Type (0, 0), BuildingBlock: OJICUG_clean_linker_0, # of connection points: 2
#     Edge 30, Type (0, 0), BuildingBlock: OJICUG_clean_linker_0, # of connection points: 2
#     Edge 31, Type (0, 0), BuildingBlock: OJICUG_clean_linker_0, # of connection points: 2
#     Edge 32, Type (0, 0), BuildingBlock: OJICUG_clean_linker_0, # of connection points: 2
#     Edge 33, Type (0, 0), BuildingBlock: OJICUG_clean_linker_0, # of connection points: 2
#     Edge 34, Type (0, 0), BuildingBlock: OJICUG_clean_linker_0, # of connection points: 2
#     Edge 35, Type (0, 0), BuildingBlock: OJICUG_clean_linker_0, # of connection points: 2
#     Edge 36, Type (0, 0), BuildingBlock: OJICUG_clean_linker_0, # of connection points: 2
#     Edge 37, Type (0, 0), BuildingBlock: OJICUG_clean_linker_0, # of connection points: 2
#     Edge 38, Type (0, 0), BuildingBlock: OJICUG_clean_linker_0, # of connection points: 2
#     Edge 39, Type (0, 0), BuildingBlock: OJICUG_clean_linker_0, # of connection points: 2
#     Edge 40, Type (0, 0), BuildingBlock: OJICUG_clean_linker_0, # of connection points: 2
#     Edge 41, Type (0, 0), BuildingBlock: OJICUG_clean_linker_0, # of connection points: 2
# Relax obj value: 0.263
# Max RMSD: 0.209
# Mean RMSD: 0.209
data_MOF--net-wkc--node1-XOMCOT_clean_sbu_1--edge1-OJICUG_clean_linker_0
_symmetry_space_group_name_H-M    P1
_symmetry_Int_Tables_number       1
_symmetry_cell_setting            triclinic
loop_
_symmetry_equiv_pos_as_xyz
'x, y, z'
_cell_length_a     27.993539
_cell_length_b     28.007165
_cell_length_c     35.817703
_cell_angle_alpha  89.912054
_cell_angle_beta   90.18577
_cell_angle_gamma 119.98384
loop_
_atom_site_label
_atom_site_type_symbol
_atom_site_fract_x
_atom_site_fract_y
_atom_site_fract_z
_atom_type_partial_charge
C0 C 0.34341 0.50675 0.0635 0.0
C1 C 0.34198 0.54859 0.08263 0.0
N2 N 0.31115 0.56435 0.06289 0.0
N3 N 0.31293 0.49564 0.03208 0.0
C4 C 0.29379 0.53136 0.03254 0.0
H5 H 0.36724 0.48748 0.07115 0.0
Co6 Co 0.30711 0.44919 0.99264 0.0
C7 C 0.18579 0.37217 0.99052 0.0
O8 O 0.19551 0.3315 0.98455 0.0
N9 N 0.30323 0.40455 0.95121 0.0
C10 C 0.2804 0.36208 0.89582 0.0
C11 C 0.26535 0.38608 0.92338 0.0
C12 C 0.3431 0.39475 0.93812 0.0
N13 N 0.32951 0.36776 0.90504 0.0
O14 O 0.32349 0.50766 0.95784 0.0
H15 H 0.23015 0.39207 0.92195 0.0
H16 H 0.38265 0.40933 0.95144 0.0
O17 O 0.22638 0.42188 0.99145 0.0
C18 C 0.37395 0.54533 0.9612 0.0
O19 O 0.40459 0.53932 0.98654 0.0
N20 N 0.29674 0.39442 0.028 0.0
C21 C 0.30564 0.34097 0.09116 0.0
C22 C 0.26129 0.35023 0.08725 0.0
C23 C 0.25838 0.3783 0.05595 0.0
C24 C 0.33901 0.38365 0.03102 0.0
C25 C 0.34394 0.35648 0.06215 0.0
H26 H 0.22873 0.39213 0.05655 0.0
H27 H 0.37253 0.40127 0.01149 0.0
H28 H 0.26952 0.53466 0.01016 0.0
H29 H 0.36469 0.56819 0.10787 0.0
H30 H 0.25833 0.34436 0.87003 0.0
H31 H 0.23233 0.34098 0.10986 0.0
H32 H 0.37973 0.35141 0.06483 0.0
C33 C 0.86799 0.32684 0.23082 0.0
C34 C 0.82546 0.3261 0.25055 0.0
N35 N 0.77846 0.29661 0.23096 0.0
N36 N 0.84766 0.29742 0.19913 0.0
C37 C 0.79303 0.27923 0.20024 0.0
H38 H 0.91122 0.34985 0.2382 0.0
Co39 Co 0.88495 0.29081 0.15799 0.0
C40 C 0.83603 0.1689 0.15188 0.0
O41 O 0.88366 0.17659 0.13983 0.0
N42 N 0.92153 0.28483 0.11505 0.0
C43 C 0.92995 0.2647 0.05604 0.0
C44 C 0.89368 0.25606 0.08446 0.0
C45 C 0.97505 0.31224 0.10377 0.0
N46 N 0.98127 0.30028 0.06808 0.0
O47 O 0.84153 0.30897 0.12527 0.0
H48 H 0.84925 0.23135 0.08254 0.0
H49 H 1.00902 0.34132 0.12077 0.0
O50 O 0.83008 0.21085 0.15745 0.0
C51 C 0.85536 0.35963 0.12914 0.0
O52 O 0.89338 0.3895 0.15393 0.0
N53 N 0.93094 0.27979 0.19102 0.0
C54 C 0.99613 0.29121 0.253 0.0
C55 C 0.94556 0.24297 0.24783 0.0
C56 C 0.91282 0.23867 0.21716 0.0
C57 C 0.98121 0.32603 0.19511 0.0
C58 C 1.0148 0.33236 0.22566 0.0
H59 H 0.87084 0.20538 0.21741 0.0
H60 H 0.99255 0.36103 0.17712 0.0
H61 H 0.76488 0.25581 0.17791 0.0
H62 H 0.82944 0.34858 0.27602 0.0
H63 H 0.91911 0.24756 0.02819 0.0
H64 H 0.92885 0.21155 0.26931 0.0
H65 H 0.05292 0.371 0.22948 0.0
C66 C 0.57241 0.85286 0.39803 0.0
C67 C 0.53127 0.81011 0.41806 0.0
N68 N 0.514 0.76313 0.39859 0.0
N69 N 0.58136 0.83274 0.36624 0.0
C70 C 0.54548 0.778 0.36761 0.0
H71 H 0.59228 0.89607 0.40529 0.0
Co72 Co 0.62471 0.87034 0.32482 0.0
C73 C 0.69883 0.8228 0.31859 0.0
O74 O 0.73832 0.87062 0.30643 0.0
N75 N 0.66668 0.9071 0.28156 0.0
C76 C 0.69404 0.91494 0.2223 0.0
C77 C 0.66731 0.87903 0.25109 0.0
C78 C 0.69221 0.96046 0.26984 0.0
N79 N 0.70967 0.96636 0.23395 0.0
O80 O 0.563 0.82631 0.2924 0.0
H81 H 0.64784 0.83462 0.24949 0.0
H82 H 0.69704 0.99449 0.28665 0.0
O83 O 0.6507 0.81624 0.32422 0.0
C84 C 0.5256 0.83937 0.29632 0.0
O85 O 0.53321 0.87709 0.32112 0.0
N86 N 0.68182 0.91683 0.35757 0.0
C87 C 0.73569 0.98251 0.4193 0.0
C88 C 0.73342 0.93192 0.41441 0.0
C89 C 0.70501 0.89898 0.38385 0.0
C90 C 0.68576 0.96707 0.36136 0.0
C91 C 0.71316 1.00094 0.39172 0.0
H92 H 0.69646 0.85705 0.38428 0.0
H93 H 0.662 0.97824 0.34327 0.0
H94 H 0.54077 0.74995 0.34529 0.0
H95 H 0.51297 0.81389 0.44365 0.0
H96 H 0.69961 0.90368 0.19443 0.0
H97 H 0.7482 0.91534 0.43601 0.0
H98 H 0.71273 0.03915 0.39518 0.0
C99 C 0.74423 0.55735 0.56414 0.0
C100 C 0.74155 0.51375 0.58374 0.0
N101 N 0.77097 0.49532 0.56517 0.0
N102 N 0.77573 0.56674 0.53355 0.0
C103 C 0.79182 0.52868 0.53521 0.0
H104 H 0.72174 0.57836 0.57061 0.0
Co105 Co 0.78469 0.61175 0.4924 0.0
C106 C 0.90687 0.68361 0.48794 0.0
O107 O 0.89967 0.72397 0.47601 0.0
N108 N 0.79248 0.65515 0.44939 0.0
C109 C 0.8135 0.68358 0.39038 0.0
C110 C 0.82223 0.65659 0.41933 0.0
C111 C 0.76442 0.68027 0.43722 0.0
N112 N 0.77687 0.69839 0.4015 0.0
O113 O 0.76665 0.5505 0.45957 0.0
H114 H 0.8473 0.63723 0.41802 0.0
H115 H 0.73413 0.68398 0.4535 0.0
O116 O 0.86459 0.63572 0.49305 0.0
C117 C 0.7156 0.51435 0.46253 0.0
O118 O 0.68514 0.52318 0.48626 0.0
N119 N 0.7959 0.66862 0.52557 0.0
C120 C 0.78444 0.72165 0.5878 0.0
C121 C 0.83195 0.71782 0.58322 0.0
C122 C 0.83622 0.68979 0.55243 0.0
C123 C 0.7505 0.67426 0.52904 0.0
C124 C 0.74421 0.7012 0.55969 0.0
H125 H 0.86863 0.67979 0.55313 0.0
H126 H 0.7158 0.65188 0.51055 0.0
H127 H 0.81591 0.52366 0.51362 0.0
H128 H 0.71664 0.49466 0.60823 0.0
H129 H 0.83104 0.68966 0.36271 0.0
H130 H 0.86264 0.73096 0.6052 0.0
H131 H 0.70609 0.7019 0.56295 0.0
C132 C 0.21558 0.72059 0.73094 0.0
C133 C 0.25591 0.71679 0.75055 0.0
N134 N 0.30491 0.75114 0.73474 0.0
N135 N 0.23919 0.75682 0.70269 0.0
C136 C 0.29373 0.77524 0.70607 0.0
H137 H 0.17163 0.69511 0.73512 0.0
Co138 Co 0.20398 0.76605 0.66124 0.0
C139 C 0.25659 0.88843 0.65495 0.0
O140 O 0.20986 0.88212 0.6419 0.0
N141 N 0.16874 0.77376 0.61788 0.0
C142 C 0.16123 0.79314 0.55842 0.0
C143 C 0.19709 0.80182 0.5873 0.0
C144 C 0.11531 0.74674 0.60612 0.0
N145 N 0.1096 0.75821 0.57012 0.0
O146 O 0.24691 0.74709 0.62908 0.0
H147 H 0.24158 0.82574 0.58566 0.0
H148 H 0.0811 0.71794 0.62294 0.0
O149 O 0.26074 0.84561 0.66145 0.0
C150 C 0.23075 0.69575 0.63191 0.0
O151 O 0.19046 0.66563 0.65509 0.0
N152 N 0.15865 0.77825 0.69392 0.0
C153 C 0.09464 0.76811 0.7561 0.0
C154 C 0.14585 0.81558 0.75097 0.0
C155 C 0.1779 0.81924 0.7202 0.0
C156 C 0.10772 0.7329 0.69787 0.0
C157 C 0.07471 0.72726 0.72849 0.0
H158 H 0.22017 0.85186 0.72044 0.0
H159 H 0.09529 0.69785 0.67975 0.0
H160 H 0.32398 0.80148 0.68564 0.0
H161 H 0.24944 0.68836 0.77307 0.0
H162 H 0.17264 0.80953 0.53044 0.0
H163 H 0.1635 0.84684 0.77253 0.0
H164 H 1.03594 0.68924 0.73211 0.0
C165 C 0.51791 0.20533 0.90043 0.0
C166 C 0.56219 0.2469 0.9192 0.0
N167 N 0.58597 0.29144 0.89681 0.0
N168 N 0.51318 0.22383 0.86652 0.0
C169 C 0.55559 0.27627 0.86525 0.0
H170 H 0.4918 0.16393 0.9107 0.0
Co171 Co 0.46315 0.18546 0.82733 0.0
C172 C 0.45427 0.29059 0.82271 0.0
O173 O 0.5021 0.32371 0.80723 0.0
N174 N 0.4137 0.14718 0.78814 0.0
C175 C 0.34639 0.11847 0.74611 0.0
C176 C 0.37356 0.15549 0.77435 0.0
C177 C 0.40986 0.10453 0.76781 0.0
N178 N 0.36912 0.08624 0.7418 0.0
O179 O 0.52081 0.22492 0.79136 0.0
H180 H 0.36361 0.1858 0.78439 0.0
H181 H 0.43642 0.08722 0.77214 0.0
O182 O 0.43952 0.24019 0.82865 0.0
C183 C 0.5549 0.20722 0.79392 0.0
O184 O 0.54492 0.16813 0.81823 0.0
N185 N 0.40889 0.1432 0.86223 0.0
C186 C 0.35495 0.08062 0.92452 0.0
C187 C 0.35904 0.132 0.91894 0.0
C188 C 0.38676 0.16312 0.88761 0.0
C189 C 0.4007 0.09122 0.86556 0.0
C190 C 0.37383 0.05911 0.89663 0.0
H191 H 0.39444 0.20481 0.88599 0.0
H192 H 0.41945 0.07655 0.8457 0.0
H193 H 0.56518 0.30255 0.84115 0.0
H194 H 0.57689 0.24388 0.9466 0.0
H195 H 0.31123 0.11454 0.73077 0.0
H196 H 0.34553 0.15008 0.9402 0.0
H197 H 0.37127 1.01946 0.90011 0.0
C198 C 0.56519 0.72079 0.75953 0.0
C199 C 0.52099 0.7169 0.73996 0.0
N200 N 0.50634 0.75125 0.75577 0.0
N201 N 0.57785 0.75708 0.78776 0.0
C202 C 0.54167 0.77544 0.78441 0.0
H203 H 0.5837 0.69535 0.75535 0.0
Co204 Co 0.62239 0.76642 0.82916 0.0
C205 C 0.69207 0.88882 0.83534 0.0
O206 O 0.73258 0.88258 0.84829 0.0
N207 N 0.66546 0.77422 0.87248 0.0
C208 C 0.69253 0.79371 0.9319 0.0
C209 C 0.66537 0.80244 0.90303 0.0
C210 C 0.6917 0.74704 0.88425 0.0
N211 N 0.70899 0.75858 0.92023 0.0
O212 O 0.56054 0.74739 0.86138 0.0
H213 H 0.64492 0.82647 0.90466 0.0
H214 H 0.69687 0.71806 0.86747 0.0
O215 O 0.64508 0.84596 0.82894 0.0
C216 C 0.52546 0.69602 0.85858 0.0
O217 O 0.53572 0.66593 0.83543 0.0
N218 N 0.67989 0.77869 0.79642 0.0
C219 C 0.73387 0.76871 0.73423 0.0
C220 C 0.72989 0.81605 0.73932 0.0
C221 C 0.70145 0.81963 0.7701 0.0
C222 C 0.68566 0.73345 0.79248 0.0
C223 C 0.7131 0.7279 0.76186 0.0
H224 H 0.69162 0.85213 0.76984 0.0
H225 H 0.66314 0.69839 0.81059 0.0
H226 H 0.53767 0.80169 0.80483 0.0
H227 H 0.49901 0.68842 0.71747 0.0
H228 H 0.69764 0.8102 0.95987 0.0
H229 H 0.74335 0.84727 0.71774 0.0
H230 H 0.71403 0.68997 0.75826 0.0
C231 C 0.8726 0.55677 0.92623 0.0
C232 C 0.83162 0.5132 0.90664 0.0
N233 N 0.78379 0.49487 0.9252 0.0
N234 N 0.85054 0.56625 0.95681 0.0
C235 C 0.79636 0.52827 0.95515 0.0
H236 H 0.91609 0.5777 0.91976 0.0
Co237 Co 0.88666 0.61128 -0.00206 0.0
C238 C 0.83666 0.6834 0.00237 0.0
O239 O 0.8843 0.72367 0.01427 0.0
N240 N 0.92235 0.65471 0.04094 0.0
C241 C 0.92976 0.68319 0.09994 0.0
C242 C 0.89404 0.65615 0.071 0.0
C243 C 0.97554 0.67989 0.0531 0.0
N244 N 0.9812 0.69803 0.08881 0.0
O245 O 0.8434 0.5501 0.03079 0.0
H246 H 0.84961 0.63677 0.07232 0.0
H247 H 1.00955 0.68364 0.03682 0.0
O248 O 0.83087 0.63544 -0.00271 0.0
C249 C 0.85826 0.51392 0.02783 0.0
O250 O 0.89755 0.52272 0.00411 0.0
N251 N 0.93239 0.66808 0.96475 0.0
C252 C 0.99691 0.72095 0.9025 0.0
C253 C 0.94559 0.71717 0.90706 0.0
C254 C 0.91327 0.68923 0.93786 0.0
C255 C 0.9834 0.67364 0.9613 0.0
C256 C 1.01665 0.70051 0.93064 0.0
H257 H 0.87088 0.67927 0.93715 0.0
H258 H 0.9957 0.65127 0.97982 0.0
H259 H 0.76728 0.52333 0.97674 0.0
H260 H 0.8374 0.49405 0.88216 0.0
H261 H 0.9183 0.68928 0.12761 0.0
H262 H 0.92805 0.7303 0.88505 0.0
H263 H 0.05546 0.70119 0.92741 0.0
C264 C 0.34015 0.85299 0.09223 0.0
C265 C 0.33859 0.81025 0.0722 0.0
N266 N 0.30894 0.76328 0.09168 0.0
N267 N 0.31111 0.83286 0.12402 0.0
C268 C 0.29231 0.77814 0.12265 0.0
H269 H 0.36344 0.89619 0.08496 0.0
Co270 Co 0.30534 0.87045 0.16544 0.0
C271 C 0.18365 0.82277 0.17169 0.0
O272 O 0.19192 0.87058 0.18383 0.0
N273 N 0.30012 0.90722 0.20869 0.0
C274 C 0.28065 0.9151 0.26796 0.0
C275 C 0.2714 0.87917 0.23916 0.0
C276 C 0.32802 0.96058 0.22042 0.0
N277 N 0.31648 0.9665 0.25631 0.0
O278 O 0.32308 0.82648 0.19785 0.0
H279 H 0.24642 0.83476 0.24077 0.0
H280 H 0.35727 0.99458 0.20362 0.0
O281 O 0.22526 0.81628 0.16607 0.0
C282 C 0.37353 0.83952 0.19392 0.0
O283 O 0.40364 0.87723 0.16912 0.0
N284 N 0.29461 0.91687 0.13268 0.0
C285 C 0.30625 0.98246 0.07094 0.0
C286 C 0.25799 0.93183 0.07585 0.0
C287 C 0.25354 0.89895 0.10641 0.0
C288 C 0.34086 0.96715 0.12887 0.0
C289 C 0.34724 1.00097 0.09851 0.0
H290 H 0.2202 0.85699 0.10599 0.0
H291 H 0.37583 0.97839 0.14694 0.0
H292 H 0.26901 0.75008 0.14498 0.0
H293 H 0.36068 0.81405 0.0466 0.0
H294 H 0.26382 0.90386 0.29583 0.0
H295 H 0.22661 0.91519 0.05426 0.0
H296 H 0.38584 0.03921 0.09503 0.0
C297 C 0.5191 0.32704 0.25951 0.0
C298 C 0.56088 0.32627 0.23979 0.0
N299 N 0.57835 0.29674 0.25938 0.0
N300 N 0.50998 0.29761 0.2912 0.0
C301 C 0.54638 0.27938 0.29009 0.0
H302 H 0.49891 0.35008 0.25213 0.0
Co303 Co 0.46604 0.29099 0.33232 0.0
C304 C 0.39298 0.1691 0.33839 0.0
O305 O 0.35308 0.17686 0.35042 0.0
N306 N 0.42347 0.28499 0.37525 0.0
C307 C 0.39491 0.26482 0.43425 0.0
C308 C 0.42258 0.25624 0.40583 0.0
C309 C 0.39729 0.31233 0.38652 0.0
N310 N 0.3791 0.30034 0.42222 0.0
O311 O 0.52761 0.30913 0.36506 0.0
H312 H 0.44235 0.23157 0.40774 0.0
H313 H 0.39234 0.34138 0.36953 0.0
O314 O 0.44091 0.21102 0.33284 0.0
C315 C 0.56441 0.35981 0.36122 0.0
O316 O 0.55626 0.38966 0.33642 0.0
N317 N 0.40907 0.28001 0.29927 0.0
C318 C 0.35537 0.29151 0.23728 0.0
C319 C 0.35769 0.24326 0.24243 0.0
C320 C 0.38609 0.23892 0.2731 0.0
C321 C 0.40506 0.32626 0.2952 0.0
C322 C 0.37783 0.33263 0.26464 0.0
H323 H 0.39478 0.20563 0.27285 0.0
H324 H 0.42869 0.36124 0.31322 0.0
H325 H 0.55108 0.25593 0.31241 0.0
H326 H 0.5794 0.34874 0.21433 0.0
H327 H 0.38862 0.24766 0.4621 0.0
H328 H 0.34298 0.21185 0.22093 0.0
H329 H 0.37837 0.37128 0.26084 0.0
C330 C 0.22317 0.50643 0.42681 0.0
C331 C 0.26642 0.54827 0.40768 0.0
N332 N 0.31301 0.56407 0.42743 0.0
N333 N 0.24255 0.49536 0.45824 0.0
C334 C 0.29741 0.53111 0.45777 0.0
H335 H 0.18006 0.48713 0.41917 0.0
Co336 Co 0.2019 0.44892 0.49768 0.0
C337 C 0.24624 0.37192 0.4998 0.0
O338 O 0.19585 0.33122 0.50573 0.0
N339 N 0.1611 0.40429 0.53909 0.0
C340 C 0.1413 0.36173 0.59445 0.0
C341 C 0.18038 0.38566 0.56691 0.0
C342 C 0.1115 0.39466 0.55219 0.0
N343 N 0.09799 0.36761 0.58524 0.0
O344 O 0.24399 0.50738 0.53248 0.0
H345 H 0.22152 0.39151 0.56835 0.0
H346 H 0.08665 0.40939 0.53887 0.0
O347 O 0.25533 0.42162 0.49889 0.0
C348 C 0.2313 0.54511 0.52912 0.0
O349 O 0.19468 0.53918 0.50377 0.0
N350 N 0.15752 0.39412 0.46231 0.0
C351 C 0.0952 0.3406 0.39916 0.0
C352 C 0.14884 0.34994 0.40307 0.0
C353 C 0.1798 0.37805 0.43436 0.0
C354 C 0.10445 0.38325 0.45931 0.0
C355 C 0.07236 0.35605 0.42817 0.0
H356 H 0.22329 0.39193 0.43377 0.0
H357 H 0.0885 0.40081 0.47884 0.0
H358 H 0.32498 0.53444 0.48016 0.0
H359 H 0.26329 0.56784 0.38244 0.0
H360 H 0.14554 0.3439 0.62022 0.0
H361 H 0.16858 0.34073 0.38045 0.0
H362 H 1.03148 0.35091 0.42549 0.0
C363 C 0.74692 0.2056 0.58989 0.0
C364 C 0.7442 0.24718 0.57114 0.0
N365 N 0.765 0.29171 0.59354 0.0
N366 N 0.77021 0.22409 0.62379 0.0
C367 C 0.78025 0.27654 0.62508 0.0
H368 H 0.73161 0.16419 0.57961 0.0
Co369 Co 0.78194 0.18571 0.66293 0.0
C370 C 0.89602 0.29084 0.66747 0.0
O371 O 0.8814 0.32405 0.68292 0.0
N372 N 0.79317 0.14741 0.70208 0.0
C373 C 0.83188 0.11875 0.74406 0.0
C374 C 0.84165 0.15574 0.71582 0.0
C375 C 0.75441 0.10476 0.72244 0.0
N376 N 0.77694 0.0865 0.74841 0.0
O377 O 0.76378 0.22514 0.69895 0.0
H378 H 0.88189 0.18606 0.70576 0.0
H379 H 0.71053 0.08743 0.71815 0.0
O380 O 0.8603 0.24044 0.66157 0.0
C381 C 0.71198 0.20739 0.69642 0.0
O382 O 0.68287 0.16829 0.67211 0.0
N383 N 0.79388 0.14347 0.62798 0.0
C384 C 0.78518 0.08088 0.56567 0.0
C385 C 0.83246 0.13228 0.57123 0.0
C386 C 0.83589 0.1634 0.60257 0.0
C387 C 0.75009 0.09148 0.62466 0.0
C388 C 0.74483 0.05937 0.59358 0.0
H389 H 0.86988 0.2051 0.60418 0.0
H390 H 0.7167 0.07679 0.64454 0.0
H391 H 0.79699 0.30282 0.64918 0.0
H392 H 0.72645 0.24416 0.54376 0.0
H393 H 0.86316 0.11485 0.75936 0.0
H394 H 0.86402 0.15036 0.54996 0.0
H395 H 0.70774 1.01971 0.59011 0.0
C396 C 0.44837 0.36558 0.85745 0.0
C397 C 0.42184 0.31311 0.84063 0.0
H398 H 0.43979 0.42367 0.89201 0.0
C399 C 0.36445 0.27978 0.84478 0.0
H400 H 0.49265 0.39189 0.85526 0.0
C401 C 0.33432 0.29828 0.8653 0.0
C402 C 0.36097 0.34992 0.88309 0.0
H403 H 0.34287 0.23897 0.83255 0.0
H404 H 0.29023 0.27151 0.86822 0.0
C405 C 0.41832 0.38351 0.87887 0.0
C406 C 0.08529 0.3059 -0.00061 0.0
C407 C 0.13119 0.3582 0.00625 0.0
H408 H 1.00226 0.24652 0.01374 0.0
C409 C 0.12605 0.39264 0.03259 0.0
H410 H 0.08791 0.27817 0.97952 0.0
C411 C 0.0769 0.37398 0.05281 0.0
C412 C 1.03157 0.32089 0.04666 0.0
H413 H 0.16083 0.43292 0.03891 0.0
H414 H 0.07451 0.40091 0.07344 0.0
C415 C 1.03613 0.28766 0.01911 0.0
C416 C 0.76033 0.11066 0.19765 0.0
C417 C 0.79721 0.11483 0.16943 0.0
H418 H 0.70407 0.06054 0.24063 0.0
C419 C 0.80251 0.06845 0.16188 0.0
H420 H 0.75559 0.14571 0.20455 0.0
C421 C 0.77329 1.01994 0.18264 0.0
C422 C 0.73809 1.01629 0.21184 0.0
H423 H 0.8307 0.07015 0.14057 0.0
H424 H 0.77984 0.9858 0.17658 0.0
C425 C 0.73141 0.06209 0.21877 0.0
C426 C 0.70192 0.71841 0.38543 0.0
C427 C 0.75495 0.72619 0.37903 0.0
H428 H 0.64165 0.74132 0.37066 0.0
C429 C 0.78668 0.76199 0.35009 0.0
H430 H 0.67597 0.69055 0.40704 0.0
C431 C 0.76697 0.7908 0.32912 0.0
C432 C 0.71474 0.78445 0.33622 0.0
H433 H 0.82775 0.76933 0.34443 0.0
H434 H 0.79357 0.8195 0.30806 0.0
C435 C 0.6819 0.74692 0.36413 0.0
C436 C 0.05629 0.76847 0.51846 0.0
C437 C 0.05962 0.73698 0.54794 0.0
H438 H 1.00624 0.77599 0.47617 0.0
C439 C 1.01339 0.68487 0.55514 0.0
H440 H 0.09077 0.80884 0.51217 0.0
C441 C 0.96471 0.66557 0.53403 0.0
C442 C 0.96088 0.69827 0.50554 0.0
H443 H 1.01468 0.65911 0.57721 0.0
H444 H 0.92936 0.6261 0.54113 0.0
C445 C 1.00767 0.74952 0.49771 0.0
C446 C 0.29376 0.98976 0.66237 0.0
C447 C 0.29607 0.94243 0.67235 0.0
H448 H 0.31624 0.07269 0.67579 0.0
C449 C 0.32935 0.94578 0.703 0.0
H450 H 0.26907 0.98896 0.63876 0.0
C451 C 0.35584 0.99393 0.72488 0.0
C452 C 0.34989 0.03983 0.71641 0.0
H453 H 0.33189 0.91003 0.71165 0.0
H454 H 0.37822 0.99396 0.74957 0.0
C455 C 0.32043 0.03774 0.68393 0.0
C456 C 0.80213 0.7496 0.99259 0.0
C457 C 0.79741 0.69822 0.98479 0.0
H458 H 0.77866 0.80914 0.97811 0.0
C459 C 0.76075 0.66555 0.95635 0.0
H460 H 0.83013 0.77605 0.01409 0.0
C461 C 0.73148 0.68498 0.93525 0.0
C462 C 0.73762 0.73721 0.94241 0.0
H463 H 0.75645 0.62599 0.94928 0.0
H464 H 0.70432 0.65924 0.91321 0.0
C465 C 0.77257 0.76868 0.97185 0.0
C466 C 0.08347 0.79062 0.16115 0.0
C467 C 0.1294 0.78435 0.15406 0.0
H468 H 1.0012 0.76903 0.14585 0.0
C469 C 0.12476 0.74681 0.12618 0.0
H470 H 0.08554 0.81933 0.18221 0.0
C471 C 0.07623 0.71822 0.10488 0.0
C472 C 1.03093 0.72593 0.11127 0.0
H473 H 0.15944 0.74125 0.11965 0.0
H474 H 0.07436 0.69035 0.08329 0.0
C475 C 1.03497 0.76174 0.14019 0.0
C476 C 0.32597 0.06868 0.32841 0.0
C477 C 0.37767 0.11501 0.32084 0.0
H478 H 0.26589 0.98606 0.31371 0.0
C479 C 0.41032 0.11078 0.29261 0.0
H480 H 0.29952 0.07043 0.34972 0.0
C481 C 0.3906 0.06219 0.27149 0.0
C482 C 0.33809 1.01644 0.27843 0.0
H483 H 0.45013 0.14579 0.2857 0.0
H484 H 0.41635 0.0606 0.24962 0.0
C485 C 0.30659 1.02015 0.30764 0.0
C486 C 0.3265 0.39253 0.45776 0.0
C487 C 0.28691 0.35801 0.48407 0.0
H488 H 0.38638 0.40092 0.41693 0.0
C489 C 0.28055 0.30572 0.49088 0.0
H490 H 0.33197 0.4328 0.45147 0.0
C491 C 0.31154 0.28757 0.47115 0.0
C492 C 0.34934 0.32086 0.44364 0.0
H493 H 0.2502 0.27795 0.51073 0.0
H494 H 0.3043 0.24643 0.47649 0.0
C495 C 0.35705 0.37394 0.43753 0.0
C496 C 0.97704 0.36573 0.63278 0.0
C497 C 0.95097 0.31324 0.64956 0.0
H498 H 1.04383 0.42375 0.59827 0.0
C499 C 0.9749 0.27979 0.6454 0.0
H500 H 0.95918 0.39213 0.63497 0.0
C501 C 1.02353 0.2982 0.62491 0.0
C502 C 0.04867 0.34987 0.60716 0.0
H503 H 0.95556 0.23897 0.6576 0.0
H504 H 1.04075 0.27134 0.62198 0.0
C505 C 1.02503 0.38357 0.61139 0.0
C506 C 0.67645 0.94605 0.78731 0.0
C507 C 0.70647 0.94279 0.81793 0.0
H508 H 0.67559 0.99414 0.74074 0.0
C509 C 0.7561 0.99017 0.82787 0.0
H510 H 0.63816 0.91025 0.7787 0.0
C511 C 0.7773 0.03811 0.80629 0.0
C512 C 0.74985 0.04012 0.77383 0.0
H513 H 0.78005 0.98943 0.85145 0.0
H514 H 0.81643 0.0731 0.81439 0.0
C515 C 0.69801 0.99417 0.76542 0.0
C516 C 0.30389 0.69319 0.04746 0.0
C517 C 0.30459 0.71067 0.0843 0.0
H518 H 0.3051 0.63258 0.01171 0.0
C519 C 0.30423 0.67744 0.11391 0.0
H520 H 0.30392 0.71784 0.02414 0.0
C521 C 0.30493 0.62876 0.10683 0.0
C522 C 0.30551 0.6119 0.07002 0.0
H523 H 0.30551 0.69006 0.14261 0.0
H524 H 0.30578 0.60459 0.13017 0.0
C525 C 0.30403 0.64414 0.04038 0.0
C526 C 0.69263 0.2919 0.20844 0.0
C527 C 0.72597 0.29256 0.23815 0.0
H528 H 0.61926 0.29257 0.19204 0.0
C529 C 0.70861 0.29214 0.27493 0.0
H530 H 0.70524 0.29303 0.17978 0.0
C531 C 0.6594 0.29191 0.28189 0.0
C532 C 0.62676 0.29264 0.25219 0.0
H533 H 0.73339 0.29247 0.2983 0.0
H534 H 0.64793 0.29305 0.31056 0.0
C535 C 0.64368 0.29219 0.21541 0.0
C536 C 0.44903 0.69302 0.44282 0.0
C537 C 0.46579 0.71049 0.40598 0.0
H538 H 0.38726 0.6324 0.47859 0.0
C539 C 0.43296 0.6772 0.37638 0.0
H540 H 0.47362 0.71772 0.46614 0.0
C541 C 0.38361 0.62848 0.38347 0.0
C542 C 0.36619 0.61165 0.42028 0.0
H543 H 0.44427 0.68979 0.34768 0.0
H544 H 0.35861 0.60427 0.36013 0.0
C545 C 0.39988 0.64394 0.44992 0.0
C546 C 0.77552 0.41406 0.54288 0.0
C547 C 0.77194 0.44516 0.57244 0.0
H548 H 0.77615 0.34086 0.52647 0.0
C549 C 0.76666 0.42515 0.60905 0.0
H550 H 0.77867 0.42777 0.51428 0.0
C551 C 0.76472 0.37509 0.61597 0.0
C552 C 0.76777 0.34372 0.58639 0.0
H553 H 0.76394 0.4482 0.63237 0.0
H554 H 0.75969 0.36049 0.64446 0.0
C555 C 0.7733 0.36384 0.54979 0.0
C556 C 0.40598 0.80157 0.7427 0.0
C557 C 0.35583 0.75158 0.7408 0.0
H558 H 0.49395 0.84044 0.74977 0.0
C559 C 0.35608 0.70169 0.74328 0.0
H560 H 0.40647 0.8404 0.74066 0.0
C561 C 0.40569 0.70171 0.74733 0.0
C562 C 0.45582 0.75163 0.74974 0.0
H563 H 0.3179 0.6627 0.74138 0.0
H564 H 0.40492 0.66275 0.74928 0.0
C565 C 0.45562 0.8016 0.74778 0.0
C566 C 0.69787 0.41374 0.94748 0.0
C567 C 0.73261 0.44478 0.91793 0.0
H568 H 0.62396 0.34061 0.96388 0.0
C569 C 0.71786 0.42475 0.88132 0.0
H570 H 0.70843 0.42746 0.97609 0.0
C571 C 0.66971 0.37473 0.8744 0.0
C572 C 0.63524 0.34341 0.90397 0.0
H573 H 0.74367 0.44776 0.85801 0.0
H574 H 0.66014 0.36012 0.84591 0.0
C575 C 0.64983 0.36356 0.94057 0.0
C576 C 0.3798 0.35043 0.18094 0.0
C577 C 0.34062 0.30368 0.20035 0.0
H578 H 0.3994 0.39802 0.13089 0.0
C579 C 0.28992 0.26769 0.18324 0.0
H580 H 0.41958 0.37822 0.19335 0.0
C581 C 0.27822 0.2792 0.14738 0.0
C582 C 0.31781 0.32587 0.12797 0.0
H583 H 0.2594 0.23113 0.1977 0.0
H584 H 0.23859 0.25168 0.13473 0.0
C585 C 0.36863 0.36126 0.14506 0.0
C586 C 0.06089 0.27885 0.34292 0.0
C587 C 0.06795 0.3255 0.36234 0.0
H588 H 1.0317 0.23082 0.29257 0.0
C589 C 0.05254 0.36091 0.34526 0.0
H590 H 0.073 0.25133 0.35556 0.0
C591 C 1.03057 0.3501 0.30936 0.0
C592 C 1.02303 0.30336 0.28994 0.0
H593 H 0.05851 0.39766 0.35944 0.0
H594 H 1.01859 0.37789 0.29696 0.0
C595 C 1.03773 0.26736 0.30705 0.0
C596 C 0.80024 1.02189 0.47407 0.0
C597 C 0.75078 1.00989 0.45609 0.0
H598 H 0.85043 0.05457 0.52332 0.0
C599 C 0.71287 1.02033 0.47464 0.0
H600 H 0.8298 1.01368 0.46033 0.0
C601 C 0.72396 0.04225 0.5105 0.0
C602 C 0.77341 0.05464 0.52852 0.0
H603 H 0.67396 1.01045 0.46166 0.0
H604 H 0.6941 0.0503 0.52399 0.0
C605 C 0.81186 0.0449 0.50995 0.0
C606 C 0.80941 0.78473 0.64322 0.0
C607 C 0.77187 0.73594 0.62471 0.0
H608 H 0.82655 0.83381 0.69287 0.0
C609 C 0.72315 0.69786 0.64283 0.0
H610 H 0.84748 0.81436 0.6298 0.0
C611 C 0.71197 0.70822 0.67877 0.0
C612 C 0.74903 0.75711 0.69729 0.0
H613 H 0.69408 0.65946 0.62941 0.0
H614 H 0.67369 0.67834 0.69187 0.0
C615 C 0.79766 0.79563 0.67916 0.0
C616 C 0.05745 0.79484 0.81109 0.0
C617 C 0.06789 0.75648 0.79304 0.0
H618 H 1.0261 0.81343 0.86036 0.0
C619 C 0.05638 0.70775 0.81163 0.0
H620 H 0.0665 0.8329 0.79731 0.0
C621 C 1.03481 0.69737 0.84757 0.0
C622 C 1.02383 0.73528 0.8656 0.0
H623 H 0.06503 0.678 0.7986 0.0
H624 H 1.02572 0.65907 0.86104 0.0
C625 C 1.03479 0.78392 0.84702 0.0
C626 C 0.36684 1.02025 0.01558 0.0
C627 C 0.31848 1.00978 0.03414 0.0
H628 H 0.41554 0.05018 0.96621 0.0
C629 C 0.28097 1.0217 0.01614 0.0
H630 H 0.3959 1.01043 0.02856 0.0
C631 C 0.29231 0.04465 0.98025 0.0
C632 C 0.34051 0.05442 0.96167 0.0
H633 H 0.24319 1.01346 0.02989 0.0
H634 H 0.26337 0.05425 0.96687 0.0
C635 C 0.37762 0.04211 0.9797 0.0
C636 C 0.39195 0.58231 0.89635 0.0
C637 C 0.40142 0.59153 0.93477 0.0
H638 H 0.42493 0.60955 0.84155 0.0
C639 C 0.44598 0.64177 0.94732 0.0
H640 H 0.3582 0.54377 0.88602 0.0
C641 C 0.4837 0.67983 0.92194 0.0
C642 C 0.47784 0.66743 0.88375 0.0
H643 H 0.45397 0.64971 0.97694 0.0
H644 H 0.52013 0.716 0.93245 0.0
C645 C 0.43029 0.61982 0.871 0.0
C646 C 0.83579 0.41753 0.03991 0.0
C647 C 0.83841 0.46615 0.05304 0.0
H648 H 0.83719 0.3438 0.05422 0.0
C649 C 0.83388 0.47249 0.09142 0.0
H650 H 0.83912 0.41178 0.01031 0.0
C651 C 0.83365 0.43401 0.11648 0.0
C652 C 0.83678 0.38824 0.10344 0.0
H653 H 0.83621 0.50972 0.10221 0.0
H654 H 0.83537 0.44227 0.14615 0.0
C655 C 0.83439 0.37847 0.06495 0.0
C656 C 0.48558 0.81694 0.23219 0.0
C657 C 0.47836 0.82033 0.27058 0.0
H658 H 0.45668 0.82006 0.17729 0.0
C659 C 0.42945 0.81742 0.28334 0.0
H660 H 0.52303 0.81948 0.22166 0.0
C661 C 0.39104 0.81691 0.25803 0.0
C662 C 0.40172 0.82043 0.21964 0.0
H663 H 0.42297 0.81984 0.31293 0.0
H664 H 0.35612 0.81943 0.26856 0.0
C665 C 0.44773 0.81754 0.20687 0.0
C666 C 0.66047 0.43419 0.37393 0.0
C667 C 0.61154 0.38846 0.38696 0.0
H668 H 0.7336 0.50992 0.3882 0.0
C669 C 0.60404 0.37882 0.42545 0.0
H670 H 0.6671 0.44236 0.34426 0.0
C671 C 0.64163 0.41795 0.4505 0.0
C672 C 0.68768 0.46652 0.43736 0.0
H673 H 0.56653 0.34419 0.43617 0.0
H674 H 0.63247 0.41229 0.48008 0.0
C675 C 0.69866 0.47274 0.399 0.0
C676 C 0.25048 0.58208 0.59398 0.0
C677 C 0.25009 0.5913 0.55557 0.0
H678 H 0.24492 0.60931 0.64882 0.0
C679 C 0.25574 0.64155 0.54306 0.0
H680 H 0.24572 0.54354 0.60427 0.0
C681 C 0.25617 0.6796 0.5685 0.0
C682 C 0.24975 0.6672 0.60668 0.0
H683 H 0.25559 0.64949 0.51345 0.0
H684 H 0.25587 0.71577 0.55803 0.0
C685 C 0.24974 0.61959 0.61938 0.0
C686 C 0.69102 0.22913 0.75969 0.0
C687 C 0.68232 0.22591 0.72105 0.0
H688 H 0.65633 0.226 0.81351 0.0
C689 C 0.63682 0.22864 0.7067 0.0
H690 H 0.72544 0.22663 0.7714 0.0
C691 C 0.59772 0.22918 0.73069 0.0
C692 C 0.60312 0.22581 0.76932 0.0
H693 H 0.62938 0.22626 0.67686 0.0
H694 H 0.56082 0.22672 0.71897 0.0
C695 C 0.65132 0.22849 0.78368 0.0
loop_
_geom_bond_atom_site_label_1
_geom_bond_atom_site_label_2
_geom_bond_distance
_geom_bond_site_symmetry_2
_ccdc_geom_bond_type
C0 C1 1.351 . S
C0 N3 1.368 . S
C0 H5 0.931 . S
C1 C0 1.351 . S
C1 N2 1.373 . S
C1 H29 0.930 . S
N2 C1 1.373 . S
N2 C4 1.340 . S
N3 C0 1.368 . S
N3 C4 1.321 . S
N3 Co6 2.135 1_554 S
C4 N2 1.340 . S
C4 N3 1.321 . S
C4 H28 0.930 . S
H5 C0 0.931 . S
Co6 N3 2.135 1_556 S
Co6 N9 2.121 . S
Co6 O14 2.055 . S
Co6 O17 2.039 . S
Co6 N20 2.140 1_556 S
C7 O8 1.227 . S
C7 O17 1.265 1_554 S
O8 C7 1.227 . S
N9 Co6 2.121 . S
N9 C11 1.375 . S
N9 C12 1.313 . S
C10 C11 1.338 . S
C10 N13 1.377 . S
C10 H30 0.930 . S
C11 N9 1.375 . S
C11 C10 1.338 . S
C11 H15 0.931 . S
C12 N9 1.313 . S
C12 N13 1.344 . S
C12 H16 0.930 . S
N13 C10 1.377 . S
N13 C12 1.344 . S
O14 Co6 2.055 . S
O14 C18 1.253 . S
H15 C11 0.931 . S
H16 C12 0.930 . S
O17 Co6 2.039 . S
O17 C7 1.265 1_556 S
C18 O14 1.253 . S
C18 O19 1.227 . S
O19 C18 1.227 . S
N20 Co6 2.140 1_554 S
N20 C23 1.346 . S
N20 C24 1.345 . S
C21 C22 1.387 . S
C21 C25 1.391 . S
C22 C21 1.387 . S
C22 C23 1.369 . S
C22 H31 0.929 . S
C23 N20 1.346 . S
C23 C22 1.369 . S
C23 H26 0.928 . S
C24 N20 1.345 . S
C24 C25 1.371 . S
C24 H27 0.931 . S
C25 C21 1.391 . S
C25 C24 1.371 . S
C25 H32 0.930 . S
H26 C23 0.928 . S
H27 C24 0.931 . S
H28 C4 0.930 . S
H29 C1 0.930 . S
H30 C10 0.930 . S
H31 C22 0.929 . S
H32 C25 0.930 . S
C33 C34 1.351 . S
C33 N36 1.368 . S
C33 H38 0.931 . S
C34 C33 1.351 . S
C34 N35 1.373 . S
C34 H62 0.930 . S
N35 C34 1.373 . S
N35 C37 1.340 . S
N36 C33 1.368 . S
N36 C37 1.321 . S
N36 Co39 2.135 . S
C37 N35 1.340 . S
C37 N36 1.321 . S
C37 H61 0.930 . S
H38 C33 0.931 . S
Co39 N36 2.135 . S
Co39 N42 2.121 . S
Co39 O47 2.055 . S
Co39 O50 2.039 . S
Co39 N53 2.140 . S
C40 O41 1.227 . S
C40 O50 1.265 . S
O41 C40 1.227 . S
N42 Co39 2.121 . S
N42 C44 1.375 . S
N42 C45 1.313 . S
C43 C44 1.338 . S
C43 N46 1.377 . S
C43 H63 0.930 . S
C44 N42 1.375 . S
C44 C43 1.338 . S
C44 H48 0.931 . S
C45 N42 1.313 . S
C45 N46 1.344 . S
C45 H49 0.930 . S
N46 C43 1.377 . S
N46 C45 1.344 . S
O47 Co39 2.055 . S
O47 C51 1.253 . S
H48 C44 0.931 . S
H49 C45 0.930 . S
O50 Co39 2.039 . S
O50 C40 1.265 . S
C51 O47 1.253 . S
C51 O52 1.227 . S
O52 C51 1.227 . S
N53 Co39 2.140 . S
N53 C56 1.346 . S
N53 C57 1.345 . S
C54 C55 1.387 . S
C54 C58 1.391 . S
C55 C54 1.387 . S
C55 C56 1.369 . S
C55 H64 0.929 . S
C56 N53 1.346 . S
C56 C55 1.369 . S
C56 H59 0.928 . S
C57 N53 1.345 . S
C57 C58 1.371 . S
C57 H60 0.931 . S
C58 C54 1.391 . S
C58 C57 1.371 . S
C58 H65 0.930 1_655 S
H59 C56 0.928 . S
H60 C57 0.931 . S
H61 C37 0.930 . S
H62 C34 0.930 . S
H63 C43 0.930 . S
H64 C55 0.929 . S
H65 C58 0.930 1_455 S
C66 C67 1.351 . S
C66 N69 1.368 . S
C66 H71 0.931 . S
C67 C66 1.351 . S
C67 N68 1.373 . S
C67 H95 0.930 . S
N68 C67 1.373 . S
N68 C70 1.340 . S
N69 C66 1.368 . S
N69 C70 1.321 . S
N69 Co72 2.135 . S
C70 N68 1.340 . S
C70 N69 1.321 . S
C70 H94 0.930 . S
H71 C66 0.931 . S
Co72 N69 2.135 . S
Co72 N75 2.121 . S
Co72 O80 2.055 . S
Co72 O83 2.039 . S
Co72 N86 2.140 . S
C73 O74 1.227 . S
C73 O83 1.265 . S
O74 C73 1.227 . S
N75 Co72 2.121 . S
N75 C77 1.375 . S
N75 C78 1.313 . S
C76 C77 1.338 . S
C76 N79 1.377 . S
C76 H96 0.930 . S
C77 N75 1.375 . S
C77 C76 1.338 . S
C77 H81 0.931 . S
C78 N75 1.313 . S
C78 N79 1.344 . S
C78 H82 0.930 . S
N79 C76 1.377 . S
N79 C78 1.344 . S
O80 Co72 2.055 . S
O80 C84 1.253 . S
H81 C77 0.931 . S
H82 C78 0.930 . S
O83 Co72 2.039 . S
O83 C73 1.265 . S
C84 O80 1.253 . S
C84 O85 1.227 . S
O85 C84 1.227 . S
N86 Co72 2.140 . S
N86 C89 1.346 . S
N86 C90 1.345 . S
C87 C88 1.387 . S
C87 C91 1.391 . S
C88 C87 1.387 . S
C88 C89 1.369 . S
C88 H97 0.929 . S
C89 N86 1.346 . S
C89 C88 1.369 . S
C89 H92 0.928 . S
C90 N86 1.345 . S
C90 C91 1.371 . S
C90 H93 0.931 . S
C91 C87 1.391 . S
C91 C90 1.371 . S
C91 H98 0.930 1_565 S
H92 C89 0.928 . S
H93 C90 0.931 . S
H94 C70 0.930 . S
H95 C67 0.930 . S
H96 C76 0.930 . S
H97 C88 0.929 . S
H98 C91 0.930 1_545 S
C99 C100 1.351 . S
C99 N102 1.368 . S
C99 H104 0.931 . S
C100 C99 1.351 . S
C100 N101 1.373 . S
C100 H128 0.930 . S
N101 C100 1.373 . S
N101 C103 1.340 . S
N102 C99 1.368 . S
N102 C103 1.321 . S
N102 Co105 2.135 . S
C103 N101 1.340 . S
C103 N102 1.321 . S
C103 H127 0.930 . S
H104 C99 0.931 . S
Co105 N102 2.135 . S
Co105 N108 2.121 . S
Co105 O113 2.055 . S
Co105 O116 2.039 . S
Co105 N119 2.140 . S
C106 O107 1.227 . S
C106 O116 1.265 . S
O107 C106 1.227 . S
N108 Co105 2.121 . S
N108 C110 1.375 . S
N108 C111 1.313 . S
C109 C110 1.338 . S
C109 N112 1.377 . S
C109 H129 0.930 . S
C110 N108 1.375 . S
C110 C109 1.338 . S
C110 H114 0.931 . S
C111 N108 1.313 . S
C111 N112 1.344 . S
C111 H115 0.930 . S
N112 C109 1.377 . S
N112 C111 1.344 . S
O113 Co105 2.055 . S
O113 C117 1.253 . S
H114 C110 0.931 . S
H115 C111 0.930 . S
O116 Co105 2.039 . S
O116 C106 1.265 . S
C117 O113 1.253 . S
C117 O118 1.227 . S
O118 C117 1.227 . S
N119 Co105 2.140 . S
N119 C122 1.346 . S
N119 C123 1.345 . S
C120 C121 1.387 . S
C120 C124 1.391 . S
C121 C120 1.387 . S
C121 C122 1.369 . S
C121 H130 0.929 . S
C122 N119 1.346 . S
C122 C121 1.369 . S
C122 H125 0.928 . S
C123 N119 1.345 . S
C123 C124 1.371 . S
C123 H126 0.931 . S
C124 C120 1.391 . S
C124 C123 1.371 . S
C124 H131 0.930 . S
H125 C122 0.928 . S
H126 C123 0.931 . S
H127 C103 0.930 . S
H128 C100 0.930 . S
H129 C109 0.930 . S
H130 C121 0.929 . S
H131 C124 0.930 . S
C132 C133 1.351 . S
C132 N135 1.368 . S
C132 H137 0.931 . S
C133 C132 1.351 . S
C133 N134 1.373 . S
C133 H161 0.930 . S
N134 C133 1.373 . S
N134 C136 1.340 . S
N135 C132 1.368 . S
N135 C136 1.321 . S
N135 Co138 2.135 . S
C136 N134 1.340 . S
C136 N135 1.321 . S
C136 H160 0.930 . S
H137 C132 0.931 . S
Co138 N135 2.135 . S
Co138 N141 2.121 . S
Co138 O146 2.055 . S
Co138 O149 2.039 . S
Co138 N152 2.140 . S
C139 O140 1.227 . S
C139 O149 1.265 . S
O140 C139 1.227 . S
N141 Co138 2.121 . S
N141 C143 1.375 . S
N141 C144 1.313 . S
C142 C143 1.338 . S
C142 N145 1.377 . S
C142 H162 0.930 . S
C143 N141 1.375 . S
C143 C142 1.338 . S
C143 H147 0.931 . S
C144 N141 1.313 . S
C144 N145 1.344 . S
C144 H148 0.930 . S
N145 C142 1.377 . S
N145 C144 1.344 . S
O146 Co138 2.055 . S
O146 C150 1.253 . S
H147 C143 0.931 . S
H148 C144 0.930 . S
O149 Co138 2.039 . S
O149 C139 1.265 . S
C150 O146 1.253 . S
C150 O151 1.227 . S
O151 C150 1.227 . S
N152 Co138 2.140 . S
N152 C155 1.346 . S
N152 C156 1.345 . S
C153 C154 1.387 . S
C153 C157 1.391 . S
C154 C153 1.387 . S
C154 C155 1.369 . S
C154 H163 0.929 . S
C155 N152 1.346 . S
C155 C154 1.369 . S
C155 H158 0.928 . S
C156 N152 1.345 . S
C156 C157 1.371 . S
C156 H159 0.931 . S
C157 C153 1.391 . S
C157 C156 1.371 . S
C157 H164 0.930 1_455 S
H158 C155 0.928 . S
H159 C156 0.931 . S
H160 C136 0.930 . S
H161 C133 0.930 . S
H162 C142 0.930 . S
H163 C154 0.929 . S
H164 C157 0.930 1_655 S
C165 C166 1.351 . S
C165 N168 1.368 . S
C165 H170 0.931 . S
C166 C165 1.351 . S
C166 N167 1.373 . S
C166 H194 0.930 . S
N167 C166 1.373 . S
N167 C169 1.340 . S
N168 C165 1.368 . S
N168 C169 1.321 . S
N168 Co171 2.135 . S
C169 N167 1.340 . S
C169 N168 1.321 . S
C169 H193 0.930 . S
H170 C165 0.931 . S
Co171 N168 2.135 . S
Co171 N174 2.121 . S
Co171 O179 2.055 . S
Co171 O182 2.039 . S
Co171 N185 2.140 . S
C172 O173 1.227 . S
C172 O182 1.265 . S
O173 C172 1.227 . S
N174 Co171 2.121 . S
N174 C176 1.375 . S
N174 C177 1.313 . S
C175 C176 1.338 . S
C175 N178 1.377 . S
C175 H195 0.930 . S
C176 N174 1.375 . S
C176 C175 1.338 . S
C176 H180 0.931 . S
C177 N174 1.313 . S
C177 N178 1.344 . S
C177 H181 0.930 . S
N178 C175 1.377 . S
N178 C177 1.344 . S
O179 Co171 2.055 . S
O179 C183 1.253 . S
H180 C176 0.931 . S
H181 C177 0.930 . S
O182 Co171 2.039 . S
O182 C172 1.265 . S
C183 O179 1.253 . S
C183 O184 1.227 . S
O184 C183 1.227 . S
N185 Co171 2.140 . S
N185 C188 1.346 . S
N185 C189 1.345 . S
C186 C187 1.387 . S
C186 C190 1.391 . S
C187 C186 1.387 . S
C187 C188 1.369 . S
C187 H196 0.929 . S
C188 N185 1.346 . S
C188 C187 1.369 . S
C188 H191 0.928 . S
C189 N185 1.345 . S
C189 C190 1.371 . S
C189 H192 0.931 . S
C190 C186 1.391 . S
C190 C189 1.371 . S
C190 H197 0.930 1_545 S
H191 C188 0.928 . S
H192 C189 0.931 . S
H193 C169 0.930 . S
H194 C166 0.930 . S
H195 C175 0.930 . S
H196 C187 0.929 . S
H197 C190 0.930 1_565 S
C198 C199 1.351 . S
C198 N201 1.368 . S
C198 H203 0.931 . S
C199 C198 1.351 . S
C199 N200 1.373 . S
C199 H227 0.930 . S
N200 C199 1.373 . S
N200 C202 1.340 . S
N201 C198 1.368 . S
N201 C202 1.321 . S
N201 Co204 2.135 . S
C202 N200 1.340 . S
C202 N201 1.321 . S
C202 H226 0.930 . S
H203 C198 0.931 . S
Co204 N201 2.135 . S
Co204 N207 2.121 . S
Co204 O212 2.055 . S
Co204 O215 2.039 . S
Co204 N218 2.140 . S
C205 O206 1.227 . S
C205 O215 1.265 . S
O206 C205 1.227 . S
N207 Co204 2.121 . S
N207 C209 1.375 . S
N207 C210 1.313 . S
C208 C209 1.338 . S
C208 N211 1.377 . S
C208 H228 0.930 . S
C209 N207 1.375 . S
C209 C208 1.338 . S
C209 H213 0.931 . S
C210 N207 1.313 . S
C210 N211 1.344 . S
C210 H214 0.930 . S
N211 C208 1.377 . S
N211 C210 1.344 . S
O212 Co204 2.055 . S
O212 C216 1.253 . S
H213 C209 0.931 . S
H214 C210 0.930 . S
O215 Co204 2.039 . S
O215 C205 1.265 . S
C216 O212 1.253 . S
C216 O217 1.227 . S
O217 C216 1.227 . S
N218 Co204 2.140 . S
N218 C221 1.346 . S
N218 C222 1.345 . S
C219 C220 1.387 . S
C219 C223 1.391 . S
C220 C219 1.387 . S
C220 C221 1.369 . S
C220 H229 0.929 . S
C221 N218 1.346 . S
C221 C220 1.369 . S
C221 H224 0.928 . S
C222 N218 1.345 . S
C222 C223 1.371 . S
C222 H225 0.931 . S
C223 C219 1.391 . S
C223 C222 1.371 . S
C223 H230 0.930 . S
H224 C221 0.928 . S
H225 C222 0.931 . S
H226 C202 0.930 . S
H227 C199 0.930 . S
H228 C208 0.930 . S
H229 C220 0.929 . S
H230 C223 0.930 . S
C231 C232 1.351 . S
C231 N234 1.368 . S
C231 H236 0.931 . S
C232 C231 1.351 . S
C232 N233 1.373 . S
C232 H260 0.930 . S
N233 C232 1.373 . S
N233 C235 1.340 . S
N234 C231 1.368 . S
N234 C235 1.321 . S
N234 Co237 2.135 1_556 S
C235 N233 1.340 . S
C235 N234 1.321 . S
C235 H259 0.930 . S
H236 C231 0.931 . S
Co237 N234 2.135 1_554 S
Co237 N240 2.121 . S
Co237 O245 2.055 . S
Co237 O248 2.039 . S
Co237 N251 2.140 1_554 S
C238 O239 1.227 . S
C238 O248 1.265 1_556 S
O239 C238 1.227 . S
N240 Co237 2.121 . S
N240 C242 1.375 . S
N240 C243 1.313 . S
C241 C242 1.338 . S
C241 N244 1.377 . S
C241 H261 0.930 . S
C242 N240 1.375 . S
C242 C241 1.338 . S
C242 H246 0.931 . S
C243 N240 1.313 . S
C243 N244 1.344 . S
C243 H247 0.930 . S
N244 C241 1.377 . S
N244 C243 1.344 . S
O245 Co237 2.055 . S
O245 C249 1.253 . S
H246 C242 0.931 . S
H247 C243 0.930 . S
O248 Co237 2.039 . S
O248 C238 1.265 1_554 S
C249 O245 1.253 . S
C249 O250 1.227 . S
O250 C249 1.227 . S
N251 Co237 2.140 1_556 S
N251 C254 1.346 . S
N251 C255 1.345 . S
C252 C253 1.387 . S
C252 C256 1.391 . S
C253 C252 1.387 . S
C253 C254 1.369 . S
C253 H262 0.929 . S
C254 N251 1.346 . S
C254 C253 1.369 . S
C254 H257 0.928 . S
C255 N251 1.345 . S
C255 C256 1.371 . S
C255 H258 0.931 . S
C256 C252 1.391 . S
C256 C255 1.371 . S
C256 H263 0.930 1_655 S
H257 C254 0.928 . S
H258 C255 0.931 . S
H259 C235 0.930 . S
H260 C232 0.930 . S
H261 C241 0.930 . S
H262 C253 0.929 . S
H263 C256 0.930 1_455 S
C264 C265 1.351 . S
C264 N267 1.368 . S
C264 H269 0.931 . S
C265 C264 1.351 . S
C265 N266 1.373 . S
C265 H293 0.930 . S
N266 C265 1.373 . S
N266 C268 1.340 . S
N267 C264 1.368 . S
N267 C268 1.321 . S
N267 Co270 2.135 . S
C268 N266 1.340 . S
C268 N267 1.321 . S
C268 H292 0.930 . S
H269 C264 0.931 . S
Co270 N267 2.135 . S
Co270 N273 2.121 . S
Co270 O278 2.055 . S
Co270 O281 2.039 . S
Co270 N284 2.140 . S
C271 O272 1.227 . S
C271 O281 1.265 . S
O272 C271 1.227 . S
N273 Co270 2.121 . S
N273 C275 1.375 . S
N273 C276 1.313 . S
C274 C275 1.338 . S
C274 N277 1.377 . S
C274 H294 0.930 . S
C275 N273 1.375 . S
C275 C274 1.338 . S
C275 H279 0.931 . S
C276 N273 1.313 . S
C276 N277 1.344 . S
C276 H280 0.930 . S
N277 C274 1.377 . S
N277 C276 1.344 . S
O278 Co270 2.055 . S
O278 C282 1.253 . S
H279 C275 0.931 . S
H280 C276 0.930 . S
O281 Co270 2.039 . S
O281 C271 1.265 . S
C282 O278 1.253 . S
C282 O283 1.227 . S
O283 C282 1.227 . S
N284 Co270 2.140 . S
N284 C287 1.346 . S
N284 C288 1.345 . S
C285 C286 1.387 . S
C285 C289 1.391 . S
C286 C285 1.387 . S
C286 C287 1.369 . S
C286 H295 0.929 . S
C287 N284 1.346 . S
C287 C286 1.369 . S
C287 H290 0.928 . S
C288 N284 1.345 . S
C288 C289 1.371 . S
C288 H291 0.931 . S
C289 C285 1.391 . S
C289 C288 1.371 . S
C289 H296 0.930 1_565 S
H290 C287 0.928 . S
H291 C288 0.931 . S
H292 C268 0.930 . S
H293 C265 0.930 . S
H294 C274 0.930 . S
H295 C286 0.929 . S
H296 C289 0.930 1_545 S
C297 C298 1.351 . S
C297 N300 1.368 . S
C297 H302 0.931 . S
C298 C297 1.351 . S
C298 N299 1.373 . S
C298 H326 0.930 . S
N299 C298 1.373 . S
N299 C301 1.340 . S
N300 C297 1.368 . S
N300 C301 1.321 . S
N300 Co303 2.135 . S
C301 N299 1.340 . S
C301 N300 1.321 . S
C301 H325 0.930 . S
H302 C297 0.931 . S
Co303 N300 2.135 . S
Co303 N306 2.121 . S
Co303 O311 2.055 . S
Co303 O314 2.039 . S
Co303 N317 2.140 . S
C304 O305 1.227 . S
C304 O314 1.265 . S
O305 C304 1.227 . S
N306 Co303 2.121 . S
N306 C308 1.375 . S
N306 C309 1.313 . S
C307 C308 1.338 . S
C307 N310 1.377 . S
C307 H327 0.930 . S
C308 N306 1.375 . S
C308 C307 1.338 . S
C308 H312 0.931 . S
C309 N306 1.313 . S
C309 N310 1.344 . S
C309 H313 0.930 . S
N310 C307 1.377 . S
N310 C309 1.344 . S
O311 Co303 2.055 . S
O311 C315 1.253 . S
H312 C308 0.931 . S
H313 C309 0.930 . S
O314 Co303 2.039 . S
O314 C304 1.265 . S
C315 O311 1.253 . S
C315 O316 1.227 . S
O316 C315 1.227 . S
N317 Co303 2.140 . S
N317 C320 1.346 . S
N317 C321 1.345 . S
C318 C319 1.387 . S
C318 C322 1.391 . S
C319 C318 1.387 . S
C319 C320 1.369 . S
C319 H328 0.929 . S
C320 N317 1.346 . S
C320 C319 1.369 . S
C320 H323 0.928 . S
C321 N317 1.345 . S
C321 C322 1.371 . S
C321 H324 0.931 . S
C322 C318 1.391 . S
C322 C321 1.371 . S
C322 H329 0.930 . S
H323 C320 0.928 . S
H324 C321 0.931 . S
H325 C301 0.930 . S
H326 C298 0.930 . S
H327 C307 0.930 . S
H328 C319 0.929 . S
H329 C322 0.930 . S
C330 C331 1.351 . S
C330 N333 1.368 . S
C330 H335 0.931 . S
C331 C330 1.351 . S
C331 N332 1.373 . S
C331 H359 0.930 . S
N332 C331 1.373 . S
N332 C334 1.340 . S
N333 C330 1.368 . S
N333 C334 1.321 . S
N333 Co336 2.135 . S
C334 N332 1.340 . S
C334 N333 1.321 . S
C334 H358 0.930 . S
H335 C330 0.931 . S
Co336 N333 2.135 . S
Co336 N339 2.121 . S
Co336 O344 2.055 . S
Co336 O347 2.039 . S
Co336 N350 2.140 . S
C337 O338 1.227 . S
C337 O347 1.265 . S
O338 C337 1.227 . S
N339 Co336 2.121 . S
N339 C341 1.375 . S
N339 C342 1.313 . S
C340 C341 1.338 . S
C340 N343 1.377 . S
C340 H360 0.930 . S
C341 N339 1.375 . S
C341 C340 1.338 . S
C341 H345 0.931 . S
C342 N339 1.313 . S
C342 N343 1.344 . S
C342 H346 0.930 . S
N343 C340 1.377 . S
N343 C342 1.344 . S
O344 Co336 2.055 . S
O344 C348 1.253 . S
H345 C341 0.931 . S
H346 C342 0.930 . S
O347 Co336 2.039 . S
O347 C337 1.265 . S
C348 O344 1.253 . S
C348 O349 1.227 . S
O349 C348 1.227 . S
N350 Co336 2.140 . S
N350 C353 1.346 . S
N350 C354 1.345 . S
C351 C352 1.387 . S
C351 C355 1.391 . S
C352 C351 1.387 . S
C352 C353 1.369 . S
C352 H361 0.929 . S
C353 N350 1.346 . S
C353 C352 1.369 . S
C353 H356 0.928 . S
C354 N350 1.345 . S
C354 C355 1.371 . S
C354 H357 0.931 . S
C355 C351 1.391 . S
C355 C354 1.371 . S
C355 H362 0.930 1_455 S
H356 C353 0.928 . S
H357 C354 0.931 . S
H358 C334 0.930 . S
H359 C331 0.930 . S
H360 C340 0.930 . S
H361 C352 0.929 . S
H362 C355 0.930 1_655 S
C363 C364 1.351 . S
C363 N366 1.368 . S
C363 H368 0.931 . S
C364 C363 1.351 . S
C364 N365 1.373 . S
C364 H392 0.930 . S
N365 C364 1.373 . S
N365 C367 1.340 . S
N366 C363 1.368 . S
N366 C367 1.321 . S
N366 Co369 2.135 . S
C367 N365 1.340 . S
C367 N366 1.321 . S
C367 H391 0.930 . S
H368 C363 0.931 . S
Co369 N366 2.135 . S
Co369 N372 2.121 . S
Co369 O377 2.055 . S
Co369 O380 2.039 . S
Co369 N383 2.140 . S
C370 O371 1.227 . S
C370 O380 1.265 . S
O371 C370 1.227 . S
N372 Co369 2.121 . S
N372 C374 1.375 . S
N372 C375 1.313 . S
C373 C374 1.338 . S
C373 N376 1.377 . S
C373 H393 0.930 . S
C374 N372 1.375 . S
C374 C373 1.338 . S
C374 H378 0.931 . S
C375 N372 1.313 . S
C375 N376 1.344 . S
C375 H379 0.930 . S
N376 C373 1.377 . S
N376 C375 1.344 . S
O377 Co369 2.055 . S
O377 C381 1.253 . S
H378 C374 0.931 . S
H379 C375 0.930 . S
O380 Co369 2.039 . S
O380 C370 1.265 . S
C381 O377 1.253 . S
C381 O382 1.227 . S
O382 C381 1.227 . S
N383 Co369 2.140 . S
N383 C386 1.346 . S
N383 C387 1.345 . S
C384 C385 1.387 . S
C384 C388 1.391 . S
C385 C384 1.387 . S
C385 C386 1.369 . S
C385 H394 0.929 . S
C386 N383 1.346 . S
C386 C385 1.369 . S
C386 H389 0.928 . S
C387 N383 1.345 . S
C387 C388 1.371 . S
C387 H390 0.931 . S
C388 C384 1.391 . S
C388 C387 1.371 . S
C388 H395 0.930 1_545 S
H389 C386 0.928 . S
H390 C387 0.931 . S
H391 C367 0.930 . S
H392 C364 0.930 . S
H393 C373 0.930 . S
H394 C385 0.929 . S
H395 C388 0.930 1_565 S
C396 C397 1.387 . S
C396 H400 0.950 . S
C396 C405 1.390 . S
C397 C396 1.387 . S
C397 C399 1.387 . S
H398 C405 0.950 . S
C399 C397 1.387 . S
C399 C401 1.390 . S
C399 H403 0.950 . S
H400 C396 0.950 . S
C401 C399 1.390 . S
C401 C402 1.387 . S
C401 H404 0.950 . S
C402 C401 1.387 . S
C402 C405 1.387 . S
H403 C399 0.950 . S
H404 C401 0.950 . S
C405 C396 1.390 . S
C405 H398 0.950 . S
C405 C402 1.387 . S
C406 C407 1.387 . S
C406 H410 0.950 1_554 S
C406 C415 1.390 . S
C407 C406 1.387 . S
C407 C409 1.387 . S
H408 C415 0.950 1_655 S
C409 C407 1.387 . S
C409 C411 1.390 . S
C409 H413 0.950 . S
H410 C406 0.950 1_556 S
C411 C409 1.390 . S
C411 C412 1.387 . S
C411 H414 0.950 . S
C412 C411 1.387 . S
C412 C415 1.387 . S
H413 C409 0.950 . S
H414 C411 0.950 . S
C415 C406 1.390 . S
C415 H408 0.950 1_455 S
C415 C412 1.387 . S
C416 C417 1.387 . S
C416 H420 0.950 . S
C416 C425 1.390 . S
C417 C416 1.387 . S
C417 C419 1.387 . S
H418 C425 0.950 . S
C419 C417 1.387 . S
C419 C421 1.390 . S
C419 H423 0.950 . S
H420 C416 0.950 . S
C421 C419 1.390 . S
C421 C422 1.387 . S
C421 H424 0.950 . S
C422 C421 1.387 . S
C422 C425 1.387 . S
H423 C419 0.950 . S
H424 C421 0.950 . S
C425 C416 1.390 . S
C425 H418 0.950 . S
C425 C422 1.387 . S
C426 C427 1.387 . S
C426 H430 0.950 . S
C426 C435 1.390 . S
C427 C426 1.387 . S
C427 C429 1.387 . S
H428 C435 0.950 . S
C429 C427 1.387 . S
C429 C431 1.390 . S
C429 H433 0.950 . S
H430 C426 0.950 . S
C431 C429 1.390 . S
C431 C432 1.387 . S
C431 H434 0.950 . S
C432 C431 1.387 . S
C432 C435 1.387 . S
H433 C429 0.950 . S
H434 C431 0.950 . S
C435 C426 1.390 . S
C435 H428 0.950 . S
C435 C432 1.387 . S
C436 C437 1.387 . S
C436 H440 0.950 1_655 S
C436 C445 1.390 . S
C437 C436 1.387 . S
C437 C439 1.387 . S
H438 C445 0.950 . S
C439 C437 1.387 . S
C439 C441 1.390 . S
C439 H443 0.950 . S
H440 C436 0.950 1_455 S
C441 C439 1.390 . S
C441 C442 1.387 . S
C441 H444 0.950 . S
C442 C441 1.387 . S
C442 C445 1.387 . S
H443 C439 0.950 . S
H444 C441 0.950 . S
C445 C436 1.390 . S
C445 H438 0.950 . S
C445 C442 1.387 . S
C446 C447 1.387 . S
C446 H450 0.950 . S
C446 C455 1.390 . S
C447 C446 1.387 . S
C447 C449 1.387 . S
H448 C455 0.950 . S
C449 C447 1.387 . S
C449 C451 1.390 . S
C449 H453 0.950 . S
H450 C446 0.950 . S
C451 C449 1.390 . S
C451 C452 1.387 . S
C451 H454 0.950 . S
C452 C451 1.387 . S
C452 C455 1.387 . S
H453 C449 0.950 . S
H454 C451 0.950 . S
C455 C446 1.390 . S
C455 H448 0.950 . S
C455 C452 1.387 . S
C456 C457 1.387 . S
C456 H460 0.950 1_556 S
C456 C465 1.390 . S
C457 C456 1.387 . S
C457 C459 1.387 . S
H458 C465 0.950 . S
C459 C457 1.387 . S
C459 C461 1.390 . S
C459 H463 0.950 . S
H460 C456 0.950 1_554 S
C461 C459 1.390 . S
C461 C462 1.387 . S
C461 H464 0.950 . S
C462 C461 1.387 . S
C462 C465 1.387 . S
H463 C459 0.950 . S
H464 C461 0.950 . S
C465 C456 1.390 . S
C465 H458 0.950 . S
C465 C462 1.387 . S
C466 C467 1.387 . S
C466 H470 0.950 . S
C466 C475 1.390 . S
C467 C466 1.387 . S
C467 C469 1.387 . S
H468 C475 0.950 1_655 S
C469 C467 1.387 . S
C469 C471 1.390 . S
C469 H473 0.950 . S
H470 C466 0.950 . S
C471 C469 1.390 . S
C471 C472 1.387 . S
C471 H474 0.950 . S
C472 C471 1.387 . S
C472 C475 1.387 . S
H473 C469 0.950 . S
H474 C471 0.950 . S
C475 C466 1.390 . S
C475 H468 0.950 1_455 S
C475 C472 1.387 . S
C476 C477 1.387 . S
C476 H480 0.950 . S
C476 C485 1.390 . S
C477 C476 1.387 . S
C477 C479 1.387 . S
H478 C485 0.950 . S
C479 C477 1.387 . S
C479 C481 1.390 . S
C479 H483 0.950 . S
H480 C476 0.950 . S
C481 C479 1.390 . S
C481 C482 1.387 . S
C481 H484 0.950 . S
C482 C481 1.387 . S
C482 C485 1.387 . S
H483 C479 0.950 . S
H484 C481 0.950 . S
C485 C476 1.390 . S
C485 H478 0.950 . S
C485 C482 1.387 . S
C486 C487 1.387 . S
C486 H490 0.950 . S
C486 C495 1.390 . S
C487 C486 1.387 . S
C487 C489 1.387 . S
H488 C495 0.950 . S
C489 C487 1.387 . S
C489 C491 1.390 . S
C489 H493 0.950 . S
H490 C486 0.950 . S
C491 C489 1.390 . S
C491 C492 1.387 . S
C491 H494 0.950 . S
C492 C491 1.387 . S
C492 C495 1.387 . S
H493 C489 0.950 . S
H494 C491 0.950 . S
C495 C486 1.390 . S
C495 H488 0.950 . S
C495 C492 1.387 . S
C496 C497 1.387 . S
C496 H500 0.950 . S
C496 C505 1.390 . S
C497 C496 1.387 . S
C497 C499 1.387 . S
H498 C505 0.950 1_455 S
C499 C497 1.387 . S
C499 C501 1.390 . S
C499 H503 0.950 . S
H500 C496 0.950 . S
C501 C499 1.390 . S
C501 C502 1.387 . S
C501 H504 0.950 . S
C502 C501 1.387 . S
C502 C505 1.387 . S
H503 C499 0.950 . S
H504 C501 0.950 . S
C505 C496 1.390 . S
C505 H498 0.950 1_655 S
C505 C502 1.387 . S
C506 C507 1.387 . S
C506 H510 0.950 . S
C506 C515 1.390 . S
C507 C506 1.387 . S
C507 C509 1.387 . S
H508 C515 0.950 . S
C509 C507 1.387 . S
C509 C511 1.390 . S
C509 H513 0.950 . S
H510 C506 0.950 . S
C511 C509 1.390 . S
C511 C512 1.387 . S
C511 H514 0.950 . S
C512 C511 1.387 . S
C512 C515 1.387 . S
H513 C509 0.950 . S
H514 C511 0.950 . S
C515 C506 1.390 . S
C515 H508 0.950 . S
C515 C512 1.387 . S
C516 C517 1.387 . S
C516 H520 0.950 . S
C516 C525 1.390 . S
C517 C516 1.387 . S
C517 C519 1.387 . S
H518 C525 0.950 . S
C519 C517 1.387 . S
C519 C521 1.390 . S
C519 H523 0.950 . S
H520 C516 0.950 . S
C521 C519 1.390 . S
C521 C522 1.387 . S
C521 H524 0.950 . S
C522 C521 1.387 . S
C522 C525 1.387 . S
H523 C519 0.950 . S
H524 C521 0.950 . S
C525 C516 1.390 . S
C525 H518 0.950 . S
C525 C522 1.387 . S
C526 C527 1.387 . S
C526 H530 0.950 . S
C526 C535 1.390 . S
C527 C526 1.387 . S
C527 C529 1.387 . S
H528 C535 0.950 . S
C529 C527 1.387 . S
C529 C531 1.390 . S
C529 H533 0.950 . S
H530 C526 0.950 . S
C531 C529 1.390 . S
C531 C532 1.387 . S
C531 H534 0.950 . S
C532 C531 1.387 . S
C532 C535 1.387 . S
H533 C529 0.950 . S
H534 C531 0.950 . S
C535 C526 1.390 . S
C535 H528 0.950 . S
C535 C532 1.387 . S
C536 C537 1.387 . S
C536 H540 0.950 . S
C536 C545 1.390 . S
C537 C536 1.387 . S
C537 C539 1.387 . S
H538 C545 0.950 . S
C539 C537 1.387 . S
C539 C541 1.390 . S
C539 H543 0.950 . S
H540 C536 0.950 . S
C541 C539 1.390 . S
C541 C542 1.387 . S
C541 H544 0.950 . S
C542 C541 1.387 . S
C542 C545 1.387 . S
H543 C539 0.950 . S
H544 C541 0.950 . S
C545 C536 1.390 . S
C545 H538 0.950 . S
C545 C542 1.387 . S
C546 C547 1.387 . S
C546 H550 0.950 . S
C546 C555 1.390 . S
C547 C546 1.387 . S
C547 C549 1.387 . S
H548 C555 0.950 . S
C549 C547 1.387 . S
C549 C551 1.390 . S
C549 H553 0.950 . S
H550 C546 0.950 . S
C551 C549 1.390 . S
C551 C552 1.387 . S
C551 H554 0.950 . S
C552 C551 1.387 . S
C552 C555 1.387 . S
H553 C549 0.950 . S
H554 C551 0.950 . S
C555 C546 1.390 . S
C555 H548 0.950 . S
C555 C552 1.387 . S
C556 C557 1.387 . S
C556 H560 0.950 . S
C556 C565 1.390 . S
C557 C556 1.387 . S
C557 C559 1.387 . S
H558 C565 0.950 . S
C559 C557 1.387 . S
C559 C561 1.390 . S
C559 H563 0.950 . S
H560 C556 0.950 . S
C561 C559 1.390 . S
C561 C562 1.387 . S
C561 H564 0.950 . S
C562 C561 1.387 . S
C562 C565 1.387 . S
H563 C559 0.950 . S
H564 C561 0.950 . S
C565 C556 1.390 . S
C565 H558 0.950 . S
C565 C562 1.387 . S
C566 C567 1.387 . S
C566 H570 0.950 . S
C566 C575 1.390 . S
C567 C566 1.387 . S
C567 C569 1.387 . S
H568 C575 0.950 . S
C569 C567 1.387 . S
C569 C571 1.390 . S
C569 H573 0.950 . S
H570 C566 0.950 . S
C571 C569 1.390 . S
C571 C572 1.387 . S
C571 H574 0.950 . S
C572 C571 1.387 . S
C572 C575 1.387 . S
H573 C569 0.950 . S
H574 C571 0.950 . S
C575 C566 1.390 . S
C575 H568 0.950 . S
C575 C572 1.387 . S
C576 C577 1.387 . S
C576 H580 0.950 . S
C576 C585 1.390 . S
C577 C576 1.387 . S
C577 C579 1.387 . S
H578 C585 0.950 . S
C579 C577 1.387 . S
C579 C581 1.390 . S
C579 H583 0.950 . S
H580 C576 0.950 . S
C581 C579 1.390 . S
C581 C582 1.387 . S
C581 H584 0.950 . S
C582 C581 1.387 . S
C582 C585 1.387 . S
H583 C579 0.950 . S
H584 C581 0.950 . S
C585 C576 1.390 . S
C585 H578 0.950 . S
C585 C582 1.387 . S
C586 C587 1.387 1_655 S
C586 H590 0.950 . S
C586 C595 1.390 . S
C587 C586 1.387 1_455 S
C587 C589 1.387 . S
H588 C595 0.950 . S
C589 C587 1.387 . S
C589 C591 1.390 . S
C589 H593 0.950 . S
H590 C586 0.950 . S
C591 C589 1.390 . S
C591 C592 1.387 1_455 S
C591 H594 0.950 . S
C592 C591 1.387 1_655 S
C592 C595 1.387 . S
H593 C589 0.950 . S
H594 C591 0.950 . S
C595 C586 1.390 . S
C595 H588 0.950 . S
C595 C592 1.387 . S
C596 C597 1.387 . S
C596 H600 0.950 . S
C596 C605 1.390 1_565 S
C597 C596 1.387 . S
C597 C599 1.387 . S
H598 C605 0.950 . S
C599 C597 1.387 . S
C599 C601 1.390 1_565 S
C599 H603 0.950 . S
H600 C596 0.950 . S
C601 C599 1.390 1_545 S
C601 C602 1.387 . S
C601 H604 0.950 . S
C602 C601 1.387 . S
C602 C605 1.387 . S
H603 C599 0.950 . S
H604 C601 0.950 . S
C605 C596 1.390 1_545 S
C605 H598 0.950 . S
C605 C602 1.387 . S
C606 C607 1.387 . S
C606 H610 0.950 . S
C606 C615 1.390 . S
C607 C606 1.387 . S
C607 C609 1.387 . S
H608 C615 0.950 . S
C609 C607 1.387 . S
C609 C611 1.390 . S
C609 H613 0.950 . S
H610 C606 0.950 . S
C611 C609 1.390 . S
C611 C612 1.387 . S
C611 H614 0.950 . S
C612 C611 1.387 . S
C612 C615 1.387 . S
H613 C609 0.950 . S
H614 C611 0.950 . S
C615 C606 1.390 . S
C615 H608 0.950 . S
C615 C612 1.387 . S
C616 C617 1.387 . S
C616 H620 0.950 . S
C616 C625 1.390 . S
C617 C616 1.387 . S
C617 C619 1.387 1_455 S
H618 C625 0.950 . S
C619 C617 1.387 1_655 S
C619 C621 1.390 . S
C619 H623 0.950 . S
H620 C616 0.950 . S
C621 C619 1.390 . S
C621 C622 1.387 . S
C621 H624 0.950 . S
C622 C621 1.387 . S
C622 C625 1.387 1_655 S
H623 C619 0.950 . S
H624 C621 0.950 . S
C625 C616 1.390 . S
C625 H618 0.950 . S
C625 C622 1.387 1_455 S
C626 C627 1.387 . S
C626 H630 0.950 . S
C626 C635 1.390 1_564 S
C627 C626 1.387 . S
C627 C629 1.387 . S
H628 C635 0.950 . S
C629 C627 1.387 . S
C629 C631 1.390 1_564 S
C629 H633 0.950 . S
H630 C626 0.950 . S
C631 C629 1.390 1_546 S
C631 C632 1.387 . S
C631 H634 0.950 . S
C632 C631 1.387 . S
C632 C635 1.387 . S
H633 C629 0.950 . S
H634 C631 0.950 . S
C635 C626 1.390 1_546 S
C635 H628 0.950 . S
C635 C632 1.387 . S
C636 C637 1.387 . S
C636 H640 0.950 . S
C636 C645 1.390 . S
C637 C636 1.387 . S
C637 C639 1.387 . S
H638 C645 0.950 . S
C639 C637 1.387 . S
C639 C641 1.390 . S
C639 H643 0.950 . S
H640 C636 0.950 . S
C641 C639 1.390 . S
C641 C642 1.387 . S
C641 H644 0.950 . S
C642 C641 1.387 . S
C642 C645 1.387 . S
H643 C639 0.950 . S
H644 C641 0.950 . S
C645 C636 1.390 . S
C645 H638 0.950 . S
C645 C642 1.387 . S
C646 C647 1.387 . S
C646 H650 0.950 . S
C646 C655 1.390 . S
C647 C646 1.387 . S
C647 C649 1.387 . S
H648 C655 0.950 . S
C649 C647 1.387 . S
C649 C651 1.390 . S
C649 H653 0.950 . S
H650 C646 0.950 . S
C651 C649 1.390 . S
C651 C652 1.387 . S
C651 H654 0.950 . S
C652 C651 1.387 . S
C652 C655 1.387 . S
H653 C649 0.950 . S
H654 C651 0.950 . S
C655 C646 1.390 . S
C655 H648 0.950 . S
C655 C652 1.387 . S
C656 C657 1.387 . S
C656 H660 0.950 . S
C656 C665 1.390 . S
C657 C656 1.387 . S
C657 C659 1.387 . S
H658 C665 0.950 . S
C659 C657 1.387 . S
C659 C661 1.390 . S
C659 H663 0.950 . S
H660 C656 0.950 . S
C661 C659 1.390 . S
C661 C662 1.387 . S
C661 H664 0.950 . S
C662 C661 1.387 . S
C662 C665 1.387 . S
H663 C659 0.950 . S
H664 C661 0.950 . S
C665 C656 1.390 . S
C665 H658 0.950 . S
C665 C662 1.387 . S
C666 C667 1.387 . S
C666 H670 0.950 . S
C666 C675 1.390 . S
C667 C666 1.387 . S
C667 C669 1.387 . S
H668 C675 0.950 . S
C669 C667 1.387 . S
C669 C671 1.390 . S
C669 H673 0.950 . S
H670 C666 0.950 . S
C671 C669 1.390 . S
C671 C672 1.387 . S
C671 H674 0.950 . S
C672 C671 1.387 . S
C672 C675 1.387 . S
H673 C669 0.950 . S
H674 C671 0.950 . S
C675 C666 1.390 . S
C675 H668 0.950 . S
C675 C672 1.387 . S
C676 C677 1.387 . S
C676 H680 0.950 . S
C676 C685 1.390 . S
C677 C676 1.387 . S
C677 C679 1.387 . S
H678 C685 0.950 . S
C679 C677 1.387 . S
C679 C681 1.390 . S
C679 H683 0.950 . S
H680 C676 0.950 . S
C681 C679 1.390 . S
C681 C682 1.387 . S
C681 H684 0.950 . S
C682 C681 1.387 . S
C682 C685 1.387 . S
H683 C679 0.950 . S
H684 C681 0.950 . S
C685 C676 1.390 . S
C685 H678 0.950 . S
C685 C682 1.387 . S
C686 C687 1.387 . S
C686 H690 0.950 . S
C686 C695 1.390 . S
C687 C686 1.387 . S
C687 C689 1.387 . S
H688 C695 0.950 . S
C689 C687 1.387 . S
C689 C691 1.390 . S
C689 H693 0.950 . S
H690 C686 0.950 . S
C691 C689 1.390 . S
C691 C692 1.387 . S
C691 H694 0.950 . S
C692 C691 1.387 . S
C692 C695 1.387 . S
H693 C689 0.950 . S
H694 C691 0.950 . S
C695 C686 1.390 . S
C695 H688 0.950 . S
C695 C692 1.387 . S
C397 C172 1.575 . S
C402 N13 1.691 . S
C407 C7 1.577 . S
C412 N46 1.691 1_455 S
C417 C40 1.574 . S
C422 N79 1.691 1_545 S
C427 N112 1.691 . S
C432 C73 1.575 . S
C437 N145 1.691 1_655 S
C442 C106 1.577 . S
C447 C139 1.577 . S
C452 N178 1.691 1_565 S
C457 C238 1.576 . S
C462 N211 1.691 . S
C467 C271 1.576 . S
C472 N244 1.691 1_455 S
C477 C304 1.577 . S
C482 N277 1.691 1_545 S
C487 C337 1.575 . S
C492 N310 1.691 . S
C497 C370 1.574 . S
C502 N343 1.691 1_655 S
C507 C205 1.574 . S
C512 N376 1.691 1_565 S
C517 N266 1.279 . S
C522 N2 1.276 . S
C527 N35 1.276 . S
C532 N299 1.276 . S
C537 N68 1.280 . S
C542 N332 1.278 . S
C547 N101 1.279 . S
C552 N365 1.280 . S
C557 N134 1.276 . S
C562 N200 1.276 . S
C567 N233 1.278 . S
C572 N167 1.280 . S
C577 C318 1.239 . S
C582 C21 1.239 . S
C587 C351 1.238 . S
C592 C54 1.239 . S
C597 C87 1.238 . S
C602 C384 1.238 . S
C607 C120 1.238 . S
C612 C219 1.239 . S
C617 C153 1.238 . S
C622 C252 1.238 . S
C627 C285 1.239 . S
C632 C186 1.239 . S
C637 C18 1.340 . S
C642 C216 1.340 . S
C647 C249 1.342 . S
C652 C51 1.342 . S
C657 C84 1.342 . S
C662 C282 1.342 . S
C667 C315 1.341 . S
C672 C117 1.341 . S
C677 C348 1.340 . S
C682 C150 1.340 . S
C687 C381 1.338 . S
C692 C183 1.338 . S
