# Generated by pormake.
# Topology ofo, (3)-cn, num edge types: 1
# Building blocks:
#     Node 0, Type 0, BuildingBlock: WUSLED_clean_sbu_0, # of connection points: 3
#     Node 1, Type 0, BuildingBlock: WUSLED_clean_sbu_0, # of connection points: 3
#     Node 2, Type 0, BuildingBlock: WUSLED_clean_sbu_0, # of connection points: 3
#     Node 3, Type 0, BuildingBlock: WUSLED_clean_sbu_0, # of connection points: 3
#     Node 4, Type 0, BuildingBlock: WUSLED_clean_sbu_0, # of connection points: 3
#     Node 5, Type 0, BuildingBlock: WUSLED_clean_sbu_0, # of connection points: 3
#     Node 6, Type 0, BuildingBlock: WUSLED_clean_sbu_0, # of connection points: 3
#     Node 7, Type 0, BuildingBlock: WUSLED_clean_sbu_0, # of connection points: 3
#     Node 8, Type 0, BuildingBlock: WUSLED_clean_sbu_0, # of connection points: 3
#     Node 9, Type 0, BuildingBlock: WUSLED_clean_sbu_0, # of connection points: 3
#     Node 10, Type 0, BuildingBlock: WUSLED_clean_sbu_0, # of connection points: 3
#     Node 11, Type 0, BuildingBlock: WUSLED_clean_sbu_0, # of connection points: 3
#     Edge 12, Type (0, 0), BuildingBlock: MIFKUJ_clean_linker_0, # of connection points: 2
#     Edge 13, Type (0, 0), BuildingBlock: MIFKUJ_clean_linker_0, # of connection points: 2
#     Edge 14, Type (0, 0), BuildingBlock: MIFKUJ_clean_linker_0, # of connection points: 2
#     Edge 15, Type (0, 0), BuildingBlock: MIFKUJ_clean_linker_0, # of connection points: 2
#     Edge 16, Type (0, 0), BuildingBlock: MIFKUJ_clean_linker_0, # of connection points: 2
#     Edge 17, Type (0, 0), BuildingBlock: MIFKUJ_clean_linker_0, # of connection points: 2
#     Edge 18, Type (0, 0), BuildingBlock: MIFKUJ_clean_linker_0, # of connection points: 2
#     Edge 19, Type (0, 0), BuildingBlock: MIFKUJ_clean_linker_0, # of connection points: 2
#     Edge 20, Type (0, 0), BuildingBlock: MIFKUJ_clean_linker_0, # of connection points: 2
#     Edge 21, Type (0, 0), BuildingBlock: MIFKUJ_clean_linker_0, # of connection points: 2
#     Edge 22, Type (0, 0), BuildingBlock: MIFKUJ_clean_linker_0, # of connection points: 2
#     Edge 23, Type (0, 0), BuildingBlock: MIFKUJ_clean_linker_0, # of connection points: 2
#     Edge 24, Type (0, 0), BuildingBlock: MIFKUJ_clean_linker_0, # of connection points: 2
#     Edge 25, Type (0, 0), BuildingBlock: MIFKUJ_clean_linker_0, # of connection points: 2
#     Edge 26, Type (0, 0), BuildingBlock: MIFKUJ_clean_linker_0, # of connection points: 2
#     Edge 27, Type (0, 0), BuildingBlock: MIFKUJ_clean_linker_0, # of connection points: 2
#     Edge 28, Type (0, 0), BuildingBlock: MIFKUJ_clean_linker_0, # of connection points: 2
#     Edge 29, Type (0, 0), BuildingBlock: MIFKUJ_clean_linker_0, # of connection points: 2
# Relax obj value: 0.053
# Max RMSD: 0.062
# Mean RMSD: 0.062
data_MOF--net-ofo--node1-WUSLED_clean_sbu_0--edge1-MIFKUJ_clean_linker_0
_symmetry_space_group_name_H-M    P1
_symmetry_Int_Tables_number       1
_symmetry_cell_setting            triclinic
loop_
_symmetry_equiv_pos_as_xyz
'x, y, z'
_cell_length_a     43.535538
_cell_length_b     43.54812
_cell_length_c     109.35023
_cell_angle_alpha  89.887401
_cell_angle_beta   90.102429
_cell_angle_gamma 119.9908
loop_
_atom_site_label
_atom_site_type_symbol
_atom_site_fract_x
_atom_site_fract_y
_atom_site_fract_z
_atom_type_partial_charge
C0 C 0.40085 0.31182 0.104 0.0
C1 C 0.43501 0.31722 0.1062 0.0
C2 C 0.43908 0.34863 0.12513 0.0
C3 C 0.45399 0.33559 0.11662 0.0
C4 C 0.40462 0.34263 0.12299 0.0
C5 C 0.38576 0.32449 0.11251 0.0
U6 U 0.37893 0.24386 0.07861 0.0
O7 O 0.32789 0.20605 0.07014 0.0
O8 O 0.37041 0.24686 0.05887 0.0
C9 C 0.33728 0.221 0.0593 0.0
C10 C 0.38077 0.29317 0.09292 0.0
C11 C 0.31121 0.22731 0.05278 0.0
C12 C 0.26908 0.24862 0.05199 0.0
C13 C 0.29434 0.24385 0.05843 0.0
C14 C 0.27769 0.22076 0.0342 0.0
C15 C 0.26042 0.23709 0.03978 0.0
C16 C 0.30277 0.21596 0.04063 0.0
C17 C 0.42997 0.1915 0.07937 0.0
C18 C 0.41597 0.13054 0.07588 0.0
C19 C 0.47658 0.17848 0.07405 0.0
C20 C 0.4657 0.20291 0.07686 0.0
C21 C 0.452 0.14189 0.07377 0.0
C22 C 0.40506 0.15506 0.07867 0.0
C23 C 0.42031 0.21768 0.08385 0.0
O24 O 0.39941 0.30016 0.0828 0.0
O25 O 0.35776 0.25926 0.09429 0.0
O26 O 0.38838 0.20529 0.08847 0.0
O27 O 0.43064 0.2463 0.07716 0.0
H28 H 0.44708 0.30734 0.09983 0.0
H29 H 0.48025 0.33931 0.11808 0.0
H30 H 0.39248 0.35254 0.1293 0.0
H31 H 0.35942 0.32054 0.111 0.0
H32 H 0.25658 0.2616 0.05653 0.0
H33 H 0.3006 0.25294 0.0678 0.0
H34 H 0.27136 0.21103 0.0249 0.0
H35 H 0.31541 0.20303 0.03613 0.0
H36 H 0.39632 0.10259 0.07585 0.0
H37 H 0.50442 0.18828 0.07226 0.0
H38 H 0.48548 0.2308 0.07739 0.0
H39 H 0.37732 0.14533 0.08061 0.0
C40 C 0.09582 0.4081 0.76671 0.0
C41 C 0.12252 0.44367 0.76814 0.0
C42 C 0.09616 0.44735 0.78736 0.0
C43 C 0.12257 0.46313 0.77833 0.0
C44 C 0.06972 0.41162 0.78596 0.0
C45 C 0.06951 0.39226 0.77571 0.0
U46 U 0.14281 0.38353 0.74238 0.0
O47 O 0.12961 0.33165 0.73473 0.0
O48 O 0.13198 0.37313 0.72266 0.0
C49 C 0.12446 0.34 0.72364 0.0
C50 C 0.09498 0.38719 0.75594 0.0
C51 C 0.09233 0.31333 0.71716 0.0
C52 C 0.02999 0.26747 0.71671 0.0
C53 C 0.05941 0.29392 0.72305 0.0
C54 C 0.06591 0.28015 0.6985 0.0
C55 C 0.033 0.25994 0.70438 0.0
C56 C 0.09518 0.30646 0.70483 0.0
C57 C 0.24608 0.43343 0.74369 0.0
C58 C 0.29137 0.41713 0.74011 0.0
C59 C 0.30696 0.47878 0.73924 0.0
C60 C 0.27178 0.46908 0.74179 0.0
C61 C 0.31742 0.45303 0.73859 0.0
C62 C 0.25608 0.40742 0.74264 0.0
C63 C 0.21022 0.42478 0.74782 0.0
O64 O 0.10727 0.40492 0.74567 0.0
O65 O 0.10544 0.36402 0.75789 0.0
O66 O 0.19016 0.39339 0.75277 0.0
O67 O 0.19255 0.43475 0.74064 0.0
H68 H 0.14337 0.45643 0.76139 0.0
H69 H 0.14359 0.49044 0.77922 0.0
H70 H 0.04888 0.39876 0.7927 0.0
H71 H 0.04869 0.36486 0.7748 0.0
H72 H 0.00516 0.25232 0.72156 0.0
H73 H 0.05659 0.29884 0.73258 0.0
H74 H 0.06913 0.27565 0.68897 0.0
H75 H 0.12028 0.32125 0.70009 0.0
H76 H 0.29845 0.39659 0.73979 0.0
H77 H 0.32607 0.50659 0.7379 0.0
H78 H 0.2648 0.48965 0.74258 0.0
H79 H 0.23691 0.37968 0.7441 0.0
C80 C 0.69059 0.09378 0.42995 0.0
C81 C 0.70395 0.12184 0.43838 0.0
C82 C 0.64941 0.09135 0.45031 0.0
C83 C 0.68363 0.12056 0.44849 0.0
C84 C 0.63608 0.06346 0.44178 0.0
C85 C 0.65651 0.06465 0.43172 0.0
U86 U 0.76369 0.14455 0.40646 0.0
O87 O 0.80455 0.13389 0.39918 0.0
O88 O 0.76561 0.13519 0.38675 0.0
C89 C 0.79193 0.12879 0.38798 0.0
C90 C 0.71173 0.09451 0.4193 0.0
C91 C 0.78773 0.09693 0.38172 0.0
C92 C 0.76092 0.03287 0.37986 0.0
C93 C 0.76367 0.0626 0.38587 0.0
C94 C 0.80602 0.07154 0.36546 0.0
C95 C 0.78228 0.03699 0.36961 0.0
C96 C 0.80869 0.10112 0.37146 0.0
C97 C 0.81342 0.24746 0.40919 0.0
C98 C 0.85744 0.29081 0.39528 0.0
C99 C 0.84315 0.31023 0.41408 0.0
C100 C 0.81884 0.27507 0.41705 0.0
C101 C 0.86265 0.31869 0.40312 0.0
C102 C 0.83294 0.25543 0.39828 0.0
C103 C 0.78688 0.21092 0.41266 0.0
O104 O 0.70655 0.10767 0.40919 0.0
O105 O 0.74541 0.10563 0.42144 0.0
O106 O 0.79917 0.19148 0.41744 0.0
O107 O 0.76066 0.19337 0.40494 0.0
H108 H 0.73009 0.14475 0.43713 0.0
H109 H 0.69451 0.14268 0.4548 0.0
H110 H 0.61 0.04044 0.44296 0.0
H111 H 0.64571 0.04274 0.42532 0.0
H112 H 0.74258 0.00672 0.38337 0.0
H113 H 0.74727 0.05885 0.39381 0.0
H114 H 0.82242 0.07579 0.35749 0.0
H115 H 0.82731 0.12739 0.36808 0.0
H116 H 0.87188 0.29636 0.38675 0.0
H117 H 0.84694 0.3308 0.42047 0.0
H118 H 0.80416 0.26942 0.42554 0.0
H119 H 0.82908 0.2344 0.39209 0.0
C120 C 0.5981 0.69458 0.09644 0.0
C121 C 0.6052 0.70832 0.1084 0.0
C122 C 0.55783 0.65229 0.11652 0.0
C123 C 0.58533 0.68743 0.11831 0.0
C124 C 0.55072 0.63867 0.10454 0.0
C125 C 0.5707 0.6595 0.09465 0.0
U126 U 0.62808 0.77153 0.07358 0.0
O127 O 0.68105 0.80861 0.06633 0.0
O128 O 0.6386 0.77345 0.05378 0.0
C129 C 0.67245 0.79682 0.05507 0.0
C130 C 0.61956 0.71584 0.08584 0.0
C131 C 0.69754 0.78899 0.04862 0.0
C132 C 0.73843 0.76615 0.04829 0.0
C133 C 0.71316 0.77139 0.05444 0.0
C134 C 0.73206 0.79521 0.03037 0.0
C135 C 0.74841 0.77824 0.0362 0.0
C136 C 0.70696 0.80054 0.03652 0.0
C137 C 0.58617 0.8319 0.07729 0.0
C138 C 0.56832 0.86372 0.06325 0.0
C139 C 0.57998 0.88139 0.0845 0.0
C140 C 0.58808 0.8546 0.08672 0.0
C141 C 0.5696 0.88608 0.07277 0.0
C142 C 0.57657 0.83692 0.06548 0.0
C143 C 0.59154 0.80178 0.08036 0.0
O144 O 0.60186 0.71352 0.0758 0.0
O145 O 0.64515 0.74834 0.08812 0.0
O146 O 0.62238 0.80979 0.08515 0.0
O147 O 0.57962 0.77533 0.07255 0.0
H148 H 0.6263 0.73513 0.11017 0.0
H149 H 0.59198 0.6987 0.1274 0.0
H150 H 0.52947 0.61195 0.10276 0.0
H151 H 0.56472 0.64809 0.08556 0.0
H152 H 0.75014 0.7526 0.05301 0.0
H153 H 0.70614 0.76207 0.06377 0.0
H154 H 0.73937 0.80529 0.02113 0.0
H155 H 0.69529 0.81427 0.03188 0.0
H156 H 0.56079 0.86683 0.05409 0.0
H157 H 0.58074 0.89769 0.09209 0.0
H158 H 0.59502 0.85104 0.09593 0.0
H159 H 0.57484 0.81981 0.05802 0.0
C160 C 0.90985 0.59171 0.76042 0.0
C161 C 0.8796 0.55922 0.7633 0.0
C162 C 0.91086 0.55076 0.78036 0.0
C163 C 0.88015 0.53886 0.77315 0.0
C164 C 0.94105 0.58337 0.77742 0.0
C165 C 0.94053 0.60358 0.76753 0.0
U166 U 0.86092 0.61916 0.73775 0.0
O167 O 0.87357 0.67231 0.73147 0.0
O168 O 0.87111 0.63329 0.71826 0.0
C169 C 0.87864 0.66616 0.7201 0.0
C170 C 0.90975 0.61376 0.75018 0.0
C171 C 0.91111 0.69403 0.71416 0.0
C172 C 0.97456 0.72331 0.71011 0.0
C173 C 0.94426 0.6966 0.71598 0.0
C174 C 0.93886 0.74513 0.70062 0.0
C175 C 0.97225 0.74801 0.70237 0.0
C176 C 0.90869 0.71846 0.70645 0.0
C177 C 0.75797 0.56951 0.73982 0.0
C178 C 0.71531 0.58856 0.73515 0.0
C179 C 0.69532 0.52607 0.7375 0.0
C180 C 0.73024 0.5342 0.73973 0.0
C181 C 0.68729 0.55315 0.73535 0.0
C182 C 0.75033 0.59667 0.73734 0.0
C183 C 0.79386 0.57707 0.74341 0.0
O184 O 0.8964 0.59709 0.73981 0.0
O185 O 0.89933 0.63648 0.75293 0.0
O186 O 0.81431 0.60754 0.74886 0.0
O187 O 0.81094 0.56839 0.7355 0.0
H188 H 0.85552 0.54971 0.75798 0.0
H189 H 0.85632 0.5141 0.77526 0.0
H190 H 0.96523 0.59313 0.78269 0.0
H191 H 0.96413 0.62858 0.76546 0.0
H192 H 0.99986 0.72493 0.71176 0.0
H193 H 0.94669 0.67802 0.72194 0.0
H194 H 0.9359 0.76325 0.69459 0.0
H195 H 0.88333 0.71683 0.70489 0.0
H196 H 0.71013 0.61003 0.73337 0.0
H197 H 0.67446 0.49858 0.73788 0.0
H198 H 0.73547 0.51284 0.7417 0.0
H199 H 0.77127 0.62416 0.73732 0.0
C200 C 0.31337 0.90712 0.42988 0.0
C201 C 0.31498 0.87688 0.43334 0.0
C202 C 0.35358 0.90906 0.45052 0.0
C203 C 0.335 0.87788 0.44353 0.0
C204 C 0.35159 0.93916 0.44704 0.0
C205 C 0.33172 0.93817 0.43681 0.0
U206 U 0.24091 0.85779 0.40591 0.0
O207 O 0.2016 0.87023 0.39827 0.0
O208 O 0.24048 0.86782 0.38617 0.0
C209 C 0.21473 0.87513 0.38716 0.0
C210 C 0.29274 0.90677 0.41911 0.0
C211 C 0.22002 0.90722 0.38071 0.0
C212 C 0.24175 0.9707 0.37982 0.0
C213 C 0.23833 0.94098 0.38608 0.0
C214 C 0.20912 0.93325 0.36271 0.0
C215 C 0.22686 0.96714 0.36808 0.0
C216 C 0.20573 0.90368 0.36897 0.0
C217 C 0.18759 0.75526 0.4076 0.0
C218 C 0.12958 0.71534 0.39884 0.0
C219 C 0.16527 0.69173 0.40703 0.0
C220 C 0.19194 0.72605 0.41004 0.0
C221 C 0.13354 0.68584 0.40152 0.0
C222 C 0.1564 0.74976 0.40182 0.0
C223 C 0.21523 0.79071 0.41173 0.0
O224 O 0.29793 0.89356 0.40903 0.0
O225 O 0.25912 0.89603 0.42113 0.0
O226 O 0.20402 0.81092 0.4166 0.0
O227 O 0.24248 0.80808 0.40439 0.0
H228 H 0.30077 0.85254 0.42815 0.0
H229 H 0.3356 0.85411 0.44604 0.0
H230 H 0.36586 0.9637 0.45211 0.0
H231 H 0.3308 0.96178 0.43429 0.0
H232 H 0.25537 0.99631 0.38427 0.0
H233 H 0.24962 0.94426 0.39515 0.0
H234 H 0.19793 0.92952 0.35362 0.0
H235 H 0.19168 0.87788 0.36463 0.0
H236 H 0.10568 0.71181 0.39447 0.0
H237 H 0.16908 0.6697 0.4094 0.0
H238 H 0.21574 0.72971 0.41454 0.0
H239 H 0.15256 0.77197 0.3998 0.0
C240 C 0.69282 0.59144 0.24848 0.0
C241 C 0.70632 0.57767 0.23975 0.0
C242 C 0.6501 0.55064 0.22867 0.0
C243 C 0.68522 0.55761 0.22991 0.0
C244 C 0.63664 0.56421 0.23752 0.0
C245 C 0.65783 0.58447 0.24731 0.0
U246 U 0.76782 0.61749 0.27169 0.0
O247 O 0.80849 0.67018 0.27822 0.0
O248 O 0.7706 0.63124 0.29119 0.0
C249 C 0.79647 0.66396 0.2895 0.0
C250 C 0.71474 0.61315 0.25883 0.0
C251 C 0.79196 0.69202 0.29528 0.0
C252 C 0.761 0.72528 0.29755 0.0
C253 C 0.76436 0.69817 0.29191 0.0
C254 C 0.81273 0.74023 0.30996 0.0
C255 C 0.78529 0.7468 0.30662 0.0
C256 C 0.81599 0.71317 0.30435 0.0
C257 C 0.81928 0.56604 0.27033 0.0
C258 C 0.87597 0.58216 0.27984 0.0
C259 C 0.84213 0.52527 0.26983 0.0
C260 C 0.81573 0.53342 0.26692 0.0
C261 C 0.87279 0.54962 0.27623 0.0
C262 C 0.84941 0.59029 0.27692 0.0
C263 C 0.79182 0.57436 0.2664 0.0
O264 O 0.7104 0.59615 0.26919 0.0
O265 O 0.74821 0.63564 0.25634 0.0
O266 O 0.80311 0.6052 0.26103 0.0
O267 O 0.76571 0.56618 0.2741 0.0
H268 H 0.73317 0.58246 0.24053 0.0
H269 H 0.69625 0.54718 0.22334 0.0
H270 H 0.60986 0.55964 0.23679 0.0
H271 H 0.64691 0.59484 0.25395 0.0
H272 H 0.73976 0.72977 0.29467 0.0
H273 H 0.74556 0.68213 0.2849 0.0
H274 H 0.83156 0.7558 0.31702 0.0
H275 H 0.83739 0.70874 0.30711 0.0
H276 H 0.89901 0.60139 0.28489 0.0
H277 H 0.83894 0.50025 0.26671 0.0
H278 H 0.79274 0.51442 0.26178 0.0
H279 H 0.85259 0.61561 0.27967 0.0
C280 C 0.10727 0.69502 0.91228 0.0
C281 C 0.13289 0.71166 0.90307 0.0
C282 C 0.11014 0.65551 0.89225 0.0
C283 C 0.13415 0.69213 0.89312 0.0
C284 C 0.08486 0.63887 0.90158 0.0
C285 C 0.08339 0.65848 0.91147 0.0
U286 U 0.15263 0.76792 0.93608 0.0
O287 O 0.13943 0.80738 0.94302 0.0
O288 O 0.14143 0.76918 0.95564 0.0
C289 C 0.13405 0.7948 0.95423 0.0
C290 C 0.10533 0.71521 0.92281 0.0
C291 C 0.10156 0.78965 0.96027 0.0
C292 C 0.03758 0.75715 0.9633 0.0
C293 C 0.06787 0.76138 0.95723 0.0
C294 C 0.07441 0.80945 0.9754 0.0
C295 C 0.0405 0.78107 0.97252 0.0
C296 C 0.10453 0.81363 0.96935 0.0
C297 C 0.25567 0.82056 0.93473 0.0
C298 C 0.29732 0.87932 0.94252 0.0
C299 C 0.31861 0.84031 0.93581 0.0
C300 C 0.28393 0.81429 0.93295 0.0
C301 C 0.32586 0.87332 0.94052 0.0
C302 C 0.26248 0.85313 0.93967 0.0
C303 C 0.21993 0.79326 0.93074 0.0
O304 O 0.11767 0.7105 0.9332 0.0
O305 O 0.11503 0.74859 0.9207 0.0
O306 O 0.20007 0.80453 0.92558 0.0
O307 O 0.20227 0.76652 0.93826 0.0
H308 H 0.15193 0.73976 0.90355 0.0
H309 H 0.15417 0.70563 0.88615 0.0
H310 H 0.06579 0.61078 0.90112 0.0
H311 H 0.06349 0.6451 0.91848 0.0
H312 H 0.01196 0.73485 0.9609 0.0
H313 H 0.06506 0.74257 0.95024 0.0
H314 H 0.0777 0.82877 0.98226 0.0
H315 H 0.13028 0.83571 0.97178 0.0
H316 H 0.30191 0.90429 0.94625 0.0
H317 H 0.33989 0.83491 0.93396 0.0
H318 H 0.27924 0.78941 0.92909 0.0
H319 H 0.241 0.85848 0.94116 0.0
C320 C 0.40603 0.093 0.57472 0.0
C321 C 0.43942 0.12206 0.57188 0.0
C322 C 0.44444 0.09041 0.55429 0.0
C323 C 0.4585 0.12071 0.56179 0.0
C324 C 0.41079 0.06154 0.55712 0.0
C325 C 0.39184 0.06283 0.56726 0.0
U326 U 0.38361 0.1433 0.59842 0.0
O327 O 0.33207 0.13169 0.60599 0.0
O328 O 0.37316 0.13378 0.61817 0.0
C329 C 0.34021 0.12684 0.61714 0.0
C330 C 0.3857 0.09369 0.58541 0.0
C331 C 0.31322 0.09493 0.6236 0.0
C332 C 0.27315 0.03115 0.62493 0.0
C333 C 0.29947 0.06081 0.61865 0.0
C334 C 0.27449 0.06944 0.6412 0.0
C335 C 0.26011 0.03514 0.63626 0.0
C336 C 0.30069 0.09894 0.63493 0.0
C337 C 0.43562 0.24654 0.59611 0.0
C338 C 0.42072 0.29291 0.59946 0.0
C339 C 0.4822 0.30773 0.5992 0.0
C340 C 0.47165 0.27209 0.59721 0.0
C341 C 0.45694 0.31879 0.60009 0.0
C342 C 0.41015 0.25715 0.59748 0.0
C343 C 0.42594 0.21007 0.59243 0.0
O344 O 0.40395 0.10671 0.59554 0.0
O345 O 0.36318 0.10484 0.58326 0.0
O346 O 0.39434 0.19022 0.58759 0.0
O347 O 0.43542 0.1925 0.59986 0.0
H348 H 0.45074 0.14576 0.57746 0.0
H349 H 0.48411 0.14358 0.55977 0.0
H350 H 0.39932 0.0377 0.55162 0.0
H351 H 0.36611 0.04015 0.56929 0.0
H352 H 0.26254 0.00522 0.6208 0.0
H353 H 0.30885 0.05717 0.6099 0.0
H354 H 0.26567 0.07355 0.64998 0.0
H355 H 0.31111 0.12503 0.63893 0.0
H356 H 0.40053 0.30045 0.60002 0.0
H357 H 0.51028 0.32675 0.59987 0.0
H358 H 0.49181 0.26462 0.59618 0.0
H359 H 0.38214 0.23805 0.59666 0.0
C360 C 0.31193 0.40024 0.23965 0.0
C361 C 0.30714 0.42758 0.23496 0.0
C362 C 0.35074 0.4394 0.21896 0.0
C363 C 0.32639 0.447 0.22472 0.0
C364 C 0.3553 0.41185 0.2237 0.0
C365 C 0.33607 0.3925 0.23396 0.0
U366 U 0.24176 0.37866 0.26412 0.0
O367 O 0.2011 0.32727 0.27165 0.0
O368 O 0.24162 0.36721 0.28373 0.0
C369 C 0.21495 0.33461 0.28269 0.0
C370 C 0.29186 0.37968 0.25043 0.0
C371 C 0.21924 0.30661 0.28871 0.0
C372 C 0.25395 0.27844 0.2937 0.0
C373 C 0.25058 0.30506 0.28764 0.0
C374 C 0.19462 0.25452 0.30183 0.0
C375 C 0.22595 0.25278 0.30086 0.0
C376 C 0.19135 0.28114 0.29583 0.0
C377 C 0.19278 0.43257 0.26285 0.0
C378 C 0.14335 0.42393 0.27563 0.0
C379 C 0.16765 0.47106 0.26057 0.0
C380 C 0.19234 0.46113 0.25713 0.0
C381 C 0.14279 0.45265 0.26987 0.0
C382 C 0.1682 0.41399 0.27216 0.0
C383 C 0.21877 0.42259 0.25869 0.0
O384 O 0.29829 0.39783 0.26063 0.0
O385 O 0.25788 0.3578 0.24859 0.0
O386 O 0.20569 0.39089 0.25384 0.0
O387 O 0.24583 0.43094 0.26598 0.0
H388 H 0.28848 0.43385 0.23921 0.0
H389 H 0.32187 0.46771 0.22123 0.0
H390 H 0.37413 0.40558 0.2196 0.0
H391 H 0.34016 0.37152 0.23747 0.0
H392 H 0.2783 0.27769 0.29265 0.0
H393 H 0.27241 0.32441 0.28215 0.0
H394 H 0.17273 0.2356 0.3074 0.0
H395 H 0.167 0.28195 0.29681 0.0
H396 H 0.12478 0.40932 0.28288 0.0
H397 H 0.16764 0.49281 0.25575 0.0
H398 H 0.21098 0.47565 0.24987 0.0
H399 H 0.16818 0.39183 0.27668 0.0
C400 C 0.91327 0.31513 0.90726 0.0
C401 C 0.88414 0.29924 0.89926 0.0
C402 C 0.91045 0.35209 0.88638 0.0
C403 C 0.88283 0.31747 0.88888 0.0
C404 C 0.93943 0.36796 0.89449 0.0
C405 C 0.94084 0.34961 0.90481 0.0
U406 U 0.86668 0.2444 0.9316 0.0
O407 O 0.87964 0.20588 0.93967 0.0
O408 O 0.87607 0.24478 0.9514 0.0
C409 C 0.8838 0.21926 0.95071 0.0
C410 C 0.91491 0.29624 0.91825 0.0
C411 C 0.91574 0.22509 0.9574 0.0
C412 C 0.97956 0.25719 0.96084 0.0
C413 C 0.94979 0.25247 0.95425 0.0
C414 C 0.94148 0.2072 0.97373 0.0
C415 C 0.97576 0.23464 0.97071 0.0
C416 C 0.91187 0.20254 0.96716 0.0
C417 C 0.76393 0.19085 0.92881 0.0
C418 C 0.7224 0.14564 0.94278 0.0
C419 C 0.7008 0.15985 0.92442 0.0
C420 C 0.7355 0.18502 0.92126 0.0
C421 C 0.69369 0.13992 0.93525 0.0
C422 C 0.75729 0.17098 0.93959 0.0
C423 C 0.79994 0.21806 0.92515 0.0
O424 O 0.90152 0.30159 0.92824 0.0
O425 O 0.90561 0.26278 0.91664 0.0
O426 O 0.82042 0.20649 0.9208 0.0
O427 O 0.81662 0.24522 0.93257 0.0
H428 H 0.86236 0.27276 0.90105 0.0
H429 H 0.85995 0.30466 0.88291 0.0
H430 H 0.96129 0.39444 0.89277 0.0
H431 H 0.96349 0.36236 0.91088 0.0
H432 H 0.00547 0.27877 0.95831 0.0
H433 H 0.9533 0.27018 0.94674 0.0
H434 H 0.93749 0.18892 0.9811 0.0
H435 H 0.88582 0.18114 0.96969 0.0
H436 H 0.71786 0.13091 0.95122 0.0
H437 H 0.67953 0.15573 0.91828 0.0
H438 H 0.74016 0.20001 0.91287 0.0
H439 H 0.77899 0.17519 0.94553 0.0
C440 C 0.60315 0.91439 0.57447 0.0
C441 C 0.58424 0.88423 0.56712 0.0
C442 C 0.5635 0.916 0.5542 0.0
C443 C 0.56467 0.88504 0.55707 0.0
C444 C 0.58235 0.94606 0.56167 0.0
C445 C 0.602 0.94524 0.57169 0.0
U446 U 0.63105 0.86523 0.59683 0.0
O447 O 0.68411 0.8792 0.60367 0.0
O448 O 0.64284 0.87323 0.61653 0.0
C449 C 0.67629 0.88229 0.61504 0.0
C450 C 0.6244 0.91416 0.58495 0.0
C451 C 0.70286 0.91416 0.62164 0.0
C452 C 0.72669 0.97507 0.62856 0.0
C453 C 0.70116 0.94553 0.62202 0.0
C454 C 0.75594 0.94229 0.63428 0.0
C455 C 0.75449 0.97384 0.63475 0.0
C456 C 0.73044 0.91286 0.6278 0.0
C457 C 0.58657 0.7629 0.59279 0.0
C458 C 0.57062 0.71359 0.60682 0.0
C459 C 0.57819 0.70663 0.58528 0.0
C460 C 0.58632 0.74156 0.58316 0.0
C461 C 0.56995 0.69204 0.59712 0.0
C462 C 0.57892 0.74871 0.60469 0.0
C463 C 0.59255 0.79873 0.5899 0.0
O464 O 0.60647 0.89864 0.59493 0.0
O465 O 0.64874 0.90574 0.58238 0.0
O466 O 0.62329 0.82104 0.58496 0.0
O467 O 0.58172 0.81368 0.59795 0.0
H468 H 0.58468 0.86009 0.56916 0.0
H469 H 0.5501 0.86127 0.55162 0.0
H470 H 0.58237 0.97043 0.55967 0.0
H471 H 0.61649 0.96881 0.57725 0.0
H472 H 0.72494 0.99901 0.62864 0.0
H473 H 0.68015 0.94716 0.61729 0.0
H474 H 0.77656 0.94011 0.63907 0.0
H475 H 0.73216 0.88888 0.62766 0.0
H476 H 0.56472 0.70331 0.61607 0.0
H477 H 0.57738 0.69073 0.57755 0.0
H478 H 0.59176 0.75174 0.57388 0.0
H479 H 0.57888 0.76454 0.61231 0.0
H480 H 0.50876 0.40063 0.12626 0.0
H481 H 0.54273 0.43327 0.14419 0.0
H482 H 0.45009 0.37496 0.16683 0.0
H483 H 0.41575 0.34251 0.14881 0.0
H484 H 0.48279 0.4412 0.17355 0.0
H485 H 0.52074 0.3571 0.16644 0.0
H486 H 0.54347 0.32472 0.15449 0.0
H487 H 0.63988 0.42218 0.14731 0.0
H488 H 0.61752 0.45523 0.15907 0.0
H489 H 0.58041 0.49803 0.22911 0.0
H490 H 0.54353 0.46302 0.21196 0.0
H491 H 0.63166 0.5201 0.18736 0.0
H492 H 0.66885 0.55489 0.20454 0.0
H493 H 0.59941 0.45162 0.18246 0.0
H494 H 0.55958 0.53626 0.18743 0.0
H495 H 0.53761 0.56968 0.19918 0.0
H496 H 0.44712 0.4721 0.21074 0.0
H497 H 0.46811 0.43815 0.19878 0.0
C498 C 0.49566 0.39454 0.13507 0.0
C499 C 0.4596 0.36872 0.13611 0.0
C500 C 0.51514 0.41324 0.14535 0.0
C501 C 0.49925 0.40621 0.15697 0.0
C502 C 0.46306 0.38086 0.158 0.0
C503 C 0.44343 0.36234 0.14768 0.0
C504 C 0.52043 0.42548 0.16798 0.0
C505 C 0.50802 0.44295 0.17558 0.0
C506 C 0.55373 0.42848 0.1706 0.0
C507 C 0.56734 0.40866 0.16356 0.0
C508 C 0.5467 0.37165 0.16225 0.0
C509 C 0.55952 0.35318 0.15551 0.0
C510 C 0.59307 0.37139 0.15012 0.0
C511 C 0.61389 0.40811 0.15148 0.0
C512 C 0.60117 0.42673 0.15819 0.0
C513 C 0.59187 0.50334 0.22003 0.0
C514 C 0.62758 0.52934 0.2182 0.0
C515 C 0.57071 0.48333 0.21021 0.0
C516 C 0.58459 0.48918 0.1983 0.0
C517 C 0.6203 0.51502 0.19645 0.0
C518 C 0.64157 0.53485 0.20629 0.0
C519 C 0.56215 0.46791 0.1878 0.0
C520 C 0.57418 0.44982 0.18039 0.0
C521 C 0.52866 0.46451 0.18531 0.0
C522 C 0.51551 0.48472 0.19228 0.0
C523 C 0.53498 0.52198 0.19247 0.0
C524 C 0.52262 0.541 0.19912 0.0
C525 C 0.49095 0.52301 0.2057 0.0
C526 C 0.47151 0.48598 0.20559 0.0
C527 C 0.48349 0.46684 0.1988 0.0
H528 H 0.48144 0.53776 0.21087 0.0
H529 H 0.60295 0.35703 0.14491 0.0
H530 H 0.10714 0.51494 0.78786 0.0
H531 H 0.10912 0.54962 0.80568 0.0
H532 H 0.08792 0.46164 0.82927 0.0
H533 H 0.08526 0.4266 0.8114 0.0
H534 H 0.05264 0.49062 0.83738 0.0
H535 H 0.17344 0.5362 0.82563 0.0
H536 H 0.22489 0.56111 0.81172 0.0
H537 H 0.21322 0.65207 0.80531 0.0
H538 H 0.16136 0.62744 0.81906 0.0
H539 H 0.10619 0.59075 0.89238 0.0
H540 H 0.10537 0.5557 0.87478 0.0
H541 H 0.11481 0.63802 0.85042 0.0
H542 H 0.11636 0.67348 0.86802 0.0
H543 H 0.15594 0.61142 0.84298 0.0
H544 H 0.03608 0.56423 0.85726 0.0
H545 H 0.99107 0.54005 0.87353 0.0
H546 H 0.00557 0.44991 0.87708 0.0
H547 H 0.05108 0.47377 0.8609 0.0
C548 C 0.10303 0.50303 0.79685 0.0
C549 C 0.09636 0.46811 0.79822 0.0
C550 C 0.10419 0.5229 0.80706 0.0
C551 C 0.0993 0.50857 0.8189 0.0
C552 C 0.0918 0.47339 0.82026 0.0
C553 C 0.09029 0.45336 0.81003 0.0
C554 C 0.10265 0.53046 0.82986 0.0
C555 C 0.07551 0.51681 0.83868 0.0
C556 C 0.13219 0.56492 0.83155 0.0
C557 C 0.16333 0.57982 0.82328 0.0
C558 C 0.1817 0.56139 0.82118 0.0
C559 C 0.21095 0.57547 0.81334 0.0
C560 C 0.22226 0.60811 0.80761 0.0
C561 C 0.20439 0.62677 0.80974 0.0
C562 C 0.17508 0.61277 0.81756 0.0
C563 C 0.1081 0.60137 0.88327 0.0
C564 C 0.11107 0.63478 0.88159 0.0
C565 C 0.10768 0.58134 0.87322 0.0
C566 C 0.10946 0.59395 0.86124 0.0
C567 C 0.11338 0.62771 0.85956 0.0
C568 C 0.11424 0.64794 0.86962 0.0
C569 C 0.10608 0.57158 0.85047 0.0
C570 C 0.13315 0.58518 0.84168 0.0
C571 C 0.07683 0.53685 0.84895 0.0
C572 C 0.04733 0.52102 0.85793 0.0
C573 C 0.02968 0.53922 0.86148 0.0
C574 C 1.00416 0.52564 0.87073 0.0
C575 C 0.9959 0.49376 0.87646 0.0
C576 C 0.01234 0.47483 0.87272 0.0
C577 C 0.03791 0.48832 0.86347 0.0
H578 H 0.97654 0.48362 0.88375 0.0
H579 H 0.24493 0.61898 0.80155 0.0
H580 H 0.67088 0.10916 0.47411 0.0
H581 H 0.63509 0.10706 0.49168 0.0
H582 H 0.54312 0.06851 0.4684 0.0
H583 H 0.57878 0.07076 0.45079 0.0
H584 H 0.54632 0.11759 0.48309 0.0
H585 H 0.55874 0.01597 0.48738 0.0
H586 H 0.58844 0.98074 0.48943 0.0
H587 H 0.63396 0.03177 0.52359 0.0
H588 H 0.60565 0.06837 0.52152 0.0
H589 H 0.41959 0.06503 0.53129 0.0
H590 H 0.45316 0.0629 0.51369 0.0
H591 H 0.54879 0.11039 0.53534 0.0
H592 H 0.51529 0.11213 0.55304 0.0
H593 H 0.54145 0.05399 0.52136 0.0
H594 H 0.53425 0.16015 0.51547 0.0
H595 H 0.50315 0.19418 0.51344 0.0
H596 H 0.44553 0.13107 0.48246 0.0
H597 H 0.47596 0.09633 0.4844 0.0
C598 C 0.64304 0.10033 0.47273 0.0
C599 C 0.62767 0.09 0.46104 0.0
C600 C 0.62253 0.09886 0.4828 0.0
C601 C 0.5862 0.08702 0.48142 0.0
C602 C 0.57097 0.07731 0.46973 0.0
C603 C 0.59136 0.07847 0.45967 0.0
C604 C 0.56411 0.08521 0.4921 0.0
C605 C 0.54498 0.10327 0.49139 0.0
C606 C 0.56264 0.06692 0.50304 0.0
C607 C 0.58025 0.04526 0.50421 0.0
C608 C 0.57544 0.02009 0.49524 0.0
C609 C 0.5921 0.99989 0.49641 0.0
C610 C 0.61307 0.00401 0.50663 0.0
C611 C 0.61769 0.02859 0.51567 0.0
C612 C 0.60145 0.04919 0.51447 0.0
C613 C 0.44771 0.07477 0.53234 0.0
C614 C 0.46477 0.08889 0.54357 0.0
C615 C 0.46691 0.07373 0.52224 0.0
C616 C 0.50356 0.08674 0.52316 0.0
C617 C 0.52055 0.10026 0.53441 0.0
C618 C 0.50142 0.10153 0.54449 0.0
C619 C 0.52434 0.08679 0.51235 0.0
C620 C 0.54301 0.06828 0.51304 0.0
C621 C 0.52532 0.10447 0.50136 0.0
C622 C 0.50711 0.12541 0.50016 0.0
C623 C 0.51474 0.15334 0.50828 0.0
C624 C 0.49727 0.17279 0.50714 0.0
C625 C 0.47231 0.16473 0.49785 0.0
C626 C 0.46483 0.13725 0.48966 0.0
C627 C 0.48219 0.11769 0.49078 0.0
H628 H 0.45882 0.17982 0.49697 0.0
H629 H 0.6257 0.98812 0.50757 0.0
H630 H 0.38234 0.51112 0.21533 0.0
H631 H 0.41624 0.54541 0.19759 0.0
H632 H 0.40084 0.44973 0.18036 0.0
H633 H 0.36654 0.4151 0.19807 0.0
H634 H 0.46898 0.50318 0.17824 0.0
H635 H 0.35396 0.48814 0.17081 0.0
H636 H 0.29976 0.49014 0.17577 0.0
H637 H 0.3615 0.60291 0.18066 0.0
H638 H 0.41616 0.60152 0.1759 0.0
H639 H 0.53285 0.58126 0.12028 0.0
H640 H 0.49731 0.54447 0.13731 0.0
H641 H 0.50075 0.6357 0.15409 0.0
H642 H 0.53482 0.67237 0.13676 0.0
H643 H 0.43657 0.5819 0.15575 0.0
H644 H 0.55066 0.59873 0.16701 0.0
H645 H 0.60753 0.60029 0.16384 0.0
H646 H 0.55174 0.49078 0.1533 0.0
H647 H 0.49442 0.48844 0.15652 0.0
C648 C 0.38573 0.49725 0.20771 0.0
C649 C 0.37145 0.46028 0.20811 0.0
C650 C 0.4052 0.51692 0.19757 0.0
C651 C 0.41066 0.5001 0.18755 0.0
C652 C 0.39684 0.46327 0.18796 0.0
C653 C 0.37733 0.44354 0.19811 0.0
C654 C 0.43121 0.52114 0.17674 0.0
C655 C 0.46176 0.52019 0.17329 0.0
C656 C 0.42206 0.54372 0.17032 0.0
C657 C 0.3892 0.54467 0.1731 0.0
C658 C 0.35601 0.51333 0.17303 0.0
C659 C 0.3252 0.51436 0.17579 0.0
C660 C 0.32719 0.54662 0.17855 0.0
C661 C 0.36 0.57794 0.17853 0.0
C662 C 0.3909 0.57705 0.17579 0.0
C663 C 0.52581 0.59353 0.12752 0.0
C664 C 0.53679 0.6299 0.12709 0.0
C665 C 0.50586 0.57249 0.13737 0.0
C666 C 0.49672 0.58733 0.14712 0.0
C667 C 0.50755 0.62359 0.14672 0.0
C668 C 0.52735 0.64463 0.13684 0.0
C669 C 0.47508 0.56486 0.15755 0.0
C670 C 0.44408 0.56523 0.16082 0.0
C671 C 0.48422 0.54236 0.16402 0.0
C672 C 0.51836 0.54348 0.16195 0.0
C673 C 0.55055 0.57501 0.16398 0.0
C674 C 0.58282 0.57598 0.16222 0.0
C675 C 0.5832 0.54557 0.15841 0.0
C676 C 0.55131 0.51417 0.15633 0.0
C677 C 0.51894 0.51298 0.15816 0.0
H678 H 0.60819 0.54633 0.15706 0.0
H679 H 0.30331 0.54737 0.18069 0.0
H680 H 0.93857 0.57466 0.80315 0.0
H681 H 0.93884 0.54004 0.82069 0.0
H682 H 0.88472 0.44426 0.7993 0.0
H683 H 0.88392 0.47883 0.78173 0.0
H684 H 0.8557 0.43292 0.82097 0.0
H685 H 0.97712 0.47948 0.80763 0.0
H686 H 0.03636 0.5263 0.80089 0.0
H687 H 0.04824 0.58462 0.83387 0.0
H688 H 0.98876 0.53821 0.84069 0.0
H689 H 0.89077 0.32697 0.863 0.0
H690 H 0.89006 0.3598 0.84486 0.0
H691 H 0.92585 0.45389 0.86667 0.0
H692 H 0.92657 0.42125 0.88488 0.0
H693 H 0.96513 0.46515 0.84461 0.0
H694 H 0.84462 0.41332 0.8585 0.0
H695 H 0.78617 0.36464 0.86497 0.0
H696 H 0.77229 0.31423 0.83008 0.0
H697 H 0.83095 0.36239 0.82346 0.0
C698 C 0.92707 0.54627 0.80212 0.0
C699 C 0.91136 0.52956 0.79101 0.0
C700 C 0.92735 0.52647 0.81217 0.0
C701 C 0.91238 0.48951 0.8113 0.0
C702 C 0.89652 0.47272 0.80022 0.0
C703 C 0.89599 0.4925 0.79018 0.0
C704 C 0.91217 0.46836 0.82208 0.0
C705 C 0.87976 0.43961 0.82599 0.0
C706 C 0.94333 0.47736 0.82884 0.0
C707 C 0.97872 0.50544 0.82469 0.0
C708 C 0.99236 0.50237 0.81341 0.0
C709 C 0.02592 0.52882 0.80957 0.0
C710 C 0.04605 0.55843 0.81695 0.0
C711 C 0.03262 0.56168 0.82817 0.0
C712 C 0.99909 0.53526 0.83204 0.0
C713 C 0.8983 0.3546 0.86396 0.0
C714 C 0.9091 0.37162 0.87537 0.0
C715 C 0.89799 0.37335 0.85358 0.0
C716 C 0.90832 0.40941 0.85442 0.0
C717 C 0.91853 0.42629 0.86581 0.0
C718 C 0.91891 0.40762 0.87618 0.0
C719 C 0.90871 0.42967 0.84341 0.0
C720 C 0.94115 0.4583 0.8395 0.0
C721 C 0.87761 0.42026 0.83658 0.0
C722 C 0.84236 0.39125 0.84054 0.0
C723 C 0.82927 0.39168 0.85225 0.0
C724 C 0.79607 0.36422 0.85594 0.0
C725 C 0.77558 0.3363 0.84796 0.0
C726 C 0.78823 0.33584 0.83626 0.0
C727 C 0.82144 0.36322 0.83254 0.0
H728 H 0.74987 0.31507 0.85083 0.0
H729 H 0.07209 0.57881 0.814 0.0
H730 H 0.52134 0.94621 0.55272 0.0
H731 H 0.48677 0.94704 0.53519 0.0
H732 H 0.52336 0.88828 0.51394 0.0
H733 H 0.55874 0.88814 0.53133 0.0
H734 H 0.52456 0.94092 0.50067 0.0
H735 H 0.44062 0.84717 0.52637 0.0
H736 H 0.40875 0.82033 0.54558 0.0
H737 H 0.36886 0.89274 0.54618 0.0
H738 H 0.40091 0.92035 0.52705 0.0
H739 H 0.39776 0.88138 0.45269 0.0
H740 H 0.43363 0.88421 0.47037 0.0
H741 H 0.39467 0.94295 0.49042 0.0
H742 H 0.35815 0.93958 0.47286 0.0
H743 H 0.39484 0.89193 0.50449 0.0
H744 H 0.47481 0.98293 0.47778 0.0
H745 H 0.50638 0.00957 0.45855 0.0
H746 H 0.55629 0.94604 0.46015 0.0
H747 H 0.52359 0.91754 0.47906 0.0
C748 C 0.52231 0.93373 0.54429 0.0
C749 C 0.54269 0.9169 0.54348 0.0
C750 C 0.50227 0.93397 0.53429 0.0
C751 C 0.50203 0.91728 0.52328 0.0
C752 C 0.52294 0.90115 0.52236 0.0
C753 C 0.54292 0.90082 0.53235 0.0
C754 C 0.47979 0.91635 0.51276 0.0
C755 C 0.49619 0.93003 0.50145 0.0
C756 C 0.44278 0.90263 0.51387 0.0
C757 C 0.42346 0.88606 0.52535 0.0
C758 C 0.42528 0.85756 0.53066 0.0
C759 C 0.40714 0.84218 0.54152 0.0
C760 C 0.38687 0.85489 0.54711 0.0
C761 C 0.38462 0.88296 0.54184 0.0
C762 C 0.40274 0.89847 0.53099 0.0
C763 C 0.39656 0.89463 0.4609 0.0
C764 C 0.37512 0.91034 0.46133 0.0
C765 C 0.41733 0.89649 0.47097 0.0
C766 C 0.41717 0.91412 0.48169 0.0
C767 C 0.39535 0.92932 0.48223 0.0
C768 C 0.37469 0.9276 0.47215 0.0
C769 C 0.4397 0.91667 0.49235 0.0
C770 C 0.42332 0.90323 0.50369 0.0
C771 C 0.47682 0.93083 0.49127 0.0
C772 C 0.49623 0.94763 0.47978 0.0
C773 C 0.49199 0.97411 0.47393 0.0
C774 C 0.51016 0.98961 0.46309 0.0
C775 C 0.53338 0.97957 0.45815 0.0
C776 C 0.53825 0.95376 0.46399 0.0
C777 C 0.51972 0.93775 0.47473 0.0
H778 H 0.54759 0.9918 0.4498 0.0
H779 H 0.37283 0.84293 0.55552 0.0
H780 H 0.51162 0.1442 0.08301 0.0
H781 H 0.53122 0.10107 0.08043 0.0
H782 H 0.43959 0.03648 0.05804 0.0
H783 H 0.41983 0.07985 0.0605 0.0
H784 H 0.44952 0.99669 0.07455 0.0
H785 H 0.52196 0.08402 0.04521 0.0
H786 H 0.56335 0.14398 0.03745 0.0
H787 H 0.64245 0.15363 0.06312 0.0
H788 H 0.60135 0.0939 0.07116 0.0
H789 H 0.51379 0.88007 0.05914 0.0
H790 H 0.49397 0.92342 0.057 0.0
H791 H 0.58045 0.99658 0.0799 0.0
H792 H 0.60104 0.95385 0.08177 0.0
H793 H 0.57115 0.03069 0.06097 0.0
H794 H 0.49641 0.94525 0.09132 0.0
H795 H 0.4548 0.88529 0.09906 0.0
H796 H 0.37974 0.87219 0.07112 0.0
H797 H 0.42114 0.93193 0.06312 0.0
C798 C 0.49586 0.12116 0.07735 0.0
C799 C 0.46423 0.11573 0.07188 0.0
C800 C 0.50711 0.09642 0.07591 0.0
C801 C 0.48717 0.06569 0.0689 0.0
C802 C 0.45548 0.06001 0.06347 0.0
C803 C 0.44416 0.0848 0.06492 0.0
C804 C 0.49896 0.03907 0.06764 0.0
C805 C 0.47589 0.004 0.07136 0.0
C806 C 0.53359 0.04864 0.06368 0.0
C807 C 0.55844 0.08457 0.05886 0.0
C808 C 0.54808 0.09903 0.04927 0.0
C809 C 0.57151 0.13296 0.0448 0.0
C810 C 0.60548 0.15263 0.0498 0.0
C811 C 0.61612 0.13838 0.05926 0.0
C812 C 0.59278 0.10446 0.06377 0.0
C813 C 0.52896 0.90561 0.06356 0.0
C814 C 0.55891 0.91334 0.0707 0.0
C815 C 0.51738 0.93026 0.06242 0.0
C816 C 0.53539 0.9631 0.06844 0.0
C817 C 0.56599 0.97137 0.07521 0.0
C818 C 0.57757 0.94677 0.07636 0.0
C819 C 0.52189 0.98851 0.06805 0.0
C820 C 0.54466 0.02334 0.06403 0.0
C821 C 0.48696 0.97872 0.07171 0.0
C822 C 0.46202 0.94288 0.07654 0.0
C823 C 0.47114 0.92947 0.08677 0.0
C824 C 0.44758 0.89555 0.09121 0.0
C825 C 0.41469 0.8749 0.08556 0.0
C826 C 0.40525 0.88818 0.07548 0.0
C827 C 0.42874 0.92208 0.07099 0.0
H828 H 0.39648 0.84865 0.08902 0.0
H829 H 0.62359 0.1789 0.04633 0.0
H830 H 0.34573 0.42037 0.7248 0.0
H831 H 0.40825 0.43742 0.72267 0.0
H832 H 0.43798 0.52704 0.74635 0.0
H833 H 0.37572 0.51006 0.74862 0.0
H834 H 0.48176 0.54567 0.72693 0.0
H835 H 0.43483 0.4515 0.75683 0.0
H836 H 0.3936 0.39138 0.76452 0.0
H837 H 0.42476 0.3463 0.73554 0.0
H838 H 0.46585 0.40618 0.72758 0.0
H839 H 0.65515 0.58792 0.74509 0.0
H840 H 0.59274 0.57142 0.74381 0.0
H841 H 0.57147 0.48177 0.72124 0.0
H842 H 0.63395 0.49815 0.72249 0.0
H843 H 0.52292 0.46199 0.73855 0.0
H844 H 0.57243 0.55586 0.70926 0.0
H845 H 0.61362 0.61576 0.7014 0.0
H846 H 0.57774 0.66123 0.72875 0.0
H847 H 0.53666 0.60161 0.73689 0.0
C848 C 0.36554 0.4436 0.72961 0.0
C849 C 0.35554 0.46379 0.73689 0.0
C850 C 0.40132 0.45337 0.72836 0.0
C851 C 0.42788 0.48338 0.73443 0.0
C852 C 0.41804 0.50388 0.74153 0.0
C853 C 0.38234 0.49416 0.74279 0.0
C854 C 0.4659 0.49326 0.73359 0.0
C855 C 0.49081 0.52749 0.72958 0.0
C856 C 0.47769 0.46927 0.73673 0.0
C857 C 0.45312 0.43329 0.74154 0.0
C858 C 0.43268 0.42875 0.75205 0.0
C859 C 0.40937 0.39472 0.75646 0.0
C860 C 0.40649 0.36503 0.7505 0.0
C861 C 0.42698 0.36932 0.74013 0.0
C862 C 0.4503 0.40329 0.73567 0.0
C863 C 0.63736 0.56505 0.73967 0.0
C864 C 0.64967 0.54442 0.73388 0.0
C865 C 0.60159 0.55559 0.73896 0.0
C866 C 0.57731 0.52548 0.73234 0.0
C867 C 0.58959 0.50506 0.72643 0.0
C868 C 0.62535 0.51443 0.72717 0.0
C869 C 0.53893 0.51457 0.732 0.0
C870 C 0.51391 0.48014 0.7358 0.0
C871 C 0.52706 0.53835 0.72863 0.0
C872 C 0.55169 0.57426 0.72375 0.0
C873 C 0.57352 0.57864 0.71366 0.0
C874 C 0.59681 0.61255 0.70915 0.0
C875 C 0.59836 0.64229 0.71459 0.0
C876 C 0.57654 0.63817 0.72455 0.0
C877 C 0.55322 0.60432 0.72911 0.0
H878 H 0.61641 0.66851 0.71108 0.0
H879 H 0.38843 0.33871 0.75394 0.0
H880 H 0.06226 0.65836 0.40522 0.0
H881 H 0.01491 0.59676 0.40303 0.0
H882 H 0.09097 0.56771 0.3907 0.0
H883 H 0.13841 0.62953 0.39255 0.0
H884 H 0.02831 0.53268 0.37779 0.0
H885 H 0.06472 0.55446 0.41998 0.0
H886 H 0.07761 0.58611 0.43966 0.0
H887 H 0.96981 0.56355 0.44186 0.0
H888 H 0.95642 0.53217 0.42209 0.0
H889 H 0.92929 0.34682 0.39304 0.0
H890 H 0.97324 0.40959 0.39009 0.0
H891 H 0.89847 0.4389 0.40363 0.0
H892 H 0.85439 0.37645 0.40643 0.0
H893 H 0.96028 0.47416 0.41536 0.0
H894 H 0.92259 0.45063 0.37369 0.0
H895 H 0.90941 0.42081 0.35364 0.0
H896 H 0.01799 0.44675 0.35018 0.0
H897 H 0.03177 0.4764 0.37027 0.0
C898 C 0.06888 0.63905 0.40181 0.0
C899 C 0.10425 0.64893 0.39915 0.0
C900 C 0.04178 0.60374 0.40066 0.0
C901 C 0.04943 0.57747 0.39687 0.0
C902 C 0.08443 0.58746 0.39369 0.0
C903 C 0.11157 0.62278 0.39486 0.0
C904 C 0.02134 0.53939 0.39689 0.0
C905 C 0.01367 0.51971 0.38602 0.0
C906 C 1.00173 0.52265 0.40758 0.0
C907 C 0.00967 0.54128 0.4195 0.0
C908 C 0.04384 0.55648 0.42462 0.0
C909 C 0.05122 0.57433 0.43579 0.0
C910 C 0.02457 0.57692 0.44199 0.0
C911 C 0.99045 0.56157 0.43704 0.0
C912 C 0.98294 0.54373 0.42586 0.0
C913 C 0.92195 0.36659 0.39515 0.0
C914 C 0.88839 0.35651 0.40011 0.0
C915 C 0.94714 0.40251 0.39347 0.0
C916 C 0.93922 0.42905 0.39666 0.0
C917 C 0.90532 0.41897 0.40118 0.0
C918 C 0.88019 0.38319 0.40284 0.0
C919 C 0.96693 0.46727 0.39623 0.0
C920 C 0.97472 0.48702 0.40708 0.0
C921 C 0.98649 0.48396 0.38551 0.0
C922 C 0.97812 0.46538 0.37356 0.0
C923 C 0.94358 0.44961 0.36872 0.0
C924 C 0.93602 0.43284 0.35733 0.0
C925 C 0.96282 0.43179 0.35066 0.0
C926 C 0.99724 0.44753 0.35536 0.0
C927 C 1.00495 0.46435 0.36675 0.0
H928 H 0.95693 0.41886 0.34183 0.0
H929 H 0.03034 0.59075 0.45065 0.0
H930 H 0.86686 0.48601 0.28295 0.0
H931 H 0.91404 0.47131 0.2844 0.0
H932 H 0.99182 0.58009 0.27653 0.0
H933 H 0.94465 0.59468 0.27459 0.0
H934 H 1.00254 0.53805 0.26251 0.0
H935 H 0.98386 0.54192 0.30526 0.0
H936 H 0.95147 0.52807 0.32481 0.0
H937 H 0.92024 0.41823 0.32078 0.0
H938 H 0.95199 0.43129 0.3011 0.0
H939 H 0.15289 0.51977 0.2721 0.0
H940 H 0.10816 0.53704 0.2755 0.0
H941 H 0.0275 0.42707 0.27884 0.0
H942 H 0.07209 0.40944 0.27525 0.0
H943 H 0.01955 0.47069 0.2959 0.0
H944 H 0.03638 0.46788 0.25245 0.0
H945 H 0.07163 0.48332 0.23349 0.0
H946 H 0.10826 0.59369 0.23961 0.0
H947 H 0.07361 0.57893 0.25871 0.0
C948 C 0.89401 0.50687 0.28156 0.0
C949 C 0.90184 0.54152 0.27856 0.0
C950 C 0.92107 0.49849 0.28254 0.0
C951 C 0.95664 0.5246 0.28066 0.0
C952 C 0.96462 0.55944 0.27805 0.0
C953 C 0.93759 0.56784 0.27704 0.0
C954 C 0.98511 0.51504 0.2804 0.0
C955 C 0.00657 0.52388 0.26994 0.0
C956 C 0.98994 0.49568 0.28993 0.0
C957 C 0.97001 0.48755 0.30161 0.0
C958 C 0.96973 0.51473 0.30846 0.0
C959 C 0.95157 0.50704 0.31959 0.0
C960 C 0.93374 0.47228 0.32402 0.0
C961 C 0.93402 0.44513 0.31732 0.0
C962 C 0.95211 0.45267 0.30618 0.0
C963 C 0.12564 0.49918 0.27354 0.0
C964 C 0.11607 0.46315 0.27322 0.0
C965 C 0.10011 0.50914 0.27555 0.0
C966 C 0.06438 0.48334 0.27726 0.0
C967 C 0.05492 0.44743 0.27754 0.0
C968 C 0.08049 0.4374 0.2755 0.0
C969 C 0.03675 0.49386 0.27806 0.0
C970 C 0.01545 0.48505 0.28856 0.0
C971 C 0.0321 0.51343 0.26861 0.0
C972 C 0.05268 0.52232 0.25707 0.0
C973 C 0.05216 0.49546 0.2498 0.0
C974 C 0.072 0.50409 0.23902 0.0
C975 C 0.09224 0.53947 0.23536 0.0
C976 C 0.0926 0.5663 0.24246 0.0
C977 C 0.07285 0.55782 0.25326 0.0
H978 H 0.10759 0.5461 0.22701 0.0
H979 H 0.91979 0.4664 0.33265 0.0
H980 H 0.63436 0.14607 0.93291 0.0
H981 H 0.57278 0.10076 0.93646 0.0
H982 H 0.6066 0.02817 0.94879 0.0
H983 H 0.66844 0.07312 0.9448 0.0
H984 H 0.55376 0.99638 0.93309 0.0
H985 H 0.57348 0.06588 0.96891 0.0
H986 H 0.59234 0.12016 0.98101 0.0
H987 H 0.51565 0.13811 0.9625 0.0
H988 H 0.49664 0.08419 0.95016 0.0
H989 H 0.37984 0.8664 0.95062 0.0
H990 H 0.44245 0.91166 0.9523 0.0
H991 H 0.41942 0.98959 0.93728 0.0
H992 H 0.35676 0.94439 0.93546 0.0
H993 H 0.46749 0.01685 0.9561 0.0
H994 H 0.45181 0.94972 0.91923 0.0
H995 H 0.43292 0.8951 0.90732 0.0
H996 H 0.50277 0.87258 0.92834 0.0
H997 H 0.5217 0.92685 0.9405 0.0
C998 C 0.62877 0.12046 0.93637 0.0
C999 C 0.65642 0.1132 0.93849 0.0
C1000 C 0.59349 0.09467 0.93854 0.0
C1001 C 0.58494 0.06108 0.94302 0.0
C1002 C 0.6125 0.05392 0.94537 0.0
C1003 C 0.64789 0.07975 0.94318 0.0
C1004 C 0.54715 0.03292 0.94451 0.0
C1005 C 0.5351 1.00066 0.93834 0.0
C1006 C 0.52249 0.03864 0.95114 0.0
C1007 C 0.53383 0.07112 0.95854 0.0
C1008 C 0.56082 0.08154 0.96735 0.0
C1009 C 0.5715 0.11223 0.97426 0.0
C1010 C 0.55526 0.13261 0.9725 0.0
C1011 C 0.52823 0.12231 0.96384 0.0
C1012 C 0.51746 0.09166 0.9569 0.0
C1013 C 0.38805 0.89318 0.94768 0.0
C1014 C 0.36326 0.90163 0.94278 0.0
C1015 C 0.42386 0.91905 0.94868 0.0
C1016 C 0.43574 0.95392 0.94475 0.0
C1017 C 0.41087 0.96286 0.94037 0.0
C1018 C 0.37501 0.93698 0.93937 0.0
C1019 C 0.47426 0.98061 0.94461 0.0
C1020 C 0.48635 0.01255 0.95099 0.0
C1021 C 0.49903 0.9746 0.93821 0.0
C1022 C 0.48787 0.94213 0.93085 0.0
C1023 C 0.46294 0.93298 0.92137 0.0
C1024 C 0.45225 0.90211 0.91457 0.0
C1025 C 0.46656 0.88033 0.9171 0.0
C1026 C 0.49166 0.88944 0.92641 0.0
C1027 C 0.50239 0.92026 0.93325 0.0
H1028 H 0.45826 0.85645 0.91182 0.0
H1029 H 0.56357 0.15635 0.97786 0.0
H1030 H 0.59979 0.65553 0.58703 0.0
H1031 H 0.57976 0.59239 0.58884 0.0
H1032 H 0.49702 0.57931 0.61357 0.0
H1033 H 0.51683 0.64263 0.61175 0.0
H1034 H 0.5274 0.54049 0.62096 0.0
H1035 H 0.47753 0.55603 0.58407 0.0
H1036 H 0.47822 0.58268 0.56409 0.0
H1037 H 0.54805 0.54855 0.54979 0.0
H1038 H 0.54819 0.52212 0.56975 0.0
H1039 H 0.42811 0.35089 0.61397 0.0
H1040 H 0.44644 0.41402 0.61469 0.0
H1041 H 0.53052 0.43697 0.5891 0.0
H1042 H 0.51176 0.37408 0.58804 0.0
H1043 H 0.49585 0.47026 0.58265 0.0
H1044 H 0.5467 0.4559 0.61987 0.0
H1045 H 0.54594 0.42957 0.63993 0.0
H1046 H 0.47343 0.46103 0.65365 0.0
H1047 H 0.4734 0.48713 0.63361 0.0
C1048 C 0.57729 0.63927 0.59285 0.0
C1049 C 0.55969 0.65417 0.59913 0.0
C1050 C 0.56591 0.60314 0.5939 0.0
C1051 C 0.53648 0.58091 0.60118 0.0
C1052 C 0.51972 0.59589 0.60787 0.0
C1053 C 0.53116 0.63214 0.60685 0.0
C1054 C 0.52258 0.54193 0.6014 0.0
C1055 C 0.52002 0.52501 0.61261 0.0
C1056 C 0.51334 0.52173 0.59049 0.0
C1057 C 0.51312 0.53737 0.57844 0.0
C1058 C 0.49324 0.55443 0.57669 0.0
C1059 C 0.49345 0.56946 0.56536 0.0
C1060 C 0.51323 0.56738 0.55568 0.0
C1061 C 0.53277 0.55017 0.5573 0.0
C1062 C 0.53269 0.53513 0.56862 0.0
C1063 C 0.45043 0.36937 0.60847 0.0
C1064 C 0.46853 0.35731 0.60099 0.0
C1065 C 0.4611 0.40553 0.60898 0.0
C1066 C 0.49011 0.4304 0.60204 0.0
C1067 C 0.50814 0.41839 0.59457 0.0
C1068 C 0.49756 0.38236 0.59407 0.0
C1069 C 0.50126 0.46882 0.6022 0.0
C1070 C 0.50314 0.48565 0.59103 0.0
C1071 C 0.50976 0.48881 0.61315 0.0
C1072 C 0.50974 0.47311 0.6252 0.0
C1073 C 0.53035 0.45693 0.62713 0.0
C1074 C 0.53011 0.4421 0.63851 0.0
C1075 C 0.50957 0.44353 0.64805 0.0
C1076 C 0.48929 0.45988 0.64625 0.0
C1077 C 0.4894 0.47472 0.63488 0.0
H1078 H 0.50943 0.43205 0.65685 0.0
H1079 H 0.51336 0.57904 0.54692 0.0
H1080 H 0.98111 0.22797 0.99547 0.0
H1081 H 0.03116 0.23209 0.00694 0.0
H1082 H 0.09226 0.25694 0.97371 0.0
H1083 H 0.0417 0.25153 0.96207 0.0
H1084 H 0.09902 0.20889 0.98651 0.0
H1085 H 0.10892 0.32079 0.99563 0.0
H1086 H 0.08846 0.3615 1.00246 0.0
H1087 H 0.06491 0.313 0.03801 0.0
H1088 H 0.08478 0.27165 0.03134 0.0
H1089 H 0.26224 0.25638 0.01577 0.0
H1090 H 0.216 0.25956 0.0041 0.0
H1091 H 0.15049 0.23093 0.03636 0.0
H1092 H 0.19665 0.22753 0.0481 0.0
H1093 H 0.14753 0.28287 0.02372 0.0
H1094 H 0.13576 0.16969 0.01422 0.0
H1095 H 0.15652 0.12926 0.00734 0.0
H1096 H 0.18394 0.18086 0.97233 0.0
H1097 H 0.16379 0.22195 0.97906 0.0
C1098 C 1.00511 0.23415 0.99056 0.0
C1099 C 0.00721 0.23929 0.9778 0.0
C1100 C 0.03393 0.23691 0.99718 0.0
C1101 C 0.06576 0.24522 0.99124 0.0
C1102 C 0.06808 0.25062 0.97852 0.0
C1103 C 0.0392 0.24782 0.97188 0.0
C1104 C 0.09607 0.24699 0.99825 0.0
C1105 C 0.11 0.22555 0.99452 0.0
C1106 C 0.10997 0.26804 0.0089 0.0
C1107 C 0.09804 0.2929 0.01295 0.0
C1108 C 0.09911 0.31862 0.00488 0.0
C1109 C 0.08767 0.34184 0.00872 0.0
C1110 C 0.07531 0.33978 0.02065 0.0
C1111 C 0.07445 0.31454 0.02877 0.0
C1112 C 0.08584 0.29123 0.02496 0.0
C1113 C 0.23795 0.2506 0.02039 0.0
C1114 C 0.23311 0.24135 0.03287 0.0
C1115 C 0.21152 0.2525 0.0137 0.0
C1116 C 0.17945 0.24495 0.01928 0.0
C1117 C 0.17496 0.23683 0.03183 0.0
C1118 C 0.20145 0.235 0.03855 0.0
C1119 C 0.15035 0.24474 0.01198 0.0
C1120 C 0.13664 0.26638 0.01567 0.0
C1121 C 0.13666 0.22392 1.00128 0.0
C1122 C 0.1486 0.19912 0.99719 0.0
C1123 C 0.14646 0.17259 0.00509 0.0
C1124 C 0.15808 0.14952 1.00121 0.0
C1125 C 0.17162 0.15255 0.98942 0.0
C1126 C 0.17349 0.17858 0.98146 0.0
C1127 C 0.16195 0.20175 0.9853 0.0
H1128 H 0.1806 0.13466 0.98643 0.0
H1129 H 0.06647 0.35779 0.02361 0.0
H1130 H 0.74509 0.01918 0.64974 0.0
H1131 H 0.78996 0.06842 0.66192 0.0
H1132 H 0.87065 0.0482 0.64784 0.0
H1133 H 0.82608 0.99912 0.63568 0.0
H1134 H 0.87724 0.05689 0.67186 0.0
H1135 H 0.86207 0.11965 0.63817 0.0
H1136 H 0.82827 0.13652 0.62428 0.0
H1137 H 0.79468 0.17445 0.65477 0.0
H1138 H 0.82792 0.15737 0.66887 0.0
H1139 H 0.03421 0.21219 0.68841 0.0
H1140 H 0.98485 0.16494 0.67717 0.0
H1141 H 0.91274 0.19278 0.69412 0.0
H1142 H 0.96244 0.24113 0.70516 0.0
H1143 H 0.89853 0.17985 0.66994 0.0
H1144 H 0.91587 0.11985 0.70352 0.0
H1145 H 0.94973 0.10324 0.71747 0.0
H1146 H 0.97874 0.05985 0.68735 0.0
H1147 H 0.94545 0.07666 0.67318 0.0
C1148 C 0.77247 0.02551 0.64911 0.0
C1149 C 0.78189 0.00503 0.64174 0.0
C1150 C 0.79813 0.05368 0.6561 0.0
C1151 C 0.83384 0.06224 0.65578 0.0
C1152 C 0.84331 0.04207 0.64832 0.0
C1153 C 0.81772 0.01391 0.64138 0.0
C1154 C 0.86134 0.09151 0.66342 0.0
C1155 C 0.88212 0.08385 0.67132 0.0
C1156 C 0.86708 0.12653 0.66306 0.0
C1157 C 0.84716 0.13687 0.65459 0.0
C1158 C 0.84724 0.13132 0.64192 0.0
C1159 C 0.82823 0.14097 0.63401 0.0
C1160 C 0.80925 0.15645 0.63864 0.0
C1161 C 0.80934 0.1624 0.65119 0.0
C1162 C 0.82828 0.15277 0.65915 0.0
C1163 C 0.00795 0.20859 0.68969 0.0
C1164 C 1.00243 0.23064 0.6977 0.0
C1165 C 0.97962 0.18124 0.68333 0.0
C1166 C 0.94491 0.17492 0.68488 0.0
C1167 C 0.93923 0.19701 0.69279 0.0
C1168 C 0.96765 0.22447 0.69918 0.0
C1169 C 0.91479 0.1453 0.6782 0.0
C1170 C 0.89349 0.15284 0.67052 0.0
C1171 C 0.90848 0.1101 0.67876 0.0
C1172 C 0.9284 0.09979 0.68727 0.0
C1173 C 0.92968 0.107 0.69985 0.0
C1174 C 0.94874 0.09751 0.70781 0.0
C1175 C 0.96644 0.08057 0.7033 0.0
C1176 C 0.96504 0.073 0.69083 0.0
C1177 C 0.94605 0.08247 0.68284 0.0
H1178 H 0.98118 0.07325 0.70947 0.0
H1179 H 0.79456 0.1639 0.63249 0.0
H1180 H 0.723 0.97297 0.36425 0.0
H1181 H 0.72017 0.92249 0.35338 0.0
H1182 H 0.83404 0.97953 0.34972 0.0
H1183 H 0.83709 0.02988 0.3606 0.0
H1184 H 0.80368 0.94946 0.32856 0.0
H1185 H 0.79076 0.91137 0.37059 0.0
H1186 H 0.76337 0.89752 0.39107 0.0
H1187 H 0.66427 0.81915 0.37549 0.0
H1188 H 0.69097 0.83289 0.35489 0.0
H1189 H 0.83902 0.81332 0.31253 0.0
H1190 H 0.83481 0.86067 0.32287 0.0
H1191 H 0.72097 0.79495 0.32428 0.0
H1192 H 0.72508 0.74684 0.31423 0.0
H1193 H 0.74663 0.82787 0.34584 0.0
H1194 H 0.76012 0.86347 0.30398 0.0
H1195 H 0.78726 0.87707 0.28348 0.0
H1196 H 0.88464 0.96003 0.29858 0.0
H1197 H 0.85824 0.94659 0.31921 0.0
C1198 C 0.74748 0.97463 0.36126 0.0
C1199 C 0.78027 0.00563 0.36329 0.0
C1200 C 0.74582 0.94573 0.35501 0.0
C1201 C 0.77692 0.94704 0.35076 0.0
C1202 C 0.80964 0.97788 0.35283 0.0
C1203 C 0.81132 0.00674 0.35904 0.0
C1204 C 0.77561 0.91666 0.344 0.0
C1205 C 0.79154 0.92297 0.33241 0.0
C1206 C 0.7588 0.88177 0.34882 0.0
C1207 C 0.74276 0.87344 0.36119 0.0
C1208 C 0.76305 0.89139 0.37152 0.0
C1209 C 0.74767 0.88352 0.38315 0.0
C1210 C 0.71207 0.85755 0.38457 0.0
C1211 C 0.69182 0.83931 0.37437 0.0
C1212 C 0.70707 0.84711 0.36272 0.0
C1213 C 0.81306 0.80875 0.3151 0.0
C1214 C 0.78239 0.77614 0.31255 0.0
C1215 C 0.81066 0.83605 0.32092 0.0
C1216 C 0.77754 0.83162 0.32426 0.0
C1217 C 0.74683 0.79909 0.32176 0.0
C1218 C 0.7492 0.7717 0.31592 0.0
C1219 C 0.77523 0.86085 0.3305 0.0
C1220 C 0.75859 0.85432 0.34196 0.0
C1221 C 0.79132 0.89557 0.32557 0.0
C1222 C 0.80728 0.90381 0.31316 0.0
C1223 C 0.78741 0.88444 0.30295 0.0
C1224 C 0.80265 0.89215 0.2913 0.0
C1225 C 0.83768 0.91934 0.28973 0.0
C1226 C 0.85752 0.93894 0.29981 0.0
C1227 C 0.84242 0.93132 0.31148 0.0
H1228 H 0.84942 0.92528 0.2807 0.0
H1229 H 0.70021 0.85149 0.39358 0.0
H1230 H 0.81103 0.78773 0.04561 0.0
H1231 H 0.85852 0.78457 0.03483 0.0
H1232 H 0.79777 0.75787 1.00143 0.0
H1233 H 0.74969 0.76007 0.01223 0.0
H1234 H 0.83006 0.71851 0.00412 0.0
H1235 H 0.86434 0.84151 0.00621 0.0
H1236 H 0.87657 0.89704 0.01633 0.0
H1237 H 0.95792 0.89513 0.03802 0.0
H1238 H 0.94582 0.83928 0.02814 0.0
H1239 H 0.97452 0.76161 0.96314 0.0
H1240 H 0.92338 0.75747 0.97395 0.0
H1241 H 0.98304 0.78705 0.00762 0.0
H1242 H 0.03406 0.79097 0.99693 0.0
H1243 H 0.95052 0.82451 0.00453 0.0
H1244 H 0.91651 0.7015 1.00225 0.0
H1245 H 0.9041 0.64599 0.99206 0.0
H1246 H 0.82241 0.64795 0.9706 0.0
H1247 H 0.83466 0.70377 0.98054 0.0
C1248 C 0.80748 0.78066 0.03601 0.0
C1249 C 0.77654 0.77435 0.02979 0.0
C1250 C 0.83484 0.77917 0.02982 0.0
C1251 C 0.83199 0.77147 0.01726 0.0
C1252 C 0.80069 0.76404 0.0111 0.0
C1253 C 0.77333 0.7656 0.01728 0.0
C1254 C 0.86204 0.77218 0.01049 0.0
C1255 C 0.8563 0.74183 0.00408 0.0
C1256 C 0.89648 0.80237 0.01059 0.0
C1257 C 0.90392 0.83603 0.01652 0.0
C1258 C 0.88465 0.85278 0.0132 0.0
C1259 C 0.89159 0.88434 0.01889 0.0
C1260 C 0.91794 0.89956 0.02784 0.0
C1261 C 0.93748 0.88329 0.0311 0.0
C1262 C 0.93061 0.85169 0.02545 0.0
C1263 C 0.97662 0.76674 0.97288 0.0
C1264 C 0.00857 0.77678 0.97913 0.0
C1265 C 0.94732 0.76441 0.97906 0.0
C1266 C 0.94921 0.77179 0.99164 0.0
C1267 C 0.98092 0.7814 0.99791 0.0
C1268 C 0.01016 0.78375 0.99176 0.0
C1269 C 0.9187 0.77072 0.99822 0.0
C1270 C 0.92432 0.80112 0.00457 0.0
C1271 C 0.8842 0.74058 0.99804 0.0
C1272 C 0.87676 0.70702 0.99205 0.0
C1273 C 0.8961 0.69026 0.99528 0.0
C1274 C 0.88906 0.65871 0.98956 0.0
C1275 C 0.86255 0.6435 0.98066 0.0
C1276 C 0.84297 0.65978 0.97748 0.0
C1277 C 0.84993 0.69136 0.98316 0.0
H1278 H 0.85713 0.61907 0.97625 0.0
H1279 H 0.92329 0.924 0.03223 0.0
H1280 H 0.25145 0.96835 0.63898 0.0
H1281 H 0.20494 0.91803 0.65032 0.0
H1282 H 0.15744 0.981 0.65997 0.0
H1283 H 0.20353 0.03116 0.64862 0.0
H1284 H 0.16127 0.94611 0.67952 0.0
H1285 H 0.1218 0.91632 0.63772 0.0
H1286 H 0.12752 0.90446 0.61604 0.0
H1287 H 0.14385 0.81861 0.62654 0.0
H1288 H 0.13869 0.83027 0.6483 0.0
H1289 H 0.99021 0.81742 0.69909 0.0
H1290 H 0.04113 0.86389 0.68817 0.0
H1291 H 0.07855 0.79092 0.68076 0.0
H1292 H 0.02687 0.74379 0.6914 0.0
H1293 H 0.08329 0.82868 0.66062 0.0
H1294 H 0.11919 0.85566 0.70225 0.0
H1295 H 0.11372 0.86715 0.72398 0.0
H1296 H 0.10505 0.95793 0.71399 0.0
H1297 H 0.10997 0.94669 0.69218 0.0
C1298 C 0.23089 0.97138 0.6434 0.0
C1299 C 0.2314 0.00395 0.64289 0.0
C1300 C 0.20432 0.94257 0.64991 0.0
C1301 C 0.17749 0.94559 0.65598 0.0
C1302 C 0.17791 0.97801 0.65545 0.0
C1303 C 0.20441 0.00676 0.64897 0.0
C1304 C 0.14912 0.91529 0.66301 0.0
C1305 C 0.14399 0.92055 0.67534 0.0
C1306 C 0.12724 0.88151 0.65771 0.0
C1307 C 0.13025 0.87442 0.64464 0.0
C1308 C 0.1269 0.8951 0.63541 0.0
C1309 C 0.12999 0.88838 0.62311 0.0
C1310 C 0.13615 0.86087 0.61992 0.0
C1311 C 0.13914 0.83995 0.62903 0.0
C1312 C 0.13611 0.84659 0.64134 0.0
C1313 C 0.00912 0.8111 0.69509 0.0
C1314 C 1.00431 0.77674 0.69613 0.0
C1315 C 0.03848 0.83787 0.68894 0.0
C1316 C 0.06399 0.83111 0.68373 0.0
C1317 C 0.05933 0.79686 0.68473 0.0
C1318 C 0.02991 0.77001 0.69091 0.0
C1319 C 0.09504 0.85974 0.67706 0.0
C1320 C 0.10072 0.85415 0.66482 0.0
C1321 C 0.11754 0.89323 0.68245 0.0
C1322 C 0.11465 0.90014 0.69557 0.0
C1323 C 0.11584 0.87791 0.70468 0.0
C1324 C 0.11289 0.88441 0.71701 0.0
C1325 C 0.10896 0.9132 0.72036 0.0
C1326 C 0.10806 0.93561 0.71138 0.0
C1327 C 0.11097 0.92922 0.69903 0.0
H1328 H 0.10668 0.91819 0.72992 0.0
H1329 H 0.13853 0.8557 0.61039 0.0
H1330 H 0.17538 0.96981 0.35447 0.0
H1331 H 0.17956 0.01981 0.34297 0.0
H1332 H 0.28739 0.0855 0.35525 0.0
H1333 H 0.28351 0.0353 0.36676 0.0
H1334 H 0.2511 0.12101 0.35628 0.0
H1335 H 0.27062 0.05309 0.32633 0.0
H1336 H 0.2583 0.99932 0.31493 0.0
H1337 H 0.15931 0.98729 0.30243 0.0
H1338 H 0.17081 0.04073 0.31391 0.0
H1339 H 0.28341 0.25838 0.31337 0.0
H1340 H 0.28756 0.21177 0.32455 0.0
H1341 H 0.17975 0.13645 0.31452 0.0
H1342 H 0.17574 0.18255 0.30308 0.0
H1343 H 0.22153 0.1079 0.31206 0.0
H1344 H 0.20091 0.17409 0.34309 0.0
H1345 H 0.21347 0.22781 0.35458 0.0
H1346 H 0.31548 0.24338 0.36494 0.0
H1347 H 0.3037 0.18997 0.35337 0.0
C1348 C 0.20015 0.99476 0.35465 0.0
C1349 C 0.22925 0.99831 0.36145 0.0
C1350 C 0.20247 0.02341 0.34808 0.0
C1351 C 0.23399 0.05634 0.34806 0.0
C1352 C 0.26282 0.06034 0.35508 0.0
C1353 C 0.26052 0.03161 0.36169 0.0
C1354 C 0.23658 0.08639 0.34068 0.0
C1355 C 0.24523 0.11835 0.34657 0.0
C1356 C 0.22841 0.08284 0.32803 0.0
C1357 C 0.22145 0.05076 0.32107 0.0
C1358 C 0.2461 0.03883 0.32123 0.0
C1359 C 0.23928 0.00843 0.31474 0.0
C1360 C 0.20801 0.98985 0.30798 0.0
C1361 C 0.18352 1.00169 0.30768 0.0
C1362 C 0.19019 0.03206 0.31416 0.0
C1363 C 0.26072 0.23181 0.31343 0.0
C1364 C 0.22916 0.22432 0.30737 0.0
C1365 C 0.26302 0.20524 0.31993 0.0
C1366 C 0.23381 0.17062 0.32052 0.0
C1367 C 0.2026 0.16293 0.31425 0.0
C1368 C 0.20025 0.18944 0.30779 0.0
C1369 C 0.23547 0.14232 0.32769 0.0
C1370 C 0.22766 0.11067 0.32175 0.0
C1371 C 0.2445 0.14621 0.34028 0.0
C1372 C 0.25158 0.17827 0.34725 0.0
C1373 C 0.22614 0.18913 0.34774 0.0
C1374 C 0.23309 0.2195 0.35428 0.0
C1375 C 0.2653 0.23906 0.36046 0.0
C1376 C 0.29058 0.22824 0.36013 0.0
C1377 C 0.28376 0.19792 0.35359 0.0
H1378 H 0.27063 0.26256 0.36552 0.0
H1379 H 0.20278 0.96633 0.30296 0.0
loop_
_geom_bond_atom_site_label_1
_geom_bond_atom_site_label_2
_geom_bond_distance
_geom_bond_site_symmetry_2
_ccdc_geom_bond_type
C0 C1 1.264 . S
C0 C5 1.479 . S
C0 C10 1.465 . S
C1 C0 1.264 . S
C1 C3 1.339 . S
C1 H28 0.931 . S
C2 C3 1.395 . S
C2 C4 1.320 . S
C3 C1 1.339 . S
C3 C2 1.395 . S
C3 H29 0.929 . S
C4 C2 1.320 . S
C4 C5 1.405 . S
C4 H30 0.930 . S
C5 C0 1.479 . S
C5 C4 1.405 . S
C5 H31 0.931 . S
U6 O7 2.454 . S
U6 O8 2.458 . S
U6 C9 2.984 . S
U6 C10 2.847 . S
U6 C23 2.882 . S
U6 O24 2.441 . S
U6 O25 2.420 . S
U6 O26 2.455 . S
U6 O27 2.449 . S
O7 U6 2.454 . S
O7 C9 1.353 . S
O8 U6 2.458 . S
O8 C9 1.286 . S
C9 U6 2.984 . S
C9 O7 1.353 . S
C9 O8 1.286 . S
C9 C11 1.363 . S
C10 C0 1.465 . S
C10 U6 2.847 . S
C10 O24 1.249 . S
C10 O25 1.202 . S
C11 C9 1.363 . S
C11 C13 1.408 . S
C11 C16 1.342 . S
C12 C13 1.310 . S
C12 C15 1.461 . S
C12 H32 0.932 . S
C13 C11 1.408 . S
C13 C12 1.310 . S
C13 H33 0.930 . S
C14 C15 1.474 . S
C14 C16 1.285 . S
C14 H34 0.929 . S
C15 C12 1.461 . S
C15 C14 1.474 . S
C16 C11 1.342 . S
C16 C14 1.285 . S
C16 H35 0.930 . S
C17 C20 1.424 . S
C17 C22 1.245 . S
C17 C23 1.428 . S
C18 C21 1.260 . S
C18 C22 1.477 . S
C18 H36 0.932 . S
C19 C20 1.384 . S
C19 C21 1.479 . S
C19 H37 0.929 . S
C20 C17 1.424 . S
C20 C19 1.384 . S
C20 H38 0.928 . S
C21 C18 1.260 . S
C21 C19 1.479 . S
C22 C17 1.245 . S
C22 C18 1.477 . S
C22 H39 0.932 . S
C23 U6 2.882 . S
C23 C17 1.428 . S
C23 O26 1.301 . S
C23 O27 1.282 . S
O24 U6 2.441 . S
O24 C10 1.249 . S
O25 U6 2.420 . S
O25 C10 1.202 . S
O26 U6 2.455 . S
O26 C23 1.301 . S
O27 U6 2.449 . S
O27 C23 1.282 . S
H28 C1 0.931 . S
H29 C3 0.929 . S
H30 C4 0.930 . S
H31 C5 0.931 . S
H32 C12 0.932 . S
H33 C13 0.930 . S
H34 C14 0.929 . S
H35 C16 0.930 . S
H36 C18 0.932 . S
H37 C19 0.929 . S
H38 C20 0.928 . S
H39 C22 0.932 . S
C40 C41 1.264 . S
C40 C45 1.479 . S
C40 C50 1.465 . S
C41 C40 1.264 . S
C41 C43 1.339 . S
C41 H68 0.931 . S
C42 C43 1.395 . S
C42 C44 1.320 . S
C43 C41 1.339 . S
C43 C42 1.395 . S
C43 H69 0.929 . S
C44 C42 1.320 . S
C44 C45 1.405 . S
C44 H70 0.930 . S
C45 C40 1.479 . S
C45 C44 1.405 . S
C45 H71 0.931 . S
U46 O47 2.454 . S
U46 O48 2.458 . S
U46 C49 2.984 . S
U46 C50 2.847 . S
U46 C63 2.882 . S
U46 O64 2.441 . S
U46 O65 2.420 . S
U46 O66 2.455 . S
U46 O67 2.449 . S
O47 U46 2.454 . S
O47 C49 1.353 . S
O48 U46 2.458 . S
O48 C49 1.286 . S
C49 U46 2.984 . S
C49 O47 1.353 . S
C49 O48 1.286 . S
C49 C51 1.363 . S
C50 C40 1.465 . S
C50 U46 2.847 . S
C50 O64 1.249 . S
C50 O65 1.202 . S
C51 C49 1.363 . S
C51 C53 1.408 . S
C51 C56 1.342 . S
C52 C53 1.310 . S
C52 C55 1.461 . S
C52 H72 0.932 1_455 S
C53 C51 1.408 . S
C53 C52 1.310 . S
C53 H73 0.930 . S
C54 C55 1.474 . S
C54 C56 1.285 . S
C54 H74 0.929 . S
C55 C52 1.461 . S
C55 C54 1.474 . S
C56 C51 1.342 . S
C56 C54 1.285 . S
C56 H75 0.930 . S
C57 C60 1.424 . S
C57 C62 1.245 . S
C57 C63 1.428 . S
C58 C61 1.260 . S
C58 C62 1.477 . S
C58 H76 0.932 . S
C59 C60 1.384 . S
C59 C61 1.479 . S
C59 H77 0.929 . S
C60 C57 1.424 . S
C60 C59 1.384 . S
C60 H78 0.928 . S
C61 C58 1.260 . S
C61 C59 1.479 . S
C62 C57 1.245 . S
C62 C58 1.477 . S
C62 H79 0.932 . S
C63 U46 2.882 . S
C63 C57 1.428 . S
C63 O66 1.301 . S
C63 O67 1.282 . S
O64 U46 2.441 . S
O64 C50 1.249 . S
O65 U46 2.420 . S
O65 C50 1.202 . S
O66 U46 2.455 . S
O66 C63 1.301 . S
O67 U46 2.449 . S
O67 C63 1.282 . S
H68 C41 0.931 . S
H69 C43 0.929 . S
H70 C44 0.930 . S
H71 C45 0.931 . S
H72 C52 0.932 1_655 S
H73 C53 0.930 . S
H74 C54 0.929 . S
H75 C56 0.930 . S
H76 C58 0.932 . S
H77 C59 0.929 . S
H78 C60 0.928 . S
H79 C62 0.932 . S
C80 C81 1.264 . S
C80 C85 1.479 . S
C80 C90 1.465 . S
C81 C80 1.264 . S
C81 C83 1.339 . S
C81 H108 0.931 . S
C82 C83 1.395 . S
C82 C84 1.320 . S
C83 C81 1.339 . S
C83 C82 1.395 . S
C83 H109 0.929 . S
C84 C82 1.320 . S
C84 C85 1.405 . S
C84 H110 0.930 . S
C85 C80 1.479 . S
C85 C84 1.405 . S
C85 H111 0.931 . S
U86 O87 2.454 . S
U86 O88 2.458 . S
U86 C89 2.984 . S
U86 C90 2.847 . S
U86 C103 2.882 . S
U86 O104 2.441 . S
U86 O105 2.420 . S
U86 O106 2.455 . S
U86 O107 2.449 . S
O87 U86 2.454 . S
O87 C89 1.353 . S
O88 U86 2.458 . S
O88 C89 1.286 . S
C89 U86 2.984 . S
C89 O87 1.353 . S
C89 O88 1.286 . S
C89 C91 1.363 . S
C90 C80 1.465 . S
C90 U86 2.847 . S
C90 O104 1.249 . S
C90 O105 1.202 . S
C91 C89 1.363 . S
C91 C93 1.408 . S
C91 C96 1.342 . S
C92 C93 1.310 . S
C92 C95 1.461 . S
C92 H112 0.932 1_545 S
C93 C91 1.408 . S
C93 C92 1.310 . S
C93 H113 0.930 . S
C94 C95 1.474 . S
C94 C96 1.285 . S
C94 H114 0.929 . S
C95 C92 1.461 . S
C95 C94 1.474 . S
C96 C91 1.342 . S
C96 C94 1.285 . S
C96 H115 0.930 . S
C97 C100 1.424 . S
C97 C102 1.245 . S
C97 C103 1.428 . S
C98 C101 1.260 . S
C98 C102 1.477 . S
C98 H116 0.932 . S
C99 C100 1.384 . S
C99 C101 1.479 . S
C99 H117 0.929 . S
C100 C97 1.424 . S
C100 C99 1.384 . S
C100 H118 0.928 . S
C101 C98 1.260 . S
C101 C99 1.479 . S
C102 C97 1.245 . S
C102 C98 1.477 . S
C102 H119 0.932 . S
C103 U86 2.882 . S
C103 C97 1.428 . S
C103 O106 1.301 . S
C103 O107 1.282 . S
O104 U86 2.441 . S
O104 C90 1.249 . S
O105 U86 2.420 . S
O105 C90 1.202 . S
O106 U86 2.455 . S
O106 C103 1.301 . S
O107 U86 2.449 . S
O107 C103 1.282 . S
H108 C81 0.931 . S
H109 C83 0.929 . S
H110 C84 0.930 . S
H111 C85 0.931 . S
H112 C92 0.932 1_565 S
H113 C93 0.930 . S
H114 C94 0.929 . S
H115 C96 0.930 . S
H116 C98 0.932 . S
H117 C99 0.929 . S
H118 C100 0.928 . S
H119 C102 0.932 . S
C120 C121 1.264 . S
C120 C125 1.479 . S
C120 C130 1.465 . S
C121 C120 1.264 . S
C121 C123 1.339 . S
C121 H148 0.931 . S
C122 C123 1.395 . S
C122 C124 1.320 . S
C123 C121 1.339 . S
C123 C122 1.395 . S
C123 H149 0.929 . S
C124 C122 1.320 . S
C124 C125 1.405 . S
C124 H150 0.930 . S
C125 C120 1.479 . S
C125 C124 1.405 . S
C125 H151 0.931 . S
U126 O127 2.454 . S
U126 O128 2.458 . S
U126 C129 2.984 . S
U126 C130 2.847 . S
U126 C143 2.882 . S
U126 O144 2.441 . S
U126 O145 2.420 . S
U126 O146 2.455 . S
U126 O147 2.449 . S
O127 U126 2.454 . S
O127 C129 1.353 . S
O128 U126 2.458 . S
O128 C129 1.286 . S
C129 U126 2.984 . S
C129 O127 1.353 . S
C129 O128 1.286 . S
C129 C131 1.363 . S
C130 C120 1.465 . S
C130 U126 2.847 . S
C130 O144 1.249 . S
C130 O145 1.202 . S
C131 C129 1.363 . S
C131 C133 1.408 . S
C131 C136 1.342 . S
C132 C133 1.310 . S
C132 C135 1.461 . S
C132 H152 0.932 . S
C133 C131 1.408 . S
C133 C132 1.310 . S
C133 H153 0.930 . S
C134 C135 1.474 . S
C134 C136 1.285 . S
C134 H154 0.929 . S
C135 C132 1.461 . S
C135 C134 1.474 . S
C136 C131 1.342 . S
C136 C134 1.285 . S
C136 H155 0.930 . S
C137 C140 1.424 . S
C137 C142 1.245 . S
C137 C143 1.428 . S
C138 C141 1.260 . S
C138 C142 1.477 . S
C138 H156 0.932 . S
C139 C140 1.384 . S
C139 C141 1.479 . S
C139 H157 0.929 . S
C140 C137 1.424 . S
C140 C139 1.384 . S
C140 H158 0.928 . S
C141 C138 1.260 . S
C141 C139 1.479 . S
C142 C137 1.245 . S
C142 C138 1.477 . S
C142 H159 0.932 . S
C143 U126 2.882 . S
C143 C137 1.428 . S
C143 O146 1.301 . S
C143 O147 1.282 . S
O144 U126 2.441 . S
O144 C130 1.249 . S
O145 U126 2.420 . S
O145 C130 1.202 . S
O146 U126 2.455 . S
O146 C143 1.301 . S
O147 U126 2.449 . S
O147 C143 1.282 . S
H148 C121 0.931 . S
H149 C123 0.929 . S
H150 C124 0.930 . S
H151 C125 0.931 . S
H152 C132 0.932 . S
H153 C133 0.930 . S
H154 C134 0.929 . S
H155 C136 0.930 . S
H156 C138 0.932 . S
H157 C139 0.929 . S
H158 C140 0.928 . S
H159 C142 0.932 . S
C160 C161 1.264 . S
C160 C165 1.479 . S
C160 C170 1.465 . S
C161 C160 1.264 . S
C161 C163 1.339 . S
C161 H188 0.931 . S
C162 C163 1.395 . S
C162 C164 1.320 . S
C163 C161 1.339 . S
C163 C162 1.395 . S
C163 H189 0.929 . S
C164 C162 1.320 . S
C164 C165 1.405 . S
C164 H190 0.930 . S
C165 C160 1.479 . S
C165 C164 1.405 . S
C165 H191 0.931 . S
U166 O167 2.454 . S
U166 O168 2.458 . S
U166 C169 2.984 . S
U166 C170 2.847 . S
U166 C183 2.882 . S
U166 O184 2.441 . S
U166 O185 2.420 . S
U166 O186 2.455 . S
U166 O187 2.449 . S
O167 U166 2.454 . S
O167 C169 1.353 . S
O168 U166 2.458 . S
O168 C169 1.286 . S
C169 U166 2.984 . S
C169 O167 1.353 . S
C169 O168 1.286 . S
C169 C171 1.363 . S
C170 C160 1.465 . S
C170 U166 2.847 . S
C170 O184 1.249 . S
C170 O185 1.202 . S
C171 C169 1.363 . S
C171 C173 1.408 . S
C171 C176 1.342 . S
C172 C173 1.310 . S
C172 C175 1.461 . S
C172 H192 0.932 1_655 S
C173 C171 1.408 . S
C173 C172 1.310 . S
C173 H193 0.930 . S
C174 C175 1.474 . S
C174 C176 1.285 . S
C174 H194 0.929 . S
C175 C172 1.461 . S
C175 C174 1.474 . S
C176 C171 1.342 . S
C176 C174 1.285 . S
C176 H195 0.930 . S
C177 C180 1.424 . S
C177 C182 1.245 . S
C177 C183 1.428 . S
C178 C181 1.260 . S
C178 C182 1.477 . S
C178 H196 0.932 . S
C179 C180 1.384 . S
C179 C181 1.479 . S
C179 H197 0.929 . S
C180 C177 1.424 . S
C180 C179 1.384 . S
C180 H198 0.928 . S
C181 C178 1.260 . S
C181 C179 1.479 . S
C182 C177 1.245 . S
C182 C178 1.477 . S
C182 H199 0.932 . S
C183 U166 2.882 . S
C183 C177 1.428 . S
C183 O186 1.301 . S
C183 O187 1.282 . S
O184 U166 2.441 . S
O184 C170 1.249 . S
O185 U166 2.420 . S
O185 C170 1.202 . S
O186 U166 2.455 . S
O186 C183 1.301 . S
O187 U166 2.449 . S
O187 C183 1.282 . S
H188 C161 0.931 . S
H189 C163 0.929 . S
H190 C164 0.930 . S
H191 C165 0.931 . S
H192 C172 0.932 1_455 S
H193 C173 0.930 . S
H194 C174 0.929 . S
H195 C176 0.930 . S
H196 C178 0.932 . S
H197 C179 0.929 . S
H198 C180 0.928 . S
H199 C182 0.932 . S
C200 C201 1.264 . S
C200 C205 1.479 . S
C200 C210 1.465 . S
C201 C200 1.264 . S
C201 C203 1.339 . S
C201 H228 0.931 . S
C202 C203 1.395 . S
C202 C204 1.320 . S
C203 C201 1.339 . S
C203 C202 1.395 . S
C203 H229 0.929 . S
C204 C202 1.320 . S
C204 C205 1.405 . S
C204 H230 0.930 . S
C205 C200 1.479 . S
C205 C204 1.405 . S
C205 H231 0.931 . S
U206 O207 2.454 . S
U206 O208 2.458 . S
U206 C209 2.984 . S
U206 C210 2.847 . S
U206 C223 2.882 . S
U206 O224 2.441 . S
U206 O225 2.420 . S
U206 O226 2.455 . S
U206 O227 2.449 . S
O207 U206 2.454 . S
O207 C209 1.353 . S
O208 U206 2.458 . S
O208 C209 1.286 . S
C209 U206 2.984 . S
C209 O207 1.353 . S
C209 O208 1.286 . S
C209 C211 1.363 . S
C210 C200 1.465 . S
C210 U206 2.847 . S
C210 O224 1.249 . S
C210 O225 1.202 . S
C211 C209 1.363 . S
C211 C213 1.408 . S
C211 C216 1.342 . S
C212 C213 1.310 . S
C212 C215 1.461 . S
C212 H232 0.932 1_565 S
C213 C211 1.408 . S
C213 C212 1.310 . S
C213 H233 0.930 . S
C214 C215 1.474 . S
C214 C216 1.285 . S
C214 H234 0.929 . S
C215 C212 1.461 . S
C215 C214 1.474 . S
C216 C211 1.342 . S
C216 C214 1.285 . S
C216 H235 0.930 . S
C217 C220 1.424 . S
C217 C222 1.245 . S
C217 C223 1.428 . S
C218 C221 1.260 . S
C218 C222 1.477 . S
C218 H236 0.932 . S
C219 C220 1.384 . S
C219 C221 1.479 . S
C219 H237 0.929 . S
C220 C217 1.424 . S
C220 C219 1.384 . S
C220 H238 0.928 . S
C221 C218 1.260 . S
C221 C219 1.479 . S
C222 C217 1.245 . S
C222 C218 1.477 . S
C222 H239 0.932 . S
C223 U206 2.882 . S
C223 C217 1.428 . S
C223 O226 1.301 . S
C223 O227 1.282 . S
O224 U206 2.441 . S
O224 C210 1.249 . S
O225 U206 2.420 . S
O225 C210 1.202 . S
O226 U206 2.455 . S
O226 C223 1.301 . S
O227 U206 2.449 . S
O227 C223 1.282 . S
H228 C201 0.931 . S
H229 C203 0.929 . S
H230 C204 0.930 . S
H231 C205 0.931 . S
H232 C212 0.932 1_545 S
H233 C213 0.930 . S
H234 C214 0.929 . S
H235 C216 0.930 . S
H236 C218 0.932 . S
H237 C219 0.929 . S
H238 C220 0.928 . S
H239 C222 0.932 . S
C240 C241 1.264 . S
C240 C245 1.479 . S
C240 C250 1.465 . S
C241 C240 1.264 . S
C241 C243 1.339 . S
C241 H268 0.931 . S
C242 C243 1.395 . S
C242 C244 1.320 . S
C243 C241 1.339 . S
C243 C242 1.395 . S
C243 H269 0.929 . S
C244 C242 1.320 . S
C244 C245 1.405 . S
C244 H270 0.930 . S
C245 C240 1.479 . S
C245 C244 1.405 . S
C245 H271 0.931 . S
U246 O247 2.454 . S
U246 O248 2.458 . S
U246 C249 2.984 . S
U246 C250 2.847 . S
U246 C263 2.882 . S
U246 O264 2.441 . S
U246 O265 2.420 . S
U246 O266 2.455 . S
U246 O267 2.449 . S
O247 U246 2.454 . S
O247 C249 1.353 . S
O248 U246 2.458 . S
O248 C249 1.286 . S
C249 U246 2.984 . S
C249 O247 1.353 . S
C249 O248 1.286 . S
C249 C251 1.363 . S
C250 C240 1.465 . S
C250 U246 2.847 . S
C250 O264 1.249 . S
C250 O265 1.202 . S
C251 C249 1.363 . S
C251 C253 1.408 . S
C251 C256 1.342 . S
C252 C253 1.310 . S
C252 C255 1.461 . S
C252 H272 0.932 . S
C253 C251 1.408 . S
C253 C252 1.310 . S
C253 H273 0.930 . S
C254 C255 1.474 . S
C254 C256 1.285 . S
C254 H274 0.929 . S
C255 C252 1.461 . S
C255 C254 1.474 . S
C256 C251 1.342 . S
C256 C254 1.285 . S
C256 H275 0.930 . S
C257 C260 1.424 . S
C257 C262 1.245 . S
C257 C263 1.428 . S
C258 C261 1.260 . S
C258 C262 1.477 . S
C258 H276 0.932 . S
C259 C260 1.384 . S
C259 C261 1.479 . S
C259 H277 0.929 . S
C260 C257 1.424 . S
C260 C259 1.384 . S
C260 H278 0.928 . S
C261 C258 1.260 . S
C261 C259 1.479 . S
C262 C257 1.245 . S
C262 C258 1.477 . S
C262 H279 0.932 . S
C263 U246 2.882 . S
C263 C257 1.428 . S
C263 O266 1.301 . S
C263 O267 1.282 . S
O264 U246 2.441 . S
O264 C250 1.249 . S
O265 U246 2.420 . S
O265 C250 1.202 . S
O266 U246 2.455 . S
O266 C263 1.301 . S
O267 U246 2.449 . S
O267 C263 1.282 . S
H268 C241 0.931 . S
H269 C243 0.929 . S
H270 C244 0.930 . S
H271 C245 0.931 . S
H272 C252 0.932 . S
H273 C253 0.930 . S
H274 C254 0.929 . S
H275 C256 0.930 . S
H276 C258 0.932 . S
H277 C259 0.929 . S
H278 C260 0.928 . S
H279 C262 0.932 . S
C280 C281 1.264 . S
C280 C285 1.479 . S
C280 C290 1.465 . S
C281 C280 1.264 . S
C281 C283 1.339 . S
C281 H308 0.931 . S
C282 C283 1.395 . S
C282 C284 1.320 . S
C283 C281 1.339 . S
C283 C282 1.395 . S
C283 H309 0.929 . S
C284 C282 1.320 . S
C284 C285 1.405 . S
C284 H310 0.930 . S
C285 C280 1.479 . S
C285 C284 1.405 . S
C285 H311 0.931 . S
U286 O287 2.454 . S
U286 O288 2.458 . S
U286 C289 2.984 . S
U286 C290 2.847 . S
U286 C303 2.882 . S
U286 O304 2.441 . S
U286 O305 2.420 . S
U286 O306 2.455 . S
U286 O307 2.449 . S
O287 U286 2.454 . S
O287 C289 1.353 . S
O288 U286 2.458 . S
O288 C289 1.286 . S
C289 U286 2.984 . S
C289 O287 1.353 . S
C289 O288 1.286 . S
C289 C291 1.363 . S
C290 C280 1.465 . S
C290 U286 2.847 . S
C290 O304 1.249 . S
C290 O305 1.202 . S
C291 C289 1.363 . S
C291 C293 1.408 . S
C291 C296 1.342 . S
C292 C293 1.310 . S
C292 C295 1.461 . S
C292 H312 0.932 1_455 S
C293 C291 1.408 . S
C293 C292 1.310 . S
C293 H313 0.930 . S
C294 C295 1.474 . S
C294 C296 1.285 . S
C294 H314 0.929 . S
C295 C292 1.461 . S
C295 C294 1.474 . S
C296 C291 1.342 . S
C296 C294 1.285 . S
C296 H315 0.930 . S
C297 C300 1.424 . S
C297 C302 1.245 . S
C297 C303 1.428 . S
C298 C301 1.260 . S
C298 C302 1.477 . S
C298 H316 0.932 . S
C299 C300 1.384 . S
C299 C301 1.479 . S
C299 H317 0.929 . S
C300 C297 1.424 . S
C300 C299 1.384 . S
C300 H318 0.928 . S
C301 C298 1.260 . S
C301 C299 1.479 . S
C302 C297 1.245 . S
C302 C298 1.477 . S
C302 H319 0.932 . S
C303 U286 2.882 . S
C303 C297 1.428 . S
C303 O306 1.301 . S
C303 O307 1.282 . S
O304 U286 2.441 . S
O304 C290 1.249 . S
O305 U286 2.420 . S
O305 C290 1.202 . S
O306 U286 2.455 . S
O306 C303 1.301 . S
O307 U286 2.449 . S
O307 C303 1.282 . S
H308 C281 0.931 . S
H309 C283 0.929 . S
H310 C284 0.930 . S
H311 C285 0.931 . S
H312 C292 0.932 1_655 S
H313 C293 0.930 . S
H314 C294 0.929 . S
H315 C296 0.930 . S
H316 C298 0.932 . S
H317 C299 0.929 . S
H318 C300 0.928 . S
H319 C302 0.932 . S
C320 C321 1.264 . S
C320 C325 1.479 . S
C320 C330 1.465 . S
C321 C320 1.264 . S
C321 C323 1.339 . S
C321 H348 0.931 . S
C322 C323 1.395 . S
C322 C324 1.320 . S
C323 C321 1.339 . S
C323 C322 1.395 . S
C323 H349 0.929 . S
C324 C322 1.320 . S
C324 C325 1.405 . S
C324 H350 0.930 . S
C325 C320 1.479 . S
C325 C324 1.405 . S
C325 H351 0.931 . S
U326 O327 2.454 . S
U326 O328 2.458 . S
U326 C329 2.984 . S
U326 C330 2.847 . S
U326 C343 2.882 . S
U326 O344 2.441 . S
U326 O345 2.420 . S
U326 O346 2.455 . S
U326 O347 2.449 . S
O327 U326 2.454 . S
O327 C329 1.353 . S
O328 U326 2.458 . S
O328 C329 1.286 . S
C329 U326 2.984 . S
C329 O327 1.353 . S
C329 O328 1.286 . S
C329 C331 1.363 . S
C330 C320 1.465 . S
C330 U326 2.847 . S
C330 O344 1.249 . S
C330 O345 1.202 . S
C331 C329 1.363 . S
C331 C333 1.408 . S
C331 C336 1.342 . S
C332 C333 1.310 . S
C332 C335 1.461 . S
C332 H352 0.932 1_545 S
C333 C331 1.408 . S
C333 C332 1.310 . S
C333 H353 0.930 . S
C334 C335 1.474 . S
C334 C336 1.285 . S
C334 H354 0.929 . S
C335 C332 1.461 . S
C335 C334 1.474 . S
C336 C331 1.342 . S
C336 C334 1.285 . S
C336 H355 0.930 . S
C337 C340 1.424 . S
C337 C342 1.245 . S
C337 C343 1.428 . S
C338 C341 1.260 . S
C338 C342 1.477 . S
C338 H356 0.932 . S
C339 C340 1.384 . S
C339 C341 1.479 . S
C339 H357 0.929 . S
C340 C337 1.424 . S
C340 C339 1.384 . S
C340 H358 0.928 . S
C341 C338 1.260 . S
C341 C339 1.479 . S
C342 C337 1.245 . S
C342 C338 1.477 . S
C342 H359 0.932 . S
C343 U326 2.882 . S
C343 C337 1.428 . S
C343 O346 1.301 . S
C343 O347 1.282 . S
O344 U326 2.441 . S
O344 C330 1.249 . S
O345 U326 2.420 . S
O345 C330 1.202 . S
O346 U326 2.455 . S
O346 C343 1.301 . S
O347 U326 2.449 . S
O347 C343 1.282 . S
H348 C321 0.931 . S
H349 C323 0.929 . S
H350 C324 0.930 . S
H351 C325 0.931 . S
H352 C332 0.932 1_565 S
H353 C333 0.930 . S
H354 C334 0.929 . S
H355 C336 0.930 . S
H356 C338 0.932 . S
H357 C339 0.929 . S
H358 C340 0.928 . S
H359 C342 0.932 . S
C360 C361 1.264 . S
C360 C365 1.479 . S
C360 C370 1.465 . S
C361 C360 1.264 . S
C361 C363 1.339 . S
C361 H388 0.931 . S
C362 C363 1.395 . S
C362 C364 1.320 . S
C363 C361 1.339 . S
C363 C362 1.395 . S
C363 H389 0.929 . S
C364 C362 1.320 . S
C364 C365 1.405 . S
C364 H390 0.930 . S
C365 C360 1.479 . S
C365 C364 1.405 . S
C365 H391 0.931 . S
U366 O367 2.454 . S
U366 O368 2.458 . S
U366 C369 2.984 . S
U366 C370 2.847 . S
U366 C383 2.882 . S
U366 O384 2.441 . S
U366 O385 2.420 . S
U366 O386 2.455 . S
U366 O387 2.449 . S
O367 U366 2.454 . S
O367 C369 1.353 . S
O368 U366 2.458 . S
O368 C369 1.286 . S
C369 U366 2.984 . S
C369 O367 1.353 . S
C369 O368 1.286 . S
C369 C371 1.363 . S
C370 C360 1.465 . S
C370 U366 2.847 . S
C370 O384 1.249 . S
C370 O385 1.202 . S
C371 C369 1.363 . S
C371 C373 1.408 . S
C371 C376 1.342 . S
C372 C373 1.310 . S
C372 C375 1.461 . S
C372 H392 0.932 . S
C373 C371 1.408 . S
C373 C372 1.310 . S
C373 H393 0.930 . S
C374 C375 1.474 . S
C374 C376 1.285 . S
C374 H394 0.929 . S
C375 C372 1.461 . S
C375 C374 1.474 . S
C376 C371 1.342 . S
C376 C374 1.285 . S
C376 H395 0.930 . S
C377 C380 1.424 . S
C377 C382 1.245 . S
C377 C383 1.428 . S
C378 C381 1.260 . S
C378 C382 1.477 . S
C378 H396 0.932 . S
C379 C380 1.384 . S
C379 C381 1.479 . S
C379 H397 0.929 . S
C380 C377 1.424 . S
C380 C379 1.384 . S
C380 H398 0.928 . S
C381 C378 1.260 . S
C381 C379 1.479 . S
C382 C377 1.245 . S
C382 C378 1.477 . S
C382 H399 0.932 . S
C383 U366 2.882 . S
C383 C377 1.428 . S
C383 O386 1.301 . S
C383 O387 1.282 . S
O384 U366 2.441 . S
O384 C370 1.249 . S
O385 U366 2.420 . S
O385 C370 1.202 . S
O386 U366 2.455 . S
O386 C383 1.301 . S
O387 U366 2.449 . S
O387 C383 1.282 . S
H388 C361 0.931 . S
H389 C363 0.929 . S
H390 C364 0.930 . S
H391 C365 0.931 . S
H392 C372 0.932 . S
H393 C373 0.930 . S
H394 C374 0.929 . S
H395 C376 0.930 . S
H396 C378 0.932 . S
H397 C379 0.929 . S
H398 C380 0.928 . S
H399 C382 0.932 . S
C400 C401 1.264 . S
C400 C405 1.479 . S
C400 C410 1.465 . S
C401 C400 1.264 . S
C401 C403 1.339 . S
C401 H428 0.931 . S
C402 C403 1.395 . S
C402 C404 1.320 . S
C403 C401 1.339 . S
C403 C402 1.395 . S
C403 H429 0.929 . S
C404 C402 1.320 . S
C404 C405 1.405 . S
C404 H430 0.930 . S
C405 C400 1.479 . S
C405 C404 1.405 . S
C405 H431 0.931 . S
U406 O407 2.454 . S
U406 O408 2.458 . S
U406 C409 2.984 . S
U406 C410 2.847 . S
U406 C423 2.882 . S
U406 O424 2.441 . S
U406 O425 2.420 . S
U406 O426 2.455 . S
U406 O427 2.449 . S
O407 U406 2.454 . S
O407 C409 1.353 . S
O408 U406 2.458 . S
O408 C409 1.286 . S
C409 U406 2.984 . S
C409 O407 1.353 . S
C409 O408 1.286 . S
C409 C411 1.363 . S
C410 C400 1.465 . S
C410 U406 2.847 . S
C410 O424 1.249 . S
C410 O425 1.202 . S
C411 C409 1.363 . S
C411 C413 1.408 . S
C411 C416 1.342 . S
C412 C413 1.310 . S
C412 C415 1.461 . S
C412 H432 0.932 1_655 S
C413 C411 1.408 . S
C413 C412 1.310 . S
C413 H433 0.930 . S
C414 C415 1.474 . S
C414 C416 1.285 . S
C414 H434 0.929 . S
C415 C412 1.461 . S
C415 C414 1.474 . S
C416 C411 1.342 . S
C416 C414 1.285 . S
C416 H435 0.930 . S
C417 C420 1.424 . S
C417 C422 1.245 . S
C417 C423 1.428 . S
C418 C421 1.260 . S
C418 C422 1.477 . S
C418 H436 0.932 . S
C419 C420 1.384 . S
C419 C421 1.479 . S
C419 H437 0.929 . S
C420 C417 1.424 . S
C420 C419 1.384 . S
C420 H438 0.928 . S
C421 C418 1.260 . S
C421 C419 1.479 . S
C422 C417 1.245 . S
C422 C418 1.477 . S
C422 H439 0.932 . S
C423 U406 2.882 . S
C423 C417 1.428 . S
C423 O426 1.301 . S
C423 O427 1.282 . S
O424 U406 2.441 . S
O424 C410 1.249 . S
O425 U406 2.420 . S
O425 C410 1.202 . S
O426 U406 2.455 . S
O426 C423 1.301 . S
O427 U406 2.449 . S
O427 C423 1.282 . S
H428 C401 0.931 . S
H429 C403 0.929 . S
H430 C404 0.930 . S
H431 C405 0.931 . S
H432 C412 0.932 1_455 S
H433 C413 0.930 . S
H434 C414 0.929 . S
H435 C416 0.930 . S
H436 C418 0.932 . S
H437 C419 0.929 . S
H438 C420 0.928 . S
H439 C422 0.932 . S
C440 C441 1.264 . S
C440 C445 1.479 . S
C440 C450 1.465 . S
C441 C440 1.264 . S
C441 C443 1.339 . S
C441 H468 0.931 . S
C442 C443 1.395 . S
C442 C444 1.320 . S
C443 C441 1.339 . S
C443 C442 1.395 . S
C443 H469 0.929 . S
C444 C442 1.320 . S
C444 C445 1.405 . S
C444 H470 0.930 . S
C445 C440 1.479 . S
C445 C444 1.405 . S
C445 H471 0.931 . S
U446 O447 2.454 . S
U446 O448 2.458 . S
U446 C449 2.984 . S
U446 C450 2.847 . S
U446 C463 2.882 . S
U446 O464 2.441 . S
U446 O465 2.420 . S
U446 O466 2.455 . S
U446 O467 2.449 . S
O447 U446 2.454 . S
O447 C449 1.353 . S
O448 U446 2.458 . S
O448 C449 1.286 . S
C449 U446 2.984 . S
C449 O447 1.353 . S
C449 O448 1.286 . S
C449 C451 1.363 . S
C450 C440 1.465 . S
C450 U446 2.847 . S
C450 O464 1.249 . S
C450 O465 1.202 . S
C451 C449 1.363 . S
C451 C453 1.408 . S
C451 C456 1.342 . S
C452 C453 1.310 . S
C452 C455 1.461 . S
C452 H472 0.932 1_565 S
C453 C451 1.408 . S
C453 C452 1.310 . S
C453 H473 0.930 . S
C454 C455 1.474 . S
C454 C456 1.285 . S
C454 H474 0.929 . S
C455 C452 1.461 . S
C455 C454 1.474 . S
C456 C451 1.342 . S
C456 C454 1.285 . S
C456 H475 0.930 . S
C457 C460 1.424 . S
C457 C462 1.245 . S
C457 C463 1.428 . S
C458 C461 1.260 . S
C458 C462 1.477 . S
C458 H476 0.932 . S
C459 C460 1.384 . S
C459 C461 1.479 . S
C459 H477 0.929 . S
C460 C457 1.424 . S
C460 C459 1.384 . S
C460 H478 0.928 . S
C461 C458 1.260 . S
C461 C459 1.479 . S
C462 C457 1.245 . S
C462 C458 1.477 . S
C462 H479 0.932 . S
C463 U446 2.882 . S
C463 C457 1.428 . S
C463 O466 1.301 . S
C463 O467 1.282 . S
O464 U446 2.441 . S
O464 C450 1.249 . S
O465 U446 2.420 . S
O465 C450 1.202 . S
O466 U446 2.455 . S
O466 C463 1.301 . S
O467 U446 2.449 . S
O467 C463 1.282 . S
H468 C441 0.931 . S
H469 C443 0.929 . S
H470 C444 0.930 . S
H471 C445 0.931 . S
H472 C452 0.932 1_545 S
H473 C453 0.930 . S
H474 C454 0.929 . S
H475 C456 0.930 . S
H476 C458 0.932 . S
H477 C459 0.929 . S
H478 C460 0.928 . S
H479 C462 0.932 . S
H480 C498 0.951 . S
H481 C500 0.951 . S
H482 C502 0.950 . S
H483 C503 0.950 . S
H484 C505 0.950 . S
H485 C508 0.950 . S
H486 C509 0.950 . S
H487 C511 0.950 . S
H488 C512 0.950 . S
H489 C513 0.951 . S
H490 C515 0.951 . S
H491 C517 0.950 . S
H492 C518 0.950 . S
H493 C520 0.950 . S
H494 C523 0.950 . S
H495 C524 0.950 . S
H496 C526 0.950 . S
H497 C527 0.950 . S
C498 H480 0.951 . S
C498 C499 1.366 . S
C498 C500 1.388 . S
C499 C498 1.366 . S
C499 C503 1.385 . S
C500 H481 0.951 . S
C500 C498 1.388 . S
C500 C501 1.366 . S
C501 C500 1.366 . S
C501 C502 1.414 . S
C501 C504 1.499 . S
C502 H482 0.950 . S
C502 C501 1.414 . S
C502 C503 1.374 . S
C503 H483 0.950 . S
C503 C499 1.385 . S
C503 C502 1.374 . S
C504 C501 1.499 . S
C504 C505 1.373 . S
C504 C506 1.389 . S
C505 H484 0.950 . S
C505 C504 1.373 . S
C505 C521 1.377 . S
C506 C504 1.389 . S
C506 C507 1.524 . S
C506 C520 1.377 . S
C507 C506 1.524 . S
C507 C508 1.397 . S
C507 C512 1.363 . S
C508 H485 0.950 . S
C508 C507 1.397 . S
C508 C509 1.334 . S
C509 H486 0.950 . S
C509 C508 1.334 . S
C509 C510 1.287 . S
C510 C509 1.287 . S
C510 C511 1.524 . S
C510 H529 0.913 . S
C511 H487 0.950 . S
C511 C510 1.524 . S
C511 C512 1.415 . S
C512 H488 0.950 . S
C512 C507 1.363 . S
C512 C511 1.415 . S
C513 H489 0.951 . S
C513 C514 1.366 . S
C513 C515 1.388 . S
C514 C513 1.366 . S
C514 C518 1.385 . S
C515 H490 0.951 . S
C515 C513 1.388 . S
C515 C516 1.366 . S
C516 C515 1.366 . S
C516 C517 1.414 . S
C516 C519 1.499 . S
C517 H491 0.950 . S
C517 C516 1.414 . S
C517 C518 1.374 . S
C518 H492 0.950 . S
C518 C514 1.385 . S
C518 C517 1.374 . S
C519 C516 1.499 . S
C519 C520 1.373 . S
C519 C521 1.389 . S
C520 H493 0.950 . S
C520 C506 1.377 . S
C520 C519 1.373 . S
C521 C505 1.377 . S
C521 C519 1.389 . S
C521 C522 1.524 . S
C522 C521 1.524 . S
C522 C523 1.397 . S
C522 C527 1.363 . S
C523 H494 0.950 . S
C523 C522 1.397 . S
C523 C524 1.334 . S
C524 H495 0.950 . S
C524 C523 1.334 . S
C524 C525 1.287 . S
C525 C524 1.287 . S
C525 C526 1.524 . S
C525 H528 0.999 . S
C526 H496 0.950 . S
C526 C525 1.524 . S
C526 C527 1.415 . S
C527 H497 0.950 . S
C527 C522 1.363 . S
C527 C526 1.415 . S
H528 C525 0.999 . S
H529 C510 0.913 . S
H530 C548 0.951 . S
H531 C550 0.951 . S
H532 C552 0.950 . S
H533 C553 0.950 . S
H534 C555 0.950 . S
H535 C558 0.950 . S
H536 C559 0.950 . S
H537 C561 0.950 . S
H538 C562 0.950 . S
H539 C563 0.951 . S
H540 C565 0.951 . S
H541 C567 0.950 . S
H542 C568 0.950 . S
H543 C570 0.950 . S
H544 C573 0.950 . S
H545 C574 0.950 . S
H546 C576 0.948 1_655 S
H547 C577 0.950 . S
C548 H530 0.951 . S
C548 C549 1.366 . S
C548 C550 1.388 . S
C549 C548 1.366 . S
C549 C553 1.385 . S
C550 H531 0.951 . S
C550 C548 1.388 . S
C550 C551 1.366 . S
C551 C550 1.366 . S
C551 C552 1.414 . S
C551 C554 1.499 . S
C552 H532 0.950 . S
C552 C551 1.414 . S
C552 C553 1.374 . S
C553 H533 0.950 . S
C553 C549 1.385 . S
C553 C552 1.374 . S
C554 C551 1.499 . S
C554 C555 1.373 . S
C554 C556 1.389 . S
C555 H534 0.950 . S
C555 C554 1.373 . S
C555 C571 1.377 . S
C556 C554 1.389 . S
C556 C557 1.524 . S
C556 C570 1.377 . S
C557 C556 1.524 . S
C557 C558 1.397 . S
C557 C562 1.363 . S
C558 H535 0.950 . S
C558 C557 1.397 . S
C558 C559 1.334 . S
C559 H536 0.950 . S
C559 C558 1.334 . S
C559 C560 1.287 . S
C560 C559 1.287 . S
C560 C561 1.524 . S
C560 H579 0.913 . S
C561 H537 0.950 . S
C561 C560 1.524 . S
C561 C562 1.415 . S
C562 H538 0.950 . S
C562 C557 1.363 . S
C562 C561 1.415 . S
C563 H539 0.951 . S
C563 C564 1.366 . S
C563 C565 1.388 . S
C564 C563 1.366 . S
C564 C568 1.385 . S
C565 H540 0.951 . S
C565 C563 1.388 . S
C565 C566 1.366 . S
C566 C565 1.366 . S
C566 C567 1.414 . S
C566 C569 1.499 . S
C567 H541 0.950 . S
C567 C566 1.414 . S
C567 C568 1.374 . S
C568 H542 0.950 . S
C568 C564 1.385 . S
C568 C567 1.374 . S
C569 C566 1.499 . S
C569 C570 1.373 . S
C569 C571 1.389 . S
C570 H543 0.950 . S
C570 C556 1.377 . S
C570 C569 1.373 . S
C571 C555 1.377 . S
C571 C569 1.389 . S
C571 C572 1.524 . S
C572 C571 1.524 . S
C572 C573 1.397 . S
C572 C577 1.363 . S
C573 H544 0.950 . S
C573 C572 1.397 . S
C573 C574 1.334 . S
C574 H545 0.950 . S
C574 C573 1.334 . S
C574 C575 1.287 . S
C575 C574 1.287 . S
C575 C576 1.524 . S
C575 H578 0.999 1_455 S
C576 H546 0.948 1_455 S
C576 C575 1.524 . S
C576 C577 1.415 . S
C577 H547 0.950 . S
C577 C572 1.363 . S
C577 C576 1.415 . S
H578 C575 0.999 1_655 S
H579 C560 0.913 . S
H580 C598 0.951 . S
H581 C600 0.951 . S
H582 C602 0.950 . S
H583 C603 0.950 . S
H584 C605 0.950 . S
H585 C608 0.950 . S
H586 C609 0.950 . S
H587 C611 0.950 . S
H588 C612 0.950 . S
H589 C613 0.951 . S
H590 C615 0.951 . S
H591 C617 0.950 . S
H592 C618 0.950 . S
H593 C620 0.950 . S
H594 C623 0.950 . S
H595 C624 0.950 . S
H596 C626 0.950 . S
H597 C627 0.950 . S
C598 H580 0.951 . S
C598 C599 1.366 . S
C598 C600 1.388 . S
C599 C598 1.366 . S
C599 C603 1.385 . S
C600 H581 0.951 . S
C600 C598 1.388 . S
C600 C601 1.366 . S
C601 C600 1.366 . S
C601 C602 1.414 . S
C601 C604 1.499 . S
C602 H582 0.950 . S
C602 C601 1.414 . S
C602 C603 1.374 . S
C603 H583 0.950 . S
C603 C599 1.385 . S
C603 C602 1.374 . S
C604 C601 1.499 . S
C604 C605 1.373 . S
C604 C606 1.389 . S
C605 H584 0.950 . S
C605 C604 1.373 . S
C605 C621 1.377 . S
C606 C604 1.389 . S
C606 C607 1.524 . S
C606 C620 1.377 . S
C607 C606 1.524 . S
C607 C608 1.397 . S
C607 C612 1.363 . S
C608 H585 0.950 . S
C608 C607 1.397 . S
C608 C609 1.334 . S
C609 H586 0.950 . S
C609 C608 1.334 . S
C609 C610 1.287 . S
C610 C609 1.287 . S
C610 C611 1.524 . S
C610 H629 0.913 . S
C611 H587 0.950 . S
C611 C610 1.524 . S
C611 C612 1.415 . S
C612 H588 0.950 . S
C612 C607 1.363 . S
C612 C611 1.415 . S
C613 H589 0.951 . S
C613 C614 1.366 . S
C613 C615 1.388 . S
C614 C613 1.366 . S
C614 C618 1.385 . S
C615 H590 0.951 . S
C615 C613 1.388 . S
C615 C616 1.366 . S
C616 C615 1.366 . S
C616 C617 1.414 . S
C616 C619 1.499 . S
C617 H591 0.950 . S
C617 C616 1.414 . S
C617 C618 1.374 . S
C618 H592 0.950 . S
C618 C614 1.385 . S
C618 C617 1.374 . S
C619 C616 1.499 . S
C619 C620 1.373 . S
C619 C621 1.389 . S
C620 H593 0.950 . S
C620 C606 1.377 . S
C620 C619 1.373 . S
C621 C605 1.377 . S
C621 C619 1.389 . S
C621 C622 1.524 . S
C622 C621 1.524 . S
C622 C623 1.397 . S
C622 C627 1.363 . S
C623 H594 0.950 . S
C623 C622 1.397 . S
C623 C624 1.334 . S
C624 H595 0.950 . S
C624 C623 1.334 . S
C624 C625 1.287 . S
C625 C624 1.287 . S
C625 C626 1.524 . S
C625 H628 0.999 . S
C626 H596 0.950 . S
C626 C625 1.524 . S
C626 C627 1.415 . S
C627 H597 0.950 . S
C627 C622 1.363 . S
C627 C626 1.415 . S
H628 C625 0.999 . S
H629 C610 0.913 . S
H630 C648 0.951 . S
H631 C650 0.951 . S
H632 C652 0.950 . S
H633 C653 0.950 . S
H634 C655 0.950 . S
H635 C658 0.950 . S
H636 C659 0.950 . S
H637 C661 0.950 . S
H638 C662 0.950 . S
H639 C663 0.951 . S
H640 C665 0.951 . S
H641 C667 0.950 . S
H642 C668 0.950 . S
H643 C670 0.950 . S
H644 C673 0.950 . S
H645 C674 0.950 . S
H646 C676 0.950 . S
H647 C677 0.950 . S
C648 H630 0.951 . S
C648 C649 1.366 . S
C648 C650 1.388 . S
C649 C648 1.366 . S
C649 C653 1.385 . S
C650 H631 0.951 . S
C650 C648 1.388 . S
C650 C651 1.366 . S
C651 C650 1.366 . S
C651 C652 1.414 . S
C651 C654 1.499 . S
C652 H632 0.950 . S
C652 C651 1.414 . S
C652 C653 1.374 . S
C653 H633 0.950 . S
C653 C649 1.385 . S
C653 C652 1.374 . S
C654 C651 1.499 . S
C654 C655 1.373 . S
C654 C656 1.389 . S
C655 H634 0.950 . S
C655 C654 1.373 . S
C655 C671 1.377 . S
C656 C654 1.389 . S
C656 C657 1.524 . S
C656 C670 1.377 . S
C657 C656 1.524 . S
C657 C658 1.397 . S
C657 C662 1.363 . S
C658 H635 0.950 . S
C658 C657 1.397 . S
C658 C659 1.334 . S
C659 H636 0.950 . S
C659 C658 1.334 . S
C659 C660 1.287 . S
C660 C659 1.287 . S
C660 C661 1.524 . S
C660 H679 0.913 . S
C661 H637 0.950 . S
C661 C660 1.524 . S
C661 C662 1.415 . S
C662 H638 0.950 . S
C662 C657 1.363 . S
C662 C661 1.415 . S
C663 H639 0.951 . S
C663 C664 1.366 . S
C663 C665 1.388 . S
C664 C663 1.366 . S
C664 C668 1.385 . S
C665 H640 0.951 . S
C665 C663 1.388 . S
C665 C666 1.366 . S
C666 C665 1.366 . S
C666 C667 1.414 . S
C666 C669 1.499 . S
C667 H641 0.950 . S
C667 C666 1.414 . S
C667 C668 1.374 . S
C668 H642 0.950 . S
C668 C664 1.385 . S
C668 C667 1.374 . S
C669 C666 1.499 . S
C669 C670 1.373 . S
C669 C671 1.389 . S
C670 H643 0.950 . S
C670 C656 1.377 . S
C670 C669 1.373 . S
C671 C655 1.377 . S
C671 C669 1.389 . S
C671 C672 1.524 . S
C672 C671 1.524 . S
C672 C673 1.397 . S
C672 C677 1.363 . S
C673 H644 0.950 . S
C673 C672 1.397 . S
C673 C674 1.334 . S
C674 H645 0.950 . S
C674 C673 1.334 . S
C674 C675 1.287 . S
C675 C674 1.287 . S
C675 C676 1.524 . S
C675 H678 0.999 . S
C676 H646 0.950 . S
C676 C675 1.524 . S
C676 C677 1.415 . S
C677 H647 0.950 . S
C677 C672 1.363 . S
C677 C676 1.415 . S
H678 C675 0.999 . S
H679 C660 0.913 . S
H680 C698 0.951 . S
H681 C700 0.951 . S
H682 C702 0.950 . S
H683 C703 0.950 . S
H684 C705 0.950 . S
H685 C708 0.950 . S
H686 C709 0.950 . S
H687 C711 0.950 1_455 S
H688 C712 0.950 . S
H689 C713 0.951 . S
H690 C715 0.951 . S
H691 C717 0.950 . S
H692 C718 0.950 . S
H693 C720 0.950 . S
H694 C723 0.950 . S
H695 C724 0.950 . S
H696 C726 0.950 . S
H697 C727 0.950 . S
C698 H680 0.951 . S
C698 C699 1.366 . S
C698 C700 1.388 . S
C699 C698 1.366 . S
C699 C703 1.385 . S
C700 H681 0.951 . S
C700 C698 1.388 . S
C700 C701 1.366 . S
C701 C700 1.366 . S
C701 C702 1.414 . S
C701 C704 1.499 . S
C702 H682 0.950 . S
C702 C701 1.414 . S
C702 C703 1.374 . S
C703 H683 0.950 . S
C703 C699 1.385 . S
C703 C702 1.374 . S
C704 C701 1.499 . S
C704 C705 1.373 . S
C704 C706 1.389 . S
C705 H684 0.950 . S
C705 C704 1.373 . S
C705 C721 1.377 . S
C706 C704 1.389 . S
C706 C707 1.524 . S
C706 C720 1.377 . S
C707 C706 1.524 . S
C707 C708 1.397 . S
C707 C712 1.363 . S
C708 H685 0.950 . S
C708 C707 1.397 . S
C708 C709 1.334 . S
C709 H686 0.950 . S
C709 C708 1.334 . S
C709 C710 1.287 . S
C710 C709 1.287 . S
C710 C711 1.524 . S
C710 H729 0.913 1_655 S
C711 H687 0.950 1_655 S
C711 C710 1.524 . S
C711 C712 1.415 . S
C712 H688 0.950 . S
C712 C707 1.363 . S
C712 C711 1.415 . S
C713 H689 0.951 . S
C713 C714 1.366 . S
C713 C715 1.388 . S
C714 C713 1.366 . S
C714 C718 1.385 . S
C715 H690 0.951 . S
C715 C713 1.388 . S
C715 C716 1.366 . S
C716 C715 1.366 . S
C716 C717 1.414 . S
C716 C719 1.499 . S
C717 H691 0.950 . S
C717 C716 1.414 . S
C717 C718 1.374 . S
C718 H692 0.950 . S
C718 C714 1.385 . S
C718 C717 1.374 . S
C719 C716 1.499 . S
C719 C720 1.373 . S
C719 C721 1.389 . S
C720 H693 0.950 . S
C720 C706 1.377 . S
C720 C719 1.373 . S
C721 C705 1.377 . S
C721 C719 1.389 . S
C721 C722 1.524 . S
C722 C721 1.524 . S
C722 C723 1.397 . S
C722 C727 1.363 . S
C723 H694 0.950 . S
C723 C722 1.397 . S
C723 C724 1.334 . S
C724 H695 0.950 . S
C724 C723 1.334 . S
C724 C725 1.287 . S
C725 C724 1.287 . S
C725 C726 1.524 . S
C725 H728 0.999 . S
C726 H696 0.950 . S
C726 C725 1.524 . S
C726 C727 1.415 . S
C727 H697 0.950 . S
C727 C722 1.363 . S
C727 C726 1.415 . S
H728 C725 0.999 . S
H729 C710 0.913 1_455 S
H730 C748 0.951 . S
H731 C750 0.951 . S
H732 C752 0.950 . S
H733 C753 0.950 . S
H734 C755 0.950 . S
H735 C758 0.950 . S
H736 C759 0.950 . S
H737 C761 0.950 . S
H738 C762 0.950 . S
H739 C763 0.951 . S
H740 C765 0.951 . S
H741 C767 0.950 . S
H742 C768 0.950 . S
H743 C770 0.950 . S
H744 C773 0.950 . S
H745 C774 0.950 . S
H746 C776 0.950 . S
H747 C777 0.950 . S
C748 H730 0.951 . S
C748 C749 1.366 . S
C748 C750 1.388 . S
C749 C748 1.366 . S
C749 C753 1.385 . S
C750 H731 0.951 . S
C750 C748 1.388 . S
C750 C751 1.366 . S
C751 C750 1.366 . S
C751 C752 1.414 . S
C751 C754 1.499 . S
C752 H732 0.950 . S
C752 C751 1.414 . S
C752 C753 1.374 . S
C753 H733 0.950 . S
C753 C749 1.385 . S
C753 C752 1.374 . S
C754 C751 1.499 . S
C754 C755 1.373 . S
C754 C756 1.389 . S
C755 H734 0.950 . S
C755 C754 1.373 . S
C755 C771 1.377 . S
C756 C754 1.389 . S
C756 C757 1.524 . S
C756 C770 1.377 . S
C757 C756 1.524 . S
C757 C758 1.397 . S
C757 C762 1.363 . S
C758 H735 0.950 . S
C758 C757 1.397 . S
C758 C759 1.334 . S
C759 H736 0.950 . S
C759 C758 1.334 . S
C759 C760 1.287 . S
C760 C759 1.287 . S
C760 C761 1.524 . S
C760 H779 0.913 . S
C761 H737 0.950 . S
C761 C760 1.524 . S
C761 C762 1.415 . S
C762 H738 0.950 . S
C762 C757 1.363 . S
C762 C761 1.415 . S
C763 H739 0.951 . S
C763 C764 1.366 . S
C763 C765 1.388 . S
C764 C763 1.366 . S
C764 C768 1.385 . S
C765 H740 0.951 . S
C765 C763 1.388 . S
C765 C766 1.366 . S
C766 C765 1.366 . S
C766 C767 1.414 . S
C766 C769 1.499 . S
C767 H741 0.950 . S
C767 C766 1.414 . S
C767 C768 1.374 . S
C768 H742 0.950 . S
C768 C764 1.385 . S
C768 C767 1.374 . S
C769 C766 1.499 . S
C769 C770 1.373 . S
C769 C771 1.389 . S
C770 H743 0.950 . S
C770 C756 1.377 . S
C770 C769 1.373 . S
C771 C755 1.377 . S
C771 C769 1.389 . S
C771 C772 1.524 . S
C772 C771 1.524 . S
C772 C773 1.397 . S
C772 C777 1.363 . S
C773 H744 0.950 . S
C773 C772 1.397 . S
C773 C774 1.334 . S
C774 H745 0.950 . S
C774 C773 1.334 . S
C774 C775 1.287 . S
C775 C774 1.287 . S
C775 C776 1.524 . S
C775 H778 0.999 . S
C776 H746 0.950 . S
C776 C775 1.524 . S
C776 C777 1.415 . S
C777 H747 0.950 . S
C777 C772 1.363 . S
C777 C776 1.415 . S
H778 C775 0.999 . S
H779 C760 0.913 . S
H780 C798 0.951 . S
H781 C800 0.951 . S
H782 C802 0.950 . S
H783 C803 0.950 . S
H784 C805 0.950 . S
H785 C808 0.950 . S
H786 C809 0.950 . S
H787 C811 0.950 . S
H788 C812 0.950 . S
H789 C813 0.951 . S
H790 C815 0.951 . S
H791 C817 0.950 . S
H792 C818 0.950 . S
H793 C820 0.950 . S
H794 C823 0.950 . S
H795 C824 0.950 . S
H796 C826 0.950 . S
H797 C827 0.950 . S
C798 H780 0.951 . S
C798 C799 1.366 . S
C798 C800 1.388 . S
C799 C798 1.366 . S
C799 C803 1.385 . S
C800 H781 0.951 . S
C800 C798 1.388 . S
C800 C801 1.366 . S
C801 C800 1.366 . S
C801 C802 1.414 . S
C801 C804 1.499 . S
C802 H782 0.950 . S
C802 C801 1.414 . S
C802 C803 1.374 . S
C803 H783 0.950 . S
C803 C799 1.385 . S
C803 C802 1.374 . S
C804 C801 1.499 . S
C804 C805 1.373 . S
C804 C806 1.389 . S
C805 H784 0.950 . S
C805 C804 1.373 . S
C805 C821 1.377 1_545 S
C806 C804 1.389 . S
C806 C807 1.524 . S
C806 C820 1.377 1_545 S
C807 C806 1.524 . S
C807 C808 1.397 . S
C807 C812 1.363 . S
C808 H785 0.950 . S
C808 C807 1.397 . S
C808 C809 1.334 . S
C809 H786 0.950 . S
C809 C808 1.334 . S
C809 C810 1.287 . S
C810 C809 1.287 . S
C810 C811 1.524 . S
C810 H829 0.913 . S
C811 H787 0.950 . S
C811 C810 1.524 . S
C811 C812 1.415 . S
C812 H788 0.950 . S
C812 C807 1.363 . S
C812 C811 1.415 . S
C813 H789 0.951 . S
C813 C814 1.366 . S
C813 C815 1.388 . S
C814 C813 1.366 . S
C814 C818 1.385 . S
C815 H790 0.951 . S
C815 C813 1.388 . S
C815 C816 1.366 . S
C816 C815 1.366 . S
C816 C817 1.414 . S
C816 C819 1.499 . S
C817 H791 0.950 . S
C817 C816 1.414 . S
C817 C818 1.374 . S
C818 H792 0.950 . S
C818 C814 1.385 . S
C818 C817 1.374 . S
C819 C816 1.499 . S
C819 C820 1.373 . S
C819 C821 1.389 . S
C820 H793 0.950 . S
C820 C806 1.377 1_565 S
C820 C819 1.373 . S
C821 C805 1.377 1_565 S
C821 C819 1.389 . S
C821 C822 1.524 . S
C822 C821 1.524 . S
C822 C823 1.397 . S
C822 C827 1.363 . S
C823 H794 0.950 . S
C823 C822 1.397 . S
C823 C824 1.334 . S
C824 H795 0.950 . S
C824 C823 1.334 . S
C824 C825 1.287 . S
C825 C824 1.287 . S
C825 C826 1.524 . S
C825 H828 0.999 . S
C826 H796 0.950 . S
C826 C825 1.524 . S
C826 C827 1.415 . S
C827 H797 0.950 . S
C827 C822 1.363 . S
C827 C826 1.415 . S
H828 C825 0.999 . S
H829 C810 0.913 . S
H830 C848 0.951 . S
H831 C850 0.951 . S
H832 C852 0.950 . S
H833 C853 0.950 . S
H834 C855 0.950 . S
H835 C858 0.950 . S
H836 C859 0.950 . S
H837 C861 0.950 . S
H838 C862 0.950 . S
H839 C863 0.951 . S
H840 C865 0.951 . S
H841 C867 0.950 . S
H842 C868 0.950 . S
H843 C870 0.950 . S
H844 C873 0.950 . S
H845 C874 0.950 . S
H846 C876 0.950 . S
H847 C877 0.950 . S
C848 H830 0.951 . S
C848 C849 1.366 . S
C848 C850 1.388 . S
C849 C848 1.366 . S
C849 C853 1.385 . S
C850 H831 0.951 . S
C850 C848 1.388 . S
C850 C851 1.366 . S
C851 C850 1.366 . S
C851 C852 1.414 . S
C851 C854 1.499 . S
C852 H832 0.950 . S
C852 C851 1.414 . S
C852 C853 1.374 . S
C853 H833 0.950 . S
C853 C849 1.385 . S
C853 C852 1.374 . S
C854 C851 1.499 . S
C854 C855 1.373 . S
C854 C856 1.389 . S
C855 H834 0.950 . S
C855 C854 1.373 . S
C855 C871 1.377 . S
C856 C854 1.389 . S
C856 C857 1.524 . S
C856 C870 1.377 . S
C857 C856 1.524 . S
C857 C858 1.397 . S
C857 C862 1.363 . S
C858 H835 0.950 . S
C858 C857 1.397 . S
C858 C859 1.334 . S
C859 H836 0.950 . S
C859 C858 1.334 . S
C859 C860 1.287 . S
C860 C859 1.287 . S
C860 C861 1.524 . S
C860 H879 0.913 . S
C861 H837 0.950 . S
C861 C860 1.524 . S
C861 C862 1.415 . S
C862 H838 0.950 . S
C862 C857 1.363 . S
C862 C861 1.415 . S
C863 H839 0.951 . S
C863 C864 1.366 . S
C863 C865 1.388 . S
C864 C863 1.366 . S
C864 C868 1.385 . S
C865 H840 0.951 . S
C865 C863 1.388 . S
C865 C866 1.366 . S
C866 C865 1.366 . S
C866 C867 1.414 . S
C866 C869 1.499 . S
C867 H841 0.950 . S
C867 C866 1.414 . S
C867 C868 1.374 . S
C868 H842 0.950 . S
C868 C864 1.385 . S
C868 C867 1.374 . S
C869 C866 1.499 . S
C869 C870 1.373 . S
C869 C871 1.389 . S
C870 H843 0.950 . S
C870 C856 1.377 . S
C870 C869 1.373 . S
C871 C855 1.377 . S
C871 C869 1.389 . S
C871 C872 1.524 . S
C872 C871 1.524 . S
C872 C873 1.397 . S
C872 C877 1.363 . S
C873 H844 0.950 . S
C873 C872 1.397 . S
C873 C874 1.334 . S
C874 H845 0.950 . S
C874 C873 1.334 . S
C874 C875 1.287 . S
C875 C874 1.287 . S
C875 C876 1.524 . S
C875 H878 0.999 . S
C876 H846 0.950 . S
C876 C875 1.524 . S
C876 C877 1.415 . S
C877 H847 0.950 . S
C877 C872 1.363 . S
C877 C876 1.415 . S
H878 C875 0.999 . S
H879 C860 0.913 . S
H880 C898 0.951 . S
H881 C900 0.951 . S
H882 C902 0.950 . S
H883 C903 0.950 . S
H884 C905 0.950 . S
H885 C908 0.950 . S
H886 C909 0.950 . S
H887 C911 0.950 . S
H888 C912 0.950 . S
H889 C913 0.951 . S
H890 C915 0.951 . S
H891 C917 0.950 . S
H892 C918 0.950 . S
H893 C920 0.950 . S
H894 C923 0.950 . S
H895 C924 0.950 . S
H896 C926 0.950 . S
H897 C927 0.950 . S
C898 H880 0.951 . S
C898 C899 1.366 . S
C898 C900 1.388 . S
C899 C898 1.366 . S
C899 C903 1.385 . S
C900 H881 0.951 . S
C900 C898 1.388 . S
C900 C901 1.366 . S
C901 C900 1.366 . S
C901 C902 1.414 . S
C901 C904 1.499 . S
C902 H882 0.950 . S
C902 C901 1.414 . S
C902 C903 1.374 . S
C903 H883 0.950 . S
C903 C899 1.385 . S
C903 C902 1.374 . S
C904 C901 1.499 . S
C904 C905 1.373 . S
C904 C906 1.389 . S
C905 H884 0.950 . S
C905 C904 1.373 . S
C905 C921 1.377 1_455 S
C906 C904 1.389 . S
C906 C907 1.524 . S
C906 C920 1.377 1_455 S
C907 C906 1.524 . S
C907 C908 1.397 . S
C907 C912 1.363 1_455 S
C908 H885 0.950 . S
C908 C907 1.397 . S
C908 C909 1.334 . S
C909 H886 0.950 . S
C909 C908 1.334 . S
C909 C910 1.287 . S
C910 C909 1.287 . S
C910 C911 1.524 1_455 S
C910 H929 0.913 . S
C911 H887 0.950 . S
C911 C910 1.524 1_655 S
C911 C912 1.415 . S
C912 H888 0.950 . S
C912 C907 1.363 1_655 S
C912 C911 1.415 . S
C913 H889 0.951 . S
C913 C914 1.366 . S
C913 C915 1.388 . S
C914 C913 1.366 . S
C914 C918 1.385 . S
C915 H890 0.951 . S
C915 C913 1.388 . S
C915 C916 1.366 . S
C916 C915 1.366 . S
C916 C917 1.414 . S
C916 C919 1.499 . S
C917 H891 0.950 . S
C917 C916 1.414 . S
C917 C918 1.374 . S
C918 H892 0.950 . S
C918 C914 1.385 . S
C918 C917 1.374 . S
C919 C916 1.499 . S
C919 C920 1.373 . S
C919 C921 1.389 . S
C920 H893 0.950 . S
C920 C906 1.377 1_655 S
C920 C919 1.373 . S
C921 C905 1.377 1_655 S
C921 C919 1.389 . S
C921 C922 1.524 . S
C922 C921 1.524 . S
C922 C923 1.397 . S
C922 C927 1.363 1_655 S
C923 H894 0.950 . S
C923 C922 1.397 . S
C923 C924 1.334 . S
C924 H895 0.950 . S
C924 C923 1.334 . S
C924 C925 1.287 . S
C925 C924 1.287 . S
C925 C926 1.524 1_655 S
C925 H928 0.999 . S
C926 H896 0.950 . S
C926 C925 1.524 1_455 S
C926 C927 1.415 . S
C927 H897 0.950 . S
C927 C922 1.363 1_455 S
C927 C926 1.415 . S
H928 C925 0.999 . S
H929 C910 0.913 . S
H930 C948 0.951 . S
H931 C950 0.951 . S
H932 C952 0.950 . S
H933 C953 0.950 . S
H934 C955 0.950 . S
H935 C958 0.950 . S
H936 C959 0.950 . S
H937 C961 0.950 . S
H938 C962 0.950 . S
H939 C963 0.951 . S
H940 C965 0.951 . S
H941 C967 0.950 . S
H942 C968 0.950 . S
H943 C970 0.950 . S
H944 C973 0.950 . S
H945 C974 0.950 . S
H946 C976 0.950 . S
H947 C977 0.950 . S
C948 H930 0.951 . S
C948 C949 1.366 . S
C948 C950 1.388 . S
C949 C948 1.366 . S
C949 C953 1.385 . S
C950 H931 0.951 . S
C950 C948 1.388 . S
C950 C951 1.366 . S
C951 C950 1.366 . S
C951 C952 1.414 . S
C951 C954 1.499 . S
C952 H932 0.950 . S
C952 C951 1.414 . S
C952 C953 1.374 . S
C953 H933 0.950 . S
C953 C949 1.385 . S
C953 C952 1.374 . S
C954 C951 1.499 . S
C954 C955 1.373 . S
C954 C956 1.389 . S
C955 H934 0.950 . S
C955 C954 1.373 . S
C955 C971 1.377 1_655 S
C956 C954 1.389 . S
C956 C957 1.524 . S
C956 C970 1.377 1_655 S
C957 C956 1.524 . S
C957 C958 1.397 . S
C957 C962 1.363 . S
C958 H935 0.950 . S
C958 C957 1.397 . S
C958 C959 1.334 . S
C959 H936 0.950 . S
C959 C958 1.334 . S
C959 C960 1.287 . S
C960 C959 1.287 . S
C960 C961 1.524 . S
C960 H979 0.913 . S
C961 H937 0.950 . S
C961 C960 1.524 . S
C961 C962 1.415 . S
C962 H938 0.950 . S
C962 C957 1.363 . S
C962 C961 1.415 . S
C963 H939 0.951 . S
C963 C964 1.366 . S
C963 C965 1.388 . S
C964 C963 1.366 . S
C964 C968 1.385 . S
C965 H940 0.951 . S
C965 C963 1.388 . S
C965 C966 1.366 . S
C966 C965 1.366 . S
C966 C967 1.414 . S
C966 C969 1.499 . S
C967 H941 0.950 . S
C967 C966 1.414 . S
C967 C968 1.374 . S
C968 H942 0.950 . S
C968 C964 1.385 . S
C968 C967 1.374 . S
C969 C966 1.499 . S
C969 C970 1.373 . S
C969 C971 1.389 . S
C970 H943 0.950 . S
C970 C956 1.377 1_455 S
C970 C969 1.373 . S
C971 C955 1.377 1_455 S
C971 C969 1.389 . S
C971 C972 1.524 . S
C972 C971 1.524 . S
C972 C973 1.397 . S
C972 C977 1.363 . S
C973 H944 0.950 . S
C973 C972 1.397 . S
C973 C974 1.334 . S
C974 H945 0.950 . S
C974 C973 1.334 . S
C974 C975 1.287 . S
C975 C974 1.287 . S
C975 C976 1.524 . S
C975 H978 0.999 . S
C976 H946 0.950 . S
C976 C975 1.524 . S
C976 C977 1.415 . S
C977 H947 0.950 . S
C977 C972 1.363 . S
C977 C976 1.415 . S
H978 C975 0.999 . S
H979 C960 0.913 . S
H980 C998 0.951 . S
H981 C1000 0.951 . S
H982 C1002 0.950 . S
H983 C1003 0.950 . S
H984 C1005 0.933 . S
H985 C1008 0.950 . S
H986 C1009 0.950 1_554 S
H987 C1011 0.950 . S
H988 C1012 0.950 . S
H989 C1013 0.951 . S
H990 C1015 0.951 . S
H991 C1017 0.950 . S
H992 C1018 0.950 . S
H993 C1020 0.933 . S
H994 C1023 0.950 . S
H995 C1024 0.950 . S
H996 C1026 0.950 . S
H997 C1027 0.950 . S
C998 H980 0.951 . S
C998 C999 1.366 . S
C998 C1000 1.388 . S
C999 C998 1.366 . S
C999 C1003 1.385 . S
C1000 H981 0.951 . S
C1000 C998 1.388 . S
C1000 C1001 1.366 . S
C1001 C1000 1.366 . S
C1001 C1002 1.414 . S
C1001 C1004 1.499 . S
C1002 H982 0.950 . S
C1002 C1001 1.414 . S
C1002 C1003 1.374 . S
C1003 H983 0.950 . S
C1003 C999 1.385 . S
C1003 C1002 1.374 . S
C1004 C1001 1.499 . S
C1004 C1005 1.408 . S
C1004 C1006 1.389 . S
C1005 H984 0.933 . S
C1005 C1004 1.408 . S
C1005 C1021 1.359 1_545 S
C1006 C1004 1.389 . S
C1006 C1007 1.524 . S
C1006 C1020 1.359 1_545 S
C1007 C1006 1.524 . S
C1007 C1008 1.397 . S
C1007 C1012 1.363 . S
C1008 H985 0.950 . S
C1008 C1007 1.397 . S
C1008 C1009 1.334 . S
C1009 H986 0.950 1_556 S
C1009 C1008 1.334 . S
C1009 C1010 1.287 . S
C1010 C1009 1.287 . S
C1010 C1011 1.524 . S
C1010 H1029 0.913 . S
C1011 H987 0.950 . S
C1011 C1010 1.524 . S
C1011 C1012 1.415 . S
C1012 H988 0.950 . S
C1012 C1007 1.363 . S
C1012 C1011 1.415 . S
C1013 H989 0.951 . S
C1013 C1014 1.366 . S
C1013 C1015 1.388 . S
C1014 C1013 1.366 . S
C1014 C1018 1.385 . S
C1015 H990 0.951 . S
C1015 C1013 1.388 . S
C1015 C1016 1.366 . S
C1016 C1015 1.366 . S
C1016 C1017 1.414 . S
C1016 C1019 1.499 . S
C1017 H991 0.950 . S
C1017 C1016 1.414 . S
C1017 C1018 1.374 . S
C1018 H992 0.950 . S
C1018 C1014 1.385 . S
C1018 C1017 1.374 . S
C1019 C1016 1.499 . S
C1019 C1020 1.408 . S
C1019 C1021 1.389 . S
C1020 H993 0.933 . S
C1020 C1006 1.359 1_565 S
C1020 C1019 1.408 . S
C1021 C1005 1.359 1_565 S
C1021 C1019 1.389 . S
C1021 C1022 1.524 . S
C1022 C1021 1.524 . S
C1022 C1023 1.397 . S
C1022 C1027 1.363 . S
C1023 H994 0.950 . S
C1023 C1022 1.397 . S
C1023 C1024 1.334 . S
C1024 H995 0.950 . S
C1024 C1023 1.334 . S
C1024 C1025 1.287 . S
C1025 C1024 1.287 . S
C1025 C1026 1.524 . S
C1025 H1028 0.999 . S
C1026 H996 0.950 . S
C1026 C1025 1.524 . S
C1026 C1027 1.415 . S
C1027 H997 0.950 . S
C1027 C1022 1.363 . S
C1027 C1026 1.415 . S
H1028 C1025 0.999 . S
H1029 C1010 0.913 . S
H1030 C1048 0.951 . S
H1031 C1050 0.951 . S
H1032 C1052 0.950 . S
H1033 C1053 0.950 . S
H1034 C1055 0.950 . S
H1035 C1058 0.950 . S
H1036 C1059 0.950 . S
H1037 C1061 0.950 . S
H1038 C1062 0.950 . S
H1039 C1063 0.951 . S
H1040 C1065 0.951 . S
H1041 C1067 0.950 . S
H1042 C1068 0.950 . S
H1043 C1070 0.950 . S
H1044 C1073 0.950 . S
H1045 C1074 0.950 . S
H1046 C1076 0.950 . S
H1047 C1077 0.950 . S
C1048 H1030 0.951 . S
C1048 C1049 1.366 . S
C1048 C1050 1.388 . S
C1049 C1048 1.366 . S
C1049 C1053 1.385 . S
C1050 H1031 0.951 . S
C1050 C1048 1.388 . S
C1050 C1051 1.366 . S
C1051 C1050 1.366 . S
C1051 C1052 1.414 . S
C1051 C1054 1.499 . S
C1052 H1032 0.950 . S
C1052 C1051 1.414 . S
C1052 C1053 1.374 . S
C1053 H1033 0.950 . S
C1053 C1049 1.385 . S
C1053 C1052 1.374 . S
C1054 C1051 1.499 . S
C1054 C1055 1.373 . S
C1054 C1056 1.389 . S
C1055 H1034 0.950 . S
C1055 C1054 1.373 . S
C1055 C1071 1.377 . S
C1056 C1054 1.389 . S
C1056 C1057 1.524 . S
C1056 C1070 1.377 . S
C1057 C1056 1.524 . S
C1057 C1058 1.397 . S
C1057 C1062 1.363 . S
C1058 H1035 0.950 . S
C1058 C1057 1.397 . S
C1058 C1059 1.334 . S
C1059 H1036 0.950 . S
C1059 C1058 1.334 . S
C1059 C1060 1.287 . S
C1060 C1059 1.287 . S
C1060 C1061 1.524 . S
C1060 H1079 0.913 . S
C1061 H1037 0.950 . S
C1061 C1060 1.524 . S
C1061 C1062 1.415 . S
C1062 H1038 0.950 . S
C1062 C1057 1.363 . S
C1062 C1061 1.415 . S
C1063 H1039 0.951 . S
C1063 C1064 1.366 . S
C1063 C1065 1.388 . S
C1064 C1063 1.366 . S
C1064 C1068 1.385 . S
C1065 H1040 0.951 . S
C1065 C1063 1.388 . S
C1065 C1066 1.366 . S
C1066 C1065 1.366 . S
C1066 C1067 1.414 . S
C1066 C1069 1.499 . S
C1067 H1041 0.950 . S
C1067 C1066 1.414 . S
C1067 C1068 1.374 . S
C1068 H1042 0.950 . S
C1068 C1064 1.385 . S
C1068 C1067 1.374 . S
C1069 C1066 1.499 . S
C1069 C1070 1.373 . S
C1069 C1071 1.389 . S
C1070 H1043 0.950 . S
C1070 C1056 1.377 . S
C1070 C1069 1.373 . S
C1071 C1055 1.377 . S
C1071 C1069 1.389 . S
C1071 C1072 1.524 . S
C1072 C1071 1.524 . S
C1072 C1073 1.397 . S
C1072 C1077 1.363 . S
C1073 H1044 0.950 . S
C1073 C1072 1.397 . S
C1073 C1074 1.334 . S
C1074 H1045 0.950 . S
C1074 C1073 1.334 . S
C1074 C1075 1.287 . S
C1075 C1074 1.287 . S
C1075 C1076 1.524 . S
C1075 H1078 0.999 . S
C1076 H1046 0.950 . S
C1076 C1075 1.524 . S
C1076 C1077 1.415 . S
C1077 H1047 0.950 . S
C1077 C1072 1.363 . S
C1077 C1076 1.415 . S
H1078 C1075 0.999 . S
H1079 C1060 0.913 . S
H1080 C1098 0.951 . S
H1081 C1100 0.951 . S
H1082 C1102 0.950 . S
H1083 C1103 0.950 . S
H1084 C1105 0.950 . S
H1085 C1108 0.950 1_556 S
H1086 C1109 0.950 . S
H1087 C1111 0.950 . S
H1088 C1112 0.950 . S
H1089 C1113 0.951 . S
H1090 C1115 0.951 . S
H1091 C1117 0.950 . S
H1092 C1118 0.950 . S
H1093 C1120 0.950 . S
H1094 C1123 0.950 1_554 S
H1095 C1124 0.950 . S
H1096 C1126 0.950 . S
H1097 C1127 0.950 . S
C1098 H1080 0.951 . S
C1098 C1099 1.366 1_554 S
C1098 C1100 1.388 . S
C1099 C1098 1.366 1_556 S
C1099 C1103 1.385 . S
C1100 H1081 0.951 . S
C1100 C1098 1.388 . S
C1100 C1101 1.366 1_554 S
C1101 C1100 1.366 1_556 S
C1101 C1102 1.414 . S
C1101 C1104 1.499 . S
C1102 H1082 0.950 . S
C1102 C1101 1.414 . S
C1102 C1103 1.374 . S
C1103 H1083 0.950 . S
C1103 C1099 1.385 . S
C1103 C1102 1.374 . S
C1104 C1101 1.499 . S
C1104 C1105 1.373 . S
C1104 C1106 1.389 1_556 S
C1105 H1084 0.950 . S
C1105 C1104 1.373 . S
C1105 C1121 1.377 . S
C1106 C1104 1.389 1_554 S
C1106 C1107 1.524 . S
C1106 C1120 1.377 . S
C1107 C1106 1.524 . S
C1107 C1108 1.397 . S
C1107 C1112 1.363 . S
C1108 H1085 0.950 1_554 S
C1108 C1107 1.397 . S
C1108 C1109 1.334 . S
C1109 H1086 0.950 . S
C1109 C1108 1.334 . S
C1109 C1110 1.287 . S
C1110 C1109 1.287 . S
C1110 C1111 1.524 . S
C1110 H1129 0.913 . S
C1111 H1087 0.950 . S
C1111 C1110 1.524 . S
C1111 C1112 1.415 . S
C1112 H1088 0.950 . S
C1112 C1107 1.363 . S
C1112 C1111 1.415 . S
C1113 H1089 0.951 . S
C1113 C1114 1.366 1_556 S
C1113 C1115 1.388 . S
C1114 C1113 1.366 1_554 S
C1114 C1118 1.385 . S
C1115 H1090 0.951 . S
C1115 C1113 1.388 . S
C1115 C1116 1.366 1_556 S
C1116 C1115 1.366 1_554 S
C1116 C1117 1.414 . S
C1116 C1119 1.499 . S
C1117 H1091 0.950 . S
C1117 C1116 1.414 . S
C1117 C1118 1.374 . S
C1118 H1092 0.950 . S
C1118 C1114 1.385 . S
C1118 C1117 1.374 . S
C1119 C1116 1.499 . S
C1119 C1120 1.373 . S
C1119 C1121 1.389 1_554 S
C1120 H1093 0.950 . S
C1120 C1106 1.377 . S
C1120 C1119 1.373 . S
C1121 C1105 1.377 . S
C1121 C1119 1.389 1_556 S
C1121 C1122 1.524 . S
C1122 C1121 1.524 . S
C1122 C1123 1.397 . S
C1122 C1127 1.363 . S
C1123 H1094 0.950 1_556 S
C1123 C1122 1.397 . S
C1123 C1124 1.334 . S
C1124 H1095 0.950 . S
C1124 C1123 1.334 . S
C1124 C1125 1.287 . S
C1125 C1124 1.287 . S
C1125 C1126 1.524 . S
C1125 H1128 0.999 . S
C1126 H1096 0.950 . S
C1126 C1125 1.524 . S
C1126 C1127 1.415 . S
C1127 H1097 0.950 . S
C1127 C1122 1.363 . S
C1127 C1126 1.415 . S
H1128 C1125 0.999 . S
H1129 C1110 0.913 . S
H1130 C1148 0.951 . S
H1131 C1150 0.951 . S
H1132 C1152 0.950 . S
H1133 C1153 0.950 . S
H1134 C1155 0.950 . S
H1135 C1158 0.950 . S
H1136 C1159 0.950 . S
H1137 C1161 0.950 . S
H1138 C1162 0.950 . S
H1139 C1163 0.951 . S
H1140 C1165 0.951 . S
H1141 C1167 0.950 . S
H1142 C1168 0.950 . S
H1143 C1170 0.950 . S
H1144 C1173 0.950 . S
H1145 C1174 0.950 . S
H1146 C1176 0.950 . S
H1147 C1177 0.950 . S
C1148 H1130 0.951 . S
C1148 C1149 1.366 . S
C1148 C1150 1.388 . S
C1149 C1148 1.366 . S
C1149 C1153 1.385 . S
C1150 H1131 0.951 . S
C1150 C1148 1.388 . S
C1150 C1151 1.366 . S
C1151 C1150 1.366 . S
C1151 C1152 1.414 . S
C1151 C1154 1.499 . S
C1152 H1132 0.950 . S
C1152 C1151 1.414 . S
C1152 C1153 1.374 . S
C1153 H1133 0.950 . S
C1153 C1149 1.385 . S
C1153 C1152 1.374 . S
C1154 C1151 1.499 . S
C1154 C1155 1.373 . S
C1154 C1156 1.389 . S
C1155 H1134 0.950 . S
C1155 C1154 1.373 . S
C1155 C1171 1.377 . S
C1156 C1154 1.389 . S
C1156 C1157 1.524 . S
C1156 C1170 1.377 . S
C1157 C1156 1.524 . S
C1157 C1158 1.397 . S
C1157 C1162 1.363 . S
C1158 H1135 0.950 . S
C1158 C1157 1.397 . S
C1158 C1159 1.334 . S
C1159 H1136 0.950 . S
C1159 C1158 1.334 . S
C1159 C1160 1.287 . S
C1160 C1159 1.287 . S
C1160 C1161 1.524 . S
C1160 H1179 0.913 . S
C1161 H1137 0.950 . S
C1161 C1160 1.524 . S
C1161 C1162 1.415 . S
C1162 H1138 0.950 . S
C1162 C1157 1.363 . S
C1162 C1161 1.415 . S
C1163 H1139 0.951 . S
C1163 C1164 1.366 . S
C1163 C1165 1.388 . S
C1164 C1163 1.366 . S
C1164 C1168 1.385 . S
C1165 H1140 0.951 . S
C1165 C1163 1.388 . S
C1165 C1166 1.366 . S
C1166 C1165 1.366 . S
C1166 C1167 1.414 . S
C1166 C1169 1.499 . S
C1167 H1141 0.950 . S
C1167 C1166 1.414 . S
C1167 C1168 1.374 . S
C1168 H1142 0.950 . S
C1168 C1164 1.385 . S
C1168 C1167 1.374 . S
C1169 C1166 1.499 . S
C1169 C1170 1.373 . S
C1169 C1171 1.389 . S
C1170 H1143 0.950 . S
C1170 C1156 1.377 . S
C1170 C1169 1.373 . S
C1171 C1155 1.377 . S
C1171 C1169 1.389 . S
C1171 C1172 1.524 . S
C1172 C1171 1.524 . S
C1172 C1173 1.397 . S
C1172 C1177 1.363 . S
C1173 H1144 0.950 . S
C1173 C1172 1.397 . S
C1173 C1174 1.334 . S
C1174 H1145 0.950 . S
C1174 C1173 1.334 . S
C1174 C1175 1.287 . S
C1175 C1174 1.287 . S
C1175 C1176 1.524 . S
C1175 H1178 0.999 . S
C1176 H1146 0.950 . S
C1176 C1175 1.524 . S
C1176 C1177 1.415 . S
C1177 H1147 0.950 . S
C1177 C1172 1.363 . S
C1177 C1176 1.415 . S
H1178 C1175 0.999 . S
H1179 C1160 0.913 . S
H1180 C1198 0.951 . S
H1181 C1200 0.951 . S
H1182 C1202 0.950 . S
H1183 C1203 0.950 . S
H1184 C1205 0.950 . S
H1185 C1208 0.950 . S
H1186 C1209 0.950 . S
H1187 C1211 0.950 . S
H1188 C1212 0.950 . S
H1189 C1213 0.951 . S
H1190 C1215 0.951 . S
H1191 C1217 0.950 . S
H1192 C1218 0.950 . S
H1193 C1220 0.950 . S
H1194 C1223 0.950 . S
H1195 C1224 0.950 . S
H1196 C1226 0.950 . S
H1197 C1227 0.950 . S
C1198 H1180 0.951 . S
C1198 C1199 1.366 . S
C1198 C1200 1.388 . S
C1199 C1198 1.366 . S
C1199 C1203 1.385 . S
C1200 H1181 0.951 . S
C1200 C1198 1.388 . S
C1200 C1201 1.366 . S
C1201 C1200 1.366 . S
C1201 C1202 1.414 . S
C1201 C1204 1.499 . S
C1202 H1182 0.950 . S
C1202 C1201 1.414 . S
C1202 C1203 1.374 . S
C1203 H1183 0.950 . S
C1203 C1199 1.385 . S
C1203 C1202 1.374 . S
C1204 C1201 1.499 . S
C1204 C1205 1.373 . S
C1204 C1206 1.389 . S
C1205 H1184 0.950 . S
C1205 C1204 1.373 . S
C1205 C1221 1.377 . S
C1206 C1204 1.389 . S
C1206 C1207 1.524 . S
C1206 C1220 1.377 . S
C1207 C1206 1.524 . S
C1207 C1208 1.397 . S
C1207 C1212 1.363 . S
C1208 H1185 0.950 . S
C1208 C1207 1.397 . S
C1208 C1209 1.334 . S
C1209 H1186 0.950 . S
C1209 C1208 1.334 . S
C1209 C1210 1.287 . S
C1210 C1209 1.287 . S
C1210 C1211 1.524 . S
C1210 H1229 0.913 . S
C1211 H1187 0.950 . S
C1211 C1210 1.524 . S
C1211 C1212 1.415 . S
C1212 H1188 0.950 . S
C1212 C1207 1.363 . S
C1212 C1211 1.415 . S
C1213 H1189 0.951 . S
C1213 C1214 1.366 . S
C1213 C1215 1.388 . S
C1214 C1213 1.366 . S
C1214 C1218 1.385 . S
C1215 H1190 0.951 . S
C1215 C1213 1.388 . S
C1215 C1216 1.366 . S
C1216 C1215 1.366 . S
C1216 C1217 1.414 . S
C1216 C1219 1.499 . S
C1217 H1191 0.950 . S
C1217 C1216 1.414 . S
C1217 C1218 1.374 . S
C1218 H1192 0.950 . S
C1218 C1214 1.385 . S
C1218 C1217 1.374 . S
C1219 C1216 1.499 . S
C1219 C1220 1.373 . S
C1219 C1221 1.389 . S
C1220 H1193 0.950 . S
C1220 C1206 1.377 . S
C1220 C1219 1.373 . S
C1221 C1205 1.377 . S
C1221 C1219 1.389 . S
C1221 C1222 1.524 . S
C1222 C1221 1.524 . S
C1222 C1223 1.397 . S
C1222 C1227 1.363 . S
C1223 H1194 0.950 . S
C1223 C1222 1.397 . S
C1223 C1224 1.334 . S
C1224 H1195 0.950 . S
C1224 C1223 1.334 . S
C1224 C1225 1.287 . S
C1225 C1224 1.287 . S
C1225 C1226 1.524 . S
C1225 H1228 0.999 . S
C1226 H1196 0.950 . S
C1226 C1225 1.524 . S
C1226 C1227 1.415 . S
C1227 H1197 0.950 . S
C1227 C1222 1.363 . S
C1227 C1226 1.415 . S
H1228 C1225 0.999 . S
H1229 C1210 0.913 . S
H1230 C1248 0.951 . S
H1231 C1250 0.951 . S
H1232 C1252 0.950 . S
H1233 C1253 0.950 . S
H1234 C1255 0.950 . S
H1235 C1258 0.950 1_556 S
H1236 C1259 0.984 . S
H1237 C1261 0.950 . S
H1238 C1262 0.950 . S
H1239 C1263 0.951 . S
H1240 C1265 0.951 . S
H1241 C1267 0.950 . S
H1242 C1268 0.950 . S
H1243 C1270 0.950 . S
H1244 C1273 0.950 1_554 S
H1245 C1274 0.984 . S
H1246 C1276 0.950 . S
H1247 C1277 0.950 . S
C1248 H1230 0.951 . S
C1248 C1249 1.366 . S
C1248 C1250 1.388 . S
C1249 C1248 1.366 . S
C1249 C1253 1.385 1_554 S
C1250 H1231 0.951 . S
C1250 C1248 1.388 . S
C1250 C1251 1.366 . S
C1251 C1250 1.366 . S
C1251 C1252 1.414 1_554 S
C1251 C1254 1.499 . S
C1252 H1232 0.950 . S
C1252 C1251 1.414 1_556 S
C1252 C1253 1.374 . S
C1253 H1233 0.950 . S
C1253 C1249 1.385 1_556 S
C1253 C1252 1.374 . S
C1254 C1251 1.499 . S
C1254 C1255 1.373 1_554 S
C1254 C1256 1.389 . S
C1255 H1234 0.950 . S
C1255 C1254 1.373 1_556 S
C1255 C1271 1.377 . S
C1256 C1254 1.389 . S
C1256 C1257 1.524 . S
C1256 C1270 1.377 . S
C1257 C1256 1.524 . S
C1257 C1258 1.397 . S
C1257 C1262 1.363 . S
C1258 H1235 0.950 1_554 S
C1258 C1257 1.397 . S
C1258 C1259 1.334 . S
C1259 H1236 0.984 . S
C1259 C1258 1.334 . S
C1259 C1260 1.287 . S
C1260 C1259 1.287 . S
C1260 C1261 1.524 . S
C1260 H1279 0.913 . S
C1261 H1237 0.950 . S
C1261 C1260 1.524 . S
C1261 C1262 1.415 . S
C1262 H1238 0.950 . S
C1262 C1257 1.363 . S
C1262 C1261 1.415 . S
C1263 H1239 0.951 . S
C1263 C1264 1.366 . S
C1263 C1265 1.388 . S
C1264 C1263 1.366 . S
C1264 C1268 1.385 1_556 S
C1265 H1240 0.951 . S
C1265 C1263 1.388 . S
C1265 C1266 1.366 . S
C1266 C1265 1.366 . S
C1266 C1267 1.414 1_556 S
C1266 C1269 1.499 . S
C1267 H1241 0.950 . S
C1267 C1266 1.414 1_554 S
C1267 C1268 1.374 . S
C1268 H1242 0.950 . S
C1268 C1264 1.385 1_554 S
C1268 C1267 1.374 . S
C1269 C1266 1.499 . S
C1269 C1270 1.373 1_556 S
C1269 C1271 1.389 . S
C1270 H1243 0.950 . S
C1270 C1256 1.377 . S
C1270 C1269 1.373 1_554 S
C1271 C1255 1.377 . S
C1271 C1269 1.389 . S
C1271 C1272 1.524 . S
C1272 C1271 1.524 . S
C1272 C1273 1.397 . S
C1272 C1277 1.363 . S
C1273 H1244 0.950 1_556 S
C1273 C1272 1.397 . S
C1273 C1274 1.334 . S
C1274 H1245 0.984 . S
C1274 C1273 1.334 . S
C1274 C1275 1.287 . S
C1275 C1274 1.287 . S
C1275 C1276 1.524 . S
C1275 H1278 0.999 . S
C1276 H1246 0.950 . S
C1276 C1275 1.524 . S
C1276 C1277 1.415 . S
C1277 H1247 0.950 . S
C1277 C1272 1.363 . S
C1277 C1276 1.415 . S
H1278 C1275 0.999 . S
H1279 C1260 0.913 . S
H1280 C1298 0.951 . S
H1281 C1300 0.951 . S
H1282 C1302 0.950 . S
H1283 C1303 0.950 . S
H1284 C1305 0.950 . S
H1285 C1308 0.950 . S
H1286 C1309 0.950 . S
H1287 C1311 0.950 . S
H1288 C1312 0.950 . S
H1289 C1313 0.951 . S
H1290 C1315 0.951 . S
H1291 C1317 0.950 . S
H1292 C1318 0.950 . S
H1293 C1320 0.950 . S
H1294 C1323 0.950 . S
H1295 C1324 0.950 . S
H1296 C1326 0.950 . S
H1297 C1327 0.950 . S
C1298 H1280 0.951 . S
C1298 C1299 1.366 . S
C1298 C1300 1.388 . S
C1299 C1298 1.366 . S
C1299 C1303 1.385 . S
C1300 H1281 0.951 . S
C1300 C1298 1.388 . S
C1300 C1301 1.366 . S
C1301 C1300 1.366 . S
C1301 C1302 1.414 . S
C1301 C1304 1.499 . S
C1302 H1282 0.950 . S
C1302 C1301 1.414 . S
C1302 C1303 1.374 . S
C1303 H1283 0.950 . S
C1303 C1299 1.385 . S
C1303 C1302 1.374 . S
C1304 C1301 1.499 . S
C1304 C1305 1.373 . S
C1304 C1306 1.389 . S
C1305 H1284 0.950 . S
C1305 C1304 1.373 . S
C1305 C1321 1.377 . S
C1306 C1304 1.389 . S
C1306 C1307 1.524 . S
C1306 C1320 1.377 . S
C1307 C1306 1.524 . S
C1307 C1308 1.397 . S
C1307 C1312 1.363 . S
C1308 H1285 0.950 . S
C1308 C1307 1.397 . S
C1308 C1309 1.334 . S
C1309 H1286 0.950 . S
C1309 C1308 1.334 . S
C1309 C1310 1.287 . S
C1310 C1309 1.287 . S
C1310 C1311 1.524 . S
C1310 H1329 0.913 . S
C1311 H1287 0.950 . S
C1311 C1310 1.524 . S
C1311 C1312 1.415 . S
C1312 H1288 0.950 . S
C1312 C1307 1.363 . S
C1312 C1311 1.415 . S
C1313 H1289 0.951 . S
C1313 C1314 1.366 . S
C1313 C1315 1.388 . S
C1314 C1313 1.366 . S
C1314 C1318 1.385 . S
C1315 H1290 0.951 . S
C1315 C1313 1.388 . S
C1315 C1316 1.366 . S
C1316 C1315 1.366 . S
C1316 C1317 1.414 . S
C1316 C1319 1.499 . S
C1317 H1291 0.950 . S
C1317 C1316 1.414 . S
C1317 C1318 1.374 . S
C1318 H1292 0.950 . S
C1318 C1314 1.385 . S
C1318 C1317 1.374 . S
C1319 C1316 1.499 . S
C1319 C1320 1.373 . S
C1319 C1321 1.389 . S
C1320 H1293 0.950 . S
C1320 C1306 1.377 . S
C1320 C1319 1.373 . S
C1321 C1305 1.377 . S
C1321 C1319 1.389 . S
C1321 C1322 1.524 . S
C1322 C1321 1.524 . S
C1322 C1323 1.397 . S
C1322 C1327 1.363 . S
C1323 H1294 0.950 . S
C1323 C1322 1.397 . S
C1323 C1324 1.334 . S
C1324 H1295 0.950 . S
C1324 C1323 1.334 . S
C1324 C1325 1.287 . S
C1325 C1324 1.287 . S
C1325 C1326 1.524 . S
C1325 H1328 0.999 . S
C1326 H1296 0.950 . S
C1326 C1325 1.524 . S
C1326 C1327 1.415 . S
C1327 H1297 0.950 . S
C1327 C1322 1.363 . S
C1327 C1326 1.415 . S
H1328 C1325 0.999 . S
H1329 C1310 0.913 . S
H1330 C1348 0.951 . S
H1331 C1350 0.951 . S
H1332 C1352 0.950 . S
H1333 C1353 0.950 . S
H1334 C1355 0.950 . S
H1335 C1358 0.950 . S
H1336 C1359 0.950 . S
H1337 C1361 0.950 . S
H1338 C1362 0.950 . S
H1339 C1363 0.951 . S
H1340 C1365 0.951 . S
H1341 C1367 0.950 . S
H1342 C1368 0.950 . S
H1343 C1370 0.950 . S
H1344 C1373 0.950 . S
H1345 C1374 0.950 . S
H1346 C1376 0.950 . S
H1347 C1377 0.950 . S
C1348 H1330 0.951 . S
C1348 C1349 1.366 . S
C1348 C1350 1.388 . S
C1349 C1348 1.366 . S
C1349 C1353 1.385 . S
C1350 H1331 0.951 . S
C1350 C1348 1.388 . S
C1350 C1351 1.366 . S
C1351 C1350 1.366 . S
C1351 C1352 1.414 . S
C1351 C1354 1.499 . S
C1352 H1332 0.950 . S
C1352 C1351 1.414 . S
C1352 C1353 1.374 . S
C1353 H1333 0.950 . S
C1353 C1349 1.385 . S
C1353 C1352 1.374 . S
C1354 C1351 1.499 . S
C1354 C1355 1.373 . S
C1354 C1356 1.389 . S
C1355 H1334 0.950 . S
C1355 C1354 1.373 . S
C1355 C1371 1.377 . S
C1356 C1354 1.389 . S
C1356 C1357 1.524 . S
C1356 C1370 1.377 . S
C1357 C1356 1.524 . S
C1357 C1358 1.397 . S
C1357 C1362 1.363 . S
C1358 H1335 0.950 . S
C1358 C1357 1.397 . S
C1358 C1359 1.334 . S
C1359 H1336 0.950 . S
C1359 C1358 1.334 . S
C1359 C1360 1.287 . S
C1360 C1359 1.287 . S
C1360 C1361 1.524 . S
C1360 H1379 0.913 . S
C1361 H1337 0.950 . S
C1361 C1360 1.524 . S
C1361 C1362 1.415 . S
C1362 H1338 0.950 . S
C1362 C1357 1.363 . S
C1362 C1361 1.415 . S
C1363 H1339 0.951 . S
C1363 C1364 1.366 . S
C1363 C1365 1.388 . S
C1364 C1363 1.366 . S
C1364 C1368 1.385 . S
C1365 H1340 0.951 . S
C1365 C1363 1.388 . S
C1365 C1366 1.366 . S
C1366 C1365 1.366 . S
C1366 C1367 1.414 . S
C1366 C1369 1.499 . S
C1367 H1341 0.950 . S
C1367 C1366 1.414 . S
C1367 C1368 1.374 . S
C1368 H1342 0.950 . S
C1368 C1364 1.385 . S
C1368 C1367 1.374 . S
C1369 C1366 1.499 . S
C1369 C1370 1.373 . S
C1369 C1371 1.389 . S
C1370 H1343 0.950 . S
C1370 C1356 1.377 . S
C1370 C1369 1.373 . S
C1371 C1355 1.377 . S
C1371 C1369 1.389 . S
C1371 C1372 1.524 . S
C1372 C1371 1.524 . S
C1372 C1373 1.397 . S
C1372 C1377 1.363 . S
C1373 H1344 0.950 . S
C1373 C1372 1.397 . S
C1373 C1374 1.334 . S
C1374 H1345 0.950 . S
C1374 C1373 1.334 . S
C1374 C1375 1.287 . S
C1375 C1374 1.287 . S
C1375 C1376 1.524 . S
C1375 H1378 0.999 . S
C1376 H1346 0.950 . S
C1376 C1375 1.524 . S
C1376 C1377 1.415 . S
C1377 H1347 0.950 . S
C1377 C1372 1.363 . S
C1377 C1376 1.415 . S
H1378 C1375 0.999 . S
H1379 C1360 0.913 . S
C499 C2 1.908 . S
C514 C242 1.908 . S
C549 C42 1.907 . S
C564 C282 1.907 . S
C599 C82 1.907 . S
C614 C322 1.907 . S
C649 C362 1.908 . S
C664 C122 1.908 . S
C699 C162 1.907 . S
C714 C402 1.907 . S
C749 C442 1.906 . S
C764 C202 1.907 . S
C799 C21 1.756 . S
C814 C141 1.756 . S
C849 C61 1.757 . S
C864 C181 1.756 . S
C899 C221 1.757 . S
C914 C101 1.756 . S
C949 C261 1.756 . S
C964 C381 1.757 . S
C999 C421 1.756 . S
C1014 C301 1.757 . S
C1049 C461 1.756 . S
C1064 C341 1.756 . S
C1099 C415 1.920 1_455 S
C1114 C15 1.921 . S
C1149 C455 1.921 1_545 S
C1164 C55 1.921 1_655 S
C1199 C95 1.921 1_565 S
C1214 C255 1.921 . S
C1249 C135 1.921 . S
C1264 C295 1.921 1_655 S
C1299 C335 1.921 1_565 S
C1314 C175 1.921 1_455 S
C1349 C215 1.920 1_545 S
C1364 C375 1.920 . S
