# Generated by pormake.
# Topology snk, (6)-cn, num edge types: 1
# Building blocks:
#     Node 0, Type 0, BuildingBlock: HISSIN_clean_sbu_0, # of connection points: 6
#     Node 1, Type 0, BuildingBlock: HISSIN_clean_sbu_0, # of connection points: 6
#     Node 2, Type 0, BuildingBlock: HISSIN_clean_sbu_0, # of connection points: 6
#     Node 3, Type 0, BuildingBlock: HISSIN_clean_sbu_0, # of connection points: 6
#     Node 4, Type 0, BuildingBlock: HISSIN_clean_sbu_0, # of connection points: 6
#     Node 5, Type 0, BuildingBlock: HISSIN_clean_sbu_0, # of connection points: 6
#     Node 6, Type 0, BuildingBlock: HISSIN_clean_sbu_0, # of connection points: 6
#     Node 7, Type 0, BuildingBlock: HISSIN_clean_sbu_0, # of connection points: 6
#     Edge 8, Type (0, 0), BuildingBlock: OJICUG_clean_linker_0, # of connection points: 2
#     Edge 9, Type (0, 0), BuildingBlock: OJICUG_clean_linker_0, # of connection points: 2
#     Edge 10, Type (0, 0), BuildingBlock: OJICUG_clean_linker_0, # of connection points: 2
#     Edge 11, Type (0, 0), BuildingBlock: OJICUG_clean_linker_0, # of connection points: 2
#     Edge 12, Type (0, 0), BuildingBlock: OJICUG_clean_linker_0, # of connection points: 2
#     Edge 13, Type (0, 0), BuildingBlock: OJICUG_clean_linker_0, # of connection points: 2
#     Edge 14, Type (0, 0), BuildingBlock: OJICUG_clean_linker_0, # of connection points: 2
#     Edge 15, Type (0, 0), BuildingBlock: OJICUG_clean_linker_0, # of connection points: 2
#     Edge 16, Type (0, 0), BuildingBlock: OJICUG_clean_linker_0, # of connection points: 2
#     Edge 17, Type (0, 0), BuildingBlock: OJICUG_clean_linker_0, # of connection points: 2
#     Edge 18, Type (0, 0), BuildingBlock: OJICUG_clean_linker_0, # of connection points: 2
#     Edge 19, Type (0, 0), BuildingBlock: OJICUG_clean_linker_0, # of connection points: 2
#     Edge 20, Type (0, 0), BuildingBlock: OJICUG_clean_linker_0, # of connection points: 2
#     Edge 21, Type (0, 0), BuildingBlock: OJICUG_clean_linker_0, # of connection points: 2
#     Edge 22, Type (0, 0), BuildingBlock: OJICUG_clean_linker_0, # of connection points: 2
#     Edge 23, Type (0, 0), BuildingBlock: OJICUG_clean_linker_0, # of connection points: 2
#     Edge 24, Type (0, 0), BuildingBlock: OJICUG_clean_linker_0, # of connection points: 2
#     Edge 25, Type (0, 0), BuildingBlock: OJICUG_clean_linker_0, # of connection points: 2
#     Edge 26, Type (0, 0), BuildingBlock: OJICUG_clean_linker_0, # of connection points: 2
#     Edge 27, Type (0, 0), BuildingBlock: OJICUG_clean_linker_0, # of connection points: 2
#     Edge 28, Type (0, 0), BuildingBlock: OJICUG_clean_linker_0, # of connection points: 2
#     Edge 29, Type (0, 0), BuildingBlock: OJICUG_clean_linker_0, # of connection points: 2
#     Edge 30, Type (0, 0), BuildingBlock: OJICUG_clean_linker_0, # of connection points: 2
#     Edge 31, Type (0, 0), BuildingBlock: OJICUG_clean_linker_0, # of connection points: 2
# Relax obj value: 0.105
# Max RMSD: 0.190
# Mean RMSD: 0.152
data_MOF--net-snk--node1-HISSIN_clean_sbu_0--edge1-OJICUG_clean_linker_0
_symmetry_space_group_name_H-M    P1
_symmetry_Int_Tables_number       1
_symmetry_cell_setting            triclinic
loop_
_symmetry_equiv_pos_as_xyz
'x, y, z'
_cell_length_a     27.463182
_cell_length_b     27.406824
_cell_length_c     20.877978
_cell_angle_alpha  93.149703
_cell_angle_beta   92.915815
_cell_angle_gamma 91.351204
loop_
_atom_site_label
_atom_site_type_symbol
_atom_site_fract_x
_atom_site_fract_y
_atom_site_fract_z
_atom_type_partial_charge
Eu0 Eu 0.98154 0.95537 0.44511 0.0
Eu1 Eu 0.98964 0.02849 0.58 0.0
C2 C 0.93129 0.06032 0.45232 0.0
C3 C 0.97178 0.92378 0.26733 0.0
C4 C 0.97667 0.97379 0.25685 0.0
C5 C 0.96434 0.90624 0.15167 0.0
C6 C 0.97583 0.98991 0.19434 0.0
C7 C 0.96527 0.89015 0.21436 0.0
C8 C 0.96998 0.95635 0.14076 0.0
C9 C 0.97466 0.907 0.33339 0.0
O10 O 0.92099 0.98198 0.58208 0.0
O11 O 0.94051 0.91535 0.51789 0.0
C12 C 0.91606 0.93525 0.56472 0.0
O13 O 0.04289 0.92588 0.50726 0.0
O14 O 0.95524 0.07408 0.65322 0.0
O15 O 0.03223 0.0594 0.66425 0.0
O16 O 0.01958 0.95646 0.60525 0.0
C17 C 0.04519 0.92643 0.57045 0.0
O18 O 0.02681 0.02082 0.42373 0.0
O19 O 0.05571 0.04836 0.52486 0.0
O20 O 0.95875 0.07539 0.50333 0.0
O21 O 0.01593 0.91685 0.36585 0.0
O22 O 0.93719 0.91634 0.36774 0.0
O23 O 0.92573 0.01373 0.43432 0.0
C24 C 0.98739 0.05932 0.75726 0.0
C25 C 0.97784 0.00963 0.76595 0.0
C26 C 0.98734 0.07567 0.873 0.0
C27 C 0.97341 0.99299 0.82764 0.0
C28 C 0.99185 0.09227 0.81113 0.0
C29 C 0.97845 0.02571 0.88214 0.0
C30 C -0.00593 0.07612 0.69221 0.0
C31 C 0.0576 0.04734 0.46187 0.0
H32 H 0.98177 0.00038 0.29713 0.0
H33 H 0.95899 0.87939 0.11176 0.0
H34 H 0.98091 0.02862 0.18811 0.0
H35 H 0.96121 0.85143 0.22144 0.0
H36 H 0.97417 0.98357 0.72493 0.0
H37 H 0.99194 0.10184 0.91377 0.0
H38 H 0.96582 0.95447 0.83258 0.0
H39 H -0.00062 0.13073 0.80544 0.0
Eu40 Eu 0.26492 0.73317 0.71156 0.0
Eu41 Eu 0.19547 0.73952 0.8381 0.0
C42 C 0.17162 0.66175 0.72291 0.0
C43 C 0.29726 0.72564 0.53876 0.0
C44 C 0.24725 0.72254 0.52116 0.0
C45 C 0.31506 0.72707 0.42608 0.0
C46 C 0.23119 0.72235 0.45658 0.0
C47 C 0.33111 0.7275 0.4909 0.0
C48 C 0.26486 0.72512 0.40825 0.0
C49 C 0.31358 0.72966 0.60706 0.0
O50 O 0.24663 0.67728 0.8497 0.0
O51 O 0.31062 0.70451 0.79347 0.0
C52 C 0.29312 0.6778 0.83783 0.0
O53 O 0.28338 0.80403 0.76815 0.0
O54 O 0.15177 0.7041 0.90758 0.0
O55 O 0.16378 0.78262 0.91568 0.0
O56 O 0.26537 0.77922 0.86708 0.0
C57 C 0.2876 0.80919 0.83105 0.0
O58 O 0.19371 0.76318 0.67671 0.0
O59 O 0.16965 0.7975 0.77232 0.0
O60 O 0.15272 0.69368 0.76283 0.0
O61 O 0.30247 0.77023 0.63782 0.0
O62 O 0.30482 0.69152 0.63987 0.0
O63 O 0.21692 0.66532 0.70614 0.0
C64 C 0.16481 0.74119 1.0113 0.0
C65 C 0.2148 0.73929 0.02831 0.0
C66 C 0.147 0.73652 0.12354 0.0
C67 C 0.23083 0.73621 0.09253 0.0
C68 C 0.131 0.73972 0.05919 0.0
C69 C 0.19715 0.73477 0.14105 0.0
C70 C 0.14824 0.74417 0.9436 0.0
C71 C 0.16756 0.79436 0.70907 0.0
H72 H 0.22057 0.72099 0.55753 0.0
H73 H 0.34191 0.72964 0.39008 0.0
H74 H 0.19235 0.72009 0.44447 0.0
H75 H 0.36985 0.73015 0.5037 0.0
H76 H 0.24145 0.74033 0.99183 0.0
H77 H 0.12002 0.73482 0.15947 0.0
H78 H 0.26968 0.73564 0.10421 0.0
H79 H 0.09227 0.74088 0.04681 0.0
Eu80 Eu 0.4969 0.97704 0.07456 0.0
Eu81 Eu 0.49025 0.04644 0.9486 0.0
C82 C 0.57129 0.06464 0.05992 0.0
C83 C 0.50232 0.94873 0.24912 0.0
C84 C 0.50262 -0.00093 0.26569 0.0
C85 C 0.50313 0.93235 0.36229 0.0
C86 C 0.50265 0.01596 0.33008 0.0
C87 C 0.50285 0.91548 0.29773 0.0
C88 C 0.5026 0.98281 0.37918 0.0
C89 C 0.49938 0.93115 0.18118 0.0
O90 O 0.54689 0.98969 0.92822 0.0
O91 O 0.52499 0.92937 0.99497 0.0
C92 C 0.54865 0.94438 0.94619 0.0
O93 O 0.42699 0.95638 1.01738 0.0
O94 O 0.52616 0.09163 0.88122 0.0
O95 O 0.44759 0.08117 0.87361 0.0
O96 O 0.44913 0.97756 0.91812 0.0
C97 C 0.42116 0.95308 0.95445 0.0
O98 O 0.47157 0.05056 0.1081 0.0
O99 O 0.43114 0.06959 1.01491 0.0
O100 O 0.53777 0.08624 0.02574 0.0
O101 O 0.4592 0.94122 0.14921 0.0
O102 O 0.53785 0.93956 0.14891 0.0
O103 O 0.56811 0.01812 0.07037 0.0
C104 C 0.48865 0.08119 0.77766 0.0
C105 C 0.49252 0.03145 0.75946 0.0
C106 C 0.4903 0.1004 0.6656 0.0
C107 C 0.49525 0.01623 0.69482 0.0
C108 C 0.4875 0.11559 0.73046 0.0
C109 C 0.49431 0.05049 0.64699 0.0
C110 C 0.48616 0.09668 0.84592 0.0
C111 C 0.43726 0.0739 0.07787 0.0
H112 H 0.50235 0.02531 0.22875 0.0
H113 H 0.5026 0.90586 0.39889 0.0
H114 H 0.50291 0.05501 0.34143 0.0
H115 H 0.5024 0.8765 0.28574 0.0
H116 H 0.49336 0.00433 0.79536 0.0
H117 H 0.48999 0.12781 0.63016 0.0
H118 H 0.49749 0.9775 0.68231 0.0
H119 H 0.48465 0.15415 0.74375 0.0
Eu120 Eu 0.28336 0.25296 0.35848 0.0
Eu121 Eu 0.20861 0.24753 0.2245 0.0
C122 C 0.17728 0.30205 0.35683 0.0
C123 C 0.31703 0.25849 0.53583 0.0
C124 C 0.27105 0.27567 0.55113 0.0
C125 C 0.33105 0.23777 0.64725 0.0
C126 C 0.25512 0.27397 0.61355 0.0
C127 C 0.3469 0.23939 0.58441 0.0
C128 C 0.28488 0.25513 0.66276 0.0
C129 C 0.33295 0.25969 0.46908 0.0
O130 O 0.27903 0.283 0.20117 0.0
O131 O 0.30527 0.31684 0.29969 0.0
C132 C 0.30658 0.31436 0.23664 0.0
O133 O 0.32476 0.21192 0.2832 0.0
O134 O 0.17479 0.2885 0.14798 0.0
O135 O 0.16669 0.20954 0.14416 0.0
O136 O 0.26024 0.18549 0.21383 0.0
C137 C 0.30646 0.18467 0.23343 0.0
O138 O 0.23301 0.18711 0.36551 0.0
O139 O 0.17004 0.19963 0.29058 0.0
O140 O 0.17582 0.303 0.2937 0.0
O141 O 0.32736 0.21894 0.43366 0.0
O142 O 0.3194 0.29745 0.43765 0.0
O143 O 0.21152 0.27979 0.38873 0.0
C144 C 0.17862 0.24721 0.04649 0.0
C145 C 0.2263 0.23303 0.03457 0.0
C146 C 0.1655 0.26252 0.93322 0.0
C147 C 0.24336 0.23326 0.97245 0.0
C148 C 0.14834 0.26189 0.99535 0.0
C149 C 0.2133 0.24832 0.92094 0.0
C150 C 0.16156 0.24917 0.11262 0.0
C151 C 0.18865 0.17742 0.34017 0.0
H152 H 0.24731 0.29044 0.51457 0.0
H153 H 0.35526 0.22344 0.6838 0.0
H154 H 0.21906 0.28686 0.6229 0.0
H155 H 0.38248 0.22578 0.57379 0.0
H156 H 0.2506 0.22243 0.07358 0.0
H157 H 0.14121 0.27393 0.89468 0.0
H158 H 0.28052 0.22278 0.9651 0.0
H159 H 0.11158 0.27334 1.00355 0.0
Eu160 Eu 0.81471 0.25773 0.16326 0.0
Eu161 Eu 0.74997 0.27188 0.29411 0.0
C162 C 0.72114 0.1875 0.18375 0.0
C163 C 0.85536 0.26563 0.99337 0.0
C164 C 0.81098 0.28583 0.97377 0.0
C165 C 0.87965 0.26292 0.88316 0.0
C166 C 0.80099 0.2946 0.90926 0.0
C167 C 0.88966 0.25429 0.94785 0.0
C168 C 0.83519 0.28324 0.86308 0.0
C169 C 0.86599 0.25685 0.06125 0.0
O170 O 0.8194 0.2371 0.32515 0.0
O171 O 0.83916 0.19871 0.22963 0.0
C172 C 0.84185 0.20278 0.29303 0.0
O173 O 0.85886 0.30033 0.24142 0.0
O174 O 0.71154 0.24954 0.37688 0.0
O175 O 0.7264 0.32643 0.36531 0.0
O176 O 0.79033 0.33662 0.26145 0.0
C177 C 0.8372 0.33561 0.27178 0.0
O178 O 0.75334 0.31098 0.14207 0.0
O179 O 0.69755 0.28966 0.21544 0.0
O180 O 0.71936 0.20241 0.24459 0.0
O181 O 0.86283 0.29496 0.10103 0.0
O182 O 0.84568 0.21766 0.08227 0.0
O183 O 0.75015 0.20695 0.14331 0.0
C184 C 0.73339 0.29869 0.46971 0.0
C185 C 0.78265 0.28832 0.48213 0.0
C186 C 0.72444 0.31429 0.58389 0.0
C187 C 0.80254 0.29016 0.54512 0.0
C188 C 0.70454 0.31227 0.52075 0.0
C189 C 0.77348 0.30254 0.59679 0.0
C190 C 0.712 0.29368 0.40377 0.0
C191 C 0.70903 0.31226 0.1644 0.0
H192 H 0.78396 0.2946 1.00838 0.0
H193 H 0.90687 0.254 0.84897 0.0
H194 H 0.76598 0.30929 0.89541 0.0
H195 H 0.9242 0.23885 0.96234 0.0
H196 H 0.80553 0.2781 0.44313 0.0
H197 H 0.701 0.32342 0.62273 0.0
H198 H 0.84055 0.28154 0.55345 0.0
H199 H 0.66644 0.32036 0.5119 0.0
Eu200 Eu 0.77833 0.75688 0.84537 0.0
Eu201 Eu 0.71035 0.73671 0.71039 0.0
C202 C 0.67842 0.81062 0.82402 0.0
C203 C 0.81053 0.76756 1.02209 0.0
C204 C 0.76166 0.75554 0.0322 0.0
C205 C 0.82867 0.76941 0.13736 0.0
C206 C 0.74636 0.75051 0.09437 0.0
C207 C 0.84394 0.77456 0.07497 0.0
C208 C 0.77966 0.75729 0.14778 0.0
C209 C 0.82631 0.77169 0.95622 0.0
O210 O 0.78208 0.769 0.68565 0.0
O211 O 0.79892 0.81567 0.77816 0.0
C212 C 0.80365 0.80711 0.71618 0.0
O213 O 0.82156 0.70889 0.78033 0.0
O214 O 0.67061 0.76787 0.63002 0.0
O215 O 0.67826 0.68962 0.63039 0.0
O216 O 0.75628 0.6705 0.72453 0.0
C217 C 0.80229 0.67157 0.74518 0.0
O218 O 0.72666 0.69347 0.8613 0.0
O219 O 0.66531 0.70234 0.78331 0.0
O220 O 0.68275 0.80504 0.76167 0.0
O221 O 0.82664 0.73062 0.92151 0.0
O222 O 0.80669 0.80666 0.92447 0.0
O223 O 0.70543 0.7867 0.86421 0.0
C224 C 0.68215 0.72636 0.53099 0.0
C225 C 0.73171 0.73468 0.5209 0.0
C226 C 0.66457 0.72402 0.41561 0.0
C227 C 0.74757 0.73824 0.4587 0.0
C228 C 0.64874 0.72067 0.47799 0.0
C229 C 0.71416 0.73335 0.40517 0.0
C230 C 0.66517 0.72628 0.59675 0.0
C231 C 0.68212 0.68365 0.83652 0.0
H232 H 0.73536 0.74973 0.99185 0.0
H233 H 0.85512 0.7754 0.17746 0.0
H234 H 0.70856 0.7405 0.10049 0.0
H235 H 0.8818 0.78388 0.06804 0.0
H236 H 0.75804 0.73928 0.56128 0.0
H237 H 0.63793 0.7193 0.37556 0.0
H238 H 0.78586 0.74607 0.45277 0.0
H239 H 0.61033 0.71421 0.48487 0.0
Eu240 Eu 0.48007 0.46615 0.96383 0.0
Eu241 Eu 0.49925 0.53536 0.09865 0.0
C242 C 0.42097 0.56193 0.9906 0.0
C243 C 0.46606 0.43732 0.78504 0.0
C244 C 0.47189 0.48733 0.77526 0.0
C245 C 0.46621 0.41984 0.66961 0.0
C246 C 0.47527 0.50349 0.7132 0.0
C247 C 0.46299 0.4037 0.73185 0.0
C248 C 0.47282 0.46994 0.65953 0.0
C249 C 0.46541 0.42029 0.85076 0.0
O250 O 0.43556 0.48472 0.11323 0.0
O251 O 0.45021 0.42089 0.04125 0.0
C252 C 0.42991 0.43856 0.09327 0.0
O253 O 0.55228 0.44413 1.00755 0.0
O254 O 0.47048 0.58253 0.1747 0.0
O255 O 0.54676 0.56411 0.1797 0.0
O256 O 0.5367 0.46435 0.11212 0.0
C257 C 0.56172 0.44049 0.06919 0.0
O258 O 0.51723 0.53583 0.93756 0.0
O259 O 0.5579 0.55834 0.0338 0.0
O260 O 0.45732 0.58035 0.02821 0.0
O261 O 0.50729 0.42266 0.8831 0.0
O262 O 0.43036 0.43628 0.88543 0.0
O263 O 0.41632 0.51477 0.97758 0.0
C264 C 0.50584 0.56696 0.27623 0.0
C265 C 0.4969 0.51742 0.28638 0.0
C266 C 0.5034 0.58568 0.39118 0.0
C267 C 0.49127 0.50207 0.34843 0.0
C268 C 0.50905 0.60099 0.32896 0.0
C269 C 0.49437 0.53598 0.40175 0.0
C270 C 0.51084 0.58289 0.21056 0.0
C271 C 0.55246 0.56036 0.97105 0.0
H272 H 0.47423 0.5139 0.81574 0.0
H273 H 0.46468 0.39295 0.62951 0.0
H274 H 0.47962 0.54233 0.70727 0.0
H275 H 0.45877 0.36493 0.73849 0.0
H276 H 0.49431 0.49056 0.24618 0.0
H277 H 0.50541 0.61291 0.43087 0.0
H278 H 0.48508 0.46348 0.35463 0.0
H279 H 0.51567 0.63942 0.32199 0.0
Eu280 Eu 0.97277 0.41262 0.64065 0.0
Eu281 Eu 0.95942 0.48157 0.51308 0.0
C282 C 0.04359 0.50557 0.62226 0.0
C283 C 0.96917 0.37512 0.81166 0.0
C284 C 0.95309 0.42163 0.8307 0.0
C285 C 0.97147 0.3533 0.92299 0.0
C286 C 0.94614 0.43389 0.89538 0.0
C287 C 0.97845 0.34108 0.85812 0.0
C288 C 0.95507 0.39987 0.94246 0.0
C289 C 0.97578 0.36225 0.74338 0.0
O290 O -0.00694 0.41248 0.47775 0.0
O291 O 0.03079 0.38934 0.57178 0.0
C292 C 0.02734 0.38916 0.50833 0.0
O293 O 0.92981 0.36968 0.56183 0.0
O294 O 0.98202 0.52437 0.43404 0.0
O295 O 0.90576 0.50495 0.44112 0.0
O296 O 0.89486 0.4395 0.54332 0.0
C297 C 0.89562 0.39259 0.53135 0.0
O298 O 0.91831 0.47224 0.66262 0.0
O299 O 0.9419 0.53199 0.59561 0.0
O300 O 0.03242 0.504 0.56016 0.0
O301 O 0.93685 0.36529 0.70532 0.0
O302 O 0.01453 0.38116 0.71943 0.0
O303 O 0.01966 0.47999 0.66252 0.0
C304 C 0.93654 0.50233 0.33799 0.0
C305 C 0.94401 0.45244 0.32417 0.0
C306 C 0.92809 0.51435 0.22366 0.0
C307 C 0.94416 0.4337 0.26054 0.0
C308 C 0.9282 0.5331 0.28743 0.0
C309 C 0.9366 0.46453 0.20949 0.0
C310 C 0.93875 0.5222 0.40502 0.0
C311 C 0.91957 0.51809 0.64593 0.0
H312 H 0.94605 0.44854 0.79547 0.0
H313 H 0.97838 0.32605 0.95774 0.0
H314 H 0.93454 0.47041 0.90853 0.0
H315 H 0.99084 0.30497 0.84422 0.0
H316 H 0.95008 0.42804 0.36264 0.0
H317 H 0.92263 0.53913 0.18543 0.0
H318 H 0.95015 0.39508 0.25131 0.0
H319 H 0.92241 0.5717 0.29723 0.0
C320 C 0.1336 0.10107 0.466 0.0
C321 C 0.09279 0.07934 0.43134 0.0
H322 H 0.19661 0.14864 0.46395 0.0
C323 C 0.085 0.08884 0.36607 0.0
H324 H 0.14062 0.0944 0.51625 0.0
C325 C 0.1166 0.11999 0.33642 0.0
C326 C 0.15723 0.14195 0.37094 0.0
H327 H 0.05382 0.07294 0.33782 0.0
H328 H 0.10898 0.12702 0.28639 0.0
C329 C 0.16579 0.13182 0.4359 0.0
C330 C 0.07729 0.89243 0.67242 0.0
C331 C 0.07619 0.89175 0.60485 0.0
H332 H 0.10658 0.86244 0.75801 0.0
C333 C 0.10485 0.85807 0.57165 0.0
H334 H 0.05564 0.91778 0.69981 0.0
C335 C 0.13421 0.82606 0.60543 0.0
C336 C 0.13549 0.82714 0.67307 0.0
H337 H 0.10481 0.85654 0.5197 0.0
H338 H 0.15614 0.80074 0.57844 0.0
C339 C 0.10655 0.86058 0.70605 0.0
C340 C 0.3243 0.85339 0.9298 0.0
C341 C 0.31954 0.84805 0.8624 0.0
H342 H 0.36006 0.89108 1.01193 0.0
C343 C 0.34641 0.87925 0.82565 0.0
H344 H 0.3038 0.83002 0.95949 0.0
C345 C 0.37858 0.9143 0.85579 0.0
C346 C 0.38439 0.9187 0.92318 0.0
H347 H 0.3433 0.87613 0.77365 0.0
H348 H 0.3995 0.93729 0.82609 0.0
C349 C 0.35646 0.88844 0.95994 0.0
C350 C 0.41848 0.11917 0.18027 0.0
C351 C 0.40426 0.1036 0.11658 0.0
H352 H 0.39878 0.157 0.26721 0.0
C353 C 0.35748 0.11421 0.092 0.0
H354 H 0.4544 0.11147 0.20057 0.0
C355 C 0.32527 0.13938 0.13069 0.0
C356 C 0.33957 0.15525 0.1943 0.0
H357 H 0.3454 0.10224 0.04334 0.0
H358 H 0.28936 0.14689 0.11034 0.0
C359 C 0.38661 0.14511 0.21856 0.0
C360 C 0.87242 0.85577 0.57939 0.0
C361 C 0.88551 0.90351 0.60269 0.0
H362 H 0.83682 0.78813 0.59694 0.0
C363 C 0.87201 0.91938 0.6645 0.0
H364 H 0.88245 0.84226 0.53225 0.0
C365 C 0.84627 0.88796 0.70228 0.0
C366 C 0.833 0.84029 0.67864 0.0
H367 H 0.88206 0.95581 0.68426 0.0
H368 H 0.83636 0.90116 0.74959 0.0
C369 C 0.84629 0.82468 0.6167 0.0
C370 C 0.90421 0.14532 0.43469 0.0
C371 C 0.90886 0.09683 0.41107 0.0
H372 H 0.87988 0.21681 0.4156 0.0
C373 C 0.89423 0.08411 0.34652 0.0
H374 H 0.91557 0.15643 0.48388 0.0
C375 C 0.87459 0.11905 0.30677 0.0
C376 C 0.86858 0.16714 0.33115 0.0
H377 H 0.89812 0.04719 0.32651 0.0
H378 H 0.8627 0.10804 0.25773 0.0
C379 C 0.88396 0.17996 0.39536 0.0
C380 C 0.69574 0.11512 0.11237 0.0
C381 C 0.68386 0.15247 0.15705 0.0
H382 H 0.66826 0.05652 0.04703 0.0
C383 C 0.63507 0.15972 0.17096 0.0
H384 H 0.73331 0.10944 0.10095 0.0
C385 C 0.59823 0.13101 0.13862 0.0
C386 C 0.6101 0.09404 0.09365 0.0
H387 H 0.62532 0.18894 0.20463 0.0
H388 H 0.56052 0.13767 0.14857 0.0
C389 C 0.65889 0.08529 0.08158 0.0
C390 C 0.6246 0.83426 0.91158 0.0
C391 C 0.64216 0.84347 0.85127 0.0
H392 H 0.58126 0.85855 0.98831 0.0
C393 C 0.62692 0.88514 0.8204 0.0
H394 H 0.63538 0.80216 0.93629 0.0
C395 C 0.59608 0.9181 0.85086 0.0
C396 C 0.57948 0.90925 0.91197 0.0
H397 H 0.64005 0.89303 0.77393 0.0
H398 H 0.58553 0.95056 0.82682 0.0
C399 C 0.59341 0.86655 0.94136 0.0
C400 C 0.57486 0.60207 0.87259 0.0
C401 C 0.58581 0.59196 0.93698 0.0
H402 H 0.59651 0.63893 0.79054 0.0
C403 C 0.62895 0.61197 0.96796 0.0
H404 H 0.54188 0.58735 0.84726 0.0
C405 C 0.66056 0.64126 0.93512 0.0
C406 C 0.64942 0.65158 0.87083 0.0
H407 H 0.63851 0.60478 1.01746 0.0
H408 H 0.69345 0.65626 0.96041 0.0
C409 C 0.60617 0.63175 0.84002 0.0
C410 C 0.67348 0.36128 0.07521 0.0
C411 C 0.67161 0.34424 0.13728 0.0
H412 H 0.63932 0.40493 1.00411 0.0
C413 C 0.63336 0.35891 0.17575 0.0
H414 H 0.70255 0.3506 0.04461 0.0
C415 C 0.59808 0.39012 0.15329 0.0
C416 C 0.59956 0.4071 0.09137 0.0
H417 H 0.63087 0.34696 0.22411 0.0
H418 H 0.56939 0.40071 0.1846 0.0
C419 C 0.63732 0.39216 0.05211 0.0
C420 C 0.90392 0.33791 0.43344 0.0
C421 C 0.87886 0.37463 0.46664 0.0
H422 H 0.91213 0.29825 0.34383 0.0
C423 C 0.84243 0.40006 0.43413 0.0
H424 H 0.93279 0.31831 0.45723 0.0
C425 C 0.8314 0.38938 0.36928 0.0
C426 C 0.85618 0.35266 0.33596 0.0
H427 H 0.82297 0.42886 0.45867 0.0
H428 H 0.8026 0.40912 0.34549 0.0
C429 C 0.89295 0.32729 0.36824 0.0
C430 C 0.81343 0.58331 0.71456 0.0
C431 C 0.83337 0.63085 0.7262 0.0
H432 H 0.82618 0.50927 0.68188 0.0
C433 C 0.88305 0.63964 0.71731 0.0
H434 H 0.77526 0.57564 0.72163 0.0
C435 C 0.91169 0.60211 0.69356 0.0
C436 C 0.89143 0.55496 0.68026 0.0
H437 H 0.89925 0.67599 0.72596 0.0
H438 H 0.94941 0.61013 0.68415 0.0
C439 C 0.84252 0.54537 0.69255 0.0
C440 C 0.35963 0.39025 0.23021 0.0
C441 C 0.34057 0.34556 0.20263 0.0
H442 H 0.40232 0.45504 0.21692 0.0
C443 C 0.35254 0.33105 0.13961 0.0
H444 H 0.35111 0.40243 0.2785 0.0
C445 C 0.38206 0.36076 0.10455 0.0
C446 C 0.39991 0.40614 0.13118 0.0
H447 H 0.33886 0.29656 0.11695 0.0
H448 H 0.3901 0.34852 0.0561 0.0
C449 C 0.3887 0.42043 0.19464 0.0
C450 C 0.33918 0.57833 0.94127 0.0
C451 C 0.38765 0.59392 0.95619 0.0
H452 H 0.27118 0.59303 0.89244 0.0
C453 C 0.40509 0.6375 0.9321 0.0
H454 H 0.32508 0.54463 0.95895 0.0
C455 C 0.37467 0.66445 0.89229 0.0
C456 C 0.32614 0.64874 0.87741 0.0
H457 H 0.44262 0.64978 0.94217 0.0
H458 H 0.38891 0.69775 0.87372 0.0
C459 C 0.3085 0.60585 0.90302 0.0
C460 C 0.1044 0.60204 0.73506 0.0
C461 C 0.1411 0.61996 0.69774 0.0
H462 H 0.04533 0.55087 0.74056 0.0
C463 C 0.14767 0.59821 0.63648 0.0
H464 H 0.09903 0.61804 0.78273 0.0
C465 C 0.11645 0.56004 0.61188 0.0
C466 C 0.0793 0.5426 0.64905 0.0
H467 H 0.17586 0.61165 0.60699 0.0
H468 H 0.12105 0.5445 0.56379 0.0
C469 C 0.07404 0.56334 0.71117 0.0
C470 C 0.13749 0.31757 0.46119 0.0
C471 C 0.13812 0.32404 0.39463 0.0
H472 H 0.10242 0.33266 0.54912 0.0
C473 C 0.10055 0.35013 0.36546 0.0
H474 H 0.165 0.29663 0.48533 0.0
C475 C 0.06392 0.3701 0.40226 0.0
C476 C 0.06414 0.36462 0.46914 0.0
H477 H 0.09951 0.35537 0.31437 0.0
H478 H 0.03588 0.39058 0.3782 0.0
C479 C 0.10119 0.33781 0.498 0.0
C480 C 0.95155 0.03449 0.99604 0.0
C481 C 0.97534 0.00758 0.94812 0.0
H482 H 0.93018 0.03916 0.09341 0.0
C483 C -0.00342 0.96327 0.96391 0.0
H484 H 0.93412 0.06837 0.98546 0.0
C485 C -0.00558 0.94652 0.02592 0.0
C486 C 0.9709 0.97355 0.07401 0.0
H487 H 0.0159 0.94191 0.92865 0.0
H488 H 0.01224 0.91285 0.03649 0.0
C489 C 0.9493 0.01769 0.05807 0.0
C490 C 0.20787 0.75627 0.32276 0.0
C491 C 0.24749 0.7272 0.33979 0.0
H492 H 0.16155 0.78215 0.24712 0.0
C493 C 0.27039 0.70048 0.29096 0.0
H494 H 0.18994 0.77797 0.35908 0.0
C495 C 0.25393 0.70268 0.22666 0.0
C496 C 0.21433 0.73185 0.20959 0.0
H497 H 0.30061 0.67727 0.30254 0.0
H498 H 0.2719 0.68099 0.19039 0.0
C499 C 0.19154 0.75861 0.25851 0.0
C500 C 0.5282 -0.00402 0.55997 0.0
C501 C 0.49727 0.03399 0.57811 0.0
H502 H 0.55453 0.95045 0.48324 0.0
C503 C 0.46868 0.0555 0.53004 0.0
H504 H 0.5514 0.97916 0.59552 0.0
C505 C 0.47067 0.03913 0.46559 0.0
C506 C 0.50121 0.00079 0.44762 0.0
H507 H 0.44392 0.08432 0.54229 0.0
H508 H 0.44747 0.05587 0.42994 0.0
C509 C 0.53006 0.97952 0.49557 0.0
C510 C 0.22172 0.28969 0.81699 0.0
C511 C 0.23203 0.25006 0.85504 0.0
H512 H 0.23118 0.32313 0.7281 0.0
C513 C 0.26065 0.2124 0.82976 0.0
H514 H 0.20059 0.31979 0.83526 0.0
C515 C 0.27803 0.21411 0.76785 0.0
C516 C 0.26748 0.25365 0.72957 0.0
H517 H 0.2689 0.18106 0.85742 0.0
H518 H 0.29894 0.18387 0.74956 0.0
C519 C 0.23931 0.29155 0.75532 0.0
C520 C 0.83581 0.25559 0.74644 0.0
C521 C 0.82342 0.29073 0.79406 0.0
H522 H 0.82952 0.23168 0.64704 0.0
C523 C 0.79744 0.33173 0.77546 0.0
H524 H 0.85528 0.22329 0.75906 0.0
C525 C 0.78236 0.33635 0.71117 0.0
C526 C 0.79324 0.30027 0.66402 0.0
H527 H 0.78823 0.36003 0.81072 0.0
H528 H 0.76174 0.36792 0.69843 0.0
C529 C 0.82098 0.26036 0.68216 0.0
C530 C 0.70236 0.76383 0.29394 0.0
C531 C 0.73087 0.73908 0.33902 0.0
H532 H 0.69563 0.78963 0.19902 0.0
C533 C 0.77582 0.72064 0.32067 0.0
H534 H 0.66803 0.77936 0.30665 0.0
C535 C 0.7918 0.72682 0.25895 0.0
C536 C 0.76317 0.75143 0.21389 0.0
H537 H 0.79845 0.70078 0.35373 0.0
H538 H 0.82623 0.71153 0.24615 0.0
C539 C 0.71826 0.76985 0.23219 0.0
C540 C 0.44868 0.46661 0.54119 0.0
C541 C 0.47793 0.48713 0.59354 0.0
H542 H 0.43011 0.46645 0.44034 0.0
C543 C 0.51237 0.52412 0.58233 0.0
H544 H 0.4213 0.43858 0.54817 0.0
C545 C 0.51755 0.54004 0.52041 0.0
C546 C 0.48839 0.51946 0.46797 0.0
H547 H 0.53606 0.54022 0.62129 0.0
H548 H 0.54513 0.56788 0.5135 0.0
C549 C 0.45378 0.48261 0.47927 0.0
C550 C 0.98133 0.39839 0.05978 0.0
C551 C 0.94834 0.41358 1.01153 0.0
H552 H 0.00366 0.40275 0.15979 0.0
C553 C 0.90988 0.44359 0.02963 0.0
H554 H 0.01172 0.37579 0.04772 0.0
C555 C 0.90556 0.45941 0.09388 0.0
C556 C 0.93931 0.44527 0.14177 0.0
H557 H 0.88311 0.45509 0.99407 0.0
H558 H 0.87578 0.4828 0.1061 0.0
C559 C 0.97678 0.41394 0.12412 0.0
loop_
_geom_bond_atom_site_label_1
_geom_bond_atom_site_label_2
_geom_bond_distance
_geom_bond_site_symmetry_2
_ccdc_geom_bond_type
Eu0 C9 2.828 1_655 S
Eu0 O11 2.392 . S
Eu0 O13 2.418 1_655 S
Eu0 O18 2.373 1_665 S
Eu0 O21 2.488 1_655 S
Eu0 O22 2.471 . S
Eu0 O23 2.349 1_565 S
Eu1 O10 2.373 1_445 S
Eu1 O14 2.488 1_455 S
Eu1 O15 2.471 . S
Eu1 O16 2.349 1_545 S
Eu1 O19 2.392 . S
Eu1 O20 2.418 1_455 S
Eu1 C30 2.828 1_455 S
C2 O20 1.244 . S
C2 O23 1.265 . S
C3 C4 1.379 1_455 S
C3 C7 1.373 . S
C3 C9 1.505 . S
C4 C3 1.379 1_655 S
C4 C6 1.369 1_655 S
C4 H32 0.930 1_565 S
C5 C7 1.383 . S
C5 C8 1.382 . S
C5 H33 0.930 . S
C6 C4 1.369 1_455 S
C6 C8 1.392 . S
C6 H34 0.930 1_465 S
C7 C3 1.373 . S
C7 C5 1.383 . S
C7 H35 0.931 . S
C8 C5 1.382 . S
C8 C6 1.392 . S
C9 Eu0 2.828 1_455 S
C9 C3 1.505 . S
C9 O21 1.249 . S
C9 O22 1.244 1_455 S
O10 Eu1 2.373 1_665 S
O10 C12 1.258 . S
O11 Eu0 2.392 . S
O11 C12 1.242 . S
C12 O10 1.258 . S
C12 O11 1.242 . S
O13 Eu0 2.418 1_455 S
O13 C17 1.244 . S
O14 Eu1 2.488 1_655 S
O14 C30 1.249 . S
O15 Eu1 2.471 . S
O15 C30 1.244 1_455 S
O16 Eu1 2.349 1_565 S
O16 C17 1.265 . S
C17 O13 1.244 . S
C17 O16 1.265 . S
O18 Eu0 2.373 1_445 S
O18 C31 1.258 . S
O19 Eu1 2.392 . S
O19 C31 1.242 . S
O20 Eu1 2.418 1_655 S
O20 C2 1.244 . S
O21 Eu0 2.488 1_455 S
O21 C9 1.249 . S
O22 Eu0 2.471 . S
O22 C9 1.244 1_655 S
O23 Eu0 2.349 1_545 S
O23 C2 1.265 . S
C24 C25 1.379 1_655 S
C24 C28 1.373 . S
C24 C30 1.505 . S
C25 C24 1.379 1_455 S
C25 C27 1.369 1_455 S
C25 H36 0.930 1_545 S
C26 C28 1.383 . S
C26 C29 1.382 . S
C26 H37 0.930 . S
C27 C25 1.369 1_655 S
C27 C29 1.392 . S
C27 H38 0.930 1_645 S
C28 C24 1.373 . S
C28 C26 1.383 . S
C28 H39 0.931 . S
C29 C26 1.382 . S
C29 C27 1.392 . S
C30 Eu1 2.828 1_655 S
C30 O14 1.249 . S
C30 O15 1.244 1_655 S
C30 C24 1.505 . S
C31 O18 1.258 . S
C31 O19 1.242 . S
H32 C4 0.930 1_545 S
H33 C5 0.930 . S
H34 C6 0.930 1_645 S
H35 C7 0.931 . S
H36 C25 0.930 1_565 S
H37 C26 0.930 . S
H38 C27 0.930 1_465 S
H39 C28 0.931 . S
Eu40 C49 2.828 . S
Eu40 O51 2.392 . S
Eu40 O53 2.418 . S
Eu40 O58 2.373 . S
Eu40 O61 2.488 . S
Eu40 O62 2.471 . S
Eu40 O63 2.349 . S
Eu41 O50 2.373 . S
Eu41 O54 2.488 . S
Eu41 O55 2.471 . S
Eu41 O56 2.349 . S
Eu41 O59 2.392 . S
Eu41 O60 2.418 . S
Eu41 C70 2.828 . S
C42 O60 1.244 . S
C42 O63 1.265 . S
C43 C44 1.379 . S
C43 C47 1.373 . S
C43 C49 1.505 . S
C44 C43 1.379 . S
C44 C46 1.369 . S
C44 H72 0.930 . S
C45 C47 1.383 . S
C45 C48 1.382 . S
C45 H73 0.930 . S
C46 C44 1.369 . S
C46 C48 1.392 . S
C46 H74 0.930 . S
C47 C43 1.373 . S
C47 C45 1.383 . S
C47 H75 0.931 . S
C48 C45 1.382 . S
C48 C46 1.392 . S
C49 Eu40 2.828 . S
C49 C43 1.505 . S
C49 O61 1.249 . S
C49 O62 1.244 . S
O50 Eu41 2.373 . S
O50 C52 1.258 . S
O51 Eu40 2.392 . S
O51 C52 1.242 . S
C52 O50 1.258 . S
C52 O51 1.242 . S
O53 Eu40 2.418 . S
O53 C57 1.244 . S
O54 Eu41 2.488 . S
O54 C70 1.249 . S
O55 Eu41 2.471 . S
O55 C70 1.244 . S
O56 Eu41 2.349 . S
O56 C57 1.265 . S
C57 O53 1.244 . S
C57 O56 1.265 . S
O58 Eu40 2.373 . S
O58 C71 1.258 . S
O59 Eu41 2.392 . S
O59 C71 1.242 . S
O60 Eu41 2.418 . S
O60 C42 1.244 . S
O61 Eu40 2.488 . S
O61 C49 1.249 . S
O62 Eu40 2.471 . S
O62 C49 1.244 . S
O63 Eu40 2.349 . S
O63 C42 1.265 . S
C64 C65 1.379 . S
C64 C68 1.373 . S
C64 C70 1.505 1_554 S
C65 C64 1.379 . S
C65 C67 1.369 . S
C65 H76 0.930 . S
C66 C68 1.383 . S
C66 C69 1.382 . S
C66 H77 0.930 . S
C67 C65 1.369 . S
C67 C69 1.392 . S
C67 H78 0.930 . S
C68 C64 1.373 . S
C68 C66 1.383 . S
C68 H79 0.926 1_554 S
C69 C66 1.382 . S
C69 C67 1.392 . S
C70 Eu41 2.828 . S
C70 O54 1.249 . S
C70 O55 1.244 . S
C70 C64 1.505 1_556 S
C71 O58 1.258 . S
C71 O59 1.242 . S
H72 C44 0.930 . S
H73 C45 0.930 . S
H74 C46 0.930 . S
H75 C47 0.931 . S
H76 C65 0.930 . S
H77 C66 0.930 . S
H78 C67 0.930 . S
H79 C68 0.926 1_556 S
Eu80 C89 2.828 . S
Eu80 O91 2.392 1_554 S
Eu80 O93 2.418 . S
Eu80 O98 2.373 1_565 S
Eu80 O101 2.488 . S
Eu80 O102 2.471 . S
Eu80 O103 2.349 1_565 S
Eu81 O90 2.373 1_545 S
Eu81 O94 2.488 . S
Eu81 O95 2.471 . S
Eu81 O96 2.349 1_545 S
Eu81 O99 2.392 1_556 S
Eu81 O100 2.418 . S
Eu81 C110 2.828 . S
C82 O100 1.244 1_554 S
C82 O103 1.265 . S
C83 C84 1.379 1_565 S
C83 C87 1.373 . S
C83 C89 1.505 . S
C84 C83 1.379 1_545 S
C84 C86 1.369 . S
C84 H112 0.930 . S
C85 C87 1.383 . S
C85 C88 1.382 . S
C85 H113 0.930 . S
C86 C84 1.369 . S
C86 C88 1.392 1_545 S
C86 H114 0.930 . S
C87 C83 1.373 . S
C87 C85 1.383 . S
C87 H115 0.931 . S
C88 C85 1.382 . S
C88 C86 1.392 1_565 S
C89 Eu80 2.828 . S
C89 C83 1.505 . S
C89 O101 1.249 . S
C89 O102 1.244 . S
O90 Eu81 2.373 1_565 S
O90 C92 1.258 . S
O91 Eu80 2.392 1_556 S
O91 C92 1.242 . S
C92 O90 1.258 . S
C92 O91 1.242 . S
O93 Eu80 2.418 . S
O93 C97 1.244 1_554 S
O94 Eu81 2.488 . S
O94 C110 1.249 . S
O95 Eu81 2.471 . S
O95 C110 1.244 . S
O96 Eu81 2.349 1_565 S
O96 C97 1.265 . S
C97 O93 1.244 1_556 S
C97 O96 1.265 . S
O98 Eu80 2.373 1_545 S
O98 C111 1.258 . S
O99 Eu81 2.392 1_554 S
O99 C111 1.242 . S
O100 Eu81 2.418 . S
O100 C82 1.244 1_556 S
O101 Eu80 2.488 . S
O101 C89 1.249 . S
O102 Eu80 2.471 . S
O102 C89 1.244 . S
O103 Eu80 2.349 1_545 S
O103 C82 1.265 . S
C104 C105 1.379 1_545 S
C104 C108 1.373 . S
C104 C110 1.505 . S
C105 C104 1.379 1_565 S
C105 C107 1.369 . S
C105 H116 0.930 . S
C106 C108 1.383 . S
C106 C109 1.382 . S
C106 H117 0.930 . S
C107 C105 1.369 . S
C107 C109 1.392 1_565 S
C107 H118 0.930 . S
C108 C104 1.373 . S
C108 C106 1.383 . S
C108 H119 0.931 . S
C109 C106 1.382 . S
C109 C107 1.392 1_545 S
C110 Eu81 2.828 . S
C110 O94 1.249 . S
C110 O95 1.244 . S
C110 C104 1.505 . S
C111 O98 1.258 . S
C111 O99 1.242 . S
H112 C84 0.930 . S
H113 C85 0.930 . S
H114 C86 0.930 . S
H115 C87 0.931 . S
H116 C105 0.930 . S
H117 C106 0.930 . S
H118 C107 0.930 . S
H119 C108 0.931 . S
Eu120 C129 2.828 . S
Eu120 O131 2.392 . S
Eu120 O133 2.418 . S
Eu120 O138 2.373 . S
Eu120 O141 2.488 . S
Eu120 O142 2.471 . S
Eu120 O143 2.349 . S
Eu121 O130 2.373 . S
Eu121 O134 2.488 . S
Eu121 O135 2.471 . S
Eu121 O136 2.349 . S
Eu121 O139 2.392 . S
Eu121 O140 2.418 . S
Eu121 C150 2.828 . S
C122 O140 1.244 . S
C122 O143 1.265 . S
C123 C124 1.379 . S
C123 C127 1.373 . S
C123 C129 1.505 . S
C124 C123 1.379 . S
C124 C126 1.369 . S
C124 H152 0.930 . S
C125 C127 1.383 . S
C125 C128 1.382 . S
C125 H153 0.930 . S
C126 C124 1.369 . S
C126 C128 1.392 . S
C126 H154 0.930 . S
C127 C123 1.373 . S
C127 C125 1.383 . S
C127 H155 0.931 . S
C128 C125 1.382 . S
C128 C126 1.392 . S
C129 Eu120 2.828 . S
C129 C123 1.505 . S
C129 O141 1.249 . S
C129 O142 1.244 . S
O130 Eu121 2.373 . S
O130 C132 1.258 . S
O131 Eu120 2.392 . S
O131 C132 1.242 . S
C132 O130 1.258 . S
C132 O131 1.242 . S
O133 Eu120 2.418 . S
O133 C137 1.244 . S
O134 Eu121 2.488 . S
O134 C150 1.249 . S
O135 Eu121 2.471 . S
O135 C150 1.244 . S
O136 Eu121 2.349 . S
O136 C137 1.265 . S
C137 O133 1.244 . S
C137 O136 1.265 . S
O138 Eu120 2.373 . S
O138 C151 1.258 . S
O139 Eu121 2.392 . S
O139 C151 1.242 . S
O140 Eu121 2.418 . S
O140 C122 1.244 . S
O141 Eu120 2.488 . S
O141 C129 1.249 . S
O142 Eu120 2.471 . S
O142 C129 1.244 . S
O143 Eu120 2.349 . S
O143 C122 1.265 . S
C144 C145 1.379 . S
C144 C148 1.373 . S
C144 C150 1.505 1_556 S
C145 C144 1.379 . S
C145 C147 1.369 . S
C145 H156 0.930 . S
C146 C148 1.383 . S
C146 C149 1.382 . S
C146 H157 0.930 . S
C147 C145 1.369 . S
C147 C149 1.392 . S
C147 H158 0.930 . S
C148 C144 1.373 . S
C148 C146 1.383 . S
C148 H159 0.931 . S
C149 C146 1.382 . S
C149 C147 1.392 . S
C150 Eu121 2.828 . S
C150 O134 1.249 . S
C150 O135 1.244 . S
C150 C144 1.505 1_554 S
C151 O138 1.258 . S
C151 O139 1.242 . S
H152 C124 0.930 . S
H153 C125 0.930 . S
H154 C126 0.930 . S
H155 C127 0.931 . S
H156 C145 0.930 . S
H157 C146 0.930 . S
H158 C147 0.930 . S
H159 C148 0.931 . S
Eu160 C169 2.828 . S
Eu160 O171 2.392 . S
Eu160 O173 2.418 . S
Eu160 O178 2.373 . S
Eu160 O181 2.488 . S
Eu160 O182 2.471 . S
Eu160 O183 2.349 . S
Eu161 O170 2.373 . S
Eu161 O174 2.488 . S
Eu161 O175 2.471 . S
Eu161 O176 2.349 . S
Eu161 O179 2.392 . S
Eu161 O180 2.418 . S
Eu161 C190 2.828 . S
C162 O180 1.244 . S
C162 O183 1.265 . S
C163 C164 1.379 . S
C163 C167 1.373 . S
C163 C169 1.505 1_556 S
C164 C163 1.379 . S
C164 C166 1.369 . S
C164 H192 0.930 . S
C165 C167 1.383 . S
C165 C168 1.382 . S
C165 H193 0.930 . S
C166 C164 1.369 . S
C166 C168 1.392 . S
C166 H194 0.930 . S
C167 C163 1.373 . S
C167 C165 1.383 . S
C167 H195 0.924 1_556 S
C168 C165 1.382 . S
C168 C166 1.392 . S
C169 Eu160 2.828 . S
C169 C163 1.505 1_554 S
C169 O181 1.249 . S
C169 O182 1.244 . S
O170 Eu161 2.373 . S
O170 C172 1.258 . S
O171 Eu160 2.392 . S
O171 C172 1.242 . S
C172 O170 1.258 . S
C172 O171 1.242 . S
O173 Eu160 2.418 . S
O173 C177 1.244 . S
O174 Eu161 2.488 . S
O174 C190 1.249 . S
O175 Eu161 2.471 . S
O175 C190 1.244 . S
O176 Eu161 2.349 . S
O176 C177 1.265 . S
C177 O173 1.244 . S
C177 O176 1.265 . S
O178 Eu160 2.373 . S
O178 C191 1.258 . S
O179 Eu161 2.392 . S
O179 C191 1.242 . S
O180 Eu161 2.418 . S
O180 C162 1.244 . S
O181 Eu160 2.488 . S
O181 C169 1.249 . S
O182 Eu160 2.471 . S
O182 C169 1.244 . S
O183 Eu160 2.349 . S
O183 C162 1.265 . S
C184 C185 1.379 . S
C184 C188 1.373 . S
C184 C190 1.505 . S
C185 C184 1.379 . S
C185 C187 1.369 . S
C185 H196 0.930 . S
C186 C188 1.383 . S
C186 C189 1.382 . S
C186 H197 0.930 . S
C187 C185 1.369 . S
C187 C189 1.392 . S
C187 H198 0.930 . S
C188 C184 1.373 . S
C188 C186 1.383 . S
C188 H199 0.931 . S
C189 C186 1.382 . S
C189 C187 1.392 . S
C190 Eu161 2.828 . S
C190 O174 1.249 . S
C190 O175 1.244 . S
C190 C184 1.505 . S
C191 O178 1.258 . S
C191 O179 1.242 . S
H192 C164 0.930 . S
H193 C165 0.930 . S
H194 C166 0.930 . S
H195 C167 0.924 1_554 S
H196 C185 0.930 . S
H197 C186 0.930 . S
H198 C187 0.930 . S
H199 C188 0.931 . S
Eu200 C209 2.828 . S
Eu200 O211 2.392 . S
Eu200 O213 2.418 . S
Eu200 O218 2.373 . S
Eu200 O221 2.488 . S
Eu200 O222 2.471 . S
Eu200 O223 2.349 . S
Eu201 O210 2.373 . S
Eu201 O214 2.488 . S
Eu201 O215 2.471 . S
Eu201 O216 2.349 . S
Eu201 O219 2.392 . S
Eu201 O220 2.418 . S
Eu201 C230 2.828 . S
C202 O220 1.244 . S
C202 O223 1.265 . S
C203 C204 1.379 . S
C203 C207 1.373 . S
C203 C209 1.505 1_554 S
C204 C203 1.379 . S
C204 C206 1.369 . S
C204 H232 0.930 . S
C205 C207 1.383 . S
C205 C208 1.382 . S
C205 H233 0.930 . S
C206 C204 1.369 . S
C206 C208 1.392 . S
C206 H234 0.930 . S
C207 C203 1.373 . S
C207 C205 1.383 . S
C207 H235 0.931 . S
C208 C205 1.382 . S
C208 C206 1.392 . S
C209 Eu200 2.828 . S
C209 C203 1.505 1_556 S
C209 O221 1.249 . S
C209 O222 1.244 . S
O210 Eu201 2.373 . S
O210 C212 1.258 . S
O211 Eu200 2.392 . S
O211 C212 1.242 . S
C212 O210 1.258 . S
C212 O211 1.242 . S
O213 Eu200 2.418 . S
O213 C217 1.244 . S
O214 Eu201 2.488 . S
O214 C230 1.249 . S
O215 Eu201 2.471 . S
O215 C230 1.244 . S
O216 Eu201 2.349 . S
O216 C217 1.265 . S
C217 O213 1.244 . S
C217 O216 1.265 . S
O218 Eu200 2.373 . S
O218 C231 1.258 . S
O219 Eu201 2.392 . S
O219 C231 1.242 . S
O220 Eu201 2.418 . S
O220 C202 1.244 . S
O221 Eu200 2.488 . S
O221 C209 1.249 . S
O222 Eu200 2.471 . S
O222 C209 1.244 . S
O223 Eu200 2.349 . S
O223 C202 1.265 . S
C224 C225 1.379 . S
C224 C228 1.373 . S
C224 C230 1.505 . S
C225 C224 1.379 . S
C225 C227 1.369 . S
C225 H236 0.930 . S
C226 C228 1.383 . S
C226 C229 1.382 . S
C226 H237 0.930 . S
C227 C225 1.369 . S
C227 C229 1.392 . S
C227 H238 0.930 . S
C228 C224 1.373 . S
C228 C226 1.383 . S
C228 H239 0.931 . S
C229 C226 1.382 . S
C229 C227 1.392 . S
C230 Eu201 2.828 . S
C230 O214 1.249 . S
C230 O215 1.244 . S
C230 C224 1.505 . S
C231 O218 1.258 . S
C231 O219 1.242 . S
H232 C204 0.930 . S
H233 C205 0.930 . S
H234 C206 0.930 . S
H235 C207 0.931 . S
H236 C225 0.930 . S
H237 C226 0.930 . S
H238 C227 0.930 . S
H239 C228 0.931 . S
Eu240 C249 2.828 . S
Eu240 O251 2.392 . S
Eu240 O253 2.418 . S
Eu240 O258 2.373 . S
Eu240 O261 2.488 . S
Eu240 O262 2.471 . S
Eu240 O263 2.349 . S
Eu241 O250 2.373 . S
Eu241 O254 2.488 . S
Eu241 O255 2.471 . S
Eu241 O256 2.349 . S
Eu241 O259 2.392 . S
Eu241 O260 2.418 . S
Eu241 C270 2.828 . S
C242 O260 1.244 1_556 S
C242 O263 1.265 . S
C243 C244 1.379 . S
C243 C247 1.373 . S
C243 C249 1.505 . S
C244 C243 1.379 . S
C244 C246 1.369 . S
C244 H272 0.930 . S
C245 C247 1.383 . S
C245 C248 1.382 . S
C245 H273 0.930 . S
C246 C244 1.369 . S
C246 C248 1.392 . S
C246 H274 0.930 . S
C247 C243 1.373 . S
C247 C245 1.383 . S
C247 H275 0.931 . S
C248 C245 1.382 . S
C248 C246 1.392 . S
C249 Eu240 2.828 . S
C249 C243 1.505 . S
C249 O261 1.249 . S
C249 O262 1.244 . S
O250 Eu241 2.373 . S
O250 C252 1.258 . S
O251 Eu240 2.392 . S
O251 C252 1.242 1_556 S
C252 O250 1.258 . S
C252 O251 1.242 1_554 S
O253 Eu240 2.418 . S
O253 C257 1.244 1_556 S
O254 Eu241 2.488 . S
O254 C270 1.249 . S
O255 Eu241 2.471 . S
O255 C270 1.244 . S
O256 Eu241 2.349 . S
O256 C257 1.265 . S
C257 O253 1.244 1_554 S
C257 O256 1.265 . S
O258 Eu240 2.373 . S
O258 C271 1.258 . S
O259 Eu241 2.392 . S
O259 C271 1.242 1_554 S
O260 Eu241 2.418 . S
O260 C242 1.244 1_554 S
O261 Eu240 2.488 . S
O261 C249 1.249 . S
O262 Eu240 2.471 . S
O262 C249 1.244 . S
O263 Eu240 2.349 . S
O263 C242 1.265 . S
C264 C265 1.379 . S
C264 C268 1.373 . S
C264 C270 1.505 . S
C265 C264 1.379 . S
C265 C267 1.369 . S
C265 H276 0.930 . S
C266 C268 1.383 . S
C266 C269 1.382 . S
C266 H277 0.930 . S
C267 C265 1.369 . S
C267 C269 1.392 . S
C267 H278 0.930 . S
C268 C264 1.373 . S
C268 C266 1.383 . S
C268 H279 0.931 . S
C269 C266 1.382 . S
C269 C267 1.392 . S
C270 Eu241 2.828 . S
C270 O254 1.249 . S
C270 O255 1.244 . S
C270 C264 1.505 . S
C271 O258 1.258 . S
C271 O259 1.242 1_556 S
H272 C244 0.930 . S
H273 C245 0.930 . S
H274 C246 0.930 . S
H275 C247 0.931 . S
H276 C265 0.930 . S
H277 C266 0.930 . S
H278 C267 0.930 . S
H279 C268 0.931 . S
Eu280 C289 2.828 1_455 S
Eu280 O291 2.392 . S
Eu280 O293 2.418 1_455 S
Eu280 O298 2.373 1_455 S
Eu280 O301 2.488 1_455 S
Eu280 O302 2.471 . S
Eu280 O303 2.349 . S
Eu281 O290 2.373 1_655 S
Eu281 O294 2.488 1_655 S
Eu281 O295 2.471 . S
Eu281 O296 2.349 . S
Eu281 O299 2.392 . S
Eu281 O300 2.418 1_655 S
Eu281 C310 2.828 1_655 S
C282 O300 1.244 . S
C282 O303 1.265 . S
C283 C284 1.379 1_655 S
C283 C287 1.373 . S
C283 C289 1.505 . S
C284 C283 1.379 1_455 S
C284 C286 1.369 1_455 S
C284 H312 0.930 . S
C285 C287 1.383 . S
C285 C288 1.382 . S
C285 H313 0.930 . S
C286 C284 1.369 1_655 S
C286 C288 1.392 . S
C286 H314 0.930 1_655 S
C287 C283 1.373 . S
C287 C285 1.383 . S
C287 H315 0.931 . S
C288 C285 1.382 . S
C288 C286 1.392 . S
C289 Eu280 2.828 1_655 S
C289 C283 1.505 . S
C289 O301 1.249 . S
C289 O302 1.244 1_655 S
O290 Eu281 2.373 1_455 S
O290 C292 1.258 . S
O291 Eu280 2.392 . S
O291 C292 1.242 . S
C292 O290 1.258 . S
C292 O291 1.242 . S
O293 Eu280 2.418 1_655 S
O293 C297 1.244 . S
O294 Eu281 2.488 1_455 S
O294 C310 1.249 . S
O295 Eu281 2.471 . S
O295 C310 1.244 1_655 S
O296 Eu281 2.349 . S
O296 C297 1.265 . S
C297 O293 1.244 . S
C297 O296 1.265 . S
O298 Eu280 2.373 1_655 S
O298 C311 1.258 . S
O299 Eu281 2.392 . S
O299 C311 1.242 . S
O300 Eu281 2.418 1_455 S
O300 C282 1.244 . S
O301 Eu280 2.488 1_655 S
O301 C289 1.249 . S
O302 Eu280 2.471 . S
O302 C289 1.244 1_455 S
O303 Eu280 2.349 . S
O303 C282 1.265 . S
C304 C305 1.379 1_455 S
C304 C308 1.373 . S
C304 C310 1.505 . S
C305 C304 1.379 1_655 S
C305 C307 1.369 1_655 S
C305 H316 0.930 . S
C306 C308 1.383 . S
C306 C309 1.382 . S
C306 H317 0.930 . S
C307 C305 1.369 1_455 S
C307 C309 1.392 . S
C307 H318 0.930 1_455 S
C308 C304 1.373 . S
C308 C306 1.383 . S
C308 H319 0.931 . S
C309 C306 1.382 . S
C309 C307 1.392 . S
C310 Eu281 2.828 1_455 S
C310 O294 1.249 . S
C310 O295 1.244 1_455 S
C310 C304 1.505 . S
C311 O298 1.258 . S
C311 O299 1.242 . S
H312 C284 0.930 . S
H313 C285 0.930 . S
H314 C286 0.930 1_455 S
H315 C287 0.931 . S
H316 C305 0.930 . S
H317 C306 0.930 . S
H318 C307 0.930 1_655 S
H319 C308 0.931 . S
C320 C321 1.387 . S
C320 H324 0.950 . S
C320 C329 1.390 . S
C321 C320 1.387 . S
C321 C323 1.387 . S
H322 C329 0.950 . S
C323 C321 1.387 . S
C323 C325 1.390 . S
C323 H327 0.950 . S
H324 C320 0.950 . S
C325 C323 1.390 . S
C325 C326 1.387 . S
C325 H328 0.950 . S
C326 C325 1.387 . S
C326 C329 1.387 . S
H327 C323 0.950 . S
H328 C325 0.950 . S
C329 C320 1.390 . S
C329 H322 0.950 . S
C329 C326 1.387 . S
C330 C331 1.387 . S
C330 H334 0.950 . S
C330 C339 1.390 . S
C331 C330 1.387 . S
C331 C333 1.387 . S
H332 C339 0.950 . S
C333 C331 1.387 . S
C333 C335 1.390 . S
C333 H337 0.950 . S
H334 C330 0.950 . S
C335 C333 1.390 . S
C335 C336 1.387 . S
C335 H338 0.950 . S
C336 C335 1.387 . S
C336 C339 1.387 . S
H337 C333 0.950 . S
H338 C335 0.950 . S
C339 C330 1.390 . S
C339 H332 0.950 . S
C339 C336 1.387 . S
C340 C341 1.387 . S
C340 H344 0.950 . S
C340 C349 1.390 . S
C341 C340 1.387 . S
C341 C343 1.387 . S
H342 C349 0.950 . S
C343 C341 1.387 . S
C343 C345 1.390 . S
C343 H347 0.950 . S
H344 C340 0.950 . S
C345 C343 1.390 . S
C345 C346 1.387 . S
C345 H348 0.950 . S
C346 C345 1.387 . S
C346 C349 1.387 . S
H347 C343 0.950 . S
H348 C345 0.950 . S
C349 C340 1.390 . S
C349 H342 0.950 . S
C349 C346 1.387 . S
C350 C351 1.387 . S
C350 H354 0.950 . S
C350 C359 1.390 . S
C351 C350 1.387 . S
C351 C353 1.387 . S
H352 C359 0.950 . S
C353 C351 1.387 . S
C353 C355 1.390 . S
C353 H357 0.950 . S
H354 C350 0.950 . S
C355 C353 1.390 . S
C355 C356 1.387 . S
C355 H358 0.950 . S
C356 C355 1.387 . S
C356 C359 1.387 . S
H357 C353 0.950 . S
H358 C355 0.950 . S
C359 C350 1.390 . S
C359 H352 0.950 . S
C359 C356 1.387 . S
C360 C361 1.387 . S
C360 H364 0.950 . S
C360 C369 1.390 . S
C361 C360 1.387 . S
C361 C363 1.387 . S
H362 C369 0.950 . S
C363 C361 1.387 . S
C363 C365 1.390 . S
C363 H367 0.950 . S
H364 C360 0.950 . S
C365 C363 1.390 . S
C365 C366 1.387 . S
C365 H368 0.950 . S
C366 C365 1.387 . S
C366 C369 1.387 . S
H367 C363 0.950 . S
H368 C365 0.950 . S
C369 C360 1.390 . S
C369 H362 0.950 . S
C369 C366 1.387 . S
C370 C371 1.387 . S
C370 H374 0.950 . S
C370 C379 1.390 . S
C371 C370 1.387 . S
C371 C373 1.387 . S
H372 C379 0.950 . S
C373 C371 1.387 . S
C373 C375 1.390 . S
C373 H377 0.950 . S
H374 C370 0.950 . S
C375 C373 1.390 . S
C375 C376 1.387 . S
C375 H378 0.950 . S
C376 C375 1.387 . S
C376 C379 1.387 . S
H377 C373 0.950 . S
H378 C375 0.950 . S
C379 C370 1.390 . S
C379 H372 0.950 . S
C379 C376 1.387 . S
C380 C381 1.387 . S
C380 H384 0.950 . S
C380 C389 1.390 . S
C381 C380 1.387 . S
C381 C383 1.387 . S
H382 C389 0.950 . S
C383 C381 1.387 . S
C383 C385 1.390 . S
C383 H387 0.950 . S
H384 C380 0.950 . S
C385 C383 1.390 . S
C385 C386 1.387 . S
C385 H388 0.950 . S
C386 C385 1.387 . S
C386 C389 1.387 . S
H387 C383 0.950 . S
H388 C385 0.950 . S
C389 C380 1.390 . S
C389 H382 0.950 . S
C389 C386 1.387 . S
C390 C391 1.387 . S
C390 H394 0.950 . S
C390 C399 1.390 . S
C391 C390 1.387 . S
C391 C393 1.387 . S
H392 C399 0.950 . S
C393 C391 1.387 . S
C393 C395 1.390 . S
C393 H397 0.950 . S
H394 C390 0.950 . S
C395 C393 1.390 . S
C395 C396 1.387 . S
C395 H398 0.950 . S
C396 C395 1.387 . S
C396 C399 1.387 . S
H397 C393 0.950 . S
H398 C395 0.950 . S
C399 C390 1.390 . S
C399 H392 0.950 . S
C399 C396 1.387 . S
C400 C401 1.387 . S
C400 H404 0.950 . S
C400 C409 1.390 . S
C401 C400 1.387 . S
C401 C403 1.387 . S
H402 C409 0.950 . S
C403 C401 1.387 . S
C403 C405 1.390 . S
C403 H407 0.950 . S
H404 C400 0.950 . S
C405 C403 1.390 . S
C405 C406 1.387 . S
C405 H408 0.950 . S
C406 C405 1.387 . S
C406 C409 1.387 . S
H407 C403 0.950 . S
H408 C405 0.950 . S
C409 C400 1.390 . S
C409 H402 0.950 . S
C409 C406 1.387 . S
C410 C411 1.387 . S
C410 H414 0.950 . S
C410 C419 1.390 . S
C411 C410 1.387 . S
C411 C413 1.387 . S
H412 C419 0.950 . S
C413 C411 1.387 . S
C413 C415 1.390 . S
C413 H417 0.950 . S
H414 C410 0.950 . S
C415 C413 1.390 . S
C415 C416 1.387 . S
C415 H418 0.950 . S
C416 C415 1.387 . S
C416 C419 1.387 . S
H417 C413 0.950 . S
H418 C415 0.950 . S
C419 C410 1.390 . S
C419 H412 0.950 . S
C419 C416 1.387 . S
C420 C421 1.387 . S
C420 H424 0.950 . S
C420 C429 1.390 . S
C421 C420 1.387 . S
C421 C423 1.387 . S
H422 C429 0.950 . S
C423 C421 1.387 . S
C423 C425 1.390 . S
C423 H427 0.950 . S
H424 C420 0.950 . S
C425 C423 1.390 . S
C425 C426 1.387 . S
C425 H428 0.950 . S
C426 C425 1.387 . S
C426 C429 1.387 . S
H427 C423 0.950 . S
H428 C425 0.950 . S
C429 C420 1.390 . S
C429 H422 0.950 . S
C429 C426 1.387 . S
C430 C431 1.387 . S
C430 H434 0.950 . S
C430 C439 1.390 . S
C431 C430 1.387 . S
C431 C433 1.387 . S
H432 C439 0.950 . S
C433 C431 1.387 . S
C433 C435 1.390 . S
C433 H437 0.950 . S
H434 C430 0.950 . S
C435 C433 1.390 . S
C435 C436 1.387 . S
C435 H438 0.950 . S
C436 C435 1.387 . S
C436 C439 1.387 . S
H437 C433 0.950 . S
H438 C435 0.950 . S
C439 C430 1.390 . S
C439 H432 0.950 . S
C439 C436 1.387 . S
C440 C441 1.387 . S
C440 H444 0.950 . S
C440 C449 1.390 . S
C441 C440 1.387 . S
C441 C443 1.387 . S
H442 C449 0.950 . S
C443 C441 1.387 . S
C443 C445 1.390 . S
C443 H447 0.950 . S
H444 C440 0.950 . S
C445 C443 1.390 . S
C445 C446 1.387 . S
C445 H448 0.950 . S
C446 C445 1.387 . S
C446 C449 1.387 . S
H447 C443 0.950 . S
H448 C445 0.950 . S
C449 C440 1.390 . S
C449 H442 0.950 . S
C449 C446 1.387 . S
C450 C451 1.387 . S
C450 H454 0.950 . S
C450 C459 1.390 . S
C451 C450 1.387 . S
C451 C453 1.387 . S
H452 C459 0.950 . S
C453 C451 1.387 . S
C453 C455 1.390 . S
C453 H457 0.950 . S
H454 C450 0.950 . S
C455 C453 1.390 . S
C455 C456 1.387 . S
C455 H458 0.950 . S
C456 C455 1.387 . S
C456 C459 1.387 . S
H457 C453 0.950 . S
H458 C455 0.950 . S
C459 C450 1.390 . S
C459 H452 0.950 . S
C459 C456 1.387 . S
C460 C461 1.387 . S
C460 H464 0.950 . S
C460 C469 1.390 . S
C461 C460 1.387 . S
C461 C463 1.387 . S
H462 C469 0.950 . S
C463 C461 1.387 . S
C463 C465 1.390 . S
C463 H467 0.950 . S
H464 C460 0.950 . S
C465 C463 1.390 . S
C465 C466 1.387 . S
C465 H468 0.950 . S
C466 C465 1.387 . S
C466 C469 1.387 . S
H467 C463 0.950 . S
H468 C465 0.950 . S
C469 C460 1.390 . S
C469 H462 0.950 . S
C469 C466 1.387 . S
C470 C471 1.387 . S
C470 H474 0.950 . S
C470 C479 1.390 . S
C471 C470 1.387 . S
C471 C473 1.387 . S
H472 C479 0.950 . S
C473 C471 1.387 . S
C473 C475 1.390 . S
C473 H477 0.950 . S
H474 C470 0.950 . S
C475 C473 1.390 . S
C475 C476 1.387 . S
C475 H478 0.950 . S
C476 C475 1.387 . S
C476 C479 1.387 . S
H477 C473 0.950 . S
H478 C475 0.950 . S
C479 C470 1.390 . S
C479 H472 0.950 . S
C479 C476 1.387 . S
C480 C481 1.387 1_554 S
C480 H484 0.950 . S
C480 C489 1.390 . S
C481 C480 1.387 1_556 S
C481 C483 1.387 1_645 S
H482 C489 0.950 . S
C483 C481 1.387 1_465 S
C483 C485 1.390 . S
C483 H487 0.950 . S
H484 C480 0.950 . S
C485 C483 1.390 . S
C485 C486 1.387 1_556 S
C485 H488 0.950 . S
C486 C485 1.387 1_554 S
C486 C489 1.387 1_465 S
H487 C483 0.950 . S
H488 C485 0.950 . S
C489 C480 1.390 . S
C489 H482 0.950 . S
C489 C486 1.387 1_645 S
C490 C491 1.387 . S
C490 H494 0.950 . S
C490 C499 1.390 . S
C491 C490 1.387 . S
C491 C493 1.387 . S
H492 C499 0.950 . S
C493 C491 1.387 . S
C493 C495 1.390 . S
C493 H497 0.950 . S
H494 C490 0.950 . S
C495 C493 1.390 . S
C495 C496 1.387 . S
C495 H498 0.950 . S
C496 C495 1.387 . S
C496 C499 1.387 . S
H497 C493 0.950 . S
H498 C495 0.950 . S
C499 C490 1.390 . S
C499 H492 0.950 . S
C499 C496 1.387 . S
C500 C501 1.387 1_565 S
C500 H504 0.950 . S
C500 C509 1.390 . S
C501 C500 1.387 1_545 S
C501 C503 1.387 . S
H502 C509 0.950 . S
C503 C501 1.387 . S
C503 C505 1.390 . S
C503 H507 0.950 . S
H504 C500 0.950 . S
C505 C503 1.390 . S
C505 C506 1.387 1_545 S
C505 H508 0.950 . S
C506 C505 1.387 1_565 S
C506 C509 1.387 . S
H507 C503 0.950 . S
H508 C505 0.950 . S
C509 C500 1.390 . S
C509 H502 0.950 . S
C509 C506 1.387 . S
C510 C511 1.387 . S
C510 H514 0.950 . S
C510 C519 1.390 . S
C511 C510 1.387 . S
C511 C513 1.387 . S
H512 C519 0.950 . S
C513 C511 1.387 . S
C513 C515 1.390 . S
C513 H517 0.950 . S
H514 C510 0.950 . S
C515 C513 1.390 . S
C515 C516 1.387 . S
C515 H518 0.950 . S
C516 C515 1.387 . S
C516 C519 1.387 . S
H517 C513 0.950 . S
H518 C515 0.950 . S
C519 C510 1.390 . S
C519 H512 0.950 . S
C519 C516 1.387 . S
C520 C521 1.387 . S
C520 H524 0.950 . S
C520 C529 1.390 . S
C521 C520 1.387 . S
C521 C523 1.387 . S
H522 C529 0.950 . S
C523 C521 1.387 . S
C523 C525 1.390 . S
C523 H527 0.950 . S
H524 C520 0.950 . S
C525 C523 1.390 . S
C525 C526 1.387 . S
C525 H528 0.950 . S
C526 C525 1.387 . S
C526 C529 1.387 . S
H527 C523 0.950 . S
H528 C525 0.950 . S
C529 C520 1.390 . S
C529 H522 0.950 . S
C529 C526 1.387 . S
C530 C531 1.387 . S
C530 H534 0.950 . S
C530 C539 1.390 . S
C531 C530 1.387 . S
C531 C533 1.387 . S
H532 C539 0.950 . S
C533 C531 1.387 . S
C533 C535 1.390 . S
C533 H537 0.950 . S
H534 C530 0.950 . S
C535 C533 1.390 . S
C535 C536 1.387 . S
C535 H538 0.950 . S
C536 C535 1.387 . S
C536 C539 1.387 . S
H537 C533 0.950 . S
H538 C535 0.950 . S
C539 C530 1.390 . S
C539 H532 0.950 . S
C539 C536 1.387 . S
C540 C541 1.387 . S
C540 H544 0.950 . S
C540 C549 1.390 . S
C541 C540 1.387 . S
C541 C543 1.387 . S
H542 C549 0.950 . S
C543 C541 1.387 . S
C543 C545 1.390 . S
C543 H547 0.950 . S
H544 C540 0.950 . S
C545 C543 1.390 . S
C545 C546 1.387 . S
C545 H548 0.950 . S
C546 C545 1.387 . S
C546 C549 1.387 . S
H547 C543 0.950 . S
H548 C545 0.950 . S
C549 C540 1.390 . S
C549 H542 0.950 . S
C549 C546 1.387 . S
C550 C551 1.387 . S
C550 H554 0.950 . S
C550 C559 1.390 1_656 S
C551 C550 1.387 . S
C551 C553 1.387 . S
H552 C559 0.950 . S
C553 C551 1.387 . S
C553 C555 1.390 1_656 S
C553 H557 0.950 . S
H554 C550 0.950 . S
C555 C553 1.390 1_454 S
C555 C556 1.387 . S
C555 H558 0.950 . S
C556 C555 1.387 . S
C556 C559 1.387 . S
H557 C553 0.950 . S
H558 C555 0.950 . S
C559 C550 1.390 1_454 S
C559 H552 0.950 . S
C559 C556 1.387 . S
C321 C31 1.934 . S
C326 C151 1.932 . S
C331 C17 1.565 . S
C336 C71 1.583 . S
C341 C57 1.131 . S
C346 C97 1.130 . S
C351 C111 1.583 . S
C356 C137 1.562 . S
C361 C12 1.935 . S
C366 C212 1.938 . S
C371 C2 1.565 . S
C376 C172 1.582 . S
C381 C162 1.131 . S
C386 C82 1.128 . S
C391 C202 1.564 . S
C396 C92 1.584 . S
C401 C271 1.935 . S
C406 C231 1.935 . S
C411 C191 1.582 . S
C416 C257 1.563 . S
C421 C297 1.130 . S
C426 C177 1.131 . S
C431 C217 1.565 . S
C436 C311 1.584 . S
C441 C132 1.935 . S
C446 C252 1.934 . S
C451 C242 1.565 . S
C456 C52 1.582 . S
C461 C42 1.130 . S
C466 C282 1.128 . S
C471 C122 1.565 . S
C476 C292 1.580 . S
C481 C29 1.725 . S
C486 C8 1.725 . S
C491 C48 1.413 . S
C496 C69 1.413 . S
C501 C109 1.416 . S
C506 C88 1.416 . S
C511 C149 1.726 . S
C516 C128 1.726 . S
C521 C168 1.416 . S
C526 C189 1.416 . S
C531 C229 1.725 . S
C536 C208 1.725 . S
C541 C248 1.727 . S
C546 C269 1.727 . S
C551 C288 1.416 . S
C556 C309 1.416 . S
