# Generated by pormake.
# Topology sni, (6)-cn, num edge types: 1
# Building blocks:
#     Node 0, Type 0, BuildingBlock: IZENUY_clean_sbu_0, # of connection points: 6
#     Node 1, Type 0, BuildingBlock: IZENUY_clean_sbu_0, # of connection points: 6
#     Node 2, Type 0, BuildingBlock: IZENUY_clean_sbu_0, # of connection points: 6
#     Node 3, Type 0, BuildingBlock: IZENUY_clean_sbu_0, # of connection points: 6
#     Node 4, Type 0, BuildingBlock: IZENUY_clean_sbu_0, # of connection points: 6
#     Node 5, Type 0, BuildingBlock: IZENUY_clean_sbu_0, # of connection points: 6
#     Node 6, Type 0, BuildingBlock: IZENUY_clean_sbu_0, # of connection points: 6
#     Node 7, Type 0, BuildingBlock: IZENUY_clean_sbu_0, # of connection points: 6
#     Edge 8, Type (0, 0), BuildingBlock: XIVTED_clean_linker_0, # of connection points: 2
#     Edge 9, Type (0, 0), BuildingBlock: XIVTED_clean_linker_0, # of connection points: 2
#     Edge 10, Type (0, 0), BuildingBlock: XIVTED_clean_linker_0, # of connection points: 2
#     Edge 11, Type (0, 0), BuildingBlock: XIVTED_clean_linker_0, # of connection points: 2
#     Edge 12, Type (0, 0), BuildingBlock: XIVTED_clean_linker_0, # of connection points: 2
#     Edge 13, Type (0, 0), BuildingBlock: XIVTED_clean_linker_0, # of connection points: 2
#     Edge 14, Type (0, 0), BuildingBlock: XIVTED_clean_linker_0, # of connection points: 2
#     Edge 15, Type (0, 0), BuildingBlock: XIVTED_clean_linker_0, # of connection points: 2
#     Edge 16, Type (0, 0), BuildingBlock: XIVTED_clean_linker_0, # of connection points: 2
#     Edge 17, Type (0, 0), BuildingBlock: XIVTED_clean_linker_0, # of connection points: 2
#     Edge 18, Type (0, 0), BuildingBlock: XIVTED_clean_linker_0, # of connection points: 2
#     Edge 19, Type (0, 0), BuildingBlock: XIVTED_clean_linker_0, # of connection points: 2
#     Edge 20, Type (0, 0), BuildingBlock: XIVTED_clean_linker_0, # of connection points: 2
#     Edge 21, Type (0, 0), BuildingBlock: XIVTED_clean_linker_0, # of connection points: 2
#     Edge 22, Type (0, 0), BuildingBlock: XIVTED_clean_linker_0, # of connection points: 2
#     Edge 23, Type (0, 0), BuildingBlock: XIVTED_clean_linker_0, # of connection points: 2
#     Edge 24, Type (0, 0), BuildingBlock: XIVTED_clean_linker_0, # of connection points: 2
#     Edge 25, Type (0, 0), BuildingBlock: XIVTED_clean_linker_0, # of connection points: 2
#     Edge 26, Type (0, 0), BuildingBlock: XIVTED_clean_linker_0, # of connection points: 2
#     Edge 27, Type (0, 0), BuildingBlock: XIVTED_clean_linker_0, # of connection points: 2
#     Edge 28, Type (0, 0), BuildingBlock: XIVTED_clean_linker_0, # of connection points: 2
#     Edge 29, Type (0, 0), BuildingBlock: XIVTED_clean_linker_0, # of connection points: 2
#     Edge 30, Type (0, 0), BuildingBlock: XIVTED_clean_linker_0, # of connection points: 2
#     Edge 31, Type (0, 0), BuildingBlock: XIVTED_clean_linker_0, # of connection points: 2
# Relax obj value: 0.128
# Max RMSD: 0.110
# Mean RMSD: 0.110
data_MOF--net-sni--node1-IZENUY_clean_sbu_0--edge1-XIVTED_clean_linker_0
_symmetry_space_group_name_H-M    P1
_symmetry_Int_Tables_number       1
_symmetry_cell_setting            triclinic
loop_
_symmetry_equiv_pos_as_xyz
'x, y, z'
_cell_length_a     40.699207
_cell_length_b     40.789664
_cell_length_c     20.864261
_cell_angle_alpha  90.068984
_cell_angle_beta   90.200992
_cell_angle_gamma 90.112286
loop_
_atom_site_label
_atom_site_type_symbol
_atom_site_fract_x
_atom_site_fract_y
_atom_site_fract_z
_atom_type_partial_charge
Fe0 Fe 0.64826 0.20045 0.97817 0.0
Fe1 Fe 0.70146 0.14612 -0.0158 0.0
O2 O 0.65965 0.1585 0.98026 0.0
Fe3 Fe 0.62848 0.12841 0.97821 0.0
O4 O 0.61588 0.14148 0.89921 0.0
O5 O 0.61248 0.19374 0.92501 0.0
O6 O 0.67205 0.20745 0.90637 0.0
C7 C 0.70179 0.20005 0.89748 0.0
C8 C 0.59948 0.17707 0.05476 0.0
O9 O 0.71651 0.17972 0.93344 0.0
C10 C 0.66821 0.10377 0.07124 0.0
O11 O 0.68205 0.21442 0.02952 0.0
O12 O 0.70865 0.16955 0.0569 0.0
O13 O 0.59702 0.15353 0.01591 0.0
O14 O 0.62341 0.19666 0.05081 0.0
C15 C 0.67736 0.0989 0.9033 0.0
O16 O 0.693 0.11048 0.03655 0.0
O17 O 0.63997 0.1143 0.05687 0.0
C18 C 0.70206 0.19945 0.06556 0.0
O19 O 0.6981 0.12157 0.91086 0.0
O20 O 0.65314 0.09675 0.94038 0.0
C21 C 0.6061 0.17017 0.88709 0.0
Fe22 Fe 0.90232 0.62801 -0.00748 0.0
Fe23 Fe 0.88272 0.7001 0.98088 0.0
O24 O 0.87146 0.65821 -0.01364 0.0
Fe25 Fe 0.82964 0.64597 -0.01411 0.0
O26 O 0.83603 0.61073 0.0401 0.0
O27 O 0.88763 0.61581 0.07062 0.0
O28 O 0.93267 0.65417 0.03284 0.0
C29 C 0.92907 0.67962 0.06645 0.0
C30 C 0.85551 0.59748 0.91214 0.0
O31 O 0.90532 0.69868 0.05644 0.0
C32 C 0.83125 0.69833 0.89572 0.0
O33 O 0.91809 0.63884 0.91498 0.0
O34 O 0.92004 0.6921 0.93254 0.0
O35 O 0.8353 0.62085 0.91445 0.0
O36 O 0.87854 0.59569 0.95274 0.0
C37 C 0.82717 0.70015 0.06377 0.0
O38 O 0.86109 0.70497 0.90554 0.0
O39 O 0.81577 0.67914 0.93267 0.0
C40 C 0.92808 0.66705 0.89974 0.0
O41 O 0.84727 0.71496 0.02742 0.0
O42 O 0.82119 0.67001 0.05666 0.0
C43 C 0.85892 0.60511 0.08015 0.0
Fe44 Fe 0.328 0.8814 0.98125 0.0
Fe45 Fe 0.38159 0.82766 0.98147 0.0
O46 O 0.36995 0.86958 -0.0145 0.0
Fe47 Fe 0.40022 0.90029 -0.00584 0.0
O48 O 0.38311 0.91307 0.06993 0.0
O49 O 0.33264 0.91762 0.03365 0.0
O50 O 0.31855 0.85807 0.0526 0.0
C51 C 0.32494 0.82809 0.06122 0.0
C52 C 0.35587 0.92859 0.90658 0.0
O53 O 0.3454 0.81309 0.02593 0.0
C54 C 0.42928 0.86077 0.9054 0.0
O55 O 0.31535 0.84739 0.92924 0.0
O56 O 0.36121 0.82212 0.9046 0.0
O57 O 0.37737 0.93151 0.95004 0.0
O58 O 0.33506 0.9056 0.90894 0.0
C59 C 0.42498 0.84992 0.07275 0.0
O60 O 0.41973 0.83563 0.93617 0.0
O61 O 0.41887 0.88899 0.9193 0.0
C62 C 0.33134 0.82813 0.89353 0.0
O63 O 0.40302 0.82934 0.05844 0.0
O64 O 0.42915 0.87533 0.03949 0.0
C65 C 0.35419 0.92354 0.07612 0.0
Fe66 Fe 0.20204 0.3812 0.97788 0.0
Fe67 Fe 0.12949 0.39924 0.97265 0.0
O68 O 0.1602 0.36899 0.97822 0.0
Fe69 Fe 0.14866 0.32708 -0.01602 0.0
O70 O 0.17052 0.32236 0.05902 0.0
O71 O 0.21584 0.34828 0.03171 0.0
O72 O 0.19679 0.40684 0.04896 0.0
C73 C 0.1766 0.43023 0.05091 0.0
C74 C 0.20409 0.32658 0.90083 0.0
O75 O 0.15338 0.43165 0.01091 0.0
C76 C 0.10313 0.34862 0.89753 0.0
O77 O 0.19552 0.41617 0.92272 0.0
O78 O 0.14364 0.41115 0.89412 0.0
O79 O 0.18392 0.31195 0.9373 0.0
O80 O 0.21022 0.35671 0.90756 0.0
C81 C 0.10373 0.36038 0.06566 0.0
O82 O 0.0993 0.37314 0.9334 0.0
O83 O 0.12575 0.32835 0.90856 0.0
C84 C 0.17227 0.42166 0.88332 0.0
O85 O 0.11408 0.38855 0.05076 0.0
O86 O 0.11154 0.33535 0.03257 0.0
C87 C 0.20034 0.32915 0.06876 0.0
Fe88 Fe 0.64901 0.82545 0.486 0.0
Fe89 Fe 0.70299 0.87904 0.47935 0.0
O90 O 0.66102 0.86727 0.4837 0.0
Fe91 Fe 0.63056 0.89786 0.48598 0.0
O92 O 0.618 0.88495 0.56455 0.0
O93 O 0.61373 0.83256 0.54028 0.0
O94 O 0.67327 0.8182 0.55729 0.0
C95 C 0.70341 0.82442 0.5645 0.0
C96 C 0.60006 0.84941 0.40965 0.0
O97 O 0.7181 0.84446 0.52793 0.0
C98 C 0.67028 0.9227 0.39404 0.0
O99 O 0.68236 0.81138 0.43331 0.0
O100 O 0.70857 0.85651 0.40553 0.0
O101 O 0.59841 0.87336 0.44778 0.0
O102 O 0.62351 0.82937 0.41404 0.0
C103 C 0.68027 0.92549 0.56239 0.0
O104 O 0.69495 0.91555 0.42893 0.0
O105 O 0.64203 0.91201 0.40752 0.0
C106 C 0.7018 0.82668 0.39641 0.0
O107 O 0.70064 0.90267 0.55377 0.0
O108 O 0.65618 0.92879 0.52484 0.0
C109 C 0.60777 0.85654 0.57753 0.0
Fe110 Fe 0.14988 0.70121 0.48406 0.0
Fe111 Fe 0.20233 0.64674 0.47759 0.0
O112 O 0.16062 0.65925 0.47806 0.0
Fe113 Fe 0.12941 0.62928 0.47217 0.0
O114 O 0.09921 0.65557 0.43229 0.0
O115 O 0.12683 0.70004 0.40898 0.0
O116 O 0.18514 0.71576 0.43683 0.0
C117 C 0.2046 0.7008 0.39951 0.0
C118 C 0.10425 0.6685 0.56538 0.0
O119 O 0.21055 0.67067 0.40651 0.0
C120 C 0.17618 0.59859 0.55193 0.0
O121 O 0.17208 0.70588 0.55893 0.0
O122 O 0.21696 0.6799 0.53024 0.0
O123 O 0.11389 0.64022 0.54993 0.0
O124 O 0.11275 0.69353 0.53303 0.0
C125 C 0.17228 0.60599 0.38397 0.0
O126 O 0.19676 0.62173 0.54922 0.0
O127 O 0.15302 0.59692 0.51159 0.0
C128 C 0.202 0.69923 0.56761 0.0
O129 O 0.19532 0.61147 0.42377 0.0
O130 O 0.14373 0.61692 0.3938 0.0
C131 C 0.10292 0.68106 0.39896 0.0
Fe132 Fe 0.3814 0.20093 0.47894 0.0
Fe133 Fe 0.3273 0.1476 0.48354 0.0
O134 O 0.36929 0.15913 0.47938 0.0
Fe135 Fe 0.39972 0.12849 0.47569 0.0
O136 O 0.43169 0.1526 0.51497 0.0
O137 O 0.4063 0.19596 0.55117 0.0
O138 O 0.34786 0.21483 0.53109 0.0
C139 C 0.32845 0.19942 0.56772 0.0
C140 C 0.4231 0.1711 0.38681 0.0
O141 O 0.32173 0.16965 0.55801 0.0
C142 C 0.34884 0.10063 0.40131 0.0
O143 O 0.35759 0.20888 0.40741 0.0
O144 O 0.31256 0.18256 0.43566 0.0
O145 O 0.41251 0.14248 0.39736 0.0
O146 O 0.41703 0.19435 0.42559 0.0
C147 C 0.35976 0.10299 0.56737 0.0
O148 O 0.32942 0.12434 0.40881 0.0
O149 O 0.37406 0.09799 0.43604 0.0
C150 C 0.32746 0.20273 0.39966 0.0
O151 O 0.33507 0.11076 0.53309 0.0
O152 O 0.38819 0.11327 0.55372 0.0
C153 C 0.42977 0.17591 0.55447 0.0
Fe154 Fe 0.88125 0.32629 0.47864 0.0
Fe155 Fe 0.90006 0.39862 0.49225 0.0
O156 O 0.8695 0.36811 0.48512 0.0
Fe157 Fe 0.82761 0.38007 0.48474 0.0
O158 O 0.81902 0.35519 0.55423 0.0
O159 O 0.84607 0.31077 0.52506 0.0
O160 O 0.90393 0.32741 0.55415 0.0
C161 C 0.92633 0.34779 0.56633 0.0
C162 C 0.82968 0.32799 0.39354 0.0
O163 O 0.93026 0.37267 0.5316 0.0
C164 C 0.85341 0.42953 0.41325 0.0
O165 O 0.91843 0.33516 0.43038 0.0
O166 O 0.91596 0.38854 0.41431 0.0
O167 O 0.81412 0.34733 0.43 0.0
O168 O 0.85952 0.32144 0.40347 0.0
C169 C 0.85666 0.42018 0.58109 0.0
O170 O 0.87622 0.43105 0.45417 0.0
O171 O 0.83326 0.40601 0.41431 0.0
C172 C 0.92635 0.36056 0.39846 0.0
O173 O 0.88537 0.40991 0.57073 0.0
O174 O 0.83371 0.41487 0.54086 0.0
C175 C 0.82551 0.32515 0.56103 0.0
H176 H 0.43042 0.13346 0.28023 0.0
H177 H 0.5966 0.21773 0.16158 0.0
H178 H 0.46967 0.21967 0.37327 0.0
H179 H 0.53989 0.14737 0.05258 0.0
H180 H 0.55166 0.22007 0.24055 0.0
H181 H 0.47181 0.13883 0.19716 0.0
C182 C 0.4477 0.15365 0.28298 0.0
C183 C 0.44665 0.17605 0.33385 0.0
C184 C 0.54913 0.20441 0.19889 0.0
C185 C 0.49459 0.1823 0.23881 0.0
C186 C 0.5747 0.2031 0.15389 0.0
C187 C 0.57225 0.18205 0.10075 0.0
C188 C 0.52118 0.18445 0.19042 0.0
C189 C 0.54328 0.16363 0.09312 0.0
C190 C 0.47136 0.1568 0.23539 0.0
C191 C 0.46959 0.2019 0.33469 0.0
N192 N 0.51916 0.16512 0.13748 0.0
N193 N 0.49291 0.20415 0.28817 0.0
H194 H 0.80856 0.56068 0.09499 0.0
H195 H 0.88723 0.48692 0.41495 0.0
H196 H 0.89736 0.59598 0.18566 0.0
H197 H 0.81165 0.43569 0.30862 0.0
H198 H 0.88493 0.53125 0.33831 0.0
H199 H 0.80348 0.51901 0.17928 0.0
C200 C 0.82677 0.5599 0.13292 0.0
C201 C 0.85358 0.58169 0.1331 0.0
C202 C 0.86873 0.51043 0.33153 0.0
C203 C 0.84784 0.53429 0.22923 0.0
C204 C 0.86998 0.48495 0.37546 0.0
C205 C 0.84979 0.45724 0.36799 0.0
C206 C 0.8472 0.50846 0.27912 0.0
C207 C 0.82775 0.45652 0.31605 0.0
C208 C 0.82392 0.53604 0.18072 0.0
C209 C 0.87647 0.57953 0.18323 0.0
N210 N 0.82716 0.48174 0.27317 0.0
N211 N 0.87309 0.55625 0.22905 0.0
H212 H 0.59128 0.80088 0.31713 0.0
H213 H 0.44088 0.89578 0.15962 0.0
H214 H 0.54576 0.88735 0.39673 0.0
H215 H 0.45921 0.79469 0.11142 0.0
H216 H 0.48163 0.89241 0.24464 0.0
H217 H 0.5457 0.79703 0.23897 0.0
C218 C 0.57175 0.81886 0.31853 0.0
C219 C 0.57261 0.84463 0.36337 0.0
C220 C 0.47667 0.87072 0.2162 0.0
C221 C 0.52078 0.84039 0.27457 0.0
C222 C 0.45336 0.87268 0.16763 0.0
C223 C 0.44668 0.84547 0.12879 0.0
C224 C 0.49417 0.84146 0.2256 0.0
C225 C 0.46356 0.81611 0.14097 0.0
C226 C 0.54574 0.81657 0.27415 0.0
C227 C 0.54654 0.86716 0.36304 0.0
N228 N 0.48699 0.81495 0.18799 0.0
N229 N 0.52203 0.8646 0.31933 0.0
H230 H 0.14406 0.48816 0.04803 0.0
H231 H 0.22239 0.56157 0.36892 0.0
H232 H 0.21805 0.43603 0.15611 0.0
H233 H 0.13352 0.59664 0.27881 0.0
H234 H 0.22731 0.51991 0.28452 0.0
H235 H 0.14666 0.53256 0.12471 0.0
C236 C 0.16101 0.48601 0.08794 0.0
C237 C 0.18063 0.45801 0.09596 0.0
C238 C 0.20689 0.53687 0.28323 0.0
C239 C 0.18357 0.50929 0.1848 0.0
C240 C 0.20411 0.56073 0.33109 0.0
C241 C 0.17734 0.58247 0.33107 0.0
C242 C 0.18294 0.53509 0.23479 0.0
C243 C 0.15437 0.58023 0.28108 0.0
C244 C 0.16243 0.51151 0.13187 0.0
C245 C 0.20239 0.45708 0.1483 0.0
N246 N 0.1577 0.55696 0.23513 0.0
N247 N 0.20314 0.48233 0.19119 0.0
H248 H 0.56914 0.80325 0.60998 0.0
H249 H 0.46213 0.91079 0.84787 0.0
H250 H 0.59293 0.9023 0.66759 0.0
H251 H 0.45702 0.805 0.85331 0.0
H252 H 0.50691 0.90722 0.77218 0.0
H253 H 0.52598 0.80201 0.69234 0.0
C254 C 0.56557 0.82454 0.64022 0.0
C255 C 0.58436 0.8531 0.63117 0.0
C256 C 0.49616 0.88471 0.79 0.0
C257 C 0.53512 0.85189 0.72425 0.0
C258 C 0.47036 0.8867 0.8331 0.0
C259 C 0.4558 0.85812 0.85738 0.0
C260 C 0.50754 0.85392 0.77008 0.0
C261 C 0.46765 0.82766 0.83601 0.0
C262 C 0.54096 0.8238 0.68702 0.0
C263 C 0.57878 0.8799 0.67192 0.0
N264 N 0.49286 0.82631 0.79324 0.0
N265 N 0.55452 0.87872 0.71604 0.0
H266 H 0.13354 0.42852 0.77788 0.0
H267 H 0.22097 0.59185 0.65145 0.0
H268 H 0.22125 0.46758 0.86658 0.0
H269 H 0.13967 0.54287 0.558 0.0
H270 H 0.22363 0.54656 0.7292 0.0
H271 H 0.13764 0.46993 0.69469 0.0
C272 C 0.15383 0.44575 0.77961 0.0
C273 C 0.17694 0.44473 0.8295 0.0
C274 C 0.20541 0.54578 0.69128 0.0
C275 C 0.18169 0.49272 0.73429 0.0
C276 C 0.20387 0.5716 0.647 0.0
C277 C 0.17995 0.57134 0.59828 0.0
C278 C 0.18284 0.5197 0.68663 0.0
C279 C 0.15842 0.54442 0.5948 0.0
C280 C 0.1562 0.46945 0.73198 0.0
C281 C 0.20289 0.46752 0.82891 0.0
N282 N 0.16033 0.51992 0.63834 0.0
N283 N 0.2044 0.49087 0.78235 0.0
H284 H 0.43454 0.21814 0.65825 0.0
H285 H 0.59807 0.13122 0.78256 0.0
H286 H 0.4878 0.14346 0.55491 0.0
H287 H 0.56121 0.2197 0.87012 0.0
H288 H 0.55686 0.13633 0.69863 0.0
H289 H 0.47986 0.22053 0.73674 0.0
C290 C 0.45576 0.20252 0.65176 0.0
C291 C 0.45717 0.18032 0.60037 0.0
C292 C 0.55783 0.15485 0.73583 0.0
C293 C 0.50866 0.18284 0.68933 0.0
C294 C 0.58135 0.15185 0.78387 0.0
C295 C 0.58292 0.17495 0.83349 0.0
C296 C 0.53531 0.18091 0.73763 0.0
C297 C 0.5608 0.20137 0.83255 0.0
C298 C 0.48156 0.20389 0.69641 0.0
C299 C 0.48528 0.16068 0.5941 0.0
N300 N 0.53758 0.20347 0.78564 0.0
N301 N 0.50967 0.16228 0.63813 0.0
H302 H 0.81097 0.59139 0.81214 0.0
H303 H 0.89343 0.42489 0.68956 0.0
H304 H 0.8906 0.5409 0.90705 0.0
H305 H 0.80919 0.46769 0.59566 0.0
H306 H 0.88979 0.46629 0.77302 0.0
H307 H 0.80723 0.54587 0.7349 0.0
C308 C 0.82749 0.57075 0.81701 0.0
C309 C 0.85126 0.57012 0.86599 0.0
C310 C 0.87188 0.46665 0.73453 0.0
C311 C 0.8471 0.51818 0.77822 0.0
C312 C 0.87398 0.44294 0.68677 0.0
C313 C 0.85177 0.44301 0.6353 0.0
C314 C 0.84759 0.49101 0.73076 0.0
C315 C 0.82683 0.46679 0.63458 0.0
C316 C 0.82533 0.5448 0.773 0.0
C317 C 0.87201 0.54273 0.87001 0.0
N318 N 0.82562 0.49014 0.68129 0.0
N319 N 0.8695 0.51807 0.82673 0.0
H320 H 0.9498 0.61787 0.82288 0.0
H321 H 0.07355 0.72402 0.61235 0.0
H322 H 0.96235 0.72161 0.85756 0.0
H323 H 0.07793 0.61886 0.63554 0.0
H324 H 0.02972 0.72587 0.69338 0.0
H325 H 0.99246 0.6202 0.74258 0.0
C326 C 0.9615 0.64126 0.81363 0.0
C327 C 0.95265 0.66954 0.84779 0.0
C328 C 0.04051 0.70253 0.68063 0.0
C329 C 1.002 0.67231 0.75504 0.0
C330 C 0.06547 0.70142 0.63451 0.0
C331 C 0.07932 0.67121 0.61666 0.0
C332 C 0.02927 0.6732 0.70825 0.0
C333 C 0.06797 0.64272 0.64714 0.0
C334 C 0.98603 0.64253 0.7677 0.0
C335 C 0.96856 0.69917 0.83268 0.0
N336 N 0.04357 0.64445 0.6909 0.0
N337 N 0.99262 0.69981 0.78735 0.0
H338 H 0.30666 0.0633 0.59512 0.0
H339 H 0.40172 0.97527 0.88335 0.0
H340 H 0.40541 0.08619 0.65717 0.0
H341 H 0.30766 0.94041 0.81482 0.0
H342 H 0.40085 0.0179 0.80317 0.0
H343 H 0.30391 0.02047 0.67775 0.0
C344 C 0.32765 0.0595 0.62627 0.0
C345 C 0.35638 0.07832 0.61899 0.0
C346 C 0.38028 1.00107 0.80534 0.0
C347 C 0.35336 0.02947 0.71313 0.0
C348 C 0.38069 0.9766 0.85148 0.0
C349 C 0.3546 0.95419 0.85626 0.0
C350 C 0.35357 1.0035 0.76301 0.0
C351 C 0.32828 0.95717 0.81288 0.0
C352 C 0.32609 0.03497 0.67315 0.0
C353 C 0.38282 0.07225 0.66056 0.0
N354 N 0.32838 0.9815 0.76798 0.0
N355 N 0.38064 0.04842 0.70557 0.0
H356 H 0.94685 0.3954 0.64468 0.0
H357 H 0.07924 0.29113 0.84199 0.0
H358 H 0.95742 0.29166 0.6109 0.0
H359 H 0.07244 0.39661 0.83388 0.0
H360 H 0.03369 0.28754 0.76317 0.0
H361 H 0.98967 0.39291 0.72494 0.0
C362 C 0.9582 0.37193 0.6547 0.0
C363 C 0.94891 0.34379 0.62089 0.0
C364 C 0.04245 0.31134 0.77872 0.0
C365 C 0.999 0.34069 0.7122 0.0
C366 C 0.06847 0.31339 0.82314 0.0
C367 C 0.07921 0.34421 0.84499 0.0
C368 C 0.02752 0.34034 0.75666 0.0
C369 C 0.06456 0.37233 0.81934 0.0
C370 C 0.98287 0.37048 0.70038 0.0
C371 C 0.96406 0.31388 0.63624 0.0
N372 N 0.03953 0.36966 0.77708 0.0
N373 N 0.98883 0.31311 0.6806 0.0
H374 H 0.63038 0.0567 0.86372 0.0
H375 H 0.73665 0.94721 0.6259 0.0
H376 H 0.73192 0.082 0.82944 0.0
H377 H 0.63134 0.95897 0.61839 0.0
H378 H 0.73904 0.9901 0.7101 0.0
H379 H 0.63412 1.01374 0.78473 0.0
C380 C 0.65366 0.05322 0.83962 0.0
C381 C 0.68091 0.07316 0.8535 0.0
C382 C 0.71556 0.98314 0.68958 0.0
C383 C 0.68525 0.0234 0.76135 0.0
C384 C 0.71415 0.95861 0.64211 0.0
C385 C 0.68376 0.94965 0.61497 0.0
C386 C 0.6863 0.998 0.7104 0.0
C387 C 0.65535 0.96523 0.63734 0.0
C388 C 0.65571 0.0286 0.79407 0.0
C389 C 0.71027 0.0673 0.81997 0.0
N390 N 0.65736 0.9884 0.68358 0.0
N391 N 0.71175 0.04278 0.77527 0.0
H392 H 0.07236 0.30508 0.11176 0.0
H393 H 0.95032 0.41096 0.32698 0.0
H394 H 0.07776 0.41014 0.13631 0.0
H395 H 0.9595 0.30627 0.35244 0.0
H396 H 0.99344 0.40927 0.24742 0.0
H397 H 0.02847 0.30328 0.19252 0.0
C398 C 0.06447 0.32769 0.13417 0.0
C399 C 0.07867 0.35784 0.1168 0.0
C400 C 0.98615 0.38659 0.27033 0.0
C401 C 0.0285 0.35591 0.20828 0.0
C402 C 0.96134 0.38749 0.31582 0.0
C403 C 0.95136 0.35872 0.3471 0.0
C404 C 1.00123 0.35669 0.2552 0.0
C405 C 0.96654 0.32907 0.3298 0.0
C406 C 0.03947 0.32661 0.18016 0.0
C407 C 0.06755 0.38632 0.14761 0.0
N408 N 0.99082 0.3288 0.28492 0.0
N409 N 0.04309 0.38463 0.19135 0.0
H410 H 0.72564 0.95523 0.35141 0.0
H411 H 0.61931 0.08222 0.14942 0.0
H412 H 0.62066 0.94848 0.32239 0.0
H413 H 0.72278 0.06921 0.11149 0.0
H414 H 0.6218 0.03821 0.22725 0.0
H415 H 0.7273 1.00074 0.27411 0.0
C416 C 0.70305 0.96311 0.32865 0.0
C417 C 0.67294 0.94814 0.34385 0.0
C418 C 0.64401 0.04494 0.20197 0.0
C419 C 0.67468 1.00016 0.25679 0.0
C420 C 0.64267 0.07023 0.15759 0.0
C421 C 0.67081 0.07921 0.12308 0.0
C422 C 0.67373 0.02845 0.21263 0.0
C423 C 0.70044 0.0629 0.13665 0.0
C424 C 0.70405 0.98904 0.28473 0.0
C425 C 0.64444 0.95929 0.31274 0.0
N426 N 0.70114 0.03813 0.18038 0.0
N427 N 0.64602 0.98472 0.27126 0.0
H428 H 0.99492 0.67292 0.05156 0.0
H429 H 0.03699 0.67591 0.41479 0.0
H430 H 0.92216 0.70503 0.18741 0.0
H431 H 0.11017 0.70462 0.27683 0.0
H432 H 0.99423 0.68334 0.33316 0.0
H433 H 0.03774 0.68117 0.13283 0.0
C434 C 0.98806 0.68203 0.09844 0.0
C435 C 0.95503 0.68821 0.11312 0.0
C436 C 0.01957 0.68853 0.32104 0.0
C437 C 1.0037 0.69701 0.20639 0.0
C438 C 0.04395 0.68417 0.36737 0.0
C439 C 0.07707 0.68961 0.35221 0.0
C440 C 0.02848 0.69738 0.25855 0.0
C441 C 0.08486 0.70032 0.29028 0.0
C442 C 1.01249 0.68689 0.14455 0.0
C443 C 0.94739 0.70009 0.17434 0.0
N444 N 0.06076 0.70322 0.24515 0.0
N445 N 0.97151 0.70349 0.21933 0.0
H446 H 0.38429 0.92662 0.19196 0.0
H447 H 0.31258 0.10076 0.28868 0.0
H448 H 0.30859 0.97316 0.07917 0.0
H449 H 0.36783 0.03773 0.41518 0.0
H450 H 0.30808 0.05494 0.21174 0.0
H451 H 0.37676 0.96775 0.27496 0.0
C452 C 0.3659 0.94547 0.18495 0.0
C453 C 0.3472 0.94667 0.1286 0.0
C454 C 0.32076 0.05119 0.25684 0.0
C455 C 0.33857 0.99427 0.22325 0.0
C456 C 0.32325 0.07724 0.30062 0.0
C457 C 0.34115 0.07317 0.35765 0.0
C458 C 0.33629 0.02119 0.27074 0.0
C459 C 0.35447 0.04223 0.3711 0.0
C460 C 0.36148 0.96894 0.23244 0.0
C461 C 0.32348 0.97144 0.12214 0.0
N462 N 0.35202 0.01765 0.32783 0.0
N463 N 0.32012 0.99465 0.16863 0.0
H464 H 0.8507 0.27503 0.32397 0.0
H465 H 0.68726 0.26019 0.11303 0.0
H466 H 0.76754 0.33949 0.3474 0.0
H467 H 0.75788 0.18187 0.1313 0.0
H468 H 0.71847 0.2921 0.19162 0.0
H469 H 0.81945 0.24356 0.24484 0.0
C470 C 0.82594 0.28273 0.31224 0.0
C471 C 0.8117 0.30995 0.34262 0.0
C472 C 0.72706 0.26789 0.17858 0.0
C473 C 0.77579 0.27389 0.25197 0.0
C474 C 0.7093 0.24965 0.13363 0.0
C475 C 0.71997 0.21828 0.11543 0.0
C476 C 0.75597 0.25488 0.20507 0.0
C477 C 0.74866 0.20588 0.144 0.0
C478 C 0.80806 0.2646 0.26729 0.0
C479 C 0.77948 0.31863 0.32545 0.0
N480 N 0.76576 0.2243 0.1871 0.0
N481 N 0.76263 0.30069 0.28121 0.0
H482 H 0.78187 0.67649 0.14886 0.0
H483 H 0.74559 0.85111 0.30889 0.0
H484 H 0.82964 0.76619 0.09039 0.0
H485 H 0.698 0.76117 0.36649 0.0
H486 H 0.77584 0.8207 0.22749 0.0
H487 H 0.75065 0.70731 0.228 0.0
C488 C 0.78584 0.70269 0.15257 0.0
C489 C 0.80846 0.71874 0.11264 0.0
C490 C 0.75875 0.80762 0.25784 0.0
C491 C 0.77259 0.75428 0.20359 0.0
C492 C 0.74139 0.82497 0.3044 0.0
C493 C 0.71923 0.80868 0.34495 0.0
C494 C 0.75399 0.77367 0.2516 0.0
C495 C 0.71483 0.77479 0.33651 0.0
C496 C 0.76794 0.72029 0.19787 0.0
C497 C 0.8125 0.75275 0.12001 0.0
N498 N 0.73211 0.75843 0.29095 0.0
N499 N 0.79474 0.76936 0.16456 0.0
H500 H 0.27932 0.85158 0.14613 0.0
H501 H 0.24915 0.67738 0.31262 0.0
H502 H 0.32918 0.76267 0.09039 0.0
H503 H 0.20038 0.76641 0.37122 0.0
H504 H 0.27823 0.70823 0.23033 0.0
H505 H 0.24983 0.82079 0.22814 0.0
C506 C 0.28406 0.82557 0.15098 0.0
C507 C 0.30677 0.8097 0.11105 0.0
C508 C 0.26118 0.72104 0.26119 0.0
C509 C 0.27302 0.7743 0.20517 0.0
C510 C 0.24454 0.70343 0.30829 0.0
C511 C 0.22229 0.71931 0.34918 0.0
C512 C 0.2556 0.75483 0.25465 0.0
C513 C 0.21732 0.75312 0.34097 0.0
C514 C 0.2672 0.80801 0.19794 0.0
C515 C 0.3119 0.77597 0.1199 0.0
N516 N 0.23385 0.76973 0.29469 0.0
N517 N 0.29516 0.75942 0.16594 0.0
H518 H 0.35105 0.24846 0.31542 0.0
H519 H 0.17582 0.28517 0.15584 0.0
H520 H 0.26137 0.19997 0.37242 0.0
H521 H 0.26582 0.33331 0.09965 0.0
H522 H 0.20639 0.25462 0.23691 0.0
H523 H 0.31998 0.2801 0.23702 0.0
C524 C 0.32481 0.2444 0.31149 0.0
C525 C 0.30883 0.22147 0.3508 0.0
C526 C 0.21944 0.27192 0.20694 0.0
C527 C 0.27301 0.25784 0.2608 0.0
C528 C 0.20198 0.28944 0.16063 0.0
C529 C 0.21826 0.3118 0.12052 0.0
C530 C 0.25347 0.27671 0.21334 0.0
C531 C 0.2522 0.31631 0.12927 0.0
C532 C 0.30707 0.26256 0.26665 0.0
C533 C 0.27476 0.21734 0.34324 0.0
N534 N 0.26866 0.29885 0.17454 0.0
N535 N 0.258 0.23535 0.29917 0.0
H536 H 0.1791 0.74488 0.653 0.0
H537 H 0.35525 0.78081 0.81175 0.0
H538 H 0.26778 0.69474 0.59647 0.0
H539 H 0.26647 0.83295 0.86024 0.0
H540 H 0.32399 0.74867 0.73318 0.0
H541 H 0.2109 0.77636 0.73098 0.0
C542 C 0.20524 0.74035 0.65709 0.0
C543 C 0.22074 0.71713 0.61781 0.0
C544 C 0.31141 0.76721 0.76096 0.0
C545 C 0.25746 0.75337 0.70717 0.0
C546 C 0.32926 0.78564 0.80574 0.0
C547 C 0.31351 0.80962 0.84291 0.0
C548 C 0.27754 0.77275 0.75332 0.0
C549 C 0.27974 0.81473 0.83291 0.0
C550 C 0.22343 0.75845 0.70161 0.0
C551 C 0.25474 0.71239 0.62557 0.0
N552 N 0.26294 0.79642 0.78932 0.0
N553 N 0.27195 0.73039 0.66922 0.0
H554 H 0.28395 0.17509 0.65418 0.0
H555 H 0.24979 0.34972 0.81609 0.0
H556 H 0.33307 0.26461 0.59903 0.0
H557 H 0.20086 0.26055 0.87407 0.0
H558 H 0.28069 0.31861 0.737 0.0
H559 H 0.25389 0.20556 0.73594 0.0
C560 C 0.28851 0.20113 0.65929 0.0
C561 C 0.31104 0.2173 0.61934 0.0
C562 C 0.26322 0.3058 0.767 0.0
C563 C 0.27655 0.25237 0.71298 0.0
C564 C 0.2455 0.32357 0.81228 0.0
C565 C 0.22264 0.30776 0.85205 0.0
C566 C 0.25815 0.27188 0.76109 0.0
C567 C 0.2182 0.27381 0.84456 0.0
C568 C 0.27129 0.21852 0.70603 0.0
C569 C 0.31593 0.25108 0.6285 0.0
N570 N 0.23579 0.25701 0.79999 0.0
N571 N 0.29878 0.26746 0.67418 0.0
H572 H 0.7709 0.34407 0.62722 0.0
H573 H 0.76303 0.18548 0.85033 0.0
H574 H 0.83819 0.26308 0.6062 0.0
H575 H 0.68283 0.25374 0.82817 0.0
H576 H 0.79335 0.21512 0.7672 0.0
H577 H 0.74089 0.31299 0.70769 0.0
C578 C 0.77942 0.31973 0.63951 0.0
C579 C 0.80714 0.30617 0.60972 0.0
C580 C 0.76908 0.22349 0.7805 0.0
C581 C 0.77279 0.27041 0.7024 0.0
C582 C 0.75179 0.20667 0.82807 0.0
C583 C 0.72034 0.21717 0.84646 0.0
C584 C 0.75497 0.25122 0.75168 0.0
C585 C 0.70696 0.24469 0.81564 0.0
C586 C 0.76216 0.30194 0.68539 0.0
C587 C 0.81689 0.27445 0.6277 0.0
N588 N 0.72441 0.26083 0.77012 0.0
N589 N 0.79982 0.25768 0.67313 0.0
H590 H 0.6801 0.77916 0.64999 0.0
H591 H 0.85565 0.74265 0.80894 0.0
H592 H 0.76966 0.82726 0.59113 0.0
H593 H 0.76575 0.69429 0.86494 0.0
H594 H 0.82496 0.7733 0.72802 0.0
H595 H 0.71134 0.74784 0.72859 0.0
C596 C 0.70635 0.78321 0.65355 0.0
C597 C 0.72223 0.80594 0.61361 0.0
C598 C 0.81196 0.75593 0.75792 0.0
C599 C 0.75829 0.7699 0.70395 0.0
C600 C 0.82948 0.73835 0.80415 0.0
C601 C 0.81327 0.71586 0.84415 0.0
C602 C 0.77794 0.75108 0.75149 0.0
C603 C 0.77933 0.71136 0.83542 0.0
C604 C 0.72421 0.76523 0.69853 0.0
C605 C 0.75633 0.81005 0.62079 0.0
N606 N 0.76282 0.72886 0.79024 0.0
N607 N 0.77321 0.7922 0.66502 0.0
loop_
_geom_bond_atom_site_label_1
_geom_bond_atom_site_label_2
_geom_bond_distance
_geom_bond_site_symmetry_2
_ccdc_geom_bond_type
Fe0 O2 1.918 . S
Fe0 O5 1.997 1_554 S
Fe0 O6 2.002 1_554 S
Fe0 O11 1.976 . S
Fe0 O14 1.996 . S
Fe1 O2 1.918 . S
Fe1 O9 1.997 1_554 S
Fe1 O12 1.996 . S
Fe1 O16 1.976 . S
Fe1 O19 2.002 1_554 S
O2 Fe0 1.918 . S
O2 Fe1 1.918 . S
O2 Fe3 1.918 . S
Fe3 O2 1.918 . S
Fe3 O4 2.002 1_554 S
Fe3 O13 1.976 . S
Fe3 O17 1.996 . S
Fe3 O20 1.997 1_554 S
O4 Fe3 2.002 1_556 S
O4 C21 1.295 . S
O5 Fe0 1.997 1_556 S
O5 C21 1.235 . S
O6 Fe0 2.002 1_556 S
O6 C7 1.295 . S
C7 O6 1.295 . S
C7 O9 1.235 . S
C8 O13 1.287 . S
C8 O14 1.255 . S
O9 Fe1 1.997 1_556 S
O9 C7 1.235 . S
C10 O16 1.287 . S
C10 O17 1.255 . S
O11 Fe0 1.976 . S
O11 C18 1.287 . S
O12 Fe1 1.996 . S
O12 C18 1.255 . S
O13 Fe3 1.976 . S
O13 C8 1.287 . S
O14 Fe0 1.996 . S
O14 C8 1.255 . S
C15 O19 1.295 . S
C15 O20 1.235 . S
O16 Fe1 1.976 . S
O16 C10 1.287 . S
O17 Fe3 1.996 . S
O17 C10 1.255 . S
C18 O11 1.287 . S
C18 O12 1.255 . S
O19 Fe1 2.002 1_556 S
O19 C15 1.295 . S
O20 Fe3 1.997 1_556 S
O20 C15 1.235 . S
C21 O4 1.295 . S
C21 O5 1.235 . S
Fe22 O24 1.918 . S
Fe22 O27 1.997 1_556 S
Fe22 O28 2.002 1_556 S
Fe22 O33 1.976 . S
Fe22 O36 1.996 . S
Fe23 O24 1.918 . S
Fe23 O31 1.997 1_556 S
Fe23 O34 1.996 . S
Fe23 O38 1.976 . S
Fe23 O41 2.002 1_556 S
O24 Fe22 1.918 . S
O24 Fe23 1.918 . S
O24 Fe25 1.918 . S
Fe25 O24 1.918 . S
Fe25 O26 2.002 1_556 S
Fe25 O35 1.976 . S
Fe25 O39 1.996 . S
Fe25 O42 1.997 1_556 S
O26 Fe25 2.002 1_554 S
O26 C43 1.295 . S
O27 Fe22 1.997 1_554 S
O27 C43 1.235 . S
O28 Fe22 2.002 1_554 S
O28 C29 1.295 . S
C29 O28 1.295 . S
C29 O31 1.235 . S
C30 O35 1.287 . S
C30 O36 1.255 . S
O31 Fe23 1.997 1_554 S
O31 C29 1.235 . S
C32 O38 1.287 . S
C32 O39 1.255 . S
O33 Fe22 1.976 . S
O33 C40 1.287 . S
O34 Fe23 1.996 . S
O34 C40 1.255 . S
O35 Fe25 1.976 . S
O35 C30 1.287 . S
O36 Fe22 1.996 . S
O36 C30 1.255 . S
C37 O41 1.295 . S
C37 O42 1.235 . S
O38 Fe23 1.976 . S
O38 C32 1.287 . S
O39 Fe25 1.996 . S
O39 C32 1.255 . S
C40 O33 1.287 . S
C40 O34 1.255 . S
O41 Fe23 2.002 1_554 S
O41 C37 1.295 . S
O42 Fe25 1.997 1_554 S
O42 C37 1.235 . S
C43 O26 1.295 . S
C43 O27 1.235 . S
Fe44 O46 1.918 . S
Fe44 O49 1.997 1_556 S
Fe44 O50 2.002 1_556 S
Fe44 O55 1.976 . S
Fe44 O58 1.996 . S
Fe45 O46 1.918 . S
Fe45 O53 1.997 1_556 S
Fe45 O56 1.996 . S
Fe45 O60 1.976 . S
Fe45 O63 2.002 1_556 S
O46 Fe44 1.918 . S
O46 Fe45 1.918 . S
O46 Fe47 1.918 . S
Fe47 O46 1.918 . S
Fe47 O48 2.002 1_556 S
Fe47 O57 1.976 . S
Fe47 O61 1.996 . S
Fe47 O64 1.997 1_556 S
O48 Fe47 2.002 1_554 S
O48 C65 1.295 . S
O49 Fe44 1.997 1_554 S
O49 C65 1.235 . S
O50 Fe44 2.002 1_554 S
O50 C51 1.295 . S
C51 O50 1.295 . S
C51 O53 1.235 . S
C52 O57 1.287 . S
C52 O58 1.255 . S
O53 Fe45 1.997 1_554 S
O53 C51 1.235 . S
C54 O60 1.287 . S
C54 O61 1.255 . S
O55 Fe44 1.976 . S
O55 C62 1.287 . S
O56 Fe45 1.996 . S
O56 C62 1.255 . S
O57 Fe47 1.976 . S
O57 C52 1.287 . S
O58 Fe44 1.996 . S
O58 C52 1.255 . S
C59 O63 1.295 . S
C59 O64 1.235 . S
O60 Fe45 1.976 . S
O60 C54 1.287 . S
O61 Fe47 1.996 . S
O61 C54 1.255 . S
C62 O55 1.287 . S
C62 O56 1.255 . S
O63 Fe45 2.002 1_554 S
O63 C59 1.295 . S
O64 Fe47 1.997 1_554 S
O64 C59 1.235 . S
C65 O48 1.295 . S
C65 O49 1.235 . S
Fe66 O68 1.918 . S
Fe66 O71 1.997 1_556 S
Fe66 O72 2.002 1_556 S
Fe66 O77 1.976 . S
Fe66 O80 1.996 . S
Fe67 O68 1.918 . S
Fe67 O75 1.997 1_556 S
Fe67 O78 1.996 . S
Fe67 O82 1.976 . S
Fe67 O85 2.002 1_556 S
O68 Fe66 1.918 . S
O68 Fe67 1.918 . S
O68 Fe69 1.918 . S
Fe69 O68 1.918 . S
Fe69 O70 2.002 1_556 S
Fe69 O79 1.976 . S
Fe69 O83 1.996 . S
Fe69 O86 1.997 1_556 S
O70 Fe69 2.002 1_554 S
O70 C87 1.295 . S
O71 Fe66 1.997 1_554 S
O71 C87 1.235 . S
O72 Fe66 2.002 1_554 S
O72 C73 1.295 . S
C73 O72 1.295 . S
C73 O75 1.235 . S
C74 O79 1.287 . S
C74 O80 1.255 . S
O75 Fe67 1.997 1_554 S
O75 C73 1.235 . S
C76 O82 1.287 . S
C76 O83 1.255 . S
O77 Fe66 1.976 . S
O77 C84 1.287 . S
O78 Fe67 1.996 . S
O78 C84 1.255 . S
O79 Fe69 1.976 . S
O79 C74 1.287 . S
O80 Fe66 1.996 . S
O80 C74 1.255 . S
C81 O85 1.295 . S
C81 O86 1.235 . S
O82 Fe67 1.976 . S
O82 C76 1.287 . S
O83 Fe69 1.996 . S
O83 C76 1.255 . S
C84 O77 1.287 . S
C84 O78 1.255 . S
O85 Fe67 2.002 1_554 S
O85 C81 1.295 . S
O86 Fe69 1.997 1_554 S
O86 C81 1.235 . S
C87 O70 1.295 . S
C87 O71 1.235 . S
Fe88 O90 1.918 . S
Fe88 O93 1.997 . S
Fe88 O94 2.002 . S
Fe88 O99 1.976 . S
Fe88 O102 1.996 . S
Fe89 O90 1.918 . S
Fe89 O97 1.997 . S
Fe89 O100 1.996 . S
Fe89 O104 1.976 . S
Fe89 O107 2.002 . S
O90 Fe88 1.918 . S
O90 Fe89 1.918 . S
O90 Fe91 1.918 . S
Fe91 O90 1.918 . S
Fe91 O92 2.002 . S
Fe91 O101 1.976 . S
Fe91 O105 1.996 . S
Fe91 O108 1.997 . S
O92 Fe91 2.002 . S
O92 C109 1.295 . S
O93 Fe88 1.997 . S
O93 C109 1.235 . S
O94 Fe88 2.002 . S
O94 C95 1.295 . S
C95 O94 1.295 . S
C95 O97 1.235 . S
C96 O101 1.287 . S
C96 O102 1.255 . S
O97 Fe89 1.997 . S
O97 C95 1.235 . S
C98 O104 1.287 . S
C98 O105 1.255 . S
O99 Fe88 1.976 . S
O99 C106 1.287 . S
O100 Fe89 1.996 . S
O100 C106 1.255 . S
O101 Fe91 1.976 . S
O101 C96 1.287 . S
O102 Fe88 1.996 . S
O102 C96 1.255 . S
C103 O107 1.295 . S
C103 O108 1.235 . S
O104 Fe89 1.976 . S
O104 C98 1.287 . S
O105 Fe91 1.996 . S
O105 C98 1.255 . S
C106 O99 1.287 . S
C106 O100 1.255 . S
O107 Fe89 2.002 . S
O107 C103 1.295 . S
O108 Fe91 1.997 . S
O108 C103 1.235 . S
C109 O92 1.295 . S
C109 O93 1.235 . S
Fe110 O112 1.918 . S
Fe110 O115 1.997 . S
Fe110 O116 2.002 . S
Fe110 O121 1.976 . S
Fe110 O124 1.996 . S
Fe111 O112 1.918 . S
Fe111 O119 1.997 . S
Fe111 O122 1.996 . S
Fe111 O126 1.976 . S
Fe111 O129 2.002 . S
O112 Fe110 1.918 . S
O112 Fe111 1.918 . S
O112 Fe113 1.918 . S
Fe113 O112 1.918 . S
Fe113 O114 2.002 . S
Fe113 O123 1.976 . S
Fe113 O127 1.996 . S
Fe113 O130 1.997 . S
O114 Fe113 2.002 . S
O114 C131 1.295 . S
O115 Fe110 1.997 . S
O115 C131 1.235 . S
O116 Fe110 2.002 . S
O116 C117 1.295 . S
C117 O116 1.295 . S
C117 O119 1.235 . S
C118 O123 1.287 . S
C118 O124 1.255 . S
O119 Fe111 1.997 . S
O119 C117 1.235 . S
C120 O126 1.287 . S
C120 O127 1.255 . S
O121 Fe110 1.976 . S
O121 C128 1.287 . S
O122 Fe111 1.996 . S
O122 C128 1.255 . S
O123 Fe113 1.976 . S
O123 C118 1.287 . S
O124 Fe110 1.996 . S
O124 C118 1.255 . S
C125 O129 1.295 . S
C125 O130 1.235 . S
O126 Fe111 1.976 . S
O126 C120 1.287 . S
O127 Fe113 1.996 . S
O127 C120 1.255 . S
C128 O121 1.287 . S
C128 O122 1.255 . S
O129 Fe111 2.002 . S
O129 C125 1.295 . S
O130 Fe113 1.997 . S
O130 C125 1.235 . S
C131 O114 1.295 . S
C131 O115 1.235 . S
Fe132 O134 1.918 . S
Fe132 O137 1.997 . S
Fe132 O138 2.002 . S
Fe132 O143 1.976 . S
Fe132 O146 1.996 . S
Fe133 O134 1.918 . S
Fe133 O141 1.997 . S
Fe133 O144 1.996 . S
Fe133 O148 1.976 . S
Fe133 O151 2.002 . S
O134 Fe132 1.918 . S
O134 Fe133 1.918 . S
O134 Fe135 1.918 . S
Fe135 O134 1.918 . S
Fe135 O136 2.002 . S
Fe135 O145 1.976 . S
Fe135 O149 1.996 . S
Fe135 O152 1.997 . S
O136 Fe135 2.002 . S
O136 C153 1.295 . S
O137 Fe132 1.997 . S
O137 C153 1.235 . S
O138 Fe132 2.002 . S
O138 C139 1.295 . S
C139 O138 1.295 . S
C139 O141 1.235 . S
C140 O145 1.287 . S
C140 O146 1.255 . S
O141 Fe133 1.997 . S
O141 C139 1.235 . S
C142 O148 1.287 . S
C142 O149 1.255 . S
O143 Fe132 1.976 . S
O143 C150 1.287 . S
O144 Fe133 1.996 . S
O144 C150 1.255 . S
O145 Fe135 1.976 . S
O145 C140 1.287 . S
O146 Fe132 1.996 . S
O146 C140 1.255 . S
C147 O151 1.295 . S
C147 O152 1.235 . S
O148 Fe133 1.976 . S
O148 C142 1.287 . S
O149 Fe135 1.996 . S
O149 C142 1.255 . S
C150 O143 1.287 . S
C150 O144 1.255 . S
O151 Fe133 2.002 . S
O151 C147 1.295 . S
O152 Fe135 1.997 . S
O152 C147 1.235 . S
C153 O136 1.295 . S
C153 O137 1.235 . S
Fe154 O156 1.918 . S
Fe154 O159 1.997 . S
Fe154 O160 2.002 . S
Fe154 O165 1.976 . S
Fe154 O168 1.996 . S
Fe155 O156 1.918 . S
Fe155 O163 1.997 . S
Fe155 O166 1.996 . S
Fe155 O170 1.976 . S
Fe155 O173 2.002 . S
O156 Fe154 1.918 . S
O156 Fe155 1.918 . S
O156 Fe157 1.918 . S
Fe157 O156 1.918 . S
Fe157 O158 2.002 . S
Fe157 O167 1.976 . S
Fe157 O171 1.996 . S
Fe157 O174 1.997 . S
O158 Fe157 2.002 . S
O158 C175 1.295 . S
O159 Fe154 1.997 . S
O159 C175 1.235 . S
O160 Fe154 2.002 . S
O160 C161 1.295 . S
C161 O160 1.295 . S
C161 O163 1.235 . S
C162 O167 1.287 . S
C162 O168 1.255 . S
O163 Fe155 1.997 . S
O163 C161 1.235 . S
C164 O170 1.287 . S
C164 O171 1.255 . S
O165 Fe154 1.976 . S
O165 C172 1.287 . S
O166 Fe155 1.996 . S
O166 C172 1.255 . S
O167 Fe157 1.976 . S
O167 C162 1.287 . S
O168 Fe154 1.996 . S
O168 C162 1.255 . S
C169 O173 1.295 . S
C169 O174 1.235 . S
O170 Fe155 1.976 . S
O170 C164 1.287 . S
O171 Fe157 1.996 . S
O171 C164 1.255 . S
C172 O165 1.287 . S
C172 O166 1.255 . S
O173 Fe155 2.002 . S
O173 C169 1.295 . S
O174 Fe157 1.997 . S
O174 C169 1.235 . S
C175 O158 1.295 . S
C175 O159 1.235 . S
H176 C182 0.930 . S
H177 C186 0.930 . S
H178 C191 0.929 . S
H179 C189 0.929 . S
H180 C184 0.929 . S
H181 C190 0.929 . S
C182 H176 0.930 . S
C182 C183 1.367 . S
C182 C190 1.378 . S
C183 C182 1.367 . S
C183 C191 1.433 . S
C184 H180 0.929 . S
C184 C186 1.378 . S
C184 C188 1.350 . S
C185 C188 1.463 . S
C185 C190 1.350 . S
C185 N193 1.427 . S
C186 H177 0.930 . S
C186 C184 1.378 . S
C186 C187 1.367 . S
C187 C186 1.367 . S
C187 C189 1.433 . S
C188 C184 1.350 . S
C188 C185 1.463 . S
C188 N192 1.427 . S
C189 H179 0.929 . S
C189 C187 1.433 . S
C189 N192 1.384 . S
C190 H181 0.929 . S
C190 C182 1.378 . S
C190 C185 1.350 . S
C191 H178 0.929 . S
C191 C183 1.433 . S
C191 N193 1.384 . S
N192 C188 1.427 . S
N192 C189 1.384 . S
N193 C185 1.427 . S
N193 C191 1.384 . S
H194 C200 0.930 . S
H195 C204 0.930 . S
H196 C209 0.929 . S
H197 C207 0.929 . S
H198 C202 0.929 . S
H199 C208 0.929 . S
C200 H194 0.930 . S
C200 C201 1.367 . S
C200 C208 1.378 . S
C201 C200 1.367 . S
C201 C209 1.433 . S
C202 H198 0.929 . S
C202 C204 1.378 . S
C202 C206 1.350 . S
C203 C206 1.463 . S
C203 C208 1.350 . S
C203 N211 1.427 . S
C204 H195 0.930 . S
C204 C202 1.378 . S
C204 C205 1.367 . S
C205 C204 1.367 . S
C205 C207 1.433 . S
C206 C202 1.350 . S
C206 C203 1.463 . S
C206 N210 1.427 . S
C207 H197 0.929 . S
C207 C205 1.433 . S
C207 N210 1.384 . S
C208 H199 0.929 . S
C208 C200 1.378 . S
C208 C203 1.350 . S
C209 H196 0.929 . S
C209 C201 1.433 . S
C209 N211 1.384 . S
N210 C206 1.427 . S
N210 C207 1.384 . S
N211 C203 1.427 . S
N211 C209 1.384 . S
H212 C218 0.930 . S
H213 C222 0.930 . S
H214 C227 0.929 . S
H215 C225 0.929 . S
H216 C220 0.929 . S
H217 C226 0.929 . S
C218 H212 0.930 . S
C218 C219 1.367 . S
C218 C226 1.378 . S
C219 C218 1.367 . S
C219 C227 1.433 . S
C220 H216 0.929 . S
C220 C222 1.378 . S
C220 C224 1.350 . S
C221 C224 1.463 . S
C221 C226 1.350 . S
C221 N229 1.427 . S
C222 H213 0.930 . S
C222 C220 1.378 . S
C222 C223 1.367 . S
C223 C222 1.367 . S
C223 C225 1.433 . S
C224 C220 1.350 . S
C224 C221 1.463 . S
C224 N228 1.427 . S
C225 H215 0.929 . S
C225 C223 1.433 . S
C225 N228 1.384 . S
C226 H217 0.929 . S
C226 C218 1.378 . S
C226 C221 1.350 . S
C227 H214 0.929 . S
C227 C219 1.433 . S
C227 N229 1.384 . S
N228 C224 1.427 . S
N228 C225 1.384 . S
N229 C221 1.427 . S
N229 C227 1.384 . S
H230 C236 0.930 . S
H231 C240 0.930 . S
H232 C245 0.929 . S
H233 C243 0.929 . S
H234 C238 0.929 . S
H235 C244 0.929 . S
C236 H230 0.930 . S
C236 C237 1.367 . S
C236 C244 1.378 . S
C237 C236 1.367 . S
C237 C245 1.433 . S
C238 H234 0.929 . S
C238 C240 1.378 . S
C238 C242 1.350 . S
C239 C242 1.463 . S
C239 C244 1.350 . S
C239 N247 1.427 . S
C240 H231 0.930 . S
C240 C238 1.378 . S
C240 C241 1.367 . S
C241 C240 1.367 . S
C241 C243 1.433 . S
C242 C238 1.350 . S
C242 C239 1.463 . S
C242 N246 1.427 . S
C243 H233 0.929 . S
C243 C241 1.433 . S
C243 N246 1.384 . S
C244 H235 0.929 . S
C244 C236 1.378 . S
C244 C239 1.350 . S
C245 H232 0.929 . S
C245 C237 1.433 . S
C245 N247 1.384 . S
N246 C242 1.427 . S
N246 C243 1.384 . S
N247 C239 1.427 . S
N247 C245 1.384 . S
H248 C254 0.930 . S
H249 C258 0.930 . S
H250 C263 0.929 . S
H251 C261 0.929 . S
H252 C256 0.929 . S
H253 C262 0.929 . S
C254 H248 0.930 . S
C254 C255 1.367 . S
C254 C262 1.378 . S
C255 C254 1.367 . S
C255 C263 1.433 . S
C256 H252 0.929 . S
C256 C258 1.378 . S
C256 C260 1.350 . S
C257 C260 1.463 . S
C257 C262 1.350 . S
C257 N265 1.427 . S
C258 H249 0.930 . S
C258 C256 1.378 . S
C258 C259 1.367 . S
C259 C258 1.367 . S
C259 C261 1.433 . S
C260 C256 1.350 . S
C260 C257 1.463 . S
C260 N264 1.427 . S
C261 H251 0.929 . S
C261 C259 1.433 . S
C261 N264 1.384 . S
C262 H253 0.929 . S
C262 C254 1.378 . S
C262 C257 1.350 . S
C263 H250 0.929 . S
C263 C255 1.433 . S
C263 N265 1.384 . S
N264 C260 1.427 . S
N264 C261 1.384 . S
N265 C257 1.427 . S
N265 C263 1.384 . S
H266 C272 0.930 . S
H267 C276 0.930 . S
H268 C281 0.929 . S
H269 C279 0.929 . S
H270 C274 0.929 . S
H271 C280 0.929 . S
C272 H266 0.930 . S
C272 C273 1.367 . S
C272 C280 1.378 . S
C273 C272 1.367 . S
C273 C281 1.433 . S
C274 H270 0.929 . S
C274 C276 1.378 . S
C274 C278 1.350 . S
C275 C278 1.463 . S
C275 C280 1.350 . S
C275 N283 1.427 . S
C276 H267 0.930 . S
C276 C274 1.378 . S
C276 C277 1.367 . S
C277 C276 1.367 . S
C277 C279 1.433 . S
C278 C274 1.350 . S
C278 C275 1.463 . S
C278 N282 1.427 . S
C279 H269 0.929 . S
C279 C277 1.433 . S
C279 N282 1.384 . S
C280 H271 0.929 . S
C280 C272 1.378 . S
C280 C275 1.350 . S
C281 H268 0.929 . S
C281 C273 1.433 . S
C281 N283 1.384 . S
N282 C278 1.427 . S
N282 C279 1.384 . S
N283 C275 1.427 . S
N283 C281 1.384 . S
H284 C290 0.930 . S
H285 C294 0.930 . S
H286 C299 0.929 . S
H287 C297 0.929 . S
H288 C292 0.929 . S
H289 C298 0.929 . S
C290 H284 0.930 . S
C290 C291 1.367 . S
C290 C298 1.378 . S
C291 C290 1.367 . S
C291 C299 1.433 . S
C292 H288 0.929 . S
C292 C294 1.378 . S
C292 C296 1.350 . S
C293 C296 1.463 . S
C293 C298 1.350 . S
C293 N301 1.427 . S
C294 H285 0.930 . S
C294 C292 1.378 . S
C294 C295 1.367 . S
C295 C294 1.367 . S
C295 C297 1.433 . S
C296 C292 1.350 . S
C296 C293 1.463 . S
C296 N300 1.427 . S
C297 H287 0.929 . S
C297 C295 1.433 . S
C297 N300 1.384 . S
C298 H289 0.929 . S
C298 C290 1.378 . S
C298 C293 1.350 . S
C299 H286 0.929 . S
C299 C291 1.433 . S
C299 N301 1.384 . S
N300 C296 1.427 . S
N300 C297 1.384 . S
N301 C293 1.427 . S
N301 C299 1.384 . S
H302 C308 0.930 . S
H303 C312 0.930 . S
H304 C317 0.929 . S
H305 C315 0.929 . S
H306 C310 0.929 . S
H307 C316 0.929 . S
C308 H302 0.930 . S
C308 C309 1.367 . S
C308 C316 1.378 . S
C309 C308 1.367 . S
C309 C317 1.433 . S
C310 H306 0.929 . S
C310 C312 1.378 . S
C310 C314 1.350 . S
C311 C314 1.463 . S
C311 C316 1.350 . S
C311 N319 1.427 . S
C312 H303 0.930 . S
C312 C310 1.378 . S
C312 C313 1.367 . S
C313 C312 1.367 . S
C313 C315 1.433 . S
C314 C310 1.350 . S
C314 C311 1.463 . S
C314 N318 1.427 . S
C315 H305 0.929 . S
C315 C313 1.433 . S
C315 N318 1.384 . S
C316 H307 0.929 . S
C316 C308 1.378 . S
C316 C311 1.350 . S
C317 H304 0.929 . S
C317 C309 1.433 . S
C317 N319 1.384 . S
N318 C314 1.427 . S
N318 C315 1.384 . S
N319 C311 1.427 . S
N319 C317 1.384 . S
H320 C326 0.930 . S
H321 C330 0.930 . S
H322 C335 0.929 . S
H323 C333 0.929 . S
H324 C328 0.929 . S
H325 C334 0.929 . S
C326 H320 0.930 . S
C326 C327 1.367 . S
C326 C334 1.378 . S
C327 C326 1.367 . S
C327 C335 1.433 . S
C328 H324 0.929 . S
C328 C330 1.378 . S
C328 C332 1.350 . S
C329 C332 1.463 1_655 S
C329 C334 1.350 . S
C329 N337 1.427 . S
C330 H321 0.930 . S
C330 C328 1.378 . S
C330 C331 1.367 . S
C331 C330 1.367 . S
C331 C333 1.433 . S
C332 C328 1.350 . S
C332 C329 1.463 1_455 S
C332 N336 1.427 . S
C333 H323 0.929 . S
C333 C331 1.433 . S
C333 N336 1.384 . S
C334 H325 0.929 . S
C334 C326 1.378 . S
C334 C329 1.350 . S
C335 H322 0.929 . S
C335 C327 1.433 . S
C335 N337 1.384 . S
N336 C332 1.427 . S
N336 C333 1.384 . S
N337 C329 1.427 . S
N337 C335 1.384 . S
H338 C344 0.930 . S
H339 C348 0.930 . S
H340 C353 0.929 . S
H341 C351 0.929 . S
H342 C346 0.929 . S
H343 C352 0.929 . S
C344 H338 0.930 . S
C344 C345 1.367 . S
C344 C352 1.378 . S
C345 C344 1.367 . S
C345 C353 1.433 . S
C346 H342 0.929 . S
C346 C348 1.378 . S
C346 C350 1.350 . S
C347 C350 1.463 1_545 S
C347 C352 1.350 . S
C347 N355 1.427 . S
C348 H339 0.930 . S
C348 C346 1.378 . S
C348 C349 1.367 . S
C349 C348 1.367 . S
C349 C351 1.433 . S
C350 C346 1.350 . S
C350 C347 1.463 1_565 S
C350 N354 1.427 . S
C351 H341 0.929 . S
C351 C349 1.433 . S
C351 N354 1.384 . S
C352 H343 0.929 . S
C352 C344 1.378 . S
C352 C347 1.350 . S
C353 H340 0.929 . S
C353 C345 1.433 . S
C353 N355 1.384 . S
N354 C350 1.427 . S
N354 C351 1.384 . S
N355 C347 1.427 . S
N355 C353 1.384 . S
H356 C362 0.930 . S
H357 C366 0.930 . S
H358 C371 0.929 . S
H359 C369 0.929 . S
H360 C364 0.929 . S
H361 C370 0.929 . S
C362 H356 0.930 . S
C362 C363 1.367 . S
C362 C370 1.378 . S
C363 C362 1.367 . S
C363 C371 1.433 . S
C364 H360 0.929 . S
C364 C366 1.378 . S
C364 C368 1.350 . S
C365 C368 1.463 1_655 S
C365 C370 1.350 . S
C365 N373 1.427 . S
C366 H357 0.930 . S
C366 C364 1.378 . S
C366 C367 1.367 . S
C367 C366 1.367 . S
C367 C369 1.433 . S
C368 C364 1.350 . S
C368 C365 1.463 1_455 S
C368 N372 1.427 . S
C369 H359 0.929 . S
C369 C367 1.433 . S
C369 N372 1.384 . S
C370 H361 0.929 . S
C370 C362 1.378 . S
C370 C365 1.350 . S
C371 H358 0.929 . S
C371 C363 1.433 . S
C371 N373 1.384 . S
N372 C368 1.427 . S
N372 C369 1.384 . S
N373 C365 1.427 . S
N373 C371 1.384 . S
H374 C380 0.930 . S
H375 C384 0.930 . S
H376 C389 0.929 . S
H377 C387 0.929 . S
H378 C382 0.929 1_545 S
H379 C388 0.929 1_565 S
C380 H374 0.930 . S
C380 C381 1.367 . S
C380 C388 1.378 . S
C381 C380 1.367 . S
C381 C389 1.433 . S
C382 H378 0.929 1_565 S
C382 C384 1.378 . S
C382 C386 1.350 . S
C383 C386 1.463 1_545 S
C383 C388 1.350 . S
C383 N391 1.427 . S
C384 H375 0.930 . S
C384 C382 1.378 . S
C384 C385 1.367 . S
C385 C384 1.367 . S
C385 C387 1.433 . S
C386 C382 1.350 . S
C386 C383 1.463 1_565 S
C386 N390 1.427 . S
C387 H377 0.929 . S
C387 C385 1.433 . S
C387 N390 1.384 . S
C388 H379 0.929 1_545 S
C388 C380 1.378 . S
C388 C383 1.350 . S
C389 H376 0.929 . S
C389 C381 1.433 . S
C389 N391 1.384 . S
N390 C386 1.427 . S
N390 C387 1.384 . S
N391 C383 1.427 . S
N391 C389 1.384 . S
H392 C398 0.930 . S
H393 C402 0.930 . S
H394 C407 0.929 . S
H395 C405 0.929 . S
H396 C400 0.929 . S
H397 C406 0.929 . S
C398 H392 0.930 . S
C398 C399 1.367 . S
C398 C406 1.378 . S
C399 C398 1.367 . S
C399 C407 1.433 . S
C400 H396 0.929 . S
C400 C402 1.378 . S
C400 C404 1.350 . S
C401 C404 1.463 1_455 S
C401 C406 1.350 . S
C401 N409 1.427 . S
C402 H393 0.930 . S
C402 C400 1.378 . S
C402 C403 1.367 . S
C403 C402 1.367 . S
C403 C405 1.433 . S
C404 C400 1.350 . S
C404 C401 1.463 1_655 S
C404 N408 1.427 . S
C405 H395 0.929 . S
C405 C403 1.433 . S
C405 N408 1.384 . S
C406 H397 0.929 . S
C406 C398 1.378 . S
C406 C401 1.350 . S
C407 H394 0.929 . S
C407 C399 1.433 . S
C407 N409 1.384 . S
N408 C404 1.427 . S
N408 C405 1.384 . S
N409 C401 1.427 . S
N409 C407 1.384 . S
H410 C416 0.930 . S
H411 C420 0.930 . S
H412 C425 0.929 . S
H413 C423 0.929 . S
H414 C418 0.944 . S
H415 C424 0.944 . S
C416 H410 0.930 . S
C416 C417 1.367 . S
C416 C424 1.378 . S
C417 C416 1.367 . S
C417 C425 1.433 . S
C418 H414 0.944 . S
C418 C420 1.378 . S
C418 C422 1.350 . S
C419 C422 1.463 1_565 S
C419 C424 1.350 . S
C419 N427 1.427 . S
C420 H411 0.930 . S
C420 C418 1.378 . S
C420 C421 1.367 . S
C421 C420 1.367 . S
C421 C423 1.433 . S
C422 C418 1.350 . S
C422 C419 1.463 1_545 S
C422 N426 1.427 . S
C423 H413 0.929 . S
C423 C421 1.433 . S
C423 N426 1.384 . S
C424 H415 0.944 . S
C424 C416 1.378 . S
C424 C419 1.350 . S
C425 H412 0.929 . S
C425 C417 1.433 . S
C425 N427 1.384 . S
N426 C422 1.427 . S
N426 C423 1.384 . S
N427 C419 1.427 . S
N427 C425 1.384 . S
H428 C434 0.930 . S
H429 C438 0.930 . S
H430 C443 0.929 . S
H431 C441 0.929 . S
H432 C436 0.929 1_655 S
H433 C442 0.929 1_455 S
C434 H428 0.930 . S
C434 C435 1.367 . S
C434 C442 1.378 . S
C435 C434 1.367 . S
C435 C443 1.433 . S
C436 H432 0.929 1_455 S
C436 C438 1.378 . S
C436 C440 1.350 . S
C437 C440 1.463 1_655 S
C437 C442 1.350 . S
C437 N445 1.427 . S
C438 H429 0.930 . S
C438 C436 1.378 . S
C438 C439 1.367 . S
C439 C438 1.367 . S
C439 C441 1.433 . S
C440 C436 1.350 . S
C440 C437 1.463 1_455 S
C440 N444 1.427 . S
C441 H431 0.929 . S
C441 C439 1.433 . S
C441 N444 1.384 . S
C442 H433 0.929 1_655 S
C442 C434 1.378 . S
C442 C437 1.350 . S
C443 H430 0.929 . S
C443 C435 1.433 . S
C443 N445 1.384 . S
N444 C440 1.427 . S
N444 C441 1.384 . S
N445 C437 1.427 . S
N445 C443 1.384 . S
H446 C452 0.930 . S
H447 C456 0.930 . S
H448 C461 0.929 . S
H449 C459 0.929 . S
H450 C454 0.929 . S
H451 C460 0.929 . S
C452 H446 0.930 . S
C452 C453 1.367 . S
C452 C460 1.378 . S
C453 C452 1.367 . S
C453 C461 1.433 . S
C454 H450 0.929 . S
C454 C456 1.378 . S
C454 C458 1.350 . S
C455 C458 1.463 1_565 S
C455 C460 1.350 . S
C455 N463 1.427 . S
C456 H447 0.930 . S
C456 C454 1.378 . S
C456 C457 1.367 . S
C457 C456 1.367 . S
C457 C459 1.433 . S
C458 C454 1.350 . S
C458 C455 1.463 1_545 S
C458 N462 1.427 . S
C459 H449 0.929 . S
C459 C457 1.433 . S
C459 N462 1.384 . S
C460 H451 0.929 . S
C460 C452 1.378 . S
C460 C455 1.350 . S
C461 H448 0.929 . S
C461 C453 1.433 . S
C461 N463 1.384 . S
N462 C458 1.427 . S
N462 C459 1.384 . S
N463 C455 1.427 . S
N463 C461 1.384 . S
H464 C470 0.930 . S
H465 C474 0.930 . S
H466 C479 0.929 . S
H467 C477 0.929 . S
H468 C472 0.929 . S
H469 C478 0.929 . S
C470 H464 0.930 . S
C470 C471 1.367 . S
C470 C478 1.378 . S
C471 C470 1.367 . S
C471 C479 1.433 . S
C472 H468 0.929 . S
C472 C474 1.378 . S
C472 C476 1.350 . S
C473 C476 1.463 . S
C473 C478 1.350 . S
C473 N481 1.427 . S
C474 H465 0.930 . S
C474 C472 1.378 . S
C474 C475 1.367 . S
C475 C474 1.367 . S
C475 C477 1.433 . S
C476 C472 1.350 . S
C476 C473 1.463 . S
C476 N480 1.427 . S
C477 H467 0.929 . S
C477 C475 1.433 . S
C477 N480 1.384 . S
C478 H469 0.929 . S
C478 C470 1.378 . S
C478 C473 1.350 . S
C479 H466 0.929 . S
C479 C471 1.433 . S
C479 N481 1.384 . S
N480 C476 1.427 . S
N480 C477 1.384 . S
N481 C473 1.427 . S
N481 C479 1.384 . S
H482 C488 0.930 . S
H483 C492 0.930 . S
H484 C497 0.929 . S
H485 C495 0.929 . S
H486 C490 0.929 . S
H487 C496 0.929 . S
C488 H482 0.930 . S
C488 C489 1.367 . S
C488 C496 1.378 . S
C489 C488 1.367 . S
C489 C497 1.433 . S
C490 H486 0.929 . S
C490 C492 1.378 . S
C490 C494 1.350 . S
C491 C494 1.463 . S
C491 C496 1.350 . S
C491 N499 1.427 . S
C492 H483 0.930 . S
C492 C490 1.378 . S
C492 C493 1.367 . S
C493 C492 1.367 . S
C493 C495 1.433 . S
C494 C490 1.350 . S
C494 C491 1.463 . S
C494 N498 1.427 . S
C495 H485 0.929 . S
C495 C493 1.433 . S
C495 N498 1.384 . S
C496 H487 0.929 . S
C496 C488 1.378 . S
C496 C491 1.350 . S
C497 H484 0.929 . S
C497 C489 1.433 . S
C497 N499 1.384 . S
N498 C494 1.427 . S
N498 C495 1.384 . S
N499 C491 1.427 . S
N499 C497 1.384 . S
H500 C506 0.930 . S
H501 C510 0.930 . S
H502 C515 0.929 . S
H503 C513 0.929 . S
H504 C508 0.929 . S
H505 C514 0.929 . S
C506 H500 0.930 . S
C506 C507 1.367 . S
C506 C514 1.378 . S
C507 C506 1.367 . S
C507 C515 1.433 . S
C508 H504 0.929 . S
C508 C510 1.378 . S
C508 C512 1.350 . S
C509 C512 1.463 . S
C509 C514 1.350 . S
C509 N517 1.427 . S
C510 H501 0.930 . S
C510 C508 1.378 . S
C510 C511 1.367 . S
C511 C510 1.367 . S
C511 C513 1.433 . S
C512 C508 1.350 . S
C512 C509 1.463 . S
C512 N516 1.427 . S
C513 H503 0.929 . S
C513 C511 1.433 . S
C513 N516 1.384 . S
C514 H505 0.929 . S
C514 C506 1.378 . S
C514 C509 1.350 . S
C515 H502 0.929 . S
C515 C507 1.433 . S
C515 N517 1.384 . S
N516 C512 1.427 . S
N516 C513 1.384 . S
N517 C509 1.427 . S
N517 C515 1.384 . S
H518 C524 0.930 . S
H519 C528 0.930 . S
H520 C533 0.929 . S
H521 C531 0.929 . S
H522 C526 0.929 . S
H523 C532 0.929 . S
C524 H518 0.930 . S
C524 C525 1.367 . S
C524 C532 1.378 . S
C525 C524 1.367 . S
C525 C533 1.433 . S
C526 H522 0.929 . S
C526 C528 1.378 . S
C526 C530 1.350 . S
C527 C530 1.463 . S
C527 C532 1.350 . S
C527 N535 1.427 . S
C528 H519 0.930 . S
C528 C526 1.378 . S
C528 C529 1.367 . S
C529 C528 1.367 . S
C529 C531 1.433 . S
C530 C526 1.350 . S
C530 C527 1.463 . S
C530 N534 1.427 . S
C531 H521 0.929 . S
C531 C529 1.433 . S
C531 N534 1.384 . S
C532 H523 0.929 . S
C532 C524 1.378 . S
C532 C527 1.350 . S
C533 H520 0.929 . S
C533 C525 1.433 . S
C533 N535 1.384 . S
N534 C530 1.427 . S
N534 C531 1.384 . S
N535 C527 1.427 . S
N535 C533 1.384 . S
H536 C542 0.930 . S
H537 C546 0.930 . S
H538 C551 0.929 . S
H539 C549 0.929 . S
H540 C544 0.929 . S
H541 C550 0.929 . S
C542 H536 0.930 . S
C542 C543 1.367 . S
C542 C550 1.378 . S
C543 C542 1.367 . S
C543 C551 1.433 . S
C544 H540 0.929 . S
C544 C546 1.378 . S
C544 C548 1.350 . S
C545 C548 1.463 . S
C545 C550 1.350 . S
C545 N553 1.427 . S
C546 H537 0.930 . S
C546 C544 1.378 . S
C546 C547 1.367 . S
C547 C546 1.367 . S
C547 C549 1.433 . S
C548 C544 1.350 . S
C548 C545 1.463 . S
C548 N552 1.427 . S
C549 H539 0.929 . S
C549 C547 1.433 . S
C549 N552 1.384 . S
C550 H541 0.929 . S
C550 C542 1.378 . S
C550 C545 1.350 . S
C551 H538 0.929 . S
C551 C543 1.433 . S
C551 N553 1.384 . S
N552 C548 1.427 . S
N552 C549 1.384 . S
N553 C545 1.427 . S
N553 C551 1.384 . S
H554 C560 0.930 . S
H555 C564 0.930 . S
H556 C569 0.929 . S
H557 C567 0.929 . S
H558 C562 0.929 . S
H559 C568 0.929 . S
C560 H554 0.930 . S
C560 C561 1.367 . S
C560 C568 1.378 . S
C561 C560 1.367 . S
C561 C569 1.433 . S
C562 H558 0.929 . S
C562 C564 1.378 . S
C562 C566 1.350 . S
C563 C566 1.463 . S
C563 C568 1.350 . S
C563 N571 1.427 . S
C564 H555 0.930 . S
C564 C562 1.378 . S
C564 C565 1.367 . S
C565 C564 1.367 . S
C565 C567 1.433 . S
C566 C562 1.350 . S
C566 C563 1.463 . S
C566 N570 1.427 . S
C567 H557 0.929 . S
C567 C565 1.433 . S
C567 N570 1.384 . S
C568 H559 0.929 . S
C568 C560 1.378 . S
C568 C563 1.350 . S
C569 H556 0.929 . S
C569 C561 1.433 . S
C569 N571 1.384 . S
N570 C566 1.427 . S
N570 C567 1.384 . S
N571 C563 1.427 . S
N571 C569 1.384 . S
H572 C578 0.930 . S
H573 C582 0.930 . S
H574 C587 0.929 . S
H575 C585 0.929 . S
H576 C580 0.929 . S
H577 C586 0.929 . S
C578 H572 0.930 . S
C578 C579 1.367 . S
C578 C586 1.378 . S
C579 C578 1.367 . S
C579 C587 1.433 . S
C580 H576 0.929 . S
C580 C582 1.378 . S
C580 C584 1.350 . S
C581 C584 1.463 . S
C581 C586 1.350 . S
C581 N589 1.427 . S
C582 H573 0.930 . S
C582 C580 1.378 . S
C582 C583 1.367 . S
C583 C582 1.367 . S
C583 C585 1.433 . S
C584 C580 1.350 . S
C584 C581 1.463 . S
C584 N588 1.427 . S
C585 H575 0.929 . S
C585 C583 1.433 . S
C585 N588 1.384 . S
C586 H577 0.929 . S
C586 C578 1.378 . S
C586 C581 1.350 . S
C587 H574 0.929 . S
C587 C579 1.433 . S
C587 N589 1.384 . S
N588 C584 1.427 . S
N588 C585 1.384 . S
N589 C581 1.427 . S
N589 C587 1.384 . S
H590 C596 0.930 . S
H591 C600 0.930 . S
H592 C605 0.929 . S
H593 C603 0.929 . S
H594 C598 0.929 . S
H595 C604 0.929 . S
C596 H590 0.930 . S
C596 C597 1.367 . S
C596 C604 1.378 . S
C597 C596 1.367 . S
C597 C605 1.433 . S
C598 H594 0.929 . S
C598 C600 1.378 . S
C598 C602 1.350 . S
C599 C602 1.463 . S
C599 C604 1.350 . S
C599 N607 1.427 . S
C600 H591 0.930 . S
C600 C598 1.378 . S
C600 C601 1.367 . S
C601 C600 1.367 . S
C601 C603 1.433 . S
C602 C598 1.350 . S
C602 C599 1.463 . S
C602 N606 1.427 . S
C603 H593 0.929 . S
C603 C601 1.433 . S
C603 N606 1.384 . S
C604 H595 0.929 . S
C604 C596 1.378 . S
C604 C599 1.350 . S
C605 H592 0.929 . S
C605 C597 1.433 . S
C605 N607 1.384 . S
N606 C602 1.427 . S
N606 C603 1.384 . S
N607 C599 1.427 . S
N607 C605 1.384 . S
C183 C140 1.391 . S
C187 C8 1.396 . S
C201 C43 1.441 . S
C205 C164 1.443 . S
C219 C96 1.446 . S
C223 C59 1.434 . S
C237 C73 1.485 . S
C241 C125 1.488 . S
C255 C109 1.433 . S
C259 C54 1.435 . S
C273 C84 1.384 . S
C277 C120 1.386 . S
C291 C153 1.483 . S
C295 C21 1.478 . S
C309 C30 1.438 . S
C313 C169 1.426 . S
C327 C40 1.392 . S
C331 C118 1.396 . S
C345 C147 1.441 . S
C349 C52 1.443 . S
C363 C161 1.437 . S
C367 C76 1.447 . S
C381 C15 1.485 . S
C385 C103 1.488 . S
C399 C81 1.432 . S
C403 C172 1.432 . S
C417 C98 1.386 . S
C421 C10 1.380 . S
C435 C29 1.477 . S
C439 C131 1.475 . S
C453 C65 1.429 . S
C457 C142 1.437 . S
C471 C162 1.132 . S
C475 C18 1.133 . S
C489 C37 1.182 . S
C493 C106 1.183 . S
C507 C51 1.231 . S
C511 C117 1.232 . S
C525 C150 1.183 . S
C529 C87 1.182 . S
C543 C128 1.133 . S
C547 C62 1.132 . S
C561 C139 1.182 . S
C565 C74 1.183 . S
C579 C175 1.232 . S
C583 C7 1.232 . S
C597 C95 1.181 . S
C601 C32 1.183 . S
