# Generated by pormake.
# Topology mdf, (4)-cn, num edge types: 1
# Building blocks:
#     Node 0, Type 0, BuildingBlock: CEKHIL_clean_sbu_0, # of connection points: 4
#     Node 1, Type 0, BuildingBlock: CEKHIL_clean_sbu_0, # of connection points: 4
#     Node 2, Type 0, BuildingBlock: CEKHIL_clean_sbu_0, # of connection points: 4
#     Node 3, Type 0, BuildingBlock: CEKHIL_clean_sbu_0, # of connection points: 4
#     Node 4, Type 0, BuildingBlock: CEKHIL_clean_sbu_0, # of connection points: 4
#     Node 5, Type 0, BuildingBlock: CEKHIL_clean_sbu_0, # of connection points: 4
#     Node 6, Type 0, BuildingBlock: CEKHIL_clean_sbu_0, # of connection points: 4
#     Node 7, Type 0, BuildingBlock: CEKHIL_clean_sbu_0, # of connection points: 4
#     Edge 8, Type (0, 0), BuildingBlock: OJICUG_clean_linker_0, # of connection points: 2
#     Edge 9, Type (0, 0), BuildingBlock: OJICUG_clean_linker_0, # of connection points: 2
#     Edge 10, Type (0, 0), BuildingBlock: OJICUG_clean_linker_0, # of connection points: 2
#     Edge 11, Type (0, 0), BuildingBlock: OJICUG_clean_linker_0, # of connection points: 2
#     Edge 12, Type (0, 0), BuildingBlock: OJICUG_clean_linker_0, # of connection points: 2
#     Edge 13, Type (0, 0), BuildingBlock: OJICUG_clean_linker_0, # of connection points: 2
#     Edge 14, Type (0, 0), BuildingBlock: OJICUG_clean_linker_0, # of connection points: 2
#     Edge 15, Type (0, 0), BuildingBlock: OJICUG_clean_linker_0, # of connection points: 2
#     Edge 16, Type (0, 0), BuildingBlock: OJICUG_clean_linker_0, # of connection points: 2
#     Edge 17, Type (0, 0), BuildingBlock: OJICUG_clean_linker_0, # of connection points: 2
#     Edge 18, Type (0, 0), BuildingBlock: OJICUG_clean_linker_0, # of connection points: 2
#     Edge 19, Type (0, 0), BuildingBlock: OJICUG_clean_linker_0, # of connection points: 2
#     Edge 20, Type (0, 0), BuildingBlock: OJICUG_clean_linker_0, # of connection points: 2
#     Edge 21, Type (0, 0), BuildingBlock: OJICUG_clean_linker_0, # of connection points: 2
#     Edge 22, Type (0, 0), BuildingBlock: OJICUG_clean_linker_0, # of connection points: 2
#     Edge 23, Type (0, 0), BuildingBlock: OJICUG_clean_linker_0, # of connection points: 2
# Relax obj value: 0.019
# Max RMSD: 0.044
# Mean RMSD: 0.044
data_MOF--net-mdf--node1-CEKHIL_clean_sbu_0--edge1-OJICUG_clean_linker_0
_symmetry_space_group_name_H-M    P1
_symmetry_Int_Tables_number       1
_symmetry_cell_setting            triclinic
loop_
_symmetry_equiv_pos_as_xyz
'x, y, z'
_cell_length_a     27.420507
_cell_length_b     27.633294
_cell_length_c     8.2762006
_cell_angle_alpha  90.003676
_cell_angle_beta   89.99761
_cell_angle_gamma 92.086747
loop_
_atom_site_label
_atom_site_type_symbol
_atom_site_fract_x
_atom_site_fract_y
_atom_site_fract_z
_atom_type_partial_charge
Co0 Co 0.26254 0.54391 0.39073 0.0
O1 O 0.21279 0.59136 0.39757 0.0
O2 O 0.24099 0.5537 0.61178 0.0
C3 C 0.31281 0.58674 0.22612 0.0
O4 O 0.31511 0.49401 0.42895 0.0
Co5 Co 0.28907 0.4953 0.06484 0.0
O6 O 0.34348 0.46825 0.1898 0.0
C7 C 0.19701 0.46764 0.23 0.0
C8 C 0.21177 0.5854 0.55282 0.0
C9 C 0.34499 0.46936 0.34377 0.0
O10 O 0.2113 0.49101 0.35694 0.0
O11 O 0.22056 0.46887 0.09634 0.0
O12 O 0.31314 0.59525 0.3806 0.0
O13 O 0.27998 0.55571 0.1761 0.0
Co14 Co 0.4694 0.75281 0.61457 0.0
O15 O 0.42172 0.80235 0.60799 0.0
O16 O 0.45949 0.77418 0.39364 0.0
C17 C 0.42643 0.70293 0.77955 0.0
O18 O 0.51944 0.70045 0.57594 0.0
Co19 Co 0.51871 0.72652 0.94001 0.0
O20 O 0.54539 0.67221 0.81496 0.0
C21 C 0.54657 0.81774 0.77429 0.0
C22 C 0.42772 0.80334 0.45271 0.0
C23 C 0.54411 0.67064 0.66101 0.0
O24 O 0.52288 0.80353 0.6477 0.0
O25 O 0.54544 0.79444 0.90808 0.0
O26 O 0.41757 0.70271 0.62524 0.0
O27 O 0.45772 0.73553 0.8293 0.0
Co28 Co 0.25703 0.96519 0.89007 0.0
O29 O 0.30676 0.91771 0.89734 0.0
O30 O 0.27842 0.95542 0.1113 0.0
C31 C 0.20684 0.92239 0.72514 0.0
O32 O 0.20446 0.01511 0.92786 0.0
Co33 Co 0.23077 0.01381 0.56399 0.0
O34 O 0.17629 0.04092 0.68852 0.0
C35 C 0.32272 0.04141 0.72981 0.0
C36 C 0.30767 0.9237 0.05259 0.0
C37 C 0.17467 0.0398 0.84248 0.0
O38 O 0.30833 0.01806 0.85664 0.0
O39 O 0.29927 0.04019 0.59597 0.0
O40 O 0.20641 0.91388 0.87962 0.0
O41 O 0.23974 0.95339 0.67531 0.0
Co42 Co 0.04997 0.75664 0.11342 0.0
O43 O 0.09759 0.70704 0.10715 0.0
O44 O 0.0599 0.73516 0.89258 0.0
C45 C 0.09299 0.80652 0.27829 0.0
O46 O 0.99999 0.80904 0.07455 0.0
Co47 Co 1.00069 0.7831 0.43879 0.0
O48 O 0.97409 0.83739 0.31352 0.0
C49 C 0.97276 0.69183 0.27341 0.0
C50 C 0.09162 0.70599 0.95186 0.0
C51 C 0.97536 0.83891 0.15955 0.0
O52 O 0.99644 0.70598 0.14671 0.0
O53 O 0.97393 0.71518 0.40712 0.0
O54 O 0.10187 0.80669 0.12398 0.0
O55 O 0.06165 0.77398 0.32808 0.0
Co56 Co 0.76204 0.04409 0.88722 0.0
O57 O 0.71211 0.09137 0.89489 0.0
O58 O 0.74063 0.05362 0.10848 0.0
C59 C 0.81209 0.08717 0.72268 0.0
O60 O 0.81481 0.99438 0.92482 0.0
Co61 Co 0.78861 0.99568 0.56115 0.0
O62 O 0.84319 0.96874 0.6856 0.0
C63 C 0.69675 0.96755 0.7267 0.0
C64 C 0.71125 0.08527 0.05011 0.0
C65 C 0.84475 0.96984 0.83955 0.0
O66 O 0.71096 0.99104 0.85347 0.0
O67 O 0.72026 0.96884 0.59295 0.0
O68 O 0.81244 0.09558 0.87722 0.0
O69 O 0.77934 0.05607 0.6725 0.0
Co70 Co 0.96953 0.25336 0.11372 0.0
O71 O 0.92193 0.30295 0.10656 0.0
O72 O 0.96 0.27485 0.8927 0.0
C73 C 0.92623 0.20346 0.27772 0.0
O74 O 0.01957 0.20096 0.07576 0.0
Co75 Co 0.01827 0.22686 0.43992 0.0
O76 O 0.0451 0.17258 0.31512 0.0
C77 C 0.04647 0.31816 0.27521 0.0
C78 C 0.92817 0.30402 0.95138 0.0
C79 C 0.04407 0.17108 0.16114 0.0
O80 O 0.023 0.30401 0.14809 0.0
O81 O 0.04509 0.29479 0.40887 0.0
O82 O 0.91761 0.20331 0.12325 0.0
O83 O 0.95749 0.23599 0.32813 0.0
Co84 Co 0.75741 0.46545 0.38791 0.0
O85 O 0.80735 0.41819 0.39515 0.0
O86 O 0.77897 0.4559 0.60901 0.0
C87 C 0.70728 0.42234 0.22367 0.0
O88 O 0.70465 0.51514 0.42589 0.0
Co89 Co 0.73064 0.51382 0.06198 0.0
O90 O 0.67611 0.54074 0.18681 0.0
C91 C 0.82258 0.54199 0.22694 0.0
C92 C 0.80831 0.42427 0.55037 0.0
C93 C 0.67465 0.53966 0.34079 0.0
O94 O 0.80845 0.51851 0.35381 0.0
O95 O 0.799 0.54068 0.09334 0.0
O96 O 0.70701 0.41393 0.37821 0.0
O97 O 0.73999 0.45345 0.17331 0.0
Co98 Co 0.55009 0.25585 0.61493 0.0
O99 O 0.59775 0.20631 0.60742 0.0
O100 O 0.5596 0.23446 0.3938 0.0
C101 C 0.59333 0.30576 0.77902 0.0
O102 O 0.49999 0.3082 0.57725 0.0
Co103 Co 0.50132 0.28218 0.94123 0.0
O104 O 0.47439 0.33645 0.8167 0.0
C105 C 0.47322 0.19091 0.7762 0.0
C106 C 0.59148 0.20531 0.45225 0.0
C107 C 0.47544 0.33802 0.66272 0.0
O108 O 0.49669 0.20512 0.64916 0.0
O109 O 0.47456 0.21423 0.90994 0.0
O110 O 0.60194 0.30595 0.62454 0.0
O111 O 0.56213 0.27317 0.8294 0.0
C112 C 0.40781 0.67549 0.06035 0.0
C113 C 0.40059 0.67007 0.89305 0.0
H114 H 0.38562 0.65311 0.29761 0.0
C115 C 0.36672 0.63482 0.83624 0.0
H116 H 0.4338 0.70239 0.10749 0.0
C117 C 0.3393 0.60653 0.94513 0.0
C118 C 0.34521 0.61322 0.11248 0.0
H119 H 0.36057 0.6298 0.70791 0.0
H120 H 0.31254 0.58039 0.89799 0.0
C121 C 0.38026 0.64734 0.16925 0.0
C122 C 0.3664 0.86794 0.42086 0.0
C123 C 0.39858 0.83549 0.34979 0.0
H124 H 0.31265 0.92137 0.38347 0.0
C125 C 0.40144 0.83331 0.1806 0.0
H126 H 0.36326 0.87055 0.55103 0.0
C127 C 0.37232 0.86243 0.08472 0.0
C128 C 0.33976 0.89453 0.15575 0.0
H129 H 0.4257 0.80867 0.12205 0.0
H130 H 0.37508 0.85945 0.95455 0.0
C131 C 0.33738 0.89719 0.32496 0.0
C132 C 0.11161 0.83395 0.55907 0.0
C133 C 0.1189 0.83932 0.39179 0.0
H134 H 0.1338 0.85628 0.79638 0.0
C135 C 0.15293 0.87445 0.33507 0.0
H136 H 0.08551 0.80715 0.60616 0.0
C137 C 0.18041 0.90264 0.44403 0.0
C138 C 0.17442 0.896 0.61137 0.0
H139 H 0.15914 0.87942 0.20675 0.0
H140 H 0.20729 0.92868 0.39698 0.0
C141 C 0.13923 0.86202 0.66804 0.0
C142 C 0.11796 0.67586 0.67998 0.0
C143 C 0.12076 0.67376 0.8492 0.0
H144 H 0.14441 0.64962 0.45417 0.0
C145 C 0.15288 0.64131 0.92054 0.0
H146 H 0.09374 0.7005 0.62122 0.0
C147 C 0.18192 0.612 0.82491 0.0
C148 C 0.17962 0.6146 0.65568 0.0
H149 H 0.15596 0.63876 0.05074 0.0
H150 H 0.20662 0.58784 0.88364 0.0
C151 C 0.14711 0.64668 0.58437 0.0
C152 C 0.87961 0.14772 0.66656 0.0
C153 C 0.84452 0.11372 0.60931 0.0
H154 H 0.93332 0.20268 0.60563 0.0
C155 C 0.83867 0.10719 0.44187 0.0
H156 H 0.88492 0.15338 0.795 0.0
C157 C 0.86623 0.13549 0.33338 0.0
C158 C 0.90018 0.1706 0.3907 0.0
H159 H 0.81188 0.08114 0.39439 0.0
H160 H 0.86015 0.13059 0.20497 0.0
C161 C 0.90729 0.17588 0.55808 0.0
C162 C 0.90219 0.33406 0.679 0.0
C163 C 0.89919 0.33622 0.84818 0.0
H164 H 0.87595 0.36017 0.45273 0.0
C165 C 0.86695 0.36867 0.91897 0.0
H166 H 0.9265 0.30942 0.62066 0.0
C167 C 0.83799 0.39789 0.82285 0.0
C168 C 0.84047 0.39521 0.65366 0.0
H169 H 0.86372 0.37127 0.04912 0.0
H170 H 0.81319 0.42204 0.88118 0.0
C171 C 0.87311 0.36316 0.58288 0.0
C172 C 0.68064 0.40227 0.94299 0.0
C173 C 0.67486 0.39572 0.11044 0.0
H174 H 0.65917 0.37882 0.70615 0.0
C175 C 0.63989 0.36162 0.16779 0.0
H176 H 0.70735 0.42839 0.89542 0.0
C177 C 0.61226 0.33337 0.05938 0.0
C178 C 0.61931 0.33868 0.89198 0.0
H179 H 0.63463 0.35595 0.29624 0.0
H180 H 0.58632 0.30651 0.10698 0.0
C181 C 0.65314 0.3739 0.83458 0.0
C182 C 0.64645 0.14635 0.08322 0.0
C183 C 0.67914 0.11429 0.1537 0.0
H184 H 0.59303 0.20003 0.12151 0.0
C185 C 0.68171 0.11157 0.32286 0.0
H186 H 0.64355 0.14937 0.9531 0.0
C187 C 0.65277 0.14073 0.41927 0.0
C188 C 0.62047 0.17318 0.34878 0.0
H189 H 0.70655 0.08741 0.38096 0.0
H190 H 0.65606 0.1381 0.54939 0.0
C191 C 0.61739 0.17539 0.17962 0.0
C192 C 0.41176 0.40907 0.33515 0.0
C193 C 0.38103 0.43856 0.42613 0.0
H194 H 0.46545 0.35461 0.337 0.0
C195 C 0.38374 0.43645 0.59552 0.0
H196 H 0.41097 0.40968 0.2043 0.0
C197 C 0.41522 0.40477 0.67165 0.0
C198 C 0.44484 0.37419 0.58062 0.0
H199 H 0.36089 0.45862 0.66975 0.0
H200 H 0.41553 0.40367 0.80249 0.0
C201 C 0.44315 0.37731 0.41127 0.0
C202 C 0.63587 0.91917 0.89066 0.0
C203 C 0.65348 0.93433 0.73878 0.0
H204 H 0.58813 0.87038 0.02109 0.0
C205 C 0.6318 0.91446 0.59862 0.0
H206 H 0.65161 0.93394 1.00101 0.0
C207 C 0.59513 0.87826 0.61013 0.0
C208 C 0.57983 0.86083 0.76204 0.0
H209 H 0.64414 0.92581 0.47971 0.0
H210 H 0.58044 0.86246 0.49981 0.0
C211 C 0.59961 0.88259 0.90217 0.0
C212 C 0.10406 0.10413 0.17004 0.0
C213 C 0.07468 0.13491 0.07898 0.0
H214 H 0.15825 0.05015 0.16829 0.0
C215 C 0.07663 0.13202 0.9096 0.0
H216 H 0.10354 0.10505 0.30089 0.0
C217 C 0.10807 0.10028 0.83356 0.0
C218 C 0.13858 0.07059 0.92463 0.0
H219 H 0.05452 0.15488 0.8353 0.0
H220 H 0.10908 0.09984 0.70271 0.0
C221 C 0.13559 0.07248 0.094 0.0
C222 C 0.91979 0.62701 0.40169 0.0
C223 C 0.93949 0.64874 0.2614 0.0
H224 H 0.86785 0.57568 0.50092 0.0
C225 C 0.92411 0.63129 0.10961 0.0
H226 H 0.93133 0.63925 0.52052 0.0
C227 C 0.88745 0.59508 0.09838 0.0
C228 C 0.86584 0.57523 0.23871 0.0
H229 H 0.93874 0.64707 0.99918 0.0
H230 H 0.87504 0.58371 0.97957 0.0
C231 C 0.88353 0.59042 0.39046 0.0
C232 C 0.38802 0.09401 0.60155 0.0
C233 C 0.36614 0.07444 0.74184 0.0
H234 H 0.43957 0.14571 0.50227 0.0
C235 C 0.38365 0.0898 0.89363 0.0
H236 H 0.37576 0.08249 0.48272 0.0
C237 C 0.42 0.12632 0.90483 0.0
C238 C 0.43993 0.14781 0.76448 0.0
H239 H 0.36776 0.07527 0.00406 0.0
H240 H 0.43138 0.13871 0.02364 0.0
C241 C 0.42475 0.13014 0.61276 0.0
C242 C 0.91156 0.90957 0.83117 0.0
C243 C 0.88089 0.93918 0.92194 0.0
H244 H 0.96524 0.85508 0.83352 0.0
C245 C 0.88375 0.93734 0.09133 0.0
H246 H 0.91065 0.90999 0.70032 0.0
C247 C 0.91529 0.90578 0.16771 0.0
C248 C 0.94482 0.87504 0.07697 0.0
H249 H 0.86098 0.95962 0.16541 0.0
H250 H 0.91569 0.90488 0.29856 0.0
C251 C 0.94302 0.87792 0.90757 0.0
C252 C 0.09963 0.38272 0.40424 0.0
C253 C 0.07979 0.36123 0.26374 0.0
H254 H 0.15179 0.43377 0.50389 0.0
C255 C 0.09509 0.3789 0.11213 0.0
H256 H 0.08815 0.37033 0.52296 0.0
C257 C 0.13183 0.41503 0.10121 0.0
C258 C 0.1536 0.43459 0.24168 0.0
H259 H 0.08034 0.36332 1.00154 0.0
H260 H 0.14418 0.42654 0.98248 0.0
C261 C 0.13598 0.41924 0.39333 0.0
C262 C 0.57634 0.63152 0.40907 0.0
C263 C 0.57466 0.6345 0.57846 0.0
H264 H 0.60858 0.59935 0.20177 0.0
C265 C 0.60429 0.60386 0.66917 0.0
H266 H 0.55403 0.65428 0.33505 0.0
C267 C 0.6358 0.57228 0.59273 0.0
C268 C 0.63854 0.57033 0.42332 0.0
H269 H 0.60398 0.60485 0.80002 0.0
H270 H 0.65866 0.55007 0.66676 0.0
C271 C 0.60777 0.59985 0.33262 0.0
loop_
_geom_bond_atom_site_label_1
_geom_bond_atom_site_label_2
_geom_bond_distance
_geom_bond_site_symmetry_2
_ccdc_geom_bond_type
Co0 O1 2.216 . S
Co0 O2 2.091 . S
Co0 O4 2.004 . S
Co0 O10 2.021 . S
Co0 O12 2.137 . S
Co0 O13 2.244 . S
O1 Co0 2.216 . S
O1 C8 1.247 . S
O2 Co0 2.091 . S
O2 C8 1.261 . S
C3 O12 1.247 . S
C3 O13 1.272 . S
O4 Co0 2.004 . S
O4 C9 1.259 . S
Co5 O6 2.061 . S
Co5 O11 2.052 . S
Co5 O13 2.135 . S
O6 Co5 2.061 . S
O6 C9 1.235 . S
C7 O10 1.238 . S
C7 O11 1.241 . S
C8 O1 1.247 . S
C8 O2 1.261 . S
C9 O4 1.259 . S
C9 O6 1.235 . S
O10 Co0 2.021 . S
O10 C7 1.238 . S
O11 Co5 2.052 . S
O11 C7 1.241 . S
O12 Co0 2.137 . S
O12 C3 1.247 . S
O13 Co0 2.244 . S
O13 C3 1.272 . S
O13 Co5 2.135 . S
Co14 O15 2.216 . S
Co14 O16 2.091 . S
Co14 O18 2.004 . S
Co14 O24 2.021 . S
Co14 O26 2.137 . S
Co14 O27 2.244 . S
O15 Co14 2.216 . S
O15 C22 1.247 . S
O16 Co14 2.091 . S
O16 C22 1.261 . S
C17 O26 1.247 . S
C17 O27 1.272 . S
O18 Co14 2.004 . S
O18 C23 1.259 . S
Co19 O20 2.061 . S
Co19 O25 2.052 . S
Co19 O27 2.135 . S
O20 Co19 2.061 . S
O20 C23 1.235 . S
C21 O24 1.238 . S
C21 O25 1.241 . S
C22 O15 1.247 . S
C22 O16 1.261 . S
C23 O18 1.259 . S
C23 O20 1.235 . S
O24 Co14 2.021 . S
O24 C21 1.238 . S
O25 Co19 2.052 . S
O25 C21 1.241 . S
O26 Co14 2.137 . S
O26 C17 1.247 . S
O27 Co14 2.244 . S
O27 C17 1.272 . S
O27 Co19 2.135 . S
Co28 O29 2.216 . S
Co28 O30 2.091 1_556 S
Co28 O32 2.004 1_566 S
Co28 O38 2.021 1_565 S
Co28 O40 2.137 . S
Co28 O41 2.244 . S
O29 Co28 2.216 . S
O29 C36 1.247 1_556 S
O30 Co28 2.091 1_554 S
O30 C36 1.261 . S
C31 O40 1.247 . S
C31 O41 1.272 . S
O32 Co28 2.004 1_544 S
O32 C37 1.259 1_554 S
Co33 O34 2.061 . S
Co33 O39 2.052 . S
Co33 O41 2.135 1_545 S
O34 Co33 2.061 . S
O34 C37 1.235 . S
C35 O38 1.238 . S
C35 O39 1.241 . S
C36 O29 1.247 1_554 S
C36 O30 1.261 . S
C37 O32 1.259 1_556 S
C37 O34 1.235 . S
O38 Co28 2.021 1_545 S
O38 C35 1.238 . S
O39 Co33 2.052 . S
O39 C35 1.241 . S
O40 Co28 2.137 . S
O40 C31 1.247 . S
O41 Co28 2.244 . S
O41 C31 1.272 . S
O41 Co33 2.135 1_565 S
Co42 O43 2.216 . S
Co42 O44 2.091 1_554 S
Co42 O46 2.004 1_454 S
Co42 O52 2.021 1_455 S
Co42 O54 2.137 . S
Co42 O55 2.244 . S
O43 Co42 2.216 . S
O43 C50 1.247 1_554 S
O44 Co42 2.091 1_556 S
O44 C50 1.261 . S
C45 O54 1.247 . S
C45 O55 1.272 . S
O46 Co42 2.004 1_656 S
O46 C51 1.259 1_556 S
Co47 O48 2.061 . S
Co47 O53 2.052 . S
Co47 O55 2.135 1_655 S
O48 Co47 2.061 . S
O48 C51 1.235 . S
C49 O52 1.238 . S
C49 O53 1.241 . S
C50 O43 1.247 1_556 S
C50 O44 1.261 . S
C51 O46 1.259 1_554 S
C51 O48 1.235 . S
O52 Co42 2.021 1_655 S
O52 C49 1.238 . S
O53 Co47 2.052 . S
O53 C49 1.241 . S
O54 Co42 2.137 . S
O54 C45 1.247 . S
O55 Co42 2.244 . S
O55 C45 1.272 . S
O55 Co47 2.135 1_455 S
Co56 O57 2.216 . S
Co56 O58 2.091 1_556 S
Co56 O60 2.004 1_546 S
Co56 O66 2.021 1_545 S
Co56 O68 2.137 . S
Co56 O69 2.244 . S
O57 Co56 2.216 . S
O57 C64 1.247 1_556 S
O58 Co56 2.091 1_554 S
O58 C64 1.261 . S
C59 O68 1.247 . S
C59 O69 1.272 . S
O60 Co56 2.004 1_564 S
O60 C65 1.259 1_554 S
Co61 O62 2.061 . S
Co61 O67 2.052 . S
Co61 O69 2.135 1_565 S
O62 Co61 2.061 . S
O62 C65 1.235 . S
C63 O66 1.238 . S
C63 O67 1.241 . S
C64 O57 1.247 1_554 S
C64 O58 1.261 . S
C65 O60 1.259 1_556 S
C65 O62 1.235 . S
O66 Co56 2.021 1_565 S
O66 C63 1.238 . S
O67 Co61 2.052 . S
O67 C63 1.241 . S
O68 Co56 2.137 . S
O68 C59 1.247 . S
O69 Co56 2.244 . S
O69 C59 1.272 . S
O69 Co61 2.135 1_545 S
Co70 O71 2.216 . S
Co70 O72 2.091 1_554 S
Co70 O74 2.004 1_654 S
Co70 O80 2.021 1_655 S
Co70 O82 2.137 . S
Co70 O83 2.244 . S
O71 Co70 2.216 . S
O71 C78 1.247 1_554 S
O72 Co70 2.091 1_556 S
O72 C78 1.261 . S
C73 O82 1.247 . S
C73 O83 1.272 . S
O74 Co70 2.004 1_456 S
O74 C79 1.259 1_556 S
Co75 O76 2.061 . S
Co75 O81 2.052 . S
Co75 O83 2.135 1_455 S
O76 Co75 2.061 . S
O76 C79 1.235 . S
C77 O80 1.238 . S
C77 O81 1.241 . S
C78 O71 1.247 1_556 S
C78 O72 1.261 . S
C79 O74 1.259 1_554 S
C79 O76 1.235 . S
O80 Co70 2.021 1_455 S
O80 C77 1.238 . S
O81 Co75 2.052 . S
O81 C77 1.241 . S
O82 Co70 2.137 . S
O82 C73 1.247 . S
O83 Co70 2.244 . S
O83 C73 1.272 . S
O83 Co75 2.135 1_655 S
Co84 O85 2.216 . S
Co84 O86 2.091 . S
Co84 O88 2.004 . S
Co84 O94 2.021 . S
Co84 O96 2.137 . S
Co84 O97 2.244 . S
O85 Co84 2.216 . S
O85 C92 1.247 . S
O86 Co84 2.091 . S
O86 C92 1.261 . S
C87 O96 1.247 . S
C87 O97 1.272 . S
O88 Co84 2.004 . S
O88 C93 1.259 . S
Co89 O90 2.061 . S
Co89 O95 2.052 . S
Co89 O97 2.135 . S
O90 Co89 2.061 . S
O90 C93 1.235 . S
C91 O94 1.238 . S
C91 O95 1.241 . S
C92 O85 1.247 . S
C92 O86 1.261 . S
C93 O88 1.259 . S
C93 O90 1.235 . S
O94 Co84 2.021 . S
O94 C91 1.238 . S
O95 Co89 2.052 . S
O95 C91 1.241 . S
O96 Co84 2.137 . S
O96 C87 1.247 . S
O97 Co84 2.244 . S
O97 C87 1.272 . S
O97 Co89 2.135 . S
Co98 O99 2.216 . S
Co98 O100 2.091 . S
Co98 O102 2.004 . S
Co98 O108 2.021 . S
Co98 O110 2.137 . S
Co98 O111 2.244 . S
O99 Co98 2.216 . S
O99 C106 1.247 . S
O100 Co98 2.091 . S
O100 C106 1.261 . S
C101 O110 1.247 . S
C101 O111 1.272 . S
O102 Co98 2.004 . S
O102 C107 1.259 . S
Co103 O104 2.061 . S
Co103 O109 2.052 . S
Co103 O111 2.135 . S
O104 Co103 2.061 . S
O104 C107 1.235 . S
C105 O108 1.238 . S
C105 O109 1.241 . S
C106 O99 1.247 . S
C106 O100 1.261 . S
C107 O102 1.259 . S
C107 O104 1.235 . S
O108 Co98 2.021 . S
O108 C105 1.238 . S
O109 Co103 2.052 . S
O109 C105 1.241 . S
O110 Co98 2.137 . S
O110 C101 1.247 . S
O111 Co98 2.244 . S
O111 C101 1.272 . S
O111 Co103 2.135 . S
C112 C113 1.387 . S
C112 H116 0.950 . S
C112 C121 1.390 1_556 S
C113 C112 1.387 . S
C113 C115 1.387 . S
H114 C121 0.950 . S
C115 C113 1.387 . S
C115 C117 1.390 1_556 S
C115 H119 0.950 . S
H116 C112 0.950 . S
C117 C115 1.390 1_554 S
C117 C118 1.387 . S
C117 H120 0.950 . S
C118 C117 1.387 . S
C118 C121 1.387 . S
H119 C115 0.950 . S
H120 C117 0.950 . S
C121 C112 1.390 1_554 S
C121 H114 0.950 . S
C121 C118 1.387 . S
C122 C123 1.387 . S
C122 H126 0.950 . S
C122 C131 1.390 . S
C123 C122 1.387 . S
C123 C125 1.387 . S
H124 C131 0.950 . S
C125 C123 1.387 . S
C125 C127 1.390 . S
C125 H129 0.950 . S
H126 C122 0.950 . S
C127 C125 1.390 . S
C127 C128 1.387 . S
C127 H130 0.950 . S
C128 C127 1.387 . S
C128 C131 1.387 . S
H129 C125 0.950 . S
H130 C127 0.950 . S
C131 C122 1.390 . S
C131 H124 0.950 . S
C131 C128 1.387 . S
C132 C133 1.387 . S
C132 H136 0.950 . S
C132 C141 1.390 . S
C133 C132 1.387 . S
C133 C135 1.387 . S
H134 C141 0.950 . S
C135 C133 1.387 . S
C135 C137 1.390 . S
C135 H139 0.950 . S
H136 C132 0.950 . S
C137 C135 1.390 . S
C137 C138 1.387 . S
C137 H140 0.950 . S
C138 C137 1.387 . S
C138 C141 1.387 . S
H139 C135 0.950 . S
H140 C137 0.950 . S
C141 C132 1.390 . S
C141 H134 0.950 . S
C141 C138 1.387 . S
C142 C143 1.387 . S
C142 H146 0.950 . S
C142 C151 1.390 . S
C143 C142 1.387 . S
C143 C145 1.387 . S
H144 C151 0.950 . S
C145 C143 1.387 . S
C145 C147 1.390 . S
C145 H149 0.950 . S
H146 C142 0.950 . S
C147 C145 1.390 . S
C147 C148 1.387 . S
C147 H150 0.950 . S
C148 C147 1.387 . S
C148 C151 1.387 . S
H149 C145 0.950 . S
H150 C147 0.950 . S
C151 C142 1.390 . S
C151 H144 0.950 . S
C151 C148 1.387 . S
C152 C153 1.387 . S
C152 H156 0.950 . S
C152 C161 1.390 . S
C153 C152 1.387 . S
C153 C155 1.387 . S
H154 C161 0.950 . S
C155 C153 1.387 . S
C155 C157 1.390 . S
C155 H159 0.950 . S
H156 C152 0.950 . S
C157 C155 1.390 . S
C157 C158 1.387 . S
C157 H160 0.950 . S
C158 C157 1.387 . S
C158 C161 1.387 . S
H159 C155 0.950 . S
H160 C157 0.950 . S
C161 C152 1.390 . S
C161 H154 0.950 . S
C161 C158 1.387 . S
C162 C163 1.387 . S
C162 H166 0.950 . S
C162 C171 1.390 . S
C163 C162 1.387 . S
C163 C165 1.387 . S
H164 C171 0.950 . S
C165 C163 1.387 . S
C165 C167 1.390 . S
C165 H169 0.950 . S
H166 C162 0.950 . S
C167 C165 1.390 . S
C167 C168 1.387 . S
C167 H170 0.950 . S
C168 C167 1.387 . S
C168 C171 1.387 . S
H169 C165 0.950 . S
H170 C167 0.950 . S
C171 C162 1.390 . S
C171 H164 0.950 . S
C171 C168 1.387 . S
C172 C173 1.387 . S
C172 H176 0.950 . S
C172 C181 1.390 1_554 S
C173 C172 1.387 . S
C173 C175 1.387 . S
H174 C181 0.950 . S
C175 C173 1.387 . S
C175 C177 1.390 1_554 S
C175 H179 0.950 . S
H176 C172 0.950 . S
C177 C175 1.390 1_556 S
C177 C178 1.387 . S
C177 H180 0.950 . S
C178 C177 1.387 . S
C178 C181 1.387 . S
H179 C175 0.950 . S
H180 C177 0.950 . S
C181 C172 1.390 1_556 S
C181 H174 0.950 . S
C181 C178 1.387 . S
C182 C183 1.387 . S
C182 H186 0.950 1_554 S
C182 C191 1.390 . S
C183 C182 1.387 . S
C183 C185 1.387 . S
H184 C191 0.950 . S
C185 C183 1.387 . S
C185 C187 1.390 . S
C185 H189 0.950 . S
H186 C182 0.950 1_556 S
C187 C185 1.390 . S
C187 C188 1.387 . S
C187 H190 0.950 . S
C188 C187 1.387 . S
C188 C191 1.387 . S
H189 C185 0.950 . S
H190 C187 0.950 . S
C191 C182 1.390 . S
C191 H184 0.950 . S
C191 C188 1.387 . S
C192 C193 1.387 . S
C192 H196 0.950 . S
C192 C201 1.390 . S
C193 C192 1.387 . S
C193 C195 1.387 . S
H194 C201 0.950 . S
C195 C193 1.387 . S
C195 C197 1.390 . S
C195 H199 0.950 . S
H196 C192 0.950 . S
C197 C195 1.390 . S
C197 C198 1.387 . S
C197 H200 0.950 . S
C198 C197 1.387 . S
C198 C201 1.387 . S
H199 C195 0.950 . S
H200 C197 0.950 . S
C201 C192 1.390 . S
C201 H194 0.950 . S
C201 C198 1.387 . S
C202 C203 1.387 . S
C202 H206 0.950 1_556 S
C202 C211 1.390 . S
C203 C202 1.387 . S
C203 C205 1.387 . S
H204 C211 0.950 . S
C205 C203 1.387 . S
C205 C207 1.390 . S
C205 H209 0.950 . S
H206 C202 0.950 1_554 S
C207 C205 1.390 . S
C207 C208 1.387 . S
C207 H210 0.950 . S
C208 C207 1.387 . S
C208 C211 1.387 . S
H209 C205 0.950 . S
H210 C207 0.950 . S
C211 C202 1.390 . S
C211 H204 0.950 . S
C211 C208 1.387 . S
C212 C213 1.387 . S
C212 H216 0.950 . S
C212 C221 1.390 . S
C213 C212 1.387 . S
C213 C215 1.387 1_554 S
H214 C221 0.950 . S
C215 C213 1.387 1_556 S
C215 C217 1.390 . S
C215 H219 0.950 . S
H216 C212 0.950 . S
C217 C215 1.390 . S
C217 C218 1.387 . S
C217 H220 0.950 . S
C218 C217 1.387 . S
C218 C221 1.387 1_556 S
H219 C215 0.950 . S
H220 C217 0.950 . S
C221 C212 1.390 . S
C221 H214 0.950 . S
C221 C218 1.387 1_554 S
C222 C223 1.387 . S
C222 H226 0.950 . S
C222 C231 1.390 . S
C223 C222 1.387 . S
C223 C225 1.387 . S
H224 C231 0.950 . S
C225 C223 1.387 . S
C225 C227 1.390 . S
C225 H229 0.950 1_554 S
H226 C222 0.950 . S
C227 C225 1.390 . S
C227 C228 1.387 . S
C227 H230 0.950 . S
C228 C227 1.387 . S
C228 C231 1.387 . S
H229 C225 0.950 1_556 S
H230 C227 0.950 . S
C231 C222 1.390 . S
C231 H224 0.950 . S
C231 C228 1.387 . S
C232 C233 1.387 . S
C232 H236 0.950 . S
C232 C241 1.390 . S
C233 C232 1.387 . S
C233 C235 1.387 . S
H234 C241 0.950 . S
C235 C233 1.387 . S
C235 C237 1.390 . S
C235 H239 0.950 1_556 S
H236 C232 0.950 . S
C237 C235 1.390 . S
C237 C238 1.387 . S
C237 H240 0.950 . S
C238 C237 1.387 . S
C238 C241 1.387 . S
H239 C235 0.950 1_554 S
H240 C237 0.950 . S
C241 C232 1.390 . S
C241 H234 0.950 . S
C241 C238 1.387 . S
C242 C243 1.387 . S
C242 H246 0.950 . S
C242 C251 1.390 . S
C243 C242 1.387 . S
C243 C245 1.387 1_556 S
H244 C251 0.950 . S
C245 C243 1.387 1_554 S
C245 C247 1.390 . S
C245 H249 0.950 . S
H246 C242 0.950 . S
C247 C245 1.390 . S
C247 C248 1.387 . S
C247 H250 0.950 . S
C248 C247 1.387 . S
C248 C251 1.387 1_554 S
H249 C245 0.950 . S
H250 C247 0.950 . S
C251 C242 1.390 . S
C251 H244 0.950 . S
C251 C248 1.387 1_556 S
C252 C253 1.387 . S
C252 H256 0.950 . S
C252 C261 1.390 . S
C253 C252 1.387 . S
C253 C255 1.387 . S
H254 C261 0.950 . S
C255 C253 1.387 . S
C255 C257 1.390 . S
C255 H259 0.950 1_554 S
H256 C252 0.950 . S
C257 C255 1.390 . S
C257 C258 1.387 . S
C257 H260 0.950 . S
C258 C257 1.387 . S
C258 C261 1.387 . S
H259 C255 0.950 1_556 S
H260 C257 0.950 . S
C261 C252 1.390 . S
C261 H254 0.950 . S
C261 C258 1.387 . S
C262 C263 1.387 . S
C262 H266 0.950 . S
C262 C271 1.390 . S
C263 C262 1.387 . S
C263 C265 1.387 . S
H264 C271 0.950 . S
C265 C263 1.387 . S
C265 C267 1.390 . S
C265 H269 0.950 . S
H266 C262 0.950 . S
C267 C265 1.390 . S
C267 C268 1.387 . S
C267 H270 0.950 . S
C268 C267 1.387 . S
C268 C271 1.387 . S
H269 C265 0.950 . S
H270 C267 0.950 . S
C271 C262 1.390 . S
C271 H264 0.950 . S
C271 C268 1.387 . S
C113 C17 1.453 . S
C118 C3 1.454 . S
C123 C22 1.456 . S
C128 C36 1.456 . S
C133 C45 1.453 . S
C138 C31 1.454 . S
C143 C50 1.456 . S
C148 C8 1.456 . S
C153 C59 1.454 . S
C158 C73 1.454 . S
C163 C78 1.456 . S
C168 C92 1.456 . S
C173 C87 1.453 . S
C178 C101 1.453 . S
C183 C64 1.456 . S
C188 C106 1.456 . S
C193 C9 1.445 . S
C198 C107 1.446 . S
C203 C63 1.457 . S
C208 C21 1.459 . S
C213 C79 1.444 . S
C218 C37 1.445 . S
C223 C49 1.459 . S
C228 C91 1.457 . S
C233 C35 1.459 . S
C238 C105 1.457 . S
C243 C65 1.446 . S
C248 C51 1.446 . S
C253 C77 1.459 . S
C258 C7 1.457 . S
C263 C23 1.446 . S
C268 C93 1.446 . S
