# Generated by pormake.
# Topology wio, (6)-cn, num edge types: 1
# Building blocks:
#     Node 0, Type 0, BuildingBlock: MIFKUJ_clean_sbu_0, # of connection points: 6
#     Node 1, Type 0, BuildingBlock: MIFKUJ_clean_sbu_0, # of connection points: 6
#     Node 2, Type 0, BuildingBlock: MIFKUJ_clean_sbu_0, # of connection points: 6
#     Node 3, Type 0, BuildingBlock: MIFKUJ_clean_sbu_0, # of connection points: 6
#     Node 4, Type 0, BuildingBlock: MIFKUJ_clean_sbu_0, # of connection points: 6
#     Node 5, Type 0, BuildingBlock: MIFKUJ_clean_sbu_0, # of connection points: 6
#     Node 6, Type 0, BuildingBlock: MIFKUJ_clean_sbu_0, # of connection points: 6
#     Node 7, Type 0, BuildingBlock: MIFKUJ_clean_sbu_0, # of connection points: 6
#     Node 8, Type 0, BuildingBlock: MIFKUJ_clean_sbu_0, # of connection points: 6
#     Node 9, Type 0, BuildingBlock: MIFKUJ_clean_sbu_0, # of connection points: 6
#     Node 10, Type 0, BuildingBlock: MIFKUJ_clean_sbu_0, # of connection points: 6
#     Node 11, Type 0, BuildingBlock: MIFKUJ_clean_sbu_0, # of connection points: 6
#     Node 12, Type 0, BuildingBlock: MIFKUJ_clean_sbu_0, # of connection points: 6
#     Node 13, Type 0, BuildingBlock: MIFKUJ_clean_sbu_0, # of connection points: 6
#     Node 14, Type 0, BuildingBlock: MIFKUJ_clean_sbu_0, # of connection points: 6
#     Node 15, Type 0, BuildingBlock: MIFKUJ_clean_sbu_0, # of connection points: 6
#     Node 16, Type 0, BuildingBlock: MIFKUJ_clean_sbu_0, # of connection points: 6
#     Node 17, Type 0, BuildingBlock: MIFKUJ_clean_sbu_0, # of connection points: 6
#     Node 18, Type 0, BuildingBlock: MIFKUJ_clean_sbu_0, # of connection points: 6
#     Node 19, Type 0, BuildingBlock: MIFKUJ_clean_sbu_0, # of connection points: 6
#     Node 20, Type 0, BuildingBlock: MIFKUJ_clean_sbu_0, # of connection points: 6
#     Node 21, Type 0, BuildingBlock: MIFKUJ_clean_sbu_0, # of connection points: 6
#     Node 22, Type 0, BuildingBlock: MIFKUJ_clean_sbu_0, # of connection points: 6
#     Node 23, Type 0, BuildingBlock: MIFKUJ_clean_sbu_0, # of connection points: 6
#     Node 24, Type 0, BuildingBlock: MIFKUJ_clean_sbu_0, # of connection points: 6
#     Node 25, Type 0, BuildingBlock: MIFKUJ_clean_sbu_0, # of connection points: 6
#     Node 26, Type 0, BuildingBlock: MIFKUJ_clean_sbu_0, # of connection points: 6
#     Node 27, Type 0, BuildingBlock: MIFKUJ_clean_sbu_0, # of connection points: 6
#     Node 28, Type 0, BuildingBlock: MIFKUJ_clean_sbu_0, # of connection points: 6
#     Node 29, Type 0, BuildingBlock: MIFKUJ_clean_sbu_0, # of connection points: 6
#     Node 30, Type 0, BuildingBlock: MIFKUJ_clean_sbu_0, # of connection points: 6
#     Node 31, Type 0, BuildingBlock: MIFKUJ_clean_sbu_0, # of connection points: 6
#     Edge 32, Type (0, 0), None
#     Edge 33, Type (0, 0), None
#     Edge 34, Type (0, 0), None
#     Edge 35, Type (0, 0), None
#     Edge 36, Type (0, 0), None
#     Edge 37, Type (0, 0), None
#     Edge 38, Type (0, 0), None
#     Edge 39, Type (0, 0), None
#     Edge 40, Type (0, 0), None
#     Edge 41, Type (0, 0), None
#     Edge 42, Type (0, 0), None
#     Edge 43, Type (0, 0), None
#     Edge 44, Type (0, 0), None
#     Edge 45, Type (0, 0), None
#     Edge 46, Type (0, 0), None
#     Edge 47, Type (0, 0), None
#     Edge 48, Type (0, 0), None
#     Edge 49, Type (0, 0), None
#     Edge 50, Type (0, 0), None
#     Edge 51, Type (0, 0), None
#     Edge 52, Type (0, 0), None
#     Edge 53, Type (0, 0), None
#     Edge 54, Type (0, 0), None
#     Edge 55, Type (0, 0), None
#     Edge 56, Type (0, 0), None
#     Edge 57, Type (0, 0), None
#     Edge 58, Type (0, 0), None
#     Edge 59, Type (0, 0), None
#     Edge 60, Type (0, 0), None
#     Edge 61, Type (0, 0), None
#     Edge 62, Type (0, 0), None
#     Edge 63, Type (0, 0), None
#     Edge 64, Type (0, 0), None
#     Edge 65, Type (0, 0), None
#     Edge 66, Type (0, 0), None
#     Edge 67, Type (0, 0), None
#     Edge 68, Type (0, 0), None
#     Edge 69, Type (0, 0), None
#     Edge 70, Type (0, 0), None
#     Edge 71, Type (0, 0), None
#     Edge 72, Type (0, 0), None
#     Edge 73, Type (0, 0), None
#     Edge 74, Type (0, 0), None
#     Edge 75, Type (0, 0), None
#     Edge 76, Type (0, 0), None
#     Edge 77, Type (0, 0), None
#     Edge 78, Type (0, 0), None
#     Edge 79, Type (0, 0), None
#     Edge 80, Type (0, 0), None
#     Edge 81, Type (0, 0), None
#     Edge 82, Type (0, 0), None
#     Edge 83, Type (0, 0), None
#     Edge 84, Type (0, 0), None
#     Edge 85, Type (0, 0), None
#     Edge 86, Type (0, 0), None
#     Edge 87, Type (0, 0), None
#     Edge 88, Type (0, 0), None
#     Edge 89, Type (0, 0), None
#     Edge 90, Type (0, 0), None
#     Edge 91, Type (0, 0), None
#     Edge 92, Type (0, 0), None
#     Edge 93, Type (0, 0), None
#     Edge 94, Type (0, 0), None
#     Edge 95, Type (0, 0), None
#     Edge 96, Type (0, 0), None
#     Edge 97, Type (0, 0), None
#     Edge 98, Type (0, 0), None
#     Edge 99, Type (0, 0), None
#     Edge 100, Type (0, 0), None
#     Edge 101, Type (0, 0), None
#     Edge 102, Type (0, 0), None
#     Edge 103, Type (0, 0), None
#     Edge 104, Type (0, 0), None
#     Edge 105, Type (0, 0), None
#     Edge 106, Type (0, 0), None
#     Edge 107, Type (0, 0), None
#     Edge 108, Type (0, 0), None
#     Edge 109, Type (0, 0), None
#     Edge 110, Type (0, 0), None
#     Edge 111, Type (0, 0), None
#     Edge 112, Type (0, 0), None
#     Edge 113, Type (0, 0), None
#     Edge 114, Type (0, 0), None
#     Edge 115, Type (0, 0), None
#     Edge 116, Type (0, 0), None
#     Edge 117, Type (0, 0), None
#     Edge 118, Type (0, 0), None
#     Edge 119, Type (0, 0), None
#     Edge 120, Type (0, 0), None
#     Edge 121, Type (0, 0), None
#     Edge 122, Type (0, 0), None
#     Edge 123, Type (0, 0), None
#     Edge 124, Type (0, 0), None
#     Edge 125, Type (0, 0), None
#     Edge 126, Type (0, 0), None
#     Edge 127, Type (0, 0), None
# Relax obj value: 0.193
# Max RMSD: 0.230
# Mean RMSD: 0.230
data_MOF--net-wio--node1-MIFKUJ_clean_sbu_0--edge1-none
_symmetry_space_group_name_H-M    P1
_symmetry_Int_Tables_number       1
_symmetry_cell_setting            triclinic
loop_
_symmetry_equiv_pos_as_xyz
'x, y, z'
_cell_length_a     27.131099
_cell_length_b     27.130759
_cell_length_c     23.431215
_cell_angle_alpha  89.999976
_cell_angle_beta   90.000054
_cell_angle_gamma 89.999854
loop_
_atom_site_label
_atom_site_type_symbol
_atom_site_fract_x
_atom_site_fract_y
_atom_site_fract_z
_atom_type_partial_charge
Zn0 Zn 0.03996 0.07291 0.38666 0.0
Zn1 Zn 0.12956 0.09123 0.31855 0.0
C2 C 0.0704 0.01013 0.46989 0.0
O3 O 0.02896 -0.00829 0.45026 0.0
C4 C 0.08293 0.12782 0.21418 0.0
O5 O 0.11996 0.15895 0.213 0.0
O6 O -0.02814 0.06996 0.42157 0.0
O7 O 0.04936 0.14492 0.36746 0.0
O8 O 0.1273 0.13626 0.3871 0.0
C9 C 0.9604 0.10322 0.45746 0.0
O10 O -0.00819 0.13868 0.46883 0.0
O11 O 0.08614 0.05052 0.4494 0.0
C12 C 0.23067 0.09259 0.26031 0.0
O13 O 0.24199 0.04698 0.27364 0.0
O14 O 0.19022 0.11146 0.27634 0.0
O15 O 0.12835 0.01823 0.33189 0.0
O16 O 0.04695 0.01973 0.32617 0.0
O17 O 0.07557 0.10231 0.25905 0.0
C18 C 0.08859 0.1621 0.38875 0.0
C19 C 0.0877 -0.00337 0.32118 0.0
Zn20 Zn 0.11869 0.78995 0.63665 0.0
Zn21 Zn 0.10037 0.87955 0.56855 0.0
C22 C 0.18147 0.82039 0.71989 0.0
O23 O 0.19989 0.77895 0.70026 0.0
C24 C 0.06378 0.83293 0.46418 0.0
O25 O 0.03265 0.86997 0.463 0.0
O26 O 0.12164 0.72185 0.67157 0.0
O27 O 0.04669 0.79934 0.61745 0.0
O28 O 0.05534 0.87729 0.63711 0.0
C29 C 0.08839 0.71039 0.70746 0.0
O30 O 0.05292 0.7418 0.71883 0.0
O31 O 0.14108 0.83613 0.6994 0.0
C32 C 0.09901 -0.01934 0.51032 0.0
O33 O 0.14464 -0.00804 0.5236 0.0
O34 O 0.08013 0.94022 0.52636 0.0
O35 O 0.17337 0.87834 0.5819 0.0
O36 O 0.17187 0.79694 0.57617 0.0
O37 O 0.08929 0.82556 0.50905 0.0
C38 C 0.0295 0.83857 0.63875 0.0
C39 C 0.19497 0.83769 0.57118 0.0
Zn40 Zn 0.40165 0.86868 0.88666 0.0
Zn41 Zn 0.31205 0.85035 0.81855 0.0
C42 C 0.37122 0.93145 0.96989 0.0
O43 O 0.41265 0.94988 0.95026 0.0
C44 C 0.35867 0.81376 0.71418 0.0
O45 O 0.32163 0.78263 0.713 0.0
O46 O 0.46975 0.87163 0.92157 0.0
O47 O 0.39226 0.79667 0.86745 0.0
O48 O 0.31431 0.80533 0.88711 0.0
C49 C 0.48121 0.83837 0.95746 0.0
O50 O 0.44981 0.8029 0.96883 0.0
O51 O 0.35547 0.89107 0.9494 0.0
C52 C 0.21094 0.849 0.76032 0.0
O53 O 0.19964 0.89463 0.7736 0.0
O54 O 0.25138 0.83012 0.77636 0.0
O55 O 0.31326 0.92335 0.83189 0.0
O56 O 0.39466 0.92186 0.82617 0.0
O57 O 0.36604 0.83927 0.75905 0.0
C58 C 0.35303 0.77949 0.88875 0.0
C59 C 0.35391 0.94495 0.82118 0.0
Zn60 Zn 0.32292 0.15164 0.13666 0.0
Zn61 Zn 0.34125 0.06204 0.06855 0.0
C62 C 0.26014 0.1212 0.21987 0.0
O63 O 0.24171 0.16263 0.20024 0.0
C64 C 0.37784 0.10866 0.96418 0.0
O65 O 0.40897 0.07162 0.963 0.0
O66 O 0.31997 0.21974 0.17158 0.0
O67 O 0.39493 0.14224 0.11745 0.0
O68 O 0.38628 0.0643 0.13711 0.0
C69 C 0.35323 0.23119 0.20746 0.0
O70 O 0.38869 0.19979 0.21883 0.0
O71 O 0.30053 0.10546 0.1994 0.0
C72 C 0.3426 0.96092 1.01032 0.0
O73 O 0.29697 0.94963 1.0236 0.0
O74 O 0.36148 0.00137 1.02636 0.0
O75 O 0.26825 0.06325 0.0819 0.0
O76 O 0.26974 0.14464 0.07617 0.0
O77 O 0.35233 0.11602 1.00905 0.0
C78 C 0.41211 0.10302 0.13875 0.0
C79 C 0.24665 0.1039 0.07118 0.0
Zn80 Zn 0.03996 0.86868 0.23728 0.0
Zn81 Zn 0.12956 0.85035 0.30538 0.0
C82 C 0.07039 0.93146 0.15405 0.0
O83 O 0.02896 0.94989 0.17368 0.0
C84 C 0.08292 0.81374 0.40974 0.0
O85 O 0.11995 0.7826 0.41095 0.0
O86 O -0.02814 0.87163 0.20236 0.0
O87 O 0.04936 0.79667 0.25647 0.0
O88 O 0.12731 0.80532 0.23683 0.0
C89 C 0.9604 0.83837 0.16647 0.0
O90 O -0.00819 0.80291 0.1551 0.0
O91 O 0.08613 0.89107 0.17453 0.0
C92 C 0.23066 0.84899 0.36362 0.0
O93 O 0.24198 0.8946 0.35029 0.0
O94 O 0.19021 0.83012 0.3476 0.0
O95 O 0.12835 0.92335 0.29204 0.0
O96 O 0.04695 0.92186 0.29776 0.0
O97 O 0.07556 0.83927 0.36488 0.0
C98 C 0.08859 0.77949 0.23517 0.0
C99 C 0.0877 0.94495 0.30276 0.0
Zn100 Zn 0.32292 0.78995 0.48727 0.0
Zn101 Zn 0.34125 0.87954 0.55538 0.0
C102 C 0.26013 0.82038 0.40406 0.0
O103 O 0.2417 0.77896 0.4237 0.0
C104 C 0.37786 0.83291 0.65973 0.0
O105 O 0.409 0.86994 0.66095 0.0
O106 O 0.31997 0.72185 0.45236 0.0
O107 O 0.39493 0.79934 0.50647 0.0
O108 O 0.38628 0.87729 0.48683 0.0
C109 C 0.35322 0.71039 0.41647 0.0
O110 O 0.38869 0.7418 0.4051 0.0
O111 O 0.30053 0.83612 0.42453 0.0
C112 C 0.34261 -0.01935 0.61362 0.0
O113 O 0.297 -0.00803 0.60029 0.0
O114 O 0.36148 0.9402 0.5976 0.0
O115 O 0.26825 0.87834 0.54204 0.0
O116 O 0.26974 0.79694 0.54776 0.0
O117 O 0.35233 0.82555 0.61488 0.0
C118 C 0.41211 0.83857 0.48517 0.0
C119 C 0.24665 0.83769 0.55276 0.0
Zn120 Zn 0.40166 0.07291 0.73727 0.0
Zn121 Zn 0.31206 0.09124 0.80538 0.0
C122 C 0.37122 0.01012 0.65406 0.0
O123 O 0.41265 -0.00831 0.6737 0.0
C124 C 0.35869 0.12785 0.90974 0.0
O125 O 0.32166 0.15899 0.91095 0.0
O126 O 0.46976 0.06996 0.70236 0.0
O127 O 0.39226 0.14492 0.75647 0.0
O128 O 0.31431 0.13626 0.73683 0.0
C129 C 0.48121 0.10321 0.66647 0.0
O130 O 0.44981 0.13868 0.6551 0.0
O131 O 0.35548 0.05052 0.67453 0.0
C132 C 0.21095 0.0926 0.86362 0.0
O133 O 0.19963 0.04699 0.85029 0.0
O134 O 0.2514 0.11147 0.8476 0.0
O135 O 0.31327 0.01824 0.79204 0.0
O136 O 0.39466 0.01973 0.79776 0.0
O137 O 0.36605 0.10232 0.86488 0.0
C138 C 0.35303 0.1621 0.73517 0.0
C139 C 0.35391 -0.00336 0.80276 0.0
Zn140 Zn 0.11869 0.15164 0.98728 0.0
Zn141 Zn 0.10036 0.06204 1.05538 0.0
C142 C 0.18148 0.12121 0.90406 0.0
O143 O 0.19991 0.16263 0.9237 0.0
C144 C 0.06375 0.10867 0.15973 0.0
O145 O 0.03262 0.07163 0.16094 0.0
O146 O 0.12164 0.21974 0.95236 0.0
O147 O 0.04669 0.14224 1.00647 0.0
O148 O 0.05534 0.0643 0.98682 0.0
C149 C 0.08839 0.2312 0.91647 0.0
O150 O 0.05292 0.19979 0.9051 0.0
O151 O 0.14109 0.10547 0.92453 0.0
C152 C 0.099 0.96093 0.11361 0.0
O153 O 0.14463 0.94963 0.10032 0.0
O154 O 0.08013 0.00138 0.09758 0.0
O155 O 0.17336 0.06325 1.04204 0.0
O156 O 0.17187 0.14465 1.04776 0.0
O157 O 0.08927 0.11603 0.11488 0.0
C158 C 0.0295 0.10301 0.98517 0.0
C159 C 0.19496 0.1039 1.05276 0.0
Zn160 Zn 0.81205 0.85035 0.80537 0.0
Zn161 Zn 0.90165 0.86868 0.73727 0.0
C162 C 0.85867 0.81378 0.90975 0.0
O163 O 0.82164 0.78265 0.91094 0.0
C164 C 0.87121 0.93145 0.65403 0.0
O165 O 0.91265 0.94988 0.67365 0.0
O166 O 0.75138 0.83012 0.84757 0.0
O167 O 0.81326 0.92335 0.79203 0.0
O168 O 0.89466 0.92186 0.79775 0.0
C169 C 0.71094 0.849 0.8636 0.0
O170 O 0.69965 0.89463 0.85032 0.0
O171 O 0.86604 0.83928 0.86488 0.0
C172 C -0.01879 0.83838 0.66646 0.0
O173 O 0.9498 0.80291 0.65509 0.0
O174 O 0.96975 0.87163 0.70235 0.0
O175 O 0.89226 0.79668 0.75647 0.0
O176 O 0.81431 0.80533 0.73682 0.0
O177 O 0.85547 0.89107 0.67452 0.0
C178 C 0.85391 0.94496 0.80275 0.0
C179 C 0.85303 0.77949 0.73517 0.0
Zn180 Zn 0.84125 0.06203 0.55537 0.0
Zn181 Zn 0.82292 0.15164 0.48727 0.0
C182 C 0.87783 0.10865 0.65975 0.0
O183 O 0.90895 0.07161 0.66094 0.0
C184 C 0.76015 0.1212 0.40403 0.0
O185 O 0.74172 0.16264 0.42365 0.0
O186 O 0.86148 0.00136 0.59755 0.0
O187 O 0.76825 0.06325 0.54203 0.0
O188 O 0.76974 0.14464 0.54775 0.0
C189 C 0.8426 0.96092 0.61359 0.0
O190 O 0.79695 0.94965 0.60036 0.0
O191 O 0.85233 0.11601 0.61488 0.0
C192 C 0.85322 0.23119 0.41646 0.0
O193 O 0.88869 0.19979 0.40509 0.0
O194 O 0.81997 0.21974 0.45235 0.0
O195 O 0.89492 0.14225 0.50647 0.0
O196 O 0.88627 0.0643 0.48681 0.0
O197 O 0.80053 0.10546 0.42452 0.0
C198 C 0.74665 0.1039 0.55275 0.0
C199 C 0.91211 0.10302 0.48517 0.0
Zn200 Zn 0.62957 0.09123 0.30537 0.0
Zn201 Zn 0.53996 0.07291 0.23727 0.0
C202 C 0.58295 0.12782 0.40975 0.0
O203 O 0.61999 0.15894 0.41094 0.0
C204 C 0.5704 0.01013 0.15403 0.0
O205 O 0.52896 -0.00829 0.17365 0.0
O206 O 0.69024 0.11147 0.34755 0.0
O207 O 0.62835 0.01823 0.29203 0.0
O208 O 0.54696 0.01973 0.29775 0.0
C209 C 0.73068 0.09259 0.3636 0.0
O210 O 0.74195 0.04694 0.35036 0.0
O211 O 0.57559 0.10231 0.36488 0.0
C212 C 0.46041 0.10321 0.16646 0.0
O213 O 0.49181 0.13868 0.15509 0.0
O214 O 0.47186 0.06996 0.20235 0.0
O215 O 0.54935 0.14491 0.25647 0.0
O216 O 0.6273 0.13626 0.23681 0.0
O217 O 0.58614 0.05052 0.17453 0.0
C218 C 0.5877 -0.00337 0.30275 0.0
C219 C 0.58858 0.1621 0.23517 0.0
Zn220 Zn 0.60037 0.87956 1.05537 0.0
Zn221 Zn 0.6187 0.78995 0.98727 0.0
C222 C 0.56378 0.83294 0.15975 0.0
O223 O 0.53266 0.86998 0.16094 0.0
C224 C 0.68148 0.82039 0.90405 0.0
O225 O 0.6999 0.77896 0.92367 0.0
O226 O 0.58013 0.94023 0.09755 0.0
O227 O 0.67337 0.87834 1.04203 0.0
O228 O 0.67187 0.79695 1.04775 0.0
C229 C 0.59901 -0.01933 0.11359 0.0
O230 O 0.64466 -0.00806 0.10036 0.0
O231 O 0.58929 0.82557 0.11488 0.0
C232 C 0.58839 0.7104 0.91646 0.0
O233 O 0.55293 0.7418 0.90509 0.0
O234 O 0.62165 0.72185 0.95235 0.0
O235 O 0.54669 0.79934 1.00647 0.0
O236 O 0.55534 0.87729 0.98681 0.0
O237 O 0.64108 0.83613 0.92452 0.0
C238 C 0.69497 0.83769 1.05275 0.0
C239 C 0.5295 0.83857 0.98517 0.0
Zn240 Zn 0.81205 0.09124 0.81855 0.0
Zn241 Zn 0.90165 0.07291 0.88665 0.0
C242 C 0.85868 0.12784 0.71419 0.0
O243 O 0.82165 0.15897 0.71298 0.0
C244 C 0.87122 0.01013 0.96989 0.0
O245 O 0.91265 -0.0083 0.95026 0.0
O246 O 0.75139 0.11147 0.77635 0.0
O247 O 0.81327 0.01824 0.83189 0.0
O248 O 0.89466 0.01973 0.82617 0.0
C249 C 0.71095 0.0926 0.76032 0.0
O250 O 0.69966 0.04697 0.77361 0.0
O251 O 0.86604 0.10232 0.75905 0.0
C252 C -0.01879 0.10321 0.95746 0.0
O253 O 0.9498 0.13868 0.96883 0.0
O254 O 0.96975 0.06996 0.92157 0.0
O255 O 0.89226 0.14491 0.86746 0.0
O256 O 0.81431 0.13626 0.88711 0.0
O257 O 0.85548 0.05051 0.9494 0.0
C258 C 0.85391 -0.00336 0.82117 0.0
C259 C 0.85303 0.1621 0.88876 0.0
Zn260 Zn 0.60036 0.06204 0.56855 0.0
Zn261 Zn 0.6187 0.15164 0.63666 0.0
C262 C 0.56376 0.10867 0.46419 0.0
O263 O 0.53263 0.07164 0.46298 0.0
C264 C 0.68148 0.1212 0.71987 0.0
O265 O 0.69991 0.16263 0.70024 0.0
O266 O 0.58013 0.00138 0.52635 0.0
O267 O 0.67336 0.06325 0.58189 0.0
O268 O 0.67187 0.14464 0.57617 0.0
C269 C 0.599 0.96093 0.51032 0.0
O270 O 0.64463 0.94964 0.52361 0.0
O271 O 0.58928 0.11603 0.50905 0.0
C272 C 0.58839 0.23119 0.70746 0.0
O273 O 0.55293 0.19979 0.71884 0.0
O274 O 0.62165 0.21974 0.67157 0.0
O275 O 0.54669 0.14225 0.61746 0.0
O276 O 0.55534 0.0643 0.63711 0.0
O277 O 0.64109 0.10546 0.6994 0.0
C278 C 0.69497 0.1039 0.57117 0.0
C279 C 0.52951 0.10302 0.63876 0.0
Zn280 Zn 0.62956 0.85035 0.31855 0.0
Zn281 Zn 0.53996 0.86868 0.38666 0.0
C282 C 0.58293 0.81375 0.21419 0.0
O283 O 0.61996 0.78262 0.21297 0.0
C284 C 0.5704 0.93147 0.46987 0.0
O285 O 0.52897 0.94989 0.45024 0.0
O286 O 0.69022 0.83011 0.27635 0.0
O287 O 0.62835 0.92335 0.33189 0.0
O288 O 0.54696 0.92186 0.32617 0.0
C289 C 0.73067 0.84899 0.26032 0.0
O290 O 0.74196 0.89462 0.27361 0.0
O291 O 0.57557 0.83927 0.25905 0.0
C292 C 0.46041 0.83838 0.45746 0.0
O293 O 0.49181 0.80291 0.46884 0.0
O294 O 0.47186 0.87163 0.42157 0.0
O295 O 0.54935 0.79668 0.36746 0.0
O296 O 0.6273 0.80533 0.38711 0.0
O297 O 0.58614 0.89107 0.4494 0.0
C298 C 0.5877 0.94495 0.32117 0.0
C299 C 0.58858 0.77949 0.38876 0.0
Zn300 Zn 0.84125 0.87955 0.06856 0.0
Zn301 Zn 0.82292 0.78995 0.13665 0.0
C302 C 0.87786 0.83293 0.96419 0.0
O303 O 0.90899 0.86997 0.96298 0.0
C304 C 0.76013 0.82039 0.21987 0.0
O305 O 0.7417 0.77895 0.20024 0.0
O306 O 0.86149 0.94022 1.02637 0.0
O307 O 0.76825 0.87834 0.08189 0.0
O308 O 0.76974 0.79695 0.07617 0.0
C309 C 0.84261 -0.01934 1.01033 0.0
O310 O 0.79697 -0.00806 1.02357 0.0
O311 O 0.85234 0.82557 1.00905 0.0
C312 C 0.85322 0.71039 0.20746 0.0
O313 O 0.88868 0.7418 0.21884 0.0
O314 O 0.81997 0.72185 0.17157 0.0
O315 O 0.89492 0.79934 0.11746 0.0
O316 O 0.88627 0.87729 0.13712 0.0
O317 O 0.80052 0.83613 0.1994 0.0
C318 C 0.74665 0.83769 0.07117 0.0
C319 C 0.91211 0.83857 0.13877 0.0
Zn320 Zn 0.53996 0.57291 0.88666 0.0
Zn321 Zn 0.62956 0.59123 0.81855 0.0
C322 C 0.5704 0.51013 0.96989 0.0
O323 O 0.52896 0.49171 0.95026 0.0
C324 C 0.58293 0.62782 0.71418 0.0
O325 O 0.61996 0.65895 0.713 0.0
O326 O 0.47186 0.56996 0.92157 0.0
O327 O 0.54936 0.64492 0.86746 0.0
O328 O 0.62731 0.63626 0.8871 0.0
C329 C 0.4604 0.60322 0.95746 0.0
O330 O 0.49181 0.63868 0.96883 0.0
O331 O 0.58614 0.55052 0.9494 0.0
C332 C 0.73067 0.59259 0.76031 0.0
O333 O 0.74199 0.54698 0.77364 0.0
O334 O 0.69022 0.61146 0.77634 0.0
O335 O 0.62835 0.51823 0.83189 0.0
O336 O 0.54695 0.51973 0.82617 0.0
O337 O 0.57557 0.60231 0.75905 0.0
C338 C 0.58859 0.6621 0.88875 0.0
C339 C 0.5877 0.49663 0.82118 0.0
Zn340 Zn 0.61869 0.28995 0.13665 0.0
Zn341 Zn 0.60037 0.37955 0.06855 0.0
C342 C 0.68147 0.32039 0.21989 0.0
O343 O 0.69989 0.27895 0.20026 0.0
C344 C 0.56378 0.33293 0.96418 0.0
O345 O 0.53265 0.36997 0.963 0.0
O346 O 0.62164 0.22185 0.17157 0.0
O347 O 0.54669 0.29934 0.11745 0.0
O348 O 0.55534 0.37729 0.13711 0.0
C349 C 0.58838 0.21039 0.20746 0.0
O350 O 0.55292 0.2418 0.21883 0.0
O351 O 0.64108 0.33613 0.1994 0.0
C352 C 0.59901 0.48066 1.01032 0.0
O353 O 0.64464 0.49196 1.0236 0.0
O354 O 0.58014 0.44022 1.02636 0.0
O355 O 0.67337 0.37834 0.08189 0.0
O356 O 0.67187 0.29694 0.07617 0.0
O357 O 0.58929 0.32556 1.00905 0.0
C358 C 0.5295 0.33857 0.13875 0.0
C359 C 0.69497 0.33769 0.07118 0.0
Zn360 Zn 0.90165 0.36868 0.38666 0.0
Zn361 Zn 0.81205 0.35035 0.31855 0.0
C362 C 0.87122 0.43145 0.46989 0.0
O363 O 0.91265 0.44988 0.45026 0.0
C364 C 0.85867 0.31376 0.21418 0.0
O365 O 0.82163 0.28263 0.213 0.0
O366 O 0.96975 0.37163 0.42157 0.0
O367 O 0.89226 0.29667 0.36745 0.0
O368 O 0.81431 0.30533 0.38711 0.0
C369 C -0.01879 0.33837 0.45746 0.0
O370 O 0.94981 0.3029 0.46883 0.0
O371 O 0.85547 0.39107 0.4494 0.0
C372 C 0.71094 0.349 0.26032 0.0
O373 O 0.69964 0.39463 0.2736 0.0
O374 O 0.75138 0.33012 0.27636 0.0
O375 O 0.81326 0.42335 0.33189 0.0
O376 O 0.89466 0.42186 0.32617 0.0
O377 O 0.86604 0.33927 0.25905 0.0
C378 C 0.85303 0.27949 0.38876 0.0
C379 C 0.85391 0.44495 0.32118 0.0
Zn380 Zn 0.82292 0.65164 0.63666 0.0
Zn381 Zn 0.84125 0.56204 0.56855 0.0
C382 C 0.76014 0.6212 0.71987 0.0
O383 O 0.74171 0.66263 0.70024 0.0
C384 C 0.87784 0.60866 0.46418 0.0
O385 O 0.90897 0.57162 0.463 0.0
O386 O 0.81997 0.71974 0.67158 0.0
O387 O 0.89493 0.64224 0.61745 0.0
O388 O 0.88628 0.5643 0.63711 0.0
C389 C 0.85323 0.73119 0.70746 0.0
O390 O 0.88869 0.69979 0.71883 0.0
O391 O 0.80053 0.60546 0.6994 0.0
C392 C 0.8426 0.46092 0.51032 0.0
O393 O 0.79697 0.44963 0.5236 0.0
O394 O 0.86148 0.50137 0.52636 0.0
O395 O 0.76825 0.56325 0.5819 0.0
O396 O 0.76974 0.64464 0.57617 0.0
O397 O 0.85233 0.61602 0.50905 0.0
C398 C 0.91211 0.60302 0.63875 0.0
C399 C 0.74665 0.6039 0.57118 0.0
Zn400 Zn 0.53996 0.36868 0.73728 0.0
Zn401 Zn 0.62956 0.35035 0.80538 0.0
C402 C 0.57039 0.43146 0.65405 0.0
O403 O 0.52896 0.44989 0.67368 0.0
C404 C 0.58292 0.31374 0.90974 0.0
O405 O 0.61995 0.2826 0.91095 0.0
O406 O 0.47186 0.37163 0.70236 0.0
O407 O 0.54936 0.29667 0.75647 0.0
O408 O 0.62731 0.30532 0.73683 0.0
C409 C 0.4604 0.33837 0.66647 0.0
O410 O 0.49181 0.30291 0.6551 0.0
O411 O 0.58613 0.39107 0.67453 0.0
C412 C 0.73066 0.34899 0.86362 0.0
O413 O 0.74198 0.3946 0.85029 0.0
O414 O 0.69021 0.33012 0.8476 0.0
O415 O 0.62835 0.42335 0.79204 0.0
O416 O 0.54695 0.42186 0.79776 0.0
O417 O 0.57556 0.33926 0.86488 0.0
C418 C 0.58859 0.27949 0.73517 0.0
C419 C 0.5877 0.44495 0.80276 0.0
Zn420 Zn 0.82292 0.28995 0.98728 0.0
Zn421 Zn 0.84125 0.37954 1.05538 0.0
C422 C 0.76013 0.32038 0.90406 0.0
O423 O 0.7417 0.27896 0.9237 0.0
C424 C 0.87786 0.33291 0.15973 0.0
O425 O 0.909 0.36994 0.16095 0.0
O426 O 0.81997 0.22185 0.95236 0.0
O427 O 0.89493 0.29934 1.00647 0.0
O428 O 0.88628 0.37729 0.98683 0.0
C429 C 0.85323 0.21039 0.91647 0.0
O430 O 0.88869 0.2418 0.9051 0.0
O431 O 0.80053 0.33612 0.92453 0.0
C432 C 0.84261 0.48065 0.11362 0.0
O433 O 0.797 0.49197 0.10029 0.0
O434 O 0.86148 0.4402 0.0976 0.0
O435 O 0.76825 0.37833 1.04204 0.0
O436 O 0.76974 0.29694 1.04776 0.0
O437 O 0.85233 0.32555 0.11488 0.0
C438 C 0.91211 0.33857 0.98517 0.0
C439 C 0.74665 0.33769 1.05276 0.0
Zn440 Zn 0.90166 0.57291 0.23727 0.0
Zn441 Zn 0.81206 0.59124 0.30538 0.0
C442 C 0.87122 0.51012 0.15406 0.0
O443 O 0.91265 0.49169 0.1737 0.0
C444 C 0.85869 0.62785 0.40974 0.0
O445 O 0.82166 0.65899 0.41095 0.0
O446 O 0.96976 0.56996 0.20236 0.0
O447 O 0.89226 0.64492 0.25647 0.0
O448 O 0.81431 0.63626 0.23683 0.0
C449 C -0.01879 0.60321 0.16647 0.0
O450 O 0.9498 0.63868 0.1551 0.0
O451 O 0.85548 0.55052 0.17453 0.0
C452 C 0.71095 0.5926 0.36362 0.0
O453 O 0.69963 0.54699 0.35029 0.0
O454 O 0.7514 0.61147 0.3476 0.0
O455 O 0.81327 0.51824 0.29204 0.0
O456 O 0.89466 0.51973 0.29776 0.0
O457 O 0.86605 0.60232 0.36488 0.0
C458 C 0.85303 0.6621 0.23517 0.0
C459 C 0.85391 0.49664 0.30276 0.0
Zn460 Zn 0.61869 0.65164 0.48728 0.0
Zn461 Zn 0.60036 0.56204 0.55538 0.0
C462 C 0.68148 0.62121 0.40407 0.0
O463 O 0.69991 0.66263 0.4237 0.0
C464 C 0.56375 0.60867 0.65973 0.0
O465 O 0.53262 0.57164 0.66095 0.0
O466 O 0.62164 0.71974 0.45236 0.0
O467 O 0.54669 0.64224 0.50647 0.0
O468 O 0.55534 0.5643 0.48682 0.0
C469 C 0.58839 0.7312 0.41647 0.0
O470 O 0.55292 0.69979 0.4051 0.0
O471 O 0.64109 0.60547 0.42453 0.0
C472 C 0.599 0.46093 0.61362 0.0
O473 O 0.64463 0.44963 0.60032 0.0
O474 O 0.58013 0.50138 0.59758 0.0
O475 O 0.67336 0.56325 0.54204 0.0
O476 O 0.67187 0.64465 0.54776 0.0
O477 O 0.58927 0.61603 0.61488 0.0
C478 C 0.5295 0.60301 0.48517 0.0
C479 C 0.69496 0.6039 0.55276 0.0
Zn480 Zn 0.31205 0.35035 0.30537 0.0
Zn481 Zn 0.40165 0.36868 0.23727 0.0
C482 C 0.35867 0.31378 0.40975 0.0
O483 O 0.32164 0.28265 0.41094 0.0
C484 C 0.37121 0.43145 0.15403 0.0
O485 O 0.41265 0.44988 0.17365 0.0
O486 O 0.25138 0.33012 0.34757 0.0
O487 O 0.31326 0.42335 0.29203 0.0
O488 O 0.39466 0.42186 0.29775 0.0
C489 C 0.21094 0.349 0.3636 0.0
O490 O 0.19965 0.39463 0.35032 0.0
O491 O 0.36604 0.33928 0.36488 0.0
C492 C 0.48121 0.33838 0.16646 0.0
O493 O 0.4498 0.30291 0.15509 0.0
O494 O 0.46975 0.37163 0.20235 0.0
O495 O 0.39226 0.29668 0.25647 0.0
O496 O 0.31431 0.30533 0.23682 0.0
O497 O 0.35547 0.39107 0.17452 0.0
C498 C 0.35391 0.44496 0.30275 0.0
C499 C 0.35303 0.27949 0.23517 0.0
Zn500 Zn 0.34125 0.56203 1.05537 0.0
Zn501 Zn 0.32292 0.65164 0.98727 0.0
C502 C 0.37783 0.60865 0.15975 0.0
O503 O 0.40895 0.57161 0.16094 0.0
C504 C 0.26015 0.6212 0.90403 0.0
O505 O 0.24172 0.66264 0.92365 0.0
O506 O 0.36148 0.50136 0.09755 0.0
O507 O 0.26825 0.56325 1.04203 0.0
O508 O 0.26974 0.64464 1.04775 0.0
C509 C 0.3426 0.46092 0.11359 0.0
O510 O 0.29695 0.44965 0.10036 0.0
O511 O 0.35233 0.61601 0.11488 0.0
C512 C 0.35322 0.73119 0.91646 0.0
O513 O 0.38869 0.69979 0.90509 0.0
O514 O 0.31997 0.71974 0.95235 0.0
O515 O 0.39492 0.64225 1.00647 0.0
O516 O 0.38627 0.5643 0.98681 0.0
O517 O 0.30053 0.60546 0.92453 0.0
C518 C 0.24665 0.6039 1.05275 0.0
C519 C 0.41211 0.60302 0.98517 0.0
Zn520 Zn 0.12957 0.59123 0.80537 0.0
Zn521 Zn 0.03996 0.57291 0.73727 0.0
C522 C 0.08295 0.62782 0.90975 0.0
O523 O 0.11999 0.65894 0.91094 0.0
C524 C 0.0704 0.51013 0.65403 0.0
O525 O 0.02896 0.49171 0.67365 0.0
O526 O 0.19024 0.61147 0.84755 0.0
O527 O 0.12835 0.51823 0.79203 0.0
O528 O 0.04696 0.51973 0.79775 0.0
C529 C 0.23068 0.59259 0.8636 0.0
O530 O 0.24195 0.54694 0.85036 0.0
O531 O 0.07559 0.60231 0.86488 0.0
C532 C 0.96041 0.60321 0.66646 0.0
O533 O -0.00819 0.63868 0.65509 0.0
O534 O -0.02814 0.56996 0.70235 0.0
O535 O 0.04936 0.64491 0.75647 0.0
O536 O 0.1273 0.63626 0.73681 0.0
O537 O 0.08614 0.55052 0.67453 0.0
C538 C 0.0877 0.49663 0.80275 0.0
C539 C 0.08858 0.6621 0.73517 0.0
Zn540 Zn 0.10037 0.37956 0.55537 0.0
Zn541 Zn 0.1187 0.28995 0.48727 0.0
C542 C 0.06378 0.33294 0.65975 0.0
O543 O 0.03266 0.36998 0.66094 0.0
C544 C 0.18147 0.32039 0.40405 0.0
O545 O 0.1999 0.27896 0.42367 0.0
O546 O 0.08013 0.44023 0.59755 0.0
O547 O 0.17337 0.37834 0.54203 0.0
O548 O 0.17187 0.29695 0.54775 0.0
C549 C 0.09901 0.48067 0.61359 0.0
O550 O 0.14466 0.49194 0.60036 0.0
O551 O 0.08929 0.32557 0.61488 0.0
C552 C 0.08839 0.2104 0.41646 0.0
O553 O 0.05293 0.2418 0.40509 0.0
O554 O 0.12165 0.22185 0.45235 0.0
O555 O 0.04669 0.29934 0.50647 0.0
O556 O 0.05534 0.37729 0.48681 0.0
O557 O 0.14108 0.33613 0.42452 0.0
C558 C 0.19497 0.33769 0.55275 0.0
C559 C 0.0295 0.33857 0.48517 0.0
Zn560 Zn 0.31205 0.59124 0.31855 0.0
Zn561 Zn 0.40165 0.57291 0.38665 0.0
C562 C 0.35868 0.62784 0.21419 0.0
O563 O 0.32165 0.65897 0.21298 0.0
C564 C 0.37122 0.51013 0.46989 0.0
O565 O 0.41265 0.4917 0.45026 0.0
O566 O 0.25139 0.61147 0.27635 0.0
O567 O 0.31327 0.51824 0.33189 0.0
O568 O 0.39466 0.51973 0.32617 0.0
C569 C 0.21095 0.5926 0.26032 0.0
O570 O 0.19966 0.54697 0.27361 0.0
O571 O 0.36604 0.60232 0.25905 0.0
C572 C 0.48121 0.60321 0.45746 0.0
O573 O 0.4498 0.63868 0.46883 0.0
O574 O 0.46975 0.56996 0.42157 0.0
O575 O 0.39226 0.64491 0.36746 0.0
O576 O 0.31431 0.63626 0.38711 0.0
O577 O 0.35548 0.55051 0.4494 0.0
C578 C 0.35391 0.49664 0.32117 0.0
C579 C 0.35303 0.6621 0.38876 0.0
Zn580 Zn 0.10036 0.56204 0.06855 0.0
Zn581 Zn 0.1187 0.65164 0.13666 0.0
C582 C 0.06376 0.60867 0.96419 0.0
O583 O 0.03263 0.57164 0.96298 0.0
C584 C 0.18148 0.6212 0.21987 0.0
O585 O 0.19991 0.66263 0.20024 0.0
O586 O 0.08013 0.50138 1.02635 0.0
O587 O 0.17336 0.56325 0.08189 0.0
O588 O 0.17187 0.64464 0.07617 0.0
C589 C 0.099 0.46093 1.01032 0.0
O590 O 0.14463 0.44964 1.02361 0.0
O591 O 0.08928 0.61603 1.00905 0.0
C592 C 0.08839 0.73119 0.20746 0.0
O593 O 0.05293 0.69979 0.21884 0.0
O594 O 0.12165 0.71974 0.17157 0.0
O595 O 0.04669 0.64225 0.11746 0.0
O596 O 0.05534 0.5643 0.13711 0.0
O597 O 0.14109 0.60546 0.1994 0.0
C598 C 0.19497 0.6039 0.07117 0.0
C599 C 0.0295 0.60302 0.13876 0.0
Zn600 Zn 0.12956 0.35035 0.81855 0.0
Zn601 Zn 0.03996 0.36868 0.88666 0.0
C602 C 0.08293 0.31375 0.71419 0.0
O603 O 0.11996 0.28261 0.71298 0.0
C604 C 0.0704 0.43147 0.96987 0.0
O605 O 0.02897 0.44989 0.95024 0.0
O606 O 0.19022 0.33011 0.77635 0.0
O607 O 0.12835 0.42335 0.83189 0.0
O608 O 0.04696 0.42186 0.82617 0.0
C609 C 0.23067 0.34899 0.76032 0.0
O610 O 0.24196 0.39462 0.77361 0.0
O611 O 0.07557 0.33927 0.75905 0.0
C612 C 0.96041 0.33838 0.95746 0.0
O613 O -0.00819 0.30291 0.96884 0.0
O614 O -0.02814 0.37163 0.92157 0.0
O615 O 0.04936 0.29668 0.86746 0.0
O616 O 0.1273 0.30533 0.88711 0.0
O617 O 0.08614 0.39108 0.9494 0.0
C618 C 0.0877 0.44495 0.82117 0.0
C619 C 0.08858 0.27949 0.88876 0.0
Zn620 Zn 0.34125 0.37955 0.56856 0.0
Zn621 Zn 0.32292 0.28995 0.63665 0.0
C622 C 0.37786 0.33293 0.46419 0.0
O623 O 0.40899 0.36997 0.46298 0.0
C624 C 0.26013 0.32039 0.71987 0.0
O625 O 0.2417 0.27895 0.70024 0.0
O626 O 0.36149 0.44022 0.52637 0.0
O627 O 0.26825 0.37834 0.58189 0.0
O628 O 0.26974 0.29695 0.57617 0.0
C629 C 0.34261 0.48066 0.51033 0.0
O630 O 0.29697 0.49194 0.52357 0.0
O631 O 0.35234 0.32557 0.50905 0.0
C632 C 0.35322 0.21039 0.70746 0.0
O633 O 0.38868 0.2418 0.71884 0.0
O634 O 0.31997 0.22185 0.67157 0.0
O635 O 0.39492 0.29934 0.61746 0.0
O636 O 0.38627 0.37729 0.63712 0.0
O637 O 0.30052 0.33613 0.6994 0.0
C638 C 0.24665 0.33769 0.57117 0.0
C639 C 0.41211 0.33857 0.63877 0.0
loop_
_geom_bond_atom_site_label_1
_geom_bond_atom_site_label_2
_geom_bond_distance
_geom_bond_site_symmetry_2
_ccdc_geom_bond_type
Zn0 O6 1.969 1_455 S
Zn0 O7 1.965 . S
Zn0 O11 2.024 . S
Zn0 O16 1.969 . S
Zn1 O8 1.969 . S
Zn1 O14 1.969 . S
Zn1 O15 1.965 . S
Zn1 O17 2.024 . S
C2 O3 1.229 . S
C2 O11 1.058 . S
O3 C2 1.229 . S
C4 O5 1.229 . S
C4 O17 1.058 . S
O5 C4 1.229 . S
O6 Zn0 1.969 1_655 S
O6 C9 1.267 . S
O7 Zn0 1.965 . S
O7 C18 1.260 . S
O8 Zn1 1.969 . S
O8 C18 1.258 . S
C9 O6 1.267 . S
C9 O10 1.228 . S
O10 C9 1.228 . S
O11 Zn0 2.024 . S
O11 C2 1.058 . S
C12 O13 1.228 . S
C12 O14 1.267 . S
O13 C12 1.228 . S
O14 Zn1 1.969 . S
O14 C12 1.267 . S
O15 Zn1 1.965 . S
O15 C19 1.260 . S
O16 Zn0 1.969 . S
O16 C19 1.258 . S
O17 Zn1 2.024 . S
O17 C4 1.058 . S
C18 O7 1.260 . S
C18 O8 1.258 . S
C19 O15 1.260 . S
C19 O16 1.258 . S
Zn20 O26 1.969 . S
Zn20 O27 1.965 . S
Zn20 O31 2.024 . S
Zn20 O36 1.969 . S
Zn21 O28 1.969 . S
Zn21 O34 1.969 . S
Zn21 O35 1.965 . S
Zn21 O37 2.024 . S
C22 O23 1.229 . S
C22 O31 1.058 . S
O23 C22 1.229 . S
C24 O25 1.229 . S
C24 O37 1.058 . S
O25 C24 1.229 . S
O26 Zn20 1.969 . S
O26 C29 1.267 . S
O27 Zn20 1.965 . S
O27 C38 1.260 . S
O28 Zn21 1.969 . S
O28 C38 1.258 . S
C29 O26 1.267 . S
C29 O30 1.228 . S
O30 C29 1.228 . S
O31 Zn20 2.024 . S
O31 C22 1.058 . S
C32 O33 1.228 . S
C32 O34 1.267 . S
O33 C32 1.228 . S
O34 Zn21 1.969 . S
O34 C32 1.267 . S
O35 Zn21 1.965 . S
O35 C39 1.260 . S
O36 Zn20 1.969 . S
O36 C39 1.258 . S
O37 Zn21 2.024 . S
O37 C24 1.058 . S
C38 O27 1.260 . S
C38 O28 1.258 . S
C39 O35 1.260 . S
C39 O36 1.258 . S
Zn40 O46 1.969 . S
Zn40 O47 1.965 . S
Zn40 O51 2.024 . S
Zn40 O56 1.969 . S
Zn41 O48 1.969 . S
Zn41 O54 1.969 . S
Zn41 O55 1.965 . S
Zn41 O57 2.024 . S
C42 O43 1.229 . S
C42 O51 1.058 . S
O43 C42 1.229 . S
C44 O45 1.229 . S
C44 O57 1.058 . S
O45 C44 1.229 . S
O46 Zn40 1.969 . S
O46 C49 1.267 . S
O47 Zn40 1.965 . S
O47 C58 1.260 . S
O48 Zn41 1.969 . S
O48 C58 1.258 . S
C49 O46 1.267 . S
C49 O50 1.228 . S
O50 C49 1.228 . S
O51 Zn40 2.024 . S
O51 C42 1.058 . S
C52 O53 1.228 . S
C52 O54 1.267 . S
O53 C52 1.228 . S
O54 Zn41 1.969 . S
O54 C52 1.267 . S
O55 Zn41 1.965 . S
O55 C59 1.260 . S
O56 Zn40 1.969 . S
O56 C59 1.258 . S
O57 Zn41 2.024 . S
O57 C44 1.058 . S
C58 O47 1.260 . S
C58 O48 1.258 . S
C59 O55 1.260 . S
C59 O56 1.258 . S
Zn60 O66 1.969 . S
Zn60 O67 1.965 . S
Zn60 O71 2.024 . S
Zn60 O76 1.969 . S
Zn61 O68 1.969 1_556 S
Zn61 O74 1.969 . S
Zn61 O75 1.965 1_556 S
Zn61 O77 2.024 . S
C62 O63 1.229 . S
C62 O71 1.058 . S
O63 C62 1.229 . S
C64 O65 1.229 . S
C64 O77 1.058 . S
O65 C64 1.229 . S
O66 Zn60 1.969 . S
O66 C69 1.267 . S
O67 Zn60 1.965 . S
O67 C78 1.260 . S
O68 Zn61 1.969 1_554 S
O68 C78 1.258 . S
C69 O66 1.267 . S
C69 O70 1.228 . S
O70 C69 1.228 . S
O71 Zn60 2.024 . S
O71 C62 1.058 . S
C72 O73 1.228 . S
C72 O74 1.267 . S
O73 C72 1.228 . S
O74 Zn61 1.969 . S
O74 C72 1.267 . S
O75 Zn61 1.965 1_554 S
O75 C79 1.260 . S
O76 Zn60 1.969 . S
O76 C79 1.258 . S
O77 Zn61 2.024 . S
O77 C64 1.058 . S
C78 O67 1.260 . S
C78 O68 1.258 . S
C79 O75 1.260 . S
C79 O76 1.258 . S
Zn80 O86 1.969 1_455 S
Zn80 O87 1.965 . S
Zn80 O91 2.024 . S
Zn80 O96 1.969 . S
Zn81 O88 1.969 . S
Zn81 O94 1.969 . S
Zn81 O95 1.965 . S
Zn81 O97 2.024 . S
C82 O83 1.229 . S
C82 O91 1.058 . S
O83 C82 1.229 . S
C84 O85 1.229 . S
C84 O97 1.058 . S
O85 C84 1.229 . S
O86 Zn80 1.969 1_655 S
O86 C89 1.267 . S
O87 Zn80 1.965 . S
O87 C98 1.260 . S
O88 Zn81 1.969 . S
O88 C98 1.258 . S
C89 O86 1.267 . S
C89 O90 1.228 . S
O90 C89 1.228 . S
O91 Zn80 2.024 . S
O91 C82 1.058 . S
C92 O93 1.228 . S
C92 O94 1.267 . S
O93 C92 1.228 . S
O94 Zn81 1.969 . S
O94 C92 1.267 . S
O95 Zn81 1.965 . S
O95 C99 1.260 . S
O96 Zn80 1.969 . S
O96 C99 1.258 . S
O97 Zn81 2.024 . S
O97 C84 1.058 . S
C98 O87 1.260 . S
C98 O88 1.258 . S
C99 O95 1.260 . S
C99 O96 1.258 . S
Zn100 O106 1.969 . S
Zn100 O107 1.965 . S
Zn100 O111 2.024 . S
Zn100 O116 1.969 . S
Zn101 O108 1.969 . S
Zn101 O114 1.969 . S
Zn101 O115 1.965 . S
Zn101 O117 2.024 . S
C102 O103 1.229 . S
C102 O111 1.058 . S
O103 C102 1.229 . S
C104 O105 1.229 . S
C104 O117 1.058 . S
O105 C104 1.229 . S
O106 Zn100 1.969 . S
O106 C109 1.267 . S
O107 Zn100 1.965 . S
O107 C118 1.260 . S
O108 Zn101 1.969 . S
O108 C118 1.258 . S
C109 O106 1.267 . S
C109 O110 1.228 . S
O110 C109 1.228 . S
O111 Zn100 2.024 . S
O111 C102 1.058 . S
C112 O113 1.228 . S
C112 O114 1.267 . S
O113 C112 1.228 . S
O114 Zn101 1.969 . S
O114 C112 1.267 . S
O115 Zn101 1.965 . S
O115 C119 1.260 . S
O116 Zn100 1.969 . S
O116 C119 1.258 . S
O117 Zn101 2.024 . S
O117 C104 1.058 . S
C118 O107 1.260 . S
C118 O108 1.258 . S
C119 O115 1.260 . S
C119 O116 1.258 . S
Zn120 O126 1.969 . S
Zn120 O127 1.965 . S
Zn120 O131 2.024 . S
Zn120 O136 1.969 . S
Zn121 O128 1.969 . S
Zn121 O134 1.969 . S
Zn121 O135 1.965 . S
Zn121 O137 2.024 . S
C122 O123 1.229 . S
C122 O131 1.058 . S
O123 C122 1.229 . S
C124 O125 1.229 . S
C124 O137 1.058 . S
O125 C124 1.229 . S
O126 Zn120 1.969 . S
O126 C129 1.267 . S
O127 Zn120 1.965 . S
O127 C138 1.260 . S
O128 Zn121 1.969 . S
O128 C138 1.258 . S
C129 O126 1.267 . S
C129 O130 1.228 . S
O130 C129 1.228 . S
O131 Zn120 2.024 . S
O131 C122 1.058 . S
C132 O133 1.228 . S
C132 O134 1.267 . S
O133 C132 1.228 . S
O134 Zn121 1.969 . S
O134 C132 1.267 . S
O135 Zn121 1.965 . S
O135 C139 1.260 . S
O136 Zn120 1.969 . S
O136 C139 1.258 . S
O137 Zn121 2.024 . S
O137 C124 1.058 . S
C138 O127 1.260 . S
C138 O128 1.258 . S
C139 O135 1.260 . S
C139 O136 1.258 . S
Zn140 O146 1.969 . S
Zn140 O147 1.965 . S
Zn140 O151 2.024 . S
Zn140 O156 1.969 . S
Zn141 O148 1.969 1_554 S
Zn141 O154 1.969 . S
Zn141 O155 1.965 1_554 S
Zn141 O157 2.024 . S
C142 O143 1.229 . S
C142 O151 1.058 . S
O143 C142 1.229 . S
C144 O145 1.229 . S
C144 O157 1.058 . S
O145 C144 1.229 . S
O146 Zn140 1.969 . S
O146 C149 1.267 . S
O147 Zn140 1.965 . S
O147 C158 1.260 . S
O148 Zn141 1.969 1_556 S
O148 C158 1.258 . S
C149 O146 1.267 . S
C149 O150 1.228 . S
O150 C149 1.228 . S
O151 Zn140 2.024 . S
O151 C142 1.058 . S
C152 O153 1.228 . S
C152 O154 1.267 . S
O153 C152 1.228 . S
O154 Zn141 1.969 . S
O154 C152 1.267 . S
O155 Zn141 1.965 1_556 S
O155 C159 1.260 . S
O156 Zn140 1.969 . S
O156 C159 1.258 . S
O157 Zn141 2.024 . S
O157 C144 1.058 . S
C158 O147 1.260 . S
C158 O148 1.258 . S
C159 O155 1.260 . S
C159 O156 1.258 . S
Zn160 O166 1.969 . S
Zn160 O167 1.965 . S
Zn160 O171 2.024 . S
Zn160 O176 1.969 . S
Zn161 O168 1.969 . S
Zn161 O174 1.969 1_655 S
Zn161 O175 1.965 . S
Zn161 O177 2.024 . S
C162 O163 1.229 . S
C162 O171 1.058 . S
O163 C162 1.229 . S
C164 O165 1.229 . S
C164 O177 1.058 . S
O165 C164 1.229 . S
O166 Zn160 1.969 . S
O166 C169 1.267 . S
O167 Zn160 1.965 . S
O167 C178 1.260 . S
O168 Zn161 1.969 . S
O168 C178 1.258 . S
C169 O166 1.267 . S
C169 O170 1.228 . S
O170 C169 1.228 . S
O171 Zn160 2.024 . S
O171 C162 1.058 . S
C172 O173 1.228 . S
C172 O174 1.267 . S
O173 C172 1.228 . S
O174 Zn161 1.969 1_455 S
O174 C172 1.267 . S
O175 Zn161 1.965 . S
O175 C179 1.260 . S
O176 Zn160 1.969 . S
O176 C179 1.258 . S
O177 Zn161 2.024 . S
O177 C164 1.058 . S
C178 O167 1.260 . S
C178 O168 1.258 . S
C179 O175 1.260 . S
C179 O176 1.258 . S
Zn180 O186 1.969 . S
Zn180 O187 1.965 . S
Zn180 O191 2.024 . S
Zn180 O196 1.969 . S
Zn181 O188 1.969 . S
Zn181 O194 1.969 . S
Zn181 O195 1.965 . S
Zn181 O197 2.024 . S
C182 O183 1.229 . S
C182 O191 1.058 . S
O183 C182 1.229 . S
C184 O185 1.229 . S
C184 O197 1.058 . S
O185 C184 1.229 . S
O186 Zn180 1.969 . S
O186 C189 1.267 . S
O187 Zn180 1.965 . S
O187 C198 1.260 . S
O188 Zn181 1.969 . S
O188 C198 1.258 . S
C189 O186 1.267 . S
C189 O190 1.228 . S
O190 C189 1.228 . S
O191 Zn180 2.024 . S
O191 C182 1.058 . S
C192 O193 1.228 . S
C192 O194 1.267 . S
O193 C192 1.228 . S
O194 Zn181 1.969 . S
O194 C192 1.267 . S
O195 Zn181 1.965 . S
O195 C199 1.260 . S
O196 Zn180 1.969 . S
O196 C199 1.258 . S
O197 Zn181 2.024 . S
O197 C184 1.058 . S
C198 O187 1.260 . S
C198 O188 1.258 . S
C199 O195 1.260 . S
C199 O196 1.258 . S
Zn200 O206 1.969 . S
Zn200 O207 1.965 . S
Zn200 O211 2.024 . S
Zn200 O216 1.969 . S
Zn201 O208 1.969 . S
Zn201 O214 1.969 . S
Zn201 O215 1.965 . S
Zn201 O217 2.024 . S
C202 O203 1.229 . S
C202 O211 1.058 . S
O203 C202 1.229 . S
C204 O205 1.229 . S
C204 O217 1.058 . S
O205 C204 1.229 . S
O206 Zn200 1.969 . S
O206 C209 1.267 . S
O207 Zn200 1.965 . S
O207 C218 1.260 . S
O208 Zn201 1.969 . S
O208 C218 1.258 . S
C209 O206 1.267 . S
C209 O210 1.228 . S
O210 C209 1.228 . S
O211 Zn200 2.024 . S
O211 C202 1.058 . S
C212 O213 1.228 . S
C212 O214 1.267 . S
O213 C212 1.228 . S
O214 Zn201 1.969 . S
O214 C212 1.267 . S
O215 Zn201 1.965 . S
O215 C219 1.260 . S
O216 Zn200 1.969 . S
O216 C219 1.258 . S
O217 Zn201 2.024 . S
O217 C204 1.058 . S
C218 O207 1.260 . S
C218 O208 1.258 . S
C219 O215 1.260 . S
C219 O216 1.258 . S
Zn220 O226 1.969 . S
Zn220 O227 1.965 1_554 S
Zn220 O231 2.024 . S
Zn220 O236 1.969 1_554 S
Zn221 O228 1.969 . S
Zn221 O234 1.969 . S
Zn221 O235 1.965 . S
Zn221 O237 2.024 . S
C222 O223 1.229 . S
C222 O231 1.058 . S
O223 C222 1.229 . S
C224 O225 1.229 . S
C224 O237 1.058 . S
O225 C224 1.229 . S
O226 Zn220 1.969 . S
O226 C229 1.267 . S
O227 Zn220 1.965 1_556 S
O227 C238 1.260 . S
O228 Zn221 1.969 . S
O228 C238 1.258 . S
C229 O226 1.267 . S
C229 O230 1.228 . S
O230 C229 1.228 . S
O231 Zn220 2.024 . S
O231 C222 1.058 . S
C232 O233 1.228 . S
C232 O234 1.267 . S
O233 C232 1.228 . S
O234 Zn221 1.969 . S
O234 C232 1.267 . S
O235 Zn221 1.965 . S
O235 C239 1.260 . S
O236 Zn220 1.969 1_556 S
O236 C239 1.258 . S
O237 Zn221 2.024 . S
O237 C224 1.058 . S
C238 O227 1.260 . S
C238 O228 1.258 . S
C239 O235 1.260 . S
C239 O236 1.258 . S
Zn240 O246 1.969 . S
Zn240 O247 1.965 . S
Zn240 O251 2.024 . S
Zn240 O256 1.969 . S
Zn241 O248 1.969 . S
Zn241 O254 1.969 1_655 S
Zn241 O255 1.965 . S
Zn241 O257 2.024 . S
C242 O243 1.229 . S
C242 O251 1.058 . S
O243 C242 1.229 . S
C244 O245 1.229 . S
C244 O257 1.058 . S
O245 C244 1.229 . S
O246 Zn240 1.969 . S
O246 C249 1.267 . S
O247 Zn240 1.965 . S
O247 C258 1.260 . S
O248 Zn241 1.969 . S
O248 C258 1.258 . S
C249 O246 1.267 . S
C249 O250 1.228 . S
O250 C249 1.228 . S
O251 Zn240 2.024 . S
O251 C242 1.058 . S
C252 O253 1.228 . S
C252 O254 1.267 . S
O253 C252 1.228 . S
O254 Zn241 1.969 1_455 S
O254 C252 1.267 . S
O255 Zn241 1.965 . S
O255 C259 1.260 . S
O256 Zn240 1.969 . S
O256 C259 1.258 . S
O257 Zn241 2.024 . S
O257 C244 1.058 . S
C258 O247 1.260 . S
C258 O248 1.258 . S
C259 O255 1.260 . S
C259 O256 1.258 . S
Zn260 O266 1.969 . S
Zn260 O267 1.965 . S
Zn260 O271 2.024 . S
Zn260 O276 1.969 . S
Zn261 O268 1.969 . S
Zn261 O274 1.969 . S
Zn261 O275 1.965 . S
Zn261 O277 2.024 . S
C262 O263 1.229 . S
C262 O271 1.058 . S
O263 C262 1.229 . S
C264 O265 1.229 . S
C264 O277 1.058 . S
O265 C264 1.229 . S
O266 Zn260 1.969 . S
O266 C269 1.267 . S
O267 Zn260 1.965 . S
O267 C278 1.260 . S
O268 Zn261 1.969 . S
O268 C278 1.258 . S
C269 O266 1.267 . S
C269 O270 1.228 . S
O270 C269 1.228 . S
O271 Zn260 2.024 . S
O271 C262 1.058 . S
C272 O273 1.228 . S
C272 O274 1.267 . S
O273 C272 1.228 . S
O274 Zn261 1.969 . S
O274 C272 1.267 . S
O275 Zn261 1.965 . S
O275 C279 1.260 . S
O276 Zn260 1.969 . S
O276 C279 1.258 . S
O277 Zn261 2.024 . S
O277 C264 1.058 . S
C278 O267 1.260 . S
C278 O268 1.258 . S
C279 O275 1.260 . S
C279 O276 1.258 . S
Zn280 O286 1.969 . S
Zn280 O287 1.965 . S
Zn280 O291 2.024 . S
Zn280 O296 1.969 . S
Zn281 O288 1.969 . S
Zn281 O294 1.969 . S
Zn281 O295 1.965 . S
Zn281 O297 2.024 . S
C282 O283 1.229 . S
C282 O291 1.058 . S
O283 C282 1.229 . S
C284 O285 1.229 . S
C284 O297 1.058 . S
O285 C284 1.229 . S
O286 Zn280 1.969 . S
O286 C289 1.267 . S
O287 Zn280 1.965 . S
O287 C298 1.260 . S
O288 Zn281 1.969 . S
O288 C298 1.258 . S
C289 O286 1.267 . S
C289 O290 1.228 . S
O290 C289 1.228 . S
O291 Zn280 2.024 . S
O291 C282 1.058 . S
C292 O293 1.228 . S
C292 O294 1.267 . S
O293 C292 1.228 . S
O294 Zn281 1.969 . S
O294 C292 1.267 . S
O295 Zn281 1.965 . S
O295 C299 1.260 . S
O296 Zn280 1.969 . S
O296 C299 1.258 . S
O297 Zn281 2.024 . S
O297 C284 1.058 . S
C298 O287 1.260 . S
C298 O288 1.258 . S
C299 O295 1.260 . S
C299 O296 1.258 . S
Zn300 O306 1.969 . S
Zn300 O307 1.965 1_556 S
Zn300 O311 2.024 . S
Zn300 O316 1.969 1_556 S
Zn301 O308 1.969 . S
Zn301 O314 1.969 . S
Zn301 O315 1.965 . S
Zn301 O317 2.024 . S
C302 O303 1.229 . S
C302 O311 1.058 . S
O303 C302 1.229 . S
C304 O305 1.229 . S
C304 O317 1.058 . S
O305 C304 1.229 . S
O306 Zn300 1.969 . S
O306 C309 1.267 . S
O307 Zn300 1.965 1_554 S
O307 C318 1.260 . S
O308 Zn301 1.969 . S
O308 C318 1.258 . S
C309 O306 1.267 . S
C309 O310 1.228 . S
O310 C309 1.228 . S
O311 Zn300 2.024 . S
O311 C302 1.058 . S
C312 O313 1.228 . S
C312 O314 1.267 . S
O313 C312 1.228 . S
O314 Zn301 1.969 . S
O314 C312 1.267 . S
O315 Zn301 1.965 . S
O315 C319 1.260 . S
O316 Zn300 1.969 1_554 S
O316 C319 1.258 . S
O317 Zn301 2.024 . S
O317 C304 1.058 . S
C318 O307 1.260 . S
C318 O308 1.258 . S
C319 O315 1.260 . S
C319 O316 1.258 . S
Zn320 O326 1.969 . S
Zn320 O327 1.965 . S
Zn320 O331 2.024 . S
Zn320 O336 1.969 . S
Zn321 O328 1.969 . S
Zn321 O334 1.969 . S
Zn321 O335 1.965 . S
Zn321 O337 2.024 . S
C322 O323 1.229 . S
C322 O331 1.058 . S
O323 C322 1.229 . S
C324 O325 1.229 . S
C324 O337 1.058 . S
O325 C324 1.229 . S
O326 Zn320 1.969 . S
O326 C329 1.267 . S
O327 Zn320 1.965 . S
O327 C338 1.260 . S
O328 Zn321 1.969 . S
O328 C338 1.258 . S
C329 O326 1.267 . S
C329 O330 1.228 . S
O330 C329 1.228 . S
O331 Zn320 2.024 . S
O331 C322 1.058 . S
C332 O333 1.228 . S
C332 O334 1.267 . S
O333 C332 1.228 . S
O334 Zn321 1.969 . S
O334 C332 1.267 . S
O335 Zn321 1.965 . S
O335 C339 1.260 . S
O336 Zn320 1.969 . S
O336 C339 1.258 . S
O337 Zn321 2.024 . S
O337 C324 1.058 . S
C338 O327 1.260 . S
C338 O328 1.258 . S
C339 O335 1.260 . S
C339 O336 1.258 . S
Zn340 O346 1.969 . S
Zn340 O347 1.965 . S
Zn340 O351 2.024 . S
Zn340 O356 1.969 . S
Zn341 O348 1.969 1_556 S
Zn341 O354 1.969 . S
Zn341 O355 1.965 1_556 S
Zn341 O357 2.024 . S
C342 O343 1.229 . S
C342 O351 1.058 . S
O343 C342 1.229 . S
C344 O345 1.229 . S
C344 O357 1.058 . S
O345 C344 1.229 . S
O346 Zn340 1.969 . S
O346 C349 1.267 . S
O347 Zn340 1.965 . S
O347 C358 1.260 . S
O348 Zn341 1.969 1_554 S
O348 C358 1.258 . S
C349 O346 1.267 . S
C349 O350 1.228 . S
O350 C349 1.228 . S
O351 Zn340 2.024 . S
O351 C342 1.058 . S
C352 O353 1.228 . S
C352 O354 1.267 . S
O353 C352 1.228 . S
O354 Zn341 1.969 . S
O354 C352 1.267 . S
O355 Zn341 1.965 1_554 S
O355 C359 1.260 . S
O356 Zn340 1.969 . S
O356 C359 1.258 . S
O357 Zn341 2.024 . S
O357 C344 1.058 . S
C358 O347 1.260 . S
C358 O348 1.258 . S
C359 O355 1.260 . S
C359 O356 1.258 . S
Zn360 O366 1.969 1_655 S
Zn360 O367 1.965 . S
Zn360 O371 2.024 . S
Zn360 O376 1.969 . S
Zn361 O368 1.969 . S
Zn361 O374 1.969 . S
Zn361 O375 1.965 . S
Zn361 O377 2.024 . S
C362 O363 1.229 . S
C362 O371 1.058 . S
O363 C362 1.229 . S
C364 O365 1.229 . S
C364 O377 1.058 . S
O365 C364 1.229 . S
O366 Zn360 1.969 1_455 S
O366 C369 1.267 . S
O367 Zn360 1.965 . S
O367 C378 1.260 . S
O368 Zn361 1.969 . S
O368 C378 1.258 . S
C369 O366 1.267 . S
C369 O370 1.228 . S
O370 C369 1.228 . S
O371 Zn360 2.024 . S
O371 C362 1.058 . S
C372 O373 1.228 . S
C372 O374 1.267 . S
O373 C372 1.228 . S
O374 Zn361 1.969 . S
O374 C372 1.267 . S
O375 Zn361 1.965 . S
O375 C379 1.260 . S
O376 Zn360 1.969 . S
O376 C379 1.258 . S
O377 Zn361 2.024 . S
O377 C364 1.058 . S
C378 O367 1.260 . S
C378 O368 1.258 . S
C379 O375 1.260 . S
C379 O376 1.258 . S
Zn380 O386 1.969 . S
Zn380 O387 1.965 . S
Zn380 O391 2.024 . S
Zn380 O396 1.969 . S
Zn381 O388 1.969 . S
Zn381 O394 1.969 . S
Zn381 O395 1.965 . S
Zn381 O397 2.024 . S
C382 O383 1.229 . S
C382 O391 1.058 . S
O383 C382 1.229 . S
C384 O385 1.229 . S
C384 O397 1.058 . S
O385 C384 1.229 . S
O386 Zn380 1.969 . S
O386 C389 1.267 . S
O387 Zn380 1.965 . S
O387 C398 1.260 . S
O388 Zn381 1.969 . S
O388 C398 1.258 . S
C389 O386 1.267 . S
C389 O390 1.228 . S
O390 C389 1.228 . S
O391 Zn380 2.024 . S
O391 C382 1.058 . S
C392 O393 1.228 . S
C392 O394 1.267 . S
O393 C392 1.228 . S
O394 Zn381 1.969 . S
O394 C392 1.267 . S
O395 Zn381 1.965 . S
O395 C399 1.260 . S
O396 Zn380 1.969 . S
O396 C399 1.258 . S
O397 Zn381 2.024 . S
O397 C384 1.058 . S
C398 O387 1.260 . S
C398 O388 1.258 . S
C399 O395 1.260 . S
C399 O396 1.258 . S
Zn400 O406 1.969 . S
Zn400 O407 1.965 . S
Zn400 O411 2.024 . S
Zn400 O416 1.969 . S
Zn401 O408 1.969 . S
Zn401 O414 1.969 . S
Zn401 O415 1.965 . S
Zn401 O417 2.024 . S
C402 O403 1.229 . S
C402 O411 1.058 . S
O403 C402 1.229 . S
C404 O405 1.229 . S
C404 O417 1.058 . S
O405 C404 1.229 . S
O406 Zn400 1.969 . S
O406 C409 1.267 . S
O407 Zn400 1.965 . S
O407 C418 1.260 . S
O408 Zn401 1.969 . S
O408 C418 1.258 . S
C409 O406 1.267 . S
C409 O410 1.228 . S
O410 C409 1.228 . S
O411 Zn400 2.024 . S
O411 C402 1.058 . S
C412 O413 1.228 . S
C412 O414 1.267 . S
O413 C412 1.228 . S
O414 Zn401 1.969 . S
O414 C412 1.267 . S
O415 Zn401 1.965 . S
O415 C419 1.260 . S
O416 Zn400 1.969 . S
O416 C419 1.258 . S
O417 Zn401 2.024 . S
O417 C404 1.058 . S
C418 O407 1.260 . S
C418 O408 1.258 . S
C419 O415 1.260 . S
C419 O416 1.258 . S
Zn420 O426 1.969 . S
Zn420 O427 1.965 . S
Zn420 O431 2.024 . S
Zn420 O436 1.969 . S
Zn421 O428 1.969 1_554 S
Zn421 O434 1.969 . S
Zn421 O435 1.965 1_554 S
Zn421 O437 2.024 . S
C422 O423 1.229 . S
C422 O431 1.058 . S
O423 C422 1.229 . S
C424 O425 1.229 . S
C424 O437 1.058 . S
O425 C424 1.229 . S
O426 Zn420 1.969 . S
O426 C429 1.267 . S
O427 Zn420 1.965 . S
O427 C438 1.260 . S
O428 Zn421 1.969 1_556 S
O428 C438 1.258 . S
C429 O426 1.267 . S
C429 O430 1.228 . S
O430 C429 1.228 . S
O431 Zn420 2.024 . S
O431 C422 1.058 . S
C432 O433 1.228 . S
C432 O434 1.267 . S
O433 C432 1.228 . S
O434 Zn421 1.969 . S
O434 C432 1.267 . S
O435 Zn421 1.965 1_556 S
O435 C439 1.260 . S
O436 Zn420 1.969 . S
O436 C439 1.258 . S
O437 Zn421 2.024 . S
O437 C424 1.058 . S
C438 O427 1.260 . S
C438 O428 1.258 . S
C439 O435 1.260 . S
C439 O436 1.258 . S
Zn440 O446 1.969 1_655 S
Zn440 O447 1.965 . S
Zn440 O451 2.024 . S
Zn440 O456 1.969 . S
Zn441 O448 1.969 . S
Zn441 O454 1.969 . S
Zn441 O455 1.965 . S
Zn441 O457 2.024 . S
C442 O443 1.229 . S
C442 O451 1.058 . S
O443 C442 1.229 . S
C444 O445 1.229 . S
C444 O457 1.058 . S
O445 C444 1.229 . S
O446 Zn440 1.969 1_455 S
O446 C449 1.267 . S
O447 Zn440 1.965 . S
O447 C458 1.260 . S
O448 Zn441 1.969 . S
O448 C458 1.258 . S
C449 O446 1.267 . S
C449 O450 1.228 . S
O450 C449 1.228 . S
O451 Zn440 2.024 . S
O451 C442 1.058 . S
C452 O453 1.228 . S
C452 O454 1.267 . S
O453 C452 1.228 . S
O454 Zn441 1.969 . S
O454 C452 1.267 . S
O455 Zn441 1.965 . S
O455 C459 1.260 . S
O456 Zn440 1.969 . S
O456 C459 1.258 . S
O457 Zn441 2.024 . S
O457 C444 1.058 . S
C458 O447 1.260 . S
C458 O448 1.258 . S
C459 O455 1.260 . S
C459 O456 1.258 . S
Zn460 O466 1.969 . S
Zn460 O467 1.965 . S
Zn460 O471 2.024 . S
Zn460 O476 1.969 . S
Zn461 O468 1.969 . S
Zn461 O474 1.969 . S
Zn461 O475 1.965 . S
Zn461 O477 2.024 . S
C462 O463 1.229 . S
C462 O471 1.058 . S
O463 C462 1.229 . S
C464 O465 1.229 . S
C464 O477 1.058 . S
O465 C464 1.229 . S
O466 Zn460 1.969 . S
O466 C469 1.267 . S
O467 Zn460 1.965 . S
O467 C478 1.260 . S
O468 Zn461 1.969 . S
O468 C478 1.258 . S
C469 O466 1.267 . S
C469 O470 1.228 . S
O470 C469 1.228 . S
O471 Zn460 2.024 . S
O471 C462 1.058 . S
C472 O473 1.228 . S
C472 O474 1.267 . S
O473 C472 1.228 . S
O474 Zn461 1.969 . S
O474 C472 1.267 . S
O475 Zn461 1.965 . S
O475 C479 1.260 . S
O476 Zn460 1.969 . S
O476 C479 1.258 . S
O477 Zn461 2.024 . S
O477 C464 1.058 . S
C478 O467 1.260 . S
C478 O468 1.258 . S
C479 O475 1.260 . S
C479 O476 1.258 . S
Zn480 O486 1.969 . S
Zn480 O487 1.965 . S
Zn480 O491 2.024 . S
Zn480 O496 1.969 . S
Zn481 O488 1.969 . S
Zn481 O494 1.969 . S
Zn481 O495 1.965 . S
Zn481 O497 2.024 . S
C482 O483 1.229 . S
C482 O491 1.058 . S
O483 C482 1.229 . S
C484 O485 1.229 . S
C484 O497 1.058 . S
O485 C484 1.229 . S
O486 Zn480 1.969 . S
O486 C489 1.267 . S
O487 Zn480 1.965 . S
O487 C498 1.260 . S
O488 Zn481 1.969 . S
O488 C498 1.258 . S
C489 O486 1.267 . S
C489 O490 1.228 . S
O490 C489 1.228 . S
O491 Zn480 2.024 . S
O491 C482 1.058 . S
C492 O493 1.228 . S
C492 O494 1.267 . S
O493 C492 1.228 . S
O494 Zn481 1.969 . S
O494 C492 1.267 . S
O495 Zn481 1.965 . S
O495 C499 1.260 . S
O496 Zn480 1.969 . S
O496 C499 1.258 . S
O497 Zn481 2.024 . S
O497 C484 1.058 . S
C498 O487 1.260 . S
C498 O488 1.258 . S
C499 O495 1.260 . S
C499 O496 1.258 . S
Zn500 O506 1.969 . S
Zn500 O507 1.965 1_554 S
Zn500 O511 2.024 . S
Zn500 O516 1.969 1_554 S
Zn501 O508 1.969 . S
Zn501 O514 1.969 . S
Zn501 O515 1.965 . S
Zn501 O517 2.024 . S
C502 O503 1.229 . S
C502 O511 1.058 . S
O503 C502 1.229 . S
C504 O505 1.229 . S
C504 O517 1.058 . S
O505 C504 1.229 . S
O506 Zn500 1.969 . S
O506 C509 1.267 . S
O507 Zn500 1.965 1_556 S
O507 C518 1.260 . S
O508 Zn501 1.969 . S
O508 C518 1.258 . S
C509 O506 1.267 . S
C509 O510 1.228 . S
O510 C509 1.228 . S
O511 Zn500 2.024 . S
O511 C502 1.058 . S
C512 O513 1.228 . S
C512 O514 1.267 . S
O513 C512 1.228 . S
O514 Zn501 1.969 . S
O514 C512 1.267 . S
O515 Zn501 1.965 . S
O515 C519 1.260 . S
O516 Zn500 1.969 1_556 S
O516 C519 1.258 . S
O517 Zn501 2.024 . S
O517 C504 1.058 . S
C518 O507 1.260 . S
C518 O508 1.258 . S
C519 O515 1.260 . S
C519 O516 1.258 . S
Zn520 O526 1.969 . S
Zn520 O527 1.965 . S
Zn520 O531 2.024 . S
Zn520 O536 1.969 . S
Zn521 O528 1.969 . S
Zn521 O534 1.969 1_455 S
Zn521 O535 1.965 . S
Zn521 O537 2.024 . S
C522 O523 1.229 . S
C522 O531 1.058 . S
O523 C522 1.229 . S
C524 O525 1.229 . S
C524 O537 1.058 . S
O525 C524 1.229 . S
O526 Zn520 1.969 . S
O526 C529 1.267 . S
O527 Zn520 1.965 . S
O527 C538 1.260 . S
O528 Zn521 1.969 . S
O528 C538 1.258 . S
C529 O526 1.267 . S
C529 O530 1.228 . S
O530 C529 1.228 . S
O531 Zn520 2.024 . S
O531 C522 1.058 . S
C532 O533 1.228 . S
C532 O534 1.267 . S
O533 C532 1.228 . S
O534 Zn521 1.969 1_655 S
O534 C532 1.267 . S
O535 Zn521 1.965 . S
O535 C539 1.260 . S
O536 Zn520 1.969 . S
O536 C539 1.258 . S
O537 Zn521 2.024 . S
O537 C524 1.058 . S
C538 O527 1.260 . S
C538 O528 1.258 . S
C539 O535 1.260 . S
C539 O536 1.258 . S
Zn540 O546 1.969 . S
Zn540 O547 1.965 . S
Zn540 O551 2.024 . S
Zn540 O556 1.969 . S
Zn541 O548 1.969 . S
Zn541 O554 1.969 . S
Zn541 O555 1.965 . S
Zn541 O557 2.024 . S
C542 O543 1.229 . S
C542 O551 1.058 . S
O543 C542 1.229 . S
C544 O545 1.229 . S
C544 O557 1.058 . S
O545 C544 1.229 . S
O546 Zn540 1.969 . S
O546 C549 1.267 . S
O547 Zn540 1.965 . S
O547 C558 1.260 . S
O548 Zn541 1.969 . S
O548 C558 1.258 . S
C549 O546 1.267 . S
C549 O550 1.228 . S
O550 C549 1.228 . S
O551 Zn540 2.024 . S
O551 C542 1.058 . S
C552 O553 1.228 . S
C552 O554 1.267 . S
O553 C552 1.228 . S
O554 Zn541 1.969 . S
O554 C552 1.267 . S
O555 Zn541 1.965 . S
O555 C559 1.260 . S
O556 Zn540 1.969 . S
O556 C559 1.258 . S
O557 Zn541 2.024 . S
O557 C544 1.058 . S
C558 O547 1.260 . S
C558 O548 1.258 . S
C559 O555 1.260 . S
C559 O556 1.258 . S
Zn560 O566 1.969 . S
Zn560 O567 1.965 . S
Zn560 O571 2.024 . S
Zn560 O576 1.969 . S
Zn561 O568 1.969 . S
Zn561 O574 1.969 . S
Zn561 O575 1.965 . S
Zn561 O577 2.024 . S
C562 O563 1.229 . S
C562 O571 1.058 . S
O563 C562 1.229 . S
C564 O565 1.229 . S
C564 O577 1.058 . S
O565 C564 1.229 . S
O566 Zn560 1.969 . S
O566 C569 1.267 . S
O567 Zn560 1.965 . S
O567 C578 1.260 . S
O568 Zn561 1.969 . S
O568 C578 1.258 . S
C569 O566 1.267 . S
C569 O570 1.228 . S
O570 C569 1.228 . S
O571 Zn560 2.024 . S
O571 C562 1.058 . S
C572 O573 1.228 . S
C572 O574 1.267 . S
O573 C572 1.228 . S
O574 Zn561 1.969 . S
O574 C572 1.267 . S
O575 Zn561 1.965 . S
O575 C579 1.260 . S
O576 Zn560 1.969 . S
O576 C579 1.258 . S
O577 Zn561 2.024 . S
O577 C564 1.058 . S
C578 O567 1.260 . S
C578 O568 1.258 . S
C579 O575 1.260 . S
C579 O576 1.258 . S
Zn580 O586 1.969 . S
Zn580 O587 1.965 1_556 S
Zn580 O591 2.024 . S
Zn580 O596 1.969 1_556 S
Zn581 O588 1.969 . S
Zn581 O594 1.969 . S
Zn581 O595 1.965 . S
Zn581 O597 2.024 . S
C582 O583 1.229 . S
C582 O591 1.058 . S
O583 C582 1.229 . S
C584 O585 1.229 . S
C584 O597 1.058 . S
O585 C584 1.229 . S
O586 Zn580 1.969 . S
O586 C589 1.267 . S
O587 Zn580 1.965 1_554 S
O587 C598 1.260 . S
O588 Zn581 1.969 . S
O588 C598 1.258 . S
C589 O586 1.267 . S
C589 O590 1.228 . S
O590 C589 1.228 . S
O591 Zn580 2.024 . S
O591 C582 1.058 . S
C592 O593 1.228 . S
C592 O594 1.267 . S
O593 C592 1.228 . S
O594 Zn581 1.969 . S
O594 C592 1.267 . S
O595 Zn581 1.965 . S
O595 C599 1.260 . S
O596 Zn580 1.969 1_554 S
O596 C599 1.258 . S
O597 Zn581 2.024 . S
O597 C584 1.058 . S
C598 O587 1.260 . S
C598 O588 1.258 . S
C599 O595 1.260 . S
C599 O596 1.258 . S
Zn600 O606 1.969 . S
Zn600 O607 1.965 . S
Zn600 O611 2.024 . S
Zn600 O616 1.969 . S
Zn601 O608 1.969 . S
Zn601 O614 1.969 1_455 S
Zn601 O615 1.965 . S
Zn601 O617 2.024 . S
C602 O603 1.229 . S
C602 O611 1.058 . S
O603 C602 1.229 . S
C604 O605 1.229 . S
C604 O617 1.058 . S
O605 C604 1.229 . S
O606 Zn600 1.969 . S
O606 C609 1.267 . S
O607 Zn600 1.965 . S
O607 C618 1.260 . S
O608 Zn601 1.969 . S
O608 C618 1.258 . S
C609 O606 1.267 . S
C609 O610 1.228 . S
O610 C609 1.228 . S
O611 Zn600 2.024 . S
O611 C602 1.058 . S
C612 O613 1.228 . S
C612 O614 1.267 . S
O613 C612 1.228 . S
O614 Zn601 1.969 1_655 S
O614 C612 1.267 . S
O615 Zn601 1.965 . S
O615 C619 1.260 . S
O616 Zn600 1.969 . S
O616 C619 1.258 . S
O617 Zn601 2.024 . S
O617 C604 1.058 . S
C618 O607 1.260 . S
C618 O608 1.258 . S
C619 O615 1.260 . S
C619 O616 1.258 . S
Zn620 O626 1.969 . S
Zn620 O627 1.965 . S
Zn620 O631 2.024 . S
Zn620 O636 1.969 . S
Zn621 O628 1.969 . S
Zn621 O634 1.969 . S
Zn621 O635 1.965 . S
Zn621 O637 2.024 . S
C622 O623 1.229 . S
C622 O631 1.058 . S
O623 C622 1.229 . S
C624 O625 1.229 . S
C624 O637 1.058 . S
O625 C624 1.229 . S
O626 Zn620 1.969 . S
O626 C629 1.267 . S
O627 Zn620 1.965 . S
O627 C638 1.260 . S
O628 Zn621 1.969 . S
O628 C638 1.258 . S
C629 O626 1.267 . S
C629 O630 1.228 . S
O630 C629 1.228 . S
O631 Zn620 2.024 . S
O631 C622 1.058 . S
C632 O633 1.228 . S
C632 O634 1.267 . S
O633 C632 1.228 . S
O634 Zn621 1.969 . S
O634 C632 1.267 . S
O635 Zn621 1.965 . S
O635 C639 1.260 . S
O636 Zn620 1.969 . S
O636 C639 1.258 . S
O637 Zn621 2.024 . S
O637 C624 1.058 . S
C638 O627 1.260 . S
C638 O628 1.258 . S
C639 O635 1.260 . S
C639 O636 1.258 . S
C12 C62 1.717 . S
C2 C32 1.717 1_545 S
C52 C22 1.717 . S
C42 C72 1.717 1_565 S
C102 C92 1.717 . S
C112 C122 1.717 1_565 S
C142 C132 1.717 . S
C82 C152 1.717 1_565 S
C169 C224 1.717 . S
C189 C164 1.717 1_545 S
C209 C184 1.717 . S
C229 C204 1.717 1_565 S
C249 C264 1.717 . S
C269 C284 1.717 1_545 S
C304 C289 1.717 . S
C244 C309 1.717 1_545 S
C332 C382 1.717 . S
C322 C352 1.717 . S
C342 C372 1.717 . S
C392 C362 1.717 . S
C412 C422 1.717 . S
C442 C432 1.717 . S
C452 C462 1.717 . S
C402 C472 1.717 . S
C544 C489 1.717 . S
C484 C509 1.717 . S
C529 C504 1.717 . S
C524 C549 1.717 . S
C584 C569 1.717 . S
C604 C589 1.717 . S
C624 C609 1.717 . S
C629 C564 1.717 . S
C552 C18 1.622 . S
C38 C172 1.623 . S
C58 C512 1.623 . S
C78 C212 1.623 . S
C98 C592 1.623 . S
C292 C118 1.623 . S
C632 C138 1.623 . S
C158 C252 1.623 . S
C179 C389 1.622 . S
C9 C199 1.623 . S
C349 C219 1.623 . S
C49 C239 1.623 . S
C429 C259 1.623 . S
C129 C279 1.623 . S
C299 C469 1.623 . S
C319 C89 1.623 . S
C338 C232 1.623 . S
C358 C492 1.623 . S
C378 C192 1.622 . S
C398 C532 1.623 . S
C418 C272 1.623 . S
C438 C612 1.623 . S
C312 C458 1.623 . S
C478 C572 1.623 . S
C69 C499 1.623 . S
C329 C519 1.623 . S
C29 C539 1.622 . S
C369 C559 1.623 . S
C109 C579 1.623 . S
C599 C449 1.623 . S
C619 C149 1.623 . S
C409 C639 1.623 . S
C19 C99 1.510 1_545 S
C39 C119 1.510 . S
C59 C139 1.510 1_565 S
C159 C79 1.510 1_556 S
C258 C178 1.510 1_545 S
C278 C198 1.510 . S
C218 C298 1.510 1_545 S
C238 C318 1.510 1_556 S
C339 C419 1.510 . S
C439 C359 1.510 1_556 S
C459 C379 1.510 . S
C479 C399 1.510 . S
C578 C498 1.510 . S
C518 C598 1.510 1_556 S
C618 C538 1.510 . S
C558 C638 1.510 . S
C144 C4 1.951 . S
C24 C84 1.951 . S
C44 C104 1.951 . S
C124 C64 1.951 . S
C162 C302 1.951 . S
C242 C182 1.951 . S
C262 C202 1.951 . S
C222 C282 1.951 . S
C324 C464 1.951 . S
C404 C344 1.951 . S
C424 C364 1.951 . S
C444 C384 1.951 . S
C482 C622 1.951 . S
C562 C502 1.951 . S
C522 C582 1.951 . S
C602 C542 1.951 . S
