# Generated by pormake.
# Topology sxg, (6)-cn, num edge types: 1
# Building blocks:
#     Node 0, Type 0, BuildingBlock: PAMTUU_clean_sbu_0, # of connection points: 6
#     Node 1, Type 0, BuildingBlock: PAMTUU_clean_sbu_0, # of connection points: 6
#     Node 2, Type 0, BuildingBlock: PAMTUU_clean_sbu_0, # of connection points: 6
#     Node 3, Type 0, BuildingBlock: PAMTUU_clean_sbu_0, # of connection points: 6
#     Node 4, Type 0, BuildingBlock: PAMTUU_clean_sbu_0, # of connection points: 6
#     Node 5, Type 0, BuildingBlock: PAMTUU_clean_sbu_0, # of connection points: 6
#     Node 6, Type 0, BuildingBlock: PAMTUU_clean_sbu_0, # of connection points: 6
#     Node 7, Type 0, BuildingBlock: PAMTUU_clean_sbu_0, # of connection points: 6
#     Node 8, Type 0, BuildingBlock: PAMTUU_clean_sbu_0, # of connection points: 6
#     Node 9, Type 0, BuildingBlock: PAMTUU_clean_sbu_0, # of connection points: 6
#     Node 10, Type 0, BuildingBlock: PAMTUU_clean_sbu_0, # of connection points: 6
#     Node 11, Type 0, BuildingBlock: PAMTUU_clean_sbu_0, # of connection points: 6
#     Node 12, Type 0, BuildingBlock: PAMTUU_clean_sbu_0, # of connection points: 6
#     Node 13, Type 0, BuildingBlock: PAMTUU_clean_sbu_0, # of connection points: 6
#     Node 14, Type 0, BuildingBlock: PAMTUU_clean_sbu_0, # of connection points: 6
#     Node 15, Type 0, BuildingBlock: PAMTUU_clean_sbu_0, # of connection points: 6
#     Node 16, Type 0, BuildingBlock: PAMTUU_clean_sbu_0, # of connection points: 6
#     Node 17, Type 0, BuildingBlock: PAMTUU_clean_sbu_0, # of connection points: 6
#     Node 18, Type 0, BuildingBlock: PAMTUU_clean_sbu_0, # of connection points: 6
#     Node 19, Type 0, BuildingBlock: PAMTUU_clean_sbu_0, # of connection points: 6
#     Node 20, Type 0, BuildingBlock: PAMTUU_clean_sbu_0, # of connection points: 6
#     Node 21, Type 0, BuildingBlock: PAMTUU_clean_sbu_0, # of connection points: 6
#     Node 22, Type 0, BuildingBlock: PAMTUU_clean_sbu_0, # of connection points: 6
#     Node 23, Type 0, BuildingBlock: PAMTUU_clean_sbu_0, # of connection points: 6
#     Edge 24, Type (0, 0), BuildingBlock: AJUNOK_clean_linker_0, # of connection points: 2
#     Edge 25, Type (0, 0), BuildingBlock: AJUNOK_clean_linker_0, # of connection points: 2
#     Edge 26, Type (0, 0), BuildingBlock: AJUNOK_clean_linker_0, # of connection points: 2
#     Edge 27, Type (0, 0), BuildingBlock: AJUNOK_clean_linker_0, # of connection points: 2
#     Edge 28, Type (0, 0), BuildingBlock: AJUNOK_clean_linker_0, # of connection points: 2
#     Edge 29, Type (0, 0), BuildingBlock: AJUNOK_clean_linker_0, # of connection points: 2
#     Edge 30, Type (0, 0), BuildingBlock: AJUNOK_clean_linker_0, # of connection points: 2
#     Edge 31, Type (0, 0), BuildingBlock: AJUNOK_clean_linker_0, # of connection points: 2
#     Edge 32, Type (0, 0), BuildingBlock: AJUNOK_clean_linker_0, # of connection points: 2
#     Edge 33, Type (0, 0), BuildingBlock: AJUNOK_clean_linker_0, # of connection points: 2
#     Edge 34, Type (0, 0), BuildingBlock: AJUNOK_clean_linker_0, # of connection points: 2
#     Edge 35, Type (0, 0), BuildingBlock: AJUNOK_clean_linker_0, # of connection points: 2
#     Edge 36, Type (0, 0), BuildingBlock: AJUNOK_clean_linker_0, # of connection points: 2
#     Edge 37, Type (0, 0), BuildingBlock: AJUNOK_clean_linker_0, # of connection points: 2
#     Edge 38, Type (0, 0), BuildingBlock: AJUNOK_clean_linker_0, # of connection points: 2
#     Edge 39, Type (0, 0), BuildingBlock: AJUNOK_clean_linker_0, # of connection points: 2
#     Edge 40, Type (0, 0), BuildingBlock: AJUNOK_clean_linker_0, # of connection points: 2
#     Edge 41, Type (0, 0), BuildingBlock: AJUNOK_clean_linker_0, # of connection points: 2
#     Edge 42, Type (0, 0), BuildingBlock: AJUNOK_clean_linker_0, # of connection points: 2
#     Edge 43, Type (0, 0), BuildingBlock: AJUNOK_clean_linker_0, # of connection points: 2
#     Edge 44, Type (0, 0), BuildingBlock: AJUNOK_clean_linker_0, # of connection points: 2
#     Edge 45, Type (0, 0), BuildingBlock: AJUNOK_clean_linker_0, # of connection points: 2
#     Edge 46, Type (0, 0), BuildingBlock: AJUNOK_clean_linker_0, # of connection points: 2
#     Edge 47, Type (0, 0), BuildingBlock: AJUNOK_clean_linker_0, # of connection points: 2
#     Edge 48, Type (0, 0), BuildingBlock: AJUNOK_clean_linker_0, # of connection points: 2
#     Edge 49, Type (0, 0), BuildingBlock: AJUNOK_clean_linker_0, # of connection points: 2
#     Edge 50, Type (0, 0), BuildingBlock: AJUNOK_clean_linker_0, # of connection points: 2
#     Edge 51, Type (0, 0), BuildingBlock: AJUNOK_clean_linker_0, # of connection points: 2
#     Edge 52, Type (0, 0), BuildingBlock: AJUNOK_clean_linker_0, # of connection points: 2
#     Edge 53, Type (0, 0), BuildingBlock: AJUNOK_clean_linker_0, # of connection points: 2
#     Edge 54, Type (0, 0), BuildingBlock: AJUNOK_clean_linker_0, # of connection points: 2
#     Edge 55, Type (0, 0), BuildingBlock: AJUNOK_clean_linker_0, # of connection points: 2
#     Edge 56, Type (0, 0), BuildingBlock: AJUNOK_clean_linker_0, # of connection points: 2
#     Edge 57, Type (0, 0), BuildingBlock: AJUNOK_clean_linker_0, # of connection points: 2
#     Edge 58, Type (0, 0), BuildingBlock: AJUNOK_clean_linker_0, # of connection points: 2
#     Edge 59, Type (0, 0), BuildingBlock: AJUNOK_clean_linker_0, # of connection points: 2
#     Edge 60, Type (0, 0), BuildingBlock: AJUNOK_clean_linker_0, # of connection points: 2
#     Edge 61, Type (0, 0), BuildingBlock: AJUNOK_clean_linker_0, # of connection points: 2
#     Edge 62, Type (0, 0), BuildingBlock: AJUNOK_clean_linker_0, # of connection points: 2
#     Edge 63, Type (0, 0), BuildingBlock: AJUNOK_clean_linker_0, # of connection points: 2
#     Edge 64, Type (0, 0), BuildingBlock: AJUNOK_clean_linker_0, # of connection points: 2
#     Edge 65, Type (0, 0), BuildingBlock: AJUNOK_clean_linker_0, # of connection points: 2
#     Edge 66, Type (0, 0), BuildingBlock: AJUNOK_clean_linker_0, # of connection points: 2
#     Edge 67, Type (0, 0), BuildingBlock: AJUNOK_clean_linker_0, # of connection points: 2
#     Edge 68, Type (0, 0), BuildingBlock: AJUNOK_clean_linker_0, # of connection points: 2
#     Edge 69, Type (0, 0), BuildingBlock: AJUNOK_clean_linker_0, # of connection points: 2
#     Edge 70, Type (0, 0), BuildingBlock: AJUNOK_clean_linker_0, # of connection points: 2
#     Edge 71, Type (0, 0), BuildingBlock: AJUNOK_clean_linker_0, # of connection points: 2
#     Edge 72, Type (0, 0), BuildingBlock: AJUNOK_clean_linker_0, # of connection points: 2
#     Edge 73, Type (0, 0), BuildingBlock: AJUNOK_clean_linker_0, # of connection points: 2
#     Edge 74, Type (0, 0), BuildingBlock: AJUNOK_clean_linker_0, # of connection points: 2
#     Edge 75, Type (0, 0), BuildingBlock: AJUNOK_clean_linker_0, # of connection points: 2
#     Edge 76, Type (0, 0), BuildingBlock: AJUNOK_clean_linker_0, # of connection points: 2
#     Edge 77, Type (0, 0), BuildingBlock: AJUNOK_clean_linker_0, # of connection points: 2
#     Edge 78, Type (0, 0), BuildingBlock: AJUNOK_clean_linker_0, # of connection points: 2
#     Edge 79, Type (0, 0), BuildingBlock: AJUNOK_clean_linker_0, # of connection points: 2
#     Edge 80, Type (0, 0), BuildingBlock: AJUNOK_clean_linker_0, # of connection points: 2
#     Edge 81, Type (0, 0), BuildingBlock: AJUNOK_clean_linker_0, # of connection points: 2
#     Edge 82, Type (0, 0), BuildingBlock: AJUNOK_clean_linker_0, # of connection points: 2
#     Edge 83, Type (0, 0), BuildingBlock: AJUNOK_clean_linker_0, # of connection points: 2
#     Edge 84, Type (0, 0), BuildingBlock: AJUNOK_clean_linker_0, # of connection points: 2
#     Edge 85, Type (0, 0), BuildingBlock: AJUNOK_clean_linker_0, # of connection points: 2
#     Edge 86, Type (0, 0), BuildingBlock: AJUNOK_clean_linker_0, # of connection points: 2
#     Edge 87, Type (0, 0), BuildingBlock: AJUNOK_clean_linker_0, # of connection points: 2
#     Edge 88, Type (0, 0), BuildingBlock: AJUNOK_clean_linker_0, # of connection points: 2
#     Edge 89, Type (0, 0), BuildingBlock: AJUNOK_clean_linker_0, # of connection points: 2
#     Edge 90, Type (0, 0), BuildingBlock: AJUNOK_clean_linker_0, # of connection points: 2
#     Edge 91, Type (0, 0), BuildingBlock: AJUNOK_clean_linker_0, # of connection points: 2
#     Edge 92, Type (0, 0), BuildingBlock: AJUNOK_clean_linker_0, # of connection points: 2
#     Edge 93, Type (0, 0), BuildingBlock: AJUNOK_clean_linker_0, # of connection points: 2
#     Edge 94, Type (0, 0), BuildingBlock: AJUNOK_clean_linker_0, # of connection points: 2
#     Edge 95, Type (0, 0), BuildingBlock: AJUNOK_clean_linker_0, # of connection points: 2
# Relax obj value: 0.259
# Max RMSD: 0.283
# Mean RMSD: 0.246
data_MOF--net-sxg--node1-PAMTUU_clean_sbu_0--edge1-AJUNOK_clean_linker_0
_symmetry_space_group_name_H-M    P1
_symmetry_Int_Tables_number       1
_symmetry_cell_setting            triclinic
loop_
_symmetry_equiv_pos_as_xyz
'x, y, z'
_cell_length_a     38.688206
_cell_length_b     44.120092
_cell_length_c     38.779067
_cell_angle_alpha  85.760032
_cell_angle_beta   100.39027
_cell_angle_gamma 85.118589
loop_
_atom_site_label
_atom_site_type_symbol
_atom_site_fract_x
_atom_site_fract_y
_atom_site_fract_z
_atom_type_partial_charge
Tb0 Tb 1.02509 0.26604 0.24254 0.0
Tb1 Tb 1.00574 0.34021 0.23633 0.0
C2 C 0.9772 0.30114 0.17242 0.0
C3 C 0.07163 0.18946 0.27607 0.0
C4 C 0.13127 0.15408 0.31803 0.0
C5 C 0.11447 0.14443 0.28598 0.0
C6 C 0.08495 0.16187 0.26533 0.0
C7 C 0.08791 0.19897 0.30841 0.0
C8 C 0.11735 0.18138 0.32925 0.0
C9 C 0.04224 0.20877 0.25237 0.0
O10 O 0.06699 0.28361 0.21724 0.0
O11 O 0.05723 0.33571 0.21937 0.0
O12 O 1.03666 0.32798 0.28856 0.0
O13 O 0.06613 0.28252 0.27999 0.0
O14 O 0.96768 0.37738 0.21867 0.0
O15 O 1.02038 0.3842 0.24481 0.0
O16 O 0.97024 0.32338 0.27099 0.0
O17 O 0.99786 0.27514 0.28727 0.0
O18 O 0.9836 0.27591 0.19434 0.0
O19 O 0.98768 0.32703 0.18303 0.0
C20 C 0.07652 0.31149 0.21246 0.0
O21 O 1.01877 0.22314 0.26709 0.0
O22 O 0.05119 0.22648 0.22784 0.0
C23 C 0.06196 0.30569 0.29856 0.0
C24 C 0.97299 0.41756 0.25465 0.0
C25 C 0.93134 0.45368 0.29145 0.0
C26 C 0.93737 0.4646 0.25823 0.0
C27 C 0.95798 0.44664 0.23999 0.0
C28 C 0.96942 0.40741 0.2889 0.0
C29 C 0.94887 0.42548 0.30732 0.0
C30 C 0.98847 0.39692 0.23238 0.0
C31 C 0.97659 0.29852 0.29331 0.0
H32 H 0.12456 0.12354 0.2766 0.0
H33 H 0.07298 0.15409 0.2405 0.0
H34 H 0.07838 0.22032 0.31719 0.0
H35 H 0.13003 0.18971 0.35346 0.0
H36 H 0.9239 0.48601 0.24505 0.0
H37 H 0.96044 0.45473 0.21355 0.0
H38 H 0.98095 0.38492 0.30061 0.0
H39 H 0.945 0.41665 0.33301 0.0
Tb40 Tb 0.42924 0.73946 0.82213 0.0
Tb41 Tb 0.46174 0.693 0.77193 0.0
C42 C 0.47944 0.75654 0.77083 0.0
C43 C 0.39492 0.81316 0.86004 0.0
C44 C 0.37021 0.87465 0.86911 0.0
C45 C 0.39416 0.86853 0.84646 0.0
C46 C 0.40633 0.83824 0.84196 0.0
C47 C 0.37115 0.81931 0.88272 0.0
C48 C 0.35905 0.84947 0.88723 0.0
C49 C 0.41071 0.78095 0.85962 0.0
O50 O 0.38354 0.7374 0.78127 0.0
O51 O 0.41238 0.71828 0.73928 0.0
O52 O 0.42396 0.6673 0.79223 0.0
O53 O 0.42069 0.69161 0.84219 0.0
O54 O 0.47939 0.69109 0.72397 0.0
O55 O 0.4826 0.65041 0.75977 0.0
O56 O 0.50068 0.68421 0.82173 0.0
O57 O 0.48091 0.72209 0.85342 0.0
O58 O 0.44735 0.76367 0.77665 0.0
O59 O 0.49383 0.72955 0.78279 0.0
C60 C 0.38352 0.73147 0.74861 0.0
O61 O 0.39058 0.76009 0.84816 0.0
O62 O 0.44151 0.77702 0.85058 0.0
C63 C 0.41737 0.66691 0.82417 0.0
C64 C 0.53209 0.65787 0.73417 0.0
C65 C 0.60625 0.64667 0.74206 0.0
C66 C 0.58408 0.62448 0.72973 0.0
C67 C 0.54734 0.62999 0.72601 0.0
C68 C 0.55415 0.68008 0.74634 0.0
C69 C 0.59077 0.67462 0.75003 0.0
C70 C 0.49365 0.66296 0.73273 0.0
C71 C 0.50465 0.69996 0.84966 0.0
H72 H 0.40326 0.8872 0.83192 0.0
H73 H 0.42507 0.8345 0.82468 0.0
H74 H 0.36251 0.80066 0.89773 0.0
H75 H 0.34125 0.85309 0.90546 0.0
H76 H 0.59505 0.6031 0.72219 0.0
H77 H 0.53085 0.61248 0.71681 0.0
H78 H 0.54313 0.70166 0.75326 0.0
H79 H 0.60702 0.69227 0.75926 0.0
Tb80 Tb 0.6284 0.22088 0.7674 0.0
Tb81 Tb 0.60678 0.17086 0.82089 0.0
C82 C 0.58088 0.23731 0.82216 0.0
C83 C 0.65618 0.29165 0.72701 0.0
C84 C 0.66245 0.35419 0.71879 0.0
C85 C 0.64839 0.34202 0.74709 0.0
C86 C 0.64539 0.31076 0.7513 0.0
C87 C 0.67303 0.30338 0.70071 0.0
C88 C 0.67632 0.33455 0.69668 0.0
C89 C 0.64552 0.26081 0.72555 0.0
O90 O 0.67567 0.21186 0.80712 0.0
O91 O 0.65152 0.19318 0.85283 0.0
O92 O 0.64719 0.14713 0.7977 0.0
O93 O 0.63577 0.17645 0.74539 0.0
O94 O 0.58777 0.1603 0.86755 0.0
O95 O 0.59643 0.12559 0.8329 0.0
O96 O 0.56732 0.17073 0.77118 0.0
O97 O 0.57398 0.21741 0.74486 0.0
O98 O 0.60957 0.2444 0.81064 0.0
O99 O 0.56977 0.21086 0.81626 0.0
C100 C 0.67693 0.20737 0.84098 0.0
O101 O 0.66769 0.23878 0.74306 0.0
O102 O 0.61328 0.25806 0.72969 0.0
C103 C 0.64746 0.15009 0.76383 0.0
C104 C 0.54375 0.12547 0.8558 0.0
C105 C 0.47271 0.11028 0.84609 0.0
C106 C 0.50106 0.08774 0.8471 0.0
C107 C 0.53605 0.09521 0.85211 0.0
C108 C 0.51544 0.14822 0.85407 0.0
C109 C 0.48042 0.14069 0.84936 0.0
C110 C 0.58092 0.13315 0.85863 0.0
C111 C 0.55603 0.1938 0.74686 0.0
H112 H 0.63797 0.35687 0.76462 0.0
H113 H 0.63263 0.30184 0.77203 0.0
H114 H 0.68157 0.2888 0.6819 0.0
H115 H 0.68725 0.34359 0.67468 0.0
H116 H 0.49623 0.06424 0.84368 0.0
H117 H 0.55717 0.0773 0.8526 0.0
H118 H 0.52026 0.1719 0.85615 0.0
H119 H 0.45938 0.15867 0.84875 0.0
Tb120 Tb 1.0211 0.7837 0.30874 0.0
Tb121 Tb 0.04957 0.85315 0.31881 0.0
C122 C 0.07289 0.79856 0.38119 0.0
C123 C 0.9694 0.71267 0.28556 0.0
C124 C 0.91862 0.66961 0.26728 0.0
C125 C 0.92938 0.67621 0.3025 0.0
C126 C 0.95451 0.69714 0.31152 0.0
C127 C 0.95808 0.70654 0.2503 0.0
C128 C 0.93312 0.68553 0.24132 0.0
C129 C 1.00002 0.73153 0.29503 0.0
O130 O 0.98664 0.80378 0.34027 0.0
O131 O 1.00205 0.85351 0.34373 0.0
O132 O 1.00514 0.86092 0.27472 0.0
O133 O 0.97687 0.81739 0.28045 0.0
O134 O 0.07423 0.88488 0.35043 0.0
O135 O 0.05488 0.89679 0.29529 0.0
O136 O 0.08795 0.83043 0.29059 0.0
O137 O 0.05932 0.78906 0.27339 0.0
O138 O 0.06025 0.77771 0.36016 0.0
O139 O 0.07045 0.8276 0.3696 0.0
C140 C 0.98227 0.83137 0.35046 0.0
O141 O 1.00526 0.75253 0.27165 0.0
O142 O 1.00826 0.74007 0.32673 0.0
C143 C 0.97687 0.84626 0.26797 0.0
C144 C 0.10538 0.92018 0.32105 0.0
C145 C 0.16535 0.95251 0.31764 0.0
C146 C 0.13339 0.96087 0.29383 0.0
C147 C 0.1038 0.9449 0.29553 0.0
C148 C 0.1374 0.91164 0.34471 0.0
C149 C 0.16691 0.92766 0.3431 0.0
C150 C 0.07285 0.90522 0.32403 0.0
C151 C 0.08442 0.80716 0.27114 0.0
H152 H 0.91902 0.66451 0.32337 0.0
H153 H 0.96289 0.70059 0.33901 0.0
H154 H 0.96918 0.71752 0.22948 0.0
H155 H 0.92514 0.68181 0.21386 0.0
H156 H 0.1312 0.97993 0.27403 0.0
H157 H 0.07939 0.95222 0.27718 0.0
H158 H 0.13952 0.89298 0.36501 0.0
H159 H 0.19069 0.92112 0.3626 0.0
Tb160 Tb 0.33502 0.07494 0.36145 0.0
Tb161 Tb 0.31587 0.02912 0.42783 0.0
C162 C 0.28454 1.02144 0.34951 0.0
C163 C 0.36296 0.12873 0.28499 0.0
C164 C 0.38335 0.16966 0.23376 0.0
C165 C 0.34847 0.16167 0.22974 0.0
C166 C 0.33834 0.14159 0.25516 0.0
C167 C 0.39808 0.13596 0.28837 0.0
C168 C 0.40811 0.15618 0.26315 0.0
C169 C 0.35205 0.1088 0.31312 0.0
O170 O 0.29373 0.10032 0.38129 0.0
O171 O 0.26813 0.06031 0.40451 0.0
O172 O 0.33452 0.07018 0.45235 0.0
O173 O 0.36296 0.09131 0.41044 0.0
O174 O 0.27698 1.00769 0.44925 0.0
O175 O 0.33143 1.00023 0.47535 0.0
O176 O 0.36217 1.00469 0.41199 0.0
O177 O 0.36169 0.03016 0.35779 0.0
O178 O 0.29062 0.04941 0.339 0.0
O179 O 0.29989 1.00766 0.38016 0.0
C180 C 0.266 0.08853 0.38958 0.0
O181 O 0.37496 0.09332 0.33851 0.0
O182 O 0.31928 0.1049 0.31468 0.0
C183 C 0.35432 0.09092 0.44197 0.0
C184 C 0.29513 0.95901 0.48197 0.0
C185 C 0.27989 0.89754 0.49799 0.0
C186 C 0.2908 0.91651 0.52484 0.0
C187 C 0.29824 0.94664 0.51695 0.0
C188 C 0.28516 0.94005 0.45491 0.0
C189 C 0.27775 0.90974 0.46281 0.0
C190 C 0.2996 0.99221 0.47478 0.0
C191 C 0.37189 1.0063 0.38088 0.0
H192 H 0.32872 0.17173 0.20749 0.0
H193 H 0.31111 0.13648 0.25168 0.0
H194 H 0.41777 0.12645 0.31094 0.0
H195 H 0.43527 0.16154 0.26684 0.0
H196 H 0.2925 0.90842 0.5522 0.0
H197 H 0.30557 0.96063 0.53839 0.0
H198 H 0.28251 0.94882 0.42761 0.0
H199 H 0.27023 0.89592 0.44127 0.0
Tb200 Tb 0.25575 0.05308 0.83115 0.0
Tb201 Tb 0.29585 0.06653 0.90672 0.0
C202 C 0.32631 0.08393 0.84119 0.0
C203 C 0.19477 1.01517 0.77669 0.0
C204 C 0.16793 0.95874 0.78793 0.0
C205 C 0.18763 0.96368 0.76119 0.0
C206 C 0.20097 0.99162 0.75565 0.0
C207 C 0.17368 1.01062 0.80246 0.0
C208 C 0.1604 0.98261 0.80804 0.0
C209 C 0.21593 0.0414 0.77696 0.0
O210 O 0.2838 1.009 0.84934 0.0
O211 O 0.32356 1.02214 0.89635 0.0
O212 O 0.27101 0.02726 0.92008 0.0
O213 O 0.2281 0.03125 0.87048 0.0
O214 O 0.34195 0.07788 0.9387 0.0
O215 O 0.29317 0.07639 0.95821 0.0
O216 O 0.24421 0.09488 0.8932 0.0
O217 O 0.24462 0.10166 0.83531 0.0
O218 O 0.30899 0.06339 0.82433 0.0
O219 O 0.31509 0.09508 0.86788 0.0
C220 C 0.312 1.00211 0.87387 0.0
O221 O 0.20734 0.06291 0.79609 0.0
O222 O 0.25008 0.03429 0.78235 0.0
C223 C 0.24214 1.01859 0.90247 0.0
C224 C 0.32763 0.11542 0.97513 0.0
C225 C 0.32846 0.17453 0.99757 0.0
C226 C 0.34282 0.14889 1.02113 0.0
C227 C 0.3423 0.1195 1.00998 0.0
C228 C 0.31355 0.14093 0.95143 0.0
C229 C 0.31408 0.1703 0.96254 0.0
C230 C 0.32512 0.0846 0.96388 0.0
C231 C 0.23266 0.11074 0.86256 0.0
H232 H 0.19308 0.9457 0.74475 0.0
H233 H 0.21745 0.99437 0.73604 0.0
H234 H 0.16867 0.02819 0.81951 0.0
H235 H 0.14515 0.97934 0.82863 0.0
H236 H 0.3548 0.15161 0.04807 0.0
H237 H 0.35316 0.1 1.02856 0.0
H238 H 0.30184 0.13807 0.92444 0.0
H239 H 0.30295 0.18968 0.94389 0.0
Tb240 Tb 0.80696 0.59197 0.68543 0.0
Tb241 Tb 0.72885 0.57894 0.65073 0.0
C242 C 0.79384 0.54209 0.63183 0.0
C243 C 0.88645 0.63193 0.70675 0.0
C244 C 0.92359 0.68348 0.70402 0.0
C245 C 0.94175 0.65415 0.71327 0.0
C246 C 0.92326 0.62857 0.71458 0.0
C247 C 0.86813 0.66081 0.69526 0.0
C248 C 0.88665 0.68655 0.69407 0.0
C249 C 0.86762 0.60513 0.71122 0.0
O250 O 0.78639 0.63336 0.65078 0.0
O251 O 0.74396 0.61277 0.6131 0.0
O252 O 0.72743 0.6208 0.67549 0.0
O253 O 0.76986 0.60239 0.7209 0.0
O254 O 0.69006 0.56981 0.60857 0.0
O255 O 0.67677 0.5796 0.65879 0.0
O256 O 0.74409 0.54631 0.69909 0.0
O257 O 0.80437 0.54649 0.70893 0.0
O258 O 0.81227 0.56482 0.64123 0.0
O259 O 0.76148 0.54144 0.63707 0.0
C260 C 0.76325 0.63545 0.62118 0.0
O261 O 0.84054 0.60879 0.72669 0.0
O262 O 0.86084 0.59029 0.68348 0.0
C263 C 0.74045 0.61986 0.70874 0.0
C264 C 0.65207 0.53853 0.63267 0.0
C265 C 0.64533 0.47884 0.65861 0.0
C266 C 0.6286 0.50367 0.67186 0.0
C267 C 0.63172 0.53341 0.65874 0.0
C268 C 0.66533 0.51352 0.61681 0.0
C269 C 0.66204 0.48389 0.62979 0.0
C270 C 0.66663 0.56808 0.62895 0.0
C271 C 0.77614 0.53402 0.71473 0.0
H272 H 0.97013 0.65109 0.72209 0.0
H273 H 0.93765 0.60633 0.72314 0.0
H274 H 0.83955 0.66359 0.68863 0.0
H275 H 0.87213 0.70892 0.68722 0.0
H276 H 0.61553 0.50021 0.69409 0.0
H277 H 0.62116 0.55232 0.6713 0.0
H278 H 0.68088 0.5166 0.59644 0.0
H279 H 0.67452 0.46492 0.61879 0.0
Tb280 Tb 0.73706 0.5637 0.25214 0.0
Tb281 Tb 0.78161 0.52133 0.19929 0.0
C282 C 0.79982 0.51428 0.28003 0.0
C283 C 0.70305 0.62022 0.31686 0.0
C284 C 0.69206 0.66601 0.36506 0.0
C285 C 0.71481 0.63884 0.37613 0.0
C286 C 0.72013 0.6164 0.35259 0.0
C287 C 0.68025 0.64726 0.3059 0.0
C288 C 0.67482 0.66954 0.32936 0.0
C289 C 0.70421 0.59488 0.29229 0.0
O290 O 0.78119 0.58952 0.24394 0.0
O291 O 0.81737 0.55622 0.21835 0.0
O292 O 0.75958 0.56386 0.16825 0.0
O293 O 0.71415 0.57934 0.1963 0.0
O294 O 0.82404 0.48884 0.19419 0.0
O295 O 0.78325 0.50559 0.14974 0.0
O296 O 0.73193 0.50111 0.1999 0.0
O297 O 0.71641 0.5179 0.2505 0.0
O298 O 0.78784 0.54268 0.28235 0.0
O299 O 0.78782 0.5002 0.25251 0.0
C300 C 0.81118 0.58208 0.23317 0.0
O301 O 0.70214 0.60186 0.25867 0.0
O302 O 0.72429 0.56939 0.30256 0.0
C303 C 0.73066 0.58155 0.16912 0.0
C304 C 0.81086 0.45492 0.14758 0.0
C305 C 0.81229 0.39984 0.11189 0.0
C306 C 0.78019 0.41722 0.11323 0.0
C307 C 0.77953 0.4444 0.13022 0.0
C308 C 0.8428 0.43677 0.14807 0.0
C309 C 0.84351 0.40969 0.13066 0.0
C310 C 0.81111 0.48619 0.16109 0.0
C311 C 0.7162 0.49716 0.22714 0.0
H312 H 0.72871 0.63486 0.40316 0.0
H313 H 0.73726 0.59576 0.36265 0.0
H314 H 0.66561 0.65089 0.27912 0.0
H315 H 0.65616 0.68929 0.31951 0.0
H316 H 0.75527 0.41011 0.10062 0.0
H317 H 0.75435 0.45757 0.12899 0.0
H318 H 0.86754 0.44413 0.16087 0.0
H319 H 0.8688 0.39714 0.1308 0.0
Tb320 Tb 0.36601 0.33531 0.11009 0.0
Tb321 Tb 0.43031 0.3038 0.06828 0.0
C322 C 0.35392 0.29139 0.05023 0.0
C323 C 0.27945 0.34419 0.14754 0.0
C324 C 0.21406 0.33108 0.16876 0.0
C325 C 0.22655 0.31618 0.14164 0.0
C326 C 0.25861 0.32263 0.1312 0.0
C327 C 0.2673 0.35871 0.17489 0.0
C328 C 0.23529 0.35235 0.18526 0.0
C329 C 0.31141 0.35445 0.13429 0.0
O330 O 0.38804 0.29357 0.14226 0.0
O331 O 0.41951 0.26715 0.10602 0.0
O332 O 0.45751 0.31805 0.11758 0.0
O333 O 0.41612 0.35016 0.13811 0.0
O334 O 0.44628 0.26921 1.03789 0.0
O335 O 0.48037 0.30389 0.05396 0.0
O336 O 0.41704 0.34976 1.04176 0.0
O337 O 0.36936 0.3685 0.06552 0.0
O338 O 0.34888 0.29674 0.08182 0.0
O339 O 0.37802 0.30481 1.03704 0.0
C340 C 0.40557 0.26878 0.13479 0.0
O341 O 0.34279 0.34745 0.15361 0.0
O342 O 0.3124 0.35275 0.10107 0.0
C343 C 0.44899 0.33757 0.13957 0.0
C344 C 0.49019 0.27957 1.00287 0.0
C345 C 0.51844 0.27606 0.93989 0.0
C346 C 0.53753 0.26241 0.9725 0.0
C347 C 0.52361 0.26413 1.0034 0.0
C348 C 0.47113 0.29387 0.97061 0.0
C349 C 0.48512 0.29217 0.9395 0.0
C350 C 0.47653 0.27988 1.03648 0.0
C351 C 0.39078 0.37068 1.04248 0.0
H352 H 0.211 0.30013 0.12759 0.0
H353 H 0.26666 0.3112 0.10973 0.0
H354 H 0.28229 0.37567 0.18786 0.0
H355 H 0.22708 0.36427 0.20631 0.0
H356 H 0.563 0.2496 0.97404 0.0
H357 H 0.53894 0.25295 1.02789 0.0
H358 H 0.44543 0.30617 0.96943 0.0
H359 H 0.46981 0.30349 0.91512 0.0
Tb360 Tb 0.86524 0.24335 0.99061 0.0
Tb361 Tb 0.85017 0.31223 0.94934 0.0
C362 C 0.90053 0.26181 0.92276 0.0
C363 C 0.88322 0.1715 0.05642 0.0
C364 C 0.8859 0.13054 0.11697 0.0
C365 C 0.89969 0.12099 0.08793 0.0
C366 C 0.8984 0.14127 0.05807 0.0
C367 C 0.87163 0.18181 0.08623 0.0
C368 C 0.87301 0.16152 0.11623 0.0
C369 C 0.87492 0.18974 1.02181 0.0
O370 O 0.91055 0.26612 1.01257 0.0
O371 O 0.8861 0.31571 1.00189 0.0
O372 O 0.81398 0.30764 0.98572 0.0
O373 O 0.84694 0.27434 1.02843 0.0
O374 O 0.86626 0.3521 0.92552 0.0
O375 O 0.81219 0.34993 0.93064 0.0
O376 O 0.8155 0.28278 0.91619 0.0
O377 O 0.81244 0.24468 0.9586 0.0
O378 O 0.88702 0.24032 0.9408 0.0
O379 O 0.89292 0.29088 0.92655 0.0
C380 C 0.90908 0.29412 1.02177 0.0
O381 O 0.84463 0.20635 1.01405 0.0
O382 O 0.89978 0.20361 1.0107 0.0
C383 C 0.82443 0.29919 1.01926 0.0
C384 C 0.8223 0.38679 0.88575 0.0
C385 C 0.80251 0.43022 0.82519 0.0
C386 C 0.79058 0.43511 0.85675 0.0
C387 C 0.80035 0.41378 0.88647 0.0
C388 C 0.83327 0.38112 0.85397 0.0
C389 C 0.82331 0.40244 0.82405 0.0
C390 C 0.83464 0.36657 0.91924 0.0
C391 C 0.79997 0.25904 0.92742 0.0
H392 H 0.90903 0.09727 0.08706 0.0
H393 H 0.90722 0.13272 1.0353 0.0
H394 H 0.85977 0.20503 0.08563 0.0
H395 H 0.86223 0.16966 0.13816 0.0
H396 H 0.77471 0.45606 0.85895 0.0
H397 H 0.79146 0.41885 0.91055 0.0
H398 H 0.84996 0.36048 0.85238 0.0
H399 H 0.83228 0.39726 0.80007 0.0
Tb400 Tb 0.7186 0.81694 0.49502 0.0
Tb401 Tb 0.65159 0.79473 0.5314 0.0
C402 C 0.72552 0.75974 0.55187 0.0
C403 C 0.80126 0.83397 0.45404 0.0
C404 C 0.86012 0.83847 0.42002 0.0
C405 C 0.86498 0.83342 0.45688 0.0
C406 C 0.83591 0.83135 0.47367 0.0
C407 C 0.79644 0.8386 0.41714 0.0
C408 C 0.82548 0.84067 0.40038 0.0
C409 C 0.77064 0.83715 0.47233 0.0
O410 O 0.70127 0.78147 0.46203 0.0
O411 O 0.65947 0.76125 0.49107 0.0
O412 O 0.62753 0.81447 0.47907 0.0
O413 O 0.67028 0.84384 0.46473 0.0
O414 O 0.62992 0.76213 0.56193 0.0
O415 O 0.60032 0.80512 0.5414 0.0
O416 O 0.66394 0.83842 0.55453 0.0
O417 O 0.71786 0.84443 0.53956 0.0
O418 O 0.7346 0.77068 0.52253 0.0
O419 O 0.70048 0.77451 0.56454 0.0
C420 C 0.67882 0.76109 0.46557 0.0
O421 O 0.73866 0.83897 0.45398 0.0
O422 O 0.77293 0.8231 0.50359 0.0
C423 C 0.63768 0.83584 0.45891 0.0
C424 C 0.58598 0.7816 0.59435 0.0
C425 C 0.55121 0.7813 0.65372 0.0
C426 C 0.54089 0.80371 0.62507 0.0
C427 C 0.55798 0.80386 0.59591 0.0
C428 C 0.59624 0.75913 0.62297 0.0
C429 C 0.57919 0.759 0.65215 0.0
C430 C 0.60097 0.77985 0.56127 0.0
C431 C 0.69282 0.8529 0.55666 0.0
H432 H 0.89129 0.83088 0.47278 0.0
H433 H 0.84054 0.82842 0.50217 0.0
H434 H 0.77016 0.84144 0.40116 0.0
H435 H 0.82076 0.84454 0.37194 0.0
H436 H 0.51945 0.82116 0.62514 0.0
H437 H 0.54869 0.82116 0.57413 0.0
H438 H 0.61695 0.74111 0.62252 0.0
H439 H 0.58733 0.7408 0.67311 0.0
Tb440 Tb 0.1953 0.73427 0.59467 0.0
Tb441 Tb 0.1719 0.79999 0.61015 0.0
C442 C 0.1535 0.749 0.65699 0.0
C443 C 0.20787 0.65462 0.56241 0.0
C444 C 0.22172 0.60569 0.52235 0.0
C445 C 0.20776 0.60069 0.55305 0.0
C446 C 0.20091 0.62497 0.57288 0.0
C447 C 0.2197 0.66006 0.53058 0.0
C448 C 0.22661 0.63576 0.51074 0.0
C449 C 0.20732 0.67802 0.58757 0.0
O450 O 0.15145 0.74783 0.54996 0.0
O451 O 0.14821 0.79937 0.55311 0.0
O452 O 0.20984 0.81108 0.5788 0.0
O453 O 0.21906 0.76416 0.55725 0.0
O454 O 0.12847 0.83196 0.61001 0.0
O455 O 0.18131 0.84055 0.63354 0.0
O456 O 0.22023 0.78264 0.6515 0.0
O457 O 0.24472 0.74605 0.62216 0.0
O458 O 0.18146 0.73344 0.64933 0.0
O459 O 0.1384 0.77074 0.63342 0.0
C460 C 0.1407 0.77562 0.535 0.0
O461 O 0.23084 0.69753 0.58834 0.0
O462 O 0.17675 0.69073 0.59153 0.0
C463 C 0.22397 0.79376 0.55813 0.0
C464 C 0.13604 0.85225 0.66432 0.0
C465 C 0.12212 0.86333 0.73105 0.0
C466 C 0.10728 0.8837 0.70117 0.0
C467 C 0.11427 0.87817 0.66807 0.0
C468 C 0.14768 0.83026 0.69306 0.0
C469 C 0.1403 0.83552 0.72613 0.0
C470 C 0.14761 0.84838 0.63093 0.0
C471 C 0.24797 0.76394 0.64753 0.0
H472 H 0.20426 0.57778 0.56298 0.0
H473 H 0.19202 0.62027 0.59751 0.0
H474 H 0.22523 0.68276 0.52194 0.0
H475 H 0.23722 0.64025 0.48706 0.0
H476 H 0.09353 0.9056 0.70369 0.0
H477 H 0.10459 0.89506 0.64593 0.0
H478 H 0.16421 0.80983 0.69037 0.0
H479 H 0.1519 0.81934 0.74844 0.0
Tb480 Tb 0.07466 0.70877 0.85148 0.0
Tb481 Tb 0.05466 0.78259 0.84547 0.0
C482 C 1.01831 0.74334 0.7892 0.0
C483 C 0.11585 0.636 0.83119 0.0
C484 C 0.15849 0.60173 0.79314 0.0
C485 C 0.12359 0.59516 0.79353 0.0
C486 C 0.10246 0.61214 0.81249 0.0
C487 C 0.1501 0.64342 0.82941 0.0
C488 C 0.1712 0.62633 0.81101 0.0
C489 C 0.09448 0.65288 0.8528 0.0
O490 O 0.11282 0.72718 0.82119 0.0
O491 O 0.08194 0.77324 0.80059 0.0
O492 O 0.09554 0.77231 0.89435 0.0
O493 O 0.09044 0.72134 0.90532 0.0
O494 O 0.06117 0.82568 0.82143 0.0
O495 O 1.028 0.822 0.85991 0.0
O496 O 1.01229 0.76435 0.86967 0.0
O497 O 1.02329 0.71215 0.86854 0.0
O498 O 0.04401 0.72139 0.79908 0.0
O499 O 1.01365 0.7662 0.80802 0.0
C500 C 0.10545 0.75061 0.79694 0.0
O501 O 0.11096 0.67145 0.87316 0.0
O502 O 0.06329 0.66509 0.83687 0.0
C503 C 0.10122 0.74703 0.91626 0.0
C504 C 1.00788 0.85874 0.81138 0.0
C505 C 0.94857 0.89347 0.76781 0.0
C506 C 0.96824 0.90583 0.79672 0.0
C507 C 0.99753 0.88863 0.81826 0.0
C508 C 0.98876 0.84654 0.78216 0.0
C509 C 0.95943 0.86365 0.76072 0.0
C510 C 1.03723 0.8399 0.83571 0.0
C511 C 1.00338 0.73626 0.8748 0.0
H512 H 0.11312 0.57621 0.78028 0.0
H513 H 0.07599 0.60619 0.81325 0.0
H514 H 0.16124 0.66182 0.84325 0.0
H515 H 0.19831 0.63141 0.8127 0.0
H516 H 0.96027 0.92844 0.80344 0.0
H517 H 1.01169 0.89849 0.84074 0.0
H518 H 0.99613 0.82355 0.77623 0.0
H519 H 0.94497 0.85341 0.73871 0.0
Tb520 Tb 0.62266 0.3493 0.32262 0.0
Tb521 Tb 0.65078 0.30444 0.2687 0.0
C522 C 0.66409 0.3777 0.26676 0.0
C523 C 0.55179 0.38618 0.35891 0.0
C524 C 0.47779 0.39646 0.35191 0.0
C525 C 0.49959 0.41907 0.36362 0.0
C526 C 0.53632 0.41395 0.36709 0.0
C527 C 0.53008 0.36377 0.34681 0.0
C528 C 0.49349 0.36878 0.34352 0.0
C529 C 0.5901 0.3814 0.36004 0.0
O530 O 0.57742 0.34037 0.28164 0.0
O531 O 0.60664 0.33331 0.23654 0.0
O532 O 0.61258 0.28288 0.29822 0.0
O533 O 0.63019 0.30413 0.34837 0.0
O534 O 0.63808 0.27008 0.23476 0.0
O535 O 0.69111 0.28253 0.24597 0.0
O536 O 0.69006 0.2958 0.31728 0.0
O537 O 0.68018 0.34016 0.34331 0.0
O538 O 0.64671 0.38088 0.29239 0.0
O539 O 0.66929 0.3505 0.25405 0.0
C540 C 0.57695 0.33984 0.24753 0.0
O541 O 0.60495 0.35382 0.37033 0.0
O542 O 0.60039 0.39239 0.33197 0.0
C543 C 0.61365 0.28339 0.33248 0.0
C544 C 0.68408 0.23129 0.22927 0.0
C545 C 0.70723 0.16848 0.22324 0.0
C546 C 0.68985 0.17696 0.25075 0.0
C547 C 0.67829 0.20783 0.25362 0.0
C548 C 0.70188 0.22295 0.20224 0.0
C549 C 0.71329 0.19218 0.19927 0.0
C550 C 0.6703 0.26418 0.22979 0.0
C551 C 0.70073 0.31513 0.34027 0.0
H552 H 0.48828 0.4405 0.37074 0.0
H553 H 0.5526 0.43169 0.37598 0.0
H554 H 0.54144 0.34245 0.3396 0.0
H555 H 0.4775 0.35098 0.33434 0.0
H556 H 0.68469 0.1596 0.26987 0.0
H557 H 0.66456 0.21332 0.2747 0.0
H558 H 0.7068 0.24037 0.18302 0.0
H559 H 0.72736 0.18705 0.17834 0.0
Tb560 Tb 0.47249 0.87546 0.26468 0.0
Tb561 Tb 0.45137 0.82628 0.32043 0.0
C562 C 0.42991 0.89793 0.32068 0.0
C563 C 0.53592 0.91509 0.22497 0.0
C564 C 0.6082 0.92593 0.23331 0.0
C565 C 0.58122 0.94993 0.22179 0.0
C566 C 0.54547 0.94455 0.21762 0.0
C567 C 0.5629 0.89115 0.23684 0.0
C568 C 0.59854 0.8965 0.2409 0.0
C569 C 0.49821 0.90983 0.22329 0.0
O570 O 0.51234 0.87843 0.31294 0.0
O571 O 0.50152 0.83743 0.34818 0.0
O572 O 0.47259 0.80271 0.27849 0.0
O573 O 0.51171 0.83674 0.27553 0.0
O574 O 0.41431 0.80792 0.34772 0.0
O575 O 0.4689 0.7885 0.35662 0.0
O576 O 0.40398 0.83289 0.2807 0.0
O577 O 0.4281 0.85165 0.23477 0.0
O578 O 0.43299 0.90112 0.28741 0.0
O579 O 0.43958 0.87139 0.33953 0.0
C580 C 0.52027 0.85985 0.34218 0.0
O581 O 0.48969 0.88256 0.2165 0.0
O582 O 0.48401 0.91964 0.24897 0.0
C583 C 0.50196 0.8101 0.26883 0.0
C584 C 0.42688 0.75517 0.36713 0.0
C585 C 0.41998 0.69452 0.38921 0.0
C586 C 0.44029 0.70098 0.36352 0.0
C587 C 0.44369 0.73118 0.35244 0.0
C588 C 0.40387 0.74871 0.39011 0.0
C589 C 0.40022 0.71852 0.40094 0.0
C590 C 0.43765 0.78611 0.36406 0.0
C591 C 0.40257 0.83778 0.2468 0.0
H592 H 0.58778 0.97285 0.21567 0.0
H593 H 0.52527 0.96348 0.20898 0.0
H594 H 0.55649 0.8683 0.24344 0.0
H595 H 0.61858 0.87762 0.25046 0.0
H596 H 0.45553 0.68279 0.35389 0.0
H597 H 0.46135 0.7357 0.33436 0.0
H598 H 0.39053 0.76698 0.4015 0.0
H599 H 0.3836 0.71396 0.42002 0.0
Tb600 Tb 1.02994 0.192 0.77078 0.0
Tb601 Tb 0.06132 0.25941 0.78225 0.0
C602 C 0.10252 0.19538 0.8194 0.0
C603 C 0.9769 0.12352 0.76771 0.0
C604 C 0.91716 0.09181 0.77265 0.0
C605 C 0.94705 0.07728 0.76246 0.0
C606 C 0.97664 0.09294 0.76022 0.0
C607 C 0.94732 0.13819 0.77806 0.0
C608 C 0.91774 0.12246 0.7806 0.0
C609 C 1.00856 0.13928 0.7652 0.0
O610 O 0.99239 0.21532 0.79899 0.0
O611 O 1.0238 0.25454 0.81938 0.0
O612 O 1.02615 0.26689 0.72847 0.0
O613 O 1.00435 0.21972 0.72253 0.0
O614 O 0.10563 0.278 0.80799 0.0
O615 O 0.06131 0.30862 0.77877 0.0
O616 O 0.08151 0.24417 0.73744 0.0
O617 O 0.07718 0.19229 0.74574 0.0
O618 O 0.07173 0.18479 0.81708 0.0
O619 O 0.10454 0.22302 0.80496 0.0
C620 C 0.99734 0.23731 0.82017 0.0
O621 O 1.00635 0.15981 0.73885 0.0
O622 O 1.02481 0.14855 0.79421 0.0
C623 C 1.00751 0.24757 0.70936 0.0
C624 C 0.11442 0.33178 0.81011 0.0
C625 C 0.1618 0.377 0.82982 0.0
C626 C 0.13251 0.38357 0.80186 0.0
C627 C 0.10917 0.36125 0.7921 0.0
C628 C 0.1427 0.32587 0.83902 0.0
C629 C 0.16574 0.34804 0.84879 0.0
C630 C 0.09317 0.30615 0.79785 0.0
C631 C 0.08982 0.21596 0.73096 0.0
H632 H 0.94719 0.0541 0.75504 0.0
H633 H 0.99924 0.08124 0.75216 0.0
H634 H 0.94703 0.16182 0.78387 0.0
H635 H 0.89513 0.1344 0.78836 0.0
H636 H 0.12843 0.40559 0.78664 0.0
H637 H 0.08782 0.36672 0.76968 0.0
H638 H 0.14759 0.30368 0.8539 0.0
H639 H 0.1872 0.34222 0.87105 0.0
Tb640 Tb 0.76215 1.01917 0.65958 0.0
Tb641 Tb 0.74398 0.97395 0.72728 0.0
C642 C 0.72525 0.95576 0.64704 0.0
C643 C 0.78441 0.0889 0.60589 0.0
C644 C 0.80015 0.15042 0.59052 0.0
C645 C 0.79046 0.13128 0.56351 0.0
C646 C 0.78278 0.10115 0.57107 0.0
C647 C 0.79325 0.10802 0.63307 0.0
C648 C 0.80089 0.13834 0.6255 0.0
C649 C 0.77969 0.0557 0.61295 0.0
O650 O 0.71486 0.04341 0.67317 0.0
O651 O 0.71476 1.01843 0.72743 0.0
O652 O 0.78803 1.00048 0.74777 0.0
O653 O 0.77552 0.04185 0.70674 0.0
O654 O 0.70539 0.95668 0.75316 0.0
O655 O 0.76098 0.94822 0.77669 0.0
O656 O 0.78633 0.9482 0.70923 0.0
O657 O 0.80999 0.98828 0.68342 0.0
O658 O 0.74227 0.97832 0.63565 0.0
O659 O 0.71899 0.95337 0.67965 0.0
C660 C 0.70415 0.04178 0.7037 0.0
O661 O 0.80174 0.04026 0.63893 0.0
O662 O 0.74775 0.04773 0.61167 0.0
C663 C 0.79282 0.02863 0.73689 0.0
C664 C 0.72097 0.91789 0.80262 0.0
C665 C 0.70119 0.87393 0.85121 0.0
C666 C 0.73141 0.88932 0.86066 0.0
C667 C 0.74108 0.91098 0.83675 0.0
C668 C 0.6912 0.90202 0.79272 0.0
C669 C 0.68162 0.88012 0.81664 0.0
C670 C 0.72869 0.94468 0.78048 0.0
C671 C 0.81327 0.96024 0.69924 0.0
H672 H 0.78986 0.13926 0.5363 0.0
H673 H 0.7764 0.08705 0.54954 0.0
H674 H 0.79479 0.09937 0.66024 0.0
H675 H 0.80742 0.15225 0.64714 0.0
H676 H 0.74766 0.88462 0.88666 0.0
H677 H 0.76388 0.92307 0.84537 0.0
H678 H 0.6748 0.90704 0.76684 0.0
H679 H 0.65832 0.86857 0.80838 0.0
Tb680 Tb 0.78987 0.98106 0.17783 0.0
Tb681 Tb 0.8221 0.98736 0.25753 0.0
C682 C 0.84217 0.02883 0.19411 0.0
C683 C 0.76126 0.93643 0.10349 0.0
C684 C 0.75577 0.87639 0.08371 0.0
C685 C 0.78501 0.89181 0.07865 0.0
C686 C 0.78772 0.92154 0.08839 0.0
C687 C 0.73134 0.92139 0.1072 0.0
C688 C 0.72861 0.89175 0.09735 0.0
C689 C 0.7659 0.96665 0.11715 0.0
O690 O 0.8416 0.95264 0.19319 0.0
O691 O 0.83408 0.9399 0.24816 0.0
O692 O 0.76884 0.97414 0.25863 0.0
O693 O 0.76659 0.9489 0.20954 0.0
O694 O 0.86811 0.9739 0.29508 0.0
O695 O 0.82419 1.00089 0.30871 0.0
O696 O 0.79258 0.03176 0.24371 0.0
O697 O 0.75966 0.02348 0.19009 0.0
O698 O 0.81437 1.02227 0.17269 0.0
O699 O 0.8536 1.01304 0.22497 0.0
C700 C 0.85001 0.93392 0.22219 0.0
O701 O 0.74599 0.97486 0.13939 0.0
O702 O 0.79843 0.97273 0.12727 0.0
C703 C 0.75323 0.95577 0.23694 0.0
C704 C 0.88004 1.0196 0.31993 0.0
C705 C 0.90821 0.07454 0.30418 0.0
C706 C 0.87889 0.0745 0.32097 0.0
C707 C 0.86503 0.04731 0.3289 0.0
C708 C 0.91127 1.01946 0.30583 0.0
C709 C 0.92519 0.04676 0.29797 0.0
C710 C 0.85838 0.99367 0.31575 0.0
C711 C 0.76705 0.04076 0.21681 0.0
H712 H 0.80618 0.88061 0.0679 0.0
H713 H 0.81094 0.93259 0.08485 0.0
H714 H 0.71022 0.93227 0.11829 0.0
H715 H 0.7052 0.8808 0.10049 0.0
H716 H 0.86643 0.09563 0.32769 0.0
H717 H 0.84119 0.04825 0.33993 0.0
H718 H 0.92372 0.99851 0.29871 0.0
H719 H 0.94857 0.04626 0.28621 0.0
Tb720 Tb 0.35091 0.46844 0.4432 0.0
Tb721 Tb 0.27473 0.45778 0.40092 0.0
C722 C 0.34409 0.42892 0.38281 0.0
C723 C 0.42424 0.51012 0.47381 0.0
C724 C 0.43331 0.5711 0.45506 0.0
C725 C 0.45353 0.54738 0.44346 0.0
C726 C 0.44925 0.51703 0.45304 0.0
C727 C 0.40664 0.53394 0.48817 0.0
C728 C 0.41111 0.56421 0.47878 0.0
C729 C 0.41066 0.47997 0.47301 0.0
O730 O 0.34067 0.50112 0.3946 0.0
O731 O 0.28024 0.5038 0.38138 0.0
O732 O 0.26652 0.48042 0.44766 0.0
O733 O 0.31603 0.50522 0.45487 0.0
O734 O 0.24364 0.4429 0.35653 0.0
O735 O 0.21994 0.46085 0.39802 0.0
O736 O 0.29263 0.41462 0.43248 0.0
O737 O 0.3332 0.43144 0.47555 0.0
O738 O 0.35649 0.42818 0.41627 0.0
O739 O 0.31512 0.4466 0.36912 0.0
C740 C 0.3098 0.51476 0.37732 0.0
O741 O 0.38473 0.47601 0.48982 0.0
O742 O 0.40455 0.47016 0.44171 0.0
C743 C 0.28371 0.50312 0.45943 0.0
C744 C 0.19606 0.41953 0.37256 0.0
C745 C 0.15877 0.36817 0.37668 0.0
C746 C 0.14069 0.39743 0.36643 0.0
C747 C 0.15925 0.42292 0.36451 0.0
C748 C 0.21427 0.39063 0.38423 0.0
C749 C 0.19571 0.36501 0.38615 0.0
C750 C 0.21512 0.4464 0.36982 0.0
C751 C 0.31375 0.40994 0.46331 0.0
H752 H 0.47104 0.55233 0.42535 0.0
H753 H 0.46315 0.49908 0.44169 0.0
H754 H 0.38715 0.52948 0.50426 0.0
H755 H 0.39507 0.58219 0.48785 0.0
H756 H 0.11227 0.40045 0.35785 0.0
H757 H 0.14492 0.44516 0.35583 0.0
H758 H 0.24281 0.38779 0.39092 0.0
H759 H 0.21018 0.34267 0.39363 0.0
Tb760 Tb 0.29934 0.52574 0.89047 0.0
Tb761 Tb 0.34475 0.48153 0.84009 0.0
C762 C 0.3515 0.46666 0.9233 0.0
C763 C 0.26934 0.59311 0.94058 0.0
C764 C 0.26818 0.64797 0.97649 0.0
C765 C 0.30018 0.63299 0.97075 0.0
C766 C 0.30078 0.60599 0.9533 0.0
C767 C 0.23728 0.6089 0.94457 0.0
C768 C 0.23668 0.63589 0.96202 0.0
C769 C 0.26953 0.56168 0.92761 0.0
O770 O 0.34887 0.54593 0.89012 0.0
O771 O 0.3662 0.5269 0.84133 0.0
O772 O 0.29413 0.50136 0.80903 0.0
O773 O 0.29325 0.54523 0.8364 0.0
O774 O 0.37612 0.44136 0.83294 0.0
O775 O 0.3609 0.47714 0.79101 0.0
O776 O 0.30045 0.45626 0.84935 0.0
O777 O 0.26367 0.49042 0.87311 0.0
O778 O 0.32192 0.48392 0.92282 0.0
O779 O 0.36814 0.46769 0.89617 0.0
C780 C 0.36621 0.54819 0.86393 0.0
O781 O 0.25688 0.55857 0.89456 0.0
O782 O 0.29749 0.54255 0.93946 0.0
C783 C 0.28212 0.52999 0.80953 0.0
C784 C 0.37691 0.42628 0.77361 0.0
C785 C 0.38482 0.38263 0.7225 0.0
C786 C 0.36634 0.4119 0.71237 0.0
C787 C 0.36251 0.43332 0.7374 0.0
C788 C 0.39567 0.3972 0.78355 0.0
C789 C 0.3996 0.37594 0.75865 0.0
C790 C 0.37737 0.44993 0.8003 0.0
C791 C 0.27044 0.46387 0.86001 0.0
H792 H 0.32504 0.64184 0.98029 0.0
H793 H 0.32603 0.59469 0.9507 0.0
H794 H 0.21254 0.59968 0.93534 0.0
H795 H 0.21148 0.64656 0.96549 0.0
H796 H 0.35452 0.41823 0.68501 0.0
H797 H 0.34861 0.4556 0.72821 0.0
H798 H 0.40824 0.39103 0.81075 0.0
H799 H 0.41496 0.35425 0.76783 0.0
Tb800 Tb 0.65368 0.74454 1.02161 0.0
Tb801 Tb 0.71667 0.71087 0.98088 0.0
C802 C 0.63353 0.70718 0.95396 0.0
C803 C 0.59862 0.76935 0.09036 0.0
C804 C 0.57026 0.77471 0.15327 0.0
C805 C 0.56341 0.7502 0.13254 0.0
C806 C 0.57738 0.74754 0.10161 0.0
C807 C 0.60571 0.79365 0.11127 0.0
C808 C 0.59178 0.7963 0.14213 0.0
C809 C 0.60942 0.76934 0.05501 0.0
O810 O 0.66512 0.69849 0.04815 0.0
O811 O 0.71475 0.67971 1.02777 0.0
O812 O 0.73444 0.75054 1.00693 0.0
O813 O 0.70618 0.74331 0.05231 0.0
O814 O 0.73986 0.69934 0.9373 0.0
O815 O 0.76947 0.6908 0.99004 0.0
O816 O 0.69353 0.75099 0.94625 0.0
O817 O 0.66423 0.77982 0.98197 0.0
O818 O 0.62601 0.72947 0.97311 0.0
O819 O 0.66623 0.69368 0.95649 0.0
C820 C 0.69227 0.67792 0.04978 0.0
O821 O 0.63895 0.78033 0.05113 0.0
O822 O 0.60426 0.74557 1.0373 0.0
C823 C 0.72988 0.75664 1.03847 0.0
C824 C 0.80385 0.70075 0.94511 0.0
C825 C 0.86813 0.71459 0.92192 0.0
C826 C 0.86881 0.69599 0.95328 0.0
C827 C 0.83739 0.68926 0.96461 0.0
C828 C 0.80296 0.71942 0.91371 0.0
C829 C 0.8345 0.72626 0.90239 0.0
C830 C 0.77088 0.69075 0.95672 0.0
C831 C 0.67735 0.77676 0.95287 0.0
H832 H 0.54699 0.73314 0.14012 0.0
H833 H 0.57077 0.72872 0.08606 0.0
H834 H 0.6212 0.81128 0.10317 0.0
H835 H 0.59696 0.81598 0.15664 0.0
H836 H 0.89383 0.68656 0.96929 0.0
H837 H 0.8394 0.67451 0.98864 0.0
H838 H 0.77785 0.72841 0.89752 0.0
H839 H 0.83243 0.74008 0.87771 0.0
Tb840 Tb 0.22704 0.73391 0.14038 0.0
Tb841 Tb 0.21382 0.80222 0.10022 0.0
C842 C 0.2551 0.74586 0.07174 0.0
C843 C 0.25652 0.66196 0.20766 0.0
C844 C 0.28394 0.61816 0.26684 0.0
C845 C 0.29114 0.6136 0.23313 0.0
C846 C 0.27755 0.6351 0.20402 0.0
C847 C 0.25064 0.66716 0.24167 0.0
C848 C 0.26411 0.64565 0.2707 0.0
C849 C 0.23646 0.68134 0.17551 0.0
O850 O 0.26483 0.76213 0.17218 0.0
O851 O 0.26755 0.79999 0.12946 0.0
O852 O 0.19526 0.80449 0.15163 0.0
O853 O 0.17921 0.75645 0.15345 0.0
O854 O 0.2336 0.84005 0.07765 0.0
O855 O 0.17849 0.84163 0.08116 0.0
O856 O 0.16843 0.7803 0.07668 0.0
O857 O 0.19116 0.73024 0.08779 0.0
O858 O 0.26451 0.7357 0.10505 0.0
O859 O 0.2329 0.77105 0.06297 0.0
C860 C 0.28066 0.78543 0.16029 0.0
O861 O 0.21415 0.70386 0.17983 0.0
O862 O 0.25228 0.68848 0.14956 0.0
C863 C 0.17684 0.78382 0.16442 0.0
C864 C 0.19405 0.87405 1.0354 0.0
C865 C 0.19348 0.91578 0.97655 0.0
C866 C 0.17686 0.9245 1.0041 0.0
C867 C 0.17723 0.90378 1.03334 0.0
C868 C 0.20722 0.86431 1.00616 0.0
C869 C 0.20685 0.88504 0.97689 0.0
C870 C 0.20292 0.85608 0.07005 0.0
C871 C 0.16923 0.75232 0.06745 0.0
H872 H 0.30565 0.59259 0.22876 0.0
H873 H 0.28213 0.62997 0.17823 0.0
H874 H 0.23435 0.68729 0.24575 0.0
H875 H 0.25802 0.65014 0.29614 0.0
H876 H 0.16668 0.94807 1.00465 0.0
H877 H 0.1669 0.91176 0.0556 0.0
H878 H 0.22017 0.84143 1.00703 0.0
H879 H 0.21985 0.8778 0.95593 0.0
Tb880 Tb 0.422 0.25463 0.55491 0.0
Tb881 Tb 0.35702 0.23017 0.59225 0.0
C882 C 0.43775 0.21588 0.62892 0.0
C883 C 0.48715 0.27059 0.49181 0.0
C884 C 0.52366 0.26631 0.43411 0.0
C885 C 0.53755 0.28061 0.46414 0.0
C886 C 0.51966 0.28265 0.49242 0.0
C887 C 0.47243 0.25692 0.46152 0.0
C888 C 0.4904 0.25502 0.43283 0.0
C889 C 0.47088 0.27181 0.52397 0.0
O890 O 0.41298 0.20932 0.53454 0.0
O891 O 0.35855 0.20263 0.54781 0.0
O892 O 0.33932 0.27591 0.56412 0.0
O893 O 0.37169 0.2704 0.52127 0.0
O894 O 0.33693 0.21112 0.63526 0.0
O895 O 0.30446 0.21935 0.58332 0.0
O896 O 0.37184 0.26748 0.62313 0.0
O897 O 0.41223 0.28925 0.59362 0.0
O898 O 0.44606 0.2383 0.60878 0.0
O899 O 0.40681 0.20475 0.62166 0.0
C900 C 0.38432 0.19447 0.53148 0.0
O901 O 0.44036 0.28765 0.52191 0.0
O902 O 0.47348 0.24668 0.54458 0.0
C903 C 0.34692 0.28568 0.5337 0.0
C904 C 0.27358 0.21419 0.63168 0.0
C905 C 0.21129 0.21301 0.66103 0.0
C906 C 0.20934 0.2157 0.62434 0.0
C907 C 0.24001 0.21627 0.60989 0.0
C908 C 0.27557 0.21173 0.66841 0.0
C909 C 0.24482 0.2112 0.68288 0.0
C910 C 0.30591 0.20926 0.61608 0.0
C911 C 0.393 0.28884 0.61926 0.0
H912 H 0.56259 0.29023 0.46587 0.0
H913 H 0.53163 0.29342 0.51523 0.0
H914 H 0.44739 0.24739 0.46024 0.0
H915 H 0.47875 0.24404 0.41009 0.0
H916 H 0.18411 0.21646 0.60668 0.0
H917 H 0.23743 0.21725 0.58154 0.0
H918 H 0.30096 0.20934 0.68604 0.0
H919 H 0.24728 0.20921 0.71125 0.0
Tb920 Tb 0.90926 0.24608 0.48035 0.0
Tb921 Tb 0.88827 0.31254 0.49639 0.0
C922 C 0.85732 0.25435 0.53238 0.0
C923 C 0.92975 0.19022 0.42165 0.0
C924 C 0.93315 0.17755 0.3521 0.0
C925 C 0.90167 0.17557 0.36522 0.0
C926 C 0.90004 0.18174 0.39948 0.0
C927 C 0.96071 0.19382 0.4082 0.0
C928 C 0.96232 0.18779 0.37359 0.0
C929 C 0.92746 0.19653 0.45802 0.0
O930 O 0.86383 0.26567 0.43743 0.0
O931 O 0.83918 0.30097 0.46793 0.0
O932 O 0.9038 0.31355 0.44242 0.0
O933 O 0.94431 0.27385 0.45743 0.0
O934 O 0.8522 0.34946 0.50107 0.0
O935 O 0.90703 0.35588 0.50144 0.0
O936 O 0.9322 0.29804 0.54055 0.0
O937 O 0.93433 0.24644 0.53706 0.0
O938 O 0.8698 0.23718 0.51065 0.0
O939 O 0.86422 0.28342 0.5343 0.0
C940 C 0.83651 0.28486 0.44097 0.0
O941 O 0.95012 0.21389 0.47328 0.0
O942 O 0.89575 0.204 0.46352 0.0
C943 C 0.93081 0.29669 0.43459 0.0
C944 C 0.87321 0.39277 0.52711 0.0
C945 C 0.85595 0.4403 0.56773 0.0
C946 C 0.8614 0.44687 0.53324 0.0
C947 C 0.86992 0.42332 0.51316 0.0
C948 C 0.86986 0.38603 0.56221 0.0
C949 C 0.86149 0.40969 0.58247 0.0
C950 C 0.87584 0.36888 0.50296 0.0
C951 C 0.94253 0.27008 0.55518 0.0
H952 H 0.87891 0.16681 0.35013 0.0
H953 H 0.8757 0.17888 0.40891 0.0
H954 H 0.984 0.20039 0.42473 0.0
H955 H 0.98701 0.18917 0.36439 0.0
H956 H 0.85725 0.47013 0.52111 0.0
H957 H 0.87229 0.42892 0.48605 0.0
H958 H 0.87242 0.36254 0.57344 0.0
H959 H 0.85828 0.40398 0.60928 0.0
C960 C 0.12466 0.30601 0.32547 0.0
C961 C 0.08909 0.30987 0.32878 0.0
C962 C 0.14956 0.32169 0.34587 0.0
C963 C 0.13925 0.34131 0.37003 0.0
H964 H 0.13242 0.29419 0.30411 0.0
H965 H 0.17562 0.3216 0.33929 0.0
S966 S 0.05196 0.34983 0.39658 0.0
N967 N 0.04662 0.32796 0.36364 0.0
N968 N 0.09384 0.35677 0.40288 0.0
C969 C 0.10533 0.3406 0.37792 0.0
C970 C 0.07993 0.32506 0.35684 0.0
C971 C 0.37143 0.60517 0.87099 0.0
C972 C 0.38283 0.57768 0.85752 0.0
C973 C 0.38349 0.63381 0.86187 0.0
C974 C 0.40764 0.63643 0.83882 0.0
H975 H 0.35186 0.60486 0.88774 0.0
H976 H 0.37271 0.65413 0.87182 0.0
S977 S 0.44978 0.57105 0.80026 0.0
N978 N 0.42237 0.55517 0.82246 0.0
N979 N 0.44538 0.60775 0.80604 0.0
C980 C 0.42061 0.60876 0.82685 0.0
C981 C 0.40818 0.57988 0.8359 0.0
C982 C 0.67403 0.12528 0.71575 0.0
C983 C 0.65908 0.12256 0.74635 0.0
C984 C 0.68679 0.0992 0.7007 0.0
C985 C 0.6847 0.06922 0.71529 0.0
H986 H 0.67705 0.14772 0.70403 0.0
H987 H 0.69968 0.10264 0.67834 0.0
S988 S 0.64281 0.04953 0.79204 0.0
N989 N 0.63979 0.08719 0.78834 0.0
N990 N 0.66276 0.03886 0.7601 0.0
C991 C 0.66789 0.06638 0.74464 0.0
C992 C 0.6554 0.09276 0.76011 0.0
C993 C 0.91091 0.86128 0.26204 0.0
C994 C 0.94289 0.86526 0.25041 0.0
C995 C 0.88079 0.88289 0.2518 0.0
C996 C 0.88067 0.90917 0.22853 0.0
H997 H 0.90966 0.84223 0.28085 0.0
H998 H 0.85758 0.87933 0.26298 0.0
S999 S 0.9566 0.9295 0.1882 0.0
N1000 N 0.97171 0.89733 0.21289 0.0
N1001 N 0.91519 0.93686 0.19285 0.0
C1002 C 0.9118 0.91255 0.21518 0.0
C1003 C 0.94274 0.89098 0.22629 0.0
C1004 C 0.35546 0.14608 0.51562 0.0
C1005 C 0.37968 0.16725 0.50926 0.0
C1006 C 0.34861 0.12132 0.49482 0.0
C1007 C 0.36511 0.11617 0.46578 0.0
H1008 H 0.34123 0.14867 0.53703 0.0
H1009 H 0.32933 0.10647 0.50119 0.0
S1010 S 0.43128 0.16438 0.43727 0.0
N1011 N 0.42086 0.18057 0.47159 0.0
N1012 N 0.40772 0.13493 0.43233 0.0
C1013 C 0.38977 0.13698 0.45923 0.0
C1014 C 0.39712 0.16206 0.48087 0.0
C1015 C 0.19269 0.98686 0.9133 0.0
C1016 C 0.22886 0.99111 0.91819 0.0
C1017 C 0.18089 0.96185 0.93129 0.0
C1018 C 0.20504 0.9398 0.95348 0.0
H1019 H 0.17342 1.00353 0.89674 0.0
H1020 H 0.15279 0.95999 0.92832 0.0
S1021 S 0.30253 0.93898 0.97269 0.0
N1022 N 0.28863 0.97009 0.94589 0.0
N1023 N 0.26651 0.92317 0.97796 0.0
C1024 C 0.24118 0.94314 0.95712 0.0
C1025 C 0.25306 0.96875 0.93992 0.0
C1026 C 0.85602 0.49348 0.58727 0.0
C1027 C 0.84157 0.46521 0.58668 0.0
C1028 C 0.84077 0.51817 0.60219 0.0
C1029 C 0.81017 0.51568 0.61665 0.0
H1030 H 0.87919 0.4966 0.57586 0.0
H1031 H 0.85272 0.53949 0.60181 0.0
S1032 S 0.76255 0.44622 0.62256 0.0
N1033 N 0.79519 0.4361 0.60234 0.0
N1034 N 0.76685 0.48201 0.63072 0.0
C1035 C 0.79586 0.48729 0.6168 0.0
C1036 C 0.81149 0.4622 0.60179 0.0
C1037 C 0.7345 0.6053 0.10852 0.0
C1038 C 0.71768 0.60522 0.13807 0.0
C1039 C 0.72557 0.62818 0.08009 0.0
C1040 C 0.69913 0.65238 0.07931 0.0
H1041 H 0.75543 0.58769 0.10736 0.0
H1042 H 0.74004 0.62699 0.05871 0.0
S1043 S 0.64602 0.66309 0.14948 0.0
N1044 N 0.6725 0.63166 0.16412 0.0
N1045 N 0.65555 0.67437 0.11104 0.0
C1046 C 0.6814 0.65231 0.1083 0.0
C1047 C 0.69065 0.62893 0.13742 0.0
C1048 C 0.51307 0.34486 0.1588 0.0
C1049 C 0.47927 0.34399 0.16751 0.0
C1050 C 0.54377 0.34476 0.18464 0.0
C1051 C 0.54266 0.34346 0.2209 0.0
H1052 H 0.51605 0.34465 0.13157 0.0
H1053 H 0.56883 0.3448 0.17593 0.0
S1054 S 0.46059 0.34158 0.25807 0.0
N1055 N 0.44641 0.34272 0.21514 0.0
N1056 N 0.50389 0.34231 0.26386 0.0
C1057 C 0.50881 0.34368 0.23002 0.0
C1058 C 0.4773 0.34402 0.20341 0.0
C1059 C 0.94673 0.27616 0.88613 0.0
C1060 C 0.92522 0.25413 0.89696 0.0
C1061 C 0.96968 0.27056 0.86194 0.0
C1062 C 0.97229 0.24272 0.84626 0.0
H1063 H 0.94613 0.29821 0.89668 0.0
H1064 H 0.98533 0.28855 0.85522 0.0
S1065 S 0.92214 0.17683 0.865 0.0
N1066 N 0.90882 0.20279 0.88964 0.0
N1067 N 0.95089 0.19247 0.8443 0.0
C1068 C 0.95088 0.22043 0.85676 0.0
C1069 C 0.92784 0.22601 0.88189 0.0
C1070 C 0.54637 0.86082 0.4055 0.0
C1071 C 0.55135 0.86281 0.37038 0.0
C1072 C 0.57493 0.85481 0.43387 0.0
C1073 C 0.61006 0.85033 0.42867 0.0
H1074 H 0.51985 0.86209 0.4111 0.0
H1075 H 0.56922 0.85188 0.4602 0.0
S1076 S 0.63794 0.85524 0.34188 0.0
N1077 N 0.59441 0.86174 0.33191 0.0
N1078 N 0.64833 0.85035 0.38535 0.0
C1079 C 0.61577 0.85431 0.39377 0.0
C1080 C 0.58639 0.86053 0.36462 0.0
C1081 C 0.1117 0.76563 0.69806 0.0
C1082 C 0.14186 0.74695 0.69314 0.0
C1083 C 0.10121 0.76716 0.73128 0.0
C1084 C 0.11958 0.74962 0.76218 0.0
H1085 H 0.096 0.77994 0.67589 0.0
H1086 H 0.07785 0.78212 0.73248 0.0
S1087 S 0.20031 0.69636 0.76516 0.0
N1088 N 0.19017 0.71037 0.72347 0.0
N1089 N 0.16992 0.71227 0.78498 0.0
C1090 C 0.14948 0.73032 0.75775 0.0
C1091 C 0.16063 0.7292 0.72379 0.0
C1092 C 0.95604 0.74292 0.76054 0.0
C1093 C 0.99189 0.73961 0.7582 0.0
C1094 C 0.93168 0.72823 0.73816 0.0
C1095 C 0.94279 0.71012 0.713 0.0
H1096 H 0.94755 0.75356 0.78233 0.0
H1097 H 0.90529 0.72777 0.74381 0.0
S1098 S 1.03136 0.70387 0.68906 0.0
N1099 N 1.03567 0.72389 0.72366 0.0
N1100 N 0.98951 0.6969 0.68081 0.0
C1101 C 0.97716 0.71151 0.70646 0.0
C1102 C 1.002 0.72603 0.72952 0.0
C1103 C 0.67062 0.43432 0.27077 0.0
C1104 C 0.67739 0.40746 0.2538 0.0
C1105 C 0.68217 0.46275 0.26132 0.0
C1106 C 0.70123 0.46674 0.23398 0.0
H1107 H 0.6563 0.43367 0.29231 0.0
H1108 H 0.67631 0.48179 0.27614 0.0
S1109 S 0.72641 0.4047 0.18009 0.0
N1110 N 0.70466 0.3875 0.20752 0.0
N1111 N 0.7264 0.44063 0.18956 0.0
C1112 C 0.70801 0.44033 0.21623 0.0
C1113 C 0.69621 0.41103 0.2261 0.0
C1114 C 0.40212 0.92278 0.36814 0.0
C1115 C 0.41692 0.92555 0.33741 0.0
C1116 C 0.38911 0.94879 0.38319 0.0
C1117 C 0.39068 0.97883 0.36848 0.0
H1118 H 0.39969 0.90032 0.38018 0.0
H1119 H 0.37665 0.94524 0.40583 0.0
S1120 S 0.43098 0.9989 0.2907 0.0
N1121 N 0.43483 0.96123 0.29473 0.0
N1122 N 0.41127 1.00937 0.32288 0.0
C1123 C 0.40688 0.98178 0.3387 0.0
C1124 C 0.41971 0.95546 0.32326 0.0
C1125 C 0.20066 0.16445 0.85186 0.0
C1126 C 0.19965 0.13251 0.85606 0.0
C1127 C 0.16934 0.18472 0.84122 0.0
C1128 C 0.13557 0.17396 0.83412 0.0
H1129 H 0.2259 0.17382 0.85608 0.0
H1130 H 0.17172 0.20899 0.83787 0.0
S1131 S 0.11923 0.09181 0.83884 0.0
N1132 N 0.16245 0.09108 0.85099 0.0
N1133 N 0.10417 0.12829 0.83108 0.0
C1134 C 0.13457 0.14187 0.83836 0.0
C1135 C 0.16635 0.12146 0.8492 0.0
C1136 C 0.69337 0.90779 0.63152 0.0
C1137 C 0.71458 0.93084 0.62256 0.0
C1138 C 0.68527 0.88341 0.61 0.0
C1139 C 0.69847 0.88027 0.57856 0.0
H1140 H 0.68312 0.9083 0.65569 0.0
H1141 H 0.66937 0.86639 0.6187 0.0
S1142 S 0.75378 0.9347 0.54156 0.0
N1143 N 0.74722 0.94879 0.57835 0.0
N1144 N 0.73276 0.9037 0.53909 0.0
C1145 C 0.71912 0.90343 0.56905 0.0
C1146 C 0.72692 0.92834 0.59056 0.0
C1147 C 0.84479 0.10796 0.15222 0.0
C1148 C 0.87896 0.10731 0.14439 0.0
C1149 C 0.83434 0.08321 0.17114 0.0
C1150 C 0.85761 0.05682 0.18348 0.0
H1151 H 0.825 0.12674 0.1414 0.0
H1152 H 0.80704 0.08401 0.17431 0.0
S1153 S 0.95164 0.0454 0.17563 0.0
N1154 N 0.93753 0.07943 0.15462 0.0
N1155 N 0.91748 0.0328 0.19037 0.0
C1156 C 0.89268 0.05677 0.17872 0.0
C1157 C 0.90341 0.082 0.15905 0.0
C1158 C 0.27061 0.57811 0.49965 0.0
C1159 C 0.23569 0.57938 0.5053 0.0
C1160 C 0.2857 0.55314 0.48547 0.0
C1161 C 0.26655 0.52824 0.47603 0.0
H1162 H 0.28674 0.59639 0.50686 0.0
H1163 H 0.31276 0.55363 0.48181 0.0
S1164 S 0.17361 0.52075 0.48489 0.0
N1165 N 0.18198 0.55388 0.50012 0.0
N1166 N 0.21029 0.50675 0.47313 0.0
C1167 C 0.23144 0.52921 0.48144 0.0
C1168 C 0.21607 0.55476 0.49618 0.0
C1169 C 0.39736 0.39519 0.98269 0.0
C1170 C 0.38344 0.39698 1.01394 0.0
C1171 C 0.38819 0.41812 0.95412 0.0
C1172 C 0.36466 0.4441 0.95531 0.0
H1173 H 0.4147 0.37536 0.97967 0.0
H1174 H 0.39875 0.41488 0.93048 0.0
S1175 S 0.32395 0.46192 1.03247 0.0
N1176 N 0.34697 0.42846 1.04499 0.0
N1177 N 0.33012 0.47127 0.9922 0.0
C1178 C 0.35183 0.4468 0.98706 0.0
C1179 C 0.36105 0.42343 1.01599 0.0
C1180 C 0.53723 0.70312 0.91132 0.0
C1181 C 0.53829 0.69533 0.87695 0.0
C1182 C 0.56818 0.70462 0.93624 0.0
C1183 C 0.60227 0.69874 0.92834 0.0
H1184 H 0.51207 0.70919 0.91884 0.0
H1185 H 0.56519 0.7117 0.96179 0.0
S1186 S 0.62038 0.67529 0.84285 0.0
N1187 N 0.57678 0.6797 0.83692 0.0
N1188 N 0.63496 0.68291 0.88373 0.0
C1189 C 0.60394 0.68926 0.89468 0.0
C1190 C 0.57208 0.68752 0.86908 0.0
C1191 C 0.13114 0.82269 0.23456 0.0
C1192 C 0.10887 0.80103 0.24471 0.0
C1193 C 0.15257 0.81749 0.20869 0.0
C1194 C 0.15323 0.79022 0.19154 0.0
H1195 H 0.13179 0.84415 0.24642 0.0
H1196 H 0.16891 0.83503 0.20225 0.0
S1197 S 0.10057 0.72554 0.2085 0.0
N1198 N 0.08978 0.75077 0.23504 0.0
N1199 N 0.12908 0.74115 0.18758 0.0
C1200 C 0.13121 0.76838 0.20171 0.0
C1201 C 0.10946 0.7737 0.22777 0.0
C1202 C 0.51082 0.17247 0.70062 0.0
C1203 C 0.52113 0.19588 0.7221 0.0
C1204 C 0.48198 0.17796 0.67165 0.0
C1205 C 0.46263 0.20703 0.66327 0.0
H1206 H 0.52642 0.15049 0.70477 0.0
H1207 H 0.47623 0.15999 0.65456 0.0
S1208 S 0.47632 0.27462 0.71381 0.0
N1209 N 0.50699 0.24806 0.73485 0.0
N1210 N 0.45447 0.25836 0.68074 0.0
C1211 C 0.4716 0.22976 0.68589 0.0
C1212 C 0.50029 0.22418 0.7152 0.0
C1213 C 0.92381 0.31716 0.36837 0.0
C1214 C 0.94311 0.29919 0.39875 0.0
C1215 C 0.93426 0.317 0.33466 0.0
C1216 C 0.96413 0.29828 0.32899 0.0
H1217 H 0.90013 0.33129 0.37047 0.0
H1218 H 0.91842 0.33147 0.31272 0.0
S1219 S 1.02653 0.24967 0.39997 0.0
N1220 N 0.99605 0.26435 0.42043 0.0
N1221 N 1.01419 0.26312 0.35836 0.0
C1222 C 0.98385 0.28075 0.35929 0.0
C1223 C 0.9738 0.28144 0.39351 0.0
C1224 C 0.22507 0.11484 0.33703 0.0
C1225 C 0.23101 0.10481 0.37312 0.0
C1226 C 0.19274 0.1303 0.31967 0.0
C1227 C 0.16499 0.13701 0.33772 0.0
H1228 H 0.24557 0.11038 0.32183 0.0
H1229 H 0.18964 0.13748 0.29186 0.0
S1230 S 0.16704 0.11606 0.43264 0.0
N1231 N 0.20638 0.10242 0.42641 0.0
N1232 N 0.14568 0.13238 0.39404 0.0
C1233 C 0.17058 0.1273 0.37396 0.0
C1234 C 0.20347 0.11089 0.39155 0.0
C1235 C 0.36448 0.96114 0.8814 0.0
C1236 C 0.32785 0.96941 0.87708 0.0
C1237 C 0.37814 0.93061 0.87892 0.0
C1238 C 0.35582 0.90696 0.87287 0.0
H1239 H 0.38259 0.9785 0.88527 0.0
H1240 H 0.40643 0.92551 0.88166 0.0
S1241 S 0.25802 0.91633 0.86157 0.0
N1242 N 0.26972 0.95096 0.86712 0.0
N1243 N 0.29516 0.89434 0.86373 0.0
C1244 C 0.31931 0.91493 0.86967 0.0
C1245 C 0.30546 0.94584 0.87142 0.0
C1246 C 0.68295 0.43213 0.68714 0.0
C1247 C 0.64909 0.44805 0.67705 0.0
C1248 C 0.68741 0.40212 0.70261 0.0
C1249 C 0.65818 0.38726 0.70876 0.0
H1250 H 0.7061 0.44279 0.68244 0.0
H1251 H 0.71372 0.39016 0.70888 0.0
S1252 S 0.56423 0.41926 0.68798 0.0
N1253 N 0.58608 0.44722 0.67504 0.0
N1254 N 0.59441 0.3906 0.70436 0.0
C1255 C 0.62433 0.4033 0.70007 0.0
C1256 C 0.61979 0.43383 0.68416 0.0
C1257 C 0.83574 0.62651 0.26415 0.0
C1258 C 0.83954 0.60374 0.24081 0.0
C1259 C 0.86124 0.6472 0.27253 0.0
C1260 C 0.89201 0.64672 0.25782 0.0
H1261 H 0.81279 0.62843 0.27652 0.0
H1262 H 0.85646 0.6641 0.29047 0.0
S1263 S 0.91605 0.59146 0.19597 0.0
N1264 N 0.8776 0.58188 0.20367 0.0
N1265 N 0.92522 0.62067 0.21916 0.0
C1266 C 0.89639 0.62407 0.2345 0.0
C1267 C 0.87044 0.60268 0.22618 0.0
C1268 C 0.38531 0.19134 0.1718 0.0
C1269 C 0.39325 0.19333 0.20852 0.0
C1270 C 0.39212 0.21472 0.14776 0.0
C1271 C 0.40647 0.24121 0.15956 0.0
H1272 H 0.37312 0.17182 0.16158 0.0
H1273 H 0.3843 0.21281 0.1198 0.0
S1274 S 0.43279 0.25749 0.25262 0.0
N1275 N 0.41742 0.22376 0.25515 0.0
N1276 N 0.42942 0.26762 0.2102 0.0
C1277 C 0.41536 0.24307 0.19609 0.0
C1278 C 0.40899 0.21919 0.22048 0.0
C1279 C 0.17761 0.90234 0.79394 0.0
C1280 C 0.15441 0.92878 0.79293 0.0
C1281 C 0.16501 0.87582 0.78125 0.0
C1282 C 0.12913 0.87586 0.76581 0.0
H1283 H 0.20589 0.90344 0.79966 0.0
H1284 H 0.18447 0.85787 0.77738 0.0
S1285 S 0.05672 0.93356 0.77411 0.0
N1286 N 0.09323 0.94938 0.7884 0.0
N1287 N 0.06962 0.89903 0.76446 0.0
C1288 C 0.10522 0.89896 0.77364 0.0
C1289 C 0.11797 0.92608 0.78661 0.0
C1290 C 0.75477 0.49623 0.75756 0.0
C1291 C 0.78175 0.50578 0.74046 0.0
C1292 C 0.76131 0.47154 0.78423 0.0
C1293 C 0.79501 0.4549 0.79474 0.0
H1294 H 0.7286 0.5084 0.75102 0.0
H1295 H 0.73977 0.46559 0.79695 0.0
S1296 S 0.87438 0.46925 0.75689 0.0
N1297 N 0.84327 0.49504 0.73499 0.0
N1298 N 0.85536 0.44973 0.78489 0.0
C1299 C 0.82182 0.46364 0.77701 0.0
C1300 C 0.81526 0.48869 0.75005 0.0
C1301 C 0.68256 0.68281 0.42551 0.0
C1302 C 0.6864 0.69048 0.39027 0.0
C1303 C 0.67792 0.70539 0.44928 0.0
C1304 C 0.67729 0.73694 0.43927 0.0
H1305 H 0.68322 0.65902 0.43498 0.0
H1306 H 0.67619 0.69794 0.47606 0.0
S1307 S 0.68579 0.76998 0.35043 0.0
N1308 N 0.68896 0.73279 0.34723 0.0
N1309 N 0.6801 0.77439 0.39098 0.0
C1310 C 0.68052 0.74487 0.40404 0.0
C1311 C 0.68504 0.72205 0.37992 0.0
C1312 C 0.15544 0.3498 0.18567 0.0
C1313 C 0.17885 0.32532 0.17931 0.0
C1314 C 0.12268 0.34518 0.19573 0.0
C1315 C 0.11129 0.31576 0.20025 0.0
H1316 H 0.16233 0.373 0.18254 0.0
H1317 H 0.1062 0.36506 0.20018 0.0
S1318 S 0.16315 0.24338 0.18866 0.0
N1319 N 0.18831 0.27017 0.17958 0.0
N1320 N 0.12737 0.26147 0.19809 0.0
C1321 C 0.13454 0.291 0.19411 0.0
C1322 C 0.16791 0.29576 0.18377 0.0
C1323 C 0.75184 0.22171 0.91864 0.0
C1324 C 0.76772 0.247 0.90528 0.0
C1325 C 0.7223 0.20938 0.89886 0.0
C1326 C 0.70693 0.22135 0.86423 0.0
H1327 H 0.76249 0.21098 0.94485 0.0
H1328 H 0.71202 0.18987 0.91059 0.0
S1329 S 0.73572 0.28899 0.81715 0.0
N1330 N 0.76353 0.28428 0.85523 0.0
N1331 N 0.70909 0.2618 0.81848 0.0
C1332 C 0.72202 0.24711 0.8509 0.0
C1333 C 0.75189 0.25966 0.8711 0.0
C1334 C 0.89238 0.82171 0.3733 0.0
C1335 C 0.89095 0.83945 0.4017 0.0
C1336 C 0.92148 0.82043 0.35651 0.0
C1337 C 0.95063 0.83705 0.36693 0.0
H1338 H 0.87124 0.80784 0.36458 0.0
H1339 H 0.92129 0.80569 0.33535 0.0
S1340 S 0.95927 0.8887 0.43843 0.0
N1341 N 0.92062 0.87538 0.4386 0.0
N1342 N 0.97555 0.8729 0.40667 0.0
C1343 C 0.94919 0.8558 0.39447 0.0
C1344 C 0.91943 0.8569 0.41201 0.0
C1345 C 0.31844 0.75291 0.73308 0.0
C1346 C 0.34965 0.74125 0.72195 0.0
C1347 C 0.28615 0.76184 0.70918 0.0
C1348 C 0.28326 0.75961 0.67276 0.0
H1349 H 0.31861 0.75472 0.7608 0.0
H1350 H 0.26301 0.76944 0.71952 0.0
S1351 S 0.35719 0.7335 0.62884 0.0
N1352 N 0.37526 0.73008 0.67106 0.0
N1353 N 0.31556 0.74674 0.62657 0.0
C1354 C 0.31452 0.74902 0.66115 0.0
C1355 C 0.34727 0.7399 0.68545 0.0
C1356 C 0.85181 0.91183 0.72349 0.0
C1357 C 0.84906 0.94311 0.71164 0.0
C1358 C 0.88414 0.89594 0.74047 0.0
C1359 C 0.91534 0.91056 0.74678 0.0
H1360 H 0.82851 0.89957 0.72052 0.0
H1361 H 0.88437 0.87218 0.74995 0.0
S1362 S 0.92374 0.99144 0.71848 0.0
N1363 N 0.88138 0.98761 0.7056 0.0
N1364 N 0.942 0.95769 0.73746 0.0
C1365 C 0.91341 0.94151 0.73393 0.0
C1366 C 0.88043 0.95772 0.71631 0.0
C1367 C 0.7515 0.08636 0.24908 0.0
C1368 C 0.74846 0.07243 0.21705 0.0
C1369 C 0.73764 0.11676 0.25077 0.0
C1370 C 0.72017 0.13535 0.22049 0.0
H1371 H 0.76522 0.07375 0.27341 0.0
H1372 H 0.74157 0.12602 0.27613 0.0
S1373 S 0.70349 0.11027 0.12992 0.0
N1374 N 0.72538 0.07992 0.1542 0.0
N1375 N 0.69938 0.1368 0.15724 0.0
C1376 C 0.71632 0.12167 0.18825 0.0
C1377 C 0.73026 0.09043 0.18659 0.0
C1378 C 0.41874 0.63831 0.3861 0.0
C1379 C 0.42269 0.66326 0.40647 0.0
C1380 C 0.42309 0.60843 0.40212 0.0
C1381 C 0.43165 0.6026 0.43897 0.0
H1382 H 0.41201 0.64194 0.35765 0.0
H1383 H 0.41903 0.5898 0.38559 0.0
S1384 S 0.44725 0.65978 0.50385 0.0
N1385 N 0.43743 0.68011 0.46527 0.0
N1386 N 0.44517 0.6238 0.49529 0.0
C1387 C 0.43602 0.62725 0.4596 0.0
C1388 C 0.43166 0.65765 0.44335 0.0
C1389 C 0.18019 0.43022 0.84252 0.0
C1390 C 0.1894 0.39919 0.83822 0.0
C1391 C 0.20621 0.45078 0.85084 0.0
C1392 C 0.24269 0.44147 0.85457 0.0
H1393 H 0.15263 0.43866 0.83972 0.0
H1394 H 0.19753 0.47432 0.85359 0.0
S1395 S 0.28096 0.36268 0.84575 0.0
N1396 N 0.23793 0.36051 0.83821 0.0
N1397 N 0.28617 0.39836 0.85381 0.0
C1398 C 0.25207 0.4104 0.8505 0.0
C1399 C 0.22573 0.38959 0.84233 0.0
C1400 C 0.67755 0.7985 0.8913 0.0
C1401 C 0.67745 0.80351 0.92684 0.0
C1402 C 0.68385 0.82162 0.86691 0.0
C1403 C 0.69093 0.8508 0.87696 0.0
H1404 H 0.67371 0.77611 0.88239 0.0
H1405 H 0.68466 0.81616 0.84027 0.0
S1406 S 0.69104 0.87675 0.96602 0.0
N1407 N 0.68283 0.84066 0.97019 0.0
N1408 N 0.69489 0.88408 0.92455 0.0
C1409 C 0.68953 0.85656 0.91207 0.0
C1410 C 0.68264 0.83302 0.93687 0.0
C1411 C 0.95669 0.10725 0.31667 0.0
C1412 C 0.92306 0.10362 0.29772 0.0
C1413 C 0.96424 0.13569 0.32807 0.0
C1414 C 0.93777 0.16049 0.32148 0.0
H1415 H 0.97501 0.08745 0.32747 0.0
H1416 H 0.98801 0.13635 0.34753 0.0
S1417 S 0.85339 0.16528 0.25785 0.0
N1418 N 0.86907 0.12893 0.26137 0.0
N1419 N 0.88343 0.18264 0.28288 0.0
C1420 C 0.90842 0.15878 0.29466 0.0
C1421 C 0.90063 0.12987 0.28314 0.0
C1422 C 0.26728 0.58528 0.31611 0.0
C1423 C 0.29328 0.59317 0.29686 0.0
C1424 C 0.27364 0.56079 0.34254 0.0
C1425 C 0.3065 0.54274 0.3516 0.0
H1426 H 0.24114 0.59756 0.30995 0.0
H1427 H 0.25208 0.55569 0.35566 0.0
S1428 S 0.38497 0.55522 0.31164 0.0
N1429 N 0.35433 0.58189 0.29043 0.0
N1430 N 0.36627 0.53593 0.34023 0.0
C1431 C 0.33335 0.55102 0.33362 0.0
C1432 C 0.32673 0.57601 0.30623 0.0
C1433 C 0.39691 0.36594 0.66271 0.0
C1434 C 0.38794 0.3588 0.69612 0.0
C1435 C 0.4 0.34351 0.63837 0.0
C1436 C 0.39362 0.31283 0.64588 0.0
H1437 H 0.40184 0.38911 0.65534 0.0
H1438 H 0.40651 0.35048 0.61314 0.0
S1439 S 0.36897 0.28195 0.72939 0.0
N1440 N 0.37253 0.31836 0.73467 0.0
N1441 N 0.37814 0.27698 0.69018 0.0
C1442 C 0.38468 0.3056 0.67928 0.0
C1443 C 0.38194 0.3282 0.70392 0.0
C1444 C 0.96198 0.70236 0.90021 0.0
C1445 C 0.96881 0.73156 0.88705 0.0
C1446 C 0.92986 0.69724 0.91137 0.0
C1447 C 0.90234 0.7209 0.90959 0.0
H1448 H 0.98176 0.6831 0.90211 0.0
H1449 H 0.92641 0.67426 0.92109 0.0
S1450 S 0.90605 0.80181 0.87722 0.0
N1451 N 0.94448 0.78465 0.87297 0.0
N1452 N 0.88477 0.77505 0.89374 0.0
C1453 C 0.9087 0.75021 0.89635 0.0
C1454 C 0.94158 0.75551 0.88527 0.0
C1455 C 0.32165 0.79235 0.21868 0.0
C1456 C 0.31318 0.7974 0.18171 0.0
C1457 C 0.35 0.80564 0.23876 0.0
C1458 C 0.37213 0.82468 0.2233 0.0
H1459 H 0.30574 0.77849 0.23248 0.0
H1460 H 0.35451 0.80073 0.26707 0.0
S1461 S 0.36313 0.84398 0.12711 0.0
N1462 N 0.33084 0.82235 0.13029 0.0
N1463 N 0.38366 0.84655 0.16784 0.0
C1464 C 0.3645 0.82935 0.18628 0.0
C1465 C 0.33536 0.81603 0.16573 0.0
C1466 C 0.17665 0.18986 0.70406 0.0
C1467 C 0.17851 0.21206 0.67645 0.0
C1468 C 0.14665 0.18961 0.72004 0.0
C1469 C 0.11756 0.21176 0.70923 0.0
H1470 H 0.19877 0.17279 0.71375 0.0
H1471 H 0.14705 0.17299 0.74217 0.0
S1472 S 0.10826 0.274 0.63737 0.0
N1473 N 0.14778 0.25613 0.63851 0.0
N1474 N 0.09175 0.25552 0.66822 0.0
C1475 C 0.11861 0.23336 0.68094 0.0
C1476 C 0.14893 0.23356 0.66464 0.0
C1477 C 0.74475 0.32246 0.39514 0.0
C1478 C 0.73603 0.30709 0.36477 0.0
C1479 C 0.77687 0.31478 0.41906 0.0
C1480 C 0.80254 0.29137 0.41406 0.0
H1481 H 0.72639 0.34049 0.40087 0.0
H1482 H 0.78145 0.32765 0.44188 0.0
S1483 S 0.79378 0.24443 0.33803 0.0
N1484 N 0.75662 0.26732 0.33059 0.0
N1485 N 0.81682 0.25331 0.37544 0.0
C1486 C 0.79447 0.27596 0.38358 0.0
C1487 C 0.76144 0.28367 0.35912 0.0
C1488 C 0.95816 0.27278 0.11805 0.0
C1489 C 0.95915 0.30047 0.13396 0.0
C1490 C 0.94325 0.27158 0.08205 0.0
C1491 C 0.92779 0.29792 0.05936 0.0
H1492 H 0.96944 0.25162 0.13345 0.0
H1493 H 0.94346 0.24925 0.07218 0.0
S1494 S 0.92244 0.37655 0.08742 0.0
N1495 N 0.94276 0.35539 0.12348 0.0
N1496 N 0.91431 0.35282 0.05661 0.0
C1497 C 0.92834 0.32583 0.07491 0.0
C1498 C 0.944 0.32716 0.1117 0.0
C1499 C 0.495 0.78313 0.67964 0.0
C1500 C 0.53234 0.78051 0.68464 0.0
C1501 C 0.4771 0.77867 0.70819 0.0
C1502 C 0.49585 0.7718 0.74296 0.0
H1503 H 0.47948 0.7869 0.65324 0.0
H1504 H 0.44868 0.77839 0.70266 0.0
S1505 S 0.59331 0.76633 0.77114 0.0
N1506 N 0.58688 0.77368 0.72796 0.0
N1507 N 0.55362 0.76521 0.78094 0.0
C1508 C 0.53294 0.77118 0.74844 0.0
C1509 C 0.55106 0.77549 0.71957 0.0
C1510 C 0.56895 0.27419 0.90573 0.0
C1511 C 0.53283 0.27179 0.90663 0.0
C1512 C 0.58406 0.26599 0.87666 0.0
C1513 C 0.56376 0.25481 0.84732 0.0
H1514 H 0.58602 0.28146 0.92827 0.0
H1515 H 0.61227 0.26641 0.8783 0.0
S1516 S 0.46781 0.24583 0.83495 0.0
N1517 N 0.4771 0.25874 0.87412 0.0
N1518 N 0.50518 0.24372 0.82 0.0
C1519 C 0.52734 0.25391 0.84706 0.0
C1520 C 0.51197 0.26229 0.87646 0.0
C1521 C 0.11089 0.80972 0.47908 0.0
C1522 C 0.12192 0.78017 0.49608 0.0
C1523 C 0.0956 0.81485 0.44269 0.0
C1524 C 0.08985 0.79085 0.42039 0.0
H1525 H 0.11451 0.82943 0.49393 0.0
H1526 H 0.08811 0.83835 0.432 0.0
S1527 S 0.11317 0.70859 0.451 0.0
N1528 N 0.12542 0.72606 0.48681 0.0
N1529 N 0.09646 0.73578 0.41932 0.0
C1530 C 0.10022 0.76105 0.43706 0.0
C1531 C 0.11616 0.75576 0.47432 0.0
C1532 C 0.22103 1.02012 0.32261 0.0
C1533 C 0.25573 1.00572 0.33022 0.0
C1534 C 0.19181 1.00291 0.31641 0.0
C1535 C 0.19631 0.97071 0.31764 0.0
H1536 H 0.21631 0.04445 0.3245 0.0
H1537 H 0.16557 1.01475 0.31308 0.0
S1538 S 0.28217 0.92295 0.33027 0.0
N1539 N 0.29309 0.95806 0.33438 0.0
N1540 N 0.23856 0.92586 0.32189 0.0
C1541 C 0.23101 0.95649 0.32213 0.0
C1542 C 0.26058 0.97396 0.32858 0.0
C1543 C 0.40715 0.12001 0.81996 0.0
C1544 C 0.4354 0.102 0.84262 0.0
C1545 C 0.37179 0.11327 0.81788 0.0
C1546 C 0.3634 0.08807 0.83806 0.0
H1547 H 0.41234 0.1397 0.80401 0.0
H1548 H 0.35087 0.12831 0.80112 0.0
S1549 S 0.42663 0.03474 0.90277 0.0
N1550 N 0.45164 0.05857 0.88671 0.0
N1551 N 0.38589 0.04571 0.88199 0.0
C1552 C 0.39127 0.06983 0.86044 0.0
C1553 C 0.42704 0.07676 0.86285 0.0
C1554 C 0.6962 0.65866 0.72119 0.0
C1555 C 0.71503 0.62968 0.73064 0.0
C1556 C 0.66188 0.66471 0.7275 0.0
C1557 C 0.64503 0.64186 0.74329 0.0
H1558 H 0.70667 0.67581 0.70559 0.0
H1559 H 0.64746 0.68657 0.71713 0.0
S1560 S 0.68567 0.56402 0.7789 0.0
N1561 N 0.71646 0.57933 0.7609 0.0
N1562 N 0.65199 0.5907 0.77338 0.0
C1563 C 0.66502 0.61382 0.75622 0.0
C1564 C 0.70013 0.60778 0.74991 0.0
C1565 C 0.89704 0.50124 0.30327 0.0
C1566 C 0.90163 0.46908 0.30514 0.0
C1567 C 0.86351 0.51685 0.30136 0.0
C1568 C 0.83376 0.50064 0.30104 0.0
H1569 H 0.91865 0.51438 0.29933 0.0
H1570 H 0.86031 0.54142 0.29537 0.0
S1571 S 0.83299 0.41681 0.31465 0.0
N1572 N 0.87462 0.42189 0.31379 0.0
N1573 N 0.81186 0.4514 0.3103 0.0
C1574 C 0.83895 0.46882 0.30855 0.0
C1575 C 0.87295 0.4529 0.31053 0.0
C1576 C 0.34988 0.25643 1.00217 0.0
C1577 C 0.34101 0.26389 1.03441 0.0
C1578 C 0.34441 0.22791 0.98977 0.0
C1579 C 0.32996 0.2057 1.00916 0.0
H1580 H 0.36261 0.27221 0.98704 0.0
H1581 H 0.35309 0.2227 0.96563 0.0
S1582 S 0.29729 0.21507 0.09232 0.0
N1583 N 0.31328 0.24767 0.08348 0.0
N1584 N 0.30317 0.19403 0.05998 0.0
C1585 C 0.31888 0.21343 1.04022 0.0
C1586 C 0.32423 0.24257 0.05282 0.0
C1587 C 0.8384 0.32128 0.07916 0.0
C1588 C 0.81771 0.32247 1.04498 0.0
C1589 C 0.83631 0.34584 0.10075 0.0
C1590 C 0.81328 0.37288 0.08944 0.0
H1591 H 0.85736 0.30168 0.08893 0.0
H1592 H 0.85325 0.34369 0.12646 0.0
S1593 S 0.7534 0.38801 1.00213 0.0
N1594 N 0.77266 0.3533 1.00153 0.0
N1595 N 0.76989 0.39904 1.04089 0.0
C1596 C 0.79214 0.37406 0.05553 0.0
C1597 C 0.79402 0.34911 1.03379 0.0
C1598 C 0.77102 0.71768 0.5849 0.0
C1599 C 0.73667 0.72727 0.56625 0.0
C1600 C 0.77988 0.68765 0.6016 0.0
C1601 C 0.75498 0.66581 0.5996 0.0
H1602 H 0.79078 0.73375 0.58772 0.0
H1603 H 0.80629 0.68168 0.61675 0.0
S1604 S 0.66166 0.67953 0.5528 0.0
N1605 N 0.67796 0.71241 0.54638 0.0
N1606 N 0.69456 0.65636 0.5764 0.0
C1607 C 0.72094 0.67503 0.57989 0.0
C1608 C 0.71184 0.70561 0.56365 0.0
C1609 C 0.27641 0.82069 0.55051 0.0
C1610 C 0.24406 0.81073 0.53483 0.0
C1611 C 0.28893 0.84744 0.53704 0.0
C1612 C 0.26952 0.86595 0.50737 0.0
H1613 H 0.29074 0.80915 0.57525 0.0
H1614 H 0.3132 0.85455 0.55125 0.0
S1615 S 0.18424 0.84878 0.45494 0.0
N1616 N 0.19414 0.82044 0.48647 0.0
N1617 N 0.21704 0.8706 0.46133 0.0
C1618 C 0.23832 0.85502 0.48998 0.0
C1619 C 0.22577 0.8276 0.50367 0.0
C1620 C 0.12093 0.7748 0.97104 0.0
C1621 C 0.11903 0.74726 0.95491 0.0
C1622 C 0.13583 0.77559 1.00713 0.0
C1623 C 0.15039 0.74893 1.02975 0.0
H1624 H 0.11045 0.79619 0.95572 0.0
H1625 H 0.13638 0.79785 1.01712 0.0
S1626 S 0.15304 0.67046 1.00116 0.0
N1627 N 0.13351 0.69209 0.96515 0.0
N1628 N 0.16193 0.69389 1.03217 0.0
C1629 C 0.14886 0.72115 1.01399 0.0
C1630 C 0.13321 0.72026 0.9771 0.0
C1631 C 0.55235 0.27734 0.34415 0.0
C1632 C 0.58907 0.26858 0.35263 0.0
C1633 C 0.53057 0.27471 0.36984 0.0
C1634 C 0.54471 0.26327 0.40504 0.0
H1635 H 0.54092 0.28889 0.31849 0.0
H1636 H 0.50306 0.28375 0.36271 0.0
S1637 S 0.63805 0.23271 0.43911 0.0
N1638 N 0.63747 0.24492 0.39769 0.0
N1639 N 0.59703 0.2393 0.44523 0.0
C1640 C 0.58073 0.25202 0.41276 0.0
C1641 C 0.60269 0.25479 0.38681 0.0
C1642 C 0.51766 0.77585 0.18463 0.0
C1643 C 0.55398 0.77865 0.18548 0.0
C1644 C 0.5011 0.78332 0.21308 0.0
C1645 C 0.52023 0.79373 0.24363 0.0
H1646 H 0.50144 0.76945 0.16103 0.0
H1647 H 0.47276 0.78289 0.2101 0.0
S1648 S 0.61669 0.80069 0.26168 0.0
N1649 N 0.60902 0.78919 0.22169 0.0
N1650 N 0.57812 0.80343 0.27435 0.0
C1651 C 0.55687 0.79468 0.24568 0.0
C1652 C 0.57365 0.78713 0.21691 0.0
C1653 C 0.96786 0.2359 0.6122 0.0
C1654 C 0.96122 0.26534 0.59404 0.0
C1655 C 0.98221 0.23097 0.64879 0.0
C1656 C 0.99155 0.25505 0.67 0.0
H1657 H 0.96123 0.21623 0.59818 0.0
H1658 H 0.98616 0.2076 0.6605 0.0
S1659 S 0.98161 0.33685 0.63586 0.0
N1660 N 0.9664 0.31933 0.60087 0.0
N1661 N 0.99396 0.30985 0.66871 0.0
C1662 C 0.98602 0.28461 0.65208 0.0
C1663 C 0.97084 0.28976 0.61469 0.0
C1664 C 0.82151 0.07656 0.7458 0.0
C1665 C 0.82211 0.04494 0.75477 0.0
C1666 C 0.85186 0.0918 0.75359 0.0
C1667 C 0.88421 0.07617 0.77096 0.0
H1668 H 0.79785 0.08945 0.73065 0.0
H1669 H 0.85036 0.11562 0.74387 0.0
S1670 S 0.89839 0.99463 0.80657 0.0
N1671 N 0.85667 0.99937 0.78625 0.0
N1672 N 0.91369 0.02823 0.8018 0.0
C1673 C 0.88447 0.04515 0.78298 0.0
C1674 C 0.85341 0.02952 0.77485 0.0
C1675 C 0.69481 0.96232 0.25712 0.0
C1676 C 0.7182 0.94517 0.24031 0.0
C1677 C 0.6595 0.95576 0.25518 0.0
C1678 C 0.64626 0.93153 0.23678 0.0
H1679 H 0.70333 0.98181 0.27058 0.0
H1680 H 0.64229 0.97002 0.26785 0.0
S1681 S 0.69696 0.87864 0.18963 0.0
N1682 N 0.72567 0.90196 0.20579 0.0
N1683 N 0.65976 0.88982 0.20228 0.0
C1684 C 0.66971 0.91355 0.22095 0.0
C1685 C 0.70549 0.92032 0.22267 0.0
C1686 C 0.41989 0.42935 0.33661 0.0
C1687 C 0.43908 0.40122 0.3508 0.0
C1688 C 0.38537 0.43681 0.34208 0.0
C1689 C 0.36915 0.41639 0.36202 0.0
H1690 H 0.43246 0.44648 0.3232 0.0
H1691 H 0.373 0.45984 0.33405 0.0
S1692 S 0.40588 0.33852 0.40085 0.0
N1693 N 0.43752 0.35174 0.38241 0.0
N1694 N 0.37279 0.36582 0.39229 0.0
C1695 C 0.38658 0.38713 0.37309 0.0
C1696 C 0.42162 0.37953 0.36769 0.0
C1697 C 0.21779 0.5301 0.79487 0.0
C1698 C 0.24828 0.54238 0.78765 0.0
C1699 C 0.18608 0.54883 0.79172 0.0
C1700 C 0.18401 0.58013 0.78045 0.0
H1701 H 0.21963 0.50724 0.80767 0.0
H1702 H 0.1648 0.53956 0.80242 0.0
S1703 S 0.25304 0.61943 0.74535 0.0
N1704 N 0.2724 0.585 0.76052 0.0
N1705 N 0.21189 0.61968 0.75158 0.0
C1706 C 0.21237 0.59073 0.76643 0.0
C1707 C 0.24491 0.57195 0.77084 0.0
C1708 C 0.75384 0.80719 1.03081 0.0
C1709 C 0.74211 0.78497 0.05279 0.0
C1710 C 0.7593 0.83639 1.04142 0.0
C1711 C 0.75327 0.84448 0.0744 0.0
H1712 H 0.75716 0.80263 1.00448 0.0
H1713 H 0.76681 0.85316 1.02303 0.0
S1714 S 0.72775 0.79335 0.14391 0.0
N1715 N 0.72834 0.77216 0.11062 0.0
N1716 N 0.739 0.8269 0.13058 0.0
C1717 C 0.74367 0.82194 0.09747 0.0
C1718 C 0.73807 0.79223 0.08669 0.0
C1719 C 0.24228 0.70054 0.98961 0.0
C1720 C 0.26763 0.67478 0.9991 0.0
C1721 C 0.24 0.72462 1.01176 0.0
C1722 C 0.26254 0.724 1.04488 0.0
H1723 H 0.2236 0.70196 0.96499 0.0
H1724 H 0.21929 0.74317 1.00346 0.0
S1725 S 0.33407 0.66234 0.08234 0.0
N1726 N 0.31617 0.65089 1.0442 0.0
N1727 N 0.31217 0.69556 0.08509 0.0
C1728 C 0.28866 0.69884 0.05412 0.0
C1729 C 0.29109 0.6745 1.03158 0.0
C1730 C 0.33583 0.34281 0.5357 0.0
C1731 C 0.33334 0.31691 0.5164 0.0
C1732 C 0.32927 0.37285 0.51871 0.0
C1733 C 0.31902 0.3782 0.4818 0.0
H1734 H 0.34455 0.33987 0.564 0.0
H1735 H 0.33254 0.39197 0.53457 0.0
S1736 S 0.3076 0.31796 0.4195 0.0
N1737 N 0.31973 0.29869 0.45858 0.0
N1738 N 0.30602 0.35439 0.42682 0.0
C1739 C 0.31536 0.35232 0.46249 0.0
C1740 C 0.32289 0.32195 0.47969 0.0
C1741 C 0.80466 0.22727 0.53838 0.0
C1742 C 0.83637 0.23767 0.55515 0.0
C1743 C 0.79198 0.2004 0.55129 0.0
C1744 C 0.81051 0.18216 0.58156 0.0
H1745 H 0.79112 0.23853 0.51319 0.0
H1746 H 0.76832 0.19298 0.53621 0.0
S1747 S 0.89341 0.20071 0.63725 0.0
N1748 N 0.88444 0.22879 0.60537 0.0
N1749 N 0.86119 0.17842 0.62957 0.0
C1750 C 0.84087 0.19359 0.60011 0.0
C1751 C 0.85361 0.22116 0.58694 0.0
loop_
_geom_bond_atom_site_label_1
_geom_bond_atom_site_label_2
_geom_bond_distance
_geom_bond_site_symmetry_2
_ccdc_geom_bond_type
Tb0 C9 2.764 . S
Tb0 O10 2.325 . S
Tb0 O13 2.303 . S
Tb0 O17 2.322 1_455 S
Tb0 O18 2.349 1_455 S
Tb0 O21 2.415 . S
Tb0 O22 2.399 . S
Tb1 O11 2.322 1_655 S
Tb1 O12 2.349 1_655 S
Tb1 O14 2.415 . S
Tb1 O15 2.399 . S
Tb1 O16 2.325 . S
Tb1 O19 2.303 . S
Tb1 C30 2.764 . S
C2 O18 1.261 . S
C2 O19 1.257 . S
C3 C6 1.358 . S
C3 C7 1.332 . S
C3 C9 1.504 . S
C4 C5 1.373 . S
C4 C8 1.308 . S
C5 C4 1.373 . S
C5 C6 1.429 . S
C5 H32 0.932 . S
C6 C3 1.358 . S
C6 C5 1.429 . S
C6 H33 0.930 . S
C7 C3 1.332 . S
C7 C8 1.394 . S
C7 H34 0.932 . S
C8 C4 1.308 . S
C8 C7 1.394 . S
C8 H35 0.929 . S
C9 Tb0 2.764 . S
C9 C3 1.504 . S
C9 O21 1.239 . S
C9 O22 1.263 . S
O10 Tb0 2.325 . S
O10 C20 1.236 . S
O11 Tb1 2.322 1_455 S
O11 C20 1.257 . S
O12 Tb1 2.349 1_455 S
O12 C23 1.261 . S
O13 Tb0 2.303 . S
O13 C23 1.257 . S
O14 Tb1 2.415 . S
O14 C30 1.239 . S
O15 Tb1 2.399 . S
O15 C30 1.263 . S
O16 Tb1 2.325 . S
O16 C31 1.236 . S
O17 Tb0 2.322 1_655 S
O17 C31 1.257 . S
O18 Tb0 2.349 1_655 S
O18 C2 1.261 . S
O19 Tb1 2.303 . S
O19 C2 1.257 . S
C20 O10 1.236 . S
C20 O11 1.257 . S
O21 Tb0 2.415 . S
O21 C9 1.239 . S
O22 Tb0 2.399 . S
O22 C9 1.263 . S
C23 O12 1.261 . S
C23 O13 1.257 . S
C24 C27 1.358 . S
C24 C28 1.332 . S
C24 C30 1.504 . S
C25 C26 1.373 . S
C25 C29 1.308 . S
C26 C25 1.373 . S
C26 C27 1.429 . S
C26 H36 0.932 . S
C27 C24 1.358 . S
C27 C26 1.429 . S
C27 H37 0.930 . S
C28 C24 1.332 . S
C28 C29 1.394 . S
C28 H38 0.932 . S
C29 C25 1.308 . S
C29 C28 1.394 . S
C29 H39 0.929 . S
C30 Tb1 2.764 . S
C30 O14 1.239 . S
C30 O15 1.263 . S
C30 C24 1.504 . S
C31 O16 1.236 . S
C31 O17 1.257 . S
H32 C5 0.932 . S
H33 C6 0.930 . S
H34 C7 0.932 . S
H35 C8 0.929 . S
H36 C26 0.932 . S
H37 C27 0.930 . S
H38 C28 0.932 . S
H39 C29 0.929 . S
Tb40 C49 2.764 . S
Tb40 O50 2.325 . S
Tb40 O53 2.303 . S
Tb40 O57 2.322 . S
Tb40 O58 2.349 . S
Tb40 O61 2.415 . S
Tb40 O62 2.399 . S
Tb41 O51 2.322 . S
Tb41 O52 2.349 . S
Tb41 O54 2.415 . S
Tb41 O55 2.399 . S
Tb41 O56 2.325 . S
Tb41 O59 2.303 . S
Tb41 C70 2.764 . S
C42 O58 1.261 . S
C42 O59 1.257 . S
C43 C46 1.358 . S
C43 C47 1.332 . S
C43 C49 1.504 . S
C44 C45 1.373 . S
C44 C48 1.308 . S
C45 C44 1.373 . S
C45 C46 1.429 . S
C45 H72 0.932 . S
C46 C43 1.358 . S
C46 C45 1.429 . S
C46 H73 0.930 . S
C47 C43 1.332 . S
C47 C48 1.394 . S
C47 H74 0.932 . S
C48 C44 1.308 . S
C48 C47 1.394 . S
C48 H75 0.929 . S
C49 Tb40 2.764 . S
C49 C43 1.504 . S
C49 O61 1.239 . S
C49 O62 1.263 . S
O50 Tb40 2.325 . S
O50 C60 1.236 . S
O51 Tb41 2.322 . S
O51 C60 1.257 . S
O52 Tb41 2.349 . S
O52 C63 1.261 . S
O53 Tb40 2.303 . S
O53 C63 1.257 . S
O54 Tb41 2.415 . S
O54 C70 1.239 . S
O55 Tb41 2.399 . S
O55 C70 1.263 . S
O56 Tb41 2.325 . S
O56 C71 1.236 . S
O57 Tb40 2.322 . S
O57 C71 1.257 . S
O58 Tb40 2.349 . S
O58 C42 1.261 . S
O59 Tb41 2.303 . S
O59 C42 1.257 . S
C60 O50 1.236 . S
C60 O51 1.257 . S
O61 Tb40 2.415 . S
O61 C49 1.239 . S
O62 Tb40 2.399 . S
O62 C49 1.263 . S
C63 O52 1.261 . S
C63 O53 1.257 . S
C64 C67 1.358 . S
C64 C68 1.332 . S
C64 C70 1.504 . S
C65 C66 1.373 . S
C65 C69 1.308 . S
C66 C65 1.373 . S
C66 C67 1.429 . S
C66 H76 0.932 . S
C67 C64 1.358 . S
C67 C66 1.429 . S
C67 H77 0.930 . S
C68 C64 1.332 . S
C68 C69 1.394 . S
C68 H78 0.932 . S
C69 C65 1.308 . S
C69 C68 1.394 . S
C69 H79 0.929 . S
C70 Tb41 2.764 . S
C70 O54 1.239 . S
C70 O55 1.263 . S
C70 C64 1.504 . S
C71 O56 1.236 . S
C71 O57 1.257 . S
H72 C45 0.932 . S
H73 C46 0.930 . S
H74 C47 0.932 . S
H75 C48 0.929 . S
H76 C66 0.932 . S
H77 C67 0.930 . S
H78 C68 0.932 . S
H79 C69 0.929 . S
Tb80 C89 2.764 . S
Tb80 O90 2.325 . S
Tb80 O93 2.303 . S
Tb80 O97 2.322 . S
Tb80 O98 2.349 . S
Tb80 O101 2.415 . S
Tb80 O102 2.399 . S
Tb81 O91 2.322 . S
Tb81 O92 2.349 . S
Tb81 O94 2.415 . S
Tb81 O95 2.399 . S
Tb81 O96 2.325 . S
Tb81 O99 2.303 . S
Tb81 C110 2.764 . S
C82 O98 1.261 . S
C82 O99 1.257 . S
C83 C86 1.358 . S
C83 C87 1.332 . S
C83 C89 1.504 . S
C84 C85 1.373 . S
C84 C88 1.308 . S
C85 C84 1.373 . S
C85 C86 1.429 . S
C85 H112 0.932 . S
C86 C83 1.358 . S
C86 C85 1.429 . S
C86 H113 0.930 . S
C87 C83 1.332 . S
C87 C88 1.394 . S
C87 H114 0.932 . S
C88 C84 1.308 . S
C88 C87 1.394 . S
C88 H115 0.929 . S
C89 Tb80 2.764 . S
C89 C83 1.504 . S
C89 O101 1.239 . S
C89 O102 1.263 . S
O90 Tb80 2.325 . S
O90 C100 1.236 . S
O91 Tb81 2.322 . S
O91 C100 1.257 . S
O92 Tb81 2.349 . S
O92 C103 1.261 . S
O93 Tb80 2.303 . S
O93 C103 1.257 . S
O94 Tb81 2.415 . S
O94 C110 1.239 . S
O95 Tb81 2.399 . S
O95 C110 1.263 . S
O96 Tb81 2.325 . S
O96 C111 1.236 . S
O97 Tb80 2.322 . S
O97 C111 1.257 . S
O98 Tb80 2.349 . S
O98 C82 1.261 . S
O99 Tb81 2.303 . S
O99 C82 1.257 . S
C100 O90 1.236 . S
C100 O91 1.257 . S
O101 Tb80 2.415 . S
O101 C89 1.239 . S
O102 Tb80 2.399 . S
O102 C89 1.263 . S
C103 O92 1.261 . S
C103 O93 1.257 . S
C104 C107 1.358 . S
C104 C108 1.332 . S
C104 C110 1.504 . S
C105 C106 1.373 . S
C105 C109 1.308 . S
C106 C105 1.373 . S
C106 C107 1.429 . S
C106 H116 0.932 . S
C107 C104 1.358 . S
C107 C106 1.429 . S
C107 H117 0.930 . S
C108 C104 1.332 . S
C108 C109 1.394 . S
C108 H118 0.932 . S
C109 C105 1.308 . S
C109 C108 1.394 . S
C109 H119 0.929 . S
C110 Tb81 2.764 . S
C110 O94 1.239 . S
C110 O95 1.263 . S
C110 C104 1.504 . S
C111 O96 1.236 . S
C111 O97 1.257 . S
H112 C85 0.932 . S
H113 C86 0.930 . S
H114 C87 0.932 . S
H115 C88 0.929 . S
H116 C106 0.932 . S
H117 C107 0.930 . S
H118 C108 0.932 . S
H119 C109 0.929 . S
Tb120 C129 2.764 . S
Tb120 O130 2.325 . S
Tb120 O133 2.303 . S
Tb120 O137 2.322 1_655 S
Tb120 O138 2.349 1_655 S
Tb120 O141 2.415 . S
Tb120 O142 2.399 . S
Tb121 O131 2.322 1_455 S
Tb121 O132 2.349 1_455 S
Tb121 O134 2.415 . S
Tb121 O135 2.399 . S
Tb121 O136 2.325 . S
Tb121 O139 2.303 . S
Tb121 C150 2.764 . S
C122 O138 1.261 . S
C122 O139 1.257 . S
C123 C126 1.358 . S
C123 C127 1.332 . S
C123 C129 1.504 . S
C124 C125 1.373 . S
C124 C128 1.308 . S
C125 C124 1.373 . S
C125 C126 1.429 . S
C125 H152 0.932 . S
C126 C123 1.358 . S
C126 C125 1.429 . S
C126 H153 0.930 . S
C127 C123 1.332 . S
C127 C128 1.394 . S
C127 H154 0.932 . S
C128 C124 1.308 . S
C128 C127 1.394 . S
C128 H155 0.929 . S
C129 Tb120 2.764 . S
C129 C123 1.504 . S
C129 O141 1.239 . S
C129 O142 1.263 . S
O130 Tb120 2.325 . S
O130 C140 1.236 . S
O131 Tb121 2.322 1_655 S
O131 C140 1.257 . S
O132 Tb121 2.349 1_655 S
O132 C143 1.261 . S
O133 Tb120 2.303 . S
O133 C143 1.257 . S
O134 Tb121 2.415 . S
O134 C150 1.239 . S
O135 Tb121 2.399 . S
O135 C150 1.263 . S
O136 Tb121 2.325 . S
O136 C151 1.236 . S
O137 Tb120 2.322 1_455 S
O137 C151 1.257 . S
O138 Tb120 2.349 1_455 S
O138 C122 1.261 . S
O139 Tb121 2.303 . S
O139 C122 1.257 . S
C140 O130 1.236 . S
C140 O131 1.257 . S
O141 Tb120 2.415 . S
O141 C129 1.239 . S
O142 Tb120 2.399 . S
O142 C129 1.263 . S
C143 O132 1.261 . S
C143 O133 1.257 . S
C144 C147 1.358 . S
C144 C148 1.332 . S
C144 C150 1.504 . S
C145 C146 1.373 . S
C145 C149 1.308 . S
C146 C145 1.373 . S
C146 C147 1.429 . S
C146 H156 0.932 . S
C147 C144 1.358 . S
C147 C146 1.429 . S
C147 H157 0.930 . S
C148 C144 1.332 . S
C148 C149 1.394 . S
C148 H158 0.932 . S
C149 C145 1.308 . S
C149 C148 1.394 . S
C149 H159 0.929 . S
C150 Tb121 2.764 . S
C150 O134 1.239 . S
C150 O135 1.263 . S
C150 C144 1.504 . S
C151 O136 1.236 . S
C151 O137 1.257 . S
H152 C125 0.932 . S
H153 C126 0.930 . S
H154 C127 0.932 . S
H155 C128 0.929 . S
H156 C146 0.932 . S
H157 C147 0.930 . S
H158 C148 0.932 . S
H159 C149 0.929 . S
Tb160 C169 2.764 . S
Tb160 O170 2.325 . S
Tb160 O173 2.303 . S
Tb160 O177 2.322 1_545 S
Tb160 O178 2.349 1_545 S
Tb160 O181 2.415 . S
Tb160 O182 2.399 . S
Tb161 O171 2.322 1_565 S
Tb161 O172 2.349 1_565 S
Tb161 O174 2.415 . S
Tb161 O175 2.399 . S
Tb161 O176 2.325 . S
Tb161 O179 2.303 . S
Tb161 C190 2.764 . S
C162 O178 1.261 . S
C162 O179 1.257 . S
C163 C166 1.358 . S
C163 C167 1.332 . S
C163 C169 1.504 . S
C164 C165 1.373 . S
C164 C168 1.308 . S
C165 C164 1.373 . S
C165 C166 1.429 . S
C165 H192 0.932 . S
C166 C163 1.358 . S
C166 C165 1.429 . S
C166 H193 0.930 . S
C167 C163 1.332 . S
C167 C168 1.394 . S
C167 H194 0.932 . S
C168 C164 1.308 . S
C168 C167 1.394 . S
C168 H195 0.929 . S
C169 Tb160 2.764 . S
C169 C163 1.504 . S
C169 O181 1.239 . S
C169 O182 1.263 . S
O170 Tb160 2.325 . S
O170 C180 1.236 . S
O171 Tb161 2.322 1_545 S
O171 C180 1.257 . S
O172 Tb161 2.349 1_545 S
O172 C183 1.261 . S
O173 Tb160 2.303 . S
O173 C183 1.257 . S
O174 Tb161 2.415 . S
O174 C190 1.239 . S
O175 Tb161 2.399 . S
O175 C190 1.263 . S
O176 Tb161 2.325 . S
O176 C191 1.236 . S
O177 Tb160 2.322 1_565 S
O177 C191 1.257 . S
O178 Tb160 2.349 1_565 S
O178 C162 1.261 . S
O179 Tb161 2.303 . S
O179 C162 1.257 . S
C180 O170 1.236 . S
C180 O171 1.257 . S
O181 Tb160 2.415 . S
O181 C169 1.239 . S
O182 Tb160 2.399 . S
O182 C169 1.263 . S
C183 O172 1.261 . S
C183 O173 1.257 . S
C184 C187 1.358 . S
C184 C188 1.332 . S
C184 C190 1.504 . S
C185 C186 1.373 . S
C185 C189 1.308 . S
C186 C185 1.373 . S
C186 C187 1.429 . S
C186 H196 0.932 . S
C187 C184 1.358 . S
C187 C186 1.429 . S
C187 H197 0.930 . S
C188 C184 1.332 . S
C188 C189 1.394 . S
C188 H198 0.932 . S
C189 C185 1.308 . S
C189 C188 1.394 . S
C189 H199 0.929 . S
C190 Tb161 2.764 . S
C190 O174 1.239 . S
C190 O175 1.263 . S
C190 C184 1.504 . S
C191 O176 1.236 . S
C191 O177 1.257 . S
H192 C165 0.932 . S
H193 C166 0.930 . S
H194 C167 0.932 . S
H195 C168 0.929 . S
H196 C186 0.932 . S
H197 C187 0.930 . S
H198 C188 0.932 . S
H199 C189 0.929 . S
Tb200 C209 2.764 . S
Tb200 O210 2.325 . S
Tb200 O213 2.303 . S
Tb200 O217 2.322 1_565 S
Tb200 O218 2.349 1_565 S
Tb200 O221 2.415 . S
Tb200 O222 2.399 . S
Tb201 O211 2.322 1_545 S
Tb201 O212 2.349 1_545 S
Tb201 O214 2.415 . S
Tb201 O215 2.399 . S
Tb201 O216 2.325 . S
Tb201 O219 2.303 . S
Tb201 C230 2.764 . S
C202 O218 1.261 . S
C202 O219 1.257 . S
C203 C206 1.358 . S
C203 C207 1.332 . S
C203 C209 1.504 . S
C204 C205 1.373 . S
C204 C208 1.308 . S
C205 C204 1.373 . S
C205 C206 1.429 . S
C205 H232 0.932 . S
C206 C203 1.358 . S
C206 C205 1.429 . S
C206 H233 0.930 . S
C207 C203 1.332 . S
C207 C208 1.394 . S
C207 H234 0.932 . S
C208 C204 1.308 . S
C208 C207 1.394 . S
C208 H235 0.929 . S
C209 Tb200 2.764 . S
C209 C203 1.504 . S
C209 O221 1.239 . S
C209 O222 1.263 . S
O210 Tb200 2.325 . S
O210 C220 1.236 . S
O211 Tb201 2.322 1_565 S
O211 C220 1.257 . S
O212 Tb201 2.349 1_565 S
O212 C223 1.261 . S
O213 Tb200 2.303 . S
O213 C223 1.257 . S
O214 Tb201 2.415 . S
O214 C230 1.239 . S
O215 Tb201 2.399 . S
O215 C230 1.263 . S
O216 Tb201 2.325 . S
O216 C231 1.236 . S
O217 Tb200 2.322 1_545 S
O217 C231 1.257 . S
O218 Tb200 2.349 1_545 S
O218 C202 1.261 . S
O219 Tb201 2.303 . S
O219 C202 1.257 . S
C220 O210 1.236 . S
C220 O211 1.257 . S
O221 Tb200 2.415 . S
O221 C209 1.239 . S
O222 Tb200 2.399 . S
O222 C209 1.263 . S
C223 O212 1.261 . S
C223 O213 1.257 . S
C224 C227 1.358 . S
C224 C228 1.332 . S
C224 C230 1.504 . S
C225 C226 1.373 . S
C225 C229 1.308 . S
C226 C225 1.373 . S
C226 C227 1.429 . S
C226 H236 0.932 1_556 S
C227 C224 1.358 . S
C227 C226 1.429 . S
C227 H237 0.930 . S
C228 C224 1.332 . S
C228 C229 1.394 . S
C228 H238 0.932 . S
C229 C225 1.308 . S
C229 C228 1.394 . S
C229 H239 0.929 . S
C230 Tb201 2.764 . S
C230 O214 1.239 . S
C230 O215 1.263 . S
C230 C224 1.504 . S
C231 O216 1.236 . S
C231 O217 1.257 . S
H232 C205 0.932 . S
H233 C206 0.930 . S
H234 C207 0.932 . S
H235 C208 0.929 . S
H236 C226 0.932 1_554 S
H237 C227 0.930 . S
H238 C228 0.932 . S
H239 C229 0.929 . S
Tb240 C249 2.764 . S
Tb240 O250 2.325 . S
Tb240 O253 2.303 . S
Tb240 O257 2.322 . S
Tb240 O258 2.349 . S
Tb240 O261 2.415 . S
Tb240 O262 2.399 . S
Tb241 O251 2.322 . S
Tb241 O252 2.349 . S
Tb241 O254 2.415 . S
Tb241 O255 2.399 . S
Tb241 O256 2.325 . S
Tb241 O259 2.303 . S
Tb241 C270 2.764 . S
C242 O258 1.261 . S
C242 O259 1.257 . S
C243 C246 1.358 . S
C243 C247 1.332 . S
C243 C249 1.504 . S
C244 C245 1.373 . S
C244 C248 1.308 . S
C245 C244 1.373 . S
C245 C246 1.429 . S
C245 H272 0.932 . S
C246 C243 1.358 . S
C246 C245 1.429 . S
C246 H273 0.930 . S
C247 C243 1.332 . S
C247 C248 1.394 . S
C247 H274 0.932 . S
C248 C244 1.308 . S
C248 C247 1.394 . S
C248 H275 0.929 . S
C249 Tb240 2.764 . S
C249 C243 1.504 . S
C249 O261 1.239 . S
C249 O262 1.263 . S
O250 Tb240 2.325 . S
O250 C260 1.236 . S
O251 Tb241 2.322 . S
O251 C260 1.257 . S
O252 Tb241 2.349 . S
O252 C263 1.261 . S
O253 Tb240 2.303 . S
O253 C263 1.257 . S
O254 Tb241 2.415 . S
O254 C270 1.239 . S
O255 Tb241 2.399 . S
O255 C270 1.263 . S
O256 Tb241 2.325 . S
O256 C271 1.236 . S
O257 Tb240 2.322 . S
O257 C271 1.257 . S
O258 Tb240 2.349 . S
O258 C242 1.261 . S
O259 Tb241 2.303 . S
O259 C242 1.257 . S
C260 O250 1.236 . S
C260 O251 1.257 . S
O261 Tb240 2.415 . S
O261 C249 1.239 . S
O262 Tb240 2.399 . S
O262 C249 1.263 . S
C263 O252 1.261 . S
C263 O253 1.257 . S
C264 C267 1.358 . S
C264 C268 1.332 . S
C264 C270 1.504 . S
C265 C266 1.373 . S
C265 C269 1.308 . S
C266 C265 1.373 . S
C266 C267 1.429 . S
C266 H276 0.932 . S
C267 C264 1.358 . S
C267 C266 1.429 . S
C267 H277 0.930 . S
C268 C264 1.332 . S
C268 C269 1.394 . S
C268 H278 0.932 . S
C269 C265 1.308 . S
C269 C268 1.394 . S
C269 H279 0.929 . S
C270 Tb241 2.764 . S
C270 O254 1.239 . S
C270 O255 1.263 . S
C270 C264 1.504 . S
C271 O256 1.236 . S
C271 O257 1.257 . S
H272 C245 0.932 . S
H273 C246 0.930 . S
H274 C247 0.932 . S
H275 C248 0.929 . S
H276 C266 0.932 . S
H277 C267 0.930 . S
H278 C268 0.932 . S
H279 C269 0.929 . S
Tb280 C289 2.764 . S
Tb280 O290 2.325 . S
Tb280 O293 2.303 . S
Tb280 O297 2.322 . S
Tb280 O298 2.349 . S
Tb280 O301 2.415 . S
Tb280 O302 2.399 . S
Tb281 O291 2.322 . S
Tb281 O292 2.349 . S
Tb281 O294 2.415 . S
Tb281 O295 2.399 . S
Tb281 O296 2.325 . S
Tb281 O299 2.303 . S
Tb281 C310 2.764 . S
C282 O298 1.261 . S
C282 O299 1.257 . S
C283 C286 1.358 . S
C283 C287 1.332 . S
C283 C289 1.504 . S
C284 C285 1.373 . S
C284 C288 1.308 . S
C285 C284 1.373 . S
C285 C286 1.429 . S
C285 H312 0.932 . S
C286 C283 1.358 . S
C286 C285 1.429 . S
C286 H313 0.930 . S
C287 C283 1.332 . S
C287 C288 1.394 . S
C287 H314 0.932 . S
C288 C284 1.308 . S
C288 C287 1.394 . S
C288 H315 0.929 . S
C289 Tb280 2.764 . S
C289 C283 1.504 . S
C289 O301 1.239 . S
C289 O302 1.263 . S
O290 Tb280 2.325 . S
O290 C300 1.236 . S
O291 Tb281 2.322 . S
O291 C300 1.257 . S
O292 Tb281 2.349 . S
O292 C303 1.261 . S
O293 Tb280 2.303 . S
O293 C303 1.257 . S
O294 Tb281 2.415 . S
O294 C310 1.239 . S
O295 Tb281 2.399 . S
O295 C310 1.263 . S
O296 Tb281 2.325 . S
O296 C311 1.236 . S
O297 Tb280 2.322 . S
O297 C311 1.257 . S
O298 Tb280 2.349 . S
O298 C282 1.261 . S
O299 Tb281 2.303 . S
O299 C282 1.257 . S
C300 O290 1.236 . S
C300 O291 1.257 . S
O301 Tb280 2.415 . S
O301 C289 1.239 . S
O302 Tb280 2.399 . S
O302 C289 1.263 . S
C303 O292 1.261 . S
C303 O293 1.257 . S
C304 C307 1.358 . S
C304 C308 1.332 . S
C304 C310 1.504 . S
C305 C306 1.373 . S
C305 C309 1.308 . S
C306 C305 1.373 . S
C306 C307 1.429 . S
C306 H316 0.932 1_554 S
C307 C304 1.358 . S
C307 C306 1.429 . S
C307 H317 0.930 . S
C308 C304 1.332 . S
C308 C309 1.394 . S
C308 H318 0.932 . S
C309 C305 1.308 . S
C309 C308 1.394 . S
C309 H319 0.929 . S
C310 Tb281 2.764 . S
C310 O294 1.239 . S
C310 O295 1.263 . S
C310 C304 1.504 . S
C311 O296 1.236 . S
C311 O297 1.257 . S
H312 C285 0.932 . S
H313 C286 0.930 . S
H314 C287 0.932 . S
H315 C288 0.929 . S
H316 C306 0.932 1_556 S
H317 C307 0.930 . S
H318 C308 0.932 . S
H319 C309 0.929 . S
Tb320 C329 2.764 . S
Tb320 O330 2.325 . S
Tb320 O333 2.303 . S
Tb320 O337 2.322 . S
Tb320 O338 2.349 . S
Tb320 O341 2.415 . S
Tb320 O342 2.399 . S
Tb321 O331 2.322 . S
Tb321 O332 2.349 . S
Tb321 O334 2.415 1_554 S
Tb321 O335 2.399 . S
Tb321 O336 2.325 . S
Tb321 O339 2.303 . S
Tb321 C350 2.764 1_554 S
C322 O338 1.261 . S
C322 O339 1.257 . S
C323 C326 1.358 . S
C323 C327 1.332 . S
C323 C329 1.504 . S
C324 C325 1.373 . S
C324 C328 1.308 . S
C325 C324 1.373 . S
C325 C326 1.429 . S
C325 H352 0.932 . S
C326 C323 1.358 . S
C326 C325 1.429 . S
C326 H353 0.930 . S
C327 C323 1.332 . S
C327 C328 1.394 . S
C327 H354 0.932 . S
C328 C324 1.308 . S
C328 C327 1.394 . S
C328 H355 0.929 . S
C329 Tb320 2.764 . S
C329 C323 1.504 . S
C329 O341 1.239 . S
C329 O342 1.263 . S
O330 Tb320 2.325 . S
O330 C340 1.236 . S
O331 Tb321 2.322 . S
O331 C340 1.257 . S
O332 Tb321 2.349 . S
O332 C343 1.261 . S
O333 Tb320 2.303 . S
O333 C343 1.257 . S
O334 Tb321 2.415 1_556 S
O334 C350 1.239 . S
O335 Tb321 2.399 . S
O335 C350 1.263 1_554 S
O336 Tb321 2.325 . S
O336 C351 1.236 1_554 S
O337 Tb320 2.322 . S
O337 C351 1.257 1_554 S
O338 Tb320 2.349 . S
O338 C322 1.261 . S
O339 Tb321 2.303 . S
O339 C322 1.257 . S
C340 O330 1.236 . S
C340 O331 1.257 . S
O341 Tb320 2.415 . S
O341 C329 1.239 . S
O342 Tb320 2.399 . S
O342 C329 1.263 . S
C343 O332 1.261 . S
C343 O333 1.257 . S
C344 C347 1.358 . S
C344 C348 1.332 . S
C344 C350 1.504 . S
C345 C346 1.373 . S
C345 C349 1.308 . S
C346 C345 1.373 . S
C346 C347 1.429 . S
C346 H356 0.932 . S
C347 C344 1.358 . S
C347 C346 1.429 . S
C347 H357 0.930 . S
C348 C344 1.332 . S
C348 C349 1.394 . S
C348 H358 0.932 . S
C349 C345 1.308 . S
C349 C348 1.394 . S
C349 H359 0.929 . S
C350 Tb321 2.764 1_556 S
C350 O334 1.239 . S
C350 O335 1.263 1_556 S
C350 C344 1.504 . S
C351 O336 1.236 1_556 S
C351 O337 1.257 1_556 S
H352 C325 0.932 . S
H353 C326 0.930 . S
H354 C327 0.932 . S
H355 C328 0.929 . S
H356 C346 0.932 . S
H357 C347 0.930 . S
H358 C348 0.932 . S
H359 C349 0.929 . S
Tb360 C369 2.764 1_556 S
Tb360 O370 2.325 . S
Tb360 O373 2.303 . S
Tb360 O377 2.322 . S
Tb360 O378 2.349 . S
Tb360 O381 2.415 1_556 S
Tb360 O382 2.399 . S
Tb361 O371 2.322 . S
Tb361 O372 2.349 . S
Tb361 O374 2.415 . S
Tb361 O375 2.399 . S
Tb361 O376 2.325 . S
Tb361 O379 2.303 . S
Tb361 C390 2.764 . S
C362 O378 1.261 . S
C362 O379 1.257 . S
C363 C366 1.358 . S
C363 C367 1.332 . S
C363 C369 1.504 . S
C364 C365 1.373 . S
C364 C368 1.308 . S
C365 C364 1.373 . S
C365 C366 1.429 . S
C365 H392 0.932 . S
C366 C363 1.358 . S
C366 C365 1.429 . S
C366 H393 0.930 . S
C367 C363 1.332 . S
C367 C368 1.394 . S
C367 H394 0.932 . S
C368 C364 1.308 . S
C368 C367 1.394 . S
C368 H395 0.929 . S
C369 Tb360 2.764 1_554 S
C369 C363 1.504 . S
C369 O381 1.239 . S
C369 O382 1.263 1_554 S
O370 Tb360 2.325 . S
O370 C380 1.236 . S
O371 Tb361 2.322 . S
O371 C380 1.257 . S
O372 Tb361 2.349 . S
O372 C383 1.261 . S
O373 Tb360 2.303 . S
O373 C383 1.257 . S
O374 Tb361 2.415 . S
O374 C390 1.239 . S
O375 Tb361 2.399 . S
O375 C390 1.263 . S
O376 Tb361 2.325 . S
O376 C391 1.236 . S
O377 Tb360 2.322 . S
O377 C391 1.257 . S
O378 Tb360 2.349 . S
O378 C362 1.261 . S
O379 Tb361 2.303 . S
O379 C362 1.257 . S
C380 O370 1.236 . S
C380 O371 1.257 . S
O381 Tb360 2.415 1_554 S
O381 C369 1.239 . S
O382 Tb360 2.399 . S
O382 C369 1.263 1_556 S
C383 O372 1.261 . S
C383 O373 1.257 . S
C384 C387 1.358 . S
C384 C388 1.332 . S
C384 C390 1.504 . S
C385 C386 1.373 . S
C385 C389 1.308 . S
C386 C385 1.373 . S
C386 C387 1.429 . S
C386 H396 0.932 . S
C387 C384 1.358 . S
C387 C386 1.429 . S
C387 H397 0.930 . S
C388 C384 1.332 . S
C388 C389 1.394 . S
C388 H398 0.932 . S
C389 C385 1.308 . S
C389 C388 1.394 . S
C389 H399 0.929 . S
C390 Tb361 2.764 . S
C390 O374 1.239 . S
C390 O375 1.263 . S
C390 C384 1.504 . S
C391 O376 1.236 . S
C391 O377 1.257 . S
H392 C365 0.932 . S
H393 C366 0.930 . S
H394 C367 0.932 . S
H395 C368 0.929 . S
H396 C386 0.932 . S
H397 C387 0.930 . S
H398 C388 0.932 . S
H399 C389 0.929 . S
Tb400 C409 2.764 . S
Tb400 O410 2.325 . S
Tb400 O413 2.303 . S
Tb400 O417 2.322 . S
Tb400 O418 2.349 . S
Tb400 O421 2.415 . S
Tb400 O422 2.399 . S
Tb401 O411 2.322 . S
Tb401 O412 2.349 . S
Tb401 O414 2.415 . S
Tb401 O415 2.399 . S
Tb401 O416 2.325 . S
Tb401 O419 2.303 . S
Tb401 C430 2.764 . S
C402 O418 1.261 . S
C402 O419 1.257 . S
C403 C406 1.358 . S
C403 C407 1.332 . S
C403 C409 1.504 . S
C404 C405 1.373 . S
C404 C408 1.308 . S
C405 C404 1.373 . S
C405 C406 1.429 . S
C405 H432 0.932 . S
C406 C403 1.358 . S
C406 C405 1.429 . S
C406 H433 0.930 . S
C407 C403 1.332 . S
C407 C408 1.394 . S
C407 H434 0.932 . S
C408 C404 1.308 . S
C408 C407 1.394 . S
C408 H435 0.929 . S
C409 Tb400 2.764 . S
C409 C403 1.504 . S
C409 O421 1.239 . S
C409 O422 1.263 . S
O410 Tb400 2.325 . S
O410 C420 1.236 . S
O411 Tb401 2.322 . S
O411 C420 1.257 . S
O412 Tb401 2.349 . S
O412 C423 1.261 . S
O413 Tb400 2.303 . S
O413 C423 1.257 . S
O414 Tb401 2.415 . S
O414 C430 1.239 . S
O415 Tb401 2.399 . S
O415 C430 1.263 . S
O416 Tb401 2.325 . S
O416 C431 1.236 . S
O417 Tb400 2.322 . S
O417 C431 1.257 . S
O418 Tb400 2.349 . S
O418 C402 1.261 . S
O419 Tb401 2.303 . S
O419 C402 1.257 . S
C420 O410 1.236 . S
C420 O411 1.257 . S
O421 Tb400 2.415 . S
O421 C409 1.239 . S
O422 Tb400 2.399 . S
O422 C409 1.263 . S
C423 O412 1.261 . S
C423 O413 1.257 . S
C424 C427 1.358 . S
C424 C428 1.332 . S
C424 C430 1.504 . S
C425 C426 1.373 . S
C425 C429 1.308 . S
C426 C425 1.373 . S
C426 C427 1.429 . S
C426 H436 0.932 . S
C427 C424 1.358 . S
C427 C426 1.429 . S
C427 H437 0.930 . S
C428 C424 1.332 . S
C428 C429 1.394 . S
C428 H438 0.932 . S
C429 C425 1.308 . S
C429 C428 1.394 . S
C429 H439 0.929 . S
C430 Tb401 2.764 . S
C430 O414 1.239 . S
C430 O415 1.263 . S
C430 C424 1.504 . S
C431 O416 1.236 . S
C431 O417 1.257 . S
H432 C405 0.932 . S
H433 C406 0.930 . S
H434 C407 0.932 . S
H435 C408 0.929 . S
H436 C426 0.932 . S
H437 C427 0.930 . S
H438 C428 0.932 . S
H439 C429 0.929 . S
Tb440 C449 2.764 . S
Tb440 O450 2.325 . S
Tb440 O453 2.303 . S
Tb440 O457 2.322 . S
Tb440 O458 2.349 . S
Tb440 O461 2.415 . S
Tb440 O462 2.399 . S
Tb441 O451 2.322 . S
Tb441 O452 2.349 . S
Tb441 O454 2.415 . S
Tb441 O455 2.399 . S
Tb441 O456 2.325 . S
Tb441 O459 2.303 . S
Tb441 C470 2.764 . S
C442 O458 1.261 . S
C442 O459 1.257 . S
C443 C446 1.358 . S
C443 C447 1.332 . S
C443 C449 1.504 . S
C444 C445 1.373 . S
C444 C448 1.308 . S
C445 C444 1.373 . S
C445 C446 1.429 . S
C445 H472 0.932 . S
C446 C443 1.358 . S
C446 C445 1.429 . S
C446 H473 0.930 . S
C447 C443 1.332 . S
C447 C448 1.394 . S
C447 H474 0.932 . S
C448 C444 1.308 . S
C448 C447 1.394 . S
C448 H475 0.929 . S
C449 Tb440 2.764 . S
C449 C443 1.504 . S
C449 O461 1.239 . S
C449 O462 1.263 . S
O450 Tb440 2.325 . S
O450 C460 1.236 . S
O451 Tb441 2.322 . S
O451 C460 1.257 . S
O452 Tb441 2.349 . S
O452 C463 1.261 . S
O453 Tb440 2.303 . S
O453 C463 1.257 . S
O454 Tb441 2.415 . S
O454 C470 1.239 . S
O455 Tb441 2.399 . S
O455 C470 1.263 . S
O456 Tb441 2.325 . S
O456 C471 1.236 . S
O457 Tb440 2.322 . S
O457 C471 1.257 . S
O458 Tb440 2.349 . S
O458 C442 1.261 . S
O459 Tb441 2.303 . S
O459 C442 1.257 . S
C460 O450 1.236 . S
C460 O451 1.257 . S
O461 Tb440 2.415 . S
O461 C449 1.239 . S
O462 Tb440 2.399 . S
O462 C449 1.263 . S
C463 O452 1.261 . S
C463 O453 1.257 . S
C464 C467 1.358 . S
C464 C468 1.332 . S
C464 C470 1.504 . S
C465 C466 1.373 . S
C465 C469 1.308 . S
C466 C465 1.373 . S
C466 C467 1.429 . S
C466 H476 0.932 . S
C467 C464 1.358 . S
C467 C466 1.429 . S
C467 H477 0.930 . S
C468 C464 1.332 . S
C468 C469 1.394 . S
C468 H478 0.932 . S
C469 C465 1.308 . S
C469 C468 1.394 . S
C469 H479 0.929 . S
C470 Tb441 2.764 . S
C470 O454 1.239 . S
C470 O455 1.263 . S
C470 C464 1.504 . S
C471 O456 1.236 . S
C471 O457 1.257 . S
H472 C445 0.932 . S
H473 C446 0.930 . S
H474 C447 0.932 . S
H475 C448 0.929 . S
H476 C466 0.932 . S
H477 C467 0.930 . S
H478 C468 0.932 . S
H479 C469 0.929 . S
Tb480 C489 2.764 . S
Tb480 O490 2.325 . S
Tb480 O493 2.303 . S
Tb480 O497 2.322 1_455 S
Tb480 O498 2.349 1_455 S
Tb480 O501 2.415 . S
Tb480 O502 2.399 . S
Tb481 O491 2.322 1_655 S
Tb481 O492 2.349 1_655 S
Tb481 O494 2.415 . S
Tb481 O495 2.399 . S
Tb481 O496 2.325 . S
Tb481 O499 2.303 . S
Tb481 C510 2.764 . S
C482 O498 1.261 . S
C482 O499 1.257 . S
C483 C486 1.358 . S
C483 C487 1.332 . S
C483 C489 1.504 . S
C484 C485 1.373 . S
C484 C488 1.308 . S
C485 C484 1.373 . S
C485 C486 1.429 . S
C485 H512 0.932 . S
C486 C483 1.358 . S
C486 C485 1.429 . S
C486 H513 0.930 . S
C487 C483 1.332 . S
C487 C488 1.394 . S
C487 H514 0.932 . S
C488 C484 1.308 . S
C488 C487 1.394 . S
C488 H515 0.929 . S
C489 Tb480 2.764 . S
C489 C483 1.504 . S
C489 O501 1.239 . S
C489 O502 1.263 . S
O490 Tb480 2.325 . S
O490 C500 1.236 . S
O491 Tb481 2.322 1_455 S
O491 C500 1.257 . S
O492 Tb481 2.349 1_455 S
O492 C503 1.261 . S
O493 Tb480 2.303 . S
O493 C503 1.257 . S
O494 Tb481 2.415 . S
O494 C510 1.239 . S
O495 Tb481 2.399 . S
O495 C510 1.263 . S
O496 Tb481 2.325 . S
O496 C511 1.236 . S
O497 Tb480 2.322 1_655 S
O497 C511 1.257 . S
O498 Tb480 2.349 1_655 S
O498 C482 1.261 . S
O499 Tb481 2.303 . S
O499 C482 1.257 . S
C500 O490 1.236 . S
C500 O491 1.257 . S
O501 Tb480 2.415 . S
O501 C489 1.239 . S
O502 Tb480 2.399 . S
O502 C489 1.263 . S
C503 O492 1.261 . S
C503 O493 1.257 . S
C504 C507 1.358 . S
C504 C508 1.332 . S
C504 C510 1.504 . S
C505 C506 1.373 . S
C505 C509 1.308 . S
C506 C505 1.373 . S
C506 C507 1.429 . S
C506 H516 0.932 . S
C507 C504 1.358 . S
C507 C506 1.429 . S
C507 H517 0.930 . S
C508 C504 1.332 . S
C508 C509 1.394 . S
C508 H518 0.932 . S
C509 C505 1.308 . S
C509 C508 1.394 . S
C509 H519 0.929 . S
C510 Tb481 2.764 . S
C510 O494 1.239 . S
C510 O495 1.263 . S
C510 C504 1.504 . S
C511 O496 1.236 . S
C511 O497 1.257 . S
H512 C485 0.932 . S
H513 C486 0.930 . S
H514 C487 0.932 . S
H515 C488 0.929 . S
H516 C506 0.932 . S
H517 C507 0.930 . S
H518 C508 0.932 . S
H519 C509 0.929 . S
Tb520 C529 2.764 . S
Tb520 O530 2.325 . S
Tb520 O533 2.303 . S
Tb520 O537 2.322 . S
Tb520 O538 2.349 . S
Tb520 O541 2.415 . S
Tb520 O542 2.399 . S
Tb521 O531 2.322 . S
Tb521 O532 2.349 . S
Tb521 O534 2.415 . S
Tb521 O535 2.399 . S
Tb521 O536 2.325 . S
Tb521 O539 2.303 . S
Tb521 C550 2.764 . S
C522 O538 1.261 . S
C522 O539 1.257 . S
C523 C526 1.358 . S
C523 C527 1.332 . S
C523 C529 1.504 . S
C524 C525 1.373 . S
C524 C528 1.308 . S
C525 C524 1.373 . S
C525 C526 1.429 . S
C525 H552 0.932 . S
C526 C523 1.358 . S
C526 C525 1.429 . S
C526 H553 0.930 . S
C527 C523 1.332 . S
C527 C528 1.394 . S
C527 H554 0.932 . S
C528 C524 1.308 . S
C528 C527 1.394 . S
C528 H555 0.929 . S
C529 Tb520 2.764 . S
C529 C523 1.504 . S
C529 O541 1.239 . S
C529 O542 1.263 . S
O530 Tb520 2.325 . S
O530 C540 1.236 . S
O531 Tb521 2.322 . S
O531 C540 1.257 . S
O532 Tb521 2.349 . S
O532 C543 1.261 . S
O533 Tb520 2.303 . S
O533 C543 1.257 . S
O534 Tb521 2.415 . S
O534 C550 1.239 . S
O535 Tb521 2.399 . S
O535 C550 1.263 . S
O536 Tb521 2.325 . S
O536 C551 1.236 . S
O537 Tb520 2.322 . S
O537 C551 1.257 . S
O538 Tb520 2.349 . S
O538 C522 1.261 . S
O539 Tb521 2.303 . S
O539 C522 1.257 . S
C540 O530 1.236 . S
C540 O531 1.257 . S
O541 Tb520 2.415 . S
O541 C529 1.239 . S
O542 Tb520 2.399 . S
O542 C529 1.263 . S
C543 O532 1.261 . S
C543 O533 1.257 . S
C544 C547 1.358 . S
C544 C548 1.332 . S
C544 C550 1.504 . S
C545 C546 1.373 . S
C545 C549 1.308 . S
C546 C545 1.373 . S
C546 C547 1.429 . S
C546 H556 0.932 . S
C547 C544 1.358 . S
C547 C546 1.429 . S
C547 H557 0.930 . S
C548 C544 1.332 . S
C548 C549 1.394 . S
C548 H558 0.932 . S
C549 C545 1.308 . S
C549 C548 1.394 . S
C549 H559 0.929 . S
C550 Tb521 2.764 . S
C550 O534 1.239 . S
C550 O535 1.263 . S
C550 C544 1.504 . S
C551 O536 1.236 . S
C551 O537 1.257 . S
H552 C525 0.932 . S
H553 C526 0.930 . S
H554 C527 0.932 . S
H555 C528 0.929 . S
H556 C546 0.932 . S
H557 C547 0.930 . S
H558 C548 0.932 . S
H559 C549 0.929 . S
Tb560 C569 2.764 . S
Tb560 O570 2.325 . S
Tb560 O573 2.303 . S
Tb560 O577 2.322 . S
Tb560 O578 2.349 . S
Tb560 O581 2.415 . S
Tb560 O582 2.399 . S
Tb561 O571 2.322 . S
Tb561 O572 2.349 . S
Tb561 O574 2.415 . S
Tb561 O575 2.399 . S
Tb561 O576 2.325 . S
Tb561 O579 2.303 . S
Tb561 C590 2.764 . S
C562 O578 1.261 . S
C562 O579 1.257 . S
C563 C566 1.358 . S
C563 C567 1.332 . S
C563 C569 1.504 . S
C564 C565 1.373 . S
C564 C568 1.308 . S
C565 C564 1.373 . S
C565 C566 1.429 . S
C565 H592 0.932 . S
C566 C563 1.358 . S
C566 C565 1.429 . S
C566 H593 0.930 . S
C567 C563 1.332 . S
C567 C568 1.394 . S
C567 H594 0.932 . S
C568 C564 1.308 . S
C568 C567 1.394 . S
C568 H595 0.929 . S
C569 Tb560 2.764 . S
C569 C563 1.504 . S
C569 O581 1.239 . S
C569 O582 1.263 . S
O570 Tb560 2.325 . S
O570 C580 1.236 . S
O571 Tb561 2.322 . S
O571 C580 1.257 . S
O572 Tb561 2.349 . S
O572 C583 1.261 . S
O573 Tb560 2.303 . S
O573 C583 1.257 . S
O574 Tb561 2.415 . S
O574 C590 1.239 . S
O575 Tb561 2.399 . S
O575 C590 1.263 . S
O576 Tb561 2.325 . S
O576 C591 1.236 . S
O577 Tb560 2.322 . S
O577 C591 1.257 . S
O578 Tb560 2.349 . S
O578 C562 1.261 . S
O579 Tb561 2.303 . S
O579 C562 1.257 . S
C580 O570 1.236 . S
C580 O571 1.257 . S
O581 Tb560 2.415 . S
O581 C569 1.239 . S
O582 Tb560 2.399 . S
O582 C569 1.263 . S
C583 O572 1.261 . S
C583 O573 1.257 . S
C584 C587 1.358 . S
C584 C588 1.332 . S
C584 C590 1.504 . S
C585 C586 1.373 . S
C585 C589 1.308 . S
C586 C585 1.373 . S
C586 C587 1.429 . S
C586 H596 0.932 . S
C587 C584 1.358 . S
C587 C586 1.429 . S
C587 H597 0.930 . S
C588 C584 1.332 . S
C588 C589 1.394 . S
C588 H598 0.932 . S
C589 C585 1.308 . S
C589 C588 1.394 . S
C589 H599 0.929 . S
C590 Tb561 2.764 . S
C590 O574 1.239 . S
C590 O575 1.263 . S
C590 C584 1.504 . S
C591 O576 1.236 . S
C591 O577 1.257 . S
H592 C565 0.932 . S
H593 C566 0.930 . S
H594 C567 0.932 . S
H595 C568 0.929 . S
H596 C586 0.932 . S
H597 C587 0.930 . S
H598 C588 0.932 . S
H599 C589 0.929 . S
Tb600 C609 2.764 . S
Tb600 O610 2.325 . S
Tb600 O613 2.303 . S
Tb600 O617 2.322 1_655 S
Tb600 O618 2.349 1_655 S
Tb600 O621 2.415 . S
Tb600 O622 2.399 . S
Tb601 O611 2.322 1_455 S
Tb601 O612 2.349 1_455 S
Tb601 O614 2.415 . S
Tb601 O615 2.399 . S
Tb601 O616 2.325 . S
Tb601 O619 2.303 . S
Tb601 C630 2.764 . S
C602 O618 1.261 . S
C602 O619 1.257 . S
C603 C606 1.358 . S
C603 C607 1.332 . S
C603 C609 1.504 . S
C604 C605 1.373 . S
C604 C608 1.308 . S
C605 C604 1.373 . S
C605 C606 1.429 . S
C605 H632 0.932 . S
C606 C603 1.358 . S
C606 C605 1.429 . S
C606 H633 0.930 . S
C607 C603 1.332 . S
C607 C608 1.394 . S
C607 H634 0.932 . S
C608 C604 1.308 . S
C608 C607 1.394 . S
C608 H635 0.929 . S
C609 Tb600 2.764 . S
C609 C603 1.504 . S
C609 O621 1.239 . S
C609 O622 1.263 . S
O610 Tb600 2.325 . S
O610 C620 1.236 . S
O611 Tb601 2.322 1_655 S
O611 C620 1.257 . S
O612 Tb601 2.349 1_655 S
O612 C623 1.261 . S
O613 Tb600 2.303 . S
O613 C623 1.257 . S
O614 Tb601 2.415 . S
O614 C630 1.239 . S
O615 Tb601 2.399 . S
O615 C630 1.263 . S
O616 Tb601 2.325 . S
O616 C631 1.236 . S
O617 Tb600 2.322 1_455 S
O617 C631 1.257 . S
O618 Tb600 2.349 1_455 S
O618 C602 1.261 . S
O619 Tb601 2.303 . S
O619 C602 1.257 . S
C620 O610 1.236 . S
C620 O611 1.257 . S
O621 Tb600 2.415 . S
O621 C609 1.239 . S
O622 Tb600 2.399 . S
O622 C609 1.263 . S
C623 O612 1.261 . S
C623 O613 1.257 . S
C624 C627 1.358 . S
C624 C628 1.332 . S
C624 C630 1.504 . S
C625 C626 1.373 . S
C625 C629 1.308 . S
C626 C625 1.373 . S
C626 C627 1.429 . S
C626 H636 0.932 . S
C627 C624 1.358 . S
C627 C626 1.429 . S
C627 H637 0.930 . S
C628 C624 1.332 . S
C628 C629 1.394 . S
C628 H638 0.932 . S
C629 C625 1.308 . S
C629 C628 1.394 . S
C629 H639 0.929 . S
C630 Tb601 2.764 . S
C630 O614 1.239 . S
C630 O615 1.263 . S
C630 C624 1.504 . S
C631 O616 1.236 . S
C631 O617 1.257 . S
H632 C605 0.932 . S
H633 C606 0.930 . S
H634 C607 0.932 . S
H635 C608 0.929 . S
H636 C626 0.932 . S
H637 C627 0.930 . S
H638 C628 0.932 . S
H639 C629 0.929 . S
Tb640 C649 2.764 . S
Tb640 O650 2.325 . S
Tb640 O653 2.303 . S
Tb640 O657 2.322 1_545 S
Tb640 O658 2.349 1_545 S
Tb640 O661 2.415 . S
Tb640 O662 2.399 . S
Tb641 O651 2.322 1_565 S
Tb641 O652 2.349 1_565 S
Tb641 O654 2.415 . S
Tb641 O655 2.399 . S
Tb641 O656 2.325 . S
Tb641 O659 2.303 . S
Tb641 C670 2.764 . S
C642 O658 1.261 . S
C642 O659 1.257 . S
C643 C646 1.358 . S
C643 C647 1.332 . S
C643 C649 1.504 . S
C644 C645 1.373 . S
C644 C648 1.308 . S
C645 C644 1.373 . S
C645 C646 1.429 . S
C645 H672 0.932 . S
C646 C643 1.358 . S
C646 C645 1.429 . S
C646 H673 0.930 . S
C647 C643 1.332 . S
C647 C648 1.394 . S
C647 H674 0.932 . S
C648 C644 1.308 . S
C648 C647 1.394 . S
C648 H675 0.929 . S
C649 Tb640 2.764 . S
C649 C643 1.504 . S
C649 O661 1.239 . S
C649 O662 1.263 . S
O650 Tb640 2.325 . S
O650 C660 1.236 . S
O651 Tb641 2.322 1_545 S
O651 C660 1.257 . S
O652 Tb641 2.349 1_545 S
O652 C663 1.261 . S
O653 Tb640 2.303 . S
O653 C663 1.257 . S
O654 Tb641 2.415 . S
O654 C670 1.239 . S
O655 Tb641 2.399 . S
O655 C670 1.263 . S
O656 Tb641 2.325 . S
O656 C671 1.236 . S
O657 Tb640 2.322 1_565 S
O657 C671 1.257 . S
O658 Tb640 2.349 1_565 S
O658 C642 1.261 . S
O659 Tb641 2.303 . S
O659 C642 1.257 . S
C660 O650 1.236 . S
C660 O651 1.257 . S
O661 Tb640 2.415 . S
O661 C649 1.239 . S
O662 Tb640 2.399 . S
O662 C649 1.263 . S
C663 O652 1.261 . S
C663 O653 1.257 . S
C664 C667 1.358 . S
C664 C668 1.332 . S
C664 C670 1.504 . S
C665 C666 1.373 . S
C665 C669 1.308 . S
C666 C665 1.373 . S
C666 C667 1.429 . S
C666 H676 0.932 . S
C667 C664 1.358 . S
C667 C666 1.429 . S
C667 H677 0.930 . S
C668 C664 1.332 . S
C668 C669 1.394 . S
C668 H678 0.932 . S
C669 C665 1.308 . S
C669 C668 1.394 . S
C669 H679 0.929 . S
C670 Tb641 2.764 . S
C670 O654 1.239 . S
C670 O655 1.263 . S
C670 C664 1.504 . S
C671 O656 1.236 . S
C671 O657 1.257 . S
H672 C645 0.932 . S
H673 C646 0.930 . S
H674 C647 0.932 . S
H675 C648 0.929 . S
H676 C666 0.932 . S
H677 C667 0.930 . S
H678 C668 0.932 . S
H679 C669 0.929 . S
Tb680 C689 2.764 . S
Tb680 O690 2.325 . S
Tb680 O693 2.303 . S
Tb680 O697 2.322 1_565 S
Tb680 O698 2.349 1_565 S
Tb680 O701 2.415 . S
Tb680 O702 2.399 . S
Tb681 O691 2.322 1_545 S
Tb681 O692 2.349 1_545 S
Tb681 O694 2.415 . S
Tb681 O695 2.399 . S
Tb681 O696 2.325 . S
Tb681 O699 2.303 . S
Tb681 C710 2.764 . S
C682 O698 1.261 . S
C682 O699 1.257 . S
C683 C686 1.358 . S
C683 C687 1.332 . S
C683 C689 1.504 . S
C684 C685 1.373 . S
C684 C688 1.308 . S
C685 C684 1.373 . S
C685 C686 1.429 . S
C685 H712 0.932 1_554 S
C686 C683 1.358 . S
C686 C685 1.429 . S
C686 H713 0.930 . S
C687 C683 1.332 . S
C687 C688 1.394 . S
C687 H714 0.932 . S
C688 C684 1.308 . S
C688 C687 1.394 . S
C688 H715 0.929 . S
C689 Tb680 2.764 . S
C689 C683 1.504 . S
C689 O701 1.239 . S
C689 O702 1.263 . S
O690 Tb680 2.325 . S
O690 C700 1.236 . S
O691 Tb681 2.322 1_565 S
O691 C700 1.257 . S
O692 Tb681 2.349 1_565 S
O692 C703 1.261 . S
O693 Tb680 2.303 . S
O693 C703 1.257 . S
O694 Tb681 2.415 . S
O694 C710 1.239 . S
O695 Tb681 2.399 . S
O695 C710 1.263 . S
O696 Tb681 2.325 . S
O696 C711 1.236 . S
O697 Tb680 2.322 1_545 S
O697 C711 1.257 . S
O698 Tb680 2.349 1_545 S
O698 C682 1.261 . S
O699 Tb681 2.303 . S
O699 C682 1.257 . S
C700 O690 1.236 . S
C700 O691 1.257 . S
O701 Tb680 2.415 . S
O701 C689 1.239 . S
O702 Tb680 2.399 . S
O702 C689 1.263 . S
C703 O692 1.261 . S
C703 O693 1.257 . S
C704 C707 1.358 . S
C704 C708 1.332 . S
C704 C710 1.504 . S
C705 C706 1.373 . S
C705 C709 1.308 . S
C706 C705 1.373 . S
C706 C707 1.429 . S
C706 H716 0.932 . S
C707 C704 1.358 . S
C707 C706 1.429 . S
C707 H717 0.930 . S
C708 C704 1.332 . S
C708 C709 1.394 . S
C708 H718 0.932 . S
C709 C705 1.308 . S
C709 C708 1.394 . S
C709 H719 0.929 . S
C710 Tb681 2.764 . S
C710 O694 1.239 . S
C710 O695 1.263 . S
C710 C704 1.504 . S
C711 O696 1.236 . S
C711 O697 1.257 . S
H712 C685 0.932 1_556 S
H713 C686 0.930 . S
H714 C687 0.932 . S
H715 C688 0.929 . S
H716 C706 0.932 . S
H717 C707 0.930 . S
H718 C708 0.932 . S
H719 C709 0.929 . S
Tb720 C729 2.764 . S
Tb720 O730 2.325 . S
Tb720 O733 2.303 . S
Tb720 O737 2.322 . S
Tb720 O738 2.349 . S
Tb720 O741 2.415 . S
Tb720 O742 2.399 . S
Tb721 O731 2.322 . S
Tb721 O732 2.349 . S
Tb721 O734 2.415 . S
Tb721 O735 2.399 . S
Tb721 O736 2.325 . S
Tb721 O739 2.303 . S
Tb721 C750 2.764 . S
C722 O738 1.261 . S
C722 O739 1.257 . S
C723 C726 1.358 . S
C723 C727 1.332 . S
C723 C729 1.504 . S
C724 C725 1.373 . S
C724 C728 1.308 . S
C725 C724 1.373 . S
C725 C726 1.429 . S
C725 H752 0.932 . S
C726 C723 1.358 . S
C726 C725 1.429 . S
C726 H753 0.930 . S
C727 C723 1.332 . S
C727 C728 1.394 . S
C727 H754 0.932 . S
C728 C724 1.308 . S
C728 C727 1.394 . S
C728 H755 0.929 . S
C729 Tb720 2.764 . S
C729 C723 1.504 . S
C729 O741 1.239 . S
C729 O742 1.263 . S
O730 Tb720 2.325 . S
O730 C740 1.236 . S
O731 Tb721 2.322 . S
O731 C740 1.257 . S
O732 Tb721 2.349 . S
O732 C743 1.261 . S
O733 Tb720 2.303 . S
O733 C743 1.257 . S
O734 Tb721 2.415 . S
O734 C750 1.239 . S
O735 Tb721 2.399 . S
O735 C750 1.263 . S
O736 Tb721 2.325 . S
O736 C751 1.236 . S
O737 Tb720 2.322 . S
O737 C751 1.257 . S
O738 Tb720 2.349 . S
O738 C722 1.261 . S
O739 Tb721 2.303 . S
O739 C722 1.257 . S
C740 O730 1.236 . S
C740 O731 1.257 . S
O741 Tb720 2.415 . S
O741 C729 1.239 . S
O742 Tb720 2.399 . S
O742 C729 1.263 . S
C743 O732 1.261 . S
C743 O733 1.257 . S
C744 C747 1.358 . S
C744 C748 1.332 . S
C744 C750 1.504 . S
C745 C746 1.373 . S
C745 C749 1.308 . S
C746 C745 1.373 . S
C746 C747 1.429 . S
C746 H756 0.932 . S
C747 C744 1.358 . S
C747 C746 1.429 . S
C747 H757 0.930 . S
C748 C744 1.332 . S
C748 C749 1.394 . S
C748 H758 0.932 . S
C749 C745 1.308 . S
C749 C748 1.394 . S
C749 H759 0.929 . S
C750 Tb721 2.764 . S
C750 O734 1.239 . S
C750 O735 1.263 . S
C750 C744 1.504 . S
C751 O736 1.236 . S
C751 O737 1.257 . S
H752 C725 0.932 . S
H753 C726 0.930 . S
H754 C727 0.932 . S
H755 C728 0.929 . S
H756 C746 0.932 . S
H757 C747 0.930 . S
H758 C748 0.932 . S
H759 C749 0.929 . S
Tb760 C769 2.764 . S
Tb760 O770 2.325 . S
Tb760 O773 2.303 . S
Tb760 O777 2.322 . S
Tb760 O778 2.349 . S
Tb760 O781 2.415 . S
Tb760 O782 2.399 . S
Tb761 O771 2.322 . S
Tb761 O772 2.349 . S
Tb761 O774 2.415 . S
Tb761 O775 2.399 . S
Tb761 O776 2.325 . S
Tb761 O779 2.303 . S
Tb761 C790 2.764 . S
C762 O778 1.261 . S
C762 O779 1.257 . S
C763 C766 1.358 . S
C763 C767 1.332 . S
C763 C769 1.504 . S
C764 C765 1.373 . S
C764 C768 1.308 . S
C765 C764 1.373 . S
C765 C766 1.429 . S
C765 H792 0.932 1_556 S
C766 C763 1.358 . S
C766 C765 1.429 . S
C766 H793 0.930 . S
C767 C763 1.332 . S
C767 C768 1.394 . S
C767 H794 0.932 . S
C768 C764 1.308 . S
C768 C767 1.394 . S
C768 H795 0.929 . S
C769 Tb760 2.764 . S
C769 C763 1.504 . S
C769 O781 1.239 . S
C769 O782 1.263 . S
O770 Tb760 2.325 . S
O770 C780 1.236 . S
O771 Tb761 2.322 . S
O771 C780 1.257 . S
O772 Tb761 2.349 . S
O772 C783 1.261 . S
O773 Tb760 2.303 . S
O773 C783 1.257 . S
O774 Tb761 2.415 . S
O774 C790 1.239 . S
O775 Tb761 2.399 . S
O775 C790 1.263 . S
O776 Tb761 2.325 . S
O776 C791 1.236 . S
O777 Tb760 2.322 . S
O777 C791 1.257 . S
O778 Tb760 2.349 . S
O778 C762 1.261 . S
O779 Tb761 2.303 . S
O779 C762 1.257 . S
C780 O770 1.236 . S
C780 O771 1.257 . S
O781 Tb760 2.415 . S
O781 C769 1.239 . S
O782 Tb760 2.399 . S
O782 C769 1.263 . S
C783 O772 1.261 . S
C783 O773 1.257 . S
C784 C787 1.358 . S
C784 C788 1.332 . S
C784 C790 1.504 . S
C785 C786 1.373 . S
C785 C789 1.308 . S
C786 C785 1.373 . S
C786 C787 1.429 . S
C786 H796 0.932 . S
C787 C784 1.358 . S
C787 C786 1.429 . S
C787 H797 0.930 . S
C788 C784 1.332 . S
C788 C789 1.394 . S
C788 H798 0.932 . S
C789 C785 1.308 . S
C789 C788 1.394 . S
C789 H799 0.929 . S
C790 Tb761 2.764 . S
C790 O774 1.239 . S
C790 O775 1.263 . S
C790 C784 1.504 . S
C791 O776 1.236 . S
C791 O777 1.257 . S
H792 C765 0.932 1_554 S
H793 C766 0.930 . S
H794 C767 0.932 . S
H795 C768 0.929 . S
H796 C786 0.932 . S
H797 C787 0.930 . S
H798 C788 0.932 . S
H799 C789 0.929 . S
Tb800 C809 2.764 1_556 S
Tb800 O810 2.325 . S
Tb800 O813 2.303 . S
Tb800 O817 2.322 . S
Tb800 O818 2.349 . S
Tb800 O821 2.415 1_556 S
Tb800 O822 2.399 . S
Tb801 O811 2.322 . S
Tb801 O812 2.349 . S
Tb801 O814 2.415 . S
Tb801 O815 2.399 . S
Tb801 O816 2.325 . S
Tb801 O819 2.303 . S
Tb801 C830 2.764 . S
C802 O818 1.261 . S
C802 O819 1.257 . S
C803 C806 1.358 . S
C803 C807 1.332 . S
C803 C809 1.504 . S
C804 C805 1.373 . S
C804 C808 1.308 . S
C805 C804 1.373 . S
C805 C806 1.429 . S
C805 H832 0.932 . S
C806 C803 1.358 . S
C806 C805 1.429 . S
C806 H833 0.930 . S
C807 C803 1.332 . S
C807 C808 1.394 . S
C807 H834 0.932 . S
C808 C804 1.308 . S
C808 C807 1.394 . S
C808 H835 0.929 . S
C809 Tb800 2.764 1_554 S
C809 C803 1.504 . S
C809 O821 1.239 . S
C809 O822 1.263 1_554 S
O810 Tb800 2.325 . S
O810 C820 1.236 1_556 S
O811 Tb801 2.322 . S
O811 C820 1.257 1_556 S
O812 Tb801 2.349 . S
O812 C823 1.261 . S
O813 Tb800 2.303 . S
O813 C823 1.257 . S
O814 Tb801 2.415 . S
O814 C830 1.239 . S
O815 Tb801 2.399 . S
O815 C830 1.263 . S
O816 Tb801 2.325 . S
O816 C831 1.236 . S
O817 Tb800 2.322 . S
O817 C831 1.257 . S
O818 Tb800 2.349 . S
O818 C802 1.261 . S
O819 Tb801 2.303 . S
O819 C802 1.257 . S
C820 O810 1.236 1_554 S
C820 O811 1.257 1_554 S
O821 Tb800 2.415 1_554 S
O821 C809 1.239 . S
O822 Tb800 2.399 . S
O822 C809 1.263 1_556 S
C823 O812 1.261 . S
C823 O813 1.257 . S
C824 C827 1.358 . S
C824 C828 1.332 . S
C824 C830 1.504 . S
C825 C826 1.373 . S
C825 C829 1.308 . S
C826 C825 1.373 . S
C826 C827 1.429 . S
C826 H836 0.932 . S
C827 C824 1.358 . S
C827 C826 1.429 . S
C827 H837 0.930 . S
C828 C824 1.332 . S
C828 C829 1.394 . S
C828 H838 0.932 . S
C829 C825 1.308 . S
C829 C828 1.394 . S
C829 H839 0.929 . S
C830 Tb801 2.764 . S
C830 O814 1.239 . S
C830 O815 1.263 . S
C830 C824 1.504 . S
C831 O816 1.236 . S
C831 O817 1.257 . S
H832 C805 0.932 . S
H833 C806 0.930 . S
H834 C807 0.932 . S
H835 C808 0.929 . S
H836 C826 0.932 . S
H837 C827 0.930 . S
H838 C828 0.932 . S
H839 C829 0.929 . S
Tb840 C849 2.764 . S
Tb840 O850 2.325 . S
Tb840 O853 2.303 . S
Tb840 O857 2.322 . S
Tb840 O858 2.349 . S
Tb840 O861 2.415 . S
Tb840 O862 2.399 . S
Tb841 O851 2.322 . S
Tb841 O852 2.349 . S
Tb841 O854 2.415 1_554 S
Tb841 O855 2.399 . S
Tb841 O856 2.325 . S
Tb841 O859 2.303 . S
Tb841 C870 2.764 1_554 S
C842 O858 1.261 . S
C842 O859 1.257 . S
C843 C846 1.358 . S
C843 C847 1.332 . S
C843 C849 1.504 . S
C844 C845 1.373 . S
C844 C848 1.308 . S
C845 C844 1.373 . S
C845 C846 1.429 . S
C845 H872 0.932 . S
C846 C843 1.358 . S
C846 C845 1.429 . S
C846 H873 0.930 . S
C847 C843 1.332 . S
C847 C848 1.394 . S
C847 H874 0.932 . S
C848 C844 1.308 . S
C848 C847 1.394 . S
C848 H875 0.929 . S
C849 Tb840 2.764 . S
C849 C843 1.504 . S
C849 O861 1.239 . S
C849 O862 1.263 . S
O850 Tb840 2.325 . S
O850 C860 1.236 . S
O851 Tb841 2.322 . S
O851 C860 1.257 . S
O852 Tb841 2.349 . S
O852 C863 1.261 . S
O853 Tb840 2.303 . S
O853 C863 1.257 . S
O854 Tb841 2.415 1_556 S
O854 C870 1.239 . S
O855 Tb841 2.399 . S
O855 C870 1.263 1_554 S
O856 Tb841 2.325 . S
O856 C871 1.236 . S
O857 Tb840 2.322 . S
O857 C871 1.257 . S
O858 Tb840 2.349 . S
O858 C842 1.261 . S
O859 Tb841 2.303 . S
O859 C842 1.257 . S
C860 O850 1.236 . S
C860 O851 1.257 . S
O861 Tb840 2.415 . S
O861 C849 1.239 . S
O862 Tb840 2.399 . S
O862 C849 1.263 . S
C863 O852 1.261 . S
C863 O853 1.257 . S
C864 C867 1.358 . S
C864 C868 1.332 . S
C864 C870 1.504 . S
C865 C866 1.373 . S
C865 C869 1.308 . S
C866 C865 1.373 . S
C866 C867 1.429 . S
C866 H876 0.932 . S
C867 C864 1.358 . S
C867 C866 1.429 . S
C867 H877 0.930 . S
C868 C864 1.332 . S
C868 C869 1.394 . S
C868 H878 0.932 . S
C869 C865 1.308 . S
C869 C868 1.394 . S
C869 H879 0.929 . S
C870 Tb841 2.764 1_556 S
C870 O854 1.239 . S
C870 O855 1.263 1_556 S
C870 C864 1.504 . S
C871 O856 1.236 . S
C871 O857 1.257 . S
H872 C845 0.932 . S
H873 C846 0.930 . S
H874 C847 0.932 . S
H875 C848 0.929 . S
H876 C866 0.932 . S
H877 C867 0.930 . S
H878 C868 0.932 . S
H879 C869 0.929 . S
Tb880 C889 2.764 . S
Tb880 O890 2.325 . S
Tb880 O893 2.303 . S
Tb880 O897 2.322 . S
Tb880 O898 2.349 . S
Tb880 O901 2.415 . S
Tb880 O902 2.399 . S
Tb881 O891 2.322 . S
Tb881 O892 2.349 . S
Tb881 O894 2.415 . S
Tb881 O895 2.399 . S
Tb881 O896 2.325 . S
Tb881 O899 2.303 . S
Tb881 C910 2.764 . S
C882 O898 1.261 . S
C882 O899 1.257 . S
C883 C886 1.358 . S
C883 C887 1.332 . S
C883 C889 1.504 . S
C884 C885 1.373 . S
C884 C888 1.308 . S
C885 C884 1.373 . S
C885 C886 1.429 . S
C885 H912 0.932 . S
C886 C883 1.358 . S
C886 C885 1.429 . S
C886 H913 0.930 . S
C887 C883 1.332 . S
C887 C888 1.394 . S
C887 H914 0.932 . S
C888 C884 1.308 . S
C888 C887 1.394 . S
C888 H915 0.929 . S
C889 Tb880 2.764 . S
C889 C883 1.504 . S
C889 O901 1.239 . S
C889 O902 1.263 . S
O890 Tb880 2.325 . S
O890 C900 1.236 . S
O891 Tb881 2.322 . S
O891 C900 1.257 . S
O892 Tb881 2.349 . S
O892 C903 1.261 . S
O893 Tb880 2.303 . S
O893 C903 1.257 . S
O894 Tb881 2.415 . S
O894 C910 1.239 . S
O895 Tb881 2.399 . S
O895 C910 1.263 . S
O896 Tb881 2.325 . S
O896 C911 1.236 . S
O897 Tb880 2.322 . S
O897 C911 1.257 . S
O898 Tb880 2.349 . S
O898 C882 1.261 . S
O899 Tb881 2.303 . S
O899 C882 1.257 . S
C900 O890 1.236 . S
C900 O891 1.257 . S
O901 Tb880 2.415 . S
O901 C889 1.239 . S
O902 Tb880 2.399 . S
O902 C889 1.263 . S
C903 O892 1.261 . S
C903 O893 1.257 . S
C904 C907 1.358 . S
C904 C908 1.332 . S
C904 C910 1.504 . S
C905 C906 1.373 . S
C905 C909 1.308 . S
C906 C905 1.373 . S
C906 C907 1.429 . S
C906 H916 0.932 . S
C907 C904 1.358 . S
C907 C906 1.429 . S
C907 H917 0.930 . S
C908 C904 1.332 . S
C908 C909 1.394 . S
C908 H918 0.932 . S
C909 C905 1.308 . S
C909 C908 1.394 . S
C909 H919 0.929 . S
C910 Tb881 2.764 . S
C910 O894 1.239 . S
C910 O895 1.263 . S
C910 C904 1.504 . S
C911 O896 1.236 . S
C911 O897 1.257 . S
H912 C885 0.932 . S
H913 C886 0.930 . S
H914 C887 0.932 . S
H915 C888 0.929 . S
H916 C906 0.932 . S
H917 C907 0.930 . S
H918 C908 0.932 . S
H919 C909 0.929 . S
Tb920 C929 2.764 . S
Tb920 O930 2.325 . S
Tb920 O933 2.303 . S
Tb920 O937 2.322 . S
Tb920 O938 2.349 . S
Tb920 O941 2.415 . S
Tb920 O942 2.399 . S
Tb921 O931 2.322 . S
Tb921 O932 2.349 . S
Tb921 O934 2.415 . S
Tb921 O935 2.399 . S
Tb921 O936 2.325 . S
Tb921 O939 2.303 . S
Tb921 C950 2.764 . S
C922 O938 1.261 . S
C922 O939 1.257 . S
C923 C926 1.358 . S
C923 C927 1.332 . S
C923 C929 1.504 . S
C924 C925 1.373 . S
C924 C928 1.308 . S
C925 C924 1.373 . S
C925 C926 1.429 . S
C925 H952 0.932 . S
C926 C923 1.358 . S
C926 C925 1.429 . S
C926 H953 0.930 . S
C927 C923 1.332 . S
C927 C928 1.394 . S
C927 H954 0.932 . S
C928 C924 1.308 . S
C928 C927 1.394 . S
C928 H955 0.929 . S
C929 Tb920 2.764 . S
C929 C923 1.504 . S
C929 O941 1.239 . S
C929 O942 1.263 . S
O930 Tb920 2.325 . S
O930 C940 1.236 . S
O931 Tb921 2.322 . S
O931 C940 1.257 . S
O932 Tb921 2.349 . S
O932 C943 1.261 . S
O933 Tb920 2.303 . S
O933 C943 1.257 . S
O934 Tb921 2.415 . S
O934 C950 1.239 . S
O935 Tb921 2.399 . S
O935 C950 1.263 . S
O936 Tb921 2.325 . S
O936 C951 1.236 . S
O937 Tb920 2.322 . S
O937 C951 1.257 . S
O938 Tb920 2.349 . S
O938 C922 1.261 . S
O939 Tb921 2.303 . S
O939 C922 1.257 . S
C940 O930 1.236 . S
C940 O931 1.257 . S
O941 Tb920 2.415 . S
O941 C929 1.239 . S
O942 Tb920 2.399 . S
O942 C929 1.263 . S
C943 O932 1.261 . S
C943 O933 1.257 . S
C944 C947 1.358 . S
C944 C948 1.332 . S
C944 C950 1.504 . S
C945 C946 1.373 . S
C945 C949 1.308 . S
C946 C945 1.373 . S
C946 C947 1.429 . S
C946 H956 0.932 . S
C947 C944 1.358 . S
C947 C946 1.429 . S
C947 H957 0.930 . S
C948 C944 1.332 . S
C948 C949 1.394 . S
C948 H958 0.932 . S
C949 C945 1.308 . S
C949 C948 1.394 . S
C949 H959 0.929 . S
C950 Tb921 2.764 . S
C950 O934 1.239 . S
C950 O935 1.263 . S
C950 C944 1.504 . S
C951 O936 1.236 . S
C951 O937 1.257 . S
H952 C925 0.932 . S
H953 C926 0.930 . S
H954 C927 0.932 . S
H955 C928 0.929 . S
H956 C946 0.932 . S
H957 C947 0.930 . S
H958 C948 0.932 . S
H959 C949 0.929 . S
C960 C961 1.369 . S
C960 C962 1.419 . S
C960 H964 0.930 . S
C961 C960 1.369 . S
C961 C970 1.429 . S
C962 C960 1.419 . S
C962 C963 1.363 . S
C962 H965 0.929 . S
C963 C962 1.363 . S
C963 C969 1.428 . S
H964 C960 0.930 . S
H965 C962 0.929 . S
S966 N967 1.613 . S
S966 N968 1.610 . S
N967 S966 1.613 . S
N967 C970 1.350 . S
N968 S966 1.610 . S
N968 C969 1.351 . S
C969 C963 1.428 . S
C969 N968 1.351 . S
C969 C970 1.434 . S
C970 C961 1.429 . S
C970 N967 1.350 . S
C970 C969 1.434 . S
C971 C972 1.369 . S
C971 C973 1.419 . S
C971 H975 0.930 . S
C972 C971 1.369 . S
C972 C981 1.429 . S
C973 C971 1.419 . S
C973 C974 1.363 . S
C973 H976 0.929 . S
C974 C973 1.363 . S
C974 C980 1.428 . S
H975 C971 0.930 . S
H976 C973 0.929 . S
S977 N978 1.613 . S
S977 N979 1.610 . S
N978 S977 1.613 . S
N978 C981 1.350 . S
N979 S977 1.610 . S
N979 C980 1.351 . S
C980 C974 1.428 . S
C980 N979 1.351 . S
C980 C981 1.434 . S
C981 C972 1.429 . S
C981 N978 1.350 . S
C981 C980 1.434 . S
C982 C983 1.369 . S
C982 C984 1.419 . S
C982 H986 0.930 . S
C983 C982 1.369 . S
C983 C992 1.429 . S
C984 C982 1.419 . S
C984 C985 1.363 . S
C984 H987 0.929 . S
C985 C984 1.363 . S
C985 C991 1.428 . S
H986 C982 0.930 . S
H987 C984 0.929 . S
S988 N989 1.613 . S
S988 N990 1.610 . S
N989 S988 1.613 . S
N989 C992 1.350 . S
N990 S988 1.610 . S
N990 C991 1.351 . S
C991 C985 1.428 . S
C991 N990 1.351 . S
C991 C992 1.434 . S
C992 C983 1.429 . S
C992 N989 1.350 . S
C992 C991 1.434 . S
C993 C994 1.369 . S
C993 C995 1.419 . S
C993 H997 0.930 . S
C994 C993 1.369 . S
C994 C1003 1.429 . S
C995 C993 1.419 . S
C995 C996 1.363 . S
C995 H998 0.929 . S
C996 C995 1.363 . S
C996 C1002 1.428 . S
H997 C993 0.930 . S
H998 C995 0.929 . S
S999 N1000 1.613 . S
S999 N1001 1.610 . S
N1000 S999 1.613 . S
N1000 C1003 1.350 . S
N1001 S999 1.610 . S
N1001 C1002 1.351 . S
C1002 C996 1.428 . S
C1002 N1001 1.351 . S
C1002 C1003 1.434 . S
C1003 C994 1.429 . S
C1003 N1000 1.350 . S
C1003 C1002 1.434 . S
C1004 C1005 1.369 . S
C1004 C1006 1.419 . S
C1004 H1008 0.930 . S
C1005 C1004 1.369 . S
C1005 C1014 1.429 . S
C1006 C1004 1.419 . S
C1006 C1007 1.363 . S
C1006 H1009 0.929 . S
C1007 C1006 1.363 . S
C1007 C1013 1.428 . S
H1008 C1004 0.930 . S
H1009 C1006 0.929 . S
S1010 N1011 1.613 . S
S1010 N1012 1.610 . S
N1011 S1010 1.613 . S
N1011 C1014 1.350 . S
N1012 S1010 1.610 . S
N1012 C1013 1.351 . S
C1013 C1007 1.428 . S
C1013 N1012 1.351 . S
C1013 C1014 1.434 . S
C1014 C1005 1.429 . S
C1014 N1011 1.350 . S
C1014 C1013 1.434 . S
C1015 C1016 1.369 . S
C1015 C1017 1.419 . S
C1015 H1019 0.930 . S
C1016 C1015 1.369 . S
C1016 C1025 1.429 . S
C1017 C1015 1.419 . S
C1017 C1018 1.363 . S
C1017 H1020 0.929 . S
C1018 C1017 1.363 . S
C1018 C1024 1.428 . S
H1019 C1015 0.930 . S
H1020 C1017 0.929 . S
S1021 N1022 1.613 . S
S1021 N1023 1.610 . S
N1022 S1021 1.613 . S
N1022 C1025 1.350 . S
N1023 S1021 1.610 . S
N1023 C1024 1.351 . S
C1024 C1018 1.428 . S
C1024 N1023 1.351 . S
C1024 C1025 1.434 . S
C1025 C1016 1.429 . S
C1025 N1022 1.350 . S
C1025 C1024 1.434 . S
C1026 C1027 1.369 . S
C1026 C1028 1.419 . S
C1026 H1030 0.930 . S
C1027 C1026 1.369 . S
C1027 C1036 1.429 . S
C1028 C1026 1.419 . S
C1028 C1029 1.363 . S
C1028 H1031 0.929 . S
C1029 C1028 1.363 . S
C1029 C1035 1.428 . S
H1030 C1026 0.930 . S
H1031 C1028 0.929 . S
S1032 N1033 1.613 . S
S1032 N1034 1.610 . S
N1033 S1032 1.613 . S
N1033 C1036 1.350 . S
N1034 S1032 1.610 . S
N1034 C1035 1.351 . S
C1035 C1029 1.428 . S
C1035 N1034 1.351 . S
C1035 C1036 1.434 . S
C1036 C1027 1.429 . S
C1036 N1033 1.350 . S
C1036 C1035 1.434 . S
C1037 C1038 1.369 . S
C1037 C1039 1.419 . S
C1037 H1041 0.930 . S
C1038 C1037 1.369 . S
C1038 C1047 1.429 . S
C1039 C1037 1.419 . S
C1039 C1040 1.363 . S
C1039 H1042 0.929 . S
C1040 C1039 1.363 . S
C1040 C1046 1.428 . S
H1041 C1037 0.930 . S
H1042 C1039 0.929 . S
S1043 N1044 1.613 . S
S1043 N1045 1.610 . S
N1044 S1043 1.613 . S
N1044 C1047 1.350 . S
N1045 S1043 1.610 . S
N1045 C1046 1.351 . S
C1046 C1040 1.428 . S
C1046 N1045 1.351 . S
C1046 C1047 1.434 . S
C1047 C1038 1.429 . S
C1047 N1044 1.350 . S
C1047 C1046 1.434 . S
C1048 C1049 1.369 . S
C1048 C1050 1.419 . S
C1048 H1052 0.930 . S
C1049 C1048 1.369 . S
C1049 C1058 1.429 . S
C1050 C1048 1.419 . S
C1050 C1051 1.363 . S
C1050 H1053 0.929 . S
C1051 C1050 1.363 . S
C1051 C1057 1.428 . S
H1052 C1048 0.930 . S
H1053 C1050 0.929 . S
S1054 N1055 1.613 . S
S1054 N1056 1.610 . S
N1055 S1054 1.613 . S
N1055 C1058 1.350 . S
N1056 S1054 1.610 . S
N1056 C1057 1.351 . S
C1057 C1051 1.428 . S
C1057 N1056 1.351 . S
C1057 C1058 1.434 . S
C1058 C1049 1.429 . S
C1058 N1055 1.350 . S
C1058 C1057 1.434 . S
C1059 C1060 1.369 . S
C1059 C1061 1.419 . S
C1059 H1063 0.930 . S
C1060 C1059 1.369 . S
C1060 C1069 1.429 . S
C1061 C1059 1.419 . S
C1061 C1062 1.363 . S
C1061 H1064 0.929 . S
C1062 C1061 1.363 . S
C1062 C1068 1.428 . S
H1063 C1059 0.930 . S
H1064 C1061 0.929 . S
S1065 N1066 1.613 . S
S1065 N1067 1.610 . S
N1066 S1065 1.613 . S
N1066 C1069 1.350 . S
N1067 S1065 1.610 . S
N1067 C1068 1.351 . S
C1068 C1062 1.428 . S
C1068 N1067 1.351 . S
C1068 C1069 1.434 . S
C1069 C1060 1.429 . S
C1069 N1066 1.350 . S
C1069 C1068 1.434 . S
C1070 C1071 1.369 . S
C1070 C1072 1.419 . S
C1070 H1074 0.930 . S
C1071 C1070 1.369 . S
C1071 C1080 1.429 . S
C1072 C1070 1.419 . S
C1072 C1073 1.363 . S
C1072 H1075 0.929 . S
C1073 C1072 1.363 . S
C1073 C1079 1.428 . S
H1074 C1070 0.930 . S
H1075 C1072 0.929 . S
S1076 N1077 1.613 . S
S1076 N1078 1.610 . S
N1077 S1076 1.613 . S
N1077 C1080 1.350 . S
N1078 S1076 1.610 . S
N1078 C1079 1.351 . S
C1079 C1073 1.428 . S
C1079 N1078 1.351 . S
C1079 C1080 1.434 . S
C1080 C1071 1.429 . S
C1080 N1077 1.350 . S
C1080 C1079 1.434 . S
C1081 C1082 1.369 . S
C1081 C1083 1.419 . S
C1081 H1085 0.930 . S
C1082 C1081 1.369 . S
C1082 C1091 1.429 . S
C1083 C1081 1.419 . S
C1083 C1084 1.363 . S
C1083 H1086 0.929 . S
C1084 C1083 1.363 . S
C1084 C1090 1.428 . S
H1085 C1081 0.930 . S
H1086 C1083 0.929 . S
S1087 N1088 1.613 . S
S1087 N1089 1.610 . S
N1088 S1087 1.613 . S
N1088 C1091 1.350 . S
N1089 S1087 1.610 . S
N1089 C1090 1.351 . S
C1090 C1084 1.428 . S
C1090 N1089 1.351 . S
C1090 C1091 1.434 . S
C1091 C1082 1.429 . S
C1091 N1088 1.350 . S
C1091 C1090 1.434 . S
C1092 C1093 1.369 . S
C1092 C1094 1.419 . S
C1092 H1096 0.930 . S
C1093 C1092 1.369 . S
C1093 C1102 1.429 . S
C1094 C1092 1.419 . S
C1094 C1095 1.363 . S
C1094 H1097 0.929 . S
C1095 C1094 1.363 . S
C1095 C1101 1.428 . S
H1096 C1092 0.930 . S
H1097 C1094 0.929 . S
S1098 N1099 1.613 . S
S1098 N1100 1.610 . S
N1099 S1098 1.613 . S
N1099 C1102 1.350 . S
N1100 S1098 1.610 . S
N1100 C1101 1.351 . S
C1101 C1095 1.428 . S
C1101 N1100 1.351 . S
C1101 C1102 1.434 . S
C1102 C1093 1.429 . S
C1102 N1099 1.350 . S
C1102 C1101 1.434 . S
C1103 C1104 1.369 . S
C1103 C1105 1.419 . S
C1103 H1107 0.930 . S
C1104 C1103 1.369 . S
C1104 C1113 1.429 . S
C1105 C1103 1.419 . S
C1105 C1106 1.363 . S
C1105 H1108 0.929 . S
C1106 C1105 1.363 . S
C1106 C1112 1.428 . S
H1107 C1103 0.930 . S
H1108 C1105 0.929 . S
S1109 N1110 1.613 . S
S1109 N1111 1.610 . S
N1110 S1109 1.613 . S
N1110 C1113 1.350 . S
N1111 S1109 1.610 . S
N1111 C1112 1.351 . S
C1112 C1106 1.428 . S
C1112 N1111 1.351 . S
C1112 C1113 1.434 . S
C1113 C1104 1.429 . S
C1113 N1110 1.350 . S
C1113 C1112 1.434 . S
C1114 C1115 1.369 . S
C1114 C1116 1.419 . S
C1114 H1118 0.930 . S
C1115 C1114 1.369 . S
C1115 C1124 1.429 . S
C1116 C1114 1.419 . S
C1116 C1117 1.363 . S
C1116 H1119 0.929 . S
C1117 C1116 1.363 . S
C1117 C1123 1.428 . S
H1118 C1114 0.930 . S
H1119 C1116 0.929 . S
S1120 N1121 1.613 . S
S1120 N1122 1.610 . S
N1121 S1120 1.613 . S
N1121 C1124 1.350 . S
N1122 S1120 1.610 . S
N1122 C1123 1.351 . S
C1123 C1117 1.428 . S
C1123 N1122 1.351 . S
C1123 C1124 1.434 . S
C1124 C1115 1.429 . S
C1124 N1121 1.350 . S
C1124 C1123 1.434 . S
C1125 C1126 1.369 . S
C1125 C1127 1.419 . S
C1125 H1129 0.930 . S
C1126 C1125 1.369 . S
C1126 C1135 1.429 . S
C1127 C1125 1.419 . S
C1127 C1128 1.363 . S
C1127 H1130 0.929 . S
C1128 C1127 1.363 . S
C1128 C1134 1.428 . S
H1129 C1125 0.930 . S
H1130 C1127 0.929 . S
S1131 N1132 1.613 . S
S1131 N1133 1.610 . S
N1132 S1131 1.613 . S
N1132 C1135 1.350 . S
N1133 S1131 1.610 . S
N1133 C1134 1.351 . S
C1134 C1128 1.428 . S
C1134 N1133 1.351 . S
C1134 C1135 1.434 . S
C1135 C1126 1.429 . S
C1135 N1132 1.350 . S
C1135 C1134 1.434 . S
C1136 C1137 1.369 . S
C1136 C1138 1.419 . S
C1136 H1140 0.930 . S
C1137 C1136 1.369 . S
C1137 C1146 1.429 . S
C1138 C1136 1.419 . S
C1138 C1139 1.363 . S
C1138 H1141 0.929 . S
C1139 C1138 1.363 . S
C1139 C1145 1.428 . S
H1140 C1136 0.930 . S
H1141 C1138 0.929 . S
S1142 N1143 1.613 . S
S1142 N1144 1.610 . S
N1143 S1142 1.613 . S
N1143 C1146 1.350 . S
N1144 S1142 1.610 . S
N1144 C1145 1.351 . S
C1145 C1139 1.428 . S
C1145 N1144 1.351 . S
C1145 C1146 1.434 . S
C1146 C1137 1.429 . S
C1146 N1143 1.350 . S
C1146 C1145 1.434 . S
C1147 C1148 1.369 . S
C1147 C1149 1.419 . S
C1147 H1151 0.930 . S
C1148 C1147 1.369 . S
C1148 C1157 1.429 . S
C1149 C1147 1.419 . S
C1149 C1150 1.363 . S
C1149 H1152 0.929 . S
C1150 C1149 1.363 . S
C1150 C1156 1.428 . S
H1151 C1147 0.930 . S
H1152 C1149 0.929 . S
S1153 N1154 1.613 . S
S1153 N1155 1.610 . S
N1154 S1153 1.613 . S
N1154 C1157 1.350 . S
N1155 S1153 1.610 . S
N1155 C1156 1.351 . S
C1156 C1150 1.428 . S
C1156 N1155 1.351 . S
C1156 C1157 1.434 . S
C1157 C1148 1.429 . S
C1157 N1154 1.350 . S
C1157 C1156 1.434 . S
C1158 C1159 1.369 . S
C1158 C1160 1.419 . S
C1158 H1162 0.930 . S
C1159 C1158 1.369 . S
C1159 C1168 1.429 . S
C1160 C1158 1.419 . S
C1160 C1161 1.363 . S
C1160 H1163 0.929 . S
C1161 C1160 1.363 . S
C1161 C1167 1.428 . S
H1162 C1158 0.930 . S
H1163 C1160 0.929 . S
S1164 N1165 1.613 . S
S1164 N1166 1.610 . S
N1165 S1164 1.613 . S
N1165 C1168 1.350 . S
N1166 S1164 1.610 . S
N1166 C1167 1.351 . S
C1167 C1161 1.428 . S
C1167 N1166 1.351 . S
C1167 C1168 1.434 . S
C1168 C1159 1.429 . S
C1168 N1165 1.350 . S
C1168 C1167 1.434 . S
C1169 C1170 1.369 . S
C1169 C1171 1.419 . S
C1169 H1173 0.930 . S
C1170 C1169 1.369 . S
C1170 C1179 1.429 . S
C1171 C1169 1.419 . S
C1171 C1172 1.363 . S
C1171 H1174 0.929 . S
C1172 C1171 1.363 . S
C1172 C1178 1.428 . S
H1173 C1169 0.930 . S
H1174 C1171 0.929 . S
S1175 N1176 1.613 . S
S1175 N1177 1.610 . S
N1176 S1175 1.613 . S
N1176 C1179 1.350 . S
N1177 S1175 1.610 . S
N1177 C1178 1.351 . S
C1178 C1172 1.428 . S
C1178 N1177 1.351 . S
C1178 C1179 1.434 . S
C1179 C1170 1.429 . S
C1179 N1176 1.350 . S
C1179 C1178 1.434 . S
C1180 C1181 1.369 . S
C1180 C1182 1.419 . S
C1180 H1184 0.930 . S
C1181 C1180 1.369 . S
C1181 C1190 1.429 . S
C1182 C1180 1.419 . S
C1182 C1183 1.363 . S
C1182 H1185 0.929 . S
C1183 C1182 1.363 . S
C1183 C1189 1.428 . S
H1184 C1180 0.930 . S
H1185 C1182 0.929 . S
S1186 N1187 1.613 . S
S1186 N1188 1.610 . S
N1187 S1186 1.613 . S
N1187 C1190 1.350 . S
N1188 S1186 1.610 . S
N1188 C1189 1.351 . S
C1189 C1183 1.428 . S
C1189 N1188 1.351 . S
C1189 C1190 1.434 . S
C1190 C1181 1.429 . S
C1190 N1187 1.350 . S
C1190 C1189 1.434 . S
C1191 C1192 1.369 . S
C1191 C1193 1.419 . S
C1191 H1195 0.930 . S
C1192 C1191 1.369 . S
C1192 C1201 1.429 . S
C1193 C1191 1.419 . S
C1193 C1194 1.363 . S
C1193 H1196 0.929 . S
C1194 C1193 1.363 . S
C1194 C1200 1.428 . S
H1195 C1191 0.930 . S
H1196 C1193 0.929 . S
S1197 N1198 1.613 . S
S1197 N1199 1.610 . S
N1198 S1197 1.613 . S
N1198 C1201 1.350 . S
N1199 S1197 1.610 . S
N1199 C1200 1.351 . S
C1200 C1194 1.428 . S
C1200 N1199 1.351 . S
C1200 C1201 1.434 . S
C1201 C1192 1.429 . S
C1201 N1198 1.350 . S
C1201 C1200 1.434 . S
C1202 C1203 1.369 . S
C1202 C1204 1.419 . S
C1202 H1206 0.930 . S
C1203 C1202 1.369 . S
C1203 C1212 1.429 . S
C1204 C1202 1.419 . S
C1204 C1205 1.363 . S
C1204 H1207 0.929 . S
C1205 C1204 1.363 . S
C1205 C1211 1.428 . S
H1206 C1202 0.930 . S
H1207 C1204 0.929 . S
S1208 N1209 1.613 . S
S1208 N1210 1.610 . S
N1209 S1208 1.613 . S
N1209 C1212 1.350 . S
N1210 S1208 1.610 . S
N1210 C1211 1.351 . S
C1211 C1205 1.428 . S
C1211 N1210 1.351 . S
C1211 C1212 1.434 . S
C1212 C1203 1.429 . S
C1212 N1209 1.350 . S
C1212 C1211 1.434 . S
C1213 C1214 1.369 . S
C1213 C1215 1.419 . S
C1213 H1217 0.930 . S
C1214 C1213 1.369 . S
C1214 C1223 1.429 . S
C1215 C1213 1.419 . S
C1215 C1216 1.363 . S
C1215 H1218 0.929 . S
C1216 C1215 1.363 . S
C1216 C1222 1.428 . S
H1217 C1213 0.930 . S
H1218 C1215 0.929 . S
S1219 N1220 1.613 . S
S1219 N1221 1.610 . S
N1220 S1219 1.613 . S
N1220 C1223 1.350 . S
N1221 S1219 1.610 . S
N1221 C1222 1.351 . S
C1222 C1216 1.428 . S
C1222 N1221 1.351 . S
C1222 C1223 1.434 . S
C1223 C1214 1.429 . S
C1223 N1220 1.350 . S
C1223 C1222 1.434 . S
C1224 C1225 1.369 . S
C1224 C1226 1.419 . S
C1224 H1228 0.930 . S
C1225 C1224 1.369 . S
C1225 C1234 1.429 . S
C1226 C1224 1.419 . S
C1226 C1227 1.363 . S
C1226 H1229 0.929 . S
C1227 C1226 1.363 . S
C1227 C1233 1.428 . S
H1228 C1224 0.930 . S
H1229 C1226 0.929 . S
S1230 N1231 1.613 . S
S1230 N1232 1.610 . S
N1231 S1230 1.613 . S
N1231 C1234 1.350 . S
N1232 S1230 1.610 . S
N1232 C1233 1.351 . S
C1233 C1227 1.428 . S
C1233 N1232 1.351 . S
C1233 C1234 1.434 . S
C1234 C1225 1.429 . S
C1234 N1231 1.350 . S
C1234 C1233 1.434 . S
C1235 C1236 1.369 . S
C1235 C1237 1.419 . S
C1235 H1239 0.930 . S
C1236 C1235 1.369 . S
C1236 C1245 1.429 . S
C1237 C1235 1.419 . S
C1237 C1238 1.363 . S
C1237 H1240 0.929 . S
C1238 C1237 1.363 . S
C1238 C1244 1.428 . S
H1239 C1235 0.930 . S
H1240 C1237 0.929 . S
S1241 N1242 1.613 . S
S1241 N1243 1.610 . S
N1242 S1241 1.613 . S
N1242 C1245 1.350 . S
N1243 S1241 1.610 . S
N1243 C1244 1.351 . S
C1244 C1238 1.428 . S
C1244 N1243 1.351 . S
C1244 C1245 1.434 . S
C1245 C1236 1.429 . S
C1245 N1242 1.350 . S
C1245 C1244 1.434 . S
C1246 C1247 1.369 . S
C1246 C1248 1.419 . S
C1246 H1250 0.930 . S
C1247 C1246 1.369 . S
C1247 C1256 1.429 . S
C1248 C1246 1.419 . S
C1248 C1249 1.363 . S
C1248 H1251 0.929 . S
C1249 C1248 1.363 . S
C1249 C1255 1.428 . S
H1250 C1246 0.930 . S
H1251 C1248 0.929 . S
S1252 N1253 1.613 . S
S1252 N1254 1.610 . S
N1253 S1252 1.613 . S
N1253 C1256 1.350 . S
N1254 S1252 1.610 . S
N1254 C1255 1.351 . S
C1255 C1249 1.428 . S
C1255 N1254 1.351 . S
C1255 C1256 1.434 . S
C1256 C1247 1.429 . S
C1256 N1253 1.350 . S
C1256 C1255 1.434 . S
C1257 C1258 1.369 . S
C1257 C1259 1.419 . S
C1257 H1261 0.930 . S
C1258 C1257 1.369 . S
C1258 C1267 1.429 . S
C1259 C1257 1.419 . S
C1259 C1260 1.363 . S
C1259 H1262 0.929 . S
C1260 C1259 1.363 . S
C1260 C1266 1.428 . S
H1261 C1257 0.930 . S
H1262 C1259 0.929 . S
S1263 N1264 1.613 . S
S1263 N1265 1.610 . S
N1264 S1263 1.613 . S
N1264 C1267 1.350 . S
N1265 S1263 1.610 . S
N1265 C1266 1.351 . S
C1266 C1260 1.428 . S
C1266 N1265 1.351 . S
C1266 C1267 1.434 . S
C1267 C1258 1.429 . S
C1267 N1264 1.350 . S
C1267 C1266 1.434 . S
C1268 C1269 1.369 . S
C1268 C1270 1.419 . S
C1268 H1272 0.930 . S
C1269 C1268 1.369 . S
C1269 C1278 1.429 . S
C1270 C1268 1.419 . S
C1270 C1271 1.363 . S
C1270 H1273 0.929 . S
C1271 C1270 1.363 . S
C1271 C1277 1.428 . S
H1272 C1268 0.930 . S
H1273 C1270 0.929 . S
S1274 N1275 1.613 . S
S1274 N1276 1.610 . S
N1275 S1274 1.613 . S
N1275 C1278 1.350 . S
N1276 S1274 1.610 . S
N1276 C1277 1.351 . S
C1277 C1271 1.428 . S
C1277 N1276 1.351 . S
C1277 C1278 1.434 . S
C1278 C1269 1.429 . S
C1278 N1275 1.350 . S
C1278 C1277 1.434 . S
C1279 C1280 1.369 . S
C1279 C1281 1.419 . S
C1279 H1283 0.930 . S
C1280 C1279 1.369 . S
C1280 C1289 1.429 . S
C1281 C1279 1.419 . S
C1281 C1282 1.363 . S
C1281 H1284 0.929 . S
C1282 C1281 1.363 . S
C1282 C1288 1.428 . S
H1283 C1279 0.930 . S
H1284 C1281 0.929 . S
S1285 N1286 1.613 . S
S1285 N1287 1.610 . S
N1286 S1285 1.613 . S
N1286 C1289 1.350 . S
N1287 S1285 1.610 . S
N1287 C1288 1.351 . S
C1288 C1282 1.428 . S
C1288 N1287 1.351 . S
C1288 C1289 1.434 . S
C1289 C1280 1.429 . S
C1289 N1286 1.350 . S
C1289 C1288 1.434 . S
C1290 C1291 1.369 . S
C1290 C1292 1.419 . S
C1290 H1294 0.930 . S
C1291 C1290 1.369 . S
C1291 C1300 1.429 . S
C1292 C1290 1.419 . S
C1292 C1293 1.363 . S
C1292 H1295 0.929 . S
C1293 C1292 1.363 . S
C1293 C1299 1.428 . S
H1294 C1290 0.930 . S
H1295 C1292 0.929 . S
S1296 N1297 1.613 . S
S1296 N1298 1.610 . S
N1297 S1296 1.613 . S
N1297 C1300 1.350 . S
N1298 S1296 1.610 . S
N1298 C1299 1.351 . S
C1299 C1293 1.428 . S
C1299 N1298 1.351 . S
C1299 C1300 1.434 . S
C1300 C1291 1.429 . S
C1300 N1297 1.350 . S
C1300 C1299 1.434 . S
C1301 C1302 1.369 . S
C1301 C1303 1.419 . S
C1301 H1305 0.930 . S
C1302 C1301 1.369 . S
C1302 C1311 1.429 . S
C1303 C1301 1.419 . S
C1303 C1304 1.363 . S
C1303 H1306 0.929 . S
C1304 C1303 1.363 . S
C1304 C1310 1.428 . S
H1305 C1301 0.930 . S
H1306 C1303 0.929 . S
S1307 N1308 1.613 . S
S1307 N1309 1.610 . S
N1308 S1307 1.613 . S
N1308 C1311 1.350 . S
N1309 S1307 1.610 . S
N1309 C1310 1.351 . S
C1310 C1304 1.428 . S
C1310 N1309 1.351 . S
C1310 C1311 1.434 . S
C1311 C1302 1.429 . S
C1311 N1308 1.350 . S
C1311 C1310 1.434 . S
C1312 C1313 1.369 . S
C1312 C1314 1.419 . S
C1312 H1316 0.930 . S
C1313 C1312 1.369 . S
C1313 C1322 1.429 . S
C1314 C1312 1.419 . S
C1314 C1315 1.363 . S
C1314 H1317 0.929 . S
C1315 C1314 1.363 . S
C1315 C1321 1.428 . S
H1316 C1312 0.930 . S
H1317 C1314 0.929 . S
S1318 N1319 1.613 . S
S1318 N1320 1.610 . S
N1319 S1318 1.613 . S
N1319 C1322 1.350 . S
N1320 S1318 1.610 . S
N1320 C1321 1.351 . S
C1321 C1315 1.428 . S
C1321 N1320 1.351 . S
C1321 C1322 1.434 . S
C1322 C1313 1.429 . S
C1322 N1319 1.350 . S
C1322 C1321 1.434 . S
C1323 C1324 1.369 . S
C1323 C1325 1.419 . S
C1323 H1327 0.930 . S
C1324 C1323 1.369 . S
C1324 C1333 1.429 . S
C1325 C1323 1.419 . S
C1325 C1326 1.363 . S
C1325 H1328 0.929 . S
C1326 C1325 1.363 . S
C1326 C1332 1.428 . S
H1327 C1323 0.930 . S
H1328 C1325 0.929 . S
S1329 N1330 1.613 . S
S1329 N1331 1.610 . S
N1330 S1329 1.613 . S
N1330 C1333 1.350 . S
N1331 S1329 1.610 . S
N1331 C1332 1.351 . S
C1332 C1326 1.428 . S
C1332 N1331 1.351 . S
C1332 C1333 1.434 . S
C1333 C1324 1.429 . S
C1333 N1330 1.350 . S
C1333 C1332 1.434 . S
C1334 C1335 1.369 . S
C1334 C1336 1.419 . S
C1334 H1338 0.930 . S
C1335 C1334 1.369 . S
C1335 C1344 1.429 . S
C1336 C1334 1.419 . S
C1336 C1337 1.363 . S
C1336 H1339 0.929 . S
C1337 C1336 1.363 . S
C1337 C1343 1.428 . S
H1338 C1334 0.930 . S
H1339 C1336 0.929 . S
S1340 N1341 1.613 . S
S1340 N1342 1.610 . S
N1341 S1340 1.613 . S
N1341 C1344 1.350 . S
N1342 S1340 1.610 . S
N1342 C1343 1.351 . S
C1343 C1337 1.428 . S
C1343 N1342 1.351 . S
C1343 C1344 1.434 . S
C1344 C1335 1.429 . S
C1344 N1341 1.350 . S
C1344 C1343 1.434 . S
C1345 C1346 1.369 . S
C1345 C1347 1.419 . S
C1345 H1349 0.930 . S
C1346 C1345 1.369 . S
C1346 C1355 1.429 . S
C1347 C1345 1.419 . S
C1347 C1348 1.363 . S
C1347 H1350 0.929 . S
C1348 C1347 1.363 . S
C1348 C1354 1.428 . S
H1349 C1345 0.930 . S
H1350 C1347 0.929 . S
S1351 N1352 1.613 . S
S1351 N1353 1.610 . S
N1352 S1351 1.613 . S
N1352 C1355 1.350 . S
N1353 S1351 1.610 . S
N1353 C1354 1.351 . S
C1354 C1348 1.428 . S
C1354 N1353 1.351 . S
C1354 C1355 1.434 . S
C1355 C1346 1.429 . S
C1355 N1352 1.350 . S
C1355 C1354 1.434 . S
C1356 C1357 1.369 . S
C1356 C1358 1.419 . S
C1356 H1360 0.930 . S
C1357 C1356 1.369 . S
C1357 C1366 1.429 . S
C1358 C1356 1.419 . S
C1358 C1359 1.363 . S
C1358 H1361 0.929 . S
C1359 C1358 1.363 . S
C1359 C1365 1.428 . S
H1360 C1356 0.930 . S
H1361 C1358 0.929 . S
S1362 N1363 1.613 . S
S1362 N1364 1.610 . S
N1363 S1362 1.613 . S
N1363 C1366 1.350 . S
N1364 S1362 1.610 . S
N1364 C1365 1.351 . S
C1365 C1359 1.428 . S
C1365 N1364 1.351 . S
C1365 C1366 1.434 . S
C1366 C1357 1.429 . S
C1366 N1363 1.350 . S
C1366 C1365 1.434 . S
C1367 C1368 1.369 . S
C1367 C1369 1.419 . S
C1367 H1371 0.930 . S
C1368 C1367 1.369 . S
C1368 C1377 1.429 . S
C1369 C1367 1.419 . S
C1369 C1370 1.363 . S
C1369 H1372 0.929 . S
C1370 C1369 1.363 . S
C1370 C1376 1.428 . S
H1371 C1367 0.930 . S
H1372 C1369 0.929 . S
S1373 N1374 1.613 . S
S1373 N1375 1.610 . S
N1374 S1373 1.613 . S
N1374 C1377 1.350 . S
N1375 S1373 1.610 . S
N1375 C1376 1.351 . S
C1376 C1370 1.428 . S
C1376 N1375 1.351 . S
C1376 C1377 1.434 . S
C1377 C1368 1.429 . S
C1377 N1374 1.350 . S
C1377 C1376 1.434 . S
C1378 C1379 1.369 . S
C1378 C1380 1.419 . S
C1378 H1382 0.930 . S
C1379 C1378 1.369 . S
C1379 C1388 1.429 . S
C1380 C1378 1.419 . S
C1380 C1381 1.363 . S
C1380 H1383 0.929 . S
C1381 C1380 1.363 . S
C1381 C1387 1.428 . S
H1382 C1378 0.930 . S
H1383 C1380 0.929 . S
S1384 N1385 1.613 . S
S1384 N1386 1.610 . S
N1385 S1384 1.613 . S
N1385 C1388 1.350 . S
N1386 S1384 1.610 . S
N1386 C1387 1.351 . S
C1387 C1381 1.428 . S
C1387 N1386 1.351 . S
C1387 C1388 1.434 . S
C1388 C1379 1.429 . S
C1388 N1385 1.350 . S
C1388 C1387 1.434 . S
C1389 C1390 1.369 . S
C1389 C1391 1.419 . S
C1389 H1393 0.930 . S
C1390 C1389 1.369 . S
C1390 C1399 1.429 . S
C1391 C1389 1.419 . S
C1391 C1392 1.363 . S
C1391 H1394 0.929 . S
C1392 C1391 1.363 . S
C1392 C1398 1.428 . S
H1393 C1389 0.930 . S
H1394 C1391 0.929 . S
S1395 N1396 1.613 . S
S1395 N1397 1.610 . S
N1396 S1395 1.613 . S
N1396 C1399 1.350 . S
N1397 S1395 1.610 . S
N1397 C1398 1.351 . S
C1398 C1392 1.428 . S
C1398 N1397 1.351 . S
C1398 C1399 1.434 . S
C1399 C1390 1.429 . S
C1399 N1396 1.350 . S
C1399 C1398 1.434 . S
C1400 C1401 1.369 . S
C1400 C1402 1.419 . S
C1400 H1404 0.930 . S
C1401 C1400 1.369 . S
C1401 C1410 1.429 . S
C1402 C1400 1.419 . S
C1402 C1403 1.363 . S
C1402 H1405 0.929 . S
C1403 C1402 1.363 . S
C1403 C1409 1.428 . S
H1404 C1400 0.930 . S
H1405 C1402 0.929 . S
S1406 N1407 1.613 . S
S1406 N1408 1.610 . S
N1407 S1406 1.613 . S
N1407 C1410 1.350 . S
N1408 S1406 1.610 . S
N1408 C1409 1.351 . S
C1409 C1403 1.428 . S
C1409 N1408 1.351 . S
C1409 C1410 1.434 . S
C1410 C1401 1.429 . S
C1410 N1407 1.350 . S
C1410 C1409 1.434 . S
C1411 C1412 1.369 . S
C1411 C1413 1.419 . S
C1411 H1415 0.930 . S
C1412 C1411 1.369 . S
C1412 C1421 1.429 . S
C1413 C1411 1.419 . S
C1413 C1414 1.363 . S
C1413 H1416 0.929 . S
C1414 C1413 1.363 . S
C1414 C1420 1.428 . S
H1415 C1411 0.930 . S
H1416 C1413 0.929 . S
S1417 N1418 1.613 . S
S1417 N1419 1.610 . S
N1418 S1417 1.613 . S
N1418 C1421 1.350 . S
N1419 S1417 1.610 . S
N1419 C1420 1.351 . S
C1420 C1414 1.428 . S
C1420 N1419 1.351 . S
C1420 C1421 1.434 . S
C1421 C1412 1.429 . S
C1421 N1418 1.350 . S
C1421 C1420 1.434 . S
C1422 C1423 1.369 . S
C1422 C1424 1.419 . S
C1422 H1426 0.930 . S
C1423 C1422 1.369 . S
C1423 C1432 1.429 . S
C1424 C1422 1.419 . S
C1424 C1425 1.363 . S
C1424 H1427 0.929 . S
C1425 C1424 1.363 . S
C1425 C1431 1.428 . S
H1426 C1422 0.930 . S
H1427 C1424 0.929 . S
S1428 N1429 1.613 . S
S1428 N1430 1.610 . S
N1429 S1428 1.613 . S
N1429 C1432 1.350 . S
N1430 S1428 1.610 . S
N1430 C1431 1.351 . S
C1431 C1425 1.428 . S
C1431 N1430 1.351 . S
C1431 C1432 1.434 . S
C1432 C1423 1.429 . S
C1432 N1429 1.350 . S
C1432 C1431 1.434 . S
C1433 C1434 1.369 . S
C1433 C1435 1.419 . S
C1433 H1437 0.930 . S
C1434 C1433 1.369 . S
C1434 C1443 1.429 . S
C1435 C1433 1.419 . S
C1435 C1436 1.363 . S
C1435 H1438 0.929 . S
C1436 C1435 1.363 . S
C1436 C1442 1.428 . S
H1437 C1433 0.930 . S
H1438 C1435 0.929 . S
S1439 N1440 1.613 . S
S1439 N1441 1.610 . S
N1440 S1439 1.613 . S
N1440 C1443 1.350 . S
N1441 S1439 1.610 . S
N1441 C1442 1.351 . S
C1442 C1436 1.428 . S
C1442 N1441 1.351 . S
C1442 C1443 1.434 . S
C1443 C1434 1.429 . S
C1443 N1440 1.350 . S
C1443 C1442 1.434 . S
C1444 C1445 1.369 . S
C1444 C1446 1.419 . S
C1444 H1448 0.930 . S
C1445 C1444 1.369 . S
C1445 C1454 1.429 . S
C1446 C1444 1.419 . S
C1446 C1447 1.363 . S
C1446 H1449 0.929 . S
C1447 C1446 1.363 . S
C1447 C1453 1.428 . S
H1448 C1444 0.930 . S
H1449 C1446 0.929 . S
S1450 N1451 1.613 . S
S1450 N1452 1.610 . S
N1451 S1450 1.613 . S
N1451 C1454 1.350 . S
N1452 S1450 1.610 . S
N1452 C1453 1.351 . S
C1453 C1447 1.428 . S
C1453 N1452 1.351 . S
C1453 C1454 1.434 . S
C1454 C1445 1.429 . S
C1454 N1451 1.350 . S
C1454 C1453 1.434 . S
C1455 C1456 1.369 . S
C1455 C1457 1.419 . S
C1455 H1459 0.930 . S
C1456 C1455 1.369 . S
C1456 C1465 1.429 . S
C1457 C1455 1.419 . S
C1457 C1458 1.363 . S
C1457 H1460 0.929 . S
C1458 C1457 1.363 . S
C1458 C1464 1.428 . S
H1459 C1455 0.930 . S
H1460 C1457 0.929 . S
S1461 N1462 1.613 . S
S1461 N1463 1.610 . S
N1462 S1461 1.613 . S
N1462 C1465 1.350 . S
N1463 S1461 1.610 . S
N1463 C1464 1.351 . S
C1464 C1458 1.428 . S
C1464 N1463 1.351 . S
C1464 C1465 1.434 . S
C1465 C1456 1.429 . S
C1465 N1462 1.350 . S
C1465 C1464 1.434 . S
C1466 C1467 1.369 . S
C1466 C1468 1.419 . S
C1466 H1470 0.930 . S
C1467 C1466 1.369 . S
C1467 C1476 1.429 . S
C1468 C1466 1.419 . S
C1468 C1469 1.363 . S
C1468 H1471 0.929 . S
C1469 C1468 1.363 . S
C1469 C1475 1.428 . S
H1470 C1466 0.930 . S
H1471 C1468 0.929 . S
S1472 N1473 1.613 . S
S1472 N1474 1.610 . S
N1473 S1472 1.613 . S
N1473 C1476 1.350 . S
N1474 S1472 1.610 . S
N1474 C1475 1.351 . S
C1475 C1469 1.428 . S
C1475 N1474 1.351 . S
C1475 C1476 1.434 . S
C1476 C1467 1.429 . S
C1476 N1473 1.350 . S
C1476 C1475 1.434 . S
C1477 C1478 1.369 . S
C1477 C1479 1.419 . S
C1477 H1481 0.930 . S
C1478 C1477 1.369 . S
C1478 C1487 1.429 . S
C1479 C1477 1.419 . S
C1479 C1480 1.363 . S
C1479 H1482 0.929 . S
C1480 C1479 1.363 . S
C1480 C1486 1.428 . S
H1481 C1477 0.930 . S
H1482 C1479 0.929 . S
S1483 N1484 1.613 . S
S1483 N1485 1.610 . S
N1484 S1483 1.613 . S
N1484 C1487 1.350 . S
N1485 S1483 1.610 . S
N1485 C1486 1.351 . S
C1486 C1480 1.428 . S
C1486 N1485 1.351 . S
C1486 C1487 1.434 . S
C1487 C1478 1.429 . S
C1487 N1484 1.350 . S
C1487 C1486 1.434 . S
C1488 C1489 1.369 . S
C1488 C1490 1.419 . S
C1488 H1492 0.930 . S
C1489 C1488 1.369 . S
C1489 C1498 1.429 . S
C1490 C1488 1.419 . S
C1490 C1491 1.363 . S
C1490 H1493 0.929 . S
C1491 C1490 1.363 . S
C1491 C1497 1.428 . S
H1492 C1488 0.930 . S
H1493 C1490 0.929 . S
S1494 N1495 1.613 . S
S1494 N1496 1.610 . S
N1495 S1494 1.613 . S
N1495 C1498 1.350 . S
N1496 S1494 1.610 . S
N1496 C1497 1.351 . S
C1497 C1491 1.428 . S
C1497 N1496 1.351 . S
C1497 C1498 1.434 . S
C1498 C1489 1.429 . S
C1498 N1495 1.350 . S
C1498 C1497 1.434 . S
C1499 C1500 1.369 . S
C1499 C1501 1.419 . S
C1499 H1503 0.930 . S
C1500 C1499 1.369 . S
C1500 C1509 1.429 . S
C1501 C1499 1.419 . S
C1501 C1502 1.363 . S
C1501 H1504 0.929 . S
C1502 C1501 1.363 . S
C1502 C1508 1.428 . S
H1503 C1499 0.930 . S
H1504 C1501 0.929 . S
S1505 N1506 1.613 . S
S1505 N1507 1.610 . S
N1506 S1505 1.613 . S
N1506 C1509 1.350 . S
N1507 S1505 1.610 . S
N1507 C1508 1.351 . S
C1508 C1502 1.428 . S
C1508 N1507 1.351 . S
C1508 C1509 1.434 . S
C1509 C1500 1.429 . S
C1509 N1506 1.350 . S
C1509 C1508 1.434 . S
C1510 C1511 1.369 . S
C1510 C1512 1.419 . S
C1510 H1514 0.930 . S
C1511 C1510 1.369 . S
C1511 C1520 1.429 . S
C1512 C1510 1.419 . S
C1512 C1513 1.363 . S
C1512 H1515 0.929 . S
C1513 C1512 1.363 . S
C1513 C1519 1.428 . S
H1514 C1510 0.930 . S
H1515 C1512 0.929 . S
S1516 N1517 1.613 . S
S1516 N1518 1.610 . S
N1517 S1516 1.613 . S
N1517 C1520 1.350 . S
N1518 S1516 1.610 . S
N1518 C1519 1.351 . S
C1519 C1513 1.428 . S
C1519 N1518 1.351 . S
C1519 C1520 1.434 . S
C1520 C1511 1.429 . S
C1520 N1517 1.350 . S
C1520 C1519 1.434 . S
C1521 C1522 1.369 . S
C1521 C1523 1.419 . S
C1521 H1525 0.930 . S
C1522 C1521 1.369 . S
C1522 C1531 1.429 . S
C1523 C1521 1.419 . S
C1523 C1524 1.363 . S
C1523 H1526 0.929 . S
C1524 C1523 1.363 . S
C1524 C1530 1.428 . S
H1525 C1521 0.930 . S
H1526 C1523 0.929 . S
S1527 N1528 1.613 . S
S1527 N1529 1.610 . S
N1528 S1527 1.613 . S
N1528 C1531 1.350 . S
N1529 S1527 1.610 . S
N1529 C1530 1.351 . S
C1530 C1524 1.428 . S
C1530 N1529 1.351 . S
C1530 C1531 1.434 . S
C1531 C1522 1.429 . S
C1531 N1528 1.350 . S
C1531 C1530 1.434 . S
C1532 C1533 1.369 . S
C1532 C1534 1.419 . S
C1532 H1536 0.930 . S
C1533 C1532 1.369 . S
C1533 C1542 1.429 . S
C1534 C1532 1.419 . S
C1534 C1535 1.363 . S
C1534 H1537 0.929 . S
C1535 C1534 1.363 . S
C1535 C1541 1.428 . S
H1536 C1532 0.930 . S
H1537 C1534 0.929 . S
S1538 N1539 1.613 . S
S1538 N1540 1.610 . S
N1539 S1538 1.613 . S
N1539 C1542 1.350 . S
N1540 S1538 1.610 . S
N1540 C1541 1.351 . S
C1541 C1535 1.428 . S
C1541 N1540 1.351 . S
C1541 C1542 1.434 . S
C1542 C1533 1.429 . S
C1542 N1539 1.350 . S
C1542 C1541 1.434 . S
C1543 C1544 1.369 . S
C1543 C1545 1.419 . S
C1543 H1547 0.930 . S
C1544 C1543 1.369 . S
C1544 C1553 1.429 . S
C1545 C1543 1.419 . S
C1545 C1546 1.363 . S
C1545 H1548 0.929 . S
C1546 C1545 1.363 . S
C1546 C1552 1.428 . S
H1547 C1543 0.930 . S
H1548 C1545 0.929 . S
S1549 N1550 1.613 . S
S1549 N1551 1.610 . S
N1550 S1549 1.613 . S
N1550 C1553 1.350 . S
N1551 S1549 1.610 . S
N1551 C1552 1.351 . S
C1552 C1546 1.428 . S
C1552 N1551 1.351 . S
C1552 C1553 1.434 . S
C1553 C1544 1.429 . S
C1553 N1550 1.350 . S
C1553 C1552 1.434 . S
C1554 C1555 1.369 . S
C1554 C1556 1.419 . S
C1554 H1558 0.930 . S
C1555 C1554 1.369 . S
C1555 C1564 1.429 . S
C1556 C1554 1.419 . S
C1556 C1557 1.363 . S
C1556 H1559 0.929 . S
C1557 C1556 1.363 . S
C1557 C1563 1.428 . S
H1558 C1554 0.930 . S
H1559 C1556 0.929 . S
S1560 N1561 1.613 . S
S1560 N1562 1.610 . S
N1561 S1560 1.613 . S
N1561 C1564 1.350 . S
N1562 S1560 1.610 . S
N1562 C1563 1.351 . S
C1563 C1557 1.428 . S
C1563 N1562 1.351 . S
C1563 C1564 1.434 . S
C1564 C1555 1.429 . S
C1564 N1561 1.350 . S
C1564 C1563 1.434 . S
C1565 C1566 1.369 . S
C1565 C1567 1.419 . S
C1565 H1569 0.930 . S
C1566 C1565 1.369 . S
C1566 C1575 1.429 . S
C1567 C1565 1.419 . S
C1567 C1568 1.363 . S
C1567 H1570 0.929 . S
C1568 C1567 1.363 . S
C1568 C1574 1.428 . S
H1569 C1565 0.930 . S
H1570 C1567 0.929 . S
S1571 N1572 1.613 . S
S1571 N1573 1.610 . S
N1572 S1571 1.613 . S
N1572 C1575 1.350 . S
N1573 S1571 1.610 . S
N1573 C1574 1.351 . S
C1574 C1568 1.428 . S
C1574 N1573 1.351 . S
C1574 C1575 1.434 . S
C1575 C1566 1.429 . S
C1575 N1572 1.350 . S
C1575 C1574 1.434 . S
C1576 C1577 1.369 . S
C1576 C1578 1.419 . S
C1576 H1580 0.930 . S
C1577 C1576 1.369 . S
C1577 C1586 1.429 1_556 S
C1578 C1576 1.419 . S
C1578 C1579 1.363 . S
C1578 H1581 0.929 . S
C1579 C1578 1.363 . S
C1579 C1585 1.428 1_556 S
H1580 C1576 0.930 . S
H1581 C1578 0.929 . S
S1582 N1583 1.613 . S
S1582 N1584 1.610 . S
N1583 S1582 1.613 . S
N1583 C1586 1.350 . S
N1584 S1582 1.610 . S
N1584 C1585 1.351 . S
C1585 C1579 1.428 1_554 S
C1585 N1584 1.351 . S
C1585 C1586 1.434 . S
C1586 C1577 1.429 1_554 S
C1586 N1583 1.350 . S
C1586 C1585 1.434 . S
C1587 C1588 1.369 . S
C1587 C1589 1.419 1_556 S
C1587 H1591 0.934 . S
C1588 C1587 1.369 . S
C1588 C1597 1.429 . S
C1589 C1587 1.419 1_554 S
C1589 C1590 1.363 . S
C1589 H1592 0.929 . S
C1590 C1589 1.363 . S
C1590 C1596 1.428 1_554 S
H1591 C1587 0.934 . S
H1592 C1589 0.929 . S
S1593 N1594 1.613 . S
S1593 N1595 1.610 . S
N1594 S1593 1.613 . S
N1594 C1597 1.350 . S
N1595 S1593 1.610 . S
N1595 C1596 1.351 . S
C1596 C1590 1.428 1_556 S
C1596 N1595 1.351 . S
C1596 C1597 1.434 . S
C1597 C1588 1.429 . S
C1597 N1594 1.350 . S
C1597 C1596 1.434 . S
C1598 C1599 1.369 . S
C1598 C1600 1.419 . S
C1598 H1602 0.930 . S
C1599 C1598 1.369 . S
C1599 C1608 1.429 . S
C1600 C1598 1.419 . S
C1600 C1601 1.363 . S
C1600 H1603 0.929 . S
C1601 C1600 1.363 . S
C1601 C1607 1.428 . S
H1602 C1598 0.930 . S
H1603 C1600 0.929 . S
S1604 N1605 1.613 . S
S1604 N1606 1.610 . S
N1605 S1604 1.613 . S
N1605 C1608 1.350 . S
N1606 S1604 1.610 . S
N1606 C1607 1.351 . S
C1607 C1601 1.428 . S
C1607 N1606 1.351 . S
C1607 C1608 1.434 . S
C1608 C1599 1.429 . S
C1608 N1605 1.350 . S
C1608 C1607 1.434 . S
C1609 C1610 1.369 . S
C1609 C1611 1.419 . S
C1609 H1613 0.930 . S
C1610 C1609 1.369 . S
C1610 C1619 1.429 . S
C1611 C1609 1.419 . S
C1611 C1612 1.363 . S
C1611 H1614 0.929 . S
C1612 C1611 1.363 . S
C1612 C1618 1.428 . S
H1613 C1609 0.930 . S
H1614 C1611 0.929 . S
S1615 N1616 1.613 . S
S1615 N1617 1.610 . S
N1616 S1615 1.613 . S
N1616 C1619 1.350 . S
N1617 S1615 1.610 . S
N1617 C1618 1.351 . S
C1618 C1612 1.428 . S
C1618 N1617 1.351 . S
C1618 C1619 1.434 . S
C1619 C1610 1.429 . S
C1619 N1616 1.350 . S
C1619 C1618 1.434 . S
C1620 C1621 1.369 . S
C1620 C1622 1.419 . S
C1620 H1624 0.930 . S
C1621 C1620 1.369 . S
C1621 C1630 1.429 . S
C1622 C1620 1.419 . S
C1622 C1623 1.363 . S
C1622 H1625 0.929 . S
C1623 C1622 1.363 . S
C1623 C1629 1.428 . S
H1624 C1620 0.930 . S
H1625 C1622 0.929 . S
S1626 N1627 1.613 . S
S1626 N1628 1.610 . S
N1627 S1626 1.613 . S
N1627 C1630 1.350 . S
N1628 S1626 1.610 . S
N1628 C1629 1.351 . S
C1629 C1623 1.428 . S
C1629 N1628 1.351 . S
C1629 C1630 1.434 . S
C1630 C1621 1.429 . S
C1630 N1627 1.350 . S
C1630 C1629 1.434 . S
C1631 C1632 1.369 . S
C1631 C1633 1.419 . S
C1631 H1635 0.930 . S
C1632 C1631 1.369 . S
C1632 C1641 1.429 . S
C1633 C1631 1.419 . S
C1633 C1634 1.363 . S
C1633 H1636 0.929 . S
C1634 C1633 1.363 . S
C1634 C1640 1.428 . S
H1635 C1631 0.930 . S
H1636 C1633 0.929 . S
S1637 N1638 1.613 . S
S1637 N1639 1.610 . S
N1638 S1637 1.613 . S
N1638 C1641 1.350 . S
N1639 S1637 1.610 . S
N1639 C1640 1.351 . S
C1640 C1634 1.428 . S
C1640 N1639 1.351 . S
C1640 C1641 1.434 . S
C1641 C1632 1.429 . S
C1641 N1638 1.350 . S
C1641 C1640 1.434 . S
C1642 C1643 1.369 . S
C1642 C1644 1.419 . S
C1642 H1646 0.930 . S
C1643 C1642 1.369 . S
C1643 C1652 1.429 . S
C1644 C1642 1.419 . S
C1644 C1645 1.363 . S
C1644 H1647 0.929 . S
C1645 C1644 1.363 . S
C1645 C1651 1.428 . S
H1646 C1642 0.930 . S
H1647 C1644 0.929 . S
S1648 N1649 1.613 . S
S1648 N1650 1.610 . S
N1649 S1648 1.613 . S
N1649 C1652 1.350 . S
N1650 S1648 1.610 . S
N1650 C1651 1.351 . S
C1651 C1645 1.428 . S
C1651 N1650 1.351 . S
C1651 C1652 1.434 . S
C1652 C1643 1.429 . S
C1652 N1649 1.350 . S
C1652 C1651 1.434 . S
C1653 C1654 1.369 . S
C1653 C1655 1.419 . S
C1653 H1657 0.930 . S
C1654 C1653 1.369 . S
C1654 C1663 1.429 . S
C1655 C1653 1.419 . S
C1655 C1656 1.363 . S
C1655 H1658 0.929 . S
C1656 C1655 1.363 . S
C1656 C1662 1.428 . S
H1657 C1653 0.930 . S
H1658 C1655 0.929 . S
S1659 N1660 1.613 . S
S1659 N1661 1.610 . S
N1660 S1659 1.613 . S
N1660 C1663 1.350 . S
N1661 S1659 1.610 . S
N1661 C1662 1.351 . S
C1662 C1656 1.428 . S
C1662 N1661 1.351 . S
C1662 C1663 1.434 . S
C1663 C1654 1.429 . S
C1663 N1660 1.350 . S
C1663 C1662 1.434 . S
C1664 C1665 1.369 . S
C1664 C1666 1.419 . S
C1664 H1668 0.930 . S
C1665 C1664 1.369 . S
C1665 C1674 1.429 . S
C1666 C1664 1.419 . S
C1666 C1667 1.363 . S
C1666 H1669 0.929 . S
C1667 C1666 1.363 . S
C1667 C1673 1.428 . S
H1668 C1664 0.930 . S
H1669 C1666 0.929 . S
S1670 N1671 1.613 . S
S1670 N1672 1.610 . S
N1671 S1670 1.613 . S
N1671 C1674 1.350 . S
N1672 S1670 1.610 . S
N1672 C1673 1.351 . S
C1673 C1667 1.428 . S
C1673 N1672 1.351 . S
C1673 C1674 1.434 . S
C1674 C1665 1.429 . S
C1674 N1671 1.350 . S
C1674 C1673 1.434 . S
C1675 C1676 1.369 . S
C1675 C1677 1.419 . S
C1675 H1679 0.930 . S
C1676 C1675 1.369 . S
C1676 C1685 1.429 . S
C1677 C1675 1.419 . S
C1677 C1678 1.363 . S
C1677 H1680 0.929 . S
C1678 C1677 1.363 . S
C1678 C1684 1.428 . S
H1679 C1675 0.930 . S
H1680 C1677 0.929 . S
S1681 N1682 1.613 . S
S1681 N1683 1.610 . S
N1682 S1681 1.613 . S
N1682 C1685 1.350 . S
N1683 S1681 1.610 . S
N1683 C1684 1.351 . S
C1684 C1678 1.428 . S
C1684 N1683 1.351 . S
C1684 C1685 1.434 . S
C1685 C1676 1.429 . S
C1685 N1682 1.350 . S
C1685 C1684 1.434 . S
C1686 C1687 1.369 . S
C1686 C1688 1.419 . S
C1686 H1690 0.930 . S
C1687 C1686 1.369 . S
C1687 C1696 1.429 . S
C1688 C1686 1.419 . S
C1688 C1689 1.363 . S
C1688 H1691 0.929 . S
C1689 C1688 1.363 . S
C1689 C1695 1.428 . S
H1690 C1686 0.930 . S
H1691 C1688 0.929 . S
S1692 N1693 1.613 . S
S1692 N1694 1.610 . S
N1693 S1692 1.613 . S
N1693 C1696 1.350 . S
N1694 S1692 1.610 . S
N1694 C1695 1.351 . S
C1695 C1689 1.428 . S
C1695 N1694 1.351 . S
C1695 C1696 1.434 . S
C1696 C1687 1.429 . S
C1696 N1693 1.350 . S
C1696 C1695 1.434 . S
C1697 C1698 1.369 . S
C1697 C1699 1.419 . S
C1697 H1701 0.930 . S
C1698 C1697 1.369 . S
C1698 C1707 1.429 . S
C1699 C1697 1.419 . S
C1699 C1700 1.363 . S
C1699 H1702 0.929 . S
C1700 C1699 1.363 . S
C1700 C1706 1.428 . S
H1701 C1697 0.930 . S
H1702 C1699 0.929 . S
S1703 N1704 1.613 . S
S1703 N1705 1.610 . S
N1704 S1703 1.613 . S
N1704 C1707 1.350 . S
N1705 S1703 1.610 . S
N1705 C1706 1.351 . S
C1706 C1700 1.428 . S
C1706 N1705 1.351 . S
C1706 C1707 1.434 . S
C1707 C1698 1.429 . S
C1707 N1704 1.350 . S
C1707 C1706 1.434 . S
C1708 C1709 1.369 1_556 S
C1708 C1710 1.419 . S
C1708 H1712 0.930 . S
C1709 C1708 1.369 1_554 S
C1709 C1718 1.429 . S
C1710 C1708 1.419 . S
C1710 C1711 1.363 1_556 S
C1710 H1713 0.929 . S
C1711 C1710 1.363 1_554 S
C1711 C1717 1.428 . S
H1712 C1708 0.930 . S
H1713 C1710 0.929 . S
S1714 N1715 1.613 . S
S1714 N1716 1.610 . S
N1715 S1714 1.613 . S
N1715 C1718 1.350 . S
N1716 S1714 1.610 . S
N1716 C1717 1.351 . S
C1717 C1711 1.428 . S
C1717 N1716 1.351 . S
C1717 C1718 1.434 . S
C1718 C1709 1.429 . S
C1718 N1715 1.350 . S
C1718 C1717 1.434 . S
C1719 C1720 1.369 . S
C1719 C1721 1.419 . S
C1719 H1723 0.930 . S
C1720 C1719 1.369 . S
C1720 C1729 1.429 1_556 S
C1721 C1719 1.419 . S
C1721 C1722 1.363 1_556 S
C1721 H1724 0.929 . S
C1722 C1721 1.363 1_554 S
C1722 C1728 1.428 . S
H1723 C1719 0.930 . S
H1724 C1721 0.929 . S
S1725 N1726 1.613 . S
S1725 N1727 1.610 . S
N1726 S1725 1.613 . S
N1726 C1729 1.350 . S
N1727 S1725 1.610 . S
N1727 C1728 1.351 . S
C1728 C1722 1.428 . S
C1728 N1727 1.351 . S
C1728 C1729 1.434 . S
C1729 C1720 1.429 1_554 S
C1729 N1726 1.350 . S
C1729 C1728 1.434 . S
C1730 C1731 1.369 . S
C1730 C1732 1.419 . S
C1730 H1734 0.930 . S
C1731 C1730 1.369 . S
C1731 C1740 1.429 . S
C1732 C1730 1.419 . S
C1732 C1733 1.363 . S
C1732 H1735 0.929 . S
C1733 C1732 1.363 . S
C1733 C1739 1.428 . S
H1734 C1730 0.930 . S
H1735 C1732 0.929 . S
S1736 N1737 1.613 . S
S1736 N1738 1.610 . S
N1737 S1736 1.613 . S
N1737 C1740 1.350 . S
N1738 S1736 1.610 . S
N1738 C1739 1.351 . S
C1739 C1733 1.428 . S
C1739 N1738 1.351 . S
C1739 C1740 1.434 . S
C1740 C1731 1.429 . S
C1740 N1737 1.350 . S
C1740 C1739 1.434 . S
C1741 C1742 1.369 . S
C1741 C1743 1.419 . S
C1741 H1745 0.930 . S
C1742 C1741 1.369 . S
C1742 C1751 1.429 . S
C1743 C1741 1.419 . S
C1743 C1744 1.363 . S
C1743 H1746 0.929 . S
C1744 C1743 1.363 . S
C1744 C1750 1.428 . S
H1745 C1741 0.930 . S
H1746 C1743 0.929 . S
S1747 N1748 1.613 . S
S1747 N1749 1.610 . S
N1748 S1747 1.613 . S
N1748 C1751 1.350 . S
N1749 S1747 1.610 . S
N1749 C1750 1.351 . S
C1750 C1744 1.428 . S
C1750 N1749 1.351 . S
C1750 C1751 1.434 . S
C1751 C1742 1.429 . S
C1751 N1748 1.350 . S
C1751 C1750 1.434 . S
C961 C23 0.332 . S
C963 C745 0.532 . S
C972 C780 2.924 . S
C974 C63 2.719 . S
C983 C103 2.105 . S
C985 C660 2.206 . S
C994 C143 2.198 . S
C996 C700 2.389 . S
C1005 C900 3.128 . S
C1007 C183 2.974 . S
C1016 C223 0.834 . S
C1018 C865 0.822 . S
C1027 C945 1.050 . S
C1029 C242 1.063 . S
C1038 C303 2.177 . S
C1040 C820 2.432 . S
C1049 C343 1.790 . S
C1051 C540 1.966 . S
C1060 C362 2.328 . S
C1062 C620 2.334 . S
C1071 C580 1.491 . S
C1073 C423 1.380 . S
C1082 C442 2.655 . S
C1084 C500 2.617 . S
C1093 C482 0.334 . S
C1095 C244 0.539 . S
C1104 C522 2.725 . S
C1106 C311 2.924 . S
C1115 C562 2.106 . S
C1117 C191 2.206 . S
C1126 C231 2.385 . S
C1128 C602 2.204 . S
C1137 C642 2.978 . S
C1139 C431 3.123 . S
C1148 C364 0.828 . S
C1150 C682 0.840 . S
C1159 C444 1.049 . S
C1161 C743 1.065 . S
C1170 C351 2.432 . S
C1172 C762 2.174 . S
C1181 C71 1.965 . S
C1183 C802 1.789 . S
C1192 C151 2.334 . S
C1194 C863 2.329 . S
C1203 C111 1.488 . S
C1205 C882 1.369 . S
C1214 C943 2.657 . S
C1216 C31 2.613 . S
C1225 C180 1.045 . S
C1227 C4 1.042 . S
C1236 C220 1.912 . S
C1238 C44 1.902 . S
C1247 C265 0.885 . S
C1249 C84 0.902 . S
C1258 C300 1.837 . S
C1260 C124 1.839 . S
C1269 C164 1.463 . S
C1271 C340 1.438 . S
C1280 C204 0.626 . S
C1282 C465 0.571 . S
C1291 C271 1.222 . S
C1293 C385 1.217 . S
C1302 C284 1.929 . S
C1304 C420 1.925 . S
C1313 C324 1.686 . S
C1315 C20 1.736 . S
C1324 C391 3.063 . S
C1326 C100 3.116 . S
C1335 C404 1.563 . S
C1337 C140 1.574 . S
C1346 C60 2.564 . S
C1348 C471 2.520 . S
C1357 C671 1.040 . S
C1359 C505 1.045 . S
C1368 C711 1.921 . S
C1370 C545 1.896 . S
C1379 C585 0.912 . S
C1381 C724 0.874 . S
C1390 C625 1.841 . S
C1392 C791 1.835 . S
C1401 C831 1.445 . S
C1403 C665 1.457 . S
C1412 C705 0.621 . S
C1414 C924 0.572 . S
C1423 C844 1.212 . S
C1425 C740 1.224 . S
C1434 C785 1.928 . S
C1436 C911 1.926 . S
C1445 C511 1.740 . S
C1447 C825 1.684 . S
C1456 C860 3.060 . S
C1458 C591 3.116 . S
C1467 C905 1.565 . S
C1469 C631 1.573 . S
C1478 C551 2.565 . S
C1480 C940 2.522 . S
C1489 C2 3.369 . S
C1491 C380 3.445 1_554 S
C1500 C425 1.746 . S
C1502 C42 1.756 . S
C1511 C345 1.967 . S
C1513 C82 1.969 . S
C1522 C460 2.948 . S
C1524 C122 2.887 . S
C1533 C162 1.463 . S
C1535 C145 1.483 . S
C1544 C105 1.824 . S
C1546 C202 1.810 . S
C1555 C263 1.278 . S
C1557 C65 1.464 . S
C1566 C25 1.207 . S
C1568 C282 1.197 . S
C1577 C322 1.506 1_556 S
C1579 C225 1.576 . S
C1588 C383 1.687 . S
C1590 C305 1.850 . S
C1599 C402 2.482 . S
C1601 C260 2.553 . S
C1610 C463 1.909 . S
C1612 C185 2.075 . S
C1621 C503 3.370 . S
C1623 C871 3.445 1_556 S
C1632 C543 1.753 . S
C1634 C884 1.751 . S
C1643 C804 1.967 . S
C1645 C583 1.969 . S
C1654 C951 2.948 . S
C1656 C623 2.887 . S
C1665 C663 1.462 . S
C1667 C604 1.484 . S
C1676 C703 1.812 . S
C1678 C564 1.822 . S
C1687 C524 1.451 . S
C1689 C722 1.289 . S
C1698 C783 1.200 . S
C1700 C484 1.204 . S
C1709 C823 1.520 1_554 S
C1711 C684 1.566 . S
C1720 C764 1.851 . S
C1722 C842 1.686 . S
C1731 C903 2.484 . S
C1733 C751 2.552 . S
C1742 C922 1.900 . S
C1744 C644 2.078 . S
