# Generated by pormake.
# Topology hal, (4)-cn, num edge types: 1
# Building blocks:
#     Node 0, Type 0, BuildingBlock: CEKHIL_clean_sbu_0, # of connection points: 4
#     Node 1, Type 0, BuildingBlock: CEKHIL_clean_sbu_0, # of connection points: 4
#     Node 2, Type 0, BuildingBlock: CEKHIL_clean_sbu_0, # of connection points: 4
#     Node 3, Type 0, BuildingBlock: CEKHIL_clean_sbu_0, # of connection points: 4
#     Node 4, Type 0, BuildingBlock: CEKHIL_clean_sbu_0, # of connection points: 4
#     Node 5, Type 0, BuildingBlock: CEKHIL_clean_sbu_0, # of connection points: 4
#     Node 6, Type 0, BuildingBlock: CEKHIL_clean_sbu_0, # of connection points: 4
#     Node 7, Type 0, BuildingBlock: CEKHIL_clean_sbu_0, # of connection points: 4
#     Node 8, Type 0, BuildingBlock: CEKHIL_clean_sbu_0, # of connection points: 4
#     Node 9, Type 0, BuildingBlock: CEKHIL_clean_sbu_0, # of connection points: 4
#     Node 10, Type 0, BuildingBlock: CEKHIL_clean_sbu_0, # of connection points: 4
#     Node 11, Type 0, BuildingBlock: CEKHIL_clean_sbu_0, # of connection points: 4
#     Node 12, Type 0, BuildingBlock: CEKHIL_clean_sbu_0, # of connection points: 4
#     Node 13, Type 0, BuildingBlock: CEKHIL_clean_sbu_0, # of connection points: 4
#     Node 14, Type 0, BuildingBlock: CEKHIL_clean_sbu_0, # of connection points: 4
#     Node 15, Type 0, BuildingBlock: CEKHIL_clean_sbu_0, # of connection points: 4
#     Node 16, Type 0, BuildingBlock: CEKHIL_clean_sbu_0, # of connection points: 4
#     Node 17, Type 0, BuildingBlock: CEKHIL_clean_sbu_0, # of connection points: 4
#     Node 18, Type 0, BuildingBlock: CEKHIL_clean_sbu_0, # of connection points: 4
#     Node 19, Type 0, BuildingBlock: CEKHIL_clean_sbu_0, # of connection points: 4
#     Node 20, Type 0, BuildingBlock: CEKHIL_clean_sbu_0, # of connection points: 4
#     Node 21, Type 0, BuildingBlock: CEKHIL_clean_sbu_0, # of connection points: 4
#     Node 22, Type 0, BuildingBlock: CEKHIL_clean_sbu_0, # of connection points: 4
#     Node 23, Type 0, BuildingBlock: CEKHIL_clean_sbu_0, # of connection points: 4
#     Node 24, Type 0, BuildingBlock: CEKHIL_clean_sbu_0, # of connection points: 4
#     Node 25, Type 0, BuildingBlock: CEKHIL_clean_sbu_0, # of connection points: 4
#     Node 26, Type 0, BuildingBlock: CEKHIL_clean_sbu_0, # of connection points: 4
#     Node 27, Type 0, BuildingBlock: CEKHIL_clean_sbu_0, # of connection points: 4
#     Node 28, Type 0, BuildingBlock: CEKHIL_clean_sbu_0, # of connection points: 4
#     Node 29, Type 0, BuildingBlock: CEKHIL_clean_sbu_0, # of connection points: 4
#     Node 30, Type 0, BuildingBlock: CEKHIL_clean_sbu_0, # of connection points: 4
#     Node 31, Type 0, BuildingBlock: CEKHIL_clean_sbu_0, # of connection points: 4
#     Node 32, Type 0, BuildingBlock: CEKHIL_clean_sbu_0, # of connection points: 4
#     Node 33, Type 0, BuildingBlock: CEKHIL_clean_sbu_0, # of connection points: 4
#     Node 34, Type 0, BuildingBlock: CEKHIL_clean_sbu_0, # of connection points: 4
#     Node 35, Type 0, BuildingBlock: CEKHIL_clean_sbu_0, # of connection points: 4
#     Node 36, Type 0, BuildingBlock: CEKHIL_clean_sbu_0, # of connection points: 4
#     Node 37, Type 0, BuildingBlock: CEKHIL_clean_sbu_0, # of connection points: 4
#     Node 38, Type 0, BuildingBlock: CEKHIL_clean_sbu_0, # of connection points: 4
#     Node 39, Type 0, BuildingBlock: CEKHIL_clean_sbu_0, # of connection points: 4
#     Node 40, Type 0, BuildingBlock: CEKHIL_clean_sbu_0, # of connection points: 4
#     Node 41, Type 0, BuildingBlock: CEKHIL_clean_sbu_0, # of connection points: 4
#     Node 42, Type 0, BuildingBlock: CEKHIL_clean_sbu_0, # of connection points: 4
#     Node 43, Type 0, BuildingBlock: CEKHIL_clean_sbu_0, # of connection points: 4
#     Node 44, Type 0, BuildingBlock: CEKHIL_clean_sbu_0, # of connection points: 4
#     Node 45, Type 0, BuildingBlock: CEKHIL_clean_sbu_0, # of connection points: 4
#     Node 46, Type 0, BuildingBlock: CEKHIL_clean_sbu_0, # of connection points: 4
#     Node 47, Type 0, BuildingBlock: CEKHIL_clean_sbu_0, # of connection points: 4
#     Node 48, Type 0, BuildingBlock: CEKHIL_clean_sbu_0, # of connection points: 4
#     Node 49, Type 0, BuildingBlock: CEKHIL_clean_sbu_0, # of connection points: 4
#     Node 50, Type 0, BuildingBlock: CEKHIL_clean_sbu_0, # of connection points: 4
#     Node 51, Type 0, BuildingBlock: CEKHIL_clean_sbu_0, # of connection points: 4
#     Node 52, Type 0, BuildingBlock: CEKHIL_clean_sbu_0, # of connection points: 4
#     Node 53, Type 0, BuildingBlock: CEKHIL_clean_sbu_0, # of connection points: 4
#     Node 54, Type 0, BuildingBlock: CEKHIL_clean_sbu_0, # of connection points: 4
#     Node 55, Type 0, BuildingBlock: CEKHIL_clean_sbu_0, # of connection points: 4
#     Node 56, Type 0, BuildingBlock: CEKHIL_clean_sbu_0, # of connection points: 4
#     Node 57, Type 0, BuildingBlock: CEKHIL_clean_sbu_0, # of connection points: 4
#     Node 58, Type 0, BuildingBlock: CEKHIL_clean_sbu_0, # of connection points: 4
#     Node 59, Type 0, BuildingBlock: CEKHIL_clean_sbu_0, # of connection points: 4
#     Node 60, Type 0, BuildingBlock: CEKHIL_clean_sbu_0, # of connection points: 4
#     Node 61, Type 0, BuildingBlock: CEKHIL_clean_sbu_0, # of connection points: 4
#     Node 62, Type 0, BuildingBlock: CEKHIL_clean_sbu_0, # of connection points: 4
#     Node 63, Type 0, BuildingBlock: CEKHIL_clean_sbu_0, # of connection points: 4
#     Node 64, Type 0, BuildingBlock: CEKHIL_clean_sbu_0, # of connection points: 4
#     Node 65, Type 0, BuildingBlock: CEKHIL_clean_sbu_0, # of connection points: 4
#     Node 66, Type 0, BuildingBlock: CEKHIL_clean_sbu_0, # of connection points: 4
#     Node 67, Type 0, BuildingBlock: CEKHIL_clean_sbu_0, # of connection points: 4
#     Node 68, Type 0, BuildingBlock: CEKHIL_clean_sbu_0, # of connection points: 4
#     Node 69, Type 0, BuildingBlock: CEKHIL_clean_sbu_0, # of connection points: 4
#     Node 70, Type 0, BuildingBlock: CEKHIL_clean_sbu_0, # of connection points: 4
#     Node 71, Type 0, BuildingBlock: CEKHIL_clean_sbu_0, # of connection points: 4
#     Node 72, Type 0, BuildingBlock: CEKHIL_clean_sbu_0, # of connection points: 4
#     Node 73, Type 0, BuildingBlock: CEKHIL_clean_sbu_0, # of connection points: 4
#     Node 74, Type 0, BuildingBlock: CEKHIL_clean_sbu_0, # of connection points: 4
#     Node 75, Type 0, BuildingBlock: CEKHIL_clean_sbu_0, # of connection points: 4
#     Node 76, Type 0, BuildingBlock: CEKHIL_clean_sbu_0, # of connection points: 4
#     Node 77, Type 0, BuildingBlock: CEKHIL_clean_sbu_0, # of connection points: 4
#     Node 78, Type 0, BuildingBlock: CEKHIL_clean_sbu_0, # of connection points: 4
#     Node 79, Type 0, BuildingBlock: CEKHIL_clean_sbu_0, # of connection points: 4
#     Node 80, Type 0, BuildingBlock: CEKHIL_clean_sbu_0, # of connection points: 4
#     Node 81, Type 0, BuildingBlock: CEKHIL_clean_sbu_0, # of connection points: 4
#     Node 82, Type 0, BuildingBlock: CEKHIL_clean_sbu_0, # of connection points: 4
#     Node 83, Type 0, BuildingBlock: CEKHIL_clean_sbu_0, # of connection points: 4
#     Node 84, Type 0, BuildingBlock: CEKHIL_clean_sbu_0, # of connection points: 4
#     Node 85, Type 0, BuildingBlock: CEKHIL_clean_sbu_0, # of connection points: 4
#     Node 86, Type 0, BuildingBlock: CEKHIL_clean_sbu_0, # of connection points: 4
#     Node 87, Type 0, BuildingBlock: CEKHIL_clean_sbu_0, # of connection points: 4
#     Node 88, Type 0, BuildingBlock: CEKHIL_clean_sbu_0, # of connection points: 4
#     Node 89, Type 0, BuildingBlock: CEKHIL_clean_sbu_0, # of connection points: 4
#     Node 90, Type 0, BuildingBlock: CEKHIL_clean_sbu_0, # of connection points: 4
#     Node 91, Type 0, BuildingBlock: CEKHIL_clean_sbu_0, # of connection points: 4
#     Node 92, Type 0, BuildingBlock: CEKHIL_clean_sbu_0, # of connection points: 4
#     Node 93, Type 0, BuildingBlock: CEKHIL_clean_sbu_0, # of connection points: 4
#     Node 94, Type 0, BuildingBlock: CEKHIL_clean_sbu_0, # of connection points: 4
#     Node 95, Type 0, BuildingBlock: CEKHIL_clean_sbu_0, # of connection points: 4
#     Edge 96, Type (0, 0), BuildingBlock: OJICUG_clean_linker_0, # of connection points: 2
#     Edge 97, Type (0, 0), BuildingBlock: OJICUG_clean_linker_0, # of connection points: 2
#     Edge 98, Type (0, 0), BuildingBlock: OJICUG_clean_linker_0, # of connection points: 2
#     Edge 99, Type (0, 0), BuildingBlock: OJICUG_clean_linker_0, # of connection points: 2
#     Edge 100, Type (0, 0), BuildingBlock: OJICUG_clean_linker_0, # of connection points: 2
#     Edge 101, Type (0, 0), BuildingBlock: OJICUG_clean_linker_0, # of connection points: 2
#     Edge 102, Type (0, 0), BuildingBlock: OJICUG_clean_linker_0, # of connection points: 2
#     Edge 103, Type (0, 0), BuildingBlock: OJICUG_clean_linker_0, # of connection points: 2
#     Edge 104, Type (0, 0), BuildingBlock: OJICUG_clean_linker_0, # of connection points: 2
#     Edge 105, Type (0, 0), BuildingBlock: OJICUG_clean_linker_0, # of connection points: 2
#     Edge 106, Type (0, 0), BuildingBlock: OJICUG_clean_linker_0, # of connection points: 2
#     Edge 107, Type (0, 0), BuildingBlock: OJICUG_clean_linker_0, # of connection points: 2
#     Edge 108, Type (0, 0), BuildingBlock: OJICUG_clean_linker_0, # of connection points: 2
#     Edge 109, Type (0, 0), BuildingBlock: OJICUG_clean_linker_0, # of connection points: 2
#     Edge 110, Type (0, 0), BuildingBlock: OJICUG_clean_linker_0, # of connection points: 2
#     Edge 111, Type (0, 0), BuildingBlock: OJICUG_clean_linker_0, # of connection points: 2
#     Edge 112, Type (0, 0), BuildingBlock: OJICUG_clean_linker_0, # of connection points: 2
#     Edge 113, Type (0, 0), BuildingBlock: OJICUG_clean_linker_0, # of connection points: 2
#     Edge 114, Type (0, 0), BuildingBlock: OJICUG_clean_linker_0, # of connection points: 2
#     Edge 115, Type (0, 0), BuildingBlock: OJICUG_clean_linker_0, # of connection points: 2
#     Edge 116, Type (0, 0), BuildingBlock: OJICUG_clean_linker_0, # of connection points: 2
#     Edge 117, Type (0, 0), BuildingBlock: OJICUG_clean_linker_0, # of connection points: 2
#     Edge 118, Type (0, 0), BuildingBlock: OJICUG_clean_linker_0, # of connection points: 2
#     Edge 119, Type (0, 0), BuildingBlock: OJICUG_clean_linker_0, # of connection points: 2
#     Edge 120, Type (0, 0), BuildingBlock: OJICUG_clean_linker_0, # of connection points: 2
#     Edge 121, Type (0, 0), BuildingBlock: OJICUG_clean_linker_0, # of connection points: 2
#     Edge 122, Type (0, 0), BuildingBlock: OJICUG_clean_linker_0, # of connection points: 2
#     Edge 123, Type (0, 0), BuildingBlock: OJICUG_clean_linker_0, # of connection points: 2
#     Edge 124, Type (0, 0), BuildingBlock: OJICUG_clean_linker_0, # of connection points: 2
#     Edge 125, Type (0, 0), BuildingBlock: OJICUG_clean_linker_0, # of connection points: 2
#     Edge 126, Type (0, 0), BuildingBlock: OJICUG_clean_linker_0, # of connection points: 2
#     Edge 127, Type (0, 0), BuildingBlock: OJICUG_clean_linker_0, # of connection points: 2
#     Edge 128, Type (0, 0), BuildingBlock: OJICUG_clean_linker_0, # of connection points: 2
#     Edge 129, Type (0, 0), BuildingBlock: OJICUG_clean_linker_0, # of connection points: 2
#     Edge 130, Type (0, 0), BuildingBlock: OJICUG_clean_linker_0, # of connection points: 2
#     Edge 131, Type (0, 0), BuildingBlock: OJICUG_clean_linker_0, # of connection points: 2
#     Edge 132, Type (0, 0), BuildingBlock: OJICUG_clean_linker_0, # of connection points: 2
#     Edge 133, Type (0, 0), BuildingBlock: OJICUG_clean_linker_0, # of connection points: 2
#     Edge 134, Type (0, 0), BuildingBlock: OJICUG_clean_linker_0, # of connection points: 2
#     Edge 135, Type (0, 0), BuildingBlock: OJICUG_clean_linker_0, # of connection points: 2
#     Edge 136, Type (0, 0), BuildingBlock: OJICUG_clean_linker_0, # of connection points: 2
#     Edge 137, Type (0, 0), BuildingBlock: OJICUG_clean_linker_0, # of connection points: 2
#     Edge 138, Type (0, 0), BuildingBlock: OJICUG_clean_linker_0, # of connection points: 2
#     Edge 139, Type (0, 0), BuildingBlock: OJICUG_clean_linker_0, # of connection points: 2
#     Edge 140, Type (0, 0), BuildingBlock: OJICUG_clean_linker_0, # of connection points: 2
#     Edge 141, Type (0, 0), BuildingBlock: OJICUG_clean_linker_0, # of connection points: 2
#     Edge 142, Type (0, 0), BuildingBlock: OJICUG_clean_linker_0, # of connection points: 2
#     Edge 143, Type (0, 0), BuildingBlock: OJICUG_clean_linker_0, # of connection points: 2
#     Edge 144, Type (0, 0), BuildingBlock: OJICUG_clean_linker_0, # of connection points: 2
#     Edge 145, Type (0, 0), BuildingBlock: OJICUG_clean_linker_0, # of connection points: 2
#     Edge 146, Type (0, 0), BuildingBlock: OJICUG_clean_linker_0, # of connection points: 2
#     Edge 147, Type (0, 0), BuildingBlock: OJICUG_clean_linker_0, # of connection points: 2
#     Edge 148, Type (0, 0), BuildingBlock: OJICUG_clean_linker_0, # of connection points: 2
#     Edge 149, Type (0, 0), BuildingBlock: OJICUG_clean_linker_0, # of connection points: 2
#     Edge 150, Type (0, 0), BuildingBlock: OJICUG_clean_linker_0, # of connection points: 2
#     Edge 151, Type (0, 0), BuildingBlock: OJICUG_clean_linker_0, # of connection points: 2
#     Edge 152, Type (0, 0), BuildingBlock: OJICUG_clean_linker_0, # of connection points: 2
#     Edge 153, Type (0, 0), BuildingBlock: OJICUG_clean_linker_0, # of connection points: 2
#     Edge 154, Type (0, 0), BuildingBlock: OJICUG_clean_linker_0, # of connection points: 2
#     Edge 155, Type (0, 0), BuildingBlock: OJICUG_clean_linker_0, # of connection points: 2
#     Edge 156, Type (0, 0), BuildingBlock: OJICUG_clean_linker_0, # of connection points: 2
#     Edge 157, Type (0, 0), BuildingBlock: OJICUG_clean_linker_0, # of connection points: 2
#     Edge 158, Type (0, 0), BuildingBlock: OJICUG_clean_linker_0, # of connection points: 2
#     Edge 159, Type (0, 0), BuildingBlock: OJICUG_clean_linker_0, # of connection points: 2
#     Edge 160, Type (0, 0), BuildingBlock: OJICUG_clean_linker_0, # of connection points: 2
#     Edge 161, Type (0, 0), BuildingBlock: OJICUG_clean_linker_0, # of connection points: 2
#     Edge 162, Type (0, 0), BuildingBlock: OJICUG_clean_linker_0, # of connection points: 2
#     Edge 163, Type (0, 0), BuildingBlock: OJICUG_clean_linker_0, # of connection points: 2
#     Edge 164, Type (0, 0), BuildingBlock: OJICUG_clean_linker_0, # of connection points: 2
#     Edge 165, Type (0, 0), BuildingBlock: OJICUG_clean_linker_0, # of connection points: 2
#     Edge 166, Type (0, 0), BuildingBlock: OJICUG_clean_linker_0, # of connection points: 2
#     Edge 167, Type (0, 0), BuildingBlock: OJICUG_clean_linker_0, # of connection points: 2
#     Edge 168, Type (0, 0), BuildingBlock: OJICUG_clean_linker_0, # of connection points: 2
#     Edge 169, Type (0, 0), BuildingBlock: OJICUG_clean_linker_0, # of connection points: 2
#     Edge 170, Type (0, 0), BuildingBlock: OJICUG_clean_linker_0, # of connection points: 2
#     Edge 171, Type (0, 0), BuildingBlock: OJICUG_clean_linker_0, # of connection points: 2
#     Edge 172, Type (0, 0), BuildingBlock: OJICUG_clean_linker_0, # of connection points: 2
#     Edge 173, Type (0, 0), BuildingBlock: OJICUG_clean_linker_0, # of connection points: 2
#     Edge 174, Type (0, 0), BuildingBlock: OJICUG_clean_linker_0, # of connection points: 2
#     Edge 175, Type (0, 0), BuildingBlock: OJICUG_clean_linker_0, # of connection points: 2
#     Edge 176, Type (0, 0), BuildingBlock: OJICUG_clean_linker_0, # of connection points: 2
#     Edge 177, Type (0, 0), BuildingBlock: OJICUG_clean_linker_0, # of connection points: 2
#     Edge 178, Type (0, 0), BuildingBlock: OJICUG_clean_linker_0, # of connection points: 2
#     Edge 179, Type (0, 0), BuildingBlock: OJICUG_clean_linker_0, # of connection points: 2
#     Edge 180, Type (0, 0), BuildingBlock: OJICUG_clean_linker_0, # of connection points: 2
#     Edge 181, Type (0, 0), BuildingBlock: OJICUG_clean_linker_0, # of connection points: 2
#     Edge 182, Type (0, 0), BuildingBlock: OJICUG_clean_linker_0, # of connection points: 2
#     Edge 183, Type (0, 0), BuildingBlock: OJICUG_clean_linker_0, # of connection points: 2
#     Edge 184, Type (0, 0), BuildingBlock: OJICUG_clean_linker_0, # of connection points: 2
#     Edge 185, Type (0, 0), BuildingBlock: OJICUG_clean_linker_0, # of connection points: 2
#     Edge 186, Type (0, 0), BuildingBlock: OJICUG_clean_linker_0, # of connection points: 2
#     Edge 187, Type (0, 0), BuildingBlock: OJICUG_clean_linker_0, # of connection points: 2
#     Edge 188, Type (0, 0), BuildingBlock: OJICUG_clean_linker_0, # of connection points: 2
#     Edge 189, Type (0, 0), BuildingBlock: OJICUG_clean_linker_0, # of connection points: 2
#     Edge 190, Type (0, 0), BuildingBlock: OJICUG_clean_linker_0, # of connection points: 2
#     Edge 191, Type (0, 0), BuildingBlock: OJICUG_clean_linker_0, # of connection points: 2
#     Edge 192, Type (0, 0), BuildingBlock: OJICUG_clean_linker_0, # of connection points: 2
#     Edge 193, Type (0, 0), BuildingBlock: OJICUG_clean_linker_0, # of connection points: 2
#     Edge 194, Type (0, 0), BuildingBlock: OJICUG_clean_linker_0, # of connection points: 2
#     Edge 195, Type (0, 0), BuildingBlock: OJICUG_clean_linker_0, # of connection points: 2
#     Edge 196, Type (0, 0), BuildingBlock: OJICUG_clean_linker_0, # of connection points: 2
#     Edge 197, Type (0, 0), BuildingBlock: OJICUG_clean_linker_0, # of connection points: 2
#     Edge 198, Type (0, 0), BuildingBlock: OJICUG_clean_linker_0, # of connection points: 2
#     Edge 199, Type (0, 0), BuildingBlock: OJICUG_clean_linker_0, # of connection points: 2
#     Edge 200, Type (0, 0), BuildingBlock: OJICUG_clean_linker_0, # of connection points: 2
#     Edge 201, Type (0, 0), BuildingBlock: OJICUG_clean_linker_0, # of connection points: 2
#     Edge 202, Type (0, 0), BuildingBlock: OJICUG_clean_linker_0, # of connection points: 2
#     Edge 203, Type (0, 0), BuildingBlock: OJICUG_clean_linker_0, # of connection points: 2
#     Edge 204, Type (0, 0), BuildingBlock: OJICUG_clean_linker_0, # of connection points: 2
#     Edge 205, Type (0, 0), BuildingBlock: OJICUG_clean_linker_0, # of connection points: 2
#     Edge 206, Type (0, 0), BuildingBlock: OJICUG_clean_linker_0, # of connection points: 2
#     Edge 207, Type (0, 0), BuildingBlock: OJICUG_clean_linker_0, # of connection points: 2
#     Edge 208, Type (0, 0), BuildingBlock: OJICUG_clean_linker_0, # of connection points: 2
#     Edge 209, Type (0, 0), BuildingBlock: OJICUG_clean_linker_0, # of connection points: 2
#     Edge 210, Type (0, 0), BuildingBlock: OJICUG_clean_linker_0, # of connection points: 2
#     Edge 211, Type (0, 0), BuildingBlock: OJICUG_clean_linker_0, # of connection points: 2
#     Edge 212, Type (0, 0), BuildingBlock: OJICUG_clean_linker_0, # of connection points: 2
#     Edge 213, Type (0, 0), BuildingBlock: OJICUG_clean_linker_0, # of connection points: 2
#     Edge 214, Type (0, 0), BuildingBlock: OJICUG_clean_linker_0, # of connection points: 2
#     Edge 215, Type (0, 0), BuildingBlock: OJICUG_clean_linker_0, # of connection points: 2
#     Edge 216, Type (0, 0), BuildingBlock: OJICUG_clean_linker_0, # of connection points: 2
#     Edge 217, Type (0, 0), BuildingBlock: OJICUG_clean_linker_0, # of connection points: 2
#     Edge 218, Type (0, 0), BuildingBlock: OJICUG_clean_linker_0, # of connection points: 2
#     Edge 219, Type (0, 0), BuildingBlock: OJICUG_clean_linker_0, # of connection points: 2
#     Edge 220, Type (0, 0), BuildingBlock: OJICUG_clean_linker_0, # of connection points: 2
#     Edge 221, Type (0, 0), BuildingBlock: OJICUG_clean_linker_0, # of connection points: 2
#     Edge 222, Type (0, 0), BuildingBlock: OJICUG_clean_linker_0, # of connection points: 2
#     Edge 223, Type (0, 0), BuildingBlock: OJICUG_clean_linker_0, # of connection points: 2
#     Edge 224, Type (0, 0), BuildingBlock: OJICUG_clean_linker_0, # of connection points: 2
#     Edge 225, Type (0, 0), BuildingBlock: OJICUG_clean_linker_0, # of connection points: 2
#     Edge 226, Type (0, 0), BuildingBlock: OJICUG_clean_linker_0, # of connection points: 2
#     Edge 227, Type (0, 0), BuildingBlock: OJICUG_clean_linker_0, # of connection points: 2
#     Edge 228, Type (0, 0), BuildingBlock: OJICUG_clean_linker_0, # of connection points: 2
#     Edge 229, Type (0, 0), BuildingBlock: OJICUG_clean_linker_0, # of connection points: 2
#     Edge 230, Type (0, 0), BuildingBlock: OJICUG_clean_linker_0, # of connection points: 2
#     Edge 231, Type (0, 0), BuildingBlock: OJICUG_clean_linker_0, # of connection points: 2
#     Edge 232, Type (0, 0), BuildingBlock: OJICUG_clean_linker_0, # of connection points: 2
#     Edge 233, Type (0, 0), BuildingBlock: OJICUG_clean_linker_0, # of connection points: 2
#     Edge 234, Type (0, 0), BuildingBlock: OJICUG_clean_linker_0, # of connection points: 2
#     Edge 235, Type (0, 0), BuildingBlock: OJICUG_clean_linker_0, # of connection points: 2
#     Edge 236, Type (0, 0), BuildingBlock: OJICUG_clean_linker_0, # of connection points: 2
#     Edge 237, Type (0, 0), BuildingBlock: OJICUG_clean_linker_0, # of connection points: 2
#     Edge 238, Type (0, 0), BuildingBlock: OJICUG_clean_linker_0, # of connection points: 2
#     Edge 239, Type (0, 0), BuildingBlock: OJICUG_clean_linker_0, # of connection points: 2
#     Edge 240, Type (0, 0), BuildingBlock: OJICUG_clean_linker_0, # of connection points: 2
#     Edge 241, Type (0, 0), BuildingBlock: OJICUG_clean_linker_0, # of connection points: 2
#     Edge 242, Type (0, 0), BuildingBlock: OJICUG_clean_linker_0, # of connection points: 2
#     Edge 243, Type (0, 0), BuildingBlock: OJICUG_clean_linker_0, # of connection points: 2
#     Edge 244, Type (0, 0), BuildingBlock: OJICUG_clean_linker_0, # of connection points: 2
#     Edge 245, Type (0, 0), BuildingBlock: OJICUG_clean_linker_0, # of connection points: 2
#     Edge 246, Type (0, 0), BuildingBlock: OJICUG_clean_linker_0, # of connection points: 2
#     Edge 247, Type (0, 0), BuildingBlock: OJICUG_clean_linker_0, # of connection points: 2
#     Edge 248, Type (0, 0), BuildingBlock: OJICUG_clean_linker_0, # of connection points: 2
#     Edge 249, Type (0, 0), BuildingBlock: OJICUG_clean_linker_0, # of connection points: 2
#     Edge 250, Type (0, 0), BuildingBlock: OJICUG_clean_linker_0, # of connection points: 2
#     Edge 251, Type (0, 0), BuildingBlock: OJICUG_clean_linker_0, # of connection points: 2
#     Edge 252, Type (0, 0), BuildingBlock: OJICUG_clean_linker_0, # of connection points: 2
#     Edge 253, Type (0, 0), BuildingBlock: OJICUG_clean_linker_0, # of connection points: 2
#     Edge 254, Type (0, 0), BuildingBlock: OJICUG_clean_linker_0, # of connection points: 2
#     Edge 255, Type (0, 0), BuildingBlock: OJICUG_clean_linker_0, # of connection points: 2
#     Edge 256, Type (0, 0), BuildingBlock: OJICUG_clean_linker_0, # of connection points: 2
#     Edge 257, Type (0, 0), BuildingBlock: OJICUG_clean_linker_0, # of connection points: 2
#     Edge 258, Type (0, 0), BuildingBlock: OJICUG_clean_linker_0, # of connection points: 2
#     Edge 259, Type (0, 0), BuildingBlock: OJICUG_clean_linker_0, # of connection points: 2
#     Edge 260, Type (0, 0), BuildingBlock: OJICUG_clean_linker_0, # of connection points: 2
#     Edge 261, Type (0, 0), BuildingBlock: OJICUG_clean_linker_0, # of connection points: 2
#     Edge 262, Type (0, 0), BuildingBlock: OJICUG_clean_linker_0, # of connection points: 2
#     Edge 263, Type (0, 0), BuildingBlock: OJICUG_clean_linker_0, # of connection points: 2
#     Edge 264, Type (0, 0), BuildingBlock: OJICUG_clean_linker_0, # of connection points: 2
#     Edge 265, Type (0, 0), BuildingBlock: OJICUG_clean_linker_0, # of connection points: 2
#     Edge 266, Type (0, 0), BuildingBlock: OJICUG_clean_linker_0, # of connection points: 2
#     Edge 267, Type (0, 0), BuildingBlock: OJICUG_clean_linker_0, # of connection points: 2
#     Edge 268, Type (0, 0), BuildingBlock: OJICUG_clean_linker_0, # of connection points: 2
#     Edge 269, Type (0, 0), BuildingBlock: OJICUG_clean_linker_0, # of connection points: 2
#     Edge 270, Type (0, 0), BuildingBlock: OJICUG_clean_linker_0, # of connection points: 2
#     Edge 271, Type (0, 0), BuildingBlock: OJICUG_clean_linker_0, # of connection points: 2
#     Edge 272, Type (0, 0), BuildingBlock: OJICUG_clean_linker_0, # of connection points: 2
#     Edge 273, Type (0, 0), BuildingBlock: OJICUG_clean_linker_0, # of connection points: 2
#     Edge 274, Type (0, 0), BuildingBlock: OJICUG_clean_linker_0, # of connection points: 2
#     Edge 275, Type (0, 0), BuildingBlock: OJICUG_clean_linker_0, # of connection points: 2
#     Edge 276, Type (0, 0), BuildingBlock: OJICUG_clean_linker_0, # of connection points: 2
#     Edge 277, Type (0, 0), BuildingBlock: OJICUG_clean_linker_0, # of connection points: 2
#     Edge 278, Type (0, 0), BuildingBlock: OJICUG_clean_linker_0, # of connection points: 2
#     Edge 279, Type (0, 0), BuildingBlock: OJICUG_clean_linker_0, # of connection points: 2
#     Edge 280, Type (0, 0), BuildingBlock: OJICUG_clean_linker_0, # of connection points: 2
#     Edge 281, Type (0, 0), BuildingBlock: OJICUG_clean_linker_0, # of connection points: 2
#     Edge 282, Type (0, 0), BuildingBlock: OJICUG_clean_linker_0, # of connection points: 2
#     Edge 283, Type (0, 0), BuildingBlock: OJICUG_clean_linker_0, # of connection points: 2
#     Edge 284, Type (0, 0), BuildingBlock: OJICUG_clean_linker_0, # of connection points: 2
#     Edge 285, Type (0, 0), BuildingBlock: OJICUG_clean_linker_0, # of connection points: 2
#     Edge 286, Type (0, 0), BuildingBlock: OJICUG_clean_linker_0, # of connection points: 2
#     Edge 287, Type (0, 0), BuildingBlock: OJICUG_clean_linker_0, # of connection points: 2
# Relax obj value: 0.330
# Max RMSD: 0.266
# Mean RMSD: 0.266
data_MOF--net-hal--node1-CEKHIL_clean_sbu_0--edge1-OJICUG_clean_linker_0
_symmetry_space_group_name_H-M    P1
_symmetry_Int_Tables_number       1
_symmetry_cell_setting            triclinic
loop_
_symmetry_equiv_pos_as_xyz
'x, y, z'
_cell_length_a     65.383392
_cell_length_b     65.351995
_cell_length_c     65.372172
_cell_angle_alpha  89.993768
_cell_angle_beta   90.07804
_cell_angle_gamma 90.061331
loop_
_atom_site_label
_atom_site_type_symbol
_atom_site_fract_x
_atom_site_fract_y
_atom_site_fract_z
_atom_type_partial_charge
Co0 Co 0.06968 0.18778 0.30528 0.0
O1 O 0.04584 0.20474 0.30962 0.0
O2 O 0.04616 0.17495 0.2934 0.0
C3 C 0.08267 0.19058 0.33726 0.0
O4 O 0.08933 0.16466 0.29839 0.0
Co5 Co 0.11499 0.2002 0.31027 0.0
O6 O 0.11912 0.17024 0.31422 0.0
C7 C 0.09106 0.21439 0.27426 0.0
C8 C 0.0358 0.19055 0.29984 0.0
C9 C 0.10609 0.15817 0.30622 0.0
O10 O 0.0758 0.20282 0.279 0.0
O11 O 0.10724 0.21601 0.28521 0.0
O12 O 0.06812 0.17745 0.33348 0.0
O13 O 0.08788 0.20198 0.32211 0.0
Co14 Co 0.79722 0.07111 0.30704 0.0
O15 O 0.78145 0.04651 0.31167 0.0
O16 O 0.80992 0.0485 0.2934 0.0
C17 C 0.79641 0.08266 0.33965 0.0
O18 O 0.81908 0.09201 0.29942 0.0
Co19 Co 0.78329 0.11561 0.31491 0.0
O20 O 0.81325 0.12114 0.31638 0.0
C21 C 0.76712 0.09238 0.27927 0.0
C22 C 0.79525 0.03731 0.30067 0.0
C23 C 0.82527 0.10898 0.30712 0.0
O24 O 0.78 0.07771 0.28219 0.0
O25 O 0.76551 0.10783 0.29121 0.0
O26 O 0.8097 0.0688 0.33432 0.0
O27 O 0.78369 0.08796 0.32562 0.0
Co28 Co 0.91591 0.79864 0.31007 0.0
O29 O 0.94024 0.78245 0.31471 0.0
O30 O 0.93874 0.81114 0.29666 0.0
C31 C 0.90413 0.79763 0.34258 0.0
O32 O 0.89552 0.8209 0.30241 0.0
Co33 Co 0.87114 0.78544 0.31746 0.0
O34 O 0.86606 0.81548 0.3189 0.0
C35 C 0.89437 0.76906 0.28199 0.0
C36 C 0.94966 0.79621 0.30378 0.0
C37 C 0.87858 0.82735 0.30987 0.0
O38 O 0.90918 0.78176 0.28504 0.0
O39 O 0.87885 0.76758 0.29385 0.0
O40 O 0.91821 0.81081 0.3375 0.0
O41 O 0.89871 0.78517 0.32837 0.0
Co42 Co 0.18811 0.91559 0.30905 0.0
O43 O 0.20434 0.93998 0.3133 0.0
O44 O 0.17532 0.9383 0.29576 0.0
C45 C 0.18975 0.90394 0.34158 0.0
O46 O 0.16574 0.89513 0.30187 0.0
Co47 Co 0.20135 0.87083 0.31641 0.0
O48 O 0.17135 0.86576 0.31847 0.0
C49 C 0.21691 0.89388 0.28043 0.0
C50 C 0.19035 0.9493 0.30258 0.0
C51 C 0.15937 0.87825 0.30958 0.0
O52 O 0.20447 0.90881 0.28377 0.0
O53 O 0.21856 0.87833 0.29224 0.0
O54 O 0.17646 0.91797 0.33667 0.0
O55 O 0.20193 0.89847 0.32718 0.0
Co56 Co 0.07062 0.79758 0.67432 0.0
O57 O 0.04591 0.78203 0.6694 0.0
O58 O 0.04812 0.81023 0.68814 0.0
C59 C 0.08228 0.79721 0.64177 0.0
O60 O 0.09163 0.81919 0.68237 0.0
Co61 Co 0.11497 0.78328 0.66638 0.0
O62 O 0.1211 0.81316 0.66608 0.0
C63 C 0.09137 0.76662 0.70147 0.0
C64 C 0.03684 0.7957 0.68068 0.0
C65 C 0.10894 0.82518 0.67534 0.0
O66 O 0.07705 0.77994 0.69891 0.0
O67 O 0.1067 0.76489 0.68941 0.0
O68 O 0.06848 0.81051 0.64724 0.0
O69 O 0.08737 0.7842 0.65559 0.0
Co70 Co 0.18629 0.06986 0.67964 0.0
O71 O 0.20323 0.04601 0.67537 0.0
O72 O 0.17379 0.0465 0.69218 0.0
C73 C 0.18839 0.08216 0.64737 0.0
O74 O 0.1633 0.08964 0.68661 0.0
Co75 Co 0.1986 0.11508 0.67352 0.0
O76 O 0.16857 0.1191 0.67009 0.0
C77 C 0.2137 0.09182 0.7096 0.0
C78 C 0.18928 0.03607 0.68556 0.0
C79 C 0.15666 0.10625 0.67855 0.0
O80 O 0.20191 0.07653 0.70548 0.0
O81 O 0.21511 0.10775 0.69826 0.0
O82 O 0.17535 0.0677 0.65169 0.0
O83 O 0.20009 0.08771 0.66218 0.0
Co84 Co 0.91456 0.18885 0.67887 0.0
O85 O 0.93887 0.20508 0.67418 0.0
O86 O 0.93753 0.17601 0.69166 0.0
C87 C 0.90216 0.19051 0.64661 0.0
O88 O 0.89424 0.1665 0.6864 0.0
Co89 Co 0.8697 0.20217 0.67259 0.0
O90 O 0.86471 0.17216 0.67011 0.0
C91 C 0.89355 0.21751 0.70819 0.0
C92 C 0.94839 0.19107 0.68469 0.0
C93 C 0.87733 0.16012 0.67874 0.0
O94 O 0.90841 0.20514 0.70436 0.0
O95 O 0.87768 0.21917 0.6968 0.0
O96 O 0.91633 0.17725 0.65119 0.0
O97 O 0.89703 0.20271 0.66114 0.0
Co98 Co 0.79874 0.91634 0.67849 0.0
O99 O 0.78193 0.94035 0.67454 0.0
O100 O 0.81156 0.93946 0.69109 0.0
C101 C 0.79617 0.90426 0.64617 0.0
O102 O 0.82168 0.89639 0.68514 0.0
Co103 Co 0.78607 0.87125 0.67218 0.0
O104 O 0.81604 0.86686 0.66884 0.0
C105 C 0.77148 0.89441 0.70848 0.0
C106 C 0.79607 0.95006 0.68472 0.0
C107 C 0.82811 0.87965 0.67722 0.0
O108 O 0.78338 0.9096 0.70441 0.0
O109 O 0.76979 0.87859 0.69702 0.0
O110 O 0.80938 0.9186 0.65046 0.0
O111 O 0.78461 0.89871 0.66106 0.0
Co112 Co 0.30616 0.06942 0.18864 0.0
O113 O 0.31024 0.04527 0.20524 0.0
O114 O 0.29351 0.04637 0.17572 0.0
C115 C 0.33849 0.08149 0.19116 0.0
O116 O 0.29934 0.08952 0.1659 0.0
Co117 Co 0.31255 0.11443 0.2015 0.0
O118 O 0.31571 0.11902 0.17152 0.0
C119 C 0.2763 0.09117 0.21613 0.0
C120 C 0.30001 0.03565 0.19108 0.0
C121 C 0.30723 0.10628 0.15947 0.0
O122 O 0.28034 0.076 0.20418 0.0
O123 O 0.28775 0.10699 0.21781 0.0
O124 O 0.33415 0.0673 0.17782 0.0
O125 O 0.32365 0.08695 0.20279 0.0
Co126 Co 0.91494 0.31002 0.18807 0.0
O127 O 0.93954 0.31471 0.20383 0.0
O128 O 0.93743 0.29625 0.17544 0.0
C129 C 0.90345 0.34264 0.18871 0.0
O130 O 0.8941 0.30223 0.16623 0.0
Co131 Co 0.87047 0.31797 0.20184 0.0
O132 O 0.86491 0.3191 0.17186 0.0
C133 C 0.89367 0.2825 0.21832 0.0
C134 C 0.94865 0.30353 0.19009 0.0
C135 C 0.87713 0.30979 0.15994 0.0
O136 O 0.90829 0.28529 0.20538 0.0
O137 O 0.87826 0.29449 0.21988 0.0
O138 O 0.91729 0.33723 0.17543 0.0
O139 O 0.89813 0.32868 0.20148 0.0
Co140 Co 0.67799 0.91632 0.18793 0.0
O141 O 0.67323 0.94035 0.20453 0.0
O142 O 0.69039 0.93966 0.1753 0.0
C143 C 0.64583 0.90364 0.18976 0.0
O144 O 0.68541 0.89633 0.16523 0.0
Co145 Co 0.67214 0.87119 0.20077 0.0
O146 O 0.66945 0.86657 0.17075 0.0
C147 C 0.70788 0.895 0.2159 0.0
C148 C 0.68343 0.95023 0.19055 0.0
C149 C 0.67788 0.87939 0.15878 0.0
O150 O 0.70374 0.91011 0.20389 0.0
O151 O 0.69661 0.87903 0.21744 0.0
O152 O 0.65016 0.91802 0.17663 0.0
O153 O 0.66054 0.89845 0.20173 0.0
Co154 Co 0.06925 0.67906 0.1871 0.0
O155 O 0.04527 0.67484 0.20385 0.0
O156 O 0.04606 0.69174 0.17444 0.0
C157 C 0.08134 0.64671 0.18927 0.0
O158 O 0.08926 0.68599 0.16425 0.0
Co159 Co 0.1143 0.67268 0.19987 0.0
O160 O 0.11875 0.66962 0.16987 0.0
C161 C 0.09104 0.70873 0.21492 0.0
C162 C 0.03549 0.68513 0.18985 0.0
C163 C 0.10604 0.67814 0.15783 0.0
O164 O 0.07593 0.70483 0.20283 0.0
O165 O 0.10683 0.69724 0.21653 0.0
O166 O 0.06703 0.65113 0.1761 0.0
O167 O 0.08686 0.66148 0.20103 0.0
Co168 Co 0.31004 0.91681 0.7974 0.0
O169 O 0.31447 0.94128 0.78134 0.0
O170 O 0.29647 0.93948 0.81001 0.0
C171 C 0.34265 0.90531 0.79636 0.0
O172 O 0.30259 0.89621 0.81954 0.0
Co173 Co 0.31781 0.87216 0.78399 0.0
O174 O 0.31935 0.86692 0.81399 0.0
C175 C 0.28202 0.89512 0.76784 0.0
C176 C 0.3035 0.95055 0.79515 0.0
C177 C 0.31021 0.87928 0.8259 0.0
O178 O 0.28504 0.90996 0.78051 0.0
O179 O 0.29397 0.87968 0.7663 0.0
O180 O 0.33746 0.91928 0.8096 0.0
O181 O 0.32849 0.89984 0.78386 0.0
Co182 Co 0.07162 0.30659 0.79763 0.0
O183 O 0.04728 0.31125 0.78142 0.0
O184 O 0.04859 0.29401 0.81062 0.0
C185 C 0.08416 0.33879 0.79568 0.0
O186 O 0.09198 0.29917 0.82001 0.0
Co187 Co 0.11649 0.31259 0.78412 0.0
O188 O 0.12157 0.31527 0.81408 0.0
C189 C 0.09253 0.27685 0.76928 0.0
C190 C 0.03772 0.30091 0.79553 0.0
C191 C 0.10897 0.30678 0.82623 0.0
O192 O 0.07764 0.28091 0.78155 0.0
O193 O 0.10845 0.28814 0.76751 0.0
O194 O 0.07 0.33439 0.80899 0.0
O195 O 0.08919 0.32414 0.78359 0.0
Co196 Co 0.67711 0.0695 0.79819 0.0
O197 O 0.67288 0.04527 0.7817 0.0
O198 O 0.68997 0.04653 0.811 0.0
C199 C 0.64473 0.08151 0.79616 0.0
O200 O 0.68415 0.08972 0.82082 0.0
Co201 Co 0.67044 0.11444 0.78511 0.0
O202 O 0.66796 0.1193 0.8151 0.0
C203 C 0.70659 0.09128 0.77021 0.0
C204 C 0.68332 0.03573 0.79575 0.0
C205 C 0.67655 0.10665 0.82715 0.0
O206 O 0.70274 0.07617 0.78231 0.0
O207 O 0.69503 0.107 0.76852 0.0
O208 O 0.64929 0.06729 0.80939 0.0
O209 O 0.65937 0.08692 0.78423 0.0
Co210 Co 0.91558 0.68034 0.79807 0.0
O211 O 0.93938 0.67585 0.78115 0.0
O212 O 0.93905 0.69265 0.81063 0.0
C213 C 0.90296 0.64819 0.79584 0.0
O214 O 0.89586 0.68747 0.82107 0.0
Co215 Co 0.87034 0.6747 0.7857 0.0
O216 O 0.86626 0.67119 0.81572 0.0
C217 C 0.89409 0.71044 0.77053 0.0
C218 C 0.94941 0.68594 0.79513 0.0
C219 C 0.87919 0.67951 0.82768 0.0
O220 O 0.90923 0.70626 0.78248 0.0
O221 O 0.87807 0.69923 0.76905 0.0
O222 O 0.91743 0.65235 0.80893 0.0
O223 O 0.89757 0.66309 0.78419 0.0
Co224 Co 0.18698 0.30666 0.0699 0.0
O225 O 0.20424 0.31078 0.04623 0.0
O226 O 0.17411 0.29513 0.04631 0.0
C227 C 0.19029 0.3385 0.08307 0.0
O228 O 0.1636 0.30009 0.08928 0.0
Co229 Co 0.19908 0.3111 0.11534 0.0
O230 O 0.16916 0.31548 0.11928 0.0
C231 C 0.21253 0.27486 0.09141 0.0
C232 C 0.18995 0.30123 0.03609 0.0
C233 C 0.15709 0.30782 0.10606 0.0
O234 O 0.20136 0.28005 0.07602 0.0
O235 O 0.21423 0.28562 0.10771 0.0
O236 O 0.17724 0.33507 0.06837 0.0
O237 O 0.20135 0.32312 0.08831 0.0
Co238 Co 0.18818 0.67839 0.91392 0.0
O239 O 0.20392 0.67348 0.93852 0.0
O240 O 0.17512 0.69127 0.93678 0.0
C241 C 0.18956 0.6461 0.90154 0.0
O242 O 0.16626 0.6861 0.89311 0.0
Co243 Co 0.20253 0.67183 0.86933 0.0
O244 O 0.17266 0.6702 0.86348 0.0
C245 C 0.2175 0.70751 0.89329 0.0
C246 C 0.18988 0.68403 0.94789 0.0
C247 C 0.16039 0.67892 0.87579 0.0
O248 O 0.20488 0.70377 0.90798 0.0
O249 O 0.21943 0.696 0.87755 0.0
O250 O 0.17619 0.65085 0.91552 0.0
O251 O 0.20211 0.66044 0.89669 0.0
Co252 Co 0.30979 0.18794 0.91664 0.0
O253 O 0.31406 0.20396 0.94121 0.0
O254 O 0.29666 0.17488 0.93929 0.0
C255 C 0.34226 0.18979 0.90482 0.0
O256 O 0.3026 0.16571 0.89604 0.0
Co257 Co 0.31688 0.20157 0.87195 0.0
O258 O 0.319 0.17162 0.86663 0.0
C259 C 0.28074 0.21656 0.89507 0.0
C260 C 0.3034 0.18984 0.95042 0.0
C261 C 0.3102 0.15951 0.87907 0.0
O262 O 0.28437 0.20423 0.91006 0.0
O263 O 0.29242 0.21832 0.87945 0.0
O264 O 0.33749 0.17638 0.91879 0.0
O265 O 0.32778 0.20198 0.89953 0.0
Co266 Co 0.79905 0.30642 0.91581 0.0
O267 O 0.78227 0.31081 0.93975 0.0
O268 O 0.81162 0.29385 0.9391 0.0
C269 C 0.79704 0.33869 0.90344 0.0
O270 O 0.82192 0.29931 0.89593 0.0
Co271 Co 0.78652 0.31251 0.87065 0.0
O272 O 0.81655 0.31567 0.8664 0.0
C273 C 0.77131 0.27659 0.89409 0.0
C274 C 0.79623 0.30056 0.94962 0.0
C275 C 0.82849 0.3072 0.87922 0.0
O276 O 0.78327 0.28063 0.90926 0.0
O277 O 0.76983 0.28794 0.87817 0.0
O278 O 0.81012 0.33433 0.91785 0.0
O279 O 0.78524 0.32392 0.898 0.0
Co280 Co 0.67937 0.79758 0.91548 0.0
O281 O 0.67497 0.78129 0.93977 0.0
O282 O 0.69209 0.81059 0.93843 0.0
C283 C 0.64707 0.79542 0.90329 0.0
O284 O 0.68653 0.82001 0.89513 0.0
Co285 Co 0.673 0.78422 0.87062 0.0
O286 O 0.67004 0.81419 0.86574 0.0
C287 C 0.70896 0.76938 0.89423 0.0
C288 C 0.68531 0.79545 0.94929 0.0
C289 C 0.67863 0.82632 0.87832 0.0
O290 O 0.70503 0.78162 0.90919 0.0
O291 O 0.69753 0.76763 0.87839 0.0
O292 O 0.65155 0.8088 0.91739 0.0
O293 O 0.66174 0.78347 0.89803 0.0
Co294 Co 0.79684 0.67858 0.0711 0.0
O295 O 0.781 0.67391 0.04651 0.0
O296 O 0.80987 0.69165 0.04836 0.0
C297 C 0.79533 0.64618 0.08319 0.0
O298 O 0.81885 0.6861 0.09187 0.0
Co299 Co 0.7827 0.67167 0.11569 0.0
O300 O 0.8126 0.67002 0.12143 0.0
C301 C 0.76762 0.70746 0.09203 0.0
C302 C 0.79506 0.68455 0.03722 0.0
C303 C 0.82481 0.67881 0.10909 0.0
O304 O 0.78024 0.70389 0.07731 0.0
O305 O 0.76571 0.69582 0.10768 0.0
O306 O 0.80871 0.65102 0.06923 0.0
O307 O 0.78289 0.66052 0.08822 0.0
Co308 Co 0.30624 0.79783 0.06983 0.0
O309 O 0.31106 0.78185 0.04541 0.0
O310 O 0.29343 0.81078 0.04685 0.0
C311 C 0.33853 0.7963 0.08221 0.0
O312 O 0.29864 0.81996 0.09039 0.0
Co313 Co 0.3127 0.78398 0.11457 0.0
O314 O 0.3149 0.81394 0.11989 0.0
C315 C 0.27707 0.76876 0.09066 0.0
C316 C 0.30056 0.79588 0.03591 0.0
C317 C 0.30618 0.8261 0.10745 0.0
O318 O 0.28081 0.78129 0.07587 0.0
O319 O 0.28854 0.76698 0.10646 0.0
O320 O 0.33385 0.80964 0.06814 0.0
O321 O 0.32409 0.78393 0.08722 0.0
Co322 Co 0.67611 0.18833 0.0698 0.0
O323 O 0.67201 0.20443 0.04532 0.0
O324 O 0.68939 0.17537 0.04715 0.0
C325 C 0.64355 0.19005 0.08133 0.0
O326 O 0.68309 0.1661 0.09048 0.0
Co327 Co 0.66876 0.20217 0.11438 0.0
O328 O 0.66642 0.17223 0.1197 0.0
C329 C 0.70503 0.21712 0.09142 0.0
C330 C 0.68268 0.19039 0.03607 0.0
C331 C 0.67531 0.16003 0.10743 0.0
O332 O 0.7015 0.20465 0.07654 0.0
O333 O 0.69325 0.21899 0.10695 0.0
O334 O 0.64847 0.1767 0.06736 0.0
O335 O 0.65796 0.2023 0.08675 0.0
Co336 Co 0.9156 0.80826 0.68633 0.0
O337 O 0.94026 0.81275 0.70212 0.0
O338 O 0.93819 0.79501 0.67328 0.0
C339 C 0.90384 0.84076 0.68788 0.0
O340 O 0.89478 0.80083 0.66435 0.0
Co341 Co 0.87105 0.81547 0.70017 0.0
O342 O 0.86573 0.81781 0.67022 0.0
C343 C 0.8944 0.77959 0.7156 0.0
C344 C 0.94942 0.80202 0.68805 0.0
C345 C 0.87799 0.80881 0.65811 0.0
O346 O 0.90921 0.78302 0.70303 0.0
O347 O 0.87878 0.79128 0.71729 0.0
O348 O 0.91768 0.83582 0.67443 0.0
O349 O 0.89862 0.82641 0.70026 0.0
Co350 Co 0.18086 0.91439 0.68708 0.0
O351 O 0.17586 0.93806 0.70418 0.0
O352 O 0.19226 0.9382 0.6745 0.0
C353 C 0.14922 0.90055 0.68949 0.0
O354 O 0.18837 0.89511 0.66387 0.0
Co355 Co 0.17699 0.86884 0.69892 0.0
O356 O 0.17286 0.86508 0.66891 0.0
C357 C 0.2123 0.89355 0.71364 0.0
C358 C 0.18553 0.94836 0.69011 0.0
C359 C 0.18062 0.87842 0.65706 0.0
O360 O 0.2072 0.90881 0.70223 0.0
O361 O 0.20178 0.87705 0.71497 0.0
O362 O 0.1527 0.91536 0.67657 0.0
O363 O 0.16441 0.89563 0.70098 0.0
Co364 Co 0.06946 0.17779 0.68722 0.0
O365 O 0.04533 0.17373 0.70381 0.0
O366 O 0.04655 0.19085 0.67453 0.0
C367 C 0.08119 0.14531 0.68916 0.0
O368 O 0.0896 0.1847 0.66454 0.0
Co369 Co 0.11438 0.17084 0.70005 0.0
O370 O 0.1189 0.16801 0.67003 0.0
C371 C 0.09148 0.20703 0.71529 0.0
C372 C 0.0358 0.18427 0.68982 0.0
C373 C 0.10628 0.17673 0.65806 0.0
O374 O 0.07637 0.20335 0.70314 0.0
O375 O 0.10715 0.19538 0.71688 0.0
O376 O 0.06696 0.14999 0.67597 0.0
O377 O 0.08681 0.15991 0.70107 0.0
Co378 Co 0.80646 0.07144 0.68856 0.0
O379 O 0.81118 0.04728 0.70501 0.0
O380 O 0.79401 0.04826 0.67573 0.0
C381 C 0.83858 0.08415 0.69056 0.0
O382 O 0.79898 0.09151 0.66599 0.0
Co383 Co 0.81217 0.1165 0.70154 0.0
O384 O 0.8151 0.12116 0.67153 0.0
C385 C 0.77662 0.09246 0.71665 0.0
C386 C 0.80088 0.03757 0.69095 0.0
C387 C 0.80668 0.10835 0.65952 0.0
O388 O 0.78074 0.07749 0.70449 0.0
O389 O 0.78782 0.10847 0.71828 0.0
O390 O 0.83428 0.06984 0.67734 0.0
O391 O 0.82385 0.08926 0.70251 0.0
Co392 Co 0.91422 0.18112 0.2984 0.0
O393 O 0.93791 0.17668 0.28121 0.0
O394 O 0.93795 0.1925 0.31123 0.0
C395 C 0.90072 0.14938 0.29525 0.0
O396 O 0.8949 0.18799 0.32176 0.0
Co397 Co 0.86871 0.17703 0.28651 0.0
O398 O 0.86503 0.1723 0.31642 0.0
C399 C 0.89303 0.21289 0.27256 0.0
C400 C 0.94814 0.18618 0.29547 0.0
C401 C 0.87831 0.17997 0.32842 0.0
O402 O 0.90838 0.2077 0.2838 0.0
O403 O 0.87662 0.20227 0.27104 0.0
O404 O 0.91545 0.15274 0.30829 0.0
O405 O 0.89563 0.16478 0.28413 0.0
Co406 Co 0.80764 0.91585 0.298 0.0
O407 O 0.81242 0.94004 0.28154 0.0
O408 O 0.79509 0.93903 0.31066 0.0
C409 C 0.83978 0.90315 0.29639 0.0
O410 O 0.80005 0.89581 0.32059 0.0
Co411 Co 0.81344 0.87077 0.28514 0.0
O412 O 0.81607 0.86611 0.31519 0.0
C413 C 0.77796 0.89467 0.26969 0.0
C414 C 0.802 0.94973 0.29547 0.0
C415 C 0.80761 0.87893 0.32712 0.0
O416 O 0.782 0.90968 0.28186 0.0
O417 O 0.78921 0.8787 0.26818 0.0
O418 O 0.8354 0.91754 0.30948 0.0
O419 O 0.82516 0.89802 0.28427 0.0
Co420 Co 0.07106 0.80711 0.29869 0.0
O421 O 0.04658 0.81197 0.28276 0.0
O422 O 0.04818 0.79425 0.31164 0.0
C423 C 0.08349 0.8394 0.29719 0.0
O424 O 0.0916 0.79938 0.3208 0.0
Co425 Co 0.11583 0.81352 0.2851 0.0
O426 O 0.12098 0.8159 0.31508 0.0
C427 C 0.09187 0.77803 0.26962 0.0
C428 C 0.03716 0.80139 0.29678 0.0
C429 C 0.10847 0.80714 0.32714 0.0
O430 O 0.07707 0.78174 0.2821 0.0
O431 O 0.10773 0.78944 0.26798 0.0
O432 O 0.06943 0.83472 0.31053 0.0
O433 O 0.08848 0.82496 0.28484 0.0
Co434 Co 0.17709 0.0704 0.29829 0.0
O435 O 0.17285 0.04597 0.28213 0.0
O436 O 0.1901 0.04766 0.31133 0.0
C437 C 0.14468 0.08229 0.29628 0.0
O438 O 0.1842 0.09093 0.32058 0.0
Co439 Co 0.17035 0.11513 0.28467 0.0
O440 O 0.16767 0.12024 0.31462 0.0
C441 C 0.20632 0.09174 0.26975 0.0
C442 C 0.18342 0.03666 0.29624 0.0
C443 C 0.17636 0.10779 0.32678 0.0
O444 O 0.2026 0.07688 0.28218 0.0
O445 O 0.19476 0.10745 0.2679 0.0
O446 O 0.14935 0.06826 0.30967 0.0
O447 O 0.15924 0.0876 0.2842 0.0
Co448 Co 0.68829 0.91435 0.80707 0.0
O449 O 0.7042 0.93887 0.81175 0.0
O450 O 0.67529 0.93715 0.79405 0.0
C451 C 0.68986 0.9022 0.83942 0.0
O452 O 0.66623 0.89366 0.79951 0.0
Co453 Co 0.70226 0.86969 0.81379 0.0
O454 O 0.67233 0.8642 0.81583 0.0
C455 C 0.71749 0.89349 0.77817 0.0
C456 C 0.69018 0.94822 0.80111 0.0
C457 C 0.66015 0.87658 0.80704 0.0
O458 O 0.70484 0.90818 0.78174 0.0
O459 O 0.71934 0.87776 0.78973 0.0
O460 O 0.67648 0.91618 0.83464 0.0
O461 O 0.70223 0.89713 0.82503 0.0
Co462 Co 0.07105 0.68729 0.80361 0.0
O463 O 0.04742 0.70451 0.80823 0.0
O464 O 0.04721 0.67438 0.7926 0.0
C465 C 0.08493 0.6906 0.83515 0.0
O466 O 0.09033 0.66391 0.79666 0.0
Co467 Co 0.11658 0.69932 0.8071 0.0
O468 O 0.12039 0.66943 0.81194 0.0
C469 C 0.09189 0.71277 0.77131 0.0
C470 C 0.03709 0.69019 0.79893 0.0
C471 C 0.10706 0.65735 0.80448 0.0
O472 O 0.07654 0.70171 0.77687 0.0
O473 O 0.10845 0.71436 0.78168 0.0
O474 O 0.07016 0.67755 0.83204 0.0
O475 O 0.08983 0.70167 0.81965 0.0
Co476 Co 0.29847 0.07191 0.80712 0.0
O477 O 0.28263 0.04735 0.81196 0.0
O478 O 0.31129 0.04914 0.79395 0.0
C479 C 0.29734 0.08406 0.8395 0.0
O480 O 0.32043 0.09258 0.79933 0.0
Co481 Co 0.28478 0.11659 0.81397 0.0
O482 O 0.31477 0.12181 0.81613 0.0
C483 C 0.26886 0.09281 0.77858 0.0
C484 C 0.29653 0.03804 0.80114 0.0
C485 C 0.32679 0.10942 0.80717 0.0
O486 O 0.28154 0.07809 0.78199 0.0
O487 O 0.26728 0.10856 0.79013 0.0
O488 O 0.31064 0.07005 0.83458 0.0
O489 O 0.28479 0.08915 0.82524 0.0
Co490 Co 0.91645 0.29869 0.80817 0.0
O491 O 0.94052 0.282 0.81234 0.0
O492 O 0.93955 0.31146 0.79553 0.0
C493 C 0.90428 0.29646 0.84048 0.0
O494 O 0.89645 0.32151 0.80125 0.0
Co495 Co 0.87139 0.28591 0.81445 0.0
O496 O 0.8669 0.31592 0.81749 0.0
C497 C 0.89458 0.27119 0.77824 0.0
C498 C 0.95021 0.29608 0.80206 0.0
C499 C 0.87966 0.32795 0.80904 0.0
O500 O 0.90979 0.28308 0.78234 0.0
O501 O 0.87875 0.26955 0.78966 0.0
O502 O 0.91861 0.30963 0.83612 0.0
O503 O 0.89882 0.28469 0.82569 0.0
Co504 Co 0.68456 0.07185 0.17977 0.0
O505 O 0.70133 0.0479 0.17523 0.0
O506 O 0.6718 0.04842 0.19188 0.0
C507 C 0.68691 0.08468 0.14773 0.0
O508 O 0.6617 0.09175 0.18688 0.0
Co509 Co 0.69743 0.11703 0.17449 0.0
O510 O 0.66748 0.12147 0.17097 0.0
C511 C 0.712 0.09303 0.21027 0.0
C512 C 0.68726 0.03795 0.18524 0.0
C513 C 0.65535 0.10862 0.17912 0.0
O514 O 0.70008 0.07794 0.20581 0.0
O515 O 0.71368 0.10913 0.19923 0.0
O516 O 0.67376 0.07022 0.15174 0.0
O517 O 0.69862 0.08985 0.16267 0.0
Co518 Co 0.9139 0.6882 0.18099 0.0
O519 O 0.93784 0.70499 0.17621 0.0
O520 O 0.93744 0.67524 0.19254 0.0
C521 C 0.9004 0.69095 0.14923 0.0
O522 O 0.89419 0.66523 0.18827 0.0
Co523 Co 0.8686 0.70074 0.17669 0.0
O524 O 0.86437 0.67079 0.17256 0.0
C525 C 0.89316 0.71488 0.21234 0.0
C526 C 0.94787 0.69073 0.1859 0.0
C527 C 0.87744 0.65871 0.18041 0.0
O528 O 0.90832 0.70333 0.20732 0.0
O529 O 0.87678 0.71648 0.20167 0.0
O530 O 0.91494 0.67778 0.15281 0.0
O531 O 0.89553 0.70244 0.16441 0.0
Co532 Co 0.29733 0.91433 0.17964 0.0
O533 O 0.28049 0.93829 0.1753 0.0
O534 O 0.31022 0.93767 0.1917 0.0
C535 C 0.29463 0.90148 0.14763 0.0
O536 O 0.32031 0.89459 0.18663 0.0
Co537 Co 0.28487 0.86906 0.17452 0.0
O538 O 0.31483 0.86494 0.17056 0.0
C539 C 0.27051 0.89296 0.21043 0.0
C540 C 0.29468 0.94816 0.18527 0.0
C541 C 0.32686 0.87794 0.17865 0.0
O542 O 0.28219 0.90817 0.2058 0.0
O543 O 0.26888 0.8768 0.19945 0.0
O544 O 0.30778 0.91598 0.15151 0.0
O545 O 0.28315 0.89624 0.16269 0.0
Co546 Co 0.06969 0.29849 0.17664 0.0
O547 O 0.04504 0.28276 0.1721 0.0
O548 O 0.04722 0.31134 0.19027 0.0
C549 C 0.08117 0.29748 0.14405 0.0
O550 O 0.0906 0.32031 0.18423 0.0
Co551 Co 0.11411 0.28447 0.16889 0.0
O552 O 0.11971 0.31443 0.16732 0.0
C553 C 0.09088 0.26853 0.20457 0.0
C554 C 0.03597 0.29663 0.18314 0.0
C555 C 0.10755 0.32649 0.17652 0.0
O556 O 0.07625 0.28141 0.20154 0.0
O557 O 0.10634 0.26681 0.19267 0.0
O558 O 0.06738 0.31087 0.14931 0.0
O559 O 0.08646 0.28482 0.15813 0.0
Co560 Co 0.80858 0.68757 0.91591 0.0
O561 O 0.81289 0.70388 0.94025 0.0
O562 O 0.79577 0.6746 0.93882 0.0
C563 C 0.84092 0.68965 0.90379 0.0
O564 O 0.80146 0.66512 0.89552 0.0
Co565 Co 0.81506 0.70109 0.87108 0.0
O566 O 0.81754 0.67113 0.86594 0.0
C567 C 0.77904 0.71582 0.89452 0.0
C568 C 0.80244 0.68978 0.94972 0.0
C569 C 0.80898 0.65896 0.87849 0.0
O570 O 0.78293 0.70355 0.90947 0.0
O571 O 0.79053 0.71766 0.87876 0.0
O572 O 0.8364 0.67632 0.91792 0.0
O573 O 0.82628 0.70166 0.89854 0.0
Co574 Co 0.80568 0.29822 0.07121 0.0
O575 O 0.81052 0.28145 0.04729 0.0
O576 O 0.7936 0.31084 0.04772 0.0
C577 C 0.83765 0.29622 0.08433 0.0
O578 O 0.7982 0.32111 0.09092 0.0
Co579 Co 0.81079 0.28573 0.11648 0.0
O580 O 0.81399 0.31578 0.12078 0.0
C581 C 0.77527 0.27068 0.09231 0.0
C582 C 0.80046 0.29546 0.03728 0.0
C583 C 0.80581 0.32771 0.10776 0.0
O584 O 0.77974 0.28252 0.07718 0.0
O585 O 0.78625 0.2692 0.10849 0.0
O586 O 0.83362 0.30925 0.06977 0.0
O587 O 0.82278 0.28439 0.08941 0.0
Co588 Co 0.68714 0.80813 0.07051 0.0
O589 O 0.7039 0.81247 0.04653 0.0
O590 O 0.67438 0.79572 0.04728 0.0
C591 C 0.68941 0.8403 0.08306 0.0
O592 O 0.66428 0.80107 0.09037 0.0
Co593 Co 0.69987 0.81385 0.11565 0.0
O594 O 0.66987 0.81701 0.1201 0.0
C595 C 0.71445 0.77784 0.09203 0.0
C596 C 0.68984 0.80225 0.03674 0.0
C597 C 0.65784 0.80873 0.10721 0.0
O598 O 0.70261 0.78219 0.07688 0.0
O599 O 0.71612 0.78905 0.10803 0.0
O600 O 0.67629 0.83612 0.06861 0.0
O601 O 0.70114 0.82545 0.08837 0.0
Co602 Co 0.17707 0.68677 0.06944 0.0
O603 O 0.17258 0.70298 0.04506 0.0
O604 O 0.18963 0.67371 0.04642 0.0
C605 C 0.14484 0.68886 0.08184 0.0
O606 O 0.18427 0.66439 0.08992 0.0
Co607 Co 0.17098 0.70061 0.11424 0.0
O608 O 0.16846 0.67069 0.11959 0.0
C609 C 0.20691 0.71509 0.09046 0.0
C610 C 0.18288 0.68885 0.03553 0.0
C611 C 0.17688 0.6584 0.10709 0.0
O612 O 0.20283 0.70278 0.07558 0.0
O613 O 0.19555 0.71703 0.10629 0.0
O614 O 0.14922 0.6755 0.0677 0.0
O615 O 0.15952 0.70093 0.08689 0.0
Co616 Co 0.29612 0.1766 0.07159 0.0
O617 O 0.28117 0.17186 0.04651 0.0
O618 O 0.30938 0.19049 0.04942 0.0
C619 C 0.29547 0.144 0.08315 0.0
O620 O 0.31721 0.18441 0.09321 0.0
Co621 Co 0.28039 0.16846 0.11549 0.0
O622 O 0.31002 0.16838 0.12264 0.0
C623 C 0.26502 0.20404 0.09179 0.0
C624 C 0.29511 0.1831 0.03777 0.0
C625 C 0.32247 0.17759 0.11086 0.0
O626 O 0.27852 0.20126 0.07768 0.0
O627 O 0.26272 0.19196 0.10704 0.0
O628 O 0.30902 0.14953 0.06963 0.0
O629 O 0.28228 0.15776 0.08793 0.0
Co630 Co 0.18056 0.29796 0.91469 0.0
O631 O 0.17594 0.28138 0.93874 0.0
O632 O 0.1928 0.31085 0.93796 0.0
C633 C 0.14849 0.29563 0.90192 0.0
O634 O 0.18784 0.32066 0.89469 0.0
Co635 Co 0.1751 0.28504 0.8696 0.0
O636 O 0.1717 0.31503 0.86509 0.0
C637 C 0.21074 0.27022 0.89371 0.0
C638 C 0.18604 0.29551 0.94856 0.0
C639 C 0.17998 0.3271 0.87792 0.0
O640 O 0.20646 0.2823 0.90869 0.0
O641 O 0.19962 0.26853 0.87765 0.0
O642 O 0.15261 0.30889 0.91625 0.0
O643 O 0.16336 0.28387 0.89679 0.0
Co644 Co 0.68745 0.17836 0.9148 0.0
O645 O 0.70349 0.17367 0.93925 0.0
O646 O 0.67465 0.19143 0.93762 0.0
C647 C 0.68881 0.14598 0.90267 0.0
O648 O 0.66529 0.18596 0.89426 0.0
Co649 Co 0.70093 0.17162 0.87005 0.0
O650 O 0.67094 0.16926 0.86498 0.0
C651 C 0.71654 0.20727 0.89365 0.0
C652 C 0.68955 0.18437 0.94863 0.0
C653 C 0.65892 0.17813 0.87742 0.0
O654 O 0.70408 0.20367 0.90851 0.0
O655 O 0.71812 0.19575 0.87788 0.0
O656 O 0.67554 0.1508 0.91673 0.0
O657 O 0.70119 0.16035 0.89749 0.0
Co658 Co 0.29889 0.80792 0.9144 0.0
O659 O 0.2823 0.81263 0.93845 0.0
O660 O 0.31158 0.79555 0.93771 0.0
C661 C 0.29703 0.84003 0.90158 0.0
O662 O 0.32159 0.80051 0.89445 0.0
Co663 Co 0.28596 0.81351 0.86928 0.0
O664 O 0.31597 0.81633 0.86466 0.0
C665 C 0.27096 0.77785 0.89323 0.0
C666 C 0.29628 0.80236 0.94828 0.0
C667 C 0.328 0.80802 0.87751 0.0
O668 O 0.28301 0.78209 0.90827 0.0
O669 O 0.26934 0.78904 0.87721 0.0
O670 O 0.31011 0.8358 0.91604 0.0
O671 O 0.28504 0.82529 0.89647 0.0
Co672 Co 0.79892 0.57081 0.80677 0.0
O673 O 0.78254 0.54659 0.81143 0.0
O674 O 0.81173 0.54766 0.79424 0.0
C675 C 0.79706 0.58334 0.83897 0.0
O676 O 0.82142 0.59108 0.79942 0.0
Co677 Co 0.78559 0.61577 0.81275 0.0
O678 O 0.81555 0.62071 0.81547 0.0
C679 C 0.77069 0.59192 0.77697 0.0
C680 C 0.79656 0.53691 0.80113 0.0
C681 C 0.82767 0.60808 0.80701 0.0
O682 O 0.78288 0.57697 0.78106 0.0
O683 O 0.76898 0.60785 0.78826 0.0
O684 O 0.81028 0.56908 0.83458 0.0
O685 O 0.78499 0.58846 0.82431 0.0
Co686 Co 0.18876 0.41505 0.80696 0.0
O687 O 0.20497 0.43943 0.81139 0.0
O688 O 0.17587 0.43788 0.79396 0.0
C689 C 0.19056 0.40304 0.83934 0.0
O690 O 0.16642 0.3946 0.79965 0.0
Co691 Co 0.20215 0.37025 0.8137 0.0
O692 O 0.17217 0.36519 0.81613 0.0
C693 C 0.21749 0.39379 0.77794 0.0
C694 C 0.19094 0.44883 0.8008 0.0
C695 C 0.1601 0.37772 0.80739 0.0
O696 O 0.20502 0.40863 0.78153 0.0
O697 O 0.21921 0.37807 0.78952 0.0
O698 O 0.17723 0.4171 0.83464 0.0
O699 O 0.20269 0.39774 0.82483 0.0
Co700 Co 0.18598 0.57036 0.17971 0.0
O701 O 0.20273 0.54639 0.17518 0.0
O702 O 0.17325 0.54693 0.19188 0.0
C703 C 0.18827 0.58315 0.14763 0.0
O704 O 0.16313 0.59026 0.18685 0.0
Co705 Co 0.19879 0.61555 0.1743 0.0
O706 O 0.16882 0.61994 0.17083 0.0
C707 C 0.21344 0.59164 0.21014 0.0
C708 C 0.18868 0.53644 0.18522 0.0
C709 C 0.15673 0.6071 0.17905 0.0
O710 O 0.20156 0.57651 0.20572 0.0
O711 O 0.21507 0.60772 0.19904 0.0
O712 O 0.17513 0.56869 0.15169 0.0
O713 O 0.2 0.58834 0.16255 0.0
Co714 Co 0.79768 0.41644 0.1781 0.0
O715 O 0.78075 0.44035 0.17387 0.0
O716 O 0.8104 0.43971 0.19042 0.0
C717 C 0.79517 0.40385 0.14597 0.0
O718 O 0.82071 0.39677 0.18506 0.0
Co719 Co 0.78544 0.37117 0.17252 0.0
O720 O 0.81545 0.36707 0.169 0.0
C721 C 0.77061 0.39478 0.20843 0.0
C722 C 0.79484 0.45018 0.18402 0.0
C723 C 0.82737 0.38011 0.1772 0.0
O724 O 0.78241 0.40999 0.20411 0.0
O725 O 0.76906 0.37876 0.19724 0.0
O726 O 0.80828 0.41835 0.15002 0.0
O727 O 0.78366 0.39845 0.16095 0.0
Co728 Co 0.30633 0.57121 0.68666 0.0
O729 O 0.31068 0.54708 0.70323 0.0
O730 O 0.29399 0.54802 0.67369 0.0
C731 C 0.33847 0.58377 0.68914 0.0
O732 O 0.29932 0.59131 0.66394 0.0
Co733 Co 0.31206 0.61626 0.6998 0.0
O734 O 0.31534 0.62096 0.66985 0.0
C735 C 0.2761 0.59243 0.7142 0.0
C736 C 0.30058 0.53735 0.68905 0.0
C737 C 0.30707 0.60821 0.65768 0.0
O738 O 0.28039 0.5774 0.70217 0.0
O739 O 0.28732 0.60841 0.71601 0.0
O740 O 0.33432 0.56946 0.67587 0.0
O741 O 0.3236 0.58896 0.70086 0.0
Co742 Co 0.68083 0.41431 0.68711 0.0
O743 O 0.67635 0.43841 0.70369 0.0
O744 O 0.69348 0.43744 0.67443 0.0
C745 C 0.64857 0.40193 0.68903 0.0
O746 O 0.6881 0.39431 0.66444 0.0
Co747 Co 0.67472 0.3692 0.69961 0.0
O748 O 0.67125 0.36504 0.66957 0.0
C749 C 0.71038 0.39284 0.71521 0.0
C750 C 0.68672 0.44811 0.68969 0.0
C751 C 0.67983 0.37785 0.65769 0.0
O752 O 0.70647 0.40792 0.7031 0.0
O753 O 0.69906 0.37688 0.7166 0.0
O754 O 0.65299 0.41626 0.67588 0.0
O755 O 0.66328 0.39655 0.70092 0.0
Co756 Co 0.30782 0.41489 0.29941 0.0
O757 O 0.31258 0.43901 0.2829 0.0
O758 O 0.29507 0.43805 0.31192 0.0
C759 C 0.34004 0.40238 0.29804 0.0
O760 O 0.30022 0.39487 0.32202 0.0
Co761 Co 0.31398 0.36981 0.28671 0.0
O762 O 0.31647 0.36527 0.31678 0.0
C763 C 0.27854 0.39351 0.27088 0.0
C764 C 0.30204 0.44872 0.29674 0.0
C765 C 0.30788 0.37807 0.32864 0.0
O766 O 0.28233 0.40852 0.28311 0.0
O767 O 0.28991 0.37762 0.26946 0.0
O768 O 0.3355 0.41679 0.31105 0.0
O769 O 0.32552 0.39713 0.28585 0.0
Co770 Co 0.67857 0.57176 0.29955 0.0
O771 O 0.67446 0.54762 0.28293 0.0
O772 O 0.6913 0.54873 0.31239 0.0
C773 C 0.64625 0.58382 0.29725 0.0
O774 O 0.68543 0.5919 0.32228 0.0
Co775 Co 0.67221 0.61674 0.28658 0.0
O776 O 0.66897 0.6213 0.31656 0.0
C777 C 0.70829 0.59344 0.27179 0.0
C778 C 0.6848 0.53802 0.29701 0.0
C779 C 0.67745 0.60863 0.32866 0.0
O780 O 0.70432 0.57838 0.2839 0.0
O781 O 0.69685 0.60926 0.27008 0.0
O782 O 0.65065 0.56955 0.31048 0.0
O783 O 0.66101 0.58927 0.28548 0.0
Co784 Co 0.18876 0.80807 0.56931 0.0
O785 O 0.20563 0.81219 0.54538 0.0
O786 O 0.17635 0.79502 0.54626 0.0
C787 C 0.19064 0.84052 0.58115 0.0
O788 O 0.16585 0.80103 0.58907 0.0
Co789 Co 0.20074 0.81485 0.61444 0.0
O790 O 0.17065 0.81791 0.61837 0.0
C791 C 0.21673 0.779 0.5915 0.0
C792 C 0.19177 0.80159 0.5357 0.0
C793 C 0.15894 0.80921 0.60547 0.0
O794 O 0.20464 0.78256 0.57632 0.0
O795 O 0.218 0.7906 0.60725 0.0
O796 O 0.17757 0.83589 0.56679 0.0
O797 O 0.2024 0.82587 0.58692 0.0
Co798 Co 0.18683 0.17933 0.41469 0.0
O799 O 0.20301 0.17445 0.43899 0.0
O800 O 0.17418 0.19223 0.43776 0.0
C801 C 0.18817 0.14701 0.40242 0.0
O802 O 0.16453 0.18702 0.39425 0.0
Co803 Co 0.20021 0.17274 0.36985 0.0
O804 O 0.17022 0.17059 0.3648 0.0
C805 C 0.21606 0.20815 0.39365 0.0
C806 C 0.18914 0.18501 0.4486 0.0
C807 C 0.1582 0.17939 0.37729 0.0
O808 O 0.2035 0.20464 0.40845 0.0
O809 O 0.21761 0.19663 0.37787 0.0
O810 O 0.17492 0.15176 0.41653 0.0
O811 O 0.2005 0.16143 0.39725 0.0
Co812 Co 0.3089 0.68748 0.41515 0.0
O813 O 0.31327 0.70439 0.43904 0.0
O814 O 0.29612 0.67509 0.43837 0.0
C815 C 0.34121 0.6893 0.403 0.0
O816 O 0.30174 0.66452 0.39535 0.0
Co817 Co 0.31533 0.69979 0.37 0.0
O818 O 0.31787 0.66971 0.36567 0.0
C819 C 0.27953 0.71539 0.3932 0.0
C820 C 0.30282 0.69053 0.44886 0.0
C821 C 0.30935 0.65787 0.37855 0.0
O822 O 0.2833 0.70333 0.40835 0.0
O823 O 0.29102 0.71682 0.37741 0.0
O824 O 0.33672 0.67627 0.41743 0.0
O825 O 0.32655 0.70113 0.39744 0.0
Co826 Co 0.79787 0.80817 0.41568 0.0
O827 O 0.78092 0.81273 0.43951 0.0
O828 O 0.81029 0.79577 0.43908 0.0
C829 C 0.79588 0.84032 0.403 0.0
O830 O 0.82089 0.80086 0.39611 0.0
Co831 Co 0.78599 0.81382 0.37034 0.0
O832 O 0.81606 0.81722 0.36652 0.0
C833 C 0.77024 0.77829 0.39402 0.0
C834 C 0.79482 0.80246 0.44946 0.0
C835 C 0.8278 0.80886 0.3796 0.0
O836 O 0.78213 0.78237 0.40923 0.0
O837 O 0.769 0.78948 0.37797 0.0
O838 O 0.80889 0.83613 0.41754 0.0
O839 O 0.78419 0.82546 0.39758 0.0
Co840 Co 0.68059 0.29864 0.41415 0.0
O841 O 0.67582 0.28194 0.43813 0.0
O842 O 0.69292 0.31127 0.43749 0.0
C843 C 0.64852 0.29663 0.40132 0.0
O844 O 0.68811 0.32146 0.39437 0.0
Co845 Co 0.67505 0.28633 0.36891 0.0
O846 O 0.67183 0.31639 0.36476 0.0
C847 C 0.71046 0.2708 0.39292 0.0
C848 C 0.68605 0.29594 0.44801 0.0
C849 C 0.68021 0.32823 0.37775 0.0
O850 O 0.70634 0.28279 0.40803 0.0
O851 O 0.69933 0.26944 0.37683 0.0
O852 O 0.65271 0.30976 0.41575 0.0
O853 O 0.66333 0.28483 0.39611 0.0
Co854 Co 0.79733 0.17866 0.57086 0.0
O855 O 0.78094 0.17402 0.54664 0.0
O856 O 0.81015 0.19129 0.54781 0.0
C857 C 0.79542 0.14645 0.58334 0.0
O858 O 0.81984 0.1861 0.59105 0.0
Co859 Co 0.78424 0.17261 0.61583 0.0
O860 O 0.81424 0.17002 0.62069 0.0
C861 C 0.76909 0.20826 0.59199 0.0
C862 C 0.79497 0.18442 0.53704 0.0
C863 C 0.82625 0.17853 0.60797 0.0
O864 O 0.78131 0.2043 0.57705 0.0
O865 O 0.76744 0.19694 0.6079 0.0
O866 O 0.80866 0.15087 0.56911 0.0
O867 O 0.78341 0.16111 0.5885 0.0
Co868 Co 0.30537 0.29757 0.57151 0.0
O869 O 0.30994 0.28098 0.54747 0.0
O870 O 0.29263 0.31014 0.54836 0.0
C871 C 0.33764 0.2959 0.58388 0.0
O872 O 0.29798 0.32024 0.59149 0.0
Co873 Co 0.31156 0.28503 0.61659 0.0
O874 O 0.31476 0.31511 0.62081 0.0
C875 C 0.27603 0.26922 0.59291 0.0
C876 C 0.29949 0.29489 0.53774 0.0
C877 C 0.30613 0.32697 0.60802 0.0
O878 O 0.27983 0.28145 0.57791 0.0
O879 O 0.28739 0.26782 0.60884 0.0
O880 O 0.33312 0.30899 0.56953 0.0
O881 O 0.32303 0.28389 0.58927 0.0
Co882 Co 0.67773 0.68743 0.57112 0.0
O883 O 0.67284 0.70434 0.54731 0.0
O884 O 0.69034 0.67528 0.54771 0.0
C885 C 0.64559 0.68873 0.58375 0.0
O886 O 0.68544 0.66451 0.59076 0.0
Co887 Co 0.67183 0.69946 0.6164 0.0
O888 O 0.66935 0.66933 0.62051 0.0
C889 C 0.70709 0.7157 0.59273 0.0
C890 C 0.68332 0.69064 0.53733 0.0
C891 C 0.67787 0.65765 0.6075 0.0
O892 O 0.70325 0.70363 0.57759 0.0
O893 O 0.69582 0.71688 0.6087 0.0
O894 O 0.65003 0.67585 0.56919 0.0
O895 O 0.66018 0.70078 0.58914 0.0
Co896 Co 0.17942 0.41473 0.18799 0.0
O897 O 0.17454 0.43881 0.20449 0.0
O898 O 0.19187 0.43808 0.17537 0.0
C899 C 0.14728 0.40199 0.18963 0.0
O900 O 0.18698 0.39468 0.16536 0.0
Co901 Co 0.17355 0.36962 0.20095 0.0
O902 O 0.17103 0.36492 0.17093 0.0
C903 C 0.20913 0.39355 0.21623 0.0
C904 C 0.18481 0.44868 0.19055 0.0
C905 C 0.1795 0.37769 0.15895 0.0
O906 O 0.20508 0.4086 0.20412 0.0
O907 O 0.19788 0.37757 0.21777 0.0
O908 O 0.15166 0.41637 0.17653 0.0
O909 O 0.16191 0.39687 0.20172 0.0
Co910 Co 0.80612 0.5713 0.18845 0.0
O911 O 0.81039 0.54703 0.2048 0.0
O912 O 0.79292 0.54847 0.17571 0.0
C913 C 0.83863 0.58301 0.1902 0.0
O914 O 0.79894 0.59162 0.166 0.0
Co915 Co 0.8133 0.61617 0.20137 0.0
O916 O 0.81598 0.62078 0.17133 0.0
C917 C 0.77734 0.59309 0.21701 0.0
C918 C 0.79974 0.53758 0.19082 0.0
C919 C 0.80705 0.60822 0.15942 0.0
O920 O 0.7808 0.57806 0.20472 0.0
O921 O 0.78903 0.60877 0.2185 0.0
O922 O 0.83378 0.56894 0.17691 0.0
O923 O 0.82415 0.58857 0.20225 0.0
Co924 Co 0.80828 0.41547 0.79901 0.0
O925 O 0.81274 0.4396 0.78246 0.0
O926 O 0.79528 0.43854 0.8115 0.0
C927 C 0.84069 0.40352 0.7975 0.0
O928 O 0.80102 0.39528 0.82162 0.0
Co929 Co 0.81514 0.37051 0.78613 0.0
O930 O 0.81755 0.36585 0.81616 0.0
C931 C 0.77924 0.39365 0.77051 0.0
C932 C 0.80218 0.44926 0.79631 0.0
C933 C 0.80878 0.37845 0.82809 0.0
O934 O 0.78286 0.40873 0.78272 0.0
O935 O 0.79083 0.37792 0.76905 0.0
O936 O 0.83595 0.41776 0.81062 0.0
O937 O 0.82621 0.39802 0.78538 0.0
Co938 Co 0.17773 0.56992 0.79696 0.0
O939 O 0.17353 0.54555 0.78073 0.0
O940 O 0.19107 0.54721 0.80975 0.0
C941 C 0.14519 0.58144 0.7953 0.0
O942 O 0.18487 0.59044 0.81928 0.0
Co943 Co 0.17033 0.61463 0.78355 0.0
O944 O 0.16816 0.61971 0.81354 0.0
C945 C 0.20637 0.59166 0.76812 0.0
C946 C 0.18428 0.53623 0.79469 0.0
C947 C 0.1771 0.6073 0.82558 0.0
O948 O 0.20301 0.57674 0.78059 0.0
O949 O 0.19457 0.6072 0.76643 0.0
O950 O 0.15013 0.56745 0.80863 0.0
O951 O 0.15958 0.58697 0.78312 0.0
Co952 Co 0.68901 0.41675 0.30793 0.0
O953 O 0.70549 0.44096 0.31234 0.0
O954 O 0.67624 0.43977 0.29515 0.0
C955 C 0.69099 0.40458 0.34026 0.0
O956 O 0.66637 0.39659 0.30072 0.0
Co957 Co 0.7019 0.37176 0.31442 0.0
O958 O 0.67188 0.36701 0.31697 0.0
C959 C 0.71711 0.39517 0.27852 0.0
C960 C 0.69144 0.45055 0.30194 0.0
C961 C 0.65991 0.37972 0.30838 0.0
O962 O 0.70496 0.41023 0.28232 0.0
O963 O 0.71871 0.37939 0.29003 0.0
O964 O 0.67776 0.4188 0.33574 0.0
O965 O 0.70291 0.39922 0.32561 0.0
Co966 Co 0.29798 0.57013 0.30759 0.0
O967 O 0.28193 0.54574 0.31241 0.0
O968 O 0.31056 0.54727 0.29433 0.0
C969 C 0.297 0.58212 0.34004 0.0
O970 O 0.32012 0.59063 0.29982 0.0
Co971 Co 0.28472 0.6149 0.31471 0.0
O972 O 0.31476 0.6199 0.31665 0.0
C973 C 0.26843 0.59141 0.27928 0.0
C974 C 0.29572 0.5363 0.30159 0.0
C975 C 0.32663 0.60744 0.3076 0.0
O976 O 0.28103 0.57657 0.28253 0.0
O977 O 0.26701 0.60708 0.29095 0.0
O978 O 0.3102 0.56806 0.33502 0.0
O979 O 0.28449 0.5874 0.32582 0.0
Co980 Co 0.68848 0.56935 0.67787 0.0
O981 O 0.70534 0.54546 0.67337 0.0
O982 O 0.67614 0.54609 0.6906 0.0
C983 C 0.69013 0.58171 0.64558 0.0
O984 O 0.66555 0.58901 0.68522 0.0
Co985 Co 0.70041 0.61461 0.67165 0.0
O986 O 0.6703 0.61857 0.66876 0.0
C987 C 0.71637 0.59128 0.70732 0.0
C988 C 0.69152 0.53561 0.68383 0.0
C989 C 0.65863 0.60557 0.67733 0.0
O990 O 0.70444 0.57603 0.70347 0.0
O991 O 0.71758 0.60718 0.69593 0.0
O992 O 0.67716 0.56722 0.65005 0.0
O993 O 0.702 0.58725 0.66026 0.0
Co994 Co 0.29845 0.41596 0.67783 0.0
O995 O 0.28154 0.43987 0.67354 0.0
O996 O 0.31118 0.43931 0.69007 0.0
C997 C 0.29588 0.40337 0.64571 0.0
O998 O 0.3215 0.39626 0.68478 0.0
Co999 Co 0.28614 0.37068 0.6722 0.0
O1000 O 0.31614 0.3665 0.66883 0.0
C1001 C 0.27142 0.39426 0.70819 0.0
C1002 C 0.29565 0.44977 0.68357 0.0
C1003 C 0.32809 0.37951 0.67702 0.0
O1004 O 0.28316 0.40952 0.70387 0.0
O1005 O 0.26987 0.37826 0.69697 0.0
O1006 O 0.30903 0.41783 0.64974 0.0
O1007 O 0.28439 0.39798 0.6607 0.0
Co1008 Co 0.80797 0.18708 0.41596 0.0
O1009 O 0.81207 0.2036 0.44015 0.0
O1010 O 0.79475 0.17442 0.4388 0.0
C1011 C 0.8405 0.18891 0.40442 0.0
O1012 O 0.80097 0.1645 0.39569 0.0
Co1013 Co 0.81526 0.20003 0.37112 0.0
O1014 O 0.81769 0.17001 0.3664 0.0
C1015 C 0.77918 0.21556 0.39397 0.0
C1016 C 0.80143 0.18965 0.44962 0.0
C1017 C 0.80885 0.15804 0.37895 0.0
O1018 O 0.78259 0.20324 0.409 0.0
O1019 O 0.79096 0.21713 0.3784 0.0
O1020 O 0.83568 0.17565 0.41851 0.0
O1021 O 0.82599 0.2009 0.39877 0.0
Co1022 Co 0.80532 0.79912 0.57079 0.0
O1023 O 0.80963 0.78254 0.54667 0.0
O1024 O 0.79256 0.81183 0.54769 0.0
C1025 C 0.83766 0.79713 0.58295 0.0
O1026 O 0.79823 0.82183 0.59085 0.0
Co1027 Co 0.8118 0.78647 0.61583 0.0
O1028 O 0.81503 0.8165 0.62015 0.0
C1029 C 0.77585 0.77111 0.59248 0.0
C1030 C 0.79928 0.79657 0.537 0.0
C1031 C 0.80639 0.82844 0.60743 0.0
O1032 O 0.77968 0.78319 0.57736 0.0
O1033 O 0.78732 0.76964 0.60831 0.0
O1034 O 0.83316 0.81032 0.56867 0.0
O1035 O 0.82297 0.78526 0.5884 0.0
Co1036 Co 0.68771 0.30785 0.56927 0.0
O1037 O 0.70453 0.31199 0.54532 0.0
O1038 O 0.67504 0.29519 0.5461 0.0
C1039 C 0.68998 0.34017 0.58142 0.0
O1040 O 0.6648 0.30097 0.58916 0.0
Co1041 Co 0.70035 0.31423 0.61438 0.0
O1042 O 0.67034 0.317 0.61887 0.0
C1043 C 0.7153 0.27813 0.59115 0.0
C1044 C 0.6905 0.30171 0.53555 0.0
C1045 C 0.65836 0.30859 0.60603 0.0
O1046 O 0.70328 0.28205 0.576 0.0
O1047 O 0.71695 0.28964 0.60693 0.0
O1048 O 0.67683 0.33581 0.56705 0.0
O1049 O 0.70167 0.32537 0.58693 0.0
Co1050 Co 0.17722 0.18641 0.5701 0.0
O1051 O 0.17283 0.2031 0.54604 0.0
O1052 O 0.18996 0.17385 0.5469 0.0
C1053 C 0.1449 0.18822 0.58225 0.0
O1054 O 0.18434 0.16364 0.59017 0.0
Co1055 Co 0.17075 0.1993 0.61512 0.0
O1056 O 0.16824 0.16929 0.61981 0.0
C1057 C 0.20677 0.21443 0.59189 0.0
C1058 C 0.18319 0.18917 0.53628 0.0
C1059 C 0.17678 0.15727 0.60713 0.0
O1060 O 0.20287 0.20237 0.57675 0.0
O1061 O 0.19529 0.216 0.60767 0.0
O1062 O 0.14941 0.17511 0.56792 0.0
O1063 O 0.15954 0.20019 0.58768 0.0
Co1064 Co 0.29927 0.68018 0.57013 0.0
O1065 O 0.2826 0.67601 0.54602 0.0
O1066 O 0.3121 0.69278 0.54704 0.0
C1067 C 0.29685 0.64787 0.58225 0.0
O1068 O 0.32207 0.68705 0.59021 0.0
Co1069 Co 0.28653 0.67391 0.61515 0.0
O1070 O 0.3165 0.67042 0.61954 0.0
C1071 C 0.27171 0.71004 0.59181 0.0
C1072 C 0.29674 0.68621 0.53635 0.0
C1073 C 0.32855 0.67891 0.60684 0.0
O1074 O 0.28369 0.70601 0.57669 0.0
O1075 O 0.2701 0.69865 0.60767 0.0
O1076 O 0.3101 0.65221 0.568 0.0
O1077 O 0.28519 0.66271 0.58771 0.0
Co1078 Co 0.18073 0.79771 0.41467 0.0
O1079 O 0.17649 0.78094 0.43868 0.0
O1080 O 0.19338 0.81039 0.43777 0.0
C1081 C 0.14845 0.79549 0.40239 0.0
O1082 O 0.1878 0.8206 0.39486 0.0
Co1083 Co 0.17457 0.78564 0.36948 0.0
O1084 O 0.17085 0.8157 0.36563 0.0
C1085 C 0.21045 0.7702 0.39286 0.0
C1086 C 0.18681 0.795 0.44838 0.0
C1087 C 0.17939 0.82749 0.37856 0.0
O1088 O 0.20646 0.78207 0.40808 0.0
O1089 O 0.19911 0.76887 0.37691 0.0
O1090 O 0.1528 0.80863 0.41677 0.0
O1091 O 0.16326 0.78383 0.39686 0.0
Co1092 Co 0.68631 0.68048 0.41597 0.0
O1093 O 0.7028 0.67614 0.44013 0.0
O1094 O 0.67366 0.69344 0.43898 0.0
C1095 C 0.6881 0.64804 0.4041 0.0
O1096 O 0.66372 0.6876 0.39569 0.0
Co1097 Co 0.69929 0.67359 0.37108 0.0
O1098 O 0.66928 0.67087 0.3664 0.0
C1099 C 0.71481 0.70952 0.39432 0.0
C1100 C 0.68885 0.68659 0.44974 0.0
C1101 C 0.65728 0.67964 0.37894 0.0
O1102 O 0.70249 0.70596 0.4093 0.0
O1103 O 0.71637 0.69788 0.37864 0.0
O1104 O 0.67487 0.65273 0.41825 0.0
O1105 O 0.7001 0.6626 0.39861 0.0
Co1106 Co 0.29876 0.3067 0.41662 0.0
O1107 O 0.2814 0.31085 0.44021 0.0
O1108 O 0.31104 0.29436 0.44009 0.0
C1109 C 0.29636 0.33889 0.40413 0.0
O1110 O 0.32219 0.29984 0.39741 0.0
Co1111 Co 0.28777 0.31239 0.37112 0.0
O1112 O 0.31784 0.31667 0.36806 0.0
C1113 C 0.27195 0.27657 0.39436 0.0
C1114 C 0.29532 0.30074 0.45029 0.0
C1115 C 0.32942 0.30839 0.38133 0.0
O1116 O 0.28351 0.2807 0.40981 0.0
O1117 O 0.27093 0.28781 0.37833 0.0
O1118 O 0.30927 0.33484 0.4188 0.0
O1119 O 0.28508 0.32384 0.39838 0.0
Co1120 Co 0.57071 0.18753 0.80566 0.0
O1121 O 0.54693 0.20454 0.81007 0.0
O1122 O 0.54726 0.17498 0.79339 0.0
C1123 C 0.5834 0.18982 0.83779 0.0
O1124 O 0.59031 0.16442 0.7986 0.0
Co1125 Co 0.61602 0.19965 0.81124 0.0
O1126 O 0.61998 0.16961 0.81478 0.0
C1127 C 0.59234 0.21478 0.77544 0.0
C1128 C 0.53691 0.19054 0.79999 0.0
C1129 C 0.60695 0.15772 0.80652 0.0
O1130 O 0.57712 0.20297 0.7797 0.0
O1131 O 0.60838 0.21622 0.78663 0.0
O1132 O 0.56885 0.17678 0.8337 0.0
O1133 O 0.5888 0.20139 0.82285 0.0
Co1134 Co 0.41637 0.79917 0.80642 0.0
O1135 O 0.44004 0.78197 0.81084 0.0
O1136 O 0.4399 0.81158 0.79424 0.0
C1137 C 0.40367 0.79684 0.8385 0.0
O1138 O 0.39694 0.82244 0.79936 0.0
Co1139 Co 0.37097 0.78738 0.81182 0.0
O1140 O 0.36725 0.81744 0.81547 0.0
C1141 C 0.39455 0.77216 0.77607 0.0
C1142 C 0.45014 0.79592 0.80079 0.0
C1143 C 0.38037 0.82926 0.80729 0.0
O1144 O 0.40986 0.78384 0.7804 0.0
O1145 O 0.37847 0.77084 0.78718 0.0
O1146 O 0.41829 0.80982 0.8345 0.0
O1147 O 0.39818 0.78537 0.8235 0.0
Co1148 Co 0.56997 0.79872 0.17805 0.0
O1149 O 0.54582 0.78222 0.17348 0.0
O1150 O 0.54693 0.81131 0.19093 0.0
C1151 C 0.58209 0.79714 0.14572 0.0
O1152 O 0.59015 0.82128 0.18544 0.0
Co1153 Co 0.6149 0.78575 0.17152 0.0
O1154 O 0.61965 0.81579 0.16909 0.0
C1155 C 0.5915 0.77027 0.20729 0.0
C1156 C 0.5362 0.79612 0.18401 0.0
C1157 C 0.60701 0.82774 0.17777 0.0
O1158 O 0.57649 0.7825 0.20352 0.0
O1159 O 0.60729 0.76872 0.19581 0.0
O1160 O 0.56786 0.81029 0.15037 0.0
O1161 O 0.58747 0.78502 0.16024 0.0
Co1162 Co 0.4122 0.18784 0.1838 0.0
O1163 O 0.4357 0.20513 0.17855 0.0
O1164 O 0.43633 0.17501 0.19418 0.0
C1165 C 0.39744 0.19108 0.15267 0.0
O1166 O 0.39311 0.1644 0.19124 0.0
Co1167 Co 0.36657 0.1997 0.18162 0.0
O1168 O 0.36282 0.16985 0.17644 0.0
C1169 C 0.39227 0.21334 0.21663 0.0
C1170 C 0.44627 0.19084 0.18759 0.0
C1171 C 0.37633 0.15778 0.18353 0.0
O1172 O 0.40743 0.20226 0.21068 0.0
O1173 O 0.37541 0.21485 0.20674 0.0
O1174 O 0.41235 0.17813 0.15537 0.0
O1175 O 0.39295 0.20215 0.16829 0.0
Co1176 Co 0.41583 0.30904 0.68713 0.0
O1177 O 0.44029 0.31362 0.70316 0.0
O1178 O 0.43853 0.29562 0.67445 0.0
C1179 C 0.4041 0.34156 0.68824 0.0
O1180 O 0.39518 0.30147 0.66503 0.0
Co1181 Co 0.3712 0.31646 0.70074 0.0
O1182 O 0.36586 0.31808 0.67077 0.0
C1183 C 0.39445 0.28075 0.71662 0.0
C1184 C 0.44958 0.30272 0.68933 0.0
C1185 C 0.3782 0.30903 0.65877 0.0
O1186 O 0.40924 0.28396 0.70398 0.0
O1187 O 0.3789 0.29255 0.71823 0.0
O1188 O 0.41807 0.33647 0.67497 0.0
O1189 O 0.39878 0.32736 0.70074 0.0
Co1190 Co 0.5704 0.67505 0.68848 0.0
O1191 O 0.5461 0.67048 0.70474 0.0
O1192 O 0.54759 0.68838 0.67595 0.0
C1193 C 0.58233 0.64259 0.68958 0.0
O1194 O 0.59065 0.68267 0.66615 0.0
Co1195 Co 0.61526 0.66795 0.70147 0.0
O1196 O 0.62013 0.6662 0.67141 0.0
C1197 C 0.59205 0.70356 0.71758 0.0
C1198 C 0.5367 0.6814 0.69096 0.0
C1199 C 0.60749 0.67512 0.6596 0.0
O1200 O 0.5771 0.70021 0.70513 0.0
O1201 O 0.6077 0.69186 0.71903 0.0
O1202 O 0.56814 0.64755 0.67646 0.0
O1203 O 0.58774 0.65688 0.70197 0.0
Co1204 Co 0.57158 0.30884 0.29771 0.0
O1205 O 0.54672 0.31379 0.28238 0.0
O1206 O 0.54909 0.29566 0.31096 0.0
C1207 C 0.58385 0.3412 0.29644 0.0
O1208 O 0.59256 0.30085 0.31926 0.0
Co1209 Co 0.61605 0.31559 0.28345 0.0
O1210 O 0.62168 0.31774 0.31339 0.0
C1211 C 0.59188 0.28032 0.26777 0.0
C1212 C 0.5377 0.30292 0.29645 0.0
C1213 C 0.6094 0.30873 0.32551 0.0
O1214 O 0.57735 0.28375 0.28063 0.0
O1215 O 0.60767 0.29182 0.26602 0.0
O1216 O 0.57008 0.33626 0.30998 0.0
O1217 O 0.58866 0.32696 0.28378 0.0
Co1218 Co 0.41486 0.67895 0.29718 0.0
O1219 O 0.43889 0.67443 0.2805 0.0
O1220 O 0.43809 0.69144 0.30984 0.0
C1221 C 0.40223 0.64676 0.29516 0.0
O1222 O 0.39508 0.68627 0.31999 0.0
Co1223 Co 0.36965 0.67314 0.28488 0.0
O1224 O 0.36557 0.66981 0.31494 0.0
C1225 C 0.39329 0.7089 0.26957 0.0
C1226 C 0.44867 0.68473 0.29451 0.0
C1227 C 0.37853 0.67825 0.32677 0.0
O1228 O 0.40851 0.70473 0.28141 0.0
O1229 O 0.37726 0.69769 0.26821 0.0
O1230 O 0.41668 0.65103 0.30825 0.0
O1231 O 0.39691 0.66156 0.28336 0.0
Co1232 Co 0.41495 0.80772 0.18686 0.0
O1233 O 0.43913 0.81208 0.20335 0.0
O1234 O 0.43793 0.79483 0.17416 0.0
C1235 C 0.40298 0.8401 0.18872 0.0
O1236 O 0.39469 0.80057 0.16428 0.0
Co1237 Co 0.37008 0.8144 0.19998 0.0
O1238 O 0.36517 0.81683 0.16999 0.0
C1239 C 0.39342 0.77849 0.21526 0.0
C1240 C 0.44871 0.80162 0.18938 0.0
C1241 C 0.37776 0.80819 0.15795 0.0
O1242 O 0.40836 0.78217 0.20294 0.0
O1243 O 0.37771 0.79007 0.21694 0.0
O1244 O 0.41714 0.83549 0.17548 0.0
O1245 O 0.39757 0.82551 0.20072 0.0
Co1246 Co 0.56775 0.18059 0.18649 0.0
O1247 O 0.54414 0.17653 0.20376 0.0
O1248 O 0.54423 0.19293 0.17406 0.0
C1249 C 0.58 0.14833 0.18902 0.0
O1250 O 0.58733 0.18721 0.16319 0.0
Co1251 Co 0.61305 0.17457 0.19865 0.0
O1252 O 0.61701 0.17112 0.16864 0.0
C1253 C 0.58998 0.21091 0.21327 0.0
C1254 C 0.53401 0.1865 0.18978 0.0
C1255 C 0.60409 0.17938 0.15666 0.0
O1256 O 0.5746 0.20666 0.20164 0.0
O1257 O 0.60586 0.19955 0.2148 0.0
O1258 O 0.56546 0.15247 0.176 0.0
O1259 O 0.58567 0.16332 0.20042 0.0
Co1260 Co 0.41546 0.18091 0.79832 0.0
O1261 O 0.43919 0.17643 0.78123 0.0
O1262 O 0.43903 0.19284 0.81093 0.0
C1263 C 0.40246 0.14892 0.79571 0.0
O1264 O 0.39601 0.18796 0.82154 0.0
Co1265 Co 0.37004 0.17588 0.78643 0.0
O1266 O 0.36627 0.17192 0.81645 0.0
C1267 C 0.394 0.21157 0.77145 0.0
C1268 C 0.4493 0.1863 0.79532 0.0
C1269 C 0.37944 0.17998 0.82832 0.0
O1270 O 0.40926 0.20707 0.78313 0.0
O1271 O 0.37783 0.20057 0.77005 0.0
O1272 O 0.41707 0.15274 0.80877 0.0
O1273 O 0.39715 0.16405 0.78433 0.0
Co1274 Co 0.57163 0.80459 0.798 0.0
O1275 O 0.5477 0.80908 0.78116 0.0
O1276 O 0.5482 0.7927 0.81088 0.0
C1277 C 0.58463 0.83656 0.79531 0.0
O1278 O 0.59143 0.79757 0.82098 0.0
Co1279 Co 0.61686 0.80959 0.78536 0.0
O1280 O 0.62121 0.81337 0.81531 0.0
C1281 C 0.59279 0.77363 0.7712 0.0
C1282 C 0.53774 0.79928 0.79537 0.0
C1283 C 0.60826 0.80534 0.82741 0.0
O1284 O 0.57762 0.77836 0.78285 0.0
O1285 O 0.60896 0.78458 0.76951 0.0
O1286 O 0.57015 0.83274 0.80847 0.0
O1287 O 0.58974 0.82147 0.7838 0.0
Co1288 Co 0.56987 0.68827 0.3067 0.0
O1289 O 0.54564 0.70472 0.31076 0.0
O1290 O 0.54693 0.6753 0.29389 0.0
C1291 C 0.5819 0.69053 0.33908 0.0
O1292 O 0.59011 0.66567 0.29985 0.0
Co1293 Co 0.61477 0.70146 0.31324 0.0
O1294 O 0.61947 0.67148 0.3164 0.0
C1295 C 0.59148 0.71617 0.27703 0.0
C1296 C 0.53612 0.69057 0.30041 0.0
C1297 C 0.60687 0.65935 0.30784 0.0
O1298 O 0.57644 0.70402 0.28096 0.0
O1299 O 0.60726 0.71793 0.28852 0.0
O1300 O 0.5677 0.67724 0.3346 0.0
O1301 O 0.5873 0.70239 0.32436 0.0
Co1302 Co 0.41686 0.29867 0.31243 0.0
O1303 O 0.44154 0.28297 0.31681 0.0
O1304 O 0.43913 0.3112 0.29815 0.0
C1305 C 0.40594 0.29823 0.34526 0.0
O1306 O 0.39599 0.32046 0.30477 0.0
Co1307 Co 0.37249 0.28511 0.32133 0.0
O1308 O 0.36699 0.31511 0.32205 0.0
C1309 C 0.39511 0.26797 0.28582 0.0
C1310 C 0.45046 0.29661 0.30533 0.0
C1311 C 0.37916 0.32689 0.31246 0.0
O1312 O 0.40971 0.28108 0.288 0.0
O1313 O 0.38 0.26655 0.2982 0.0
O1314 O 0.41967 0.31152 0.33953 0.0
O1315 O 0.40035 0.2854 0.33147 0.0
Co1316 Co 0.41565 0.68767 0.67873 0.0
O1317 O 0.44031 0.70343 0.67443 0.0
O1318 O 0.43813 0.67458 0.69216 0.0
C1319 C 0.4041 0.68925 0.64613 0.0
O1320 O 0.39478 0.66573 0.686 0.0
Co1321 Co 0.37116 0.70156 0.67116 0.0
O1322 O 0.36583 0.6716 0.66878 0.0
C1323 C 0.3944 0.71709 0.70709 0.0
C1324 C 0.44939 0.68936 0.68524 0.0
C1325 C 0.37804 0.65948 0.67788 0.0
O1326 O 0.40914 0.70439 0.70387 0.0
O1327 O 0.37886 0.71882 0.69527 0.0
O1328 O 0.41788 0.67576 0.6512 0.0
O1329 O 0.39879 0.70163 0.66044 0.0
Co1330 Co 0.57081 0.2983 0.67718 0.0
O1331 O 0.54637 0.28221 0.67265 0.0
O1332 O 0.54804 0.31111 0.69035 0.0
C1333 C 0.58268 0.29687 0.64474 0.0
O1334 O 0.59138 0.32051 0.68462 0.0
Co1335 Co 0.6155 0.28475 0.67016 0.0
O1336 O 0.62067 0.31474 0.66799 0.0
C1337 C 0.59217 0.26926 0.70598 0.0
C1338 C 0.53703 0.29617 0.68335 0.0
C1339 C 0.60827 0.32679 0.67689 0.0
O1340 O 0.5773 0.28174 0.70246 0.0
O1341 O 0.60783 0.26761 0.69434 0.0
O1342 O 0.56866 0.31016 0.64963 0.0
O1343 O 0.58797 0.28452 0.6591 0.0
C1344 C 0.1086 0.24602 0.22955 0.0
C1345 C 0.09027 0.25471 0.22246 0.0
H1346 H 0.12306 0.22634 0.25115 0.0
C1347 C 0.07177 0.24925 0.232 0.0
H1348 H 0.12313 0.24984 0.22256 0.0
C1349 C 0.07172 0.23536 0.24837 0.0
C1350 C 0.09021 0.22707 0.25561 0.0
H1351 H 0.05739 0.25555 0.2267 0.0
H1352 H 0.05737 0.23157 0.25573 0.0
C1353 C 0.10858 0.23248 0.24593 0.0
C1354 C 0.73094 0.11041 0.23817 0.0
C1355 C 0.72502 0.09207 0.22871 0.0
H1356 H 0.7489 0.12482 0.26121 0.0
C1357 C 0.73311 0.07348 0.23592 0.0
H1358 H 0.72497 0.12498 0.23297 0.0
C1359 C 0.74726 0.0734 0.2521 0.0
C1360 C 0.75318 0.09187 0.26146 0.0
H1361 H 0.72895 0.05914 0.22872 0.0
H1362 H 0.75337 0.05894 0.25742 0.0
C1363 C 0.74472 0.11031 0.25436 0.0
C1364 C 0.91291 0.73589 0.23792 0.0
C1365 C 0.89432 0.72753 0.23099 0.0
H1366 H 0.92756 0.75615 0.25936 0.0
C1367 C 0.87612 0.73287 0.24097 0.0
H1368 H 0.92715 0.73216 0.23033 0.0
C1369 C 0.87633 0.74641 0.25733 0.0
C1370 C 0.89475 0.7552 0.26412 0.0
H1371 H 0.86156 0.72666 0.236 0.0
H1372 H 0.8619 0.75017 0.26453 0.0
C1373 C 0.91311 0.74979 0.2543 0.0
C1374 C 0.25016 0.91255 0.23655 0.0
C1375 C 0.25773 0.89389 0.22899 0.0
H1376 H 0.23072 0.92724 0.25862 0.0
C1377 C 0.25165 0.87555 0.23835 0.0
H1378 H 0.25446 0.92689 0.22945 0.0
C1379 C 0.23825 0.87574 0.25482 0.0
C1380 C 0.23036 0.89427 0.26229 0.0
H1381 H 0.25722 0.86093 0.23289 0.0
H1382 H 0.23394 0.86124 0.26161 0.0
C1383 C 0.2364 0.91272 0.25301 0.0
C1384 C 0.10872 0.72886 0.74148 0.0
C1385 C 0.09069 0.72496 0.75237 0.0
H1386 H 0.12305 0.74502 0.71718 0.0
C1387 C 0.07243 0.73449 0.7462 0.0
H1388 H 0.12301 0.7217 0.74588 0.0
C1389 C 0.07247 0.74831 0.72974 0.0
C1390 C 0.0907 0.75244 0.7191 0.0
H1391 H 0.05835 0.73186 0.75452 0.0
H1392 H 0.0583 0.75571 0.72537 0.0
C1393 C 0.10872 0.74231 0.72503 0.0
C1394 C 0.24896 0.07322 0.75191 0.0
C1395 C 0.25503 0.09192 0.7607 0.0
H1396 H 0.23049 0.0584 0.72901 0.0
C1397 C 0.24677 0.1102 0.75302 0.0
H1398 H 0.25491 0.05887 0.75769 0.0
C1399 C 0.23298 0.10992 0.73683 0.0
C1400 C 0.22686 0.09134 0.72796 0.0
H1401 H 0.25108 0.12488 0.75942 0.0
H1402 H 0.22713 0.12438 0.7312 0.0
C1403 C 0.2348 0.07292 0.73574 0.0
C1404 C 0.91316 0.23713 0.73502 0.0
C1405 C 0.89444 0.23087 0.72639 0.0
H1406 H 0.92798 0.25541 0.75806 0.0
C1407 C 0.87613 0.2385 0.73457 0.0
H1408 H 0.92751 0.23164 0.72886 0.0
C1409 C 0.8764 0.25191 0.75105 0.0
C1410 C 0.895 0.25826 0.75974 0.0
H1411 H 0.86145 0.234 0.7283 0.0
H1412 H 0.86193 0.2573 0.75704 0.0
C1413 C 0.91344 0.2509 0.7515 0.0
C1414 C 0.73883 0.87604 0.75211 0.0
C1415 C 0.73095 0.89436 0.76007 0.0
H1416 H 0.75791 0.86181 0.7299 0.0
C1417 C 0.73707 0.91306 0.75134 0.0
H1418 H 0.73445 0.86137 0.75847 0.0
C1419 C 0.75095 0.91333 0.73497 0.0
C1420 C 0.75854 0.89487 0.72695 0.0
H1421 H 0.7314 0.92743 0.75734 0.0
H1422 H 0.75533 0.92786 0.72831 0.0
C1423 C 0.75234 0.87629 0.73573 0.0
C1424 C 0.24962 0.07215 0.23637 0.0
C1425 C 0.25784 0.09065 0.22908 0.0
H1426 H 0.22701 0.05791 0.25555 0.0
C1427 C 0.2492 0.10921 0.23554 0.0
H1428 H 0.25616 0.05763 0.23179 0.0
C1429 C 0.23273 0.10937 0.24895 0.0
C1430 C 0.22456 0.09099 0.25648 0.0
H1431 H 0.25518 0.12373 0.23021 0.0
H1432 H 0.22646 0.12402 0.25351 0.0
C1433 C 0.23317 0.07232 0.25014 0.0
C1434 C 0.91257 0.25477 0.23741 0.0
C1435 C 0.8942 0.26475 0.23235 0.0
H1436 H 0.92677 0.23065 0.25474 0.0
C1437 C 0.87591 0.25819 0.24154 0.0
H1438 H 0.92692 0.25965 0.23073 0.0
C1439 C 0.87585 0.24182 0.2551 0.0
C1440 C 0.89407 0.23164 0.26004 0.0
H1441 H 0.86147 0.26553 0.23806 0.0
H1442 H 0.86138 0.23698 0.26159 0.0
C1443 C 0.91253 0.2384 0.25132 0.0
C1444 C 0.73486 0.87712 0.23569 0.0
C1445 C 0.72631 0.89564 0.22898 0.0
H1446 H 0.75751 0.86239 0.25386 0.0
C1447 C 0.73466 0.91419 0.23604 0.0
H1448 H 0.72882 0.86256 0.23053 0.0
C1449 C 0.75116 0.91409 0.24983 0.0
C1450 C 0.75967 0.89544 0.25641 0.0
H1451 H 0.72821 0.92868 0.23126 0.0
H1452 H 0.75743 0.92852 0.25506 0.0
C1453 C 0.75134 0.87703 0.24912 0.0
C1454 C 0.10911 0.73554 0.23481 0.0
C1455 C 0.09055 0.72705 0.22813 0.0
H1456 H 0.12399 0.75794 0.25322 0.0
C1457 C 0.07207 0.73524 0.23547 0.0
H1458 H 0.12362 0.72959 0.22945 0.0
C1459 C 0.07229 0.7515 0.24951 0.0
C1460 C 0.09098 0.75995 0.25607 0.0
H1461 H 0.05755 0.72881 0.23072 0.0
H1462 H 0.05791 0.75765 0.25496 0.0
C1463 C 0.10933 0.7518 0.24849 0.0
C1464 C 0.24083 0.87658 0.73197 0.0
C1465 C 0.23087 0.89476 0.72644 0.0
H1466 H 0.26442 0.86248 0.7494 0.0
C1467 C 0.23782 0.91342 0.73464 0.0
H1468 H 0.23586 0.86196 0.7259 0.0
C1469 C 0.25422 0.91372 0.74853 0.0
C1470 C 0.26405 0.89539 0.75408 0.0
H1471 H 0.23025 0.92764 0.73076 0.0
H1472 H 0.25931 0.92822 0.75474 0.0
C1473 C 0.25722 0.87689 0.7455 0.0
C1474 C 0.1097 0.23341 0.73567 0.0
C1475 C 0.09111 0.22532 0.72856 0.0
H1476 H 0.12461 0.25571 0.75419 0.0
C1477 C 0.07265 0.234 0.73535 0.0
H1478 H 0.1242 0.22708 0.73074 0.0
C1479 C 0.07289 0.25041 0.74921 0.0
C1480 C 0.0916 0.25852 0.75612 0.0
H1481 H 0.0581 0.22789 0.73027 0.0
H1482 H 0.05853 0.25698 0.75418 0.0
C1483 C 0.10994 0.24983 0.74916 0.0
C1484 C 0.74982 0.10983 0.73708 0.0
C1485 C 0.75833 0.0915 0.72984 0.0
H1486 H 0.72713 0.12401 0.7556 0.0
C1487 C 0.75002 0.07276 0.73641 0.0
H1488 H 0.75585 0.12453 0.73234 0.0
C1489 C 0.73355 0.07246 0.75016 0.0
C1490 C 0.725 0.0909 0.75718 0.0
H1491 H 0.75645 0.0584 0.73122 0.0
H1492 H 0.72725 0.05789 0.75494 0.0
C1493 C 0.73334 0.10953 0.75047 0.0
C1494 C 0.91353 0.75276 0.7357 0.0
C1495 C 0.89498 0.76152 0.72919 0.0
H1496 H 0.9279 0.72988 0.75451 0.0
C1497 C 0.87651 0.75373 0.73688 0.0
H1498 H 0.928 0.75864 0.73017 0.0
C1499 C 0.87645 0.73752 0.75063 0.0
C1500 C 0.89488 0.72872 0.75726 0.0
H1501 H 0.86195 0.76011 0.73219 0.0
H1502 H 0.86186 0.73184 0.75606 0.0
C1503 C 0.91348 0.73655 0.74981 0.0
C1504 C 0.22894 0.24554 0.10892 0.0
C1505 C 0.22462 0.25585 0.09061 0.0
H1506 H 0.24506 0.22138 0.12359 0.0
C1507 C 0.23347 0.24889 0.07229 0.0
H1508 H 0.22232 0.25055 0.12326 0.0
C1509 C 0.24694 0.23217 0.0725 0.0
C1510 C 0.25137 0.22204 0.09097 0.0
H1511 H 0.23051 0.25673 0.058 0.0
H1512 H 0.25377 0.22714 0.05828 0.0
C1513 C 0.24203 0.22881 0.10909 0.0
C1514 C 0.23796 0.73407 0.87555 0.0
C1515 C 0.23069 0.72587 0.89401 0.0
H1516 H 0.25645 0.75656 0.86095 0.0
C1517 C 0.23717 0.7346 0.91259 0.0
H1518 H 0.23327 0.72774 0.86096 0.0
C1519 C 0.25088 0.75116 0.91259 0.0
C1520 C 0.25794 0.75938 0.89399 0.0
H1521 H 0.23194 0.72842 0.92705 0.0
H1522 H 0.25561 0.75778 0.92703 0.0
C1523 C 0.25131 0.75062 0.87554 0.0
C1524 C 0.23719 0.25031 0.91349 0.0
C1525 C 0.22911 0.25712 0.89473 0.0
H1526 H 0.25973 0.23152 0.9284 0.0
C1527 C 0.23787 0.25014 0.87643 0.0
H1528 H 0.23056 0.2553 0.92782 0.0
C1529 C 0.25433 0.23672 0.87677 0.0
C1530 C 0.2624 0.22972 0.8954 0.0
H1531 H 0.23202 0.25509 0.86173 0.0
H1532 H 0.2607 0.23177 0.8623 0.0
C1533 C 0.25364 0.23653 0.91382 0.0
C1534 C 0.73777 0.23336 0.87602 0.0
C1535 C 0.73012 0.22535 0.89442 0.0
H1536 H 0.75687 0.25548 0.86161 0.0
C1537 C 0.73662 0.23394 0.91306 0.0
H1538 H 0.7331 0.22711 0.86139 0.0
C1539 C 0.75067 0.25021 0.91319 0.0
C1540 C 0.75808 0.25827 0.89467 0.0
H1541 H 0.73112 0.2279 0.92747 0.0
H1542 H 0.75536 0.25674 0.92768 0.0
C1543 C 0.75146 0.24963 0.87615 0.0
C1544 C 0.75221 0.73575 0.91366 0.0
C1545 C 0.76065 0.72889 0.89511 0.0
H1546 H 0.72938 0.75455 0.92803 0.0
C1547 C 0.75221 0.73579 0.8766 0.0
H1548 H 0.75858 0.73081 0.92815 0.0
C1549 C 0.73573 0.74919 0.87653 0.0
C1550 C 0.72731 0.75624 0.89496 0.0
H1551 H 0.75834 0.7308 0.86204 0.0
H1552 H 0.7296 0.75407 0.86192 0.0
C1553 C 0.73574 0.74951 0.91359 0.0
C1554 C 0.73343 0.75022 0.10979 0.0
C1555 C 0.72726 0.75928 0.09133 0.0
H1556 H 0.75106 0.72707 0.12439 0.0
C1557 C 0.73464 0.75132 0.07276 0.0
H1558 H 0.728 0.75597 0.12434 0.0
C1559 C 0.74828 0.73474 0.07279 0.0
C1560 C 0.75436 0.72573 0.09137 0.0
H1561 H 0.73026 0.75817 0.05832 0.0
H1562 H 0.7538 0.7288 0.05835 0.0
C1563 C 0.7467 0.73363 0.1098 0.0
C1564 C 0.2507 0.74796 0.10831 0.0
C1565 C 0.25881 0.75543 0.08989 0.0
H1566 H 0.2283 0.72927 0.1228 0.0
C1567 C 0.25009 0.74903 0.07127 0.0
H1568 H 0.25703 0.75256 0.12292 0.0
C1569 C 0.23358 0.73525 0.0712 0.0
C1570 C 0.22542 0.72804 0.08975 0.0
H1571 H 0.2562 0.7544 0.05684 0.0
H1572 H 0.22694 0.73061 0.05673 0.0
C1573 C 0.23421 0.73455 0.10824 0.0
C1574 C 0.74774 0.25122 0.10974 0.0
C1575 C 0.75681 0.25766 0.09138 0.0
H1576 H 0.72462 0.23331 0.12406 0.0
C1577 C 0.74894 0.25038 0.07271 0.0
H1578 H 0.75343 0.25654 0.12438 0.0
C1579 C 0.73241 0.23665 0.07253 0.0
C1580 C 0.72337 0.23035 0.09101 0.0
H1581 H 0.75581 0.25495 0.05834 0.0
H1582 H 0.72652 0.23125 0.05801 0.0
C1583 C 0.73121 0.23785 0.10955 0.0
C1584 C 0.73664 0.57227 0.73409 0.0
C1585 C 0.72981 0.59079 0.7255 0.0
H1586 H 0.75552 0.55801 0.75698 0.0
C1587 C 0.73701 0.60934 0.73362 0.0
H1588 H 0.73149 0.55775 0.72797 0.0
C1589 C 0.75059 0.60948 0.74999 0.0
C1590 C 0.75753 0.59108 0.75862 0.0
H1591 H 0.73209 0.62388 0.72737 0.0
H1592 H 0.75566 0.62413 0.7559 0.0
C1593 C 0.75056 0.57242 0.75046 0.0
C1594 C 0.23703 0.41319 0.75094 0.0
C1595 C 0.23095 0.39454 0.75982 0.0
H1596 H 0.25522 0.42784 0.72777 0.0
C1597 C 0.23886 0.37617 0.75201 0.0
H1598 H 0.23132 0.42759 0.75682 0.0
C1599 C 0.25236 0.37632 0.73562 0.0
C1600 C 0.25851 0.39485 0.72667 0.0
H1601 H 0.23452 0.36154 0.75848 0.0
H1602 H 0.25796 0.36181 0.72991 0.0
C1603 C 0.25088 0.41335 0.73456 0.0
C1604 C 0.23251 0.60921 0.23784 0.0
C1605 C 0.22647 0.5908 0.22859 0.0
H1606 H 0.25054 0.62377 0.26074 0.0
C1607 C 0.2344 0.57224 0.23605 0.0
H1608 H 0.22667 0.62377 0.23246 0.0
C1609 C 0.2485 0.57225 0.25227 0.0
C1610 C 0.25454 0.59079 0.26141 0.0
H1611 H 0.23013 0.55785 0.22902 0.0
H1612 H 0.25447 0.55781 0.25779 0.0
C1613 C 0.24626 0.60921 0.25406 0.0
C1614 C 0.75059 0.41417 0.23499 0.0
C1615 C 0.75764 0.39553 0.22687 0.0
H1616 H 0.73166 0.42875 0.25757 0.0
C1617 C 0.75096 0.3771 0.23565 0.0
H1618 H 0.75535 0.42859 0.22836 0.0
C1619 C 0.73758 0.37719 0.25213 0.0
C1620 C 0.73031 0.39571 0.26022 0.0
H1621 H 0.7561 0.36248 0.22976 0.0
H1622 H 0.73285 0.36263 0.2585 0.0
C1623 C 0.73686 0.41425 0.25147 0.0
C1624 C 0.2486 0.60992 0.73352 0.0
C1625 C 0.25764 0.59155 0.72712 0.0
H1626 H 0.22563 0.62429 0.75154 0.0
C1627 C 0.24986 0.57289 0.73451 0.0
H1628 H 0.25423 0.62455 0.7281 0.0
C1629 C 0.23348 0.57274 0.74836 0.0
C1630 C 0.22449 0.59123 0.75467 0.0
H1631 H 0.25672 0.55851 0.72997 0.0
H1632 H 0.22768 0.55822 0.75387 0.0
C1633 C 0.2322 0.60977 0.74701 0.0
C1634 C 0.73682 0.3753 0.73608 0.0
C1635 C 0.72846 0.39368 0.72876 0.0
H1636 H 0.75907 0.36099 0.75511 0.0
C1637 C 0.73661 0.41237 0.73568 0.0
H1638 H 0.7309 0.36064 0.73108 0.0
C1639 C 0.75274 0.41258 0.74987 0.0
C1640 C 0.76112 0.39409 0.75701 0.0
H1641 H 0.73028 0.42677 0.73045 0.0
H1642 H 0.7589 0.42712 0.75493 0.0
C1643 C 0.75297 0.37551 0.74992 0.0
C1644 C 0.23556 0.41285 0.23672 0.0
C1645 C 0.22744 0.39428 0.22948 0.0
H1646 H 0.25797 0.42727 0.25609 0.0
C1647 C 0.23604 0.37579 0.23622 0.0
H1648 H 0.22906 0.42732 0.23191 0.0
C1649 C 0.25233 0.37576 0.24988 0.0
C1650 C 0.26042 0.39421 0.25735 0.0
H1651 H 0.23016 0.36121 0.23094 0.0
H1652 H 0.25854 0.36115 0.25465 0.0
C1653 C 0.25187 0.41282 0.25073 0.0
C1654 C 0.75143 0.6111 0.23807 0.0
C1655 C 0.75932 0.59259 0.23058 0.0
H1656 H 0.72943 0.62577 0.25707 0.0
C1657 C 0.75069 0.57404 0.23727 0.0
H1658 H 0.75773 0.62566 0.23325 0.0
C1659 C 0.7345 0.5741 0.25134 0.0
C1660 C 0.72655 0.59273 0.25858 0.0
H1661 H 0.75665 0.55954 0.23191 0.0
H1662 H 0.72794 0.55967 0.25618 0.0
C1663 C 0.73521 0.61117 0.25178 0.0
C1664 C 0.23704 0.75242 0.57246 0.0
C1665 C 0.23038 0.76102 0.59101 0.0
H1666 H 0.25596 0.72971 0.55807 0.0
C1667 C 0.23798 0.75316 0.60951 0.0
H1668 H 0.23161 0.75836 0.55797 0.0
C1669 C 0.25175 0.73698 0.60956 0.0
C1670 C 0.2585 0.72832 0.59111 0.0
H1671 H 0.23319 0.75945 0.62407 0.0
H1672 H 0.25711 0.73121 0.62415 0.0
C1673 C 0.25116 0.73627 0.57251 0.0
C1674 C 0.23785 0.23385 0.37613 0.0
C1675 C 0.22988 0.22604 0.39448 0.0
H1676 H 0.2575 0.25555 0.36181 0.0
C1677 C 0.23638 0.23457 0.41315 0.0
H1678 H 0.2332 0.22764 0.36147 0.0
C1679 C 0.25073 0.25057 0.41335 0.0
C1680 C 0.25847 0.25842 0.39487 0.0
H1681 H 0.23065 0.22868 0.42753 0.0
H1682 H 0.25539 0.25708 0.42786 0.0
C1683 C 0.25186 0.24985 0.37632 0.0
C1684 C 0.23699 0.74971 0.37511 0.0
C1685 C 0.22861 0.75681 0.39355 0.0
H1686 H 0.25932 0.73096 0.36065 0.0
C1687 C 0.23681 0.74981 0.41218 0.0
H1688 H 0.23102 0.75479 0.3605 0.0
C1689 C 0.25301 0.73574 0.41226 0.0
C1690 C 0.26139 0.72881 0.39372 0.0
H1691 H 0.23046 0.75487 0.42661 0.0
H1692 H 0.25919 0.73061 0.42676 0.0
C1693 C 0.2532 0.73599 0.3752 0.0
C1694 C 0.74981 0.75159 0.37633 0.0
C1695 C 0.75674 0.76017 0.39476 0.0
H1696 H 0.73104 0.72924 0.36183 0.0
C1697 C 0.7494 0.75226 0.41338 0.0
H1698 H 0.75515 0.75733 0.36172 0.0
C1699 C 0.73517 0.73616 0.41343 0.0
C1700 C 0.7284 0.72759 0.39488 0.0
H1701 H 0.75432 0.75877 0.42781 0.0
H1702 H 0.72977 0.7302 0.42792 0.0
C1703 C 0.73592 0.73549 0.37639 0.0
C1704 C 0.73723 0.25038 0.37551 0.0
C1705 C 0.72855 0.25735 0.39385 0.0
H1706 H 0.75967 0.23161 0.36125 0.0
C1707 C 0.73636 0.2501 0.41256 0.0
H1708 H 0.73157 0.25564 0.36084 0.0
C1709 C 0.75246 0.23591 0.41279 0.0
C1710 C 0.76113 0.22911 0.39433 0.0
H1711 H 0.72977 0.25506 0.42692 0.0
H1712 H 0.75835 0.23059 0.42734 0.0
C1713 C 0.75334 0.23654 0.37575 0.0
C1714 C 0.7486 0.23494 0.6095 0.0
C1715 C 0.75584 0.22652 0.59113 0.0
H1716 H 0.73001 0.25751 0.62379 0.0
C1717 C 0.74921 0.23487 0.57244 0.0
H1718 H 0.7534 0.22887 0.62416 0.0
C1719 C 0.7354 0.2513 0.57222 0.0
C1720 C 0.72837 0.25974 0.5907 0.0
H1721 H 0.75441 0.22851 0.55805 0.0
H1722 H 0.73057 0.25763 0.55768 0.0
C1723 C 0.73514 0.25136 0.60928 0.0
C1724 C 0.23364 0.23416 0.61007 0.0
C1725 C 0.22511 0.22762 0.59146 0.0
H1726 H 0.25607 0.25248 0.62503 0.0
C1727 C 0.23327 0.23509 0.57302 0.0
H1728 H 0.22771 0.22868 0.62454 0.0
C1729 C 0.24952 0.24915 0.57331 0.0
C1730 C 0.25799 0.2556 0.59203 0.0
H1731 H 0.22682 0.23045 0.55847 0.0
H1732 H 0.25563 0.2547 0.55895 0.0
C1733 C 0.2499 0.24786 0.61035 0.0
C1734 C 0.74941 0.75055 0.57333 0.0
C1735 C 0.75769 0.75767 0.59188 0.0
H1736 H 0.72706 0.7311 0.55895 0.0
C1737 C 0.74943 0.75058 0.61039 0.0
H1738 H 0.75565 0.75562 0.55884 0.0
C1739 C 0.73331 0.73672 0.61045 0.0
C1740 C 0.72507 0.72938 0.59202 0.0
H1741 H 0.75545 0.75576 0.62495 0.0
H1742 H 0.72734 0.73169 0.62507 0.0
C1743 C 0.73329 0.73634 0.57339 0.0
C1744 C 0.57303 0.23535 0.74917 0.0
C1745 C 0.59161 0.22793 0.75709 0.0
H1746 H 0.55856 0.25483 0.72693 0.0
C1747 C 0.61006 0.23447 0.74827 0.0
H1748 H 0.55859 0.23071 0.75585 0.0
C1749 C 0.61004 0.2481 0.73196 0.0
C1750 C 0.59158 0.25575 0.72408 0.0
H1751 H 0.62463 0.22906 0.75401 0.0
H1752 H 0.62461 0.25272 0.72557 0.0
C1753 C 0.57302 0.24933 0.73286 0.0
C1754 C 0.37668 0.73899 0.73252 0.0
C1755 C 0.39506 0.73082 0.72504 0.0
H1756 H 0.36223 0.75858 0.75416 0.0
C1757 C 0.41365 0.73694 0.73403 0.0
H1758 H 0.36209 0.73464 0.72594 0.0
C1759 C 0.41374 0.75108 0.75019 0.0
C1760 C 0.39522 0.75897 0.75775 0.0
H1761 H 0.42806 0.73104 0.7284 0.0
H1762 H 0.42818 0.75544 0.75708 0.0
C1763 C 0.37675 0.75278 0.74869 0.0
C1764 C 0.57226 0.7363 0.25036 0.0
C1765 C 0.59084 0.72928 0.25865 0.0
H1766 H 0.55782 0.75537 0.22776 0.0
C1767 C 0.60932 0.73612 0.25013 0.0
H1768 H 0.5578 0.73142 0.25681 0.0
C1769 C 0.60933 0.74964 0.23372 0.0
C1770 C 0.59087 0.75689 0.22548 0.0
H1771 H 0.62389 0.73101 0.25615 0.0
H1772 H 0.62392 0.7545 0.22754 0.0
C1773 C 0.57228 0.75018 0.23398 0.0
C1774 C 0.41309 0.24927 0.25721 0.0
C1775 C 0.39519 0.25359 0.26832 0.0
H1776 H 0.42638 0.23248 0.23223 0.0
C1777 C 0.37696 0.24345 0.26305 0.0
H1778 H 0.42741 0.25667 0.26107 0.0
C1779 C 0.37641 0.22979 0.24678 0.0
C1780 C 0.39409 0.2257 0.23541 0.0
H1781 H 0.36287 0.24629 0.27127 0.0
H1782 H 0.36196 0.22262 0.24289 0.0
C1783 C 0.41257 0.23526 0.24093 0.0
C1784 C 0.37646 0.23912 0.75216 0.0
C1785 C 0.39485 0.22996 0.75836 0.0
H1786 H 0.36199 0.26199 0.73405 0.0
C1787 C 0.41344 0.23748 0.75057 0.0
H1788 H 0.36189 0.23369 0.75787 0.0
C1789 C 0.4135 0.25371 0.73649 0.0
C1790 C 0.39499 0.2628 0.73035 0.0
H1791 H 0.42782 0.23051 0.75494 0.0
H1792 H 0.42796 0.2593 0.73066 0.0
C1793 C 0.37653 0.25535 0.73844 0.0
C1794 C 0.57313 0.73097 0.73699 0.0
C1795 C 0.5916 0.72159 0.73119 0.0
H1796 H 0.5589 0.75467 0.75481 0.0
C1797 C 0.61006 0.72897 0.73937 0.0
H1798 H 0.55866 0.72544 0.73109 0.0
C1799 C 0.61019 0.74547 0.75276 0.0
C1800 C 0.59185 0.75497 0.75854 0.0
H1801 H 0.62457 0.72212 0.73527 0.0
H1802 H 0.62477 0.75088 0.75853 0.0
C1803 C 0.57325 0.74746 0.75074 0.0
C1804 C 0.60834 0.23851 0.23172 0.0
C1805 C 0.58968 0.22948 0.22611 0.0
H1806 H 0.6236 0.2613 0.24931 0.0
C1807 C 0.57141 0.23725 0.23434 0.0
H1808 H 0.62268 0.23288 0.22564 0.0
C1809 C 0.57195 0.25354 0.24834 0.0
C1810 C 0.59074 0.26245 0.25396 0.0
H1811 H 0.55683 0.2304 0.23042 0.0
H1812 H 0.55772 0.25929 0.25456 0.0
C1813 C 0.60886 0.25481 0.24536 0.0
C1814 C 0.41258 0.7516 0.23516 0.0
C1815 C 0.39401 0.76028 0.22863 0.0
H1816 H 0.42702 0.72867 0.25385 0.0
C1817 C 0.37555 0.75225 0.23609 0.0
H1818 H 0.42705 0.75765 0.22981 0.0
C1819 C 0.37553 0.7359 0.24967 0.0
C1820 C 0.39399 0.72721 0.25635 0.0
H1821 H 0.36097 0.75857 0.23137 0.0
H1822 H 0.36095 0.73007 0.25496 0.0
C1823 C 0.41257 0.73525 0.2491 0.0
C1824 C 0.11277 0.12772 0.28445 0.0
C1825 C 0.11136 0.1364 0.30398 0.0
H1826 H 0.12433 0.10277 0.26672 0.0
C1827 C 0.11608 0.12442 0.32118 0.0
H1828 H 0.1089 0.13659 0.27099 0.0
C1829 C 0.12379 0.10458 0.3188 0.0
C1830 C 0.12796 0.09707 0.29917 0.0
H1831 H 0.1147 0.13066 0.33642 0.0
H1832 H 0.12867 0.09613 0.33218 0.0
C1833 C 0.12126 0.10827 0.28205 0.0
C1834 C 0.85379 0.11886 0.28395 0.0
C1835 C 0.84663 0.11531 0.30381 0.0
H1836 H 0.87734 0.13236 0.26563 0.0
C1837 C 0.85975 0.11882 0.32049 0.0
H1838 H 0.84402 0.11603 0.27085 0.0
C1839 C 0.87926 0.12713 0.31745 0.0
C1840 C 0.8854 0.13302 0.2978 0.0
H1841 H 0.85472 0.11591 0.33592 0.0
H1842 H 0.8886 0.13088 0.33062 0.0
C1843 C 0.87294 0.1279 0.28098 0.0
C1844 C 0.86836 0.86178 0.32304 0.0
C1845 C 0.87275 0.84884 0.30646 0.0
H1846 H 0.85612 0.89068 0.33272 0.0
C1847 C 0.87075 0.85638 0.28651 0.0
H1848 H 0.87016 0.85648 0.33857 0.0
C1849 C 0.8622 0.8757 0.2832 0.0
C1850 C 0.85605 0.88793 0.2998 0.0
H1851 H 0.87435 0.84678 0.2735 0.0
H1852 H 0.85884 0.88036 0.26764 0.0
C1853 C 0.86059 0.88146 0.31972 0.0
C1854 C 0.12989 0.87066 0.28671 0.0
C1855 C 0.13782 0.87245 0.30653 0.0
H1856 H 0.10556 0.85891 0.26818 0.0
C1857 C 0.12519 0.86795 0.32331 0.0
H1858 H 0.13924 0.87439 0.27355 0.0
C1859 C 0.10544 0.86021 0.32028 0.0
C1860 C 0.09862 0.85579 0.30044 0.0
H1861 H 0.13078 0.86964 0.33876 0.0
H1862 H 0.09645 0.85563 0.3334 0.0
C1863 C 0.11052 0.86214 0.28367 0.0
C1864 C 0.11908 0.85298 0.69932 0.0
C1865 C 0.11549 0.84639 0.67927 0.0
H1866 H 0.13247 0.87606 0.71834 0.0
C1867 C 0.11899 0.85998 0.66298 0.0
H1868 H 0.11623 0.84285 0.71213 0.0
C1869 C 0.1273 0.87939 0.66658 0.0
C1870 C 0.13313 0.88503 0.68642 0.0
H1871 H 0.11603 0.8554 0.64741 0.0
H1872 H 0.131 0.8891 0.65368 0.0
C1873 C 0.12807 0.87207 0.70286 0.0
C1874 C 0.12281 0.11637 0.6639 0.0
C1875 C 0.13493 0.11157 0.681 0.0
H1876 H 0.09454 0.12917 0.65314 0.0
C1877 C 0.12643 0.11303 0.70059 0.0
H1878 H 0.1289 0.11499 0.64861 0.0
C1879 C 0.10707 0.12166 0.70316 0.0
C1880 C 0.09577 0.12844 0.68614 0.0
H1881 H 0.1354 0.1091 0.71398 0.0
H1882 H 0.10174 0.12477 0.71854 0.0
C1883 C 0.10306 0.12421 0.66645 0.0
C1884 C 0.86113 0.1112 0.70438 0.0
C1885 C 0.85498 0.09929 0.68751 0.0
H1886 H 0.8732 0.13995 0.71469 0.0
C1887 C 0.85955 0.10614 0.66774 0.0
H1888 H 0.85775 0.10622 0.71982 0.0
C1889 C 0.86727 0.12592 0.66482 0.0
C1890 C 0.87159 0.13855 0.68168 0.0
H1891 H 0.8551 0.09716 0.65456 0.0
H1892 H 0.86907 0.13156 0.64941 0.0
C1893 C 0.86963 0.1306 0.70147 0.0
C1894 C 0.85837 0.87278 0.69924 0.0
C1895 C 0.84981 0.87419 0.67965 0.0
H1896 H 0.88317 0.8612 0.71721 0.0
C1897 C 0.8619 0.8694 0.66256 0.0
H1898 H 0.84944 0.87673 0.71262 0.0
C1899 C 0.88169 0.86164 0.66512 0.0
C1900 C 0.88906 0.85747 0.68481 0.0
H1901 H 0.85578 0.8708 0.64727 0.0
H1902 H 0.89022 0.85674 0.65182 0.0
C1903 C 0.87777 0.86424 0.70182 0.0
C1904 C 0.32167 0.11729 0.1258 0.0
C1905 C 0.30472 0.11174 0.13777 0.0
H1906 H 0.33204 0.12994 0.09732 0.0
C1907 C 0.28516 0.11205 0.129 0.0
H1908 H 0.33695 0.11674 0.13207 0.0
C1909 C 0.28236 0.12026 0.10947 0.0
C1910 C 0.29913 0.1277 0.09825 0.0
H1911 H 0.27191 0.10748 0.13782 0.0
H1912 H 0.2669 0.12244 0.10387 0.0
C1913 C 0.31892 0.12461 0.10586 0.0
C1914 C 0.85969 0.28287 0.11207 0.0
C1915 C 0.85389 0.29946 0.09963 0.0
H1916 H 0.8718 0.27326 0.14106 0.0
C1917 C 0.85888 0.31936 0.10584 0.0
H1918 H 0.85598 0.26734 0.1076 0.0
C1919 C 0.86684 0.32275 0.12544 0.0
C1920 C 0.87095 0.30623 0.13857 0.0
H1921 H 0.85467 0.33235 0.09647 0.0
H1922 H 0.86903 0.3383 0.13052 0.0
C1923 C 0.86843 0.28623 0.1313 0.0
C1924 C 0.70049 0.87178 0.12917 0.0
C1925 C 0.68074 0.87377 0.13717 0.0
H1926 H 0.71874 0.8597 0.10485 0.0
C1927 C 0.66383 0.8693 0.12465 0.0
H1928 H 0.71374 0.87542 0.13846 0.0
C1929 C 0.66667 0.86141 0.10494 0.0
C1930 C 0.68642 0.85683 0.09806 0.0
H1931 H 0.64844 0.87105 0.13035 0.0
H1932 H 0.65344 0.85679 0.09609 0.0
C1933 C 0.70332 0.86312 0.10984 0.0
C1934 C 0.11331 0.70032 0.12776 0.0
C1935 C 0.11161 0.68068 0.13616 0.0
H1936 H 0.1251 0.71831 0.10307 0.0
C1937 C 0.1163 0.66361 0.12398 0.0
H1938 H 0.10951 0.71369 0.13678 0.0
C1939 C 0.12407 0.6662 0.1042 0.0
C1940 C 0.12838 0.6859 0.09691 0.0
H1941 H 0.11478 0.64829 0.12999 0.0
H1942 H 0.1288 0.6529 0.09557 0.0
C1943 C 0.1219 0.70292 0.10837 0.0
C1944 C 0.28367 0.86241 0.87412 0.0
C1945 C 0.30032 0.85633 0.88636 0.0
H1946 H 0.27388 0.87465 0.84526 0.0
C1947 C 0.3202 0.86102 0.87992 0.0
H1948 H 0.26815 0.85892 0.87876 0.0
C1949 C 0.32347 0.86891 0.86028 0.0
C1950 C 0.30685 0.87327 0.84735 0.0
H1951 H 0.33323 0.85659 0.88914 0.0
H1952 H 0.33898 0.87084 0.855 0.0
C1953 C 0.28692 0.87108 0.85486 0.0
C1954 C 0.12709 0.31814 0.88 0.0
C1955 C 0.13197 0.29843 0.88685 0.0
H1956 H 0.11707 0.33628 0.85465 0.0
C1957 C 0.12594 0.28146 0.87505 0.0
H1958 H 0.13148 0.33141 0.88889 0.0
C1959 C 0.11718 0.28421 0.85574 0.0
C1960 C 0.11486 0.30395 0.84778 0.0
H1961 H 0.12957 0.26607 0.88003 0.0
H1962 H 0.11371 0.27092 0.84644 0.0
C1963 C 0.1191 0.32091 0.86031 0.0
C1964 C 0.66567 0.12508 0.88087 0.0
C1965 C 0.6855 0.12941 0.88776 0.0
H1966 H 0.64726 0.11559 0.85548 0.0
C1967 C 0.70228 0.12279 0.87605 0.0
H1968 H 0.65254 0.12988 0.88972 0.0
C1969 C 0.69929 0.1141 0.85676 0.0
C1970 C 0.6795 0.11242 0.84871 0.0
H1971 H 0.71777 0.12596 0.88107 0.0
H1972 H 0.71246 0.1102 0.84752 0.0
C1973 C 0.66268 0.11717 0.86119 0.0
C1974 C 0.86917 0.66464 0.86147 0.0
C1975 C 0.87394 0.68183 0.84946 0.0
H1976 H 0.85669 0.6537 0.88982 0.0
C1977 C 0.8726 0.70136 0.85814 0.0
H1978 H 0.87043 0.6494 0.85525 0.0
C1979 C 0.86418 0.70381 0.87761 0.0
C1980 C 0.85751 0.68671 0.88887 0.0
H1981 H 0.87649 0.71481 0.84925 0.0
H1982 H 0.86118 0.71916 0.88311 0.0
C1983 C 0.86157 0.66707 0.88134 0.0
C1984 C 0.12631 0.28625 0.11176 0.0
C1985 C 0.13528 0.3057 0.11112 0.0
H1986 H 0.10108 0.26842 0.12255 0.0
C1987 C 0.1235 0.32289 0.1163 0.0
H1988 H 0.13501 0.27282 0.10747 0.0
C1989 C 0.10358 0.32047 0.1238 0.0
C1990 C 0.09583 0.3008 0.12731 0.0
H1991 H 0.12996 0.33809 0.11544 0.0
H1992 H 0.09527 0.33377 0.12907 0.0
C1993 C 0.10679 0.28379 0.12004 0.0
C1994 C 0.12593 0.66553 0.86596 0.0
C1995 C 0.13909 0.68222 0.8693 0.0
H1996 H 0.09712 0.65533 0.85388 0.0
C1997 C 0.13204 0.70206 0.86541 0.0
H1998 H 0.13091 0.65012 0.8691 0.0
C1999 C 0.11292 0.70499 0.85628 0.0
C2000 C 0.1004 0.68815 0.85139 0.0
H2001 H 0.14186 0.71516 0.86809 0.0
H2002 H 0.10859 0.7203 0.85163 0.0
C2003 C 0.10648 0.66853 0.8575 0.0
C2004 C 0.28721 0.13017 0.87129 0.0
C2005 C 0.30706 0.13802 0.87306 0.0
H2006 H 0.26854 0.10604 0.85937 0.0
C2007 C 0.32378 0.12539 0.86834 0.0
H2008 H 0.27411 0.13952 0.87518 0.0
C2009 C 0.32063 0.10574 0.86039 0.0
C2010 C 0.30075 0.09904 0.856 0.0
H2011 H 0.33925 0.13093 0.87002 0.0
H2012 H 0.33369 0.09675 0.85567 0.0
C2013 C 0.28407 0.11091 0.86257 0.0
C2014 C 0.86245 0.32171 0.86925 0.0
C2015 C 0.85019 0.30464 0.87382 0.0
H2016 H 0.89087 0.33241 0.85676 0.0
C2017 C 0.85854 0.285 0.87214 0.0
H2018 H 0.85647 0.33702 0.87079 0.0
C2019 C 0.87794 0.28238 0.8636 0.0
C2020 C 0.88944 0.2994 0.85714 0.0
H2021 H 0.84947 0.27163 0.87588 0.0
H2022 H 0.88319 0.267 0.86036 0.0
C2023 C 0.88223 0.3191 0.8615 0.0
C2024 C 0.70092 0.85635 0.87118 0.0
C2025 C 0.68126 0.84795 0.87259 0.0
H2026 H 0.71907 0.88105 0.85965 0.0
C2027 C 0.66426 0.86016 0.86773 0.0
H2028 H 0.71422 0.84732 0.87518 0.0
C2029 C 0.66698 0.87996 0.86001 0.0
C2030 C 0.68671 0.88722 0.85593 0.0
H2031 H 0.64893 0.85418 0.86909 0.0
H2032 H 0.65374 0.88864 0.85515 0.0
C2033 C 0.70364 0.87575 0.86264 0.0
C2034 C 0.85341 0.702 0.11877 0.0
C2035 C 0.84616 0.68212 0.11544 0.0
H2036 H 0.87708 0.72042 0.13197 0.0
C2037 C 0.85921 0.66544 0.11908 0.0
H2038 H 0.84369 0.71509 0.11581 0.0
C2039 C 0.87875 0.66852 0.12732 0.0
C2040 C 0.885 0.68823 0.13298 0.0
H2041 H 0.8541 0.64998 0.11632 0.0
H2042 H 0.88804 0.65537 0.13117 0.0
C2043 C 0.8726 0.70503 0.12771 0.0
C2044 C 0.31706 0.87988 0.12583 0.0
C2045 C 0.29736 0.8864 0.13111 0.0
H2046 H 0.33537 0.85493 0.11524 0.0
C2047 C 0.28046 0.87434 0.12536 0.0
H2048 H 0.33028 0.88894 0.13005 0.0
C2049 C 0.28332 0.85515 0.1164 0.0
C2050 C 0.30312 0.84755 0.11357 0.0
H2051 H 0.26508 0.87904 0.12932 0.0
H2052 H 0.27012 0.84565 0.11312 0.0
C2053 C 0.31996 0.86032 0.11761 0.0
C2054 C 0.66142 0.12595 0.11794 0.0
C2055 C 0.67828 0.13859 0.11366 0.0
H2056 H 0.6511 0.09739 0.13051 0.0
C2057 C 0.69807 0.13086 0.11626 0.0
H2058 H 0.64601 0.13144 0.11571 0.0
C2059 C 0.70094 0.11168 0.12525 0.0
C2060 C 0.68404 0.09975 0.13122 0.0
H2061 H 0.71129 0.14025 0.11279 0.0
H2062 H 0.71634 0.10688 0.12904 0.0
C2063 C 0.66431 0.10638 0.12615 0.0
C2064 C 0.11707 0.62386 0.81999 0.0
C2065 C 0.11202 0.63548 0.80262 0.0
H2066 H 0.12983 0.59576 0.83128 0.0
C2067 C 0.11282 0.62633 0.78328 0.0
H2068 H 0.11613 0.63049 0.8351 0.0
C2069 C 0.12115 0.60678 0.78111 0.0
C2070 C 0.1283 0.59599 0.7983 0.0
H2071 H 0.10865 0.63491 0.76972 0.0
H2072 H 0.12383 0.60094 0.76583 0.0
C2073 C 0.12461 0.60392 0.81785 0.0
C2074 C 0.87636 0.6253 0.7817 0.0
C2075 C 0.8881 0.63149 0.79867 0.0
H2076 H 0.84787 0.61279 0.77117 0.0
C2077 C 0.88131 0.62656 0.81837 0.0
H2078 H 0.88129 0.62898 0.76632 0.0
C2079 C 0.86171 0.61838 0.82114 0.0
C2080 C 0.84921 0.61398 0.80419 0.0
H2081 H 0.89015 0.63108 0.83163 0.0
H2082 H 0.85606 0.61634 0.83651 0.0
C2083 C 0.85714 0.61635 0.78445 0.0
C2084 C 0.86926 0.36186 0.82333 0.0
C2085 C 0.87413 0.34961 0.80637 0.0
H2086 H 0.85653 0.39029 0.83374 0.0
C2087 C 0.87275 0.35795 0.78669 0.0
H2088 H 0.87061 0.35591 0.83868 0.0
C2089 C 0.86419 0.37732 0.78389 0.0
C2090 C 0.85739 0.38879 0.80077 0.0
H2091 H 0.87675 0.34888 0.77341 0.0
H2092 H 0.86118 0.38255 0.76844 0.0
C2093 C 0.86149 0.38163 0.82054 0.0
C2094 C 0.12603 0.36744 0.82139 0.0
C2095 C 0.13854 0.3719 0.8045 0.0
H2096 H 0.09737 0.35516 0.83171 0.0
C2097 C 0.13048 0.37002 0.78474 0.0
H2098 H 0.13175 0.36916 0.83679 0.0
C2099 C 0.11109 0.36146 0.78187 0.0
C2100 C 0.09931 0.3552 0.79874 0.0
H2101 H 0.13974 0.37369 0.7715 0.0
H2102 H 0.10604 0.35815 0.76642 0.0
C2103 C 0.10626 0.3597 0.81851 0.0
C2104 C 0.11836 0.3607 0.16319 0.0
C2105 C 0.11379 0.34789 0.17984 0.0
H2106 H 0.13086 0.38946 0.15339 0.0
C2107 C 0.11589 0.3555 0.19975 0.0
H2108 H 0.1165 0.35535 0.14769 0.0
C2109 C 0.12467 0.37473 0.20297 0.0
C2110 C 0.13092 0.38684 0.18631 0.0
H2111 H 0.11215 0.346 0.21281 0.0
H2112 H 0.12809 0.37944 0.2185 0.0
C2113 C 0.12633 0.38032 0.16643 0.0
C2114 C 0.12661 0.61446 0.20105 0.0
C2115 C 0.13506 0.61266 0.18147 0.0
H2116 H 0.10202 0.6266 0.21888 0.0
C2117 C 0.12297 0.6174 0.16432 0.0
H2118 H 0.13557 0.61063 0.21447 0.0
C2119 C 0.10328 0.62541 0.1668 0.0
C2120 C 0.09601 0.62988 0.18645 0.0
H2121 H 0.12903 0.6158 0.14905 0.0
H2122 H 0.09476 0.63025 0.15345 0.0
C2123 C 0.10732 0.62328 0.20354 0.0
C2124 C 0.85962 0.60517 0.16765 0.0
C2125 C 0.85555 0.59757 0.18726 0.0
H2126 H 0.8686 0.63138 0.15012 0.0
C2127 C 0.86246 0.60863 0.2044 0.0
H2128 H 0.8546 0.59681 0.15427 0.0
C2129 C 0.87097 0.6281 0.20204 0.0
C2130 C 0.8722 0.63692 0.18257 0.0
H2131 H 0.8595 0.60304 0.21972 0.0
H2132 H 0.87498 0.63688 0.21553 0.0
C2133 C 0.86734 0.62503 0.16532 0.0
C2134 C 0.85795 0.37469 0.19917 0.0
C2135 C 0.84916 0.37505 0.17963 0.0
H2136 H 0.8831 0.36429 0.21736 0.0
C2137 C 0.86118 0.36981 0.16263 0.0
H2138 H 0.84909 0.37906 0.21246 0.0
C2139 C 0.88114 0.36253 0.16532 0.0
C2140 C 0.88873 0.35926 0.1851 0.0
H2141 H 0.8549 0.37047 0.14735 0.0
H2142 H 0.88965 0.35723 0.15216 0.0
C2143 C 0.87752 0.36661 0.20192 0.0
C2144 C 0.28245 0.62474 0.60839 0.0
C2145 C 0.29955 0.63105 0.59696 0.0
H2146 H 0.27156 0.61237 0.63676 0.0
C2147 C 0.31918 0.62629 0.60412 0.0
H2148 H 0.26712 0.62828 0.60316 0.0
C2149 C 0.32169 0.61829 0.62383 0.0
C2150 C 0.30458 0.61389 0.63604 0.0
H2151 H 0.33254 0.63089 0.59551 0.0
H2152 H 0.33698 0.61643 0.62978 0.0
C2153 C 0.28496 0.61597 0.62771 0.0
C2154 C 0.86735 0.82277 0.6241 0.0
C2155 C 0.87189 0.80588 0.63662 0.0
H2156 H 0.8546 0.83309 0.59563 0.0
C2157 C 0.8697 0.7861 0.62869 0.0
H2158 H 0.8693 0.83817 0.62971 0.0
C2159 C 0.86076 0.78323 0.60947 0.0
C2160 C 0.85442 0.80012 0.59772 0.0
H2161 H 0.87341 0.77287 0.63795 0.0
H2162 H 0.85721 0.7678 0.60455 0.0
C2163 C 0.85921 0.81989 0.60449 0.0
C2164 C 0.70414 0.36337 0.60763 0.0
C2165 C 0.68705 0.35682 0.59627 0.0
H2166 H 0.71513 0.37532 0.63617 0.0
C2167 C 0.66742 0.36083 0.60379 0.0
H2168 H 0.71948 0.36042 0.60212 0.0
C2169 C 0.66499 0.36814 0.62377 0.0
C2170 C 0.68216 0.3727 0.6359 0.0
H2171 H 0.65407 0.35605 0.59523 0.0
H2172 H 0.64975 0.36936 0.62998 0.0
C2173 C 0.70169 0.37152 0.62722 0.0
C2174 C 0.12422 0.16525 0.60429 0.0
C2175 C 0.12832 0.18502 0.59712 0.0
H2176 H 0.1152 0.14711 0.63002 0.0
C2177 C 0.1217 0.20192 0.60867 0.0
H2178 H 0.12906 0.15204 0.59558 0.0
C2179 C 0.11324 0.19912 0.62808 0.0
C2180 C 0.11183 0.17943 0.6364 0.0
H2181 H 0.12473 0.21736 0.60344 0.0
H2182 H 0.10933 0.21241 0.63719 0.0
C2183 C 0.11657 0.16247 0.6241 0.0
C2184 C 0.28228 0.36157 0.37741 0.0
C2185 C 0.29918 0.35569 0.38939 0.0
H2186 H 0.27191 0.37342 0.34859 0.0
C2187 C 0.3189 0.36079 0.38274 0.0
H2188 H 0.26688 0.35778 0.38222 0.0
C2189 C 0.32178 0.36866 0.36303 0.0
C2190 C 0.30492 0.37257 0.35027 0.0
H2191 H 0.33212 0.35651 0.39177 0.0
H2192 H 0.33718 0.37081 0.35751 0.0
C2193 C 0.28513 0.37018 0.35806 0.0
C2194 C 0.11672 0.78436 0.35649 0.0
C2195 C 0.11439 0.80416 0.34866 0.0
H2196 H 0.12924 0.76606 0.38058 0.0
C2197 C 0.11864 0.82102 0.36132 0.0
H2198 H 0.11322 0.77114 0.34711 0.0
C2199 C 0.12671 0.81812 0.38095 0.0
C2200 C 0.13168 0.79837 0.38762 0.0
H2201 H 0.11656 0.83643 0.35578 0.0
H2202 H 0.13116 0.83133 0.3899 0.0
C2203 C 0.12555 0.78148 0.37574 0.0
C2204 C 0.66284 0.61902 0.36242 0.0
C2205 C 0.67993 0.61423 0.35032 0.0
H2206 H 0.65211 0.63178 0.3907 0.0
C2207 C 0.69953 0.61579 0.35883 0.0
H2208 H 0.64755 0.61754 0.35634 0.0
C2209 C 0.70211 0.62447 0.37818 0.0
C2210 C 0.68509 0.63119 0.38947 0.0
H2211 H 0.7129 0.61186 0.34989 0.0
H2212 H 0.71749 0.62763 0.38353 0.0
C2213 C 0.66541 0.62689 0.38217 0.0
C2214 C 0.87269 0.2011 0.35952 0.0
C2215 C 0.87347 0.18178 0.35032 0.0
H2216 H 0.86178 0.21848 0.38499 0.0
C2217 C 0.86854 0.16438 0.36194 0.0
H2218 H 0.87677 0.21469 0.35095 0.0
C2219 C 0.86112 0.16645 0.38193 0.0
C2220 C 0.85742 0.18599 0.38991 0.0
H2221 H 0.86947 0.14928 0.3553 0.0
H2222 H 0.85597 0.15299 0.39007 0.0
C2223 C 0.86448 0.20322 0.37912 0.0
C2224 C 0.125 0.82362 0.61568 0.0
C2225 C 0.1371 0.80669 0.61036 0.0
H2226 H 0.0963 0.83393 0.62786 0.0
C2227 C 0.12829 0.78714 0.61031 0.0
H2228 H 0.13127 0.8389 0.61533 0.0
C2229 C 0.10859 0.7843 0.61805 0.0
C2230 C 0.09727 0.80103 0.62544 0.0
H2231 H 0.13719 0.7739 0.60585 0.0
H2232 H 0.10297 0.76882 0.62005 0.0
C2233 C 0.10492 0.82084 0.62257 0.0
C2234 C 0.12401 0.16545 0.36723 0.0
C2235 C 0.13668 0.18235 0.37132 0.0
H2236 H 0.09546 0.15497 0.35479 0.0
C2237 C 0.12895 0.20213 0.36854 0.0
H2238 H 0.1295 0.15006 0.36953 0.0
C2239 C 0.10973 0.20489 0.35957 0.0
C2240 C 0.09777 0.18793 0.35379 0.0
H2241 H 0.13836 0.21538 0.37183 0.0
H2242 H 0.10493 0.22026 0.35562 0.0
C2243 C 0.10442 0.16825 0.35904 0.0
C2244 C 0.32032 0.60399 0.3606 0.0
C2245 C 0.30047 0.59695 0.35664 0.0
H2246 H 0.3387 0.62961 0.36952 0.0
C2247 C 0.28372 0.60857 0.36351 0.0
H2248 H 0.33342 0.5952 0.35563 0.0
C2249 C 0.28672 0.62796 0.37198 0.0
C2250 C 0.30647 0.63618 0.37319 0.0
H2251 H 0.26822 0.60342 0.36064 0.0
H2252 H 0.27354 0.63714 0.37602 0.0
C2253 C 0.3233 0.62377 0.36829 0.0
C2254 C 0.85842 0.78691 0.37431 0.0
C2255 C 0.84965 0.80644 0.37473 0.0
H2256 H 0.8836 0.7688 0.36393 0.0
C2257 C 0.86174 0.82349 0.36964 0.0
H2258 H 0.84951 0.77358 0.37854 0.0
C2259 C 0.88174 0.82086 0.36248 0.0
C2260 C 0.88932 0.80111 0.35915 0.0
H2261 H 0.85547 0.83875 0.37031 0.0
H2262 H 0.89028 0.83406 0.35729 0.0
C2263 C 0.87804 0.78423 0.36632 0.0
C2264 C 0.66565 0.36227 0.36814 0.0
C2265 C 0.68272 0.35003 0.37267 0.0
H2266 H 0.65496 0.3909 0.35609 0.0
C2267 C 0.70232 0.35858 0.37149 0.0
H2268 H 0.65035 0.35616 0.36936 0.0
C2269 C 0.70493 0.37818 0.36337 0.0
C2270 C 0.68794 0.38966 0.35683 0.0
H2271 H 0.71568 0.34954 0.37526 0.0
H2272 H 0.72032 0.3836 0.36043 0.0
C2273 C 0.66824 0.38225 0.36084 0.0
C2274 C 0.88014 0.16749 0.62586 0.0
C2275 C 0.88711 0.1873 0.63015 0.0
H2276 H 0.8546 0.14915 0.61664 0.0
C2277 C 0.87536 0.20414 0.62369 0.0
H2278 H 0.88902 0.15433 0.63055 0.0
C2279 C 0.85595 0.2012 0.61522 0.0
C2280 C 0.84786 0.18143 0.6136 0.0
H2281 H 0.88044 0.21961 0.62683 0.0
H2282 H 0.8467 0.21442 0.61143 0.0
C2283 C 0.86035 0.16456 0.61818 0.0
C2284 C 0.28405 0.35717 0.61487 0.0
C2285 C 0.30365 0.34873 0.61323 0.0
H2286 H 0.26621 0.3821 0.6263 0.0
C2287 C 0.32077 0.36107 0.61741 0.0
H2288 H 0.27064 0.34805 0.61138 0.0
C2289 C 0.31827 0.38103 0.62477 0.0
C2290 C 0.29864 0.38835 0.62917 0.0
H2291 H 0.33606 0.35504 0.61586 0.0
H2292 H 0.33163 0.38975 0.62924 0.0
C2293 C 0.28155 0.37676 0.62304 0.0
C2294 C 0.66701 0.60348 0.62474 0.0
C2295 C 0.68684 0.59659 0.62899 0.0
H2296 H 0.6486 0.62901 0.61573 0.0
C2297 C 0.70361 0.60843 0.62252 0.0
H2298 H 0.65388 0.59456 0.62946 0.0
C2299 C 0.70062 0.62788 0.61417 0.0
C2300 C 0.68083 0.63592 0.61267 0.0
H2301 H 0.7191 0.60342 0.62564 0.0
H2302 H 0.71379 0.63723 0.61046 0.0
C2303 C 0.66402 0.6233 0.61717 0.0
C2304 C 0.62418 0.10389 0.81885 0.0
C2305 C 0.6281 0.09636 0.79918 0.0
H2306 H 0.6156 0.13005 0.83658 0.0
C2307 C 0.6214 0.10767 0.78213 0.0
H2308 H 0.62909 0.09537 0.83217 0.0
C2309 C 0.61316 0.12722 0.78463 0.0
C2310 C 0.61203 0.1359 0.80418 0.0
H2311 H 0.62429 0.10216 0.76677 0.0
H2312 H 0.60927 0.13615 0.77122 0.0
C2313 C 0.61675 0.12382 0.82132 0.0
C2314 C 0.37533 0.12668 0.78153 0.0
C2315 C 0.38738 0.1324 0.79845 0.0
H2316 H 0.34656 0.1147 0.77115 0.0
C2317 C 0.38074 0.12727 0.81815 0.0
H2318 H 0.38014 0.13052 0.76615 0.0
C2319 C 0.36106 0.11933 0.82102 0.0
C2320 C 0.3483 0.11537 0.80416 0.0
H2321 H 0.38981 0.13144 0.83138 0.0
H2322 H 0.3556 0.1171 0.83642 0.0
C2323 C 0.35602 0.11796 0.78437 0.0
C2324 C 0.37488 0.85998 0.78548 0.0
C2325 C 0.37544 0.85112 0.80498 0.0
H2326 H 0.36419 0.88514 0.76747 0.0
C2327 C 0.37022 0.86306 0.82207 0.0
H2328 H 0.37918 0.85117 0.77212 0.0
C2329 C 0.36282 0.883 0.81951 0.0
C2330 C 0.35938 0.89064 0.79979 0.0
H2331 H 0.37096 0.85671 0.8373 0.0
H2332 H 0.35752 0.8914 0.83274 0.0
C2333 C 0.36666 0.87953 0.78288 0.0
C2334 C 0.6311 0.86761 0.78412 0.0
C2335 C 0.63872 0.87039 0.80394 0.0
H2336 H 0.60714 0.85478 0.76581 0.0
C2337 C 0.62596 0.86636 0.82075 0.0
H2338 H 0.64058 0.8709 0.77094 0.0
C2339 C 0.60637 0.85823 0.81781 0.0
C2340 C 0.59981 0.85299 0.79808 0.0
H2341 H 0.63136 0.86871 0.83618 0.0
H2342 H 0.5973 0.85404 0.83101 0.0
C2343 C 0.61187 0.85871 0.78121 0.0
C2344 C 0.62303 0.87675 0.20342 0.0
C2345 C 0.6294 0.88856 0.18659 0.0
H2346 H 0.61074 0.84808 0.21369 0.0
C2347 C 0.62501 0.88164 0.16678 0.0
H2348 H 0.62629 0.88178 0.21888 0.0
C2349 C 0.61725 0.86188 0.16385 0.0
C2350 C 0.61269 0.84935 0.18071 0.0
H2351 H 0.62965 0.89055 0.15362 0.0
H2352 H 0.61563 0.85618 0.14844 0.0
C2353 C 0.61447 0.85737 0.20048 0.0
C2354 C 0.60592 0.12497 0.20345 0.0
C2355 C 0.59463 0.13146 0.1863 0.0
H2356 H 0.63415 0.11237 0.2145 0.0
C2357 C 0.60192 0.12688 0.1667 0.0
H2358 H 0.6006 0.1284 0.21877 0.0
C2359 C 0.62161 0.11884 0.16429 0.0
C2360 C 0.63367 0.11419 0.18148 0.0
H2361 H 0.59344 0.13168 0.1533 0.0
H2362 H 0.62769 0.11716 0.14904 0.0
C2363 C 0.62521 0.11612 0.20104 0.0
C2364 C 0.36204 0.10688 0.20613 0.0
C2365 C 0.35538 0.09618 0.18868 0.0
H2366 H 0.37409 0.13501 0.21806 0.0
C2367 C 0.35948 0.10433 0.16929 0.0
H2368 H 0.35902 0.10088 0.22129 0.0
C2369 C 0.36697 0.12434 0.16751 0.0
C2370 C 0.37154 0.13584 0.1851 0.0
H2371 H 0.35459 0.09628 0.15567 0.0
H2372 H 0.36822 0.13113 0.15249 0.0
C2373 C 0.37031 0.12651 0.20433 0.0
C2374 C 0.37704 0.86355 0.20278 0.0
C2375 C 0.3882 0.85679 0.18569 0.0
H2376 H 0.34866 0.87569 0.21381 0.0
C2377 C 0.38055 0.86067 0.16605 0.0
H2378 H 0.38266 0.86071 0.21812 0.0
C2379 C 0.36059 0.86806 0.16366 0.0
C2380 C 0.34865 0.87279 0.18086 0.0
H2381 H 0.38899 0.85575 0.1527 0.0
H2382 H 0.35425 0.8692 0.14844 0.0
C2383 C 0.35748 0.87175 0.20036 0.0
C2384 C 0.78156 0.12361 0.61004 0.0
C2385 C 0.7985 0.13001 0.59841 0.0
H2386 H 0.77101 0.11157 0.63868 0.0
C2387 C 0.81823 0.12582 0.60561 0.0
H2388 H 0.76614 0.1267 0.60478 0.0
C2389 C 0.82097 0.11832 0.62549 0.0
C2390 C 0.80399 0.11381 0.63785 0.0
H2391 H 0.83147 0.13047 0.59684 0.0
H2392 H 0.83632 0.11687 0.63142 0.0
C2393 C 0.78431 0.11531 0.62953 0.0
C2394 C 0.36959 0.2857 0.62995 0.0
C2395 C 0.37204 0.30565 0.63737 0.0
H2396 H 0.35685 0.26693 0.60631 0.0
C2397 C 0.3676 0.32226 0.62447 0.0
H2398 H 0.37322 0.27266 0.63953 0.0
C2399 C 0.3593 0.31899 0.605 0.0
C2400 C 0.35431 0.29911 0.59872 0.0
H2401 H 0.36973 0.33778 0.6297 0.0
H2402 H 0.35479 0.33203 0.59583 0.0
C2403 C 0.36054 0.28245 0.61085 0.0
C2404 C 0.16804 0.86151 0.6032 0.0
C2405 C 0.18767 0.85744 0.59569 0.0
H2406 H 0.15042 0.87022 0.62941 0.0
C2407 C 0.20477 0.86418 0.60692 0.0
H2408 H 0.15468 0.85661 0.59472 0.0
C2409 C 0.20235 0.87242 0.62648 0.0
C2410 C 0.18285 0.87357 0.6352 0.0
H2411 H 0.22011 0.86121 0.60141 0.0
H2412 H 0.21581 0.87624 0.6354 0.0
C2413 C 0.16564 0.86898 0.62314 0.0
C2414 C 0.61755 0.66187 0.62516 0.0
C2415 C 0.61309 0.67847 0.63805 0.0
H2416 H 0.62966 0.65223 0.5962 0.0
C2417 C 0.61463 0.6984 0.63036 0.0
H2418 H 0.61604 0.64635 0.63057 0.0
C2419 C 0.6229 0.70174 0.61096 0.0
C2420 C 0.62925 0.68517 0.5988 0.0
H2421 H 0.6109 0.71142 0.63992 0.0
H2422 H 0.62599 0.71732 0.60619 0.0
C2423 C 0.62505 0.66521 0.60539 0.0
C2424 C 0.81868 0.86151 0.38118 0.0
C2425 C 0.79891 0.85687 0.38802 0.0
H2426 H 0.83698 0.87101 0.35576 0.0
C2427 C 0.78205 0.86299 0.37611 0.0
H2428 H 0.83187 0.85705 0.39016 0.0
C2429 C 0.78493 0.87145 0.3567 0.0
C2430 C 0.8047 0.87341 0.34875 0.0
H2431 H 0.76661 0.85956 0.38107 0.0
H2432 H 0.77171 0.87493 0.34732 0.0
C2433 C 0.82157 0.8692 0.3614 0.0
C2434 C 0.61758 0.28582 0.35478 0.0
C2435 C 0.61546 0.30566 0.34698 0.0
H2436 H 0.6296 0.26738 0.37902 0.0
C2437 C 0.61966 0.32245 0.35973 0.0
H2438 H 0.61407 0.27265 0.34534 0.0
C2439 C 0.62739 0.31945 0.37948 0.0
C2440 C 0.63211 0.29966 0.38619 0.0
H2441 H 0.61771 0.33789 0.35424 0.0
H2442 H 0.63172 0.33261 0.38857 0.0
C2443 C 0.6261 0.28284 0.37416 0.0
C2444 C 0.19888 0.11521 0.35656 0.0
C2445 C 0.17916 0.11368 0.34833 0.0
H2446 H 0.21722 0.1269 0.38106 0.0
C2447 C 0.16226 0.11849 0.36067 0.0
H2448 H 0.21212 0.11124 0.34743 0.0
C2449 C 0.16512 0.12628 0.38042 0.0
C2450 C 0.18491 0.13047 0.38749 0.0
H2451 H 0.14688 0.11701 0.35484 0.0
H2452 H 0.15196 0.13108 0.38921 0.0
C2453 C 0.20176 0.12382 0.3759 0.0
C2454 C 0.36445 0.70306 0.37669 0.0
C2455 C 0.35781 0.68611 0.38818 0.0
H2456 H 0.37634 0.71373 0.34804 0.0
C2457 C 0.36165 0.66637 0.38079 0.0
H2458 H 0.36163 0.71848 0.3821 0.0
C2459 C 0.36888 0.66372 0.36081 0.0
C2460 C 0.37348 0.68077 0.34855 0.0
H2461 H 0.35681 0.65312 0.38946 0.0
H2462 H 0.36999 0.64842 0.35471 0.0
C2463 C 0.37249 0.70039 0.35709 0.0
C2464 C 0.60902 0.2833 0.62136 0.0
C2465 C 0.5975 0.30016 0.62813 0.0
H2466 H 0.6375 0.27289 0.60887 0.0
C2467 C 0.60464 0.31996 0.62407 0.0
H2468 H 0.6038 0.26784 0.62433 0.0
C2469 C 0.6244 0.32279 0.61634 0.0
C2470 C 0.6367 0.30586 0.6115 0.0
H2471 H 0.59595 0.33315 0.629 0.0
H2472 H 0.63032 0.33816 0.61501 0.0
C2473 C 0.6284 0.28615 0.61285 0.0
C2474 C 0.60822 0.70467 0.36229 0.0
C2475 C 0.59667 0.68766 0.35585 0.0
H2476 H 0.63662 0.71534 0.3749 0.0
C2477 C 0.60369 0.66797 0.36052 0.0
H2478 H 0.60312 0.72006 0.35883 0.0
C2479 C 0.62335 0.6653 0.36859 0.0
C2480 C 0.63567 0.68232 0.37319 0.0
H2481 H 0.59499 0.65467 0.35581 0.0
H2482 H 0.62917 0.64995 0.37037 0.0
C2483 C 0.62749 0.70201 0.37116 0.0
C2484 C 0.82281 0.12414 0.36804 0.0
C2485 C 0.80598 0.13644 0.37326 0.0
H2486 H 0.8329 0.09572 0.35505 0.0
C2487 C 0.78625 0.12815 0.37214 0.0
H2488 H 0.8382 0.13002 0.3692 0.0
C2489 C 0.78324 0.10885 0.36347 0.0
C2490 C 0.79996 0.09736 0.35634 0.0
H2491 H 0.77308 0.13723 0.37642 0.0
H2492 H 0.76773 0.10367 0.36069 0.0
C2493 C 0.81982 0.10443 0.3602 0.0
C2494 C 0.38331 0.32147 0.36483 0.0
C2495 C 0.39144 0.30185 0.36207 0.0
H2496 H 0.35643 0.33883 0.37181 0.0
C2497 C 0.38061 0.2849 0.36977 0.0
H2498 H 0.39153 0.33474 0.35928 0.0
C2499 C 0.36082 0.28725 0.37742 0.0
C2500 C 0.35146 0.30651 0.37704 0.0
H2501 H 0.38662 0.26957 0.36789 0.0
H2502 H 0.35225 0.27379 0.38194 0.0
C2503 C 0.36315 0.32375 0.37167 0.0
C2504 C 0.2036 0.87796 0.36515 0.0
C2505 C 0.18658 0.88917 0.35827 0.0
H2506 H 0.21454 0.8494 0.37706 0.0
C2507 C 0.16692 0.88147 0.36187 0.0
H2508 H 0.21896 0.88363 0.36257 0.0
C2509 C 0.16447 0.86139 0.36895 0.0
C2510 C 0.18164 0.84937 0.37369 0.0
H2511 H 0.15361 0.88997 0.3569 0.0
H2512 H 0.14925 0.85503 0.36983 0.0
C2513 C 0.20112 0.85826 0.37306 0.0
C2514 C 0.36225 0.6641 0.61722 0.0
C2515 C 0.35026 0.68126 0.61234 0.0
H2516 H 0.39048 0.65324 0.63005 0.0
C2517 C 0.35892 0.70081 0.61373 0.0
H2518 H 0.35606 0.64884 0.61585 0.0
C2519 C 0.3783 0.70331 0.62239 0.0
C2520 C 0.38947 0.68624 0.62927 0.0
H2521 H 0.35006 0.71424 0.60971 0.0
H2522 H 0.38376 0.71868 0.62543 0.0
C2523 C 0.38203 0.66658 0.62508 0.0
C2524 C 0.82105 0.8624 0.61722 0.0
C2525 C 0.80392 0.85016 0.61283 0.0
H2526 H 0.83192 0.89087 0.62955 0.0
C2527 C 0.78433 0.85858 0.61457 0.0
H2528 H 0.83633 0.85639 0.6156 0.0
C2529 C 0.78183 0.87803 0.62307 0.0
C2530 C 0.79893 0.8895 0.62941 0.0
H2531 H 0.77091 0.84952 0.61094 0.0
H2532 H 0.76649 0.88333 0.62641 0.0
C2533 C 0.81856 0.88224 0.62491 0.0
C2534 C 0.1628 0.12318 0.61747 0.0
C2535 C 0.17969 0.1357 0.61293 0.0
H2536 H 0.15246 0.0948 0.63039 0.0
C2537 C 0.19946 0.12781 0.61521 0.0
H2538 H 0.14741 0.1288 0.61552 0.0
C2539 C 0.20231 0.10864 0.62423 0.0
C2540 C 0.18542 0.09689 0.63058 0.0
H2541 H 0.21269 0.13711 0.61156 0.0
H2542 H 0.21773 0.10376 0.62785 0.0
C2543 C 0.16567 0.10362 0.62572 0.0
C2544 C 0.61446 0.62943 0.28563 0.0
C2545 C 0.61256 0.63773 0.30528 0.0
H2546 H 0.62652 0.60489 0.26767 0.0
C2547 C 0.61705 0.62545 0.32235 0.0
H2548 H 0.61077 0.63852 0.27227 0.0
C2549 C 0.62493 0.60571 0.31975 0.0
C2550 C 0.62951 0.59858 0.30008 0.0
H2551 H 0.6153 0.63137 0.33767 0.0
H2552 H 0.62958 0.59704 0.33307 0.0
C2553 C 0.62313 0.61008 0.28304 0.0
C2554 C 0.38064 0.62545 0.31807 0.0
C2555 C 0.3872 0.63025 0.29825 0.0
H2556 H 0.35556 0.61559 0.33662 0.0
C2557 C 0.37511 0.62417 0.28149 0.0
H2558 H 0.38975 0.62988 0.33119 0.0
C2559 C 0.35582 0.61549 0.28456 0.0
C2560 C 0.34815 0.61328 0.30442 0.0
H2561 H 0.37986 0.62772 0.26601 0.0
H2562 H 0.34631 0.61198 0.27143 0.0
C2563 C 0.36097 0.61755 0.32115 0.0
C2564 C 0.37111 0.35558 0.28874 0.0
C2565 C 0.3731 0.34828 0.30878 0.0
H2566 H 0.35919 0.37931 0.26957 0.0
C2567 C 0.36868 0.36142 0.32519 0.0
H2568 H 0.37477 0.34584 0.27584 0.0
C2569 C 0.36088 0.38104 0.32163 0.0
C2570 C 0.35634 0.38725 0.30163 0.0
H2571 H 0.37052 0.35634 0.34078 0.0
H2572 H 0.3564 0.39041 0.33451 0.0
C2573 C 0.36254 0.37483 0.28518 0.0
C2574 C 0.63018 0.37249 0.28574 0.0
C2575 C 0.63829 0.37413 0.3055 0.0
H2576 H 0.60566 0.36091 0.26735 0.0
C2577 C 0.62578 0.3696 0.32237 0.0
H2578 H 0.63943 0.37625 0.27252 0.0
C2579 C 0.60599 0.36192 0.31945 0.0
C2580 C 0.599 0.3576 0.29966 0.0
H2581 H 0.63153 0.37118 0.33777 0.0
H2582 H 0.5971 0.35729 0.33263 0.0
C2583 C 0.61075 0.36405 0.28282 0.0
C2584 C 0.61674 0.35596 0.69983 0.0
C2585 C 0.61432 0.34827 0.67999 0.0
H2586 H 0.6294 0.37989 0.71829 0.0
C2587 C 0.61865 0.36099 0.66321 0.0
H2588 H 0.61319 0.34653 0.71299 0.0
C2589 C 0.62685 0.38056 0.66623 0.0
C2590 C 0.63186 0.3871 0.68602 0.0
H2591 H 0.61652 0.35556 0.64777 0.0
H2592 H 0.63132 0.38958 0.65309 0.0
C2593 C 0.6257 0.37515 0.70283 0.0
C2594 C 0.62848 0.61124 0.69979 0.0
C2595 C 0.63685 0.61055 0.6801 0.0
H2596 H 0.60362 0.62176 0.71824 0.0
C2597 C 0.62443 0.6154 0.66323 0.0
H2598 H 0.63765 0.60719 0.713 0.0
C2599 C 0.60447 0.62258 0.66615 0.0
C2600 C 0.59725 0.62612 0.686 0.0
H2601 H 0.63038 0.6145 0.64787 0.0
H2602 H 0.59567 0.62759 0.65305 0.0
C2603 C 0.60889 0.61921 0.70274 0.0
C2604 C 0.36978 0.62998 0.70048 0.0
C2605 C 0.37199 0.63797 0.68074 0.0
H2606 H 0.3575 0.60566 0.71865 0.0
C2607 C 0.36767 0.62543 0.66381 0.0
H2608 H 0.37333 0.63926 0.71375 0.0
C2609 C 0.35977 0.60572 0.66659 0.0
C2610 C 0.35498 0.59884 0.68631 0.0
H2611 H 0.36963 0.63109 0.64843 0.0
H2612 H 0.35535 0.59682 0.65334 0.0
C2613 C 0.36106 0.61065 0.70326 0.0
C2614 C 0.3619 0.36921 0.66243 0.0
C2615 C 0.34986 0.37433 0.67947 0.0
H2616 H 0.39029 0.35657 0.65186 0.0
C2617 C 0.35857 0.37357 0.69903 0.0
H2618 H 0.35567 0.37012 0.64715 0.0
C2619 C 0.37808 0.3653 0.70172 0.0
C2620 C 0.38932 0.35818 0.68483 0.0
H2621 H 0.34968 0.37779 0.71236 0.0
H2622 H 0.38359 0.36272 0.71715 0.0
C2623 C 0.38179 0.36175 0.66508 0.0
C2624 C 0.82125 0.61858 0.12546 0.0
C2625 C 0.80432 0.61372 0.13775 0.0
H2626 H 0.83161 0.63086 0.09681 0.0
C2627 C 0.78464 0.61479 0.12934 0.0
H2628 H 0.8366 0.61746 0.13144 0.0
C2629 C 0.7818 0.62305 0.10984 0.0
C2630 C 0.79865 0.6298 0.09828 0.0
H2631 H 0.77139 0.61076 0.13843 0.0
H2632 H 0.76635 0.62583 0.10452 0.0
C2633 C 0.81844 0.62599 0.10556 0.0
C2634 C 0.36156 0.78266 0.10895 0.0
C2635 C 0.35499 0.79951 0.09726 0.0
H2636 H 0.37415 0.77234 0.13747 0.0
C2637 C 0.3593 0.81931 0.10424 0.0
H2638 H 0.35839 0.7672 0.10387 0.0
C2639 C 0.36719 0.82221 0.12395 0.0
C2640 C 0.37196 0.80532 0.13637 0.0
H2641 H 0.35454 0.83249 0.09541 0.0
H2642 H 0.36875 0.83761 0.1297 0.0
C2643 C 0.37025 0.78557 0.12827 0.0
C2644 C 0.20211 0.3692 0.12959 0.0
C2645 C 0.18238 0.37201 0.13736 0.0
H2646 H 0.22012 0.35647 0.10541 0.0
C2647 C 0.16543 0.36821 0.12467 0.0
H2648 H 0.21539 0.37227 0.13904 0.0
C2649 C 0.16815 0.36024 0.10498 0.0
C2650 C 0.18778 0.35495 0.09826 0.0
H2651 H 0.15007 0.37056 0.13021 0.0
H2652 H 0.15484 0.35614 0.09601 0.0
C2653 C 0.20479 0.36047 0.11026 0.0
C2654 C 0.6109 0.20138 0.12637 0.0
C2655 C 0.60947 0.1818 0.13494 0.0
H2656 H 0.62276 0.21935 0.10171 0.0
C2657 C 0.61454 0.16469 0.12296 0.0
H2658 H 0.6068 0.21477 0.13525 0.0
C2659 C 0.62256 0.16725 0.10328 0.0
C2660 C 0.62671 0.18695 0.09593 0.0
H2661 H 0.61323 0.14941 0.12912 0.0
H2662 H 0.62768 0.15395 0.09486 0.0
C2663 C 0.61971 0.20396 0.10709 0.0
C2664 C 0.82273 0.36814 0.8622 0.0
C2665 C 0.80585 0.3727 0.84967 0.0
H2666 H 0.83304 0.35541 0.89068 0.0
C2667 C 0.78608 0.37061 0.8576 0.0
H2668 H 0.83813 0.36997 0.85657 0.0
C2669 C 0.7832 0.36174 0.87684 0.0
C2670 C 0.80008 0.35537 0.88861 0.0
H2671 H 0.77286 0.3743 0.84831 0.0
H2672 H 0.76777 0.35825 0.88176 0.0
C2673 C 0.81984 0.36007 0.88182 0.0
C2674 C 0.62598 0.81783 0.88103 0.0
C2675 C 0.63036 0.7982 0.88844 0.0
H2676 H 0.61666 0.83549 0.85504 0.0
C2677 C 0.62386 0.78106 0.87715 0.0
H2678 H 0.63071 0.83122 0.88955 0.0
C2679 C 0.61531 0.78348 0.85771 0.0
C2680 C 0.61366 0.80303 0.84913 0.0
H2681 H 0.62709 0.76573 0.88258 0.0
H2682 H 0.61156 0.77002 0.84877 0.0
C2683 C 0.61822 0.82023 0.8612 0.0
C2684 C 0.20292 0.62322 0.87456 0.0
C2685 C 0.18617 0.62982 0.88632 0.0
H2686 H 0.21305 0.6107 0.84597 0.0
C2687 C 0.16633 0.62574 0.87934 0.0
H2688 H 0.21842 0.62622 0.87963 0.0
C2689 C 0.1633 0.61804 0.85958 0.0
C2690 C 0.1801 0.61319 0.84711 0.0
H2691 H 0.15323 0.6305 0.88825 0.0
H2692 H 0.14787 0.61664 0.85386 0.0
C2693 C 0.19988 0.61468 0.8552 0.0
C2694 C 0.36254 0.16715 0.88213 0.0
C2695 C 0.35886 0.18676 0.88993 0.0
H2696 H 0.37073 0.14965 0.85568 0.0
C2697 C 0.36569 0.20388 0.8788 0.0
H2698 H 0.35756 0.15376 0.89052 0.0
C2699 C 0.37374 0.20154 0.85915 0.0
C2700 C 0.37457 0.18209 0.8502 0.0
H2701 H 0.363 0.21921 0.88451 0.0
H2702 H 0.3777 0.21503 0.85037 0.0
C2703 C 0.36978 0.16484 0.86211 0.0
C2704 C 0.60408 0.82018 0.12505 0.0
C2705 C 0.59692 0.80039 0.12913 0.0
H2706 H 0.62983 0.83835 0.11605 0.0
C2707 C 0.60845 0.78351 0.12244 0.0
H2708 H 0.59537 0.83338 0.12991 0.0
C2709 C 0.62786 0.78633 0.114 0.0
C2710 C 0.63618 0.80603 0.11265 0.0
H2711 H 0.60322 0.76806 0.12543 0.0
H2712 H 0.63697 0.77306 0.11008 0.0
C2713 C 0.62388 0.82299 0.1174 0.0
C2714 C 0.62955 0.2009 0.86924 0.0
C2715 C 0.63739 0.1811 0.87151 0.0
H2716 H 0.6054 0.21921 0.85686 0.0
C2717 C 0.62474 0.16424 0.86722 0.0
H2718 H 0.63893 0.21412 0.87276 0.0
C2719 C 0.60508 0.16714 0.85924 0.0
C2720 C 0.59836 0.18689 0.85439 0.0
H2721 H 0.63029 0.14883 0.86922 0.0
H2722 H 0.59611 0.15393 0.85481 0.0
C2723 C 0.61027 0.20378 0.86048 0.0
C2724 C 0.81997 0.60527 0.85998 0.0
C2725 C 0.80018 0.5984 0.85543 0.0
H2726 H 0.83832 0.63061 0.86973 0.0
C2727 C 0.78334 0.61018 0.86178 0.0
H2728 H 0.83314 0.59639 0.85535 0.0
C2729 C 0.78627 0.62946 0.87054 0.0
C2730 C 0.80605 0.63744 0.87254 0.0
H2731 H 0.76789 0.60519 0.8584 0.0
H2732 H 0.77306 0.63873 0.87428 0.0
C2733 C 0.8229 0.62494 0.86795 0.0
C2734 C 0.35763 0.78549 0.8698 0.0
C2735 C 0.34962 0.80523 0.87194 0.0
H2736 H 0.38197 0.76734 0.85764 0.0
C2737 C 0.36215 0.82219 0.86771 0.0
H2738 H 0.34833 0.7722 0.87326 0.0
C2739 C 0.38187 0.81943 0.85987 0.0
C2740 C 0.38876 0.79971 0.85511 0.0
H2741 H 0.35644 0.83756 0.86962 0.0
H2742 H 0.39074 0.83269 0.85541 0.0
C2743 C 0.37698 0.78274 0.86119 0.0
C2744 C 0.16786 0.38078 0.86009 0.0
C2745 C 0.18754 0.38819 0.856 0.0
H2746 H 0.15004 0.35478 0.86904 0.0
C2747 C 0.20456 0.37687 0.8627 0.0
H2748 H 0.15456 0.38934 0.85522 0.0
C2749 C 0.202 0.3574 0.87114 0.0
C2750 C 0.18242 0.34882 0.87248 0.0
H2751 H 0.21994 0.3823 0.8597 0.0
H2752 H 0.21539 0.34845 0.87507 0.0
C2753 C 0.16532 0.36092 0.86772 0.0
C2754 C 0.36817 0.20491 0.13289 0.0
C2755 C 0.3816 0.18853 0.1368 0.0
H2756 H 0.3388 0.21417 0.12143 0.0
C2757 C 0.37653 0.16898 0.12959 0.0
H2758 H 0.3717 0.22016 0.13837 0.0
C2759 C 0.35735 0.16547 0.12071 0.0
C2760 C 0.34338 0.18159 0.11818 0.0
H2761 H 0.38657 0.15612 0.13245 0.0
H2762 H 0.35328 0.15004 0.1165 0.0
C2763 C 0.34928 0.20149 0.12346 0.0
C2764 C 0.78094 0.37717 0.1233 0.0
C2765 C 0.79797 0.38886 0.1294 0.0
H2766 H 0.77019 0.34847 0.11148 0.0
C2767 C 0.81764 0.38173 0.12483 0.0
H2768 H 0.76558 0.38236 0.12671 0.0
C2769 C 0.82025 0.36187 0.11723 0.0
C2770 C 0.8032 0.34944 0.11305 0.0
H2771 H 0.83096 0.39051 0.12931 0.0
H2772 H 0.83557 0.35598 0.1155 0.0
C2773 C 0.78354 0.35768 0.11493 0.0
C2774 C 0.20235 0.61 0.12499 0.0
C2775 C 0.18542 0.59816 0.13107 0.0
H2776 H 0.21279 0.63847 0.11237 0.0
C2777 C 0.16571 0.60486 0.12601 0.0
H2778 H 0.21774 0.60516 0.12879 0.0
C2779 C 0.16288 0.62439 0.11768 0.0
C2780 C 0.17978 0.63694 0.11328 0.0
H2781 H 0.15247 0.59596 0.13046 0.0
H2782 H 0.14749 0.62994 0.11548 0.0
C2783 C 0.19955 0.62915 0.1159 0.0
C2784 C 0.98258 0.17687 0.28177 0.0
C2785 C 0.97049 0.18905 0.2946 0.0
H2786 H 0.01288 0.16779 0.27347 0.0
C2787 C 0.98005 0.20309 0.30784 0.0
H2788 H 0.97561 0.16595 0.27142 0.0
C2789 C 0.00135 0.20433 0.30887 0.0
C2790 C 0.01345 0.19132 0.2969 0.0
H2791 H 0.97106 0.21281 0.31779 0.0
H2792 H 0.0083 0.21484 0.31965 0.0
C2793 C 0.00389 0.17789 0.28303 0.0
C2794 C 0.78252 0.00232 0.30933 0.0
C2795 C 0.7952 0.01495 0.29752 0.0
H2796 H 0.77478 0.97171 0.3179 0.0
C2797 C 0.80896 0.00593 0.28365 0.0
H2798 H 0.77176 0.00882 0.3201 0.0
C2799 C 0.81059 0.98465 0.28225 0.0
C2800 C 0.79867 0.97205 0.29488 0.0
H2801 H 0.81885 0.01531 0.27423 0.0
H2802 H 0.82174 0.97811 0.2719 0.0
C2803 C 0.78432 0.98107 0.3081 0.0
C2804 C 0.00217 0.81035 0.28419 0.0
C2805 C 0.0148 0.79836 0.29671 0.0
H2806 H 0.97155 0.81905 0.27666 0.0
C2807 C 0.00581 0.78435 0.31035 0.0
H2808 H 0.00868 0.82124 0.27353 0.0
C2809 C 0.98456 0.78296 0.31205 0.0
C2810 C 0.97194 0.79572 0.3003 0.0
H2811 H 0.01519 0.77479 0.32011 0.0
H2812 H 0.97807 0.77246 0.32311 0.0
C2813 C 0.98092 0.80912 0.28605 0.0
C2814 C 0.17713 0.98039 0.28483 0.0
C2815 C 0.19059 0.97159 0.29914 0.0
H2816 H 0.16448 0.00798 0.27247 0.0
C2817 C 0.20301 0.98437 0.31109 0.0
H2818 H 0.16747 0.97087 0.27528 0.0
C2819 C 0.20114 0.0056 0.3096 0.0
C2820 C 0.18701 0.0144 0.29595 0.0
H2821 H 0.21354 0.978 0.3222 0.0
H2822 H 0.21041 0.01512 0.31953 0.0
C2823 C 0.17544 0.00162 0.28316 0.0
C2824 C 0.98461 0.81046 0.70053 0.0
C2825 C 0.97174 0.79873 0.68797 0.0
H2826 H 0.01539 0.81868 0.70802 0.0
C2827 C 0.98047 0.78474 0.67417 0.0
H2828 H 0.97831 0.82134 0.71132 0.0
C2829 C 0.00168 0.78309 0.67237 0.0
C2830 C 0.01455 0.79556 0.68419 0.0
H2831 H 0.9709 0.77538 0.66437 0.0
H2832 H 0.00797 0.77259 0.6612 0.0
C2833 C 0.00583 0.80896 0.69858 0.0
C2834 C 0.20235 0.98037 0.67799 0.0
C2835 C 0.18819 0.97074 0.69101 0.0
H2836 H 0.21405 0.00865 0.66628 0.0
C2837 C 0.17572 0.98279 0.7036 0.0
H2838 H 0.2123 0.97143 0.66823 0.0
C2839 C 0.1766 0.00413 0.70231 0.0
C2840 C 0.19015 0.01373 0.68862 0.0
H2841 H 0.16471 0.97577 0.71379 0.0
H2842 H 0.16628 0.01308 0.71166 0.0
C2843 C 0.20342 0.00167 0.6769 0.0
C2844 C 0.97975 0.17793 0.70201 0.0
C2845 C 0.97072 0.19134 0.68781 0.0
H2846 H 0.00753 0.16536 0.71402 0.0
C2847 C 0.98329 0.20377 0.67567 0.0
H2848 H 0.9704 0.16827 0.7117 0.0
C2849 C 0.00454 0.20195 0.67689 0.0
C2850 C 0.01355 0.18786 0.69043 0.0
H2851 H 0.97674 0.21427 0.66464 0.0
H2852 H 0.01388 0.21121 0.66681 0.0
C2853 C 0.001 0.17629 0.7034 0.0
C2854 C 0.78231 0.98477 0.67657 0.0
C2855 C 0.79539 0.97234 0.68816 0.0
H2856 H 0.77386 0.0153 0.6684 0.0
C2857 C 0.80898 0.98151 0.70213 0.0
H2858 H 0.77167 0.97811 0.66574 0.0
C2859 C 0.81011 0.00278 0.70383 0.0
C2860 C 0.79787 0.01523 0.69137 0.0
H2861 H 0.81914 0.97226 0.71141 0.0
H2862 H 0.82117 0.00946 0.71423 0.0
C2863 C 0.78364 0.00604 0.67807 0.0
C2864 C 0.30729 0.97961 0.2028 0.0
C2865 C 0.294 0.97045 0.18854 0.0
H2866 H 0.31938 0.00752 0.21505 0.0
C2867 C 0.28131 0.9829 0.17654 0.0
H2868 H 0.31712 0.97035 0.21241 0.0
C2869 C 0.28278 0.00418 0.17793 0.0
C2870 C 0.29674 0.01334 0.19154 0.0
H2871 H 0.27092 0.97624 0.16547 0.0
H2872 H 0.27334 0.01346 0.16794 0.0
C2873 C 0.30855 0.00088 0.20439 0.0
C2874 C 0.9838 0.31191 0.20263 0.0
C2875 C 0.97092 0.30004 0.19021 0.0
H2876 H 0.0146 0.3201 0.21008 0.0
C2877 C 0.97961 0.28571 0.17674 0.0
H2878 H 0.97753 0.32303 0.21317 0.0
C2879 C 0.00083 0.2839 0.17505 0.0
C2880 C 0.0137 0.29655 0.18667 0.0
H2881 H 0.97003 0.27623 0.16708 0.0
H2882 H 0.00709 0.27318 0.1641 0.0
C2883 C 0.00502 0.31025 0.20079 0.0
C2884 C 0.6738 0.98481 0.20368 0.0
C2885 C 0.68614 0.97263 0.19109 0.0
H2886 H 0.66446 0.01515 0.21161 0.0
C2887 C 0.70013 0.98213 0.17779 0.0
H2888 H 0.6629 0.97791 0.21407 0.0
C2889 C 0.70119 0.00344 0.1765 0.0
C2890 C 0.68807 0.01561 0.18829 0.0
H2891 H 0.70996 0.97308 0.16799 0.0
H2892 H 0.7117 0.01033 0.16571 0.0
C2893 C 0.67466 0.00612 0.20219 0.0
C2894 C 0.98249 0.70384 0.17623 0.0
C2895 C 0.97025 0.6913 0.1886 0.0
H2896 H 0.01288 0.71162 0.16691 0.0
C2897 C 0.97967 0.67803 0.20269 0.0
H2898 H 0.97563 0.71421 0.16527 0.0
C2899 C 0.00095 0.67668 0.20379 0.0
C2900 C 0.01319 0.68838 0.19063 0.0
H2901 H 0.97058 0.66829 0.21255 0.0
H2902 H 0.00777 0.66589 0.21437 0.0
C2903 C 0.00379 0.70228 0.17714 0.0
C2904 C 0.28582 0.98169 0.80839 0.0
C2905 C 0.29998 0.97284 0.79484 0.0
H2906 H 0.2734 0.00934 0.82084 0.0
C2907 C 0.31163 0.98559 0.78213 0.0
H2908 H 0.2765 0.97221 0.81829 0.0
C2909 C 0.30995 0.00684 0.78373 0.0
C2910 C 0.29643 0.0157 0.79791 0.0
H2911 H 0.32262 0.97921 0.77152 0.0
H2912 H 0.31964 0.01632 0.7742 0.0
C2913 C 0.28398 0.00294 0.80983 0.0
C2914 C 0.98498 0.28252 0.81036 0.0
C2915 C 0.97248 0.29543 0.79864 0.0
H2916 H 0.01554 0.27419 0.81854 0.0
C2917 C 0.98159 0.30887 0.78452 0.0
H2918 H 0.97837 0.27199 0.82132 0.0
C2919 C 0.00285 0.31001 0.78276 0.0
C2920 C 0.01537 0.29791 0.79529 0.0
H2921 H 0.9723 0.3189 0.77515 0.0
H2922 H 0.00946 0.32094 0.7722 0.0
C2923 C 0.00624 0.28385 0.80879 0.0
C2924 C 0.70281 0.98322 0.80997 0.0
C2925 C 0.69028 0.97057 0.79799 0.0
H2926 H 0.71037 0.01386 0.81864 0.0
C2927 C 0.67669 0.97955 0.7839 0.0
H2928 H 0.71344 0.97672 0.82091 0.0
C2929 C 0.67505 0.00081 0.78245 0.0
C2930 C 0.68679 0.01344 0.79524 0.0
H2931 H 0.66694 0.97014 0.77434 0.0
H2932 H 0.66403 0.00731 0.77191 0.0
C2933 C 0.70099 0.00447 0.8087 0.0
C2934 C 0.00273 0.70397 0.80846 0.0
C2935 C 0.01472 0.69107 0.79625 0.0
H2936 H 0.9725 0.71236 0.8177 0.0
C2937 C 0.00506 0.67779 0.78233 0.0
H2938 H 0.00979 0.71436 0.81929 0.0
C2939 C 0.98375 0.67679 0.78123 0.0
C2940 C 0.97175 0.68885 0.79426 0.0
H2941 H 0.01396 0.66779 0.77259 0.0
H2942 H 0.97673 0.66599 0.7708 0.0
C2943 C 0.98141 0.70276 0.80758 0.0
C2944 C 0.20401 0.3098 0.0016 0.0
C2945 C 0.19092 0.298 0.01381 0.0
H2946 H 0.21264 0.31826 0.9712 0.0
C2947 C 0.17757 0.28395 0.00443 0.0
H2948 H 0.21447 0.3207 0.00845 0.0
C2949 C 0.17666 0.28237 0.98315 0.0
C2950 C 0.18889 0.29502 0.97091 0.0
H2951 H 0.16743 0.27451 0.01351 0.0
H2952 H 0.16578 0.27188 0.97632 0.0
C2953 C 0.20289 0.30843 0.98031 0.0
C2954 C 0.20026 0.67574 0.00416 0.0
C2955 C 0.1862 0.68927 0.01321 0.0
H2956 H 0.2127 0.66368 0.97636 0.0
C2957 C 0.1746 0.70221 0.00062 0.0
H2958 H 0.20954 0.66568 0.01351 0.0
C2959 C 0.17629 0.70092 0.97935 0.0
C2960 C 0.18981 0.68686 0.97029 0.0
H2961 H 0.16368 0.7128 0.00716 0.0
H2962 H 0.16667 0.71064 0.96999 0.0
C2963 C 0.20215 0.67464 0.9829 0.0
C2964 C 0.28316 0.17483 0.0024 0.0
C2965 C 0.29556 0.18652 0.01546 0.0
H2966 H 0.27597 0.16676 0.97152 0.0
C2967 C 0.30941 0.20063 0.00693 0.0
H2968 H 0.27233 0.16388 0.00852 0.0
C2969 C 0.31139 0.20243 0.98571 0.0
C2970 C 0.29973 0.18997 0.97268 0.0
H2971 H 0.31908 0.20996 0.01664 0.0
H2972 H 0.32259 0.21299 0.97956 0.0
C2973 C 0.28531 0.17646 0.98121 0.0
C2974 C 0.78356 0.30801 0.00544 0.0
C2975 C 0.79765 0.29478 0.01491 0.0
H2976 H 0.77182 0.32 0.97728 0.0
C2977 C 0.80993 0.28215 0.00271 0.0
H2978 H 0.77376 0.31782 0.0145 0.0
C2979 C 0.80894 0.28357 0.9814 0.0
C2980 C 0.79546 0.29744 0.97195 0.0
H2981 H 0.82089 0.2718 0.0096 0.0
H2982 H 0.81911 0.27415 0.97235 0.0
C2983 C 0.78238 0.30923 0.98414 0.0
C2984 C 0.67629 0.78265 0.98412 0.0
C2985 C 0.68833 0.79525 0.97163 0.0
H2986 H 0.66734 0.77507 0.01464 0.0
C2987 C 0.70228 0.80889 0.98076 0.0
H2988 H 0.66545 0.77198 0.97749 0.0
C2989 C 0.70351 0.81054 0.00203 0.0
C2990 C 0.69062 0.79878 0.01449 0.0
H2991 H 0.71188 0.81869 0.97147 0.0
H2992 H 0.71393 0.82162 0.00866 0.0
C2993 C 0.67733 0.78449 0.00537 0.0
C2994 C 0.78276 0.67548 0.00215 0.0
C2995 C 0.79511 0.6876 0.01486 0.0
H2996 H 0.77548 0.66667 0.97148 0.0
C2997 C 0.80868 0.70172 0.00593 0.0
H2998 H 0.77215 0.6645 0.0086 0.0
C2999 C 0.81048 0.70312 0.98468 0.0
C3000 C 0.79891 0.69022 0.972 0.0
H3001 H 0.8183 0.71138 0.01538 0.0
H3002 H 0.82147 0.71371 0.97824 0.0
C3003 C 0.78474 0.67669 0.98091 0.0
C3004 C 0.30882 0.7849 0.97982 0.0
C3005 C 0.29556 0.79913 0.97059 0.0
H3006 H 0.32057 0.77247 0.00778 0.0
C3007 C 0.28272 0.811 0.98299 0.0
H3008 H 0.31879 0.77541 0.97062 0.0
C3009 C 0.2839 0.80943 0.00428 0.0
C3010 C 0.29774 0.79577 0.01352 0.0
H3011 H 0.27235 0.82204 0.97628 0.0
H3012 H 0.2743 0.81927 0.0135 0.0
C3013 C 0.3098 0.78315 0.00109 0.0
C3014 C 0.67477 0.20357 0.00106 0.0
C3015 C 0.68623 0.19066 0.01379 0.0
H3016 H 0.66688 0.21165 0.97035 0.0
C3017 C 0.70019 0.17691 0.00494 0.0
H3018 H 0.66394 0.21434 0.00745 0.0
C3019 C 0.70203 0.17548 0.9837 0.0
C3020 C 0.68975 0.18761 0.97096 0.0
H3021 H 0.70936 0.16686 0.01441 0.0
H3022 H 0.71245 0.16432 0.97728 0.0
C3023 C 0.67643 0.20197 0.97982 0.0
C3024 C 0.8096 0.50528 0.7842 0.0
C3025 C 0.79612 0.51454 0.79816 0.0
H3026 H 0.82187 0.47728 0.77242 0.0
C3027 C 0.78338 0.50214 0.81016 0.0
H3028 H 0.8195 0.51448 0.77462 0.0
C3029 C 0.78489 0.48084 0.80902 0.0
C3030 C 0.79899 0.47159 0.79567 0.0
H3031 H 0.77283 0.50886 0.82101 0.0
H3032 H 0.77537 0.47164 0.81898 0.0
C3033 C 0.81092 0.48399 0.78287 0.0
C3034 C 0.20198 0.50508 0.8079 0.0
C3035 C 0.18782 0.51396 0.79432 0.0
H3036 H 0.21431 0.4774 0.82039 0.0
C3037 C 0.17613 0.50125 0.78158 0.0
H3038 H 0.21133 0.51454 0.8178 0.0
C3039 C 0.17773 0.48001 0.78321 0.0
C3040 C 0.19122 0.47113 0.79744 0.0
H3041 H 0.16515 0.50767 0.77095 0.0
H3042 H 0.16799 0.47055 0.77369 0.0
C3043 C 0.20376 0.48384 0.80935 0.0
C3044 C 0.20151 0.48059 0.17776 0.0
C3045 C 0.1875 0.47109 0.19105 0.0
H3046 H 0.2131 0.50879 0.1657 0.0
C3047 C 0.17515 0.48329 0.20363 0.0
H3048 H 0.21133 0.47154 0.16798 0.0
C3049 C 0.17603 0.50461 0.20214 0.0
C3050 C 0.18946 0.51409 0.18826 0.0
H3051 H 0.16424 0.4764 0.21402 0.0
H3052 H 0.16583 0.51364 0.21155 0.0
C3053 C 0.20258 0.5019 0.17648 0.0
C3054 C 0.7825 0.5062 0.17747 0.0
C3055 C 0.7965 0.51527 0.19111 0.0
H3056 H 0.77076 0.47835 0.16471 0.0
C3057 C 0.80844 0.50272 0.20375 0.0
H3058 H 0.77297 0.51555 0.16764 0.0
C3059 C 0.80729 0.48148 0.20191 0.0
C3060 C 0.794 0.47242 0.18758 0.0
H3061 H 0.8193 0.50929 0.21443 0.0
H3062 H 0.81723 0.47216 0.21135 0.0
C3063 C 0.78117 0.48493 0.17581 0.0
C3064 C 0.28357 0.50573 0.67597 0.0
C3065 C 0.29749 0.51501 0.68954 0.0
H3066 H 0.2718 0.47769 0.66365 0.0
C3067 C 0.30937 0.50265 0.70243 0.0
H3068 H 0.27408 0.51492 0.66596 0.0
C3069 C 0.3082 0.48137 0.70093 0.0
C3070 C 0.29492 0.47209 0.68674 0.0
H3071 H 0.32019 0.50938 0.71305 0.0
H3072 H 0.31808 0.47218 0.71056 0.0
C3073 C 0.28219 0.48444 0.67468 0.0
C3074 C 0.67916 0.5041 0.70144 0.0
C3075 C 0.69236 0.51333 0.68718 0.0
H3076 H 0.66722 0.47613 0.71367 0.0
C3077 C 0.70511 0.50095 0.67521 0.0
H3078 H 0.66927 0.51331 0.71102 0.0
C3079 C 0.70378 0.47967 0.67663 0.0
C3080 C 0.68987 0.47043 0.69021 0.0
H3081 H 0.71546 0.50766 0.66415 0.0
H3082 H 0.71326 0.47045 0.66666 0.0
C3083 C 0.67801 0.48283 0.70303 0.0
C3084 C 0.31061 0.48352 0.28329 0.0
C3085 C 0.29875 0.47103 0.29607 0.0
H3086 H 0.31892 0.51409 0.27505 0.0
C3087 C 0.28454 0.48016 0.30937 0.0
H3088 H 0.32163 0.47689 0.27287 0.0
C3089 C 0.28283 0.50143 0.31052 0.0
C3090 C 0.29548 0.51394 0.29854 0.0
H3091 H 0.27505 0.47088 0.3193 0.0
H3092 H 0.2722 0.50803 0.32135 0.0
C3093 C 0.30907 0.5048 0.2846 0.0
C3094 C 0.70241 0.50669 0.3099 0.0
C3095 C 0.68834 0.51576 0.29636 0.0
H3096 H 0.71469 0.47884 0.32208 0.0
C3097 C 0.67678 0.50323 0.28332 0.0
H3098 H 0.71166 0.51602 0.32003 0.0
C3099 C 0.6784 0.48197 0.28464 0.0
C3100 C 0.6918 0.47289 0.29884 0.0
H3101 H 0.66588 0.5098 0.2727 0.0
H3102 H 0.66875 0.47263 0.27491 0.0
C3103 C 0.70422 0.48543 0.31104 0.0
C3104 C 0.20422 0.80795 0.47976 0.0
C3105 C 0.19008 0.79447 0.47067 0.0
H3106 H 0.21607 0.82059 0.50759 0.0
C3107 C 0.17807 0.78187 0.48317 0.0
H3108 H 0.21383 0.81772 0.47045 0.0
C3109 C 0.17924 0.78367 0.50442 0.0
C3110 C 0.19262 0.79791 0.51349 0.0
H3111 H 0.1671 0.77132 0.47657 0.0
H3112 H 0.16921 0.77432 0.51373 0.0
C3113 C 0.20557 0.80957 0.50101 0.0
C3114 C 0.20202 0.17556 0.48336 0.0
C3115 C 0.18947 0.1878 0.471 0.0
H3116 H 0.20982 0.1664 0.5138 0.0
C3117 C 0.17605 0.2018 0.48031 0.0
H3118 H 0.21251 0.16467 0.47661 0.0
C3119 C 0.17463 0.20294 0.50161 0.0
C3120 C 0.1864 0.18992 0.51395 0.0
H3121 H 0.16627 0.21154 0.47115 0.0
H3122 H 0.16375 0.21344 0.50836 0.0
C3123 C 0.20041 0.17652 0.50465 0.0
C3124 C 0.30993 0.7031 0.50477 0.0
C3125 C 0.29628 0.68926 0.51402 0.0
H3126 H 0.3225 0.7146 0.47678 0.0
C3127 C 0.28346 0.67731 0.50163 0.0
H3128 H 0.31989 0.71263 0.51398 0.0
C3129 C 0.28512 0.67831 0.48036 0.0
C3130 C 0.29943 0.69146 0.47112 0.0
H3131 H 0.27278 0.66656 0.50834 0.0
H3132 H 0.27555 0.66836 0.47116 0.0
C3133 C 0.3114 0.70429 0.48349 0.0
C3134 C 0.80806 0.78324 0.5023 0.0
C3135 C 0.79619 0.7961 0.51466 0.0
H3136 H 0.8169 0.77523 0.47187 0.0
C3137 C 0.78238 0.80976 0.50537 0.0
H3138 H 0.81878 0.77255 0.50904 0.0
C3139 C 0.78115 0.81119 0.48408 0.0
C3140 C 0.7939 0.79917 0.47175 0.0
H3141 H 0.77291 0.81976 0.51455 0.0
H3142 H 0.77087 0.8223 0.47733 0.0
C3143 C 0.80702 0.78485 0.48103 0.0
C3144 C 0.70442 0.30997 0.50096 0.0
C3145 C 0.69126 0.29836 0.51326 0.0
H3146 H 0.71303 0.31827 0.47052 0.0
C3147 C 0.67769 0.28445 0.50396 0.0
H3148 H 0.71506 0.32076 0.50771 0.0
C3149 C 0.67666 0.28285 0.48268 0.0
C3150 C 0.68898 0.29535 0.47036 0.0
H3151 H 0.66748 0.27515 0.51312 0.0
H3152 H 0.66561 0.27251 0.4759 0.0
C3153 C 0.7032 0.30858 0.47968 0.0
C3154 C 0.8095 0.20321 0.48442 0.0
C3155 C 0.7979 0.19023 0.47187 0.0
H3156 H 0.81763 0.21149 0.51501 0.0
C3157 C 0.78385 0.17665 0.48091 0.0
H3158 H 0.82039 0.21385 0.47788 0.0
C3159 C 0.78211 0.17541 0.50217 0.0
C3160 C 0.79458 0.18755 0.51472 0.0
H3161 H 0.77456 0.16657 0.47157 0.0
H3162 H 0.77165 0.16436 0.50873 0.0
C3163 C 0.80795 0.20179 0.50567 0.0
C3164 C 0.30739 0.2831 0.48185 0.0
C3165 C 0.29421 0.29733 0.47253 0.0
H3166 H 0.31918 0.27091 0.5099 0.0
C3167 C 0.28131 0.30925 0.4848 0.0
H3168 H 0.31738 0.27356 0.47272 0.0
C3169 C 0.2825 0.30784 0.50609 0.0
C3170 C 0.29641 0.29432 0.51542 0.0
H3171 H 0.27099 0.32029 0.47801 0.0
H3172 H 0.27293 0.31779 0.51523 0.0
C3173 C 0.30839 0.28151 0.50312 0.0
C3174 C 0.70237 0.6778 0.48438 0.0
C3175 C 0.68931 0.68957 0.4721 0.0
H3176 H 0.71065 0.66894 0.51477 0.0
C3177 C 0.67554 0.70317 0.48147 0.0
H3178 H 0.71316 0.66724 0.47759 0.0
C3179 C 0.6742 0.7043 0.50277 0.0
C3180 C 0.68645 0.69166 0.51503 0.0
H3181 H 0.66537 0.71256 0.47234 0.0
H3182 H 0.66301 0.71442 0.50958 0.0
C3183 C 0.70086 0.67874 0.50566 0.0
C3184 C 0.50247 0.20443 0.80889 0.0
C3185 C 0.51459 0.19142 0.79692 0.0
H3186 H 0.47217 0.21293 0.81773 0.0
C3187 C 0.50506 0.17807 0.78296 0.0
H3188 H 0.5094 0.21489 0.81972 0.0
C3189 C 0.48376 0.17708 0.78164 0.0
C3190 C 0.47164 0.18922 0.79447 0.0
H3191 H 0.51407 0.16798 0.77341 0.0
H3192 H 0.47682 0.16619 0.77124 0.0
C3193 C 0.48117 0.20324 0.80777 0.0
C3194 C 0.50322 0.8087 0.78194 0.0
C3195 C 0.51536 0.79655 0.79479 0.0
H3196 H 0.47292 0.81802 0.77386 0.0
C3197 C 0.50585 0.78277 0.80831 0.0
H3198 H 0.51014 0.81941 0.77136 0.0
C3199 C 0.48454 0.7818 0.80961 0.0
C3200 C 0.47242 0.79481 0.79762 0.0
H3201 H 0.51487 0.77309 0.81829 0.0
H3202 H 0.47763 0.77152 0.82061 0.0
C3203 C 0.48192 0.80793 0.78345 0.0
C3204 C 0.50473 0.8089 0.20134 0.0
C3205 C 0.51389 0.79556 0.18717 0.0
H3206 H 0.47682 0.82108 0.21338 0.0
C3207 C 0.50143 0.7829 0.17512 0.0
H3208 H 0.51399 0.81874 0.21095 0.0
C3209 C 0.48016 0.78439 0.1764 0.0
C3210 C 0.47101 0.79839 0.18992 0.0
H3211 H 0.50808 0.77245 0.16412 0.0
H3212 H 0.4709 0.77494 0.16639 0.0
C3213 C 0.48346 0.81021 0.20279 0.0
C3214 C 0.49989 0.1778 0.2045 0.0
C3215 C 0.51169 0.18949 0.19094 0.0
H3216 H 0.46984 0.16909 0.21399 0.0
C3217 C 0.50182 0.20308 0.17746 0.0
H3218 H 0.50707 0.16725 0.21508 0.0
C3219 C 0.48048 0.20433 0.17699 0.0
C3220 C 0.46869 0.19178 0.18977 0.0
H3221 H 0.51058 0.2124 0.16692 0.0
H3222 H 0.47324 0.21445 0.16604 0.0
C3223 C 0.47858 0.17882 0.20381 0.0
C3224 C 0.48457 0.31109 0.70232 0.0
C3225 C 0.47187 0.29931 0.68965 0.0
H3226 H 0.51525 0.31931 0.71023 0.0
C3227 C 0.48077 0.28511 0.67616 0.0
H3228 H 0.47814 0.32211 0.71289 0.0
C3229 C 0.50202 0.28336 0.67474 0.0
C3230 C 0.51471 0.29595 0.68662 0.0
H3231 H 0.47134 0.27569 0.6663 0.0
H3232 H 0.50846 0.27275 0.66377 0.0
C3233 C 0.50581 0.30951 0.70074 0.0
C3234 C 0.50167 0.6733 0.70397 0.0
C3235 C 0.51448 0.68513 0.69149 0.0
H3236 H 0.47089 0.6654 0.71174 0.0
C3237 C 0.50574 0.69974 0.67831 0.0
H3238 H 0.50799 0.66198 0.71429 0.0
C3239 C 0.48454 0.70184 0.67695 0.0
C3240 C 0.4717 0.68921 0.68859 0.0
H3241 H 0.51528 0.70922 0.66862 0.0
H3242 H 0.47823 0.71276 0.6662 0.0
C3243 C 0.48044 0.67524 0.70245 0.0
C3244 C 0.48569 0.2838 0.31278 0.0
C3245 C 0.47266 0.29643 0.30136 0.0
H3246 H 0.51658 0.27597 0.32012 0.0
C3247 C 0.48115 0.30999 0.28695 0.0
H3248 H 0.47958 0.27318 0.32394 0.0
C3249 C 0.50234 0.31151 0.28463 0.0
C3250 C 0.51539 0.29964 0.29683 0.0
H3251 H 0.47145 0.31983 0.2778 0.0
H3252 H 0.50848 0.32252 0.27387 0.0
C3253 C 0.50687 0.28546 0.31061 0.0
C3254 C 0.48005 0.70241 0.3071 0.0
C3255 C 0.47096 0.688 0.29392 0.0
H3256 H 0.50788 0.71476 0.31928 0.0
C3257 C 0.48348 0.67583 0.2815 0.0
H3258 H 0.47074 0.71214 0.31674 0.0
C3259 C 0.50475 0.67722 0.28312 0.0
C3260 C 0.51383 0.69098 0.29699 0.0
H3261 H 0.47688 0.66465 0.27119 0.0
H3262 H 0.51406 0.66712 0.27389 0.0
C3263 C 0.5013 0.70398 0.30853 0.0
loop_
_geom_bond_atom_site_label_1
_geom_bond_atom_site_label_2
_geom_bond_distance
_geom_bond_site_symmetry_2
_ccdc_geom_bond_type
Co0 O1 2.216 . S
Co0 O2 2.091 . S
Co0 O4 2.004 . S
Co0 O10 2.021 . S
Co0 O12 2.137 . S
Co0 O13 2.244 . S
O1 Co0 2.216 . S
O1 C8 1.247 . S
O2 Co0 2.091 . S
O2 C8 1.261 . S
C3 O12 1.247 . S
C3 O13 1.272 . S
O4 Co0 2.004 . S
O4 C9 1.259 . S
Co5 O6 2.061 . S
Co5 O11 2.052 . S
Co5 O13 2.135 . S
O6 Co5 2.061 . S
O6 C9 1.235 . S
C7 O10 1.238 . S
C7 O11 1.241 . S
C8 O1 1.247 . S
C8 O2 1.261 . S
C9 O4 1.259 . S
C9 O6 1.235 . S
O10 Co0 2.021 . S
O10 C7 1.238 . S
O11 Co5 2.052 . S
O11 C7 1.241 . S
O12 Co0 2.137 . S
O12 C3 1.247 . S
O13 Co0 2.244 . S
O13 C3 1.272 . S
O13 Co5 2.135 . S
Co14 O15 2.216 . S
Co14 O16 2.091 . S
Co14 O18 2.004 . S
Co14 O24 2.021 . S
Co14 O26 2.137 . S
Co14 O27 2.244 . S
O15 Co14 2.216 . S
O15 C22 1.247 . S
O16 Co14 2.091 . S
O16 C22 1.261 . S
C17 O26 1.247 . S
C17 O27 1.272 . S
O18 Co14 2.004 . S
O18 C23 1.259 . S
Co19 O20 2.061 . S
Co19 O25 2.052 . S
Co19 O27 2.135 . S
O20 Co19 2.061 . S
O20 C23 1.235 . S
C21 O24 1.238 . S
C21 O25 1.241 . S
C22 O15 1.247 . S
C22 O16 1.261 . S
C23 O18 1.259 . S
C23 O20 1.235 . S
O24 Co14 2.021 . S
O24 C21 1.238 . S
O25 Co19 2.052 . S
O25 C21 1.241 . S
O26 Co14 2.137 . S
O26 C17 1.247 . S
O27 Co14 2.244 . S
O27 C17 1.272 . S
O27 Co19 2.135 . S
Co28 O29 2.216 . S
Co28 O30 2.091 . S
Co28 O32 2.004 . S
Co28 O38 2.021 . S
Co28 O40 2.137 . S
Co28 O41 2.244 . S
O29 Co28 2.216 . S
O29 C36 1.247 . S
O30 Co28 2.091 . S
O30 C36 1.261 . S
C31 O40 1.247 . S
C31 O41 1.272 . S
O32 Co28 2.004 . S
O32 C37 1.259 . S
Co33 O34 2.061 . S
Co33 O39 2.052 . S
Co33 O41 2.135 . S
O34 Co33 2.061 . S
O34 C37 1.235 . S
C35 O38 1.238 . S
C35 O39 1.241 . S
C36 O29 1.247 . S
C36 O30 1.261 . S
C37 O32 1.259 . S
C37 O34 1.235 . S
O38 Co28 2.021 . S
O38 C35 1.238 . S
O39 Co33 2.052 . S
O39 C35 1.241 . S
O40 Co28 2.137 . S
O40 C31 1.247 . S
O41 Co28 2.244 . S
O41 C31 1.272 . S
O41 Co33 2.135 . S
Co42 O43 2.216 . S
Co42 O44 2.091 . S
Co42 O46 2.004 . S
Co42 O52 2.021 . S
Co42 O54 2.137 . S
Co42 O55 2.244 . S
O43 Co42 2.216 . S
O43 C50 1.247 . S
O44 Co42 2.091 . S
O44 C50 1.261 . S
C45 O54 1.247 . S
C45 O55 1.272 . S
O46 Co42 2.004 . S
O46 C51 1.259 . S
Co47 O48 2.061 . S
Co47 O53 2.052 . S
Co47 O55 2.135 . S
O48 Co47 2.061 . S
O48 C51 1.235 . S
C49 O52 1.238 . S
C49 O53 1.241 . S
C50 O43 1.247 . S
C50 O44 1.261 . S
C51 O46 1.259 . S
C51 O48 1.235 . S
O52 Co42 2.021 . S
O52 C49 1.238 . S
O53 Co47 2.052 . S
O53 C49 1.241 . S
O54 Co42 2.137 . S
O54 C45 1.247 . S
O55 Co42 2.244 . S
O55 C45 1.272 . S
O55 Co47 2.135 . S
Co56 O57 2.216 . S
Co56 O58 2.091 . S
Co56 O60 2.004 . S
Co56 O66 2.021 . S
Co56 O68 2.137 . S
Co56 O69 2.244 . S
O57 Co56 2.216 . S
O57 C64 1.247 . S
O58 Co56 2.091 . S
O58 C64 1.261 . S
C59 O68 1.247 . S
C59 O69 1.272 . S
O60 Co56 2.004 . S
O60 C65 1.259 . S
Co61 O62 2.061 . S
Co61 O67 2.052 . S
Co61 O69 2.135 . S
O62 Co61 2.061 . S
O62 C65 1.235 . S
C63 O66 1.238 . S
C63 O67 1.241 . S
C64 O57 1.247 . S
C64 O58 1.261 . S
C65 O60 1.259 . S
C65 O62 1.235 . S
O66 Co56 2.021 . S
O66 C63 1.238 . S
O67 Co61 2.052 . S
O67 C63 1.241 . S
O68 Co56 2.137 . S
O68 C59 1.247 . S
O69 Co56 2.244 . S
O69 C59 1.272 . S
O69 Co61 2.135 . S
Co70 O71 2.216 . S
Co70 O72 2.091 . S
Co70 O74 2.004 . S
Co70 O80 2.021 . S
Co70 O82 2.137 . S
Co70 O83 2.244 . S
O71 Co70 2.216 . S
O71 C78 1.247 . S
O72 Co70 2.091 . S
O72 C78 1.261 . S
C73 O82 1.247 . S
C73 O83 1.272 . S
O74 Co70 2.004 . S
O74 C79 1.259 . S
Co75 O76 2.061 . S
Co75 O81 2.052 . S
Co75 O83 2.135 . S
O76 Co75 2.061 . S
O76 C79 1.235 . S
C77 O80 1.238 . S
C77 O81 1.241 . S
C78 O71 1.247 . S
C78 O72 1.261 . S
C79 O74 1.259 . S
C79 O76 1.235 . S
O80 Co70 2.021 . S
O80 C77 1.238 . S
O81 Co75 2.052 . S
O81 C77 1.241 . S
O82 Co70 2.137 . S
O82 C73 1.247 . S
O83 Co70 2.244 . S
O83 C73 1.272 . S
O83 Co75 2.135 . S
Co84 O85 2.216 . S
Co84 O86 2.091 . S
Co84 O88 2.004 . S
Co84 O94 2.021 . S
Co84 O96 2.137 . S
Co84 O97 2.244 . S
O85 Co84 2.216 . S
O85 C92 1.247 . S
O86 Co84 2.091 . S
O86 C92 1.261 . S
C87 O96 1.247 . S
C87 O97 1.272 . S
O88 Co84 2.004 . S
O88 C93 1.259 . S
Co89 O90 2.061 . S
Co89 O95 2.052 . S
Co89 O97 2.135 . S
O90 Co89 2.061 . S
O90 C93 1.235 . S
C91 O94 1.238 . S
C91 O95 1.241 . S
C92 O85 1.247 . S
C92 O86 1.261 . S
C93 O88 1.259 . S
C93 O90 1.235 . S
O94 Co84 2.021 . S
O94 C91 1.238 . S
O95 Co89 2.052 . S
O95 C91 1.241 . S
O96 Co84 2.137 . S
O96 C87 1.247 . S
O97 Co84 2.244 . S
O97 C87 1.272 . S
O97 Co89 2.135 . S
Co98 O99 2.216 . S
Co98 O100 2.091 . S
Co98 O102 2.004 . S
Co98 O108 2.021 . S
Co98 O110 2.137 . S
Co98 O111 2.244 . S
O99 Co98 2.216 . S
O99 C106 1.247 . S
O100 Co98 2.091 . S
O100 C106 1.261 . S
C101 O110 1.247 . S
C101 O111 1.272 . S
O102 Co98 2.004 . S
O102 C107 1.259 . S
Co103 O104 2.061 . S
Co103 O109 2.052 . S
Co103 O111 2.135 . S
O104 Co103 2.061 . S
O104 C107 1.235 . S
C105 O108 1.238 . S
C105 O109 1.241 . S
C106 O99 1.247 . S
C106 O100 1.261 . S
C107 O102 1.259 . S
C107 O104 1.235 . S
O108 Co98 2.021 . S
O108 C105 1.238 . S
O109 Co103 2.052 . S
O109 C105 1.241 . S
O110 Co98 2.137 . S
O110 C101 1.247 . S
O111 Co98 2.244 . S
O111 C101 1.272 . S
O111 Co103 2.135 . S
Co112 O113 2.216 . S
Co112 O114 2.091 . S
Co112 O116 2.004 . S
Co112 O122 2.021 . S
Co112 O124 2.137 . S
Co112 O125 2.244 . S
O113 Co112 2.216 . S
O113 C120 1.247 . S
O114 Co112 2.091 . S
O114 C120 1.261 . S
C115 O124 1.247 . S
C115 O125 1.272 . S
O116 Co112 2.004 . S
O116 C121 1.259 . S
Co117 O118 2.061 . S
Co117 O123 2.052 . S
Co117 O125 2.135 . S
O118 Co117 2.061 . S
O118 C121 1.235 . S
C119 O122 1.238 . S
C119 O123 1.241 . S
C120 O113 1.247 . S
C120 O114 1.261 . S
C121 O116 1.259 . S
C121 O118 1.235 . S
O122 Co112 2.021 . S
O122 C119 1.238 . S
O123 Co117 2.052 . S
O123 C119 1.241 . S
O124 Co112 2.137 . S
O124 C115 1.247 . S
O125 Co112 2.244 . S
O125 C115 1.272 . S
O125 Co117 2.135 . S
Co126 O127 2.216 . S
Co126 O128 2.091 . S
Co126 O130 2.004 . S
Co126 O136 2.021 . S
Co126 O138 2.137 . S
Co126 O139 2.244 . S
O127 Co126 2.216 . S
O127 C134 1.247 . S
O128 Co126 2.091 . S
O128 C134 1.261 . S
C129 O138 1.247 . S
C129 O139 1.272 . S
O130 Co126 2.004 . S
O130 C135 1.259 . S
Co131 O132 2.061 . S
Co131 O137 2.052 . S
Co131 O139 2.135 . S
O132 Co131 2.061 . S
O132 C135 1.235 . S
C133 O136 1.238 . S
C133 O137 1.241 . S
C134 O127 1.247 . S
C134 O128 1.261 . S
C135 O130 1.259 . S
C135 O132 1.235 . S
O136 Co126 2.021 . S
O136 C133 1.238 . S
O137 Co131 2.052 . S
O137 C133 1.241 . S
O138 Co126 2.137 . S
O138 C129 1.247 . S
O139 Co126 2.244 . S
O139 C129 1.272 . S
O139 Co131 2.135 . S
Co140 O141 2.216 . S
Co140 O142 2.091 . S
Co140 O144 2.004 . S
Co140 O150 2.021 . S
Co140 O152 2.137 . S
Co140 O153 2.244 . S
O141 Co140 2.216 . S
O141 C148 1.247 . S
O142 Co140 2.091 . S
O142 C148 1.261 . S
C143 O152 1.247 . S
C143 O153 1.272 . S
O144 Co140 2.004 . S
O144 C149 1.259 . S
Co145 O146 2.061 . S
Co145 O151 2.052 . S
Co145 O153 2.135 . S
O146 Co145 2.061 . S
O146 C149 1.235 . S
C147 O150 1.238 . S
C147 O151 1.241 . S
C148 O141 1.247 . S
C148 O142 1.261 . S
C149 O144 1.259 . S
C149 O146 1.235 . S
O150 Co140 2.021 . S
O150 C147 1.238 . S
O151 Co145 2.052 . S
O151 C147 1.241 . S
O152 Co140 2.137 . S
O152 C143 1.247 . S
O153 Co140 2.244 . S
O153 C143 1.272 . S
O153 Co145 2.135 . S
Co154 O155 2.216 . S
Co154 O156 2.091 . S
Co154 O158 2.004 . S
Co154 O164 2.021 . S
Co154 O166 2.137 . S
Co154 O167 2.244 . S
O155 Co154 2.216 . S
O155 C162 1.247 . S
O156 Co154 2.091 . S
O156 C162 1.261 . S
C157 O166 1.247 . S
C157 O167 1.272 . S
O158 Co154 2.004 . S
O158 C163 1.259 . S
Co159 O160 2.061 . S
Co159 O165 2.052 . S
Co159 O167 2.135 . S
O160 Co159 2.061 . S
O160 C163 1.235 . S
C161 O164 1.238 . S
C161 O165 1.241 . S
C162 O155 1.247 . S
C162 O156 1.261 . S
C163 O158 1.259 . S
C163 O160 1.235 . S
O164 Co154 2.021 . S
O164 C161 1.238 . S
O165 Co159 2.052 . S
O165 C161 1.241 . S
O166 Co154 2.137 . S
O166 C157 1.247 . S
O167 Co154 2.244 . S
O167 C157 1.272 . S
O167 Co159 2.135 . S
Co168 O169 2.216 . S
Co168 O170 2.091 . S
Co168 O172 2.004 . S
Co168 O178 2.021 . S
Co168 O180 2.137 . S
Co168 O181 2.244 . S
O169 Co168 2.216 . S
O169 C176 1.247 . S
O170 Co168 2.091 . S
O170 C176 1.261 . S
C171 O180 1.247 . S
C171 O181 1.272 . S
O172 Co168 2.004 . S
O172 C177 1.259 . S
Co173 O174 2.061 . S
Co173 O179 2.052 . S
Co173 O181 2.135 . S
O174 Co173 2.061 . S
O174 C177 1.235 . S
C175 O178 1.238 . S
C175 O179 1.241 . S
C176 O169 1.247 . S
C176 O170 1.261 . S
C177 O172 1.259 . S
C177 O174 1.235 . S
O178 Co168 2.021 . S
O178 C175 1.238 . S
O179 Co173 2.052 . S
O179 C175 1.241 . S
O180 Co168 2.137 . S
O180 C171 1.247 . S
O181 Co168 2.244 . S
O181 C171 1.272 . S
O181 Co173 2.135 . S
Co182 O183 2.216 . S
Co182 O184 2.091 . S
Co182 O186 2.004 . S
Co182 O192 2.021 . S
Co182 O194 2.137 . S
Co182 O195 2.244 . S
O183 Co182 2.216 . S
O183 C190 1.247 . S
O184 Co182 2.091 . S
O184 C190 1.261 . S
C185 O194 1.247 . S
C185 O195 1.272 . S
O186 Co182 2.004 . S
O186 C191 1.259 . S
Co187 O188 2.061 . S
Co187 O193 2.052 . S
Co187 O195 2.135 . S
O188 Co187 2.061 . S
O188 C191 1.235 . S
C189 O192 1.238 . S
C189 O193 1.241 . S
C190 O183 1.247 . S
C190 O184 1.261 . S
C191 O186 1.259 . S
C191 O188 1.235 . S
O192 Co182 2.021 . S
O192 C189 1.238 . S
O193 Co187 2.052 . S
O193 C189 1.241 . S
O194 Co182 2.137 . S
O194 C185 1.247 . S
O195 Co182 2.244 . S
O195 C185 1.272 . S
O195 Co187 2.135 . S
Co196 O197 2.216 . S
Co196 O198 2.091 . S
Co196 O200 2.004 . S
Co196 O206 2.021 . S
Co196 O208 2.137 . S
Co196 O209 2.244 . S
O197 Co196 2.216 . S
O197 C204 1.247 . S
O198 Co196 2.091 . S
O198 C204 1.261 . S
C199 O208 1.247 . S
C199 O209 1.272 . S
O200 Co196 2.004 . S
O200 C205 1.259 . S
Co201 O202 2.061 . S
Co201 O207 2.052 . S
Co201 O209 2.135 . S
O202 Co201 2.061 . S
O202 C205 1.235 . S
C203 O206 1.238 . S
C203 O207 1.241 . S
C204 O197 1.247 . S
C204 O198 1.261 . S
C205 O200 1.259 . S
C205 O202 1.235 . S
O206 Co196 2.021 . S
O206 C203 1.238 . S
O207 Co201 2.052 . S
O207 C203 1.241 . S
O208 Co196 2.137 . S
O208 C199 1.247 . S
O209 Co196 2.244 . S
O209 C199 1.272 . S
O209 Co201 2.135 . S
Co210 O211 2.216 . S
Co210 O212 2.091 . S
Co210 O214 2.004 . S
Co210 O220 2.021 . S
Co210 O222 2.137 . S
Co210 O223 2.244 . S
O211 Co210 2.216 . S
O211 C218 1.247 . S
O212 Co210 2.091 . S
O212 C218 1.261 . S
C213 O222 1.247 . S
C213 O223 1.272 . S
O214 Co210 2.004 . S
O214 C219 1.259 . S
Co215 O216 2.061 . S
Co215 O221 2.052 . S
Co215 O223 2.135 . S
O216 Co215 2.061 . S
O216 C219 1.235 . S
C217 O220 1.238 . S
C217 O221 1.241 . S
C218 O211 1.247 . S
C218 O212 1.261 . S
C219 O214 1.259 . S
C219 O216 1.235 . S
O220 Co210 2.021 . S
O220 C217 1.238 . S
O221 Co215 2.052 . S
O221 C217 1.241 . S
O222 Co210 2.137 . S
O222 C213 1.247 . S
O223 Co210 2.244 . S
O223 C213 1.272 . S
O223 Co215 2.135 . S
Co224 O225 2.216 . S
Co224 O226 2.091 . S
Co224 O228 2.004 . S
Co224 O234 2.021 . S
Co224 O236 2.137 . S
Co224 O237 2.244 . S
O225 Co224 2.216 . S
O225 C232 1.247 . S
O226 Co224 2.091 . S
O226 C232 1.261 . S
C227 O236 1.247 . S
C227 O237 1.272 . S
O228 Co224 2.004 . S
O228 C233 1.259 . S
Co229 O230 2.061 . S
Co229 O235 2.052 . S
Co229 O237 2.135 . S
O230 Co229 2.061 . S
O230 C233 1.235 . S
C231 O234 1.238 . S
C231 O235 1.241 . S
C232 O225 1.247 . S
C232 O226 1.261 . S
C233 O228 1.259 . S
C233 O230 1.235 . S
O234 Co224 2.021 . S
O234 C231 1.238 . S
O235 Co229 2.052 . S
O235 C231 1.241 . S
O236 Co224 2.137 . S
O236 C227 1.247 . S
O237 Co224 2.244 . S
O237 C227 1.272 . S
O237 Co229 2.135 . S
Co238 O239 2.216 . S
Co238 O240 2.091 . S
Co238 O242 2.004 . S
Co238 O248 2.021 . S
Co238 O250 2.137 . S
Co238 O251 2.244 . S
O239 Co238 2.216 . S
O239 C246 1.247 . S
O240 Co238 2.091 . S
O240 C246 1.261 . S
C241 O250 1.247 . S
C241 O251 1.272 . S
O242 Co238 2.004 . S
O242 C247 1.259 . S
Co243 O244 2.061 . S
Co243 O249 2.052 . S
Co243 O251 2.135 . S
O244 Co243 2.061 . S
O244 C247 1.235 . S
C245 O248 1.238 . S
C245 O249 1.241 . S
C246 O239 1.247 . S
C246 O240 1.261 . S
C247 O242 1.259 . S
C247 O244 1.235 . S
O248 Co238 2.021 . S
O248 C245 1.238 . S
O249 Co243 2.052 . S
O249 C245 1.241 . S
O250 Co238 2.137 . S
O250 C241 1.247 . S
O251 Co238 2.244 . S
O251 C241 1.272 . S
O251 Co243 2.135 . S
Co252 O253 2.216 . S
Co252 O254 2.091 . S
Co252 O256 2.004 . S
Co252 O262 2.021 . S
Co252 O264 2.137 . S
Co252 O265 2.244 . S
O253 Co252 2.216 . S
O253 C260 1.247 . S
O254 Co252 2.091 . S
O254 C260 1.261 . S
C255 O264 1.247 . S
C255 O265 1.272 . S
O256 Co252 2.004 . S
O256 C261 1.259 . S
Co257 O258 2.061 . S
Co257 O263 2.052 . S
Co257 O265 2.135 . S
O258 Co257 2.061 . S
O258 C261 1.235 . S
C259 O262 1.238 . S
C259 O263 1.241 . S
C260 O253 1.247 . S
C260 O254 1.261 . S
C261 O256 1.259 . S
C261 O258 1.235 . S
O262 Co252 2.021 . S
O262 C259 1.238 . S
O263 Co257 2.052 . S
O263 C259 1.241 . S
O264 Co252 2.137 . S
O264 C255 1.247 . S
O265 Co252 2.244 . S
O265 C255 1.272 . S
O265 Co257 2.135 . S
Co266 O267 2.216 . S
Co266 O268 2.091 . S
Co266 O270 2.004 . S
Co266 O276 2.021 . S
Co266 O278 2.137 . S
Co266 O279 2.244 . S
O267 Co266 2.216 . S
O267 C274 1.247 . S
O268 Co266 2.091 . S
O268 C274 1.261 . S
C269 O278 1.247 . S
C269 O279 1.272 . S
O270 Co266 2.004 . S
O270 C275 1.259 . S
Co271 O272 2.061 . S
Co271 O277 2.052 . S
Co271 O279 2.135 . S
O272 Co271 2.061 . S
O272 C275 1.235 . S
C273 O276 1.238 . S
C273 O277 1.241 . S
C274 O267 1.247 . S
C274 O268 1.261 . S
C275 O270 1.259 . S
C275 O272 1.235 . S
O276 Co266 2.021 . S
O276 C273 1.238 . S
O277 Co271 2.052 . S
O277 C273 1.241 . S
O278 Co266 2.137 . S
O278 C269 1.247 . S
O279 Co266 2.244 . S
O279 C269 1.272 . S
O279 Co271 2.135 . S
Co280 O281 2.216 . S
Co280 O282 2.091 . S
Co280 O284 2.004 . S
Co280 O290 2.021 . S
Co280 O292 2.137 . S
Co280 O293 2.244 . S
O281 Co280 2.216 . S
O281 C288 1.247 . S
O282 Co280 2.091 . S
O282 C288 1.261 . S
C283 O292 1.247 . S
C283 O293 1.272 . S
O284 Co280 2.004 . S
O284 C289 1.259 . S
Co285 O286 2.061 . S
Co285 O291 2.052 . S
Co285 O293 2.135 . S
O286 Co285 2.061 . S
O286 C289 1.235 . S
C287 O290 1.238 . S
C287 O291 1.241 . S
C288 O281 1.247 . S
C288 O282 1.261 . S
C289 O284 1.259 . S
C289 O286 1.235 . S
O290 Co280 2.021 . S
O290 C287 1.238 . S
O291 Co285 2.052 . S
O291 C287 1.241 . S
O292 Co280 2.137 . S
O292 C283 1.247 . S
O293 Co280 2.244 . S
O293 C283 1.272 . S
O293 Co285 2.135 . S
Co294 O295 2.216 . S
Co294 O296 2.091 . S
Co294 O298 2.004 . S
Co294 O304 2.021 . S
Co294 O306 2.137 . S
Co294 O307 2.244 . S
O295 Co294 2.216 . S
O295 C302 1.247 . S
O296 Co294 2.091 . S
O296 C302 1.261 . S
C297 O306 1.247 . S
C297 O307 1.272 . S
O298 Co294 2.004 . S
O298 C303 1.259 . S
Co299 O300 2.061 . S
Co299 O305 2.052 . S
Co299 O307 2.135 . S
O300 Co299 2.061 . S
O300 C303 1.235 . S
C301 O304 1.238 . S
C301 O305 1.241 . S
C302 O295 1.247 . S
C302 O296 1.261 . S
C303 O298 1.259 . S
C303 O300 1.235 . S
O304 Co294 2.021 . S
O304 C301 1.238 . S
O305 Co299 2.052 . S
O305 C301 1.241 . S
O306 Co294 2.137 . S
O306 C297 1.247 . S
O307 Co294 2.244 . S
O307 C297 1.272 . S
O307 Co299 2.135 . S
Co308 O309 2.216 . S
Co308 O310 2.091 . S
Co308 O312 2.004 . S
Co308 O318 2.021 . S
Co308 O320 2.137 . S
Co308 O321 2.244 . S
O309 Co308 2.216 . S
O309 C316 1.247 . S
O310 Co308 2.091 . S
O310 C316 1.261 . S
C311 O320 1.247 . S
C311 O321 1.272 . S
O312 Co308 2.004 . S
O312 C317 1.259 . S
Co313 O314 2.061 . S
Co313 O319 2.052 . S
Co313 O321 2.135 . S
O314 Co313 2.061 . S
O314 C317 1.235 . S
C315 O318 1.238 . S
C315 O319 1.241 . S
C316 O309 1.247 . S
C316 O310 1.261 . S
C317 O312 1.259 . S
C317 O314 1.235 . S
O318 Co308 2.021 . S
O318 C315 1.238 . S
O319 Co313 2.052 . S
O319 C315 1.241 . S
O320 Co308 2.137 . S
O320 C311 1.247 . S
O321 Co308 2.244 . S
O321 C311 1.272 . S
O321 Co313 2.135 . S
Co322 O323 2.216 . S
Co322 O324 2.091 . S
Co322 O326 2.004 . S
Co322 O332 2.021 . S
Co322 O334 2.137 . S
Co322 O335 2.244 . S
O323 Co322 2.216 . S
O323 C330 1.247 . S
O324 Co322 2.091 . S
O324 C330 1.261 . S
C325 O334 1.247 . S
C325 O335 1.272 . S
O326 Co322 2.004 . S
O326 C331 1.259 . S
Co327 O328 2.061 . S
Co327 O333 2.052 . S
Co327 O335 2.135 . S
O328 Co327 2.061 . S
O328 C331 1.235 . S
C329 O332 1.238 . S
C329 O333 1.241 . S
C330 O323 1.247 . S
C330 O324 1.261 . S
C331 O326 1.259 . S
C331 O328 1.235 . S
O332 Co322 2.021 . S
O332 C329 1.238 . S
O333 Co327 2.052 . S
O333 C329 1.241 . S
O334 Co322 2.137 . S
O334 C325 1.247 . S
O335 Co322 2.244 . S
O335 C325 1.272 . S
O335 Co327 2.135 . S
Co336 O337 2.216 . S
Co336 O338 2.091 . S
Co336 O340 2.004 . S
Co336 O346 2.021 . S
Co336 O348 2.137 . S
Co336 O349 2.244 . S
O337 Co336 2.216 . S
O337 C344 1.247 . S
O338 Co336 2.091 . S
O338 C344 1.261 . S
C339 O348 1.247 . S
C339 O349 1.272 . S
O340 Co336 2.004 . S
O340 C345 1.259 . S
Co341 O342 2.061 . S
Co341 O347 2.052 . S
Co341 O349 2.135 . S
O342 Co341 2.061 . S
O342 C345 1.235 . S
C343 O346 1.238 . S
C343 O347 1.241 . S
C344 O337 1.247 . S
C344 O338 1.261 . S
C345 O340 1.259 . S
C345 O342 1.235 . S
O346 Co336 2.021 . S
O346 C343 1.238 . S
O347 Co341 2.052 . S
O347 C343 1.241 . S
O348 Co336 2.137 . S
O348 C339 1.247 . S
O349 Co336 2.244 . S
O349 C339 1.272 . S
O349 Co341 2.135 . S
Co350 O351 2.216 . S
Co350 O352 2.091 . S
Co350 O354 2.004 . S
Co350 O360 2.021 . S
Co350 O362 2.137 . S
Co350 O363 2.244 . S
O351 Co350 2.216 . S
O351 C358 1.247 . S
O352 Co350 2.091 . S
O352 C358 1.261 . S
C353 O362 1.247 . S
C353 O363 1.272 . S
O354 Co350 2.004 . S
O354 C359 1.259 . S
Co355 O356 2.061 . S
Co355 O361 2.052 . S
Co355 O363 2.135 . S
O356 Co355 2.061 . S
O356 C359 1.235 . S
C357 O360 1.238 . S
C357 O361 1.241 . S
C358 O351 1.247 . S
C358 O352 1.261 . S
C359 O354 1.259 . S
C359 O356 1.235 . S
O360 Co350 2.021 . S
O360 C357 1.238 . S
O361 Co355 2.052 . S
O361 C357 1.241 . S
O362 Co350 2.137 . S
O362 C353 1.247 . S
O363 Co350 2.244 . S
O363 C353 1.272 . S
O363 Co355 2.135 . S
Co364 O365 2.216 . S
Co364 O366 2.091 . S
Co364 O368 2.004 . S
Co364 O374 2.021 . S
Co364 O376 2.137 . S
Co364 O377 2.244 . S
O365 Co364 2.216 . S
O365 C372 1.247 . S
O366 Co364 2.091 . S
O366 C372 1.261 . S
C367 O376 1.247 . S
C367 O377 1.272 . S
O368 Co364 2.004 . S
O368 C373 1.259 . S
Co369 O370 2.061 . S
Co369 O375 2.052 . S
Co369 O377 2.135 . S
O370 Co369 2.061 . S
O370 C373 1.235 . S
C371 O374 1.238 . S
C371 O375 1.241 . S
C372 O365 1.247 . S
C372 O366 1.261 . S
C373 O368 1.259 . S
C373 O370 1.235 . S
O374 Co364 2.021 . S
O374 C371 1.238 . S
O375 Co369 2.052 . S
O375 C371 1.241 . S
O376 Co364 2.137 . S
O376 C367 1.247 . S
O377 Co364 2.244 . S
O377 C367 1.272 . S
O377 Co369 2.135 . S
Co378 O379 2.216 . S
Co378 O380 2.091 . S
Co378 O382 2.004 . S
Co378 O388 2.021 . S
Co378 O390 2.137 . S
Co378 O391 2.244 . S
O379 Co378 2.216 . S
O379 C386 1.247 . S
O380 Co378 2.091 . S
O380 C386 1.261 . S
C381 O390 1.247 . S
C381 O391 1.272 . S
O382 Co378 2.004 . S
O382 C387 1.259 . S
Co383 O384 2.061 . S
Co383 O389 2.052 . S
Co383 O391 2.135 . S
O384 Co383 2.061 . S
O384 C387 1.235 . S
C385 O388 1.238 . S
C385 O389 1.241 . S
C386 O379 1.247 . S
C386 O380 1.261 . S
C387 O382 1.259 . S
C387 O384 1.235 . S
O388 Co378 2.021 . S
O388 C385 1.238 . S
O389 Co383 2.052 . S
O389 C385 1.241 . S
O390 Co378 2.137 . S
O390 C381 1.247 . S
O391 Co378 2.244 . S
O391 C381 1.272 . S
O391 Co383 2.135 . S
Co392 O393 2.216 . S
Co392 O394 2.091 . S
Co392 O396 2.004 . S
Co392 O402 2.021 . S
Co392 O404 2.137 . S
Co392 O405 2.244 . S
O393 Co392 2.216 . S
O393 C400 1.247 . S
O394 Co392 2.091 . S
O394 C400 1.261 . S
C395 O404 1.247 . S
C395 O405 1.272 . S
O396 Co392 2.004 . S
O396 C401 1.259 . S
Co397 O398 2.061 . S
Co397 O403 2.052 . S
Co397 O405 2.135 . S
O398 Co397 2.061 . S
O398 C401 1.235 . S
C399 O402 1.238 . S
C399 O403 1.241 . S
C400 O393 1.247 . S
C400 O394 1.261 . S
C401 O396 1.259 . S
C401 O398 1.235 . S
O402 Co392 2.021 . S
O402 C399 1.238 . S
O403 Co397 2.052 . S
O403 C399 1.241 . S
O404 Co392 2.137 . S
O404 C395 1.247 . S
O405 Co392 2.244 . S
O405 C395 1.272 . S
O405 Co397 2.135 . S
Co406 O407 2.216 . S
Co406 O408 2.091 . S
Co406 O410 2.004 . S
Co406 O416 2.021 . S
Co406 O418 2.137 . S
Co406 O419 2.244 . S
O407 Co406 2.216 . S
O407 C414 1.247 . S
O408 Co406 2.091 . S
O408 C414 1.261 . S
C409 O418 1.247 . S
C409 O419 1.272 . S
O410 Co406 2.004 . S
O410 C415 1.259 . S
Co411 O412 2.061 . S
Co411 O417 2.052 . S
Co411 O419 2.135 . S
O412 Co411 2.061 . S
O412 C415 1.235 . S
C413 O416 1.238 . S
C413 O417 1.241 . S
C414 O407 1.247 . S
C414 O408 1.261 . S
C415 O410 1.259 . S
C415 O412 1.235 . S
O416 Co406 2.021 . S
O416 C413 1.238 . S
O417 Co411 2.052 . S
O417 C413 1.241 . S
O418 Co406 2.137 . S
O418 C409 1.247 . S
O419 Co406 2.244 . S
O419 C409 1.272 . S
O419 Co411 2.135 . S
Co420 O421 2.216 . S
Co420 O422 2.091 . S
Co420 O424 2.004 . S
Co420 O430 2.021 . S
Co420 O432 2.137 . S
Co420 O433 2.244 . S
O421 Co420 2.216 . S
O421 C428 1.247 . S
O422 Co420 2.091 . S
O422 C428 1.261 . S
C423 O432 1.247 . S
C423 O433 1.272 . S
O424 Co420 2.004 . S
O424 C429 1.259 . S
Co425 O426 2.061 . S
Co425 O431 2.052 . S
Co425 O433 2.135 . S
O426 Co425 2.061 . S
O426 C429 1.235 . S
C427 O430 1.238 . S
C427 O431 1.241 . S
C428 O421 1.247 . S
C428 O422 1.261 . S
C429 O424 1.259 . S
C429 O426 1.235 . S
O430 Co420 2.021 . S
O430 C427 1.238 . S
O431 Co425 2.052 . S
O431 C427 1.241 . S
O432 Co420 2.137 . S
O432 C423 1.247 . S
O433 Co420 2.244 . S
O433 C423 1.272 . S
O433 Co425 2.135 . S
Co434 O435 2.216 . S
Co434 O436 2.091 . S
Co434 O438 2.004 . S
Co434 O444 2.021 . S
Co434 O446 2.137 . S
Co434 O447 2.244 . S
O435 Co434 2.216 . S
O435 C442 1.247 . S
O436 Co434 2.091 . S
O436 C442 1.261 . S
C437 O446 1.247 . S
C437 O447 1.272 . S
O438 Co434 2.004 . S
O438 C443 1.259 . S
Co439 O440 2.061 . S
Co439 O445 2.052 . S
Co439 O447 2.135 . S
O440 Co439 2.061 . S
O440 C443 1.235 . S
C441 O444 1.238 . S
C441 O445 1.241 . S
C442 O435 1.247 . S
C442 O436 1.261 . S
C443 O438 1.259 . S
C443 O440 1.235 . S
O444 Co434 2.021 . S
O444 C441 1.238 . S
O445 Co439 2.052 . S
O445 C441 1.241 . S
O446 Co434 2.137 . S
O446 C437 1.247 . S
O447 Co434 2.244 . S
O447 C437 1.272 . S
O447 Co439 2.135 . S
Co448 O449 2.216 . S
Co448 O450 2.091 . S
Co448 O452 2.004 . S
Co448 O458 2.021 . S
Co448 O460 2.137 . S
Co448 O461 2.244 . S
O449 Co448 2.216 . S
O449 C456 1.247 . S
O450 Co448 2.091 . S
O450 C456 1.261 . S
C451 O460 1.247 . S
C451 O461 1.272 . S
O452 Co448 2.004 . S
O452 C457 1.259 . S
Co453 O454 2.061 . S
Co453 O459 2.052 . S
Co453 O461 2.135 . S
O454 Co453 2.061 . S
O454 C457 1.235 . S
C455 O458 1.238 . S
C455 O459 1.241 . S
C456 O449 1.247 . S
C456 O450 1.261 . S
C457 O452 1.259 . S
C457 O454 1.235 . S
O458 Co448 2.021 . S
O458 C455 1.238 . S
O459 Co453 2.052 . S
O459 C455 1.241 . S
O460 Co448 2.137 . S
O460 C451 1.247 . S
O461 Co448 2.244 . S
O461 C451 1.272 . S
O461 Co453 2.135 . S
Co462 O463 2.216 . S
Co462 O464 2.091 . S
Co462 O466 2.004 . S
Co462 O472 2.021 . S
Co462 O474 2.137 . S
Co462 O475 2.244 . S
O463 Co462 2.216 . S
O463 C470 1.247 . S
O464 Co462 2.091 . S
O464 C470 1.261 . S
C465 O474 1.247 . S
C465 O475 1.272 . S
O466 Co462 2.004 . S
O466 C471 1.259 . S
Co467 O468 2.061 . S
Co467 O473 2.052 . S
Co467 O475 2.135 . S
O468 Co467 2.061 . S
O468 C471 1.235 . S
C469 O472 1.238 . S
C469 O473 1.241 . S
C470 O463 1.247 . S
C470 O464 1.261 . S
C471 O466 1.259 . S
C471 O468 1.235 . S
O472 Co462 2.021 . S
O472 C469 1.238 . S
O473 Co467 2.052 . S
O473 C469 1.241 . S
O474 Co462 2.137 . S
O474 C465 1.247 . S
O475 Co462 2.244 . S
O475 C465 1.272 . S
O475 Co467 2.135 . S
Co476 O477 2.216 . S
Co476 O478 2.091 . S
Co476 O480 2.004 . S
Co476 O486 2.021 . S
Co476 O488 2.137 . S
Co476 O489 2.244 . S
O477 Co476 2.216 . S
O477 C484 1.247 . S
O478 Co476 2.091 . S
O478 C484 1.261 . S
C479 O488 1.247 . S
C479 O489 1.272 . S
O480 Co476 2.004 . S
O480 C485 1.259 . S
Co481 O482 2.061 . S
Co481 O487 2.052 . S
Co481 O489 2.135 . S
O482 Co481 2.061 . S
O482 C485 1.235 . S
C483 O486 1.238 . S
C483 O487 1.241 . S
C484 O477 1.247 . S
C484 O478 1.261 . S
C485 O480 1.259 . S
C485 O482 1.235 . S
O486 Co476 2.021 . S
O486 C483 1.238 . S
O487 Co481 2.052 . S
O487 C483 1.241 . S
O488 Co476 2.137 . S
O488 C479 1.247 . S
O489 Co476 2.244 . S
O489 C479 1.272 . S
O489 Co481 2.135 . S
Co490 O491 2.216 . S
Co490 O492 2.091 . S
Co490 O494 2.004 . S
Co490 O500 2.021 . S
Co490 O502 2.137 . S
Co490 O503 2.244 . S
O491 Co490 2.216 . S
O491 C498 1.247 . S
O492 Co490 2.091 . S
O492 C498 1.261 . S
C493 O502 1.247 . S
C493 O503 1.272 . S
O494 Co490 2.004 . S
O494 C499 1.259 . S
Co495 O496 2.061 . S
Co495 O501 2.052 . S
Co495 O503 2.135 . S
O496 Co495 2.061 . S
O496 C499 1.235 . S
C497 O500 1.238 . S
C497 O501 1.241 . S
C498 O491 1.247 . S
C498 O492 1.261 . S
C499 O494 1.259 . S
C499 O496 1.235 . S
O500 Co490 2.021 . S
O500 C497 1.238 . S
O501 Co495 2.052 . S
O501 C497 1.241 . S
O502 Co490 2.137 . S
O502 C493 1.247 . S
O503 Co490 2.244 . S
O503 C493 1.272 . S
O503 Co495 2.135 . S
Co504 O505 2.216 . S
Co504 O506 2.091 . S
Co504 O508 2.004 . S
Co504 O514 2.021 . S
Co504 O516 2.137 . S
Co504 O517 2.244 . S
O505 Co504 2.216 . S
O505 C512 1.247 . S
O506 Co504 2.091 . S
O506 C512 1.261 . S
C507 O516 1.247 . S
C507 O517 1.272 . S
O508 Co504 2.004 . S
O508 C513 1.259 . S
Co509 O510 2.061 . S
Co509 O515 2.052 . S
Co509 O517 2.135 . S
O510 Co509 2.061 . S
O510 C513 1.235 . S
C511 O514 1.238 . S
C511 O515 1.241 . S
C512 O505 1.247 . S
C512 O506 1.261 . S
C513 O508 1.259 . S
C513 O510 1.235 . S
O514 Co504 2.021 . S
O514 C511 1.238 . S
O515 Co509 2.052 . S
O515 C511 1.241 . S
O516 Co504 2.137 . S
O516 C507 1.247 . S
O517 Co504 2.244 . S
O517 C507 1.272 . S
O517 Co509 2.135 . S
Co518 O519 2.216 . S
Co518 O520 2.091 . S
Co518 O522 2.004 . S
Co518 O528 2.021 . S
Co518 O530 2.137 . S
Co518 O531 2.244 . S
O519 Co518 2.216 . S
O519 C526 1.247 . S
O520 Co518 2.091 . S
O520 C526 1.261 . S
C521 O530 1.247 . S
C521 O531 1.272 . S
O522 Co518 2.004 . S
O522 C527 1.259 . S
Co523 O524 2.061 . S
Co523 O529 2.052 . S
Co523 O531 2.135 . S
O524 Co523 2.061 . S
O524 C527 1.235 . S
C525 O528 1.238 . S
C525 O529 1.241 . S
C526 O519 1.247 . S
C526 O520 1.261 . S
C527 O522 1.259 . S
C527 O524 1.235 . S
O528 Co518 2.021 . S
O528 C525 1.238 . S
O529 Co523 2.052 . S
O529 C525 1.241 . S
O530 Co518 2.137 . S
O530 C521 1.247 . S
O531 Co518 2.244 . S
O531 C521 1.272 . S
O531 Co523 2.135 . S
Co532 O533 2.216 . S
Co532 O534 2.091 . S
Co532 O536 2.004 . S
Co532 O542 2.021 . S
Co532 O544 2.137 . S
Co532 O545 2.244 . S
O533 Co532 2.216 . S
O533 C540 1.247 . S
O534 Co532 2.091 . S
O534 C540 1.261 . S
C535 O544 1.247 . S
C535 O545 1.272 . S
O536 Co532 2.004 . S
O536 C541 1.259 . S
Co537 O538 2.061 . S
Co537 O543 2.052 . S
Co537 O545 2.135 . S
O538 Co537 2.061 . S
O538 C541 1.235 . S
C539 O542 1.238 . S
C539 O543 1.241 . S
C540 O533 1.247 . S
C540 O534 1.261 . S
C541 O536 1.259 . S
C541 O538 1.235 . S
O542 Co532 2.021 . S
O542 C539 1.238 . S
O543 Co537 2.052 . S
O543 C539 1.241 . S
O544 Co532 2.137 . S
O544 C535 1.247 . S
O545 Co532 2.244 . S
O545 C535 1.272 . S
O545 Co537 2.135 . S
Co546 O547 2.216 . S
Co546 O548 2.091 . S
Co546 O550 2.004 . S
Co546 O556 2.021 . S
Co546 O558 2.137 . S
Co546 O559 2.244 . S
O547 Co546 2.216 . S
O547 C554 1.247 . S
O548 Co546 2.091 . S
O548 C554 1.261 . S
C549 O558 1.247 . S
C549 O559 1.272 . S
O550 Co546 2.004 . S
O550 C555 1.259 . S
Co551 O552 2.061 . S
Co551 O557 2.052 . S
Co551 O559 2.135 . S
O552 Co551 2.061 . S
O552 C555 1.235 . S
C553 O556 1.238 . S
C553 O557 1.241 . S
C554 O547 1.247 . S
C554 O548 1.261 . S
C555 O550 1.259 . S
C555 O552 1.235 . S
O556 Co546 2.021 . S
O556 C553 1.238 . S
O557 Co551 2.052 . S
O557 C553 1.241 . S
O558 Co546 2.137 . S
O558 C549 1.247 . S
O559 Co546 2.244 . S
O559 C549 1.272 . S
O559 Co551 2.135 . S
Co560 O561 2.216 . S
Co560 O562 2.091 . S
Co560 O564 2.004 . S
Co560 O570 2.021 . S
Co560 O572 2.137 . S
Co560 O573 2.244 . S
O561 Co560 2.216 . S
O561 C568 1.247 . S
O562 Co560 2.091 . S
O562 C568 1.261 . S
C563 O572 1.247 . S
C563 O573 1.272 . S
O564 Co560 2.004 . S
O564 C569 1.259 . S
Co565 O566 2.061 . S
Co565 O571 2.052 . S
Co565 O573 2.135 . S
O566 Co565 2.061 . S
O566 C569 1.235 . S
C567 O570 1.238 . S
C567 O571 1.241 . S
C568 O561 1.247 . S
C568 O562 1.261 . S
C569 O564 1.259 . S
C569 O566 1.235 . S
O570 Co560 2.021 . S
O570 C567 1.238 . S
O571 Co565 2.052 . S
O571 C567 1.241 . S
O572 Co560 2.137 . S
O572 C563 1.247 . S
O573 Co560 2.244 . S
O573 C563 1.272 . S
O573 Co565 2.135 . S
Co574 O575 2.216 . S
Co574 O576 2.091 . S
Co574 O578 2.004 . S
Co574 O584 2.021 . S
Co574 O586 2.137 . S
Co574 O587 2.244 . S
O575 Co574 2.216 . S
O575 C582 1.247 . S
O576 Co574 2.091 . S
O576 C582 1.261 . S
C577 O586 1.247 . S
C577 O587 1.272 . S
O578 Co574 2.004 . S
O578 C583 1.259 . S
Co579 O580 2.061 . S
Co579 O585 2.052 . S
Co579 O587 2.135 . S
O580 Co579 2.061 . S
O580 C583 1.235 . S
C581 O584 1.238 . S
C581 O585 1.241 . S
C582 O575 1.247 . S
C582 O576 1.261 . S
C583 O578 1.259 . S
C583 O580 1.235 . S
O584 Co574 2.021 . S
O584 C581 1.238 . S
O585 Co579 2.052 . S
O585 C581 1.241 . S
O586 Co574 2.137 . S
O586 C577 1.247 . S
O587 Co574 2.244 . S
O587 C577 1.272 . S
O587 Co579 2.135 . S
Co588 O589 2.216 . S
Co588 O590 2.091 . S
Co588 O592 2.004 . S
Co588 O598 2.021 . S
Co588 O600 2.137 . S
Co588 O601 2.244 . S
O589 Co588 2.216 . S
O589 C596 1.247 . S
O590 Co588 2.091 . S
O590 C596 1.261 . S
C591 O600 1.247 . S
C591 O601 1.272 . S
O592 Co588 2.004 . S
O592 C597 1.259 . S
Co593 O594 2.061 . S
Co593 O599 2.052 . S
Co593 O601 2.135 . S
O594 Co593 2.061 . S
O594 C597 1.235 . S
C595 O598 1.238 . S
C595 O599 1.241 . S
C596 O589 1.247 . S
C596 O590 1.261 . S
C597 O592 1.259 . S
C597 O594 1.235 . S
O598 Co588 2.021 . S
O598 C595 1.238 . S
O599 Co593 2.052 . S
O599 C595 1.241 . S
O600 Co588 2.137 . S
O600 C591 1.247 . S
O601 Co588 2.244 . S
O601 C591 1.272 . S
O601 Co593 2.135 . S
Co602 O603 2.216 . S
Co602 O604 2.091 . S
Co602 O606 2.004 . S
Co602 O612 2.021 . S
Co602 O614 2.137 . S
Co602 O615 2.244 . S
O603 Co602 2.216 . S
O603 C610 1.247 . S
O604 Co602 2.091 . S
O604 C610 1.261 . S
C605 O614 1.247 . S
C605 O615 1.272 . S
O606 Co602 2.004 . S
O606 C611 1.259 . S
Co607 O608 2.061 . S
Co607 O613 2.052 . S
Co607 O615 2.135 . S
O608 Co607 2.061 . S
O608 C611 1.235 . S
C609 O612 1.238 . S
C609 O613 1.241 . S
C610 O603 1.247 . S
C610 O604 1.261 . S
C611 O606 1.259 . S
C611 O608 1.235 . S
O612 Co602 2.021 . S
O612 C609 1.238 . S
O613 Co607 2.052 . S
O613 C609 1.241 . S
O614 Co602 2.137 . S
O614 C605 1.247 . S
O615 Co602 2.244 . S
O615 C605 1.272 . S
O615 Co607 2.135 . S
Co616 O617 2.216 . S
Co616 O618 2.091 . S
Co616 O620 2.004 . S
Co616 O626 2.021 . S
Co616 O628 2.137 . S
Co616 O629 2.244 . S
O617 Co616 2.216 . S
O617 C624 1.247 . S
O618 Co616 2.091 . S
O618 C624 1.261 . S
C619 O628 1.247 . S
C619 O629 1.272 . S
O620 Co616 2.004 . S
O620 C625 1.259 . S
Co621 O622 2.061 . S
Co621 O627 2.052 . S
Co621 O629 2.135 . S
O622 Co621 2.061 . S
O622 C625 1.235 . S
C623 O626 1.238 . S
C623 O627 1.241 . S
C624 O617 1.247 . S
C624 O618 1.261 . S
C625 O620 1.259 . S
C625 O622 1.235 . S
O626 Co616 2.021 . S
O626 C623 1.238 . S
O627 Co621 2.052 . S
O627 C623 1.241 . S
O628 Co616 2.137 . S
O628 C619 1.247 . S
O629 Co616 2.244 . S
O629 C619 1.272 . S
O629 Co621 2.135 . S
Co630 O631 2.216 . S
Co630 O632 2.091 . S
Co630 O634 2.004 . S
Co630 O640 2.021 . S
Co630 O642 2.137 . S
Co630 O643 2.244 . S
O631 Co630 2.216 . S
O631 C638 1.247 . S
O632 Co630 2.091 . S
O632 C638 1.261 . S
C633 O642 1.247 . S
C633 O643 1.272 . S
O634 Co630 2.004 . S
O634 C639 1.259 . S
Co635 O636 2.061 . S
Co635 O641 2.052 . S
Co635 O643 2.135 . S
O636 Co635 2.061 . S
O636 C639 1.235 . S
C637 O640 1.238 . S
C637 O641 1.241 . S
C638 O631 1.247 . S
C638 O632 1.261 . S
C639 O634 1.259 . S
C639 O636 1.235 . S
O640 Co630 2.021 . S
O640 C637 1.238 . S
O641 Co635 2.052 . S
O641 C637 1.241 . S
O642 Co630 2.137 . S
O642 C633 1.247 . S
O643 Co630 2.244 . S
O643 C633 1.272 . S
O643 Co635 2.135 . S
Co644 O645 2.216 . S
Co644 O646 2.091 . S
Co644 O648 2.004 . S
Co644 O654 2.021 . S
Co644 O656 2.137 . S
Co644 O657 2.244 . S
O645 Co644 2.216 . S
O645 C652 1.247 . S
O646 Co644 2.091 . S
O646 C652 1.261 . S
C647 O656 1.247 . S
C647 O657 1.272 . S
O648 Co644 2.004 . S
O648 C653 1.259 . S
Co649 O650 2.061 . S
Co649 O655 2.052 . S
Co649 O657 2.135 . S
O650 Co649 2.061 . S
O650 C653 1.235 . S
C651 O654 1.238 . S
C651 O655 1.241 . S
C652 O645 1.247 . S
C652 O646 1.261 . S
C653 O648 1.259 . S
C653 O650 1.235 . S
O654 Co644 2.021 . S
O654 C651 1.238 . S
O655 Co649 2.052 . S
O655 C651 1.241 . S
O656 Co644 2.137 . S
O656 C647 1.247 . S
O657 Co644 2.244 . S
O657 C647 1.272 . S
O657 Co649 2.135 . S
Co658 O659 2.216 . S
Co658 O660 2.091 . S
Co658 O662 2.004 . S
Co658 O668 2.021 . S
Co658 O670 2.137 . S
Co658 O671 2.244 . S
O659 Co658 2.216 . S
O659 C666 1.247 . S
O660 Co658 2.091 . S
O660 C666 1.261 . S
C661 O670 1.247 . S
C661 O671 1.272 . S
O662 Co658 2.004 . S
O662 C667 1.259 . S
Co663 O664 2.061 . S
Co663 O669 2.052 . S
Co663 O671 2.135 . S
O664 Co663 2.061 . S
O664 C667 1.235 . S
C665 O668 1.238 . S
C665 O669 1.241 . S
C666 O659 1.247 . S
C666 O660 1.261 . S
C667 O662 1.259 . S
C667 O664 1.235 . S
O668 Co658 2.021 . S
O668 C665 1.238 . S
O669 Co663 2.052 . S
O669 C665 1.241 . S
O670 Co658 2.137 . S
O670 C661 1.247 . S
O671 Co658 2.244 . S
O671 C661 1.272 . S
O671 Co663 2.135 . S
Co672 O673 2.216 . S
Co672 O674 2.091 . S
Co672 O676 2.004 . S
Co672 O682 2.021 . S
Co672 O684 2.137 . S
Co672 O685 2.244 . S
O673 Co672 2.216 . S
O673 C680 1.247 . S
O674 Co672 2.091 . S
O674 C680 1.261 . S
C675 O684 1.247 . S
C675 O685 1.272 . S
O676 Co672 2.004 . S
O676 C681 1.259 . S
Co677 O678 2.061 . S
Co677 O683 2.052 . S
Co677 O685 2.135 . S
O678 Co677 2.061 . S
O678 C681 1.235 . S
C679 O682 1.238 . S
C679 O683 1.241 . S
C680 O673 1.247 . S
C680 O674 1.261 . S
C681 O676 1.259 . S
C681 O678 1.235 . S
O682 Co672 2.021 . S
O682 C679 1.238 . S
O683 Co677 2.052 . S
O683 C679 1.241 . S
O684 Co672 2.137 . S
O684 C675 1.247 . S
O685 Co672 2.244 . S
O685 C675 1.272 . S
O685 Co677 2.135 . S
Co686 O687 2.216 . S
Co686 O688 2.091 . S
Co686 O690 2.004 . S
Co686 O696 2.021 . S
Co686 O698 2.137 . S
Co686 O699 2.244 . S
O687 Co686 2.216 . S
O687 C694 1.247 . S
O688 Co686 2.091 . S
O688 C694 1.261 . S
C689 O698 1.247 . S
C689 O699 1.272 . S
O690 Co686 2.004 . S
O690 C695 1.259 . S
Co691 O692 2.061 . S
Co691 O697 2.052 . S
Co691 O699 2.135 . S
O692 Co691 2.061 . S
O692 C695 1.235 . S
C693 O696 1.238 . S
C693 O697 1.241 . S
C694 O687 1.247 . S
C694 O688 1.261 . S
C695 O690 1.259 . S
C695 O692 1.235 . S
O696 Co686 2.021 . S
O696 C693 1.238 . S
O697 Co691 2.052 . S
O697 C693 1.241 . S
O698 Co686 2.137 . S
O698 C689 1.247 . S
O699 Co686 2.244 . S
O699 C689 1.272 . S
O699 Co691 2.135 . S
Co700 O701 2.216 . S
Co700 O702 2.091 . S
Co700 O704 2.004 . S
Co700 O710 2.021 . S
Co700 O712 2.137 . S
Co700 O713 2.244 . S
O701 Co700 2.216 . S
O701 C708 1.247 . S
O702 Co700 2.091 . S
O702 C708 1.261 . S
C703 O712 1.247 . S
C703 O713 1.272 . S
O704 Co700 2.004 . S
O704 C709 1.259 . S
Co705 O706 2.061 . S
Co705 O711 2.052 . S
Co705 O713 2.135 . S
O706 Co705 2.061 . S
O706 C709 1.235 . S
C707 O710 1.238 . S
C707 O711 1.241 . S
C708 O701 1.247 . S
C708 O702 1.261 . S
C709 O704 1.259 . S
C709 O706 1.235 . S
O710 Co700 2.021 . S
O710 C707 1.238 . S
O711 Co705 2.052 . S
O711 C707 1.241 . S
O712 Co700 2.137 . S
O712 C703 1.247 . S
O713 Co700 2.244 . S
O713 C703 1.272 . S
O713 Co705 2.135 . S
Co714 O715 2.216 . S
Co714 O716 2.091 . S
Co714 O718 2.004 . S
Co714 O724 2.021 . S
Co714 O726 2.137 . S
Co714 O727 2.244 . S
O715 Co714 2.216 . S
O715 C722 1.247 . S
O716 Co714 2.091 . S
O716 C722 1.261 . S
C717 O726 1.247 . S
C717 O727 1.272 . S
O718 Co714 2.004 . S
O718 C723 1.259 . S
Co719 O720 2.061 . S
Co719 O725 2.052 . S
Co719 O727 2.135 . S
O720 Co719 2.061 . S
O720 C723 1.235 . S
C721 O724 1.238 . S
C721 O725 1.241 . S
C722 O715 1.247 . S
C722 O716 1.261 . S
C723 O718 1.259 . S
C723 O720 1.235 . S
O724 Co714 2.021 . S
O724 C721 1.238 . S
O725 Co719 2.052 . S
O725 C721 1.241 . S
O726 Co714 2.137 . S
O726 C717 1.247 . S
O727 Co714 2.244 . S
O727 C717 1.272 . S
O727 Co719 2.135 . S
Co728 O729 2.216 . S
Co728 O730 2.091 . S
Co728 O732 2.004 . S
Co728 O738 2.021 . S
Co728 O740 2.137 . S
Co728 O741 2.244 . S
O729 Co728 2.216 . S
O729 C736 1.247 . S
O730 Co728 2.091 . S
O730 C736 1.261 . S
C731 O740 1.247 . S
C731 O741 1.272 . S
O732 Co728 2.004 . S
O732 C737 1.259 . S
Co733 O734 2.061 . S
Co733 O739 2.052 . S
Co733 O741 2.135 . S
O734 Co733 2.061 . S
O734 C737 1.235 . S
C735 O738 1.238 . S
C735 O739 1.241 . S
C736 O729 1.247 . S
C736 O730 1.261 . S
C737 O732 1.259 . S
C737 O734 1.235 . S
O738 Co728 2.021 . S
O738 C735 1.238 . S
O739 Co733 2.052 . S
O739 C735 1.241 . S
O740 Co728 2.137 . S
O740 C731 1.247 . S
O741 Co728 2.244 . S
O741 C731 1.272 . S
O741 Co733 2.135 . S
Co742 O743 2.216 . S
Co742 O744 2.091 . S
Co742 O746 2.004 . S
Co742 O752 2.021 . S
Co742 O754 2.137 . S
Co742 O755 2.244 . S
O743 Co742 2.216 . S
O743 C750 1.247 . S
O744 Co742 2.091 . S
O744 C750 1.261 . S
C745 O754 1.247 . S
C745 O755 1.272 . S
O746 Co742 2.004 . S
O746 C751 1.259 . S
Co747 O748 2.061 . S
Co747 O753 2.052 . S
Co747 O755 2.135 . S
O748 Co747 2.061 . S
O748 C751 1.235 . S
C749 O752 1.238 . S
C749 O753 1.241 . S
C750 O743 1.247 . S
C750 O744 1.261 . S
C751 O746 1.259 . S
C751 O748 1.235 . S
O752 Co742 2.021 . S
O752 C749 1.238 . S
O753 Co747 2.052 . S
O753 C749 1.241 . S
O754 Co742 2.137 . S
O754 C745 1.247 . S
O755 Co742 2.244 . S
O755 C745 1.272 . S
O755 Co747 2.135 . S
Co756 O757 2.216 . S
Co756 O758 2.091 . S
Co756 O760 2.004 . S
Co756 O766 2.021 . S
Co756 O768 2.137 . S
Co756 O769 2.244 . S
O757 Co756 2.216 . S
O757 C764 1.247 . S
O758 Co756 2.091 . S
O758 C764 1.261 . S
C759 O768 1.247 . S
C759 O769 1.272 . S
O760 Co756 2.004 . S
O760 C765 1.259 . S
Co761 O762 2.061 . S
Co761 O767 2.052 . S
Co761 O769 2.135 . S
O762 Co761 2.061 . S
O762 C765 1.235 . S
C763 O766 1.238 . S
C763 O767 1.241 . S
C764 O757 1.247 . S
C764 O758 1.261 . S
C765 O760 1.259 . S
C765 O762 1.235 . S
O766 Co756 2.021 . S
O766 C763 1.238 . S
O767 Co761 2.052 . S
O767 C763 1.241 . S
O768 Co756 2.137 . S
O768 C759 1.247 . S
O769 Co756 2.244 . S
O769 C759 1.272 . S
O769 Co761 2.135 . S
Co770 O771 2.216 . S
Co770 O772 2.091 . S
Co770 O774 2.004 . S
Co770 O780 2.021 . S
Co770 O782 2.137 . S
Co770 O783 2.244 . S
O771 Co770 2.216 . S
O771 C778 1.247 . S
O772 Co770 2.091 . S
O772 C778 1.261 . S
C773 O782 1.247 . S
C773 O783 1.272 . S
O774 Co770 2.004 . S
O774 C779 1.259 . S
Co775 O776 2.061 . S
Co775 O781 2.052 . S
Co775 O783 2.135 . S
O776 Co775 2.061 . S
O776 C779 1.235 . S
C777 O780 1.238 . S
C777 O781 1.241 . S
C778 O771 1.247 . S
C778 O772 1.261 . S
C779 O774 1.259 . S
C779 O776 1.235 . S
O780 Co770 2.021 . S
O780 C777 1.238 . S
O781 Co775 2.052 . S
O781 C777 1.241 . S
O782 Co770 2.137 . S
O782 C773 1.247 . S
O783 Co770 2.244 . S
O783 C773 1.272 . S
O783 Co775 2.135 . S
Co784 O785 2.216 . S
Co784 O786 2.091 . S
Co784 O788 2.004 . S
Co784 O794 2.021 . S
Co784 O796 2.137 . S
Co784 O797 2.244 . S
O785 Co784 2.216 . S
O785 C792 1.247 . S
O786 Co784 2.091 . S
O786 C792 1.261 . S
C787 O796 1.247 . S
C787 O797 1.272 . S
O788 Co784 2.004 . S
O788 C793 1.259 . S
Co789 O790 2.061 . S
Co789 O795 2.052 . S
Co789 O797 2.135 . S
O790 Co789 2.061 . S
O790 C793 1.235 . S
C791 O794 1.238 . S
C791 O795 1.241 . S
C792 O785 1.247 . S
C792 O786 1.261 . S
C793 O788 1.259 . S
C793 O790 1.235 . S
O794 Co784 2.021 . S
O794 C791 1.238 . S
O795 Co789 2.052 . S
O795 C791 1.241 . S
O796 Co784 2.137 . S
O796 C787 1.247 . S
O797 Co784 2.244 . S
O797 C787 1.272 . S
O797 Co789 2.135 . S
Co798 O799 2.216 . S
Co798 O800 2.091 . S
Co798 O802 2.004 . S
Co798 O808 2.021 . S
Co798 O810 2.137 . S
Co798 O811 2.244 . S
O799 Co798 2.216 . S
O799 C806 1.247 . S
O800 Co798 2.091 . S
O800 C806 1.261 . S
C801 O810 1.247 . S
C801 O811 1.272 . S
O802 Co798 2.004 . S
O802 C807 1.259 . S
Co803 O804 2.061 . S
Co803 O809 2.052 . S
Co803 O811 2.135 . S
O804 Co803 2.061 . S
O804 C807 1.235 . S
C805 O808 1.238 . S
C805 O809 1.241 . S
C806 O799 1.247 . S
C806 O800 1.261 . S
C807 O802 1.259 . S
C807 O804 1.235 . S
O808 Co798 2.021 . S
O808 C805 1.238 . S
O809 Co803 2.052 . S
O809 C805 1.241 . S
O810 Co798 2.137 . S
O810 C801 1.247 . S
O811 Co798 2.244 . S
O811 C801 1.272 . S
O811 Co803 2.135 . S
Co812 O813 2.216 . S
Co812 O814 2.091 . S
Co812 O816 2.004 . S
Co812 O822 2.021 . S
Co812 O824 2.137 . S
Co812 O825 2.244 . S
O813 Co812 2.216 . S
O813 C820 1.247 . S
O814 Co812 2.091 . S
O814 C820 1.261 . S
C815 O824 1.247 . S
C815 O825 1.272 . S
O816 Co812 2.004 . S
O816 C821 1.259 . S
Co817 O818 2.061 . S
Co817 O823 2.052 . S
Co817 O825 2.135 . S
O818 Co817 2.061 . S
O818 C821 1.235 . S
C819 O822 1.238 . S
C819 O823 1.241 . S
C820 O813 1.247 . S
C820 O814 1.261 . S
C821 O816 1.259 . S
C821 O818 1.235 . S
O822 Co812 2.021 . S
O822 C819 1.238 . S
O823 Co817 2.052 . S
O823 C819 1.241 . S
O824 Co812 2.137 . S
O824 C815 1.247 . S
O825 Co812 2.244 . S
O825 C815 1.272 . S
O825 Co817 2.135 . S
Co826 O827 2.216 . S
Co826 O828 2.091 . S
Co826 O830 2.004 . S
Co826 O836 2.021 . S
Co826 O838 2.137 . S
Co826 O839 2.244 . S
O827 Co826 2.216 . S
O827 C834 1.247 . S
O828 Co826 2.091 . S
O828 C834 1.261 . S
C829 O838 1.247 . S
C829 O839 1.272 . S
O830 Co826 2.004 . S
O830 C835 1.259 . S
Co831 O832 2.061 . S
Co831 O837 2.052 . S
Co831 O839 2.135 . S
O832 Co831 2.061 . S
O832 C835 1.235 . S
C833 O836 1.238 . S
C833 O837 1.241 . S
C834 O827 1.247 . S
C834 O828 1.261 . S
C835 O830 1.259 . S
C835 O832 1.235 . S
O836 Co826 2.021 . S
O836 C833 1.238 . S
O837 Co831 2.052 . S
O837 C833 1.241 . S
O838 Co826 2.137 . S
O838 C829 1.247 . S
O839 Co826 2.244 . S
O839 C829 1.272 . S
O839 Co831 2.135 . S
Co840 O841 2.216 . S
Co840 O842 2.091 . S
Co840 O844 2.004 . S
Co840 O850 2.021 . S
Co840 O852 2.137 . S
Co840 O853 2.244 . S
O841 Co840 2.216 . S
O841 C848 1.247 . S
O842 Co840 2.091 . S
O842 C848 1.261 . S
C843 O852 1.247 . S
C843 O853 1.272 . S
O844 Co840 2.004 . S
O844 C849 1.259 . S
Co845 O846 2.061 . S
Co845 O851 2.052 . S
Co845 O853 2.135 . S
O846 Co845 2.061 . S
O846 C849 1.235 . S
C847 O850 1.238 . S
C847 O851 1.241 . S
C848 O841 1.247 . S
C848 O842 1.261 . S
C849 O844 1.259 . S
C849 O846 1.235 . S
O850 Co840 2.021 . S
O850 C847 1.238 . S
O851 Co845 2.052 . S
O851 C847 1.241 . S
O852 Co840 2.137 . S
O852 C843 1.247 . S
O853 Co840 2.244 . S
O853 C843 1.272 . S
O853 Co845 2.135 . S
Co854 O855 2.216 . S
Co854 O856 2.091 . S
Co854 O858 2.004 . S
Co854 O864 2.021 . S
Co854 O866 2.137 . S
Co854 O867 2.244 . S
O855 Co854 2.216 . S
O855 C862 1.247 . S
O856 Co854 2.091 . S
O856 C862 1.261 . S
C857 O866 1.247 . S
C857 O867 1.272 . S
O858 Co854 2.004 . S
O858 C863 1.259 . S
Co859 O860 2.061 . S
Co859 O865 2.052 . S
Co859 O867 2.135 . S
O860 Co859 2.061 . S
O860 C863 1.235 . S
C861 O864 1.238 . S
C861 O865 1.241 . S
C862 O855 1.247 . S
C862 O856 1.261 . S
C863 O858 1.259 . S
C863 O860 1.235 . S
O864 Co854 2.021 . S
O864 C861 1.238 . S
O865 Co859 2.052 . S
O865 C861 1.241 . S
O866 Co854 2.137 . S
O866 C857 1.247 . S
O867 Co854 2.244 . S
O867 C857 1.272 . S
O867 Co859 2.135 . S
Co868 O869 2.216 . S
Co868 O870 2.091 . S
Co868 O872 2.004 . S
Co868 O878 2.021 . S
Co868 O880 2.137 . S
Co868 O881 2.244 . S
O869 Co868 2.216 . S
O869 C876 1.247 . S
O870 Co868 2.091 . S
O870 C876 1.261 . S
C871 O880 1.247 . S
C871 O881 1.272 . S
O872 Co868 2.004 . S
O872 C877 1.259 . S
Co873 O874 2.061 . S
Co873 O879 2.052 . S
Co873 O881 2.135 . S
O874 Co873 2.061 . S
O874 C877 1.235 . S
C875 O878 1.238 . S
C875 O879 1.241 . S
C876 O869 1.247 . S
C876 O870 1.261 . S
C877 O872 1.259 . S
C877 O874 1.235 . S
O878 Co868 2.021 . S
O878 C875 1.238 . S
O879 Co873 2.052 . S
O879 C875 1.241 . S
O880 Co868 2.137 . S
O880 C871 1.247 . S
O881 Co868 2.244 . S
O881 C871 1.272 . S
O881 Co873 2.135 . S
Co882 O883 2.216 . S
Co882 O884 2.091 . S
Co882 O886 2.004 . S
Co882 O892 2.021 . S
Co882 O894 2.137 . S
Co882 O895 2.244 . S
O883 Co882 2.216 . S
O883 C890 1.247 . S
O884 Co882 2.091 . S
O884 C890 1.261 . S
C885 O894 1.247 . S
C885 O895 1.272 . S
O886 Co882 2.004 . S
O886 C891 1.259 . S
Co887 O888 2.061 . S
Co887 O893 2.052 . S
Co887 O895 2.135 . S
O888 Co887 2.061 . S
O888 C891 1.235 . S
C889 O892 1.238 . S
C889 O893 1.241 . S
C890 O883 1.247 . S
C890 O884 1.261 . S
C891 O886 1.259 . S
C891 O888 1.235 . S
O892 Co882 2.021 . S
O892 C889 1.238 . S
O893 Co887 2.052 . S
O893 C889 1.241 . S
O894 Co882 2.137 . S
O894 C885 1.247 . S
O895 Co882 2.244 . S
O895 C885 1.272 . S
O895 Co887 2.135 . S
Co896 O897 2.216 . S
Co896 O898 2.091 . S
Co896 O900 2.004 . S
Co896 O906 2.021 . S
Co896 O908 2.137 . S
Co896 O909 2.244 . S
O897 Co896 2.216 . S
O897 C904 1.247 . S
O898 Co896 2.091 . S
O898 C904 1.261 . S
C899 O908 1.247 . S
C899 O909 1.272 . S
O900 Co896 2.004 . S
O900 C905 1.259 . S
Co901 O902 2.061 . S
Co901 O907 2.052 . S
Co901 O909 2.135 . S
O902 Co901 2.061 . S
O902 C905 1.235 . S
C903 O906 1.238 . S
C903 O907 1.241 . S
C904 O897 1.247 . S
C904 O898 1.261 . S
C905 O900 1.259 . S
C905 O902 1.235 . S
O906 Co896 2.021 . S
O906 C903 1.238 . S
O907 Co901 2.052 . S
O907 C903 1.241 . S
O908 Co896 2.137 . S
O908 C899 1.247 . S
O909 Co896 2.244 . S
O909 C899 1.272 . S
O909 Co901 2.135 . S
Co910 O911 2.216 . S
Co910 O912 2.091 . S
Co910 O914 2.004 . S
Co910 O920 2.021 . S
Co910 O922 2.137 . S
Co910 O923 2.244 . S
O911 Co910 2.216 . S
O911 C918 1.247 . S
O912 Co910 2.091 . S
O912 C918 1.261 . S
C913 O922 1.247 . S
C913 O923 1.272 . S
O914 Co910 2.004 . S
O914 C919 1.259 . S
Co915 O916 2.061 . S
Co915 O921 2.052 . S
Co915 O923 2.135 . S
O916 Co915 2.061 . S
O916 C919 1.235 . S
C917 O920 1.238 . S
C917 O921 1.241 . S
C918 O911 1.247 . S
C918 O912 1.261 . S
C919 O914 1.259 . S
C919 O916 1.235 . S
O920 Co910 2.021 . S
O920 C917 1.238 . S
O921 Co915 2.052 . S
O921 C917 1.241 . S
O922 Co910 2.137 . S
O922 C913 1.247 . S
O923 Co910 2.244 . S
O923 C913 1.272 . S
O923 Co915 2.135 . S
Co924 O925 2.216 . S
Co924 O926 2.091 . S
Co924 O928 2.004 . S
Co924 O934 2.021 . S
Co924 O936 2.137 . S
Co924 O937 2.244 . S
O925 Co924 2.216 . S
O925 C932 1.247 . S
O926 Co924 2.091 . S
O926 C932 1.261 . S
C927 O936 1.247 . S
C927 O937 1.272 . S
O928 Co924 2.004 . S
O928 C933 1.259 . S
Co929 O930 2.061 . S
Co929 O935 2.052 . S
Co929 O937 2.135 . S
O930 Co929 2.061 . S
O930 C933 1.235 . S
C931 O934 1.238 . S
C931 O935 1.241 . S
C932 O925 1.247 . S
C932 O926 1.261 . S
C933 O928 1.259 . S
C933 O930 1.235 . S
O934 Co924 2.021 . S
O934 C931 1.238 . S
O935 Co929 2.052 . S
O935 C931 1.241 . S
O936 Co924 2.137 . S
O936 C927 1.247 . S
O937 Co924 2.244 . S
O937 C927 1.272 . S
O937 Co929 2.135 . S
Co938 O939 2.216 . S
Co938 O940 2.091 . S
Co938 O942 2.004 . S
Co938 O948 2.021 . S
Co938 O950 2.137 . S
Co938 O951 2.244 . S
O939 Co938 2.216 . S
O939 C946 1.247 . S
O940 Co938 2.091 . S
O940 C946 1.261 . S
C941 O950 1.247 . S
C941 O951 1.272 . S
O942 Co938 2.004 . S
O942 C947 1.259 . S
Co943 O944 2.061 . S
Co943 O949 2.052 . S
Co943 O951 2.135 . S
O944 Co943 2.061 . S
O944 C947 1.235 . S
C945 O948 1.238 . S
C945 O949 1.241 . S
C946 O939 1.247 . S
C946 O940 1.261 . S
C947 O942 1.259 . S
C947 O944 1.235 . S
O948 Co938 2.021 . S
O948 C945 1.238 . S
O949 Co943 2.052 . S
O949 C945 1.241 . S
O950 Co938 2.137 . S
O950 C941 1.247 . S
O951 Co938 2.244 . S
O951 C941 1.272 . S
O951 Co943 2.135 . S
Co952 O953 2.216 . S
Co952 O954 2.091 . S
Co952 O956 2.004 . S
Co952 O962 2.021 . S
Co952 O964 2.137 . S
Co952 O965 2.244 . S
O953 Co952 2.216 . S
O953 C960 1.247 . S
O954 Co952 2.091 . S
O954 C960 1.261 . S
C955 O964 1.247 . S
C955 O965 1.272 . S
O956 Co952 2.004 . S
O956 C961 1.259 . S
Co957 O958 2.061 . S
Co957 O963 2.052 . S
Co957 O965 2.135 . S
O958 Co957 2.061 . S
O958 C961 1.235 . S
C959 O962 1.238 . S
C959 O963 1.241 . S
C960 O953 1.247 . S
C960 O954 1.261 . S
C961 O956 1.259 . S
C961 O958 1.235 . S
O962 Co952 2.021 . S
O962 C959 1.238 . S
O963 Co957 2.052 . S
O963 C959 1.241 . S
O964 Co952 2.137 . S
O964 C955 1.247 . S
O965 Co952 2.244 . S
O965 C955 1.272 . S
O965 Co957 2.135 . S
Co966 O967 2.216 . S
Co966 O968 2.091 . S
Co966 O970 2.004 . S
Co966 O976 2.021 . S
Co966 O978 2.137 . S
Co966 O979 2.244 . S
O967 Co966 2.216 . S
O967 C974 1.247 . S
O968 Co966 2.091 . S
O968 C974 1.261 . S
C969 O978 1.247 . S
C969 O979 1.272 . S
O970 Co966 2.004 . S
O970 C975 1.259 . S
Co971 O972 2.061 . S
Co971 O977 2.052 . S
Co971 O979 2.135 . S
O972 Co971 2.061 . S
O972 C975 1.235 . S
C973 O976 1.238 . S
C973 O977 1.241 . S
C974 O967 1.247 . S
C974 O968 1.261 . S
C975 O970 1.259 . S
C975 O972 1.235 . S
O976 Co966 2.021 . S
O976 C973 1.238 . S
O977 Co971 2.052 . S
O977 C973 1.241 . S
O978 Co966 2.137 . S
O978 C969 1.247 . S
O979 Co966 2.244 . S
O979 C969 1.272 . S
O979 Co971 2.135 . S
Co980 O981 2.216 . S
Co980 O982 2.091 . S
Co980 O984 2.004 . S
Co980 O990 2.021 . S
Co980 O992 2.137 . S
Co980 O993 2.244 . S
O981 Co980 2.216 . S
O981 C988 1.247 . S
O982 Co980 2.091 . S
O982 C988 1.261 . S
C983 O992 1.247 . S
C983 O993 1.272 . S
O984 Co980 2.004 . S
O984 C989 1.259 . S
Co985 O986 2.061 . S
Co985 O991 2.052 . S
Co985 O993 2.135 . S
O986 Co985 2.061 . S
O986 C989 1.235 . S
C987 O990 1.238 . S
C987 O991 1.241 . S
C988 O981 1.247 . S
C988 O982 1.261 . S
C989 O984 1.259 . S
C989 O986 1.235 . S
O990 Co980 2.021 . S
O990 C987 1.238 . S
O991 Co985 2.052 . S
O991 C987 1.241 . S
O992 Co980 2.137 . S
O992 C983 1.247 . S
O993 Co980 2.244 . S
O993 C983 1.272 . S
O993 Co985 2.135 . S
Co994 O995 2.216 . S
Co994 O996 2.091 . S
Co994 O998 2.004 . S
Co994 O1004 2.021 . S
Co994 O1006 2.137 . S
Co994 O1007 2.244 . S
O995 Co994 2.216 . S
O995 C1002 1.247 . S
O996 Co994 2.091 . S
O996 C1002 1.261 . S
C997 O1006 1.247 . S
C997 O1007 1.272 . S
O998 Co994 2.004 . S
O998 C1003 1.259 . S
Co999 O1000 2.061 . S
Co999 O1005 2.052 . S
Co999 O1007 2.135 . S
O1000 Co999 2.061 . S
O1000 C1003 1.235 . S
C1001 O1004 1.238 . S
C1001 O1005 1.241 . S
C1002 O995 1.247 . S
C1002 O996 1.261 . S
C1003 O998 1.259 . S
C1003 O1000 1.235 . S
O1004 Co994 2.021 . S
O1004 C1001 1.238 . S
O1005 Co999 2.052 . S
O1005 C1001 1.241 . S
O1006 Co994 2.137 . S
O1006 C997 1.247 . S
O1007 Co994 2.244 . S
O1007 C997 1.272 . S
O1007 Co999 2.135 . S
Co1008 O1009 2.216 . S
Co1008 O1010 2.091 . S
Co1008 O1012 2.004 . S
Co1008 O1018 2.021 . S
Co1008 O1020 2.137 . S
Co1008 O1021 2.244 . S
O1009 Co1008 2.216 . S
O1009 C1016 1.247 . S
O1010 Co1008 2.091 . S
O1010 C1016 1.261 . S
C1011 O1020 1.247 . S
C1011 O1021 1.272 . S
O1012 Co1008 2.004 . S
O1012 C1017 1.259 . S
Co1013 O1014 2.061 . S
Co1013 O1019 2.052 . S
Co1013 O1021 2.135 . S
O1014 Co1013 2.061 . S
O1014 C1017 1.235 . S
C1015 O1018 1.238 . S
C1015 O1019 1.241 . S
C1016 O1009 1.247 . S
C1016 O1010 1.261 . S
C1017 O1012 1.259 . S
C1017 O1014 1.235 . S
O1018 Co1008 2.021 . S
O1018 C1015 1.238 . S
O1019 Co1013 2.052 . S
O1019 C1015 1.241 . S
O1020 Co1008 2.137 . S
O1020 C1011 1.247 . S
O1021 Co1008 2.244 . S
O1021 C1011 1.272 . S
O1021 Co1013 2.135 . S
Co1022 O1023 2.216 . S
Co1022 O1024 2.091 . S
Co1022 O1026 2.004 . S
Co1022 O1032 2.021 . S
Co1022 O1034 2.137 . S
Co1022 O1035 2.244 . S
O1023 Co1022 2.216 . S
O1023 C1030 1.247 . S
O1024 Co1022 2.091 . S
O1024 C1030 1.261 . S
C1025 O1034 1.247 . S
C1025 O1035 1.272 . S
O1026 Co1022 2.004 . S
O1026 C1031 1.259 . S
Co1027 O1028 2.061 . S
Co1027 O1033 2.052 . S
Co1027 O1035 2.135 . S
O1028 Co1027 2.061 . S
O1028 C1031 1.235 . S
C1029 O1032 1.238 . S
C1029 O1033 1.241 . S
C1030 O1023 1.247 . S
C1030 O1024 1.261 . S
C1031 O1026 1.259 . S
C1031 O1028 1.235 . S
O1032 Co1022 2.021 . S
O1032 C1029 1.238 . S
O1033 Co1027 2.052 . S
O1033 C1029 1.241 . S
O1034 Co1022 2.137 . S
O1034 C1025 1.247 . S
O1035 Co1022 2.244 . S
O1035 C1025 1.272 . S
O1035 Co1027 2.135 . S
Co1036 O1037 2.216 . S
Co1036 O1038 2.091 . S
Co1036 O1040 2.004 . S
Co1036 O1046 2.021 . S
Co1036 O1048 2.137 . S
Co1036 O1049 2.244 . S
O1037 Co1036 2.216 . S
O1037 C1044 1.247 . S
O1038 Co1036 2.091 . S
O1038 C1044 1.261 . S
C1039 O1048 1.247 . S
C1039 O1049 1.272 . S
O1040 Co1036 2.004 . S
O1040 C1045 1.259 . S
Co1041 O1042 2.061 . S
Co1041 O1047 2.052 . S
Co1041 O1049 2.135 . S
O1042 Co1041 2.061 . S
O1042 C1045 1.235 . S
C1043 O1046 1.238 . S
C1043 O1047 1.241 . S
C1044 O1037 1.247 . S
C1044 O1038 1.261 . S
C1045 O1040 1.259 . S
C1045 O1042 1.235 . S
O1046 Co1036 2.021 . S
O1046 C1043 1.238 . S
O1047 Co1041 2.052 . S
O1047 C1043 1.241 . S
O1048 Co1036 2.137 . S
O1048 C1039 1.247 . S
O1049 Co1036 2.244 . S
O1049 C1039 1.272 . S
O1049 Co1041 2.135 . S
Co1050 O1051 2.216 . S
Co1050 O1052 2.091 . S
Co1050 O1054 2.004 . S
Co1050 O1060 2.021 . S
Co1050 O1062 2.137 . S
Co1050 O1063 2.244 . S
O1051 Co1050 2.216 . S
O1051 C1058 1.247 . S
O1052 Co1050 2.091 . S
O1052 C1058 1.261 . S
C1053 O1062 1.247 . S
C1053 O1063 1.272 . S
O1054 Co1050 2.004 . S
O1054 C1059 1.259 . S
Co1055 O1056 2.061 . S
Co1055 O1061 2.052 . S
Co1055 O1063 2.135 . S
O1056 Co1055 2.061 . S
O1056 C1059 1.235 . S
C1057 O1060 1.238 . S
C1057 O1061 1.241 . S
C1058 O1051 1.247 . S
C1058 O1052 1.261 . S
C1059 O1054 1.259 . S
C1059 O1056 1.235 . S
O1060 Co1050 2.021 . S
O1060 C1057 1.238 . S
O1061 Co1055 2.052 . S
O1061 C1057 1.241 . S
O1062 Co1050 2.137 . S
O1062 C1053 1.247 . S
O1063 Co1050 2.244 . S
O1063 C1053 1.272 . S
O1063 Co1055 2.135 . S
Co1064 O1065 2.216 . S
Co1064 O1066 2.091 . S
Co1064 O1068 2.004 . S
Co1064 O1074 2.021 . S
Co1064 O1076 2.137 . S
Co1064 O1077 2.244 . S
O1065 Co1064 2.216 . S
O1065 C1072 1.247 . S
O1066 Co1064 2.091 . S
O1066 C1072 1.261 . S
C1067 O1076 1.247 . S
C1067 O1077 1.272 . S
O1068 Co1064 2.004 . S
O1068 C1073 1.259 . S
Co1069 O1070 2.061 . S
Co1069 O1075 2.052 . S
Co1069 O1077 2.135 . S
O1070 Co1069 2.061 . S
O1070 C1073 1.235 . S
C1071 O1074 1.238 . S
C1071 O1075 1.241 . S
C1072 O1065 1.247 . S
C1072 O1066 1.261 . S
C1073 O1068 1.259 . S
C1073 O1070 1.235 . S
O1074 Co1064 2.021 . S
O1074 C1071 1.238 . S
O1075 Co1069 2.052 . S
O1075 C1071 1.241 . S
O1076 Co1064 2.137 . S
O1076 C1067 1.247 . S
O1077 Co1064 2.244 . S
O1077 C1067 1.272 . S
O1077 Co1069 2.135 . S
Co1078 O1079 2.216 . S
Co1078 O1080 2.091 . S
Co1078 O1082 2.004 . S
Co1078 O1088 2.021 . S
Co1078 O1090 2.137 . S
Co1078 O1091 2.244 . S
O1079 Co1078 2.216 . S
O1079 C1086 1.247 . S
O1080 Co1078 2.091 . S
O1080 C1086 1.261 . S
C1081 O1090 1.247 . S
C1081 O1091 1.272 . S
O1082 Co1078 2.004 . S
O1082 C1087 1.259 . S
Co1083 O1084 2.061 . S
Co1083 O1089 2.052 . S
Co1083 O1091 2.135 . S
O1084 Co1083 2.061 . S
O1084 C1087 1.235 . S
C1085 O1088 1.238 . S
C1085 O1089 1.241 . S
C1086 O1079 1.247 . S
C1086 O1080 1.261 . S
C1087 O1082 1.259 . S
C1087 O1084 1.235 . S
O1088 Co1078 2.021 . S
O1088 C1085 1.238 . S
O1089 Co1083 2.052 . S
O1089 C1085 1.241 . S
O1090 Co1078 2.137 . S
O1090 C1081 1.247 . S
O1091 Co1078 2.244 . S
O1091 C1081 1.272 . S
O1091 Co1083 2.135 . S
Co1092 O1093 2.216 . S
Co1092 O1094 2.091 . S
Co1092 O1096 2.004 . S
Co1092 O1102 2.021 . S
Co1092 O1104 2.137 . S
Co1092 O1105 2.244 . S
O1093 Co1092 2.216 . S
O1093 C1100 1.247 . S
O1094 Co1092 2.091 . S
O1094 C1100 1.261 . S
C1095 O1104 1.247 . S
C1095 O1105 1.272 . S
O1096 Co1092 2.004 . S
O1096 C1101 1.259 . S
Co1097 O1098 2.061 . S
Co1097 O1103 2.052 . S
Co1097 O1105 2.135 . S
O1098 Co1097 2.061 . S
O1098 C1101 1.235 . S
C1099 O1102 1.238 . S
C1099 O1103 1.241 . S
C1100 O1093 1.247 . S
C1100 O1094 1.261 . S
C1101 O1096 1.259 . S
C1101 O1098 1.235 . S
O1102 Co1092 2.021 . S
O1102 C1099 1.238 . S
O1103 Co1097 2.052 . S
O1103 C1099 1.241 . S
O1104 Co1092 2.137 . S
O1104 C1095 1.247 . S
O1105 Co1092 2.244 . S
O1105 C1095 1.272 . S
O1105 Co1097 2.135 . S
Co1106 O1107 2.216 . S
Co1106 O1108 2.091 . S
Co1106 O1110 2.004 . S
Co1106 O1116 2.021 . S
Co1106 O1118 2.137 . S
Co1106 O1119 2.244 . S
O1107 Co1106 2.216 . S
O1107 C1114 1.247 . S
O1108 Co1106 2.091 . S
O1108 C1114 1.261 . S
C1109 O1118 1.247 . S
C1109 O1119 1.272 . S
O1110 Co1106 2.004 . S
O1110 C1115 1.259 . S
Co1111 O1112 2.061 . S
Co1111 O1117 2.052 . S
Co1111 O1119 2.135 . S
O1112 Co1111 2.061 . S
O1112 C1115 1.235 . S
C1113 O1116 1.238 . S
C1113 O1117 1.241 . S
C1114 O1107 1.247 . S
C1114 O1108 1.261 . S
C1115 O1110 1.259 . S
C1115 O1112 1.235 . S
O1116 Co1106 2.021 . S
O1116 C1113 1.238 . S
O1117 Co1111 2.052 . S
O1117 C1113 1.241 . S
O1118 Co1106 2.137 . S
O1118 C1109 1.247 . S
O1119 Co1106 2.244 . S
O1119 C1109 1.272 . S
O1119 Co1111 2.135 . S
Co1120 O1121 2.216 . S
Co1120 O1122 2.091 . S
Co1120 O1124 2.004 . S
Co1120 O1130 2.021 . S
Co1120 O1132 2.137 . S
Co1120 O1133 2.244 . S
O1121 Co1120 2.216 . S
O1121 C1128 1.247 . S
O1122 Co1120 2.091 . S
O1122 C1128 1.261 . S
C1123 O1132 1.247 . S
C1123 O1133 1.272 . S
O1124 Co1120 2.004 . S
O1124 C1129 1.259 . S
Co1125 O1126 2.061 . S
Co1125 O1131 2.052 . S
Co1125 O1133 2.135 . S
O1126 Co1125 2.061 . S
O1126 C1129 1.235 . S
C1127 O1130 1.238 . S
C1127 O1131 1.241 . S
C1128 O1121 1.247 . S
C1128 O1122 1.261 . S
C1129 O1124 1.259 . S
C1129 O1126 1.235 . S
O1130 Co1120 2.021 . S
O1130 C1127 1.238 . S
O1131 Co1125 2.052 . S
O1131 C1127 1.241 . S
O1132 Co1120 2.137 . S
O1132 C1123 1.247 . S
O1133 Co1120 2.244 . S
O1133 C1123 1.272 . S
O1133 Co1125 2.135 . S
Co1134 O1135 2.216 . S
Co1134 O1136 2.091 . S
Co1134 O1138 2.004 . S
Co1134 O1144 2.021 . S
Co1134 O1146 2.137 . S
Co1134 O1147 2.244 . S
O1135 Co1134 2.216 . S
O1135 C1142 1.247 . S
O1136 Co1134 2.091 . S
O1136 C1142 1.261 . S
C1137 O1146 1.247 . S
C1137 O1147 1.272 . S
O1138 Co1134 2.004 . S
O1138 C1143 1.259 . S
Co1139 O1140 2.061 . S
Co1139 O1145 2.052 . S
Co1139 O1147 2.135 . S
O1140 Co1139 2.061 . S
O1140 C1143 1.235 . S
C1141 O1144 1.238 . S
C1141 O1145 1.241 . S
C1142 O1135 1.247 . S
C1142 O1136 1.261 . S
C1143 O1138 1.259 . S
C1143 O1140 1.235 . S
O1144 Co1134 2.021 . S
O1144 C1141 1.238 . S
O1145 Co1139 2.052 . S
O1145 C1141 1.241 . S
O1146 Co1134 2.137 . S
O1146 C1137 1.247 . S
O1147 Co1134 2.244 . S
O1147 C1137 1.272 . S
O1147 Co1139 2.135 . S
Co1148 O1149 2.216 . S
Co1148 O1150 2.091 . S
Co1148 O1152 2.004 . S
Co1148 O1158 2.021 . S
Co1148 O1160 2.137 . S
Co1148 O1161 2.244 . S
O1149 Co1148 2.216 . S
O1149 C1156 1.247 . S
O1150 Co1148 2.091 . S
O1150 C1156 1.261 . S
C1151 O1160 1.247 . S
C1151 O1161 1.272 . S
O1152 Co1148 2.004 . S
O1152 C1157 1.259 . S
Co1153 O1154 2.061 . S
Co1153 O1159 2.052 . S
Co1153 O1161 2.135 . S
O1154 Co1153 2.061 . S
O1154 C1157 1.235 . S
C1155 O1158 1.238 . S
C1155 O1159 1.241 . S
C1156 O1149 1.247 . S
C1156 O1150 1.261 . S
C1157 O1152 1.259 . S
C1157 O1154 1.235 . S
O1158 Co1148 2.021 . S
O1158 C1155 1.238 . S
O1159 Co1153 2.052 . S
O1159 C1155 1.241 . S
O1160 Co1148 2.137 . S
O1160 C1151 1.247 . S
O1161 Co1148 2.244 . S
O1161 C1151 1.272 . S
O1161 Co1153 2.135 . S
Co1162 O1163 2.216 . S
Co1162 O1164 2.091 . S
Co1162 O1166 2.004 . S
Co1162 O1172 2.021 . S
Co1162 O1174 2.137 . S
Co1162 O1175 2.244 . S
O1163 Co1162 2.216 . S
O1163 C1170 1.247 . S
O1164 Co1162 2.091 . S
O1164 C1170 1.261 . S
C1165 O1174 1.247 . S
C1165 O1175 1.272 . S
O1166 Co1162 2.004 . S
O1166 C1171 1.259 . S
Co1167 O1168 2.061 . S
Co1167 O1173 2.052 . S
Co1167 O1175 2.135 . S
O1168 Co1167 2.061 . S
O1168 C1171 1.235 . S
C1169 O1172 1.238 . S
C1169 O1173 1.241 . S
C1170 O1163 1.247 . S
C1170 O1164 1.261 . S
C1171 O1166 1.259 . S
C1171 O1168 1.235 . S
O1172 Co1162 2.021 . S
O1172 C1169 1.238 . S
O1173 Co1167 2.052 . S
O1173 C1169 1.241 . S
O1174 Co1162 2.137 . S
O1174 C1165 1.247 . S
O1175 Co1162 2.244 . S
O1175 C1165 1.272 . S
O1175 Co1167 2.135 . S
Co1176 O1177 2.216 . S
Co1176 O1178 2.091 . S
Co1176 O1180 2.004 . S
Co1176 O1186 2.021 . S
Co1176 O1188 2.137 . S
Co1176 O1189 2.244 . S
O1177 Co1176 2.216 . S
O1177 C1184 1.247 . S
O1178 Co1176 2.091 . S
O1178 C1184 1.261 . S
C1179 O1188 1.247 . S
C1179 O1189 1.272 . S
O1180 Co1176 2.004 . S
O1180 C1185 1.259 . S
Co1181 O1182 2.061 . S
Co1181 O1187 2.052 . S
Co1181 O1189 2.135 . S
O1182 Co1181 2.061 . S
O1182 C1185 1.235 . S
C1183 O1186 1.238 . S
C1183 O1187 1.241 . S
C1184 O1177 1.247 . S
C1184 O1178 1.261 . S
C1185 O1180 1.259 . S
C1185 O1182 1.235 . S
O1186 Co1176 2.021 . S
O1186 C1183 1.238 . S
O1187 Co1181 2.052 . S
O1187 C1183 1.241 . S
O1188 Co1176 2.137 . S
O1188 C1179 1.247 . S
O1189 Co1176 2.244 . S
O1189 C1179 1.272 . S
O1189 Co1181 2.135 . S
Co1190 O1191 2.216 . S
Co1190 O1192 2.091 . S
Co1190 O1194 2.004 . S
Co1190 O1200 2.021 . S
Co1190 O1202 2.137 . S
Co1190 O1203 2.244 . S
O1191 Co1190 2.216 . S
O1191 C1198 1.247 . S
O1192 Co1190 2.091 . S
O1192 C1198 1.261 . S
C1193 O1202 1.247 . S
C1193 O1203 1.272 . S
O1194 Co1190 2.004 . S
O1194 C1199 1.259 . S
Co1195 O1196 2.061 . S
Co1195 O1201 2.052 . S
Co1195 O1203 2.135 . S
O1196 Co1195 2.061 . S
O1196 C1199 1.235 . S
C1197 O1200 1.238 . S
C1197 O1201 1.241 . S
C1198 O1191 1.247 . S
C1198 O1192 1.261 . S
C1199 O1194 1.259 . S
C1199 O1196 1.235 . S
O1200 Co1190 2.021 . S
O1200 C1197 1.238 . S
O1201 Co1195 2.052 . S
O1201 C1197 1.241 . S
O1202 Co1190 2.137 . S
O1202 C1193 1.247 . S
O1203 Co1190 2.244 . S
O1203 C1193 1.272 . S
O1203 Co1195 2.135 . S
Co1204 O1205 2.216 . S
Co1204 O1206 2.091 . S
Co1204 O1208 2.004 . S
Co1204 O1214 2.021 . S
Co1204 O1216 2.137 . S
Co1204 O1217 2.244 . S
O1205 Co1204 2.216 . S
O1205 C1212 1.247 . S
O1206 Co1204 2.091 . S
O1206 C1212 1.261 . S
C1207 O1216 1.247 . S
C1207 O1217 1.272 . S
O1208 Co1204 2.004 . S
O1208 C1213 1.259 . S
Co1209 O1210 2.061 . S
Co1209 O1215 2.052 . S
Co1209 O1217 2.135 . S
O1210 Co1209 2.061 . S
O1210 C1213 1.235 . S
C1211 O1214 1.238 . S
C1211 O1215 1.241 . S
C1212 O1205 1.247 . S
C1212 O1206 1.261 . S
C1213 O1208 1.259 . S
C1213 O1210 1.235 . S
O1214 Co1204 2.021 . S
O1214 C1211 1.238 . S
O1215 Co1209 2.052 . S
O1215 C1211 1.241 . S
O1216 Co1204 2.137 . S
O1216 C1207 1.247 . S
O1217 Co1204 2.244 . S
O1217 C1207 1.272 . S
O1217 Co1209 2.135 . S
Co1218 O1219 2.216 . S
Co1218 O1220 2.091 . S
Co1218 O1222 2.004 . S
Co1218 O1228 2.021 . S
Co1218 O1230 2.137 . S
Co1218 O1231 2.244 . S
O1219 Co1218 2.216 . S
O1219 C1226 1.247 . S
O1220 Co1218 2.091 . S
O1220 C1226 1.261 . S
C1221 O1230 1.247 . S
C1221 O1231 1.272 . S
O1222 Co1218 2.004 . S
O1222 C1227 1.259 . S
Co1223 O1224 2.061 . S
Co1223 O1229 2.052 . S
Co1223 O1231 2.135 . S
O1224 Co1223 2.061 . S
O1224 C1227 1.235 . S
C1225 O1228 1.238 . S
C1225 O1229 1.241 . S
C1226 O1219 1.247 . S
C1226 O1220 1.261 . S
C1227 O1222 1.259 . S
C1227 O1224 1.235 . S
O1228 Co1218 2.021 . S
O1228 C1225 1.238 . S
O1229 Co1223 2.052 . S
O1229 C1225 1.241 . S
O1230 Co1218 2.137 . S
O1230 C1221 1.247 . S
O1231 Co1218 2.244 . S
O1231 C1221 1.272 . S
O1231 Co1223 2.135 . S
Co1232 O1233 2.216 . S
Co1232 O1234 2.091 . S
Co1232 O1236 2.004 . S
Co1232 O1242 2.021 . S
Co1232 O1244 2.137 . S
Co1232 O1245 2.244 . S
O1233 Co1232 2.216 . S
O1233 C1240 1.247 . S
O1234 Co1232 2.091 . S
O1234 C1240 1.261 . S
C1235 O1244 1.247 . S
C1235 O1245 1.272 . S
O1236 Co1232 2.004 . S
O1236 C1241 1.259 . S
Co1237 O1238 2.061 . S
Co1237 O1243 2.052 . S
Co1237 O1245 2.135 . S
O1238 Co1237 2.061 . S
O1238 C1241 1.235 . S
C1239 O1242 1.238 . S
C1239 O1243 1.241 . S
C1240 O1233 1.247 . S
C1240 O1234 1.261 . S
C1241 O1236 1.259 . S
C1241 O1238 1.235 . S
O1242 Co1232 2.021 . S
O1242 C1239 1.238 . S
O1243 Co1237 2.052 . S
O1243 C1239 1.241 . S
O1244 Co1232 2.137 . S
O1244 C1235 1.247 . S
O1245 Co1232 2.244 . S
O1245 C1235 1.272 . S
O1245 Co1237 2.135 . S
Co1246 O1247 2.216 . S
Co1246 O1248 2.091 . S
Co1246 O1250 2.004 . S
Co1246 O1256 2.021 . S
Co1246 O1258 2.137 . S
Co1246 O1259 2.244 . S
O1247 Co1246 2.216 . S
O1247 C1254 1.247 . S
O1248 Co1246 2.091 . S
O1248 C1254 1.261 . S
C1249 O1258 1.247 . S
C1249 O1259 1.272 . S
O1250 Co1246 2.004 . S
O1250 C1255 1.259 . S
Co1251 O1252 2.061 . S
Co1251 O1257 2.052 . S
Co1251 O1259 2.135 . S
O1252 Co1251 2.061 . S
O1252 C1255 1.235 . S
C1253 O1256 1.238 . S
C1253 O1257 1.241 . S
C1254 O1247 1.247 . S
C1254 O1248 1.261 . S
C1255 O1250 1.259 . S
C1255 O1252 1.235 . S
O1256 Co1246 2.021 . S
O1256 C1253 1.238 . S
O1257 Co1251 2.052 . S
O1257 C1253 1.241 . S
O1258 Co1246 2.137 . S
O1258 C1249 1.247 . S
O1259 Co1246 2.244 . S
O1259 C1249 1.272 . S
O1259 Co1251 2.135 . S
Co1260 O1261 2.216 . S
Co1260 O1262 2.091 . S
Co1260 O1264 2.004 . S
Co1260 O1270 2.021 . S
Co1260 O1272 2.137 . S
Co1260 O1273 2.244 . S
O1261 Co1260 2.216 . S
O1261 C1268 1.247 . S
O1262 Co1260 2.091 . S
O1262 C1268 1.261 . S
C1263 O1272 1.247 . S
C1263 O1273 1.272 . S
O1264 Co1260 2.004 . S
O1264 C1269 1.259 . S
Co1265 O1266 2.061 . S
Co1265 O1271 2.052 . S
Co1265 O1273 2.135 . S
O1266 Co1265 2.061 . S
O1266 C1269 1.235 . S
C1267 O1270 1.238 . S
C1267 O1271 1.241 . S
C1268 O1261 1.247 . S
C1268 O1262 1.261 . S
C1269 O1264 1.259 . S
C1269 O1266 1.235 . S
O1270 Co1260 2.021 . S
O1270 C1267 1.238 . S
O1271 Co1265 2.052 . S
O1271 C1267 1.241 . S
O1272 Co1260 2.137 . S
O1272 C1263 1.247 . S
O1273 Co1260 2.244 . S
O1273 C1263 1.272 . S
O1273 Co1265 2.135 . S
Co1274 O1275 2.216 . S
Co1274 O1276 2.091 . S
Co1274 O1278 2.004 . S
Co1274 O1284 2.021 . S
Co1274 O1286 2.137 . S
Co1274 O1287 2.244 . S
O1275 Co1274 2.216 . S
O1275 C1282 1.247 . S
O1276 Co1274 2.091 . S
O1276 C1282 1.261 . S
C1277 O1286 1.247 . S
C1277 O1287 1.272 . S
O1278 Co1274 2.004 . S
O1278 C1283 1.259 . S
Co1279 O1280 2.061 . S
Co1279 O1285 2.052 . S
Co1279 O1287 2.135 . S
O1280 Co1279 2.061 . S
O1280 C1283 1.235 . S
C1281 O1284 1.238 . S
C1281 O1285 1.241 . S
C1282 O1275 1.247 . S
C1282 O1276 1.261 . S
C1283 O1278 1.259 . S
C1283 O1280 1.235 . S
O1284 Co1274 2.021 . S
O1284 C1281 1.238 . S
O1285 Co1279 2.052 . S
O1285 C1281 1.241 . S
O1286 Co1274 2.137 . S
O1286 C1277 1.247 . S
O1287 Co1274 2.244 . S
O1287 C1277 1.272 . S
O1287 Co1279 2.135 . S
Co1288 O1289 2.216 . S
Co1288 O1290 2.091 . S
Co1288 O1292 2.004 . S
Co1288 O1298 2.021 . S
Co1288 O1300 2.137 . S
Co1288 O1301 2.244 . S
O1289 Co1288 2.216 . S
O1289 C1296 1.247 . S
O1290 Co1288 2.091 . S
O1290 C1296 1.261 . S
C1291 O1300 1.247 . S
C1291 O1301 1.272 . S
O1292 Co1288 2.004 . S
O1292 C1297 1.259 . S
Co1293 O1294 2.061 . S
Co1293 O1299 2.052 . S
Co1293 O1301 2.135 . S
O1294 Co1293 2.061 . S
O1294 C1297 1.235 . S
C1295 O1298 1.238 . S
C1295 O1299 1.241 . S
C1296 O1289 1.247 . S
C1296 O1290 1.261 . S
C1297 O1292 1.259 . S
C1297 O1294 1.235 . S
O1298 Co1288 2.021 . S
O1298 C1295 1.238 . S
O1299 Co1293 2.052 . S
O1299 C1295 1.241 . S
O1300 Co1288 2.137 . S
O1300 C1291 1.247 . S
O1301 Co1288 2.244 . S
O1301 C1291 1.272 . S
O1301 Co1293 2.135 . S
Co1302 O1303 2.216 . S
Co1302 O1304 2.091 . S
Co1302 O1306 2.004 . S
Co1302 O1312 2.021 . S
Co1302 O1314 2.137 . S
Co1302 O1315 2.244 . S
O1303 Co1302 2.216 . S
O1303 C1310 1.247 . S
O1304 Co1302 2.091 . S
O1304 C1310 1.261 . S
C1305 O1314 1.247 . S
C1305 O1315 1.272 . S
O1306 Co1302 2.004 . S
O1306 C1311 1.259 . S
Co1307 O1308 2.061 . S
Co1307 O1313 2.052 . S
Co1307 O1315 2.135 . S
O1308 Co1307 2.061 . S
O1308 C1311 1.235 . S
C1309 O1312 1.238 . S
C1309 O1313 1.241 . S
C1310 O1303 1.247 . S
C1310 O1304 1.261 . S
C1311 O1306 1.259 . S
C1311 O1308 1.235 . S
O1312 Co1302 2.021 . S
O1312 C1309 1.238 . S
O1313 Co1307 2.052 . S
O1313 C1309 1.241 . S
O1314 Co1302 2.137 . S
O1314 C1305 1.247 . S
O1315 Co1302 2.244 . S
O1315 C1305 1.272 . S
O1315 Co1307 2.135 . S
Co1316 O1317 2.216 . S
Co1316 O1318 2.091 . S
Co1316 O1320 2.004 . S
Co1316 O1326 2.021 . S
Co1316 O1328 2.137 . S
Co1316 O1329 2.244 . S
O1317 Co1316 2.216 . S
O1317 C1324 1.247 . S
O1318 Co1316 2.091 . S
O1318 C1324 1.261 . S
C1319 O1328 1.247 . S
C1319 O1329 1.272 . S
O1320 Co1316 2.004 . S
O1320 C1325 1.259 . S
Co1321 O1322 2.061 . S
Co1321 O1327 2.052 . S
Co1321 O1329 2.135 . S
O1322 Co1321 2.061 . S
O1322 C1325 1.235 . S
C1323 O1326 1.238 . S
C1323 O1327 1.241 . S
C1324 O1317 1.247 . S
C1324 O1318 1.261 . S
C1325 O1320 1.259 . S
C1325 O1322 1.235 . S
O1326 Co1316 2.021 . S
O1326 C1323 1.238 . S
O1327 Co1321 2.052 . S
O1327 C1323 1.241 . S
O1328 Co1316 2.137 . S
O1328 C1319 1.247 . S
O1329 Co1316 2.244 . S
O1329 C1319 1.272 . S
O1329 Co1321 2.135 . S
Co1330 O1331 2.216 . S
Co1330 O1332 2.091 . S
Co1330 O1334 2.004 . S
Co1330 O1340 2.021 . S
Co1330 O1342 2.137 . S
Co1330 O1343 2.244 . S
O1331 Co1330 2.216 . S
O1331 C1338 1.247 . S
O1332 Co1330 2.091 . S
O1332 C1338 1.261 . S
C1333 O1342 1.247 . S
C1333 O1343 1.272 . S
O1334 Co1330 2.004 . S
O1334 C1339 1.259 . S
Co1335 O1336 2.061 . S
Co1335 O1341 2.052 . S
Co1335 O1343 2.135 . S
O1336 Co1335 2.061 . S
O1336 C1339 1.235 . S
C1337 O1340 1.238 . S
C1337 O1341 1.241 . S
C1338 O1331 1.247 . S
C1338 O1332 1.261 . S
C1339 O1334 1.259 . S
C1339 O1336 1.235 . S
O1340 Co1330 2.021 . S
O1340 C1337 1.238 . S
O1341 Co1335 2.052 . S
O1341 C1337 1.241 . S
O1342 Co1330 2.137 . S
O1342 C1333 1.247 . S
O1343 Co1330 2.244 . S
O1343 C1333 1.272 . S
O1343 Co1335 2.135 . S
C1344 C1345 1.387 . S
C1344 H1348 0.950 . S
C1344 C1353 1.390 . S
C1345 C1344 1.387 . S
C1345 C1347 1.387 . S
H1346 C1353 0.950 . S
C1347 C1345 1.387 . S
C1347 C1349 1.390 . S
C1347 H1351 0.950 . S
H1348 C1344 0.950 . S
C1349 C1347 1.390 . S
C1349 C1350 1.387 . S
C1349 H1352 0.950 . S
C1350 C1349 1.387 . S
C1350 C1353 1.387 . S
H1351 C1347 0.950 . S
H1352 C1349 0.950 . S
C1353 C1344 1.390 . S
C1353 H1346 0.950 . S
C1353 C1350 1.387 . S
C1354 C1355 1.387 . S
C1354 H1358 0.950 . S
C1354 C1363 1.390 . S
C1355 C1354 1.387 . S
C1355 C1357 1.387 . S
H1356 C1363 0.950 . S
C1357 C1355 1.387 . S
C1357 C1359 1.390 . S
C1357 H1361 0.950 . S
H1358 C1354 0.950 . S
C1359 C1357 1.390 . S
C1359 C1360 1.387 . S
C1359 H1362 0.950 . S
C1360 C1359 1.387 . S
C1360 C1363 1.387 . S
H1361 C1357 0.950 . S
H1362 C1359 0.950 . S
C1363 C1354 1.390 . S
C1363 H1356 0.950 . S
C1363 C1360 1.387 . S
C1364 C1365 1.387 . S
C1364 H1368 0.950 . S
C1364 C1373 1.390 . S
C1365 C1364 1.387 . S
C1365 C1367 1.387 . S
H1366 C1373 0.950 . S
C1367 C1365 1.387 . S
C1367 C1369 1.390 . S
C1367 H1371 0.950 . S
H1368 C1364 0.950 . S
C1369 C1367 1.390 . S
C1369 C1370 1.387 . S
C1369 H1372 0.950 . S
C1370 C1369 1.387 . S
C1370 C1373 1.387 . S
H1371 C1367 0.950 . S
H1372 C1369 0.950 . S
C1373 C1364 1.390 . S
C1373 H1366 0.950 . S
C1373 C1370 1.387 . S
C1374 C1375 1.387 . S
C1374 H1378 0.950 . S
C1374 C1383 1.390 . S
C1375 C1374 1.387 . S
C1375 C1377 1.387 . S
H1376 C1383 0.950 . S
C1377 C1375 1.387 . S
C1377 C1379 1.390 . S
C1377 H1381 0.950 . S
H1378 C1374 0.950 . S
C1379 C1377 1.390 . S
C1379 C1380 1.387 . S
C1379 H1382 0.950 . S
C1380 C1379 1.387 . S
C1380 C1383 1.387 . S
H1381 C1377 0.950 . S
H1382 C1379 0.950 . S
C1383 C1374 1.390 . S
C1383 H1376 0.950 . S
C1383 C1380 1.387 . S
C1384 C1385 1.387 . S
C1384 H1388 0.950 . S
C1384 C1393 1.390 . S
C1385 C1384 1.387 . S
C1385 C1387 1.387 . S
H1386 C1393 0.950 . S
C1387 C1385 1.387 . S
C1387 C1389 1.390 . S
C1387 H1391 0.950 . S
H1388 C1384 0.950 . S
C1389 C1387 1.390 . S
C1389 C1390 1.387 . S
C1389 H1392 0.950 . S
C1390 C1389 1.387 . S
C1390 C1393 1.387 . S
H1391 C1387 0.950 . S
H1392 C1389 0.950 . S
C1393 C1384 1.390 . S
C1393 H1386 0.950 . S
C1393 C1390 1.387 . S
C1394 C1395 1.387 . S
C1394 H1398 0.950 . S
C1394 C1403 1.390 . S
C1395 C1394 1.387 . S
C1395 C1397 1.387 . S
H1396 C1403 0.950 . S
C1397 C1395 1.387 . S
C1397 C1399 1.390 . S
C1397 H1401 0.950 . S
H1398 C1394 0.950 . S
C1399 C1397 1.390 . S
C1399 C1400 1.387 . S
C1399 H1402 0.950 . S
C1400 C1399 1.387 . S
C1400 C1403 1.387 . S
H1401 C1397 0.950 . S
H1402 C1399 0.950 . S
C1403 C1394 1.390 . S
C1403 H1396 0.950 . S
C1403 C1400 1.387 . S
C1404 C1405 1.387 . S
C1404 H1408 0.950 . S
C1404 C1413 1.390 . S
C1405 C1404 1.387 . S
C1405 C1407 1.387 . S
H1406 C1413 0.950 . S
C1407 C1405 1.387 . S
C1407 C1409 1.390 . S
C1407 H1411 0.950 . S
H1408 C1404 0.950 . S
C1409 C1407 1.390 . S
C1409 C1410 1.387 . S
C1409 H1412 0.950 . S
C1410 C1409 1.387 . S
C1410 C1413 1.387 . S
H1411 C1407 0.950 . S
H1412 C1409 0.950 . S
C1413 C1404 1.390 . S
C1413 H1406 0.950 . S
C1413 C1410 1.387 . S
C1414 C1415 1.387 . S
C1414 H1418 0.950 . S
C1414 C1423 1.390 . S
C1415 C1414 1.387 . S
C1415 C1417 1.387 . S
H1416 C1423 0.950 . S
C1417 C1415 1.387 . S
C1417 C1419 1.390 . S
C1417 H1421 0.950 . S
H1418 C1414 0.950 . S
C1419 C1417 1.390 . S
C1419 C1420 1.387 . S
C1419 H1422 0.950 . S
C1420 C1419 1.387 . S
C1420 C1423 1.387 . S
H1421 C1417 0.950 . S
H1422 C1419 0.950 . S
C1423 C1414 1.390 . S
C1423 H1416 0.950 . S
C1423 C1420 1.387 . S
C1424 C1425 1.387 . S
C1424 H1428 0.950 . S
C1424 C1433 1.390 . S
C1425 C1424 1.387 . S
C1425 C1427 1.387 . S
H1426 C1433 0.950 . S
C1427 C1425 1.387 . S
C1427 C1429 1.390 . S
C1427 H1431 0.950 . S
H1428 C1424 0.950 . S
C1429 C1427 1.390 . S
C1429 C1430 1.387 . S
C1429 H1432 0.950 . S
C1430 C1429 1.387 . S
C1430 C1433 1.387 . S
H1431 C1427 0.950 . S
H1432 C1429 0.950 . S
C1433 C1424 1.390 . S
C1433 H1426 0.950 . S
C1433 C1430 1.387 . S
C1434 C1435 1.387 . S
C1434 H1438 0.950 . S
C1434 C1443 1.390 . S
C1435 C1434 1.387 . S
C1435 C1437 1.387 . S
H1436 C1443 0.950 . S
C1437 C1435 1.387 . S
C1437 C1439 1.390 . S
C1437 H1441 0.950 . S
H1438 C1434 0.950 . S
C1439 C1437 1.390 . S
C1439 C1440 1.387 . S
C1439 H1442 0.950 . S
C1440 C1439 1.387 . S
C1440 C1443 1.387 . S
H1441 C1437 0.950 . S
H1442 C1439 0.950 . S
C1443 C1434 1.390 . S
C1443 H1436 0.950 . S
C1443 C1440 1.387 . S
C1444 C1445 1.387 . S
C1444 H1448 0.950 . S
C1444 C1453 1.390 . S
C1445 C1444 1.387 . S
C1445 C1447 1.387 . S
H1446 C1453 0.950 . S
C1447 C1445 1.387 . S
C1447 C1449 1.390 . S
C1447 H1451 0.950 . S
H1448 C1444 0.950 . S
C1449 C1447 1.390 . S
C1449 C1450 1.387 . S
C1449 H1452 0.950 . S
C1450 C1449 1.387 . S
C1450 C1453 1.387 . S
H1451 C1447 0.950 . S
H1452 C1449 0.950 . S
C1453 C1444 1.390 . S
C1453 H1446 0.950 . S
C1453 C1450 1.387 . S
C1454 C1455 1.387 . S
C1454 H1458 0.950 . S
C1454 C1463 1.390 . S
C1455 C1454 1.387 . S
C1455 C1457 1.387 . S
H1456 C1463 0.950 . S
C1457 C1455 1.387 . S
C1457 C1459 1.390 . S
C1457 H1461 0.950 . S
H1458 C1454 0.950 . S
C1459 C1457 1.390 . S
C1459 C1460 1.387 . S
C1459 H1462 0.950 . S
C1460 C1459 1.387 . S
C1460 C1463 1.387 . S
H1461 C1457 0.950 . S
H1462 C1459 0.950 . S
C1463 C1454 1.390 . S
C1463 H1456 0.950 . S
C1463 C1460 1.387 . S
C1464 C1465 1.387 . S
C1464 H1468 0.950 . S
C1464 C1473 1.390 . S
C1465 C1464 1.387 . S
C1465 C1467 1.387 . S
H1466 C1473 0.950 . S
C1467 C1465 1.387 . S
C1467 C1469 1.390 . S
C1467 H1471 0.950 . S
H1468 C1464 0.950 . S
C1469 C1467 1.390 . S
C1469 C1470 1.387 . S
C1469 H1472 0.950 . S
C1470 C1469 1.387 . S
C1470 C1473 1.387 . S
H1471 C1467 0.950 . S
H1472 C1469 0.950 . S
C1473 C1464 1.390 . S
C1473 H1466 0.950 . S
C1473 C1470 1.387 . S
C1474 C1475 1.387 . S
C1474 H1478 0.950 . S
C1474 C1483 1.390 . S
C1475 C1474 1.387 . S
C1475 C1477 1.387 . S
H1476 C1483 0.950 . S
C1477 C1475 1.387 . S
C1477 C1479 1.390 . S
C1477 H1481 0.950 . S
H1478 C1474 0.950 . S
C1479 C1477 1.390 . S
C1479 C1480 1.387 . S
C1479 H1482 0.950 . S
C1480 C1479 1.387 . S
C1480 C1483 1.387 . S
H1481 C1477 0.950 . S
H1482 C1479 0.950 . S
C1483 C1474 1.390 . S
C1483 H1476 0.950 . S
C1483 C1480 1.387 . S
C1484 C1485 1.387 . S
C1484 H1488 0.950 . S
C1484 C1493 1.390 . S
C1485 C1484 1.387 . S
C1485 C1487 1.387 . S
H1486 C1493 0.950 . S
C1487 C1485 1.387 . S
C1487 C1489 1.390 . S
C1487 H1491 0.950 . S
H1488 C1484 0.950 . S
C1489 C1487 1.390 . S
C1489 C1490 1.387 . S
C1489 H1492 0.950 . S
C1490 C1489 1.387 . S
C1490 C1493 1.387 . S
H1491 C1487 0.950 . S
H1492 C1489 0.950 . S
C1493 C1484 1.390 . S
C1493 H1486 0.950 . S
C1493 C1490 1.387 . S
C1494 C1495 1.387 . S
C1494 H1498 0.950 . S
C1494 C1503 1.390 . S
C1495 C1494 1.387 . S
C1495 C1497 1.387 . S
H1496 C1503 0.950 . S
C1497 C1495 1.387 . S
C1497 C1499 1.390 . S
C1497 H1501 0.950 . S
H1498 C1494 0.950 . S
C1499 C1497 1.390 . S
C1499 C1500 1.387 . S
C1499 H1502 0.950 . S
C1500 C1499 1.387 . S
C1500 C1503 1.387 . S
H1501 C1497 0.950 . S
H1502 C1499 0.950 . S
C1503 C1494 1.390 . S
C1503 H1496 0.950 . S
C1503 C1500 1.387 . S
C1504 C1505 1.387 . S
C1504 H1508 0.950 . S
C1504 C1513 1.390 . S
C1505 C1504 1.387 . S
C1505 C1507 1.387 . S
H1506 C1513 0.950 . S
C1507 C1505 1.387 . S
C1507 C1509 1.390 . S
C1507 H1511 0.950 . S
H1508 C1504 0.950 . S
C1509 C1507 1.390 . S
C1509 C1510 1.387 . S
C1509 H1512 0.950 . S
C1510 C1509 1.387 . S
C1510 C1513 1.387 . S
H1511 C1507 0.950 . S
H1512 C1509 0.950 . S
C1513 C1504 1.390 . S
C1513 H1506 0.950 . S
C1513 C1510 1.387 . S
C1514 C1515 1.387 . S
C1514 H1518 0.950 . S
C1514 C1523 1.390 . S
C1515 C1514 1.387 . S
C1515 C1517 1.387 . S
H1516 C1523 0.950 . S
C1517 C1515 1.387 . S
C1517 C1519 1.390 . S
C1517 H1521 0.950 . S
H1518 C1514 0.950 . S
C1519 C1517 1.390 . S
C1519 C1520 1.387 . S
C1519 H1522 0.950 . S
C1520 C1519 1.387 . S
C1520 C1523 1.387 . S
H1521 C1517 0.950 . S
H1522 C1519 0.950 . S
C1523 C1514 1.390 . S
C1523 H1516 0.950 . S
C1523 C1520 1.387 . S
C1524 C1525 1.387 . S
C1524 H1528 0.950 . S
C1524 C1533 1.390 . S
C1525 C1524 1.387 . S
C1525 C1527 1.387 . S
H1526 C1533 0.950 . S
C1527 C1525 1.387 . S
C1527 C1529 1.390 . S
C1527 H1531 0.950 . S
H1528 C1524 0.950 . S
C1529 C1527 1.390 . S
C1529 C1530 1.387 . S
C1529 H1532 0.950 . S
C1530 C1529 1.387 . S
C1530 C1533 1.387 . S
H1531 C1527 0.950 . S
H1532 C1529 0.950 . S
C1533 C1524 1.390 . S
C1533 H1526 0.950 . S
C1533 C1530 1.387 . S
C1534 C1535 1.387 . S
C1534 H1538 0.950 . S
C1534 C1543 1.390 . S
C1535 C1534 1.387 . S
C1535 C1537 1.387 . S
H1536 C1543 0.950 . S
C1537 C1535 1.387 . S
C1537 C1539 1.390 . S
C1537 H1541 0.950 . S
H1538 C1534 0.950 . S
C1539 C1537 1.390 . S
C1539 C1540 1.387 . S
C1539 H1542 0.950 . S
C1540 C1539 1.387 . S
C1540 C1543 1.387 . S
H1541 C1537 0.950 . S
H1542 C1539 0.950 . S
C1543 C1534 1.390 . S
C1543 H1536 0.950 . S
C1543 C1540 1.387 . S
C1544 C1545 1.387 . S
C1544 H1548 0.950 . S
C1544 C1553 1.390 . S
C1545 C1544 1.387 . S
C1545 C1547 1.387 . S
H1546 C1553 0.950 . S
C1547 C1545 1.387 . S
C1547 C1549 1.390 . S
C1547 H1551 0.950 . S
H1548 C1544 0.950 . S
C1549 C1547 1.390 . S
C1549 C1550 1.387 . S
C1549 H1552 0.950 . S
C1550 C1549 1.387 . S
C1550 C1553 1.387 . S
H1551 C1547 0.950 . S
H1552 C1549 0.950 . S
C1553 C1544 1.390 . S
C1553 H1546 0.950 . S
C1553 C1550 1.387 . S
C1554 C1555 1.387 . S
C1554 H1558 0.950 . S
C1554 C1563 1.390 . S
C1555 C1554 1.387 . S
C1555 C1557 1.387 . S
H1556 C1563 0.950 . S
C1557 C1555 1.387 . S
C1557 C1559 1.390 . S
C1557 H1561 0.950 . S
H1558 C1554 0.950 . S
C1559 C1557 1.390 . S
C1559 C1560 1.387 . S
C1559 H1562 0.950 . S
C1560 C1559 1.387 . S
C1560 C1563 1.387 . S
H1561 C1557 0.950 . S
H1562 C1559 0.950 . S
C1563 C1554 1.390 . S
C1563 H1556 0.950 . S
C1563 C1560 1.387 . S
C1564 C1565 1.387 . S
C1564 H1568 0.950 . S
C1564 C1573 1.390 . S
C1565 C1564 1.387 . S
C1565 C1567 1.387 . S
H1566 C1573 0.950 . S
C1567 C1565 1.387 . S
C1567 C1569 1.390 . S
C1567 H1571 0.950 . S
H1568 C1564 0.950 . S
C1569 C1567 1.390 . S
C1569 C1570 1.387 . S
C1569 H1572 0.950 . S
C1570 C1569 1.387 . S
C1570 C1573 1.387 . S
H1571 C1567 0.950 . S
H1572 C1569 0.950 . S
C1573 C1564 1.390 . S
C1573 H1566 0.950 . S
C1573 C1570 1.387 . S
C1574 C1575 1.387 . S
C1574 H1578 0.950 . S
C1574 C1583 1.390 . S
C1575 C1574 1.387 . S
C1575 C1577 1.387 . S
H1576 C1583 0.950 . S
C1577 C1575 1.387 . S
C1577 C1579 1.390 . S
C1577 H1581 0.950 . S
H1578 C1574 0.950 . S
C1579 C1577 1.390 . S
C1579 C1580 1.387 . S
C1579 H1582 0.950 . S
C1580 C1579 1.387 . S
C1580 C1583 1.387 . S
H1581 C1577 0.950 . S
H1582 C1579 0.950 . S
C1583 C1574 1.390 . S
C1583 H1576 0.950 . S
C1583 C1580 1.387 . S
C1584 C1585 1.387 . S
C1584 H1588 0.950 . S
C1584 C1593 1.390 . S
C1585 C1584 1.387 . S
C1585 C1587 1.387 . S
H1586 C1593 0.950 . S
C1587 C1585 1.387 . S
C1587 C1589 1.390 . S
C1587 H1591 0.950 . S
H1588 C1584 0.950 . S
C1589 C1587 1.390 . S
C1589 C1590 1.387 . S
C1589 H1592 0.950 . S
C1590 C1589 1.387 . S
C1590 C1593 1.387 . S
H1591 C1587 0.950 . S
H1592 C1589 0.950 . S
C1593 C1584 1.390 . S
C1593 H1586 0.950 . S
C1593 C1590 1.387 . S
C1594 C1595 1.387 . S
C1594 H1598 0.950 . S
C1594 C1603 1.390 . S
C1595 C1594 1.387 . S
C1595 C1597 1.387 . S
H1596 C1603 0.950 . S
C1597 C1595 1.387 . S
C1597 C1599 1.390 . S
C1597 H1601 0.950 . S
H1598 C1594 0.950 . S
C1599 C1597 1.390 . S
C1599 C1600 1.387 . S
C1599 H1602 0.950 . S
C1600 C1599 1.387 . S
C1600 C1603 1.387 . S
H1601 C1597 0.950 . S
H1602 C1599 0.950 . S
C1603 C1594 1.390 . S
C1603 H1596 0.950 . S
C1603 C1600 1.387 . S
C1604 C1605 1.387 . S
C1604 H1608 0.950 . S
C1604 C1613 1.390 . S
C1605 C1604 1.387 . S
C1605 C1607 1.387 . S
H1606 C1613 0.950 . S
C1607 C1605 1.387 . S
C1607 C1609 1.390 . S
C1607 H1611 0.950 . S
H1608 C1604 0.950 . S
C1609 C1607 1.390 . S
C1609 C1610 1.387 . S
C1609 H1612 0.950 . S
C1610 C1609 1.387 . S
C1610 C1613 1.387 . S
H1611 C1607 0.950 . S
H1612 C1609 0.950 . S
C1613 C1604 1.390 . S
C1613 H1606 0.950 . S
C1613 C1610 1.387 . S
C1614 C1615 1.387 . S
C1614 H1618 0.950 . S
C1614 C1623 1.390 . S
C1615 C1614 1.387 . S
C1615 C1617 1.387 . S
H1616 C1623 0.950 . S
C1617 C1615 1.387 . S
C1617 C1619 1.390 . S
C1617 H1621 0.950 . S
H1618 C1614 0.950 . S
C1619 C1617 1.390 . S
C1619 C1620 1.387 . S
C1619 H1622 0.950 . S
C1620 C1619 1.387 . S
C1620 C1623 1.387 . S
H1621 C1617 0.950 . S
H1622 C1619 0.950 . S
C1623 C1614 1.390 . S
C1623 H1616 0.950 . S
C1623 C1620 1.387 . S
C1624 C1625 1.387 . S
C1624 H1628 0.950 . S
C1624 C1633 1.390 . S
C1625 C1624 1.387 . S
C1625 C1627 1.387 . S
H1626 C1633 0.950 . S
C1627 C1625 1.387 . S
C1627 C1629 1.390 . S
C1627 H1631 0.950 . S
H1628 C1624 0.950 . S
C1629 C1627 1.390 . S
C1629 C1630 1.387 . S
C1629 H1632 0.950 . S
C1630 C1629 1.387 . S
C1630 C1633 1.387 . S
H1631 C1627 0.950 . S
H1632 C1629 0.950 . S
C1633 C1624 1.390 . S
C1633 H1626 0.950 . S
C1633 C1630 1.387 . S
C1634 C1635 1.387 . S
C1634 H1638 0.950 . S
C1634 C1643 1.390 . S
C1635 C1634 1.387 . S
C1635 C1637 1.387 . S
H1636 C1643 0.950 . S
C1637 C1635 1.387 . S
C1637 C1639 1.390 . S
C1637 H1641 0.950 . S
H1638 C1634 0.950 . S
C1639 C1637 1.390 . S
C1639 C1640 1.387 . S
C1639 H1642 0.950 . S
C1640 C1639 1.387 . S
C1640 C1643 1.387 . S
H1641 C1637 0.950 . S
H1642 C1639 0.950 . S
C1643 C1634 1.390 . S
C1643 H1636 0.950 . S
C1643 C1640 1.387 . S
C1644 C1645 1.387 . S
C1644 H1648 0.950 . S
C1644 C1653 1.390 . S
C1645 C1644 1.387 . S
C1645 C1647 1.387 . S
H1646 C1653 0.950 . S
C1647 C1645 1.387 . S
C1647 C1649 1.390 . S
C1647 H1651 0.950 . S
H1648 C1644 0.950 . S
C1649 C1647 1.390 . S
C1649 C1650 1.387 . S
C1649 H1652 0.950 . S
C1650 C1649 1.387 . S
C1650 C1653 1.387 . S
H1651 C1647 0.950 . S
H1652 C1649 0.950 . S
C1653 C1644 1.390 . S
C1653 H1646 0.950 . S
C1653 C1650 1.387 . S
C1654 C1655 1.387 . S
C1654 H1658 0.950 . S
C1654 C1663 1.390 . S
C1655 C1654 1.387 . S
C1655 C1657 1.387 . S
H1656 C1663 0.950 . S
C1657 C1655 1.387 . S
C1657 C1659 1.390 . S
C1657 H1661 0.950 . S
H1658 C1654 0.950 . S
C1659 C1657 1.390 . S
C1659 C1660 1.387 . S
C1659 H1662 0.950 . S
C1660 C1659 1.387 . S
C1660 C1663 1.387 . S
H1661 C1657 0.950 . S
H1662 C1659 0.950 . S
C1663 C1654 1.390 . S
C1663 H1656 0.950 . S
C1663 C1660 1.387 . S
C1664 C1665 1.387 . S
C1664 H1668 0.950 . S
C1664 C1673 1.390 . S
C1665 C1664 1.387 . S
C1665 C1667 1.387 . S
H1666 C1673 0.950 . S
C1667 C1665 1.387 . S
C1667 C1669 1.390 . S
C1667 H1671 0.950 . S
H1668 C1664 0.950 . S
C1669 C1667 1.390 . S
C1669 C1670 1.387 . S
C1669 H1672 0.950 . S
C1670 C1669 1.387 . S
C1670 C1673 1.387 . S
H1671 C1667 0.950 . S
H1672 C1669 0.950 . S
C1673 C1664 1.390 . S
C1673 H1666 0.950 . S
C1673 C1670 1.387 . S
C1674 C1675 1.387 . S
C1674 H1678 0.950 . S
C1674 C1683 1.390 . S
C1675 C1674 1.387 . S
C1675 C1677 1.387 . S
H1676 C1683 0.950 . S
C1677 C1675 1.387 . S
C1677 C1679 1.390 . S
C1677 H1681 0.950 . S
H1678 C1674 0.950 . S
C1679 C1677 1.390 . S
C1679 C1680 1.387 . S
C1679 H1682 0.950 . S
C1680 C1679 1.387 . S
C1680 C1683 1.387 . S
H1681 C1677 0.950 . S
H1682 C1679 0.950 . S
C1683 C1674 1.390 . S
C1683 H1676 0.950 . S
C1683 C1680 1.387 . S
C1684 C1685 1.387 . S
C1684 H1688 0.950 . S
C1684 C1693 1.390 . S
C1685 C1684 1.387 . S
C1685 C1687 1.387 . S
H1686 C1693 0.950 . S
C1687 C1685 1.387 . S
C1687 C1689 1.390 . S
C1687 H1691 0.950 . S
H1688 C1684 0.950 . S
C1689 C1687 1.390 . S
C1689 C1690 1.387 . S
C1689 H1692 0.950 . S
C1690 C1689 1.387 . S
C1690 C1693 1.387 . S
H1691 C1687 0.950 . S
H1692 C1689 0.950 . S
C1693 C1684 1.390 . S
C1693 H1686 0.950 . S
C1693 C1690 1.387 . S
C1694 C1695 1.387 . S
C1694 H1698 0.950 . S
C1694 C1703 1.390 . S
C1695 C1694 1.387 . S
C1695 C1697 1.387 . S
H1696 C1703 0.950 . S
C1697 C1695 1.387 . S
C1697 C1699 1.390 . S
C1697 H1701 0.950 . S
H1698 C1694 0.950 . S
C1699 C1697 1.390 . S
C1699 C1700 1.387 . S
C1699 H1702 0.950 . S
C1700 C1699 1.387 . S
C1700 C1703 1.387 . S
H1701 C1697 0.950 . S
H1702 C1699 0.950 . S
C1703 C1694 1.390 . S
C1703 H1696 0.950 . S
C1703 C1700 1.387 . S
C1704 C1705 1.387 . S
C1704 H1708 0.950 . S
C1704 C1713 1.390 . S
C1705 C1704 1.387 . S
C1705 C1707 1.387 . S
H1706 C1713 0.950 . S
C1707 C1705 1.387 . S
C1707 C1709 1.390 . S
C1707 H1711 0.950 . S
H1708 C1704 0.950 . S
C1709 C1707 1.390 . S
C1709 C1710 1.387 . S
C1709 H1712 0.950 . S
C1710 C1709 1.387 . S
C1710 C1713 1.387 . S
H1711 C1707 0.950 . S
H1712 C1709 0.950 . S
C1713 C1704 1.390 . S
C1713 H1706 0.950 . S
C1713 C1710 1.387 . S
C1714 C1715 1.387 . S
C1714 H1718 0.950 . S
C1714 C1723 1.390 . S
C1715 C1714 1.387 . S
C1715 C1717 1.387 . S
H1716 C1723 0.950 . S
C1717 C1715 1.387 . S
C1717 C1719 1.390 . S
C1717 H1721 0.950 . S
H1718 C1714 0.950 . S
C1719 C1717 1.390 . S
C1719 C1720 1.387 . S
C1719 H1722 0.950 . S
C1720 C1719 1.387 . S
C1720 C1723 1.387 . S
H1721 C1717 0.950 . S
H1722 C1719 0.950 . S
C1723 C1714 1.390 . S
C1723 H1716 0.950 . S
C1723 C1720 1.387 . S
C1724 C1725 1.387 . S
C1724 H1728 0.950 . S
C1724 C1733 1.390 . S
C1725 C1724 1.387 . S
C1725 C1727 1.387 . S
H1726 C1733 0.950 . S
C1727 C1725 1.387 . S
C1727 C1729 1.390 . S
C1727 H1731 0.950 . S
H1728 C1724 0.950 . S
C1729 C1727 1.390 . S
C1729 C1730 1.387 . S
C1729 H1732 0.950 . S
C1730 C1729 1.387 . S
C1730 C1733 1.387 . S
H1731 C1727 0.950 . S
H1732 C1729 0.950 . S
C1733 C1724 1.390 . S
C1733 H1726 0.950 . S
C1733 C1730 1.387 . S
C1734 C1735 1.387 . S
C1734 H1738 0.950 . S
C1734 C1743 1.390 . S
C1735 C1734 1.387 . S
C1735 C1737 1.387 . S
H1736 C1743 0.950 . S
C1737 C1735 1.387 . S
C1737 C1739 1.390 . S
C1737 H1741 0.950 . S
H1738 C1734 0.950 . S
C1739 C1737 1.390 . S
C1739 C1740 1.387 . S
C1739 H1742 0.950 . S
C1740 C1739 1.387 . S
C1740 C1743 1.387 . S
H1741 C1737 0.950 . S
H1742 C1739 0.950 . S
C1743 C1734 1.390 . S
C1743 H1736 0.950 . S
C1743 C1740 1.387 . S
C1744 C1745 1.387 . S
C1744 H1748 0.950 . S
C1744 C1753 1.390 . S
C1745 C1744 1.387 . S
C1745 C1747 1.387 . S
H1746 C1753 0.950 . S
C1747 C1745 1.387 . S
C1747 C1749 1.390 . S
C1747 H1751 0.950 . S
H1748 C1744 0.950 . S
C1749 C1747 1.390 . S
C1749 C1750 1.387 . S
C1749 H1752 0.950 . S
C1750 C1749 1.387 . S
C1750 C1753 1.387 . S
H1751 C1747 0.950 . S
H1752 C1749 0.950 . S
C1753 C1744 1.390 . S
C1753 H1746 0.950 . S
C1753 C1750 1.387 . S
C1754 C1755 1.387 . S
C1754 H1758 0.950 . S
C1754 C1763 1.390 . S
C1755 C1754 1.387 . S
C1755 C1757 1.387 . S
H1756 C1763 0.950 . S
C1757 C1755 1.387 . S
C1757 C1759 1.390 . S
C1757 H1761 0.950 . S
H1758 C1754 0.950 . S
C1759 C1757 1.390 . S
C1759 C1760 1.387 . S
C1759 H1762 0.950 . S
C1760 C1759 1.387 . S
C1760 C1763 1.387 . S
H1761 C1757 0.950 . S
H1762 C1759 0.950 . S
C1763 C1754 1.390 . S
C1763 H1756 0.950 . S
C1763 C1760 1.387 . S
C1764 C1765 1.387 . S
C1764 H1768 0.950 . S
C1764 C1773 1.390 . S
C1765 C1764 1.387 . S
C1765 C1767 1.387 . S
H1766 C1773 0.950 . S
C1767 C1765 1.387 . S
C1767 C1769 1.390 . S
C1767 H1771 0.950 . S
H1768 C1764 0.950 . S
C1769 C1767 1.390 . S
C1769 C1770 1.387 . S
C1769 H1772 0.950 . S
C1770 C1769 1.387 . S
C1770 C1773 1.387 . S
H1771 C1767 0.950 . S
H1772 C1769 0.950 . S
C1773 C1764 1.390 . S
C1773 H1766 0.950 . S
C1773 C1770 1.387 . S
C1774 C1775 1.387 . S
C1774 H1778 0.950 . S
C1774 C1783 1.390 . S
C1775 C1774 1.387 . S
C1775 C1777 1.387 . S
H1776 C1783 0.950 . S
C1777 C1775 1.387 . S
C1777 C1779 1.390 . S
C1777 H1781 0.950 . S
H1778 C1774 0.950 . S
C1779 C1777 1.390 . S
C1779 C1780 1.387 . S
C1779 H1782 0.950 . S
C1780 C1779 1.387 . S
C1780 C1783 1.387 . S
H1781 C1777 0.950 . S
H1782 C1779 0.950 . S
C1783 C1774 1.390 . S
C1783 H1776 0.950 . S
C1783 C1780 1.387 . S
C1784 C1785 1.387 . S
C1784 H1788 0.950 . S
C1784 C1793 1.390 . S
C1785 C1784 1.387 . S
C1785 C1787 1.387 . S
H1786 C1793 0.950 . S
C1787 C1785 1.387 . S
C1787 C1789 1.390 . S
C1787 H1791 0.950 . S
H1788 C1784 0.950 . S
C1789 C1787 1.390 . S
C1789 C1790 1.387 . S
C1789 H1792 0.950 . S
C1790 C1789 1.387 . S
C1790 C1793 1.387 . S
H1791 C1787 0.950 . S
H1792 C1789 0.950 . S
C1793 C1784 1.390 . S
C1793 H1786 0.950 . S
C1793 C1790 1.387 . S
C1794 C1795 1.387 . S
C1794 H1798 0.950 . S
C1794 C1803 1.390 . S
C1795 C1794 1.387 . S
C1795 C1797 1.387 . S
H1796 C1803 0.950 . S
C1797 C1795 1.387 . S
C1797 C1799 1.390 . S
C1797 H1801 0.950 . S
H1798 C1794 0.950 . S
C1799 C1797 1.390 . S
C1799 C1800 1.387 . S
C1799 H1802 0.950 . S
C1800 C1799 1.387 . S
C1800 C1803 1.387 . S
H1801 C1797 0.950 . S
H1802 C1799 0.950 . S
C1803 C1794 1.390 . S
C1803 H1796 0.950 . S
C1803 C1800 1.387 . S
C1804 C1805 1.387 . S
C1804 H1808 0.950 . S
C1804 C1813 1.390 . S
C1805 C1804 1.387 . S
C1805 C1807 1.387 . S
H1806 C1813 0.950 . S
C1807 C1805 1.387 . S
C1807 C1809 1.390 . S
C1807 H1811 0.950 . S
H1808 C1804 0.950 . S
C1809 C1807 1.390 . S
C1809 C1810 1.387 . S
C1809 H1812 0.950 . S
C1810 C1809 1.387 . S
C1810 C1813 1.387 . S
H1811 C1807 0.950 . S
H1812 C1809 0.950 . S
C1813 C1804 1.390 . S
C1813 H1806 0.950 . S
C1813 C1810 1.387 . S
C1814 C1815 1.387 . S
C1814 H1818 0.950 . S
C1814 C1823 1.390 . S
C1815 C1814 1.387 . S
C1815 C1817 1.387 . S
H1816 C1823 0.950 . S
C1817 C1815 1.387 . S
C1817 C1819 1.390 . S
C1817 H1821 0.950 . S
H1818 C1814 0.950 . S
C1819 C1817 1.390 . S
C1819 C1820 1.387 . S
C1819 H1822 0.950 . S
C1820 C1819 1.387 . S
C1820 C1823 1.387 . S
H1821 C1817 0.950 . S
H1822 C1819 0.950 . S
C1823 C1814 1.390 . S
C1823 H1816 0.950 . S
C1823 C1820 1.387 . S
C1824 C1825 1.387 . S
C1824 H1828 0.950 . S
C1824 C1833 1.390 . S
C1825 C1824 1.387 . S
C1825 C1827 1.387 . S
H1826 C1833 0.950 . S
C1827 C1825 1.387 . S
C1827 C1829 1.390 . S
C1827 H1831 0.950 . S
H1828 C1824 0.950 . S
C1829 C1827 1.390 . S
C1829 C1830 1.387 . S
C1829 H1832 0.950 . S
C1830 C1829 1.387 . S
C1830 C1833 1.387 . S
H1831 C1827 0.950 . S
H1832 C1829 0.950 . S
C1833 C1824 1.390 . S
C1833 H1826 0.950 . S
C1833 C1830 1.387 . S
C1834 C1835 1.387 . S
C1834 H1838 0.950 . S
C1834 C1843 1.390 . S
C1835 C1834 1.387 . S
C1835 C1837 1.387 . S
H1836 C1843 0.950 . S
C1837 C1835 1.387 . S
C1837 C1839 1.390 . S
C1837 H1841 0.950 . S
H1838 C1834 0.950 . S
C1839 C1837 1.390 . S
C1839 C1840 1.387 . S
C1839 H1842 0.950 . S
C1840 C1839 1.387 . S
C1840 C1843 1.387 . S
H1841 C1837 0.950 . S
H1842 C1839 0.950 . S
C1843 C1834 1.390 . S
C1843 H1836 0.950 . S
C1843 C1840 1.387 . S
C1844 C1845 1.387 . S
C1844 H1848 0.950 . S
C1844 C1853 1.390 . S
C1845 C1844 1.387 . S
C1845 C1847 1.387 . S
H1846 C1853 0.950 . S
C1847 C1845 1.387 . S
C1847 C1849 1.390 . S
C1847 H1851 0.950 . S
H1848 C1844 0.950 . S
C1849 C1847 1.390 . S
C1849 C1850 1.387 . S
C1849 H1852 0.950 . S
C1850 C1849 1.387 . S
C1850 C1853 1.387 . S
H1851 C1847 0.950 . S
H1852 C1849 0.950 . S
C1853 C1844 1.390 . S
C1853 H1846 0.950 . S
C1853 C1850 1.387 . S
C1854 C1855 1.387 . S
C1854 H1858 0.950 . S
C1854 C1863 1.390 . S
C1855 C1854 1.387 . S
C1855 C1857 1.387 . S
H1856 C1863 0.950 . S
C1857 C1855 1.387 . S
C1857 C1859 1.390 . S
C1857 H1861 0.950 . S
H1858 C1854 0.950 . S
C1859 C1857 1.390 . S
C1859 C1860 1.387 . S
C1859 H1862 0.950 . S
C1860 C1859 1.387 . S
C1860 C1863 1.387 . S
H1861 C1857 0.950 . S
H1862 C1859 0.950 . S
C1863 C1854 1.390 . S
C1863 H1856 0.950 . S
C1863 C1860 1.387 . S
C1864 C1865 1.387 . S
C1864 H1868 0.950 . S
C1864 C1873 1.390 . S
C1865 C1864 1.387 . S
C1865 C1867 1.387 . S
H1866 C1873 0.950 . S
C1867 C1865 1.387 . S
C1867 C1869 1.390 . S
C1867 H1871 0.950 . S
H1868 C1864 0.950 . S
C1869 C1867 1.390 . S
C1869 C1870 1.387 . S
C1869 H1872 0.950 . S
C1870 C1869 1.387 . S
C1870 C1873 1.387 . S
H1871 C1867 0.950 . S
H1872 C1869 0.950 . S
C1873 C1864 1.390 . S
C1873 H1866 0.950 . S
C1873 C1870 1.387 . S
C1874 C1875 1.387 . S
C1874 H1878 0.950 . S
C1874 C1883 1.390 . S
C1875 C1874 1.387 . S
C1875 C1877 1.387 . S
H1876 C1883 0.950 . S
C1877 C1875 1.387 . S
C1877 C1879 1.390 . S
C1877 H1881 0.950 . S
H1878 C1874 0.950 . S
C1879 C1877 1.390 . S
C1879 C1880 1.387 . S
C1879 H1882 0.950 . S
C1880 C1879 1.387 . S
C1880 C1883 1.387 . S
H1881 C1877 0.950 . S
H1882 C1879 0.950 . S
C1883 C1874 1.390 . S
C1883 H1876 0.950 . S
C1883 C1880 1.387 . S
C1884 C1885 1.387 . S
C1884 H1888 0.950 . S
C1884 C1893 1.390 . S
C1885 C1884 1.387 . S
C1885 C1887 1.387 . S
H1886 C1893 0.950 . S
C1887 C1885 1.387 . S
C1887 C1889 1.390 . S
C1887 H1891 0.950 . S
H1888 C1884 0.950 . S
C1889 C1887 1.390 . S
C1889 C1890 1.387 . S
C1889 H1892 0.950 . S
C1890 C1889 1.387 . S
C1890 C1893 1.387 . S
H1891 C1887 0.950 . S
H1892 C1889 0.950 . S
C1893 C1884 1.390 . S
C1893 H1886 0.950 . S
C1893 C1890 1.387 . S
C1894 C1895 1.387 . S
C1894 H1898 0.950 . S
C1894 C1903 1.390 . S
C1895 C1894 1.387 . S
C1895 C1897 1.387 . S
H1896 C1903 0.950 . S
C1897 C1895 1.387 . S
C1897 C1899 1.390 . S
C1897 H1901 0.950 . S
H1898 C1894 0.950 . S
C1899 C1897 1.390 . S
C1899 C1900 1.387 . S
C1899 H1902 0.950 . S
C1900 C1899 1.387 . S
C1900 C1903 1.387 . S
H1901 C1897 0.950 . S
H1902 C1899 0.950 . S
C1903 C1894 1.390 . S
C1903 H1896 0.950 . S
C1903 C1900 1.387 . S
C1904 C1905 1.387 . S
C1904 H1908 0.950 . S
C1904 C1913 1.390 . S
C1905 C1904 1.387 . S
C1905 C1907 1.387 . S
H1906 C1913 0.950 . S
C1907 C1905 1.387 . S
C1907 C1909 1.390 . S
C1907 H1911 0.950 . S
H1908 C1904 0.950 . S
C1909 C1907 1.390 . S
C1909 C1910 1.387 . S
C1909 H1912 0.950 . S
C1910 C1909 1.387 . S
C1910 C1913 1.387 . S
H1911 C1907 0.950 . S
H1912 C1909 0.950 . S
C1913 C1904 1.390 . S
C1913 H1906 0.950 . S
C1913 C1910 1.387 . S
C1914 C1915 1.387 . S
C1914 H1918 0.950 . S
C1914 C1923 1.390 . S
C1915 C1914 1.387 . S
C1915 C1917 1.387 . S
H1916 C1923 0.950 . S
C1917 C1915 1.387 . S
C1917 C1919 1.390 . S
C1917 H1921 0.950 . S
H1918 C1914 0.950 . S
C1919 C1917 1.390 . S
C1919 C1920 1.387 . S
C1919 H1922 0.950 . S
C1920 C1919 1.387 . S
C1920 C1923 1.387 . S
H1921 C1917 0.950 . S
H1922 C1919 0.950 . S
C1923 C1914 1.390 . S
C1923 H1916 0.950 . S
C1923 C1920 1.387 . S
C1924 C1925 1.387 . S
C1924 H1928 0.950 . S
C1924 C1933 1.390 . S
C1925 C1924 1.387 . S
C1925 C1927 1.387 . S
H1926 C1933 0.950 . S
C1927 C1925 1.387 . S
C1927 C1929 1.390 . S
C1927 H1931 0.950 . S
H1928 C1924 0.950 . S
C1929 C1927 1.390 . S
C1929 C1930 1.387 . S
C1929 H1932 0.950 . S
C1930 C1929 1.387 . S
C1930 C1933 1.387 . S
H1931 C1927 0.950 . S
H1932 C1929 0.950 . S
C1933 C1924 1.390 . S
C1933 H1926 0.950 . S
C1933 C1930 1.387 . S
C1934 C1935 1.387 . S
C1934 H1938 0.950 . S
C1934 C1943 1.390 . S
C1935 C1934 1.387 . S
C1935 C1937 1.387 . S
H1936 C1943 0.950 . S
C1937 C1935 1.387 . S
C1937 C1939 1.390 . S
C1937 H1941 0.950 . S
H1938 C1934 0.950 . S
C1939 C1937 1.390 . S
C1939 C1940 1.387 . S
C1939 H1942 0.950 . S
C1940 C1939 1.387 . S
C1940 C1943 1.387 . S
H1941 C1937 0.950 . S
H1942 C1939 0.950 . S
C1943 C1934 1.390 . S
C1943 H1936 0.950 . S
C1943 C1940 1.387 . S
C1944 C1945 1.387 . S
C1944 H1948 0.950 . S
C1944 C1953 1.390 . S
C1945 C1944 1.387 . S
C1945 C1947 1.387 . S
H1946 C1953 0.950 . S
C1947 C1945 1.387 . S
C1947 C1949 1.390 . S
C1947 H1951 0.950 . S
H1948 C1944 0.950 . S
C1949 C1947 1.390 . S
C1949 C1950 1.387 . S
C1949 H1952 0.950 . S
C1950 C1949 1.387 . S
C1950 C1953 1.387 . S
H1951 C1947 0.950 . S
H1952 C1949 0.950 . S
C1953 C1944 1.390 . S
C1953 H1946 0.950 . S
C1953 C1950 1.387 . S
C1954 C1955 1.387 . S
C1954 H1958 0.950 . S
C1954 C1963 1.390 . S
C1955 C1954 1.387 . S
C1955 C1957 1.387 . S
H1956 C1963 0.950 . S
C1957 C1955 1.387 . S
C1957 C1959 1.390 . S
C1957 H1961 0.950 . S
H1958 C1954 0.950 . S
C1959 C1957 1.390 . S
C1959 C1960 1.387 . S
C1959 H1962 0.950 . S
C1960 C1959 1.387 . S
C1960 C1963 1.387 . S
H1961 C1957 0.950 . S
H1962 C1959 0.950 . S
C1963 C1954 1.390 . S
C1963 H1956 0.950 . S
C1963 C1960 1.387 . S
C1964 C1965 1.387 . S
C1964 H1968 0.950 . S
C1964 C1973 1.390 . S
C1965 C1964 1.387 . S
C1965 C1967 1.387 . S
H1966 C1973 0.950 . S
C1967 C1965 1.387 . S
C1967 C1969 1.390 . S
C1967 H1971 0.950 . S
H1968 C1964 0.950 . S
C1969 C1967 1.390 . S
C1969 C1970 1.387 . S
C1969 H1972 0.950 . S
C1970 C1969 1.387 . S
C1970 C1973 1.387 . S
H1971 C1967 0.950 . S
H1972 C1969 0.950 . S
C1973 C1964 1.390 . S
C1973 H1966 0.950 . S
C1973 C1970 1.387 . S
C1974 C1975 1.387 . S
C1974 H1978 0.950 . S
C1974 C1983 1.390 . S
C1975 C1974 1.387 . S
C1975 C1977 1.387 . S
H1976 C1983 0.950 . S
C1977 C1975 1.387 . S
C1977 C1979 1.390 . S
C1977 H1981 0.950 . S
H1978 C1974 0.950 . S
C1979 C1977 1.390 . S
C1979 C1980 1.387 . S
C1979 H1982 0.950 . S
C1980 C1979 1.387 . S
C1980 C1983 1.387 . S
H1981 C1977 0.950 . S
H1982 C1979 0.950 . S
C1983 C1974 1.390 . S
C1983 H1976 0.950 . S
C1983 C1980 1.387 . S
C1984 C1985 1.387 . S
C1984 H1988 0.950 . S
C1984 C1993 1.390 . S
C1985 C1984 1.387 . S
C1985 C1987 1.387 . S
H1986 C1993 0.950 . S
C1987 C1985 1.387 . S
C1987 C1989 1.390 . S
C1987 H1991 0.950 . S
H1988 C1984 0.950 . S
C1989 C1987 1.390 . S
C1989 C1990 1.387 . S
C1989 H1992 0.950 . S
C1990 C1989 1.387 . S
C1990 C1993 1.387 . S
H1991 C1987 0.950 . S
H1992 C1989 0.950 . S
C1993 C1984 1.390 . S
C1993 H1986 0.950 . S
C1993 C1990 1.387 . S
C1994 C1995 1.387 . S
C1994 H1998 0.950 . S
C1994 C2003 1.390 . S
C1995 C1994 1.387 . S
C1995 C1997 1.387 . S
H1996 C2003 0.950 . S
C1997 C1995 1.387 . S
C1997 C1999 1.390 . S
C1997 H2001 0.950 . S
H1998 C1994 0.950 . S
C1999 C1997 1.390 . S
C1999 C2000 1.387 . S
C1999 H2002 0.950 . S
C2000 C1999 1.387 . S
C2000 C2003 1.387 . S
H2001 C1997 0.950 . S
H2002 C1999 0.950 . S
C2003 C1994 1.390 . S
C2003 H1996 0.950 . S
C2003 C2000 1.387 . S
C2004 C2005 1.387 . S
C2004 H2008 0.950 . S
C2004 C2013 1.390 . S
C2005 C2004 1.387 . S
C2005 C2007 1.387 . S
H2006 C2013 0.950 . S
C2007 C2005 1.387 . S
C2007 C2009 1.390 . S
C2007 H2011 0.950 . S
H2008 C2004 0.950 . S
C2009 C2007 1.390 . S
C2009 C2010 1.387 . S
C2009 H2012 0.950 . S
C2010 C2009 1.387 . S
C2010 C2013 1.387 . S
H2011 C2007 0.950 . S
H2012 C2009 0.950 . S
C2013 C2004 1.390 . S
C2013 H2006 0.950 . S
C2013 C2010 1.387 . S
C2014 C2015 1.387 . S
C2014 H2018 0.950 . S
C2014 C2023 1.390 . S
C2015 C2014 1.387 . S
C2015 C2017 1.387 . S
H2016 C2023 0.950 . S
C2017 C2015 1.387 . S
C2017 C2019 1.390 . S
C2017 H2021 0.950 . S
H2018 C2014 0.950 . S
C2019 C2017 1.390 . S
C2019 C2020 1.387 . S
C2019 H2022 0.950 . S
C2020 C2019 1.387 . S
C2020 C2023 1.387 . S
H2021 C2017 0.950 . S
H2022 C2019 0.950 . S
C2023 C2014 1.390 . S
C2023 H2016 0.950 . S
C2023 C2020 1.387 . S
C2024 C2025 1.387 . S
C2024 H2028 0.950 . S
C2024 C2033 1.390 . S
C2025 C2024 1.387 . S
C2025 C2027 1.387 . S
H2026 C2033 0.950 . S
C2027 C2025 1.387 . S
C2027 C2029 1.390 . S
C2027 H2031 0.950 . S
H2028 C2024 0.950 . S
C2029 C2027 1.390 . S
C2029 C2030 1.387 . S
C2029 H2032 0.950 . S
C2030 C2029 1.387 . S
C2030 C2033 1.387 . S
H2031 C2027 0.950 . S
H2032 C2029 0.950 . S
C2033 C2024 1.390 . S
C2033 H2026 0.950 . S
C2033 C2030 1.387 . S
C2034 C2035 1.387 . S
C2034 H2038 0.950 . S
C2034 C2043 1.390 . S
C2035 C2034 1.387 . S
C2035 C2037 1.387 . S
H2036 C2043 0.950 . S
C2037 C2035 1.387 . S
C2037 C2039 1.390 . S
C2037 H2041 0.950 . S
H2038 C2034 0.950 . S
C2039 C2037 1.390 . S
C2039 C2040 1.387 . S
C2039 H2042 0.950 . S
C2040 C2039 1.387 . S
C2040 C2043 1.387 . S
H2041 C2037 0.950 . S
H2042 C2039 0.950 . S
C2043 C2034 1.390 . S
C2043 H2036 0.950 . S
C2043 C2040 1.387 . S
C2044 C2045 1.387 . S
C2044 H2048 0.950 . S
C2044 C2053 1.390 . S
C2045 C2044 1.387 . S
C2045 C2047 1.387 . S
H2046 C2053 0.950 . S
C2047 C2045 1.387 . S
C2047 C2049 1.390 . S
C2047 H2051 0.950 . S
H2048 C2044 0.950 . S
C2049 C2047 1.390 . S
C2049 C2050 1.387 . S
C2049 H2052 0.950 . S
C2050 C2049 1.387 . S
C2050 C2053 1.387 . S
H2051 C2047 0.950 . S
H2052 C2049 0.950 . S
C2053 C2044 1.390 . S
C2053 H2046 0.950 . S
C2053 C2050 1.387 . S
C2054 C2055 1.387 . S
C2054 H2058 0.950 . S
C2054 C2063 1.390 . S
C2055 C2054 1.387 . S
C2055 C2057 1.387 . S
H2056 C2063 0.950 . S
C2057 C2055 1.387 . S
C2057 C2059 1.390 . S
C2057 H2061 0.950 . S
H2058 C2054 0.950 . S
C2059 C2057 1.390 . S
C2059 C2060 1.387 . S
C2059 H2062 0.950 . S
C2060 C2059 1.387 . S
C2060 C2063 1.387 . S
H2061 C2057 0.950 . S
H2062 C2059 0.950 . S
C2063 C2054 1.390 . S
C2063 H2056 0.950 . S
C2063 C2060 1.387 . S
C2064 C2065 1.387 . S
C2064 H2068 0.950 . S
C2064 C2073 1.390 . S
C2065 C2064 1.387 . S
C2065 C2067 1.387 . S
H2066 C2073 0.950 . S
C2067 C2065 1.387 . S
C2067 C2069 1.390 . S
C2067 H2071 0.950 . S
H2068 C2064 0.950 . S
C2069 C2067 1.390 . S
C2069 C2070 1.387 . S
C2069 H2072 0.950 . S
C2070 C2069 1.387 . S
C2070 C2073 1.387 . S
H2071 C2067 0.950 . S
H2072 C2069 0.950 . S
C2073 C2064 1.390 . S
C2073 H2066 0.950 . S
C2073 C2070 1.387 . S
C2074 C2075 1.387 . S
C2074 H2078 0.950 . S
C2074 C2083 1.390 . S
C2075 C2074 1.387 . S
C2075 C2077 1.387 . S
H2076 C2083 0.950 . S
C2077 C2075 1.387 . S
C2077 C2079 1.390 . S
C2077 H2081 0.950 . S
H2078 C2074 0.950 . S
C2079 C2077 1.390 . S
C2079 C2080 1.387 . S
C2079 H2082 0.950 . S
C2080 C2079 1.387 . S
C2080 C2083 1.387 . S
H2081 C2077 0.950 . S
H2082 C2079 0.950 . S
C2083 C2074 1.390 . S
C2083 H2076 0.950 . S
C2083 C2080 1.387 . S
C2084 C2085 1.387 . S
C2084 H2088 0.950 . S
C2084 C2093 1.390 . S
C2085 C2084 1.387 . S
C2085 C2087 1.387 . S
H2086 C2093 0.950 . S
C2087 C2085 1.387 . S
C2087 C2089 1.390 . S
C2087 H2091 0.950 . S
H2088 C2084 0.950 . S
C2089 C2087 1.390 . S
C2089 C2090 1.387 . S
C2089 H2092 0.950 . S
C2090 C2089 1.387 . S
C2090 C2093 1.387 . S
H2091 C2087 0.950 . S
H2092 C2089 0.950 . S
C2093 C2084 1.390 . S
C2093 H2086 0.950 . S
C2093 C2090 1.387 . S
C2094 C2095 1.387 . S
C2094 H2098 0.950 . S
C2094 C2103 1.390 . S
C2095 C2094 1.387 . S
C2095 C2097 1.387 . S
H2096 C2103 0.950 . S
C2097 C2095 1.387 . S
C2097 C2099 1.390 . S
C2097 H2101 0.950 . S
H2098 C2094 0.950 . S
C2099 C2097 1.390 . S
C2099 C2100 1.387 . S
C2099 H2102 0.950 . S
C2100 C2099 1.387 . S
C2100 C2103 1.387 . S
H2101 C2097 0.950 . S
H2102 C2099 0.950 . S
C2103 C2094 1.390 . S
C2103 H2096 0.950 . S
C2103 C2100 1.387 . S
C2104 C2105 1.387 . S
C2104 H2108 0.950 . S
C2104 C2113 1.390 . S
C2105 C2104 1.387 . S
C2105 C2107 1.387 . S
H2106 C2113 0.950 . S
C2107 C2105 1.387 . S
C2107 C2109 1.390 . S
C2107 H2111 0.950 . S
H2108 C2104 0.950 . S
C2109 C2107 1.390 . S
C2109 C2110 1.387 . S
C2109 H2112 0.950 . S
C2110 C2109 1.387 . S
C2110 C2113 1.387 . S
H2111 C2107 0.950 . S
H2112 C2109 0.950 . S
C2113 C2104 1.390 . S
C2113 H2106 0.950 . S
C2113 C2110 1.387 . S
C2114 C2115 1.387 . S
C2114 H2118 0.950 . S
C2114 C2123 1.390 . S
C2115 C2114 1.387 . S
C2115 C2117 1.387 . S
H2116 C2123 0.950 . S
C2117 C2115 1.387 . S
C2117 C2119 1.390 . S
C2117 H2121 0.950 . S
H2118 C2114 0.950 . S
C2119 C2117 1.390 . S
C2119 C2120 1.387 . S
C2119 H2122 0.950 . S
C2120 C2119 1.387 . S
C2120 C2123 1.387 . S
H2121 C2117 0.950 . S
H2122 C2119 0.950 . S
C2123 C2114 1.390 . S
C2123 H2116 0.950 . S
C2123 C2120 1.387 . S
C2124 C2125 1.387 . S
C2124 H2128 0.950 . S
C2124 C2133 1.390 . S
C2125 C2124 1.387 . S
C2125 C2127 1.387 . S
H2126 C2133 0.950 . S
C2127 C2125 1.387 . S
C2127 C2129 1.390 . S
C2127 H2131 0.950 . S
H2128 C2124 0.950 . S
C2129 C2127 1.390 . S
C2129 C2130 1.387 . S
C2129 H2132 0.950 . S
C2130 C2129 1.387 . S
C2130 C2133 1.387 . S
H2131 C2127 0.950 . S
H2132 C2129 0.950 . S
C2133 C2124 1.390 . S
C2133 H2126 0.950 . S
C2133 C2130 1.387 . S
C2134 C2135 1.387 . S
C2134 H2138 0.950 . S
C2134 C2143 1.390 . S
C2135 C2134 1.387 . S
C2135 C2137 1.387 . S
H2136 C2143 0.950 . S
C2137 C2135 1.387 . S
C2137 C2139 1.390 . S
C2137 H2141 0.950 . S
H2138 C2134 0.950 . S
C2139 C2137 1.390 . S
C2139 C2140 1.387 . S
C2139 H2142 0.950 . S
C2140 C2139 1.387 . S
C2140 C2143 1.387 . S
H2141 C2137 0.950 . S
H2142 C2139 0.950 . S
C2143 C2134 1.390 . S
C2143 H2136 0.950 . S
C2143 C2140 1.387 . S
C2144 C2145 1.387 . S
C2144 H2148 0.950 . S
C2144 C2153 1.390 . S
C2145 C2144 1.387 . S
C2145 C2147 1.387 . S
H2146 C2153 0.950 . S
C2147 C2145 1.387 . S
C2147 C2149 1.390 . S
C2147 H2151 0.950 . S
H2148 C2144 0.950 . S
C2149 C2147 1.390 . S
C2149 C2150 1.387 . S
C2149 H2152 0.950 . S
C2150 C2149 1.387 . S
C2150 C2153 1.387 . S
H2151 C2147 0.950 . S
H2152 C2149 0.950 . S
C2153 C2144 1.390 . S
C2153 H2146 0.950 . S
C2153 C2150 1.387 . S
C2154 C2155 1.387 . S
C2154 H2158 0.950 . S
C2154 C2163 1.390 . S
C2155 C2154 1.387 . S
C2155 C2157 1.387 . S
H2156 C2163 0.950 . S
C2157 C2155 1.387 . S
C2157 C2159 1.390 . S
C2157 H2161 0.950 . S
H2158 C2154 0.950 . S
C2159 C2157 1.390 . S
C2159 C2160 1.387 . S
C2159 H2162 0.950 . S
C2160 C2159 1.387 . S
C2160 C2163 1.387 . S
H2161 C2157 0.950 . S
H2162 C2159 0.950 . S
C2163 C2154 1.390 . S
C2163 H2156 0.950 . S
C2163 C2160 1.387 . S
C2164 C2165 1.387 . S
C2164 H2168 0.950 . S
C2164 C2173 1.390 . S
C2165 C2164 1.387 . S
C2165 C2167 1.387 . S
H2166 C2173 0.950 . S
C2167 C2165 1.387 . S
C2167 C2169 1.390 . S
C2167 H2171 0.950 . S
H2168 C2164 0.950 . S
C2169 C2167 1.390 . S
C2169 C2170 1.387 . S
C2169 H2172 0.950 . S
C2170 C2169 1.387 . S
C2170 C2173 1.387 . S
H2171 C2167 0.950 . S
H2172 C2169 0.950 . S
C2173 C2164 1.390 . S
C2173 H2166 0.950 . S
C2173 C2170 1.387 . S
C2174 C2175 1.387 . S
C2174 H2178 0.950 . S
C2174 C2183 1.390 . S
C2175 C2174 1.387 . S
C2175 C2177 1.387 . S
H2176 C2183 0.950 . S
C2177 C2175 1.387 . S
C2177 C2179 1.390 . S
C2177 H2181 0.950 . S
H2178 C2174 0.950 . S
C2179 C2177 1.390 . S
C2179 C2180 1.387 . S
C2179 H2182 0.950 . S
C2180 C2179 1.387 . S
C2180 C2183 1.387 . S
H2181 C2177 0.950 . S
H2182 C2179 0.950 . S
C2183 C2174 1.390 . S
C2183 H2176 0.950 . S
C2183 C2180 1.387 . S
C2184 C2185 1.387 . S
C2184 H2188 0.950 . S
C2184 C2193 1.390 . S
C2185 C2184 1.387 . S
C2185 C2187 1.387 . S
H2186 C2193 0.950 . S
C2187 C2185 1.387 . S
C2187 C2189 1.390 . S
C2187 H2191 0.950 . S
H2188 C2184 0.950 . S
C2189 C2187 1.390 . S
C2189 C2190 1.387 . S
C2189 H2192 0.950 . S
C2190 C2189 1.387 . S
C2190 C2193 1.387 . S
H2191 C2187 0.950 . S
H2192 C2189 0.950 . S
C2193 C2184 1.390 . S
C2193 H2186 0.950 . S
C2193 C2190 1.387 . S
C2194 C2195 1.387 . S
C2194 H2198 0.950 . S
C2194 C2203 1.390 . S
C2195 C2194 1.387 . S
C2195 C2197 1.387 . S
H2196 C2203 0.950 . S
C2197 C2195 1.387 . S
C2197 C2199 1.390 . S
C2197 H2201 0.950 . S
H2198 C2194 0.950 . S
C2199 C2197 1.390 . S
C2199 C2200 1.387 . S
C2199 H2202 0.950 . S
C2200 C2199 1.387 . S
C2200 C2203 1.387 . S
H2201 C2197 0.950 . S
H2202 C2199 0.950 . S
C2203 C2194 1.390 . S
C2203 H2196 0.950 . S
C2203 C2200 1.387 . S
C2204 C2205 1.387 . S
C2204 H2208 0.950 . S
C2204 C2213 1.390 . S
C2205 C2204 1.387 . S
C2205 C2207 1.387 . S
H2206 C2213 0.950 . S
C2207 C2205 1.387 . S
C2207 C2209 1.390 . S
C2207 H2211 0.950 . S
H2208 C2204 0.950 . S
C2209 C2207 1.390 . S
C2209 C2210 1.387 . S
C2209 H2212 0.950 . S
C2210 C2209 1.387 . S
C2210 C2213 1.387 . S
H2211 C2207 0.950 . S
H2212 C2209 0.950 . S
C2213 C2204 1.390 . S
C2213 H2206 0.950 . S
C2213 C2210 1.387 . S
C2214 C2215 1.387 . S
C2214 H2218 0.950 . S
C2214 C2223 1.390 . S
C2215 C2214 1.387 . S
C2215 C2217 1.387 . S
H2216 C2223 0.950 . S
C2217 C2215 1.387 . S
C2217 C2219 1.390 . S
C2217 H2221 0.950 . S
H2218 C2214 0.950 . S
C2219 C2217 1.390 . S
C2219 C2220 1.387 . S
C2219 H2222 0.950 . S
C2220 C2219 1.387 . S
C2220 C2223 1.387 . S
H2221 C2217 0.950 . S
H2222 C2219 0.950 . S
C2223 C2214 1.390 . S
C2223 H2216 0.950 . S
C2223 C2220 1.387 . S
C2224 C2225 1.387 . S
C2224 H2228 0.950 . S
C2224 C2233 1.390 . S
C2225 C2224 1.387 . S
C2225 C2227 1.387 . S
H2226 C2233 0.950 . S
C2227 C2225 1.387 . S
C2227 C2229 1.390 . S
C2227 H2231 0.950 . S
H2228 C2224 0.950 . S
C2229 C2227 1.390 . S
C2229 C2230 1.387 . S
C2229 H2232 0.950 . S
C2230 C2229 1.387 . S
C2230 C2233 1.387 . S
H2231 C2227 0.950 . S
H2232 C2229 0.950 . S
C2233 C2224 1.390 . S
C2233 H2226 0.950 . S
C2233 C2230 1.387 . S
C2234 C2235 1.387 . S
C2234 H2238 0.950 . S
C2234 C2243 1.390 . S
C2235 C2234 1.387 . S
C2235 C2237 1.387 . S
H2236 C2243 0.950 . S
C2237 C2235 1.387 . S
C2237 C2239 1.390 . S
C2237 H2241 0.950 . S
H2238 C2234 0.950 . S
C2239 C2237 1.390 . S
C2239 C2240 1.387 . S
C2239 H2242 0.950 . S
C2240 C2239 1.387 . S
C2240 C2243 1.387 . S
H2241 C2237 0.950 . S
H2242 C2239 0.950 . S
C2243 C2234 1.390 . S
C2243 H2236 0.950 . S
C2243 C2240 1.387 . S
C2244 C2245 1.387 . S
C2244 H2248 0.950 . S
C2244 C2253 1.390 . S
C2245 C2244 1.387 . S
C2245 C2247 1.387 . S
H2246 C2253 0.950 . S
C2247 C2245 1.387 . S
C2247 C2249 1.390 . S
C2247 H2251 0.950 . S
H2248 C2244 0.950 . S
C2249 C2247 1.390 . S
C2249 C2250 1.387 . S
C2249 H2252 0.950 . S
C2250 C2249 1.387 . S
C2250 C2253 1.387 . S
H2251 C2247 0.950 . S
H2252 C2249 0.950 . S
C2253 C2244 1.390 . S
C2253 H2246 0.950 . S
C2253 C2250 1.387 . S
C2254 C2255 1.387 . S
C2254 H2258 0.950 . S
C2254 C2263 1.390 . S
C2255 C2254 1.387 . S
C2255 C2257 1.387 . S
H2256 C2263 0.950 . S
C2257 C2255 1.387 . S
C2257 C2259 1.390 . S
C2257 H2261 0.950 . S
H2258 C2254 0.950 . S
C2259 C2257 1.390 . S
C2259 C2260 1.387 . S
C2259 H2262 0.950 . S
C2260 C2259 1.387 . S
C2260 C2263 1.387 . S
H2261 C2257 0.950 . S
H2262 C2259 0.950 . S
C2263 C2254 1.390 . S
C2263 H2256 0.950 . S
C2263 C2260 1.387 . S
C2264 C2265 1.387 . S
C2264 H2268 0.950 . S
C2264 C2273 1.390 . S
C2265 C2264 1.387 . S
C2265 C2267 1.387 . S
H2266 C2273 0.950 . S
C2267 C2265 1.387 . S
C2267 C2269 1.390 . S
C2267 H2271 0.950 . S
H2268 C2264 0.950 . S
C2269 C2267 1.390 . S
C2269 C2270 1.387 . S
C2269 H2272 0.950 . S
C2270 C2269 1.387 . S
C2270 C2273 1.387 . S
H2271 C2267 0.950 . S
H2272 C2269 0.950 . S
C2273 C2264 1.390 . S
C2273 H2266 0.950 . S
C2273 C2270 1.387 . S
C2274 C2275 1.387 . S
C2274 H2278 0.950 . S
C2274 C2283 1.390 . S
C2275 C2274 1.387 . S
C2275 C2277 1.387 . S
H2276 C2283 0.950 . S
C2277 C2275 1.387 . S
C2277 C2279 1.390 . S
C2277 H2281 0.950 . S
H2278 C2274 0.950 . S
C2279 C2277 1.390 . S
C2279 C2280 1.387 . S
C2279 H2282 0.950 . S
C2280 C2279 1.387 . S
C2280 C2283 1.387 . S
H2281 C2277 0.950 . S
H2282 C2279 0.950 . S
C2283 C2274 1.390 . S
C2283 H2276 0.950 . S
C2283 C2280 1.387 . S
C2284 C2285 1.387 . S
C2284 H2288 0.950 . S
C2284 C2293 1.390 . S
C2285 C2284 1.387 . S
C2285 C2287 1.387 . S
H2286 C2293 0.950 . S
C2287 C2285 1.387 . S
C2287 C2289 1.390 . S
C2287 H2291 0.950 . S
H2288 C2284 0.950 . S
C2289 C2287 1.390 . S
C2289 C2290 1.387 . S
C2289 H2292 0.950 . S
C2290 C2289 1.387 . S
C2290 C2293 1.387 . S
H2291 C2287 0.950 . S
H2292 C2289 0.950 . S
C2293 C2284 1.390 . S
C2293 H2286 0.950 . S
C2293 C2290 1.387 . S
C2294 C2295 1.387 . S
C2294 H2298 0.950 . S
C2294 C2303 1.390 . S
C2295 C2294 1.387 . S
C2295 C2297 1.387 . S
H2296 C2303 0.950 . S
C2297 C2295 1.387 . S
C2297 C2299 1.390 . S
C2297 H2301 0.950 . S
H2298 C2294 0.950 . S
C2299 C2297 1.390 . S
C2299 C2300 1.387 . S
C2299 H2302 0.950 . S
C2300 C2299 1.387 . S
C2300 C2303 1.387 . S
H2301 C2297 0.950 . S
H2302 C2299 0.950 . S
C2303 C2294 1.390 . S
C2303 H2296 0.950 . S
C2303 C2300 1.387 . S
C2304 C2305 1.387 . S
C2304 H2308 0.950 . S
C2304 C2313 1.390 . S
C2305 C2304 1.387 . S
C2305 C2307 1.387 . S
H2306 C2313 0.950 . S
C2307 C2305 1.387 . S
C2307 C2309 1.390 . S
C2307 H2311 0.950 . S
H2308 C2304 0.950 . S
C2309 C2307 1.390 . S
C2309 C2310 1.387 . S
C2309 H2312 0.950 . S
C2310 C2309 1.387 . S
C2310 C2313 1.387 . S
H2311 C2307 0.950 . S
H2312 C2309 0.950 . S
C2313 C2304 1.390 . S
C2313 H2306 0.950 . S
C2313 C2310 1.387 . S
C2314 C2315 1.387 . S
C2314 H2318 0.950 . S
C2314 C2323 1.390 . S
C2315 C2314 1.387 . S
C2315 C2317 1.387 . S
H2316 C2323 0.950 . S
C2317 C2315 1.387 . S
C2317 C2319 1.390 . S
C2317 H2321 0.950 . S
H2318 C2314 0.950 . S
C2319 C2317 1.390 . S
C2319 C2320 1.387 . S
C2319 H2322 0.950 . S
C2320 C2319 1.387 . S
C2320 C2323 1.387 . S
H2321 C2317 0.950 . S
H2322 C2319 0.950 . S
C2323 C2314 1.390 . S
C2323 H2316 0.950 . S
C2323 C2320 1.387 . S
C2324 C2325 1.387 . S
C2324 H2328 0.950 . S
C2324 C2333 1.390 . S
C2325 C2324 1.387 . S
C2325 C2327 1.387 . S
H2326 C2333 0.950 . S
C2327 C2325 1.387 . S
C2327 C2329 1.390 . S
C2327 H2331 0.950 . S
H2328 C2324 0.950 . S
C2329 C2327 1.390 . S
C2329 C2330 1.387 . S
C2329 H2332 0.950 . S
C2330 C2329 1.387 . S
C2330 C2333 1.387 . S
H2331 C2327 0.950 . S
H2332 C2329 0.950 . S
C2333 C2324 1.390 . S
C2333 H2326 0.950 . S
C2333 C2330 1.387 . S
C2334 C2335 1.387 . S
C2334 H2338 0.950 . S
C2334 C2343 1.390 . S
C2335 C2334 1.387 . S
C2335 C2337 1.387 . S
H2336 C2343 0.950 . S
C2337 C2335 1.387 . S
C2337 C2339 1.390 . S
C2337 H2341 0.950 . S
H2338 C2334 0.950 . S
C2339 C2337 1.390 . S
C2339 C2340 1.387 . S
C2339 H2342 0.950 . S
C2340 C2339 1.387 . S
C2340 C2343 1.387 . S
H2341 C2337 0.950 . S
H2342 C2339 0.950 . S
C2343 C2334 1.390 . S
C2343 H2336 0.950 . S
C2343 C2340 1.387 . S
C2344 C2345 1.387 . S
C2344 H2348 0.950 . S
C2344 C2353 1.390 . S
C2345 C2344 1.387 . S
C2345 C2347 1.387 . S
H2346 C2353 0.950 . S
C2347 C2345 1.387 . S
C2347 C2349 1.390 . S
C2347 H2351 0.950 . S
H2348 C2344 0.950 . S
C2349 C2347 1.390 . S
C2349 C2350 1.387 . S
C2349 H2352 0.950 . S
C2350 C2349 1.387 . S
C2350 C2353 1.387 . S
H2351 C2347 0.950 . S
H2352 C2349 0.950 . S
C2353 C2344 1.390 . S
C2353 H2346 0.950 . S
C2353 C2350 1.387 . S
C2354 C2355 1.387 . S
C2354 H2358 0.950 . S
C2354 C2363 1.390 . S
C2355 C2354 1.387 . S
C2355 C2357 1.387 . S
H2356 C2363 0.950 . S
C2357 C2355 1.387 . S
C2357 C2359 1.390 . S
C2357 H2361 0.950 . S
H2358 C2354 0.950 . S
C2359 C2357 1.390 . S
C2359 C2360 1.387 . S
C2359 H2362 0.950 . S
C2360 C2359 1.387 . S
C2360 C2363 1.387 . S
H2361 C2357 0.950 . S
H2362 C2359 0.950 . S
C2363 C2354 1.390 . S
C2363 H2356 0.950 . S
C2363 C2360 1.387 . S
C2364 C2365 1.387 . S
C2364 H2368 0.950 . S
C2364 C2373 1.390 . S
C2365 C2364 1.387 . S
C2365 C2367 1.387 . S
H2366 C2373 0.950 . S
C2367 C2365 1.387 . S
C2367 C2369 1.390 . S
C2367 H2371 0.950 . S
H2368 C2364 0.950 . S
C2369 C2367 1.390 . S
C2369 C2370 1.387 . S
C2369 H2372 0.950 . S
C2370 C2369 1.387 . S
C2370 C2373 1.387 . S
H2371 C2367 0.950 . S
H2372 C2369 0.950 . S
C2373 C2364 1.390 . S
C2373 H2366 0.950 . S
C2373 C2370 1.387 . S
C2374 C2375 1.387 . S
C2374 H2378 0.950 . S
C2374 C2383 1.390 . S
C2375 C2374 1.387 . S
C2375 C2377 1.387 . S
H2376 C2383 0.950 . S
C2377 C2375 1.387 . S
C2377 C2379 1.390 . S
C2377 H2381 0.950 . S
H2378 C2374 0.950 . S
C2379 C2377 1.390 . S
C2379 C2380 1.387 . S
C2379 H2382 0.950 . S
C2380 C2379 1.387 . S
C2380 C2383 1.387 . S
H2381 C2377 0.950 . S
H2382 C2379 0.950 . S
C2383 C2374 1.390 . S
C2383 H2376 0.950 . S
C2383 C2380 1.387 . S
C2384 C2385 1.387 . S
C2384 H2388 0.950 . S
C2384 C2393 1.390 . S
C2385 C2384 1.387 . S
C2385 C2387 1.387 . S
H2386 C2393 0.950 . S
C2387 C2385 1.387 . S
C2387 C2389 1.390 . S
C2387 H2391 0.950 . S
H2388 C2384 0.950 . S
C2389 C2387 1.390 . S
C2389 C2390 1.387 . S
C2389 H2392 0.950 . S
C2390 C2389 1.387 . S
C2390 C2393 1.387 . S
H2391 C2387 0.950 . S
H2392 C2389 0.950 . S
C2393 C2384 1.390 . S
C2393 H2386 0.950 . S
C2393 C2390 1.387 . S
C2394 C2395 1.387 . S
C2394 H2398 0.950 . S
C2394 C2403 1.390 . S
C2395 C2394 1.387 . S
C2395 C2397 1.387 . S
H2396 C2403 0.950 . S
C2397 C2395 1.387 . S
C2397 C2399 1.390 . S
C2397 H2401 0.950 . S
H2398 C2394 0.950 . S
C2399 C2397 1.390 . S
C2399 C2400 1.387 . S
C2399 H2402 0.950 . S
C2400 C2399 1.387 . S
C2400 C2403 1.387 . S
H2401 C2397 0.950 . S
H2402 C2399 0.950 . S
C2403 C2394 1.390 . S
C2403 H2396 0.950 . S
C2403 C2400 1.387 . S
C2404 C2405 1.387 . S
C2404 H2408 0.950 . S
C2404 C2413 1.390 . S
C2405 C2404 1.387 . S
C2405 C2407 1.387 . S
H2406 C2413 0.950 . S
C2407 C2405 1.387 . S
C2407 C2409 1.390 . S
C2407 H2411 0.950 . S
H2408 C2404 0.950 . S
C2409 C2407 1.390 . S
C2409 C2410 1.387 . S
C2409 H2412 0.950 . S
C2410 C2409 1.387 . S
C2410 C2413 1.387 . S
H2411 C2407 0.950 . S
H2412 C2409 0.950 . S
C2413 C2404 1.390 . S
C2413 H2406 0.950 . S
C2413 C2410 1.387 . S
C2414 C2415 1.387 . S
C2414 H2418 0.950 . S
C2414 C2423 1.390 . S
C2415 C2414 1.387 . S
C2415 C2417 1.387 . S
H2416 C2423 0.950 . S
C2417 C2415 1.387 . S
C2417 C2419 1.390 . S
C2417 H2421 0.950 . S
H2418 C2414 0.950 . S
C2419 C2417 1.390 . S
C2419 C2420 1.387 . S
C2419 H2422 0.950 . S
C2420 C2419 1.387 . S
C2420 C2423 1.387 . S
H2421 C2417 0.950 . S
H2422 C2419 0.950 . S
C2423 C2414 1.390 . S
C2423 H2416 0.950 . S
C2423 C2420 1.387 . S
C2424 C2425 1.387 . S
C2424 H2428 0.950 . S
C2424 C2433 1.390 . S
C2425 C2424 1.387 . S
C2425 C2427 1.387 . S
H2426 C2433 0.950 . S
C2427 C2425 1.387 . S
C2427 C2429 1.390 . S
C2427 H2431 0.950 . S
H2428 C2424 0.950 . S
C2429 C2427 1.390 . S
C2429 C2430 1.387 . S
C2429 H2432 0.950 . S
C2430 C2429 1.387 . S
C2430 C2433 1.387 . S
H2431 C2427 0.950 . S
H2432 C2429 0.950 . S
C2433 C2424 1.390 . S
C2433 H2426 0.950 . S
C2433 C2430 1.387 . S
C2434 C2435 1.387 . S
C2434 H2438 0.950 . S
C2434 C2443 1.390 . S
C2435 C2434 1.387 . S
C2435 C2437 1.387 . S
H2436 C2443 0.950 . S
C2437 C2435 1.387 . S
C2437 C2439 1.390 . S
C2437 H2441 0.950 . S
H2438 C2434 0.950 . S
C2439 C2437 1.390 . S
C2439 C2440 1.387 . S
C2439 H2442 0.950 . S
C2440 C2439 1.387 . S
C2440 C2443 1.387 . S
H2441 C2437 0.950 . S
H2442 C2439 0.950 . S
C2443 C2434 1.390 . S
C2443 H2436 0.950 . S
C2443 C2440 1.387 . S
C2444 C2445 1.387 . S
C2444 H2448 0.950 . S
C2444 C2453 1.390 . S
C2445 C2444 1.387 . S
C2445 C2447 1.387 . S
H2446 C2453 0.950 . S
C2447 C2445 1.387 . S
C2447 C2449 1.390 . S
C2447 H2451 0.950 . S
H2448 C2444 0.950 . S
C2449 C2447 1.390 . S
C2449 C2450 1.387 . S
C2449 H2452 0.950 . S
C2450 C2449 1.387 . S
C2450 C2453 1.387 . S
H2451 C2447 0.950 . S
H2452 C2449 0.950 . S
C2453 C2444 1.390 . S
C2453 H2446 0.950 . S
C2453 C2450 1.387 . S
C2454 C2455 1.387 . S
C2454 H2458 0.950 . S
C2454 C2463 1.390 . S
C2455 C2454 1.387 . S
C2455 C2457 1.387 . S
H2456 C2463 0.950 . S
C2457 C2455 1.387 . S
C2457 C2459 1.390 . S
C2457 H2461 0.950 . S
H2458 C2454 0.950 . S
C2459 C2457 1.390 . S
C2459 C2460 1.387 . S
C2459 H2462 0.950 . S
C2460 C2459 1.387 . S
C2460 C2463 1.387 . S
H2461 C2457 0.950 . S
H2462 C2459 0.950 . S
C2463 C2454 1.390 . S
C2463 H2456 0.950 . S
C2463 C2460 1.387 . S
C2464 C2465 1.387 . S
C2464 H2468 0.950 . S
C2464 C2473 1.390 . S
C2465 C2464 1.387 . S
C2465 C2467 1.387 . S
H2466 C2473 0.950 . S
C2467 C2465 1.387 . S
C2467 C2469 1.390 . S
C2467 H2471 0.950 . S
H2468 C2464 0.950 . S
C2469 C2467 1.390 . S
C2469 C2470 1.387 . S
C2469 H2472 0.950 . S
C2470 C2469 1.387 . S
C2470 C2473 1.387 . S
H2471 C2467 0.950 . S
H2472 C2469 0.950 . S
C2473 C2464 1.390 . S
C2473 H2466 0.950 . S
C2473 C2470 1.387 . S
C2474 C2475 1.387 . S
C2474 H2478 0.950 . S
C2474 C2483 1.390 . S
C2475 C2474 1.387 . S
C2475 C2477 1.387 . S
H2476 C2483 0.950 . S
C2477 C2475 1.387 . S
C2477 C2479 1.390 . S
C2477 H2481 0.950 . S
H2478 C2474 0.950 . S
C2479 C2477 1.390 . S
C2479 C2480 1.387 . S
C2479 H2482 0.950 . S
C2480 C2479 1.387 . S
C2480 C2483 1.387 . S
H2481 C2477 0.950 . S
H2482 C2479 0.950 . S
C2483 C2474 1.390 . S
C2483 H2476 0.950 . S
C2483 C2480 1.387 . S
C2484 C2485 1.387 . S
C2484 H2488 0.950 . S
C2484 C2493 1.390 . S
C2485 C2484 1.387 . S
C2485 C2487 1.387 . S
H2486 C2493 0.950 . S
C2487 C2485 1.387 . S
C2487 C2489 1.390 . S
C2487 H2491 0.950 . S
H2488 C2484 0.950 . S
C2489 C2487 1.390 . S
C2489 C2490 1.387 . S
C2489 H2492 0.950 . S
C2490 C2489 1.387 . S
C2490 C2493 1.387 . S
H2491 C2487 0.950 . S
H2492 C2489 0.950 . S
C2493 C2484 1.390 . S
C2493 H2486 0.950 . S
C2493 C2490 1.387 . S
C2494 C2495 1.387 . S
C2494 H2498 0.950 . S
C2494 C2503 1.390 . S
C2495 C2494 1.387 . S
C2495 C2497 1.387 . S
H2496 C2503 0.950 . S
C2497 C2495 1.387 . S
C2497 C2499 1.390 . S
C2497 H2501 0.950 . S
H2498 C2494 0.950 . S
C2499 C2497 1.390 . S
C2499 C2500 1.387 . S
C2499 H2502 0.950 . S
C2500 C2499 1.387 . S
C2500 C2503 1.387 . S
H2501 C2497 0.950 . S
H2502 C2499 0.950 . S
C2503 C2494 1.390 . S
C2503 H2496 0.950 . S
C2503 C2500 1.387 . S
C2504 C2505 1.387 . S
C2504 H2508 0.950 . S
C2504 C2513 1.390 . S
C2505 C2504 1.387 . S
C2505 C2507 1.387 . S
H2506 C2513 0.950 . S
C2507 C2505 1.387 . S
C2507 C2509 1.390 . S
C2507 H2511 0.950 . S
H2508 C2504 0.950 . S
C2509 C2507 1.390 . S
C2509 C2510 1.387 . S
C2509 H2512 0.950 . S
C2510 C2509 1.387 . S
C2510 C2513 1.387 . S
H2511 C2507 0.950 . S
H2512 C2509 0.950 . S
C2513 C2504 1.390 . S
C2513 H2506 0.950 . S
C2513 C2510 1.387 . S
C2514 C2515 1.387 . S
C2514 H2518 0.950 . S
C2514 C2523 1.390 . S
C2515 C2514 1.387 . S
C2515 C2517 1.387 . S
H2516 C2523 0.950 . S
C2517 C2515 1.387 . S
C2517 C2519 1.390 . S
C2517 H2521 0.950 . S
H2518 C2514 0.950 . S
C2519 C2517 1.390 . S
C2519 C2520 1.387 . S
C2519 H2522 0.950 . S
C2520 C2519 1.387 . S
C2520 C2523 1.387 . S
H2521 C2517 0.950 . S
H2522 C2519 0.950 . S
C2523 C2514 1.390 . S
C2523 H2516 0.950 . S
C2523 C2520 1.387 . S
C2524 C2525 1.387 . S
C2524 H2528 0.950 . S
C2524 C2533 1.390 . S
C2525 C2524 1.387 . S
C2525 C2527 1.387 . S
H2526 C2533 0.950 . S
C2527 C2525 1.387 . S
C2527 C2529 1.390 . S
C2527 H2531 0.950 . S
H2528 C2524 0.950 . S
C2529 C2527 1.390 . S
C2529 C2530 1.387 . S
C2529 H2532 0.950 . S
C2530 C2529 1.387 . S
C2530 C2533 1.387 . S
H2531 C2527 0.950 . S
H2532 C2529 0.950 . S
C2533 C2524 1.390 . S
C2533 H2526 0.950 . S
C2533 C2530 1.387 . S
C2534 C2535 1.387 . S
C2534 H2538 0.950 . S
C2534 C2543 1.390 . S
C2535 C2534 1.387 . S
C2535 C2537 1.387 . S
H2536 C2543 0.950 . S
C2537 C2535 1.387 . S
C2537 C2539 1.390 . S
C2537 H2541 0.950 . S
H2538 C2534 0.950 . S
C2539 C2537 1.390 . S
C2539 C2540 1.387 . S
C2539 H2542 0.950 . S
C2540 C2539 1.387 . S
C2540 C2543 1.387 . S
H2541 C2537 0.950 . S
H2542 C2539 0.950 . S
C2543 C2534 1.390 . S
C2543 H2536 0.950 . S
C2543 C2540 1.387 . S
C2544 C2545 1.387 . S
C2544 H2548 0.950 . S
C2544 C2553 1.390 . S
C2545 C2544 1.387 . S
C2545 C2547 1.387 . S
H2546 C2553 0.950 . S
C2547 C2545 1.387 . S
C2547 C2549 1.390 . S
C2547 H2551 0.950 . S
H2548 C2544 0.950 . S
C2549 C2547 1.390 . S
C2549 C2550 1.387 . S
C2549 H2552 0.950 . S
C2550 C2549 1.387 . S
C2550 C2553 1.387 . S
H2551 C2547 0.950 . S
H2552 C2549 0.950 . S
C2553 C2544 1.390 . S
C2553 H2546 0.950 . S
C2553 C2550 1.387 . S
C2554 C2555 1.387 . S
C2554 H2558 0.950 . S
C2554 C2563 1.390 . S
C2555 C2554 1.387 . S
C2555 C2557 1.387 . S
H2556 C2563 0.950 . S
C2557 C2555 1.387 . S
C2557 C2559 1.390 . S
C2557 H2561 0.950 . S
H2558 C2554 0.950 . S
C2559 C2557 1.390 . S
C2559 C2560 1.387 . S
C2559 H2562 0.950 . S
C2560 C2559 1.387 . S
C2560 C2563 1.387 . S
H2561 C2557 0.950 . S
H2562 C2559 0.950 . S
C2563 C2554 1.390 . S
C2563 H2556 0.950 . S
C2563 C2560 1.387 . S
C2564 C2565 1.387 . S
C2564 H2568 0.950 . S
C2564 C2573 1.390 . S
C2565 C2564 1.387 . S
C2565 C2567 1.387 . S
H2566 C2573 0.950 . S
C2567 C2565 1.387 . S
C2567 C2569 1.390 . S
C2567 H2571 0.950 . S
H2568 C2564 0.950 . S
C2569 C2567 1.390 . S
C2569 C2570 1.387 . S
C2569 H2572 0.950 . S
C2570 C2569 1.387 . S
C2570 C2573 1.387 . S
H2571 C2567 0.950 . S
H2572 C2569 0.950 . S
C2573 C2564 1.390 . S
C2573 H2566 0.950 . S
C2573 C2570 1.387 . S
C2574 C2575 1.387 . S
C2574 H2578 0.950 . S
C2574 C2583 1.390 . S
C2575 C2574 1.387 . S
C2575 C2577 1.387 . S
H2576 C2583 0.950 . S
C2577 C2575 1.387 . S
C2577 C2579 1.390 . S
C2577 H2581 0.950 . S
H2578 C2574 0.950 . S
C2579 C2577 1.390 . S
C2579 C2580 1.387 . S
C2579 H2582 0.950 . S
C2580 C2579 1.387 . S
C2580 C2583 1.387 . S
H2581 C2577 0.950 . S
H2582 C2579 0.950 . S
C2583 C2574 1.390 . S
C2583 H2576 0.950 . S
C2583 C2580 1.387 . S
C2584 C2585 1.387 . S
C2584 H2588 0.950 . S
C2584 C2593 1.390 . S
C2585 C2584 1.387 . S
C2585 C2587 1.387 . S
H2586 C2593 0.950 . S
C2587 C2585 1.387 . S
C2587 C2589 1.390 . S
C2587 H2591 0.950 . S
H2588 C2584 0.950 . S
C2589 C2587 1.390 . S
C2589 C2590 1.387 . S
C2589 H2592 0.950 . S
C2590 C2589 1.387 . S
C2590 C2593 1.387 . S
H2591 C2587 0.950 . S
H2592 C2589 0.950 . S
C2593 C2584 1.390 . S
C2593 H2586 0.950 . S
C2593 C2590 1.387 . S
C2594 C2595 1.387 . S
C2594 H2598 0.950 . S
C2594 C2603 1.390 . S
C2595 C2594 1.387 . S
C2595 C2597 1.387 . S
H2596 C2603 0.950 . S
C2597 C2595 1.387 . S
C2597 C2599 1.390 . S
C2597 H2601 0.950 . S
H2598 C2594 0.950 . S
C2599 C2597 1.390 . S
C2599 C2600 1.387 . S
C2599 H2602 0.950 . S
C2600 C2599 1.387 . S
C2600 C2603 1.387 . S
H2601 C2597 0.950 . S
H2602 C2599 0.950 . S
C2603 C2594 1.390 . S
C2603 H2596 0.950 . S
C2603 C2600 1.387 . S
C2604 C2605 1.387 . S
C2604 H2608 0.950 . S
C2604 C2613 1.390 . S
C2605 C2604 1.387 . S
C2605 C2607 1.387 . S
H2606 C2613 0.950 . S
C2607 C2605 1.387 . S
C2607 C2609 1.390 . S
C2607 H2611 0.950 . S
H2608 C2604 0.950 . S
C2609 C2607 1.390 . S
C2609 C2610 1.387 . S
C2609 H2612 0.950 . S
C2610 C2609 1.387 . S
C2610 C2613 1.387 . S
H2611 C2607 0.950 . S
H2612 C2609 0.950 . S
C2613 C2604 1.390 . S
C2613 H2606 0.950 . S
C2613 C2610 1.387 . S
C2614 C2615 1.387 . S
C2614 H2618 0.950 . S
C2614 C2623 1.390 . S
C2615 C2614 1.387 . S
C2615 C2617 1.387 . S
H2616 C2623 0.950 . S
C2617 C2615 1.387 . S
C2617 C2619 1.390 . S
C2617 H2621 0.950 . S
H2618 C2614 0.950 . S
C2619 C2617 1.390 . S
C2619 C2620 1.387 . S
C2619 H2622 0.950 . S
C2620 C2619 1.387 . S
C2620 C2623 1.387 . S
H2621 C2617 0.950 . S
H2622 C2619 0.950 . S
C2623 C2614 1.390 . S
C2623 H2616 0.950 . S
C2623 C2620 1.387 . S
C2624 C2625 1.387 . S
C2624 H2628 0.950 . S
C2624 C2633 1.390 . S
C2625 C2624 1.387 . S
C2625 C2627 1.387 . S
H2626 C2633 0.950 . S
C2627 C2625 1.387 . S
C2627 C2629 1.390 . S
C2627 H2631 0.950 . S
H2628 C2624 0.950 . S
C2629 C2627 1.390 . S
C2629 C2630 1.387 . S
C2629 H2632 0.950 . S
C2630 C2629 1.387 . S
C2630 C2633 1.387 . S
H2631 C2627 0.950 . S
H2632 C2629 0.950 . S
C2633 C2624 1.390 . S
C2633 H2626 0.950 . S
C2633 C2630 1.387 . S
C2634 C2635 1.387 . S
C2634 H2638 0.950 . S
C2634 C2643 1.390 . S
C2635 C2634 1.387 . S
C2635 C2637 1.387 . S
H2636 C2643 0.950 . S
C2637 C2635 1.387 . S
C2637 C2639 1.390 . S
C2637 H2641 0.950 . S
H2638 C2634 0.950 . S
C2639 C2637 1.390 . S
C2639 C2640 1.387 . S
C2639 H2642 0.950 . S
C2640 C2639 1.387 . S
C2640 C2643 1.387 . S
H2641 C2637 0.950 . S
H2642 C2639 0.950 . S
C2643 C2634 1.390 . S
C2643 H2636 0.950 . S
C2643 C2640 1.387 . S
C2644 C2645 1.387 . S
C2644 H2648 0.950 . S
C2644 C2653 1.390 . S
C2645 C2644 1.387 . S
C2645 C2647 1.387 . S
H2646 C2653 0.950 . S
C2647 C2645 1.387 . S
C2647 C2649 1.390 . S
C2647 H2651 0.950 . S
H2648 C2644 0.950 . S
C2649 C2647 1.390 . S
C2649 C2650 1.387 . S
C2649 H2652 0.950 . S
C2650 C2649 1.387 . S
C2650 C2653 1.387 . S
H2651 C2647 0.950 . S
H2652 C2649 0.950 . S
C2653 C2644 1.390 . S
C2653 H2646 0.950 . S
C2653 C2650 1.387 . S
C2654 C2655 1.387 . S
C2654 H2658 0.950 . S
C2654 C2663 1.390 . S
C2655 C2654 1.387 . S
C2655 C2657 1.387 . S
H2656 C2663 0.950 . S
C2657 C2655 1.387 . S
C2657 C2659 1.390 . S
C2657 H2661 0.950 . S
H2658 C2654 0.950 . S
C2659 C2657 1.390 . S
C2659 C2660 1.387 . S
C2659 H2662 0.950 . S
C2660 C2659 1.387 . S
C2660 C2663 1.387 . S
H2661 C2657 0.950 . S
H2662 C2659 0.950 . S
C2663 C2654 1.390 . S
C2663 H2656 0.950 . S
C2663 C2660 1.387 . S
C2664 C2665 1.387 . S
C2664 H2668 0.950 . S
C2664 C2673 1.390 . S
C2665 C2664 1.387 . S
C2665 C2667 1.387 . S
H2666 C2673 0.950 . S
C2667 C2665 1.387 . S
C2667 C2669 1.390 . S
C2667 H2671 0.950 . S
H2668 C2664 0.950 . S
C2669 C2667 1.390 . S
C2669 C2670 1.387 . S
C2669 H2672 0.950 . S
C2670 C2669 1.387 . S
C2670 C2673 1.387 . S
H2671 C2667 0.950 . S
H2672 C2669 0.950 . S
C2673 C2664 1.390 . S
C2673 H2666 0.950 . S
C2673 C2670 1.387 . S
C2674 C2675 1.387 . S
C2674 H2678 0.950 . S
C2674 C2683 1.390 . S
C2675 C2674 1.387 . S
C2675 C2677 1.387 . S
H2676 C2683 0.950 . S
C2677 C2675 1.387 . S
C2677 C2679 1.390 . S
C2677 H2681 0.950 . S
H2678 C2674 0.950 . S
C2679 C2677 1.390 . S
C2679 C2680 1.387 . S
C2679 H2682 0.950 . S
C2680 C2679 1.387 . S
C2680 C2683 1.387 . S
H2681 C2677 0.950 . S
H2682 C2679 0.950 . S
C2683 C2674 1.390 . S
C2683 H2676 0.950 . S
C2683 C2680 1.387 . S
C2684 C2685 1.387 . S
C2684 H2688 0.950 . S
C2684 C2693 1.390 . S
C2685 C2684 1.387 . S
C2685 C2687 1.387 . S
H2686 C2693 0.950 . S
C2687 C2685 1.387 . S
C2687 C2689 1.390 . S
C2687 H2691 0.950 . S
H2688 C2684 0.950 . S
C2689 C2687 1.390 . S
C2689 C2690 1.387 . S
C2689 H2692 0.950 . S
C2690 C2689 1.387 . S
C2690 C2693 1.387 . S
H2691 C2687 0.950 . S
H2692 C2689 0.950 . S
C2693 C2684 1.390 . S
C2693 H2686 0.950 . S
C2693 C2690 1.387 . S
C2694 C2695 1.387 . S
C2694 H2698 0.950 . S
C2694 C2703 1.390 . S
C2695 C2694 1.387 . S
C2695 C2697 1.387 . S
H2696 C2703 0.950 . S
C2697 C2695 1.387 . S
C2697 C2699 1.390 . S
C2697 H2701 0.950 . S
H2698 C2694 0.950 . S
C2699 C2697 1.390 . S
C2699 C2700 1.387 . S
C2699 H2702 0.950 . S
C2700 C2699 1.387 . S
C2700 C2703 1.387 . S
H2701 C2697 0.950 . S
H2702 C2699 0.950 . S
C2703 C2694 1.390 . S
C2703 H2696 0.950 . S
C2703 C2700 1.387 . S
C2704 C2705 1.387 . S
C2704 H2708 0.950 . S
C2704 C2713 1.390 . S
C2705 C2704 1.387 . S
C2705 C2707 1.387 . S
H2706 C2713 0.950 . S
C2707 C2705 1.387 . S
C2707 C2709 1.390 . S
C2707 H2711 0.950 . S
H2708 C2704 0.950 . S
C2709 C2707 1.390 . S
C2709 C2710 1.387 . S
C2709 H2712 0.950 . S
C2710 C2709 1.387 . S
C2710 C2713 1.387 . S
H2711 C2707 0.950 . S
H2712 C2709 0.950 . S
C2713 C2704 1.390 . S
C2713 H2706 0.950 . S
C2713 C2710 1.387 . S
C2714 C2715 1.387 . S
C2714 H2718 0.950 . S
C2714 C2723 1.390 . S
C2715 C2714 1.387 . S
C2715 C2717 1.387 . S
H2716 C2723 0.950 . S
C2717 C2715 1.387 . S
C2717 C2719 1.390 . S
C2717 H2721 0.950 . S
H2718 C2714 0.950 . S
C2719 C2717 1.390 . S
C2719 C2720 1.387 . S
C2719 H2722 0.950 . S
C2720 C2719 1.387 . S
C2720 C2723 1.387 . S
H2721 C2717 0.950 . S
H2722 C2719 0.950 . S
C2723 C2714 1.390 . S
C2723 H2716 0.950 . S
C2723 C2720 1.387 . S
C2724 C2725 1.387 . S
C2724 H2728 0.950 . S
C2724 C2733 1.390 . S
C2725 C2724 1.387 . S
C2725 C2727 1.387 . S
H2726 C2733 0.950 . S
C2727 C2725 1.387 . S
C2727 C2729 1.390 . S
C2727 H2731 0.950 . S
H2728 C2724 0.950 . S
C2729 C2727 1.390 . S
C2729 C2730 1.387 . S
C2729 H2732 0.950 . S
C2730 C2729 1.387 . S
C2730 C2733 1.387 . S
H2731 C2727 0.950 . S
H2732 C2729 0.950 . S
C2733 C2724 1.390 . S
C2733 H2726 0.950 . S
C2733 C2730 1.387 . S
C2734 C2735 1.387 . S
C2734 H2738 0.950 . S
C2734 C2743 1.390 . S
C2735 C2734 1.387 . S
C2735 C2737 1.387 . S
H2736 C2743 0.950 . S
C2737 C2735 1.387 . S
C2737 C2739 1.390 . S
C2737 H2741 0.950 . S
H2738 C2734 0.950 . S
C2739 C2737 1.390 . S
C2739 C2740 1.387 . S
C2739 H2742 0.950 . S
C2740 C2739 1.387 . S
C2740 C2743 1.387 . S
H2741 C2737 0.950 . S
H2742 C2739 0.950 . S
C2743 C2734 1.390 . S
C2743 H2736 0.950 . S
C2743 C2740 1.387 . S
C2744 C2745 1.387 . S
C2744 H2748 0.950 . S
C2744 C2753 1.390 . S
C2745 C2744 1.387 . S
C2745 C2747 1.387 . S
H2746 C2753 0.950 . S
C2747 C2745 1.387 . S
C2747 C2749 1.390 . S
C2747 H2751 0.950 . S
H2748 C2744 0.950 . S
C2749 C2747 1.390 . S
C2749 C2750 1.387 . S
C2749 H2752 0.950 . S
C2750 C2749 1.387 . S
C2750 C2753 1.387 . S
H2751 C2747 0.950 . S
H2752 C2749 0.950 . S
C2753 C2744 1.390 . S
C2753 H2746 0.950 . S
C2753 C2750 1.387 . S
C2754 C2755 1.387 . S
C2754 H2758 0.950 . S
C2754 C2763 1.390 . S
C2755 C2754 1.387 . S
C2755 C2757 1.387 . S
H2756 C2763 0.950 . S
C2757 C2755 1.387 . S
C2757 C2759 1.390 . S
C2757 H2761 0.950 . S
H2758 C2754 0.950 . S
C2759 C2757 1.390 . S
C2759 C2760 1.387 . S
C2759 H2762 0.950 . S
C2760 C2759 1.387 . S
C2760 C2763 1.387 . S
H2761 C2757 0.950 . S
H2762 C2759 0.950 . S
C2763 C2754 1.390 . S
C2763 H2756 0.950 . S
C2763 C2760 1.387 . S
C2764 C2765 1.387 . S
C2764 H2768 0.950 . S
C2764 C2773 1.390 . S
C2765 C2764 1.387 . S
C2765 C2767 1.387 . S
H2766 C2773 0.950 . S
C2767 C2765 1.387 . S
C2767 C2769 1.390 . S
C2767 H2771 0.950 . S
H2768 C2764 0.950 . S
C2769 C2767 1.390 . S
C2769 C2770 1.387 . S
C2769 H2772 0.950 . S
C2770 C2769 1.387 . S
C2770 C2773 1.387 . S
H2771 C2767 0.950 . S
H2772 C2769 0.950 . S
C2773 C2764 1.390 . S
C2773 H2766 0.950 . S
C2773 C2770 1.387 . S
C2774 C2775 1.387 . S
C2774 H2778 0.950 . S
C2774 C2783 1.390 . S
C2775 C2774 1.387 . S
C2775 C2777 1.387 . S
H2776 C2783 0.950 . S
C2777 C2775 1.387 . S
C2777 C2779 1.390 . S
C2777 H2781 0.950 . S
H2778 C2774 0.950 . S
C2779 C2777 1.390 . S
C2779 C2780 1.387 . S
C2779 H2782 0.950 . S
C2780 C2779 1.387 . S
C2780 C2783 1.387 . S
H2781 C2777 0.950 . S
H2782 C2779 0.950 . S
C2783 C2774 1.390 . S
C2783 H2776 0.950 . S
C2783 C2780 1.387 . S
C2784 C2785 1.387 . S
C2784 H2788 0.950 . S
C2784 C2793 1.390 1_655 S
C2785 C2784 1.387 . S
C2785 C2787 1.387 . S
H2786 C2793 0.950 . S
C2787 C2785 1.387 . S
C2787 C2789 1.390 1_655 S
C2787 H2791 0.950 . S
H2788 C2784 0.950 . S
C2789 C2787 1.390 1_455 S
C2789 C2790 1.387 . S
C2789 H2792 0.950 . S
C2790 C2789 1.387 . S
C2790 C2793 1.387 . S
H2791 C2787 0.950 . S
H2792 C2789 0.950 . S
C2793 C2784 1.390 1_455 S
C2793 H2786 0.950 . S
C2793 C2790 1.387 . S
C2794 C2795 1.387 . S
C2794 H2798 0.950 . S
C2794 C2803 1.390 1_545 S
C2795 C2794 1.387 . S
C2795 C2797 1.387 . S
H2796 C2803 0.950 . S
C2797 C2795 1.387 . S
C2797 C2799 1.390 1_545 S
C2797 H2801 0.950 . S
H2798 C2794 0.950 . S
C2799 C2797 1.390 1_565 S
C2799 C2800 1.387 . S
C2799 H2802 0.950 . S
C2800 C2799 1.387 . S
C2800 C2803 1.387 . S
H2801 C2797 0.950 . S
H2802 C2799 0.950 . S
C2803 C2794 1.390 1_565 S
C2803 H2796 0.950 . S
C2803 C2800 1.387 . S
C2804 C2805 1.387 . S
C2804 H2808 0.950 . S
C2804 C2813 1.390 1_455 S
C2805 C2804 1.387 . S
C2805 C2807 1.387 . S
H2806 C2813 0.950 . S
C2807 C2805 1.387 . S
C2807 C2809 1.390 1_455 S
C2807 H2811 0.950 . S
H2808 C2804 0.950 . S
C2809 C2807 1.390 1_655 S
C2809 C2810 1.387 . S
C2809 H2812 0.950 . S
C2810 C2809 1.387 . S
C2810 C2813 1.387 . S
H2811 C2807 0.950 . S
H2812 C2809 0.950 . S
C2813 C2804 1.390 1_655 S
C2813 H2806 0.950 . S
C2813 C2810 1.387 . S
C2814 C2815 1.387 . S
C2814 H2818 0.950 . S
C2814 C2823 1.390 1_565 S
C2815 C2814 1.387 . S
C2815 C2817 1.387 . S
H2816 C2823 0.950 . S
C2817 C2815 1.387 . S
C2817 C2819 1.390 1_565 S
C2817 H2821 0.950 . S
H2818 C2814 0.950 . S
C2819 C2817 1.390 1_545 S
C2819 C2820 1.387 . S
C2819 H2822 0.950 . S
C2820 C2819 1.387 . S
C2820 C2823 1.387 . S
H2821 C2817 0.950 . S
H2822 C2819 0.950 . S
C2823 C2814 1.390 1_545 S
C2823 H2816 0.950 . S
C2823 C2820 1.387 . S
C2824 C2825 1.387 . S
C2824 H2828 0.950 . S
C2824 C2833 1.390 1_655 S
C2825 C2824 1.387 . S
C2825 C2827 1.387 . S
H2826 C2833 0.950 . S
C2827 C2825 1.387 . S
C2827 C2829 1.390 1_655 S
C2827 H2831 0.950 . S
H2828 C2824 0.950 . S
C2829 C2827 1.390 1_455 S
C2829 C2830 1.387 . S
C2829 H2832 0.950 . S
C2830 C2829 1.387 . S
C2830 C2833 1.387 . S
H2831 C2827 0.950 . S
H2832 C2829 0.950 . S
C2833 C2824 1.390 1_455 S
C2833 H2826 0.950 . S
C2833 C2830 1.387 . S
C2834 C2835 1.387 . S
C2834 H2838 0.950 . S
C2834 C2843 1.390 1_565 S
C2835 C2834 1.387 . S
C2835 C2837 1.387 . S
H2836 C2843 0.950 . S
C2837 C2835 1.387 . S
C2837 C2839 1.390 1_565 S
C2837 H2841 0.950 . S
H2838 C2834 0.950 . S
C2839 C2837 1.390 1_545 S
C2839 C2840 1.387 . S
C2839 H2842 0.950 . S
C2840 C2839 1.387 . S
C2840 C2843 1.387 . S
H2841 C2837 0.950 . S
H2842 C2839 0.950 . S
C2843 C2834 1.390 1_545 S
C2843 H2836 0.950 . S
C2843 C2840 1.387 . S
C2844 C2845 1.387 . S
C2844 H2848 0.950 . S
C2844 C2853 1.390 1_655 S
C2845 C2844 1.387 . S
C2845 C2847 1.387 . S
H2846 C2853 0.950 . S
C2847 C2845 1.387 . S
C2847 C2849 1.390 1_655 S
C2847 H2851 0.950 . S
H2848 C2844 0.950 . S
C2849 C2847 1.390 1_455 S
C2849 C2850 1.387 . S
C2849 H2852 0.950 . S
C2850 C2849 1.387 . S
C2850 C2853 1.387 . S
H2851 C2847 0.950 . S
H2852 C2849 0.950 . S
C2853 C2844 1.390 1_455 S
C2853 H2846 0.950 . S
C2853 C2850 1.387 . S
C2854 C2855 1.387 . S
C2854 H2858 0.950 . S
C2854 C2863 1.390 1_565 S
C2855 C2854 1.387 . S
C2855 C2857 1.387 . S
H2856 C2863 0.950 . S
C2857 C2855 1.387 . S
C2857 C2859 1.390 1_565 S
C2857 H2861 0.950 . S
H2858 C2854 0.950 . S
C2859 C2857 1.390 1_545 S
C2859 C2860 1.387 . S
C2859 H2862 0.950 . S
C2860 C2859 1.387 . S
C2860 C2863 1.387 . S
H2861 C2857 0.950 . S
H2862 C2859 0.950 . S
C2863 C2854 1.390 1_545 S
C2863 H2856 0.950 . S
C2863 C2860 1.387 . S
C2864 C2865 1.387 . S
C2864 H2868 0.950 . S
C2864 C2873 1.390 1_565 S
C2865 C2864 1.387 . S
C2865 C2867 1.387 . S
H2866 C2873 0.950 . S
C2867 C2865 1.387 . S
C2867 C2869 1.390 1_565 S
C2867 H2871 0.950 . S
H2868 C2864 0.950 . S
C2869 C2867 1.390 1_545 S
C2869 C2870 1.387 . S
C2869 H2872 0.950 . S
C2870 C2869 1.387 . S
C2870 C2873 1.387 . S
H2871 C2867 0.950 . S
H2872 C2869 0.950 . S
C2873 C2864 1.390 1_545 S
C2873 H2866 0.950 . S
C2873 C2870 1.387 . S
C2874 C2875 1.387 . S
C2874 H2878 0.950 . S
C2874 C2883 1.390 1_655 S
C2875 C2874 1.387 . S
C2875 C2877 1.387 . S
H2876 C2883 0.950 . S
C2877 C2875 1.387 . S
C2877 C2879 1.390 1_655 S
C2877 H2881 0.950 . S
H2878 C2874 0.950 . S
C2879 C2877 1.390 1_455 S
C2879 C2880 1.387 . S
C2879 H2882 0.950 . S
C2880 C2879 1.387 . S
C2880 C2883 1.387 . S
H2881 C2877 0.950 . S
H2882 C2879 0.950 . S
C2883 C2874 1.390 1_455 S
C2883 H2876 0.950 . S
C2883 C2880 1.387 . S
C2884 C2885 1.387 . S
C2884 H2888 0.950 . S
C2884 C2893 1.390 1_565 S
C2885 C2884 1.387 . S
C2885 C2887 1.387 . S
H2886 C2893 0.950 . S
C2887 C2885 1.387 . S
C2887 C2889 1.390 1_565 S
C2887 H2891 0.950 . S
H2888 C2884 0.950 . S
C2889 C2887 1.390 1_545 S
C2889 C2890 1.387 . S
C2889 H2892 0.950 . S
C2890 C2889 1.387 . S
C2890 C2893 1.387 . S
H2891 C2887 0.950 . S
H2892 C2889 0.950 . S
C2893 C2884 1.390 1_545 S
C2893 H2886 0.950 . S
C2893 C2890 1.387 . S
C2894 C2895 1.387 . S
C2894 H2898 0.950 . S
C2894 C2903 1.390 1_655 S
C2895 C2894 1.387 . S
C2895 C2897 1.387 . S
H2896 C2903 0.950 . S
C2897 C2895 1.387 . S
C2897 C2899 1.390 1_655 S
C2897 H2901 0.950 . S
H2898 C2894 0.950 . S
C2899 C2897 1.390 1_455 S
C2899 C2900 1.387 . S
C2899 H2902 0.950 . S
C2900 C2899 1.387 . S
C2900 C2903 1.387 . S
H2901 C2897 0.950 . S
H2902 C2899 0.950 . S
C2903 C2894 1.390 1_455 S
C2903 H2896 0.950 . S
C2903 C2900 1.387 . S
C2904 C2905 1.387 . S
C2904 H2908 0.950 . S
C2904 C2913 1.390 1_565 S
C2905 C2904 1.387 . S
C2905 C2907 1.387 . S
H2906 C2913 0.950 . S
C2907 C2905 1.387 . S
C2907 C2909 1.390 1_565 S
C2907 H2911 0.950 . S
H2908 C2904 0.950 . S
C2909 C2907 1.390 1_545 S
C2909 C2910 1.387 . S
C2909 H2912 0.950 . S
C2910 C2909 1.387 . S
C2910 C2913 1.387 . S
H2911 C2907 0.950 . S
H2912 C2909 0.950 . S
C2913 C2904 1.390 1_545 S
C2913 H2906 0.950 . S
C2913 C2910 1.387 . S
C2914 C2915 1.387 . S
C2914 H2918 0.950 . S
C2914 C2923 1.390 1_655 S
C2915 C2914 1.387 . S
C2915 C2917 1.387 . S
H2916 C2923 0.950 . S
C2917 C2915 1.387 . S
C2917 C2919 1.390 1_655 S
C2917 H2921 0.950 . S
H2918 C2914 0.950 . S
C2919 C2917 1.390 1_455 S
C2919 C2920 1.387 . S
C2919 H2922 0.950 . S
C2920 C2919 1.387 . S
C2920 C2923 1.387 . S
H2921 C2917 0.950 . S
H2922 C2919 0.950 . S
C2923 C2914 1.390 1_455 S
C2923 H2916 0.950 . S
C2923 C2920 1.387 . S
C2924 C2925 1.387 . S
C2924 H2928 0.950 . S
C2924 C2933 1.390 1_565 S
C2925 C2924 1.387 . S
C2925 C2927 1.387 . S
H2926 C2933 0.950 . S
C2927 C2925 1.387 . S
C2927 C2929 1.390 1_565 S
C2927 H2931 0.950 . S
H2928 C2924 0.950 . S
C2929 C2927 1.390 1_545 S
C2929 C2930 1.387 . S
C2929 H2932 0.950 . S
C2930 C2929 1.387 . S
C2930 C2933 1.387 . S
H2931 C2927 0.950 . S
H2932 C2929 0.950 . S
C2933 C2924 1.390 1_545 S
C2933 H2926 0.950 . S
C2933 C2930 1.387 . S
C2934 C2935 1.387 . S
C2934 H2938 0.950 . S
C2934 C2943 1.390 1_455 S
C2935 C2934 1.387 . S
C2935 C2937 1.387 . S
H2936 C2943 0.950 . S
C2937 C2935 1.387 . S
C2937 C2939 1.390 1_455 S
C2937 H2941 0.950 . S
H2938 C2934 0.950 . S
C2939 C2937 1.390 1_655 S
C2939 C2940 1.387 . S
C2939 H2942 0.950 . S
C2940 C2939 1.387 . S
C2940 C2943 1.387 . S
H2941 C2937 0.950 . S
H2942 C2939 0.950 . S
C2943 C2934 1.390 1_655 S
C2943 H2936 0.950 . S
C2943 C2940 1.387 . S
C2944 C2945 1.387 . S
C2944 H2948 0.950 . S
C2944 C2953 1.390 1_554 S
C2945 C2944 1.387 . S
C2945 C2947 1.387 . S
H2946 C2953 0.950 . S
C2947 C2945 1.387 . S
C2947 C2949 1.390 1_554 S
C2947 H2951 0.950 . S
H2948 C2944 0.950 . S
C2949 C2947 1.390 1_556 S
C2949 C2950 1.387 . S
C2949 H2952 0.950 . S
C2950 C2949 1.387 . S
C2950 C2953 1.387 . S
H2951 C2947 0.950 . S
H2952 C2949 0.950 . S
C2953 C2944 1.390 1_556 S
C2953 H2946 0.950 . S
C2953 C2950 1.387 . S
C2954 C2955 1.387 . S
C2954 H2958 0.950 . S
C2954 C2963 1.390 1_554 S
C2955 C2954 1.387 . S
C2955 C2957 1.387 . S
H2956 C2963 0.950 . S
C2957 C2955 1.387 . S
C2957 C2959 1.390 1_554 S
C2957 H2961 0.950 . S
H2958 C2954 0.950 . S
C2959 C2957 1.390 1_556 S
C2959 C2960 1.387 . S
C2959 H2962 0.950 . S
C2960 C2959 1.387 . S
C2960 C2963 1.387 . S
H2961 C2957 0.950 . S
H2962 C2959 0.950 . S
C2963 C2954 1.390 1_556 S
C2963 H2956 0.950 . S
C2963 C2960 1.387 . S
C2964 C2965 1.387 . S
C2964 H2968 0.950 . S
C2964 C2973 1.390 1_554 S
C2965 C2964 1.387 . S
C2965 C2967 1.387 . S
H2966 C2973 0.950 . S
C2967 C2965 1.387 . S
C2967 C2969 1.390 1_554 S
C2967 H2971 0.950 . S
H2968 C2964 0.950 . S
C2969 C2967 1.390 1_556 S
C2969 C2970 1.387 . S
C2969 H2972 0.950 . S
C2970 C2969 1.387 . S
C2970 C2973 1.387 . S
H2971 C2967 0.950 . S
H2972 C2969 0.950 . S
C2973 C2964 1.390 1_556 S
C2973 H2966 0.950 . S
C2973 C2970 1.387 . S
C2974 C2975 1.387 . S
C2974 H2978 0.950 . S
C2974 C2983 1.390 1_554 S
C2975 C2974 1.387 . S
C2975 C2977 1.387 . S
H2976 C2983 0.950 . S
C2977 C2975 1.387 . S
C2977 C2979 1.390 1_554 S
C2977 H2981 0.950 . S
H2978 C2974 0.950 . S
C2979 C2977 1.390 1_556 S
C2979 C2980 1.387 . S
C2979 H2982 0.950 . S
C2980 C2979 1.387 . S
C2980 C2983 1.387 . S
H2981 C2977 0.950 . S
H2982 C2979 0.950 . S
C2983 C2974 1.390 1_556 S
C2983 H2976 0.950 . S
C2983 C2980 1.387 . S
C2984 C2985 1.387 . S
C2984 H2988 0.950 . S
C2984 C2993 1.390 1_556 S
C2985 C2984 1.387 . S
C2985 C2987 1.387 . S
H2986 C2993 0.950 . S
C2987 C2985 1.387 . S
C2987 C2989 1.390 1_556 S
C2987 H2991 0.950 . S
H2988 C2984 0.950 . S
C2989 C2987 1.390 1_554 S
C2989 C2990 1.387 . S
C2989 H2992 0.950 . S
C2990 C2989 1.387 . S
C2990 C2993 1.387 . S
H2991 C2987 0.950 . S
H2992 C2989 0.950 . S
C2993 C2984 1.390 1_554 S
C2993 H2986 0.950 . S
C2993 C2990 1.387 . S
C2994 C2995 1.387 . S
C2994 H2998 0.950 . S
C2994 C3003 1.390 1_554 S
C2995 C2994 1.387 . S
C2995 C2997 1.387 . S
H2996 C3003 0.950 . S
C2997 C2995 1.387 . S
C2997 C2999 1.390 1_554 S
C2997 H3001 0.950 . S
H2998 C2994 0.950 . S
C2999 C2997 1.390 1_556 S
C2999 C3000 1.387 . S
C2999 H3002 0.950 . S
C3000 C2999 1.387 . S
C3000 C3003 1.387 . S
H3001 C2997 0.950 . S
H3002 C2999 0.950 . S
C3003 C2994 1.390 1_556 S
C3003 H2996 0.950 . S
C3003 C3000 1.387 . S
C3004 C3005 1.387 . S
C3004 H3008 0.950 . S
C3004 C3013 1.390 1_556 S
C3005 C3004 1.387 . S
C3005 C3007 1.387 . S
H3006 C3013 0.950 . S
C3007 C3005 1.387 . S
C3007 C3009 1.390 1_556 S
C3007 H3011 0.950 . S
H3008 C3004 0.950 . S
C3009 C3007 1.390 1_554 S
C3009 C3010 1.387 . S
C3009 H3012 0.950 . S
C3010 C3009 1.387 . S
C3010 C3013 1.387 . S
H3011 C3007 0.950 . S
H3012 C3009 0.950 . S
C3013 C3004 1.390 1_554 S
C3013 H3006 0.950 . S
C3013 C3010 1.387 . S
C3014 C3015 1.387 . S
C3014 H3018 0.950 . S
C3014 C3023 1.390 1_554 S
C3015 C3014 1.387 . S
C3015 C3017 1.387 . S
H3016 C3023 0.950 . S
C3017 C3015 1.387 . S
C3017 C3019 1.390 1_554 S
C3017 H3021 0.950 . S
H3018 C3014 0.950 . S
C3019 C3017 1.390 1_556 S
C3019 C3020 1.387 . S
C3019 H3022 0.950 . S
C3020 C3019 1.387 . S
C3020 C3023 1.387 . S
H3021 C3017 0.950 . S
H3022 C3019 0.950 . S
C3023 C3014 1.390 1_556 S
C3023 H3016 0.950 . S
C3023 C3020 1.387 . S
C3024 C3025 1.387 . S
C3024 H3028 0.950 . S
C3024 C3033 1.390 . S
C3025 C3024 1.387 . S
C3025 C3027 1.387 . S
H3026 C3033 0.950 . S
C3027 C3025 1.387 . S
C3027 C3029 1.390 . S
C3027 H3031 0.950 . S
H3028 C3024 0.950 . S
C3029 C3027 1.390 . S
C3029 C3030 1.387 . S
C3029 H3032 0.950 . S
C3030 C3029 1.387 . S
C3030 C3033 1.387 . S
H3031 C3027 0.950 . S
H3032 C3029 0.950 . S
C3033 C3024 1.390 . S
C3033 H3026 0.950 . S
C3033 C3030 1.387 . S
C3034 C3035 1.387 . S
C3034 H3038 0.950 . S
C3034 C3043 1.390 . S
C3035 C3034 1.387 . S
C3035 C3037 1.387 . S
H3036 C3043 0.950 . S
C3037 C3035 1.387 . S
C3037 C3039 1.390 . S
C3037 H3041 0.950 . S
H3038 C3034 0.950 . S
C3039 C3037 1.390 . S
C3039 C3040 1.387 . S
C3039 H3042 0.950 . S
C3040 C3039 1.387 . S
C3040 C3043 1.387 . S
H3041 C3037 0.950 . S
H3042 C3039 0.950 . S
C3043 C3034 1.390 . S
C3043 H3036 0.950 . S
C3043 C3040 1.387 . S
C3044 C3045 1.387 . S
C3044 H3048 0.950 . S
C3044 C3053 1.390 . S
C3045 C3044 1.387 . S
C3045 C3047 1.387 . S
H3046 C3053 0.950 . S
C3047 C3045 1.387 . S
C3047 C3049 1.390 . S
C3047 H3051 0.950 . S
H3048 C3044 0.950 . S
C3049 C3047 1.390 . S
C3049 C3050 1.387 . S
C3049 H3052 0.950 . S
C3050 C3049 1.387 . S
C3050 C3053 1.387 . S
H3051 C3047 0.950 . S
H3052 C3049 0.950 . S
C3053 C3044 1.390 . S
C3053 H3046 0.950 . S
C3053 C3050 1.387 . S
C3054 C3055 1.387 . S
C3054 H3058 0.950 . S
C3054 C3063 1.390 . S
C3055 C3054 1.387 . S
C3055 C3057 1.387 . S
H3056 C3063 0.950 . S
C3057 C3055 1.387 . S
C3057 C3059 1.390 . S
C3057 H3061 0.950 . S
H3058 C3054 0.950 . S
C3059 C3057 1.390 . S
C3059 C3060 1.387 . S
C3059 H3062 0.950 . S
C3060 C3059 1.387 . S
C3060 C3063 1.387 . S
H3061 C3057 0.950 . S
H3062 C3059 0.950 . S
C3063 C3054 1.390 . S
C3063 H3056 0.950 . S
C3063 C3060 1.387 . S
C3064 C3065 1.387 . S
C3064 H3068 0.950 . S
C3064 C3073 1.390 . S
C3065 C3064 1.387 . S
C3065 C3067 1.387 . S
H3066 C3073 0.950 . S
C3067 C3065 1.387 . S
C3067 C3069 1.390 . S
C3067 H3071 0.950 . S
H3068 C3064 0.950 . S
C3069 C3067 1.390 . S
C3069 C3070 1.387 . S
C3069 H3072 0.950 . S
C3070 C3069 1.387 . S
C3070 C3073 1.387 . S
H3071 C3067 0.950 . S
H3072 C3069 0.950 . S
C3073 C3064 1.390 . S
C3073 H3066 0.950 . S
C3073 C3070 1.387 . S
C3074 C3075 1.387 . S
C3074 H3078 0.950 . S
C3074 C3083 1.390 . S
C3075 C3074 1.387 . S
C3075 C3077 1.387 . S
H3076 C3083 0.950 . S
C3077 C3075 1.387 . S
C3077 C3079 1.390 . S
C3077 H3081 0.950 . S
H3078 C3074 0.950 . S
C3079 C3077 1.390 . S
C3079 C3080 1.387 . S
C3079 H3082 0.950 . S
C3080 C3079 1.387 . S
C3080 C3083 1.387 . S
H3081 C3077 0.950 . S
H3082 C3079 0.950 . S
C3083 C3074 1.390 . S
C3083 H3076 0.950 . S
C3083 C3080 1.387 . S
C3084 C3085 1.387 . S
C3084 H3088 0.950 . S
C3084 C3093 1.390 . S
C3085 C3084 1.387 . S
C3085 C3087 1.387 . S
H3086 C3093 0.950 . S
C3087 C3085 1.387 . S
C3087 C3089 1.390 . S
C3087 H3091 0.950 . S
H3088 C3084 0.950 . S
C3089 C3087 1.390 . S
C3089 C3090 1.387 . S
C3089 H3092 0.950 . S
C3090 C3089 1.387 . S
C3090 C3093 1.387 . S
H3091 C3087 0.950 . S
H3092 C3089 0.950 . S
C3093 C3084 1.390 . S
C3093 H3086 0.950 . S
C3093 C3090 1.387 . S
C3094 C3095 1.387 . S
C3094 H3098 0.950 . S
C3094 C3103 1.390 . S
C3095 C3094 1.387 . S
C3095 C3097 1.387 . S
H3096 C3103 0.950 . S
C3097 C3095 1.387 . S
C3097 C3099 1.390 . S
C3097 H3101 0.950 . S
H3098 C3094 0.950 . S
C3099 C3097 1.390 . S
C3099 C3100 1.387 . S
C3099 H3102 0.950 . S
C3100 C3099 1.387 . S
C3100 C3103 1.387 . S
H3101 C3097 0.950 . S
H3102 C3099 0.950 . S
C3103 C3094 1.390 . S
C3103 H3096 0.950 . S
C3103 C3100 1.387 . S
C3104 C3105 1.387 . S
C3104 H3108 0.950 . S
C3104 C3113 1.390 . S
C3105 C3104 1.387 . S
C3105 C3107 1.387 . S
H3106 C3113 0.950 . S
C3107 C3105 1.387 . S
C3107 C3109 1.390 . S
C3107 H3111 0.950 . S
H3108 C3104 0.950 . S
C3109 C3107 1.390 . S
C3109 C3110 1.387 . S
C3109 H3112 0.950 . S
C3110 C3109 1.387 . S
C3110 C3113 1.387 . S
H3111 C3107 0.950 . S
H3112 C3109 0.950 . S
C3113 C3104 1.390 . S
C3113 H3106 0.950 . S
C3113 C3110 1.387 . S
C3114 C3115 1.387 . S
C3114 H3118 0.950 . S
C3114 C3123 1.390 . S
C3115 C3114 1.387 . S
C3115 C3117 1.387 . S
H3116 C3123 0.950 . S
C3117 C3115 1.387 . S
C3117 C3119 1.390 . S
C3117 H3121 0.950 . S
H3118 C3114 0.950 . S
C3119 C3117 1.390 . S
C3119 C3120 1.387 . S
C3119 H3122 0.950 . S
C3120 C3119 1.387 . S
C3120 C3123 1.387 . S
H3121 C3117 0.950 . S
H3122 C3119 0.950 . S
C3123 C3114 1.390 . S
C3123 H3116 0.950 . S
C3123 C3120 1.387 . S
C3124 C3125 1.387 . S
C3124 H3128 0.950 . S
C3124 C3133 1.390 . S
C3125 C3124 1.387 . S
C3125 C3127 1.387 . S
H3126 C3133 0.950 . S
C3127 C3125 1.387 . S
C3127 C3129 1.390 . S
C3127 H3131 0.950 . S
H3128 C3124 0.950 . S
C3129 C3127 1.390 . S
C3129 C3130 1.387 . S
C3129 H3132 0.950 . S
C3130 C3129 1.387 . S
C3130 C3133 1.387 . S
H3131 C3127 0.950 . S
H3132 C3129 0.950 . S
C3133 C3124 1.390 . S
C3133 H3126 0.950 . S
C3133 C3130 1.387 . S
C3134 C3135 1.387 . S
C3134 H3138 0.950 . S
C3134 C3143 1.390 . S
C3135 C3134 1.387 . S
C3135 C3137 1.387 . S
H3136 C3143 0.950 . S
C3137 C3135 1.387 . S
C3137 C3139 1.390 . S
C3137 H3141 0.950 . S
H3138 C3134 0.950 . S
C3139 C3137 1.390 . S
C3139 C3140 1.387 . S
C3139 H3142 0.950 . S
C3140 C3139 1.387 . S
C3140 C3143 1.387 . S
H3141 C3137 0.950 . S
H3142 C3139 0.950 . S
C3143 C3134 1.390 . S
C3143 H3136 0.950 . S
C3143 C3140 1.387 . S
C3144 C3145 1.387 . S
C3144 H3148 0.950 . S
C3144 C3153 1.390 . S
C3145 C3144 1.387 . S
C3145 C3147 1.387 . S
H3146 C3153 0.950 . S
C3147 C3145 1.387 . S
C3147 C3149 1.390 . S
C3147 H3151 0.950 . S
H3148 C3144 0.950 . S
C3149 C3147 1.390 . S
C3149 C3150 1.387 . S
C3149 H3152 0.950 . S
C3150 C3149 1.387 . S
C3150 C3153 1.387 . S
H3151 C3147 0.950 . S
H3152 C3149 0.950 . S
C3153 C3144 1.390 . S
C3153 H3146 0.950 . S
C3153 C3150 1.387 . S
C3154 C3155 1.387 . S
C3154 H3158 0.950 . S
C3154 C3163 1.390 . S
C3155 C3154 1.387 . S
C3155 C3157 1.387 . S
H3156 C3163 0.950 . S
C3157 C3155 1.387 . S
C3157 C3159 1.390 . S
C3157 H3161 0.950 . S
H3158 C3154 0.950 . S
C3159 C3157 1.390 . S
C3159 C3160 1.387 . S
C3159 H3162 0.950 . S
C3160 C3159 1.387 . S
C3160 C3163 1.387 . S
H3161 C3157 0.950 . S
H3162 C3159 0.950 . S
C3163 C3154 1.390 . S
C3163 H3156 0.950 . S
C3163 C3160 1.387 . S
C3164 C3165 1.387 . S
C3164 H3168 0.950 . S
C3164 C3173 1.390 . S
C3165 C3164 1.387 . S
C3165 C3167 1.387 . S
H3166 C3173 0.950 . S
C3167 C3165 1.387 . S
C3167 C3169 1.390 . S
C3167 H3171 0.950 . S
H3168 C3164 0.950 . S
C3169 C3167 1.390 . S
C3169 C3170 1.387 . S
C3169 H3172 0.950 . S
C3170 C3169 1.387 . S
C3170 C3173 1.387 . S
H3171 C3167 0.950 . S
H3172 C3169 0.950 . S
C3173 C3164 1.390 . S
C3173 H3166 0.950 . S
C3173 C3170 1.387 . S
C3174 C3175 1.387 . S
C3174 H3178 0.950 . S
C3174 C3183 1.390 . S
C3175 C3174 1.387 . S
C3175 C3177 1.387 . S
H3176 C3183 0.950 . S
C3177 C3175 1.387 . S
C3177 C3179 1.390 . S
C3177 H3181 0.950 . S
H3178 C3174 0.950 . S
C3179 C3177 1.390 . S
C3179 C3180 1.387 . S
C3179 H3182 0.950 . S
C3180 C3179 1.387 . S
C3180 C3183 1.387 . S
H3181 C3177 0.950 . S
H3182 C3179 0.950 . S
C3183 C3174 1.390 . S
C3183 H3176 0.950 . S
C3183 C3180 1.387 . S
C3184 C3185 1.387 . S
C3184 H3188 0.950 . S
C3184 C3193 1.390 . S
C3185 C3184 1.387 . S
C3185 C3187 1.387 . S
H3186 C3193 0.950 . S
C3187 C3185 1.387 . S
C3187 C3189 1.390 . S
C3187 H3191 0.950 . S
H3188 C3184 0.950 . S
C3189 C3187 1.390 . S
C3189 C3190 1.387 . S
C3189 H3192 0.950 . S
C3190 C3189 1.387 . S
C3190 C3193 1.387 . S
H3191 C3187 0.950 . S
H3192 C3189 0.950 . S
C3193 C3184 1.390 . S
C3193 H3186 0.950 . S
C3193 C3190 1.387 . S
C3194 C3195 1.387 . S
C3194 H3198 0.950 . S
C3194 C3203 1.390 . S
C3195 C3194 1.387 . S
C3195 C3197 1.387 . S
H3196 C3203 0.950 . S
C3197 C3195 1.387 . S
C3197 C3199 1.390 . S
C3197 H3201 0.950 . S
H3198 C3194 0.950 . S
C3199 C3197 1.390 . S
C3199 C3200 1.387 . S
C3199 H3202 0.950 . S
C3200 C3199 1.387 . S
C3200 C3203 1.387 . S
H3201 C3197 0.950 . S
H3202 C3199 0.950 . S
C3203 C3194 1.390 . S
C3203 H3196 0.950 . S
C3203 C3200 1.387 . S
C3204 C3205 1.387 . S
C3204 H3208 0.950 . S
C3204 C3213 1.390 . S
C3205 C3204 1.387 . S
C3205 C3207 1.387 . S
H3206 C3213 0.950 . S
C3207 C3205 1.387 . S
C3207 C3209 1.390 . S
C3207 H3211 0.950 . S
H3208 C3204 0.950 . S
C3209 C3207 1.390 . S
C3209 C3210 1.387 . S
C3209 H3212 0.950 . S
C3210 C3209 1.387 . S
C3210 C3213 1.387 . S
H3211 C3207 0.950 . S
H3212 C3209 0.950 . S
C3213 C3204 1.390 . S
C3213 H3206 0.950 . S
C3213 C3210 1.387 . S
C3214 C3215 1.387 . S
C3214 H3218 0.950 . S
C3214 C3223 1.390 . S
C3215 C3214 1.387 . S
C3215 C3217 1.387 . S
H3216 C3223 0.950 . S
C3217 C3215 1.387 . S
C3217 C3219 1.390 . S
C3217 H3221 0.950 . S
H3218 C3214 0.950 . S
C3219 C3217 1.390 . S
C3219 C3220 1.387 . S
C3219 H3222 0.950 . S
C3220 C3219 1.387 . S
C3220 C3223 1.387 . S
H3221 C3217 0.950 . S
H3222 C3219 0.950 . S
C3223 C3214 1.390 . S
C3223 H3216 0.950 . S
C3223 C3220 1.387 . S
C3224 C3225 1.387 . S
C3224 H3228 0.950 . S
C3224 C3233 1.390 . S
C3225 C3224 1.387 . S
C3225 C3227 1.387 . S
H3226 C3233 0.950 . S
C3227 C3225 1.387 . S
C3227 C3229 1.390 . S
C3227 H3231 0.950 . S
H3228 C3224 0.950 . S
C3229 C3227 1.390 . S
C3229 C3230 1.387 . S
C3229 H3232 0.950 . S
C3230 C3229 1.387 . S
C3230 C3233 1.387 . S
H3231 C3227 0.950 . S
H3232 C3229 0.950 . S
C3233 C3224 1.390 . S
C3233 H3226 0.950 . S
C3233 C3230 1.387 . S
C3234 C3235 1.387 . S
C3234 H3238 0.950 . S
C3234 C3243 1.390 . S
C3235 C3234 1.387 . S
C3235 C3237 1.387 . S
H3236 C3243 0.950 . S
C3237 C3235 1.387 . S
C3237 C3239 1.390 . S
C3237 H3241 0.950 . S
H3238 C3234 0.950 . S
C3239 C3237 1.390 . S
C3239 C3240 1.387 . S
C3239 H3242 0.950 . S
C3240 C3239 1.387 . S
C3240 C3243 1.387 . S
H3241 C3237 0.950 . S
H3242 C3239 0.950 . S
C3243 C3234 1.390 . S
C3243 H3236 0.950 . S
C3243 C3240 1.387 . S
C3244 C3245 1.387 . S
C3244 H3248 0.950 . S
C3244 C3253 1.390 . S
C3245 C3244 1.387 . S
C3245 C3247 1.387 . S
H3246 C3253 0.950 . S
C3247 C3245 1.387 . S
C3247 C3249 1.390 . S
C3247 H3251 0.950 . S
H3248 C3244 0.950 . S
C3249 C3247 1.390 . S
C3249 C3250 1.387 . S
C3249 H3252 0.950 . S
C3250 C3249 1.387 . S
C3250 C3253 1.387 . S
H3251 C3247 0.950 . S
H3252 C3249 0.950 . S
C3253 C3244 1.390 . S
C3253 H3246 0.950 . S
C3253 C3250 1.387 . S
C3254 C3255 1.387 . S
C3254 H3258 0.950 . S
C3254 C3263 1.390 . S
C3255 C3254 1.387 . S
C3255 C3257 1.387 . S
H3256 C3263 0.950 . S
C3257 C3255 1.387 . S
C3257 C3259 1.390 . S
C3257 H3261 0.950 . S
H3258 C3254 0.950 . S
C3259 C3257 1.390 . S
C3259 C3260 1.387 . S
C3259 H3262 0.950 . S
C3260 C3259 1.387 . S
C3260 C3263 1.387 . S
H3261 C3257 0.950 . S
H3262 C3259 0.950 . S
C3263 C3254 1.390 . S
C3263 H3256 0.950 . S
C3263 C3260 1.387 . S
C1345 C553 1.510 . S
C1350 C7 1.510 . S
C1355 C511 1.510 . S
C1360 C21 1.510 . S
C1365 C525 1.512 . S
C1370 C35 1.512 . S
C1375 C539 1.512 . S
C1380 C49 1.512 . S
C1385 C469 1.510 . S
C1390 C63 1.510 . S
C1395 C483 1.512 . S
C1400 C77 1.512 . S
C1405 C91 1.512 . S
C1410 C497 1.512 . S
C1415 C455 1.510 . S
C1420 C105 1.510 . S
C1425 C119 1.512 . S
C1430 C441 1.512 . S
C1435 C133 1.512 . S
C1440 C399 1.512 . S
C1445 C147 1.510 . S
C1450 C413 1.510 . S
C1455 C161 1.510 . S
C1460 C427 1.510 . S
C1465 C357 1.510 . S
C1470 C175 1.510 . S
C1475 C371 1.510 . S
C1480 C189 1.510 . S
C1485 C385 1.510 . S
C1490 C203 1.510 . S
C1495 C343 1.512 . S
C1500 C217 1.512 . S
C1505 C231 1.510 . S
C1510 C623 1.510 . S
C1515 C245 1.510 . S
C1520 C665 1.510 . S
C1525 C637 1.512 . S
C1530 C259 1.512 . S
C1535 C651 1.510 . S
C1540 C273 1.510 . S
C1545 C567 1.512 . S
C1550 C287 1.512 . S
C1555 C595 1.510 . S
C1560 C301 1.510 . S
C1565 C315 1.510 . S
C1570 C609 1.510 . S
C1575 C581 1.510 . S
C1580 C329 1.510 . S
C1585 C987 1.512 . S
C1590 C679 1.512 . S
C1595 C693 1.512 . S
C1600 C1001 1.512 . S
C1605 C707 1.510 . S
C1610 C973 1.510 . S
C1615 C721 1.512 . S
C1620 C959 1.512 . S
C1625 C735 1.510 . S
C1630 C945 1.510 . S
C1635 C749 1.510 . S
C1640 C931 1.510 . S
C1645 C903 1.512 . S
C1650 C763 1.512 . S
C1655 C917 1.510 . S
C1660 C777 1.510 . S
C1665 C791 1.512 . S
C1670 C1071 1.512 . S
C1675 C805 1.510 . S
C1680 C1113 1.510 . S
C1685 C1085 1.510 . S
C1690 C819 1.510 . S
C1695 C833 1.510 . S
C1700 C1099 1.510 . S
C1705 C847 1.510 . S
C1710 C1015 1.510 . S
C1715 C861 1.510 . S
C1720 C1043 1.510 . S
C1725 C1057 1.510 . S
C1730 C875 1.510 . S
C1735 C1029 1.512 . S
C1740 C889 1.512 . S
C1745 C1127 1.512 . S
C1750 C1337 1.512 . S
C1755 C1323 1.510 . S
C1760 C1141 1.510 . S
C1765 C1295 1.512 . S
C1770 C1155 1.512 . S
C1775 C1309 1.512 . S
C1780 C1169 1.512 . S
C1785 C1267 1.510 . S
C1790 C1183 1.510 . S
C1795 C1197 1.512 . S
C1800 C1281 1.512 . S
C1805 C1253 1.510 . S
C1810 C1211 1.510 . S
C1815 C1239 1.512 . S
C1820 C1225 1.512 . S
C1825 C9 1.163 . S
C1830 C437 1.196 . S
C1835 C23 1.167 . S
C1840 C395 1.196 . S
C1845 C37 1.164 . S
C1850 C409 1.198 . S
C1855 C51 1.163 . S
C1860 C423 1.196 . S
C1865 C65 1.165 . S
C1870 C353 1.195 . S
C1875 C79 1.163 . S
C1880 C367 1.198 . S
C1885 C381 1.195 . S
C1890 C93 1.165 . S
C1895 C107 1.166 . S
C1900 C339 1.195 . S
C1905 C121 1.167 . S
C1910 C619 1.197 . S
C1915 C577 1.195 . S
C1920 C135 1.165 . S
C1925 C149 1.166 . S
C1930 C591 1.195 . S
C1935 C163 1.166 . S
C1940 C605 1.195 . S
C1945 C661 1.196 . S
C1950 C177 1.167 . S
C1955 C633 1.198 . S
C1960 C191 1.165 . S
C1965 C647 1.198 . S
C1970 C205 1.163 . S
C1975 C219 1.164 . S
C1980 C563 1.198 . S
C1985 C233 1.165 . S
C1990 C549 1.195 . S
C1995 C247 1.162 . S
C2000 C465 1.197 . S
C2005 C261 1.163 . S
C2010 C479 1.196 . S
C2015 C275 1.163 . S
C2020 C493 1.198 . S
C2025 C289 1.164 . S
C2030 C451 1.195 . S
C2035 C303 1.167 . S
C2040 C521 1.196 . S
C2045 C535 1.198 . S
C2050 C317 1.163 . S
C2055 C331 1.162 . S
C2060 C507 1.197 . S
C2065 C471 1.164 . S
C2070 C941 1.198 . S
C2075 C213 1.195 . S
C2080 C681 1.167 . S
C2085 C499 1.164 . S
C2090 C927 1.198 . S
C2095 C695 1.163 . S
C2100 C185 1.198 . S
C2105 C555 1.163 . S
C2110 C899 1.198 . S
C2115 C709 1.166 . S
C2120 C157 1.195 . S
C2125 C913 1.198 . S
C2130 C527 1.165 . S
C2135 C723 1.165 . S
C2140 C129 1.195 . S
C2145 C1067 1.196 . S
C2150 C737 1.167 . S
C2155 C345 1.165 . S
C2160 C1025 1.198 . S
C2165 C1039 1.195 . S
C2170 C751 1.167 . S
C2175 C1053 1.198 . S
C2180 C373 1.164 . S
C2185 C1109 1.195 . S
C2190 C765 1.166 . S
C2195 C429 1.166 . S
C2200 C1081 1.195 . S
C2205 C779 1.165 . S
C2210 C1095 1.198 . S
C2215 C401 1.165 . S
C2220 C1011 1.195 . S
C2225 C793 1.166 . S
C2230 C59 1.198 . S
C2235 C807 1.164 . S
C2240 C3 1.198 . S
C2245 C969 1.197 . S
C2250 C821 1.162 . S
C2255 C835 1.166 . S
C2260 C31 1.195 . S
C2265 C849 1.165 . S
C2270 C955 1.198 . S
C2275 C87 1.198 . S
C2280 C863 1.163 . S
C2285 C877 1.167 . S
C2290 C997 1.196 . S
C2295 C983 1.198 . S
C2300 C891 1.167 . S
C2305 C199 1.198 . S
C2310 C1129 1.164 . S
C2315 C1263 1.195 . S
C2320 C485 1.165 . S
C2325 C1143 1.163 . S
C2330 C171 1.196 . S
C2335 C457 1.167 . S
C2340 C1277 1.197 . S
C2345 C143 1.195 . S
C2350 C1157 1.166 . S
C2355 C1249 1.195 . S
C2360 C513 1.167 . S
C2365 C115 1.195 . S
C2370 C1171 1.166 . S
C2375 C1235 1.195 . S
C2380 C541 1.167 . S
C2385 C857 1.196 . S
C2390 C387 1.167 . S
C2395 C1185 1.165 . S
C2400 C871 1.195 . S
C2405 C787 1.198 . S
C2410 C359 1.166 . S
C2415 C1199 1.164 . S
C2420 C885 1.198 . S
C2425 C829 1.198 . S
C2430 C415 1.165 . S
C2435 C1213 1.164 . S
C2440 C843 1.195 . S
C2445 C443 1.163 . S
C2450 C801 1.196 . S
C2455 C815 1.195 . S
C2460 C1227 1.166 . S
C2465 C1333 1.195 . S
C2470 C1045 1.164 . S
C2475 C1291 1.195 . S
C2480 C1101 1.164 . S
C2485 C1017 1.165 . S
C2490 C17 1.198 . S
C2495 C1305 1.198 . S
C2500 C1115 1.164 . S
C2505 C45 1.195 . S
C2510 C1087 1.163 . S
C2515 C1073 1.164 . S
C2520 C1319 1.198 . S
C2525 C1031 1.165 . S
C2530 C101 1.198 . S
C2535 C1059 1.162 . S
C2540 C73 1.197 . S
C2545 C1297 1.165 . S
C2550 C773 1.195 . S
C2555 C1221 1.198 . S
C2560 C975 1.164 . S
C2565 C1311 1.165 . S
C2570 C759 1.195 . S
C2575 C961 1.164 . S
C2580 C1207 1.195 . S
C2585 C1339 1.166 . S
C2590 C745 1.195 . S
C2595 C989 1.165 . S
C2600 C1193 1.195 . S
C2605 C1325 1.164 . S
C2610 C731 1.195 . S
C2615 C1003 1.164 . S
C2620 C1179 1.198 . S
C2625 C919 1.167 . S
C2630 C297 1.197 . S
C2635 C311 1.196 . S
C2640 C1241 1.163 . S
C2645 C905 1.167 . S
C2650 C227 1.196 . S
C2655 C1255 1.165 . S
C2660 C325 1.195 . S
C2665 C933 1.163 . S
C2670 C269 1.198 . S
C2675 C283 1.198 . S
C2680 C1283 1.164 . S
C2685 C241 1.196 . S
C2690 C947 1.167 . S
C2695 C255 1.198 . S
C2700 C1269 1.164 . S
C2705 C1151 1.198 . S
C2710 C597 1.163 . S
C2715 C653 1.166 . S
C2720 C1123 1.195 . S
C2725 C675 1.197 . S
C2730 C569 1.162 . S
C2735 C667 1.166 . S
C2740 C1137 1.195 . S
C2745 C689 1.198 . S
C2750 C639 1.163 . S
C2755 C1165 1.196 . S
C2760 C625 1.167 . S
C2765 C717 1.196 . S
C2770 C583 1.167 . S
C2775 C703 1.197 . S
C2780 C611 1.167 . S
C2785 C400 1.293 . S
C2790 C8 1.293 . S
C2795 C22 1.292 . S
C2800 C414 1.291 . S
C2805 C428 1.293 . S
C2810 C36 1.293 . S
C2815 C50 1.292 . S
C2820 C442 1.293 . S
C2825 C344 1.293 . S
C2830 C64 1.293 . S
C2835 C358 1.291 . S
C2840 C78 1.291 . S
C2845 C92 1.291 . S
C2850 C372 1.291 . S
C2855 C106 1.292 . S
C2860 C386 1.292 . S
C2865 C540 1.293 . S
C2870 C120 1.293 . S
C2875 C134 1.293 . S
C2880 C554 1.293 . S
C2885 C148 1.293 . S
C2890 C512 1.293 . S
C2895 C526 1.291 . S
C2900 C162 1.291 . S
C2905 C176 1.291 . S
C2910 C484 1.291 . S
C2915 C498 1.291 . S
C2920 C190 1.291 . S
C2925 C456 1.293 . S
C2930 C204 1.293 . S
C2935 C470 1.293 . S
C2940 C218 1.293 . S
C2945 C232 1.293 . S
C2950 C638 1.293 . S
C2955 C610 1.291 . S
C2960 C246 1.291 . S
C2965 C624 1.292 . S
C2970 C260 1.291 . S
C2975 C582 1.291 . S
C2980 C274 1.291 . S
C2985 C288 1.291 . S
C2990 C596 1.291 . S
C2995 C302 1.291 . S
C3000 C568 1.291 . S
C3005 C666 1.293 . S
C3010 C316 1.293 . S
C3015 C330 1.293 . S
C3020 C652 1.292 . S
C3025 C680 1.292 . S
C3030 C932 1.292 . S
C3035 C946 1.291 . S
C3040 C694 1.291 . S
C3045 C904 1.291 . S
C3050 C708 1.291 . S
C3055 C918 1.293 . S
C3060 C722 1.293 . S
C3065 C736 1.291 . S
C3070 C1002 1.291 . S
C3075 C988 1.291 . S
C3080 C750 1.291 . S
C3085 C764 1.292 . S
C3090 C974 1.292 . S
C3095 C778 1.291 . S
C3100 C960 1.291 . S
C3105 C1086 1.291 . S
C3110 C792 1.292 . S
C3115 C806 1.292 . S
C3120 C1058 1.291 . S
C3125 C1072 1.292 . S
C3130 C820 1.292 . S
C3135 C1030 1.292 . S
C3140 C834 1.292 . S
C3145 C1044 1.291 . S
C3150 C848 1.291 . S
C3155 C1016 1.291 . S
C3160 C862 1.291 . S
C3165 C1114 1.291 . S
C3170 C876 1.291 . S
C3175 C1100 1.292 . S
C3180 C890 1.292 . S
C3185 C1128 1.292 . S
C3190 C1268 1.292 . S
C3195 C1282 1.291 . S
C3200 C1142 1.291 . S
C3205 C1156 1.293 . S
C3210 C1240 1.293 . S
C3215 C1254 1.293 . S
C3220 C1170 1.293 . S
C3225 C1184 1.291 . S
C3230 C1338 1.291 . S
C3235 C1198 1.291 . S
C3240 C1324 1.291 . S
C3245 C1310 1.291 . S
C3250 C1212 1.291 . S
C3255 C1226 1.293 . S
C3260 C1296 1.293 . S
