# Generated by pormake.
# Topology umv, (4)-cn, num edge types: 1
# Building blocks:
#     Node 0, Type 0, BuildingBlock: QUQFOY_clean_sbu_1, # of connection points: 4
#     Node 1, Type 0, BuildingBlock: QUQFOY_clean_sbu_1, # of connection points: 4
#     Node 2, Type 0, BuildingBlock: QUQFOY_clean_sbu_1, # of connection points: 4
#     Node 3, Type 0, BuildingBlock: QUQFOY_clean_sbu_1, # of connection points: 4
#     Node 4, Type 0, BuildingBlock: QUQFOY_clean_sbu_1, # of connection points: 4
#     Node 5, Type 0, BuildingBlock: QUQFOY_clean_sbu_1, # of connection points: 4
#     Node 6, Type 0, BuildingBlock: QUQFOY_clean_sbu_1, # of connection points: 4
#     Node 7, Type 0, BuildingBlock: QUQFOY_clean_sbu_1, # of connection points: 4
#     Node 8, Type 0, BuildingBlock: QUQFOY_clean_sbu_1, # of connection points: 4
#     Node 9, Type 0, BuildingBlock: QUQFOY_clean_sbu_1, # of connection points: 4
#     Node 10, Type 0, BuildingBlock: QUQFOY_clean_sbu_1, # of connection points: 4
#     Node 11, Type 0, BuildingBlock: QUQFOY_clean_sbu_1, # of connection points: 4
#     Node 12, Type 0, BuildingBlock: QUQFOY_clean_sbu_1, # of connection points: 4
#     Node 13, Type 0, BuildingBlock: QUQFOY_clean_sbu_1, # of connection points: 4
#     Node 14, Type 0, BuildingBlock: QUQFOY_clean_sbu_1, # of connection points: 4
#     Node 15, Type 0, BuildingBlock: QUQFOY_clean_sbu_1, # of connection points: 4
#     Node 16, Type 0, BuildingBlock: QUQFOY_clean_sbu_1, # of connection points: 4
#     Node 17, Type 0, BuildingBlock: QUQFOY_clean_sbu_1, # of connection points: 4
#     Node 18, Type 0, BuildingBlock: QUQFOY_clean_sbu_1, # of connection points: 4
#     Node 19, Type 0, BuildingBlock: QUQFOY_clean_sbu_1, # of connection points: 4
#     Node 20, Type 0, BuildingBlock: QUQFOY_clean_sbu_1, # of connection points: 4
#     Node 21, Type 0, BuildingBlock: QUQFOY_clean_sbu_1, # of connection points: 4
#     Node 22, Type 0, BuildingBlock: QUQFOY_clean_sbu_1, # of connection points: 4
#     Node 23, Type 0, BuildingBlock: QUQFOY_clean_sbu_1, # of connection points: 4
#     Node 24, Type 0, BuildingBlock: QUQFOY_clean_sbu_1, # of connection points: 4
#     Node 25, Type 0, BuildingBlock: QUQFOY_clean_sbu_1, # of connection points: 4
#     Node 26, Type 0, BuildingBlock: QUQFOY_clean_sbu_1, # of connection points: 4
#     Node 27, Type 0, BuildingBlock: QUQFOY_clean_sbu_1, # of connection points: 4
#     Node 28, Type 0, BuildingBlock: QUQFOY_clean_sbu_1, # of connection points: 4
#     Node 29, Type 0, BuildingBlock: QUQFOY_clean_sbu_1, # of connection points: 4
#     Node 30, Type 0, BuildingBlock: QUQFOY_clean_sbu_1, # of connection points: 4
#     Node 31, Type 0, BuildingBlock: QUQFOY_clean_sbu_1, # of connection points: 4
#     Edge 32, Type (0, 0), BuildingBlock: XIVTED_clean_linker_0, # of connection points: 2
#     Edge 33, Type (0, 0), BuildingBlock: XIVTED_clean_linker_0, # of connection points: 2
#     Edge 34, Type (0, 0), BuildingBlock: XIVTED_clean_linker_0, # of connection points: 2
#     Edge 35, Type (0, 0), BuildingBlock: XIVTED_clean_linker_0, # of connection points: 2
#     Edge 36, Type (0, 0), BuildingBlock: XIVTED_clean_linker_0, # of connection points: 2
#     Edge 37, Type (0, 0), BuildingBlock: XIVTED_clean_linker_0, # of connection points: 2
#     Edge 38, Type (0, 0), BuildingBlock: XIVTED_clean_linker_0, # of connection points: 2
#     Edge 39, Type (0, 0), BuildingBlock: XIVTED_clean_linker_0, # of connection points: 2
#     Edge 40, Type (0, 0), BuildingBlock: XIVTED_clean_linker_0, # of connection points: 2
#     Edge 41, Type (0, 0), BuildingBlock: XIVTED_clean_linker_0, # of connection points: 2
#     Edge 42, Type (0, 0), BuildingBlock: XIVTED_clean_linker_0, # of connection points: 2
#     Edge 43, Type (0, 0), BuildingBlock: XIVTED_clean_linker_0, # of connection points: 2
#     Edge 44, Type (0, 0), BuildingBlock: XIVTED_clean_linker_0, # of connection points: 2
#     Edge 45, Type (0, 0), BuildingBlock: XIVTED_clean_linker_0, # of connection points: 2
#     Edge 46, Type (0, 0), BuildingBlock: XIVTED_clean_linker_0, # of connection points: 2
#     Edge 47, Type (0, 0), BuildingBlock: XIVTED_clean_linker_0, # of connection points: 2
#     Edge 48, Type (0, 0), BuildingBlock: XIVTED_clean_linker_0, # of connection points: 2
#     Edge 49, Type (0, 0), BuildingBlock: XIVTED_clean_linker_0, # of connection points: 2
#     Edge 50, Type (0, 0), BuildingBlock: XIVTED_clean_linker_0, # of connection points: 2
#     Edge 51, Type (0, 0), BuildingBlock: XIVTED_clean_linker_0, # of connection points: 2
#     Edge 52, Type (0, 0), BuildingBlock: XIVTED_clean_linker_0, # of connection points: 2
#     Edge 53, Type (0, 0), BuildingBlock: XIVTED_clean_linker_0, # of connection points: 2
#     Edge 54, Type (0, 0), BuildingBlock: XIVTED_clean_linker_0, # of connection points: 2
#     Edge 55, Type (0, 0), BuildingBlock: XIVTED_clean_linker_0, # of connection points: 2
#     Edge 56, Type (0, 0), BuildingBlock: XIVTED_clean_linker_0, # of connection points: 2
#     Edge 57, Type (0, 0), BuildingBlock: XIVTED_clean_linker_0, # of connection points: 2
#     Edge 58, Type (0, 0), BuildingBlock: XIVTED_clean_linker_0, # of connection points: 2
#     Edge 59, Type (0, 0), BuildingBlock: XIVTED_clean_linker_0, # of connection points: 2
#     Edge 60, Type (0, 0), BuildingBlock: XIVTED_clean_linker_0, # of connection points: 2
#     Edge 61, Type (0, 0), BuildingBlock: XIVTED_clean_linker_0, # of connection points: 2
#     Edge 62, Type (0, 0), BuildingBlock: XIVTED_clean_linker_0, # of connection points: 2
#     Edge 63, Type (0, 0), BuildingBlock: XIVTED_clean_linker_0, # of connection points: 2
#     Edge 64, Type (0, 0), BuildingBlock: XIVTED_clean_linker_0, # of connection points: 2
#     Edge 65, Type (0, 0), BuildingBlock: XIVTED_clean_linker_0, # of connection points: 2
#     Edge 66, Type (0, 0), BuildingBlock: XIVTED_clean_linker_0, # of connection points: 2
#     Edge 67, Type (0, 0), BuildingBlock: XIVTED_clean_linker_0, # of connection points: 2
#     Edge 68, Type (0, 0), BuildingBlock: XIVTED_clean_linker_0, # of connection points: 2
#     Edge 69, Type (0, 0), BuildingBlock: XIVTED_clean_linker_0, # of connection points: 2
#     Edge 70, Type (0, 0), BuildingBlock: XIVTED_clean_linker_0, # of connection points: 2
#     Edge 71, Type (0, 0), BuildingBlock: XIVTED_clean_linker_0, # of connection points: 2
#     Edge 72, Type (0, 0), BuildingBlock: XIVTED_clean_linker_0, # of connection points: 2
#     Edge 73, Type (0, 0), BuildingBlock: XIVTED_clean_linker_0, # of connection points: 2
#     Edge 74, Type (0, 0), BuildingBlock: XIVTED_clean_linker_0, # of connection points: 2
#     Edge 75, Type (0, 0), BuildingBlock: XIVTED_clean_linker_0, # of connection points: 2
#     Edge 76, Type (0, 0), BuildingBlock: XIVTED_clean_linker_0, # of connection points: 2
#     Edge 77, Type (0, 0), BuildingBlock: XIVTED_clean_linker_0, # of connection points: 2
#     Edge 78, Type (0, 0), BuildingBlock: XIVTED_clean_linker_0, # of connection points: 2
#     Edge 79, Type (0, 0), BuildingBlock: XIVTED_clean_linker_0, # of connection points: 2
#     Edge 80, Type (0, 0), BuildingBlock: XIVTED_clean_linker_0, # of connection points: 2
#     Edge 81, Type (0, 0), BuildingBlock: XIVTED_clean_linker_0, # of connection points: 2
#     Edge 82, Type (0, 0), BuildingBlock: XIVTED_clean_linker_0, # of connection points: 2
#     Edge 83, Type (0, 0), BuildingBlock: XIVTED_clean_linker_0, # of connection points: 2
#     Edge 84, Type (0, 0), BuildingBlock: XIVTED_clean_linker_0, # of connection points: 2
#     Edge 85, Type (0, 0), BuildingBlock: XIVTED_clean_linker_0, # of connection points: 2
#     Edge 86, Type (0, 0), BuildingBlock: XIVTED_clean_linker_0, # of connection points: 2
#     Edge 87, Type (0, 0), BuildingBlock: XIVTED_clean_linker_0, # of connection points: 2
#     Edge 88, Type (0, 0), BuildingBlock: XIVTED_clean_linker_0, # of connection points: 2
#     Edge 89, Type (0, 0), BuildingBlock: XIVTED_clean_linker_0, # of connection points: 2
#     Edge 90, Type (0, 0), BuildingBlock: XIVTED_clean_linker_0, # of connection points: 2
#     Edge 91, Type (0, 0), BuildingBlock: XIVTED_clean_linker_0, # of connection points: 2
#     Edge 92, Type (0, 0), BuildingBlock: XIVTED_clean_linker_0, # of connection points: 2
#     Edge 93, Type (0, 0), BuildingBlock: XIVTED_clean_linker_0, # of connection points: 2
#     Edge 94, Type (0, 0), BuildingBlock: XIVTED_clean_linker_0, # of connection points: 2
#     Edge 95, Type (0, 0), BuildingBlock: XIVTED_clean_linker_0, # of connection points: 2
# Relax obj value: 0.046
# Max RMSD: 0.092
# Mean RMSD: 0.092
data_MOF--net-umv--node1-QUQFOY_clean_sbu_1--edge1-XIVTED_clean_linker_0
_symmetry_space_group_name_H-M    P1
_symmetry_Int_Tables_number       1
_symmetry_cell_setting            triclinic
loop_
_symmetry_equiv_pos_as_xyz
'x, y, z'
_cell_length_a     107.03613
_cell_length_b     28.194893
_cell_length_c     64.003541
_cell_angle_alpha  89.999474
_cell_angle_beta   90.020001
_cell_angle_gamma 90.003853
loop_
_atom_site_label
_atom_site_type_symbol
_atom_site_fract_x
_atom_site_fract_y
_atom_site_fract_z
_atom_type_partial_charge
O0 O 0.05335 0.22113 0.32093 0.0
Cd1 Cd 0.05345 0.16624 0.30018 0.0
Cd2 Cd 0.05443 0.11762 0.33703 0.0
O3 O 0.04809 0.18142 0.34924 0.0
O4 O 0.04758 0.1992 0.27456 0.0
O5 O 0.03639 0.145 0.29115 0.0
C6 C 0.03706 0.17761 0.27699 0.0
C7 C 0.04707 0.04433 0.34937 0.0
C8 C 0.04973 0.22062 0.33979 0.0
C9 C 0.07751 0.12252 0.30899 0.0
O10 O 0.07278 0.11614 0.32702 0.0
O11 O 0.07074 0.13726 0.294 0.0
O12 O 0.05409 0.07119 0.36067 0.0
O13 O 0.0437 0.06007 0.33126 0.0
O14 O 0.19488 0.03515 0.31643 0.0
Cd15 Cd 0.1947 0.09119 0.29624 0.0
Cd16 Cd 0.19458 0.13802 0.33274 0.0
O17 O 0.20181 0.07459 0.34374 0.0
O18 O 0.20047 0.06023 0.27014 0.0
O19 O 0.21176 0.1129 0.28757 0.0
C20 C 0.21103 0.08136 0.27294 0.0
C21 C 0.20206 0.21082 0.34528 0.0
C22 C 0.19953 0.03544 0.33465 0.0
C23 C 0.17086 0.13338 0.30649 0.0
O24 O 0.17588 0.13804 0.32441 0.0
O25 O 0.17746 0.12117 0.29089 0.0
O26 O 0.19556 0.18279 0.35689 0.0
O27 O 0.20474 0.19681 0.32659 0.0
O28 O 0.05313 0.03863 0.92371 0.0
Cd29 Cd 0.05435 0.09415 0.94405 0.0
Cd30 Cd 0.05559 0.14069 0.90693 0.0
O31 O 0.04786 0.0786 0.89551 0.0
O32 O 0.04908 0.06199 0.97021 0.0
O33 O 0.03772 0.11703 0.95453 0.0
C34 C 0.03864 0.08441 0.96865 0.0
C35 C 0.04877 0.2146 0.8946 0.0
C36 C 0.0491 0.0394 0.90509 0.0
C37 C 0.07898 0.13127 0.93373 0.0
O38 O 0.07418 0.13747 0.91572 0.0
O39 O 0.07209 0.12007 0.94915 0.0
O40 O 0.05518 0.18623 0.88302 0.0
O41 O 0.04585 0.20044 0.91317 0.0
O42 O 0.19195 0.21593 0.92318 0.0
Cd43 Cd 0.19445 0.16424 0.94508 0.0
Cd44 Cd 0.19644 0.11388 0.91076 0.0
O45 O 0.20294 0.17843 0.89931 0.0
O46 O 0.20049 0.19975 0.96988 0.0
O47 O 0.21224 0.14913 0.95206 0.0
C48 C 0.21134 0.18132 0.9664 0.0
C49 C 0.20481 0.04181 0.89893 0.0
C50 C 0.19792 0.21625 0.90611 0.0
C51 C 0.17228 0.11313 0.93616 0.0
O52 O 0.17756 0.11002 0.91836 0.0
O53 O 0.17852 0.12715 0.95188 0.0
O54 O 0.19819 0.06853 0.88693 0.0
O55 O 0.20719 0.05695 0.91757 0.0
O56 O 0.94594 0.78274 0.67788 0.0
Cd57 Cd 0.94574 0.83977 0.6975 0.0
Cd58 Cd 0.94558 0.88469 0.66084 0.0
O59 O 0.95275 0.82087 0.65014 0.0
O60 O 0.95171 0.81036 0.72382 0.0
O61 O 0.96282 0.86228 0.70565 0.0
C62 C 0.96223 0.83145 0.72059 0.0
C63 C 0.95329 0.95762 0.64894 0.0
C64 C 0.95052 0.78216 0.65962 0.0
C65 C 0.92184 0.88115 0.68689 0.0
O66 O 0.92686 0.88505 0.66894 0.0
O67 O 0.92846 0.86968 0.7026 0.0
O68 O 0.94687 0.93009 0.63697 0.0
O69 O 0.9558 0.94289 0.6676 0.0
O70 O 0.80414 0.96975 0.6753 0.0
Cd71 Cd 0.80453 0.91429 0.69576 0.0
Cd72 Cd 0.80477 0.8663 0.65882 0.0
O73 O 0.79786 0.93005 0.6476 0.0
O74 O 0.7992 0.94656 0.72184 0.0
O75 O 0.78758 0.89331 0.70545 0.0
C76 C 0.78859 0.92543 0.71978 0.0
C77 C 0.79745 0.79424 0.64513 0.0
C78 C 0.79985 0.96924 0.65684 0.0
C79 C 0.82839 0.87093 0.68555 0.0
O80 O 0.82337 0.86523 0.66769 0.0
O81 O 0.82184 0.88475 0.70096 0.0
O82 O 0.8042 0.82278 0.6342 0.0
O83 O 0.79442 0.80728 0.6638 0.0
O84 O 0.94717 0.97187 0.07043 0.0
Cd85 Cd 0.94658 0.91589 0.05024 0.0
Cd86 Cd 0.94591 0.86943 0.08727 0.0
O87 O 0.95306 0.93273 0.09852 0.0
O88 O 0.95198 0.94754 0.02405 0.0
O89 O 0.96347 0.89412 0.04058 0.0
C90 C 0.96254 0.92609 0.02618 0.0
C91 C 0.95318 0.79643 0.09989 0.0
C92 C 0.95132 0.97172 0.08898 0.0
C93 C 0.92243 0.87485 0.06048 0.0
O94 O 0.92731 0.8697 0.07848 0.0
O95 O 0.92915 0.88719 0.04504 0.0
O96 O 0.94662 0.82449 0.11138 0.0
O97 O 0.95607 0.81057 0.0813 0.0
O98 O 0.80525 0.7799 0.06681 0.0
Cd99 Cd 0.80539 0.8375 0.04754 0.0
Cd100 Cd 0.8048 0.88175 0.08413 0.0
O101 O 0.79763 0.81729 0.09414 0.0
O102 O 0.79935 0.80951 0.02097 0.0
O103 O 0.78829 0.8603 0.03987 0.0
C104 C 0.78882 0.83027 0.0246 0.0
C105 C 0.79673 0.95412 0.09598 0.0
C106 C 0.80025 0.77881 0.08474 0.0
C107 C 0.8289 0.8805 0.05903 0.0
O108 O 0.82363 0.88361 0.0768 0.0
O109 O 0.82257 0.86869 0.04304 0.0
O110 O 0.803 0.92654 0.10814 0.0
O111 O 0.79452 0.93964 0.07717 0.0
O112 O 0.05495 0.72524 0.81719 0.0
Cd113 Cd 0.05582 0.66814 0.7977 0.0
Cd114 Cd 0.05565 0.62349 0.83452 0.0
O115 O 0.04787 0.68675 0.84465 0.0
O116 O 0.05009 0.69683 0.77108 0.0
O117 O 0.03902 0.64413 0.78887 0.0
C118 C 0.03964 0.67496 0.77393 0.0
C119 C 0.04833 0.55024 0.84675 0.0
C120 C 0.05003 0.72556 0.8352 0.0
C121 C 0.07978 0.62904 0.80952 0.0
O122 O 0.07448 0.62471 0.82722 0.0
O123 O 0.07337 0.63989 0.79349 0.0
O124 O 0.05439 0.57894 0.85871 0.0
O125 O 0.04595 0.56391 0.82789 0.0
O126 O 0.19323 0.53815 0.82127 0.0
Cd127 Cd 0.19583 0.59415 0.80158 0.0
Cd128 Cd 0.19684 0.63739 0.83741 0.0
O129 O 0.20322 0.57146 0.84742 0.0
O130 O 0.20225 0.56321 0.77592 0.0
O131 O 0.21367 0.61081 0.79584 0.0
C132 C 0.21303 0.58098 0.78051 0.0
C133 C 0.20526 0.70864 0.84991 0.0
C134 C 0.19866 0.53472 0.83879 0.0
C135 C 0.1732 0.64191 0.81103 0.0
O136 O 0.17808 0.64178 0.8292 0.0
O137 O 0.17984 0.63143 0.79524 0.0
O138 O 0.19861 0.68146 0.86169 0.0
O139 O 0.20767 0.69423 0.83117 0.0
O140 O 0.05575 0.53535 0.42953 0.0
Cd141 Cd 0.05566 0.5917 0.4495 0.0
Cd142 Cd 0.05563 0.63811 0.41251 0.0
O143 O 0.04883 0.5735 0.40185 0.0
O144 O 0.04995 0.56075 0.47568 0.0
O145 O 0.0385 0.61252 0.45806 0.0
C146 C 0.03932 0.58121 0.47277 0.0
C147 C 0.04816 0.71007 0.39883 0.0
C148 C 0.05124 0.53478 0.41123 0.0
C149 C 0.07931 0.63545 0.4391 0.0
O150 O 0.07424 0.6398 0.42121 0.0
O151 O 0.07281 0.6226 0.45473 0.0
O152 O 0.05482 0.68143 0.38779 0.0
O153 O 0.04526 0.69708 0.41757 0.0
O154 O 0.19731 0.72161 0.42348 0.0
Cd155 Cd 0.19684 0.66668 0.44424 0.0
Cd156 Cd 0.19596 0.61816 0.40739 0.0
O157 O 0.20286 0.68129 0.39553 0.0
O158 O 0.20221 0.69976 0.47012 0.0
O159 O 0.21375 0.64558 0.4542 0.0
C160 C 0.21277 0.67817 0.46832 0.0
C161 C 0.20304 0.54514 0.39441 0.0
C162 C 0.20121 0.72067 0.40479 0.0
C163 C 0.17268 0.62451 0.43476 0.0
O164 O 0.17746 0.61826 0.41676 0.0
O165 O 0.17945 0.63814 0.44993 0.0
O166 O 0.1963 0.57323 0.38324 0.0
O167 O 0.20621 0.55921 0.41288 0.0
O168 O 0.94517 0.28659 0.17717 0.0
Cd169 Cd 0.94448 0.34367 0.19672 0.0
Cd170 Cd 0.94469 0.38867 0.15992 0.0
O171 O 0.95206 0.32492 0.14955 0.0
O172 O 0.95023 0.31469 0.22328 0.0
O173 O 0.96134 0.36732 0.20553 0.0
C174 C 0.96069 0.33647 0.22045 0.0
C175 C 0.95241 0.46134 0.14771 0.0
C176 C 0.9499 0.28616 0.15903 0.0
C177 C 0.92062 0.38458 0.18518 0.0
O178 O 0.92589 0.38901 0.16745 0.0
O179 O 0.92702 0.37271 0.20109 0.0
O180 O 0.94611 0.43329 0.13579 0.0
O181 O 0.95478 0.44732 0.16652 0.0
O182 O 0.80192 0.46445 0.17309 0.0
Cd183 Cd 0.80281 0.40919 0.19363 0.0
Cd184 Cd 0.80378 0.36179 0.15662 0.0
O185 O 0.79668 0.42464 0.14481 0.0
O186 O 0.79765 0.44207 0.21968 0.0
O187 O 0.78605 0.3876 0.20409 0.0
C188 C 0.78711 0.4203 0.21815 0.0
C189 C 0.79645 0.28827 0.14466 0.0
C190 C 0.79807 0.46382 0.15436 0.0
C191 C 0.82717 0.36897 0.18357 0.0
O192 O 0.82234 0.3627 0.1656 0.0
O193 O 0.82038 0.38176 0.19887 0.0
O194 O 0.80309 0.31561 0.13296 0.0
O195 O 0.79355 0.30338 0.1631 0.0
O196 O 0.94695 0.46726 0.57106 0.0
Cd197 Cd 0.94651 0.41108 0.55098 0.0
Cd198 Cd 0.94605 0.36472 0.58783 0.0
O199 O 0.95305 0.42833 0.59908 0.0
O200 O 0.95217 0.44204 0.52478 0.0
O201 O 0.96349 0.38904 0.54191 0.0
C202 C 0.96271 0.42068 0.52733 0.0
C203 C 0.95361 0.2917 0.59997 0.0
C204 C 0.95116 0.46727 0.58957 0.0
C205 C 0.92247 0.36936 0.56125 0.0
O206 O 0.92743 0.36424 0.57919 0.0
O207 O 0.92912 0.38206 0.54576 0.0
O208 O 0.94703 0.31918 0.61171 0.0
O209 O 0.95636 0.30651 0.58143 0.0
O210 O 0.80461 0.28399 0.56885 0.0
Cd211 Cd 0.80505 0.33976 0.54854 0.0
Cd212 Cd 0.80529 0.3869 0.58492 0.0
O213 O 0.79821 0.32373 0.59644 0.0
O214 O 0.79923 0.30877 0.52246 0.0
O215 O 0.7881 0.36227 0.53965 0.0
C216 C 0.78875 0.33052 0.5251 0.0
C217 C 0.7976 0.46025 0.59635 0.0
C218 C 0.80023 0.2845 0.58725 0.0
C219 C 0.82902 0.38159 0.55878 0.0
O220 O 0.82397 0.38706 0.57662 0.0
O221 O 0.82244 0.36869 0.54324 0.0
O222 O 0.80421 0.4335 0.60836 0.0
O223 O 0.79488 0.44449 0.57794 0.0
O224 O 0.55537 0.22342 0.81765 0.0
Cd225 Cd 0.55571 0.16586 0.79833 0.0
Cd226 Cd 0.55545 0.1217 0.83509 0.0
O227 O 0.54815 0.18576 0.84522 0.0
O228 O 0.54993 0.19437 0.7717 0.0
O229 O 0.5387 0.14303 0.78999 0.0
C230 C 0.53939 0.17334 0.77485 0.0
C231 C 0.54761 0.04927 0.84731 0.0
C232 C 0.55053 0.22432 0.83572 0.0
C233 C 0.57945 0.12435 0.80974 0.0
O234 O 0.57425 0.12093 0.82756 0.0
O235 O 0.57299 0.13559 0.79381 0.0
O236 O 0.55391 0.07726 0.85925 0.0
O237 O 0.54529 0.06325 0.82847 0.0
O238 O 0.69798 0.03947 0.82271 0.0
Cd239 Cd 0.6971 0.09517 0.8024 0.0
Cd240 Cd 0.69651 0.14214 0.83948 0.0
O241 O 0.70366 0.07896 0.85083 0.0
O242 O 0.70231 0.06329 0.77616 0.0
O243 O 0.71385 0.11727 0.79222 0.0
C244 C 0.71284 0.08508 0.77792 0.0
C245 C 0.70379 0.21521 0.85203 0.0
C246 C 0.70206 0.03987 0.84129 0.0
C247 C 0.67292 0.13601 0.81294 0.0
O248 O 0.67789 0.14183 0.83083 0.0
O249 O 0.67956 0.12313 0.79748 0.0
O250 O 0.69725 0.18717 0.86355 0.0
O251 O 0.70666 0.20102 0.83344 0.0
O252 O 0.55336 0.03651 0.42524 0.0
Cd253 Cd 0.55385 0.09249 0.44545 0.0
Cd254 Cd 0.5543 0.13922 0.40889 0.0
O255 O 0.54711 0.07612 0.39752 0.0
O256 O 0.5482 0.06127 0.47157 0.0
O257 O 0.53694 0.11484 0.45465 0.0
C258 C 0.5377 0.08299 0.46915 0.0
C259 C 0.54668 0.21225 0.39697 0.0
C260 C 0.54902 0.03694 0.40681 0.0
C261 C 0.57791 0.13391 0.43528 0.0
O262 O 0.57297 0.13913 0.41733 0.0
O263 O 0.57123 0.12141 0.45075 0.0
O264 O 0.55325 0.18496 0.38513 0.0
O265 O 0.54402 0.19734 0.41554 0.0
O266 O 0.69561 0.22301 0.42706 0.0
Cd267 Cd 0.69514 0.16668 0.44705 0.0
Cd268 Cd 0.69538 0.12014 0.41053 0.0
O269 O 0.70261 0.18374 0.39976 0.0
O270 O 0.70092 0.19663 0.47339 0.0
O271 O 0.71209 0.14391 0.45577 0.0
C272 C 0.71142 0.17509 0.47056 0.0
C273 C 0.70303 0.0476 0.39809 0.0
C274 C 0.70034 0.22282 0.40891 0.0
C275 C 0.6714 0.12418 0.43605 0.0
O276 O 0.67662 0.11939 0.41831 0.0
O277 O 0.67781 0.13696 0.45181 0.0
O278 O 0.69663 0.07564 0.38635 0.0
O279 O 0.70556 0.06154 0.41686 0.0
O280 O 0.44582 0.78342 0.17566 0.0
Cd281 Cd 0.44541 0.83957 0.19575 0.0
Cd282 Cd 0.44563 0.88634 0.15921 0.0
O283 O 0.45266 0.8226 0.14821 0.0
O284 O 0.45102 0.80905 0.22206 0.0
O285 O 0.46237 0.86172 0.20476 0.0
C286 C 0.46157 0.83037 0.21946 0.0
C287 C 0.45345 0.959 0.1472 0.0
C288 C 0.45041 0.78355 0.15741 0.0
C289 C 0.4217 0.88271 0.18486 0.0
O290 O 0.42689 0.88762 0.1671 0.0
O291 O 0.4281 0.86953 0.20055 0.0
O292 O 0.44698 0.93154 0.13529 0.0
O293 O 0.45597 0.94433 0.16587 0.0
O294 O 0.30362 0.97153 0.17518 0.0
Cd295 Cd 0.30414 0.91471 0.19493 0.0
Cd296 Cd 0.30452 0.86954 0.15814 0.0
O297 O 0.29719 0.93294 0.1473 0.0
O298 O 0.29843 0.94456 0.22132 0.0
O299 O 0.28721 0.89192 0.20378 0.0
C300 C 0.28793 0.92305 0.21858 0.0
C301 C 0.29692 0.79637 0.14632 0.0
C302 C 0.29915 0.97179 0.15684 0.0
C303 C 0.3282 0.87412 0.18431 0.0
O304 O 0.32323 0.86981 0.16633 0.0
O305 O 0.32153 0.8856 0.19994 0.0
O306 O 0.30333 0.82391 0.13434 0.0
O307 O 0.29438 0.81118 0.16495 0.0
O308 O 0.44636 0.96992 0.57053 0.0
Cd309 Cd 0.44578 0.91376 0.55044 0.0
Cd310 Cd 0.44577 0.86719 0.587 0.0
O311 O 0.45302 0.93047 0.59802 0.0
O312 O 0.45135 0.94448 0.52417 0.0
O313 O 0.46265 0.89116 0.54119 0.0
C314 C 0.46186 0.92278 0.5266 0.0
C315 C 0.45343 0.79451 0.59926 0.0
C316 C 0.45093 0.96959 0.5888 0.0
C317 C 0.42188 0.87212 0.56126 0.0
O318 O 0.42702 0.86705 0.57907 0.0
O319 O 0.42839 0.88461 0.54558 0.0
O320 O 0.44697 0.82227 0.61104 0.0
O321 O 0.45596 0.80872 0.58054 0.0
O322 O 0.30337 0.78747 0.57263 0.0
Cd323 Cd 0.30431 0.84366 0.55258 0.0
Cd324 Cd 0.30467 0.88983 0.58959 0.0
O325 O 0.29744 0.82652 0.60071 0.0
O326 O 0.29912 0.81265 0.52612 0.0
O327 O 0.2876 0.8663 0.54244 0.0
C328 C 0.28861 0.83457 0.52795 0.0
C329 C 0.29712 0.96305 0.60145 0.0
C330 C 0.29914 0.78756 0.59112 0.0
C331 C 0.32842 0.88442 0.56357 0.0
O332 O 0.32336 0.88975 0.58141 0.0
O333 O 0.32185 0.87189 0.54796 0.0
O334 O 0.30356 0.93551 0.61338 0.0
O335 O 0.2945 0.94821 0.58285 0.0
O336 O 0.55382 0.72149 0.31971 0.0
Cd337 Cd 0.5544 0.6653 0.29964 0.0
Cd338 Cd 0.55424 0.61867 0.33617 0.0
O339 O 0.54705 0.68213 0.34715 0.0
O340 O 0.54883 0.6957 0.27328 0.0
O341 O 0.53751 0.64274 0.29047 0.0
C342 C 0.53831 0.67413 0.27579 0.0
C343 C 0.54646 0.54584 0.34801 0.0
C344 C 0.5492 0.72123 0.33794 0.0
C345 C 0.57821 0.62304 0.31067 0.0
O346 O 0.57301 0.61802 0.32842 0.0
O347 O 0.57179 0.63589 0.29494 0.0
O348 O 0.55287 0.57329 0.36001 0.0
O349 O 0.544 0.56056 0.32933 0.0
O350 O 0.69643 0.53713 0.32114 0.0
Cd351 Cd 0.69578 0.5925 0.30062 0.0
Cd352 Cd 0.69533 0.64015 0.33737 0.0
O353 O 0.70256 0.57724 0.3488 0.0
O354 O 0.701 0.55999 0.27453 0.0
O355 O 0.71264 0.61376 0.29055 0.0
C356 C 0.71159 0.58139 0.27633 0.0
C357 C 0.70271 0.71311 0.34983 0.0
C358 C 0.70073 0.53792 0.33959 0.0
C359 C 0.6717 0.63399 0.31095 0.0
O360 O 0.67667 0.63967 0.32885 0.0
O361 O 0.67836 0.62121 0.29549 0.0
O362 O 0.69614 0.68526 0.36139 0.0
O363 O 0.7055 0.69888 0.33121 0.0
O364 O 0.55276 0.53861 0.92441 0.0
Cd365 Cd 0.55333 0.59424 0.94479 0.0
Cd366 Cd 0.55422 0.6413 0.90778 0.0
O367 O 0.54723 0.57807 0.8962 0.0
O368 O 0.54793 0.562 0.97085 0.0
O369 O 0.53644 0.61577 0.95456 0.0
C370 C 0.53737 0.5835 0.96883 0.0
C371 C 0.54696 0.7143 0.89513 0.0
C372 C 0.54882 0.53899 0.90574 0.0
C373 C 0.57756 0.63546 0.93494 0.0
O374 O 0.57276 0.64113 0.91691 0.0
O375 O 0.57078 0.62265 0.95023 0.0
O376 O 0.55364 0.68646 0.88374 0.0
O377 O 0.54396 0.69998 0.91364 0.0
O378 O 0.69516 0.72484 0.92921 0.0
Cd379 Cd 0.69472 0.66748 0.94861 0.0
Cd380 Cd 0.6952 0.62276 0.91195 0.0
O381 O 0.70255 0.6868 0.90186 0.0
O382 O 0.70066 0.69572 0.97519 0.0
O383 O 0.7117 0.64412 0.95671 0.0
C384 C 0.71114 0.67446 0.97185 0.0
C385 C 0.70305 0.55033 0.89974 0.0
C386 C 0.70012 0.72548 0.91123 0.0
C387 C 0.67106 0.62557 0.937 0.0
O388 O 0.67637 0.62182 0.91929 0.0
O389 O 0.67739 0.63735 0.95299 0.0
O390 O 0.69679 0.57839 0.88777 0.0
O391 O 0.70533 0.56425 0.9186 0.0
O392 O 0.44658 0.2846 0.67626 0.0
Cd393 Cd 0.44626 0.34053 0.69647 0.0
Cd394 Cd 0.44626 0.38775 0.65991 0.0
O395 O 0.45326 0.32412 0.6488 0.0
O396 O 0.45194 0.30961 0.72265 0.0
O397 O 0.46325 0.36242 0.70538 0.0
C398 C 0.46249 0.33087 0.72 0.0
C399 C 0.45392 0.46014 0.64733 0.0
C400 C 0.45109 0.28498 0.65795 0.0
C401 C 0.42249 0.38389 0.68603 0.0
O402 O 0.42757 0.38899 0.66819 0.0
O403 O 0.42899 0.3705 0.70158 0.0
O404 O 0.44734 0.43235 0.63575 0.0
O405 O 0.45661 0.44604 0.66601 0.0
O406 O 0.30402 0.47217 0.67924 0.0
Cd407 Cd 0.30493 0.4149 0.69873 0.0
Cd408 Cd 0.30512 0.37049 0.66173 0.0
O409 O 0.29772 0.43398 0.65116 0.0
O410 O 0.2994 0.44376 0.72543 0.0
O411 O 0.28821 0.39076 0.70803 0.0
C412 C 0.28897 0.42151 0.72298 0.0
C413 C 0.29745 0.2974 0.64997 0.0
C414 C 0.29958 0.47267 0.66088 0.0
C415 C 0.329 0.37515 0.68735 0.0
O416 O 0.32389 0.3708 0.66949 0.0
O417 O 0.32245 0.38646 0.70315 0.0
O418 O 0.30376 0.32505 0.63789 0.0
O419 O 0.29504 0.31207 0.66867 0.0
O420 O 0.44584 0.46839 0.06995 0.0
Cd421 Cd 0.44534 0.41274 0.04957 0.0
Cd422 Cd 0.44505 0.36537 0.08617 0.0
O423 O 0.45214 0.4286 0.09759 0.0
O424 O 0.45074 0.44461 0.02344 0.0
O425 O 0.46226 0.39125 0.03998 0.0
C426 C 0.46132 0.42328 0.02559 0.0
C427 C 0.45277 0.29245 0.09807 0.0
C428 C 0.45019 0.46783 0.08837 0.0
C429 C 0.42136 0.37054 0.05991 0.0
O430 O 0.42637 0.36506 0.07779 0.0
O431 O 0.42796 0.38355 0.04443 0.0
O432 O 0.44617 0.31961 0.10992 0.0
O433 O 0.4554 0.30742 0.07951 0.0
O434 O 0.30249 0.28665 0.06852 0.0
Cd435 Cd 0.30369 0.3434 0.0488 0.0
Cd436 Cd 0.30393 0.38869 0.08588 0.0
O437 O 0.29657 0.32537 0.0967 0.0
O438 O 0.29829 0.31407 0.02208 0.0
O439 O 0.28708 0.36778 0.03896 0.0
C440 C 0.2879 0.33671 0.02415 0.0
C441 C 0.29641 0.46197 0.09772 0.0
C442 C 0.29822 0.28653 0.087 0.0
C443 C 0.32785 0.38293 0.06034 0.0
O444 O 0.32268 0.38823 0.07809 0.0
O445 O 0.32136 0.37087 0.04457 0.0
O446 O 0.30272 0.43417 0.10974 0.0
O447 O 0.2939 0.44734 0.07905 0.0
H448 H 0.09433 0.09375 0.33827 0.0
H449 H 0.15612 0.12731 0.2711 0.0
H450 H 0.09205 0.1419 0.2743 0.0
H451 H 0.1541 0.14458 0.33808 0.0
H452 H 0.13316 0.12209 0.27001 0.0
H453 H 0.11696 0.09756 0.33623 0.0
C454 C 0.09857 0.10469 0.32368 0.0
C455 C 0.09122 0.11806 0.30649 0.0
C456 C 0.13782 0.12739 0.28485 0.0
C457 C 0.11728 0.12276 0.30416 0.0
C458 C 0.15088 0.13051 0.28551 0.0
C459 C 0.15707 0.1362 0.30473 0.0
C460 C 0.131 0.1291 0.30358 0.0
C461 C 0.1498 0.14008 0.3229 0.0
C462 C 0.11152 0.10715 0.32259 0.0
C463 C 0.09734 0.13151 0.28796 0.0
N464 N 0.13721 0.13593 0.32188 0.0
N465 N 0.11006 0.13372 0.28729 0.0
H466 H 0.15623 0.08833 0.90494 0.0
H467 H 0.09319 0.1229 0.96956 0.0
H468 H 0.15691 0.12688 0.97024 0.0
H469 H 0.09624 0.13839 0.90261 0.0
H470 H 0.11603 0.11422 0.97152 0.0
H471 H 0.13354 0.09264 0.90545 0.0
C472 C 0.15162 0.09711 0.9195 0.0
C473 C 0.15854 0.10774 0.93753 0.0
C474 C 0.11164 0.1198 0.95647 0.0
C475 C 0.13244 0.11317 0.93813 0.0
C476 C 0.09864 0.12492 0.95533 0.0
C477 C 0.09276 0.13137 0.93588 0.0
C478 C 0.11873 0.12035 0.93802 0.0
C479 C 0.1003 0.13355 0.91796 0.0
C480 C 0.13864 0.09992 0.91972 0.0
C481 C 0.15196 0.11861 0.95595 0.0
N482 N 0.11284 0.12765 0.91946 0.0
N483 N 0.13925 0.12133 0.95576 0.0
H484 H 0.9071 0.87422 0.72221 0.0
H485 H 0.84495 0.84749 0.65494 0.0
H486 H 0.90508 0.89357 0.65535 0.0
H487 H 0.84327 0.886 0.72021 0.0
H488 H 0.8676 0.85136 0.65648 0.0
H489 H 0.88416 0.86938 0.72328 0.0
C490 C 0.90187 0.87796 0.70783 0.0
C491 C 0.90806 0.88412 0.68864 0.0
C492 C 0.86229 0.85884 0.6705 0.0
C493 C 0.88197 0.87754 0.68976 0.0
C494 C 0.84933 0.8563 0.6697 0.0
C495 C 0.84214 0.86685 0.68744 0.0
C496 C 0.86823 0.87168 0.68921 0.0
C497 C 0.84844 0.87779 0.70613 0.0
C498 C 0.8888 0.87504 0.70846 0.0
C499 C 0.90078 0.88867 0.6705 0.0
N500 N 0.86116 0.88008 0.70653 0.0
N501 N 0.88818 0.88481 0.6715 0.0
H502 H 0.90798 0.88387 0.02492 0.0
H503 H 0.845 0.90064 0.0908 0.0
H504 H 0.90542 0.86011 0.09146 0.0
H505 H 0.84428 0.87035 0.02464 0.0
H506 H 0.86767 0.89823 0.09001 0.0
H507 H 0.88504 0.88776 0.02329 0.0
C508 C 0.90263 0.879 0.03912 0.0
C509 C 0.90866 0.8718 0.05837 0.0
C510 C 0.86257 0.89222 0.07562 0.0
C511 C 0.88257 0.87724 0.05663 0.0
C512 C 0.84959 0.89392 0.07601 0.0
C513 C 0.84267 0.88528 0.05778 0.0
C514 C 0.86879 0.88212 0.05685 0.0
C515 C 0.84923 0.87703 0.03909 0.0
C516 C 0.88956 0.88137 0.03817 0.0
C517 C 0.90124 0.86582 0.07626 0.0
N518 N 0.86196 0.8755 0.0391 0.0
N519 N 0.88864 0.86911 0.07497 0.0
H520 H 0.09602 0.61293 0.84152 0.0
H521 H 0.15871 0.6365 0.77543 0.0
H522 H 0.09509 0.64154 0.77523 0.0
H523 H 0.15632 0.65723 0.84217 0.0
H524 H 0.1358 0.63237 0.77391 0.0
H525 H 0.11864 0.61938 0.84087 0.0
C526 C 0.10057 0.62014 0.82674 0.0
C527 C 0.09359 0.62698 0.80841 0.0
C528 C 0.14034 0.63829 0.78881 0.0
C529 C 0.11964 0.63485 0.80764 0.0
C530 C 0.1534 0.64087 0.7897 0.0
C531 C 0.15948 0.64692 0.80899 0.0
C532 C 0.13339 0.64119 0.80737 0.0
C533 C 0.1521 0.65226 0.82696 0.0
C534 C 0.11351 0.6242 0.82643 0.0
C535 C 0.10009 0.63611 0.78974 0.0
N536 N 0.13949 0.64876 0.82572 0.0
N537 N 0.11278 0.63987 0.78982 0.0
H538 H 0.09434 0.62351 0.47387 0.0
H539 H 0.1556 0.6054 0.40436 0.0
H540 H 0.09577 0.65523 0.40787 0.0
H541 H 0.15832 0.63724 0.47023 0.0
H542 H 0.13301 0.61035 0.40682 0.0
H543 H 0.11731 0.61926 0.47427 0.0
C544 C 0.09945 0.63017 0.45956 0.0
C545 C 0.09308 0.63942 0.44077 0.0
C546 C 0.13853 0.61615 0.42078 0.0
C547 C 0.11919 0.63351 0.4411 0.0
C548 C 0.15146 0.61296 0.41944 0.0
C549 C 0.15893 0.6213 0.43709 0.0
C550 C 0.1329 0.62732 0.43994 0.0
C551 C 0.15293 0.63077 0.4562 0.0
C552 C 0.11253 0.62757 0.45981 0.0
C553 C 0.1002 0.64769 0.42271 0.0
N554 N 0.14023 0.63362 0.45714 0.0
N555 N 0.11282 0.644 0.4233 0.0
H556 H 0.90437 0.40251 0.15337 0.0
H557 H 0.84151 0.38049 0.21912 0.0
H558 H 0.90532 0.3729 0.21957 0.0
H559 H 0.84431 0.35411 0.1528 0.0
H560 H 0.86441 0.38662 0.22079 0.0
H561 H 0.88173 0.39732 0.15415 0.0
C562 C 0.89983 0.39538 0.16816 0.0
C563 C 0.90682 0.38775 0.18642 0.0
C564 C 0.85996 0.37913 0.20596 0.0
C565 C 0.88074 0.38141 0.18733 0.0
C566 C 0.84691 0.37548 0.20498 0.0
C567 C 0.84095 0.36693 0.18577 0.0
C568 C 0.867 0.37494 0.18755 0.0
C569 C 0.84843 0.36084 0.16796 0.0
C570 C 0.88687 0.39207 0.16854 0.0
C571 C 0.90032 0.37884 0.20511 0.0
N572 N 0.86102 0.36542 0.16927 0.0
N573 N 0.88761 0.37578 0.20509 0.0
H574 H 0.90571 0.35001 0.59211 0.0
H575 H 0.84386 0.37065 0.52377 0.0
H576 H 0.90775 0.38184 0.52617 0.0
H577 H 0.84569 0.39794 0.59011 0.0
H578 H 0.86681 0.36564 0.523 0.0
H579 H 0.88309 0.35467 0.59025 0.0
C580 C 0.90142 0.35752 0.57714 0.0
C581 C 0.9087 0.36593 0.55929 0.0
C582 C 0.86213 0.3731 0.53763 0.0
C583 C 0.88264 0.37164 0.55714 0.0
C584 C 0.84906 0.37611 0.53809 0.0
C585 C 0.84281 0.38451 0.55706 0.0
C586 C 0.8689 0.37775 0.55631 0.0
C587 C 0.85003 0.39123 0.57513 0.0
C588 C 0.88846 0.36052 0.57615 0.0
C589 C 0.90251 0.3753 0.54034 0.0
N590 N 0.86264 0.38721 0.57433 0.0
N591 N 0.8898 0.37802 0.53975 0.0
H592 H 0.65613 0.15539 0.84378 0.0
H593 H 0.59451 0.13181 0.77485 0.0
H594 H 0.65822 0.12249 0.77795 0.0
H595 H 0.5959 0.11059 0.84165 0.0
H596 H 0.61746 0.13634 0.77439 0.0
H597 H 0.63351 0.15056 0.84189 0.0
C598 C 0.65185 0.14759 0.82883 0.0
C599 C 0.65914 0.13901 0.81101 0.0
C600 C 0.61268 0.13031 0.78906 0.0
C601 C 0.63308 0.13306 0.80883 0.0
C602 C 0.59961 0.12757 0.78935 0.0
C603 C 0.59324 0.12103 0.80834 0.0
C604 C 0.61934 0.1272 0.80792 0.0
C605 C 0.60034 0.11584 0.82664 0.0
C606 C 0.63889 0.14448 0.82782 0.0
C607 C 0.65297 0.12921 0.79209 0.0
N608 N 0.61296 0.11951 0.82598 0.0
N609 N 0.64026 0.1264 0.79148 0.0
H610 H 0.65513 0.10352 0.4046 0.0
H611 H 0.59242 0.12531 0.47077 0.0
H612 H 0.65617 0.13681 0.47046 0.0
H613 H 0.59486 0.14782 0.40414 0.0
H614 H 0.61535 0.1207 0.47226 0.0
H615 H 0.63247 0.10728 0.40556 0.0
C616 C 0.65061 0.11118 0.41936 0.0
C617 C 0.65762 0.12025 0.43745 0.0
C618 C 0.61081 0.127 0.45739 0.0
C619 C 0.63152 0.12494 0.43857 0.0
C620 C 0.59775 0.12978 0.45652 0.0
C621 C 0.59168 0.1368 0.43728 0.0
C622 C 0.61776 0.13052 0.43886 0.0
C623 C 0.59907 0.14227 0.41933 0.0
C624 C 0.63764 0.11365 0.41984 0.0
C625 C 0.65115 0.12975 0.45612 0.0
N626 N 0.61167 0.13855 0.42054 0.0
N627 N 0.63843 0.13199 0.4562 0.0
H628 H 0.34276 0.88064 0.21983 0.0
H629 H 0.40544 0.90547 0.15367 0.0
H630 H 0.34511 0.86249 0.15293 0.0
H631 H 0.40649 0.86892 0.2192 0.0
H632 H 0.38277 0.90225 0.15466 0.0
H633 H 0.3657 0.8852 0.22128 0.0
C634 C 0.34807 0.87714 0.20551 0.0
C635 C 0.34197 0.87132 0.18622 0.0
C636 C 0.38794 0.89504 0.16886 0.0
C637 C 0.36806 0.87754 0.18777 0.0
C638 C 0.40091 0.89721 0.16837 0.0
C639 C 0.40793 0.88704 0.18635 0.0
C640 C 0.38183 0.88295 0.1875 0.0
C641 C 0.40146 0.87682 0.20494 0.0
C642 C 0.36113 0.87988 0.20636 0.0
C643 C 0.34934 0.86708 0.16817 0.0
N644 N 0.38874 0.87487 0.20503 0.0
N645 N 0.36194 0.87071 0.16938 0.0
H646 H 0.34509 0.90261 0.59473 0.0
H647 H 0.40695 0.88183 0.52632 0.0
H648 H 0.34323 0.87241 0.52864 0.0
H649 H 0.40531 0.85701 0.59286 0.0
H650 H 0.38401 0.88676 0.52565 0.0
H651 H 0.36773 0.89788 0.59305 0.0
C652 C 0.34943 0.89543 0.57978 0.0
C653 C 0.3422 0.88755 0.56182 0.0
C654 C 0.38873 0.87986 0.54031 0.0
C655 C 0.36826 0.88173 0.55986 0.0
C656 C 0.4018 0.87689 0.54071 0.0
C657 C 0.40809 0.86919 0.55969 0.0
C658 C 0.382 0.87582 0.55905 0.0
C659 C 0.40092 0.86314 0.57786 0.0
C660 C 0.36239 0.89238 0.57888 0.0
C661 C 0.34843 0.87855 0.54289 0.0
N662 N 0.38831 0.86705 0.5771 0.0
N663 N 0.36114 0.87577 0.54239 0.0
H664 H 0.65712 0.62465 0.27556 0.0
H665 H 0.59455 0.60303 0.34211 0.0
H666 H 0.6548 0.64819 0.34214 0.0
H667 H 0.59337 0.63547 0.27617 0.0
H668 H 0.61721 0.60707 0.34104 0.0
H669 H 0.63419 0.61974 0.27422 0.0
C670 C 0.65182 0.62928 0.28982 0.0
C671 C 0.65793 0.63668 0.30901 0.0
C672 C 0.61201 0.6132 0.32676 0.0
C673 C 0.63184 0.63006 0.30759 0.0
C674 C 0.59905 0.61055 0.32731 0.0
C675 C 0.592 0.6193 0.30922 0.0
C676 C 0.61809 0.62432 0.30798 0.0
C677 C 0.59843 0.62867 0.29051 0.0
C678 C 0.63877 0.62633 0.28903 0.0
C679 C 0.65057 0.64234 0.32699 0.0
N680 N 0.61115 0.63106 0.29036 0.0
N681 N 0.63796 0.63845 0.32585 0.0
H682 H 0.65494 0.60727 0.90506 0.0
H683 H 0.59188 0.62457 0.97055 0.0
H684 H 0.65566 0.63595 0.97135 0.0
H685 H 0.5947 0.65168 0.9043 0.0
H686 H 0.61481 0.61994 0.97234 0.0
H687 H 0.63228 0.6111 0.90575 0.0
C688 C 0.65034 0.61392 0.91985 0.0
C689 C 0.65727 0.62168 0.93816 0.0
C690 C 0.61034 0.62725 0.9575 0.0
C691 C 0.63117 0.62646 0.93897 0.0
C692 C 0.59729 0.63005 0.95646 0.0
C693 C 0.59132 0.63834 0.93722 0.0
C694 C 0.6174 0.63205 0.93914 0.0
C695 C 0.59882 0.64508 0.91947 0.0
C696 C 0.63737 0.61645 0.92018 0.0
C697 C 0.6507 0.62993 0.95685 0.0
N698 N 0.61141 0.64133 0.92084 0.0
N699 N 0.63798 0.63224 0.95678 0.0
H700 H 0.34383 0.38126 0.72256 0.0
H701 H 0.40603 0.40703 0.65519 0.0
H702 H 0.34567 0.36431 0.65556 0.0
H703 H 0.40752 0.36982 0.72062 0.0
H704 H 0.38337 0.40386 0.6566 0.0
H705 H 0.36677 0.38593 0.72354 0.0
C706 C 0.34903 0.37805 0.70812 0.0
C707 C 0.34279 0.37251 0.68894 0.0
C708 C 0.38863 0.39651 0.67069 0.0
C709 C 0.36888 0.37885 0.68995 0.0
C710 C 0.4016 0.39863 0.66995 0.0
C711 C 0.40874 0.38826 0.68778 0.0
C712 C 0.38265 0.38424 0.68942 0.0
C713 C 0.40239 0.37788 0.70647 0.0
C714 C 0.36209 0.38086 0.7087 0.0
C715 C 0.35002 0.36865 0.67072 0.0
N716 N 0.38967 0.37597 0.70681 0.0
N717 N 0.36263 0.37232 0.67167 0.0
H718 H 0.34433 0.39936 0.09199 0.0
H719 H 0.40667 0.38133 0.02473 0.0
H720 H 0.34292 0.37171 0.02564 0.0
H721 H 0.40456 0.35383 0.09103 0.0
H722 H 0.38374 0.38592 0.02361 0.0
H723 H 0.36696 0.39431 0.09074 0.0
C724 C 0.34877 0.39266 0.07707 0.0
C725 C 0.34166 0.38564 0.0589 0.0
C726 C 0.38835 0.3785 0.03831 0.0
C727 C 0.36773 0.37947 0.05745 0.0
C728 C 0.40142 0.37573 0.03897 0.0
C729 C 0.40758 0.3674 0.05802 0.0
C730 C 0.38148 0.37362 0.05688 0.0
C731 C 0.40028 0.36049 0.07598 0.0
C732 C 0.36172 0.38942 0.07642 0.0
C733 C 0.34803 0.3772 0.04004 0.0
N734 N 0.38766 0.36423 0.07499 0.0
N735 N 0.36074 0.37427 0.03979 0.0
H736 H 0.01268 0.15144 0.28345 0.0
H737 H 0.98502 0.36295 0.21361 0.0
H738 H 0.03556 0.24704 0.24725 0.0
H739 H 0.96232 0.26989 0.25138 0.0
H740 H 0.0037 0.32232 0.22641 0.0
H741 H 0.99406 0.19298 0.27098 0.0
C742 C 0.01379 0.18056 0.27257 0.0
C743 C 0.02572 0.19575 0.26641 0.0
C744 C 0.99464 0.31109 0.23205 0.0
C745 C 0.00445 0.24426 0.25247 0.0
C746 C 0.98397 0.33466 0.22493 0.0
C747 C 0.97206 0.31979 0.23139 0.0
C748 C 0.9934 0.27227 0.24569 0.0
C749 C 0.97129 0.28258 0.24593 0.0
C750 C 0.00316 0.20464 0.26564 0.0
C751 C 0.02656 0.23405 0.25243 0.0
N752 N 0.98179 0.25988 0.25244 0.0
N753 N 0.01609 0.25714 0.24605 0.0
H754 H 0.21237 0.01607 0.24144 0.0
H755 H 0.28657 0.98742 0.25044 0.0
H756 H 0.23551 0.10359 0.28102 0.0
H757 H 0.26347 0.90027 0.21065 0.0
H758 H 0.2679 0.02854 0.26268 0.0
H759 H 0.23102 0.97448 0.22941 0.0
C760 C 0.2214 0.02718 0.24733 0.0
C761 C 0.22236 0.06341 0.2623 0.0
C762 C 0.26689 1.00014 0.25142 0.0
C763 C 0.24376 0.01504 0.24893 0.0
C764 C 0.27755 0.97627 0.24456 0.0
C765 C 0.27661 0.94035 0.22944 0.0
C766 C 0.25518 0.98819 0.24306 0.0
C767 C 0.26465 0.92762 0.22236 0.0
C768 C 0.23204 1.00305 0.24059 0.0
C769 C 0.23431 0.07605 0.26941 0.0
N770 N 0.25442 0.9518 0.22909 0.0
N771 N 0.24453 0.05163 0.26279 0.0
H772 H 0.03784 0.01787 -0.00033 0.0
H773 H 0.96341 0.99254 0.99511 0.0
H774 H 0.01408 0.10866 0.96264 0.0
H775 H 0.98712 0.90274 0.03269 0.0
H776 H 0.9819 0.03395 0.98231 0.0
H777 H 0.01935 0.97673 0.01264 0.0
C778 C 0.02871 0.02979 0.99456 0.0
C779 C 0.02752 0.06679 0.98 0.0
C780 C 0.98308 0.00493 0.99322 0.0
C781 C 0.00629 0.01894 0.99445 0.0
C782 C 0.97252 0.9809 0.00039 0.0
C783 C 0.9737 0.94408 0.01504 0.0
C784 C 0.99493 0.99223 0.00078 0.0
C785 C 0.98576 0.93077 0.02136 0.0
C786 C 0.01815 0.00592 0.00183 0.0
C787 C 0.01545 0.08049 0.9739 0.0
N788 N 0.9959 0.95508 0.01432 0.0
N789 N 0.00531 0.05628 0.98101 0.0
H790 H 0.2124 0.24974 0.99665 0.0
H791 H 0.28686 0.27349 0.99182 0.0
H792 H 0.23592 0.16064 0.95846 0.0
H793 H 0.26344 0.36196 0.03047 0.0
H794 H 0.26822 0.2348 0.97801 0.0
H795 H 0.23094 0.29158 0.00904 0.0
C796 C 0.22148 0.23848 0.99108 0.0
C797 C 0.22259 0.2015 0.9765 0.0
C798 C 0.26713 0.263 0.98935 0.0
C799 C 0.24388 0.25003 0.99034 0.0
C800 C 0.27778 0.28546 0.99712 0.0
C801 C 0.27673 0.32098 0.0124 0.0
C802 C 0.25531 0.27594 0.99696 0.0
C803 C 0.26471 0.33485 0.01868 0.0
C804 C 0.23206 0.26271 -0.00196 0.0
C805 C 0.23461 0.18875 0.96977 0.0
N806 N 0.25448 0.31199 0.01109 0.0
N807 N 0.24478 0.21312 0.97666 0.0
H808 H 0.96391 0.76725 0.75248 0.0
H809 H 0.03804 0.73876 0.74187 0.0
H810 H 0.98662 0.8536 0.71175 0.0
H811 H 0.01526 0.65176 0.78221 0.0
H812 H 0.01925 0.77953 0.72986 0.0
H813 H 0.98269 0.72602 0.76421 0.0
C814 C 0.97287 0.7782 0.74628 0.0
C815 C 0.97367 0.81397 0.73107 0.0
C816 C 0.01834 0.75122 0.74119 0.0
C817 C 0.99521 0.76598 0.7441 0.0
C818 C 0.02906 0.72754 0.74791 0.0
C819 C 0.02825 0.69178 0.76313 0.0
C820 C 0.00669 0.73926 0.74979 0.0
C821 C 0.01635 0.67897 0.77042 0.0
C822 C 0.98359 0.75426 0.75285 0.0
C823 C 0.98555 0.8264 0.72355 0.0
N824 N 0.00606 0.70299 0.76383 0.0
N825 N 0.99584 0.80218 0.73002 0.0
H826 H 0.7135 0.01885 0.74675 0.0
H827 H 0.78791 0.99213 0.75076 0.0
H828 H 0.73745 0.10859 0.78393 0.0
H829 H 0.76397 0.90264 0.71344 0.0
H830 H 0.76951 0.03388 0.76371 0.0
H831 H 0.73191 0.9775 0.73359 0.0
C832 C 0.72265 0.03049 0.75186 0.0
C833 C 0.72392 0.06726 0.76652 0.0
C834 C 0.76825 0.00486 0.75283 0.0
C835 C 0.74506 0.01917 0.75185 0.0
C836 C 0.77876 0.98064 0.74556 0.0
C837 C 0.77749 0.94379 0.73095 0.0
C838 C 0.75636 0.99232 0.74539 0.0
C839 C 0.7654 0.93069 0.72474 0.0
C840 C 0.73316 0.0065 0.74448 0.0
C841 C 0.73602 0.08059 0.77261 0.0
N842 N 0.75531 0.95517 0.73187 0.0
N843 N 0.74611 0.05629 0.76538 0.0
H844 H 0.71294 0.7376 0.00415 0.0
H845 H 0.78697 0.76727 0.99226 0.0
H846 H 0.73549 0.65214 0.96282 0.0
H847 H 0.76449 0.85203 0.03397 0.0
H848 H 0.76814 0.72635 0.98057 0.0
H849 H 0.73177 0.77836 0.01596 0.0
C850 C 0.72188 0.72672 -0.00216 0.0
C851 C 0.72261 0.69138 0.98243 0.0
C852 C 0.7673 0.75418 0.99214 0.0
C853 C 0.74422 0.73886 0.99554 0.0
C854 C 0.77804 0.77795 -0.00131 0.0
C855 C 0.77733 0.81316 0.01416 0.0
C856 C 0.75572 0.76551 0.00117 0.0
C857 C 0.76549 0.82526 0.02196 0.0
C858 C 0.73263 0.7504 0.00445 0.0
C859 C 0.73446 0.67902 0.97478 0.0
N860 N 0.75517 0.80121 0.01551 0.0
N861 N 0.74478 0.70301 0.98128 0.0
H862 H 0.23746 0.6017 0.78976 0.0
H863 H 0.26459 0.39555 0.71639 0.0
H864 H 0.21463 0.51483 0.7494 0.0
H865 H 0.28766 0.48593 0.75482 0.0
H866 H 0.24605 0.43562 0.73001 0.0
H867 H 0.25597 0.5593 0.77743 0.0
C868 C 0.23635 0.57428 0.77805 0.0
C869 C 0.22446 0.56188 0.7706 0.0
C870 C 0.25517 0.44637 0.73562 0.0
C871 C 0.24559 0.51239 0.75678 0.0
C872 C 0.26576 0.4231 0.72803 0.0
C873 C 0.27772 0.43749 0.73441 0.0
C874 C 0.25654 0.48434 0.74968 0.0
C875 C 0.27864 0.47371 0.7494 0.0
C876 C 0.24692 0.54973 0.77117 0.0
C877 C 0.2236 0.5257 0.75557 0.0
N878 N 0.26821 0.49614 0.75639 0.0
N879 N 0.234 0.50208 0.74926 0.0
H880 H 0.03813 0.51536 0.50409 0.0
H881 H 0.96391 0.4859 0.49579 0.0
H882 H 0.01478 0.60294 0.46489 0.0
H883 H 0.98723 0.39823 0.53499 0.0
H884 H 0.9825 0.52746 0.4835 0.0
H885 H 0.01956 0.47333 0.51618 0.0
C886 C 0.02907 0.52639 0.4983 0.0
C887 C 0.02803 0.56279 0.48341 0.0
C888 C 0.98358 0.49886 0.49464 0.0
C889 C 0.00672 0.51391 0.49688 0.0
C890 C 0.97297 0.47474 0.50153 0.0
C891 C 0.97399 0.4385 0.51649 0.0
C892 C 0.99534 0.48686 0.50281 0.0
C893 C 0.98598 0.4258 0.5234 0.0
C894 C 0.01848 0.502 0.50508 0.0
C895 C 0.01604 0.57527 0.47642 0.0
N896 N 0.99617 0.45022 0.51665 0.0
N897 N 0.00587 0.55063 0.48309 0.0
H898 H 0.21345 0.74498 0.49924 0.0
H899 H 0.28793 0.76912 0.49646 0.0
H900 H 0.23738 0.65466 0.46232 0.0
H901 H 0.26403 0.85873 0.53375 0.0
H902 H 0.26949 0.72869 0.48287 0.0
H903 H 0.23188 0.78604 0.51253 0.0
C904 C 0.2226 0.73318 0.4942 0.0
C905 C 0.22386 0.69628 0.47961 0.0
C906 C 0.26826 0.75747 0.49388 0.0
C907 C 0.24502 0.74401 0.49444 0.0
C908 C 0.27879 0.78093 0.50151 0.0
C909 C 0.27754 0.81737 0.51633 0.0
C910 C 0.25636 0.77035 0.50115 0.0
C911 C 0.26545 0.83097 0.52232 0.0
C912 C 0.23312 0.75699 0.50166 0.0
C913 C 0.23595 0.68275 0.4736 0.0
N914 N 0.25533 0.80718 0.51484 0.0
N915 N 0.24606 0.70685 0.48091 0.0
H916 H 0.78657 0.48753 0.2489 0.0
H917 H 0.71217 0.51446 0.24546 0.0
H918 H 0.76246 0.39686 0.21245 0.0
H919 H 0.73623 0.60441 0.28233 0.0
H920 H 0.73052 0.47254 0.23244 0.0
H921 H 0.76823 0.52941 0.26198 0.0
C922 C 0.7774 0.47581 0.24393 0.0
C923 C 0.77607 0.4386 0.22951 0.0
C924 C 0.73181 0.5017 0.24324 0.0
C925 C 0.755 0.48727 0.24409 0.0
C926 C 0.72133 0.52602 0.25054 0.0
C927 C 0.72264 0.56303 0.26506 0.0
C928 C 0.74372 0.51431 0.25054 0.0
C929 C 0.73476 0.57624 0.27111 0.0
C930 C 0.76693 0.50009 0.25127 0.0
C931 C 0.76395 0.42518 0.2236 0.0
N932 N 0.74482 0.55164 0.26395 0.0
N933 N 0.75389 0.44977 0.23078 0.0
H934 H 0.78725 0.26501 0.4937 0.0
H935 H 0.71293 0.24007 0.50217 0.0
H936 H 0.76433 0.35418 0.53288 0.0
H937 H 0.73583 0.15145 0.46272 0.0
H938 H 0.73171 0.28059 0.51439 0.0
H939 H 0.76849 0.22435 0.48155 0.0
C940 C 0.77825 0.27668 0.49947 0.0
C941 C 0.77738 0.31309 0.51437 0.0
C942 C 0.73265 0.25201 0.5032 0.0
C943 C 0.75584 0.26578 0.50086 0.0
C944 C 0.72193 0.22848 0.49636 0.0
C945 C 0.72279 0.19229 0.48135 0.0
C946 C 0.74434 0.23944 0.49494 0.0
C947 C 0.73471 0.17901 0.47434 0.0
C948 C 0.76754 0.25308 0.49266 0.0
C949 C 0.76546 0.32646 0.52133 0.0
N950 N 0.74501 0.20285 0.48106 0.0
N951 N 0.75516 0.30254 0.51464 0.0
H952 H 0.46376 0.2657 0.75157 0.0
H953 H 0.53794 0.23652 0.74255 0.0
H954 H 0.48697 0.3533 0.71217 0.0
H955 H 0.51495 0.15129 0.78329 0.0
H956 H 0.51926 0.27747 0.73025 0.0
H957 H 0.4824 0.22427 0.7638 0.0
C958 C 0.4728 0.27686 0.74577 0.0
C959 C 0.47378 0.31305 0.73078 0.0
C960 C 0.51827 0.24953 0.74174 0.0
C961 C 0.49517 0.26487 0.74438 0.0
C962 C 0.52893 0.22574 0.74863 0.0
C963 C 0.52803 0.19042 0.76403 0.0
C964 C 0.50659 0.23808 0.75033 0.0
C965 C 0.5161 0.17817 0.77136 0.0
C966 C 0.48344 0.25283 0.75262 0.0
C967 C 0.48575 0.32577 0.72378 0.0
N968 N 0.50586 0.20224 0.76458 0.0
N969 N 0.49596 0.30143 0.73051 0.0
H970 H 0.48627 0.8968 0.53292 0.0
H971 H 0.51329 0.10881 0.46272 0.0
H972 H 0.46317 0.99044 0.49609 0.0
H973 H 0.53637 0.01516 0.49958 0.0
H974 H 0.49475 0.06726 0.47553 0.0
H975 H 0.5048 0.93824 0.52005 0.0
C976 C 0.4851 0.92542 0.5218 0.0
C977 C 0.47313 0.94018 0.51562 0.0
C978 C 0.50387 0.05607 0.48096 0.0
C979 C 0.49429 0.98861 0.50123 0.0
C980 C 0.51446 0.08017 0.47383 0.0
C981 C 0.52642 0.06544 0.48005 0.0
C982 C 0.50525 0.0169 0.49435 0.0
C983 C 0.52735 0.02776 0.49433 0.0
C984 C 0.49568 0.94945 0.51463 0.0
C985 C 0.4722 0.97782 0.50131 0.0
N986 N 0.51692 0.0046 0.50087 0.0
N987 N 0.48262 1.00094 0.49474 0.0
H988 H 0.46277 0.76525 0.25104 0.0
H989 H 0.53711 0.73908 0.24413 0.0
H990 H 0.48606 0.85344 0.21205 0.0
H991 H 0.51382 0.65082 0.28309 0.0
H992 H 0.51848 0.77981 0.23147 0.0
H993 H 0.4814 0.72438 0.26364 0.0
C994 C 0.47182 0.77666 0.24541 0.0
C995 C 0.47284 0.81285 0.23042 0.0
C996 C 0.51742 0.75126 0.24265 0.0
C997 C 0.49423 0.76531 0.24445 0.0
C998 C 0.52806 0.72762 0.24974 0.0
C999 C 0.52705 0.69146 0.26474 0.0
C1000 C 0.50565 0.73884 0.25064 0.0
C1001 C 0.51505 0.67834 0.27148 0.0
C1002 C 0.48246 0.75294 0.25247 0.0
C1003 C 0.48483 0.8259 0.22365 0.0
N1004 N 0.50484 0.70229 0.26452 0.0
N1005 N 0.49504 0.80188 0.23058 0.0
H1006 H 0.46217 0.48966 0.9945 0.0
H1007 H 0.53654 0.51685 -0.00018 0.0
H1008 H 0.48591 0.40034 0.03225 0.0
H1009 H 0.51278 0.6066 0.96231 0.0
H1010 H 0.51807 0.47514 0.01254 0.0
H1011 H 0.48064 0.53135 0.98179 0.0
C1012 C 0.47129 0.47819 -0.00017 0.0
C1013 C 0.47247 0.44142 0.01451 0.0
C1014 C 0.51688 0.50422 0.00167 0.0
C1015 C 0.49368 0.48988 0.00035 0.0
C1016 C 0.52742 0.52841 0.99454 0.0
C1017 C 0.52622 0.56531 0.97993 0.0
C1018 C 0.50502 0.51682 0.9941 0.0
C1019 C 0.51416 0.57852 0.97361 0.0
C1020 C 0.48184 0.50237 0.99271 0.0
C1021 C 0.48454 0.42832 0.0209 0.0
N1022 N 0.50403 0.55404 0.9806 0.0
N1023 N 0.49466 0.45279 0.01391 0.0
H1024 H 0.05144 0.4475 0.42952 0.0
H1025 H 0.04738 0.30765 0.32183 0.0
H1026 H 0.04597 0.51638 0.36995 0.0
H1027 H 0.04762 0.23815 0.38194 0.0
H1028 H 0.04591 0.3841 0.33928 0.0
H1029 H 0.04917 0.37071 0.41256 0.0
C1030 C 0.04972 0.44651 0.41284 0.0
C1031 C 0.04903 0.48849 0.40107 0.0
C1032 C 0.04618 0.35219 0.34869 0.0
C1033 C 0.04643 0.40038 0.38156 0.0
C1034 C 0.04706 0.30844 0.33874 0.0
C1035 C 0.04776 0.26642 0.35048 0.0
C1036 C 0.04612 0.35416 0.37057 0.0
C1037 C 0.04715 0.26966 0.37231 0.0
C1038 C 0.04838 0.40256 0.4032 0.0
C1039 C 0.04663 0.48494 0.3796 0.0
N1040 N 0.0465 0.31289 0.38167 0.0
N1041 N 0.04553 0.44158 0.37048 0.0
H1042 H 0.20439 0.7365 0.36275 0.0
H1043 H 0.20528 0.01917 0.37588 0.0
H1044 H 0.20306 0.80844 0.42228 0.0
H1045 H 0.19953 0.94746 0.31703 0.0
H1046 H 0.20792 0.94193 0.39283 0.0
H1047 H 0.20611 0.81365 0.34537 0.0
C1048 C 0.20458 0.76843 0.37216 0.0
C1049 C 0.20341 0.76611 0.39395 0.0
C1050 C 0.20615 0.94322 0.37618 0.0
C1051 C 0.20537 0.85419 0.37426 0.0
C1052 C 0.20466 0.98726 0.36652 0.0
C1053 C 0.20202 0.98972 0.34509 0.0
C1054 C 0.20506 0.90149 0.36428 0.0
C1055 C 0.20139 0.94723 0.33366 0.0
C1056 C 0.20552 0.81242 0.36225 0.0
C1057 C 0.20376 0.8086 0.4054 0.0
N1058 N 0.20283 0.90489 0.34342 0.0
N1059 N 0.20464 0.85087 0.39542 0.0
H1060 H 0.04573 0.95336 0.92351 0.0
H1061 H 0.04919 0.81209 0.81634 0.0
H1062 H 0.04619 0.0217 0.86314 0.0
H1063 H 0.04435 0.74413 0.87626 0.0
H1064 H 0.04637 0.88901 0.83294 0.0
H1065 H 0.04342 0.87683 0.90635 0.0
C1066 C 0.04526 0.95229 0.90661 0.0
C1067 C 0.04634 0.99391 0.8947 0.0
C1068 C 0.04581 0.85732 0.84246 0.0
C1069 C 0.04375 0.90619 0.87495 0.0
C1070 C 0.04746 0.81332 0.83301 0.0
C1071 C 0.04718 0.77164 0.84502 0.0
C1072 C 0.04397 0.85982 0.86412 0.0
C1073 C 0.04473 0.77539 0.86646 0.0
C1074 C 0.0439 0.90852 0.89683 0.0
C1075 C 0.04548 0.99045 0.8729 0.0
N1076 N 0.04336 0.81883 0.87538 0.0
N1077 N 0.04439 0.94719 0.8637 0.0
H1078 H 0.21668 0.49922 0.86522 0.0
H1079 H 0.17844 0.27205 0.89618 0.0
H1080 H 0.18182 0.46383 0.83508 0.0
H1081 H 0.21844 0.26137 0.88993 0.0
H1082 H 0.17911 0.34992 0.87937 0.0
H1083 H 0.21724 0.41874 0.88041 0.0
C1084 C 0.20914 0.47466 0.86194 0.0
C1085 C 0.19918 0.48795 0.84895 0.0
C1086 C 0.18773 0.33038 0.88154 0.0
C1087 C 0.19973 0.39721 0.8662 0.0
C1088 C 0.18735 0.28613 0.89106 0.0
C1089 C 0.19838 0.26049 0.89414 0.0
C1090 C 0.19927 0.34967 0.87565 0.0
C1091 C 0.20973 0.28013 0.88747 0.0
C1092 C 0.20954 0.42889 0.87039 0.0
C1093 C 0.18969 0.45488 0.84497 0.0
N1094 N 0.20993 0.32415 0.87871 0.0
N1095 N 0.19013 0.41121 0.85373 0.0
H1096 H 0.95121 0.69541 0.67831 0.0
H1097 H 0.9531 0.55387 0.57105 0.0
H1098 H 0.95539 0.76343 0.61827 0.0
H1099 H 0.95459 0.48555 0.63137 0.0
H1100 H 0.95511 0.63066 0.58808 0.0
H1101 H 0.95357 0.61844 0.66154 0.0
C1102 C 0.95268 0.69418 0.66157 0.0
C1103 C 0.95295 0.73592 0.64961 0.0
C1104 C 0.9551 0.59893 0.59761 0.0
C1105 C 0.95563 0.64768 0.63031 0.0
C1106 C 0.95391 0.555 0.58791 0.0
C1107 C 0.95351 0.51325 0.59985 0.0
C1108 C 0.95578 0.6013 0.61946 0.0
C1109 C 0.95478 0.51687 0.62159 0.0
C1110 C 0.95408 0.65015 0.65203 0.0
C1111 C 0.95505 0.73214 0.62806 0.0
N1112 N 0.95572 0.56025 0.63074 0.0
N1113 N 0.95618 0.68869 0.61905 0.0
H1114 H 0.79549 0.98563 0.61515 0.0
H1115 H 0.79549 0.26816 0.62884 0.0
H1116 H 0.7988 0.05693 0.67461 0.0
H1117 H 0.79935 0.1968 0.56948 0.0
H1118 H 0.79314 0.19083 0.64585 0.0
H1119 H 0.79334 0.06297 0.59808 0.0
C1120 C 0.79565 0.01746 0.62461 0.0
C1121 C 0.7975 0.01489 0.64627 0.0
C1122 C 0.79443 0.19223 0.62908 0.0
C1123 C 0.79504 0.1032 0.62695 0.0
C1124 C 0.79574 0.23632 0.61938 0.0
C1125 C 0.79779 0.23887 0.59778 0.0
C1126 C 0.7951 0.15058 0.61704 0.0
C1127 C 0.79797 0.19648 0.58624 0.0
C1128 C 0.79446 0.06156 0.61489 0.0
C1129 C 0.79759 0.05727 0.65782 0.0
N1130 N 0.79672 0.1541 0.59603 0.0
N1131 N 0.79645 0.09966 0.648 0.0
H1132 H 0.95064 0.19944 0.17775 0.0
H1133 H 0.95366 0.05822 0.07051 0.0
H1134 H 0.95524 0.26763 0.11783 0.0
H1135 H 0.95445 0.98982 0.13085 0.0
H1136 H 0.95561 0.13496 0.08762 0.0
H1137 H 0.95333 0.12257 0.16104 0.0
C1138 C 0.95228 0.19827 0.16106 0.0
C1139 C 0.95255 0.24002 0.1491 0.0
C1140 C 0.95547 0.10322 0.09714 0.0
C1141 C 0.95562 0.15189 0.12987 0.0
C1142 C 0.95432 0.05933 0.08739 0.0
C1143 C 0.95372 0.01758 0.09932 0.0
C1144 C 0.9559 0.10555 0.11901 0.0
C1145 C 0.9548 0.02114 0.12109 0.0
C1146 C 0.95386 0.1543 0.15155 0.0
C1147 C 0.95488 0.23633 0.12761 0.0
N1148 N 0.95568 0.06449 0.13027 0.0
N1149 N 0.95619 0.19293 0.11863 0.0
H1150 H 0.79457 0.54992 0.17262 0.0
H1151 H 0.80077 0.69206 0.06598 0.0
H1152 H 0.7962 0.48182 0.11227 0.0
H1153 H 0.79377 0.75951 0.12541 0.0
H1154 H 0.79789 0.6149 0.08234 0.0
H1155 H 0.7929 0.62663 0.15541 0.0
C1156 C 0.79449 0.55109 0.1557 0.0
C1157 C 0.79569 0.50946 0.14383 0.0
C1158 C 0.79688 0.64652 0.0918 0.0
C1159 C 0.79386 0.5974 0.12402 0.0
C1160 C 0.79858 0.69067 0.0825 0.0
C1161 C 0.79766 0.73233 0.09443 0.0
C1162 C 0.79436 0.64384 0.11326 0.0
C1163 C 0.79464 0.72831 0.11567 0.0
C1164 C 0.7935 0.59496 0.14589 0.0
C1165 C 0.79536 0.51307 0.12199 0.0
N1166 N 0.79322 0.68476 0.12446 0.0
N1167 N 0.79463 0.55642 0.11277 0.0
H1168 H 0.55061 0.31113 0.817 0.0
H1169 H 0.54594 0.45257 0.92404 0.0
H1170 H 0.54458 0.24327 0.87663 0.0
H1171 H 0.54643 0.52106 0.86371 0.0
H1172 H 0.54417 0.37591 0.90681 0.0
H1173 H 0.54792 0.38818 0.83357 0.0
C1174 C 0.54867 0.31241 0.8336 0.0
C1175 C 0.54797 0.27068 0.84552 0.0
C1176 C 0.54455 0.40766 0.89731 0.0
C1177 C 0.5449 0.359 0.86459 0.0
C1178 C 0.5456 0.4515 0.90713 0.0
C1179 C 0.5465 0.49324 0.89526 0.0
C1180 C 0.54453 0.40536 0.87543 0.0
C1181 C 0.54583 0.48974 0.87344 0.0
C1182 C 0.54708 0.35649 0.84302 0.0
C1183 C 0.54527 0.27454 0.86688 0.0
N1184 N 0.54503 0.44642 0.8642 0.0
N1185 N 0.54395 0.31801 0.87579 0.0
H1186 H 0.70036 0.81225 0.92996 0.0
H1187 H 0.70488 0.9535 0.82291 0.0
H1188 H 0.70607 0.74415 0.87029 0.0
H1189 H 0.70476 0.02194 0.88326 0.0
H1190 H 0.70671 0.8768 0.8401 0.0
H1191 H 0.70325 0.88917 0.91338 0.0
C1192 C 0.70227 0.81345 0.91335 0.0
C1193 C 0.70281 0.77171 0.90141 0.0
C1194 C 0.7064 0.90855 0.84961 0.0
C1195 C 0.70611 0.85989 0.88234 0.0
C1196 C 0.70532 0.95241 0.83982 0.0
C1197 C 0.7045 0.99414 0.85171 0.0
C1198 C 0.70653 0.90623 0.87149 0.0
C1199 C 0.70529 0.99062 0.87351 0.0
C1200 C 0.70398 0.85746 0.90392 0.0
C1201 C 0.7055 0.77544 0.88004 0.0
N1202 N 0.70611 0.94729 0.88273 0.0
N1203 N 0.70691 0.81887 0.87113 0.0
H1204 H 0.54413 0.738 0.37937 0.0
H1205 H 0.54458 0.02034 0.36516 0.0
H1206 H 0.54846 0.80872 0.31995 0.0
H1207 H 0.54777 0.94949 0.42475 0.0
H1208 H 0.54226 0.94291 0.34824 0.0
H1209 H 0.54172 0.81552 0.39618 0.0
C1210 C 0.54446 0.76975 0.36985 0.0
C1211 C 0.54667 0.76697 0.3483 0.0
C1212 C 0.54339 0.94444 0.36504 0.0
C1213 C 0.54392 0.85546 0.36734 0.0
C1214 C 0.54468 0.98859 0.37469 0.0
C1215 C 0.54654 0.99129 0.39633 0.0
C1216 C 0.54389 0.9029 0.37717 0.0
C1217 C 0.54654 0.94903 0.40796 0.0
C1218 C 0.54312 0.81394 0.37944 0.0
C1219 C 0.54696 0.80923 0.33668 0.0
N1220 N 0.54531 0.90659 0.39822 0.0
N1221 N 0.54567 0.85172 0.34636 0.0
H1222 H 0.70582 0.23942 0.36763 0.0
H1223 H 0.70485 0.52184 0.38137 0.0
H1224 H 0.70071 0.31048 0.42679 0.0
H1225 H 0.70235 0.45039 0.32183 0.0
H1226 H 0.70711 0.44459 0.39849 0.0
H1227 H 0.70831 0.31685 0.35078 0.0
C1228 C 0.70533 0.27123 0.37709 0.0
C1229 C 0.70288 0.26856 0.39857 0.0
C1230 C 0.70615 0.44596 0.38166 0.0
C1231 C 0.70574 0.35695 0.37949 0.0
C1232 C 0.7049 0.49 0.3719 0.0
C1233 C 0.70323 0.49246 0.3502 0.0
C1234 C 0.70582 0.40431 0.36959 0.0
C1235 C 0.70342 0.45011 0.33865 0.0
C1236 C 0.70673 0.31537 0.36748 0.0
C1237 C 0.7024 0.3109 0.41012 0.0
N1238 N 0.7046 0.40778 0.3485 0.0
N1239 N 0.70374 0.35334 0.40042 0.0
H1240 H 0.45455 0.48427 0.13006 0.0
H1241 H 0.45544 0.76667 0.11597 0.0
H1242 H 0.4515 0.55533 0.0705 0.0
H1243 H 0.45092 0.69598 0.17535 0.0
H1244 H 0.45768 0.68911 0.09914 0.0
H1245 H 0.4569 0.56165 0.14704 0.0
C1246 C 0.45449 0.51606 0.12055 0.0
C1247 C 0.45266 0.51343 0.0989 0.0
C1248 C 0.45627 0.6907 0.11588 0.0
C1249 C 0.45534 0.60175 0.11812 0.0
C1250 C 0.45503 0.73492 0.12548 0.0
C1251 C 0.45282 0.73773 0.14703 0.0
C1252 C 0.45538 0.64918 0.12796 0.0
C1253 C 0.45242 0.69546 0.15863 0.0
C1254 C 0.45579 0.56017 0.13023 0.0
C1255 C 0.4527 0.55573 0.08729 0.0
N1256 N 0.45362 0.65294 0.14894 0.0
N1257 N 0.45395 0.59813 0.09706 0.0
H1258 H 0.29783 0.0584 0.17555 0.0
H1259 H 0.29618 0.20009 0.06829 0.0
H1260 H 0.2945 0.99026 0.11538 0.0
H1261 H 0.2945 0.26801 0.12868 0.0
H1262 H 0.29411 0.12317 0.08522 0.0
H1263 H 0.29522 0.13521 0.15876 0.0
C1264 C 0.29649 0.05957 0.15877 0.0
C1265 C 0.29654 0.01785 0.14679 0.0
C1266 C 0.29408 0.15485 0.09478 0.0
C1267 C 0.29358 0.10594 0.12746 0.0
C1268 C 0.2953 0.19885 0.08514 0.0
C1269 C 0.29568 0.24052 0.09714 0.0
C1270 C 0.29336 0.15235 0.11663 0.0
C1271 C 0.29432 0.23677 0.11886 0.0
C1272 C 0.29495 0.10351 0.14922 0.0
C1273 C 0.29459 0.02154 0.12519 0.0
N1274 N 0.29336 0.19334 0.12794 0.0
N1275 N 0.29332 0.06493 0.11617 0.0
H1276 H 0.45579 0.26853 0.61639 0.0
H1277 H 0.45586 0.98613 0.63029 0.0
H1278 H 0.45199 0.19738 0.6758 0.0
H1279 H 0.45178 0.05716 0.57089 0.0
H1280 H 0.45823 0.06354 0.6472 0.0
H1281 H 0.45809 0.19114 0.59941 0.0
C1282 C 0.45555 0.23671 0.62586 0.0
C1283 C 0.45352 0.23932 0.64747 0.0
C1284 C 0.4569 0.06205 0.63044 0.0
C1285 C 0.45617 0.151 0.62826 0.0
C1286 C 0.45558 0.01793 0.6208 0.0
C1287 C 0.45345 0.01527 0.59922 0.0
C1288 C 0.45616 0.10363 0.61837 0.0
C1289 C 0.45322 0.05758 0.58763 0.0
C1290 C 0.45684 0.1926 0.61619 0.0
C1291 C 0.45335 0.19699 0.65904 0.0
N1292 N 0.45449 0.10001 0.59737 0.0
N1293 N 0.45458 0.15458 0.64928 0.0
H1294 H 0.29836 0.55922 0.67972 0.0
H1295 H 0.29695 0.70115 0.5725 0.0
H1296 H 0.29487 0.49151 0.61949 0.0
H1297 H 0.29556 0.76923 0.63288 0.0
H1298 H 0.29474 0.62435 0.58946 0.0
H1299 H 0.29592 0.63622 0.663 0.0
C1300 C 0.29701 0.56052 0.66296 0.0
C1301 C 0.29698 0.51886 0.65092 0.0
C1302 C 0.2948 0.65604 0.59902 0.0
C1303 C 0.29421 0.60715 0.63168 0.0
C1304 C 0.29611 0.69997 0.58936 0.0
C1305 C 0.2966 0.74165 0.60134 0.0
C1306 C 0.29411 0.65358 0.62087 0.0
C1307 C 0.29529 0.73797 0.62307 0.0
C1308 C 0.29557 0.60457 0.65344 0.0
C1309 C 0.29503 0.52272 0.62933 0.0
N1310 N 0.29425 0.69458 0.63218 0.0
N1311 N 0.29386 0.56619 0.62036 0.0
H1312 H 0.04833 0.73954 0.35818 0.0
H1313 H 0.03703 0.97132 0.32643 0.0
H1314 H 0.04093 0.78928 0.4207 0.0
H1315 H 0.05015 0.00603 0.38833 0.0
H1316 H 0.03458 0.8886 0.33737 0.0
H1317 H 0.04559 0.82017 0.34516 0.0
C1318 C 0.0459 0.76733 0.36914 0.0
C1319 C 0.04485 0.75759 0.39057 0.0
C1320 C 0.03803 0.91428 0.34854 0.0
C1321 C 0.04162 0.85037 0.37573 0.0
C1322 C 0.03929 0.96165 0.34237 0.0
C1323 C 0.04396 0.99558 0.3564 0.0
C1324 C 0.04144 0.90074 0.36892 0.0
C1325 C 0.04666 0.98099 0.3769 0.0
C1326 C 0.04423 0.81342 0.36165 0.0
C1327 C 0.04175 0.79512 0.40404 0.0
N1328 N 0.04541 0.9347 0.38251 0.0
N1329 N 0.04046 0.83999 0.39644 0.0
H1330 H 0.20267 0.51342 0.35409 0.0
H1331 H 0.20262 0.24253 0.38561 0.0
H1332 H 0.21014 0.46706 0.4171 0.0
H1333 H 0.20885 0.28868 0.3222 0.0
H1334 H 0.2055 0.32418 0.39756 0.0
H1335 H 0.20506 0.43167 0.34199 0.0
C1336 C 0.20497 0.4861 0.36535 0.0
C1337 C 0.20614 0.49704 0.38666 0.0
C1338 C 0.20642 0.31638 0.38107 0.0
C1339 C 0.20869 0.40317 0.37294 0.0
C1340 C 0.20475 0.26978 0.37422 0.0
C1341 C 0.20543 0.25881 0.35285 0.0
C1342 C 0.20854 0.35256 0.36642 0.0
C1343 C 0.20825 0.29553 0.33881 0.0
C1344 C 0.20636 0.43943 0.35842 0.0
C1345 C 0.20916 0.46022 0.40054 0.0
N1346 N 0.20951 0.34089 0.3458 0.0
N1347 N 0.21014 0.4148 0.39348 0.0
H1348 H 0.04759 0.51793 0.88699 0.0
H1349 H 0.04899 0.24725 0.85441 0.0
H1350 H 0.04224 0.4721 0.82331 0.0
H1351 H 0.04175 0.2922 0.91769 0.0
H1352 H 0.0463 0.32909 0.84263 0.0
H1353 H 0.04518 0.43586 0.89866 0.0
C1354 C 0.04575 0.49066 0.87547 0.0
C1355 C 0.04518 0.50187 0.85412 0.0
C1356 C 0.04514 0.32101 0.85906 0.0
C1357 C 0.04261 0.40763 0.86736 0.0
C1358 C 0.0467 0.27428 0.86581 0.0
C1359 C 0.04566 0.2629 0.8871 0.0
C1360 C 0.04275 0.3569 0.87373 0.0
C1361 C 0.04263 0.29937 0.90114 0.0
C1362 C 0.04436 0.4438 0.88216 0.0
C1363 C 0.04274 0.46508 0.83991 0.0
N1364 N 0.04146 0.34485 0.89425 0.0
N1365 N 0.04173 0.41951 0.84676 0.0
H1366 H 0.21201 0.96592 0.92293 0.0
H1367 H 0.21286 0.78468 0.8264 0.0
H1368 H 0.2058 0.00797 0.85895 0.0
H1369 H 0.20566 0.74216 0.89002 0.0
H1370 H 0.21562 0.86662 0.83838 0.0
H1371 H 0.21501 0.88386 0.91116 0.0
C1372 C 0.21151 0.95808 0.90638 0.0
C1373 C 0.20855 0.99376 0.89192 0.0
C1374 C 0.2136 0.83919 0.84973 0.0
C1375 C 0.21197 0.90013 0.87838 0.0
C1376 C 0.21209 0.79238 0.84293 0.0
C1377 C 0.20891 0.75659 0.85721 0.0
C1378 C 0.21206 0.85017 0.871 0.0
C1379 C 0.20799 0.7687 0.87844 0.0
C1380 C 0.21315 0.91123 0.8997 0.0
C1381 C 0.20796 0.98151 0.87067 0.0
N1382 N 0.20949 0.81447 0.88468 0.0
N1383 N 0.20959 0.93573 0.86455 0.0
H1384 H 0.96087 0.21536 0.57633 0.0
H1385 H 0.96028 0.03397 0.67282 0.0
H1386 H 0.95365 0.2577 0.63997 0.0
H1387 H 0.95382 0.99161 0.60894 0.0
H1388 H 0.963 0.1161 0.66099 0.0
H1389 H 0.96343 0.13322 0.58824 0.0
C1390 C 0.96004 0.20755 0.59284 0.0
C1391 C 0.95694 0.24336 0.60716 0.0
C1392 C 0.96113 0.08866 0.64956 0.0
C1393 C 0.95988 0.14962 0.62086 0.0
C1394 C 0.95965 0.04177 0.65628 0.0
C1395 C 0.95672 0.00595 0.64186 0.0
C1396 C 0.95983 0.09968 0.62826 0.0
C1397 C 0.95596 0.01817 0.62062 0.0
C1398 C 0.96144 0.16065 0.5996 0.0
C1399 C 0.95593 0.23113 0.62837 0.0
N1400 N 0.95746 0.06399 0.61447 0.0
N1401 N 0.95735 0.18531 0.63457 0.0
H1402 H 0.78791 0.5326 0.5726 0.0
H1403 H 0.79804 0.76472 0.60453 0.0
H1404 H 0.79955 0.49888 0.63542 0.0
H1405 H 0.78982 0.71534 0.66682 0.0
H1406 H 0.79544 0.68411 0.5915 0.0
H1407 H 0.78495 0.61526 0.58323 0.0
C1408 C 0.78975 0.54249 0.58866 0.0
C1409 C 0.79417 0.50889 0.60306 0.0
C1410 C 0.79385 0.69091 0.60792 0.0
C1411 C 0.79108 0.60364 0.61523 0.0
C1412 C 0.79544 0.73701 0.61542 0.0
C1413 C 0.79415 0.74681 0.63681 0.0
C1414 C 0.79107 0.65405 0.62194 0.0
C1415 C 0.79085 0.70942 0.6502 0.0
C1416 C 0.7882 0.58983 0.59467 0.0
C1417 C 0.7963 0.52369 0.62372 0.0
N1418 N 0.78963 0.66453 0.6426 0.0
N1419 N 0.79479 0.56996 0.62915 0.0
H1420 H 0.95331 0.49363 0.10748 0.0
H1421 H 0.95311 0.76405 0.14012 0.0
H1422 H 0.95901 0.53885 0.17117 0.0
H1423 H 0.96021 0.71882 0.07684 0.0
H1424 H 0.95562 0.68213 0.15191 0.0
H1425 H 0.9562 0.5755 0.09585 0.0
C1426 C 0.95533 0.52071 0.11901 0.0
C1427 C 0.95585 0.50942 0.14036 0.0
C1428 C 0.9568 0.69017 0.13548 0.0
C1429 C 0.95897 0.60343 0.12715 0.0
C1430 C 0.95535 0.73694 0.12873 0.0
C1431 C 0.95638 0.74825 0.10744 0.0
C1432 C 0.95907 0.65417 0.12081 0.0
C1433 C 0.95933 0.71169 0.0934 0.0
C1434 C 0.95699 0.56745 0.11234 0.0
C1435 C 0.95853 0.54595 0.15457 0.0
N1436 N 0.96039 0.66617 0.10028 0.0
N1437 N 0.9598 0.59144 0.14775 0.0
H1438 H 0.78901 0.21216 0.16833 0.0
H1439 H 0.78991 0.03045 0.07197 0.0
H1440 H 0.7966 0.25393 0.10473 0.0
H1441 H 0.79581 0.988 0.13599 0.0
H1442 H 0.78718 0.11259 0.08373 0.0
H1443 H 0.78637 0.12999 0.15648 0.0
C1444 C 0.78991 0.20422 0.15184 0.0
C1445 C 0.79314 0.23987 0.13752 0.0
C1446 C 0.78892 0.08514 0.0952 0.0
C1447 C 0.7901 0.14613 0.12389 0.0
C1448 C 0.79041 0.03823 0.08852 0.0
C1449 C 0.7932 1.00238 0.103 0.0
C1450 C 0.79008 0.09616 0.11653 0.0
C1451 C 0.79378 0.01459 0.12426 0.0
C1452 C 0.78847 0.15731 0.14511 0.0
C1453 C 0.79423 0.22749 0.11634 0.0
N1454 N 0.7923 0.06045 0.13037 0.0
N1455 N 0.79276 0.18167 0.11018 0.0
H1456 H 0.54715 0.74674 0.85492 0.0
H1457 H 0.54658 0.01705 0.88755 0.0
H1458 H 0.53974 0.79175 0.91813 0.0
H1459 H 0.54105 0.97177 0.82382 0.0
H1460 H 0.54369 0.93517 0.89917 0.0
H1461 H 0.54457 0.82861 0.84312 0.0
C1462 C 0.54483 0.77379 0.86629 0.0
C1463 C 0.54373 0.76243 0.88757 0.0
C1464 C 0.54293 0.94321 0.88267 0.0
C1465 C 0.54095 0.85646 0.87419 0.0
C1466 C 0.54459 0.98996 0.87601 0.0
C1467 C 0.54413 1.00123 0.85466 0.0
C1468 C 0.54102 0.90721 0.86785 0.0
C1469 C 0.54149 0.96468 0.84043 0.0
C1470 C 0.54333 0.82053 0.85953 0.0
C1471 C 0.54066 0.79891 0.90158 0.0
N1472 N 0.54022 0.91919 0.84725 0.0
N1473 N 0.53957 0.84442 0.8947 0.0
H1474 H 0.70403 0.51805 0.85951 0.0
H1475 H 0.70377 0.24767 0.89224 0.0
H1476 H 0.70964 0.47285 0.92322 0.0
H1477 H 0.7108 0.29277 0.82892 0.0
H1478 H 0.7063 0.32959 0.90399 0.0
H1479 H 0.70691 0.43618 0.84789 0.0
C1480 C 0.70603 0.49097 0.87104 0.0
C1481 C 0.70652 0.50227 0.89239 0.0
C1482 C 0.70747 0.32153 0.88757 0.0
C1483 C 0.70964 0.40825 0.8792 0.0
C1484 C 0.706 0.27475 0.88083 0.0
C1485 C 0.707 0.2634 0.85954 0.0
C1486 C 0.70972 0.35749 0.87287 0.0
C1487 C 0.70995 0.29993 0.84548 0.0
C1488 C 0.7077 0.44422 0.86438 0.0
C1489 C 0.70918 0.46574 0.90661 0.0
N1490 N 0.71102 0.34546 0.85235 0.0
N1491 N 0.71045 0.42025 0.8998 0.0
H1492 H 0.53947 0.4695 0.32414 0.0
H1493 H 0.5393 0.28832 0.42069 0.0
H1494 H 0.54581 0.51206 0.38802 0.0
H1495 H 0.5464 0.24616 0.35698 0.0
H1496 H 0.53647 0.37033 0.40877 0.0
H1497 H 0.53677 0.38739 0.33599 0.0
C1498 C 0.54007 0.46174 0.34068 0.0
C1499 C 0.54298 0.49759 0.35509 0.0
C1500 C 0.5385 0.34296 0.3974 0.0
C1501 C 0.5399 0.40391 0.36873 0.0
C1502 C 0.54005 0.29614 0.40416 0.0
C1503 C 0.5432 0.26045 0.38983 0.0
C1504 C 0.53996 0.354 0.37613 0.0
C1505 C 0.54409 0.27266 0.3686 0.0
C1506 C 0.5386 0.41487 0.34742 0.0
C1507 C 0.5437 0.48546 0.37635 0.0
N1508 N 0.54254 0.3184 0.3624 0.0
N1509 N 0.54223 0.43964 0.38251 0.0
H1510 H 0.70371 0.01569 0.3578 0.0
H1511 H 0.70296 0.74522 0.39008 0.0
H1512 H 0.70969 0.96984 0.42133 0.0
H1513 H 0.70983 0.79056 0.32674 0.0
H1514 H 0.70582 0.82692 0.40193 0.0
H1515 H 0.70638 0.93386 0.346 0.0
C1516 C 0.70575 0.98847 0.36925 0.0
C1517 C 0.7064 0.99957 0.39061 0.0
C1518 C 0.70688 0.81894 0.38548 0.0
C1519 C 0.70926 0.90561 0.37722 0.0
C1520 C 0.70522 0.7723 0.37869 0.0
C1521 C 0.70608 0.76111 0.35736 0.0
C1522 C 0.70918 0.85492 0.37081 0.0
C1523 C 0.70908 0.79761 0.34332 0.0
C1524 C 0.70729 0.94175 0.36249 0.0
C1525 C 0.70911 0.96288 0.40473 0.0
N1526 N 0.71033 0.84302 0.35025 0.0
N1527 N 0.71025 0.91741 0.39782 0.0
H1528 H 0.4602 0.21646 0.07435 0.0
H1529 H 0.46047 0.03546 0.17097 0.0
H1530 H 0.45315 0.25859 0.13808 0.0
H1531 H 0.45399 0.99265 0.10716 0.0
H1532 H 0.46305 0.11758 0.15906 0.0
H1533 H 0.46316 0.13451 0.08628 0.0
C1534 C 0.45949 0.20865 0.09088 0.0
C1535 C 0.45631 0.24431 0.10522 0.0
C1536 C 0.46121 0.09004 0.14766 0.0
C1537 C 0.4597 0.15084 0.11894 0.0
C1538 C 0.45981 0.04316 0.15443 0.0
C1539 C 0.4569 0.00724 0.14006 0.0
C1540 C 0.45984 0.10093 0.12636 0.0
C1541 C 0.45611 0.01931 0.1188 0.0
C1542 C 0.46111 0.16187 0.09765 0.0
C1543 C 0.45547 0.23212 0.12646 0.0
N1544 N 0.45751 0.06513 0.11261 0.0
N1545 N 0.4571 0.18641 0.13266 0.0
H1546 H 0.28979 0.72021 0.1702 0.0
H1547 H 0.28954 0.53846 0.07384 0.0
H1548 H 0.29655 0.76215 0.10636 0.0
H1549 H 0.29605 0.49611 0.1377 0.0
H1550 H 0.28704 0.6207 0.08562 0.0
H1551 H 0.28703 0.63807 0.15842 0.0
C1552 C 0.29049 0.71231 0.15368 0.0
C1553 C 0.29351 0.74801 0.13926 0.0
C1554 C 0.28887 0.59325 0.09706 0.0
C1555 C 0.29035 0.65428 0.1257 0.0
C1556 C 0.29023 0.5463 0.09036 0.0
C1557 C 0.29312 0.51043 0.10479 0.0
C1558 C 0.29026 0.60431 0.11835 0.0
C1559 C 0.29395 0.5227 0.12602 0.0
C1560 C 0.28898 0.66542 0.14699 0.0
C1561 C 0.29434 0.73568 0.11804 0.0
N1562 N 0.29258 0.56859 0.13214 0.0
N1563 N 0.29282 0.68985 0.11191 0.0
H1564 H 0.45429 0.49213 0.60705 0.0
H1565 H 0.45419 0.76241 0.6395 0.0
H1566 H 0.46097 0.53763 0.67043 0.0
H1567 H 0.4603 0.71715 0.57594 0.0
H1568 H 0.45715 0.68068 0.65123 0.0
H1569 H 0.45698 0.57392 0.59522 0.0
C1570 C 0.45648 0.51926 0.61846 0.0
C1571 C 0.45732 0.50809 0.63979 0.0
C1572 C 0.45802 0.68868 0.63475 0.0
C1573 C 0.46022 0.60201 0.62637 0.0
C1574 C 0.45631 0.73534 0.62803 0.0
C1575 C 0.45692 0.74656 0.60668 0.0
C1576 C 0.46013 0.65271 0.62 0.0
C1577 C 0.45975 0.71007 0.59253 0.0
C1578 C 0.45804 0.56596 0.61168 0.0
C1579 C 0.46023 0.54466 0.65385 0.0
N1580 N 0.46105 0.66464 0.5994 0.0
N1581 N 0.46138 0.59012 0.64694 0.0
H1582 H 0.29005 0.03932 0.57759 0.0
H1583 H 0.29046 0.22118 0.67391 0.0
H1584 H 0.29686 0.99728 0.64141 0.0
H1585 H 0.29691 0.26323 0.61 0.0
H1586 H 0.28771 0.13903 0.66215 0.0
H1587 H 0.28747 0.12155 0.58937 0.0
C1588 C 0.29078 0.04722 0.59411 0.0
C1589 C 0.29378 0.01146 0.60852 0.0
C1590 C 0.28958 0.1664 0.6507 0.0
C1591 C 0.29083 0.1053 0.62206 0.0
C1592 C 0.29108 0.2133 0.65738 0.0
C1593 C 0.29403 0.24904 0.64293 0.0
C1594 C 0.29088 0.15528 0.62941 0.0
C1595 C 0.29477 0.23673 0.6217 0.0
C1596 C 0.28938 0.09417 0.60079 0.0
C1597 C 0.29467 0.0238 0.62973 0.0
N1598 N 0.29326 0.19089 0.61559 0.0
N1599 N 0.29325 0.06967 0.63585 0.0
loop_
_geom_bond_atom_site_label_1
_geom_bond_atom_site_label_2
_geom_bond_distance
_geom_bond_site_symmetry_2
_ccdc_geom_bond_type
O0 Cd1 2.223 . S
O0 C8 1.315 . S
Cd1 O0 2.223 . S
Cd1 O4 2.297 . S
Cd1 O5 2.439 . S
Cd1 O11 2.240 . S
Cd2 O3 2.240 . S
Cd2 O10 2.223 . S
Cd2 O12 2.297 . S
Cd2 O13 2.439 . S
O3 Cd2 2.240 . S
O3 C8 1.279 . S
O4 Cd1 2.297 . S
O4 C6 1.247 . S
O5 Cd1 2.439 . S
O5 C6 1.208 . S
C6 O4 1.247 . S
C6 O5 1.208 . S
C7 O12 1.247 . S
C7 O13 1.208 . S
C8 O0 1.315 . S
C8 O3 1.279 . S
C9 O10 1.315 . S
C9 O11 1.279 . S
O10 Cd2 2.223 . S
O10 C9 1.315 . S
O11 Cd1 2.240 . S
O11 C9 1.279 . S
O12 Cd2 2.297 . S
O12 C7 1.247 . S
O13 Cd2 2.439 . S
O13 C7 1.208 . S
O14 Cd15 2.223 . S
O14 C22 1.315 . S
Cd15 O14 2.223 . S
Cd15 O18 2.297 . S
Cd15 O19 2.439 . S
Cd15 O25 2.240 . S
Cd16 O17 2.240 . S
Cd16 O24 2.223 . S
Cd16 O26 2.297 . S
Cd16 O27 2.439 . S
O17 Cd16 2.240 . S
O17 C22 1.279 . S
O18 Cd15 2.297 . S
O18 C20 1.247 . S
O19 Cd15 2.439 . S
O19 C20 1.208 . S
C20 O18 1.247 . S
C20 O19 1.208 . S
C21 O26 1.247 . S
C21 O27 1.208 . S
C22 O14 1.315 . S
C22 O17 1.279 . S
C23 O24 1.315 . S
C23 O25 1.279 . S
O24 Cd16 2.223 . S
O24 C23 1.315 . S
O25 Cd15 2.240 . S
O25 C23 1.279 . S
O26 Cd16 2.297 . S
O26 C21 1.247 . S
O27 Cd16 2.439 . S
O27 C21 1.208 . S
O28 Cd29 2.223 . S
O28 C36 1.315 . S
Cd29 O28 2.223 . S
Cd29 O32 2.297 . S
Cd29 O33 2.439 . S
Cd29 O39 2.240 . S
Cd30 O31 2.240 . S
Cd30 O38 2.223 . S
Cd30 O40 2.297 . S
Cd30 O41 2.439 . S
O31 Cd30 2.240 . S
O31 C36 1.279 . S
O32 Cd29 2.297 . S
O32 C34 1.247 . S
O33 Cd29 2.439 . S
O33 C34 1.208 . S
C34 O32 1.247 . S
C34 O33 1.208 . S
C35 O40 1.247 . S
C35 O41 1.208 . S
C36 O28 1.315 . S
C36 O31 1.279 . S
C37 O38 1.315 . S
C37 O39 1.279 . S
O38 Cd30 2.223 . S
O38 C37 1.315 . S
O39 Cd29 2.240 . S
O39 C37 1.279 . S
O40 Cd30 2.297 . S
O40 C35 1.247 . S
O41 Cd30 2.439 . S
O41 C35 1.208 . S
O42 Cd43 2.223 . S
O42 C50 1.315 . S
Cd43 O42 2.223 . S
Cd43 O46 2.297 . S
Cd43 O47 2.439 . S
Cd43 O53 2.240 . S
Cd44 O45 2.240 . S
Cd44 O52 2.223 . S
Cd44 O54 2.297 . S
Cd44 O55 2.439 . S
O45 Cd44 2.240 . S
O45 C50 1.279 . S
O46 Cd43 2.297 . S
O46 C48 1.247 . S
O47 Cd43 2.439 . S
O47 C48 1.208 . S
C48 O46 1.247 . S
C48 O47 1.208 . S
C49 O54 1.247 . S
C49 O55 1.208 . S
C50 O42 1.315 . S
C50 O45 1.279 . S
C51 O52 1.315 . S
C51 O53 1.279 . S
O52 Cd44 2.223 . S
O52 C51 1.315 . S
O53 Cd43 2.240 . S
O53 C51 1.279 . S
O54 Cd44 2.297 . S
O54 C49 1.247 . S
O55 Cd44 2.439 . S
O55 C49 1.208 . S
O56 Cd57 2.223 . S
O56 C64 1.315 . S
Cd57 O56 2.223 . S
Cd57 O60 2.297 . S
Cd57 O61 2.439 . S
Cd57 O67 2.240 . S
Cd58 O59 2.240 . S
Cd58 O66 2.223 . S
Cd58 O68 2.297 . S
Cd58 O69 2.439 . S
O59 Cd58 2.240 . S
O59 C64 1.279 . S
O60 Cd57 2.297 . S
O60 C62 1.247 . S
O61 Cd57 2.439 . S
O61 C62 1.208 . S
C62 O60 1.247 . S
C62 O61 1.208 . S
C63 O68 1.247 . S
C63 O69 1.208 . S
C64 O56 1.315 . S
C64 O59 1.279 . S
C65 O66 1.315 . S
C65 O67 1.279 . S
O66 Cd58 2.223 . S
O66 C65 1.315 . S
O67 Cd57 2.240 . S
O67 C65 1.279 . S
O68 Cd58 2.297 . S
O68 C63 1.247 . S
O69 Cd58 2.439 . S
O69 C63 1.208 . S
O70 Cd71 2.223 . S
O70 C78 1.315 . S
Cd71 O70 2.223 . S
Cd71 O74 2.297 . S
Cd71 O75 2.439 . S
Cd71 O81 2.240 . S
Cd72 O73 2.240 . S
Cd72 O80 2.223 . S
Cd72 O82 2.297 . S
Cd72 O83 2.439 . S
O73 Cd72 2.240 . S
O73 C78 1.279 . S
O74 Cd71 2.297 . S
O74 C76 1.247 . S
O75 Cd71 2.439 . S
O75 C76 1.208 . S
C76 O74 1.247 . S
C76 O75 1.208 . S
C77 O82 1.247 . S
C77 O83 1.208 . S
C78 O70 1.315 . S
C78 O73 1.279 . S
C79 O80 1.315 . S
C79 O81 1.279 . S
O80 Cd72 2.223 . S
O80 C79 1.315 . S
O81 Cd71 2.240 . S
O81 C79 1.279 . S
O82 Cd72 2.297 . S
O82 C77 1.247 . S
O83 Cd72 2.439 . S
O83 C77 1.208 . S
O84 Cd85 2.223 . S
O84 C92 1.315 . S
Cd85 O84 2.223 . S
Cd85 O88 2.297 . S
Cd85 O89 2.439 . S
Cd85 O95 2.240 . S
Cd86 O87 2.240 . S
Cd86 O94 2.223 . S
Cd86 O96 2.297 . S
Cd86 O97 2.439 . S
O87 Cd86 2.240 . S
O87 C92 1.279 . S
O88 Cd85 2.297 . S
O88 C90 1.247 . S
O89 Cd85 2.439 . S
O89 C90 1.208 . S
C90 O88 1.247 . S
C90 O89 1.208 . S
C91 O96 1.247 . S
C91 O97 1.208 . S
C92 O84 1.315 . S
C92 O87 1.279 . S
C93 O94 1.315 . S
C93 O95 1.279 . S
O94 Cd86 2.223 . S
O94 C93 1.315 . S
O95 Cd85 2.240 . S
O95 C93 1.279 . S
O96 Cd86 2.297 . S
O96 C91 1.247 . S
O97 Cd86 2.439 . S
O97 C91 1.208 . S
O98 Cd99 2.223 . S
O98 C106 1.315 . S
Cd99 O98 2.223 . S
Cd99 O102 2.297 . S
Cd99 O103 2.439 . S
Cd99 O109 2.240 . S
Cd100 O101 2.240 . S
Cd100 O108 2.223 . S
Cd100 O110 2.297 . S
Cd100 O111 2.439 . S
O101 Cd100 2.240 . S
O101 C106 1.279 . S
O102 Cd99 2.297 . S
O102 C104 1.247 . S
O103 Cd99 2.439 . S
O103 C104 1.208 . S
C104 O102 1.247 . S
C104 O103 1.208 . S
C105 O110 1.247 . S
C105 O111 1.208 . S
C106 O98 1.315 . S
C106 O101 1.279 . S
C107 O108 1.315 . S
C107 O109 1.279 . S
O108 Cd100 2.223 . S
O108 C107 1.315 . S
O109 Cd99 2.240 . S
O109 C107 1.279 . S
O110 Cd100 2.297 . S
O110 C105 1.247 . S
O111 Cd100 2.439 . S
O111 C105 1.208 . S
O112 Cd113 2.223 . S
O112 C120 1.315 . S
Cd113 O112 2.223 . S
Cd113 O116 2.297 . S
Cd113 O117 2.439 . S
Cd113 O123 2.240 . S
Cd114 O115 2.240 . S
Cd114 O122 2.223 . S
Cd114 O124 2.297 . S
Cd114 O125 2.439 . S
O115 Cd114 2.240 . S
O115 C120 1.279 . S
O116 Cd113 2.297 . S
O116 C118 1.247 . S
O117 Cd113 2.439 . S
O117 C118 1.208 . S
C118 O116 1.247 . S
C118 O117 1.208 . S
C119 O124 1.247 . S
C119 O125 1.208 . S
C120 O112 1.315 . S
C120 O115 1.279 . S
C121 O122 1.315 . S
C121 O123 1.279 . S
O122 Cd114 2.223 . S
O122 C121 1.315 . S
O123 Cd113 2.240 . S
O123 C121 1.279 . S
O124 Cd114 2.297 . S
O124 C119 1.247 . S
O125 Cd114 2.439 . S
O125 C119 1.208 . S
O126 Cd127 2.223 . S
O126 C134 1.315 . S
Cd127 O126 2.223 . S
Cd127 O130 2.297 . S
Cd127 O131 2.439 . S
Cd127 O137 2.240 . S
Cd128 O129 2.240 . S
Cd128 O136 2.223 . S
Cd128 O138 2.297 . S
Cd128 O139 2.439 . S
O129 Cd128 2.240 . S
O129 C134 1.279 . S
O130 Cd127 2.297 . S
O130 C132 1.247 . S
O131 Cd127 2.439 . S
O131 C132 1.208 . S
C132 O130 1.247 . S
C132 O131 1.208 . S
C133 O138 1.247 . S
C133 O139 1.208 . S
C134 O126 1.315 . S
C134 O129 1.279 . S
C135 O136 1.315 . S
C135 O137 1.279 . S
O136 Cd128 2.223 . S
O136 C135 1.315 . S
O137 Cd127 2.240 . S
O137 C135 1.279 . S
O138 Cd128 2.297 . S
O138 C133 1.247 . S
O139 Cd128 2.439 . S
O139 C133 1.208 . S
O140 Cd141 2.223 . S
O140 C148 1.315 . S
Cd141 O140 2.223 . S
Cd141 O144 2.297 . S
Cd141 O145 2.439 . S
Cd141 O151 2.240 . S
Cd142 O143 2.240 . S
Cd142 O150 2.223 . S
Cd142 O152 2.297 . S
Cd142 O153 2.439 . S
O143 Cd142 2.240 . S
O143 C148 1.279 . S
O144 Cd141 2.297 . S
O144 C146 1.247 . S
O145 Cd141 2.439 . S
O145 C146 1.208 . S
C146 O144 1.247 . S
C146 O145 1.208 . S
C147 O152 1.247 . S
C147 O153 1.208 . S
C148 O140 1.315 . S
C148 O143 1.279 . S
C149 O150 1.315 . S
C149 O151 1.279 . S
O150 Cd142 2.223 . S
O150 C149 1.315 . S
O151 Cd141 2.240 . S
O151 C149 1.279 . S
O152 Cd142 2.297 . S
O152 C147 1.247 . S
O153 Cd142 2.439 . S
O153 C147 1.208 . S
O154 Cd155 2.223 . S
O154 C162 1.315 . S
Cd155 O154 2.223 . S
Cd155 O158 2.297 . S
Cd155 O159 2.439 . S
Cd155 O165 2.240 . S
Cd156 O157 2.240 . S
Cd156 O164 2.223 . S
Cd156 O166 2.297 . S
Cd156 O167 2.439 . S
O157 Cd156 2.240 . S
O157 C162 1.279 . S
O158 Cd155 2.297 . S
O158 C160 1.247 . S
O159 Cd155 2.439 . S
O159 C160 1.208 . S
C160 O158 1.247 . S
C160 O159 1.208 . S
C161 O166 1.247 . S
C161 O167 1.208 . S
C162 O154 1.315 . S
C162 O157 1.279 . S
C163 O164 1.315 . S
C163 O165 1.279 . S
O164 Cd156 2.223 . S
O164 C163 1.315 . S
O165 Cd155 2.240 . S
O165 C163 1.279 . S
O166 Cd156 2.297 . S
O166 C161 1.247 . S
O167 Cd156 2.439 . S
O167 C161 1.208 . S
O168 Cd169 2.223 . S
O168 C176 1.315 . S
Cd169 O168 2.223 . S
Cd169 O172 2.297 . S
Cd169 O173 2.439 . S
Cd169 O179 2.240 . S
Cd170 O171 2.240 . S
Cd170 O178 2.223 . S
Cd170 O180 2.297 . S
Cd170 O181 2.439 . S
O171 Cd170 2.240 . S
O171 C176 1.279 . S
O172 Cd169 2.297 . S
O172 C174 1.247 . S
O173 Cd169 2.439 . S
O173 C174 1.208 . S
C174 O172 1.247 . S
C174 O173 1.208 . S
C175 O180 1.247 . S
C175 O181 1.208 . S
C176 O168 1.315 . S
C176 O171 1.279 . S
C177 O178 1.315 . S
C177 O179 1.279 . S
O178 Cd170 2.223 . S
O178 C177 1.315 . S
O179 Cd169 2.240 . S
O179 C177 1.279 . S
O180 Cd170 2.297 . S
O180 C175 1.247 . S
O181 Cd170 2.439 . S
O181 C175 1.208 . S
O182 Cd183 2.223 . S
O182 C190 1.315 . S
Cd183 O182 2.223 . S
Cd183 O186 2.297 . S
Cd183 O187 2.439 . S
Cd183 O193 2.240 . S
Cd184 O185 2.240 . S
Cd184 O192 2.223 . S
Cd184 O194 2.297 . S
Cd184 O195 2.439 . S
O185 Cd184 2.240 . S
O185 C190 1.279 . S
O186 Cd183 2.297 . S
O186 C188 1.247 . S
O187 Cd183 2.439 . S
O187 C188 1.208 . S
C188 O186 1.247 . S
C188 O187 1.208 . S
C189 O194 1.247 . S
C189 O195 1.208 . S
C190 O182 1.315 . S
C190 O185 1.279 . S
C191 O192 1.315 . S
C191 O193 1.279 . S
O192 Cd184 2.223 . S
O192 C191 1.315 . S
O193 Cd183 2.240 . S
O193 C191 1.279 . S
O194 Cd184 2.297 . S
O194 C189 1.247 . S
O195 Cd184 2.439 . S
O195 C189 1.208 . S
O196 Cd197 2.223 . S
O196 C204 1.315 . S
Cd197 O196 2.223 . S
Cd197 O200 2.297 . S
Cd197 O201 2.439 . S
Cd197 O207 2.240 . S
Cd198 O199 2.240 . S
Cd198 O206 2.223 . S
Cd198 O208 2.297 . S
Cd198 O209 2.439 . S
O199 Cd198 2.240 . S
O199 C204 1.279 . S
O200 Cd197 2.297 . S
O200 C202 1.247 . S
O201 Cd197 2.439 . S
O201 C202 1.208 . S
C202 O200 1.247 . S
C202 O201 1.208 . S
C203 O208 1.247 . S
C203 O209 1.208 . S
C204 O196 1.315 . S
C204 O199 1.279 . S
C205 O206 1.315 . S
C205 O207 1.279 . S
O206 Cd198 2.223 . S
O206 C205 1.315 . S
O207 Cd197 2.240 . S
O207 C205 1.279 . S
O208 Cd198 2.297 . S
O208 C203 1.247 . S
O209 Cd198 2.439 . S
O209 C203 1.208 . S
O210 Cd211 2.223 . S
O210 C218 1.315 . S
Cd211 O210 2.223 . S
Cd211 O214 2.297 . S
Cd211 O215 2.439 . S
Cd211 O221 2.240 . S
Cd212 O213 2.240 . S
Cd212 O220 2.223 . S
Cd212 O222 2.297 . S
Cd212 O223 2.439 . S
O213 Cd212 2.240 . S
O213 C218 1.279 . S
O214 Cd211 2.297 . S
O214 C216 1.247 . S
O215 Cd211 2.439 . S
O215 C216 1.208 . S
C216 O214 1.247 . S
C216 O215 1.208 . S
C217 O222 1.247 . S
C217 O223 1.208 . S
C218 O210 1.315 . S
C218 O213 1.279 . S
C219 O220 1.315 . S
C219 O221 1.279 . S
O220 Cd212 2.223 . S
O220 C219 1.315 . S
O221 Cd211 2.240 . S
O221 C219 1.279 . S
O222 Cd212 2.297 . S
O222 C217 1.247 . S
O223 Cd212 2.439 . S
O223 C217 1.208 . S
O224 Cd225 2.223 . S
O224 C232 1.315 . S
Cd225 O224 2.223 . S
Cd225 O228 2.297 . S
Cd225 O229 2.439 . S
Cd225 O235 2.240 . S
Cd226 O227 2.240 . S
Cd226 O234 2.223 . S
Cd226 O236 2.297 . S
Cd226 O237 2.439 . S
O227 Cd226 2.240 . S
O227 C232 1.279 . S
O228 Cd225 2.297 . S
O228 C230 1.247 . S
O229 Cd225 2.439 . S
O229 C230 1.208 . S
C230 O228 1.247 . S
C230 O229 1.208 . S
C231 O236 1.247 . S
C231 O237 1.208 . S
C232 O224 1.315 . S
C232 O227 1.279 . S
C233 O234 1.315 . S
C233 O235 1.279 . S
O234 Cd226 2.223 . S
O234 C233 1.315 . S
O235 Cd225 2.240 . S
O235 C233 1.279 . S
O236 Cd226 2.297 . S
O236 C231 1.247 . S
O237 Cd226 2.439 . S
O237 C231 1.208 . S
O238 Cd239 2.223 . S
O238 C246 1.315 . S
Cd239 O238 2.223 . S
Cd239 O242 2.297 . S
Cd239 O243 2.439 . S
Cd239 O249 2.240 . S
Cd240 O241 2.240 . S
Cd240 O248 2.223 . S
Cd240 O250 2.297 . S
Cd240 O251 2.439 . S
O241 Cd240 2.240 . S
O241 C246 1.279 . S
O242 Cd239 2.297 . S
O242 C244 1.247 . S
O243 Cd239 2.439 . S
O243 C244 1.208 . S
C244 O242 1.247 . S
C244 O243 1.208 . S
C245 O250 1.247 . S
C245 O251 1.208 . S
C246 O238 1.315 . S
C246 O241 1.279 . S
C247 O248 1.315 . S
C247 O249 1.279 . S
O248 Cd240 2.223 . S
O248 C247 1.315 . S
O249 Cd239 2.240 . S
O249 C247 1.279 . S
O250 Cd240 2.297 . S
O250 C245 1.247 . S
O251 Cd240 2.439 . S
O251 C245 1.208 . S
O252 Cd253 2.223 . S
O252 C260 1.315 . S
Cd253 O252 2.223 . S
Cd253 O256 2.297 . S
Cd253 O257 2.439 . S
Cd253 O263 2.240 . S
Cd254 O255 2.240 . S
Cd254 O262 2.223 . S
Cd254 O264 2.297 . S
Cd254 O265 2.439 . S
O255 Cd254 2.240 . S
O255 C260 1.279 . S
O256 Cd253 2.297 . S
O256 C258 1.247 . S
O257 Cd253 2.439 . S
O257 C258 1.208 . S
C258 O256 1.247 . S
C258 O257 1.208 . S
C259 O264 1.247 . S
C259 O265 1.208 . S
C260 O252 1.315 . S
C260 O255 1.279 . S
C261 O262 1.315 . S
C261 O263 1.279 . S
O262 Cd254 2.223 . S
O262 C261 1.315 . S
O263 Cd253 2.240 . S
O263 C261 1.279 . S
O264 Cd254 2.297 . S
O264 C259 1.247 . S
O265 Cd254 2.439 . S
O265 C259 1.208 . S
O266 Cd267 2.223 . S
O266 C274 1.315 . S
Cd267 O266 2.223 . S
Cd267 O270 2.297 . S
Cd267 O271 2.439 . S
Cd267 O277 2.240 . S
Cd268 O269 2.240 . S
Cd268 O276 2.223 . S
Cd268 O278 2.297 . S
Cd268 O279 2.439 . S
O269 Cd268 2.240 . S
O269 C274 1.279 . S
O270 Cd267 2.297 . S
O270 C272 1.247 . S
O271 Cd267 2.439 . S
O271 C272 1.208 . S
C272 O270 1.247 . S
C272 O271 1.208 . S
C273 O278 1.247 . S
C273 O279 1.208 . S
C274 O266 1.315 . S
C274 O269 1.279 . S
C275 O276 1.315 . S
C275 O277 1.279 . S
O276 Cd268 2.223 . S
O276 C275 1.315 . S
O277 Cd267 2.240 . S
O277 C275 1.279 . S
O278 Cd268 2.297 . S
O278 C273 1.247 . S
O279 Cd268 2.439 . S
O279 C273 1.208 . S
O280 Cd281 2.223 . S
O280 C288 1.315 . S
Cd281 O280 2.223 . S
Cd281 O284 2.297 . S
Cd281 O285 2.439 . S
Cd281 O291 2.240 . S
Cd282 O283 2.240 . S
Cd282 O290 2.223 . S
Cd282 O292 2.297 . S
Cd282 O293 2.439 . S
O283 Cd282 2.240 . S
O283 C288 1.279 . S
O284 Cd281 2.297 . S
O284 C286 1.247 . S
O285 Cd281 2.439 . S
O285 C286 1.208 . S
C286 O284 1.247 . S
C286 O285 1.208 . S
C287 O292 1.247 . S
C287 O293 1.208 . S
C288 O280 1.315 . S
C288 O283 1.279 . S
C289 O290 1.315 . S
C289 O291 1.279 . S
O290 Cd282 2.223 . S
O290 C289 1.315 . S
O291 Cd281 2.240 . S
O291 C289 1.279 . S
O292 Cd282 2.297 . S
O292 C287 1.247 . S
O293 Cd282 2.439 . S
O293 C287 1.208 . S
O294 Cd295 2.223 . S
O294 C302 1.315 . S
Cd295 O294 2.223 . S
Cd295 O298 2.297 . S
Cd295 O299 2.439 . S
Cd295 O305 2.240 . S
Cd296 O297 2.240 . S
Cd296 O304 2.223 . S
Cd296 O306 2.297 . S
Cd296 O307 2.439 . S
O297 Cd296 2.240 . S
O297 C302 1.279 . S
O298 Cd295 2.297 . S
O298 C300 1.247 . S
O299 Cd295 2.439 . S
O299 C300 1.208 . S
C300 O298 1.247 . S
C300 O299 1.208 . S
C301 O306 1.247 . S
C301 O307 1.208 . S
C302 O294 1.315 . S
C302 O297 1.279 . S
C303 O304 1.315 . S
C303 O305 1.279 . S
O304 Cd296 2.223 . S
O304 C303 1.315 . S
O305 Cd295 2.240 . S
O305 C303 1.279 . S
O306 Cd296 2.297 . S
O306 C301 1.247 . S
O307 Cd296 2.439 . S
O307 C301 1.208 . S
O308 Cd309 2.223 . S
O308 C316 1.315 . S
Cd309 O308 2.223 . S
Cd309 O312 2.297 . S
Cd309 O313 2.439 . S
Cd309 O319 2.240 . S
Cd310 O311 2.240 . S
Cd310 O318 2.223 . S
Cd310 O320 2.297 . S
Cd310 O321 2.439 . S
O311 Cd310 2.240 . S
O311 C316 1.279 . S
O312 Cd309 2.297 . S
O312 C314 1.247 . S
O313 Cd309 2.439 . S
O313 C314 1.208 . S
C314 O312 1.247 . S
C314 O313 1.208 . S
C315 O320 1.247 . S
C315 O321 1.208 . S
C316 O308 1.315 . S
C316 O311 1.279 . S
C317 O318 1.315 . S
C317 O319 1.279 . S
O318 Cd310 2.223 . S
O318 C317 1.315 . S
O319 Cd309 2.240 . S
O319 C317 1.279 . S
O320 Cd310 2.297 . S
O320 C315 1.247 . S
O321 Cd310 2.439 . S
O321 C315 1.208 . S
O322 Cd323 2.223 . S
O322 C330 1.315 . S
Cd323 O322 2.223 . S
Cd323 O326 2.297 . S
Cd323 O327 2.439 . S
Cd323 O333 2.240 . S
Cd324 O325 2.240 . S
Cd324 O332 2.223 . S
Cd324 O334 2.297 . S
Cd324 O335 2.439 . S
O325 Cd324 2.240 . S
O325 C330 1.279 . S
O326 Cd323 2.297 . S
O326 C328 1.247 . S
O327 Cd323 2.439 . S
O327 C328 1.208 . S
C328 O326 1.247 . S
C328 O327 1.208 . S
C329 O334 1.247 . S
C329 O335 1.208 . S
C330 O322 1.315 . S
C330 O325 1.279 . S
C331 O332 1.315 . S
C331 O333 1.279 . S
O332 Cd324 2.223 . S
O332 C331 1.315 . S
O333 Cd323 2.240 . S
O333 C331 1.279 . S
O334 Cd324 2.297 . S
O334 C329 1.247 . S
O335 Cd324 2.439 . S
O335 C329 1.208 . S
O336 Cd337 2.223 . S
O336 C344 1.315 . S
Cd337 O336 2.223 . S
Cd337 O340 2.297 . S
Cd337 O341 2.439 . S
Cd337 O347 2.240 . S
Cd338 O339 2.240 . S
Cd338 O346 2.223 . S
Cd338 O348 2.297 . S
Cd338 O349 2.439 . S
O339 Cd338 2.240 . S
O339 C344 1.279 . S
O340 Cd337 2.297 . S
O340 C342 1.247 . S
O341 Cd337 2.439 . S
O341 C342 1.208 . S
C342 O340 1.247 . S
C342 O341 1.208 . S
C343 O348 1.247 . S
C343 O349 1.208 . S
C344 O336 1.315 . S
C344 O339 1.279 . S
C345 O346 1.315 . S
C345 O347 1.279 . S
O346 Cd338 2.223 . S
O346 C345 1.315 . S
O347 Cd337 2.240 . S
O347 C345 1.279 . S
O348 Cd338 2.297 . S
O348 C343 1.247 . S
O349 Cd338 2.439 . S
O349 C343 1.208 . S
O350 Cd351 2.223 . S
O350 C358 1.315 . S
Cd351 O350 2.223 . S
Cd351 O354 2.297 . S
Cd351 O355 2.439 . S
Cd351 O361 2.240 . S
Cd352 O353 2.240 . S
Cd352 O360 2.223 . S
Cd352 O362 2.297 . S
Cd352 O363 2.439 . S
O353 Cd352 2.240 . S
O353 C358 1.279 . S
O354 Cd351 2.297 . S
O354 C356 1.247 . S
O355 Cd351 2.439 . S
O355 C356 1.208 . S
C356 O354 1.247 . S
C356 O355 1.208 . S
C357 O362 1.247 . S
C357 O363 1.208 . S
C358 O350 1.315 . S
C358 O353 1.279 . S
C359 O360 1.315 . S
C359 O361 1.279 . S
O360 Cd352 2.223 . S
O360 C359 1.315 . S
O361 Cd351 2.240 . S
O361 C359 1.279 . S
O362 Cd352 2.297 . S
O362 C357 1.247 . S
O363 Cd352 2.439 . S
O363 C357 1.208 . S
O364 Cd365 2.223 . S
O364 C372 1.315 . S
Cd365 O364 2.223 . S
Cd365 O368 2.297 . S
Cd365 O369 2.439 . S
Cd365 O375 2.240 . S
Cd366 O367 2.240 . S
Cd366 O374 2.223 . S
Cd366 O376 2.297 . S
Cd366 O377 2.439 . S
O367 Cd366 2.240 . S
O367 C372 1.279 . S
O368 Cd365 2.297 . S
O368 C370 1.247 . S
O369 Cd365 2.439 . S
O369 C370 1.208 . S
C370 O368 1.247 . S
C370 O369 1.208 . S
C371 O376 1.247 . S
C371 O377 1.208 . S
C372 O364 1.315 . S
C372 O367 1.279 . S
C373 O374 1.315 . S
C373 O375 1.279 . S
O374 Cd366 2.223 . S
O374 C373 1.315 . S
O375 Cd365 2.240 . S
O375 C373 1.279 . S
O376 Cd366 2.297 . S
O376 C371 1.247 . S
O377 Cd366 2.439 . S
O377 C371 1.208 . S
O378 Cd379 2.223 . S
O378 C386 1.315 . S
Cd379 O378 2.223 . S
Cd379 O382 2.297 . S
Cd379 O383 2.439 . S
Cd379 O389 2.240 . S
Cd380 O381 2.240 . S
Cd380 O388 2.223 . S
Cd380 O390 2.297 . S
Cd380 O391 2.439 . S
O381 Cd380 2.240 . S
O381 C386 1.279 . S
O382 Cd379 2.297 . S
O382 C384 1.247 . S
O383 Cd379 2.439 . S
O383 C384 1.208 . S
C384 O382 1.247 . S
C384 O383 1.208 . S
C385 O390 1.247 . S
C385 O391 1.208 . S
C386 O378 1.315 . S
C386 O381 1.279 . S
C387 O388 1.315 . S
C387 O389 1.279 . S
O388 Cd380 2.223 . S
O388 C387 1.315 . S
O389 Cd379 2.240 . S
O389 C387 1.279 . S
O390 Cd380 2.297 . S
O390 C385 1.247 . S
O391 Cd380 2.439 . S
O391 C385 1.208 . S
O392 Cd393 2.223 . S
O392 C400 1.315 . S
Cd393 O392 2.223 . S
Cd393 O396 2.297 . S
Cd393 O397 2.439 . S
Cd393 O403 2.240 . S
Cd394 O395 2.240 . S
Cd394 O402 2.223 . S
Cd394 O404 2.297 . S
Cd394 O405 2.439 . S
O395 Cd394 2.240 . S
O395 C400 1.279 . S
O396 Cd393 2.297 . S
O396 C398 1.247 . S
O397 Cd393 2.439 . S
O397 C398 1.208 . S
C398 O396 1.247 . S
C398 O397 1.208 . S
C399 O404 1.247 . S
C399 O405 1.208 . S
C400 O392 1.315 . S
C400 O395 1.279 . S
C401 O402 1.315 . S
C401 O403 1.279 . S
O402 Cd394 2.223 . S
O402 C401 1.315 . S
O403 Cd393 2.240 . S
O403 C401 1.279 . S
O404 Cd394 2.297 . S
O404 C399 1.247 . S
O405 Cd394 2.439 . S
O405 C399 1.208 . S
O406 Cd407 2.223 . S
O406 C414 1.315 . S
Cd407 O406 2.223 . S
Cd407 O410 2.297 . S
Cd407 O411 2.439 . S
Cd407 O417 2.240 . S
Cd408 O409 2.240 . S
Cd408 O416 2.223 . S
Cd408 O418 2.297 . S
Cd408 O419 2.439 . S
O409 Cd408 2.240 . S
O409 C414 1.279 . S
O410 Cd407 2.297 . S
O410 C412 1.247 . S
O411 Cd407 2.439 . S
O411 C412 1.208 . S
C412 O410 1.247 . S
C412 O411 1.208 . S
C413 O418 1.247 . S
C413 O419 1.208 . S
C414 O406 1.315 . S
C414 O409 1.279 . S
C415 O416 1.315 . S
C415 O417 1.279 . S
O416 Cd408 2.223 . S
O416 C415 1.315 . S
O417 Cd407 2.240 . S
O417 C415 1.279 . S
O418 Cd408 2.297 . S
O418 C413 1.247 . S
O419 Cd408 2.439 . S
O419 C413 1.208 . S
O420 Cd421 2.223 . S
O420 C428 1.315 . S
Cd421 O420 2.223 . S
Cd421 O424 2.297 . S
Cd421 O425 2.439 . S
Cd421 O431 2.240 . S
Cd422 O423 2.240 . S
Cd422 O430 2.223 . S
Cd422 O432 2.297 . S
Cd422 O433 2.439 . S
O423 Cd422 2.240 . S
O423 C428 1.279 . S
O424 Cd421 2.297 . S
O424 C426 1.247 . S
O425 Cd421 2.439 . S
O425 C426 1.208 . S
C426 O424 1.247 . S
C426 O425 1.208 . S
C427 O432 1.247 . S
C427 O433 1.208 . S
C428 O420 1.315 . S
C428 O423 1.279 . S
C429 O430 1.315 . S
C429 O431 1.279 . S
O430 Cd422 2.223 . S
O430 C429 1.315 . S
O431 Cd421 2.240 . S
O431 C429 1.279 . S
O432 Cd422 2.297 . S
O432 C427 1.247 . S
O433 Cd422 2.439 . S
O433 C427 1.208 . S
O434 Cd435 2.223 . S
O434 C442 1.315 . S
Cd435 O434 2.223 . S
Cd435 O438 2.297 . S
Cd435 O439 2.439 . S
Cd435 O445 2.240 . S
Cd436 O437 2.240 . S
Cd436 O444 2.223 . S
Cd436 O446 2.297 . S
Cd436 O447 2.439 . S
O437 Cd436 2.240 . S
O437 C442 1.279 . S
O438 Cd435 2.297 . S
O438 C440 1.247 . S
O439 Cd435 2.439 . S
O439 C440 1.208 . S
C440 O438 1.247 . S
C440 O439 1.208 . S
C441 O446 1.247 . S
C441 O447 1.208 . S
C442 O434 1.315 . S
C442 O437 1.279 . S
C443 O444 1.315 . S
C443 O445 1.279 . S
O444 Cd436 2.223 . S
O444 C443 1.315 . S
O445 Cd435 2.240 . S
O445 C443 1.279 . S
O446 Cd436 2.297 . S
O446 C441 1.247 . S
O447 Cd436 2.439 . S
O447 C441 1.208 . S
H448 C454 0.930 . S
H449 C458 0.930 . S
H450 C463 0.929 . S
H451 C461 0.929 . S
H452 C456 0.929 . S
H453 C462 0.929 . S
C454 H448 0.930 . S
C454 C455 1.367 . S
C454 C462 1.378 . S
C455 C454 1.367 . S
C455 C463 1.433 . S
C456 H452 0.929 . S
C456 C458 1.378 . S
C456 C460 1.350 . S
C457 C460 1.463 . S
C457 C462 1.350 . S
C457 N465 1.427 . S
C458 H449 0.930 . S
C458 C456 1.378 . S
C458 C459 1.367 . S
C459 C458 1.367 . S
C459 C461 1.433 . S
C460 C456 1.350 . S
C460 C457 1.463 . S
C460 N464 1.427 . S
C461 H451 0.929 . S
C461 C459 1.433 . S
C461 N464 1.384 . S
C462 H453 0.929 . S
C462 C454 1.378 . S
C462 C457 1.350 . S
C463 H450 0.929 . S
C463 C455 1.433 . S
C463 N465 1.384 . S
N464 C460 1.427 . S
N464 C461 1.384 . S
N465 C457 1.427 . S
N465 C463 1.384 . S
H466 C472 0.930 . S
H467 C476 0.930 . S
H468 C481 0.929 . S
H469 C479 0.929 . S
H470 C474 0.929 . S
H471 C480 0.929 . S
C472 H466 0.930 . S
C472 C473 1.367 . S
C472 C480 1.378 . S
C473 C472 1.367 . S
C473 C481 1.433 . S
C474 H470 0.929 . S
C474 C476 1.378 . S
C474 C478 1.350 . S
C475 C478 1.463 . S
C475 C480 1.350 . S
C475 N483 1.427 . S
C476 H467 0.930 . S
C476 C474 1.378 . S
C476 C477 1.367 . S
C477 C476 1.367 . S
C477 C479 1.433 . S
C478 C474 1.350 . S
C478 C475 1.463 . S
C478 N482 1.427 . S
C479 H469 0.929 . S
C479 C477 1.433 . S
C479 N482 1.384 . S
C480 H471 0.929 . S
C480 C472 1.378 . S
C480 C475 1.350 . S
C481 H468 0.929 . S
C481 C473 1.433 . S
C481 N483 1.384 . S
N482 C478 1.427 . S
N482 C479 1.384 . S
N483 C475 1.427 . S
N483 C481 1.384 . S
H484 C490 0.930 . S
H485 C494 0.930 . S
H486 C499 0.929 . S
H487 C497 0.929 . S
H488 C492 0.929 . S
H489 C498 0.929 . S
C490 H484 0.930 . S
C490 C491 1.367 . S
C490 C498 1.378 . S
C491 C490 1.367 . S
C491 C499 1.433 . S
C492 H488 0.929 . S
C492 C494 1.378 . S
C492 C496 1.350 . S
C493 C496 1.463 . S
C493 C498 1.350 . S
C493 N501 1.427 . S
C494 H485 0.930 . S
C494 C492 1.378 . S
C494 C495 1.367 . S
C495 C494 1.367 . S
C495 C497 1.433 . S
C496 C492 1.350 . S
C496 C493 1.463 . S
C496 N500 1.427 . S
C497 H487 0.929 . S
C497 C495 1.433 . S
C497 N500 1.384 . S
C498 H489 0.929 . S
C498 C490 1.378 . S
C498 C493 1.350 . S
C499 H486 0.929 . S
C499 C491 1.433 . S
C499 N501 1.384 . S
N500 C496 1.427 . S
N500 C497 1.384 . S
N501 C493 1.427 . S
N501 C499 1.384 . S
H502 C508 0.930 . S
H503 C512 0.930 . S
H504 C517 0.929 . S
H505 C515 0.929 . S
H506 C510 0.929 . S
H507 C516 0.929 . S
C508 H502 0.930 . S
C508 C509 1.367 . S
C508 C516 1.378 . S
C509 C508 1.367 . S
C509 C517 1.433 . S
C510 H506 0.929 . S
C510 C512 1.378 . S
C510 C514 1.350 . S
C511 C514 1.463 . S
C511 C516 1.350 . S
C511 N519 1.427 . S
C512 H503 0.930 . S
C512 C510 1.378 . S
C512 C513 1.367 . S
C513 C512 1.367 . S
C513 C515 1.433 . S
C514 C510 1.350 . S
C514 C511 1.463 . S
C514 N518 1.427 . S
C515 H505 0.929 . S
C515 C513 1.433 . S
C515 N518 1.384 . S
C516 H507 0.929 . S
C516 C508 1.378 . S
C516 C511 1.350 . S
C517 H504 0.929 . S
C517 C509 1.433 . S
C517 N519 1.384 . S
N518 C514 1.427 . S
N518 C515 1.384 . S
N519 C511 1.427 . S
N519 C517 1.384 . S
H520 C526 0.930 . S
H521 C530 0.930 . S
H522 C535 0.929 . S
H523 C533 0.929 . S
H524 C528 0.929 . S
H525 C534 0.929 . S
C526 H520 0.930 . S
C526 C527 1.367 . S
C526 C534 1.378 . S
C527 C526 1.367 . S
C527 C535 1.433 . S
C528 H524 0.929 . S
C528 C530 1.378 . S
C528 C532 1.350 . S
C529 C532 1.463 . S
C529 C534 1.350 . S
C529 N537 1.427 . S
C530 H521 0.930 . S
C530 C528 1.378 . S
C530 C531 1.367 . S
C531 C530 1.367 . S
C531 C533 1.433 . S
C532 C528 1.350 . S
C532 C529 1.463 . S
C532 N536 1.427 . S
C533 H523 0.929 . S
C533 C531 1.433 . S
C533 N536 1.384 . S
C534 H525 0.929 . S
C534 C526 1.378 . S
C534 C529 1.350 . S
C535 H522 0.929 . S
C535 C527 1.433 . S
C535 N537 1.384 . S
N536 C532 1.427 . S
N536 C533 1.384 . S
N537 C529 1.427 . S
N537 C535 1.384 . S
H538 C544 0.930 . S
H539 C548 0.930 . S
H540 C553 0.929 . S
H541 C551 0.929 . S
H542 C546 0.929 . S
H543 C552 0.929 . S
C544 H538 0.930 . S
C544 C545 1.367 . S
C544 C552 1.378 . S
C545 C544 1.367 . S
C545 C553 1.433 . S
C546 H542 0.929 . S
C546 C548 1.378 . S
C546 C550 1.350 . S
C547 C550 1.463 . S
C547 C552 1.350 . S
C547 N555 1.427 . S
C548 H539 0.930 . S
C548 C546 1.378 . S
C548 C549 1.367 . S
C549 C548 1.367 . S
C549 C551 1.433 . S
C550 C546 1.350 . S
C550 C547 1.463 . S
C550 N554 1.427 . S
C551 H541 0.929 . S
C551 C549 1.433 . S
C551 N554 1.384 . S
C552 H543 0.929 . S
C552 C544 1.378 . S
C552 C547 1.350 . S
C553 H540 0.929 . S
C553 C545 1.433 . S
C553 N555 1.384 . S
N554 C550 1.427 . S
N554 C551 1.384 . S
N555 C547 1.427 . S
N555 C553 1.384 . S
H556 C562 0.930 . S
H557 C566 0.930 . S
H558 C571 0.929 . S
H559 C569 0.929 . S
H560 C564 0.929 . S
H561 C570 0.929 . S
C562 H556 0.930 . S
C562 C563 1.367 . S
C562 C570 1.378 . S
C563 C562 1.367 . S
C563 C571 1.433 . S
C564 H560 0.929 . S
C564 C566 1.378 . S
C564 C568 1.350 . S
C565 C568 1.463 . S
C565 C570 1.350 . S
C565 N573 1.427 . S
C566 H557 0.930 . S
C566 C564 1.378 . S
C566 C567 1.367 . S
C567 C566 1.367 . S
C567 C569 1.433 . S
C568 C564 1.350 . S
C568 C565 1.463 . S
C568 N572 1.427 . S
C569 H559 0.929 . S
C569 C567 1.433 . S
C569 N572 1.384 . S
C570 H561 0.929 . S
C570 C562 1.378 . S
C570 C565 1.350 . S
C571 H558 0.929 . S
C571 C563 1.433 . S
C571 N573 1.384 . S
N572 C568 1.427 . S
N572 C569 1.384 . S
N573 C565 1.427 . S
N573 C571 1.384 . S
H574 C580 0.930 . S
H575 C584 0.930 . S
H576 C589 0.929 . S
H577 C587 0.929 . S
H578 C582 0.929 . S
H579 C588 0.929 . S
C580 H574 0.930 . S
C580 C581 1.367 . S
C580 C588 1.378 . S
C581 C580 1.367 . S
C581 C589 1.433 . S
C582 H578 0.929 . S
C582 C584 1.378 . S
C582 C586 1.350 . S
C583 C586 1.463 . S
C583 C588 1.350 . S
C583 N591 1.427 . S
C584 H575 0.930 . S
C584 C582 1.378 . S
C584 C585 1.367 . S
C585 C584 1.367 . S
C585 C587 1.433 . S
C586 C582 1.350 . S
C586 C583 1.463 . S
C586 N590 1.427 . S
C587 H577 0.929 . S
C587 C585 1.433 . S
C587 N590 1.384 . S
C588 H579 0.929 . S
C588 C580 1.378 . S
C588 C583 1.350 . S
C589 H576 0.929 . S
C589 C581 1.433 . S
C589 N591 1.384 . S
N590 C586 1.427 . S
N590 C587 1.384 . S
N591 C583 1.427 . S
N591 C589 1.384 . S
H592 C598 0.930 . S
H593 C602 0.930 . S
H594 C607 0.929 . S
H595 C605 0.929 . S
H596 C600 0.929 . S
H597 C606 0.929 . S
C598 H592 0.930 . S
C598 C599 1.367 . S
C598 C606 1.378 . S
C599 C598 1.367 . S
C599 C607 1.433 . S
C600 H596 0.929 . S
C600 C602 1.378 . S
C600 C604 1.350 . S
C601 C604 1.463 . S
C601 C606 1.350 . S
C601 N609 1.427 . S
C602 H593 0.930 . S
C602 C600 1.378 . S
C602 C603 1.367 . S
C603 C602 1.367 . S
C603 C605 1.433 . S
C604 C600 1.350 . S
C604 C601 1.463 . S
C604 N608 1.427 . S
C605 H595 0.929 . S
C605 C603 1.433 . S
C605 N608 1.384 . S
C606 H597 0.929 . S
C606 C598 1.378 . S
C606 C601 1.350 . S
C607 H594 0.929 . S
C607 C599 1.433 . S
C607 N609 1.384 . S
N608 C604 1.427 . S
N608 C605 1.384 . S
N609 C601 1.427 . S
N609 C607 1.384 . S
H610 C616 0.930 . S
H611 C620 0.930 . S
H612 C625 0.929 . S
H613 C623 0.929 . S
H614 C618 0.929 . S
H615 C624 0.929 . S
C616 H610 0.930 . S
C616 C617 1.367 . S
C616 C624 1.378 . S
C617 C616 1.367 . S
C617 C625 1.433 . S
C618 H614 0.929 . S
C618 C620 1.378 . S
C618 C622 1.350 . S
C619 C622 1.463 . S
C619 C624 1.350 . S
C619 N627 1.427 . S
C620 H611 0.930 . S
C620 C618 1.378 . S
C620 C621 1.367 . S
C621 C620 1.367 . S
C621 C623 1.433 . S
C622 C618 1.350 . S
C622 C619 1.463 . S
C622 N626 1.427 . S
C623 H613 0.929 . S
C623 C621 1.433 . S
C623 N626 1.384 . S
C624 H615 0.929 . S
C624 C616 1.378 . S
C624 C619 1.350 . S
C625 H612 0.929 . S
C625 C617 1.433 . S
C625 N627 1.384 . S
N626 C622 1.427 . S
N626 C623 1.384 . S
N627 C619 1.427 . S
N627 C625 1.384 . S
H628 C634 0.930 . S
H629 C638 0.930 . S
H630 C643 0.929 . S
H631 C641 0.929 . S
H632 C636 0.929 . S
H633 C642 0.929 . S
C634 H628 0.930 . S
C634 C635 1.367 . S
C634 C642 1.378 . S
C635 C634 1.367 . S
C635 C643 1.433 . S
C636 H632 0.929 . S
C636 C638 1.378 . S
C636 C640 1.350 . S
C637 C640 1.463 . S
C637 C642 1.350 . S
C637 N645 1.427 . S
C638 H629 0.930 . S
C638 C636 1.378 . S
C638 C639 1.367 . S
C639 C638 1.367 . S
C639 C641 1.433 . S
C640 C636 1.350 . S
C640 C637 1.463 . S
C640 N644 1.427 . S
C641 H631 0.929 . S
C641 C639 1.433 . S
C641 N644 1.384 . S
C642 H633 0.929 . S
C642 C634 1.378 . S
C642 C637 1.350 . S
C643 H630 0.929 . S
C643 C635 1.433 . S
C643 N645 1.384 . S
N644 C640 1.427 . S
N644 C641 1.384 . S
N645 C637 1.427 . S
N645 C643 1.384 . S
H646 C652 0.930 . S
H647 C656 0.930 . S
H648 C661 0.929 . S
H649 C659 0.929 . S
H650 C654 0.929 . S
H651 C660 0.929 . S
C652 H646 0.930 . S
C652 C653 1.367 . S
C652 C660 1.378 . S
C653 C652 1.367 . S
C653 C661 1.433 . S
C654 H650 0.929 . S
C654 C656 1.378 . S
C654 C658 1.350 . S
C655 C658 1.463 . S
C655 C660 1.350 . S
C655 N663 1.427 . S
C656 H647 0.930 . S
C656 C654 1.378 . S
C656 C657 1.367 . S
C657 C656 1.367 . S
C657 C659 1.433 . S
C658 C654 1.350 . S
C658 C655 1.463 . S
C658 N662 1.427 . S
C659 H649 0.929 . S
C659 C657 1.433 . S
C659 N662 1.384 . S
C660 H651 0.929 . S
C660 C652 1.378 . S
C660 C655 1.350 . S
C661 H648 0.929 . S
C661 C653 1.433 . S
C661 N663 1.384 . S
N662 C658 1.427 . S
N662 C659 1.384 . S
N663 C655 1.427 . S
N663 C661 1.384 . S
H664 C670 0.930 . S
H665 C674 0.930 . S
H666 C679 0.929 . S
H667 C677 0.929 . S
H668 C672 0.929 . S
H669 C678 0.929 . S
C670 H664 0.930 . S
C670 C671 1.367 . S
C670 C678 1.378 . S
C671 C670 1.367 . S
C671 C679 1.433 . S
C672 H668 0.929 . S
C672 C674 1.378 . S
C672 C676 1.350 . S
C673 C676 1.463 . S
C673 C678 1.350 . S
C673 N681 1.427 . S
C674 H665 0.930 . S
C674 C672 1.378 . S
C674 C675 1.367 . S
C675 C674 1.367 . S
C675 C677 1.433 . S
C676 C672 1.350 . S
C676 C673 1.463 . S
C676 N680 1.427 . S
C677 H667 0.929 . S
C677 C675 1.433 . S
C677 N680 1.384 . S
C678 H669 0.929 . S
C678 C670 1.378 . S
C678 C673 1.350 . S
C679 H666 0.929 . S
C679 C671 1.433 . S
C679 N681 1.384 . S
N680 C676 1.427 . S
N680 C677 1.384 . S
N681 C673 1.427 . S
N681 C679 1.384 . S
H682 C688 0.930 . S
H683 C692 0.930 . S
H684 C697 0.929 . S
H685 C695 0.929 . S
H686 C690 0.929 . S
H687 C696 0.929 . S
C688 H682 0.930 . S
C688 C689 1.367 . S
C688 C696 1.378 . S
C689 C688 1.367 . S
C689 C697 1.433 . S
C690 H686 0.929 . S
C690 C692 1.378 . S
C690 C694 1.350 . S
C691 C694 1.463 . S
C691 C696 1.350 . S
C691 N699 1.427 . S
C692 H683 0.930 . S
C692 C690 1.378 . S
C692 C693 1.367 . S
C693 C692 1.367 . S
C693 C695 1.433 . S
C694 C690 1.350 . S
C694 C691 1.463 . S
C694 N698 1.427 . S
C695 H685 0.929 . S
C695 C693 1.433 . S
C695 N698 1.384 . S
C696 H687 0.929 . S
C696 C688 1.378 . S
C696 C691 1.350 . S
C697 H684 0.929 . S
C697 C689 1.433 . S
C697 N699 1.384 . S
N698 C694 1.427 . S
N698 C695 1.384 . S
N699 C691 1.427 . S
N699 C697 1.384 . S
H700 C706 0.930 . S
H701 C710 0.930 . S
H702 C715 0.929 . S
H703 C713 0.929 . S
H704 C708 0.929 . S
H705 C714 0.929 . S
C706 H700 0.930 . S
C706 C707 1.367 . S
C706 C714 1.378 . S
C707 C706 1.367 . S
C707 C715 1.433 . S
C708 H704 0.929 . S
C708 C710 1.378 . S
C708 C712 1.350 . S
C709 C712 1.463 . S
C709 C714 1.350 . S
C709 N717 1.427 . S
C710 H701 0.930 . S
C710 C708 1.378 . S
C710 C711 1.367 . S
C711 C710 1.367 . S
C711 C713 1.433 . S
C712 C708 1.350 . S
C712 C709 1.463 . S
C712 N716 1.427 . S
C713 H703 0.929 . S
C713 C711 1.433 . S
C713 N716 1.384 . S
C714 H705 0.929 . S
C714 C706 1.378 . S
C714 C709 1.350 . S
C715 H702 0.929 . S
C715 C707 1.433 . S
C715 N717 1.384 . S
N716 C712 1.427 . S
N716 C713 1.384 . S
N717 C709 1.427 . S
N717 C715 1.384 . S
H718 C724 0.930 . S
H719 C728 0.930 . S
H720 C733 0.929 . S
H721 C731 0.929 . S
H722 C726 0.929 . S
H723 C732 0.929 . S
C724 H718 0.930 . S
C724 C725 1.367 . S
C724 C732 1.378 . S
C725 C724 1.367 . S
C725 C733 1.433 . S
C726 H722 0.929 . S
C726 C728 1.378 . S
C726 C730 1.350 . S
C727 C730 1.463 . S
C727 C732 1.350 . S
C727 N735 1.427 . S
C728 H719 0.930 . S
C728 C726 1.378 . S
C728 C729 1.367 . S
C729 C728 1.367 . S
C729 C731 1.433 . S
C730 C726 1.350 . S
C730 C727 1.463 . S
C730 N734 1.427 . S
C731 H721 0.929 . S
C731 C729 1.433 . S
C731 N734 1.384 . S
C732 H723 0.929 . S
C732 C724 1.378 . S
C732 C727 1.350 . S
C733 H720 0.929 . S
C733 C725 1.433 . S
C733 N735 1.384 . S
N734 C730 1.427 . S
N734 C731 1.384 . S
N735 C727 1.427 . S
N735 C733 1.384 . S
H736 C742 0.930 . S
H737 C746 0.930 . S
H738 C751 0.929 . S
H739 C749 0.929 . S
H740 C744 0.929 1_455 S
H741 C750 0.929 1_655 S
C742 H736 0.930 . S
C742 C743 1.367 . S
C742 C750 1.378 . S
C743 C742 1.367 . S
C743 C751 1.433 . S
C744 H740 0.929 1_655 S
C744 C746 1.378 . S
C744 C748 1.350 . S
C745 C748 1.463 1_455 S
C745 C750 1.350 . S
C745 N753 1.427 . S
C746 H737 0.930 . S
C746 C744 1.378 . S
C746 C747 1.367 . S
C747 C746 1.367 . S
C747 C749 1.433 . S
C748 C744 1.350 . S
C748 C745 1.463 1_655 S
C748 N752 1.427 . S
C749 H739 0.929 . S
C749 C747 1.433 . S
C749 N752 1.384 . S
C750 H741 0.929 1_455 S
C750 C742 1.378 . S
C750 C745 1.350 . S
C751 H738 0.929 . S
C751 C743 1.433 . S
C751 N753 1.384 . S
N752 C748 1.427 . S
N752 C749 1.384 . S
N753 C745 1.427 . S
N753 C751 1.384 . S
H754 C760 0.930 . S
H755 C764 0.930 . S
H756 C769 0.929 . S
H757 C767 0.929 . S
H758 C762 0.929 . S
H759 C768 0.929 . S
C760 H754 0.930 . S
C760 C761 1.367 . S
C760 C768 1.378 . S
C761 C760 1.367 . S
C761 C769 1.433 . S
C762 H758 0.929 . S
C762 C764 1.378 . S
C762 C766 1.350 . S
C763 C766 1.463 1_545 S
C763 C768 1.350 . S
C763 N771 1.427 . S
C764 H755 0.930 . S
C764 C762 1.378 . S
C764 C765 1.367 . S
C765 C764 1.367 . S
C765 C767 1.433 . S
C766 C762 1.350 . S
C766 C763 1.463 1_565 S
C766 N770 1.427 . S
C767 H757 0.929 . S
C767 C765 1.433 . S
C767 N770 1.384 . S
C768 H759 0.929 . S
C768 C760 1.378 . S
C768 C763 1.350 . S
C769 H756 0.929 . S
C769 C761 1.433 . S
C769 N771 1.384 . S
N770 C766 1.427 . S
N770 C767 1.384 . S
N771 C763 1.427 . S
N771 C769 1.384 . S
H772 C778 0.930 1_565 S
H773 C782 0.930 1_545 S
H774 C787 0.929 . S
H775 C785 0.929 . S
H776 C780 0.929 . S
H777 C786 0.929 . S
C778 H772 0.930 1_545 S
C778 C779 1.367 . S
C778 C786 1.378 1_545 S
C779 C778 1.367 . S
C779 C787 1.433 . S
C780 H776 0.929 . S
C780 C782 1.378 1_545 S
C780 C784 1.350 1_545 S
C781 C784 1.463 1_446 S
C781 C786 1.350 1_545 S
C781 N789 1.427 . S
C782 H773 0.930 1_565 S
C782 C780 1.378 1_565 S
C782 C783 1.367 . S
C783 C782 1.367 . S
C783 C785 1.433 . S
C784 C780 1.350 1_565 S
C784 C781 1.463 1_664 S
C784 N788 1.427 . S
C785 H775 0.929 . S
C785 C783 1.433 . S
C785 N788 1.384 . S
C786 H777 0.929 . S
C786 C778 1.378 1_565 S
C786 C781 1.350 1_565 S
C787 H774 0.929 . S
C787 C779 1.433 . S
C787 N789 1.384 . S
N788 C784 1.427 . S
N788 C785 1.384 . S
N789 C781 1.427 . S
N789 C787 1.384 . S
H790 C796 0.930 . S
H791 C800 0.930 . S
H792 C805 0.929 . S
H793 C803 0.929 . S
H794 C798 0.929 . S
H795 C804 0.929 . S
C796 H790 0.930 . S
C796 C797 1.367 . S
C796 C804 1.378 1_556 S
C797 C796 1.367 . S
C797 C805 1.433 . S
C798 H794 0.929 . S
C798 C800 1.378 1_556 S
C798 C802 1.350 1_556 S
C799 C802 1.463 1_556 S
C799 C804 1.350 1_556 S
C799 N807 1.427 . S
C800 H791 0.930 . S
C800 C798 1.378 1_554 S
C800 C801 1.367 . S
C801 C800 1.367 . S
C801 C803 1.433 . S
C802 C798 1.350 1_554 S
C802 C799 1.463 1_554 S
C802 N806 1.427 . S
C803 H793 0.929 . S
C803 C801 1.433 . S
C803 N806 1.384 . S
C804 H795 0.929 . S
C804 C796 1.378 1_554 S
C804 C799 1.350 1_554 S
C805 H792 0.929 . S
C805 C797 1.433 . S
C805 N807 1.384 . S
N806 C802 1.427 . S
N806 C803 1.384 . S
N807 C799 1.427 . S
N807 C805 1.384 . S
H808 C814 0.930 . S
H809 C818 0.930 . S
H810 C823 0.929 . S
H811 C821 0.929 . S
H812 C816 0.929 . S
H813 C822 0.929 . S
C814 H808 0.930 . S
C814 C815 1.367 . S
C814 C822 1.378 . S
C815 C814 1.367 . S
C815 C823 1.433 . S
C816 H812 0.929 . S
C816 C818 1.378 . S
C816 C820 1.350 . S
C817 C820 1.463 1_655 S
C817 C822 1.350 . S
C817 N825 1.427 . S
C818 H809 0.930 . S
C818 C816 1.378 . S
C818 C819 1.367 . S
C819 C818 1.367 . S
C819 C821 1.433 . S
C820 C816 1.350 . S
C820 C817 1.463 1_455 S
C820 N824 1.427 . S
C821 H811 0.929 . S
C821 C819 1.433 . S
C821 N824 1.384 . S
C822 H813 0.929 . S
C822 C814 1.378 . S
C822 C817 1.350 . S
C823 H810 0.929 . S
C823 C815 1.433 . S
C823 N825 1.384 . S
N824 C820 1.427 . S
N824 C821 1.384 . S
N825 C817 1.427 . S
N825 C823 1.384 . S
H826 C832 0.930 1_565 S
H827 C836 0.930 1_545 S
H828 C841 0.929 . S
H829 C839 0.929 . S
H830 C834 0.929 . S
H831 C840 0.929 . S
C832 H826 0.930 1_545 S
C832 C833 1.367 . S
C832 C840 1.378 1_545 S
C833 C832 1.367 . S
C833 C841 1.433 . S
C834 H830 0.929 . S
C834 C836 1.378 1_545 S
C834 C838 1.350 1_545 S
C835 C838 1.463 1_545 S
C835 C840 1.350 1_545 S
C835 N843 1.427 . S
C836 H827 0.930 1_565 S
C836 C834 1.378 1_565 S
C836 C837 1.367 . S
C837 C836 1.367 . S
C837 C839 1.433 . S
C838 C834 1.350 1_565 S
C838 C835 1.463 1_565 S
C838 N842 1.427 . S
C839 H829 0.929 . S
C839 C837 1.433 . S
C839 N842 1.384 . S
C840 H831 0.929 . S
C840 C832 1.378 1_565 S
C840 C835 1.350 1_565 S
C841 H828 0.929 . S
C841 C833 1.433 . S
C841 N843 1.384 . S
N842 C838 1.427 . S
N842 C839 1.384 . S
N843 C835 1.427 . S
N843 C841 1.384 . S
H844 C850 0.930 . S
H845 C854 0.930 . S
H846 C859 0.929 . S
H847 C857 0.929 . S
H848 C852 0.929 . S
H849 C858 0.929 . S
C850 H844 0.930 . S
C850 C851 1.367 . S
C850 C858 1.378 . S
C851 C850 1.367 . S
C851 C859 1.433 . S
C852 H848 0.929 . S
C852 C854 1.378 . S
C852 C856 1.350 . S
C853 C856 1.463 1_556 S
C853 C858 1.350 . S
C853 N861 1.427 . S
C854 H845 0.930 . S
C854 C852 1.378 . S
C854 C855 1.367 . S
C855 C854 1.367 . S
C855 C857 1.433 . S
C856 C852 1.350 . S
C856 C853 1.463 1_554 S
C856 N860 1.427 . S
C857 H847 0.929 . S
C857 C855 1.433 . S
C857 N860 1.384 . S
C858 H849 0.929 . S
C858 C850 1.378 . S
C858 C853 1.350 . S
C859 H846 0.929 . S
C859 C851 1.433 . S
C859 N861 1.384 . S
N860 C856 1.427 . S
N860 C857 1.384 . S
N861 C853 1.427 . S
N861 C859 1.384 . S
H862 C868 0.930 . S
H863 C872 0.930 . S
H864 C877 0.929 . S
H865 C875 0.929 . S
H866 C870 0.929 . S
H867 C876 0.929 . S
C868 H862 0.930 . S
C868 C869 1.367 . S
C868 C876 1.378 . S
C869 C868 1.367 . S
C869 C877 1.433 . S
C870 H866 0.929 . S
C870 C872 1.378 . S
C870 C874 1.350 . S
C871 C874 1.463 . S
C871 C876 1.350 . S
C871 N879 1.427 . S
C872 H863 0.930 . S
C872 C870 1.378 . S
C872 C873 1.367 . S
C873 C872 1.367 . S
C873 C875 1.433 . S
C874 C870 1.350 . S
C874 C871 1.463 . S
C874 N878 1.427 . S
C875 H865 0.929 . S
C875 C873 1.433 . S
C875 N878 1.384 . S
C876 H867 0.929 . S
C876 C868 1.378 . S
C876 C871 1.350 . S
C877 H864 0.929 . S
C877 C869 1.433 . S
C877 N879 1.384 . S
N878 C874 1.427 . S
N878 C875 1.384 . S
N879 C871 1.427 . S
N879 C877 1.384 . S
H880 C886 0.930 . S
H881 C890 0.930 . S
H882 C895 0.929 . S
H883 C893 0.929 . S
H884 C888 0.929 . S
H885 C894 0.929 . S
C886 H880 0.930 . S
C886 C887 1.367 . S
C886 C894 1.378 . S
C887 C886 1.367 . S
C887 C895 1.433 . S
C888 H884 0.929 . S
C888 C890 1.378 . S
C888 C892 1.350 . S
C889 C892 1.463 1_455 S
C889 C894 1.350 . S
C889 N897 1.427 . S
C890 H881 0.930 . S
C890 C888 1.378 . S
C890 C891 1.367 . S
C891 C890 1.367 . S
C891 C893 1.433 . S
C892 C888 1.350 . S
C892 C889 1.463 1_655 S
C892 N896 1.427 . S
C893 H883 0.929 . S
C893 C891 1.433 . S
C893 N896 1.384 . S
C894 H885 0.929 . S
C894 C886 1.378 . S
C894 C889 1.350 . S
C895 H882 0.929 . S
C895 C887 1.433 . S
C895 N897 1.384 . S
N896 C892 1.427 . S
N896 C893 1.384 . S
N897 C889 1.427 . S
N897 C895 1.384 . S
H898 C904 0.930 . S
H899 C908 0.930 . S
H900 C913 0.929 . S
H901 C911 0.929 . S
H902 C906 0.929 . S
H903 C912 0.929 . S
C904 H898 0.930 . S
C904 C905 1.367 . S
C904 C912 1.378 . S
C905 C904 1.367 . S
C905 C913 1.433 . S
C906 H902 0.929 . S
C906 C908 1.378 . S
C906 C910 1.350 . S
C907 C910 1.463 . S
C907 C912 1.350 . S
C907 N915 1.427 . S
C908 H899 0.930 . S
C908 C906 1.378 . S
C908 C909 1.367 . S
C909 C908 1.367 . S
C909 C911 1.433 . S
C910 C906 1.350 . S
C910 C907 1.463 . S
C910 N914 1.427 . S
C911 H901 0.929 . S
C911 C909 1.433 . S
C911 N914 1.384 . S
C912 H903 0.929 . S
C912 C904 1.378 . S
C912 C907 1.350 . S
C913 H900 0.929 . S
C913 C905 1.433 . S
C913 N915 1.384 . S
N914 C910 1.427 . S
N914 C911 1.384 . S
N915 C907 1.427 . S
N915 C913 1.384 . S
H916 C922 0.930 . S
H917 C926 0.930 . S
H918 C931 0.929 . S
H919 C929 0.929 . S
H920 C924 0.929 . S
H921 C930 0.929 . S
C922 H916 0.930 . S
C922 C923 1.367 . S
C922 C930 1.378 . S
C923 C922 1.367 . S
C923 C931 1.433 . S
C924 H920 0.929 . S
C924 C926 1.378 . S
C924 C928 1.350 . S
C925 C928 1.463 . S
C925 C930 1.350 . S
C925 N933 1.427 . S
C926 H917 0.930 . S
C926 C924 1.378 . S
C926 C927 1.367 . S
C927 C926 1.367 . S
C927 C929 1.433 . S
C928 C924 1.350 . S
C928 C925 1.463 . S
C928 N932 1.427 . S
C929 H919 0.929 . S
C929 C927 1.433 . S
C929 N932 1.384 . S
C930 H921 0.929 . S
C930 C922 1.378 . S
C930 C925 1.350 . S
C931 H918 0.929 . S
C931 C923 1.433 . S
C931 N933 1.384 . S
N932 C928 1.427 . S
N932 C929 1.384 . S
N933 C925 1.427 . S
N933 C931 1.384 . S
H934 C940 0.930 . S
H935 C944 0.930 . S
H936 C949 0.929 . S
H937 C947 0.929 . S
H938 C942 0.929 . S
H939 C948 0.929 . S
C940 H934 0.930 . S
C940 C941 1.367 . S
C940 C948 1.378 . S
C941 C940 1.367 . S
C941 C949 1.433 . S
C942 H938 0.929 . S
C942 C944 1.378 . S
C942 C946 1.350 . S
C943 C946 1.463 . S
C943 C948 1.350 . S
C943 N951 1.427 . S
C944 H935 0.930 . S
C944 C942 1.378 . S
C944 C945 1.367 . S
C945 C944 1.367 . S
C945 C947 1.433 . S
C946 C942 1.350 . S
C946 C943 1.463 . S
C946 N950 1.427 . S
C947 H937 0.929 . S
C947 C945 1.433 . S
C947 N950 1.384 . S
C948 H939 0.929 . S
C948 C940 1.378 . S
C948 C943 1.350 . S
C949 H936 0.929 . S
C949 C941 1.433 . S
C949 N951 1.384 . S
N950 C946 1.427 . S
N950 C947 1.384 . S
N951 C943 1.427 . S
N951 C949 1.384 . S
H952 C958 0.930 . S
H953 C962 0.930 . S
H954 C967 0.929 . S
H955 C965 0.929 . S
H956 C960 0.929 . S
H957 C966 0.929 . S
C958 H952 0.930 . S
C958 C959 1.367 . S
C958 C966 1.378 . S
C959 C958 1.367 . S
C959 C967 1.433 . S
C960 H956 0.929 . S
C960 C962 1.378 . S
C960 C964 1.350 . S
C961 C964 1.463 . S
C961 C966 1.350 . S
C961 N969 1.427 . S
C962 H953 0.930 . S
C962 C960 1.378 . S
C962 C963 1.367 . S
C963 C962 1.367 . S
C963 C965 1.433 . S
C964 C960 1.350 . S
C964 C961 1.463 . S
C964 N968 1.427 . S
C965 H955 0.929 . S
C965 C963 1.433 . S
C965 N968 1.384 . S
C966 H957 0.929 . S
C966 C958 1.378 . S
C966 C961 1.350 . S
C967 H954 0.929 . S
C967 C959 1.433 . S
C967 N969 1.384 . S
N968 C964 1.427 . S
N968 C965 1.384 . S
N969 C961 1.427 . S
N969 C967 1.384 . S
H970 C976 0.930 . S
H971 C980 0.930 . S
H972 C985 0.929 . S
H973 C983 0.929 . S
H974 C978 0.937 . S
H975 C984 0.937 . S
C976 H970 0.930 . S
C976 C977 1.367 . S
C976 C984 1.378 . S
C977 C976 1.367 . S
C977 C985 1.433 . S
C978 H974 0.937 . S
C978 C980 1.378 . S
C978 C982 1.350 . S
C979 C982 1.463 1_565 S
C979 C984 1.350 . S
C979 N987 1.427 . S
C980 H971 0.930 . S
C980 C978 1.378 . S
C980 C981 1.367 . S
C981 C980 1.367 . S
C981 C983 1.433 . S
C982 C978 1.350 . S
C982 C979 1.463 1_545 S
C982 N986 1.427 . S
C983 H973 0.929 . S
C983 C981 1.433 . S
C983 N986 1.384 . S
C984 H975 0.937 . S
C984 C976 1.378 . S
C984 C979 1.350 . S
C985 H972 0.929 . S
C985 C977 1.433 . S
C985 N987 1.384 . S
N986 C982 1.427 . S
N986 C983 1.384 . S
N987 C979 1.427 . S
N987 C985 1.384 . S
H988 C994 0.930 . S
H989 C998 0.930 . S
H990 C1003 0.929 . S
H991 C1001 0.929 . S
H992 C996 0.929 . S
H993 C1002 0.929 . S
C994 H988 0.930 . S
C994 C995 1.367 . S
C994 C1002 1.378 . S
C995 C994 1.367 . S
C995 C1003 1.433 . S
C996 H992 0.929 . S
C996 C998 1.378 . S
C996 C1000 1.350 . S
C997 C1000 1.463 . S
C997 C1002 1.350 . S
C997 N1005 1.427 . S
C998 H989 0.930 . S
C998 C996 1.378 . S
C998 C999 1.367 . S
C999 C998 1.367 . S
C999 C1001 1.433 . S
C1000 C996 1.350 . S
C1000 C997 1.463 . S
C1000 N1004 1.427 . S
C1001 H991 0.929 . S
C1001 C999 1.433 . S
C1001 N1004 1.384 . S
C1002 H993 0.929 . S
C1002 C994 1.378 . S
C1002 C997 1.350 . S
C1003 H990 0.929 . S
C1003 C995 1.433 . S
C1003 N1005 1.384 . S
N1004 C1000 1.427 . S
N1004 C1001 1.384 . S
N1005 C997 1.427 . S
N1005 C1003 1.384 . S
H1006 C1012 0.930 . S
H1007 C1016 0.930 . S
H1008 C1021 0.929 . S
H1009 C1019 0.929 . S
H1010 C1014 0.929 . S
H1011 C1020 0.929 . S
C1012 H1006 0.930 . S
C1012 C1013 1.367 . S
C1012 C1020 1.378 . S
C1013 C1012 1.367 . S
C1013 C1021 1.433 . S
C1014 H1010 0.929 . S
C1014 C1016 1.378 . S
C1014 C1018 1.350 . S
C1015 C1018 1.463 1_554 S
C1015 C1020 1.350 . S
C1015 N1023 1.427 . S
C1016 H1007 0.930 . S
C1016 C1014 1.378 . S
C1016 C1017 1.367 . S
C1017 C1016 1.367 . S
C1017 C1019 1.433 . S
C1018 C1014 1.350 . S
C1018 C1015 1.463 1_556 S
C1018 N1022 1.427 . S
C1019 H1009 0.929 . S
C1019 C1017 1.433 . S
C1019 N1022 1.384 . S
C1020 H1011 0.929 . S
C1020 C1012 1.378 . S
C1020 C1015 1.350 . S
C1021 H1008 0.929 . S
C1021 C1013 1.433 . S
C1021 N1023 1.384 . S
N1022 C1018 1.427 . S
N1022 C1019 1.384 . S
N1023 C1015 1.427 . S
N1023 C1021 1.384 . S
H1024 C1030 0.930 . S
H1025 C1034 0.930 . S
H1026 C1039 0.929 . S
H1027 C1037 0.929 . S
H1028 C1032 0.929 . S
H1029 C1038 0.929 . S
C1030 H1024 0.930 . S
C1030 C1031 1.367 . S
C1030 C1038 1.378 . S
C1031 C1030 1.367 . S
C1031 C1039 1.433 . S
C1032 H1028 0.929 . S
C1032 C1034 1.378 . S
C1032 C1036 1.350 . S
C1033 C1036 1.463 . S
C1033 C1038 1.350 . S
C1033 N1041 1.427 . S
C1034 H1025 0.930 . S
C1034 C1032 1.378 . S
C1034 C1035 1.367 . S
C1035 C1034 1.367 . S
C1035 C1037 1.433 . S
C1036 C1032 1.350 . S
C1036 C1033 1.463 . S
C1036 N1040 1.427 . S
C1037 H1027 0.929 . S
C1037 C1035 1.433 . S
C1037 N1040 1.384 . S
C1038 H1029 0.929 . S
C1038 C1030 1.378 . S
C1038 C1033 1.350 . S
C1039 H1026 0.929 . S
C1039 C1031 1.433 . S
C1039 N1041 1.384 . S
N1040 C1036 1.427 . S
N1040 C1037 1.384 . S
N1041 C1033 1.427 . S
N1041 C1039 1.384 . S
H1042 C1048 0.930 . S
H1043 C1052 0.924 1_545 S
H1044 C1057 0.929 . S
H1045 C1055 0.929 . S
H1046 C1050 0.929 . S
H1047 C1056 0.929 . S
C1048 H1042 0.930 . S
C1048 C1049 1.367 . S
C1048 C1056 1.378 . S
C1049 C1048 1.367 . S
C1049 C1057 1.433 . S
C1050 H1046 0.929 . S
C1050 C1052 1.378 . S
C1050 C1054 1.350 . S
C1051 C1054 1.463 . S
C1051 C1056 1.350 . S
C1051 N1059 1.427 . S
C1052 H1043 0.924 1_565 S
C1052 C1050 1.378 . S
C1052 C1053 1.367 . S
C1053 C1052 1.367 . S
C1053 C1055 1.433 . S
C1054 C1050 1.350 . S
C1054 C1051 1.463 . S
C1054 N1058 1.427 . S
C1055 H1045 0.929 . S
C1055 C1053 1.433 . S
C1055 N1058 1.384 . S
C1056 H1047 0.929 . S
C1056 C1048 1.378 . S
C1056 C1051 1.350 . S
C1057 H1044 0.929 . S
C1057 C1049 1.433 . S
C1057 N1059 1.384 . S
N1058 C1054 1.427 . S
N1058 C1055 1.384 . S
N1059 C1051 1.427 . S
N1059 C1057 1.384 . S
H1060 C1066 0.930 . S
H1061 C1070 0.930 . S
H1062 C1075 0.941 . S
H1063 C1073 0.929 . S
H1064 C1068 0.929 . S
H1065 C1074 0.929 . S
C1066 H1060 0.930 . S
C1066 C1067 1.367 . S
C1066 C1074 1.378 . S
C1067 C1066 1.367 . S
C1067 C1075 1.433 . S
C1068 H1064 0.929 . S
C1068 C1070 1.378 . S
C1068 C1072 1.350 . S
C1069 C1072 1.463 . S
C1069 C1074 1.350 . S
C1069 N1077 1.427 . S
C1070 H1061 0.930 . S
C1070 C1068 1.378 . S
C1070 C1071 1.367 . S
C1071 C1070 1.367 . S
C1071 C1073 1.433 . S
C1072 C1068 1.350 . S
C1072 C1069 1.463 . S
C1072 N1076 1.427 . S
C1073 H1063 0.929 . S
C1073 C1071 1.433 . S
C1073 N1076 1.384 . S
C1074 H1065 0.929 . S
C1074 C1066 1.378 . S
C1074 C1069 1.350 . S
C1075 H1062 0.941 . S
C1075 C1067 1.433 . S
C1075 N1077 1.384 . S
N1076 C1072 1.427 . S
N1076 C1073 1.384 . S
N1077 C1069 1.427 . S
N1077 C1075 1.384 . S
H1078 C1084 0.930 . S
H1079 C1088 0.930 . S
H1080 C1093 0.929 . S
H1081 C1091 0.929 . S
H1082 C1086 0.929 . S
H1083 C1092 0.929 . S
C1084 H1078 0.930 . S
C1084 C1085 1.367 . S
C1084 C1092 1.378 . S
C1085 C1084 1.367 . S
C1085 C1093 1.433 . S
C1086 H1082 0.929 . S
C1086 C1088 1.378 . S
C1086 C1090 1.350 . S
C1087 C1090 1.463 . S
C1087 C1092 1.350 . S
C1087 N1095 1.427 . S
C1088 H1079 0.930 . S
C1088 C1086 1.378 . S
C1088 C1089 1.367 . S
C1089 C1088 1.367 . S
C1089 C1091 1.433 . S
C1090 C1086 1.350 . S
C1090 C1087 1.463 . S
C1090 N1094 1.427 . S
C1091 H1081 0.929 . S
C1091 C1089 1.433 . S
C1091 N1094 1.384 . S
C1092 H1083 0.929 . S
C1092 C1084 1.378 . S
C1092 C1087 1.350 . S
C1093 H1080 0.929 . S
C1093 C1085 1.433 . S
C1093 N1095 1.384 . S
N1094 C1090 1.427 . S
N1094 C1091 1.384 . S
N1095 C1087 1.427 . S
N1095 C1093 1.384 . S
H1096 C1102 0.930 . S
H1097 C1106 0.930 . S
H1098 C1111 0.929 . S
H1099 C1109 0.929 . S
H1100 C1104 0.929 . S
H1101 C1110 0.929 . S
C1102 H1096 0.930 . S
C1102 C1103 1.367 . S
C1102 C1110 1.378 . S
C1103 C1102 1.367 . S
C1103 C1111 1.433 . S
C1104 H1100 0.929 . S
C1104 C1106 1.378 . S
C1104 C1108 1.350 . S
C1105 C1108 1.463 . S
C1105 C1110 1.350 . S
C1105 N1113 1.427 . S
C1106 H1097 0.930 . S
C1106 C1104 1.378 . S
C1106 C1107 1.367 . S
C1107 C1106 1.367 . S
C1107 C1109 1.433 . S
C1108 C1104 1.350 . S
C1108 C1105 1.463 . S
C1108 N1112 1.427 . S
C1109 H1099 0.929 . S
C1109 C1107 1.433 . S
C1109 N1112 1.384 . S
C1110 H1101 0.929 . S
C1110 C1102 1.378 . S
C1110 C1105 1.350 . S
C1111 H1098 0.929 . S
C1111 C1103 1.433 . S
C1111 N1113 1.384 . S
N1112 C1108 1.427 . S
N1112 C1109 1.384 . S
N1113 C1105 1.427 . S
N1113 C1111 1.384 . S
H1114 C1120 0.930 1_565 S
H1115 C1124 0.930 . S
H1116 C1129 0.929 . S
H1117 C1127 0.929 . S
H1118 C1122 0.929 . S
H1119 C1128 0.929 . S
C1120 H1114 0.930 1_545 S
C1120 C1121 1.367 . S
C1120 C1128 1.378 . S
C1121 C1120 1.367 . S
C1121 C1129 1.433 . S
C1122 H1118 0.929 . S
C1122 C1124 1.378 . S
C1122 C1126 1.350 . S
C1123 C1126 1.463 . S
C1123 C1128 1.350 . S
C1123 N1131 1.427 . S
C1124 H1115 0.930 . S
C1124 C1122 1.378 . S
C1124 C1125 1.367 . S
C1125 C1124 1.367 . S
C1125 C1127 1.433 . S
C1126 C1122 1.350 . S
C1126 C1123 1.463 . S
C1126 N1130 1.427 . S
C1127 H1117 0.929 . S
C1127 C1125 1.433 . S
C1127 N1130 1.384 . S
C1128 H1119 0.929 . S
C1128 C1120 1.378 . S
C1128 C1123 1.350 . S
C1129 H1116 0.929 . S
C1129 C1121 1.433 . S
C1129 N1131 1.384 . S
N1130 C1126 1.427 . S
N1130 C1127 1.384 . S
N1131 C1123 1.427 . S
N1131 C1129 1.384 . S
H1132 C1138 0.930 . S
H1133 C1142 0.930 . S
H1134 C1147 0.929 . S
H1135 C1145 0.929 1_565 S
H1136 C1140 0.929 . S
H1137 C1146 0.929 . S
C1138 H1132 0.930 . S
C1138 C1139 1.367 . S
C1138 C1146 1.378 . S
C1139 C1138 1.367 . S
C1139 C1147 1.433 . S
C1140 H1136 0.929 . S
C1140 C1142 1.378 . S
C1140 C1144 1.350 . S
C1141 C1144 1.463 . S
C1141 C1146 1.350 . S
C1141 N1149 1.427 . S
C1142 H1133 0.930 . S
C1142 C1140 1.378 . S
C1142 C1143 1.367 . S
C1143 C1142 1.367 . S
C1143 C1145 1.433 . S
C1144 C1140 1.350 . S
C1144 C1141 1.463 . S
C1144 N1148 1.427 . S
C1145 H1135 0.929 1_545 S
C1145 C1143 1.433 . S
C1145 N1148 1.384 . S
C1146 H1137 0.929 . S
C1146 C1138 1.378 . S
C1146 C1141 1.350 . S
C1147 H1134 0.929 . S
C1147 C1139 1.433 . S
C1147 N1149 1.384 . S
N1148 C1144 1.427 . S
N1148 C1145 1.384 . S
N1149 C1141 1.427 . S
N1149 C1147 1.384 . S
H1150 C1156 0.930 . S
H1151 C1160 0.930 . S
H1152 C1165 0.929 . S
H1153 C1163 0.929 . S
H1154 C1158 0.929 . S
H1155 C1164 0.929 . S
C1156 H1150 0.930 . S
C1156 C1157 1.367 . S
C1156 C1164 1.378 . S
C1157 C1156 1.367 . S
C1157 C1165 1.433 . S
C1158 H1154 0.929 . S
C1158 C1160 1.378 . S
C1158 C1162 1.350 . S
C1159 C1162 1.463 . S
C1159 C1164 1.350 . S
C1159 N1167 1.427 . S
C1160 H1151 0.930 . S
C1160 C1158 1.378 . S
C1160 C1161 1.367 . S
C1161 C1160 1.367 . S
C1161 C1163 1.433 . S
C1162 C1158 1.350 . S
C1162 C1159 1.463 . S
C1162 N1166 1.427 . S
C1163 H1153 0.929 . S
C1163 C1161 1.433 . S
C1163 N1166 1.384 . S
C1164 H1155 0.929 . S
C1164 C1156 1.378 . S
C1164 C1159 1.350 . S
C1165 H1152 0.929 . S
C1165 C1157 1.433 . S
C1165 N1167 1.384 . S
N1166 C1162 1.427 . S
N1166 C1163 1.384 . S
N1167 C1159 1.427 . S
N1167 C1165 1.384 . S
H1168 C1174 0.930 . S
H1169 C1178 0.930 . S
H1170 C1183 0.929 . S
H1171 C1181 0.929 . S
H1172 C1176 0.929 . S
H1173 C1182 0.929 . S
C1174 H1168 0.930 . S
C1174 C1175 1.367 . S
C1174 C1182 1.378 . S
C1175 C1174 1.367 . S
C1175 C1183 1.433 . S
C1176 H1172 0.929 . S
C1176 C1178 1.378 . S
C1176 C1180 1.350 . S
C1177 C1180 1.463 . S
C1177 C1182 1.350 . S
C1177 N1185 1.427 . S
C1178 H1169 0.930 . S
C1178 C1176 1.378 . S
C1178 C1179 1.367 . S
C1179 C1178 1.367 . S
C1179 C1181 1.433 . S
C1180 C1176 1.350 . S
C1180 C1177 1.463 . S
C1180 N1184 1.427 . S
C1181 H1171 0.929 . S
C1181 C1179 1.433 . S
C1181 N1184 1.384 . S
C1182 H1173 0.929 . S
C1182 C1174 1.378 . S
C1182 C1177 1.350 . S
C1183 H1170 0.929 . S
C1183 C1175 1.433 . S
C1183 N1185 1.384 . S
N1184 C1180 1.427 . S
N1184 C1181 1.384 . S
N1185 C1177 1.427 . S
N1185 C1183 1.384 . S
H1186 C1192 0.930 . S
H1187 C1196 0.930 . S
H1188 C1201 0.929 . S
H1189 C1199 0.935 . S
H1190 C1194 0.929 . S
H1191 C1200 0.929 . S
C1192 H1186 0.930 . S
C1192 C1193 1.367 . S
C1192 C1200 1.378 . S
C1193 C1192 1.367 . S
C1193 C1201 1.433 . S
C1194 H1190 0.929 . S
C1194 C1196 1.378 . S
C1194 C1198 1.350 . S
C1195 C1198 1.463 . S
C1195 C1200 1.350 . S
C1195 N1203 1.427 . S
C1196 H1187 0.930 . S
C1196 C1194 1.378 . S
C1196 C1197 1.367 . S
C1197 C1196 1.367 . S
C1197 C1199 1.433 . S
C1198 C1194 1.350 . S
C1198 C1195 1.463 . S
C1198 N1202 1.427 . S
C1199 H1189 0.935 . S
C1199 C1197 1.433 . S
C1199 N1202 1.384 . S
C1200 H1191 0.929 . S
C1200 C1192 1.378 . S
C1200 C1195 1.350 . S
C1201 H1188 0.929 . S
C1201 C1193 1.433 . S
C1201 N1203 1.384 . S
N1202 C1198 1.427 . S
N1202 C1199 1.384 . S
N1203 C1195 1.427 . S
N1203 C1201 1.384 . S
H1204 C1210 0.930 . S
H1205 C1214 0.930 1_545 S
H1206 C1219 0.929 . S
H1207 C1217 0.929 . S
H1208 C1212 0.929 . S
H1209 C1218 0.929 . S
C1210 H1204 0.930 . S
C1210 C1211 1.367 . S
C1210 C1218 1.378 . S
C1211 C1210 1.367 . S
C1211 C1219 1.433 . S
C1212 H1208 0.929 . S
C1212 C1214 1.378 . S
C1212 C1216 1.350 . S
C1213 C1216 1.463 . S
C1213 C1218 1.350 . S
C1213 N1221 1.427 . S
C1214 H1205 0.930 1_565 S
C1214 C1212 1.378 . S
C1214 C1215 1.367 . S
C1215 C1214 1.367 . S
C1215 C1217 1.433 . S
C1216 C1212 1.350 . S
C1216 C1213 1.463 . S
C1216 N1220 1.427 . S
C1217 H1207 0.929 . S
C1217 C1215 1.433 . S
C1217 N1220 1.384 . S
C1218 H1209 0.929 . S
C1218 C1210 1.378 . S
C1218 C1213 1.350 . S
C1219 H1206 0.929 . S
C1219 C1211 1.433 . S
C1219 N1221 1.384 . S
N1220 C1216 1.427 . S
N1220 C1217 1.384 . S
N1221 C1213 1.427 . S
N1221 C1219 1.384 . S
H1222 C1228 0.930 . S
H1223 C1232 0.930 . S
H1224 C1237 0.929 . S
H1225 C1235 0.929 . S
H1226 C1230 0.929 . S
H1227 C1236 0.929 . S
C1228 H1222 0.930 . S
C1228 C1229 1.367 . S
C1228 C1236 1.378 . S
C1229 C1228 1.367 . S
C1229 C1237 1.433 . S
C1230 H1226 0.929 . S
C1230 C1232 1.378 . S
C1230 C1234 1.350 . S
C1231 C1234 1.463 . S
C1231 C1236 1.350 . S
C1231 N1239 1.427 . S
C1232 H1223 0.930 . S
C1232 C1230 1.378 . S
C1232 C1233 1.367 . S
C1233 C1232 1.367 . S
C1233 C1235 1.433 . S
C1234 C1230 1.350 . S
C1234 C1231 1.463 . S
C1234 N1238 1.427 . S
C1235 H1225 0.929 . S
C1235 C1233 1.433 . S
C1235 N1238 1.384 . S
C1236 H1227 0.929 . S
C1236 C1228 1.378 . S
C1236 C1231 1.350 . S
C1237 H1224 0.929 . S
C1237 C1229 1.433 . S
C1237 N1239 1.384 . S
N1238 C1234 1.427 . S
N1238 C1235 1.384 . S
N1239 C1231 1.427 . S
N1239 C1237 1.384 . S
H1240 C1246 0.930 . S
H1241 C1250 0.930 . S
H1242 C1255 0.929 . S
H1243 C1253 0.929 . S
H1244 C1248 0.929 . S
H1245 C1254 0.929 . S
C1246 H1240 0.930 . S
C1246 C1247 1.367 . S
C1246 C1254 1.378 . S
C1247 C1246 1.367 . S
C1247 C1255 1.433 . S
C1248 H1244 0.929 . S
C1248 C1250 1.378 . S
C1248 C1252 1.350 . S
C1249 C1252 1.463 . S
C1249 C1254 1.350 . S
C1249 N1257 1.427 . S
C1250 H1241 0.930 . S
C1250 C1248 1.378 . S
C1250 C1251 1.367 . S
C1251 C1250 1.367 . S
C1251 C1253 1.433 . S
C1252 C1248 1.350 . S
C1252 C1249 1.463 . S
C1252 N1256 1.427 . S
C1253 H1243 0.929 . S
C1253 C1251 1.433 . S
C1253 N1256 1.384 . S
C1254 H1245 0.929 . S
C1254 C1246 1.378 . S
C1254 C1249 1.350 . S
C1255 H1242 0.929 . S
C1255 C1247 1.433 . S
C1255 N1257 1.384 . S
N1256 C1252 1.427 . S
N1256 C1253 1.384 . S
N1257 C1249 1.427 . S
N1257 C1255 1.384 . S
H1258 C1264 0.930 . S
H1259 C1268 0.930 . S
H1260 C1273 0.929 1_565 S
H1261 C1271 0.929 . S
H1262 C1266 0.929 . S
H1263 C1272 0.929 . S
C1264 H1258 0.930 . S
C1264 C1265 1.367 . S
C1264 C1272 1.378 . S
C1265 C1264 1.367 . S
C1265 C1273 1.433 . S
C1266 H1262 0.929 . S
C1266 C1268 1.378 . S
C1266 C1270 1.350 . S
C1267 C1270 1.463 . S
C1267 C1272 1.350 . S
C1267 N1275 1.427 . S
C1268 H1259 0.930 . S
C1268 C1266 1.378 . S
C1268 C1269 1.367 . S
C1269 C1268 1.367 . S
C1269 C1271 1.433 . S
C1270 C1266 1.350 . S
C1270 C1267 1.463 . S
C1270 N1274 1.427 . S
C1271 H1261 0.929 . S
C1271 C1269 1.433 . S
C1271 N1274 1.384 . S
C1272 H1263 0.929 . S
C1272 C1264 1.378 . S
C1272 C1267 1.350 . S
C1273 H1260 0.929 1_545 S
C1273 C1265 1.433 . S
C1273 N1275 1.384 . S
N1274 C1270 1.427 . S
N1274 C1271 1.384 . S
N1275 C1267 1.427 . S
N1275 C1273 1.384 . S
H1276 C1282 0.930 . S
H1277 C1286 0.930 1_565 S
H1278 C1291 0.929 . S
H1279 C1289 0.929 . S
H1280 C1284 0.929 . S
H1281 C1290 0.929 . S
C1282 H1276 0.930 . S
C1282 C1283 1.367 . S
C1282 C1290 1.378 . S
C1283 C1282 1.367 . S
C1283 C1291 1.433 . S
C1284 H1280 0.929 . S
C1284 C1286 1.378 . S
C1284 C1288 1.350 . S
C1285 C1288 1.463 . S
C1285 C1290 1.350 . S
C1285 N1293 1.427 . S
C1286 H1277 0.930 1_545 S
C1286 C1284 1.378 . S
C1286 C1287 1.367 . S
C1287 C1286 1.367 . S
C1287 C1289 1.433 . S
C1288 C1284 1.350 . S
C1288 C1285 1.463 . S
C1288 N1292 1.427 . S
C1289 H1279 0.929 . S
C1289 C1287 1.433 . S
C1289 N1292 1.384 . S
C1290 H1281 0.929 . S
C1290 C1282 1.378 . S
C1290 C1285 1.350 . S
C1291 H1278 0.929 . S
C1291 C1283 1.433 . S
C1291 N1293 1.384 . S
N1292 C1288 1.427 . S
N1292 C1289 1.384 . S
N1293 C1285 1.427 . S
N1293 C1291 1.384 . S
H1294 C1300 0.930 . S
H1295 C1304 0.930 . S
H1296 C1309 0.929 . S
H1297 C1307 0.929 . S
H1298 C1302 0.929 . S
H1299 C1308 0.929 . S
C1300 H1294 0.930 . S
C1300 C1301 1.367 . S
C1300 C1308 1.378 . S
C1301 C1300 1.367 . S
C1301 C1309 1.433 . S
C1302 H1298 0.929 . S
C1302 C1304 1.378 . S
C1302 C1306 1.350 . S
C1303 C1306 1.463 . S
C1303 C1308 1.350 . S
C1303 N1311 1.427 . S
C1304 H1295 0.930 . S
C1304 C1302 1.378 . S
C1304 C1305 1.367 . S
C1305 C1304 1.367 . S
C1305 C1307 1.433 . S
C1306 C1302 1.350 . S
C1306 C1303 1.463 . S
C1306 N1310 1.427 . S
C1307 H1297 0.929 . S
C1307 C1305 1.433 . S
C1307 N1310 1.384 . S
C1308 H1299 0.929 . S
C1308 C1300 1.378 . S
C1308 C1303 1.350 . S
C1309 H1296 0.929 . S
C1309 C1301 1.433 . S
C1309 N1311 1.384 . S
N1310 C1306 1.427 . S
N1310 C1307 1.384 . S
N1311 C1303 1.427 . S
N1311 C1309 1.384 . S
H1312 C1318 0.930 . S
H1313 C1322 0.930 . S
H1314 C1327 0.929 . S
H1315 C1325 0.929 . S
H1316 C1320 0.929 . S
H1317 C1326 0.929 . S
C1318 H1312 0.930 . S
C1318 C1319 1.367 . S
C1318 C1326 1.378 . S
C1319 C1318 1.367 . S
C1319 C1327 1.433 . S
C1320 H1316 0.929 . S
C1320 C1322 1.378 . S
C1320 C1324 1.350 . S
C1321 C1324 1.463 . S
C1321 C1326 1.350 . S
C1321 N1329 1.427 . S
C1322 H1313 0.930 . S
C1322 C1320 1.378 . S
C1322 C1323 1.367 . S
C1323 C1322 1.367 . S
C1323 C1325 1.433 . S
C1324 C1320 1.350 . S
C1324 C1321 1.463 . S
C1324 N1328 1.427 . S
C1325 H1315 0.929 . S
C1325 C1323 1.433 . S
C1325 N1328 1.384 . S
C1326 H1317 0.929 . S
C1326 C1318 1.378 . S
C1326 C1321 1.350 . S
C1327 H1314 0.929 . S
C1327 C1319 1.433 . S
C1327 N1329 1.384 . S
N1328 C1324 1.427 . S
N1328 C1325 1.384 . S
N1329 C1321 1.427 . S
N1329 C1327 1.384 . S
H1330 C1336 0.930 . S
H1331 C1340 0.930 . S
H1332 C1345 0.929 . S
H1333 C1343 0.929 . S
H1334 C1338 0.929 . S
H1335 C1344 0.929 . S
C1336 H1330 0.930 . S
C1336 C1337 1.367 . S
C1336 C1344 1.378 . S
C1337 C1336 1.367 . S
C1337 C1345 1.433 . S
C1338 H1334 0.929 . S
C1338 C1340 1.378 . S
C1338 C1342 1.350 . S
C1339 C1342 1.463 . S
C1339 C1344 1.350 . S
C1339 N1347 1.427 . S
C1340 H1331 0.930 . S
C1340 C1338 1.378 . S
C1340 C1341 1.367 . S
C1341 C1340 1.367 . S
C1341 C1343 1.433 . S
C1342 C1338 1.350 . S
C1342 C1339 1.463 . S
C1342 N1346 1.427 . S
C1343 H1333 0.929 . S
C1343 C1341 1.433 . S
C1343 N1346 1.384 . S
C1344 H1335 0.929 . S
C1344 C1336 1.378 . S
C1344 C1339 1.350 . S
C1345 H1332 0.929 . S
C1345 C1337 1.433 . S
C1345 N1347 1.384 . S
N1346 C1342 1.427 . S
N1346 C1343 1.384 . S
N1347 C1339 1.427 . S
N1347 C1345 1.384 . S
H1348 C1354 0.930 . S
H1349 C1358 0.930 . S
H1350 C1363 0.929 . S
H1351 C1361 0.929 . S
H1352 C1356 0.929 . S
H1353 C1362 0.929 . S
C1354 H1348 0.930 . S
C1354 C1355 1.367 . S
C1354 C1362 1.378 . S
C1355 C1354 1.367 . S
C1355 C1363 1.433 . S
C1356 H1352 0.929 . S
C1356 C1358 1.378 . S
C1356 C1360 1.350 . S
C1357 C1360 1.463 . S
C1357 C1362 1.350 . S
C1357 N1365 1.427 . S
C1358 H1349 0.930 . S
C1358 C1356 1.378 . S
C1358 C1359 1.367 . S
C1359 C1358 1.367 . S
C1359 C1361 1.433 . S
C1360 C1356 1.350 . S
C1360 C1357 1.463 . S
C1360 N1364 1.427 . S
C1361 H1351 0.929 . S
C1361 C1359 1.433 . S
C1361 N1364 1.384 . S
C1362 H1353 0.929 . S
C1362 C1354 1.378 . S
C1362 C1357 1.350 . S
C1363 H1350 0.929 . S
C1363 C1355 1.433 . S
C1363 N1365 1.384 . S
N1364 C1360 1.427 . S
N1364 C1361 1.384 . S
N1365 C1357 1.427 . S
N1365 C1363 1.384 . S
H1366 C1372 0.930 . S
H1367 C1376 0.930 . S
H1368 C1381 0.929 1_545 S
H1369 C1379 0.929 . S
H1370 C1374 0.929 . S
H1371 C1380 0.929 . S
C1372 H1366 0.930 . S
C1372 C1373 1.367 . S
C1372 C1380 1.378 . S
C1373 C1372 1.367 . S
C1373 C1381 1.433 . S
C1374 H1370 0.929 . S
C1374 C1376 1.378 . S
C1374 C1378 1.350 . S
C1375 C1378 1.463 . S
C1375 C1380 1.350 . S
C1375 N1383 1.427 . S
C1376 H1367 0.930 . S
C1376 C1374 1.378 . S
C1376 C1377 1.367 . S
C1377 C1376 1.367 . S
C1377 C1379 1.433 . S
C1378 C1374 1.350 . S
C1378 C1375 1.463 . S
C1378 N1382 1.427 . S
C1379 H1369 0.929 . S
C1379 C1377 1.433 . S
C1379 N1382 1.384 . S
C1380 H1371 0.929 . S
C1380 C1372 1.378 . S
C1380 C1375 1.350 . S
C1381 H1368 0.929 1_565 S
C1381 C1373 1.433 . S
C1381 N1383 1.384 . S
N1382 C1378 1.427 . S
N1382 C1379 1.384 . S
N1383 C1375 1.427 . S
N1383 C1381 1.384 . S
H1384 C1390 0.930 . S
H1385 C1394 0.930 . S
H1386 C1399 0.929 . S
H1387 C1397 0.929 1_565 S
H1388 C1392 0.929 . S
H1389 C1398 0.929 . S
C1390 H1384 0.930 . S
C1390 C1391 1.367 . S
C1390 C1398 1.378 . S
C1391 C1390 1.367 . S
C1391 C1399 1.433 . S
C1392 H1388 0.929 . S
C1392 C1394 1.378 . S
C1392 C1396 1.350 . S
C1393 C1396 1.463 . S
C1393 C1398 1.350 . S
C1393 N1401 1.427 . S
C1394 H1385 0.930 . S
C1394 C1392 1.378 . S
C1394 C1395 1.367 . S
C1395 C1394 1.367 . S
C1395 C1397 1.433 . S
C1396 C1392 1.350 . S
C1396 C1393 1.463 . S
C1396 N1400 1.427 . S
C1397 H1387 0.929 1_545 S
C1397 C1395 1.433 . S
C1397 N1400 1.384 . S
C1398 H1389 0.929 . S
C1398 C1390 1.378 . S
C1398 C1393 1.350 . S
C1399 H1386 0.929 . S
C1399 C1391 1.433 . S
C1399 N1401 1.384 . S
N1400 C1396 1.427 . S
N1400 C1397 1.384 . S
N1401 C1393 1.427 . S
N1401 C1399 1.384 . S
H1402 C1408 0.930 . S
H1403 C1412 0.930 . S
H1404 C1417 0.929 . S
H1405 C1415 0.929 . S
H1406 C1410 0.929 . S
H1407 C1416 0.929 . S
C1408 H1402 0.930 . S
C1408 C1409 1.367 . S
C1408 C1416 1.378 . S
C1409 C1408 1.367 . S
C1409 C1417 1.433 . S
C1410 H1406 0.929 . S
C1410 C1412 1.378 . S
C1410 C1414 1.350 . S
C1411 C1414 1.463 . S
C1411 C1416 1.350 . S
C1411 N1419 1.427 . S
C1412 H1403 0.930 . S
C1412 C1410 1.378 . S
C1412 C1413 1.367 . S
C1413 C1412 1.367 . S
C1413 C1415 1.433 . S
C1414 C1410 1.350 . S
C1414 C1411 1.463 . S
C1414 N1418 1.427 . S
C1415 H1405 0.929 . S
C1415 C1413 1.433 . S
C1415 N1418 1.384 . S
C1416 H1407 0.929 . S
C1416 C1408 1.378 . S
C1416 C1411 1.350 . S
C1417 H1404 0.929 . S
C1417 C1409 1.433 . S
C1417 N1419 1.384 . S
N1418 C1414 1.427 . S
N1418 C1415 1.384 . S
N1419 C1411 1.427 . S
N1419 C1417 1.384 . S
H1420 C1426 0.930 . S
H1421 C1430 0.930 . S
H1422 C1435 0.929 . S
H1423 C1433 0.929 . S
H1424 C1428 0.929 . S
H1425 C1434 0.929 . S
C1426 H1420 0.930 . S
C1426 C1427 1.367 . S
C1426 C1434 1.378 . S
C1427 C1426 1.367 . S
C1427 C1435 1.433 . S
C1428 H1424 0.929 . S
C1428 C1430 1.378 . S
C1428 C1432 1.350 . S
C1429 C1432 1.463 . S
C1429 C1434 1.350 . S
C1429 N1437 1.427 . S
C1430 H1421 0.930 . S
C1430 C1428 1.378 . S
C1430 C1431 1.367 . S
C1431 C1430 1.367 . S
C1431 C1433 1.433 . S
C1432 C1428 1.350 . S
C1432 C1429 1.463 . S
C1432 N1436 1.427 . S
C1433 H1423 0.929 . S
C1433 C1431 1.433 . S
C1433 N1436 1.384 . S
C1434 H1425 0.929 . S
C1434 C1426 1.378 . S
C1434 C1429 1.350 . S
C1435 H1422 0.929 . S
C1435 C1427 1.433 . S
C1435 N1437 1.384 . S
N1436 C1432 1.427 . S
N1436 C1433 1.384 . S
N1437 C1429 1.427 . S
N1437 C1435 1.384 . S
H1438 C1444 0.930 . S
H1439 C1448 0.930 . S
H1440 C1453 0.929 . S
H1441 C1451 0.929 1_565 S
H1442 C1446 0.929 . S
H1443 C1452 0.929 . S
C1444 H1438 0.930 . S
C1444 C1445 1.367 . S
C1444 C1452 1.378 . S
C1445 C1444 1.367 . S
C1445 C1453 1.433 . S
C1446 H1442 0.929 . S
C1446 C1448 1.378 . S
C1446 C1450 1.350 . S
C1447 C1450 1.463 . S
C1447 C1452 1.350 . S
C1447 N1455 1.427 . S
C1448 H1439 0.930 . S
C1448 C1446 1.378 . S
C1448 C1449 1.367 . S
C1449 C1448 1.367 . S
C1449 C1451 1.433 . S
C1450 C1446 1.350 . S
C1450 C1447 1.463 . S
C1450 N1454 1.427 . S
C1451 H1441 0.929 1_545 S
C1451 C1449 1.433 . S
C1451 N1454 1.384 . S
C1452 H1443 0.929 . S
C1452 C1444 1.378 . S
C1452 C1447 1.350 . S
C1453 H1440 0.929 . S
C1453 C1445 1.433 . S
C1453 N1455 1.384 . S
N1454 C1450 1.427 . S
N1454 C1451 1.384 . S
N1455 C1447 1.427 . S
N1455 C1453 1.384 . S
H1456 C1462 0.930 . S
H1457 C1466 0.930 1_545 S
H1458 C1471 0.929 . S
H1459 C1469 0.929 . S
H1460 C1464 0.929 . S
H1461 C1470 0.929 . S
C1462 H1456 0.930 . S
C1462 C1463 1.367 . S
C1462 C1470 1.378 . S
C1463 C1462 1.367 . S
C1463 C1471 1.433 . S
C1464 H1460 0.929 . S
C1464 C1466 1.378 . S
C1464 C1468 1.350 . S
C1465 C1468 1.463 . S
C1465 C1470 1.350 . S
C1465 N1473 1.427 . S
C1466 H1457 0.930 1_565 S
C1466 C1464 1.378 . S
C1466 C1467 1.367 . S
C1467 C1466 1.367 . S
C1467 C1469 1.433 . S
C1468 C1464 1.350 . S
C1468 C1465 1.463 . S
C1468 N1472 1.427 . S
C1469 H1459 0.929 . S
C1469 C1467 1.433 . S
C1469 N1472 1.384 . S
C1470 H1461 0.929 . S
C1470 C1462 1.378 . S
C1470 C1465 1.350 . S
C1471 H1458 0.929 . S
C1471 C1463 1.433 . S
C1471 N1473 1.384 . S
N1472 C1468 1.427 . S
N1472 C1469 1.384 . S
N1473 C1465 1.427 . S
N1473 C1471 1.384 . S
H1474 C1480 0.930 . S
H1475 C1484 0.930 . S
H1476 C1489 0.929 . S
H1477 C1487 0.929 . S
H1478 C1482 0.929 . S
H1479 C1488 0.929 . S
C1480 H1474 0.930 . S
C1480 C1481 1.367 . S
C1480 C1488 1.378 . S
C1481 C1480 1.367 . S
C1481 C1489 1.433 . S
C1482 H1478 0.929 . S
C1482 C1484 1.378 . S
C1482 C1486 1.350 . S
C1483 C1486 1.463 . S
C1483 C1488 1.350 . S
C1483 N1491 1.427 . S
C1484 H1475 0.930 . S
C1484 C1482 1.378 . S
C1484 C1485 1.367 . S
C1485 C1484 1.367 . S
C1485 C1487 1.433 . S
C1486 C1482 1.350 . S
C1486 C1483 1.463 . S
C1486 N1490 1.427 . S
C1487 H1477 0.929 . S
C1487 C1485 1.433 . S
C1487 N1490 1.384 . S
C1488 H1479 0.929 . S
C1488 C1480 1.378 . S
C1488 C1483 1.350 . S
C1489 H1476 0.929 . S
C1489 C1481 1.433 . S
C1489 N1491 1.384 . S
N1490 C1486 1.427 . S
N1490 C1487 1.384 . S
N1491 C1483 1.427 . S
N1491 C1489 1.384 . S
H1492 C1498 0.930 . S
H1493 C1502 0.930 . S
H1494 C1507 0.929 . S
H1495 C1505 0.929 . S
H1496 C1500 0.929 . S
H1497 C1506 0.929 . S
C1498 H1492 0.930 . S
C1498 C1499 1.367 . S
C1498 C1506 1.378 . S
C1499 C1498 1.367 . S
C1499 C1507 1.433 . S
C1500 H1496 0.929 . S
C1500 C1502 1.378 . S
C1500 C1504 1.350 . S
C1501 C1504 1.463 . S
C1501 C1506 1.350 . S
C1501 N1509 1.427 . S
C1502 H1493 0.930 . S
C1502 C1500 1.378 . S
C1502 C1503 1.367 . S
C1503 C1502 1.367 . S
C1503 C1505 1.433 . S
C1504 C1500 1.350 . S
C1504 C1501 1.463 . S
C1504 N1508 1.427 . S
C1505 H1495 0.929 . S
C1505 C1503 1.433 . S
C1505 N1508 1.384 . S
C1506 H1497 0.929 . S
C1506 C1498 1.378 . S
C1506 C1501 1.350 . S
C1507 H1494 0.929 . S
C1507 C1499 1.433 . S
C1507 N1509 1.384 . S
N1508 C1504 1.427 . S
N1508 C1505 1.384 . S
N1509 C1501 1.427 . S
N1509 C1507 1.384 . S
H1510 C1516 0.912 1_545 S
H1511 C1520 0.930 . S
H1512 C1525 0.929 . S
H1513 C1523 0.929 . S
H1514 C1518 0.929 . S
H1515 C1524 0.929 . S
C1516 H1510 0.912 1_565 S
C1516 C1517 1.367 . S
C1516 C1524 1.378 . S
C1517 C1516 1.367 . S
C1517 C1525 1.433 . S
C1518 H1514 0.929 . S
C1518 C1520 1.378 . S
C1518 C1522 1.350 . S
C1519 C1522 1.463 . S
C1519 C1524 1.350 . S
C1519 N1527 1.427 . S
C1520 H1511 0.930 . S
C1520 C1518 1.378 . S
C1520 C1521 1.367 . S
C1521 C1520 1.367 . S
C1521 C1523 1.433 . S
C1522 C1518 1.350 . S
C1522 C1519 1.463 . S
C1522 N1526 1.427 . S
C1523 H1513 0.929 . S
C1523 C1521 1.433 . S
C1523 N1526 1.384 . S
C1524 H1515 0.929 . S
C1524 C1516 1.378 . S
C1524 C1519 1.350 . S
C1525 H1512 0.929 . S
C1525 C1517 1.433 . S
C1525 N1527 1.384 . S
N1526 C1522 1.427 . S
N1526 C1523 1.384 . S
N1527 C1519 1.427 . S
N1527 C1525 1.384 . S
H1528 C1534 0.930 . S
H1529 C1538 0.930 . S
H1530 C1543 0.929 . S
H1531 C1541 0.929 1_565 S
H1532 C1536 0.929 . S
H1533 C1542 0.929 . S
C1534 H1528 0.930 . S
C1534 C1535 1.367 . S
C1534 C1542 1.378 . S
C1535 C1534 1.367 . S
C1535 C1543 1.433 . S
C1536 H1532 0.929 . S
C1536 C1538 1.378 . S
C1536 C1540 1.350 . S
C1537 C1540 1.463 . S
C1537 C1542 1.350 . S
C1537 N1545 1.427 . S
C1538 H1529 0.930 . S
C1538 C1536 1.378 . S
C1538 C1539 1.367 . S
C1539 C1538 1.367 . S
C1539 C1541 1.433 . S
C1540 C1536 1.350 . S
C1540 C1537 1.463 . S
C1540 N1544 1.427 . S
C1541 H1531 0.929 1_545 S
C1541 C1539 1.433 . S
C1541 N1544 1.384 . S
C1542 H1533 0.929 . S
C1542 C1534 1.378 . S
C1542 C1537 1.350 . S
C1543 H1530 0.929 . S
C1543 C1535 1.433 . S
C1543 N1545 1.384 . S
N1544 C1540 1.427 . S
N1544 C1541 1.384 . S
N1545 C1537 1.427 . S
N1545 C1543 1.384 . S
H1546 C1552 0.930 . S
H1547 C1556 0.930 . S
H1548 C1561 0.929 . S
H1549 C1559 0.929 . S
H1550 C1554 0.929 . S
H1551 C1560 0.929 . S
C1552 H1546 0.930 . S
C1552 C1553 1.367 . S
C1552 C1560 1.378 . S
C1553 C1552 1.367 . S
C1553 C1561 1.433 . S
C1554 H1550 0.929 . S
C1554 C1556 1.378 . S
C1554 C1558 1.350 . S
C1555 C1558 1.463 . S
C1555 C1560 1.350 . S
C1555 N1563 1.427 . S
C1556 H1547 0.930 . S
C1556 C1554 1.378 . S
C1556 C1557 1.367 . S
C1557 C1556 1.367 . S
C1557 C1559 1.433 . S
C1558 C1554 1.350 . S
C1558 C1555 1.463 . S
C1558 N1562 1.427 . S
C1559 H1549 0.929 . S
C1559 C1557 1.433 . S
C1559 N1562 1.384 . S
C1560 H1551 0.929 . S
C1560 C1552 1.378 . S
C1560 C1555 1.350 . S
C1561 H1548 0.929 . S
C1561 C1553 1.433 . S
C1561 N1563 1.384 . S
N1562 C1558 1.427 . S
N1562 C1559 1.384 . S
N1563 C1555 1.427 . S
N1563 C1561 1.384 . S
H1564 C1570 0.930 . S
H1565 C1574 0.930 . S
H1566 C1579 0.929 . S
H1567 C1577 0.929 . S
H1568 C1572 0.929 . S
H1569 C1578 0.929 . S
C1570 H1564 0.930 . S
C1570 C1571 1.367 . S
C1570 C1578 1.378 . S
C1571 C1570 1.367 . S
C1571 C1579 1.433 . S
C1572 H1568 0.929 . S
C1572 C1574 1.378 . S
C1572 C1576 1.350 . S
C1573 C1576 1.463 . S
C1573 C1578 1.350 . S
C1573 N1581 1.427 . S
C1574 H1565 0.930 . S
C1574 C1572 1.378 . S
C1574 C1575 1.367 . S
C1575 C1574 1.367 . S
C1575 C1577 1.433 . S
C1576 C1572 1.350 . S
C1576 C1573 1.463 . S
C1576 N1580 1.427 . S
C1577 H1567 0.929 . S
C1577 C1575 1.433 . S
C1577 N1580 1.384 . S
C1578 H1569 0.929 . S
C1578 C1570 1.378 . S
C1578 C1573 1.350 . S
C1579 H1566 0.929 . S
C1579 C1571 1.433 . S
C1579 N1581 1.384 . S
N1580 C1576 1.427 . S
N1580 C1577 1.384 . S
N1581 C1573 1.427 . S
N1581 C1579 1.384 . S
H1582 C1588 0.930 . S
H1583 C1592 0.930 . S
H1584 C1597 0.929 1_565 S
H1585 C1595 0.929 . S
H1586 C1590 0.929 . S
H1587 C1596 0.929 . S
C1588 H1582 0.930 . S
C1588 C1589 1.367 . S
C1588 C1596 1.378 . S
C1589 C1588 1.367 . S
C1589 C1597 1.433 . S
C1590 H1586 0.929 . S
C1590 C1592 1.378 . S
C1590 C1594 1.350 . S
C1591 C1594 1.463 . S
C1591 C1596 1.350 . S
C1591 N1599 1.427 . S
C1592 H1583 0.930 . S
C1592 C1590 1.378 . S
C1592 C1593 1.367 . S
C1593 C1592 1.367 . S
C1593 C1595 1.433 . S
C1594 C1590 1.350 . S
C1594 C1591 1.463 . S
C1594 N1598 1.427 . S
C1595 H1585 0.929 . S
C1595 C1593 1.433 . S
C1595 N1598 1.384 . S
C1596 H1587 0.929 . S
C1596 C1588 1.378 . S
C1596 C1591 1.350 . S
C1597 H1584 0.929 1_545 S
C1597 C1589 1.433 . S
C1597 N1599 1.384 . S
N1598 C1594 1.427 . S
N1598 C1595 1.384 . S
N1599 C1591 1.427 . S
N1599 C1597 1.384 . S
C455 C9 1.450 . S
C459 C23 1.458 . S
C473 C51 1.450 . S
C477 C37 1.455 . S
C491 C65 1.459 . S
C495 C79 1.450 . S
C509 C93 1.462 . S
C513 C107 1.453 . S
C527 C121 1.450 . S
C531 C135 1.454 . S
C545 C149 1.462 . S
C549 C163 1.458 . S
C563 C177 1.453 . S
C567 C191 1.462 . S
C581 C205 1.451 . S
C585 C219 1.461 . S
C599 C247 1.450 . S
C603 C233 1.459 . S
C617 C275 1.450 . S
C621 C261 1.456 . S
C635 C303 1.454 . S
C639 C289 1.450 . S
C653 C331 1.450 . S
C657 C317 1.458 . S
C671 C359 1.456 . S
C675 C345 1.450 . S
C689 C387 1.455 . S
C693 C373 1.462 . S
C707 C415 1.453 . S
C711 C401 1.451 . S
C725 C443 1.458 . S
C729 C429 1.461 . S
C743 C6 1.471 . S
C747 C174 1.471 . S
C761 C20 1.462 . S
C765 C300 1.462 . S
C779 C34 1.460 . S
C783 C90 1.460 . S
C797 C48 1.465 . S
C801 C440 1.465 . S
C815 C62 1.463 . S
C819 C118 1.463 . S
C833 C244 1.461 . S
C837 C76 1.461 . S
C851 C384 1.461 . S
C855 C104 1.461 . S
C869 C132 1.470 . S
C873 C412 1.470 . S
C887 C146 1.457 . S
C891 C202 1.457 . S
C905 C160 1.460 . S
C909 C328 1.460 . S
C923 C188 1.462 . S
C927 C356 1.462 . S
C941 C216 1.461 . S
C945 C272 1.461 . S
C959 C398 1.463 . S
C963 C230 1.463 . S
C977 C314 1.467 . S
C981 C258 1.467 . S
C995 C286 1.463 . S
C999 C342 1.463 . S
C1013 C426 1.458 . S
C1017 C370 1.458 . S
C1031 C148 1.255 . S
C1035 C8 1.253 . S
C1049 C162 1.261 . S
C1053 C22 1.259 1_565 S
C1067 C36 1.251 1_565 S
C1071 C120 1.253 . S
C1085 C134 1.255 . S
C1089 C50 1.258 . S
C1103 C64 1.253 . S
C1107 C204 1.251 . S
C1121 C78 1.262 1_545 S
C1125 C218 1.261 . S
C1139 C176 1.252 . S
C1143 C92 1.250 1_545 S
C1157 C190 1.253 . S
C1161 C106 1.256 . S
C1175 C232 1.256 . S
C1179 C372 1.253 . S
C1193 C386 1.253 . S
C1197 C246 1.251 1_565 S
C1211 C344 1.262 . S
C1215 C260 1.262 1_565 S
C1229 C274 1.261 . S
C1233 C358 1.259 . S
C1247 C428 1.262 . S
C1251 C288 1.262 . S
C1265 C302 1.251 1_545 S
C1269 C442 1.250 . S
C1283 C400 1.262 . S
C1287 C316 1.262 1_545 S
C1301 C414 1.251 . S
C1305 C330 1.250 . S
C1319 C147 1.340 . S
C1323 C7 1.346 1_565 S
C1337 C161 1.339 . S
C1341 C21 1.337 . S
C1355 C119 1.343 . S
C1359 C35 1.338 . S
C1373 C49 1.351 1_565 S
C1377 C133 1.353 . S
C1391 C203 1.353 . S
C1395 C63 1.350 1_545 S
C1409 C217 1.347 . S
C1413 C77 1.341 . S
C1427 C175 1.337 . S
C1431 C91 1.340 . S
C1445 C189 1.353 . S
C1449 C105 1.350 1_545 S
C1463 C371 1.339 . S
C1467 C231 1.337 1_565 S
C1481 C385 1.341 . S
C1485 C245 1.337 . S
C1499 C343 1.349 . S
C1503 C259 1.353 . S
C1517 C273 1.342 1_565 S
C1521 C357 1.338 . S
C1535 C427 1.353 . S
C1539 C287 1.350 1_545 S
C1553 C301 1.352 . S
C1557 C441 1.352 . S
C1571 C399 1.337 . S
C1575 C315 1.341 . S
C1589 C329 1.352 1_545 S
C1593 C413 1.352 . S
