# Generated by pormake.
# Topology sra, (4)-cn, num edge types: 1
# Building blocks:
#     Node 0, Type 0, BuildingBlock: NAHDIM_clean_sbu_0, # of connection points: 4
#     Node 1, Type 0, BuildingBlock: NAHDIM_clean_sbu_0, # of connection points: 4
#     Node 2, Type 0, BuildingBlock: NAHDIM_clean_sbu_0, # of connection points: 4
#     Node 3, Type 0, BuildingBlock: NAHDIM_clean_sbu_0, # of connection points: 4
#     Node 4, Type 0, BuildingBlock: NAHDIM_clean_sbu_0, # of connection points: 4
#     Node 5, Type 0, BuildingBlock: NAHDIM_clean_sbu_0, # of connection points: 4
#     Node 6, Type 0, BuildingBlock: NAHDIM_clean_sbu_0, # of connection points: 4
#     Node 7, Type 0, BuildingBlock: NAHDIM_clean_sbu_0, # of connection points: 4
#     Edge 8, Type (0, 0), BuildingBlock: TEMPAE_clean_linker_10, # of connection points: 2
#     Edge 9, Type (0, 0), BuildingBlock: TEMPAE_clean_linker_10, # of connection points: 2
#     Edge 10, Type (0, 0), BuildingBlock: TEMPAE_clean_linker_10, # of connection points: 2
#     Edge 11, Type (0, 0), BuildingBlock: TEMPAE_clean_linker_10, # of connection points: 2
#     Edge 12, Type (0, 0), BuildingBlock: TEMPAE_clean_linker_10, # of connection points: 2
#     Edge 13, Type (0, 0), BuildingBlock: TEMPAE_clean_linker_10, # of connection points: 2
#     Edge 14, Type (0, 0), BuildingBlock: TEMPAE_clean_linker_10, # of connection points: 2
#     Edge 15, Type (0, 0), BuildingBlock: TEMPAE_clean_linker_10, # of connection points: 2
#     Edge 16, Type (0, 0), BuildingBlock: TEMPAE_clean_linker_10, # of connection points: 2
#     Edge 17, Type (0, 0), BuildingBlock: TEMPAE_clean_linker_10, # of connection points: 2
#     Edge 18, Type (0, 0), BuildingBlock: TEMPAE_clean_linker_10, # of connection points: 2
#     Edge 19, Type (0, 0), BuildingBlock: TEMPAE_clean_linker_10, # of connection points: 2
#     Edge 20, Type (0, 0), BuildingBlock: TEMPAE_clean_linker_10, # of connection points: 2
#     Edge 21, Type (0, 0), BuildingBlock: TEMPAE_clean_linker_10, # of connection points: 2
#     Edge 22, Type (0, 0), BuildingBlock: TEMPAE_clean_linker_10, # of connection points: 2
#     Edge 23, Type (0, 0), BuildingBlock: TEMPAE_clean_linker_10, # of connection points: 2
# Relax obj value: 0.091
# Max RMSD: 0.091
# Mean RMSD: 0.091
data_MOF--net-sra--node1-NAHDIM_clean_sbu_0--edge1-TEMPAE_clean_linker_10
_symmetry_space_group_name_H-M    P1
_symmetry_Int_Tables_number       1
_symmetry_cell_setting            triclinic
loop_
_symmetry_equiv_pos_as_xyz
'x, y, z'
_cell_length_a     25.504322
_cell_length_b     48.971755
_cell_length_c     41.714813
_cell_angle_alpha  90.179589
_cell_angle_beta   89.849381
_cell_angle_gamma 90.019843
loop_
_atom_site_label
_atom_site_type_symbol
_atom_site_fract_x
_atom_site_fract_y
_atom_site_fract_z
_atom_type_partial_charge
C0 C 0.03787 0.03613 0.09904 0.0
O1 O 0.04261 0.02532 0.12768 0.0
O2 O 0.95739 0.07097 0.16073 0.0
Zn3 Zn 0.02268 0.08292 0.1375 0.0
O4 O 0.08807 0.07675 0.16331 0.0
C5 C 0.98684 0.13828 0.14458 0.0
O6 O 0.95664 0.12689 0.1663 0.0
O7 O 0.02882 0.06156 0.09673 0.0
C8 C 0.0987 0.09194 0.18717 0.0
O9 O 0.06469 0.11064 0.19608 0.0
C10 C 0.95537 0.05853 0.18738 0.0
O11 O -0.00084 0.05144 0.20162 0.0
O12 O 0.01784 0.12331 0.12829 0.0
C13 C 0.9626 0.42496 0.08245 0.0
O14 O 0.91549 0.4198 0.09373 0.0
O15 O 0.06165 0.40921 0.16633 0.0
Zn16 Zn -0.0031 0.3998 0.14135 0.0
O17 O 0.93139 0.41198 0.16422 0.0
C18 C 0.02099 0.34289 0.15135 0.0
O19 O 0.05267 0.35307 0.1731 0.0
O20 O 0.00246 0.41811 0.09872 0.0
C21 C 0.91762 0.39991 0.18979 0.0
O22 O 0.94797 0.38067 0.20138 0.0
C23 C 0.0662 0.42903 0.18584 0.0
O24 O 0.02586 0.44511 0.19116 0.0
O25 O 0.99331 0.35904 0.13463 0.0
C26 C 0.05001 0.92096 0.89862 0.0
O27 O 0.09427 0.91495 0.88404 0.0
O28 O 0.93757 0.90453 0.82079 0.0
Zn29 Zn 0.00541 0.89541 0.84294 0.0
O30 O 0.06637 0.90797 0.81633 0.0
C31 C 0.98 0.84018 0.86365 0.0
O32 O 0.93902 0.85181 0.8771 0.0
O33 O 0.00691 0.9142 0.88563 0.0
C34 C 0.07128 0.89948 0.78769 0.0
O35 O 0.0347 0.88368 0.77555 0.0
C36 C 0.91295 0.88711 0.80392 0.0
O37 O 0.93244 0.86245 0.80045 0.0
O38 O 0.01285 0.85486 0.84859 0.0
C39 C 0.01475 0.53271 0.87954 0.0
O40 O 0.01 0.52155 0.85101 0.0
O41 O 0.09235 0.57219 0.81699 0.0
Zn42 Zn 0.02608 0.5802 0.84145 0.0
O43 O 0.96273 0.57065 0.81531 0.0
C44 C 0.00674 0.63683 0.83118 0.0
O45 O 0.99298 0.62731 0.80295 0.0
O46 O 0.02337 0.55819 0.88168 0.0
C47 C 0.91794 0.57482 0.82776 0.0
O48 O 0.9152 0.58465 0.85706 0.0
C49 C 0.09319 0.57282 0.78654 0.0
O50 O 0.0497 0.57824 0.771 0.0
O51 O 0.02318 0.62026 0.85228 0.0
C52 C 0.49407 0.57684 0.58359 0.0
O53 O 0.45403 0.59299 0.5895 0.0
O54 O 0.46226 0.5943 0.66683 0.0
Zn55 Zn 0.52927 0.60004 0.64234 0.0
O56 O 0.59135 0.59309 0.67043 0.0
C57 C 0.53332 0.65677 0.65179 0.0
O58 O 0.53121 0.64812 0.68156 0.0
O59 O 0.53187 0.5762 0.60333 0.0
C60 C 0.59781 0.5721 0.68777 0.0
O61 O 0.56222 0.5527 0.68754 0.0
C62 C 0.43789 0.5717 0.66828 0.0
O63 O 0.45717 0.55024 0.65341 0.0
O64 O 0.53258 0.63931 0.62922 0.0
C65 C 0.48045 0.95562 0.59083 0.0
O66 O 0.44659 0.9629 0.61305 0.0
O67 O 0.57014 0.92155 0.66322 0.0
Zn68 Zn 0.50686 0.91331 0.6361 0.0
O69 O 0.43927 0.92017 0.65996 0.0
C70 C 0.55146 0.86011 0.62297 0.0
O71 O 0.5962 0.87313 0.62617 0.0
O72 O 0.51001 0.93519 0.59566 0.0
C73 C 0.42148 0.90125 0.67773 0.0
O74 O 0.4487 0.87863 0.68079 0.0
C75 C 0.56989 0.92152 0.69368 0.0
O76 O 0.52543 0.91789 0.70902 0.0
O77 O 0.50883 0.87342 0.62494 0.0
C78 C 0.50298 0.46227 0.38246 0.0
O79 O 0.51426 0.47354 0.35474 0.0
O80 O 0.42146 0.42262 0.32042 0.0
Zn81 Zn 0.49013 0.41564 0.34237 0.0
O82 O 0.55196 0.42594 0.31491 0.0
C83 C 0.47082 0.35807 0.33541 0.0
O84 O 0.43743 0.36681 0.31383 0.0
O85 O 0.49164 0.43703 0.38334 0.0
C86 C 0.5589 0.41414 0.28808 0.0
O87 O 0.52317 0.39692 0.27774 0.0
C88 C 0.41282 0.44089 0.29955 0.0
O89 O 0.45106 0.45726 0.29083 0.0
O90 O 0.49693 0.3754 0.35157 0.0
C91 C 0.50417 0.05665 0.38119 0.0
O92 O 0.48108 0.04678 0.35553 0.0
O93 O 0.59868 0.09122 0.31475 0.0
Zn94 Zn 0.53139 0.09969 0.33779 0.0
O95 O 0.46867 0.08959 0.31127 0.0
C96 C 0.55316 0.15726 0.33097 0.0
O97 O 0.58572 0.14851 0.30875 0.0
O98 O 0.52878 0.07915 0.37928 0.0
C99 C 0.45819 0.1018 0.28526 0.0
O100 O 0.49076 0.12047 0.27455 0.0
C101 C 0.60956 0.06804 0.30271 0.0
O102 O 0.57516 0.04815 0.30485 0.0
O103 O 0.52673 0.13999 0.34694 0.0
C104 C 0.04692 0.29535 0.16591 0.0
C105 C 0.01632 0.31295 0.14725 0.0
C106 C 0.04169 0.26693 0.16328 0.0
C107 C 0.00497 0.25583 0.14145 0.0
C108 C 0.97461 0.27344 0.1221 0.0
C109 C 0.98064 0.30182 0.12523 0.0
C110 C 0.0748 0.24879 0.18433 0.0
C111 C 0.93511 0.26231 0.09853 0.0
C112 C 0.02333 0.18099 0.12017 0.0
C113 C 0.9883 0.16838 0.14149 0.0
C114 C 0.02803 0.20954 0.11913 0.0
C115 C -0.00295 0.22579 0.13994 0.0
C116 C 0.96043 0.21323 0.16073 0.0
C117 C 0.95645 0.18468 0.16122 0.0
C118 C 0.06731 0.22226 0.09653 0.0
C119 C 0.92667 0.22988 0.18328 0.0
H120 H 0.0747 0.30375 0.18291 0.0
H121 H 0.9569 0.31528 0.11067 0.0
H122 H 0.04913 0.23667 0.20042 0.0
H123 H 0.09732 0.23412 0.16938 0.0
H124 H 0.10278 0.26063 0.19929 0.0
H125 H 0.91632 0.27869 0.08423 0.0
H126 H 0.95432 0.24767 0.0819 0.0
H127 H 0.90407 0.25095 0.11157 0.0
H128 H 0.04797 0.16854 0.10477 0.0
H129 H 0.92913 0.17514 0.17769 0.0
H130 H 0.09872 0.23244 0.11051 0.0
H131 H 0.04815 0.23817 0.08175 0.0
H132 H 0.08565 0.20695 0.08031 0.0
H133 H 0.95189 0.24067 0.20087 0.0
H134 H 0.89807 0.21709 0.19662 0.0
H135 H 0.90483 0.24567 0.16977 0.0
C136 C 0.94464 0.79326 0.87384 0.0
C137 C 0.9856 0.81009 0.8632 0.0
C138 C 0.94791 0.76473 0.87088 0.0
C139 C 0.99331 0.75282 0.85714 0.0
C140 C 0.03554 0.76966 0.84744 0.0
C141 C 0.03112 0.79808 0.85051 0.0
C142 C 0.90205 0.74741 0.88142 0.0
C143 C 0.08476 0.7577 0.83288 0.0
C144 C 0.01971 0.677 0.86773 0.0
C145 C 0.00272 0.66641 0.83823 0.0
C146 C 0.01643 0.70508 0.87441 0.0
C147 C -0.00446 0.72292 0.85107 0.0
C148 C 0.97788 0.71231 0.82139 0.0
C149 C 0.98176 0.68421 0.81532 0.0
C150 C 0.0358 0.7157 0.90627 0.0
C151 C 0.95526 0.73069 0.79591 0.0
H152 H 0.90935 0.80237 0.88367 0.0
H153 H 0.06312 0.81092 0.84242 0.0
H154 H 0.88461 0.73706 0.86028 0.0
H155 H 0.9154 0.73123 0.89807 0.0
H156 H 0.87105 0.75965 0.89349 0.0
H157 H 0.11532 0.77344 0.82851 0.0
H158 H 0.10124 0.74182 0.84886 0.0
H159 H 0.07525 0.74767 0.80973 0.0
H160 H 0.03591 0.66338 0.88558 0.0
H161 H 0.96837 0.67621 0.79251 0.0
H162 H 0.00397 0.72692 0.9188 0.0
H163 H 0.06837 0.73036 0.90238 0.0
H164 H 0.0499 0.69907 0.92211 0.0
H165 H 0.92139 0.74223 0.80574 0.0
H166 H 0.9421 0.71913 0.77444 0.0
H167 H 0.98508 0.74587 0.78831 0.0
C168 C 0.53624 0.70532 0.67007 0.0
C169 C 0.53698 0.68632 0.64486 0.0
C170 C 0.53964 0.7334 0.66409 0.0
C171 C 0.54399 0.74273 0.63211 0.0
C172 C 0.54502 0.7237 0.60653 0.0
C173 C 0.54144 0.69567 0.61321 0.0
C174 C 0.53828 0.75311 0.69202 0.0
C175 C 0.54971 0.73295 0.57215 0.0
C176 C 0.50202 0.81613 0.61979 0.0
C177 C 0.55019 0.82993 0.62124 0.0
C178 C 0.49962 0.7876 0.62197 0.0
C179 C 0.54651 0.77251 0.62568 0.0
C180 C 0.59541 0.78619 0.62569 0.0
C181 C 0.59668 0.81477 0.62345 0.0
C182 C 0.44672 0.77372 0.62178 0.0
C183 C 0.64624 0.77075 0.6295 0.0
H184 H 0.53283 0.69828 0.69459 0.0
H185 H 0.54215 0.68111 0.59359 0.0
H186 H 0.57423 0.76587 0.69206 0.0
H187 H 0.50432 0.7671 0.68962 0.0
H188 H 0.53528 0.74251 0.71546 0.0
H189 H 0.55083 0.71553 0.55504 0.0
H190 H 0.51605 0.74626 0.56596 0.0
H191 H 0.58586 0.74527 0.56898 0.0
H192 H 0.4659 0.82766 0.61792 0.0
H193 H 0.63407 0.82526 0.62449 0.0
H194 H 0.43893 0.76461 0.64564 0.0
H195 H 0.44629 0.75685 0.60398 0.0
H196 H 0.4144 0.78811 0.6161 0.0
H197 H 0.64798 0.76168 0.65381 0.0
H198 H 0.68107 0.78409 0.62618 0.0
H199 H 0.6484 0.75369 0.61198 0.0
C200 C 0.45402 0.30966 0.31951 0.0
C201 C 0.48117 0.32847 0.3387 0.0
C202 C 0.46598 0.28174 0.32043 0.0
C203 C 0.50602 0.27238 0.3411 0.0
C204 C 0.5326 0.29112 0.3612 0.0
C205 C 0.51988 0.31898 0.35975 0.0
C206 C 0.43668 0.26235 0.29866 0.0
C207 C 0.57537 0.28183 0.38362 0.0
C208 C 0.50714 0.19626 0.35792 0.0
C209 C 0.54416 0.18689 0.3355 0.0
C210 C 0.49541 0.22417 0.36071 0.0
C211 C 0.52128 0.2431 0.34058 0.0
C212 C 0.55984 0.23387 0.31861 0.0
C213 C 0.57084 0.20588 0.31636 0.0
C214 C 0.4542 0.23328 0.3845 0.0
C215 C 0.58831 0.25348 0.29677 0.0
H216 H 0.42397 0.31678 0.30323 0.0
H217 H 0.541 0.33337 0.3747 0.0
H218 H 0.46438 0.25281 0.2814 0.0
H219 H 0.41881 0.24564 0.31289 0.0
H220 H 0.40524 0.27274 0.28494 0.0
H221 H 0.59019 0.29871 0.39897 0.0
H222 H 0.56071 0.26521 0.39929 0.0
H223 H 0.60864 0.27342 0.36954 0.0
H224 H 0.48646 0.18174 0.37289 0.0
H225 H 0.59963 0.19884 0.29905 0.0
H226 H 0.42007 0.24184 0.37151 0.0
H227 H 0.46992 0.24973 0.40009 0.0
H228 H 0.44031 0.21626 0.39988 0.0
H229 H 0.55994 0.2632 0.28022 0.0
H230 H 0.61918 0.24322 0.28226 0.0
H231 H 0.60676 0.27004 0.31102 0.0
C232 C 0.39342 0.11222 0.24206 0.0
C233 C 0.40733 0.097 0.26915 0.0
C234 C 0.34352 0.10964 0.2283 0.0
C235 C 0.30669 0.09139 0.24196 0.0
C236 C 0.32106 0.07531 0.26864 0.0
C237 C 0.37122 0.07829 0.28192 0.0
C238 C 0.32966 0.12705 0.19973 0.0
C239 C 0.28289 0.05557 0.28378 0.0
C240 C 0.16325 0.10795 0.22811 0.0
C241 C 0.15065 0.09026 0.20278 0.0
C242 C 0.21364 0.10812 0.24149 0.0
C243 C 0.25237 0.09017 0.22924 0.0
C244 C 0.23956 0.07175 0.20426 0.0
C245 C 0.18881 0.07199 0.19133 0.0
C246 C 0.22579 0.12797 0.26824 0.0
C247 C 0.27982 0.05228 0.19065 0.0
H248 H 0.4211 0.12666 0.23199 0.0
H249 H 0.38169 0.06637 0.30279 0.0
H250 H 0.31512 0.11404 0.17984 0.0
H251 H 0.2976 0.14134 0.20629 0.0
H252 H 0.3636 0.13915 0.19093 0.0
H253 H 0.30119 0.04337 0.30317 0.0
H254 H 0.24919 0.06699 0.29403 0.0
H255 H 0.26705 0.0414 0.26541 0.0
H256 H 0.134 0.12207 0.23716 0.0
H257 H 0.1794 0.05822 0.17179 0.0
H258 H 0.25658 0.14249 0.26032 0.0
H259 H 0.24136 0.11687 0.28931 0.0
H260 H 0.19077 0.13984 0.27587 0.0
H261 H 0.31229 0.06399 0.17948 0.0
H262 H 0.26291 0.03835 0.17231 0.0
H263 H 0.2971 0.0398 0.21009 0.0
C264 C 0.62008 0.40068 0.24387 0.0
C265 C 0.60955 0.41686 0.27093 0.0
C266 C 0.67004 0.4004 0.22974 0.0
C267 C 0.71038 0.41681 0.24288 0.0
C268 C 0.69933 0.43423 0.26917 0.0
C269 C 0.64903 0.43402 0.28293 0.0
C270 C 0.68026 0.38157 0.20166 0.0
C271 C 0.74121 0.4522 0.28365 0.0
C272 C 0.84881 0.39033 0.231 0.0
C273 C 0.86614 0.40581 0.20481 0.0
C274 C 0.7986 0.39416 0.24402 0.0
C275 C 0.76493 0.41406 0.23064 0.0
C276 C 0.78271 0.43035 0.20484 0.0
C277 C 0.8331 0.42599 0.19216 0.0
C278 C 0.78104 0.37636 0.27154 0.0
C279 C 0.74804 0.4519 0.19012 0.0
H280 H 0.58978 0.38744 0.23434 0.0
H281 H 0.64116 0.44673 0.30372 0.0
H282 H 0.69848 0.39301 0.18161 0.0
H283 H 0.70828 0.3654 0.20886 0.0
H284 H 0.64386 0.37165 0.19284 0.0
H285 H 0.72506 0.4665 0.30189 0.0
H286 H 0.77141 0.43929 0.29523 0.0
H287 H 0.76115 0.46423 0.2647 0.0
H288 H 0.87406 0.37473 0.24096 0.0
H289 H 0.84625 0.43811 0.17199 0.0
H290 H 0.747 0.36377 0.26405 0.0
H291 H 0.76802 0.38923 0.292 0.0
H292 H 0.8126 0.36251 0.27995 0.0
H293 H 0.71343 0.44208 0.17888 0.0
H294 H 0.76891 0.46404 0.1716 0.0
H295 H 0.73319 0.46598 0.20894 0.0
C296 C 0.12703 0.89376 0.73878 0.0
C297 C 0.12025 0.90469 0.76963 0.0
C298 C 0.17532 0.89581 0.72282 0.0
C299 C 0.21778 0.9091 0.7381 0.0
C300 C 0.21048 0.92134 0.76856 0.0
C301 C 0.16174 0.91901 0.78397 0.0
C302 C 0.18157 0.88261 0.69027 0.0
C303 C 0.25484 0.93574 0.78555 0.0
C304 C 0.35336 0.88395 0.71552 0.0
C305 C 0.37032 0.90415 0.69412 0.0
C306 C 0.30413 0.88561 0.73034 0.0
C307 C 0.27089 0.90797 0.72351 0.0
C308 C 0.28798 0.92867 0.70231 0.0
C309 C 0.33764 0.92655 0.68789 0.0
C310 C 0.28738 0.86319 0.75297 0.0
C311 C 0.25347 0.95277 0.69446 0.0
H312 H 0.09508 0.88283 0.72744 0.0
H313 H 0.15676 0.92765 0.80774 0.0
H314 H 0.19914 0.89724 0.67305 0.0
H315 H 0.20866 0.86496 0.69207 0.0
H316 H 0.14363 0.87527 0.68045 0.0
H317 H 0.24145 0.94643 0.80763 0.0
H318 H 0.28531 0.92065 0.79226 0.0
H319 H 0.27362 0.95085 0.76941 0.0
H320 H 0.37846 0.86664 0.72058 0.0
H321 H 0.35048 0.94223 0.67134 0.0
H322 H 0.25181 0.85289 0.74356 0.0
H323 H 0.27707 0.87197 0.7767 0.0
H324 H 0.31846 0.84758 0.75637 0.0
H325 H 0.21707 0.94557 0.68263 0.0
H326 H 0.27329 0.96761 0.67838 0.0
H327 H 0.24161 0.96349 0.71679 0.0
C328 C 0.68105 0.59157 0.70928 0.0
C329 C 0.64457 0.57013 0.70856 0.0
C330 C 0.72508 0.59052 0.72922 0.0
C331 C 0.73298 0.56742 0.74891 0.0
C332 C 0.69662 0.54559 0.74819 0.0
C333 C 0.65272 0.54721 0.72801 0.0
C334 C 0.76294 0.61426 0.72938 0.0
C335 C 0.70398 0.52062 0.76884 0.0
C336 C 0.87247 0.5586 0.77819 0.0
C337 C 0.86978 0.57059 0.80873 0.0
C338 C 0.82766 0.55634 0.75894 0.0
C339 C 0.77919 0.56651 0.77045 0.0
C340 C 0.77586 0.5778 0.80166 0.0
C341 C 0.82121 0.57961 0.82049 0.0
C342 C 0.8326 0.54399 0.72586 0.0
C343 C 0.72487 0.58898 0.81468 0.0
H344 H 0.67511 0.60938 0.69436 0.0
H345 H 0.62473 0.53056 0.72758 0.0
H346 H 0.76541 0.62312 0.75385 0.0
H347 H 0.8028 0.60712 0.72275 0.0
H348 H 0.75121 0.63065 0.7125 0.0
H349 H 0.67263 0.5052 0.76506 0.0
H350 H 0.74246 0.51102 0.76356 0.0
H351 H 0.70419 0.52661 0.79451 0.0
H352 H 0.90982 0.55139 0.76904 0.0
H353 H 0.81878 0.58885 0.84409 0.0
H354 H 0.82566 0.55994 0.70753 0.0
H355 H 0.80247 0.52792 0.72234 0.0
H356 H 0.87193 0.53491 0.72159 0.0
H357 H 0.71281 0.607 0.80041 0.0
H358 H 0.72803 0.59526 0.84022 0.0
H359 H 0.69331 0.57351 0.81248 0.0
C360 C 0.66763 0.92517 0.69483 0.0
C361 C 0.62011 0.92174 0.71136 0.0
C362 C 0.71582 0.922 0.71048 0.0
C363 C 0.71646 0.91512 0.74339 0.0
C364 C 0.66872 0.9129 0.76057 0.0
C365 C 0.62106 0.91631 0.74435 0.0
C366 C 0.76597 0.92479 0.69143 0.0
C367 C 0.66788 0.9056 0.79571 0.0
C368 C 0.83306 0.87438 0.77279 0.0
C369 C 0.86272 0.89444 0.78852 0.0
C370 C 0.78526 0.88087 0.75819 0.0
C371 C 0.76679 0.90812 0.75918 0.0
C372 C 0.79651 0.9285 0.77495 0.0
C373 C 0.84411 0.9214 0.78954 0.0
C374 C 0.75448 0.85854 0.7417 0.0
C375 C 0.77813 0.95779 0.77629 0.0
H376 H 0.66726 0.92955 0.66937 0.0
H377 H 0.58455 0.9137 0.75733 0.0
H378 H 0.79358 0.93873 0.70387 0.0
H379 H 0.78541 0.90459 0.68946 0.0
H380 H 0.75893 0.93266 0.66687 0.0
H381 H 0.62787 0.90693 0.80619 0.0
H382 H 0.68254 0.88444 0.79884 0.0
H383 H 0.6943 0.9193 0.80941 0.0
H384 H 0.84705 0.85349 0.77199 0.0
H385 H 0.86687 0.93703 0.8016 0.0
H386 H 0.74928 0.86359 0.71599 0.0
H387 H 0.7148 0.85694 0.7525 0.0
H388 H 0.77401 0.83833 0.74341 0.0
H389 H 0.7736 0.96586 0.75164 0.0
H390 H 0.80576 0.97117 0.78961 0.0
H391 H 0.7391 0.95894 0.78802 0.0
C392 C 0.36096 0.54501 0.68876 0.0
C393 C 0.38762 0.56995 0.68598 0.0
C394 C 0.31285 0.54336 0.70512 0.0
C395 C 0.29092 0.56724 0.71887 0.0
C396 C 0.31776 0.59243 0.71625 0.0
C397 C 0.36578 0.59347 0.69991 0.0
C398 C 0.28538 0.51613 0.70758 0.0
C399 C 0.29555 0.61837 0.73053 0.0
C400 C 0.14498 0.57246 0.73553 0.0
C401 C 0.1432 0.56922 0.76892 0.0
C402 C 0.19267 0.57102 0.71878 0.0
C403 C 0.23965 0.56614 0.73582 0.0
C404 C 0.23792 0.56194 0.76935 0.0
C405 C 0.18971 0.56357 0.78552 0.0
C406 C 0.19299 0.57561 0.68299 0.0
C407 C 0.2872 0.55656 0.7883 0.0
H408 H 0.3776 0.52673 0.67812 0.0
H409 H 0.38605 0.61285 0.69787 0.0
H410 H 0.2789 0.51085 0.73313 0.0
H411 H 0.24626 0.51732 0.6961 0.0
H412 H 0.30803 0.4994 0.696 0.0
H413 H 0.32147 0.63628 0.72649 0.0
H414 H 0.25664 0.62274 0.71988 0.0
H415 H 0.28966 0.61585 0.75671 0.0
H416 H 0.10923 0.57674 0.72249 0.0
H417 H 0.18866 0.56088 0.81129 0.0
H418 H 0.21334 0.55854 0.67063 0.0
H419 H 0.21498 0.59458 0.67742 0.0
H420 H 0.1528 0.57748 0.67304 0.0
H421 H 0.30926 0.53925 0.77762 0.0
H422 H 0.27875 0.55183 0.81383 0.0
H423 H 0.31311 0.57475 0.78736 0.0
C424 C 0.67245 0.03877 0.27155 0.0
C425 C 0.66057 0.06377 0.2864 0.0
C426 C 0.72042 0.03488 0.25551 0.0
C427 C 0.75725 0.05649 0.25439 0.0
C428 C 0.74576 0.08161 0.26973 0.0
C429 C 0.6976 0.08495 0.28549 0.0
C430 C 0.73135 0.00785 0.23935 0.0
C431 C 0.78404 0.10516 0.2691 0.0
C432 C 0.9013 0.0454 0.23519 0.0
C433 C 0.90407 0.05479 0.2035 0.0
C434 C 0.85325 0.04468 0.25172 0.0
C435 C 0.80704 0.0535 0.23612 0.0
C436 C 0.80926 0.06175 0.20367 0.0
C437 C 0.85771 0.0623 0.18777 0.0
C438 C 0.85235 0.03567 0.28629 0.0
C439 C 0.76081 0.07119 0.18615 0.0
H440 H 0.6441 0.02229 0.27217 0.0
H441 H 0.68889 0.10431 0.29698 0.0
H442 H 0.73565 0.01089 0.21313 0.0
H443 H 0.76885 -0.00075 0.24816 0.0
H444 H 0.69963 0.99272 0.24359 0.0
H445 H 0.76984 0.12303 0.2831 0.0
H446 H 0.82239 0.09865 0.27897 0.0
H447 H 0.79089 0.1117 0.24399 0.0
H448 H 0.93688 0.03946 0.24748 0.0
H449 H 0.85937 0.06938 0.1632 0.0
H450 H 0.82117 0.02022 0.29014 0.0
H451 H 0.84316 0.05341 0.30193 0.0
H452 H 0.89047 0.02691 0.29395 0.0
H453 H 0.72894 0.05591 0.18857 0.0
H454 H 0.76837 0.0747 0.16025 0.0
H455 H 0.74649 0.09055 0.19695 0.0
C456 C 0.12145 0.45343 0.22656 0.0
C457 C 0.11676 0.43361 0.20238 0.0
C458 C 0.16902 0.45716 0.24293 0.0
C459 C 0.21281 0.44075 0.23479 0.0
C460 C 0.20857 0.42114 0.20996 0.0
C461 C 0.16062 0.41776 0.19414 0.0
C462 C 0.17211 0.47819 0.26939 0.0
C463 C 0.25443 0.4033 0.2005 0.0
C464 C 0.35167 0.46021 0.25846 0.0
C465 C 0.36053 0.44262 0.28436 0.0
C466 C 0.30306 0.46054 0.24269 0.0
C467 C 0.26248 0.44294 0.25317 0.0
C468 C 0.27064 0.42585 0.27998 0.0
C469 C 0.31954 0.42586 0.2952 0.0
C470 C 0.29574 0.47902 0.21415 0.0
C471 C 0.22826 0.40685 0.29196 0.0
H472 H 0.08776 0.46577 0.23304 0.0
H473 H 0.15749 0.40249 0.17537 0.0
H474 H 0.17983 0.46793 0.29258 0.0
H475 H 0.2052 0.4924 0.26492 0.0
H476 H 0.13541 0.49026 0.27169 0.0
H477 H 0.24533 0.38989 0.17972 0.0
H478 H 0.28882 0.41615 0.19431 0.0
H479 H 0.26591 0.39025 0.22101 0.0
H480 H 0.38306 0.47327 0.25001 0.0
H481 H 0.32586 0.41233 0.31534 0.0
H482 H 0.2597 0.49146 0.21711 0.0
H483 H 0.29071 0.46649 0.19217 0.0
H484 H 0.32961 0.49296 0.21056 0.0
H485 H 0.19147 0.41835 0.2964 0.0
H486 H 0.23964 0.39627 0.31441 0.0
H487 H 0.21968 0.39119 0.27342 0.0
C488 C 0.03772 0.03049 0.03943 0.0
C489 C 0.04224 0.01888 0.06999 0.0
C490 C 0.04069 0.01427 0.01173 0.0
C491 C 0.04828 0.98576 0.01469 0.0
C492 C 0.0535 0.97394 0.04542 0.0
C493 C 0.05045 0.99066 0.07273 0.0
C494 C 0.03509 0.02759 0.97931 0.0
C495 C 0.06158 0.9436 0.04946 0.0
C496 C 0.00283 0.94163 0.94532 0.0
C497 C 0.05006 0.93655 0.92905 0.0
C498 C 0.00185 0.95729 0.97349 0.0
C499 C 0.04921 0.96823 0.9856 0.0
C500 C 0.09712 0.96289 0.96958 0.0
C501 C 0.09699 0.94704 0.9415 0.0
C502 C 0.95003 0.96245 0.99005 0.0
C503 C 0.14835 0.97428 0.98181 0.0
H504 H 0.03152 0.05229 0.03711 0.0
H505 H 0.05408 0.98152 0.09625 0.0
H506 H 0.06976 0.02287 0.96416 0.0
H507 H 0.00017 0.01926 0.96684 0.0
H508 H 0.03093 0.05012 0.98111 0.0
H509 H 0.06635 0.93772 0.07499 0.0
H510 H 0.02758 0.93234 0.03945 0.0
H511 H 0.09684 0.93691 0.03594 0.0
H512 H 0.96641 0.93351 0.93593 0.0
H513 H 0.13363 0.94322 0.92905 0.0
H514 H 0.94164 0.98468 -0.00951 0.0
H515 H 0.95191 0.9555 0.0153 0.0
H516 H 0.91696 0.95184 0.97801 0.0
H517 H 0.14685 -0.00308 0.98186 0.0
H518 H 0.18235 0.96764 0.96703 0.0
H519 H 0.15488 0.96772 0.00692 0.0
C520 C 0.00821 0.52858 0.9391 0.0
C521 C 0.00776 0.51611 0.90879 0.0
C522 C 0.0002 0.51326 0.96701 0.0
C523 C 0.99177 0.48477 0.96454 0.0
C524 C 0.99153 0.47201 0.93406 0.0
C525 C -0.00055 0.48786 0.90651 0.0
C526 C 0.00065 0.52757 -0.00086 0.0
C527 C 0.98293 0.44163 0.93057 0.0
C528 C 0.02 0.44295 0.03876 0.0
C529 C 0.96957 0.43929 0.05158 0.0
C530 C 0.02766 0.45728 0.01011 0.0
C531 C 0.98386 0.46833 -0.00602 0.0
C532 C 0.93278 0.4644 0.0065 0.0
C533 C 0.92622 0.44984 0.03515 0.0
C534 C 0.08271 0.46095 -0.00263 0.0
C535 C 0.88519 0.47598 0.98992 0.0
H536 H 0.01445 0.55042 0.94107 0.0
H537 H -0.00095 0.47807 0.88317 0.0
H538 H 0.96278 0.52421 0.01169 0.0
H539 H 0.03192 0.51888 0.01447 0.0
H540 H 0.00728 0.5499 -0.0031 0.0
H541 H 0.98387 0.43486 0.90513 0.0
H542 H 0.01356 0.43036 0.94395 0.0
H543 H 0.94451 0.43588 0.9411 0.0
H544 H 0.05372 0.43474 0.05122 0.0
H545 H 0.88715 0.4471 0.04491 0.0
H546 H 0.09275 0.48299 -0.00323 0.0
H547 H 0.08536 0.45317 0.97241 0.0
H548 H 0.11234 0.4502 0.01217 0.0
H549 H 0.8881 0.49857 0.98903 0.0
H550 H 0.84806 0.4704 0.00225 0.0
H551 H 0.88344 0.46852 0.96481 0.0
C552 C 0.51874 0.5062 0.41155 0.0
C553 C 0.50242 0.47886 0.41214 0.0
C554 C 0.5178 0.52227 0.43943 0.0
C555 C 0.49985 0.51074 0.46853 0.0
C556 C 0.48338 0.48316 0.46932 0.0
C557 C 0.485 0.46751 0.44112 0.0
C558 C 0.53597 0.55159 0.43776 0.0
C559 C 0.46378 0.47022 0.49991 0.0
C560 C 0.5401 0.54437 0.54671 0.0
C561 C 0.49535 0.55977 0.5543 0.0
C562 C 0.54211 0.52833 0.51883 0.0
C563 C 0.49822 0.52757 0.49817 0.0
C564 C 0.45283 0.54293 0.50576 0.0
C565 C 0.45199 0.55891 0.53372 0.0
C566 C 0.59126 0.5123 0.51141 0.0
C567 C 0.40519 0.54248 0.48434 0.0
H568 H 0.53235 0.5151 0.38927 0.0
H569 H 0.4722 0.44641 0.44176 0.0
H570 H 0.50364 0.56545 0.44505 0.0
H571 H 0.56876 0.55496 0.45475 0.0
H572 H 0.54927 0.55738 0.41333 0.0
H573 H 0.45234 0.44852 0.49646 0.0
H574 H 0.49461 0.47126 0.51859 0.0
H575 H 0.42934 0.48167 0.50914 0.0
H576 H 0.57381 0.54496 0.56246 0.0
H577 H 0.41723 0.5707 0.53946 0.0
H578 H 0.60745 0.51867 0.48788 0.0
H579 H 0.5819 0.49022 0.50961 0.0
H580 H 0.622 0.51513 0.52995 0.0
H581 H 0.41584 0.54983 0.46005 0.0
H582 H 0.37284 0.5554 0.49382 0.0
H583 H 0.39062 0.52125 0.48168 0.0
C584 C 0.44889 0.9921 0.55373 0.0
C585 C 0.48401 0.97083 0.56033 0.0
C586 C 0.45158 0.00643 0.52471 0.0
C587 C 0.49046 -0.00063 0.50187 0.0
C588 C 0.5262 0.97804 0.50845 0.0
C589 C 0.52248 0.96399 0.53758 0.0
C590 C 0.41271 0.02903 0.5184 0.0
C591 C 0.56831 0.97003 0.48469 0.0
C592 C 0.46962 0.01851 0.41483 0.0
C593 C 0.50079 0.04199 0.41205 0.0
C594 C 0.46562 0.00454 0.44401 0.0
C595 C 0.49368 0.01421 0.47098 0.0
C596 C 0.52528 0.03785 0.46834 0.0
C597 C 0.52837 0.05151 0.4389 0.0
C598 C 0.4314 0.97942 0.446 0.0
C599 C 0.55597 0.04866 0.49658 0.0
H600 H 0.41902 -0.00252 0.57117 0.0
H601 H 0.54985 0.94762 0.54252 0.0
H602 H 0.43377 0.04851 0.51408 0.0
H603 H 0.38988 0.02434 0.49646 0.0
H604 H 0.38493 0.03202 0.53867 0.0
H605 H 0.59335 0.95314 0.49362 0.0
H606 H 0.55013 0.96352 0.46178 0.0
H607 H 0.59367 0.98787 0.47937 0.0
H608 H 0.44807 0.01107 0.39421 0.0
H609 H 0.5526 0.06962 0.43693 0.0
H610 H 0.40101 0.98224 0.4648 0.0
H611 H 0.45536 0.9615 0.45297 0.0
H612 H 0.41162 0.97477 0.42292 0.0
H613 H 0.52898 0.05343 0.51673 0.0
H614 H 0.57857 0.06736 0.49057 0.0
H615 H 0.58369 0.03284 0.50516 0.0
loop_
_geom_bond_atom_site_label_1
_geom_bond_atom_site_label_2
_geom_bond_distance
_geom_bond_site_symmetry_2
_ccdc_geom_bond_type
C0 O1 1.160 1_455 S
C0 O7 1.185 . S
O1 C0 1.160 1_655 S
O2 Zn3 1.899 1_655 S
O2 C10 1.284 . S
Zn3 O2 1.899 1_455 S
Zn3 O4 2.032 . S
Zn3 O7 2.086 . S
Zn3 O12 1.977 . S
O4 Zn3 2.032 . S
O4 C8 1.278 . S
C5 O6 1.203 1_455 S
C5 O12 1.267 . S
O6 C5 1.203 1_655 S
O7 C0 1.185 . S
O7 Zn3 2.086 . S
C8 O4 1.278 . S
C8 O9 1.211 . S
O9 C8 1.211 . S
C10 O2 1.284 . S
C10 O11 1.273 . S
O11 C10 1.273 . S
O12 Zn3 1.977 . S
O12 C5 1.267 . S
C13 O14 1.160 . S
C13 O20 1.185 . S
O14 C13 1.160 . S
O15 Zn16 1.899 . S
O15 C23 1.284 . S
Zn16 O15 1.899 . S
Zn16 O17 2.032 1_455 S
Zn16 O20 2.086 . S
Zn16 O25 1.977 . S
O17 Zn16 2.032 1_655 S
O17 C21 1.278 . S
C18 O19 1.203 . S
C18 O25 1.267 . S
O19 C18 1.203 . S
O20 C13 1.185 . S
O20 Zn16 2.086 . S
C21 O17 1.278 . S
C21 O22 1.211 . S
O22 C21 1.211 . S
C23 O15 1.284 . S
C23 O24 1.273 . S
O24 C23 1.273 . S
O25 Zn16 1.977 . S
O25 C18 1.267 . S
C26 O27 1.160 1_455 S
C26 O33 1.185 . S
O27 C26 1.160 1_655 S
O28 Zn29 1.899 1_655 S
O28 C36 1.284 . S
Zn29 O28 1.899 1_455 S
Zn29 O30 2.032 . S
Zn29 O33 2.086 . S
Zn29 O38 1.977 . S
O30 Zn29 2.032 . S
O30 C34 1.278 . S
C31 O32 1.203 1_455 S
C31 O38 1.267 . S
O32 C31 1.203 1_655 S
O33 C26 1.185 . S
O33 Zn29 2.086 . S
C34 O30 1.278 . S
C34 O35 1.211 . S
O35 C34 1.211 . S
C36 O28 1.284 . S
C36 O37 1.273 . S
O37 C36 1.273 . S
O38 Zn29 1.977 . S
O38 C31 1.267 . S
C39 O40 1.160 . S
C39 O46 1.185 . S
O40 C39 1.160 . S
O41 Zn42 1.899 . S
O41 C49 1.284 . S
Zn42 O41 1.899 . S
Zn42 O43 2.032 1_455 S
Zn42 O46 2.086 . S
Zn42 O51 1.977 . S
O43 Zn42 2.032 1_655 S
O43 C47 1.278 . S
C44 O45 1.203 . S
C44 O51 1.267 . S
O45 C44 1.203 . S
O46 C39 1.185 . S
O46 Zn42 2.086 . S
C47 O43 1.278 . S
C47 O48 1.211 . S
O48 C47 1.211 . S
C49 O41 1.284 . S
C49 O50 1.273 . S
O50 C49 1.273 . S
O51 Zn42 1.977 . S
O51 C44 1.267 . S
C52 O53 1.160 . S
C52 O59 1.185 . S
O53 C52 1.160 . S
O54 Zn55 1.899 . S
O54 C62 1.284 . S
Zn55 O54 1.899 . S
Zn55 O56 2.032 . S
Zn55 O59 2.086 . S
Zn55 O64 1.977 . S
O56 Zn55 2.032 . S
O56 C60 1.278 . S
C57 O58 1.203 . S
C57 O64 1.267 . S
O58 C57 1.203 . S
O59 C52 1.185 . S
O59 Zn55 2.086 . S
C60 O56 1.278 . S
C60 O61 1.211 . S
O61 C60 1.211 . S
C62 O54 1.284 . S
C62 O63 1.273 . S
O63 C62 1.273 . S
O64 Zn55 1.977 . S
O64 C57 1.267 . S
C65 O66 1.160 . S
C65 O72 1.185 . S
O66 C65 1.160 . S
O67 Zn68 1.899 . S
O67 C75 1.284 . S
Zn68 O67 1.899 . S
Zn68 O69 2.032 . S
Zn68 O72 2.086 . S
Zn68 O77 1.977 . S
O69 Zn68 2.032 . S
O69 C73 1.278 . S
C70 O71 1.203 . S
C70 O77 1.267 . S
O71 C70 1.203 . S
O72 C65 1.185 . S
O72 Zn68 2.086 . S
C73 O69 1.278 . S
C73 O74 1.211 . S
O74 C73 1.211 . S
C75 O67 1.284 . S
C75 O76 1.273 . S
O76 C75 1.273 . S
O77 Zn68 1.977 . S
O77 C70 1.267 . S
C78 O79 1.160 . S
C78 O85 1.185 . S
O79 C78 1.160 . S
O80 Zn81 1.899 . S
O80 C88 1.284 . S
Zn81 O80 1.899 . S
Zn81 O82 2.032 . S
Zn81 O85 2.086 . S
Zn81 O90 1.977 . S
O82 Zn81 2.032 . S
O82 C86 1.278 . S
C83 O84 1.203 . S
C83 O90 1.267 . S
O84 C83 1.203 . S
O85 C78 1.185 . S
O85 Zn81 2.086 . S
C86 O82 1.278 . S
C86 O87 1.211 . S
O87 C86 1.211 . S
C88 O80 1.284 . S
C88 O89 1.273 . S
O89 C88 1.273 . S
O90 Zn81 1.977 . S
O90 C83 1.267 . S
C91 O92 1.160 . S
C91 O98 1.185 . S
O92 C91 1.160 . S
O93 Zn94 1.899 . S
O93 C101 1.284 . S
Zn94 O93 1.899 . S
Zn94 O95 2.032 . S
Zn94 O98 2.086 . S
Zn94 O103 1.977 . S
O95 Zn94 2.032 . S
O95 C99 1.278 . S
C96 O97 1.203 . S
C96 O103 1.267 . S
O97 C96 1.203 . S
O98 C91 1.185 . S
O98 Zn94 2.086 . S
C99 O95 1.278 . S
C99 O100 1.211 . S
O100 C99 1.211 . S
C101 O93 1.284 . S
C101 O102 1.273 . S
O102 C101 1.273 . S
O103 Zn94 1.977 . S
O103 C96 1.267 . S
C104 C105 1.391 . S
C104 C106 1.394 . S
C104 H120 0.931 . S
C105 C104 1.391 . S
C105 C109 1.376 1_455 S
C106 C104 1.394 . S
C106 C107 1.369 . S
C106 C110 1.531 . S
C107 C106 1.369 . S
C107 C108 1.410 1_455 S
C107 C115 1.503 . S
C108 C107 1.410 1_655 S
C108 C109 1.392 . S
C108 C111 1.511 . S
C109 C105 1.376 1_655 S
C109 C108 1.392 . S
C109 H121 0.929 . S
C110 C106 1.531 . S
C110 H122 0.960 . S
C110 H123 0.962 . S
C110 H124 0.960 . S
C111 C108 1.511 . S
C111 H125 0.961 . S
C111 H126 0.961 . S
C111 H127 0.961 . S
C112 C113 1.370 1_655 S
C112 C114 1.363 . S
C112 H128 0.931 . S
C113 C112 1.370 1_455 S
C113 C117 1.408 . S
C114 C112 1.363 . S
C114 C115 1.370 1_655 S
C114 C118 1.524 . S
C115 C107 1.503 . S
C115 C114 1.370 1_455 S
C115 C116 1.403 . S
C116 C115 1.403 . S
C116 C117 1.404 . S
C116 C119 1.539 . S
C117 C113 1.408 . S
C117 C116 1.404 . S
C117 H129 0.930 . S
C118 C114 1.524 . S
C118 H130 0.956 1_655 S
C118 H131 0.961 . S
C118 H132 0.961 . S
C119 C116 1.539 . S
C119 H133 0.958 . S
C119 H134 0.961 . S
C119 H135 0.960 . S
H120 C104 0.931 . S
H121 C109 0.929 . S
H122 C110 0.960 . S
H123 C110 0.962 . S
H124 C110 0.960 . S
H125 C111 0.961 . S
H126 C111 0.961 . S
H127 C111 0.961 . S
H128 C112 0.931 . S
H129 C117 0.930 . S
H130 C118 0.956 1_455 S
H131 C118 0.961 . S
H132 C118 0.961 . S
H133 C119 0.958 . S
H134 C119 0.961 . S
H135 C119 0.960 . S
C136 C137 1.391 1_655 S
C136 C138 1.394 . S
C136 H152 0.931 . S
C137 C136 1.391 1_455 S
C137 C141 1.376 . S
C138 C136 1.394 . S
C138 C139 1.369 1_655 S
C138 C142 1.531 . S
C139 C138 1.369 1_455 S
C139 C140 1.410 . S
C139 C147 1.503 . S
C140 C139 1.410 . S
C140 C141 1.392 . S
C140 C143 1.511 . S
C141 C137 1.376 . S
C141 C140 1.392 . S
C141 H153 0.929 . S
C142 C138 1.531 . S
C142 H154 0.960 . S
C142 H155 0.962 . S
C142 H156 0.960 . S
C143 C140 1.511 . S
C143 H157 0.961 . S
C143 H158 0.961 . S
C143 H159 0.961 . S
C144 C145 1.370 1_655 S
C144 C146 1.363 . S
C144 H160 0.931 . S
C145 C144 1.370 1_455 S
C145 C149 1.408 . S
C146 C144 1.363 . S
C146 C147 1.370 1_655 S
C146 C150 1.524 . S
C147 C139 1.503 . S
C147 C146 1.370 1_455 S
C147 C148 1.403 . S
C148 C147 1.403 . S
C148 C149 1.404 . S
C148 C151 1.539 . S
C149 C145 1.408 . S
C149 C148 1.404 . S
C149 H161 0.930 . S
C150 C146 1.524 . S
C150 H162 0.956 . S
C150 H163 0.961 . S
C150 H164 0.961 . S
C151 C148 1.539 . S
C151 H165 0.958 . S
C151 H166 0.961 . S
C151 H167 0.960 . S
H152 C136 0.931 . S
H153 C141 0.929 . S
H154 C142 0.960 . S
H155 C142 0.962 . S
H156 C142 0.960 . S
H157 C143 0.961 . S
H158 C143 0.961 . S
H159 C143 0.961 . S
H160 C144 0.931 . S
H161 C149 0.930 . S
H162 C150 0.956 . S
H163 C150 0.961 . S
H164 C150 0.961 . S
H165 C151 0.958 . S
H166 C151 0.961 . S
H167 C151 0.960 . S
C168 C169 1.391 . S
C168 C170 1.394 . S
C168 H184 0.931 . S
C169 C168 1.391 . S
C169 C173 1.376 . S
C170 C168 1.394 . S
C170 C171 1.369 . S
C170 C174 1.531 . S
C171 C170 1.369 . S
C171 C172 1.410 . S
C171 C179 1.503 . S
C172 C171 1.410 . S
C172 C173 1.392 . S
C172 C175 1.511 . S
C173 C169 1.376 . S
C173 C172 1.392 . S
C173 H185 0.929 . S
C174 C170 1.531 . S
C174 H186 0.960 . S
C174 H187 0.962 . S
C174 H188 0.960 . S
C175 C172 1.511 . S
C175 H189 0.961 . S
C175 H190 0.961 . S
C175 H191 0.961 . S
C176 C177 1.370 . S
C176 C178 1.363 . S
C176 H192 0.931 . S
C177 C176 1.370 . S
C177 C181 1.408 . S
C178 C176 1.363 . S
C178 C179 1.370 . S
C178 C182 1.524 . S
C179 C171 1.503 . S
C179 C178 1.370 . S
C179 C180 1.403 . S
C180 C179 1.403 . S
C180 C181 1.404 . S
C180 C183 1.539 . S
C181 C177 1.408 . S
C181 C180 1.404 . S
C181 H193 0.930 . S
C182 C178 1.524 . S
C182 H194 0.956 . S
C182 H195 0.961 . S
C182 H196 0.961 . S
C183 C180 1.539 . S
C183 H197 0.958 . S
C183 H198 0.961 . S
C183 H199 0.960 . S
H184 C168 0.931 . S
H185 C173 0.929 . S
H186 C174 0.960 . S
H187 C174 0.962 . S
H188 C174 0.960 . S
H189 C175 0.961 . S
H190 C175 0.961 . S
H191 C175 0.961 . S
H192 C176 0.931 . S
H193 C181 0.930 . S
H194 C182 0.956 . S
H195 C182 0.961 . S
H196 C182 0.961 . S
H197 C183 0.958 . S
H198 C183 0.961 . S
H199 C183 0.960 . S
C200 C201 1.391 . S
C200 C202 1.394 . S
C200 H216 0.931 . S
C201 C200 1.391 . S
C201 C205 1.376 . S
C202 C200 1.394 . S
C202 C203 1.369 . S
C202 C206 1.531 . S
C203 C202 1.369 . S
C203 C204 1.410 . S
C203 C211 1.503 . S
C204 C203 1.410 . S
C204 C205 1.392 . S
C204 C207 1.511 . S
C205 C201 1.376 . S
C205 C204 1.392 . S
C205 H217 0.929 . S
C206 C202 1.531 . S
C206 H218 0.960 . S
C206 H219 0.962 . S
C206 H220 0.960 . S
C207 C204 1.511 . S
C207 H221 0.961 . S
C207 H222 0.961 . S
C207 H223 0.961 . S
C208 C209 1.370 . S
C208 C210 1.363 . S
C208 H224 0.931 . S
C209 C208 1.370 . S
C209 C213 1.408 . S
C210 C208 1.363 . S
C210 C211 1.370 . S
C210 C214 1.524 . S
C211 C203 1.503 . S
C211 C210 1.370 . S
C211 C212 1.403 . S
C212 C211 1.403 . S
C212 C213 1.404 . S
C212 C215 1.539 . S
C213 C209 1.408 . S
C213 C212 1.404 . S
C213 H225 0.930 . S
C214 C210 1.524 . S
C214 H226 0.956 . S
C214 H227 0.961 . S
C214 H228 0.961 . S
C215 C212 1.539 . S
C215 H229 0.958 . S
C215 H230 0.961 . S
C215 H231 0.960 . S
H216 C200 0.931 . S
H217 C205 0.929 . S
H218 C206 0.960 . S
H219 C206 0.962 . S
H220 C206 0.960 . S
H221 C207 0.961 . S
H222 C207 0.961 . S
H223 C207 0.961 . S
H224 C208 0.931 . S
H225 C213 0.930 . S
H226 C214 0.956 . S
H227 C214 0.961 . S
H228 C214 0.961 . S
H229 C215 0.958 . S
H230 C215 0.961 . S
H231 C215 0.960 . S
C232 C233 1.391 . S
C232 C234 1.394 . S
C232 H248 0.931 . S
C233 C232 1.391 . S
C233 C237 1.376 . S
C234 C232 1.394 . S
C234 C235 1.369 . S
C234 C238 1.531 . S
C235 C234 1.369 . S
C235 C236 1.410 . S
C235 C243 1.503 . S
C236 C235 1.410 . S
C236 C237 1.392 . S
C236 C239 1.511 . S
C237 C233 1.376 . S
C237 C236 1.392 . S
C237 H249 0.929 . S
C238 C234 1.531 . S
C238 H250 0.960 . S
C238 H251 0.962 . S
C238 H252 0.960 . S
C239 C236 1.511 . S
C239 H253 0.961 . S
C239 H254 0.961 . S
C239 H255 0.961 . S
C240 C241 1.370 . S
C240 C242 1.363 . S
C240 H256 0.931 . S
C241 C240 1.370 . S
C241 C245 1.408 . S
C242 C240 1.363 . S
C242 C243 1.370 . S
C242 C246 1.524 . S
C243 C235 1.503 . S
C243 C242 1.370 . S
C243 C244 1.403 . S
C244 C243 1.403 . S
C244 C245 1.404 . S
C244 C247 1.539 . S
C245 C241 1.408 . S
C245 C244 1.404 . S
C245 H257 0.930 . S
C246 C242 1.524 . S
C246 H258 0.956 . S
C246 H259 0.961 . S
C246 H260 0.961 . S
C247 C244 1.539 . S
C247 H261 0.958 . S
C247 H262 0.961 . S
C247 H263 0.960 . S
H248 C232 0.931 . S
H249 C237 0.929 . S
H250 C238 0.960 . S
H251 C238 0.962 . S
H252 C238 0.960 . S
H253 C239 0.961 . S
H254 C239 0.961 . S
H255 C239 0.961 . S
H256 C240 0.931 . S
H257 C245 0.930 . S
H258 C246 0.956 . S
H259 C246 0.961 . S
H260 C246 0.961 . S
H261 C247 0.958 . S
H262 C247 0.961 . S
H263 C247 0.960 . S
C264 C265 1.391 . S
C264 C266 1.394 . S
C264 H280 0.931 . S
C265 C264 1.391 . S
C265 C269 1.376 . S
C266 C264 1.394 . S
C266 C267 1.369 . S
C266 C270 1.531 . S
C267 C266 1.369 . S
C267 C268 1.410 . S
C267 C275 1.503 . S
C268 C267 1.410 . S
C268 C269 1.392 . S
C268 C271 1.511 . S
C269 C265 1.376 . S
C269 C268 1.392 . S
C269 H281 0.929 . S
C270 C266 1.531 . S
C270 H282 0.960 . S
C270 H283 0.962 . S
C270 H284 0.960 . S
C271 C268 1.511 . S
C271 H285 0.961 . S
C271 H286 0.961 . S
C271 H287 0.961 . S
C272 C273 1.370 . S
C272 C274 1.363 . S
C272 H288 0.931 . S
C273 C272 1.370 . S
C273 C277 1.408 . S
C274 C272 1.363 . S
C274 C275 1.370 . S
C274 C278 1.524 . S
C275 C267 1.503 . S
C275 C274 1.370 . S
C275 C276 1.403 . S
C276 C275 1.403 . S
C276 C277 1.404 . S
C276 C279 1.539 . S
C277 C273 1.408 . S
C277 C276 1.404 . S
C277 H289 0.930 . S
C278 C274 1.524 . S
C278 H290 0.956 . S
C278 H291 0.961 . S
C278 H292 0.961 . S
C279 C276 1.539 . S
C279 H293 0.958 . S
C279 H294 0.961 . S
C279 H295 0.960 . S
H280 C264 0.931 . S
H281 C269 0.929 . S
H282 C270 0.960 . S
H283 C270 0.962 . S
H284 C270 0.960 . S
H285 C271 0.961 . S
H286 C271 0.961 . S
H287 C271 0.961 . S
H288 C272 0.931 . S
H289 C277 0.930 . S
H290 C278 0.956 . S
H291 C278 0.961 . S
H292 C278 0.961 . S
H293 C279 0.958 . S
H294 C279 0.961 . S
H295 C279 0.960 . S
C296 C297 1.391 . S
C296 C298 1.394 . S
C296 H312 0.931 . S
C297 C296 1.391 . S
C297 C301 1.376 . S
C298 C296 1.394 . S
C298 C299 1.369 . S
C298 C302 1.531 . S
C299 C298 1.369 . S
C299 C300 1.410 . S
C299 C307 1.503 . S
C300 C299 1.410 . S
C300 C301 1.392 . S
C300 C303 1.511 . S
C301 C297 1.376 . S
C301 C300 1.392 . S
C301 H313 0.929 . S
C302 C298 1.531 . S
C302 H314 0.960 . S
C302 H315 0.962 . S
C302 H316 0.960 . S
C303 C300 1.511 . S
C303 H317 0.961 . S
C303 H318 0.961 . S
C303 H319 0.961 . S
C304 C305 1.370 . S
C304 C306 1.363 . S
C304 H320 0.931 . S
C305 C304 1.370 . S
C305 C309 1.408 . S
C306 C304 1.363 . S
C306 C307 1.370 . S
C306 C310 1.524 . S
C307 C299 1.503 . S
C307 C306 1.370 . S
C307 C308 1.403 . S
C308 C307 1.403 . S
C308 C309 1.404 . S
C308 C311 1.539 . S
C309 C305 1.408 . S
C309 C308 1.404 . S
C309 H321 0.930 . S
C310 C306 1.524 . S
C310 H322 0.956 . S
C310 H323 0.961 . S
C310 H324 0.961 . S
C311 C308 1.539 . S
C311 H325 0.958 . S
C311 H326 0.961 . S
C311 H327 0.960 . S
H312 C296 0.931 . S
H313 C301 0.929 . S
H314 C302 0.960 . S
H315 C302 0.962 . S
H316 C302 0.960 . S
H317 C303 0.961 . S
H318 C303 0.961 . S
H319 C303 0.961 . S
H320 C304 0.931 . S
H321 C309 0.930 . S
H322 C310 0.956 . S
H323 C310 0.961 . S
H324 C310 0.961 . S
H325 C311 0.958 . S
H326 C311 0.961 . S
H327 C311 0.960 . S
C328 C329 1.391 . S
C328 C330 1.394 . S
C328 H344 0.931 . S
C329 C328 1.391 . S
C329 C333 1.376 . S
C330 C328 1.394 . S
C330 C331 1.369 . S
C330 C334 1.531 . S
C331 C330 1.369 . S
C331 C332 1.410 . S
C331 C339 1.503 . S
C332 C331 1.410 . S
C332 C333 1.392 . S
C332 C335 1.511 . S
C333 C329 1.376 . S
C333 C332 1.392 . S
C333 H345 0.929 . S
C334 C330 1.531 . S
C334 H346 0.960 . S
C334 H347 0.962 . S
C334 H348 0.960 . S
C335 C332 1.511 . S
C335 H349 0.961 . S
C335 H350 0.961 . S
C335 H351 0.961 . S
C336 C337 1.370 . S
C336 C338 1.363 . S
C336 H352 0.931 . S
C337 C336 1.370 . S
C337 C341 1.408 . S
C338 C336 1.363 . S
C338 C339 1.370 . S
C338 C342 1.524 . S
C339 C331 1.503 . S
C339 C338 1.370 . S
C339 C340 1.403 . S
C340 C339 1.403 . S
C340 C341 1.404 . S
C340 C343 1.539 . S
C341 C337 1.408 . S
C341 C340 1.404 . S
C341 H353 0.930 . S
C342 C338 1.524 . S
C342 H354 0.956 . S
C342 H355 0.961 . S
C342 H356 0.961 . S
C343 C340 1.539 . S
C343 H357 0.958 . S
C343 H358 0.961 . S
C343 H359 0.960 . S
H344 C328 0.931 . S
H345 C333 0.929 . S
H346 C334 0.960 . S
H347 C334 0.962 . S
H348 C334 0.960 . S
H349 C335 0.961 . S
H350 C335 0.961 . S
H351 C335 0.961 . S
H352 C336 0.931 . S
H353 C341 0.930 . S
H354 C342 0.956 . S
H355 C342 0.961 . S
H356 C342 0.961 . S
H357 C343 0.958 . S
H358 C343 0.961 . S
H359 C343 0.960 . S
C360 C361 1.391 . S
C360 C362 1.394 . S
C360 H376 0.931 . S
C361 C360 1.391 . S
C361 C365 1.376 . S
C362 C360 1.394 . S
C362 C363 1.369 . S
C362 C366 1.531 . S
C363 C362 1.369 . S
C363 C364 1.410 . S
C363 C371 1.503 . S
C364 C363 1.410 . S
C364 C365 1.392 . S
C364 C367 1.511 . S
C365 C361 1.376 . S
C365 C364 1.392 . S
C365 H377 0.929 . S
C366 C362 1.531 . S
C366 H378 0.960 . S
C366 H379 0.962 . S
C366 H380 0.960 . S
C367 C364 1.511 . S
C367 H381 0.961 . S
C367 H382 0.961 . S
C367 H383 0.961 . S
C368 C369 1.370 . S
C368 C370 1.363 . S
C368 H384 0.931 . S
C369 C368 1.370 . S
C369 C373 1.408 . S
C370 C368 1.363 . S
C370 C371 1.370 . S
C370 C374 1.524 . S
C371 C363 1.503 . S
C371 C370 1.370 . S
C371 C372 1.403 . S
C372 C371 1.403 . S
C372 C373 1.404 . S
C372 C375 1.539 . S
C373 C369 1.408 . S
C373 C372 1.404 . S
C373 H385 0.930 . S
C374 C370 1.524 . S
C374 H386 0.956 . S
C374 H387 0.961 . S
C374 H388 0.961 . S
C375 C372 1.539 . S
C375 H389 0.958 . S
C375 H390 0.961 . S
C375 H391 0.960 . S
H376 C360 0.931 . S
H377 C365 0.929 . S
H378 C366 0.960 . S
H379 C366 0.962 . S
H380 C366 0.960 . S
H381 C367 0.961 . S
H382 C367 0.961 . S
H383 C367 0.961 . S
H384 C368 0.931 . S
H385 C373 0.930 . S
H386 C374 0.956 . S
H387 C374 0.961 . S
H388 C374 0.961 . S
H389 C375 0.958 . S
H390 C375 0.961 . S
H391 C375 0.960 . S
C392 C393 1.391 . S
C392 C394 1.394 . S
C392 H408 0.931 . S
C393 C392 1.391 . S
C393 C397 1.376 . S
C394 C392 1.394 . S
C394 C395 1.369 . S
C394 C398 1.531 . S
C395 C394 1.369 . S
C395 C396 1.410 . S
C395 C403 1.503 . S
C396 C395 1.410 . S
C396 C397 1.392 . S
C396 C399 1.511 . S
C397 C393 1.376 . S
C397 C396 1.392 . S
C397 H409 0.929 . S
C398 C394 1.531 . S
C398 H410 0.960 . S
C398 H411 0.962 . S
C398 H412 0.960 . S
C399 C396 1.511 . S
C399 H413 0.961 . S
C399 H414 0.961 . S
C399 H415 0.961 . S
C400 C401 1.370 . S
C400 C402 1.363 . S
C400 H416 0.931 . S
C401 C400 1.370 . S
C401 C405 1.408 . S
C402 C400 1.363 . S
C402 C403 1.370 . S
C402 C406 1.524 . S
C403 C395 1.503 . S
C403 C402 1.370 . S
C403 C404 1.403 . S
C404 C403 1.403 . S
C404 C405 1.404 . S
C404 C407 1.539 . S
C405 C401 1.408 . S
C405 C404 1.404 . S
C405 H417 0.930 . S
C406 C402 1.524 . S
C406 H418 0.956 . S
C406 H419 0.961 . S
C406 H420 0.961 . S
C407 C404 1.539 . S
C407 H421 0.958 . S
C407 H422 0.961 . S
C407 H423 0.960 . S
H408 C392 0.931 . S
H409 C397 0.929 . S
H410 C398 0.960 . S
H411 C398 0.962 . S
H412 C398 0.960 . S
H413 C399 0.961 . S
H414 C399 0.961 . S
H415 C399 0.961 . S
H416 C400 0.931 . S
H417 C405 0.930 . S
H418 C406 0.956 . S
H419 C406 0.961 . S
H420 C406 0.961 . S
H421 C407 0.958 . S
H422 C407 0.961 . S
H423 C407 0.960 . S
C424 C425 1.391 . S
C424 C426 1.394 . S
C424 H440 0.931 . S
C425 C424 1.391 . S
C425 C429 1.376 . S
C426 C424 1.394 . S
C426 C427 1.369 . S
C426 C430 1.531 . S
C427 C426 1.369 . S
C427 C428 1.410 . S
C427 C435 1.503 . S
C428 C427 1.410 . S
C428 C429 1.392 . S
C428 C431 1.511 . S
C429 C425 1.376 . S
C429 C428 1.392 . S
C429 H441 0.929 . S
C430 C426 1.531 . S
C430 H442 0.960 . S
C430 H443 0.962 . S
C430 H444 0.960 . S
C431 C428 1.511 . S
C431 H445 0.961 . S
C431 H446 0.961 . S
C431 H447 0.961 . S
C432 C433 1.370 . S
C432 C434 1.363 . S
C432 H448 0.931 . S
C433 C432 1.370 . S
C433 C437 1.408 . S
C434 C432 1.363 . S
C434 C435 1.370 . S
C434 C438 1.524 . S
C435 C427 1.503 . S
C435 C434 1.370 . S
C435 C436 1.403 . S
C436 C435 1.403 . S
C436 C437 1.404 . S
C436 C439 1.539 . S
C437 C433 1.408 . S
C437 C436 1.404 . S
C437 H449 0.930 . S
C438 C434 1.524 . S
C438 H450 0.956 . S
C438 H451 0.961 . S
C438 H452 0.961 . S
C439 C436 1.539 . S
C439 H453 0.958 . S
C439 H454 0.961 . S
C439 H455 0.960 . S
H440 C424 0.931 . S
H441 C429 0.929 . S
H442 C430 0.960 . S
H443 C430 0.962 . S
H444 C430 0.960 . S
H445 C431 0.961 . S
H446 C431 0.961 . S
H447 C431 0.961 . S
H448 C432 0.931 . S
H449 C437 0.930 . S
H450 C438 0.956 . S
H451 C438 0.961 . S
H452 C438 0.961 . S
H453 C439 0.958 . S
H454 C439 0.961 . S
H455 C439 0.960 . S
C456 C457 1.391 . S
C456 C458 1.394 . S
C456 H472 0.931 . S
C457 C456 1.391 . S
C457 C461 1.376 . S
C458 C456 1.394 . S
C458 C459 1.369 . S
C458 C462 1.531 . S
C459 C458 1.369 . S
C459 C460 1.410 . S
C459 C467 1.503 . S
C460 C459 1.410 . S
C460 C461 1.392 . S
C460 C463 1.511 . S
C461 C457 1.376 . S
C461 C460 1.392 . S
C461 H473 0.929 . S
C462 C458 1.531 . S
C462 H474 0.960 . S
C462 H475 0.962 . S
C462 H476 0.960 . S
C463 C460 1.511 . S
C463 H477 0.961 . S
C463 H478 0.961 . S
C463 H479 0.961 . S
C464 C465 1.370 . S
C464 C466 1.363 . S
C464 H480 0.931 . S
C465 C464 1.370 . S
C465 C469 1.408 . S
C466 C464 1.363 . S
C466 C467 1.370 . S
C466 C470 1.524 . S
C467 C459 1.503 . S
C467 C466 1.370 . S
C467 C468 1.403 . S
C468 C467 1.403 . S
C468 C469 1.404 . S
C468 C471 1.539 . S
C469 C465 1.408 . S
C469 C468 1.404 . S
C469 H481 0.930 . S
C470 C466 1.524 . S
C470 H482 0.956 . S
C470 H483 0.961 . S
C470 H484 0.961 . S
C471 C468 1.539 . S
C471 H485 0.958 . S
C471 H486 0.961 . S
C471 H487 0.960 . S
H472 C456 0.931 . S
H473 C461 0.929 . S
H474 C462 0.960 . S
H475 C462 0.962 . S
H476 C462 0.960 . S
H477 C463 0.961 . S
H478 C463 0.961 . S
H479 C463 0.961 . S
H480 C464 0.931 . S
H481 C469 0.930 . S
H482 C470 0.956 . S
H483 C470 0.961 . S
H484 C470 0.961 . S
H485 C471 0.958 . S
H486 C471 0.961 . S
H487 C471 0.960 . S
C488 C489 1.391 . S
C488 C490 1.394 . S
C488 H504 0.931 1_455 S
C489 C488 1.391 . S
C489 C493 1.376 . S
C490 C488 1.394 . S
C490 C491 1.369 . S
C490 C494 1.531 1_454 S
C491 C490 1.369 . S
C491 C492 1.415 . S
C491 C499 1.503 1_544 S
C492 C491 1.415 . S
C492 C493 1.399 . S
C492 C495 1.499 1_545 S
C493 C489 1.376 . S
C493 C492 1.399 . S
C493 H505 0.929 . S
C494 C490 1.531 1_656 S
C494 H506 0.960 1_655 S
C494 H507 0.962 . S
C494 H508 0.960 . S
C495 C492 1.499 1_565 S
C495 H509 0.961 . S
C495 H510 0.961 . S
C495 H511 0.961 . S
C496 C497 1.370 1_655 S
C496 C498 1.363 . S
C496 H512 0.931 . S
C497 C496 1.370 1_455 S
C497 C501 1.408 . S
C498 C496 1.363 . S
C498 C499 1.370 1_655 S
C498 C502 1.524 1_556 S
C499 C491 1.503 1_566 S
C499 C498 1.370 1_455 S
C499 C500 1.403 . S
C500 C499 1.403 . S
C500 C501 1.404 . S
C500 C503 1.539 1_565 S
C501 C497 1.408 . S
C501 C500 1.404 . S
C501 H513 0.930 . S
C502 C498 1.524 1_554 S
C502 H514 0.956 . S
C502 H515 0.961 . S
C502 H516 0.961 1_554 S
C503 C500 1.539 1_545 S
C503 H517 0.958 . S
C503 H518 0.961 . S
C503 H519 0.960 . S
H504 C488 0.931 1_655 S
H505 C493 0.929 . S
H506 C494 0.960 1_455 S
H507 C494 0.962 . S
H508 C494 0.960 . S
H509 C495 0.961 . S
H510 C495 0.961 . S
H511 C495 0.961 . S
H512 C496 0.931 . S
H513 C501 0.930 . S
H514 C502 0.956 . S
H515 C502 0.961 . S
H516 C502 0.961 1_556 S
H517 C503 0.958 . S
H518 C503 0.961 . S
H519 C503 0.960 . S
C520 C521 1.388 1_455 S
C520 C522 1.394 . S
C520 H536 0.931 . S
C521 C520 1.388 1_655 S
C521 C525 1.380 . S
C522 C520 1.394 . S
C522 C523 1.369 1_455 S
C522 C526 1.531 1_556 S
C523 C522 1.369 1_655 S
C523 C524 1.410 . S
C523 C531 1.503 1_556 S
C524 C523 1.410 . S
C524 C525 1.392 . S
C524 C527 1.511 . S
C525 C521 1.380 . S
C525 C524 1.392 . S
C525 H537 0.929 . S
C526 C522 1.531 1_554 S
C526 H538 0.960 . S
C526 H539 0.962 . S
C526 H540 0.960 . S
C527 C524 1.511 . S
C527 H541 0.961 . S
C527 H542 0.961 . S
C527 H543 0.961 . S
C528 C529 1.370 . S
C528 C530 1.363 . S
C528 H544 0.931 . S
C529 C528 1.370 . S
C529 C533 1.408 1_455 S
C530 C528 1.363 . S
C530 C531 1.370 1_455 S
C530 C534 1.544 . S
C531 C523 1.503 1_554 S
C531 C530 1.370 1_655 S
C531 C532 1.403 . S
C532 C531 1.403 . S
C532 C533 1.404 . S
C532 C535 1.539 . S
C533 C529 1.408 1_655 S
C533 C532 1.404 . S
C533 H545 0.930 . S
C534 C530 1.544 . S
C534 H546 0.956 . S
C534 H547 0.932 1_554 S
C534 H548 0.971 . S
C535 C532 1.539 . S
C535 H549 0.958 . S
C535 H550 0.961 . S
C535 H551 0.960 . S
H536 C520 0.931 . S
H537 C525 0.929 . S
H538 C526 0.960 . S
H539 C526 0.962 . S
H540 C526 0.960 . S
H541 C527 0.961 . S
H542 C527 0.961 . S
H543 C527 0.961 . S
H544 C528 0.931 . S
H545 C533 0.930 . S
H546 C534 0.956 . S
H547 C534 0.932 1_556 S
H548 C534 0.971 . S
H549 C535 0.958 . S
H550 C535 0.961 . S
H551 C535 0.960 . S
C552 C553 1.391 . S
C552 C554 1.394 . S
C552 H568 0.931 . S
C553 C552 1.391 . S
C553 C557 1.376 . S
C554 C552 1.394 . S
C554 C555 1.369 . S
C554 C558 1.531 . S
C555 C554 1.369 . S
C555 C556 1.410 . S
C555 C563 1.503 . S
C556 C555 1.410 . S
C556 C557 1.392 . S
C556 C559 1.511 . S
C557 C553 1.376 . S
C557 C556 1.392 . S
C557 H569 0.929 . S
C558 C554 1.531 . S
C558 H570 0.960 . S
C558 H571 0.962 . S
C558 H572 0.960 . S
C559 C556 1.511 . S
C559 H573 0.961 . S
C559 H574 0.961 . S
C559 H575 0.961 . S
C560 C561 1.370 . S
C560 C562 1.363 . S
C560 H576 0.931 . S
C561 C560 1.370 . S
C561 C565 1.408 . S
C562 C560 1.363 . S
C562 C563 1.370 . S
C562 C566 1.524 . S
C563 C555 1.503 . S
C563 C562 1.370 . S
C563 C564 1.403 . S
C564 C563 1.403 . S
C564 C565 1.404 . S
C564 C567 1.539 . S
C565 C561 1.408 . S
C565 C564 1.404 . S
C565 H577 0.930 . S
C566 C562 1.524 . S
C566 H578 0.956 . S
C566 H579 0.961 . S
C566 H580 0.961 . S
C567 C564 1.539 . S
C567 H581 0.958 . S
C567 H582 0.961 . S
C567 H583 0.960 . S
H568 C552 0.931 . S
H569 C557 0.929 . S
H570 C558 0.960 . S
H571 C558 0.962 . S
H572 C558 0.960 . S
H573 C559 0.961 . S
H574 C559 0.961 . S
H575 C559 0.961 . S
H576 C560 0.931 . S
H577 C565 0.930 . S
H578 C566 0.956 . S
H579 C566 0.961 . S
H580 C566 0.961 . S
H581 C567 0.958 . S
H582 C567 0.961 . S
H583 C567 0.960 . S
C584 C585 1.391 . S
C584 C586 1.394 . S
C584 H600 0.931 . S
C585 C584 1.391 . S
C585 C589 1.376 . S
C586 C584 1.394 . S
C586 C587 1.369 . S
C586 C590 1.531 1_565 S
C587 C586 1.369 . S
C587 C588 1.410 . S
C587 C595 1.503 1_565 S
C588 C587 1.410 . S
C588 C589 1.392 . S
C588 C591 1.511 . S
C589 C585 1.376 . S
C589 C588 1.392 . S
C589 H601 0.929 . S
C590 C586 1.531 1_545 S
C590 H602 0.960 . S
C590 H603 0.962 . S
C590 H604 0.960 . S
C591 C588 1.511 . S
C591 H605 0.961 . S
C591 H606 0.961 . S
C591 H607 0.961 . S
C592 C593 1.370 . S
C592 C594 1.349 1_545 S
C592 H608 0.931 . S
C593 C592 1.370 . S
C593 C597 1.408 . S
C594 C592 1.349 1_565 S
C594 C595 1.358 1_565 S
C594 C598 1.551 . S
C595 C587 1.503 1_545 S
C595 C594 1.358 1_545 S
C595 C596 1.403 . S
C596 C595 1.403 . S
C596 C597 1.404 . S
C596 C599 1.539 . S
C597 C593 1.408 . S
C597 C596 1.404 . S
C597 H609 0.930 . S
C598 C594 1.551 . S
C598 H610 0.956 . S
C598 H611 0.961 . S
C598 H612 0.961 . S
C599 C596 1.539 . S
C599 H613 0.958 . S
C599 H614 0.961 . S
C599 H615 0.960 . S
H600 C584 0.931 . S
H601 C589 0.929 . S
H602 C590 0.960 . S
H603 C590 0.962 . S
H604 C590 0.960 . S
H605 C591 0.961 . S
H606 C591 0.961 . S
H607 C591 0.961 . S
H608 C592 0.931 . S
H609 C597 0.930 . S
H610 C598 0.956 . S
H611 C598 0.961 . S
H612 C598 0.961 . S
H613 C599 0.958 . S
H614 C599 0.961 . S
H615 C599 0.960 . S
C105 C18 1.384 . S
C113 C5 1.407 . S
C137 C31 1.398 . S
C145 C44 1.406 . S
C169 C57 1.410 . S
C177 C70 1.410 . S
C201 C83 1.397 . S
C209 C96 1.406 . S
C233 C99 1.339 . S
C241 C8 1.321 . S
C265 C86 1.340 . S
C273 C21 1.321 . S
C297 C34 1.332 . S
C305 C73 1.319 . S
C329 C60 1.266 . S
C337 C47 1.291 . S
C361 C75 1.430 . S
C369 C36 1.437 . S
C393 C62 1.431 . S
C401 C49 1.437 . S
C425 C101 1.416 . S
C433 C10 1.435 . S
C457 C23 1.422 . S
C465 C88 1.429 . S
C489 C0 1.288 . S
C497 C26 1.274 . S
C521 C39 1.285 1_655 S
C529 C13 1.275 . S
C553 C78 1.237 . S
C561 C52 1.254 . S
C585 C65 1.244 . S
C593 C91 1.262 . S
