# Generated by pormake.
# Topology osc, (6)-cn, num edge types: 1
# Building blocks:
#     Node 0, Type 0, BuildingBlock: IZENUY_clean_sbu_0, # of connection points: 6
#     Node 1, Type 0, BuildingBlock: IZENUY_clean_sbu_0, # of connection points: 6
#     Node 2, Type 0, BuildingBlock: IZENUY_clean_sbu_0, # of connection points: 6
#     Node 3, Type 0, BuildingBlock: IZENUY_clean_sbu_0, # of connection points: 6
#     Node 4, Type 0, BuildingBlock: IZENUY_clean_sbu_0, # of connection points: 6
#     Node 5, Type 0, BuildingBlock: IZENUY_clean_sbu_0, # of connection points: 6
#     Node 6, Type 0, BuildingBlock: IZENUY_clean_sbu_0, # of connection points: 6
#     Node 7, Type 0, BuildingBlock: IZENUY_clean_sbu_0, # of connection points: 6
#     Edge 8, Type (0, 0), BuildingBlock: KIFKEQ_clean_linker_1, # of connection points: 2
#     Edge 9, Type (0, 0), BuildingBlock: KIFKEQ_clean_linker_1, # of connection points: 2
#     Edge 10, Type (0, 0), BuildingBlock: KIFKEQ_clean_linker_1, # of connection points: 2
#     Edge 11, Type (0, 0), BuildingBlock: KIFKEQ_clean_linker_1, # of connection points: 2
#     Edge 12, Type (0, 0), BuildingBlock: KIFKEQ_clean_linker_1, # of connection points: 2
#     Edge 13, Type (0, 0), BuildingBlock: KIFKEQ_clean_linker_1, # of connection points: 2
#     Edge 14, Type (0, 0), BuildingBlock: KIFKEQ_clean_linker_1, # of connection points: 2
#     Edge 15, Type (0, 0), BuildingBlock: KIFKEQ_clean_linker_1, # of connection points: 2
#     Edge 16, Type (0, 0), BuildingBlock: KIFKEQ_clean_linker_1, # of connection points: 2
#     Edge 17, Type (0, 0), BuildingBlock: KIFKEQ_clean_linker_1, # of connection points: 2
#     Edge 18, Type (0, 0), BuildingBlock: KIFKEQ_clean_linker_1, # of connection points: 2
#     Edge 19, Type (0, 0), BuildingBlock: KIFKEQ_clean_linker_1, # of connection points: 2
#     Edge 20, Type (0, 0), BuildingBlock: KIFKEQ_clean_linker_1, # of connection points: 2
#     Edge 21, Type (0, 0), BuildingBlock: KIFKEQ_clean_linker_1, # of connection points: 2
#     Edge 22, Type (0, 0), BuildingBlock: KIFKEQ_clean_linker_1, # of connection points: 2
#     Edge 23, Type (0, 0), BuildingBlock: KIFKEQ_clean_linker_1, # of connection points: 2
#     Edge 24, Type (0, 0), BuildingBlock: KIFKEQ_clean_linker_1, # of connection points: 2
#     Edge 25, Type (0, 0), BuildingBlock: KIFKEQ_clean_linker_1, # of connection points: 2
#     Edge 26, Type (0, 0), BuildingBlock: KIFKEQ_clean_linker_1, # of connection points: 2
#     Edge 27, Type (0, 0), BuildingBlock: KIFKEQ_clean_linker_1, # of connection points: 2
#     Edge 28, Type (0, 0), BuildingBlock: KIFKEQ_clean_linker_1, # of connection points: 2
#     Edge 29, Type (0, 0), BuildingBlock: KIFKEQ_clean_linker_1, # of connection points: 2
#     Edge 30, Type (0, 0), BuildingBlock: KIFKEQ_clean_linker_1, # of connection points: 2
#     Edge 31, Type (0, 0), BuildingBlock: KIFKEQ_clean_linker_1, # of connection points: 2
# Relax obj value: 0.251
# Max RMSD: 0.250
# Mean RMSD: 0.249
data_MOF--net-osc--node1-IZENUY_clean_sbu_0--edge1-KIFKEQ_clean_linker_1
_symmetry_space_group_name_H-M    P1
_symmetry_Int_Tables_number       1
_symmetry_cell_setting            triclinic
loop_
_symmetry_equiv_pos_as_xyz
'x, y, z'
_cell_length_a     29.056208
_cell_length_b     47.193946
_cell_length_c     26.545267
_cell_angle_alpha  90.211367
_cell_angle_beta   90.365769
_cell_angle_gamma 90.280232
loop_
_atom_site_label
_atom_site_type_symbol
_atom_site_fract_x
_atom_site_fract_y
_atom_site_fract_z
_atom_type_partial_charge
Fe0 Fe 0.27161 0.06551 0.39317 0.0
Fe1 Fe 0.29292 0.11275 0.31689 0.0
O2 O 0.29891 0.09814 0.37821 0.0
Fe3 Fe 0.33319 0.11558 0.42485 0.0
O4 O 0.35213 0.08316 0.45504 0.0
O5 O 0.32751 0.04878 0.4055 0.0
O6 O 0.27291 0.05048 0.32956 0.0
C7 C 0.29568 0.05643 0.29068 0.0
C8 C 0.26259 0.09726 0.48349 0.0
O9 O 0.31351 0.08068 0.28591 0.0
C10 C 0.29147 0.16175 0.37373 0.0
O11 O 0.21489 0.0806 0.38148 0.0
O12 O 0.23312 0.10159 0.30992 0.0
O13 O 0.28489 0.11868 0.46831 0.0
O14 O 0.26405 0.07408 0.45959 0.0
C15 C 0.38698 0.11927 0.33979 0.0
O16 O 0.27147 0.14641 0.34121 0.0
O17 O 0.32147 0.15143 0.40285 0.0
C18 C 0.20341 0.0929 0.341 0.0
O19 O 0.35204 0.12596 0.3139 0.0
O20 O 0.38372 0.11287 0.38569 0.0
C21 C 0.35693 0.05883 0.43627 0.0
Fe22 Fe 0.22119 0.9725 0.87997 0.0
Fe23 Fe 0.21284 0.92238 0.80713 0.0
O24 O 0.19876 0.93859 0.86509 0.0
Fe25 Fe 0.16172 0.92081 0.90715 0.0
O26 O 0.12089 0.94898 0.90453 0.0
O27 O 0.16913 0.98452 0.91493 0.0
O28 O 0.1957 0.98816 0.82405 0.0
C29 C 0.20638 0.98053 0.78021 0.0
C30 C 0.22726 0.94833 0.97264 0.0
O31 O 0.22179 0.95582 0.77251 0.0
C32 C 0.21067 0.87566 0.87438 0.0
O33 O 0.27717 0.96589 0.84804 0.0
O34 O 0.27258 0.92093 0.82521 0.0
O35 O 0.18911 0.93557 0.96521 0.0
O36 O 0.24833 0.95952 0.93652 0.0
C37 C 0.12043 0.91312 0.81169 0.0
O38 O 0.20725 0.88571 0.83026 0.0
O39 O 0.19999 0.89061 0.91198 0.0
C40 C 0.29637 0.94261 0.83574 0.0
O41 O 0.15336 0.92352 0.78701 0.0
O42 O 0.12688 0.90419 0.85637 0.0
C43 C 0.12835 0.97448 0.91533 0.0
Fe44 Fe 0.77153 0.46632 0.14619 0.0
Fe45 Fe 0.78817 0.41985 0.22478 0.0
O46 O 0.80015 0.43511 0.16564 0.0
Fe47 Fe 0.84113 0.41872 0.12625 0.0
O48 O 0.8771 0.44983 0.12801 0.0
O49 O 0.82238 0.48078 0.11187 0.0
O50 O 0.79104 0.4863 0.20122 0.0
C51 C 0.78393 0.47885 0.24612 0.0
C52 C 0.77445 0.43935 0.05569 0.0
O53 O 0.77419 0.45336 0.25638 0.0
C54 C 0.79788 0.37177 0.16128 0.0
O55 O 0.71639 0.45664 0.17699 0.0
O56 O 0.72921 0.41385 0.20696 0.0
O57 O 0.81417 0.43003 0.06642 0.0
O58 O 0.74921 0.44912 0.0899 0.0
C59 C 0.88111 0.41564 0.22283 0.0
O60 O 0.79962 0.38318 0.20459 0.0
O61 O 0.80735 0.38617 0.12267 0.0
C62 C 0.70164 0.43299 0.19366 0.0
O63 O 0.84675 0.42543 0.2455 0.0
O64 O 0.87678 0.40543 0.17874 0.0
C65 C 0.86484 0.47404 0.11374 0.0
Fe66 Fe 0.71412 0.61318 0.72512 0.0
Fe67 Fe 0.66047 0.61437 0.62634 0.0
O68 O 0.70066 0.59757 0.66631 0.0
Fe69 Fe 0.72714 0.56551 0.64841 0.0
O70 O 0.70622 0.54699 0.7041 0.0
O71 O 0.72901 0.57993 0.75689 0.0
O72 O 0.6558 0.60786 0.74592 0.0
C73 C 0.6212 0.61741 0.7228 0.0
C74 C 0.79898 0.59896 0.6924 0.0
O75 O 0.62544 0.62801 0.67904 0.0
C76 C 0.72643 0.59175 0.55719 0.0
O77 O 0.70262 0.64976 0.70522 0.0
O78 O 0.69553 0.64639 0.62331 0.0
O79 O 0.78292 0.57484 0.67903 0.0
O80 O 0.77259 0.61864 0.70606 0.0
C81 C 0.63397 0.55942 0.61412 0.0
O82 O 0.68731 0.60241 0.56659 0.0
O83 O 0.75028 0.58128 0.59211 0.0
C84 C 0.70539 0.66088 0.662 0.0
O85 O 0.62317 0.58405 0.62741 0.0
O86 O 0.67583 0.55156 0.61378 0.0
C87 C 0.71688 0.55461 0.74824 0.0
Fe88 Fe 0.72949 0.97007 0.6315 0.0
Fe89 Fe 0.66619 0.92095 0.60036 0.0
O90 O 0.70083 0.93797 0.64695 0.0
Fe91 Fe 0.7052 0.92365 0.70843 0.0
O92 O 0.68622 0.95643 0.73858 0.0
O93 O 0.729 0.98539 0.69466 0.0
O94 O 0.67354 0.98754 0.61876 0.0
C95 C 0.64428 0.97725 0.58787 0.0
C96 C 0.79625 0.94078 0.68383 0.0
O97 O 0.65138 0.95342 0.5683 0.0
C98 C 0.70432 0.87437 0.65247 0.0
O99 O 0.73725 0.96062 0.5653 0.0
O100 O 0.7153 0.91606 0.55848 0.0
O101 O 0.76595 0.93323 0.71536 0.0
O102 O 0.78564 0.9542 0.64406 0.0
C103 C 0.61063 0.91945 0.68455 0.0
O104 O 0.67436 0.88503 0.62377 0.0
O105 O 0.72485 0.88948 0.68486 0.0
C106 C 0.73855 0.93699 0.5426 0.0
O107 O 0.61509 0.92578 0.63861 0.0
O108 O 0.64495 0.91183 0.71081 0.0
C109 C 0.70563 0.98017 0.73333 0.0
Fe110 Fe 0.78747 0.11045 0.22022 0.0
Fe111 Fe 0.77103 0.06248 0.14488 0.0
O112 O 0.79834 0.09474 0.16121 0.0
Fe113 Fe 0.83667 0.11142 0.11908 0.0
O114 O 0.87413 0.12598 0.16972 0.0
O115 O 0.8467 0.1065 0.23851 0.0
O116 O 0.77574 0.07682 0.25325 0.0
C117 C 0.78804 0.05167 0.24349 0.0
C118 C 0.79303 0.15788 0.15506 0.0
O119 O 0.79574 0.04428 0.19873 0.0
C120 C 0.76669 0.088 0.05396 0.0
O121 O 0.7281 0.1149 0.2041 0.0
O122 O 0.71689 0.07091 0.17896 0.0
O123 O 0.80189 0.14325 0.11647 0.0
O124 O 0.79652 0.14712 0.19864 0.0
C125 C 0.86241 0.05657 0.10708 0.0
O126 O 0.74451 0.07835 0.09061 0.0
O127 O 0.8066 0.09866 0.06091 0.0
C128 C 0.70121 0.09477 0.19339 0.0
O129 O 0.82032 0.04894 0.10727 0.0
O130 O 0.87405 0.08123 0.11975 0.0
C131 C 0.87994 0.11666 0.21423 0.0
Fe132 Fe 0.21495 0.61294 0.81519 0.0
Fe133 Fe 0.22347 0.56497 0.89144 0.0
O134 O 0.2004 0.5981 0.87395 0.0
Fe135 Fe 0.16271 0.61672 0.91406 0.0
O136 O 0.12816 0.63109 0.86121 0.0
O137 O 0.1562 0.60974 0.79421 0.0
O138 O 0.22655 0.579 0.78333 0.0
C139 C 0.21165 0.55426 0.79177 0.0
C140 C 0.21023 0.66168 0.87761 0.0
O141 O 0.19999 0.54741 0.83566 0.0
C142 C 0.2274 0.59174 0.98259 0.0
O143 O 0.27384 0.61634 0.83481 0.0
O144 O 0.28008 0.57217 0.86115 0.0
O145 O 0.20067 0.64762 0.91656 0.0
O146 O 0.20688 0.65003 0.83468 0.0
C147 C 0.13002 0.56274 0.926 0.0
O148 O 0.24891 0.57963 0.9478 0.0
O149 O 0.18952 0.60417 0.97364 0.0
C150 C 0.29839 0.59574 0.84839 0.0
O151 O 0.17084 0.55292 0.92554 0.0
O152 O 0.1223 0.58797 0.91388 0.0
C153 C 0.1228 0.62069 0.81718 0.0
Fe154 Fe 0.27307 0.47185 0.39832 0.0
Fe155 Fe 0.33305 0.42077 0.42628 0.0
O156 O 0.29842 0.43886 0.38123 0.0
Fe157 Fe 0.28977 0.4249 0.31948 0.0
O158 O 0.3094 0.45734 0.28902 0.0
O159 O 0.27046 0.48688 0.33514 0.0
O160 O 0.33024 0.48804 0.40666 0.0
C161 C 0.36126 0.47733 0.43449 0.0
C162 C 0.20202 0.44324 0.35184 0.0
O163 O 0.35581 0.45322 0.45415 0.0
C164 C 0.28737 0.37534 0.37541 0.0
O165 O 0.26915 0.46399 0.46529 0.0
O166 O 0.28649 0.41907 0.47229 0.0
O167 O 0.22956 0.43567 0.31748 0.0
O168 O 0.21556 0.45687 0.3905 0.0
C169 C 0.38443 0.41599 0.33859 0.0
O170 O 0.31702 0.3851 0.40587 0.0
O171 O 0.26935 0.39076 0.34213 0.0
C172 C 0.2666 0.44092 0.48888 0.0
O173 O 0.3825 0.42149 0.38506 0.0
O174 O 0.34851 0.41203 0.31234 0.0
C175 C 0.29193 0.48142 0.29532 0.0
H176 H 0.62231 0.03471 0.58064 0.0
H177 H 0.56687 0.95028 0.56031 0.0
H178 H 0.55068 0.05417 0.54444 0.0
H179 H 0.49742 0.96919 0.52467 0.0
H180 H 0.36029 1.0125 0.49728 0.0
H181 H 0.42869 0.99508 0.54171 0.0
H182 H 0.5133 0.05481 0.46043 0.0
H183 H 0.44482 0.0723 0.41714 0.0
C184 C 0.59481 0.02043 0.56938 0.0
C185 C 0.60047 0.99101 0.57319 0.0
C186 C 0.55403 0.03144 0.54825 0.0
C187 C 0.51832 1.01315 0.53145 0.0
C188 C 0.52366 0.98395 0.53759 0.0
C189 C 0.56396 0.97311 0.5579 0.0
C190 C 0.39377 0.02113 0.48792 0.0
C191 C 0.39768 0.04308 0.45287 0.0
C192 C 0.43287 1.01155 0.51377 0.0
C193 C 0.47652 0.02382 0.50505 0.0
C194 C 0.48025 0.0453 0.46888 0.0
C195 C 0.44122 0.05488 0.44327 0.0
H196 H 0.94976 0.04772 0.13867 0.0
H197 H 0.85609 0.03039 1.0157 0.0
H198 H 0.01367 0.0298 0.08905 0.0
H199 H 0.92011 1.014 0.96445 0.0
H200 H 0.03805 0.96191 0.90231 0.0
H201 H 0.9735 0.97952 0.94936 0.0
H202 H 0.06237 0.04115 0.02246 0.0
H203 H 0.12841 0.02187 0.97708 0.0
C204 C 0.94287 0.03951 0.10117 0.0
C205 C 0.89795 0.03981 0.08133 0.0
C206 C 0.97964 0.02983 0.07222 0.0
C207 C 0.9726 0.02082 0.02216 0.0
C208 C 0.92714 0.02036 1.00295 0.0
C209 C 0.89019 0.02954 0.0324 0.0
C210 C 0.04399 0.97942 0.92812 0.0
C211 C 0.08871 0.99023 0.93639 0.0
C212 C 0.00658 0.98972 0.95502 0.0
C213 C 0.01234 1.01159 0.99053 0.0
C214 C 0.05664 0.02374 0.99649 0.0
C215 C 0.09449 1.01309 0.96983 0.0
H216 H 0.13039 0.514 0.98393 0.0
H217 H 0.03949 0.57604 0.91801 0.0
H218 H 0.06491 0.49319 0.02844 0.0
H219 H 0.97552 0.55671 0.96415 0.0
H220 H 0.85845 0.50266 0.02474 0.0
H221 H 0.92217 0.52116 0.97508 0.0
H222 H 0.01651 0.50183 0.09682 0.0
H223 H 0.95294 0.48201 0.14484 0.0
C224 C 0.09652 0.52301 0.97852 0.0
C225 C 0.09049 0.54681 0.94763 0.0
C226 C 0.05896 0.51141 1.00466 0.0
C227 C 0.01462 0.52347 1.00076 0.0
C228 C 0.00862 0.54651 0.9681 0.0
C229 C 0.04576 0.55781 0.94174 0.0
C230 C 0.89266 0.5031 0.04124 0.0
C231 C 0.90066 0.49131 0.0889 0.0
C232 C 0.92945 0.51353 1.01268 0.0
C233 C 0.97505 0.51281 0.03146 0.0
C234 C 0.98238 0.50212 0.08026 0.0
C235 C 0.94577 0.49126 0.10832 0.0
H236 H 0.64057 0.52562 0.53034 0.0
H237 H 0.54404 0.55796 0.63902 0.0
H238 H 0.57631 0.50851 0.47809 0.0
H239 H 0.48014 0.54062 0.58767 0.0
H240 H 0.37258 0.53244 0.46707 0.0
H241 H 0.44192 0.55189 0.50821 0.0
H242 H 0.5144 0.47419 0.4761 0.0
H243 H 0.44605 0.45534 0.43475 0.0
C244 C 0.60571 0.52822 0.54379 0.0
C245 C 0.59725 0.54287 0.58887 0.0
C246 C 0.56887 0.51879 0.51363 0.0
C247 C 0.52301 0.52381 0.52815 0.0
C248 C 0.5149 0.53718 0.57456 0.0
C249 C 0.55153 0.54663 0.60445 0.0
C250 C 0.40387 0.52006 0.46749 0.0
C251 C 0.40407 0.49245 0.44798 0.0
C252 C 0.44334 0.53091 0.49162 0.0
C253 C 0.4835 0.51434 0.49624 0.0
C254 C 0.48433 0.48757 0.47321 0.0
C255 C 0.44507 0.47675 0.44956 0.0
H256 H 0.25792 1.0032 0.2879 0.0
H257 H 0.32872 0.06405 0.19464 0.0
H258 H 0.2459 0.97259 0.21494 0.0
H259 H 0.31602 0.03354 0.1214 0.0
H260 H 0.31269 0.96642 1.00175 0.0
H261 H 0.33453 0.9891 0.08094 0.0
H262 H 0.19864 0.97259 0.13931 0.0
H263 H 0.17697 0.94947 0.06008 0.0
C264 C 0.2714 1.00998 0.25193 0.0
C265 C 0.29412 0.03629 0.24727 0.0
C266 C 0.26414 0.99244 0.20994 0.0
C267 C 0.27955 1.0006 0.16204 0.0
C268 C 0.304 0.02636 0.15773 0.0
C269 C 0.31121 0.04397 0.19978 0.0
C270 C 0.2877 0.96709 0.03184 0.0
C271 C 0.24293 0.95621 0.02435 0.0
C272 C 0.30014 0.98037 0.07715 0.0
C273 C 0.2682 0.98319 0.11636 0.0
C274 C 0.2243 0.97071 0.1101 0.0
C275 C 0.21184 0.95734 0.06465 0.0
H276 H 0.26784 0.98182 0.70345 0.0
H277 H 0.15497 0.02869 0.76751 0.0
H278 H 0.27827 0.01871 0.64026 0.0
H279 H 0.16469 0.06538 0.70265 0.0
H280 H 0.17697 0.0845 0.51624 0.0
H281 H 0.16011 0.06057 0.59583 0.0
H282 H 0.29934 0.07624 0.64616 0.0
H283 H 0.31568 0.10099 0.56725 0.0
C284 C 0.24493 0.99986 0.70372 0.0
C285 C 0.21036 1.00225 0.74025 0.0
C286 C 0.25129 0.02113 0.66792 0.0
C287 C 0.22265 0.04501 0.66709 0.0
C288 C 0.18744 0.04727 0.70288 0.0
C289 C 0.18181 0.02627 0.7397 0.0
C290 C 0.20301 0.08438 0.54566 0.0
C291 C 0.24733 0.09506 0.53609 0.0
C292 C 0.19351 0.07045 0.59094 0.0
C293 C 0.22859 0.06636 0.62674 0.0
C294 C 0.27174 0.07918 0.61907 0.0
C295 C 0.28089 0.09369 0.57428 0.0
H296 H 0.6728 0.59143 0.47102 0.0
H297 H 0.81076 0.57485 0.5246 0.0
H298 H 0.69129 0.56833 0.39078 0.0
H299 H 0.82866 0.55163 0.44513 0.0
H300 H 0.80383 0.47093 0.34497 0.0
H301 H 0.79389 0.50406 0.4147 0.0
H302 H 0.74692 0.56803 0.31091 0.0
H303 H 0.75784 0.53478 0.24036 0.0
C304 C 0.70742 0.58372 0.46522 0.0
C305 C 0.7401 0.58476 0.50461 0.0
C306 C 0.71795 0.57041 0.41928 0.0
C307 C 0.7612 0.55777 0.41204 0.0
C308 C 0.79484 0.5608 0.44989 0.0
C309 C 0.78454 0.57423 0.49541 0.0
C310 C 0.79195 0.49217 0.33685 0.0
C311 C 0.78175 0.50025 0.28716 0.0
C312 C 0.78641 0.51119 0.37678 0.0
C313 C 0.7697 0.53868 0.36828 0.0
C314 C 0.75982 0.54697 0.31854 0.0
C315 C 0.76637 0.52803 0.27822 0.0
H316 H 0.6898 0.45155 1.01506 0.0
H317 H 0.83379 0.44551 0.97702 0.0
H318 H 0.67454 0.47496 0.93445 0.0
H319 H 0.81845 0.46927 0.89724 0.0
H320 H 0.77891 0.55697 0.82476 0.0
H321 H 0.79136 0.52292 0.89201 0.0
H322 H 0.68269 0.46995 0.83169 0.0
H323 H 0.67079 0.50405 0.76266 0.0
C324 C 0.71792 0.45446 0.98896 0.0
C325 C 0.76305 0.44675 1.00268 0.0
C326 C 0.70912 0.46782 0.9428 0.0
C327 C 0.74539 0.47414 0.9099 0.0
C328 C 0.7899 0.46474 0.92205 0.0
C329 C 0.79858 0.45095 0.96768 0.0
C330 C 0.75764 0.53806 0.82555 0.0
C331 C 0.72369 0.53326 0.78847 0.0
C332 C 0.7651 0.51844 0.86389 0.0
C333 C 0.73824 0.49371 0.86685 0.0
C334 C 0.70397 0.48883 0.83009 0.0
C335 C 0.69721 0.50826 0.7907 0.0
H336 H 0.8037 0.10134 0.96119 0.0
H337 H 0.69307 0.05441 0.03049 0.0
H338 H 0.78342 0.08027 0.87994 0.0
H339 H 0.67561 0.03165 0.95171 0.0
H340 H 0.63939 0.99508 0.8019 0.0
H341 H 0.64796 0.02743 0.87336 0.0
H342 H 0.79138 0.03997 0.83527 0.0
H343 H 0.78106 1.00991 0.7621 0.0
C344 C 0.77489 0.08674 0.95909 0.0
C345 C 0.75044 0.07952 1.00269 0.0
C346 C 0.76356 0.07418 0.91251 0.0
C347 C 0.72829 0.05349 0.90861 0.0
C348 C 0.70251 0.04756 0.95201 0.0
C349 C 0.71296 0.06061 0.99793 0.0
C350 C 0.67244 1.00514 0.8088 0.0
C351 C 0.70945 1.00003 0.77648 0.0
C352 C 0.67771 0.02358 0.85008 0.0
C353 C 0.72067 0.03652 0.86115 0.0
C354 C 0.75742 0.03132 0.8281 0.0
C355 C 0.75168 1.0137 0.78611 0.0
H356 H 0.82353 0.95033 0.5086 0.0
H357 H 0.68527 0.93088 0.45932 0.0
H358 H 0.83891 0.97331 0.42777 0.0
H359 H 0.70016 0.95473 0.37919 0.0
H360 H 0.73293 0.05194 0.32591 0.0
H361 H 0.72451 1.01509 0.3896 0.0
H362 H 0.82775 0.96488 0.31554 0.0
H363 H 0.8353 1.00153 0.25017 0.0
C364 C 0.79736 0.94955 0.47935 0.0
C365 C 0.75351 0.93839 0.48978 0.0
C366 C 0.80601 0.96292 0.43335 0.0
C367 C 0.7706 0.96588 0.39761 0.0
C368 C 0.72805 0.95252 0.40615 0.0
C369 C 0.71973 0.93856 0.4517 0.0
C370 C 0.75392 0.03309 0.32308 0.0
C371 C 0.78493 0.02969 0.28312 0.0
C372 C 0.74874 1.01191 0.35925 0.0
C373 C 0.7751 0.9871 0.35695 0.0
C374 C 0.80677 0.98375 0.31768 0.0
C375 C 0.81114 1.00471 0.28056 0.0
H376 H 0.15983 0.50591 0.7769 0.0
H377 H 0.27588 0.55245 0.71812 0.0
H378 H 0.16956 0.46989 0.71033 0.0
H379 H 0.28632 0.51629 0.65342 0.0
H380 H 0.32044 0.43626 0.57203 0.0
H381 H 0.30503 0.45925 0.6531 0.0
H382 H 0.166 0.47649 0.60487 0.0
H383 H 0.18193 0.45429 0.52327 0.0
C384 C 0.18752 0.50831 0.7501 0.0
C385 C 0.21683 0.53212 0.75243 0.0
C386 C 0.19313 0.48772 0.71225 0.0
C387 C 0.22907 0.49017 0.67727 0.0
C388 C 0.25876 0.51367 0.68035 0.0
C389 C 0.25243 0.53452 0.71708 0.0
C390 C 0.28591 0.44358 0.57983 0.0
C391 C 0.2521 0.44308 0.54182 0.0
C392 C 0.27726 0.45704 0.62592 0.0
C393 C 0.23439 0.46973 0.63504 0.0
C394 C 0.19915 0.46665 0.59898 0.0
C395 C 0.20814 0.45376 0.55247 0.0
H396 H 0.17449 0.58916 0.06787 0.0
H397 H 0.31323 0.5773 1.01473 0.0
H398 H 0.19494 0.56573 0.14682 0.0
H399 H 0.33376 0.55421 0.09356 0.0
H400 H 0.32635 0.47601 0.19939 0.0
H401 H 0.31453 0.50789 0.12833 0.0
H402 H 0.2407 0.56568 0.2246 0.0
H403 H 0.25201 0.53379 0.29543 0.0
C404 C 0.20973 0.58247 0.0737 0.0
C405 C 0.2421 0.58495 0.03484 0.0
C406 C 0.22147 0.56888 0.1189 0.0
C407 C 0.26583 0.55755 0.12618 0.0
C408 C 0.29903 0.56204 0.08878 0.0
C409 C 0.28734 0.57556 0.04376 0.0
C410 C 0.30813 0.49567 0.2056 0.0
C411 C 0.28992 0.50214 0.25317 0.0
C412 C 0.30148 0.51406 0.16486 0.0
C413 C 0.2764 0.53936 0.17064 0.0
C414 C 0.25959 0.54625 0.2186 0.0
C415 C 0.26637 0.52796 0.25932 0.0
H416 H 0.40331 0.10864 0.2407 0.0
H417 H 0.47201 0.12411 0.38316 0.0
H418 H 0.478 0.10121 0.20049 0.0
H419 H 0.54651 0.11726 0.34248 0.0
H420 H 0.66146 0.14244 0.23025 0.0
H421 H 0.58443 0.14787 0.26313 0.0
H422 H 0.55152 0.06191 0.22007 0.0
H423 H 0.63009 0.05577 0.18773 0.0
C424 C 0.43437 0.11085 0.26321 0.0
C425 C 0.43202 0.11728 0.31494 0.0
C426 C 0.47685 0.10624 0.24032 0.0
C427 C 0.51754 0.10856 0.26862 0.0
C428 C 0.51533 0.11535 0.32009 0.0
C429 C 0.47288 0.11939 0.34321 0.0
C430 C 0.63805 0.12456 0.22732 0.0
C431 C 0.65227 0.09844 0.20691 0.0
C432 C 0.59394 0.1278 0.24628 0.0
C433 C 0.56264 0.10524 0.24448 0.0
C434 C 0.57549 0.07954 0.2218 0.0
C435 C 0.62025 0.07607 0.20336 0.0
H436 H 0.87495 0.96823 0.65224 0.0
H437 H 0.82738 0.89871 0.74389 0.0
H438 H 0.95399 0.95936 0.68057 0.0
H439 H 0.90573 0.88923 0.77059 0.0
H440 H 0.03865 0.90374 0.85916 0.0
H441 H 0.96154 0.9095 0.82482 0.0
H442 H 0.01872 0.92801 0.67858 0.0
H443 H 0.09609 0.92315 0.71352 0.0
C444 C 0.88146 0.95085 0.67782 0.0
C445 C 0.84488 0.93448 0.69642 0.0
C446 C 0.92674 0.94565 0.69394 0.0
C447 C 0.9363 0.92377 0.7285 0.0
C448 C 0.89971 0.90673 0.74515 0.0
C449 C 0.8547 0.91211 0.72958 0.0
C450 C 0.03482 0.90858 0.81949 0.0
C451 C 0.07361 0.91283 0.78911 0.0
C452 C 0.99049 0.91188 0.79967 0.0
C453 C 0.98371 0.91926 0.74878 0.0
C454 C 0.02255 0.92276 0.71806 0.0
C455 C 0.06695 0.91967 0.73801 0.0
H456 H 0.12661 0.47511 0.3773 0.0
H457 H 0.16737 0.39624 0.30824 0.0
H458 H 0.04673 0.4661 0.35101 0.0
H459 H 0.08814 0.3867 0.28379 0.0
H460 H 0.90165 0.43213 0.31945 0.0
H461 H 0.97777 0.43662 0.35817 0.0
H462 H 0.03945 0.40648 0.22038 0.0
H463 H 0.96374 0.40128 0.18232 0.0
C464 C 0.11823 0.45561 0.35755 0.0
C465 C 0.15301 0.43663 0.34388 0.0
C466 C 0.07262 0.45038 0.3426 0.0
C467 C 0.06131 0.42592 0.31441 0.0
C468 C 0.09588 0.40611 0.3041 0.0
C469 C 0.14121 0.41151 0.31831 0.0
C470 C 0.93148 0.4261 0.2977 0.0
C471 C 0.92665 0.41617 0.24786 0.0
C472 C 0.97507 0.42889 0.31979 0.0
C473 C 0.01465 0.42186 0.29246 0.0
C474 C 0.00964 0.41157 0.2429 0.0
C475 C 0.96618 0.40867 0.22093 0.0
H476 H 0.34671 0.64455 0.83739 0.0
H477 H 0.3634 0.55358 0.84107 0.0
H478 H 0.42612 0.65013 0.81128 0.0
H479 H 0.44379 0.55939 0.81494 0.0
H480 H 0.5976 0.58725 0.80634 0.0
H481 H 0.52118 0.58152 0.84274 0.0
H482 H 0.465 0.63715 0.72944 0.0
H483 H 0.54129 0.64291 0.6928 0.0
C484 C 0.36749 0.6257 0.83309 0.0
C485 C 0.34853 0.59854 0.84054 0.0
C486 C 0.41294 0.62896 0.81797 0.0
C487 C 0.44075 0.6052 0.81027 0.0
C488 C 0.42291 0.57807 0.82061 0.0
C489 C 0.37703 0.57474 0.8356 0.0
C490 C 0.56904 0.59853 0.78948 0.0
C491 C 0.57554 0.61575 0.74686 0.0
C492 C 0.5253 0.595 0.81011 0.0
C493 C 0.48732 0.6089 0.78895 0.0
C494 C 0.49387 0.62642 0.74681 0.0
C495 C 0.53749 0.62969 0.7258 0.0
H496 H 0.58462 0.90027 0.77752 0.0
H497 H 0.53352 0.94543 0.64757 0.0
H498 H 0.51141 0.90794 0.82003 0.0
H499 H 0.46054 0.9531 0.69015 0.0
H500 H 0.35158 0.98514 0.79957 0.0
H501 H 0.4294 0.98004 0.76545 0.0
H502 H 0.42961 0.8919 0.80855 0.0
H503 H 0.35225 0.89696 0.84232 0.0
C504 C 0.55775 0.91166 0.75783 0.0
C505 C 0.56495 0.92205 0.70888 0.0
C506 C 0.51584 0.9161 0.78227 0.0
C507 C 0.48038 0.93135 0.75862 0.0
C508 C 0.48747 0.94165 0.70967 0.0
C509 C 0.52914 0.93693 0.685 0.0
C510 C 0.36877 0.9649 0.80279 0.0
C511 C 0.34592 0.94145 0.82358 0.0
C512 C 0.41303 0.96188 0.78276 0.0
C513 C 0.43541 0.93549 0.78394 0.0
C514 C 0.41342 0.91251 0.80727 0.0
C515 C 0.36909 0.91542 0.82654 0.0
H516 H 0.12796 0.09776 0.40228 0.0
H517 H 0.16927 0.09465 0.24631 0.0
H518 H 0.0485 0.10707 0.37551 0.0
H519 H 0.09069 0.10285 0.21972 0.0
H520 H 0.95796 0.14348 0.1815 0.0
H521 H 0.03531 0.13957 0.21678 0.0
H522 H 0.98339 0.08532 0.3346 0.0
H523 H 0.90607 0.09016 0.30067 0.0
C524 C 0.11989 0.09869 0.36242 0.0
C525 C 0.15469 0.09573 0.32641 0.0
C526 C 0.07456 0.10406 0.34703 0.0
C527 C 0.06341 0.10623 0.29543 0.0
C528 C 0.09821 0.10227 0.25972 0.0
C529 C 0.14325 0.09727 0.275 0.0
C530 C 0.96302 0.13108 0.21533 0.0
C531 C 0.92599 0.117 0.23804 0.0
C532 C 0.00735 0.12865 0.23539 0.0
C533 C 0.01564 0.11176 0.27812 0.0
C534 C 0.97824 0.09868 0.30198 0.0
C535 C 0.93389 0.10136 0.28227 0.0
H536 H 0.09848 0.59559 0.72815 0.0
H537 H 0.04347 0.64501 0.85121 0.0
H538 H 0.02167 0.59129 0.69153 0.0
H539 H 0.96663 0.64057 0.81438 0.0
H540 H 0.84301 0.64873 0.71227 0.0
H541 H 0.9228 0.65569 0.73732 0.0
H542 H 0.94807 0.56631 0.71693 0.0
H543 H 0.86768 0.55913 0.69166 0.0
C544 C 0.07013 0.60585 0.74709 0.0
C545 C 0.07708 0.62073 0.79261 0.0
C546 C 0.02615 0.60316 0.72623 0.0
C547 C 0.98833 0.61551 0.75019 0.0
C548 C 0.99536 0.63106 0.79489 0.0
C549 C 0.03931 0.63357 0.81601 0.0
C550 C 0.86555 0.63051 0.71267 0.0
C551 C 0.84883 0.60325 0.70068 0.0
C552 C 0.91121 0.63456 0.72719 0.0
C553 C 0.94132 0.61151 0.72972 0.0
C554 C 0.92547 0.58446 0.71515 0.0
C555 C 0.87951 0.58035 0.70075 0.0
H556 H 0.40221 0.42503 0.23911 0.0
H557 H 0.4689 0.40769 0.38164 0.0
H558 H 0.47753 0.42888 0.1988 0.0
H559 H 0.54394 0.41111 0.34099 0.0
H560 H 0.66256 0.3868 0.23763 0.0
H561 H 0.58485 0.3818 0.26935 0.0
H562 H 0.55036 0.46419 0.21079 0.0
H563 H 0.62919 0.46976 0.17933 0.0
C564 C 0.43289 0.42162 0.26165 0.0
C565 C 0.42968 0.41581 0.3135 0.0
C566 C 0.47587 0.42412 0.23864 0.0
C567 C 0.5163 0.4203 0.26685 0.0
C568 C 0.51313 0.41398 0.31841 0.0
C569 C 0.47026 0.41202 0.34163 0.0
C570 C 0.63857 0.40389 0.23094 0.0
C571 C 0.65243 0.42891 0.20637 0.0
C572 C 0.59405 0.40096 0.24934 0.0
C573 C 0.56198 0.42271 0.24298 0.0
C574 C 0.57468 0.44712 0.21611 0.0
C575 C 0.61971 0.4503 0.19819 0.0
H576 H 0.22779 0.19372 0.32099 0.0
H577 H 0.33868 0.20074 0.42964 0.0
H578 H 0.21877 0.24535 0.32298 0.0
H579 H 0.33102 0.25158 0.43014 0.0
H580 H 0.29248 0.34028 0.45622 0.0
H581 H 0.28548 0.28897 0.45742 0.0
H582 H 0.25478 0.28886 0.29785 0.0
H583 H 0.25957 0.34064 0.29747 0.0
C584 C 0.25015 0.20619 0.34529 0.0
C585 C 0.28383 0.19293 0.37526 0.0
C586 C 0.24518 0.23582 0.34624 0.0
C587 C 0.27388 0.25284 0.37705 0.0
C588 C 0.30736 0.23938 0.40692 0.0
C589 C 0.31204 0.21 0.40629 0.0
C590 C 0.2836 0.32934 0.42152 0.0
C591 C 0.27712 0.34451 0.37666 0.0
C592 C 0.27992 0.29982 0.42205 0.0
C593 C 0.27066 0.2845 0.37746 0.0
C594 C 0.2618 0.29982 0.33299 0.0
C595 C 0.2647 0.32953 0.33268 0.0
H596 H 0.25749 0.84065 0.81125 0.0
H597 H 0.18274 0.84091 0.95117 0.0
H598 H 0.26469 0.78938 0.81589 0.0
H599 H 0.18759 0.78937 0.95469 0.0
H600 H 0.22215 0.69549 0.96194 0.0
H601 H 0.22944 0.74715 0.96505 0.0
H602 H 0.21864 0.75001 0.80262 0.0
H603 H 0.21363 0.69894 0.79958 0.0
C604 C 0.24263 0.8297 0.8431 0.0
C605 C 0.21925 0.84485 0.88059 0.0
C606 C 0.24637 0.80019 0.84562 0.0
C607 C 0.22593 0.78486 0.88517 0.0
C608 C 0.20415 0.80023 0.92383 0.0
C609 C 0.20116 0.82988 0.92174 0.0
C610 C 0.22189 0.70722 0.92695 0.0
C611 C 0.21731 0.69294 0.88055 0.0
C612 C 0.22575 0.73691 0.92869 0.0
C613 C 0.22474 0.75307 0.88408 0.0
C614 C 0.22069 0.73857 0.83783 0.0
C615 C 0.21738 0.70905 0.83608 0.0
H616 H 0.82162 0.19329 0.07955 0.0
H617 H 0.7489 0.19256 0.22079 0.0
H618 H 0.81876 0.24496 0.0786 0.0
H619 H 0.74379 0.24397 0.2188 0.0
H620 H 0.7977 0.33352 0.23788 0.0
H621 H 0.79224 0.28245 0.2328 0.0
H622 H 0.77695 0.28756 0.07096 0.0
H623 H 0.78459 0.33913 0.07605 0.0
C624 C 0.80412 0.20416 0.10984 0.0
C625 C 0.78599 0.18887 0.15058 0.0
C626 C 0.80229 0.23385 0.10925 0.0
C627 C 0.78166 0.24891 0.14903 0.0
C628 C 0.76123 0.23333 0.18824 0.0
C629 C 0.7638 0.20377 0.18924 0.0
C630 C 0.79293 0.32387 0.20112 0.0
C631 C 0.7917 0.34054 0.15735 0.0
C632 C 0.78938 0.2944 0.1982 0.0
C633 C 0.78379 0.28059 0.15147 0.0
C634 C 0.7818 0.2973 0.1076 0.0
C635 C 0.7859 0.32692 0.1105 0.0
H636 H 0.662 0.83605 0.59028 0.0
H637 H 0.76278 0.84195 0.71038 0.0
H638 H 0.66846 0.7849 0.59056 0.0
H639 H 0.77023 0.79036 0.70966 0.0
H640 H 0.71979 0.69864 0.73878 0.0
H641 H 0.72543 0.7499 0.73395 0.0
H642 H 0.71574 0.74509 0.57164 0.0
H643 H 0.70867 0.69361 0.57657 0.0
C644 C 0.68604 0.82648 0.61643 0.0
C645 C 0.71155 0.84322 0.65069 0.0
C646 C 0.69004 0.79701 0.61624 0.0
C647 C 0.71984 0.78336 0.65013 0.0
C648 C 0.74644 0.80012 0.68347 0.0
C649 C 0.74235 0.82972 0.68376 0.0
C650 C 0.71915 0.70842 0.70194 0.0
C651 C 0.71315 0.69194 0.65807 0.0
C652 C 0.7228 0.73792 0.69918 0.0
C653 C 0.72078 0.75177 0.65245 0.0
C654 C 0.71661 0.7352 0.60837 0.0
C655 C 0.71278 0.70564 0.61114 0.0
loop_
_geom_bond_atom_site_label_1
_geom_bond_atom_site_label_2
_geom_bond_distance
_geom_bond_site_symmetry_2
_ccdc_geom_bond_type
Fe0 O2 1.918 . S
Fe0 O5 1.997 . S
Fe0 O6 2.002 . S
Fe0 O11 1.976 . S
Fe0 O14 1.996 . S
Fe1 O2 1.918 . S
Fe1 O9 1.997 . S
Fe1 O12 1.996 . S
Fe1 O16 1.976 . S
Fe1 O19 2.002 . S
O2 Fe0 1.918 . S
O2 Fe1 1.918 . S
O2 Fe3 1.918 . S
Fe3 O2 1.918 . S
Fe3 O4 2.002 . S
Fe3 O13 1.976 . S
Fe3 O17 1.996 . S
Fe3 O20 1.997 . S
O4 Fe3 2.002 . S
O4 C21 1.295 . S
O5 Fe0 1.997 . S
O5 C21 1.235 . S
O6 Fe0 2.002 . S
O6 C7 1.295 . S
C7 O6 1.295 . S
C7 O9 1.235 . S
C8 O13 1.287 . S
C8 O14 1.255 . S
O9 Fe1 1.997 . S
O9 C7 1.235 . S
C10 O16 1.287 . S
C10 O17 1.255 . S
O11 Fe0 1.976 . S
O11 C18 1.287 . S
O12 Fe1 1.996 . S
O12 C18 1.255 . S
O13 Fe3 1.976 . S
O13 C8 1.287 . S
O14 Fe0 1.996 . S
O14 C8 1.255 . S
C15 O19 1.295 . S
C15 O20 1.235 . S
O16 Fe1 1.976 . S
O16 C10 1.287 . S
O17 Fe3 1.996 . S
O17 C10 1.255 . S
C18 O11 1.287 . S
C18 O12 1.255 . S
O19 Fe1 2.002 . S
O19 C15 1.295 . S
O20 Fe3 1.997 . S
O20 C15 1.235 . S
C21 O4 1.295 . S
C21 O5 1.235 . S
Fe22 O24 1.918 . S
Fe22 O27 1.997 . S
Fe22 O28 2.002 . S
Fe22 O33 1.976 . S
Fe22 O36 1.996 . S
Fe23 O24 1.918 . S
Fe23 O31 1.997 . S
Fe23 O34 1.996 . S
Fe23 O38 1.976 . S
Fe23 O41 2.002 . S
O24 Fe22 1.918 . S
O24 Fe23 1.918 . S
O24 Fe25 1.918 . S
Fe25 O24 1.918 . S
Fe25 O26 2.002 . S
Fe25 O35 1.976 . S
Fe25 O39 1.996 . S
Fe25 O42 1.997 . S
O26 Fe25 2.002 . S
O26 C43 1.295 . S
O27 Fe22 1.997 . S
O27 C43 1.235 . S
O28 Fe22 2.002 . S
O28 C29 1.295 . S
C29 O28 1.295 . S
C29 O31 1.235 . S
C30 O35 1.287 . S
C30 O36 1.255 . S
O31 Fe23 1.997 . S
O31 C29 1.235 . S
C32 O38 1.287 . S
C32 O39 1.255 . S
O33 Fe22 1.976 . S
O33 C40 1.287 . S
O34 Fe23 1.996 . S
O34 C40 1.255 . S
O35 Fe25 1.976 . S
O35 C30 1.287 . S
O36 Fe22 1.996 . S
O36 C30 1.255 . S
C37 O41 1.295 . S
C37 O42 1.235 . S
O38 Fe23 1.976 . S
O38 C32 1.287 . S
O39 Fe25 1.996 . S
O39 C32 1.255 . S
C40 O33 1.287 . S
C40 O34 1.255 . S
O41 Fe23 2.002 . S
O41 C37 1.295 . S
O42 Fe25 1.997 . S
O42 C37 1.235 . S
C43 O26 1.295 . S
C43 O27 1.235 . S
Fe44 O46 1.918 . S
Fe44 O49 1.997 . S
Fe44 O50 2.002 . S
Fe44 O55 1.976 . S
Fe44 O58 1.996 . S
Fe45 O46 1.918 . S
Fe45 O53 1.997 . S
Fe45 O56 1.996 . S
Fe45 O60 1.976 . S
Fe45 O63 2.002 . S
O46 Fe44 1.918 . S
O46 Fe45 1.918 . S
O46 Fe47 1.918 . S
Fe47 O46 1.918 . S
Fe47 O48 2.002 . S
Fe47 O57 1.976 . S
Fe47 O61 1.996 . S
Fe47 O64 1.997 . S
O48 Fe47 2.002 . S
O48 C65 1.295 . S
O49 Fe44 1.997 . S
O49 C65 1.235 . S
O50 Fe44 2.002 . S
O50 C51 1.295 . S
C51 O50 1.295 . S
C51 O53 1.235 . S
C52 O57 1.287 . S
C52 O58 1.255 . S
O53 Fe45 1.997 . S
O53 C51 1.235 . S
C54 O60 1.287 . S
C54 O61 1.255 . S
O55 Fe44 1.976 . S
O55 C62 1.287 . S
O56 Fe45 1.996 . S
O56 C62 1.255 . S
O57 Fe47 1.976 . S
O57 C52 1.287 . S
O58 Fe44 1.996 . S
O58 C52 1.255 . S
C59 O63 1.295 . S
C59 O64 1.235 . S
O60 Fe45 1.976 . S
O60 C54 1.287 . S
O61 Fe47 1.996 . S
O61 C54 1.255 . S
C62 O55 1.287 . S
C62 O56 1.255 . S
O63 Fe45 2.002 . S
O63 C59 1.295 . S
O64 Fe47 1.997 . S
O64 C59 1.235 . S
C65 O48 1.295 . S
C65 O49 1.235 . S
Fe66 O68 1.918 . S
Fe66 O71 1.997 . S
Fe66 O72 2.002 . S
Fe66 O77 1.976 . S
Fe66 O80 1.996 . S
Fe67 O68 1.918 . S
Fe67 O75 1.997 . S
Fe67 O78 1.996 . S
Fe67 O82 1.976 . S
Fe67 O85 2.002 . S
O68 Fe66 1.918 . S
O68 Fe67 1.918 . S
O68 Fe69 1.918 . S
Fe69 O68 1.918 . S
Fe69 O70 2.002 . S
Fe69 O79 1.976 . S
Fe69 O83 1.996 . S
Fe69 O86 1.997 . S
O70 Fe69 2.002 . S
O70 C87 1.295 . S
O71 Fe66 1.997 . S
O71 C87 1.235 . S
O72 Fe66 2.002 . S
O72 C73 1.295 . S
C73 O72 1.295 . S
C73 O75 1.235 . S
C74 O79 1.287 . S
C74 O80 1.255 . S
O75 Fe67 1.997 . S
O75 C73 1.235 . S
C76 O82 1.287 . S
C76 O83 1.255 . S
O77 Fe66 1.976 . S
O77 C84 1.287 . S
O78 Fe67 1.996 . S
O78 C84 1.255 . S
O79 Fe69 1.976 . S
O79 C74 1.287 . S
O80 Fe66 1.996 . S
O80 C74 1.255 . S
C81 O85 1.295 . S
C81 O86 1.235 . S
O82 Fe67 1.976 . S
O82 C76 1.287 . S
O83 Fe69 1.996 . S
O83 C76 1.255 . S
C84 O77 1.287 . S
C84 O78 1.255 . S
O85 Fe67 2.002 . S
O85 C81 1.295 . S
O86 Fe69 1.997 . S
O86 C81 1.235 . S
C87 O70 1.295 . S
C87 O71 1.235 . S
Fe88 O90 1.918 . S
Fe88 O93 1.997 . S
Fe88 O94 2.002 . S
Fe88 O99 1.976 . S
Fe88 O102 1.996 . S
Fe89 O90 1.918 . S
Fe89 O97 1.997 . S
Fe89 O100 1.996 . S
Fe89 O104 1.976 . S
Fe89 O107 2.002 . S
O90 Fe88 1.918 . S
O90 Fe89 1.918 . S
O90 Fe91 1.918 . S
Fe91 O90 1.918 . S
Fe91 O92 2.002 . S
Fe91 O101 1.976 . S
Fe91 O105 1.996 . S
Fe91 O108 1.997 . S
O92 Fe91 2.002 . S
O92 C109 1.295 . S
O93 Fe88 1.997 . S
O93 C109 1.235 . S
O94 Fe88 2.002 . S
O94 C95 1.295 . S
C95 O94 1.295 . S
C95 O97 1.235 . S
C96 O101 1.287 . S
C96 O102 1.255 . S
O97 Fe89 1.997 . S
O97 C95 1.235 . S
C98 O104 1.287 . S
C98 O105 1.255 . S
O99 Fe88 1.976 . S
O99 C106 1.287 . S
O100 Fe89 1.996 . S
O100 C106 1.255 . S
O101 Fe91 1.976 . S
O101 C96 1.287 . S
O102 Fe88 1.996 . S
O102 C96 1.255 . S
C103 O107 1.295 . S
C103 O108 1.235 . S
O104 Fe89 1.976 . S
O104 C98 1.287 . S
O105 Fe91 1.996 . S
O105 C98 1.255 . S
C106 O99 1.287 . S
C106 O100 1.255 . S
O107 Fe89 2.002 . S
O107 C103 1.295 . S
O108 Fe91 1.997 . S
O108 C103 1.235 . S
C109 O92 1.295 . S
C109 O93 1.235 . S
Fe110 O112 1.918 . S
Fe110 O115 1.997 . S
Fe110 O116 2.002 . S
Fe110 O121 1.976 . S
Fe110 O124 1.996 . S
Fe111 O112 1.918 . S
Fe111 O119 1.997 . S
Fe111 O122 1.996 . S
Fe111 O126 1.976 . S
Fe111 O129 2.002 . S
O112 Fe110 1.918 . S
O112 Fe111 1.918 . S
O112 Fe113 1.918 . S
Fe113 O112 1.918 . S
Fe113 O114 2.002 . S
Fe113 O123 1.976 . S
Fe113 O127 1.996 . S
Fe113 O130 1.997 . S
O114 Fe113 2.002 . S
O114 C131 1.295 . S
O115 Fe110 1.997 . S
O115 C131 1.235 . S
O116 Fe110 2.002 . S
O116 C117 1.295 . S
C117 O116 1.295 . S
C117 O119 1.235 . S
C118 O123 1.287 . S
C118 O124 1.255 . S
O119 Fe111 1.997 . S
O119 C117 1.235 . S
C120 O126 1.287 . S
C120 O127 1.255 . S
O121 Fe110 1.976 . S
O121 C128 1.287 . S
O122 Fe111 1.996 . S
O122 C128 1.255 . S
O123 Fe113 1.976 . S
O123 C118 1.287 . S
O124 Fe110 1.996 . S
O124 C118 1.255 . S
C125 O129 1.295 . S
C125 O130 1.235 . S
O126 Fe111 1.976 . S
O126 C120 1.287 . S
O127 Fe113 1.996 . S
O127 C120 1.255 . S
C128 O121 1.287 . S
C128 O122 1.255 . S
O129 Fe111 2.002 . S
O129 C125 1.295 . S
O130 Fe113 1.997 . S
O130 C125 1.235 . S
C131 O114 1.295 . S
C131 O115 1.235 . S
Fe132 O134 1.918 . S
Fe132 O137 1.997 . S
Fe132 O138 2.002 . S
Fe132 O143 1.976 . S
Fe132 O146 1.996 . S
Fe133 O134 1.918 . S
Fe133 O141 1.997 . S
Fe133 O144 1.996 . S
Fe133 O148 1.976 . S
Fe133 O151 2.002 . S
O134 Fe132 1.918 . S
O134 Fe133 1.918 . S
O134 Fe135 1.918 . S
Fe135 O134 1.918 . S
Fe135 O136 2.002 . S
Fe135 O145 1.976 . S
Fe135 O149 1.996 . S
Fe135 O152 1.997 . S
O136 Fe135 2.002 . S
O136 C153 1.295 . S
O137 Fe132 1.997 . S
O137 C153 1.235 . S
O138 Fe132 2.002 . S
O138 C139 1.295 . S
C139 O138 1.295 . S
C139 O141 1.235 . S
C140 O145 1.287 . S
C140 O146 1.255 . S
O141 Fe133 1.997 . S
O141 C139 1.235 . S
C142 O148 1.287 . S
C142 O149 1.255 . S
O143 Fe132 1.976 . S
O143 C150 1.287 . S
O144 Fe133 1.996 . S
O144 C150 1.255 . S
O145 Fe135 1.976 . S
O145 C140 1.287 . S
O146 Fe132 1.996 . S
O146 C140 1.255 . S
C147 O151 1.295 . S
C147 O152 1.235 . S
O148 Fe133 1.976 . S
O148 C142 1.287 . S
O149 Fe135 1.996 . S
O149 C142 1.255 . S
C150 O143 1.287 . S
C150 O144 1.255 . S
O151 Fe133 2.002 . S
O151 C147 1.295 . S
O152 Fe135 1.997 . S
O152 C147 1.235 . S
C153 O136 1.295 . S
C153 O137 1.235 . S
Fe154 O156 1.918 . S
Fe154 O159 1.997 . S
Fe154 O160 2.002 . S
Fe154 O165 1.976 . S
Fe154 O168 1.996 . S
Fe155 O156 1.918 . S
Fe155 O163 1.997 . S
Fe155 O166 1.996 . S
Fe155 O170 1.976 . S
Fe155 O173 2.002 . S
O156 Fe154 1.918 . S
O156 Fe155 1.918 . S
O156 Fe157 1.918 . S
Fe157 O156 1.918 . S
Fe157 O158 2.002 . S
Fe157 O167 1.976 . S
Fe157 O171 1.996 . S
Fe157 O174 1.997 . S
O158 Fe157 2.002 . S
O158 C175 1.295 . S
O159 Fe154 1.997 . S
O159 C175 1.235 . S
O160 Fe154 2.002 . S
O160 C161 1.295 . S
C161 O160 1.295 . S
C161 O163 1.235 . S
C162 O167 1.287 . S
C162 O168 1.255 . S
O163 Fe155 1.997 . S
O163 C161 1.235 . S
C164 O170 1.287 . S
C164 O171 1.255 . S
O165 Fe154 1.976 . S
O165 C172 1.287 . S
O166 Fe155 1.996 . S
O166 C172 1.255 . S
O167 Fe157 1.976 . S
O167 C162 1.287 . S
O168 Fe154 1.996 . S
O168 C162 1.255 . S
C169 O173 1.295 . S
C169 O174 1.235 . S
O170 Fe155 1.976 . S
O170 C164 1.287 . S
O171 Fe157 1.996 . S
O171 C164 1.255 . S
C172 O165 1.287 . S
C172 O166 1.255 . S
O173 Fe155 2.002 . S
O173 C169 1.295 . S
O174 Fe157 1.997 . S
O174 C169 1.235 . S
C175 O158 1.295 . S
C175 O159 1.235 . S
H176 C184 0.950 . S
H177 C189 0.950 . S
H178 C186 0.950 . S
H179 C188 0.950 . S
H180 C190 0.950 . S
H181 C192 0.950 . S
H182 C194 0.950 . S
H183 C195 0.950 . S
C184 H176 0.950 . S
C184 C185 1.386 1_545 S
C184 C186 1.391 . S
C185 C184 1.386 1_565 S
C185 C189 1.393 . S
C186 H178 0.950 . S
C186 C184 1.391 . S
C186 C187 1.400 1_545 S
C187 C186 1.400 1_565 S
C187 C188 1.398 . S
C187 C193 1.491 1_565 S
C188 H179 0.950 . S
C188 C187 1.398 . S
C188 C189 1.391 . S
C189 H177 0.950 . S
C189 C185 1.393 . S
C189 C188 1.391 . S
C190 H180 0.950 . S
C190 C191 1.386 1_565 S
C190 C192 1.391 . S
C191 C190 1.386 1_545 S
C191 C195 1.393 . S
C192 H181 0.950 . S
C192 C190 1.391 . S
C192 C193 1.400 1_565 S
C193 C187 1.491 1_545 S
C193 C192 1.400 1_545 S
C193 C194 1.398 . S
C194 H182 0.950 . S
C194 C193 1.398 . S
C194 C195 1.391 . S
C195 H183 0.950 . S
C195 C191 1.393 . S
C195 C194 1.391 . S
H196 C204 0.950 . S
H197 C209 0.950 . S
H198 C206 0.950 . S
H199 C208 0.950 . S
H200 C210 0.950 . S
H201 C212 0.950 . S
H202 C214 0.950 . S
H203 C215 0.950 . S
C204 H196 0.950 . S
C204 C205 1.386 . S
C204 C206 1.391 . S
C205 C204 1.386 . S
C205 C209 1.393 1_545 S
C206 H198 0.950 . S
C206 C204 1.391 . S
C206 C207 1.400 . S
C207 C206 1.400 . S
C207 C208 1.398 1_545 S
C207 C213 1.491 1_644 S
C208 H199 0.950 . S
C208 C207 1.398 1_565 S
C208 C209 1.391 . S
C209 H197 0.950 . S
C209 C205 1.393 1_565 S
C209 C208 1.391 . S
C210 H200 0.950 . S
C210 C211 1.386 . S
C210 C212 1.391 . S
C211 C210 1.386 . S
C211 C215 1.393 1_565 S
C212 H201 0.950 . S
C212 C210 1.391 . S
C212 C213 1.400 . S
C213 C207 1.491 1_466 S
C213 C212 1.400 . S
C213 C214 1.398 1_565 S
C214 H202 0.950 . S
C214 C213 1.398 1_545 S
C214 C215 1.391 . S
C215 H203 0.950 . S
C215 C211 1.393 1_545 S
C215 C214 1.391 . S
H216 C224 0.950 1_554 S
H217 C229 0.950 . S
H218 C226 0.950 . S
H219 C228 0.950 1_655 S
H220 C230 0.957 . S
H221 C232 0.950 . S
H222 C234 0.950 1_455 S
H223 C235 0.950 . S
C224 H216 0.950 1_556 S
C224 C225 1.386 . S
C224 C226 1.391 1_556 S
C225 C224 1.386 . S
C225 C229 1.393 . S
C226 H218 0.950 . S
C226 C224 1.391 1_554 S
C226 C227 1.400 1_554 S
C227 C226 1.400 1_556 S
C227 C228 1.398 . S
C227 C233 1.491 1_456 S
C228 H219 0.950 1_455 S
C228 C227 1.398 . S
C228 C229 1.391 . S
C229 H217 0.950 . S
C229 C225 1.393 . S
C229 C228 1.391 . S
C230 H220 0.957 . S
C230 C231 1.386 . S
C230 C232 1.391 1_554 S
C231 C230 1.386 . S
C231 C235 1.393 . S
C232 H221 0.950 . S
C232 C230 1.391 1_556 S
C232 C233 1.400 1_556 S
C233 C227 1.491 1_654 S
C233 C232 1.400 1_554 S
C233 C234 1.398 . S
C234 H222 0.950 1_655 S
C234 C233 1.398 . S
C234 C235 1.391 . S
C235 H223 0.950 . S
C235 C231 1.393 . S
C235 C234 1.391 . S
H236 C244 0.950 . S
H237 C249 0.950 . S
H238 C246 0.950 . S
H239 C248 0.950 . S
H240 C250 0.950 . S
H241 C252 0.950 . S
H242 C254 0.950 . S
H243 C255 0.950 . S
C244 H236 0.950 . S
C244 C245 1.386 . S
C244 C246 1.391 . S
C245 C244 1.386 . S
C245 C249 1.393 . S
C246 H238 0.950 . S
C246 C244 1.391 . S
C246 C247 1.400 . S
C247 C246 1.400 . S
C247 C248 1.398 . S
C247 C253 1.491 . S
C248 H239 0.950 . S
C248 C247 1.398 . S
C248 C249 1.391 . S
C249 H237 0.950 . S
C249 C245 1.393 . S
C249 C248 1.391 . S
C250 H240 0.950 . S
C250 C251 1.386 . S
C250 C252 1.391 . S
C251 C250 1.386 . S
C251 C255 1.393 . S
C252 H241 0.950 . S
C252 C250 1.391 . S
C252 C253 1.400 . S
C253 C247 1.491 . S
C253 C252 1.400 . S
C253 C254 1.398 . S
C254 H242 0.950 . S
C254 C253 1.398 . S
C254 C255 1.391 . S
C255 H243 0.950 . S
C255 C251 1.393 . S
C255 C254 1.391 . S
H256 C264 0.954 . S
H257 C269 0.950 . S
H258 C266 0.950 . S
H259 C268 0.950 . S
H260 C270 0.950 1_556 S
H261 C272 0.950 . S
H262 C274 0.950 . S
H263 C275 0.950 . S
C264 H256 0.954 . S
C264 C265 1.372 1_565 S
C264 C266 1.400 . S
C265 C264 1.372 1_545 S
C265 C269 1.393 . S
C266 H258 0.950 . S
C266 C264 1.400 . S
C266 C267 1.400 . S
C267 C266 1.400 . S
C267 C268 1.398 1_565 S
C267 C273 1.491 . S
C268 H259 0.950 . S
C268 C267 1.398 1_545 S
C268 C269 1.391 . S
C269 H257 0.950 . S
C269 C265 1.393 . S
C269 C268 1.391 . S
C270 H260 0.950 1_554 S
C270 C271 1.386 . S
C270 C272 1.391 . S
C271 C270 1.386 . S
C271 C275 1.393 . S
C272 H261 0.950 . S
C272 C270 1.391 . S
C272 C273 1.400 . S
C273 C267 1.491 . S
C273 C272 1.400 . S
C273 C274 1.398 . S
C274 H262 0.950 . S
C274 C273 1.398 . S
C274 C275 1.391 . S
C275 H263 0.950 . S
C275 C271 1.393 . S
C275 C274 1.391 . S
H276 C284 0.950 . S
H277 C289 0.950 . S
H278 C286 0.950 . S
H279 C288 0.950 . S
H280 C290 0.950 . S
H281 C292 0.950 . S
H282 C294 0.950 1_565 S
H283 C295 0.950 . S
C284 H276 0.950 . S
C284 C285 1.386 . S
C284 C286 1.391 . S
C285 C284 1.386 . S
C285 C289 1.393 1_565 S
C286 H278 0.950 . S
C286 C284 1.391 . S
C286 C287 1.400 1_565 S
C287 C286 1.400 1_545 S
C287 C288 1.398 . S
C287 C293 1.491 . S
C288 H279 0.950 . S
C288 C287 1.398 . S
C288 C289 1.391 . S
C289 H277 0.950 . S
C289 C285 1.393 1_545 S
C289 C288 1.391 . S
C290 H280 0.950 . S
C290 C291 1.386 . S
C290 C292 1.391 . S
C291 C290 1.386 . S
C291 C295 1.393 . S
C292 H281 0.950 . S
C292 C290 1.391 . S
C292 C293 1.400 . S
C293 C287 1.491 . S
C293 C292 1.400 . S
C293 C294 1.398 . S
C294 H282 0.950 1_545 S
C294 C293 1.398 . S
C294 C295 1.391 . S
C295 H283 0.950 . S
C295 C291 1.393 . S
C295 C294 1.391 . S
H296 C304 0.950 . S
H297 C309 0.950 . S
H298 C306 0.950 . S
H299 C308 0.950 . S
H300 C310 0.950 . S
H301 C312 0.950 . S
H302 C314 0.950 . S
H303 C315 0.950 . S
C304 H296 0.950 . S
C304 C305 1.386 . S
C304 C306 1.391 . S
C305 C304 1.386 . S
C305 C309 1.393 . S
C306 H298 0.950 . S
C306 C304 1.391 . S
C306 C307 1.400 . S
C307 C306 1.400 . S
C307 C308 1.398 . S
C307 C313 1.491 . S
C308 H299 0.950 . S
C308 C307 1.398 . S
C308 C309 1.391 . S
C309 H297 0.950 . S
C309 C305 1.393 . S
C309 C308 1.391 . S
C310 H300 0.950 . S
C310 C311 1.386 . S
C310 C312 1.391 . S
C311 C310 1.386 . S
C311 C315 1.393 . S
C312 H301 0.950 . S
C312 C310 1.391 . S
C312 C313 1.400 . S
C313 C307 1.491 . S
C313 C312 1.400 . S
C313 C314 1.398 . S
C314 H302 0.950 . S
C314 C313 1.398 . S
C314 C315 1.391 . S
C315 H303 0.950 . S
C315 C311 1.393 . S
C315 C314 1.391 . S
H316 C324 0.950 . S
H317 C329 0.950 . S
H318 C326 0.950 . S
H319 C328 0.950 . S
H320 C330 0.950 . S
H321 C332 0.950 . S
H322 C334 0.950 . S
H323 C335 0.950 . S
C324 H316 0.950 . S
C324 C325 1.386 . S
C324 C326 1.391 . S
C325 C324 1.386 . S
C325 C329 1.393 . S
C326 H318 0.950 . S
C326 C324 1.391 . S
C326 C327 1.400 . S
C327 C326 1.400 . S
C327 C328 1.398 . S
C327 C333 1.491 . S
C328 H319 0.950 . S
C328 C327 1.398 . S
C328 C329 1.391 . S
C329 H317 0.950 . S
C329 C325 1.393 . S
C329 C328 1.391 . S
C330 H320 0.950 . S
C330 C331 1.386 . S
C330 C332 1.391 . S
C331 C330 1.386 . S
C331 C335 1.393 . S
C332 H321 0.950 . S
C332 C330 1.391 . S
C332 C333 1.400 . S
C333 C327 1.491 . S
C333 C332 1.400 . S
C333 C334 1.398 . S
C334 H322 0.950 . S
C334 C333 1.398 . S
C334 C335 1.391 . S
C335 H323 0.950 . S
C335 C331 1.393 . S
C335 C334 1.391 . S
H336 C344 0.950 . S
H337 C349 0.950 . S
H338 C346 0.950 . S
H339 C348 0.950 . S
H340 C350 0.950 . S
H341 C352 0.950 . S
H342 C354 0.950 . S
H343 C355 0.950 . S
C344 H336 0.950 . S
C344 C345 1.386 . S
C344 C346 1.391 . S
C345 C344 1.386 . S
C345 C349 1.393 . S
C346 H338 0.950 . S
C346 C344 1.391 . S
C346 C347 1.400 . S
C347 C346 1.400 . S
C347 C348 1.398 . S
C347 C353 1.491 . S
C348 H339 0.950 . S
C348 C347 1.398 . S
C348 C349 1.391 . S
C349 H337 0.950 . S
C349 C345 1.393 . S
C349 C348 1.391 . S
C350 H340 0.950 . S
C350 C351 1.386 . S
C350 C352 1.391 1_565 S
C351 C350 1.386 . S
C351 C355 1.393 . S
C352 H341 0.950 . S
C352 C350 1.391 1_545 S
C352 C353 1.400 . S
C353 C347 1.491 . S
C353 C352 1.400 . S
C353 C354 1.398 1_545 S
C354 H342 0.950 . S
C354 C353 1.398 1_565 S
C354 C355 1.391 . S
C355 H343 0.950 . S
C355 C351 1.393 . S
C355 C354 1.391 . S
H356 C364 0.950 . S
H357 C369 0.950 . S
H358 C366 0.950 . S
H359 C368 0.950 1_545 S
H360 C370 0.950 . S
H361 C372 0.950 . S
H362 C374 0.950 . S
H363 C375 0.950 . S
C364 H356 0.950 . S
C364 C365 1.386 . S
C364 C366 1.391 . S
C365 C364 1.386 . S
C365 C369 1.393 . S
C366 H358 0.950 . S
C366 C364 1.391 . S
C366 C367 1.400 . S
C367 C366 1.400 . S
C367 C368 1.398 . S
C367 C373 1.491 . S
C368 H359 0.950 1_565 S
C368 C367 1.398 . S
C368 C369 1.391 . S
C369 H357 0.950 . S
C369 C365 1.393 . S
C369 C368 1.391 . S
C370 H360 0.950 . S
C370 C371 1.386 . S
C370 C372 1.391 . S
C371 C370 1.386 . S
C371 C375 1.393 1_545 S
C372 H361 0.950 . S
C372 C370 1.391 . S
C372 C373 1.400 1_545 S
C373 C367 1.491 . S
C373 C372 1.400 1_565 S
C373 C374 1.398 . S
C374 H362 0.950 . S
C374 C373 1.398 . S
C374 C375 1.391 . S
C375 H363 0.950 . S
C375 C371 1.393 1_565 S
C375 C374 1.391 . S
H376 C384 0.950 . S
H377 C389 0.950 . S
H378 C386 0.950 . S
H379 C388 0.950 . S
H380 C390 0.950 . S
H381 C392 0.950 . S
H382 C394 0.950 . S
H383 C395 0.950 . S
C384 H376 0.950 . S
C384 C385 1.386 . S
C384 C386 1.391 . S
C385 C384 1.386 . S
C385 C389 1.393 . S
C386 H378 0.950 . S
C386 C384 1.391 . S
C386 C387 1.400 . S
C387 C386 1.400 . S
C387 C388 1.398 . S
C387 C393 1.491 . S
C388 H379 0.950 . S
C388 C387 1.398 . S
C388 C389 1.391 . S
C389 H377 0.950 . S
C389 C385 1.393 . S
C389 C388 1.391 . S
C390 H380 0.950 . S
C390 C391 1.386 . S
C390 C392 1.391 . S
C391 C390 1.386 . S
C391 C395 1.393 . S
C392 H381 0.950 . S
C392 C390 1.391 . S
C392 C393 1.400 . S
C393 C387 1.491 . S
C393 C392 1.400 . S
C393 C394 1.398 . S
C394 H382 0.950 . S
C394 C393 1.398 . S
C394 C395 1.391 . S
C395 H383 0.950 . S
C395 C391 1.393 . S
C395 C394 1.391 . S
H396 C404 0.950 . S
H397 C409 0.950 . S
H398 C406 0.950 . S
H399 C408 0.950 . S
H400 C410 0.950 . S
H401 C412 0.950 . S
H402 C414 0.950 . S
H403 C415 0.950 . S
C404 H396 0.950 . S
C404 C405 1.386 . S
C404 C406 1.391 . S
C405 C404 1.386 . S
C405 C409 1.393 . S
C406 H398 0.950 . S
C406 C404 1.391 . S
C406 C407 1.400 . S
C407 C406 1.400 . S
C407 C408 1.398 . S
C407 C413 1.491 . S
C408 H399 0.950 . S
C408 C407 1.398 . S
C408 C409 1.391 . S
C409 H397 0.950 . S
C409 C405 1.393 . S
C409 C408 1.391 . S
C410 H400 0.950 . S
C410 C411 1.386 . S
C410 C412 1.391 . S
C411 C410 1.386 . S
C411 C415 1.393 . S
C412 H401 0.950 . S
C412 C410 1.391 . S
C412 C413 1.400 . S
C413 C407 1.491 . S
C413 C412 1.400 . S
C413 C414 1.398 . S
C414 H402 0.950 . S
C414 C413 1.398 . S
C414 C415 1.391 . S
C415 H403 0.950 . S
C415 C411 1.393 . S
C415 C414 1.391 . S
H416 C424 0.950 . S
H417 C429 0.950 . S
H418 C426 0.950 . S
H419 C428 0.950 . S
H420 C430 0.950 . S
H421 C432 0.950 . S
H422 C434 0.950 . S
H423 C435 0.950 . S
C424 H416 0.950 . S
C424 C425 1.386 . S
C424 C426 1.391 . S
C425 C424 1.386 . S
C425 C429 1.393 . S
C426 H418 0.950 . S
C426 C424 1.391 . S
C426 C427 1.400 . S
C427 C426 1.400 . S
C427 C428 1.398 . S
C427 C433 1.491 . S
C428 H419 0.950 . S
C428 C427 1.398 . S
C428 C429 1.391 . S
C429 H417 0.950 . S
C429 C425 1.393 . S
C429 C428 1.391 . S
C430 H420 0.950 . S
C430 C431 1.386 . S
C430 C432 1.391 . S
C431 C430 1.386 . S
C431 C435 1.393 . S
C432 H421 0.950 . S
C432 C430 1.391 . S
C432 C433 1.400 . S
C433 C427 1.491 . S
C433 C432 1.400 . S
C433 C434 1.398 . S
C434 H422 0.950 . S
C434 C433 1.398 . S
C434 C435 1.391 . S
C435 H423 0.950 . S
C435 C431 1.393 . S
C435 C434 1.391 . S
H436 C444 0.950 . S
H437 C449 0.950 . S
H438 C446 0.950 . S
H439 C448 0.950 . S
H440 C450 0.950 . S
H441 C452 0.950 . S
H442 C454 0.950 . S
H443 C455 0.950 . S
C444 H436 0.950 . S
C444 C445 1.386 . S
C444 C446 1.391 . S
C445 C444 1.386 . S
C445 C449 1.393 . S
C446 H438 0.950 . S
C446 C444 1.391 . S
C446 C447 1.400 . S
C447 C446 1.400 . S
C447 C448 1.398 . S
C447 C453 1.491 . S
C448 H439 0.950 . S
C448 C447 1.398 . S
C448 C449 1.391 . S
C449 H437 0.950 . S
C449 C445 1.393 . S
C449 C448 1.391 . S
C450 H440 0.950 . S
C450 C451 1.386 . S
C450 C452 1.391 1_455 S
C451 C450 1.386 . S
C451 C455 1.393 . S
C452 H441 0.950 . S
C452 C450 1.391 1_655 S
C452 C453 1.400 . S
C453 C447 1.491 . S
C453 C452 1.400 . S
C453 C454 1.398 1_655 S
C454 H442 0.950 . S
C454 C453 1.398 1_455 S
C454 C455 1.391 . S
C455 H443 0.950 . S
C455 C451 1.393 . S
C455 C454 1.391 . S
H456 C464 0.950 . S
H457 C469 0.950 . S
H458 C466 0.950 . S
H459 C468 0.950 . S
H460 C470 0.950 . S
H461 C472 0.950 . S
H462 C474 0.950 . S
H463 C475 0.950 . S
C464 H456 0.950 . S
C464 C465 1.386 . S
C464 C466 1.391 . S
C465 C464 1.386 . S
C465 C469 1.393 . S
C466 H458 0.950 . S
C466 C464 1.391 . S
C466 C467 1.400 . S
C467 C466 1.400 . S
C467 C468 1.398 . S
C467 C473 1.491 . S
C468 H459 0.950 . S
C468 C467 1.398 . S
C468 C469 1.391 . S
C469 H457 0.950 . S
C469 C465 1.393 . S
C469 C468 1.391 . S
C470 H460 0.950 . S
C470 C471 1.386 . S
C470 C472 1.391 1_655 S
C471 C470 1.386 . S
C471 C475 1.393 . S
C472 H461 0.950 . S
C472 C470 1.391 1_455 S
C472 C473 1.400 . S
C473 C467 1.491 . S
C473 C472 1.400 . S
C473 C474 1.398 . S
C474 H462 0.950 . S
C474 C473 1.398 . S
C474 C475 1.391 1_455 S
C475 H463 0.950 . S
C475 C471 1.393 . S
C475 C474 1.391 1_655 S
H476 C484 0.950 . S
H477 C489 0.950 . S
H478 C486 0.950 . S
H479 C488 0.950 . S
H480 C490 0.950 . S
H481 C492 0.950 . S
H482 C494 0.950 . S
H483 C495 0.950 . S
C484 H476 0.950 . S
C484 C485 1.386 . S
C484 C486 1.391 . S
C485 C484 1.386 . S
C485 C489 1.393 . S
C486 H478 0.950 . S
C486 C484 1.391 . S
C486 C487 1.400 . S
C487 C486 1.400 . S
C487 C488 1.398 . S
C487 C493 1.491 . S
C488 H479 0.950 . S
C488 C487 1.398 . S
C488 C489 1.391 . S
C489 H477 0.950 . S
C489 C485 1.393 . S
C489 C488 1.391 . S
C490 H480 0.950 . S
C490 C491 1.386 . S
C490 C492 1.391 . S
C491 C490 1.386 . S
C491 C495 1.393 . S
C492 H481 0.950 . S
C492 C490 1.391 . S
C492 C493 1.400 . S
C493 C487 1.491 . S
C493 C492 1.400 . S
C493 C494 1.398 . S
C494 H482 0.950 . S
C494 C493 1.398 . S
C494 C495 1.391 . S
C495 H483 0.950 . S
C495 C491 1.393 . S
C495 C494 1.391 . S
H496 C504 0.950 . S
H497 C509 0.950 . S
H498 C506 0.950 . S
H499 C508 0.950 . S
H500 C510 0.950 . S
H501 C512 0.950 . S
H502 C514 0.950 . S
H503 C515 0.950 . S
C504 H496 0.950 . S
C504 C505 1.386 . S
C504 C506 1.391 . S
C505 C504 1.386 . S
C505 C509 1.393 . S
C506 H498 0.950 . S
C506 C504 1.391 . S
C506 C507 1.400 . S
C507 C506 1.400 . S
C507 C508 1.398 . S
C507 C513 1.491 . S
C508 H499 0.950 . S
C508 C507 1.398 . S
C508 C509 1.391 . S
C509 H497 0.950 . S
C509 C505 1.393 . S
C509 C508 1.391 . S
C510 H500 0.950 . S
C510 C511 1.386 . S
C510 C512 1.391 . S
C511 C510 1.386 . S
C511 C515 1.393 . S
C512 H501 0.950 . S
C512 C510 1.391 . S
C512 C513 1.400 . S
C513 C507 1.491 . S
C513 C512 1.400 . S
C513 C514 1.398 . S
C514 H502 0.950 . S
C514 C513 1.398 . S
C514 C515 1.391 . S
C515 H503 0.950 . S
C515 C511 1.393 . S
C515 C514 1.391 . S
H516 C524 0.950 . S
H517 C529 0.950 . S
H518 C526 0.950 . S
H519 C528 0.950 . S
H520 C530 0.950 . S
H521 C532 0.950 . S
H522 C534 0.950 1_455 S
H523 C535 0.950 . S
C524 H516 0.950 . S
C524 C525 1.386 . S
C524 C526 1.391 . S
C525 C524 1.386 . S
C525 C529 1.393 . S
C526 H518 0.950 . S
C526 C524 1.391 . S
C526 C527 1.400 . S
C527 C526 1.400 . S
C527 C528 1.398 . S
C527 C533 1.491 . S
C528 H519 0.950 . S
C528 C527 1.398 . S
C528 C529 1.391 . S
C529 H517 0.950 . S
C529 C525 1.393 . S
C529 C528 1.391 . S
C530 H520 0.950 . S
C530 C531 1.386 . S
C530 C532 1.391 1_655 S
C531 C530 1.386 . S
C531 C535 1.393 . S
C532 H521 0.950 . S
C532 C530 1.391 1_455 S
C532 C533 1.400 . S
C533 C527 1.491 . S
C533 C532 1.400 . S
C533 C534 1.398 1_455 S
C534 H522 0.950 1_655 S
C534 C533 1.398 1_655 S
C534 C535 1.391 . S
C535 H523 0.950 . S
C535 C531 1.393 . S
C535 C534 1.391 . S
H536 C544 0.950 . S
H537 C549 0.950 . S
H538 C546 0.950 . S
H539 C548 0.950 . S
H540 C550 0.950 . S
H541 C552 0.950 . S
H542 C554 0.950 . S
H543 C555 0.950 . S
C544 H536 0.950 . S
C544 C545 1.386 . S
C544 C546 1.391 . S
C545 C544 1.386 . S
C545 C549 1.393 . S
C546 H538 0.950 . S
C546 C544 1.391 . S
C546 C547 1.400 1_455 S
C547 C546 1.400 1_655 S
C547 C548 1.398 . S
C547 C553 1.491 . S
C548 H539 0.950 . S
C548 C547 1.398 . S
C548 C549 1.391 1_655 S
C549 H537 0.950 . S
C549 C545 1.393 . S
C549 C548 1.391 1_455 S
C550 H540 0.950 . S
C550 C551 1.386 . S
C550 C552 1.391 . S
C551 C550 1.386 . S
C551 C555 1.393 . S
C552 H541 0.950 . S
C552 C550 1.391 . S
C552 C553 1.400 . S
C553 C547 1.491 . S
C553 C552 1.400 . S
C553 C554 1.398 . S
C554 H542 0.950 . S
C554 C553 1.398 . S
C554 C555 1.391 . S
C555 H543 0.950 . S
C555 C551 1.393 . S
C555 C554 1.391 . S
H556 C564 0.950 . S
H557 C569 0.950 . S
H558 C566 0.950 . S
H559 C568 0.950 . S
H560 C570 0.950 . S
H561 C572 0.950 . S
H562 C574 0.950 . S
H563 C575 0.950 . S
C564 H556 0.950 . S
C564 C565 1.386 . S
C564 C566 1.391 . S
C565 C564 1.386 . S
C565 C569 1.393 . S
C566 H558 0.950 . S
C566 C564 1.391 . S
C566 C567 1.400 . S
C567 C566 1.400 . S
C567 C568 1.398 . S
C567 C573 1.491 . S
C568 H559 0.950 . S
C568 C567 1.398 . S
C568 C569 1.391 . S
C569 H557 0.950 . S
C569 C565 1.393 . S
C569 C568 1.391 . S
C570 H560 0.950 . S
C570 C571 1.386 . S
C570 C572 1.391 . S
C571 C570 1.386 . S
C571 C575 1.393 . S
C572 H561 0.950 . S
C572 C570 1.391 . S
C572 C573 1.400 . S
C573 C567 1.491 . S
C573 C572 1.400 . S
C573 C574 1.398 . S
C574 H562 0.950 . S
C574 C573 1.398 . S
C574 C575 1.391 . S
C575 H563 0.950 . S
C575 C571 1.393 . S
C575 C574 1.391 . S
H576 C584 0.950 . S
H577 C589 0.950 . S
H578 C586 0.950 . S
H579 C588 0.950 . S
H580 C590 0.950 . S
H581 C592 0.950 . S
H582 C594 0.950 . S
H583 C595 0.950 . S
C584 H576 0.950 . S
C584 C585 1.386 . S
C584 C586 1.391 . S
C585 C584 1.386 . S
C585 C589 1.393 . S
C586 H578 0.950 . S
C586 C584 1.391 . S
C586 C587 1.400 . S
C587 C586 1.400 . S
C587 C588 1.398 . S
C587 C593 1.491 . S
C588 H579 0.950 . S
C588 C587 1.398 . S
C588 C589 1.391 . S
C589 H577 0.950 . S
C589 C585 1.393 . S
C589 C588 1.391 . S
C590 H580 0.950 . S
C590 C591 1.386 . S
C590 C592 1.391 . S
C591 C590 1.386 . S
C591 C595 1.393 . S
C592 H581 0.950 . S
C592 C590 1.391 . S
C592 C593 1.400 . S
C593 C587 1.491 . S
C593 C592 1.400 . S
C593 C594 1.398 . S
C594 H582 0.950 . S
C594 C593 1.398 . S
C594 C595 1.391 . S
C595 H583 0.950 . S
C595 C591 1.393 . S
C595 C594 1.391 . S
H596 C604 0.950 . S
H597 C609 0.950 . S
H598 C606 0.950 . S
H599 C608 0.950 . S
H600 C610 0.950 . S
H601 C612 0.950 . S
H602 C614 0.950 . S
H603 C615 0.950 . S
C604 H596 0.950 . S
C604 C605 1.386 . S
C604 C606 1.391 . S
C605 C604 1.386 . S
C605 C609 1.393 . S
C606 H598 0.950 . S
C606 C604 1.391 . S
C606 C607 1.400 . S
C607 C606 1.400 . S
C607 C608 1.398 . S
C607 C613 1.491 . S
C608 H599 0.950 . S
C608 C607 1.398 . S
C608 C609 1.391 . S
C609 H597 0.950 . S
C609 C605 1.393 . S
C609 C608 1.391 . S
C610 H600 0.950 . S
C610 C611 1.386 . S
C610 C612 1.391 . S
C611 C610 1.386 . S
C611 C615 1.393 . S
C612 H601 0.950 . S
C612 C610 1.391 . S
C612 C613 1.400 . S
C613 C607 1.491 . S
C613 C612 1.400 . S
C613 C614 1.398 . S
C614 H602 0.950 . S
C614 C613 1.398 . S
C614 C615 1.391 . S
C615 H603 0.950 . S
C615 C611 1.393 . S
C615 C614 1.391 . S
H616 C624 0.950 . S
H617 C629 0.950 . S
H618 C626 0.950 . S
H619 C628 0.950 . S
H620 C630 0.950 . S
H621 C632 0.950 . S
H622 C634 0.950 . S
H623 C635 0.950 . S
C624 H616 0.950 . S
C624 C625 1.386 . S
C624 C626 1.391 . S
C625 C624 1.386 . S
C625 C629 1.393 . S
C626 H618 0.950 . S
C626 C624 1.391 . S
C626 C627 1.400 . S
C627 C626 1.400 . S
C627 C628 1.398 . S
C627 C633 1.491 . S
C628 H619 0.950 . S
C628 C627 1.398 . S
C628 C629 1.391 . S
C629 H617 0.950 . S
C629 C625 1.393 . S
C629 C628 1.391 . S
C630 H620 0.950 . S
C630 C631 1.386 . S
C630 C632 1.391 . S
C631 C630 1.386 . S
C631 C635 1.393 . S
C632 H621 0.950 . S
C632 C630 1.391 . S
C632 C633 1.400 . S
C633 C627 1.491 . S
C633 C632 1.400 . S
C633 C634 1.398 . S
C634 H622 0.950 . S
C634 C633 1.398 . S
C634 C635 1.391 . S
C635 H623 0.950 . S
C635 C631 1.393 . S
C635 C634 1.391 . S
H636 C644 0.950 . S
H637 C649 0.950 . S
H638 C646 0.950 . S
H639 C648 0.950 . S
H640 C650 0.950 . S
H641 C652 0.950 . S
H642 C654 0.950 . S
H643 C655 0.950 . S
C644 H636 0.950 . S
C644 C645 1.386 . S
C644 C646 1.391 . S
C645 C644 1.386 . S
C645 C649 1.393 . S
C646 H638 0.950 . S
C646 C644 1.391 . S
C646 C647 1.400 . S
C647 C646 1.400 . S
C647 C648 1.398 . S
C647 C653 1.491 . S
C648 H639 0.950 . S
C648 C647 1.398 . S
C648 C649 1.391 . S
C649 H637 0.950 . S
C649 C645 1.393 . S
C649 C648 1.391 . S
C650 H640 0.950 . S
C650 C651 1.386 . S
C650 C652 1.391 . S
C651 C650 1.386 . S
C651 C655 1.393 . S
C652 H641 0.950 . S
C652 C650 1.391 . S
C652 C653 1.400 . S
C653 C647 1.491 . S
C653 C652 1.400 . S
C653 C654 1.398 . S
C654 H642 0.950 . S
C654 C653 1.398 . S
C654 C655 1.391 . S
C655 H643 0.950 . S
C655 C651 1.393 . S
C655 C654 1.391 . S
C185 C95 1.011 . S
C191 C21 1.004 . S
C205 C125 1.032 . S
C211 C43 1.025 . S
C225 C147 1.008 . S
C231 C65 0.999 . S
C245 C81 1.028 . S
C251 C161 1.035 . S
C265 C7 1.589 . S
C271 C30 1.561 1_554 S
C285 C29 1.607 . S
C291 C8 1.551 . S
C305 C76 1.555 . S
C311 C51 1.588 . S
C325 C52 1.552 1_556 S
C331 C87 1.607 . S
C345 C120 1.553 1_556 S
C351 C109 1.600 . S
C365 C106 1.559 . S
C371 C117 1.612 . S
C385 C139 1.599 . S
C391 C172 1.576 . S
C405 C142 1.549 1_554 S
C411 C175 1.606 . S
C425 C15 1.418 . S
C431 C128 1.404 . S
C445 C96 1.398 . S
C451 C37 1.415 . S
C465 C162 1.397 . S
C471 C59 1.409 . S
C485 C150 1.412 . S
C491 C73 1.412 . S
C505 C103 1.413 . S
C511 C40 1.392 . S
C525 C18 1.395 . S
C531 C131 1.410 . S
C545 C153 1.410 . S
C551 C74 1.408 . S
C565 C169 1.409 . S
C571 C62 1.406 . S
C585 C10 1.438 . S
C591 C164 1.426 . S
C605 C32 1.438 . S
C611 C140 1.428 . S
C625 C118 1.434 . S
C631 C54 1.431 . S
C645 C98 1.437 . S
C651 C84 1.429 . S
