# Generated by pormake.
# Topology wjs, (5)-cn, num edge types: 1
# Building blocks:
#     Node 0, Type 0, BuildingBlock: XOMCOT_clean_sbu_1, # of connection points: 5
#     Node 1, Type 0, BuildingBlock: XOMCOT_clean_sbu_1, # of connection points: 5
#     Node 2, Type 0, BuildingBlock: XOMCOT_clean_sbu_1, # of connection points: 5
#     Node 3, Type 0, BuildingBlock: XOMCOT_clean_sbu_1, # of connection points: 5
#     Node 4, Type 0, BuildingBlock: XOMCOT_clean_sbu_1, # of connection points: 5
#     Node 5, Type 0, BuildingBlock: XOMCOT_clean_sbu_1, # of connection points: 5
#     Node 6, Type 0, BuildingBlock: XOMCOT_clean_sbu_1, # of connection points: 5
#     Node 7, Type 0, BuildingBlock: XOMCOT_clean_sbu_1, # of connection points: 5
#     Node 8, Type 0, BuildingBlock: XOMCOT_clean_sbu_1, # of connection points: 5
#     Node 9, Type 0, BuildingBlock: XOMCOT_clean_sbu_1, # of connection points: 5
#     Node 10, Type 0, BuildingBlock: XOMCOT_clean_sbu_1, # of connection points: 5
#     Node 11, Type 0, BuildingBlock: XOMCOT_clean_sbu_1, # of connection points: 5
#     Edge 12, Type (0, 0), BuildingBlock: CIFDUS_clean_linker_0, # of connection points: 2
#     Edge 13, Type (0, 0), BuildingBlock: CIFDUS_clean_linker_0, # of connection points: 2
#     Edge 14, Type (0, 0), BuildingBlock: CIFDUS_clean_linker_0, # of connection points: 2
#     Edge 15, Type (0, 0), BuildingBlock: CIFDUS_clean_linker_0, # of connection points: 2
#     Edge 16, Type (0, 0), BuildingBlock: CIFDUS_clean_linker_0, # of connection points: 2
#     Edge 17, Type (0, 0), BuildingBlock: CIFDUS_clean_linker_0, # of connection points: 2
#     Edge 18, Type (0, 0), BuildingBlock: CIFDUS_clean_linker_0, # of connection points: 2
#     Edge 19, Type (0, 0), BuildingBlock: CIFDUS_clean_linker_0, # of connection points: 2
#     Edge 20, Type (0, 0), BuildingBlock: CIFDUS_clean_linker_0, # of connection points: 2
#     Edge 21, Type (0, 0), BuildingBlock: CIFDUS_clean_linker_0, # of connection points: 2
#     Edge 22, Type (0, 0), BuildingBlock: CIFDUS_clean_linker_0, # of connection points: 2
#     Edge 23, Type (0, 0), BuildingBlock: CIFDUS_clean_linker_0, # of connection points: 2
#     Edge 24, Type (0, 0), BuildingBlock: CIFDUS_clean_linker_0, # of connection points: 2
#     Edge 25, Type (0, 0), BuildingBlock: CIFDUS_clean_linker_0, # of connection points: 2
#     Edge 26, Type (0, 0), BuildingBlock: CIFDUS_clean_linker_0, # of connection points: 2
#     Edge 27, Type (0, 0), BuildingBlock: CIFDUS_clean_linker_0, # of connection points: 2
#     Edge 28, Type (0, 0), BuildingBlock: CIFDUS_clean_linker_0, # of connection points: 2
#     Edge 29, Type (0, 0), BuildingBlock: CIFDUS_clean_linker_0, # of connection points: 2
#     Edge 30, Type (0, 0), BuildingBlock: CIFDUS_clean_linker_0, # of connection points: 2
#     Edge 31, Type (0, 0), BuildingBlock: CIFDUS_clean_linker_0, # of connection points: 2
#     Edge 32, Type (0, 0), BuildingBlock: CIFDUS_clean_linker_0, # of connection points: 2
#     Edge 33, Type (0, 0), BuildingBlock: CIFDUS_clean_linker_0, # of connection points: 2
#     Edge 34, Type (0, 0), BuildingBlock: CIFDUS_clean_linker_0, # of connection points: 2
#     Edge 35, Type (0, 0), BuildingBlock: CIFDUS_clean_linker_0, # of connection points: 2
#     Edge 36, Type (0, 0), BuildingBlock: CIFDUS_clean_linker_0, # of connection points: 2
#     Edge 37, Type (0, 0), BuildingBlock: CIFDUS_clean_linker_0, # of connection points: 2
#     Edge 38, Type (0, 0), BuildingBlock: CIFDUS_clean_linker_0, # of connection points: 2
#     Edge 39, Type (0, 0), BuildingBlock: CIFDUS_clean_linker_0, # of connection points: 2
#     Edge 40, Type (0, 0), BuildingBlock: CIFDUS_clean_linker_0, # of connection points: 2
#     Edge 41, Type (0, 0), BuildingBlock: CIFDUS_clean_linker_0, # of connection points: 2
# Relax obj value: 0.372
# Max RMSD: 0.268
# Mean RMSD: 0.268
data_MOF--net-wjs--node1-XOMCOT_clean_sbu_1--edge1-CIFDUS_clean_linker_0
_symmetry_space_group_name_H-M    P1
_symmetry_Int_Tables_number       1
_symmetry_cell_setting            triclinic
loop_
_symmetry_equiv_pos_as_xyz
'x, y, z'
_cell_length_a     27.915232
_cell_length_b     27.904436
_cell_length_c     59.024275
_cell_angle_alpha  90.038105
_cell_angle_beta   90.175994
_cell_angle_gamma 120.0598
loop_
_atom_site_label
_atom_site_type_symbol
_atom_site_fract_x
_atom_site_fract_y
_atom_site_fract_z
_atom_type_partial_charge
C0 C 0.2789 0.35194 0.06328 0.0
C1 C 0.28861 0.31672 0.07626 0.0
N2 N 0.25166 0.26437 0.07019 0.0
N3 N 0.23663 0.32171 0.04891 0.0
C4 C 0.22067 0.26856 0.05361 0.0
H5 H 0.30091 0.39666 0.0643 0.0
Co6 Co 0.20507 0.34788 0.02829 0.0
C7 C 0.16361 0.25886 0.99183 0.0
O8 O 0.11676 0.25732 0.9873 0.0
N9 N 0.17297 0.37473 0.00808 0.0
C10 C 0.14247 0.39787 0.97751 0.0
C11 C 0.1782 0.38094 0.98537 0.0
C12 C 0.13572 0.39002 0.01372 0.0
N13 N 0.1161 0.40362 0.99545 0.0
O14 O 0.13374 0.29893 0.04121 0.0
H15 H 0.20502 0.37221 0.97514 0.0
H16 H 0.12173 0.3894 0.03085 0.0
O17 O 0.19621 0.29144 1.007 0.0
C18 C 0.12769 0.31235 0.06118 0.0
O19 O 0.16727 0.35896 0.06982 0.0
N20 N 0.27601 0.39635 0.01662 0.0
C21 C 0.38886 0.46881 0.00921 0.0
C22 C 0.36518 0.41173 1.00542 0.0
C23 C 0.309 0.37638 0.00919 0.0
C24 C 0.29739 0.45186 0.01956 0.0
C25 C 0.35377 0.48896 0.01581 0.0
H26 H 0.29346 0.33246 0.0079 0.0
H27 H 0.27126 0.46716 0.02594 0.0
H28 H 0.18695 0.23359 0.04502 0.0
H29 H 0.31963 0.32857 0.08943 0.0
H30 H 0.13607 0.4051 0.96004 0.0
H31 H 0.3903 0.39359 1.00103 0.0
H32 H 0.36992 0.5327 0.01878 0.0
C33 C 0.92015 0.26586 0.23158 0.0
C34 C 0.96584 0.2746 0.24388 0.0
N35 N 0.98209 0.23968 0.23605 0.0
N36 N 0.90856 0.22632 0.21589 0.0
C37 C 0.94671 0.21087 0.21915 0.0
H38 H 0.89687 0.28693 0.23389 0.0
Co39 Co 0.85151 0.19823 0.19496 0.0
C40 C 0.89856 0.16451 0.15613 0.0
O41 O 0.8522 0.1199 0.15031 0.0
N42 N 0.79302 0.16978 0.17418 0.0
C43 C 0.7404 0.15843 0.14404 0.0
C44 C 0.79343 0.1862 0.15264 0.0
C45 C 0.73945 0.13218 0.17829 0.0
N46 N 0.70657 0.12443 0.16023 0.0
O47 O 0.83061 0.12542 0.20537 0.0
H48 H 0.82973 0.21751 0.14395 0.0
H49 H 0.72417 0.1128 0.19454 0.0
O50 O 0.89977 0.19402 0.17283 0.0
C51 C 0.80209 0.11045 0.22344 0.0
O52 O 0.78389 0.142 0.23179 0.0
N53 N 0.87332 0.27108 0.18585 0.0
C54 C 0.91113 0.38396 0.18055 0.0
C55 C 0.94393 0.36142 0.17403 0.0
C56 C 0.92465 0.30523 0.17702 0.0
C57 C 0.83979 0.29165 0.19157 0.0
C58 C 0.85797 0.34819 0.18911 0.0
H59 H 0.95295 0.2905 0.17357 0.0
H60 H 0.79983 0.26454 0.19906 0.0
H61 H 0.94872 0.1793 0.20922 0.0
H62 H 0.98506 0.30362 0.25772 0.0
H63 H 0.72758 0.16364 0.12734 0.0
H64 H 0.98579 0.38758 0.16799 0.0
H65 H 0.83139 0.36399 0.19443 0.0
C66 C 0.64872 0.93473 0.39068 0.0
C67 C 0.68413 0.98621 0.39948 0.0
N68 N 0.7355 0.00179 0.3922 0.0
N69 N 0.67756 0.91853 0.37756 0.0
C70 C 0.73062 0.95996 0.37908 0.0
H71 H 0.60458 0.91061 0.39353 0.0
Co72 Co 0.64619 0.85148 0.36205 0.0
C73 C 0.73803 0.90242 0.32479 0.0
O74 O 0.78006 0.89873 0.33272 0.0
N75 N 0.61442 0.78375 0.34709 0.0
C76 C 0.58596 0.71734 0.32111 0.0
C77 C 0.60716 0.77312 0.32466 0.0
C78 C 0.59651 0.73391 0.35684 0.0
N79 N 0.57948 0.69283 0.34141 0.0
O80 O 0.69795 0.83496 0.37673 0.0
H81 H 0.61719 0.80387 0.31166 0.0
H82 H 0.59741 0.72804 0.37492 0.0
O83 O 0.69426 0.88519 0.33652 0.0
C84 C 0.68377 0.82192 0.39731 0.0
O85 O 0.63753 0.81877 0.40422 0.0
N86 N 0.59462 0.86818 0.34881 0.0
C87 C 0.52181 0.9065 0.33924 0.0
C88 C 0.57775 0.93809 0.33361 0.0
C89 C 0.61347 0.91855 0.33871 0.0
C90 C 0.53954 0.83515 0.35321 0.0
C91 C 0.50207 0.85352 0.3484 0.0
H92 H 0.6572 0.94639 0.33628 0.0
H93 H 0.5252 0.79615 0.36184 0.0
H94 H 0.76484 0.95971 0.37062 0.0
H95 H 0.67323 0.01006 0.41063 0.0
H96 H 0.57586 0.69641 0.30487 0.0
H97 H 0.59449 0.97942 0.32672 0.0
H98 H 0.45909 0.82839 0.35326 0.0
C99 C 0.82432 0.78236 0.52974 0.0
C100 C 0.81225 0.81385 0.54371 0.0
N101 N 0.77833 0.78082 0.55997 0.0
N102 N 0.79754 0.72933 0.53699 0.0
C103 C 0.77003 0.72971 0.55574 0.0
H104 H 0.85347 0.79808 0.51591 0.0
Co105 Co 0.80884 0.67437 0.5247 0.0
C106 C 0.84784 0.72321 0.47718 0.0
O107 O 0.88732 0.71133 0.47409 0.0
N108 N 0.82214 0.62067 0.51211 0.0
C109 C 0.83054 0.56499 0.4875 0.0
C110 C 0.80451 0.59483 0.4919 0.0
C111 C 0.85747 0.60466 0.51995 0.0
N112 N 0.86384 0.57142 0.50517 0.0
O113 O 0.8859 0.71865 0.53295 0.0
H114 H 0.77648 0.59945 0.48062 0.0
H115 H 0.88048 0.61938 0.53563 0.0
O116 O 0.81999 0.70949 0.49546 0.0
C117 C 0.89093 0.71586 0.55435 0.0
O118 O 0.84695 0.6828 0.56627 0.0
N119 N 0.7324 0.63052 0.51838 0.0
C120 C 0.61772 0.56564 0.51308 0.0
C121 C 0.64637 0.61985 0.50472 0.0
C122 C 0.70374 0.65154 0.50745 0.0
C123 C 0.70509 0.57804 0.52688 0.0
C124 C 0.64779 0.54449 0.52406 0.0
H125 H 0.7248 0.69365 0.50139 0.0
H126 H 0.72777 0.56227 0.53613 0.0
H127 H 0.74673 0.69415 0.56655 0.0
H128 H 0.82919 0.85822 0.54275 0.0
H129 H 0.82633 0.54143 0.4723 0.0
H130 H 0.62452 0.6377 0.49624 0.0
H131 H 0.62694 0.50304 0.53103 0.0
C132 C 0.06267 0.72092 0.71427 0.0
C133 C 0.0153 0.70913 0.72575 0.0
N134 N 0.00364 0.74955 0.72135 0.0
N135 N 0.08026 0.76808 0.7024 0.0
C136 C 0.04362 0.78474 0.70716 0.0
H137 H 0.08395 0.69754 0.71511 0.0
Co138 Co 0.14623 0.80474 0.68644 0.0
C139 C 0.09726 0.85675 0.65609 0.0
O140 O 0.10841 0.89871 0.66949 0.0
N141 N 0.21282 0.84156 0.6711 0.0
C142 C 0.27884 0.88027 0.64521 0.0
C143 C 0.22289 0.84616 0.64865 0.0
C144 C 0.26284 0.87236 0.68094 0.0
N145 N 0.30387 0.89682 0.66559 0.0
O146 O 0.16403 0.87233 0.70226 0.0
H147 H 0.19161 0.82634 0.63564 0.0
H148 H 0.26878 0.87776 0.69907 0.0
O149 O 0.11049 0.82101 0.66193 0.0
C150 C 0.1762 0.87264 0.72313 0.0
O151 O 0.17798 0.82964 0.73117 0.0
N152 N 0.12879 0.73739 0.67213 0.0
C153 C 0.08828 0.62548 0.66318 0.0
C154 C 0.05926 0.65148 0.65588 0.0
C155 C 0.08012 0.70743 0.6605 0.0
C156 C 0.15976 0.71384 0.67788 0.0
C157 C 0.1403 0.65764 0.67342 0.0
H158 H 0.05406 0.72471 0.65662 0.0
H159 H 0.19749 0.73749 0.68754 0.0
H160 H 0.04699 0.82266 0.70085 0.0
H161 H 0.99257 0.67481 0.7372 0.0
H162 H 0.29945 0.89154 0.62897 0.0
H163 H 0.01883 0.6278 0.64802 0.0
H164 H 0.16354 0.63866 0.67949 0.0
C165 C 0.35244 0.07334 0.8964 0.0
C166 C 0.31984 0.02654 0.90884 0.0
N167 N 0.26811 0.00268 0.90038 0.0
N168 N 0.32115 0.07882 0.8803 0.0
C169 C 0.26992 0.03506 0.88309 0.0
H170 H 0.39577 0.10261 0.89937 0.0
Co171 Co 0.34511 0.13935 0.86148 0.0
C172 C 0.2616 0.09438 0.8227 0.0
O173 O 0.26093 0.14011 0.81815 0.0
N174 N 0.37078 0.20167 0.84324 0.0
C175 C 0.40392 0.26437 0.81576 0.0
C176 C 0.3837 0.20934 0.82104 0.0
C177 C 0.38446 0.25231 0.85115 0.0
N178 N 0.40447 0.29129 0.83483 0.0
O179 O 0.29205 0.1554 0.87522 0.0
H180 H 0.3795 0.17725 0.80953 0.0
H181 H 0.38024 0.26056 0.8687 0.0
O182 O 0.29149 0.09318 0.8388 0.0
C183 C 0.30464 0.17318 0.89552 0.0
O184 O 0.35224 0.18222 0.9038 0.0
N185 N 0.39782 0.12333 0.84938 0.0
C186 C 0.47448 0.08782 0.84368 0.0
C187 C 0.42053 0.05668 0.83509 0.0
C188 C 0.38278 0.07481 0.83824 0.0
C189 C 0.45103 0.15617 0.85655 0.0
C190 C 0.49016 0.13912 0.85392 0.0
H191 H 0.34048 0.04698 0.83334 0.0
H192 H 0.4621 0.19378 0.86583 0.0
H193 H 0.23412 0.02856 0.87343 0.0
H194 H 0.33284 0.01162 0.92319 0.0
H195 H 0.41878 0.28335 0.79937 0.0
H196 H 0.406 0.01629 0.82755 0.0
H197 H 0.53147 0.16463 0.86073 0.0
C198 C 0.65083 0.71816 0.77744 0.0
C199 C 0.68104 0.69926 0.76615 0.0
N200 N 0.73401 0.72932 0.77305 0.0
N201 N 0.68449 0.75932 0.79166 0.0
C202 C 0.7352 0.76572 0.78843 0.0
H203 H 0.60712 0.70318 0.77526 0.0
Co204 Co 0.66144 0.79725 0.81023 0.0
C205 C 0.74946 0.84328 0.84649 0.0
O206 O 0.75543 0.89306 0.84614 0.0
N207 N 0.63666 0.83507 0.82824 0.0
C208 C 0.60829 0.86853 0.85604 0.0
C209 C 0.62841 0.83367 0.8508 0.0
C210 C 0.62035 0.86981 0.82015 0.0
N211 N 0.60322 0.89116 0.83665 0.0
O212 O 0.71414 0.86546 0.79607 0.0
H213 H 0.63598 0.80856 0.86262 0.0
H214 H 0.6209 0.87922 0.80238 0.0
O215 O 0.71538 0.80593 0.83299 0.0
C216 C 0.69937 0.87219 0.77645 0.0
O217 O 0.65105 0.83455 0.76839 0.0
N218 N 0.60844 0.72924 0.8229 0.0
C219 C 0.53186 0.61689 0.82836 0.0
C220 C 0.58506 0.64019 0.83778 0.0
C221 C 0.62281 0.69622 0.83473 0.0
C222 C 0.55555 0.70855 0.81525 0.0
C223 C 0.51653 0.65221 0.81767 0.0
H224 H 0.6647 0.71112 0.84025 0.0
H225 H 0.54497 0.73481 0.80551 0.0
H226 H 0.77213 0.79629 0.79717 0.0
H227 H 0.6656 0.66691 0.75342 0.0
H228 H 0.59689 0.87543 0.87272 0.0
H229 H 0.59917 0.61456 0.84582 0.0
H230 H 0.47575 0.63601 0.81026 0.0
C231 C 0.92797 0.64047 0.9354 0.0
C232 C 0.97189 0.67354 0.92163 0.0
N233 N 0.99408 0.7258 0.92912 0.0
N234 N 0.92309 0.67156 0.9519 0.0
C235 C 0.96326 0.72376 0.94696 0.0
H236 H 0.89966 0.59727 0.9322 0.0
Co237 Co 0.86454 0.65348 0.97259 0.0
C238 C 0.9657 0.72522 0.99936 0.0
O239 O 0.98817 0.69854 0.98992 0.0
N240 N 0.80519 0.63599 0.99165 0.0
C241 C 0.74799 0.63224 0.01856 0.0
C242 C 0.8027 0.65294 0.01279 0.0
C243 C 0.75196 0.60518 0.985 0.0
N244 N 0.716 0.60238 1.00094 0.0
O245 O 0.84905 0.70413 0.9561 0.0
H246 H 0.8381 0.67962 0.02322 0.0
H247 H 0.74008 0.5869 0.96833 0.0
O248 O 0.91612 0.71278 0.99403 0.0
C249 C 0.82368 0.67937 0.93794 0.0
O250 O 0.81015 0.62725 0.93544 0.0
N251 N 0.87656 0.59999 0.98739 0.0
C252 C 0.91847 0.53231 1.00103 0.0
C253 C 0.88982 0.52303 0.98033 0.0
C254 C 0.867 0.5558 0.97443 0.0
C255 C 0.89381 0.60265 0.00927 0.0
C256 C 0.91546 0.56945 0.01639 0.0
H257 H 0.84445 0.54798 0.95871 0.0
H258 H 0.89428 0.63266 0.02094 0.0
H259 H 0.96845 0.76019 0.9557 0.0
H260 H 0.98571 0.66043 0.90699 0.0
H261 H 0.73321 0.63916 0.03446 0.0
H262 H 0.88736 0.49336 0.96796 0.0
H263 H 0.9318 0.57499 0.03343 0.0
C264 C 0.28911 0.94097 0.1191 0.0
C265 C 0.30856 0.9923 0.1096 0.0
N266 N 0.27446 0.0111 0.11565 0.0
N267 N 0.2434 0.92792 0.13131 0.0
C268 C 0.23511 0.97122 0.12871 0.0
H269 H 0.30723 0.91483 0.11732 0.0
Co270 Co 0.20389 0.86361 0.14806 0.0
C271 C 0.14958 0.8976 0.18417 0.0
O272 O 0.10143 0.85164 0.18347 0.0
N273 N 0.16487 0.79857 0.16456 0.0
C274 C 0.13045 0.73543 0.19181 0.0
C275 C 0.16605 0.79043 0.18703 0.0
C276 C 0.12934 0.74808 0.15599 0.0
N277 N 0.10743 0.70888 0.17222 0.0
O278 O 0.13748 0.8462 0.13101 0.0
H279 H 0.1913 0.82241 0.19915 0.0
H280 H 0.11956 0.74027 0.13814 0.0
O281 O 0.18818 0.90419 0.17077 0.0
C282 C 0.1403 0.83388 0.1104 0.0
O283 O 0.18442 0.83228 0.10384 0.0
N284 N 0.27016 0.88046 0.16323 0.0
C285 C 0.38241 0.92158 0.17145 0.0
C286 C 0.35648 0.95043 0.17898 0.0
C287 C 0.30038 0.92928 0.1747 0.0
C288 C 0.29356 0.84937 0.15751 0.0
C289 C 0.34999 0.86919 0.16157 0.0
H290 H 0.28339 0.95541 0.17859 0.0
H291 H 0.26969 0.81152 0.14795 0.0
H292 H 0.20138 0.9738 0.13646 0.0
H293 H 0.34443 0.01379 0.0988 0.0
H294 H 0.12317 0.71625 0.20833 0.0
H295 H 0.38034 0.99107 0.18663 0.0
H296 H 0.36888 0.84599 0.15538 0.0
C297 C 0.34345 0.27331 0.28358 0.0
C298 C 0.31272 0.29268 0.27287 0.0
N299 N 0.2594 0.25979 0.27867 0.0
N300 N 0.30961 0.2291 0.29635 0.0
C301 C 0.2585 0.22135 0.29276 0.0
H302 H 0.38778 0.29081 0.28245 0.0
Co303 Co 0.33221 0.19059 0.315 0.0
C304 C 0.22827 0.14871 0.34506 0.0
O305 O 0.19293 0.103 0.33448 0.0
N306 N 0.35547 0.15224 0.3337 0.0
C307 C 0.38263 0.12606 0.36437 0.0
C308 C 0.36016 0.15675 0.35648 0.0
C309 C 0.37505 0.11822 0.32811 0.0
N310 N 0.39188 0.10182 0.34653 0.0
O311 O 0.28341 0.12356 0.29852 0.0
H312 H 0.34994 0.18247 0.36669 0.0
H313 H 0.3794 0.10777 0.31088 0.0
O314 O 0.2769 0.1788 0.33732 0.0
C315 C 0.30823 0.12606 0.28005 0.0
O316 O 0.35967 0.1665 0.27786 0.0
N317 N 0.38188 0.25778 0.32929 0.0
C318 C 0.45734 0.36887 0.33834 0.0
C319 C 0.401 0.34646 0.34317 0.0
C320 C 0.36393 0.29113 0.3383 0.0
C321 C 0.43691 0.27764 0.32587 0.0
C322 C 0.47553 0.33327 0.33031 0.0
H323 H 0.32033 0.27701 0.33973 0.0
H324 H 0.45045 0.25133 0.31812 0.0
H325 H 0.22148 0.18889 0.30063 0.0
H326 H 0.32818 0.32787 0.26158 0.0
H327 H 0.39279 0.12291 0.38182 0.0
H328 H 0.38472 0.37247 0.34876 0.0
H329 H 0.5187 0.34888 0.32636 0.0
C330 C 0.08115 0.33983 0.43944 0.0
C331 C 0.03697 0.30308 0.42644 0.0
N332 N 0.01887 0.25182 0.43464 0.0
N333 N 0.09019 0.31188 0.45593 0.0
C334 C 0.05199 0.25822 0.45245 0.0
H335 H 0.10528 0.38415 0.43703 0.0
Co336 Co 0.146 0.34367 0.47733 0.0
C337 C 0.10454 0.26255 0.51628 0.0
O338 O 0.15328 0.27016 0.52218 0.0
N339 N 0.20373 0.37751 0.49851 0.0
C340 C 0.25338 0.42394 0.52865 0.0
C341 C 0.20081 0.39362 0.5198 0.0
C342 C 0.25848 0.39839 0.49485 0.0
N343 N 0.28954 0.42683 0.51292 0.0
O344 O 0.17393 0.29771 0.46632 0.0
H345 H 0.16297 0.3855 0.52809 0.0
H346 H 0.27564 0.39556 0.47885 0.0
O347 O 0.09983 0.28781 0.49917 0.0
C348 C 0.20154 0.31583 0.4481 0.0
O349 O 0.2131 0.36475 0.44058 0.0
N350 N 0.11762 0.38923 0.48671 0.0
C351 C 0.07072 0.45641 0.49218 0.0
C352 C 0.04272 0.40131 0.49942 0.0
C353 C 0.06638 0.36819 0.49623 0.0
C354 C 0.14664 0.44345 0.48038 0.0
C355 C 0.12374 0.47783 0.48283 0.0
H356 H 0.04148 0.32489 0.50024 0.0
H357 H 0.18651 0.45926 0.47234 0.0
H358 H 0.04814 0.2246 0.46289 0.0
H359 H 0.0198 0.31312 0.41195 0.0
H360 H 0.26431 0.44344 0.54518 0.0
H361 H 1.00115 0.38278 0.50617 0.0
H362 H 0.14652 0.52018 0.47689 0.0
C363 C 0.73727 0.08123 0.61501 0.0
C364 C 0.71372 0.02951 0.60546 0.0
N365 N 0.7342 1.00064 0.61597 0.0
N366 N 0.77277 0.08542 0.63142 0.0
C367 C 0.77018 0.03581 0.63164 0.0
H368 H 0.72909 0.11393 0.61034 0.0
Co369 Co 0.81063 0.14803 0.64937 0.0
C370 C 0.85472 0.0914 0.67972 0.0
O371 O 0.89963 0.10509 0.66796 0.0
N372 N 0.84773 0.21132 0.66712 0.0
C373 C 0.87245 0.26974 0.69612 0.0
C374 C 0.84313 0.21502 0.68973 0.0
C375 C 0.88035 0.26408 0.66015 0.0
N376 N 0.89589 0.30042 0.67752 0.0
O377 O 0.87914 0.1642 0.63507 0.0
H378 H 0.81818 0.18037 0.70071 0.0
H379 H 0.8901 0.27589 0.64257 0.0
O380 O 0.82053 0.1061 0.6731 0.0
C381 C 0.88373 0.18185 0.61482 0.0
O382 O 0.8448 0.19052 0.60675 0.0
N383 N 0.74243 0.13225 0.66186 0.0
C384 C 0.62988 0.09575 0.66695 0.0
C385 C 0.65252 0.06407 0.67504 0.0
C386 C 0.70866 0.08281 0.67223 0.0
C387 C 0.72228 0.16564 0.65537 0.0
C388 C 0.666 0.14824 0.65781 0.0
H389 H 0.72324 0.05466 0.67642 0.0
H390 H 0.74907 0.204 0.64666 0.0
H391 H 0.79389 0.02565 0.64314 0.0
H392 H 0.68491 0.01514 0.59139 0.0
H393 H 0.87513 0.28596 0.71304 0.0
H394 H 0.62643 0.02283 0.68172 0.0
H395 H 0.6505 0.17436 0.65151 0.0
H396 H 0.3342 0.24874 0.08414 0.0
H397 H 0.15697 0.1676 0.0766 0.0
H398 H 0.14787 0.08139 0.09122 0.0
H399 H 0.19095 0.02856 0.10511 0.0
H400 H 0.36842 0.10903 0.1112 0.0
H401 H 0.37713 0.19634 0.09834 0.0
C402 C 0.29364 0.21228 0.08595 0.0
C403 C 0.24635 0.2143 0.07935 0.0
C404 C 0.2889 0.16289 0.09405 0.0
C405 C 0.19397 0.16666 0.08138 0.0
C406 C 0.18876 0.11755 0.08982 0.0
C407 C 0.23135 0.06547 0.10384 0.0
C408 C 0.27898 0.06269 0.10907 0.0
C409 C 0.23598 0.1151 0.09606 0.0
C410 C 0.3313 0.11036 0.10705 0.0
C411 C 0.33625 0.16018 0.09977 0.0
H412 H 0.15854 0.17731 0.26745 0.0
H413 H 0.25723 0.35459 0.27389 0.0
H414 H 0.17849 0.36426 0.26181 0.0
H415 H 0.08166 0.32185 0.24902 0.0
H416 H 0.98478 0.14496 0.24049 0.0
H417 H 0.06242 0.1351 0.25379 0.0
C418 C 0.16242 0.21789 0.26631 0.0
C419 C 0.21315 0.26516 0.27158 0.0
C420 C 0.11741 0.22304 0.25897 0.0
C421 C 0.21844 0.31776 0.26973 0.0
C422 C 0.17349 0.32322 0.26293 0.0
C423 C 0.07766 0.28125 0.25027 0.0
C424 C 0.02772 0.23416 0.24398 0.0
C425 C 0.12281 0.27614 0.25746 0.0
C426 C 0.02301 0.18171 0.2452 0.0
C427 C 0.06729 0.17609 0.25284 0.0
H428 H 0.92345 0.23941 0.41889 0.0
H429 H 0.01007 0.15097 0.43246 0.0
H430 H 0.93004 0.06468 0.41898 0.0
H431 H 0.83396 0.01424 0.40421 0.0
H432 H 0.7467 0.10294 0.39284 0.0
H433 H 0.82854 0.18971 0.40428 0.0
C434 C 0.92488 0.20129 0.41866 0.0
C435 C 0.97236 0.20131 0.42654 0.0
C436 C 0.87865 0.15211 0.41126 0.0
C437 C 0.97359 0.1516 0.42661 0.0
C438 C 0.92804 0.10248 0.41882 0.0
C439 C 0.83344 0.05283 0.40404 0.0
C440 C 0.78486 0.0527 0.39767 0.0
C441 C 0.8802 0.1022 0.41121 0.0
C442 C 0.78383 0.10245 0.3978 0.0
C443 C 0.83048 0.15187 0.40431 0.0
H444 H 0.68813 0.78903 0.56343 0.0
H445 H 0.83737 0.82215 0.59787 0.0
H446 H 0.83224 0.89077 0.62206 0.0
H447 H 0.79667 0.95438 0.62678 0.0
H448 H 0.64727 0.92202 0.59169 0.0
H449 H 0.64074 0.83991 0.5744 0.0
C450 C 0.71764 0.8094 0.57707 0.0
C451 C 0.76275 0.80084 0.57917 0.0
C452 C 0.71547 0.85023 0.59014 0.0
C453 C 0.80191 0.82792 0.5964 0.0
C454 C 0.79941 0.86771 0.60989 0.0
C455 C 0.76179 0.92886 0.61587 0.0
C456 C 0.72394 0.94615 0.60985 0.0
C457 C 0.75816 0.88145 0.60593 0.0
C458 C 0.67857 0.91145 0.59589 0.0
C459 C 0.67442 0.86401 0.5861 0.0
H460 H 0.90274 0.66746 0.73253 0.0
H461 H 0.00616 0.84513 0.73206 0.0
H462 H 0.93175 0.85485 0.74917 0.0
H463 H 0.83646 0.81231 0.76394 0.0
H464 H 0.73294 0.63475 0.76336 0.0
H465 H 0.80834 0.62516 0.74729 0.0
C466 C 0.90903 0.70823 0.73635 0.0
C467 C 0.9597 0.75544 0.73105 0.0
C468 C 0.86614 0.71341 0.74608 0.0
C469 C 0.96718 0.80817 0.73572 0.0
C470 C 0.92483 0.81373 0.74565 0.0
C471 C 0.83091 0.77165 0.76051 0.0
C472 C 0.77959 0.72426 0.76483 0.0
C473 C 0.87411 0.76661 0.75089 0.0
C474 C 0.77218 0.67169 0.76 0.0
C475 C 0.81519 0.66624 0.75086 0.0
H476 H 0.18648 0.92193 0.87604 0.0
H477 H 0.24261 0.97681 0.94424 0.0
H478 H 0.16064 0.89561 0.95935 0.0
H479 H 0.07363 0.8086 0.95302 0.0
H480 H 0.01948 0.75052 0.885 0.0
H481 H 0.10004 0.83329 0.86972 0.0
C482 C 0.18034 0.91594 0.89417 0.0
C483 C 0.22007 0.9549 0.90907 0.0
C484 C 0.13374 0.86875 0.90266 0.0
C485 C 0.21255 0.94684 0.93255 0.0
C486 C 0.16573 0.90068 0.94115 0.0
C487 C 0.07949 0.81451 0.93488 0.0
C488 C 0.04096 0.77417 0.9201 0.0
C489 C 0.12617 0.86137 0.92636 0.0
C490 C 0.04905 0.78123 0.89661 0.0
C491 C 0.09486 0.82847 0.88792 0.0
H492 H 0.64602 0.62269 0.02558 0.0
H493 H 0.65028 0.52045 0.9715 0.0
H494 H 0.55042 0.47555 0.9675 0.0
H495 H 0.46135 0.46215 0.98015 0.0
H496 H 0.45541 0.55737 0.03667 0.0
H497 H 0.55627 0.60893 0.0384 0.0
C498 C 0.6253 0.59031 0.01303 0.0
C499 C 0.65636 0.57534 0.99889 0.0
C500 C 0.5673 0.56359 0.01106 0.0
C501 C 0.62819 0.53374 0.98248 0.0
C502 C 0.57076 0.50767 0.98021 0.0
C503 C 0.4819 0.49394 0.99297 0.0
C504 C 0.4503 0.50528 0.00835 0.0
C505 C 0.53988 0.52192 0.99451 0.0
C506 C 0.4782 0.54792 0.02438 0.0
C507 C 0.53607 0.57706 0.02559 0.0
H508 H 0.97277 0.45648 0.14747 0.0
H509 H 0.90536 0.44882 0.21391 0.0
H510 H 0.95824 0.54976 0.21671 0.0
H511 H 0.03014 0.63962 0.20169 0.0
H512 H 0.09928 0.64655 0.13572 0.0
H513 H 0.03946 0.54668 0.13134 0.0
C514 C 0.96929 0.47697 0.16248 0.0
C515 C 0.93545 0.4451 0.18051 0.0
C516 C 1.00067 0.5349 0.16417 0.0
C517 C 0.93068 0.4723 0.1997 0.0
C518 C 0.9614 0.53003 0.20142 0.0
C519 C 0.03206 0.6192 0.18637 0.0
C520 C 0.06954 0.65046 0.16916 0.0
C521 C 0.99764 0.56162 0.18401 0.0
C522 C 0.07069 0.6236 0.14918 0.0
C523 C 0.03665 0.56641 0.14671 0.0
H524 H 0.36531 0.0075 0.32395 0.0
H525 H 0.48296 0.12782 0.37072 0.0
H526 H 0.53243 0.07653 0.37295 0.0
H527 H 0.54288 0.99836 0.3615 0.0
H528 H 0.42485 0.87461 0.31597 0.0
H529 H 0.37405 0.92553 0.31348 0.0
C530 C 0.4019 0.02225 0.3345 0.0
C531 C 0.42073 0.07128 0.34714 0.0
C532 C 0.4296 0.99178 0.33602 0.0
C533 C 0.46771 0.08998 0.36101 0.0
C534 C 0.49598 0.06076 0.36225 0.0
C535 C 0.50589 0.98254 0.35107 0.0
C536 C 0.48764 0.93331 0.33878 0.0
C537 C 0.47728 0.01171 0.34988 0.0
C538 C 0.4394 0.91253 0.32557 0.0
C539 C 0.4107 0.94178 0.32408 0.0
H540 H 0.36203 0.39723 0.4978 0.0
H541 H 0.3505 0.52832 0.53123 0.0
H542 H 0.4514 0.58364 0.53371 0.0
H543 H 0.54311 0.59465 0.52658 0.0
H544 H 0.55553 0.46167 0.49541 0.0
H545 H 0.45443 0.40705 0.49181 0.0
C546 C 0.38187 0.43799 0.50553 0.0
C547 C 0.34905 0.45879 0.5143 0.0
C548 C 0.44 0.46909 0.50732 0.0
C549 C 0.37498 0.51135 0.52455 0.0
C550 C 0.43262 0.54303 0.52589 0.0
C551 C 0.52355 0.55378 0.51892 0.0
C552 C 0.55653 0.53227 0.51111 0.0
C553 C 0.46555 0.52232 0.51738 0.0
C554 C 0.53083 0.47895 0.50155 0.0
C555 C 0.47312 0.44784 0.49946 0.0
H556 H 0.99083 0.36615 0.65524 0.0
H557 H 0.86568 0.36762 0.69724 0.0
H558 H 0.91411 0.46872 0.69603 0.0
H559 H 0.99221 0.55655 0.68341 0.0
H560 H 0.12177 0.55783 0.64355 0.0
H561 H 0.07211 0.45592 0.64355 0.0
C562 C 0.97439 0.38894 0.66398 0.0
C563 C 0.92483 0.35985 0.67627 0.0
C564 C 0.00334 0.44731 0.66365 0.0
C565 C 0.90393 0.38941 0.68782 0.0
C566 C 0.93151 0.44707 0.68709 0.0
C567 C 0.00937 0.53438 0.67465 0.0
C568 C 0.06004 0.56423 0.66326 0.0
C569 C 0.98124 0.47639 0.67513 0.0
C570 C 0.08264 0.53542 0.65234 0.0
C571 C 0.0542 0.47732 0.65232 0.0
H572 H 0.60696 0.96558 0.86698 0.0
H573 H 0.55107 0.90078 0.79965 0.0
H574 H 0.51245 0.96134 0.79487 0.0
H575 H 0.48906 0.02826 0.81056 0.0
H576 H 0.54044 0.09007 0.87857 0.0
H577 H 0.58731 0.03637 0.88208 0.0
C578 C 0.58619 0.96461 0.85131 0.0
C579 C 0.58178 0.92834 0.83378 0.0
C580 C 0.56355 0.9994 0.84869 0.0
C581 C 0.55561 0.92847 0.81338 0.0
C582 C 0.53323 0.963 0.81064 0.0
C583 C 0.51079 0.03026 0.82612 0.0
C584 C 0.51085 0.06296 0.8443 0.0
C585 C 0.5363 0.99807 0.82828 0.0
C586 C 0.54014 0.06582 0.86418 0.0
C587 C 0.56642 0.03453 0.86632 0.0
H588 H 0.40489 0.36244 0.80371 0.0
H589 H 0.4509 0.35227 0.87262 0.0
H590 H 0.48847 0.45141 0.87753 0.0
H591 H 0.51372 0.54211 0.86164 0.0
H592 H 0.47142 0.55373 0.79229 0.0
H593 H 0.42602 0.4532 0.78834 0.0
C594 C 0.42325 0.382 0.81976 0.0
C595 C 0.42519 0.34982 0.83771 0.0
C596 C 0.44516 0.43938 0.82247 0.0
C597 C 0.44829 0.37572 0.85856 0.0
C598 C 0.47007 0.43258 0.86138 0.0
C599 C 0.4942 0.52261 0.84571 0.0
C600 C 0.49622 0.55555 0.82729 0.0
C601 C 0.46936 0.46492 0.84337 0.0
C602 C 0.46995 0.52947 0.80686 0.0
C603 C 0.44453 0.47195 0.80449 0.0
H604 H 0.91372 0.43886 0.98209 0.0
H605 H 0.00865 0.5712 0.02995 0.0
H606 H 0.07436 0.53942 0.03392 0.0
H607 H 0.11104 0.4798 0.02127 0.0
H608 H 0.02527 0.35863 0.96903 0.0
H609 H 0.95157 0.38217 0.96847 0.0
C610 C 0.94895 0.46186 0.99316 0.0
C611 C 0.95513 0.50806 1.00552 0.0
C612 C 0.98936 0.44592 0.99426 0.0
C613 C 1.00082 0.53487 0.02043 0.0
C614 C 0.0395 0.51729 0.02251 0.0
C615 C 0.07597 0.45863 0.00987 0.0
C616 C 0.07323 0.41776 0.99518 0.0
C617 C 0.03493 0.47375 0.00914 0.0
C618 C 0.02813 0.39062 0.9803 0.0
C619 C 0.98604 0.40389 0.98009 0.0
H620 H 0.44945 0.01728 0.15045 0.0
H621 H 0.45182 0.88984 0.19073 0.0
H622 H 0.55367 0.94175 0.19081 0.0
H623 H 0.64197 0.02533 0.18005 0.0
H624 H 0.63737 0.1501 0.13856 0.0
H625 H 0.53641 0.09732 0.13818 0.0
C626 C 0.47241 1.00098 0.15925 0.0
C627 C 0.44361 0.95038 0.17082 0.0
C628 C 0.5304 0.03058 0.15895 0.0
C629 C 0.47342 0.9289 0.1818 0.0
C630 C 0.53147 0.95862 0.18187 0.0
C631 C 0.61867 0.04077 0.17096 0.0
C632 C 0.64705 0.09161 0.15938 0.0
C633 C 0.56042 0.0098 0.17065 0.0
C634 C 0.61653 0.1109 0.14739 0.0
C635 C 0.55882 0.08089 0.14728 0.0
H636 H 0.59385 0.62247 0.31503 0.0
H637 H 0.52053 0.63339 0.37757 0.0
H638 H 0.48177 0.53411 0.38378 0.0
H639 H 0.46259 0.44311 0.3698 0.0
H640 H 0.5335 0.43222 0.30647 0.0
H641 H 0.58051 0.53259 0.30251 0.0
C642 C 0.56933 0.60304 0.32999 0.0
C643 C 0.55941 0.63503 0.34566 0.0
C644 C 0.54713 0.546 0.33339 0.0
C645 C 0.52876 0.60964 0.36527 0.0
C646 C 0.50647 0.55287 0.36879 0.0
C647 C 0.48881 0.46279 0.35525 0.0
C648 C 0.49418 0.43003 0.33841 0.0
C649 C 0.51458 0.52049 0.35275 0.0
C650 C 0.52905 0.45628 0.31984 0.0
C651 C 0.55542 0.51372 0.3174 0.0
H652 H 0.92978 0.57118 0.47229 0.0
H653 H 0.88536 0.529 0.54221 0.0
H654 H 0.94914 0.49281 0.54506 0.0
H655 H 0.01393 0.46894 0.52688 0.0
H656 H 0.06049 0.51415 0.45719 0.0
H657 H 1.00042 0.55444 0.45505 0.0
C658 C 0.93413 0.55389 0.48808 0.0
C659 C 0.90246 0.55174 0.50692 0.0
C660 C 0.97154 0.53424 0.48964 0.0
C661 C 0.90926 0.53066 0.52751 0.0
C662 C 0.94562 0.51004 0.52911 0.0
C663 C 0.01133 0.48823 0.51133 0.0
C664 C 0.04145 0.48849 0.4922 0.0
C665 C 0.97655 0.5111 0.51021 0.0
C666 C 0.03816 0.51397 0.4722 0.0
C667 C 0.00339 0.53649 0.4709 0.0
H668 H 0.37813 0.97793 0.63858 0.0
H669 H 0.36088 0.89817 0.70304 0.0
H670 H 0.45957 0.95777 0.71042 0.0
H671 H 0.55177 0.02855 0.6976 0.0
H672 H 0.5698 0.10443 0.63209 0.0
H673 H 0.46992 0.05149 0.62641 0.0
C674 C 0.39598 0.97338 0.65418 0.0
C675 C 0.36203 0.93323 0.67013 0.0
C676 C 0.45297 0.00752 0.65825 0.0
C677 C 0.38578 0.92886 0.69051 0.0
C678 C 0.44235 0.96283 0.69473 0.0
C679 C 0.53389 0.03371 0.6821 0.0
C680 C 0.56861 0.07039 0.66529 0.0
C681 C 0.47646 0.0018 0.67859 0.0
C682 C 0.54437 0.07723 0.64551 0.0
C683 C 0.48715 0.04635 0.64209 0.0
H684 H 0.30664 0.17777 0.94102 0.0
H685 H 0.21745 0.18775 0.88314 0.0
H686 H 0.16065 0.20929 0.90825 0.0
H687 H 0.14225 0.23309 0.9467 0.0
H688 H 0.23405 0.22338 1.00378 0.0
H689 H 0.28342 0.19322 0.97895 0.0
C690 C 0.27467 0.18449 0.93383 0.0
C691 C 0.26686 0.18207 0.91023 0.0
C692 C 0.24254 0.19677 0.94828 0.0
C693 C 0.2245 0.18975 0.90126 0.0
C694 C 0.1921 0.20211 0.91562 0.0
C695 C 0.17214 0.2231 0.95371 0.0
C696 C 0.1847 0.23073 0.97705 0.0
C697 C 0.2014 0.20668 0.93917 0.0
C698 C 0.22393 0.21819 0.98587 0.0
C699 C 0.25234 0.20113 0.97168 0.0
H700 H 0.12392 0.31174 0.10668 0.0
H701 H 0.02527 0.22805 0.04784 0.0
H702 H 0.94604 0.16991 0.0723 0.0
H703 H 0.90333 0.14815 0.11057 0.0
H704 H 0.00468 0.23339 0.16875 0.0
H705 H 0.08457 0.28508 0.14439 0.0
C706 C 0.08509 0.28079 0.09915 0.0
C707 C 0.08009 0.27485 0.07548 0.0
C708 C 0.04029 0.24761 0.11324 0.0
C709 C 0.02993 0.23367 0.06604 0.0
C710 C 0.98471 0.20047 0.08002 0.0
C711 C 0.94321 0.17717 0.1179 0.0
C712 C 0.94795 0.18724 0.14143 0.0
C713 C 0.98917 0.20763 0.10368 0.0
C714 C 0.99981 0.22524 0.15069 0.0
C715 C 0.04552 0.25499 0.13677 0.0
H716 H 0.82942 0.96637 0.29826 0.0
H717 H 0.65223 0.89667 0.30056 0.0
H718 H 0.65579 0.95215 0.26847 0.0
H719 H 0.71003 0.02823 0.24222 0.0
H720 H 0.88532 0.09253 0.23645 0.0
H721 H 0.88186 0.03097 0.26688 0.0
C722 C 0.79156 0.96273 0.29152 0.0
C723 C 0.74096 0.92929 0.30267 0.0
C724 C 0.79356 0.99388 0.27233 0.0
C725 C 0.69218 0.92405 0.29322 0.0
C726 C 0.69397 0.95542 0.2746 0.0
C727 C 0.74712 0.02759 0.24728 0.0
C728 C 0.79785 0.06477 0.23736 0.0
C729 C 0.74455 0.99175 0.26448 0.0
C730 C 0.84579 0.06383 0.24388 0.0
C731 C 0.84382 0.02898 0.26139 0.0
H732 H 0.76073 0.78896 0.38989 0.0
H733 H 0.68422 0.83543 0.4424 0.0
H734 H 0.73269 0.81422 0.4713 0.0
H735 H 0.79083 0.77675 0.48207 0.0
H736 H 0.86581 0.72503 0.4311 0.0
H737 H 0.82519 0.75519 0.40125 0.0
C738 C 0.75533 0.79495 0.40765 0.0
C739 C 0.71836 0.81313 0.41397 0.0
C740 C 0.78295 0.78169 0.42448 0.0
C741 C 0.71171 0.82072 0.43705 0.0
C742 C 0.73955 0.80876 0.45365 0.0
C743 C 0.79855 0.77204 0.46446 0.0
C744 C 0.8306 0.74786 0.45886 0.0
C745 C 0.77424 0.78817 0.4476 0.0
C746 C 0.84117 0.74345 0.4359 0.0
C747 C 0.81763 0.76037 0.41883 0.0
H748 H 0.91143 0.79851 0.58299 0.0
H749 H 0.98397 0.7077 0.55438 0.0
H750 H 0.05835 0.74759 0.58284 0.0
H751 H 0.09486 0.79859 0.61875 0.0
H752 H 0.02259 0.89038 0.64705 0.0
H753 H 0.95617 0.86044 0.61569 0.0
C754 C 0.94471 0.78907 0.58261 0.0
C755 C 0.94299 0.75091 0.5666 0.0
C756 C 0.98665 0.81163 0.59915 0.0
C757 C 0.98538 0.7379 0.56633 0.0
C758 C 0.02738 0.76016 0.58275 0.0
C759 C 0.06515 0.81278 0.61785 0.0
C760 C 0.0632 0.84612 0.63537 0.0
C761 C 0.02728 0.79557 0.59971 0.0
C762 C 0.02493 0.86471 0.63383 0.0
C763 C 0.9868 0.84739 0.61594 0.0
H764 H 0.18246 0.87307 0.76878 0.0
H765 H 0.19315 0.97611 0.71236 0.0
H766 H 0.21535 0.05306 0.73849 0.0
H767 H 0.23798 0.09264 0.77742 0.0
H768 H 0.22797 0.98764 0.83304 0.0
H769 H 0.19858 0.90979 0.80719 0.0
C770 C 0.18951 0.91228 0.7621 0.0
C771 C 0.18685 0.91899 0.73859 0.0
C772 C 0.20223 0.95602 0.77715 0.0
C773 C 0.19528 0.96991 0.73037 0.0
C774 C 0.20798 0.0139 0.74532 0.0
C775 C 0.22829 0.05242 0.78389 0.0
C776 C 0.23536 0.04607 0.80716 0.0
C777 C 0.2123 0.00768 0.76876 0.0
C778 C 0.22317 0.99379 0.81524 0.0
C779 C 0.20652 0.94922 0.80044 0.0
H780 H 0.76214 0.75363 0.84699 0.0
H781 H 0.79335 0.89529 0.88731 0.0
H782 H 0.82202 0.85908 0.91929 0.0
H783 H 0.83117 0.78235 0.93673 0.0
H784 H 0.79394 0.63972 0.89546 0.0
H785 H 0.77377 0.68054 0.86335 0.0
C786 C 0.7751 0.77669 0.86277 0.0
C787 C 0.7747 0.82662 0.86482 0.0
C788 C 0.78984 0.75495 0.88116 0.0
C789 C 0.79319 0.85665 0.88523 0.0
C790 C 0.80917 0.8357 0.9036 0.0
C791 C 0.81884 0.76047 0.92069 0.0
C792 C 0.81354 0.70764 0.91875 0.0
C793 C 0.8065 0.78413 0.90195 0.0
C794 C 0.79775 0.68001 0.89772 0.0
C795 C 0.78636 0.70341 0.87918 0.0
H796 H 0.93659 0.72281 0.04377 0.0
H797 H 0.06784 0.813 0.99591 0.0
H798 H 0.13265 0.86107 0.02682 0.0
H799 H 0.15546 0.86559 0.067 0.0
H800 H 0.02718 0.77376 0.11571 0.0
H801 H 0.95755 0.7385 0.08516 0.0
C802 C 0.97885 0.75456 0.0402 0.0
C803 C 0.9975 0.76481 0.0176 0.0
C804 C 0.01661 0.7807 0.05824 0.0
C805 C 0.05261 0.80496 0.01315 0.0
C806 C 0.08979 0.83202 0.03084 0.0
C807 C 0.11204 0.83872 0.07097 0.0
C808 C 0.0964 0.82171 0.09346 0.0
C809 C 0.07283 0.81837 0.05338 0.0
C810 C 0.04008 0.78745 0.0985 0.0
C811 C 1.00042 0.76704 0.08099 0.0
H812 H 0.23459 0.00284 0.18605 0.0
H813 H 0.09786 0.88155 0.2255 0.0
H814 H 0.1327 0.94235 0.25884 0.0
H815 H 0.20762 0.02764 0.27765 0.0
H816 H 0.34629 0.14362 0.23718 0.0
H817 H 0.3059 0.08685 0.20384 0.0
C818 C 0.2123 0.9895 0.20193 0.0
C819 C 0.16422 0.93731 0.20331 0.0
C820 C 0.23357 0.02357 0.22111 0.0
C821 C 0.13505 0.92157 0.2239 0.0
C822 C 0.15529 0.95614 0.24306 0.0
C823 C 0.22875 0.04039 0.26152 0.0
C824 C 0.28038 0.0897 0.26016 0.0
C825 C 0.20542 0.0068 0.24204 0.0
C826 C 0.307 0.10568 0.23901 0.0
C827 C 0.28381 0.07333 0.21975 0.0
H828 H 0.12978 0.22017 0.42664 0.0
H829 H 0.30325 0.33729 0.43604 0.0
H830 H 0.32674 0.29219 0.40603 0.0
H831 H 0.29775 0.22578 0.37517 0.0
H832 H 0.12438 0.11222 0.3629 0.0
H833 H 0.10075 0.14896 0.39619 0.0
C834 C 0.1727 0.23452 0.42248 0.0
C835 C 0.21502 0.28115 0.43373 0.0
C836 C 0.18568 0.20965 0.40451 0.0
C837 C 0.27034 0.30086 0.42781 0.0
C838 C 0.28365 0.27538 0.41055 0.0
C839 C 0.2547 0.20888 0.37962 0.0
C840 C 0.21292 0.16689 0.3662 0.0
C841 C 0.24161 0.23081 0.39841 0.0
C842 C 0.15743 0.14478 0.37278 0.0
C843 C 0.14392 0.16586 0.39181 0.0
H844 H 0.88233 0.17864 0.56926 0.0
H845 H 0.98825 0.20339 0.62664 0.0
H846 H 0.06565 0.22507 0.60097 0.0
H847 H 0.10471 0.24484 0.56204 0.0
H848 H 0.99617 0.21852 0.50529 0.0
H849 H 0.91817 0.1889 0.53089 0.0
C850 C 0.92231 0.18858 0.57621 0.0
C851 C 0.92985 0.19036 0.59983 0.0
C852 C 0.96613 0.20063 0.56141 0.0
C853 C 0.98153 0.2021 0.60852 0.0
C854 C 0.02575 0.21456 0.59383 0.0
C855 C 0.06375 0.23143 0.55527 0.0
C856 C 0.05648 0.23449 0.53175 0.0
C857 C 0.01879 0.21494 0.57021 0.0
C858 C 0.0031 0.21716 0.52329 0.0
C859 C 0.95843 0.20035 0.53794 0.0
H860 H 0.77981 0.07534 0.71208 0.0
H861 H 0.89672 0.02485 0.69243 0.0
H862 H 0.86354 0.95633 0.72301 0.0
H863 H 0.79386 0.90399 0.75281 0.0
H864 H 0.67443 0.95251 0.77031 0.0
H865 H 0.71604 0.0288 0.7432 0.0
C866 C 0.79831 0.04957 0.71449 0.0
C867 C 0.84008 0.05461 0.69974 0.0
C868 C 0.77844 0.00987 0.73178 0.0
C869 C 0.86434 0.02167 0.70348 0.0
C870 C 0.84523 0.98234 0.72091 0.0
C871 C 0.77818 0.93237 0.75101 0.0
C872 C 0.73182 0.92356 0.76361 0.0
C873 C 0.80138 0.97518 0.73485 0.0
C874 C 0.7106 0.95932 0.76091 0.0
C875 C 0.73411 0.00258 0.74533 0.0
loop_
_geom_bond_atom_site_label_1
_geom_bond_atom_site_label_2
_geom_bond_distance
_geom_bond_site_symmetry_2
_ccdc_geom_bond_type
C0 C1 1.351 . S
C0 N3 1.368 . S
C0 H5 0.931 . S
C1 C0 1.351 . S
C1 N2 1.373 . S
C1 H29 0.930 . S
N2 C1 1.373 . S
N2 C4 1.340 . S
N3 C0 1.368 . S
N3 C4 1.321 . S
N3 Co6 2.135 . S
C4 N2 1.340 . S
C4 N3 1.321 . S
C4 H28 0.930 . S
H5 C0 0.931 . S
Co6 N3 2.135 . S
Co6 N9 2.121 1_554 S
Co6 O14 2.055 . S
Co6 O17 2.039 1_554 S
Co6 N20 2.140 . S
C7 O8 1.227 . S
C7 O17 1.265 . S
O8 C7 1.227 . S
N9 Co6 2.121 1_556 S
N9 C11 1.375 . S
N9 C12 1.313 . S
C10 C11 1.338 . S
C10 N13 1.377 . S
C10 H30 0.930 . S
C11 N9 1.375 . S
C11 C10 1.338 . S
C11 H15 0.931 . S
C12 N9 1.313 . S
C12 N13 1.344 . S
C12 H16 0.930 1_556 S
N13 C10 1.377 . S
N13 C12 1.344 . S
O14 Co6 2.055 . S
O14 C18 1.253 . S
H15 C11 0.931 . S
H16 C12 0.930 1_554 S
O17 Co6 2.039 1_556 S
O17 C7 1.265 . S
C18 O14 1.253 . S
C18 O19 1.227 . S
O19 C18 1.227 . S
N20 Co6 2.140 . S
N20 C23 1.346 . S
N20 C24 1.345 . S
C21 C22 1.387 . S
C21 C25 1.391 . S
C22 C21 1.387 . S
C22 C23 1.369 . S
C22 H31 0.929 . S
C23 N20 1.346 . S
C23 C22 1.369 . S
C23 H26 0.928 . S
C24 N20 1.345 . S
C24 C25 1.371 . S
C24 H27 0.931 . S
C25 C21 1.391 . S
C25 C24 1.371 . S
C25 H32 0.930 . S
H26 C23 0.928 . S
H27 C24 0.931 . S
H28 C4 0.930 . S
H29 C1 0.930 . S
H30 C10 0.930 . S
H31 C22 0.929 . S
H32 C25 0.930 . S
C33 C34 1.351 1_655 S
C33 N36 1.368 . S
C33 H38 0.931 . S
C34 C33 1.351 1_455 S
C34 N35 1.373 . S
C34 H62 0.930 . S
N35 C34 1.373 . S
N35 C37 1.340 . S
N36 C33 1.368 . S
N36 C37 1.321 1_655 S
N36 Co39 2.135 . S
C37 N35 1.340 . S
C37 N36 1.321 1_455 S
C37 H61 0.930 . S
H38 C33 0.931 . S
Co39 N36 2.135 . S
Co39 N42 2.121 . S
Co39 O47 2.055 . S
Co39 O50 2.039 . S
Co39 N53 2.140 . S
C40 O41 1.227 . S
C40 O50 1.265 . S
O41 C40 1.227 . S
N42 Co39 2.121 . S
N42 C44 1.375 . S
N42 C45 1.313 . S
C43 C44 1.338 . S
C43 N46 1.377 . S
C43 H63 0.930 . S
C44 N42 1.375 . S
C44 C43 1.338 . S
C44 H48 0.931 . S
C45 N42 1.313 . S
C45 N46 1.344 . S
C45 H49 0.930 . S
N46 C43 1.377 . S
N46 C45 1.344 . S
O47 Co39 2.055 . S
O47 C51 1.253 . S
H48 C44 0.931 . S
H49 C45 0.930 . S
O50 Co39 2.039 . S
O50 C40 1.265 . S
C51 O47 1.253 . S
C51 O52 1.227 . S
O52 C51 1.227 . S
N53 Co39 2.140 . S
N53 C56 1.346 . S
N53 C57 1.345 . S
C54 C55 1.387 . S
C54 C58 1.391 . S
C55 C54 1.387 . S
C55 C56 1.369 . S
C55 H64 0.929 1_655 S
C56 N53 1.346 . S
C56 C55 1.369 . S
C56 H59 0.928 1_655 S
C57 N53 1.345 . S
C57 C58 1.371 . S
C57 H60 0.931 . S
C58 C54 1.391 . S
C58 C57 1.371 . S
C58 H65 0.930 . S
H59 C56 0.928 1_455 S
H60 C57 0.931 . S
H61 C37 0.930 . S
H62 C34 0.930 . S
H63 C43 0.930 . S
H64 C55 0.929 1_455 S
H65 C58 0.930 . S
C66 C67 1.351 1_565 S
C66 N69 1.368 . S
C66 H71 0.931 . S
C67 C66 1.351 1_545 S
C67 N68 1.373 . S
C67 H95 0.930 . S
N68 C67 1.373 . S
N68 C70 1.340 . S
N69 C66 1.368 . S
N69 C70 1.321 1_565 S
N69 Co72 2.135 . S
C70 N68 1.340 . S
C70 N69 1.321 1_545 S
C70 H94 0.930 . S
H71 C66 0.931 . S
Co72 N69 2.135 . S
Co72 N75 2.121 . S
Co72 O80 2.055 . S
Co72 O83 2.039 . S
Co72 N86 2.140 . S
C73 O74 1.227 . S
C73 O83 1.265 . S
O74 C73 1.227 . S
N75 Co72 2.121 . S
N75 C77 1.375 . S
N75 C78 1.313 . S
C76 C77 1.338 . S
C76 N79 1.377 . S
C76 H96 0.930 . S
C77 N75 1.375 . S
C77 C76 1.338 . S
C77 H81 0.931 . S
C78 N75 1.313 . S
C78 N79 1.344 . S
C78 H82 0.930 . S
N79 C76 1.377 . S
N79 C78 1.344 . S
O80 Co72 2.055 . S
O80 C84 1.253 . S
H81 C77 0.931 . S
H82 C78 0.930 . S
O83 Co72 2.039 . S
O83 C73 1.265 . S
C84 O80 1.253 . S
C84 O85 1.227 . S
O85 C84 1.227 . S
N86 Co72 2.140 . S
N86 C89 1.346 . S
N86 C90 1.345 . S
C87 C88 1.387 . S
C87 C91 1.391 . S
C88 C87 1.387 . S
C88 C89 1.369 . S
C88 H97 0.929 1_565 S
C89 N86 1.346 . S
C89 C88 1.369 . S
C89 H92 0.928 1_565 S
C90 N86 1.345 . S
C90 C91 1.371 . S
C90 H93 0.931 . S
C91 C87 1.391 . S
C91 C90 1.371 . S
C91 H98 0.930 . S
H92 C89 0.928 1_545 S
H93 C90 0.931 . S
H94 C70 0.930 . S
H95 C67 0.930 . S
H96 C76 0.930 . S
H97 C88 0.929 1_545 S
H98 C91 0.930 . S
C99 C100 1.351 . S
C99 N102 1.368 . S
C99 H104 0.931 . S
C100 C99 1.351 . S
C100 N101 1.373 . S
C100 H128 0.930 . S
N101 C100 1.373 . S
N101 C103 1.340 . S
N102 C99 1.368 . S
N102 C103 1.321 . S
N102 Co105 2.135 . S
C103 N101 1.340 . S
C103 N102 1.321 . S
C103 H127 0.930 . S
H104 C99 0.931 . S
Co105 N102 2.135 . S
Co105 N108 2.121 . S
Co105 O113 2.055 . S
Co105 O116 2.039 . S
Co105 N119 2.140 . S
C106 O107 1.227 . S
C106 O116 1.265 . S
O107 C106 1.227 . S
N108 Co105 2.121 . S
N108 C110 1.375 . S
N108 C111 1.313 . S
C109 C110 1.338 . S
C109 N112 1.377 . S
C109 H129 0.930 . S
C110 N108 1.375 . S
C110 C109 1.338 . S
C110 H114 0.931 . S
C111 N108 1.313 . S
C111 N112 1.344 . S
C111 H115 0.930 . S
N112 C109 1.377 . S
N112 C111 1.344 . S
O113 Co105 2.055 . S
O113 C117 1.253 . S
H114 C110 0.931 . S
H115 C111 0.930 . S
O116 Co105 2.039 . S
O116 C106 1.265 . S
C117 O113 1.253 . S
C117 O118 1.227 . S
O118 C117 1.227 . S
N119 Co105 2.140 . S
N119 C122 1.346 . S
N119 C123 1.345 . S
C120 C121 1.387 . S
C120 C124 1.391 . S
C121 C120 1.387 . S
C121 C122 1.369 . S
C121 H130 0.929 . S
C122 N119 1.346 . S
C122 C121 1.369 . S
C122 H125 0.928 . S
C123 N119 1.345 . S
C123 C124 1.371 . S
C123 H126 0.931 . S
C124 C120 1.391 . S
C124 C123 1.371 . S
C124 H131 0.930 . S
H125 C122 0.928 . S
H126 C123 0.931 . S
H127 C103 0.930 . S
H128 C100 0.930 . S
H129 C109 0.930 . S
H130 C121 0.929 . S
H131 C124 0.930 . S
C132 C133 1.351 1_455 S
C132 N135 1.368 . S
C132 H137 0.931 . S
C133 C132 1.351 1_655 S
C133 N134 1.373 . S
C133 H161 0.930 . S
N134 C133 1.373 . S
N134 C136 1.340 . S
N135 C132 1.368 . S
N135 C136 1.321 1_455 S
N135 Co138 2.135 . S
C136 N134 1.340 . S
C136 N135 1.321 1_655 S
C136 H160 0.930 . S
H137 C132 0.931 . S
Co138 N135 2.135 . S
Co138 N141 2.121 . S
Co138 O146 2.055 . S
Co138 O149 2.039 . S
Co138 N152 2.140 . S
C139 O140 1.227 . S
C139 O149 1.265 . S
O140 C139 1.227 . S
N141 Co138 2.121 . S
N141 C143 1.375 . S
N141 C144 1.313 . S
C142 C143 1.338 . S
C142 N145 1.377 . S
C142 H162 0.930 . S
C143 N141 1.375 . S
C143 C142 1.338 . S
C143 H147 0.931 . S
C144 N141 1.313 . S
C144 N145 1.344 . S
C144 H148 0.930 . S
N145 C142 1.377 . S
N145 C144 1.344 . S
O146 Co138 2.055 . S
O146 C150 1.253 . S
H147 C143 0.931 . S
H148 C144 0.930 . S
O149 Co138 2.039 . S
O149 C139 1.265 . S
C150 O146 1.253 . S
C150 O151 1.227 . S
O151 C150 1.227 . S
N152 Co138 2.140 . S
N152 C155 1.346 . S
N152 C156 1.345 . S
C153 C154 1.387 . S
C153 C157 1.391 . S
C154 C153 1.387 . S
C154 C155 1.369 . S
C154 H163 0.929 1_455 S
C155 N152 1.346 . S
C155 C154 1.369 . S
C155 H158 0.928 1_455 S
C156 N152 1.345 . S
C156 C157 1.371 . S
C156 H159 0.931 . S
C157 C153 1.391 . S
C157 C156 1.371 . S
C157 H164 0.930 . S
H158 C155 0.928 1_655 S
H159 C156 0.931 . S
H160 C136 0.930 . S
H161 C133 0.930 . S
H162 C142 0.930 . S
H163 C154 0.929 1_655 S
H164 C157 0.930 . S
C165 C166 1.351 1_545 S
C165 N168 1.368 . S
C165 H170 0.931 . S
C166 C165 1.351 1_565 S
C166 N167 1.373 . S
C166 H194 0.930 . S
N167 C166 1.373 . S
N167 C169 1.340 . S
N168 C165 1.368 . S
N168 C169 1.321 1_545 S
N168 Co171 2.135 . S
C169 N167 1.340 . S
C169 N168 1.321 1_565 S
C169 H193 0.930 . S
H170 C165 0.931 . S
Co171 N168 2.135 . S
Co171 N174 2.121 . S
Co171 O179 2.055 . S
Co171 O182 2.039 . S
Co171 N185 2.140 . S
C172 O173 1.227 . S
C172 O182 1.265 . S
O173 C172 1.227 . S
N174 Co171 2.121 . S
N174 C176 1.375 . S
N174 C177 1.313 . S
C175 C176 1.338 . S
C175 N178 1.377 . S
C175 H195 0.930 . S
C176 N174 1.375 . S
C176 C175 1.338 . S
C176 H180 0.931 . S
C177 N174 1.313 . S
C177 N178 1.344 . S
C177 H181 0.930 . S
N178 C175 1.377 . S
N178 C177 1.344 . S
O179 Co171 2.055 . S
O179 C183 1.253 . S
H180 C176 0.931 . S
H181 C177 0.930 . S
O182 Co171 2.039 . S
O182 C172 1.265 . S
C183 O179 1.253 . S
C183 O184 1.227 . S
O184 C183 1.227 . S
N185 Co171 2.140 . S
N185 C188 1.346 . S
N185 C189 1.345 . S
C186 C187 1.387 . S
C186 C190 1.391 . S
C187 C186 1.387 . S
C187 C188 1.369 . S
C187 H196 0.929 1_545 S
C188 N185 1.346 . S
C188 C187 1.369 . S
C188 H191 0.928 1_545 S
C189 N185 1.345 . S
C189 C190 1.371 . S
C189 H192 0.931 . S
C190 C186 1.391 . S
C190 C189 1.371 . S
C190 H197 0.930 . S
H191 C188 0.928 1_565 S
H192 C189 0.931 . S
H193 C169 0.930 . S
H194 C166 0.930 . S
H195 C175 0.930 . S
H196 C187 0.929 1_565 S
H197 C190 0.930 . S
C198 C199 1.351 . S
C198 N201 1.368 . S
C198 H203 0.931 . S
C199 C198 1.351 . S
C199 N200 1.373 . S
C199 H227 0.930 . S
N200 C199 1.373 . S
N200 C202 1.340 . S
N201 C198 1.368 . S
N201 C202 1.321 . S
N201 Co204 2.135 . S
C202 N200 1.340 . S
C202 N201 1.321 . S
C202 H226 0.930 . S
H203 C198 0.931 . S
Co204 N201 2.135 . S
Co204 N207 2.121 . S
Co204 O212 2.055 . S
Co204 O215 2.039 . S
Co204 N218 2.140 . S
C205 O206 1.227 . S
C205 O215 1.265 . S
O206 C205 1.227 . S
N207 Co204 2.121 . S
N207 C209 1.375 . S
N207 C210 1.313 . S
C208 C209 1.338 . S
C208 N211 1.377 . S
C208 H228 0.930 . S
C209 N207 1.375 . S
C209 C208 1.338 . S
C209 H213 0.931 . S
C210 N207 1.313 . S
C210 N211 1.344 . S
C210 H214 0.930 . S
N211 C208 1.377 . S
N211 C210 1.344 . S
O212 Co204 2.055 . S
O212 C216 1.253 . S
H213 C209 0.931 . S
H214 C210 0.930 . S
O215 Co204 2.039 . S
O215 C205 1.265 . S
C216 O212 1.253 . S
C216 O217 1.227 . S
O217 C216 1.227 . S
N218 Co204 2.140 . S
N218 C221 1.346 . S
N218 C222 1.345 . S
C219 C220 1.387 . S
C219 C223 1.391 . S
C220 C219 1.387 . S
C220 C221 1.369 . S
C220 H229 0.929 . S
C221 N218 1.346 . S
C221 C220 1.369 . S
C221 H224 0.928 . S
C222 N218 1.345 . S
C222 C223 1.371 . S
C222 H225 0.931 . S
C223 C219 1.391 . S
C223 C222 1.371 . S
C223 H230 0.930 . S
H224 C221 0.928 . S
H225 C222 0.931 . S
H226 C202 0.930 . S
H227 C199 0.930 . S
H228 C208 0.930 . S
H229 C220 0.929 . S
H230 C223 0.930 . S
C231 C232 1.351 1_655 S
C231 N234 1.368 . S
C231 H236 0.931 . S
C232 C231 1.351 1_455 S
C232 N233 1.373 . S
C232 H260 0.930 . S
N233 C232 1.373 . S
N233 C235 1.340 . S
N234 C231 1.368 . S
N234 C235 1.321 1_655 S
N234 Co237 2.135 . S
C235 N233 1.340 . S
C235 N234 1.321 1_455 S
C235 H259 0.930 . S
H236 C231 0.931 . S
Co237 N234 2.135 . S
Co237 N240 2.110 1_556 S
Co237 O245 2.055 . S
Co237 O248 2.039 1_556 S
Co237 N251 2.140 . S
C238 O239 1.227 . S
C238 O248 1.265 . S
O239 C238 1.227 . S
N240 Co237 2.110 1_554 S
N240 C242 1.392 . S
N240 C243 1.309 1_554 S
C241 C242 1.338 . S
C241 N244 1.377 . S
C241 H261 0.930 . S
C242 N240 1.392 . S
C242 C241 1.338 . S
C242 H246 0.931 . S
C243 N240 1.309 1_556 S
C243 N244 1.344 1_556 S
C243 H247 0.930 . S
N244 C241 1.377 . S
N244 C243 1.344 1_554 S
O245 Co237 2.055 . S
O245 C249 1.253 . S
H246 C242 0.931 . S
H247 C243 0.930 . S
O248 Co237 2.039 1_554 S
O248 C238 1.265 . S
C249 O245 1.253 . S
C249 O250 1.227 . S
O250 C249 1.227 . S
N251 Co237 2.140 . S
N251 C254 1.346 . S
N251 C255 1.345 . S
C252 C253 1.387 . S
C252 C256 1.391 . S
C253 C252 1.387 . S
C253 C254 1.369 . S
C253 H262 0.929 1_655 S
C254 N251 1.346 . S
C254 C253 1.369 . S
C254 H257 0.928 1_655 S
C255 N251 1.345 . S
C255 C256 1.371 . S
C255 H258 0.931 . S
C256 C252 1.391 . S
C256 C255 1.371 . S
C256 H263 0.930 . S
H257 C254 0.928 1_455 S
H258 C255 0.931 . S
H259 C235 0.930 . S
H260 C232 0.930 . S
H261 C241 0.930 . S
H262 C253 0.929 1_455 S
H263 C256 0.930 . S
C264 C265 1.351 1_565 S
C264 N267 1.368 . S
C264 H269 0.931 . S
C265 C264 1.351 1_545 S
C265 N266 1.373 . S
C265 H293 0.930 . S
N266 C265 1.373 . S
N266 C268 1.340 . S
N267 C264 1.368 . S
N267 C268 1.321 1_565 S
N267 Co270 2.135 . S
C268 N266 1.340 . S
C268 N267 1.321 1_545 S
C268 H292 0.930 . S
H269 C264 0.931 . S
Co270 N267 2.135 . S
Co270 N273 2.121 . S
Co270 O278 2.055 . S
Co270 O281 2.039 . S
Co270 N284 2.140 . S
C271 O272 1.227 . S
C271 O281 1.265 . S
O272 C271 1.227 . S
N273 Co270 2.121 . S
N273 C275 1.375 . S
N273 C276 1.313 . S
C274 C275 1.338 . S
C274 N277 1.377 . S
C274 H294 0.930 . S
C275 N273 1.375 . S
C275 C274 1.338 . S
C275 H279 0.931 . S
C276 N273 1.313 . S
C276 N277 1.344 . S
C276 H280 0.930 . S
N277 C274 1.377 . S
N277 C276 1.344 . S
O278 Co270 2.055 . S
O278 C282 1.253 . S
H279 C275 0.931 . S
H280 C276 0.930 . S
O281 Co270 2.039 . S
O281 C271 1.265 . S
C282 O278 1.253 . S
C282 O283 1.227 . S
O283 C282 1.227 . S
N284 Co270 2.140 . S
N284 C287 1.346 . S
N284 C288 1.345 . S
C285 C286 1.387 . S
C285 C289 1.391 . S
C286 C285 1.387 . S
C286 C287 1.369 . S
C286 H295 0.929 1_565 S
C287 N284 1.346 . S
C287 C286 1.369 . S
C287 H290 0.928 1_565 S
C288 N284 1.345 . S
C288 C289 1.371 . S
C288 H291 0.931 . S
C289 C285 1.391 . S
C289 C288 1.371 . S
C289 H296 0.930 . S
H290 C287 0.928 1_545 S
H291 C288 0.931 . S
H292 C268 0.930 . S
H293 C265 0.930 . S
H294 C274 0.930 . S
H295 C286 0.929 1_545 S
H296 C289 0.930 . S
C297 C298 1.351 . S
C297 N300 1.368 . S
C297 H302 0.931 . S
C298 C297 1.351 . S
C298 N299 1.373 . S
C298 H326 0.930 . S
N299 C298 1.373 . S
N299 C301 1.340 . S
N300 C297 1.368 . S
N300 C301 1.321 . S
N300 Co303 2.135 . S
C301 N299 1.340 . S
C301 N300 1.321 . S
C301 H325 0.930 . S
H302 C297 0.931 . S
Co303 N300 2.135 . S
Co303 N306 2.121 . S
Co303 O311 2.055 . S
Co303 O314 2.039 . S
Co303 N317 2.140 . S
C304 O305 1.227 . S
C304 O314 1.265 . S
O305 C304 1.227 . S
N306 Co303 2.121 . S
N306 C308 1.375 . S
N306 C309 1.313 . S
C307 C308 1.338 . S
C307 N310 1.377 . S
C307 H327 0.930 . S
C308 N306 1.375 . S
C308 C307 1.338 . S
C308 H312 0.931 . S
C309 N306 1.313 . S
C309 N310 1.344 . S
C309 H313 0.930 . S
N310 C307 1.377 . S
N310 C309 1.344 . S
O311 Co303 2.055 . S
O311 C315 1.253 . S
H312 C308 0.931 . S
H313 C309 0.930 . S
O314 Co303 2.039 . S
O314 C304 1.265 . S
C315 O311 1.253 . S
C315 O316 1.227 . S
O316 C315 1.227 . S
N317 Co303 2.140 . S
N317 C320 1.346 . S
N317 C321 1.345 . S
C318 C319 1.387 . S
C318 C322 1.391 . S
C319 C318 1.387 . S
C319 C320 1.369 . S
C319 H328 0.929 . S
C320 N317 1.346 . S
C320 C319 1.369 . S
C320 H323 0.928 . S
C321 N317 1.345 . S
C321 C322 1.371 . S
C321 H324 0.931 . S
C322 C318 1.391 . S
C322 C321 1.371 . S
C322 H329 0.930 . S
H323 C320 0.928 . S
H324 C321 0.931 . S
H325 C301 0.930 . S
H326 C298 0.930 . S
H327 C307 0.930 . S
H328 C319 0.929 . S
H329 C322 0.930 . S
C330 C331 1.351 1_455 S
C330 N333 1.368 . S
C330 H335 0.931 . S
C331 C330 1.351 1_655 S
C331 N332 1.373 . S
C331 H359 0.930 . S
N332 C331 1.373 . S
N332 C334 1.340 . S
N333 C330 1.368 . S
N333 C334 1.321 1_455 S
N333 Co336 2.135 . S
C334 N332 1.340 . S
C334 N333 1.321 1_655 S
C334 H358 0.930 . S
H335 C330 0.931 . S
Co336 N333 2.135 . S
Co336 N339 2.121 . S
Co336 O344 2.055 . S
Co336 O347 2.039 . S
Co336 N350 2.140 . S
C337 O338 1.227 . S
C337 O347 1.265 . S
O338 C337 1.227 . S
N339 Co336 2.121 . S
N339 C341 1.375 . S
N339 C342 1.313 . S
C340 C341 1.338 . S
C340 N343 1.377 . S
C340 H360 0.930 . S
C341 N339 1.375 . S
C341 C340 1.338 . S
C341 H345 0.931 . S
C342 N339 1.313 . S
C342 N343 1.344 . S
C342 H346 0.930 . S
N343 C340 1.377 . S
N343 C342 1.344 . S
O344 Co336 2.055 . S
O344 C348 1.253 . S
H345 C341 0.931 . S
H346 C342 0.930 . S
O347 Co336 2.039 . S
O347 C337 1.265 . S
C348 O344 1.253 . S
C348 O349 1.227 . S
O349 C348 1.227 . S
N350 Co336 2.140 . S
N350 C353 1.346 . S
N350 C354 1.345 . S
C351 C352 1.387 . S
C351 C355 1.391 . S
C352 C351 1.387 . S
C352 C353 1.369 . S
C352 H361 0.929 1_455 S
C353 N350 1.346 . S
C353 C352 1.369 . S
C353 H356 0.928 1_455 S
C354 N350 1.345 . S
C354 C355 1.371 . S
C354 H357 0.931 . S
C355 C351 1.391 . S
C355 C354 1.371 . S
C355 H362 0.930 . S
H356 C353 0.928 1_655 S
H357 C354 0.931 . S
H358 C334 0.930 . S
H359 C331 0.930 . S
H360 C340 0.930 . S
H361 C352 0.929 1_655 S
H362 C355 0.930 . S
C363 C364 1.351 1_545 S
C363 N366 1.368 . S
C363 H368 0.931 . S
C364 C363 1.351 1_565 S
C364 N365 1.373 . S
C364 H392 0.930 . S
N365 C364 1.373 . S
N365 C367 1.340 . S
N366 C363 1.368 . S
N366 C367 1.321 1_545 S
N366 Co369 2.135 . S
C367 N365 1.340 . S
C367 N366 1.321 1_565 S
C367 H391 0.930 . S
H368 C363 0.931 . S
Co369 N366 2.135 . S
Co369 N372 2.121 . S
Co369 O377 2.055 . S
Co369 O380 2.039 . S
Co369 N383 2.140 . S
C370 O371 1.227 . S
C370 O380 1.265 . S
O371 C370 1.227 . S
N372 Co369 2.121 . S
N372 C374 1.375 . S
N372 C375 1.313 . S
C373 C374 1.338 . S
C373 N376 1.377 . S
C373 H393 0.930 . S
C374 N372 1.375 . S
C374 C373 1.338 . S
C374 H378 0.931 . S
C375 N372 1.313 . S
C375 N376 1.344 . S
C375 H379 0.930 . S
N376 C373 1.377 . S
N376 C375 1.344 . S
O377 Co369 2.055 . S
O377 C381 1.253 . S
H378 C374 0.931 . S
H379 C375 0.930 . S
O380 Co369 2.039 . S
O380 C370 1.265 . S
C381 O377 1.253 . S
C381 O382 1.227 . S
O382 C381 1.227 . S
N383 Co369 2.140 . S
N383 C386 1.346 . S
N383 C387 1.345 . S
C384 C385 1.387 . S
C384 C388 1.391 . S
C385 C384 1.387 . S
C385 C386 1.369 . S
C385 H394 0.929 1_545 S
C386 N383 1.346 . S
C386 C385 1.369 . S
C386 H389 0.928 1_545 S
C387 N383 1.345 . S
C387 C388 1.371 . S
C387 H390 0.931 . S
C388 C384 1.391 . S
C388 C387 1.371 . S
C388 H395 0.930 . S
H389 C386 0.928 1_565 S
H390 C387 0.931 . S
H391 C367 0.930 . S
H392 C364 0.930 . S
H393 C373 0.930 . S
H394 C385 0.929 1_565 S
H395 C388 0.930 . S
H396 C402 0.930 . S
H397 C405 0.930 . S
H398 C406 0.930 . S
H399 C407 0.930 . S
H400 C410 0.930 . S
H401 C411 0.930 . S
C402 H396 0.930 . S
C402 C403 1.355 . S
C402 C404 1.415 . S
C403 C402 1.355 . S
C403 C405 1.419 . S
C404 C402 1.415 . S
C404 C409 1.425 . S
C404 C411 1.409 . S
C405 H397 0.930 . S
C405 C403 1.419 . S
C405 C406 1.362 . S
C406 H398 0.930 . S
C406 C405 1.362 . S
C406 C409 1.409 . S
C407 H399 0.930 . S
C407 C408 1.355 . S
C407 C409 1.415 . S
C408 C407 1.355 . S
C408 C410 1.419 . S
C409 C404 1.425 . S
C409 C406 1.409 . S
C409 C407 1.415 . S
C410 H400 0.930 . S
C410 C408 1.419 . S
C410 C411 1.362 . S
C411 H401 0.930 . S
C411 C404 1.409 . S
C411 C410 1.362 . S
H412 C418 0.930 . S
H413 C421 0.930 . S
H414 C422 0.930 . S
H415 C423 0.930 . S
H416 C426 0.930 . S
H417 C427 0.930 . S
C418 H412 0.930 . S
C418 C419 1.355 . S
C418 C420 1.415 . S
C419 C418 1.355 . S
C419 C421 1.419 . S
C420 C418 1.415 . S
C420 C425 1.425 . S
C420 C427 1.409 . S
C421 H413 0.930 . S
C421 C419 1.419 . S
C421 C422 1.362 . S
C422 H414 0.930 . S
C422 C421 1.362 . S
C422 C425 1.409 . S
C423 H415 0.930 . S
C423 C424 1.355 . S
C423 C425 1.415 . S
C424 C423 1.355 . S
C424 C426 1.419 . S
C425 C420 1.425 . S
C425 C422 1.409 . S
C425 C423 1.415 . S
C426 H416 0.930 . S
C426 C424 1.419 . S
C426 C427 1.362 . S
C427 H417 0.930 . S
C427 C420 1.409 . S
C427 C426 1.362 . S
H428 C434 0.930 . S
H429 C437 0.930 . S
H430 C438 0.930 . S
H431 C439 0.930 . S
H432 C442 0.930 . S
H433 C443 0.930 . S
C434 H428 0.930 . S
C434 C435 1.355 . S
C434 C436 1.415 . S
C435 C434 1.355 . S
C435 C437 1.419 . S
C436 C434 1.415 . S
C436 C441 1.425 . S
C436 C443 1.409 . S
C437 H429 0.930 . S
C437 C435 1.419 . S
C437 C438 1.362 . S
C438 H430 0.930 . S
C438 C437 1.362 . S
C438 C441 1.409 . S
C439 H431 0.930 . S
C439 C440 1.355 . S
C439 C441 1.415 . S
C440 C439 1.355 . S
C440 C442 1.419 . S
C441 C436 1.425 . S
C441 C438 1.409 . S
C441 C439 1.415 . S
C442 H432 0.930 . S
C442 C440 1.419 . S
C442 C443 1.362 . S
C443 H433 0.930 . S
C443 C436 1.409 . S
C443 C442 1.362 . S
H444 C450 0.930 . S
H445 C453 0.930 . S
H446 C454 0.930 . S
H447 C455 0.930 . S
H448 C458 0.930 . S
H449 C459 0.930 . S
C450 H444 0.930 . S
C450 C451 1.355 . S
C450 C452 1.415 . S
C451 C450 1.355 . S
C451 C453 1.419 . S
C452 C450 1.415 . S
C452 C457 1.425 . S
C452 C459 1.409 . S
C453 H445 0.930 . S
C453 C451 1.419 . S
C453 C454 1.362 . S
C454 H446 0.930 . S
C454 C453 1.362 . S
C454 C457 1.409 . S
C455 H447 0.930 . S
C455 C456 1.355 . S
C455 C457 1.415 . S
C456 C455 1.355 . S
C456 C458 1.419 . S
C457 C452 1.425 . S
C457 C454 1.409 . S
C457 C455 1.415 . S
C458 H448 0.930 . S
C458 C456 1.419 . S
C458 C459 1.362 . S
C459 H449 0.930 . S
C459 C452 1.409 . S
C459 C458 1.362 . S
H460 C466 0.930 . S
H461 C469 0.930 . S
H462 C470 0.930 . S
H463 C471 0.930 . S
H464 C474 0.930 . S
H465 C475 0.930 . S
C466 H460 0.930 . S
C466 C467 1.355 . S
C466 C468 1.415 . S
C467 C466 1.355 . S
C467 C469 1.419 . S
C468 C466 1.415 . S
C468 C473 1.425 . S
C468 C475 1.409 . S
C469 H461 0.930 . S
C469 C467 1.419 . S
C469 C470 1.362 . S
C470 H462 0.930 . S
C470 C469 1.362 . S
C470 C473 1.409 . S
C471 H463 0.930 . S
C471 C472 1.355 . S
C471 C473 1.415 . S
C472 C471 1.355 . S
C472 C474 1.419 . S
C473 C468 1.425 . S
C473 C470 1.409 . S
C473 C471 1.415 . S
C474 H464 0.930 . S
C474 C472 1.419 . S
C474 C475 1.362 . S
C475 H465 0.930 . S
C475 C468 1.409 . S
C475 C474 1.362 . S
H476 C482 0.930 . S
H477 C485 0.930 . S
H478 C486 0.930 . S
H479 C487 0.930 . S
H480 C490 0.930 . S
H481 C491 0.930 . S
C482 H476 0.930 . S
C482 C483 1.355 . S
C482 C484 1.415 . S
C483 C482 1.355 . S
C483 C485 1.419 . S
C484 C482 1.415 . S
C484 C489 1.425 . S
C484 C491 1.409 . S
C485 H477 0.930 . S
C485 C483 1.419 . S
C485 C486 1.362 . S
C486 H478 0.930 . S
C486 C485 1.362 . S
C486 C489 1.409 . S
C487 H479 0.930 . S
C487 C488 1.355 . S
C487 C489 1.415 . S
C488 C487 1.355 . S
C488 C490 1.419 . S
C489 C484 1.425 . S
C489 C486 1.409 . S
C489 C487 1.415 . S
C490 H480 0.930 . S
C490 C488 1.419 . S
C490 C491 1.362 . S
C491 H481 0.930 . S
C491 C484 1.409 . S
C491 C490 1.362 . S
H492 C498 0.930 . S
H493 C501 0.930 . S
H494 C502 0.930 . S
H495 C503 0.916 1_556 S
H496 C506 0.930 . S
H497 C507 0.930 . S
C498 H492 0.930 . S
C498 C499 1.355 . S
C498 C500 1.415 . S
C499 C498 1.355 . S
C499 C501 1.419 1_554 S
C500 C498 1.415 . S
C500 C505 1.425 . S
C500 C507 1.409 . S
C501 H493 0.930 . S
C501 C499 1.419 1_556 S
C501 C502 1.362 . S
C502 H494 0.930 . S
C502 C501 1.362 . S
C502 C505 1.409 1_556 S
C503 H495 0.916 1_554 S
C503 C504 1.367 . S
C503 C505 1.416 . S
C504 C503 1.367 . S
C504 C506 1.419 . S
C505 C500 1.425 . S
C505 C502 1.409 1_554 S
C505 C503 1.416 . S
C506 H496 0.930 . S
C506 C504 1.419 . S
C506 C507 1.362 . S
C507 H497 0.930 . S
C507 C500 1.409 . S
C507 C506 1.362 . S
H508 C514 0.930 1_655 S
H509 C517 0.930 . S
H510 C518 0.930 . S
H511 C519 0.930 . S
H512 C522 0.930 . S
H513 C523 0.930 . S
C514 H508 0.930 1_455 S
C514 C515 1.355 1_455 S
C514 C516 1.415 . S
C515 C514 1.355 1_655 S
C515 C517 1.419 1_655 S
C516 C514 1.415 . S
C516 C521 1.425 . S
C516 C523 1.409 . S
C517 H509 0.930 . S
C517 C515 1.419 1_455 S
C517 C518 1.362 . S
C518 H510 0.930 . S
C518 C517 1.362 . S
C518 C521 1.409 . S
C519 H511 0.930 . S
C519 C520 1.355 . S
C519 C521 1.415 . S
C520 C519 1.355 . S
C520 C522 1.419 . S
C521 C516 1.425 . S
C521 C518 1.409 . S
C521 C519 1.415 . S
C522 H512 0.930 . S
C522 C520 1.419 . S
C522 C523 1.362 . S
C523 H513 0.930 . S
C523 C516 1.409 . S
C523 C522 1.362 . S
H524 C530 0.930 . S
H525 C533 0.930 . S
H526 C534 0.930 . S
H527 C535 0.930 . S
H528 C538 0.930 . S
H529 C539 0.930 . S
C530 H524 0.930 . S
C530 C531 1.355 . S
C530 C532 1.415 . S
C531 C530 1.355 . S
C531 C533 1.419 . S
C532 C530 1.415 . S
C532 C537 1.425 . S
C532 C539 1.409 1_545 S
C533 H525 0.930 . S
C533 C531 1.419 . S
C533 C534 1.362 . S
C534 H526 0.930 . S
C534 C533 1.362 . S
C534 C537 1.409 . S
C535 H527 0.930 . S
C535 C536 1.355 1_545 S
C535 C537 1.415 . S
C536 C535 1.355 1_565 S
C536 C538 1.419 . S
C537 C532 1.425 . S
C537 C534 1.409 . S
C537 C535 1.415 . S
C538 H528 0.930 . S
C538 C536 1.419 . S
C538 C539 1.362 . S
C539 H529 0.930 . S
C539 C532 1.409 1_565 S
C539 C538 1.362 . S
H540 C546 0.930 . S
H541 C549 0.930 . S
H542 C550 0.930 . S
H543 C551 0.930 . S
H544 C554 0.930 . S
H545 C555 0.930 . S
C546 H540 0.930 . S
C546 C547 1.355 . S
C546 C548 1.415 . S
C547 C546 1.355 . S
C547 C549 1.419 . S
C548 C546 1.415 . S
C548 C553 1.425 . S
C548 C555 1.409 . S
C549 H541 0.930 . S
C549 C547 1.419 . S
C549 C550 1.362 . S
C550 H542 0.930 . S
C550 C549 1.362 . S
C550 C553 1.409 . S
C551 H543 0.930 . S
C551 C552 1.355 . S
C551 C553 1.415 . S
C552 C551 1.355 . S
C552 C554 1.419 . S
C553 C548 1.425 . S
C553 C550 1.409 . S
C553 C551 1.415 . S
C554 H544 0.930 . S
C554 C552 1.419 . S
C554 C555 1.362 . S
C555 H545 0.930 . S
C555 C548 1.409 . S
C555 C554 1.362 . S
H556 C562 0.930 . S
H557 C565 0.930 . S
H558 C566 0.930 . S
H559 C567 0.930 . S
H560 C570 0.930 . S
H561 C571 0.930 . S
C562 H556 0.930 . S
C562 C563 1.355 . S
C562 C564 1.415 . S
C563 C562 1.355 . S
C563 C565 1.419 . S
C564 C562 1.415 . S
C564 C569 1.425 . S
C564 C571 1.409 1_655 S
C565 H557 0.930 . S
C565 C563 1.419 . S
C565 C566 1.362 . S
C566 H558 0.930 . S
C566 C565 1.362 . S
C566 C569 1.409 . S
C567 H559 0.930 . S
C567 C568 1.355 1_655 S
C567 C569 1.415 . S
C568 C567 1.355 1_455 S
C568 C570 1.419 . S
C569 C564 1.425 . S
C569 C566 1.409 . S
C569 C567 1.415 . S
C570 H560 0.930 . S
C570 C568 1.419 . S
C570 C571 1.362 . S
C571 H561 0.930 . S
C571 C564 1.409 1_455 S
C571 C570 1.362 . S
H572 C578 0.930 . S
H573 C581 0.930 . S
H574 C582 0.930 1_545 S
H575 C583 0.930 . S
H576 C586 0.930 . S
H577 C587 0.930 . S
C578 H572 0.930 . S
C578 C579 1.355 . S
C578 C580 1.415 . S
C579 C578 1.355 . S
C579 C581 1.419 . S
C580 C578 1.415 . S
C580 C585 1.425 . S
C580 C587 1.409 . S
C581 H573 0.930 . S
C581 C579 1.419 . S
C581 C582 1.362 . S
C582 H574 0.930 1_565 S
C582 C581 1.362 . S
C582 C585 1.409 . S
C583 H575 0.930 . S
C583 C584 1.355 . S
C583 C585 1.415 1_545 S
C584 C583 1.355 . S
C584 C586 1.419 1_545 S
C585 C580 1.425 . S
C585 C582 1.409 . S
C585 C583 1.415 1_565 S
C586 H576 0.930 . S
C586 C584 1.419 1_565 S
C586 C587 1.362 . S
C587 H577 0.930 . S
C587 C580 1.409 . S
C587 C586 1.362 . S
H588 C594 0.930 . S
H589 C597 0.930 . S
H590 C598 0.930 . S
H591 C599 0.930 . S
H592 C602 0.930 . S
H593 C603 0.930 . S
C594 H588 0.930 . S
C594 C595 1.355 . S
C594 C596 1.415 . S
C595 C594 1.355 . S
C595 C597 1.419 . S
C596 C594 1.415 . S
C596 C601 1.425 . S
C596 C603 1.409 . S
C597 H589 0.930 . S
C597 C595 1.419 . S
C597 C598 1.362 . S
C598 H590 0.930 . S
C598 C597 1.362 . S
C598 C601 1.409 . S
C599 H591 0.930 . S
C599 C600 1.355 . S
C599 C601 1.415 . S
C600 C599 1.355 . S
C600 C602 1.419 . S
C601 C596 1.425 . S
C601 C598 1.409 . S
C601 C599 1.415 . S
C602 H592 0.930 . S
C602 C600 1.419 . S
C602 C603 1.362 . S
C603 H593 0.930 . S
C603 C596 1.409 . S
C603 C602 1.362 . S
H604 C610 0.930 . S
H605 C613 0.930 . S
H606 C614 0.930 . S
H607 C615 0.930 . S
H608 C618 0.930 . S
H609 C619 0.930 1_655 S
C610 H604 0.930 . S
C610 C611 1.355 . S
C610 C612 1.415 1_655 S
C611 C610 1.355 . S
C611 C613 1.419 1_655 S
C612 C610 1.415 1_455 S
C612 C617 1.425 . S
C612 C619 1.409 . S
C613 H605 0.930 . S
C613 C611 1.419 1_455 S
C613 C614 1.362 . S
C614 H606 0.930 . S
C614 C613 1.362 . S
C614 C617 1.409 . S
C615 H607 0.930 . S
C615 C616 1.355 . S
C615 C617 1.415 . S
C616 C615 1.355 . S
C616 C618 1.419 . S
C617 C612 1.425 . S
C617 C614 1.409 . S
C617 C615 1.415 . S
C618 H608 0.930 . S
C618 C616 1.419 . S
C618 C619 1.362 . S
C619 H609 0.930 1_455 S
C619 C612 1.409 . S
C619 C618 1.362 . S
H620 C626 0.930 . S
H621 C629 0.930 . S
H622 C630 0.930 . S
H623 C631 0.930 . S
H624 C634 0.930 . S
H625 C635 0.930 . S
C626 H620 0.930 . S
C626 C627 1.355 1_545 S
C626 C628 1.415 . S
C627 C626 1.355 1_565 S
C627 C629 1.419 . S
C628 C626 1.415 . S
C628 C633 1.425 . S
C628 C635 1.409 . S
C629 H621 0.930 . S
C629 C627 1.419 . S
C629 C630 1.362 . S
C630 H622 0.930 . S
C630 C629 1.362 . S
C630 C633 1.409 1_565 S
C631 H623 0.930 . S
C631 C632 1.355 . S
C631 C633 1.415 . S
C632 C631 1.355 . S
C632 C634 1.419 . S
C633 C628 1.425 . S
C633 C630 1.409 1_545 S
C633 C631 1.415 . S
C634 H624 0.930 . S
C634 C632 1.419 . S
C634 C635 1.362 . S
C635 H625 0.930 . S
C635 C628 1.409 . S
C635 C634 1.362 . S
H636 C642 0.930 . S
H637 C645 0.930 . S
H638 C646 0.930 . S
H639 C647 0.930 . S
H640 C650 0.930 . S
H641 C651 0.930 . S
C642 H636 0.930 . S
C642 C643 1.355 . S
C642 C644 1.415 . S
C643 C642 1.355 . S
C643 C645 1.419 . S
C644 C642 1.415 . S
C644 C649 1.425 . S
C644 C651 1.409 . S
C645 H637 0.930 . S
C645 C643 1.419 . S
C645 C646 1.362 . S
C646 H638 0.930 . S
C646 C645 1.362 . S
C646 C649 1.409 . S
C647 H639 0.930 . S
C647 C648 1.355 . S
C647 C649 1.415 . S
C648 C647 1.355 . S
C648 C650 1.419 . S
C649 C644 1.425 . S
C649 C646 1.409 . S
C649 C647 1.415 . S
C650 H640 0.930 . S
C650 C648 1.419 . S
C650 C651 1.362 . S
C651 H641 0.930 . S
C651 C644 1.409 . S
C651 C650 1.362 . S
H652 C658 0.930 . S
H653 C661 0.930 . S
H654 C662 0.930 . S
H655 C663 0.930 . S
H656 C666 0.930 . S
H657 C667 0.930 . S
C658 H652 0.930 . S
C658 C659 1.355 . S
C658 C660 1.415 . S
C659 C658 1.355 . S
C659 C661 1.419 . S
C660 C658 1.415 . S
C660 C665 1.425 . S
C660 C667 1.409 . S
C661 H653 0.930 . S
C661 C659 1.419 . S
C661 C662 1.362 . S
C662 H654 0.930 . S
C662 C661 1.362 . S
C662 C665 1.409 . S
C663 H655 0.930 . S
C663 C664 1.355 1_655 S
C663 C665 1.415 . S
C664 C663 1.355 1_455 S
C664 C666 1.419 . S
C665 C660 1.425 . S
C665 C662 1.409 . S
C665 C663 1.415 . S
C666 H656 0.930 . S
C666 C664 1.419 . S
C666 C667 1.362 1_455 S
C667 H657 0.930 . S
C667 C660 1.409 . S
C667 C666 1.362 1_655 S
H668 C674 0.930 . S
H669 C677 0.930 . S
H670 C678 0.930 1_545 S
H671 C679 0.930 . S
H672 C682 0.930 . S
H673 C683 0.930 . S
C674 H668 0.930 . S
C674 C675 1.355 . S
C674 C676 1.415 . S
C675 C674 1.355 . S
C675 C677 1.419 . S
C676 C674 1.415 . S
C676 C681 1.425 . S
C676 C683 1.409 . S
C677 H669 0.930 . S
C677 C675 1.419 . S
C677 C678 1.362 . S
C678 H670 0.930 1_565 S
C678 C677 1.362 . S
C678 C681 1.409 . S
C679 H671 0.930 . S
C679 C680 1.355 . S
C679 C681 1.415 1_545 S
C680 C679 1.355 . S
C680 C682 1.419 1_545 S
C681 C676 1.425 . S
C681 C678 1.409 . S
C681 C679 1.415 1_565 S
C682 H672 0.930 . S
C682 C680 1.419 1_565 S
C682 C683 1.362 . S
C683 H673 0.930 . S
C683 C676 1.409 . S
C683 C682 1.362 . S
H684 C690 0.930 . S
H685 C693 0.930 . S
H686 C694 0.930 . S
H687 C695 0.930 . S
H688 C698 0.930 . S
H689 C699 0.930 . S
C690 H684 0.930 . S
C690 C691 1.355 . S
C690 C692 1.415 . S
C691 C690 1.355 . S
C691 C693 1.419 . S
C692 C690 1.415 . S
C692 C697 1.425 . S
C692 C699 1.409 . S
C693 H685 0.930 . S
C693 C691 1.419 . S
C693 C694 1.362 . S
C694 H686 0.930 . S
C694 C693 1.362 . S
C694 C697 1.409 . S
C695 H687 0.930 . S
C695 C696 1.355 . S
C695 C697 1.415 . S
C696 C695 1.355 . S
C696 C698 1.419 . S
C697 C692 1.425 . S
C697 C694 1.409 . S
C697 C695 1.415 . S
C698 H688 0.930 . S
C698 C696 1.419 . S
C698 C699 1.362 . S
C699 H689 0.930 . S
C699 C692 1.409 . S
C699 C698 1.362 . S
H700 C706 0.930 . S
H701 C709 0.930 . S
H702 C710 0.930 1_655 S
H703 C711 0.930 . S
H704 C714 0.930 . S
H705 C715 0.930 . S
C706 H700 0.930 . S
C706 C707 1.355 . S
C706 C708 1.415 . S
C707 C706 1.355 . S
C707 C709 1.419 . S
C708 C706 1.415 . S
C708 C713 1.425 . S
C708 C715 1.409 . S
C709 H701 0.930 . S
C709 C707 1.419 . S
C709 C710 1.362 . S
C710 H702 0.930 1_455 S
C710 C709 1.362 . S
C710 C713 1.409 . S
C711 H703 0.930 . S
C711 C712 1.355 . S
C711 C713 1.415 1_655 S
C712 C711 1.355 . S
C712 C714 1.419 1_655 S
C713 C708 1.425 . S
C713 C710 1.409 . S
C713 C711 1.415 1_455 S
C714 H704 0.930 . S
C714 C712 1.419 1_455 S
C714 C715 1.362 . S
C715 H705 0.930 . S
C715 C708 1.409 . S
C715 C714 1.362 . S
H716 C722 0.930 . S
H717 C725 0.930 . S
H718 C726 0.930 . S
H719 C727 0.930 . S
H720 C730 0.930 . S
H721 C731 0.930 . S
C722 H716 0.930 . S
C722 C723 1.355 1_545 S
C722 C724 1.415 . S
C723 C722 1.355 1_565 S
C723 C725 1.419 . S
C724 C722 1.415 . S
C724 C729 1.425 . S
C724 C731 1.409 . S
C725 H717 0.930 . S
C725 C723 1.419 . S
C725 C726 1.362 1_565 S
C726 H718 0.930 . S
C726 C725 1.362 1_545 S
C726 C729 1.409 . S
C727 H719 0.930 . S
C727 C728 1.355 . S
C727 C729 1.415 . S
C728 C727 1.355 . S
C728 C730 1.419 . S
C729 C724 1.425 . S
C729 C726 1.409 . S
C729 C727 1.415 . S
C730 H720 0.930 . S
C730 C728 1.419 . S
C730 C731 1.362 . S
C731 H721 0.930 . S
C731 C724 1.409 . S
C731 C730 1.362 . S
H732 C738 0.930 . S
H733 C741 0.930 . S
H734 C742 0.930 . S
H735 C743 0.930 . S
H736 C746 0.930 . S
H737 C747 0.930 . S
C738 H732 0.930 . S
C738 C739 1.355 . S
C738 C740 1.415 . S
C739 C738 1.355 . S
C739 C741 1.419 . S
C740 C738 1.415 . S
C740 C745 1.425 . S
C740 C747 1.409 . S
C741 H733 0.930 . S
C741 C739 1.419 . S
C741 C742 1.362 . S
C742 H734 0.930 . S
C742 C741 1.362 . S
C742 C745 1.409 . S
C743 H735 0.930 . S
C743 C744 1.355 . S
C743 C745 1.415 . S
C744 C743 1.355 . S
C744 C746 1.419 . S
C745 C740 1.425 . S
C745 C742 1.409 . S
C745 C743 1.415 . S
C746 H736 0.930 . S
C746 C744 1.419 . S
C746 C747 1.362 . S
C747 H737 0.930 . S
C747 C740 1.409 . S
C747 C746 1.362 . S
H748 C754 0.930 . S
H749 C757 0.930 . S
H750 C758 0.930 . S
H751 C759 0.930 . S
H752 C762 0.930 . S
H753 C763 0.930 . S
C754 H748 0.930 . S
C754 C755 1.355 . S
C754 C756 1.415 . S
C755 C754 1.355 . S
C755 C757 1.419 . S
C756 C754 1.415 . S
C756 C761 1.425 . S
C756 C763 1.409 . S
C757 H749 0.930 . S
C757 C755 1.419 . S
C757 C758 1.362 . S
C758 H750 0.930 . S
C758 C757 1.362 . S
C758 C761 1.409 . S
C759 H751 0.930 . S
C759 C760 1.355 . S
C759 C761 1.415 1_455 S
C760 C759 1.355 . S
C760 C762 1.419 . S
C761 C756 1.425 . S
C761 C758 1.409 . S
C761 C759 1.415 1_655 S
C762 H752 0.930 . S
C762 C760 1.419 . S
C762 C763 1.362 1_455 S
C763 H753 0.930 . S
C763 C756 1.409 . S
C763 C762 1.362 1_655 S
H764 C770 0.930 . S
H765 C773 0.930 . S
H766 C774 0.930 1_545 S
H767 C775 0.930 . S
H768 C778 0.930 . S
H769 C779 0.930 . S
C770 H764 0.930 . S
C770 C771 1.355 . S
C770 C772 1.415 . S
C771 C770 1.355 . S
C771 C773 1.419 . S
C772 C770 1.415 . S
C772 C777 1.425 . S
C772 C779 1.409 . S
C773 H765 0.930 . S
C773 C771 1.419 . S
C773 C774 1.362 . S
C774 H766 0.930 1_565 S
C774 C773 1.362 . S
C774 C777 1.409 . S
C775 H767 0.930 . S
C775 C776 1.355 . S
C775 C777 1.415 1_545 S
C776 C775 1.355 . S
C776 C778 1.419 1_545 S
C777 C772 1.425 . S
C777 C774 1.409 . S
C777 C775 1.415 1_565 S
C778 H768 0.930 . S
C778 C776 1.419 1_565 S
C778 C779 1.362 . S
C779 H769 0.930 . S
C779 C772 1.409 . S
C779 C778 1.362 . S
H780 C786 0.930 . S
H781 C789 0.930 . S
H782 C790 0.930 . S
H783 C791 0.930 . S
H784 C794 0.930 . S
H785 C795 0.930 . S
C786 H780 0.930 . S
C786 C787 1.355 . S
C786 C788 1.415 . S
C787 C786 1.355 . S
C787 C789 1.419 . S
C788 C786 1.415 . S
C788 C793 1.425 . S
C788 C795 1.409 . S
C789 H781 0.930 . S
C789 C787 1.419 . S
C789 C790 1.362 . S
C790 H782 0.930 . S
C790 C789 1.362 . S
C790 C793 1.409 . S
C791 H783 0.930 . S
C791 C792 1.355 . S
C791 C793 1.415 . S
C792 C791 1.355 . S
C792 C794 1.419 . S
C793 C788 1.425 . S
C793 C790 1.409 . S
C793 C791 1.415 . S
C794 H784 0.930 . S
C794 C792 1.419 . S
C794 C795 1.362 . S
C795 H785 0.930 . S
C795 C788 1.409 . S
C795 C794 1.362 . S
H796 C802 0.930 . S
H797 C805 0.930 . S
H798 C806 0.930 . S
H799 C807 0.930 . S
H800 C810 0.930 . S
H801 C811 0.930 . S
C802 H796 0.930 . S
C802 C803 1.355 1_455 S
C802 C804 1.415 . S
C803 C802 1.355 1_655 S
C803 C805 1.419 . S
C804 C802 1.415 . S
C804 C809 1.425 . S
C804 C811 1.409 . S
C805 H797 0.930 . S
C805 C803 1.419 . S
C805 C806 1.362 1_655 S
C806 H798 0.930 . S
C806 C805 1.362 1_455 S
C806 C809 1.409 . S
C807 H799 0.930 . S
C807 C808 1.355 . S
C807 C809 1.415 . S
C808 C807 1.355 . S
C808 C810 1.419 . S
C809 C804 1.425 . S
C809 C806 1.409 . S
C809 C807 1.415 . S
C810 H800 0.930 . S
C810 C808 1.419 . S
C810 C811 1.362 . S
C811 H801 0.930 . S
C811 C804 1.409 . S
C811 C810 1.362 . S
H812 C818 0.930 . S
H813 C821 0.930 . S
H814 C822 0.930 . S
H815 C823 0.930 . S
H816 C826 0.930 . S
H817 C827 0.930 . S
C818 H812 0.930 . S
C818 C819 1.355 1_545 S
C818 C820 1.415 . S
C819 C818 1.355 1_565 S
C819 C821 1.419 . S
C820 C818 1.415 . S
C820 C825 1.425 . S
C820 C827 1.409 . S
C821 H813 0.930 . S
C821 C819 1.419 . S
C821 C822 1.362 . S
C822 H814 0.930 . S
C822 C821 1.362 . S
C822 C825 1.409 1_565 S
C823 H815 0.930 . S
C823 C824 1.355 . S
C823 C825 1.415 . S
C824 C823 1.355 . S
C824 C826 1.419 . S
C825 C820 1.425 . S
C825 C822 1.409 1_545 S
C825 C823 1.415 . S
C826 H816 0.930 . S
C826 C824 1.419 . S
C826 C827 1.362 . S
C827 H817 0.930 . S
C827 C820 1.409 . S
C827 C826 1.362 . S
H828 C834 0.930 . S
H829 C837 0.930 . S
H830 C838 0.930 . S
H831 C839 0.930 . S
H832 C842 0.930 . S
H833 C843 0.930 . S
C834 H828 0.930 . S
C834 C835 1.355 . S
C834 C836 1.415 . S
C835 C834 1.355 . S
C835 C837 1.419 . S
C836 C834 1.415 . S
C836 C841 1.425 . S
C836 C843 1.409 . S
C837 H829 0.930 . S
C837 C835 1.419 . S
C837 C838 1.362 . S
C838 H830 0.930 . S
C838 C837 1.362 . S
C838 C841 1.409 . S
C839 H831 0.930 . S
C839 C840 1.355 . S
C839 C841 1.415 . S
C840 C839 1.355 . S
C840 C842 1.419 . S
C841 C836 1.425 . S
C841 C838 1.409 . S
C841 C839 1.415 . S
C842 H832 0.930 . S
C842 C840 1.419 . S
C842 C843 1.362 . S
C843 H833 0.930 . S
C843 C836 1.409 . S
C843 C842 1.362 . S
H844 C850 0.930 . S
H845 C853 0.930 . S
H846 C854 0.930 1_455 S
H847 C855 0.930 . S
H848 C858 0.930 . S
H849 C859 0.930 . S
C850 H844 0.930 . S
C850 C851 1.355 . S
C850 C852 1.415 . S
C851 C850 1.355 . S
C851 C853 1.419 . S
C852 C850 1.415 . S
C852 C857 1.425 . S
C852 C859 1.409 . S
C853 H845 0.930 . S
C853 C851 1.419 . S
C853 C854 1.362 . S
C854 H846 0.930 1_655 S
C854 C853 1.362 . S
C854 C857 1.409 . S
C855 H847 0.930 . S
C855 C856 1.355 . S
C855 C857 1.415 1_455 S
C856 C855 1.355 . S
C856 C858 1.419 1_455 S
C857 C852 1.425 . S
C857 C854 1.409 . S
C857 C855 1.415 1_655 S
C858 H848 0.930 . S
C858 C856 1.419 1_655 S
C858 C859 1.362 . S
C859 H849 0.930 . S
C859 C852 1.409 . S
C859 C858 1.362 . S
H860 C866 0.930 . S
H861 C869 0.930 . S
H862 C870 0.930 . S
H863 C871 0.930 . S
H864 C874 0.930 . S
H865 C875 0.930 . S
C866 H860 0.930 . S
C866 C867 1.355 . S
C866 C868 1.415 1_545 S
C867 C866 1.355 . S
C867 C869 1.419 . S
C868 C866 1.415 1_565 S
C868 C873 1.425 . S
C868 C875 1.409 . S
C869 H861 0.930 . S
C869 C867 1.419 . S
C869 C870 1.362 1_545 S
C870 H862 0.930 . S
C870 C869 1.362 1_565 S
C870 C873 1.409 . S
C871 H863 0.930 . S
C871 C872 1.355 . S
C871 C873 1.415 . S
C872 C871 1.355 . S
C872 C874 1.419 . S
C873 C868 1.425 . S
C873 C870 1.409 . S
C873 C871 1.415 . S
C874 H864 0.930 . S
C874 C872 1.419 . S
C874 C875 1.362 . S
C875 H865 0.930 . S
C875 C868 1.409 . S
C875 C874 1.362 . S
C403 N2 0.744 . S
C408 N266 0.838 . S
C419 N299 0.651 . S
C424 N35 0.652 . S
C435 N332 0.860 . S
C440 N68 0.890 . S
C451 N101 0.639 . S
C456 N365 0.690 . S
C467 N134 0.772 . S
C472 N200 0.858 . S
C483 N167 0.640 . S
C488 N233 0.695 . S
C499 N244 1.854 . S
C504 C21 1.837 . S
C515 C54 1.820 . S
C520 N277 1.842 . S
C531 N310 1.862 . S
C536 C87 1.847 . S
C547 N343 1.860 . S
C552 C120 1.845 . S
C563 N376 1.859 . S
C568 C153 1.843 . S
C579 N211 1.839 . S
C584 C186 1.815 . S
C595 N178 1.834 . S
C600 C219 1.808 . S
C611 C252 1.806 . S
C616 N13 1.833 . S
C627 C285 1.844 . S
C632 N46 1.860 . S
C643 N79 1.863 . S
C648 C318 1.848 . S
C659 N112 1.861 . S
C664 C351 1.845 . S
C675 N145 1.834 . S
C680 C384 1.807 . S
C691 C183 1.126 . S
C696 C7 1.005 . S
C707 C18 1.141 . S
C712 C40 1.019 . S
C723 C73 1.012 . S
C728 C51 1.114 . S
C739 C84 1.170 . S
C744 C106 1.145 . S
C755 C117 1.183 . S
C760 C139 1.125 . S
C771 C150 1.157 . S
C776 C172 1.046 . S
C787 C205 1.079 . S
C792 C249 1.126 . S
C803 C238 1.009 . S
C808 C282 1.116 . S
C819 C271 1.056 . S
C824 C315 1.119 . S
C835 C348 1.182 . S
C840 C304 1.133 . S
C851 C381 1.131 . S
C856 C337 1.009 . S
C867 C370 1.145 . S
C872 C216 1.177 . S
