# Generated by pormake.
# Topology xfw, (5)-cn, num edge types: 1
# Building blocks:
#     Node 0, Type 0, BuildingBlock: BEQFEK_clean_sbu_0, # of connection points: 5
#     Node 1, Type 0, BuildingBlock: BEQFEK_clean_sbu_0, # of connection points: 5
#     Node 2, Type 0, BuildingBlock: BEQFEK_clean_sbu_0, # of connection points: 5
#     Node 3, Type 0, BuildingBlock: BEQFEK_clean_sbu_0, # of connection points: 5
#     Node 4, Type 0, BuildingBlock: BEQFEK_clean_sbu_0, # of connection points: 5
#     Node 5, Type 0, BuildingBlock: BEQFEK_clean_sbu_0, # of connection points: 5
#     Node 6, Type 0, BuildingBlock: BEQFEK_clean_sbu_0, # of connection points: 5
#     Node 7, Type 0, BuildingBlock: BEQFEK_clean_sbu_0, # of connection points: 5
#     Edge 8, Type (0, 0), BuildingBlock: ZUJKAS_clean_linker_0, # of connection points: 2
#     Edge 9, Type (0, 0), BuildingBlock: ZUJKAS_clean_linker_0, # of connection points: 2
#     Edge 10, Type (0, 0), BuildingBlock: ZUJKAS_clean_linker_0, # of connection points: 2
#     Edge 11, Type (0, 0), BuildingBlock: ZUJKAS_clean_linker_0, # of connection points: 2
#     Edge 12, Type (0, 0), BuildingBlock: ZUJKAS_clean_linker_0, # of connection points: 2
#     Edge 13, Type (0, 0), BuildingBlock: ZUJKAS_clean_linker_0, # of connection points: 2
#     Edge 14, Type (0, 0), BuildingBlock: ZUJKAS_clean_linker_0, # of connection points: 2
#     Edge 15, Type (0, 0), BuildingBlock: ZUJKAS_clean_linker_0, # of connection points: 2
#     Edge 16, Type (0, 0), BuildingBlock: ZUJKAS_clean_linker_0, # of connection points: 2
#     Edge 17, Type (0, 0), BuildingBlock: ZUJKAS_clean_linker_0, # of connection points: 2
#     Edge 18, Type (0, 0), BuildingBlock: ZUJKAS_clean_linker_0, # of connection points: 2
#     Edge 19, Type (0, 0), BuildingBlock: ZUJKAS_clean_linker_0, # of connection points: 2
#     Edge 20, Type (0, 0), BuildingBlock: ZUJKAS_clean_linker_0, # of connection points: 2
#     Edge 21, Type (0, 0), BuildingBlock: ZUJKAS_clean_linker_0, # of connection points: 2
#     Edge 22, Type (0, 0), BuildingBlock: ZUJKAS_clean_linker_0, # of connection points: 2
#     Edge 23, Type (0, 0), BuildingBlock: ZUJKAS_clean_linker_0, # of connection points: 2
#     Edge 24, Type (0, 0), BuildingBlock: ZUJKAS_clean_linker_0, # of connection points: 2
#     Edge 25, Type (0, 0), BuildingBlock: ZUJKAS_clean_linker_0, # of connection points: 2
#     Edge 26, Type (0, 0), BuildingBlock: ZUJKAS_clean_linker_0, # of connection points: 2
#     Edge 27, Type (0, 0), BuildingBlock: ZUJKAS_clean_linker_0, # of connection points: 2
# Relax obj value: 0.341
# Max RMSD: 0.177
# Mean RMSD: 0.177
data_MOF--net-xfw--node1-BEQFEK_clean_sbu_0--edge1-ZUJKAS_clean_linker_0
_symmetry_space_group_name_H-M    P1
_symmetry_Int_Tables_number       1
_symmetry_cell_setting            triclinic
loop_
_symmetry_equiv_pos_as_xyz
'x, y, z'
_cell_length_a     36.700331
_cell_length_b     36.693024
_cell_length_c     77.091853
_cell_angle_alpha  89.99651
_cell_angle_beta   90.009967
_cell_angle_gamma 89.993969
loop_
_atom_site_label
_atom_site_type_symbol
_atom_site_fract_x
_atom_site_fract_y
_atom_site_fract_z
_atom_type_partial_charge
Co0 Co 0.23787 0.07775 0.58105 0.0
Co1 Co 0.22991 0.13415 0.61164 0.0
C2 C 0.17709 0.07273 0.60695 0.0
O3 O 0.1939 0.06122 0.59358 0.0
O4 O 0.18818 0.10056 0.6153 0.0
C5 C 0.24231 0.00763 0.5646 0.0
O6 O 0.22823 0.99621 0.57929 0.0
C7 C 0.22388 0.15888 0.64769 0.0
C8 C 0.24432 0.21541 0.6462 0.0
C9 C 0.23092 0.1896 0.65768 0.0
N10 N 0.23256 0.16629 0.63112 0.0
N11 N 0.24454 0.20021 0.63029 0.0
C12 C 0.21227 0.12201 0.65391 0.0
H13 H 0.18208 0.12085 0.65424 0.0
H14 H 0.22222 0.10052 0.64497 0.0
H15 H 0.22279 0.11666 0.66716 0.0
C16 C 0.30917 0.0663 0.59766 0.0
N17 N 0.27711 0.08384 0.59651 0.0
N18 N 0.27428 0.10722 0.6094 0.0
C19 C 0.30468 0.10508 0.61925 0.0
C20 C 0.32756 0.0788 0.61219 0.0
C21 C 0.32215 0.03854 0.58484 0.0
H22 H 0.31606 0.04791 0.57148 0.0
H23 H 0.30754 0.01251 0.5871 0.0
H24 H 0.3519 0.03372 0.586 0.0
O25 O 0.22624 0.12374 0.56926 0.0
O26 O 0.219 0.16397 0.59051 0.0
H27 H 0.3072 0.15535 0.63325 0.0
H28 H 0.33766 0.12062 0.64143 0.0
C29 C 0.3104 0.12577 0.63575 0.0
H30 H 0.28951 0.11744 0.64532 0.0
H31 H 0.2534 0.21279 0.61891 0.0
O32 O 0.24923 0.04135 0.56272 0.0
C33 C 0.21867 0.1558 0.57442 0.0
Co34 Co 0.07907 0.76624 0.41928 0.0
Co35 Co 0.13572 0.77197 0.38868 0.0
C36 C 0.0747 0.82556 0.39258 0.0
O37 O 0.06291 0.80953 0.4061 0.0
O38 O 0.10259 0.81386 0.38448 0.0
C39 C 0.00836 0.76156 0.43471 0.0
O40 O 0.99778 0.77188 0.41919 0.0
C41 C 0.16013 0.77632 0.35254 0.0
C42 C 0.2165 0.75549 0.35401 0.0
C43 C 0.19066 0.76881 0.34251 0.0
N44 N 0.16767 0.76806 0.36915 0.0
N45 N 0.20149 0.75579 0.36996 0.0
C46 C 0.12329 0.78805 0.34633 0.0
H47 H 0.1018 0.77818 0.35529 0.0
H48 H 0.11787 0.77751 0.33309 0.0
H49 H 0.12223 0.81824 0.34598 0.0
C50 C 0.06746 0.69387 0.40375 0.0
N51 N 0.08499 0.72599 0.40439 0.0
N52 N 0.10829 0.72797 0.39143 0.0
C53 C 0.10597 0.69698 0.38201 0.0
C54 C 0.07971 0.6746 0.38945 0.0
C55 C 0.04015 0.68145 0.41691 0.0
H56 H 0.04914 0.68948 0.43009 0.0
H57 H 0.01355 0.69461 0.41419 0.0
H58 H 0.03653 0.65143 0.41656 0.0
O59 O 0.12503 0.778 0.43099 0.0
O60 O 0.1656 0.78368 0.40977 0.0
H61 H 0.15621 0.693 0.36809 0.0
H62 H 0.12103 0.66264 0.36024 0.0
C63 C 0.1266 0.69011 0.3656 0.0
H64 H 0.11864 0.71067 0.35579 0.0
H65 H 0.21416 0.74719 0.38137 0.0
O66 O 0.04213 0.7567 0.43757 0.0
C67 C 0.15722 0.78489 0.42583 0.0
Co68 Co 0.76193 0.91902 0.58249 0.0
Co69 Co 0.77037 0.86214 0.61295 0.0
C70 C 0.82244 0.92426 0.60861 0.0
O71 O 0.80566 0.93548 0.59518 0.0
O72 O 0.81152 0.89639 0.61699 0.0
C73 C 0.75901 0.989 0.56591 0.0
O74 O 0.77478 -0.00014 0.58032 0.0
C75 C 0.77338 0.83771 0.64914 0.0
C76 C 0.75827 0.77957 0.64708 0.0
C77 C 0.76757 0.80641 0.65893 0.0
N78 N 0.76731 0.82974 0.63236 0.0
N79 N 0.75834 0.79494 0.63121 0.0
C80 C 0.78754 0.87386 0.65512 0.0
H81 H 0.81584 0.87705 0.65037 0.0
H82 H 0.77103 0.89608 0.64932 0.0
H83 H 0.78802 0.8765 0.66941 0.0
C84 C 0.68978 0.92798 0.59824 0.0
N85 N 0.72267 0.91195 0.59768 0.0
N86 N 0.72552 0.88837 0.61049 0.0
C87 C 0.69425 0.88901 0.61975 0.0
C88 C 0.67068 0.91399 0.61221 0.0
C89 C 0.67802 0.95775 0.58619 0.0
H90 H 0.6797 0.94792 0.5726 0.0
H91 H 0.69687 0.98118 0.58757 0.0
H92 H 0.64993 0.96727 0.58891 0.0
O93 O 0.77353 0.87334 0.57057 0.0
O94 O 0.78243 0.83291 0.59166 0.0
H95 H 0.69349 0.83716 0.63246 0.0
H96 H 0.65785 0.86791 0.63941 0.0
C97 C 0.6868 0.86598 0.63535 0.0
H98 H 0.70433 0.87516 0.64622 0.0
H99 H 0.75223 0.7817 0.61959 0.0
O100 O 0.75032 0.95564 0.56427 0.0
C101 C 0.78186 0.8414 0.5756 0.0
Co102 Co 0.92284 0.23497 0.42048 0.0
Co103 Co 0.86513 0.22838 0.39037 0.0
C104 C 0.92855 0.17712 0.39322 0.0
O105 O 0.94037 0.19299 0.40679 0.0
O106 O 0.89985 0.18809 0.38554 0.0
C107 C 0.99309 0.23867 0.43683 0.0
O108 O 0.00414 0.22394 0.42222 0.0
C109 C 0.84106 0.2262 0.35427 0.0
C110 C 0.78254 0.23957 0.35622 0.0
C111 C 0.80971 0.23095 0.34441 0.0
N112 N 0.83269 0.2315 0.37105 0.0
N113 N 0.79764 0.23939 0.37215 0.0
C114 C 0.87903 0.21952 0.34792 0.0
H115 H 0.89917 0.23052 0.3573 0.0
H116 H 0.8833 0.23231 0.33504 0.0
H117 H 0.88355 0.18973 0.34673 0.0
C118 C 0.93002 0.3087 0.40599 0.0
N119 N 0.91446 0.27555 0.40611 0.0
N120 N 0.89057 0.27336 0.39341 0.0
C121 C 0.89049 0.30528 0.38467 0.0
C122 C 0.9154 0.3286 0.39242 0.0
C123 C 0.95999 0.32004 0.41801 0.0
H124 H 0.95079 0.31682 0.43163 0.0
H125 H 0.98382 0.30197 0.416 0.0
H126 H 0.96863 0.34862 0.41582 0.0
O127 O 0.87772 0.22069 0.43239 0.0
O128 O 0.8364 0.21478 0.4115 0.0
H129 H 0.83842 0.30531 0.37215 0.0
H130 H 0.86754 0.34302 0.36609 0.0
C131 C 0.86687 0.31357 0.36936 0.0
H132 H 0.87662 0.29779 0.35802 0.0
H133 H 0.78409 0.24487 0.38376 0.0
O134 O 0.95951 0.24623 0.43872 0.0
C135 C 0.84553 0.21303 0.42746 0.0
Co136 Co 0.75804 0.08216 0.08203 0.0
Co137 Co 0.76657 0.13562 0.11388 0.0
C138 C 0.81798 0.07375 0.10858 0.0
O139 O 0.8015 0.06444 0.09473 0.0
O140 O 0.80713 0.10067 0.11765 0.0
C141 C 0.75117 0.01224 0.06624 0.0
O142 O 0.75964 0.00122 0.08195 0.0
C143 C 0.77357 0.16157 0.14991 0.0
C144 C 0.74636 0.21522 0.14878 0.0
C145 C 0.76337 0.19119 0.16003 0.0
N146 N 0.76251 0.16754 0.13352 0.0
N147 N 0.74646 0.19977 0.13292 0.0
C148 C 0.79593 0.12935 0.15522 0.0
H149 H 0.82178 0.12989 0.14781 0.0
H150 H 0.78131 0.10385 0.15183 0.0
H151 H 0.80283 0.1295 0.1692 0.0
C152 C 0.68604 0.0709 0.09799 0.0
N153 N 0.71845 0.0879 0.09728 0.0
N154 N 0.72189 0.10944 0.11085 0.0
C155 C 0.69182 0.10613 0.12083 0.0
C156 C 0.66826 0.08144 0.11302 0.0
C157 C 0.67212 0.04546 0.08433 0.0
H158 H 0.68063 0.05505 0.07131 0.0
H159 H 0.68372 0.01793 0.08655 0.0
H160 H 0.64196 0.04351 0.08472 0.0
O161 O 0.77033 0.12851 0.07093 0.0
O162 O 0.77968 0.16604 0.09311 0.0
H163 H 0.68589 0.15343 0.13674 0.0
H164 H 0.66262 0.11369 0.14505 0.0
C165 C 0.68744 0.12343 0.13829 0.0
H166 H 0.71151 0.117 0.1464 0.0
H167 H 0.7352 0.21105 0.12171 0.0
O168 O 0.74785 0.0462 0.06337 0.0
C169 C 0.7794 0.15956 0.07685 0.0
Co170 Co 0.07743 0.23494 0.91878 0.0
Co171 Co 0.13393 0.22814 0.88814 0.0
C172 C 0.07477 0.17306 0.89329 0.0
O173 O 0.06306 0.18979 0.90665 0.0
O174 O 0.10181 0.18507 0.88463 0.0
C175 C 0.04343 0.23042 0.9517 0.0
O176 O 0.07189 0.20965 0.95472 0.0
C177 C 0.15837 0.22421 0.85198 0.0
C178 C 0.21524 0.24369 0.8537 0.0
C179 C 0.18913 0.23152 0.84208 0.0
N180 N 0.16587 0.23214 0.86863 0.0
N181 N 0.19992 0.24371 0.86958 0.0
C182 C 0.12337 0.20704 0.84625 0.0
H183 H 0.12352 0.17807 0.8503 0.0
H184 H 0.10004 0.22053 0.85278 0.0
H185 H 0.11968 0.20787 0.83201 0.0
C186 C 0.06276 0.30488 0.90187 0.0
N187 N 0.08151 0.27356 0.90302 0.0
N188 N 0.10518 0.27159 0.89022 0.0
C189 C 0.10205 0.30199 0.88043 0.0
C190 C 0.07482 0.32387 0.88743 0.0
C191 C 0.03469 0.31665 0.91481 0.0
H192 H 0.04554 0.31288 0.92812 0.0
H193 H 0.01017 0.29919 0.91344 0.0
H194 H 0.02688 0.34562 0.91309 0.0
O195 O 0.12416 0.22688 0.93046 0.0
O196 O 0.16435 0.21838 0.90931 0.0
H197 H 0.15258 0.30618 0.86672 0.0
H198 H 0.11727 0.33608 0.85859 0.0
C199 C 0.12299 0.30876 0.86409 0.0
H200 H 0.11539 0.28796 0.85432 0.0
H201 H 0.21268 0.25166 0.88107 0.0
O202 O 0.03984 0.24488 0.9368 0.0
C203 C 0.15629 0.21963 0.92539 0.0
Co204 Co 0.23182 0.92321 0.08179 0.0
Co205 Co 0.22547 0.8651 0.11181 0.0
C206 C 0.17164 0.926 0.10808 0.0
O207 O 0.18797 0.93839 0.09476 0.0
O208 O 0.18338 0.89795 0.11605 0.0
C209 C 0.23431 0.99418 0.06642 0.0
O210 O 0.22109 0.004 0.08155 0.0
C211 C 0.22362 0.84081 0.14795 0.0
C212 C 0.23783 0.78244 0.14588 0.0
C213 C 0.22917 0.80948 0.15774 0.0
N214 N 0.2292 0.83267 0.13116 0.0
N215 N 0.23767 0.79775 0.12999 0.0
C216 C 0.21005 0.87719 0.15396 0.0
H217 H 0.18111 0.88003 0.15008 0.0
H218 H 0.22558 0.89921 0.14742 0.0
H219 H 0.21159 0.88052 0.16819 0.0
C220 C 0.30422 0.93333 0.09735 0.0
N221 N 0.27162 0.9167 0.09681 0.0
N222 N 0.26956 0.89255 0.10941 0.0
C223 C 0.30104 0.89336 0.1185 0.0
C224 C 0.32393 0.91913 0.1111 0.0
C225 C 0.31514 0.96377 0.08551 0.0
H226 H 0.29648 0.98714 0.08754 0.0
H227 H 0.34339 0.97317 0.08788 0.0
H228 H 0.31244 0.95477 0.07183 0.0
O229 O 0.22114 0.87745 0.06963 0.0
O230 O 0.21434 0.83598 0.09043 0.0
H231 H 0.30243 0.84085 0.1306 0.0
H232 H 0.33868 0.8711 0.13733 0.0
C233 C 0.30946 0.8695 0.13371 0.0
H234 H 0.29276 0.87823 0.14495 0.0
H235 H 0.24324 0.78435 0.11835 0.0
O236 O 0.24189 0.96081 0.06381 0.0
C237 C 0.21415 0.84503 0.07445 0.0
Co238 Co 0.91746 0.75996 0.92038 0.0
Co239 Co 0.86086 0.7689 0.88994 0.0
C240 C 0.9243 0.8193 0.8937 0.0
O241 O 0.93514 0.80264 0.90723 0.0
O242 O 0.89599 0.80899 0.88551 0.0
C243 C 0.98827 0.753 0.9353 0.0
O244 O 0.99846 0.76268 0.91962 0.0
C245 C 0.83689 0.77301 0.85381 0.0
C246 C 0.77885 0.75752 0.85545 0.0
C247 C 0.80586 0.76763 0.84383 0.0
N248 N 0.82855 0.76662 0.87051 0.0
N249 N 0.79376 0.75753 0.87143 0.0
C250 C 0.87466 0.78104 0.84756 0.0
H251 H 0.89511 0.76985 0.85673 0.0
H252 H 0.87921 0.76928 0.83447 0.0
H253 H 0.87842 0.81099 0.84681 0.0
C254 C 0.92393 0.68659 0.9053 0.0
N255 N 0.90907 0.72006 0.90561 0.0
N256 N 0.88581 0.72338 0.89269 0.0
C257 C 0.88567 0.69195 0.88355 0.0
C258 C 0.9097 0.66772 0.8913 0.0
C259 C 0.95297 0.67396 0.91755 0.0
H260 H 0.94458 0.67981 0.93109 0.0
H261 H 0.97841 0.68922 0.91485 0.0
H262 H 0.95878 0.64447 0.91619 0.0
O263 O 0.87229 0.77347 0.93232 0.0
O264 O 0.83202 0.78238 0.91117 0.0
H265 H 0.83423 0.69251 0.87048 0.0
H266 H 0.86419 0.65599 0.86379 0.0
C267 C 0.86294 0.68503 0.86779 0.0
H268 H 0.87293 0.70222 0.85698 0.0
H269 H 0.78031 0.75089 0.88293 0.0
O270 O 0.9545 0.74898 0.93846 0.0
C271 C 0.84054 0.7824 0.92722 0.0
H272 H 0.22252 0.93595 0.56291 0.0
H273 H 0.22613 0.89545 0.53789 0.0
H274 H 0.27866 0.98022 0.50827 0.0
H275 H 0.27441 0.02131 0.53319 0.0
H276 H 0.22189 0.95254 0.49137 0.0
H277 H 0.30603 0.83813 0.51492 0.0
H278 H 0.26919 0.84733 0.52954 0.0
H279 H 0.3039 0.88132 0.52611 0.0
C280 C 0.23539 0.94585 0.55117 0.0
C281 C 0.24799 0.98194 0.55002 0.0
C282 C 0.23777 0.92249 0.53691 0.0
C283 C 0.25326 0.93453 0.52127 0.0
C284 C 0.26686 0.97023 0.52024 0.0
H285 H 0.21748 0.82763 0.42014 0.0
H286 H 0.251 0.86258 0.44211 0.0
C287 C 0.26432 0.9937 0.53449 0.0
C288 C 0.25119 0.9113 0.50552 0.0
H289 H 0.26509 0.82444 0.49099 0.0
C290 C 0.23216 0.92482 0.49109 0.0
C291 C 0.26467 0.87516 0.50515 0.0
C292 C 0.28743 0.85979 0.51971 0.0
C293 C 0.22398 0.90247 0.47686 0.0
C294 C 0.23556 0.86568 0.47696 0.0
C295 C 0.25627 0.85265 0.49095 0.0
C296 C 0.22187 0.83947 0.46389 0.0
C297 C 0.20092 0.9177 0.46234 0.0
C298 C 0.19598 0.81351 0.46896 0.0
C299 C 0.17689 0.7936 0.45652 0.0
C300 C 0.18347 0.79914 0.43874 0.0
C301 C 0.21175 0.82279 0.43373 0.0
C302 C 0.23077 0.84293 0.44624 0.0
H303 H 0.19019 0.94528 0.46537 0.0
H304 H 0.21757 0.91965 0.45036 0.0
H305 H 0.17755 0.89935 0.45961 0.0
H306 H 0.18882 0.81035 0.48251 0.0
H307 H 0.15554 0.77533 0.46081 0.0
H308 H 0.8388 0.79387 0.57862 0.0
H309 H 0.87323 0.76741 0.55439 0.0
H310 H 0.79159 0.80586 0.51856 0.0
H311 H 0.75785 0.83331 0.54257 0.0
H312 H 0.86199 0.72043 0.52474 0.0
H313 H 0.88327 0.86538 0.50667 0.0
H314 H 0.86397 0.85196 0.52721 0.0
H315 H 0.8362 0.85246 0.50798 0.0
C316 C 0.82759 0.7955 0.56564 0.0
C317 C 0.79598 0.81601 0.56239 0.0
C318 C 0.84733 0.78049 0.55181 0.0
C319 C 0.83538 0.78554 0.53467 0.0
C320 C 0.80164 0.80235 0.53167 0.0
H321 H 0.93522 0.77511 0.4335 0.0
H322 H 0.89224 0.77538 0.4577 0.0
C323 C 0.7823 0.81785 0.54539 0.0
C324 C 0.86019 0.7782 0.51992 0.0
H325 H 0.90549 0.82119 0.48711 0.0
C326 C 0.87157 0.74237 0.5165 0.0
C327 C 0.87307 0.80703 0.50936 0.0
C328 C 0.86384 0.84641 0.51305 0.0
C329 C 0.89476 0.73458 0.50243 0.0
C330 C 0.90685 0.76339 0.49169 0.0
C331 C 0.89575 0.79913 0.49526 0.0
C332 C 0.93165 0.75769 0.47679 0.0
C333 C 0.90574 0.69567 0.49895 0.0
C334 C 0.96799 0.74728 0.4795 0.0
C335 C 0.99274 0.7473 0.46569 0.0
C336 C 0.98155 0.75788 0.44897 0.0
C337 C 0.94478 0.76692 0.44621 0.0
C338 C 0.92013 0.76699 0.46001 0.0
H339 H 0.88836 0.676 0.50614 0.0
H340 H 0.90411 0.68951 0.48487 0.0
H341 H 0.9344 0.69162 0.50312 0.0
H342 H 0.97757 0.74064 0.49241 0.0
H343 H 0.02086 0.74013 0.46825 0.0
H344 H 0.78099 0.05997 0.56402 0.0
H345 H 0.77764 0.10058 0.53906 0.0
H346 H 0.72115 0.01762 0.50993 0.0
H347 H 0.72508 0.97637 0.53482 0.0
H348 H 0.77825 0.04366 0.49251 0.0
H349 H 0.69851 0.16038 0.51688 0.0
H350 H 0.73546 0.14994 0.53125 0.0
H351 H 0.69965 0.11704 0.52798 0.0
C352 C 0.7673 0.0505 0.55242 0.0
C353 C 0.75347 0.01484 0.55139 0.0
C354 C 0.76509 0.07394 0.53818 0.0
C355 C 0.74856 0.06243 0.52269 0.0
C356 C 0.73375 0.02719 0.52179 0.0
H357 H 0.78469 0.171 0.42186 0.0
H358 H 0.75121 0.13575 0.44374 0.0
C359 C 0.7361 0.00363 0.53602 0.0
C360 C 0.75074 0.08566 0.50696 0.0
H361 H 0.73944 0.17316 0.49281 0.0
C362 C 0.76891 0.0717 0.49238 0.0
C363 C 0.73844 0.12223 0.50678 0.0
C364 C 0.71658 0.13812 0.52151 0.0
C365 C 0.77751 0.09401 0.47818 0.0
C366 C 0.76727 0.13117 0.47849 0.0
C367 C 0.74728 0.14466 0.49262 0.0
C368 C 0.78165 0.15718 0.4655 0.0
C369 C 0.79967 0.07826 0.46347 0.0
C370 C 0.80844 0.18217 0.47062 0.0
C371 C 0.82752 0.20223 0.45824 0.0
C372 C 0.82004 0.19782 0.44046 0.0
C373 C 0.79113 0.17495 0.43545 0.0
C374 C 0.77212 0.15465 0.4479 0.0
H375 H 0.80934 0.05019 0.4663 0.0
H376 H 0.78273 0.07732 0.45156 0.0
H377 H 0.8237 0.09574 0.46075 0.0
H378 H 0.8161 0.18459 0.48415 0.0
H379 H 0.84936 0.21989 0.46255 0.0
H380 H 0.17695 0.21676 0.58015 0.0
H381 H 0.14181 0.25038 0.55831 0.0
H382 H 0.19193 0.1868 0.51779 0.0
H383 H 0.22721 0.15344 0.53936 0.0
H384 H 0.17842 0.26274 0.50898 0.0
H385 H 0.05751 0.19046 0.53615 0.0
H386 H 0.08398 0.21805 0.55074 0.0
H387 H 0.10345 0.17741 0.54169 0.0
C388 C 0.1813 0.21072 0.56656 0.0
C389 C 0.20441 0.18202 0.5615 0.0
C390 C 0.16105 0.22981 0.55411 0.0
C391 C 0.16381 0.22054 0.53649 0.0
C392 C 0.18929 0.19424 0.53133 0.0
H393 H 0.06452 0.21815 0.43839 0.0
H394 H 0.10566 0.22265 0.46312 0.0
C395 C 0.20935 0.1751 0.54371 0.0
C396 C 0.13729 0.23427 0.52357 0.0
H397 H 0.04977 0.22134 0.50998 0.0
C398 C 0.15009 0.25433 0.50932 0.0
C399 C 0.10036 0.22326 0.52407 0.0
C400 C 0.08533 0.20093 0.53889 0.0
C401 C 0.12721 0.26252 0.49523 0.0
C402 C 0.0909 0.2495 0.49526 0.0
C403 C 0.07761 0.23124 0.50995 0.0
C404 C 0.06728 0.25103 0.47964 0.0
C405 C 0.14236 0.28451 0.48036 0.0
C406 C 0.03173 0.26501 0.48071 0.0
C407 C 0.00787 0.26196 0.46663 0.0
C408 C 0.0191 0.24472 0.45123 0.0
C409 C 0.05503 0.23171 0.45002 0.0
C410 C 0.07877 0.2346 0.46412 0.0
H411 H 0.16431 0.30311 0.48484 0.0
H412 H 0.15439 0.26574 0.47064 0.0
H413 H 0.12081 0.30091 0.47393 0.0
H414 H 0.02217 0.27752 0.4926 0.0
H415 H 0.9804 0.27239 0.46796 0.0
H416 H 0.83462 0.76217 0.96093 0.0
H417 H 0.80551 0.79659 0.9842 0.0
H418 H 0.76303 0.87284 0.9467 0.0
H419 H 0.79121 0.83764 0.92325 0.0
H420 H 0.82882 0.8648 0.98992 0.0
H421 H 0.67887 0.86689 0.98074 0.0
H422 H 0.7079 0.83382 0.97024 0.0
H423 H 0.70432 0.87931 0.96175 0.0
C424 C 0.81796 0.78553 0.95759 0.0
C425 C 0.81529 0.79736 0.94032 0.0
C426 C 0.80138 0.80521 0.9709 0.0
C427 C 0.78212 0.83735 0.96723 0.0
C428 C 0.77716 0.8478 0.94985 0.0
H429 H 0.73776 0.02603 0.03187 0.0
H430 H 0.74098 0.98269 0.00773 0.0
C431 C 0.79334 0.82769 0.93644 0.0
C432 C 0.77277 0.86252 0.98164 0.0
H433 H 0.70347 0.90967 1.00102 0.0
C434 C 0.80131 0.87427 0.99242 0.0
C435 C 0.73699 0.87534 0.98474 0.0
C436 C 0.70517 0.86298 0.97385 0.0
C437 C 0.79516 0.89842 0.00616 0.0
C438 C 0.75942 0.91098 0.00938 0.0
C439 C 0.7308 0.89974 0.99853 0.0
C440 C 0.75189 0.93596 0.024 0.0
C441 C 0.8271 0.91078 0.01702 0.0
C442 C 0.75597 0.92374 0.04113 0.0
C443 C 0.75431 0.94836 0.05493 0.0
C444 C 0.74852 0.98568 0.05183 0.0
C445 C 0.74249 0.99751 0.03469 0.0
C446 C 0.74415 0.97279 0.02089 0.0
H447 H 0.85361 0.90437 0.01077 0.0
H448 H 0.82573 0.94059 0.01943 0.0
H449 H 0.82624 0.89676 0.02977 0.0
H450 H 0.76176 0.89532 0.04377 0.0
H451 H 0.75877 0.93828 0.06796 0.0
H452 H 0.76315 0.16824 0.04267 0.0
H453 H 0.80286 0.19549 0.02078 0.0
H454 H 0.87427 0.23476 0.06105 0.0
H455 H 0.83414 0.20828 0.0831 0.0
H456 H 0.87043 0.28048 0.02912 0.0
H457 H 0.89801 0.13332 0.01767 0.0
H458 H 0.85113 0.1467 0.0156 0.0
H459 H 0.87324 0.14939 0.03637 0.0
C460 C 0.78654 0.18393 0.0469 0.0
C461 C 0.7959 0.18566 0.06456 0.0
C462 C 0.80921 0.19942 0.03438 0.0
C463 C 0.84187 0.21634 0.03932 0.0
C464 C 0.84921 0.22168 0.057 0.0
H465 H 0.04497 0.20484 0.98485 0.0
H466 H 0.99626 0.20675 0.00633 0.0
C467 C 0.82621 0.20659 0.06959 0.0
C468 C 0.87097 0.22213 0.02631 0.0
H469 H 0.92868 0.1751 0.9998 0.0
C470 C 0.88314 0.25756 0.02263 0.0
C471 C 0.88788 0.19202 0.01812 0.0
C472 C 0.87722 0.15317 0.0222 0.0
C473 C 0.9117 0.26362 0.01077 0.0
C474 C 0.92813 0.23347 0.00243 0.0
C475 C 0.91591 0.19816 0.00618 0.0
C476 C 0.95895 0.23723 0.99016 0.0
C477 C 0.92472 0.302 0.00756 0.0
C478 C 0.95428 0.25421 0.97399 0.0
C479 C 0.98219 0.25314 0.9616 0.0
C480 C 0.01504 0.23481 0.96518 0.0
C481 C 0.01997 0.21898 0.98162 0.0
C482 C 0.99219 0.22013 0.99395 0.0
H483 H 0.91439 0.32129 0.01751 0.0
H484 H 0.95496 0.3031 0.00743 0.0
H485 H 0.91487 0.31122 0.99467 0.0
H486 H 0.9286 0.267 0.9707 0.0
H487 H 0.97758 0.26562 0.94906 0.0
H488 H 0.20572 0.16432 0.92261 0.0
H489 H 0.23223 0.13055 0.94702 0.0
H490 H 0.19101 0.21143 0.98253 0.0
H491 H 0.16357 0.24454 0.95832 0.0
H492 H 0.27773 0.14281 0.97745 0.0
H493 H 0.13212 0.11825 0.99326 0.0
H494 H 0.14649 0.13788 0.97294 0.0
H495 H 0.14426 0.16557 0.99216 0.0
C496 C 0.20359 0.17561 0.93555 0.0
C497 C 0.18225 0.20675 0.93864 0.0
C498 C 0.2186 0.15623 0.94949 0.0
C499 C 0.21273 0.16807 0.96658 0.0
C500 C 0.19521 0.2015 0.96945 0.0
H501 H 0.21765 0.06666 0.06746 0.0
H502 H 0.21784 0.10991 0.04337 0.0
C503 C 0.17974 0.22049 0.95561 0.0
C504 C 0.21966 0.14322 0.98137 0.0
H505 H 0.17547 0.09634 0.0133 0.0
C506 C 0.25546 0.13258 0.98531 0.0
C507 C 0.19042 0.12952 0.99143 0.0
C508 C 0.15113 0.13805 0.98718 0.0
C509 C 0.26282 0.10934 0.99942 0.0
C510 C 0.23358 0.09635 0.00964 0.0
C511 C 0.19785 0.10672 0.00555 0.0
C512 C 0.23882 0.0715 0.02458 0.0
C513 C 0.30173 0.09929 0.00348 0.0
C514 C 0.25095 0.03564 0.02202 0.0
C515 C 0.25073 0.01073 0.03577 0.0
C516 C 0.23819 0.02126 0.05228 0.0
C517 C 0.22736 0.05759 0.05491 0.0
C518 C 0.22754 0.0824 0.04117 0.0
H519 H 0.32142 0.11754 0.99682 0.0
H520 H 0.30678 0.10044 0.01767 0.0
H521 H 0.30692 0.07095 0.9991 0.0
H522 H 0.25912 0.02649 0.00925 0.0
H523 H 0.25928 0.98295 0.03331 0.0
H524 H 0.97611 0.73788 0.96964 0.0
H525 H 0.02038 0.74087 0.99339 0.0
H526 H 0.10597 0.76397 0.95673 0.0
H527 H 0.06206 0.76126 0.93292 0.0
H528 H 0.09421 0.70473 0.99943 0.0
H529 H 0.09625 0.85512 0.99004 0.0
H530 H 0.06041 0.82664 0.98148 0.0
H531 H 0.10403 0.82802 0.97096 0.0
C532 C 0.00445 0.74304 0.96659 0.0
C533 C 0.01548 0.74989 0.94941 0.0
C534 C 0.0297 0.74455 0.98017 0.0
C535 C 0.06628 0.75293 0.97678 0.0
C536 C 0.07775 0.75768 0.95958 0.0
H537 H 0.23622 0.84071 0.04095 0.0
H538 H 0.20428 0.81041 0.01722 0.0
C539 C 0.05259 0.75619 0.946 0.0
C540 C 0.09156 0.76075 0.99124 0.0
H541 H 0.13603 0.83099 0.0109 0.0
C542 C 0.10354 0.73225 0.00198 0.0
C543 C 0.10336 0.79673 0.99452 0.0
C544 C 0.09022 0.82853 0.98377 0.0
C545 C 0.12778 0.73884 0.01579 0.0
C546 C 0.13964 0.7749 0.01903 0.0
C547 C 0.12732 0.80327 0.0083 0.0
C548 C 0.16395 0.7848 0.03368 0.0
C549 C 0.14088 0.70715 0.02657 0.0
C550 C 0.15305 0.77898 0.05094 0.0
C551 C 0.17179 0.7958 0.0646 0.0
C552 C 0.20113 0.81929 0.06112 0.0
C553 C 0.21359 0.82285 0.04398 0.0
C554 C 0.19532 0.80559 0.03041 0.0
H555 H 0.13831 0.68097 0.01943 0.0
H556 H 0.16974 0.71085 0.03053 0.0
H557 H 0.124 0.70521 0.03847 0.0
H558 H 0.12854 0.76368 0.05379 0.0
H559 H 0.16139 0.79295 0.07768 0.0
H560 H 0.60755 0.90606 0.59465 0.0
H561 H 0.54925 0.93564 0.6011 0.0
H562 H 0.59401 0.9785 0.64866 0.0
H563 H 0.65248 0.94838 0.64226 0.0
H564 H 0.51716 0.95402 0.65019 0.0
H565 H 0.54744 0.04919 0.59621 0.0
H566 H 0.55026 0.00201 0.59014 0.0
H567 H 0.58168 0.02017 0.60582 0.0
C568 C 0.60452 0.92103 0.60668 0.0
C569 C 0.63417 0.9253 0.61794 0.0
C570 C 0.57143 0.93801 0.61031 0.0
C571 C 0.5677 0.95974 0.62518 0.0
C572 C 0.59654 0.96194 0.63709 0.0
H573 H 0.3893 0.11697 0.61981 0.0
H574 H 0.4491 0.09173 0.62758 0.0
C575 C 0.62972 0.94473 0.63347 0.0
C576 C 0.53482 0.98252 0.62728 0.0
H577 H 0.48626 0.04872 0.60664 0.0
C578 C 0.5105 0.97509 0.64085 0.0
C579 C 0.52678 0.01062 0.61533 0.0
C580 C 0.55307 0.0213 0.60115 0.0
C581 C 0.4771 0.99363 0.64212 0.0
C582 C 0.46779 0.01971 0.62932 0.0
C583 C 0.49322 0.02858 0.6164 0.0
C584 C 0.43078 0.03561 0.62789 0.0
C585 C 0.45199 0.98479 0.65702 0.0
C586 C 0.4006 0.01255 0.62578 0.0
C587 C 0.36659 0.02696 0.62153 0.0
C588 C 0.36226 0.0646 0.61909 0.0
C589 C 0.39202 0.08788 0.62182 0.0
C590 C 0.42609 0.07347 0.62619 0.0
H591 H 0.46764 0.9756 0.66856 0.0
H592 H 0.43511 0.00867 0.66072 0.0
H593 H 0.43359 0.96221 0.65316 0.0
H594 H 0.40367 0.98324 0.62653 0.0
H595 H 0.34392 0.00854 0.61949 0.0
H596 H 0.00933 0.65821 0.3826 0.0
H597 H 0.98341 0.59781 0.37737 0.0
H598 H 0.09153 0.5516 0.37663 0.0
H599 H 0.11748 0.61209 0.38256 0.0
H600 H 0.99066 0.54298 0.35276 0.0
H601 H 0.04297 0.50024 0.41741 0.0
H602 H 0.04394 0.54701 0.41028 0.0
H603 H 0.07708 0.51508 0.40229 0.0
C604 C 0.02753 0.63517 0.38109 0.0
C605 C 0.06527 0.63948 0.38317 0.0
C606 C 0.01275 0.60078 0.37801 0.0
C607 C 0.03551 0.57017 0.37692 0.0
C608 C 0.07348 0.57484 0.37772 0.0
H609 H 0.95002 0.3483 0.3627 0.0
H610 H 0.97864 0.40753 0.35662 0.0
C611 C 0.08829 0.60932 0.38095 0.0
C612 C 0.01897 0.53337 0.3768 0.0
H613 H 0.00845 0.45755 0.4019 0.0
C614 C 0.99475 0.52407 0.3634 0.0
C615 C 0.02397 0.50911 0.39087 0.0
C616 C 0.04813 0.51834 0.40612 0.0
C617 C 0.97488 0.49133 0.36385 0.0
C618 C 0.97984 0.46724 0.37796 0.0
C619 C 0.00472 0.47618 0.39111 0.0
C620 C 0.95847 0.4333 0.38 0.0
C621 C 0.94778 0.48345 0.34963 0.0
C622 C 0.93733 0.42837 0.395 0.0
C623 C 0.92141 0.39468 0.39851 0.0
C624 C 0.9263 0.36548 0.38705 0.0
C625 C 0.9457 0.37077 0.37158 0.0
C626 C 0.96193 0.40451 0.36811 0.0
H627 H 0.9414 0.50817 0.34188 0.0
H628 H 0.95931 0.46264 0.34075 0.0
H629 H 0.92204 0.47244 0.3551 0.0
H630 H 0.93435 0.45024 0.40434 0.0
H631 H 0.90662 0.39093 0.41054 0.0
H632 H 0.60816 0.11918 0.1236 0.0
H633 H 0.54829 0.09377 0.13117 0.0
H634 H 0.59066 0.98507 0.12399 0.0
H635 H 0.65046 0.01033 0.11709 0.0
H636 H 0.50828 0.05574 0.10886 0.0
H637 H 0.53025 0.97044 0.16689 0.0
H638 H 0.56272 0.00449 0.15999 0.0
H639 H 0.56287 0.95974 0.15036 0.0
C640 C 0.60477 0.08988 0.12417 0.0
C641 C 0.63363 0.06662 0.11972 0.0
C642 C 0.57067 0.07539 0.12844 0.0
C643 C 0.56511 0.03748 0.12839 0.0
C644 C 0.59445 0.01432 0.12457 0.0
H645 H 0.38639 0.91486 0.09267 0.0
H646 H 0.44472 0.94394 0.09958 0.0
C647 C 0.62846 0.02876 0.12039 0.0
C648 C 0.52788 0.02215 0.12982 0.0
H649 H 0.47902 0.95326 0.1485 0.0
C650 C 0.50168 0.03389 0.1178 0.0
C651 C 0.51908 0.99381 0.14157 0.0
C652 C 0.54515 0.98169 0.15554 0.0
C653 C 0.4678 0.01659 0.11648 0.0
C654 C 0.46019 0.98638 0.12726 0.0
C655 C 0.48532 0.97603 0.14004 0.0
C656 C 0.42709 0.96424 0.12456 0.0
C657 C 0.44075 0.03012 0.10321 0.0
C658 C 0.39868 0.96458 0.13674 0.0
C659 C 0.36543 0.94778 0.13283 0.0
C660 C 0.36049 0.9306 0.11673 0.0
C661 C 0.38974 0.92821 0.10511 0.0
C662 C 0.42286 0.94485 0.10901 0.0
H663 H 0.44654 0.05868 0.09929 0.0
H664 H 0.44241 0.01275 0.09145 0.0
H665 H 0.41248 0.0286 0.10829 0.0
H666 H 0.40161 0.97931 0.14884 0.0
H667 H 0.34303 0.9499 0.14192 0.0
H668 H 0.00459 0.33962 0.87974 0.0
H669 H 0.97858 0.3996 0.8737 0.0
H670 H 0.08634 0.44668 0.87439 0.0
H671 H 0.11227 0.38661 0.88108 0.0
H672 H 0.04182 0.48083 0.89604 0.0
H673 H 0.97161 0.46773 0.83298 0.0
H674 H 0.95835 0.43202 0.84754 0.0
H675 H 0.00497 0.435 0.84036 0.0
C676 C 0.0227 0.36272 0.87824 0.0
C677 C 0.06032 0.35875 0.88089 0.0
C678 C 0.0079 0.39689 0.8746 0.0
C679 C 0.03054 0.42759 0.87332 0.0
C680 C 0.06841 0.42329 0.87515 0.0
H681 H 0.94556 0.65032 0.86159 0.0
H682 H 0.975 0.59168 0.8549 0.0
C683 C 0.08321 0.38906 0.87891 0.0
C684 C 0.01417 0.4645 0.87263 0.0
H685 H 0.94965 0.51578 0.85196 0.0
C686 C 0.02219 0.48867 0.8862 0.0
C687 C 0.98872 0.47491 0.85974 0.0
C688 C 0.98071 0.45115 0.84424 0.0
C689 C 0.00416 0.52214 0.88773 0.0
C690 C 0.97685 0.53136 0.87557 0.0
C691 C 0.97012 0.50821 0.86145 0.0
C692 C 0.9545 0.56451 0.87782 0.0
C693 C 0.01411 0.54713 0.90256 0.0
C694 C 0.93201 0.5679 0.89246 0.0
C695 C 0.91539 0.60112 0.89625 0.0
C696 C 0.92081 0.63125 0.88539 0.0
C697 C 0.94104 0.62721 0.87007 0.0
C698 C 0.95785 0.59391 0.86629 0.0
H699 H 0.04156 0.5408 0.90783 0.0
H700 H 0.0136 0.57611 0.89841 0.0
H701 H 0.99402 0.54367 0.91319 0.0
H702 H 0.92872 0.54529 0.90136 0.0
H703 H 0.89976 0.60382 0.90811 0.0
H704 H 0.13952 0.02059 0.58918 0.0
H705 H 0.07966 0.99579 0.59594 0.0
H706 H 0.07684 0.05831 0.64331 0.0
H707 H 0.13648 0.08435 0.63635 0.0
H708 H 0.05272 0.95642 0.62253 0.0
H709 H 0.98461 0.09176 0.61953 0.0
H710 H 0.03109 0.08505 0.61268 0.0
H711 H 0.02024 0.08776 0.63538 0.0
C712 C 0.12637 0.02897 0.60111 0.0
C713 C 0.14262 0.05484 0.61211 0.0
C714 C 0.09213 0.01468 0.60497 0.0
C715 C 0.07348 0.02573 0.61996 0.0
C716 C 0.09036 0.05011 0.63146 0.0
H717 H 0.86507 0.91123 0.63729 0.0
H718 H 0.92483 0.93743 0.64377 0.0
C719 C 0.12454 0.06479 0.6275 0.0
C720 C 0.03582 0.01257 0.62292 0.0
H721 H 0.94724 0.04084 0.6242 0.0
C722 C 0.02962 0.97483 0.62311 0.0
C723 C 0.00579 0.03674 0.62355 0.0
C724 C 0.01056 0.07757 0.62264 0.0
C725 C 0.99417 0.96052 0.62307 0.0
C726 C 0.96412 0.98471 0.6234 0.0
C727 C 0.97036 0.02242 0.62405 0.0
C728 C 0.92625 0.9717 0.62093 0.0
C729 C 0.98933 0.91977 0.62161 0.0
C730 C 0.90644 0.98368 0.60645 0.0
C731 C 0.87209 0.96931 0.60288 0.0
C732 C 0.85687 0.94242 0.61368 0.0
C733 C 0.87608 0.93163 0.62862 0.0
C734 C 0.91038 0.94638 0.63229 0.0
H735 H 0.01499 0.90584 0.61779 0.0
H736 H 0.98072 0.90869 0.63435 0.0
H737 H 0.96798 0.91297 0.61193 0.0
H738 H 0.9181 0.0033 0.59753 0.0
H739 H 0.85808 0.97841 0.5913 0.0
H740 H 0.0197 0.86233 0.40873 0.0
H741 H 0.99452 0.92146 0.40106 0.0
H742 H 0.06339 0.92551 0.35575 0.0
H743 H 0.08973 0.86653 0.36365 0.0
H744 H 0.06803 0.98686 0.37352 0.0
H745 H 0.92246 0.9544 0.36548 0.0
H746 H 0.93822 0.93776 0.38599 0.0
H747 H 0.95704 0.91943 0.36622 0.0
C748 C 0.02919 0.87544 0.39698 0.0
C749 C 0.05682 0.85965 0.38682 0.0
C750 C 0.01446 0.90919 0.39251 0.0
C751 C 0.02652 0.92764 0.37764 0.0
C752 C 0.05347 0.9116 0.36721 0.0
H753 H 0.91323 0.13647 0.36423 0.0
H754 H 0.93999 0.07786 0.35603 0.0
C755 C 0.06847 0.87788 0.37175 0.0
C756 C 0.01344 0.96514 0.37412 0.0
H757 H 0.93627 0.01687 0.37402 0.0
C758 C 0.0392 0.99337 0.37323 0.0
C759 C 0.97589 0.97371 0.3733 0.0
C760 C 0.9469 0.9446 0.37259 0.0
C761 C 0.02838 0.03003 0.37293 0.0
C762 C 0.99087 0.03861 0.37402 0.0
C763 C 0.96508 0.01036 0.3735 0.0
C764 C 0.97789 0.07616 0.37753 0.0
C765 C 0.05733 0.05912 0.37182 0.0
C766 C 0.99049 0.09481 0.39225 0.0
C767 C 0.97552 0.12834 0.39689 0.0
C768 C 0.9471 0.1437 0.38707 0.0
C769 C 0.93507 0.12542 0.37208 0.0
C770 C 0.95032 0.09191 0.36737 0.0
H771 H 0.08144 0.04919 0.36449 0.0
H772 H 0.04691 0.08419 0.36546 0.0
H773 H 0.06663 0.06616 0.3851 0.0
H774 H 0.01095 0.08277 0.40059 0.0
H775 H 0.98533 0.14151 0.40856 0.0
H776 H 0.13744 0.98443 0.09339 0.0
H777 H 0.07741 0.00852 0.10029 0.0
H778 H 0.06696 0.93109 0.14209 0.0
H779 H 0.12685 0.90596 0.13496 0.0
H780 H 0.00826 0.93044 0.12161 0.0
H781 H 0.03992 0.07314 0.13837 0.0
H782 H 0.05948 0.06136 0.11782 0.0
H783 H 0.07466 0.03837 0.13718 0.0
C784 C 0.12272 0.97279 0.10423 0.0
C785 C 0.13703 0.94319 0.11361 0.0
C786 C 0.08845 0.98686 0.10826 0.0
C787 C 0.06794 0.97204 0.1219 0.0
C788 C 0.08247 0.94311 0.1316 0.0
H789 H 0.85762 0.08015 0.13866 0.0
H790 H 0.91633 0.05197 0.14532 0.0
C791 C 0.11675 0.92884 0.12752 0.0
C792 C 0.03006 0.98459 0.12481 0.0
H793 H 0.9785 0.06159 0.12808 0.0
C794 C 0.00174 0.95904 0.12339 0.0
C795 C 0.0215 0.02176 0.12747 0.0
C796 C 0.05057 0.05012 0.13049 0.0
C797 C 0.96513 0.97 0.12337 0.0
C798 C 0.95673 0.00756 0.12439 0.0
C799 C 0.98493 0.03282 0.12702 0.0
C800 C 0.91942 0.02158 0.12131 0.0
C801 C 0.9359 0.94124 0.12198 0.0
C802 C 0.90157 0.01372 0.10565 0.0
C803 C 0.86798 0.02962 0.10185 0.0
C804 C 0.85177 0.05425 0.11351 0.0
C805 C 0.86937 0.06151 0.12935 0.0
C806 C 0.90292 0.04537 0.1332 0.0
H807 H 0.94521 0.91497 0.12762 0.0
H808 H 0.91049 0.94977 0.12866 0.0
H809 H 0.92962 0.93639 0.10809 0.0
H810 H 0.9142 0.99625 0.09606 0.0
H811 H 0.85537 0.02353 0.08948 0.0
H812 H 0.97884 0.85464 0.91087 0.0
H813 H 0.00494 0.91391 0.90412 0.0
H814 H 0.94036 0.9195 0.85743 0.0
H815 H 0.91298 0.86042 0.8644 0.0
H816 H 0.04349 0.94173 0.87739 0.0
H817 H 0.90895 0.01089 0.88254 0.0
H818 H 0.91552 0.96405 0.88885 0.0
H819 H 0.91196 0.97597 0.86629 0.0
C820 C 0.9703 0.86822 0.89907 0.0
C821 C 0.94337 0.85299 0.88831 0.0
C822 C 0.98537 0.90214 0.89521 0.0
C823 C 0.97406 0.92147 0.88046 0.0
C824 C 0.94879 0.90544 0.86911 0.0
H825 H 0.08774 0.13116 0.86438 0.0
H826 H 0.0623 0.0711 0.85774 0.0
C827 C 0.93334 0.87158 0.87307 0.0
C828 C 0.9875 0.95913 0.87776 0.0
H829 H 0.96001 0.04801 0.87804 0.0
C830 C 0.02528 0.96502 0.87731 0.0
C831 C 0.96359 0.98941 0.87779 0.0
C832 C 0.92277 0.98497 0.87903 0.0
C833 C 0.03991 0.00035 0.87771 0.0
C834 C 0.01599 0.0306 0.87808 0.0
C835 C 0.97822 0.02473 0.87768 0.0
C836 C 0.02937 0.06822 0.88098 0.0
C837 C 0.08074 0.00482 0.8788 0.0
C838 C 0.01811 0.08716 0.89585 0.0
C839 C 0.03208 0.12162 0.89953 0.0
C840 C 0.05782 0.13787 0.88845 0.0
C841 C 0.06821 0.11934 0.87325 0.0
C842 C 0.05388 0.08489 0.86949 0.0
H843 H 0.09466 0.97879 0.88201 0.0
H844 H 0.09125 0.01436 0.86609 0.0
H845 H 0.08815 0.02538 0.88876 0.0
H846 H 0.99915 0.07483 0.90489 0.0
H847 H 0.02338 0.13505 0.91134 0.0
H848 H 0.27587 0.22707 0.67932 0.0
H849 H 0.2704 0.23433 0.71081 0.0
H850 H 0.171 0.17166 0.7102 0.0
H851 H 0.17631 0.16437 0.67878 0.0
H852 H 0.21613 0.26564 0.73023 0.0
H853 H 0.23084 0.11946 0.74716 0.0
H854 H 0.24172 0.13706 0.72592 0.0
H855 H 0.19513 0.12824 0.7318 0.0
C856 C 0.25292 0.21476 0.68593 0.0
C857 C 0.22706 0.1943 0.67666 0.0
C858 C 0.24985 0.21889 0.7039 0.0
C859 C 0.22076 0.2028 0.7129 0.0
C860 C 0.19428 0.18332 0.70359 0.0
H861 H 0.1445 0.25635 0.8163 0.0
H862 H 0.15286 0.24947 0.78496 0.0
C863 C 0.19743 0.17906 0.68564 0.0
C864 C 0.2177 0.20708 0.73198 0.0
H865 H 0.212 0.15918 0.76986 0.0
C866 C 0.21538 0.24238 0.73891 0.0
C867 C 0.21727 0.17672 0.7433 0.0
C868 C 0.22173 0.13824 0.73671 0.0
C869 C 0.21188 0.24812 0.75684 0.0
C870 C 0.20999 0.21771 0.76809 0.0
C871 C 0.21308 0.18244 0.76119 0.0
C872 C 0.20479 0.22182 0.78706 0.0
C873 C 0.21077 0.28672 0.76358 0.0
C874 C 0.23081 0.20789 0.79866 0.0
C875 C 0.22568 0.21116 0.81657 0.0
C876 C 0.19418 0.22787 0.82316 0.0
C877 C 0.16839 0.24219 0.81155 0.0
C878 C 0.17347 0.23887 0.79366 0.0
H879 H 0.2227 0.30624 0.75414 0.0
H880 H 0.182 0.29473 0.76584 0.0
H881 H 0.22571 0.28915 0.77606 0.0
H882 H 0.25517 0.19464 0.79384 0.0
H883 H 0.24614 0.20027 0.82527 0.0
H884 H 0.25829 0.85214 0.18334 0.0
H885 H 0.25212 0.84416 0.21473 0.0
H886 H 0.19065 0.74551 0.20633 0.0
H887 H 0.19534 0.75441 0.17488 0.0
H888 H 0.1588 0.78919 0.23048 0.0
H889 H 0.30556 0.77248 0.24539 0.0
H890 H 0.29572 0.814 0.23403 0.0
H891 H 0.288 0.77088 0.22354 0.0
C892 C 0.24281 0.8292 0.18821 0.0
C893 C 0.2263 0.80449 0.17672 0.0
C894 C 0.23992 0.82426 0.20614 0.0
C895 C 0.22121 0.79405 0.2129 0.0
C896 C 0.2052 0.76902 0.20141 0.0
H897 H 0.22705 0.72312 0.32077 0.0
H898 H 0.23394 0.72842 0.28925 0.0
C899 C 0.20795 0.77407 0.18348 0.0
C900 C 0.2174 0.78906 0.23192 0.0
H901 H 0.26592 0.7811 0.26955 0.0
C902 C 0.18222 0.78723 0.23902 0.0
C903 C 0.24798 0.78599 0.24303 0.0
C904 C 0.28644 0.78556 0.23611 0.0
C905 C 0.17676 0.78314 0.25694 0.0
C906 C 0.20732 0.78162 0.26812 0.0
C907 C 0.24251 0.78269 0.26099 0.0
C908 C 0.20335 0.77868 0.28723 0.0
C909 C 0.13829 0.77989 0.26368 0.0
C910 C 0.18454 0.80554 0.29661 0.0
C911 C 0.18044 0.80246 0.31458 0.0
C912 C 0.19523 0.77253 0.32351 0.0
C913 C 0.21509 0.7463 0.31419 0.0
C914 C 0.21902 0.74928 0.2962 0.0
H915 H 0.11909 0.77115 0.25334 0.0
H916 H 0.13669 0.76011 0.27456 0.0
H917 H 0.12912 0.80686 0.26851 0.0
H918 H 0.17326 0.82907 0.29005 0.0
H919 H 0.16622 0.82384 0.32148 0.0
H920 H 0.76611 0.72378 0.82258 0.0
H921 H 0.75948 0.72812 0.79101 0.0
H922 H 0.82771 0.82383 0.79075 0.0
H923 H 0.83468 0.81937 0.82221 0.0
H924 H 0.73118 0.78114 0.77096 0.0
H925 H 0.87672 0.76194 0.75424 0.0
H926 H 0.85908 0.75315 0.77568 0.0
H927 H 0.86949 0.799 0.76902 0.0
C928 C 0.77983 0.74561 0.81574 0.0
C929 C 0.8017 0.77066 0.82478 0.0
C930 C 0.77604 0.74807 0.79773 0.0
C931 C 0.79383 0.77578 0.78844 0.0
C932 C 0.81476 0.80149 0.79754 0.0
H933 H 0.74028 0.85013 0.6846 0.0
H934 H 0.74659 0.84203 0.71596 0.0
C935 C 0.81878 0.79888 0.81553 0.0
C936 C 0.7897 0.77835 0.76932 0.0
H937 H 0.83786 0.78249 0.73147 0.0
C938 C 0.75449 0.78122 0.76231 0.0
C939 C 0.82008 0.77786 0.75801 0.0
C940 C 0.85844 0.77244 0.76459 0.0
C941 C 0.74888 0.78441 0.74435 0.0
C942 C 0.77937 0.78565 0.73312 0.0
C943 C 0.81452 0.78197 0.74009 0.0
C944 C 0.77551 0.79072 0.71409 0.0
C945 C 0.71031 0.78582 0.7376 0.0
C946 C 0.79042 0.76509 0.70257 0.0
C947 C 0.7877 0.77023 0.68464 0.0
C948 C 0.77045 0.80134 0.67791 0.0
C949 C 0.75498 0.82664 0.68943 0.0
C950 C 0.7579 0.82163 0.70736 0.0
H951 H 0.6908 0.77352 0.74694 0.0
H952 H 0.70228 0.81468 0.73564 0.0
H953 H 0.70779 0.77135 0.725 0.0
H954 H 0.80411 0.74103 0.70746 0.0
H955 H 0.79948 0.75011 0.67603 0.0
H956 H 0.76541 0.27167 0.32378 0.0
H957 H 0.75675 0.26663 0.29236 0.0
H958 H 0.83364 0.17782 0.29074 0.0
H959 H 0.84213 0.18246 0.32209 0.0
H960 H 0.84532 0.23014 0.26489 0.0
H961 H 0.70067 0.18595 0.26704 0.0
H962 H 0.70998 0.22754 0.27851 0.0
H963 H 0.72975 0.18552 0.28592 0.0
C964 C 0.78044 0.25106 0.31671 0.0
C965 C 0.80501 0.22797 0.32537 0.0
C966 C 0.77538 0.24813 0.29878 0.0
C967 C 0.79439 0.22169 0.28924 0.0
C968 C 0.81887 0.19856 0.29785 0.0
H969 H 0.7497 0.1421 0.18583 0.0
H970 H 0.75823 0.15052 0.21707 0.0
C971 C 0.82397 0.2015 0.31576 0.0
C972 C 0.78901 0.21819 0.27025 0.0
H973 H 0.72527 0.19895 0.2393 0.0
C974 C 0.81908 0.22334 0.25927 0.0
C975 C 0.75484 0.20889 0.26299 0.0
C976 C 0.722 0.20131 0.2742 0.0
C977 C 0.81588 0.21966 0.2412 0.0
C978 C 0.78152 0.21118 0.23392 0.0
C979 C 0.7515 0.2058 0.24491 0.0
C980 C 0.77641 0.20645 0.21496 0.0
C981 C 0.84949 0.22401 0.23012 0.0
C982 C 0.78319 0.23529 0.20342 0.0
C983 C 0.77884 0.23033 0.18554 0.0
C984 C 0.7678 0.19642 0.17893 0.0
C985 C 0.75974 0.16803 0.19054 0.0
C986 C 0.76416 0.17296 0.20839 0.0
H987 H 0.87488 0.22144 0.23788 0.0
H988 H 0.85007 0.20338 0.21958 0.0
H989 H 0.84931 0.25145 0.22407 0.0
H990 H 0.79173 0.26166 0.20825 0.0
H991 H 0.7845 0.25285 0.17687 0.0
loop_
_geom_bond_atom_site_label_1
_geom_bond_atom_site_label_2
_geom_bond_distance
_geom_bond_site_symmetry_2
_ccdc_geom_bond_type
Co0 O3 1.970 . S
Co0 N17 1.989 . S
Co0 O25 1.967 . S
Co0 O32 1.920 . S
Co1 O4 1.966 . S
Co1 N10 2.022 . S
Co1 N18 1.993 . S
Co1 O26 1.941 . S
C2 O3 1.258 . S
C2 O4 1.263 . S
O3 Co0 1.970 . S
O3 C2 1.258 . S
O4 Co1 1.966 . S
O4 C2 1.263 . S
C5 O6 1.235 1_545 S
C5 O32 1.289 . S
O6 C5 1.235 1_565 S
C7 C9 1.400 . S
C7 N10 1.351 . S
C7 C12 1.501 . S
C8 C9 1.387 . S
C8 N11 1.341 . S
C9 C7 1.400 . S
C9 C8 1.387 . S
N10 Co1 2.022 . S
N10 C7 1.351 . S
N10 N11 1.365 . S
N11 C8 1.341 . S
N11 N10 1.365 . S
N11 H31 0.862 . S
C12 C7 1.501 . S
C12 H13 0.961 . S
C12 H14 0.961 . S
C12 H15 0.960 . S
H13 C12 0.961 . S
H14 C12 0.961 . S
H15 C12 0.960 . S
C16 N17 1.342 . S
C16 C20 1.401 . S
C16 C21 1.499 . S
N17 Co0 1.989 . S
N17 C16 1.342 . S
N17 N18 1.388 . S
N18 Co1 1.993 . S
N18 N17 1.388 . S
N18 C19 1.346 . S
C19 N18 1.346 . S
C19 C20 1.396 . S
C19 C29 1.510 . S
C20 C16 1.401 . S
C20 C19 1.396 . S
C21 C16 1.499 . S
C21 H22 0.959 . S
C21 H23 0.960 . S
C21 H24 0.961 . S
H22 C21 0.959 . S
H23 C21 0.960 . S
H24 C21 0.961 . S
O25 Co0 1.967 . S
O25 C33 1.258 . S
O26 Co1 1.941 . S
O26 C33 1.266 . S
H27 C29 0.959 . S
H28 C29 0.961 . S
C29 C19 1.510 . S
C29 H27 0.959 . S
C29 H28 0.961 . S
C29 H30 0.960 . S
H30 C29 0.960 . S
H31 N11 0.862 . S
O32 Co0 1.920 . S
O32 C5 1.289 . S
C33 O25 1.258 . S
C33 O26 1.266 . S
Co34 O37 1.970 . S
Co34 N51 1.989 . S
Co34 O59 1.967 . S
Co34 O66 1.920 . S
Co35 O38 1.966 . S
Co35 N44 2.022 . S
Co35 N52 1.993 . S
Co35 O60 1.941 . S
C36 O37 1.258 . S
C36 O38 1.263 . S
O37 Co34 1.970 . S
O37 C36 1.258 . S
O38 Co35 1.966 . S
O38 C36 1.263 . S
C39 O40 1.235 1_455 S
C39 O66 1.289 . S
O40 C39 1.235 1_655 S
C41 C43 1.400 . S
C41 N44 1.351 . S
C41 C46 1.501 . S
C42 C43 1.387 . S
C42 N45 1.341 . S
C43 C41 1.400 . S
C43 C42 1.387 . S
N44 Co35 2.022 . S
N44 C41 1.351 . S
N44 N45 1.365 . S
N45 C42 1.341 . S
N45 N44 1.365 . S
N45 H65 0.862 . S
C46 C41 1.501 . S
C46 H47 0.961 . S
C46 H48 0.961 . S
C46 H49 0.960 . S
H47 C46 0.961 . S
H48 C46 0.961 . S
H49 C46 0.960 . S
C50 N51 1.342 . S
C50 C54 1.401 . S
C50 C55 1.499 . S
N51 Co34 1.989 . S
N51 C50 1.342 . S
N51 N52 1.388 . S
N52 Co35 1.993 . S
N52 N51 1.388 . S
N52 C53 1.346 . S
C53 N52 1.346 . S
C53 C54 1.396 . S
C53 C63 1.510 . S
C54 C50 1.401 . S
C54 C53 1.396 . S
C55 C50 1.499 . S
C55 H56 0.959 . S
C55 H57 0.960 . S
C55 H58 0.961 . S
H56 C55 0.959 . S
H57 C55 0.960 . S
H58 C55 0.961 . S
O59 Co34 1.967 . S
O59 C67 1.258 . S
O60 Co35 1.941 . S
O60 C67 1.266 . S
H61 C63 0.959 . S
H62 C63 0.961 . S
C63 C53 1.510 . S
C63 H61 0.959 . S
C63 H62 0.961 . S
C63 H64 0.960 . S
H64 C63 0.960 . S
H65 N45 0.862 . S
O66 Co34 1.920 . S
O66 C39 1.289 . S
C67 O59 1.258 . S
C67 O60 1.266 . S
Co68 O71 1.970 . S
Co68 N85 1.989 . S
Co68 O93 1.967 . S
Co68 O100 1.920 . S
Co69 O72 1.966 . S
Co69 N78 2.022 . S
Co69 N86 1.993 . S
Co69 O94 1.941 . S
C70 O71 1.258 . S
C70 O72 1.263 . S
O71 Co68 1.970 . S
O71 C70 1.258 . S
O72 Co69 1.966 . S
O72 C70 1.263 . S
C73 O74 1.235 1_565 S
C73 O100 1.289 . S
O74 C73 1.235 1_545 S
C75 C77 1.400 . S
C75 N78 1.351 . S
C75 C80 1.501 . S
C76 C77 1.387 . S
C76 N79 1.341 . S
C77 C75 1.400 . S
C77 C76 1.387 . S
N78 Co69 2.022 . S
N78 C75 1.351 . S
N78 N79 1.365 . S
N79 C76 1.341 . S
N79 N78 1.365 . S
N79 H99 0.862 . S
C80 C75 1.501 . S
C80 H81 0.961 . S
C80 H82 0.961 . S
C80 H83 0.960 . S
H81 C80 0.961 . S
H82 C80 0.961 . S
H83 C80 0.960 . S
C84 N85 1.342 . S
C84 C88 1.401 . S
C84 C89 1.499 . S
N85 Co68 1.989 . S
N85 C84 1.342 . S
N85 N86 1.388 . S
N86 Co69 1.993 . S
N86 N85 1.388 . S
N86 C87 1.346 . S
C87 N86 1.346 . S
C87 C88 1.396 . S
C87 C97 1.510 . S
C88 C84 1.401 . S
C88 C87 1.396 . S
C89 C84 1.499 . S
C89 H90 0.959 . S
C89 H91 0.960 . S
C89 H92 0.961 . S
H90 C89 0.959 . S
H91 C89 0.960 . S
H92 C89 0.961 . S
O93 Co68 1.967 . S
O93 C101 1.258 . S
O94 Co69 1.941 . S
O94 C101 1.266 . S
H95 C97 0.959 . S
H96 C97 0.961 . S
C97 C87 1.510 . S
C97 H95 0.959 . S
C97 H96 0.961 . S
C97 H98 0.960 . S
H98 C97 0.960 . S
H99 N79 0.862 . S
O100 Co68 1.920 . S
O100 C73 1.289 . S
C101 O93 1.258 . S
C101 O94 1.266 . S
Co102 O105 1.970 . S
Co102 N119 1.989 . S
Co102 O127 1.967 . S
Co102 O134 1.920 . S
Co103 O106 1.966 . S
Co103 N112 2.022 . S
Co103 N120 1.993 . S
Co103 O128 1.941 . S
C104 O105 1.258 . S
C104 O106 1.263 . S
O105 Co102 1.970 . S
O105 C104 1.258 . S
O106 Co103 1.966 . S
O106 C104 1.263 . S
C107 O108 1.235 1_655 S
C107 O134 1.289 . S
O108 C107 1.235 1_455 S
C109 C111 1.400 . S
C109 N112 1.351 . S
C109 C114 1.501 . S
C110 C111 1.387 . S
C110 N113 1.341 . S
C111 C109 1.400 . S
C111 C110 1.387 . S
N112 Co103 2.022 . S
N112 C109 1.351 . S
N112 N113 1.365 . S
N113 C110 1.341 . S
N113 N112 1.365 . S
N113 H133 0.862 . S
C114 C109 1.501 . S
C114 H115 0.961 . S
C114 H116 0.961 . S
C114 H117 0.960 . S
H115 C114 0.961 . S
H116 C114 0.961 . S
H117 C114 0.960 . S
C118 N119 1.342 . S
C118 C122 1.401 . S
C118 C123 1.499 . S
N119 Co102 1.989 . S
N119 C118 1.342 . S
N119 N120 1.388 . S
N120 Co103 1.993 . S
N120 N119 1.388 . S
N120 C121 1.346 . S
C121 N120 1.346 . S
C121 C122 1.396 . S
C121 C131 1.510 . S
C122 C118 1.401 . S
C122 C121 1.396 . S
C123 C118 1.499 . S
C123 H124 0.959 . S
C123 H125 0.960 . S
C123 H126 0.961 . S
H124 C123 0.959 . S
H125 C123 0.960 . S
H126 C123 0.961 . S
O127 Co102 1.967 . S
O127 C135 1.258 . S
O128 Co103 1.941 . S
O128 C135 1.266 . S
H129 C131 0.959 . S
H130 C131 0.961 . S
C131 C121 1.510 . S
C131 H129 0.959 . S
C131 H130 0.961 . S
C131 H132 0.960 . S
H132 C131 0.960 . S
H133 N113 0.862 . S
O134 Co102 1.920 . S
O134 C107 1.289 . S
C135 O127 1.258 . S
C135 O128 1.266 . S
Co136 O139 1.970 . S
Co136 N153 1.989 . S
Co136 O161 1.967 . S
Co136 O168 1.920 . S
Co137 O140 1.966 . S
Co137 N146 2.022 . S
Co137 N154 1.993 . S
Co137 O162 1.941 . S
C138 O139 1.258 . S
C138 O140 1.263 . S
O139 Co136 1.970 . S
O139 C138 1.258 . S
O140 Co137 1.966 . S
O140 C138 1.263 . S
C141 O142 1.235 1_545 S
C141 O168 1.289 . S
O142 C141 1.235 1_565 S
C143 C145 1.400 . S
C143 N146 1.351 . S
C143 C148 1.501 . S
C144 C145 1.387 . S
C144 N147 1.341 . S
C145 C143 1.400 . S
C145 C144 1.387 . S
N146 Co137 2.022 . S
N146 C143 1.351 . S
N146 N147 1.365 . S
N147 C144 1.341 . S
N147 N146 1.365 . S
N147 H167 0.862 . S
C148 C143 1.501 . S
C148 H149 0.961 . S
C148 H150 0.961 . S
C148 H151 0.960 . S
H149 C148 0.961 . S
H150 C148 0.961 . S
H151 C148 0.960 . S
C152 N153 1.342 . S
C152 C156 1.401 . S
C152 C157 1.499 . S
N153 Co136 1.989 . S
N153 C152 1.342 . S
N153 N154 1.388 . S
N154 Co137 1.993 . S
N154 N153 1.388 . S
N154 C155 1.346 . S
C155 N154 1.346 . S
C155 C156 1.396 . S
C155 C165 1.510 . S
C156 C152 1.401 . S
C156 C155 1.396 . S
C157 C152 1.499 . S
C157 H158 0.959 . S
C157 H159 0.960 . S
C157 H160 0.961 . S
H158 C157 0.959 . S
H159 C157 0.960 . S
H160 C157 0.961 . S
O161 Co136 1.967 . S
O161 C169 1.258 . S
O162 Co137 1.941 . S
O162 C169 1.266 . S
H163 C165 0.959 . S
H164 C165 0.961 . S
C165 C155 1.510 . S
C165 H163 0.959 . S
C165 H164 0.961 . S
C165 H166 0.960 . S
H166 C165 0.960 . S
H167 N147 0.862 . S
O168 Co136 1.920 . S
O168 C141 1.289 . S
C169 O161 1.258 . S
C169 O162 1.266 . S
Co170 O173 1.970 . S
Co170 N187 1.989 . S
Co170 O195 1.967 . S
Co170 O202 1.920 . S
Co171 O174 1.966 . S
Co171 N180 2.022 . S
Co171 N188 1.993 . S
Co171 O196 1.941 . S
C172 O173 1.258 . S
C172 O174 1.263 . S
O173 Co170 1.970 . S
O173 C172 1.258 . S
O174 Co171 1.966 . S
O174 C172 1.263 . S
C175 O176 1.235 1_455 S
C175 O202 1.289 . S
O176 C175 1.235 1_655 S
C177 C179 1.400 . S
C177 N180 1.351 . S
C177 C182 1.501 . S
C178 C179 1.387 . S
C178 N181 1.341 . S
C179 C177 1.400 . S
C179 C178 1.387 . S
N180 Co171 2.022 . S
N180 C177 1.351 . S
N180 N181 1.365 . S
N181 C178 1.341 . S
N181 N180 1.365 . S
N181 H201 0.862 . S
C182 C177 1.501 . S
C182 H183 0.961 . S
C182 H184 0.961 . S
C182 H185 0.960 . S
H183 C182 0.961 . S
H184 C182 0.961 . S
H185 C182 0.960 . S
C186 N187 1.342 . S
C186 C190 1.401 . S
C186 C191 1.499 . S
N187 Co170 1.989 . S
N187 C186 1.342 . S
N187 N188 1.388 . S
N188 Co171 1.993 . S
N188 N187 1.388 . S
N188 C189 1.346 . S
C189 N188 1.346 . S
C189 C190 1.396 . S
C189 C199 1.510 . S
C190 C186 1.401 . S
C190 C189 1.396 . S
C191 C186 1.499 . S
C191 H192 0.959 . S
C191 H193 0.960 . S
C191 H194 0.961 . S
H192 C191 0.959 . S
H193 C191 0.960 . S
H194 C191 0.961 . S
O195 Co170 1.967 . S
O195 C203 1.258 . S
O196 Co171 1.941 . S
O196 C203 1.266 . S
H197 C199 0.959 . S
H198 C199 0.961 . S
C199 C189 1.510 . S
C199 H197 0.959 . S
C199 H198 0.961 . S
C199 H200 0.960 . S
H200 C199 0.960 . S
H201 N181 0.862 . S
O202 Co170 1.920 . S
O202 C175 1.289 . S
C203 O195 1.258 . S
C203 O196 1.266 . S
Co204 O207 1.970 . S
Co204 N221 1.989 . S
Co204 O229 1.967 . S
Co204 O236 1.920 . S
Co205 O208 1.966 . S
Co205 N214 2.022 . S
Co205 N222 1.993 . S
Co205 O230 1.941 . S
C206 O207 1.258 . S
C206 O208 1.263 . S
O207 Co204 1.970 . S
O207 C206 1.258 . S
O208 Co205 1.966 . S
O208 C206 1.263 . S
C209 O210 1.235 1_565 S
C209 O236 1.289 . S
O210 C209 1.235 1_545 S
C211 C213 1.400 . S
C211 N214 1.351 . S
C211 C216 1.501 . S
C212 C213 1.387 . S
C212 N215 1.341 . S
C213 C211 1.400 . S
C213 C212 1.387 . S
N214 Co205 2.022 . S
N214 C211 1.351 . S
N214 N215 1.365 . S
N215 C212 1.341 . S
N215 N214 1.365 . S
N215 H235 0.862 . S
C216 C211 1.501 . S
C216 H217 0.961 . S
C216 H218 0.961 . S
C216 H219 0.960 . S
H217 C216 0.961 . S
H218 C216 0.961 . S
H219 C216 0.960 . S
C220 N221 1.342 . S
C220 C224 1.401 . S
C220 C225 1.499 . S
N221 Co204 1.989 . S
N221 C220 1.342 . S
N221 N222 1.388 . S
N222 Co205 1.993 . S
N222 N221 1.388 . S
N222 C223 1.346 . S
C223 N222 1.346 . S
C223 C224 1.396 . S
C223 C233 1.510 . S
C224 C220 1.401 . S
C224 C223 1.396 . S
C225 C220 1.499 . S
C225 H226 0.959 . S
C225 H227 0.960 . S
C225 H228 0.961 . S
H226 C225 0.959 . S
H227 C225 0.960 . S
H228 C225 0.961 . S
O229 Co204 1.967 . S
O229 C237 1.258 . S
O230 Co205 1.941 . S
O230 C237 1.266 . S
H231 C233 0.959 . S
H232 C233 0.961 . S
C233 C223 1.510 . S
C233 H231 0.959 . S
C233 H232 0.961 . S
C233 H234 0.960 . S
H234 C233 0.960 . S
H235 N215 0.862 . S
O236 Co204 1.920 . S
O236 C209 1.289 . S
C237 O229 1.258 . S
C237 O230 1.266 . S
Co238 O241 1.970 . S
Co238 N255 1.989 . S
Co238 O263 1.967 . S
Co238 O270 1.920 . S
Co239 O242 1.966 . S
Co239 N248 2.022 . S
Co239 N256 1.993 . S
Co239 O264 1.941 . S
C240 O241 1.258 . S
C240 O242 1.263 . S
O241 Co238 1.970 . S
O241 C240 1.258 . S
O242 Co239 1.966 . S
O242 C240 1.263 . S
C243 O244 1.235 1_655 S
C243 O270 1.289 . S
O244 C243 1.235 1_455 S
C245 C247 1.400 . S
C245 N248 1.351 . S
C245 C250 1.501 . S
C246 C247 1.387 . S
C246 N249 1.341 . S
C247 C245 1.400 . S
C247 C246 1.387 . S
N248 Co239 2.022 . S
N248 C245 1.351 . S
N248 N249 1.365 . S
N249 C246 1.341 . S
N249 N248 1.365 . S
N249 H269 0.862 . S
C250 C245 1.501 . S
C250 H251 0.961 . S
C250 H252 0.961 . S
C250 H253 0.960 . S
H251 C250 0.961 . S
H252 C250 0.961 . S
H253 C250 0.960 . S
C254 N255 1.342 . S
C254 C258 1.401 . S
C254 C259 1.499 . S
N255 Co238 1.989 . S
N255 C254 1.342 . S
N255 N256 1.388 . S
N256 Co239 1.993 . S
N256 N255 1.388 . S
N256 C257 1.346 . S
C257 N256 1.346 . S
C257 C258 1.396 . S
C257 C267 1.510 . S
C258 C254 1.401 . S
C258 C257 1.396 . S
C259 C254 1.499 . S
C259 H260 0.959 . S
C259 H261 0.960 . S
C259 H262 0.961 . S
H260 C259 0.959 . S
H261 C259 0.960 . S
H262 C259 0.961 . S
O263 Co238 1.967 . S
O263 C271 1.258 . S
O264 Co239 1.941 . S
O264 C271 1.266 . S
H265 C267 0.959 . S
H266 C267 0.961 . S
C267 C257 1.510 . S
C267 H265 0.959 . S
C267 H266 0.961 . S
C267 H268 0.960 . S
H268 C267 0.960 . S
H269 N249 0.862 . S
O270 Co238 1.920 . S
O270 C243 1.289 . S
C271 O263 1.258 . S
C271 O264 1.266 . S
H272 C280 0.929 1_545 S
H273 C282 0.930 . S
H274 C284 0.930 . S
H275 C287 0.933 . S
H276 C290 0.930 . S
H277 C292 0.960 . S
H278 C292 0.960 . S
H279 C292 0.960 . S
C280 H272 0.929 1_565 S
C280 C281 1.377 1_565 S
C280 C282 1.384 . S
C281 C280 1.377 1_545 S
C281 C287 1.390 1_545 S
C282 H273 0.930 . S
C282 C280 1.384 . S
C282 C283 1.372 . S
C283 C282 1.372 . S
C283 C284 1.400 . S
C283 C288 1.490 . S
C284 H274 0.930 . S
C284 C283 1.400 . S
C284 C287 1.386 . S
H285 C301 0.930 . S
H286 C302 0.931 . S
C287 H275 0.933 . S
C287 C281 1.390 1_565 S
C287 C284 1.386 . S
C288 C283 1.490 . S
C288 C290 1.395 . S
C288 C291 1.403 . S
H289 C295 0.930 . S
C290 H276 0.930 . S
C290 C288 1.395 . S
C290 C293 1.403 . S
C291 C288 1.403 . S
C291 C292 1.524 . S
C291 C295 1.400 . S
C292 H277 0.960 . S
C292 H278 0.960 . S
C292 H279 0.960 . S
C292 C291 1.524 . S
C293 C290 1.403 . S
C293 C294 1.392 . S
C293 C297 1.495 . S
C294 C293 1.392 . S
C294 C295 1.385 . S
C294 C296 1.478 . S
C295 H289 0.930 . S
C295 C291 1.400 . S
C295 C294 1.385 . S
C296 C294 1.478 . S
C296 C298 1.381 . S
C296 C302 1.383 . S
C297 C293 1.495 . S
C297 H303 0.959 . S
C297 H304 0.961 . S
C297 H305 0.960 . S
C298 C296 1.381 . S
C298 C299 1.394 . S
C298 H306 0.930 . S
C299 C298 1.394 . S
C299 C300 1.383 . S
C299 H307 0.929 . S
C300 C299 1.383 . S
C300 C301 1.377 . S
C301 H285 0.930 . S
C301 C300 1.377 . S
C301 C302 1.379 . S
C302 H286 0.931 . S
C302 C296 1.383 . S
C302 C301 1.379 . S
H303 C297 0.959 . S
H304 C297 0.961 . S
H305 C297 0.960 . S
H306 C298 0.930 . S
H307 C299 0.929 . S
H308 C316 0.929 . S
H309 C318 0.930 . S
H310 C320 0.930 . S
H311 C323 0.929 . S
H312 C326 0.930 . S
H313 C328 0.960 . S
H314 C328 0.960 . S
H315 C328 0.960 . S
C316 H308 0.929 . S
C316 C317 1.377 . S
C316 C318 1.384 . S
C317 C316 1.377 . S
C317 C323 1.390 . S
C318 H309 0.930 . S
C318 C316 1.384 . S
C318 C319 1.372 . S
C319 C318 1.372 . S
C319 C320 1.400 . S
C319 C324 1.490 . S
C320 H310 0.930 . S
C320 C319 1.400 . S
C320 C323 1.386 . S
H321 C337 0.930 . S
H322 C338 0.931 . S
C323 H311 0.929 . S
C323 C317 1.390 . S
C323 C320 1.386 . S
C324 C319 1.490 . S
C324 C326 1.395 . S
C324 C327 1.403 . S
H325 C331 0.930 . S
C326 H312 0.930 . S
C326 C324 1.395 . S
C326 C329 1.403 . S
C327 C324 1.403 . S
C327 C328 1.524 . S
C327 C331 1.400 . S
C328 H313 0.960 . S
C328 H314 0.960 . S
C328 H315 0.960 . S
C328 C327 1.524 . S
C329 C326 1.403 . S
C329 C330 1.392 . S
C329 C333 1.495 . S
C330 C329 1.392 . S
C330 C331 1.385 . S
C330 C332 1.478 . S
C331 H325 0.930 . S
C331 C327 1.400 . S
C331 C330 1.385 . S
C332 C330 1.478 . S
C332 C334 1.381 . S
C332 C338 1.383 . S
C333 C329 1.495 . S
C333 H339 0.959 . S
C333 H340 0.961 . S
C333 H341 0.960 1_655 S
C334 C332 1.381 . S
C334 C335 1.394 1_655 S
C334 H342 0.930 . S
C335 C334 1.394 1_455 S
C335 C336 1.383 . S
C335 H343 0.929 . S
C336 C335 1.383 . S
C336 C337 1.377 1_455 S
C337 H321 0.930 . S
C337 C336 1.377 1_655 S
C337 C338 1.379 . S
C338 H322 0.931 . S
C338 C332 1.383 . S
C338 C337 1.379 . S
H339 C333 0.959 . S
H340 C333 0.961 . S
H341 C333 0.960 1_455 S
H342 C334 0.930 . S
H343 C335 0.929 . S
H344 C352 0.929 . S
H345 C354 0.930 . S
H346 C356 0.930 . S
H347 C359 0.940 . S
H348 C362 0.930 . S
H349 C364 0.960 . S
H350 C364 0.960 . S
H351 C364 0.960 . S
C352 H344 0.929 . S
C352 C353 1.377 1_545 S
C352 C354 1.384 . S
C353 C352 1.377 1_565 S
C353 C359 1.395 . S
C354 H345 0.930 . S
C354 C352 1.384 . S
C354 C355 1.372 . S
C355 C354 1.372 . S
C355 C356 1.400 . S
C355 C360 1.490 . S
C356 H346 0.930 . S
C356 C355 1.400 . S
C356 C359 1.370 1_545 S
H357 C373 0.930 . S
H358 C374 0.931 . S
C359 H347 0.940 . S
C359 C353 1.395 . S
C359 C356 1.370 1_565 S
C360 C355 1.490 . S
C360 C362 1.395 . S
C360 C363 1.403 . S
H361 C367 0.930 . S
C362 H348 0.930 . S
C362 C360 1.395 . S
C362 C365 1.403 . S
C363 C360 1.403 . S
C363 C364 1.524 . S
C363 C367 1.400 . S
C364 H349 0.960 . S
C364 H350 0.960 . S
C364 H351 0.960 . S
C364 C363 1.524 . S
C365 C362 1.403 . S
C365 C366 1.392 . S
C365 C369 1.495 . S
C366 C365 1.392 . S
C366 C367 1.385 . S
C366 C368 1.478 . S
C367 H361 0.930 . S
C367 C363 1.400 . S
C367 C366 1.385 . S
C368 C366 1.478 . S
C368 C370 1.381 . S
C368 C374 1.383 . S
C369 C365 1.495 . S
C369 H375 0.959 . S
C369 H376 0.961 . S
C369 H377 0.960 . S
C370 C368 1.381 . S
C370 C371 1.394 . S
C370 H378 0.930 . S
C371 C370 1.394 . S
C371 C372 1.383 . S
C371 H379 0.929 . S
C372 C371 1.383 . S
C372 C373 1.377 . S
C373 H357 0.930 . S
C373 C372 1.377 . S
C373 C374 1.379 . S
C374 H358 0.931 . S
C374 C368 1.383 . S
C374 C373 1.379 . S
H375 C369 0.959 . S
H376 C369 0.961 . S
H377 C369 0.960 . S
H378 C370 0.930 . S
H379 C371 0.929 . S
H380 C388 0.929 . S
H381 C390 0.930 . S
H382 C392 0.930 . S
H383 C395 0.929 . S
H384 C398 0.930 . S
H385 C400 0.960 . S
H386 C400 0.960 . S
H387 C400 0.960 . S
C388 H380 0.929 . S
C388 C389 1.377 . S
C388 C390 1.384 . S
C389 C388 1.377 . S
C389 C395 1.390 . S
C390 H381 0.930 . S
C390 C388 1.384 . S
C390 C391 1.372 . S
C391 C390 1.372 . S
C391 C392 1.400 . S
C391 C396 1.490 . S
C392 H382 0.930 . S
C392 C391 1.400 . S
C392 C395 1.386 . S
H393 C409 0.930 1_655 S
H394 C410 0.931 . S
C395 H383 0.929 . S
C395 C389 1.390 . S
C395 C392 1.386 . S
C396 C391 1.490 . S
C396 C398 1.395 . S
C396 C399 1.403 . S
H397 C403 0.930 . S
C398 H384 0.930 . S
C398 C396 1.395 . S
C398 C401 1.403 . S
C399 C396 1.403 . S
C399 C400 1.524 . S
C399 C403 1.400 . S
C400 H385 0.960 . S
C400 H386 0.960 . S
C400 H387 0.960 . S
C400 C399 1.524 . S
C401 C398 1.403 . S
C401 C402 1.392 . S
C401 C405 1.495 . S
C402 C401 1.392 . S
C402 C403 1.385 . S
C402 C404 1.478 . S
C403 H397 0.930 . S
C403 C399 1.400 . S
C403 C402 1.385 . S
C404 C402 1.478 . S
C404 C406 1.381 . S
C404 C410 1.383 . S
C405 C401 1.495 . S
C405 H411 0.959 . S
C405 H412 0.961 . S
C405 H413 0.960 . S
C406 C404 1.381 . S
C406 C407 1.394 . S
C406 H414 0.930 . S
C407 C406 1.394 . S
C407 C408 1.383 1_455 S
C407 H415 0.929 . S
C408 C407 1.383 1_655 S
C408 C409 1.377 1_655 S
C409 H393 0.930 1_455 S
C409 C408 1.377 1_455 S
C409 C410 1.379 . S
C410 H394 0.931 . S
C410 C404 1.383 . S
C410 C409 1.379 . S
H411 C405 0.959 . S
H412 C405 0.961 . S
H413 C405 0.960 . S
H414 C406 0.930 . S
H415 C407 0.929 . S
H416 C424 0.929 . S
H417 C426 0.930 . S
H418 C428 0.930 . S
H419 C431 0.929 . S
H420 C434 0.930 . S
H421 C436 0.960 . S
H422 C436 0.960 . S
H423 C436 0.960 . S
C424 H416 0.929 . S
C424 C425 1.377 . S
C424 C426 1.384 . S
C425 C424 1.377 . S
C425 C431 1.390 . S
C426 H417 0.930 . S
C426 C424 1.384 . S
C426 C427 1.372 . S
C427 C426 1.372 . S
C427 C428 1.400 . S
C427 C432 1.490 . S
C428 H418 0.930 . S
C428 C427 1.400 . S
C428 C431 1.386 . S
H429 C445 0.928 1_545 S
H430 C446 0.931 . S
C431 H419 0.929 . S
C431 C425 1.390 . S
C431 C428 1.386 . S
C432 C427 1.490 . S
C432 C434 1.395 . S
C432 C435 1.403 . S
H433 C439 0.930 . S
C434 H420 0.930 . S
C434 C432 1.395 . S
C434 C437 1.403 1_556 S
C435 C432 1.403 . S
C435 C436 1.524 . S
C435 C439 1.400 . S
C436 H421 0.960 . S
C436 H422 0.960 . S
C436 H423 0.960 . S
C436 C435 1.524 . S
C437 C434 1.403 1_554 S
C437 C438 1.392 . S
C437 C441 1.495 . S
C438 C437 1.392 . S
C438 C439 1.385 1_554 S
C438 C440 1.478 . S
C439 H433 0.930 . S
C439 C435 1.400 . S
C439 C438 1.385 1_556 S
C440 C438 1.478 . S
C440 C442 1.381 . S
C440 C446 1.383 . S
C441 C437 1.495 . S
C441 H447 0.959 . S
C441 H448 0.961 . S
C441 H449 0.960 . S
C442 C440 1.381 . S
C442 C443 1.394 . S
C442 H450 0.930 . S
C443 C442 1.394 . S
C443 C444 1.383 1_565 S
C443 H451 0.929 . S
C444 C443 1.383 1_545 S
C444 C445 1.376 1_545 S
C445 H429 0.928 1_565 S
C445 C444 1.376 1_565 S
C445 C446 1.382 . S
C446 H430 0.931 . S
C446 C440 1.383 . S
C446 C445 1.382 . S
H447 C441 0.959 . S
H448 C441 0.961 . S
H449 C441 0.960 . S
H450 C442 0.930 . S
H451 C443 0.929 . S
H452 C460 0.929 . S
H453 C462 0.930 . S
H454 C464 0.930 . S
H455 C467 0.929 . S
H456 C470 0.930 . S
H457 C472 0.960 1_556 S
H458 C472 0.960 . S
H459 C472 0.960 . S
C460 H452 0.929 . S
C460 C461 1.377 . S
C460 C462 1.384 . S
C461 C460 1.377 . S
C461 C467 1.390 . S
C462 H453 0.930 . S
C462 C460 1.384 . S
C462 C463 1.372 . S
C463 C462 1.372 . S
C463 C464 1.400 . S
C463 C468 1.490 . S
C464 H454 0.930 . S
C464 C463 1.400 . S
C464 C467 1.386 . S
H465 C481 0.930 . S
H466 C482 0.931 . S
C467 H455 0.929 . S
C467 C461 1.390 . S
C467 C464 1.386 . S
C468 C463 1.490 . S
C468 C470 1.395 . S
C468 C471 1.403 . S
H469 C475 0.930 . S
C470 H456 0.930 . S
C470 C468 1.395 . S
C470 C473 1.403 . S
C471 C468 1.403 . S
C471 C472 1.524 . S
C471 C475 1.400 1_554 S
C472 H457 0.960 1_554 S
C472 H458 0.960 . S
C472 H459 0.960 . S
C472 C471 1.524 . S
C473 C470 1.403 . S
C473 C474 1.428 . S
C473 C477 1.495 . S
C474 C473 1.428 . S
C474 C475 1.376 1_554 S
C474 C476 1.451 1_554 S
C475 H469 0.930 . S
C475 C471 1.400 1_556 S
C475 C474 1.376 1_556 S
C476 C474 1.451 1_556 S
C476 C478 1.381 . S
C476 C482 1.383 . S
C477 C473 1.495 . S
C477 H483 0.959 . S
C477 H484 0.961 . S
C477 H485 0.960 . S
C478 C476 1.381 . S
C478 C479 1.394 . S
C478 H486 0.930 . S
C479 C478 1.394 . S
C479 C480 1.383 1_655 S
C479 H487 0.929 . S
C480 C479 1.383 1_455 S
C480 C481 1.377 . S
C481 H465 0.930 . S
C481 C480 1.377 . S
C481 C482 1.379 1_455 S
C482 H466 0.931 . S
C482 C476 1.383 . S
C482 C481 1.379 1_655 S
H483 C477 0.959 . S
H484 C477 0.961 . S
H485 C477 0.960 . S
H486 C478 0.930 . S
H487 C479 0.929 . S
H488 C496 0.929 . S
H489 C498 0.930 . S
H490 C500 0.930 . S
H491 C503 0.929 . S
H492 C506 0.930 . S
H493 C508 0.960 1_554 S
H494 C508 0.960 . S
H495 C508 0.960 . S
C496 H488 0.929 . S
C496 C497 1.377 . S
C496 C498 1.384 . S
C497 C496 1.377 . S
C497 C503 1.390 . S
C498 H489 0.930 . S
C498 C496 1.384 . S
C498 C499 1.372 . S
C499 C498 1.372 . S
C499 C500 1.400 . S
C499 C504 1.490 . S
C500 H490 0.930 . S
C500 C499 1.400 . S
C500 C503 1.386 . S
H501 C517 0.930 . S
H502 C518 0.931 . S
C503 H491 0.929 . S
C503 C497 1.390 . S
C503 C500 1.386 . S
C504 C499 1.490 . S
C504 C506 1.395 . S
C504 C507 1.403 . S
H505 C511 0.930 . S
C506 H492 0.930 . S
C506 C504 1.395 . S
C506 C509 1.403 . S
C507 C504 1.403 . S
C507 C508 1.524 . S
C507 C511 1.400 1_556 S
C508 H493 0.960 1_556 S
C508 H494 0.960 . S
C508 H495 0.960 . S
C508 C507 1.524 . S
C509 C506 1.403 . S
C509 C510 1.402 . S
C509 C513 1.495 . S
C510 C509 1.402 . S
C510 C511 1.384 1_556 S
C510 C512 1.468 1_556 S
C511 H505 0.930 . S
C511 C507 1.400 1_554 S
C511 C510 1.384 1_554 S
C512 C510 1.468 1_554 S
C512 C514 1.381 . S
C512 C518 1.383 . S
C513 C509 1.495 . S
C513 H519 0.959 . S
C513 H520 0.961 . S
C513 H521 0.960 . S
C514 C512 1.381 . S
C514 C515 1.394 1_545 S
C514 H522 0.954 1_545 S
C515 C514 1.394 1_565 S
C515 C516 1.383 . S
C515 H523 0.929 . S
C516 C515 1.383 . S
C516 C517 1.377 1_565 S
C517 H501 0.930 . S
C517 C516 1.377 1_545 S
C517 C518 1.379 . S
C518 H502 0.931 . S
C518 C512 1.383 . S
C518 C517 1.379 . S
H519 C513 0.959 . S
H520 C513 0.961 . S
H521 C513 0.960 . S
H522 C514 0.954 1_565 S
H523 C515 0.929 . S
H524 C532 0.929 . S
H525 C534 0.930 . S
H526 C536 0.930 . S
H527 C539 0.929 . S
H528 C542 0.930 . S
H529 C544 0.960 . S
H530 C544 0.960 . S
H531 C544 0.960 . S
C532 H524 0.929 . S
C532 C533 1.377 . S
C532 C534 1.384 1_655 S
C533 C532 1.377 . S
C533 C539 1.390 1_655 S
C534 H525 0.930 . S
C534 C532 1.384 1_455 S
C534 C535 1.372 . S
C535 C534 1.372 . S
C535 C536 1.400 . S
C535 C540 1.490 . S
C536 H526 0.930 . S
C536 C535 1.400 . S
C536 C539 1.386 . S
H537 C553 0.930 . S
H538 C554 0.931 . S
C539 H527 0.929 . S
C539 C533 1.390 1_455 S
C539 C536 1.386 . S
C540 C535 1.490 . S
C540 C542 1.395 1_556 S
C540 C543 1.403 . S
H541 C547 0.930 . S
C542 H528 0.930 . S
C542 C540 1.395 1_554 S
C542 C545 1.403 . S
C543 C540 1.403 . S
C543 C544 1.524 . S
C543 C547 1.400 1_556 S
C544 H529 0.960 . S
C544 H530 0.960 . S
C544 H531 0.960 . S
C544 C543 1.524 . S
C545 C542 1.403 . S
C545 C546 1.392 . S
C545 C549 1.495 . S
C546 C545 1.392 . S
C546 C547 1.385 . S
C546 C548 1.478 . S
C547 H541 0.930 . S
C547 C543 1.400 1_554 S
C547 C546 1.385 . S
C548 C546 1.478 . S
C548 C550 1.381 . S
C548 C554 1.383 . S
C549 C545 1.495 . S
C549 H555 0.959 . S
C549 H556 0.961 . S
C549 H557 0.960 . S
C550 C548 1.381 . S
C550 C551 1.394 . S
C550 H558 0.930 . S
C551 C550 1.394 . S
C551 C552 1.383 . S
C551 H559 0.929 . S
C552 C551 1.383 . S
C552 C553 1.377 . S
C553 H537 0.930 . S
C553 C552 1.377 . S
C553 C554 1.379 . S
C554 H538 0.931 . S
C554 C548 1.383 . S
C554 C553 1.379 . S
H555 C549 0.959 . S
H556 C549 0.961 . S
H557 C549 0.960 . S
H558 C550 0.930 . S
H559 C551 0.929 . S
H560 C568 0.929 . S
H561 C570 0.930 . S
H562 C572 0.930 . S
H563 C575 0.929 . S
H564 C578 0.930 . S
H565 C580 0.960 . S
H566 C580 0.960 . S
H567 C580 0.960 . S
C568 H560 0.929 . S
C568 C569 1.377 . S
C568 C570 1.384 . S
C569 C568 1.377 . S
C569 C575 1.390 . S
C570 H561 0.930 . S
C570 C568 1.384 . S
C570 C571 1.372 . S
C571 C570 1.372 . S
C571 C572 1.400 . S
C571 C576 1.490 . S
C572 H562 0.930 . S
C572 C571 1.400 . S
C572 C575 1.386 . S
H573 C589 0.930 . S
H574 C590 0.931 . S
C575 H563 0.929 . S
C575 C569 1.390 . S
C575 C572 1.386 . S
C576 C571 1.490 . S
C576 C578 1.395 . S
C576 C579 1.403 1_565 S
H577 C583 0.930 . S
C578 H564 0.930 . S
C578 C576 1.395 . S
C578 C581 1.403 . S
C579 C576 1.403 1_545 S
C579 C580 1.524 . S
C579 C583 1.400 . S
C580 H565 0.960 . S
C580 H566 0.960 . S
C580 H567 0.960 . S
C580 C579 1.524 . S
C581 C578 1.403 . S
C581 C582 1.392 1_565 S
C581 C585 1.495 . S
C582 C581 1.392 1_545 S
C582 C583 1.385 . S
C582 C584 1.478 . S
C583 H577 0.930 . S
C583 C579 1.400 . S
C583 C582 1.385 . S
C584 C582 1.478 . S
C584 C586 1.381 . S
C584 C590 1.383 . S
C585 C581 1.495 . S
C585 H591 0.959 . S
C585 H592 0.961 . S
C585 H593 0.960 . S
C586 C584 1.381 . S
C586 C587 1.394 . S
C586 H594 0.930 . S
C587 C586 1.394 . S
C587 C588 1.383 . S
C587 H595 0.929 . S
C588 C587 1.383 . S
C588 C589 1.377 . S
C589 H573 0.930 . S
C589 C588 1.377 . S
C589 C590 1.379 . S
C590 H574 0.931 . S
C590 C584 1.383 . S
C590 C589 1.379 . S
H591 C585 0.959 . S
H592 C585 0.961 . S
H593 C585 0.960 . S
H594 C586 0.930 . S
H595 C587 0.929 . S
H596 C604 0.929 . S
H597 C606 0.930 . S
H598 C608 0.930 . S
H599 C611 0.929 . S
H600 C614 0.930 . S
H601 C616 0.960 . S
H602 C616 0.960 . S
H603 C616 0.960 . S
C604 H596 0.929 . S
C604 C605 1.377 . S
C604 C606 1.384 . S
C605 C604 1.377 . S
C605 C611 1.390 . S
C606 H597 0.930 . S
C606 C604 1.384 . S
C606 C607 1.372 . S
C607 C606 1.372 . S
C607 C608 1.400 . S
C607 C612 1.490 . S
C608 H598 0.930 . S
C608 C607 1.400 . S
C608 C611 1.386 . S
H609 C625 0.930 . S
H610 C626 0.931 . S
C611 H599 0.929 . S
C611 C605 1.390 . S
C611 C608 1.386 . S
C612 C607 1.490 . S
C612 C614 1.395 1_455 S
C612 C615 1.403 . S
H613 C619 0.930 . S
C614 H600 0.930 . S
C614 C612 1.395 1_655 S
C614 C617 1.403 . S
C615 C612 1.403 . S
C615 C616 1.524 . S
C615 C619 1.400 . S
C616 H601 0.960 . S
C616 H602 0.960 . S
C616 H603 0.960 . S
C616 C615 1.524 . S
C617 C614 1.403 . S
C617 C618 1.392 . S
C617 C621 1.495 . S
C618 C617 1.392 . S
C618 C619 1.385 1_655 S
C618 C620 1.478 . S
C619 H613 0.930 . S
C619 C615 1.400 . S
C619 C618 1.385 1_455 S
C620 C618 1.478 . S
C620 C622 1.381 . S
C620 C626 1.383 . S
C621 C617 1.495 . S
C621 H627 0.959 . S
C621 H628 0.961 . S
C621 H629 0.960 . S
C622 C620 1.381 . S
C622 C623 1.394 . S
C622 H630 0.930 . S
C623 C622 1.394 . S
C623 C624 1.383 . S
C623 H631 0.929 . S
C624 C623 1.383 . S
C624 C625 1.377 . S
C625 H609 0.930 . S
C625 C624 1.377 . S
C625 C626 1.379 . S
C626 H610 0.931 . S
C626 C620 1.383 . S
C626 C625 1.379 . S
H627 C621 0.959 . S
H628 C621 0.961 . S
H629 C621 0.960 . S
H630 C622 0.930 . S
H631 C623 0.929 . S
H632 C640 0.929 . S
H633 C642 0.930 . S
H634 C644 0.930 . S
H635 C647 0.929 . S
H636 C650 0.930 . S
H637 C652 0.960 . S
H638 C652 0.960 . S
H639 C652 0.960 . S
C640 H632 0.929 . S
C640 C641 1.377 . S
C640 C642 1.384 . S
C641 C640 1.377 . S
C641 C647 1.390 . S
C642 H633 0.930 . S
C642 C640 1.384 . S
C642 C643 1.372 . S
C643 C642 1.372 . S
C643 C644 1.400 . S
C643 C648 1.490 . S
C644 H634 0.930 . S
C644 C643 1.400 . S
C644 C647 1.386 . S
H645 C661 0.930 . S
H646 C662 0.931 . S
C647 H635 0.929 . S
C647 C641 1.390 . S
C647 C644 1.386 . S
C648 C643 1.490 . S
C648 C650 1.395 . S
C648 C651 1.403 1_545 S
H649 C655 0.930 . S
C650 H636 0.930 . S
C650 C648 1.395 . S
C650 C653 1.403 . S
C651 C648 1.403 1_565 S
C651 C652 1.524 . S
C651 C655 1.400 . S
C652 H637 0.960 . S
C652 H638 0.960 . S
C652 H639 0.960 . S
C652 C651 1.524 . S
C653 C650 1.403 . S
C653 C654 1.392 1_545 S
C653 C657 1.495 . S
C654 C653 1.392 1_565 S
C654 C655 1.385 . S
C654 C656 1.478 . S
C655 H649 0.930 . S
C655 C651 1.400 . S
C655 C654 1.385 . S
C656 C654 1.478 . S
C656 C658 1.381 . S
C656 C662 1.383 . S
C657 C653 1.495 . S
C657 H663 0.959 . S
C657 H664 0.961 . S
C657 H665 0.960 . S
C658 C656 1.381 . S
C658 C659 1.394 . S
C658 H666 0.930 . S
C659 C658 1.394 . S
C659 C660 1.383 . S
C659 H667 0.929 . S
C660 C659 1.383 . S
C660 C661 1.377 . S
C661 H645 0.930 . S
C661 C660 1.377 . S
C661 C662 1.379 . S
C662 H646 0.931 . S
C662 C656 1.383 . S
C662 C661 1.379 . S
H663 C657 0.959 . S
H664 C657 0.961 . S
H665 C657 0.960 . S
H666 C658 0.930 . S
H667 C659 0.929 . S
H668 C676 0.929 . S
H669 C678 0.930 . S
H670 C680 0.930 . S
H671 C683 0.929 . S
H672 C686 0.930 . S
H673 C688 0.960 . S
H674 C688 0.960 . S
H675 C688 0.960 1_455 S
C676 H668 0.929 . S
C676 C677 1.377 . S
C676 C678 1.384 . S
C677 C676 1.377 . S
C677 C683 1.390 . S
C678 H669 0.930 . S
C678 C676 1.384 . S
C678 C679 1.372 . S
C679 C678 1.372 . S
C679 C680 1.400 . S
C679 C684 1.490 . S
C680 H670 0.930 . S
C680 C679 1.400 . S
C680 C683 1.386 . S
H681 C697 0.930 . S
H682 C698 0.931 . S
C683 H671 0.929 . S
C683 C677 1.390 . S
C683 C680 1.386 . S
C684 C679 1.490 . S
C684 C686 1.395 . S
C684 C687 1.403 1_455 S
H685 C691 0.930 . S
C686 H672 0.930 . S
C686 C684 1.395 . S
C686 C689 1.403 . S
C687 C684 1.403 1_655 S
C687 C688 1.524 . S
C687 C691 1.400 . S
C688 H673 0.960 . S
C688 H674 0.960 . S
C688 H675 0.960 1_655 S
C688 C687 1.524 . S
C689 C686 1.403 . S
C689 C690 1.392 1_455 S
C689 C693 1.495 . S
C690 C689 1.392 1_655 S
C690 C691 1.385 . S
C690 C692 1.478 . S
C691 H685 0.930 . S
C691 C687 1.400 . S
C691 C690 1.385 . S
C692 C690 1.478 . S
C692 C694 1.381 . S
C692 C698 1.383 . S
C693 C689 1.495 . S
C693 H699 0.959 . S
C693 H700 0.961 . S
C693 H701 0.960 1_455 S
C694 C692 1.381 . S
C694 C695 1.394 . S
C694 H702 0.930 . S
C695 C694 1.394 . S
C695 C696 1.383 . S
C695 H703 0.929 . S
C696 C695 1.383 . S
C696 C697 1.377 . S
C697 H681 0.930 . S
C697 C696 1.377 . S
C697 C698 1.379 . S
C698 H682 0.931 . S
C698 C692 1.383 . S
C698 C697 1.379 . S
H699 C693 0.959 . S
H700 C693 0.961 . S
H701 C693 0.960 1_655 S
H702 C694 0.930 . S
H703 C695 0.929 . S
H704 C712 0.929 . S
H705 C714 0.930 . S
H706 C716 0.930 . S
H707 C719 0.929 . S
H708 C722 0.930 . S
H709 C724 0.960 1_655 S
H710 C724 0.960 . S
H711 C724 0.960 . S
C712 H704 0.929 . S
C712 C713 1.377 . S
C712 C714 1.384 . S
C713 C712 1.377 . S
C713 C719 1.390 . S
C714 H705 0.930 . S
C714 C712 1.384 . S
C714 C715 1.372 . S
C715 C714 1.372 . S
C715 C716 1.400 . S
C715 C720 1.490 . S
C716 H706 0.930 . S
C716 C715 1.400 . S
C716 C719 1.386 . S
H717 C733 0.930 . S
H718 C734 0.931 . S
C719 H707 0.929 . S
C719 C713 1.390 . S
C719 C716 1.386 . S
C720 C715 1.490 . S
C720 C722 1.395 1_545 S
C720 C723 1.403 . S
H721 C727 0.930 . S
C722 H708 0.930 . S
C722 C720 1.395 1_565 S
C722 C725 1.403 1_455 S
C723 C720 1.403 . S
C723 C724 1.524 . S
C723 C727 1.400 1_455 S
C724 H709 0.960 1_455 S
C724 H710 0.960 . S
C724 H711 0.960 . S
C724 C723 1.524 . S
C725 C722 1.403 1_655 S
C725 C726 1.392 . S
C725 C729 1.495 . S
C726 C725 1.392 . S
C726 C727 1.385 1_565 S
C726 C728 1.478 . S
C727 H721 0.930 . S
C727 C723 1.400 1_655 S
C727 C726 1.385 1_545 S
C728 C726 1.478 . S
C728 C730 1.381 . S
C728 C734 1.383 . S
C729 C725 1.495 . S
C729 H735 0.959 1_655 S
C729 H736 0.961 . S
C729 H737 0.960 . S
C730 C728 1.381 . S
C730 C731 1.394 . S
C730 H738 0.930 . S
C731 C730 1.394 . S
C731 C732 1.383 . S
C731 H739 0.929 . S
C732 C731 1.383 . S
C732 C733 1.377 . S
C733 H717 0.930 . S
C733 C732 1.377 . S
C733 C734 1.379 . S
C734 H718 0.931 . S
C734 C728 1.383 . S
C734 C733 1.379 . S
H735 C729 0.959 1_455 S
H736 C729 0.961 . S
H737 C729 0.960 . S
H738 C730 0.930 . S
H739 C731 0.929 . S
H740 C748 0.929 . S
H741 C750 0.930 . S
H742 C752 0.930 1_655 S
H743 C755 0.929 . S
H744 C758 0.930 . S
H745 C760 0.960 . S
H746 C760 0.960 . S
H747 C760 0.960 . S
C748 H740 0.929 . S
C748 C749 1.377 . S
C748 C750 1.384 . S
C749 C748 1.377 . S
C749 C755 1.390 . S
C750 H741 0.930 . S
C750 C748 1.384 . S
C750 C751 1.372 . S
C751 C750 1.372 . S
C751 C752 1.400 . S
C751 C756 1.490 . S
C752 H742 0.930 1_455 S
C752 C751 1.400 . S
C752 C755 1.386 . S
H753 C769 0.930 . S
H754 C770 0.931 . S
C755 H743 0.929 . S
C755 C749 1.390 . S
C755 C752 1.386 . S
C756 C751 1.490 . S
C756 C758 1.395 . S
C756 C759 1.403 1_455 S
H757 C763 0.930 . S
C758 H744 0.930 . S
C758 C756 1.395 . S
C758 C761 1.403 1_565 S
C759 C756 1.403 1_655 S
C759 C760 1.524 . S
C759 C763 1.400 1_565 S
C760 H745 0.960 . S
C760 H746 0.960 . S
C760 H747 0.960 . S
C760 C759 1.524 . S
C761 C758 1.403 1_545 S
C761 C762 1.392 1_455 S
C761 C765 1.495 . S
C762 C761 1.392 1_655 S
C762 C763 1.385 . S
C762 C764 1.478 . S
C763 H757 0.930 . S
C763 C759 1.400 1_545 S
C763 C762 1.385 . S
C764 C762 1.478 . S
C764 C766 1.381 . S
C764 C770 1.383 . S
C765 C761 1.495 . S
C765 H771 0.959 . S
C765 H772 0.961 . S
C765 H773 0.960 . S
C766 C764 1.381 . S
C766 C767 1.394 . S
C766 H774 0.930 1_655 S
C767 C766 1.394 . S
C767 C768 1.383 . S
C767 H775 0.929 . S
C768 C767 1.383 . S
C768 C769 1.377 . S
C769 H753 0.930 . S
C769 C768 1.377 . S
C769 C770 1.379 . S
C770 H754 0.931 . S
C770 C764 1.383 . S
C770 C769 1.379 . S
H771 C765 0.959 . S
H772 C765 0.961 . S
H773 C765 0.960 . S
H774 C766 0.930 1_455 S
H775 C767 0.929 . S
H776 C784 0.929 . S
H777 C786 0.930 . S
H778 C788 0.930 . S
H779 C791 0.929 . S
H780 C794 0.930 . S
H781 C796 0.960 . S
H782 C796 0.960 . S
H783 C796 0.960 . S
C784 H776 0.929 . S
C784 C785 1.377 . S
C784 C786 1.384 . S
C785 C784 1.377 . S
C785 C791 1.390 . S
C786 H777 0.930 . S
C786 C784 1.384 . S
C786 C787 1.372 . S
C787 C786 1.372 . S
C787 C788 1.400 . S
C787 C792 1.490 . S
C788 H778 0.930 . S
C788 C787 1.400 . S
C788 C791 1.386 . S
H789 C805 0.930 . S
H790 C806 0.931 . S
C791 H779 0.929 . S
C791 C785 1.390 . S
C791 C788 1.386 . S
C792 C787 1.490 . S
C792 C794 1.395 . S
C792 C795 1.403 1_565 S
H793 C799 0.930 . S
C794 H780 0.930 . S
C794 C792 1.395 . S
C794 C797 1.403 1_455 S
C795 C792 1.403 1_545 S
C795 C796 1.524 . S
C795 C799 1.400 1_455 S
C796 H781 0.960 . S
C796 H782 0.960 . S
C796 H783 0.960 . S
C796 C795 1.524 . S
C797 C794 1.403 1_655 S
C797 C798 1.392 1_565 S
C797 C801 1.495 . S
C798 C797 1.392 1_545 S
C798 C799 1.385 . S
C798 C800 1.478 . S
C799 H793 0.930 . S
C799 C795 1.400 1_655 S
C799 C798 1.385 . S
C800 C798 1.478 . S
C800 C802 1.381 . S
C800 C806 1.383 . S
C801 C797 1.495 . S
C801 H807 0.959 . S
C801 H808 0.961 . S
C801 H809 0.960 . S
C802 C800 1.381 . S
C802 C803 1.394 . S
C802 H810 0.930 . S
C803 C802 1.394 . S
C803 C804 1.383 . S
C803 H811 0.929 . S
C804 C803 1.383 . S
C804 C805 1.377 . S
C805 H789 0.930 . S
C805 C804 1.377 . S
C805 C806 1.379 . S
C806 H790 0.931 . S
C806 C800 1.383 . S
C806 C805 1.379 . S
H807 C801 0.959 . S
H808 C801 0.961 . S
H809 C801 0.960 . S
H810 C802 0.930 . S
H811 C803 0.929 . S
H812 C820 0.929 . S
H813 C822 0.930 1_455 S
H814 C824 0.930 . S
H815 C827 0.929 . S
H816 C830 0.930 . S
H817 C832 0.960 1_545 S
H818 C832 0.960 . S
H819 C832 0.960 . S
C820 H812 0.929 . S
C820 C821 1.377 . S
C820 C822 1.384 . S
C821 C820 1.377 . S
C821 C827 1.390 . S
C822 H813 0.930 1_655 S
C822 C820 1.384 . S
C822 C823 1.372 . S
C823 C822 1.372 . S
C823 C824 1.400 . S
C823 C828 1.490 . S
C824 H814 0.930 . S
C824 C823 1.400 . S
C824 C827 1.386 . S
H825 C841 0.930 . S
H826 C842 0.931 . S
C827 H815 0.929 . S
C827 C821 1.390 . S
C827 C824 1.386 . S
C828 C823 1.490 . S
C828 C830 1.395 1_655 S
C828 C831 1.403 . S
H829 C835 0.930 . S
C830 H816 0.930 . S
C830 C828 1.395 1_455 S
C830 C833 1.378 1_565 S
C831 C828 1.403 . S
C831 C832 1.524 . S
C831 C835 1.400 1_565 S
C832 H817 0.960 1_565 S
C832 H818 0.960 . S
C832 H819 0.960 . S
C832 C831 1.524 . S
C833 C830 1.378 1_545 S
C833 C834 1.416 . S
C833 C837 1.496 . S
C834 C833 1.416 . S
C834 C835 1.385 1_455 S
C834 C836 1.478 . S
C835 H829 0.930 . S
C835 C831 1.400 1_545 S
C835 C834 1.385 1_655 S
C836 C834 1.478 . S
C836 C838 1.381 . S
C836 C842 1.383 . S
C837 C833 1.496 . S
C837 H843 0.959 1_545 S
C837 H844 0.961 . S
C837 H845 0.960 . S
C838 C836 1.381 . S
C838 C839 1.394 . S
C838 H846 0.930 . S
C839 C838 1.394 . S
C839 C840 1.383 . S
C839 H847 0.929 . S
C840 C839 1.383 . S
C840 C841 1.377 . S
C841 H825 0.930 . S
C841 C840 1.377 . S
C841 C842 1.379 . S
C842 H826 0.931 . S
C842 C836 1.383 . S
C842 C841 1.379 . S
H843 C837 0.959 1_565 S
H844 C837 0.961 . S
H845 C837 0.960 . S
H846 C838 0.930 . S
H847 C839 0.929 . S
H848 C856 0.929 . S
H849 C858 0.930 . S
H850 C860 0.930 . S
H851 C863 0.929 . S
H852 C866 0.930 . S
H853 C868 0.960 . S
H854 C868 0.960 . S
H855 C868 0.960 . S
C856 H848 0.929 . S
C856 C857 1.377 . S
C856 C858 1.384 . S
C857 C856 1.377 . S
C857 C863 1.390 . S
C858 H849 0.930 . S
C858 C856 1.384 . S
C858 C859 1.372 . S
C859 C858 1.372 . S
C859 C860 1.400 . S
C859 C864 1.490 . S
C860 H850 0.930 . S
C860 C859 1.400 . S
C860 C863 1.386 . S
H861 C877 0.930 . S
H862 C878 0.931 . S
C863 H851 0.929 . S
C863 C857 1.390 . S
C863 C860 1.386 . S
C864 C859 1.490 . S
C864 C866 1.395 . S
C864 C867 1.403 . S
H865 C871 0.930 . S
C866 H852 0.930 . S
C866 C864 1.395 . S
C866 C869 1.403 . S
C867 C864 1.403 . S
C867 C868 1.524 . S
C867 C871 1.400 . S
C868 H853 0.960 . S
C868 H854 0.960 . S
C868 H855 0.960 . S
C868 C867 1.524 . S
C869 C866 1.403 . S
C869 C870 1.392 . S
C869 C873 1.495 . S
C870 C869 1.392 . S
C870 C871 1.385 . S
C870 C872 1.478 . S
C871 H865 0.930 . S
C871 C867 1.400 . S
C871 C870 1.385 . S
C872 C870 1.478 . S
C872 C874 1.381 . S
C872 C878 1.383 . S
C873 C869 1.495 . S
C873 H879 0.959 . S
C873 H880 0.961 . S
C873 H881 0.960 . S
C874 C872 1.381 . S
C874 C875 1.394 . S
C874 H882 0.930 . S
C875 C874 1.394 . S
C875 C876 1.383 . S
C875 H883 0.929 . S
C876 C875 1.383 . S
C876 C877 1.377 . S
C877 H861 0.930 . S
C877 C876 1.377 . S
C877 C878 1.379 . S
C878 H862 0.931 . S
C878 C872 1.383 . S
C878 C877 1.379 . S
H879 C873 0.959 . S
H880 C873 0.961 . S
H881 C873 0.960 . S
H882 C874 0.930 . S
H883 C875 0.929 . S
H884 C892 0.929 . S
H885 C894 0.930 . S
H886 C896 0.930 . S
H887 C899 0.929 . S
H888 C902 0.930 . S
H889 C904 0.960 . S
H890 C904 0.960 . S
H891 C904 0.960 . S
C892 H884 0.929 . S
C892 C893 1.377 . S
C892 C894 1.384 . S
C893 C892 1.377 . S
C893 C899 1.390 . S
C894 H885 0.930 . S
C894 C892 1.384 . S
C894 C895 1.372 . S
C895 C894 1.372 . S
C895 C896 1.400 . S
C895 C900 1.490 . S
C896 H886 0.930 . S
C896 C895 1.400 . S
C896 C899 1.386 . S
H897 C913 0.930 . S
H898 C914 0.931 . S
C899 H887 0.929 . S
C899 C893 1.390 . S
C899 C896 1.386 . S
C900 C895 1.490 . S
C900 C902 1.395 . S
C900 C903 1.403 . S
H901 C907 0.930 . S
C902 H888 0.930 . S
C902 C900 1.395 . S
C902 C905 1.403 . S
C903 C900 1.403 . S
C903 C904 1.524 . S
C903 C907 1.400 . S
C904 H889 0.960 . S
C904 H890 0.960 . S
C904 H891 0.960 . S
C904 C903 1.524 . S
C905 C902 1.403 . S
C905 C906 1.392 . S
C905 C909 1.495 . S
C906 C905 1.392 . S
C906 C907 1.385 . S
C906 C908 1.478 . S
C907 H901 0.930 . S
C907 C903 1.400 . S
C907 C906 1.385 . S
C908 C906 1.478 . S
C908 C910 1.381 . S
C908 C914 1.383 . S
C909 C905 1.495 . S
C909 H915 0.959 . S
C909 H916 0.961 . S
C909 H917 0.960 . S
C910 C908 1.381 . S
C910 C911 1.394 . S
C910 H918 0.930 . S
C911 C910 1.394 . S
C911 C912 1.383 . S
C911 H919 0.929 . S
C912 C911 1.383 . S
C912 C913 1.377 . S
C913 H897 0.930 . S
C913 C912 1.377 . S
C913 C914 1.379 . S
C914 H898 0.931 . S
C914 C908 1.383 . S
C914 C913 1.379 . S
H915 C909 0.959 . S
H916 C909 0.961 . S
H917 C909 0.960 . S
H918 C910 0.930 . S
H919 C911 0.929 . S
H920 C928 0.929 . S
H921 C930 0.930 . S
H922 C932 0.930 . S
H923 C935 0.929 . S
H924 C938 0.930 . S
H925 C940 0.960 . S
H926 C940 0.960 . S
H927 C940 0.960 . S
C928 H920 0.929 . S
C928 C929 1.377 . S
C928 C930 1.384 . S
C929 C928 1.377 . S
C929 C935 1.390 . S
C930 H921 0.930 . S
C930 C928 1.384 . S
C930 C931 1.372 . S
C931 C930 1.372 . S
C931 C932 1.400 . S
C931 C936 1.490 . S
C932 H922 0.930 . S
C932 C931 1.400 . S
C932 C935 1.386 . S
H933 C949 0.930 . S
H934 C950 0.931 . S
C935 H923 0.929 . S
C935 C929 1.390 . S
C935 C932 1.386 . S
C936 C931 1.490 . S
C936 C938 1.395 . S
C936 C939 1.403 . S
H937 C943 0.930 . S
C938 H924 0.930 . S
C938 C936 1.395 . S
C938 C941 1.403 . S
C939 C936 1.403 . S
C939 C940 1.524 . S
C939 C943 1.400 . S
C940 H925 0.960 . S
C940 H926 0.960 . S
C940 H927 0.960 . S
C940 C939 1.524 . S
C941 C938 1.403 . S
C941 C942 1.392 . S
C941 C945 1.495 . S
C942 C941 1.392 . S
C942 C943 1.385 . S
C942 C944 1.478 . S
C943 H937 0.930 . S
C943 C939 1.400 . S
C943 C942 1.385 . S
C944 C942 1.478 . S
C944 C946 1.381 . S
C944 C950 1.383 . S
C945 C941 1.495 . S
C945 H951 0.959 . S
C945 H952 0.961 . S
C945 H953 0.960 . S
C946 C944 1.381 . S
C946 C947 1.394 . S
C946 H954 0.930 . S
C947 C946 1.394 . S
C947 C948 1.383 . S
C947 H955 0.929 . S
C948 C947 1.383 . S
C948 C949 1.377 . S
C949 H933 0.930 . S
C949 C948 1.377 . S
C949 C950 1.379 . S
C950 H934 0.931 . S
C950 C944 1.383 . S
C950 C949 1.379 . S
H951 C945 0.959 . S
H952 C945 0.961 . S
H953 C945 0.960 . S
H954 C946 0.930 . S
H955 C947 0.929 . S
H956 C964 0.929 . S
H957 C966 0.930 . S
H958 C968 0.930 . S
H959 C971 0.929 . S
H960 C974 0.930 . S
H961 C976 0.960 . S
H962 C976 0.960 . S
H963 C976 0.960 . S
C964 H956 0.929 . S
C964 C965 1.377 . S
C964 C966 1.384 . S
C965 C964 1.377 . S
C965 C971 1.390 . S
C966 H957 0.930 . S
C966 C964 1.384 . S
C966 C967 1.372 . S
C967 C966 1.372 . S
C967 C968 1.400 . S
C967 C972 1.490 . S
C968 H958 0.930 . S
C968 C967 1.400 . S
C968 C971 1.386 . S
H969 C985 0.930 . S
H970 C986 0.931 . S
C971 H959 0.929 . S
C971 C965 1.390 . S
C971 C968 1.386 . S
C972 C967 1.490 . S
C972 C974 1.395 . S
C972 C975 1.403 . S
H973 C979 0.930 . S
C974 H960 0.930 . S
C974 C972 1.395 . S
C974 C977 1.403 . S
C975 C972 1.403 . S
C975 C976 1.524 . S
C975 C979 1.400 . S
C976 H961 0.960 . S
C976 H962 0.960 . S
C976 H963 0.960 . S
C976 C975 1.524 . S
C977 C974 1.403 . S
C977 C978 1.392 . S
C977 C981 1.495 . S
C978 C977 1.392 . S
C978 C979 1.385 . S
C978 C980 1.478 . S
C979 H973 0.930 . S
C979 C975 1.400 . S
C979 C978 1.385 . S
C980 C978 1.478 . S
C980 C982 1.381 . S
C980 C986 1.383 . S
C981 C977 1.495 . S
C981 H987 0.959 . S
C981 H988 0.961 . S
C981 H989 0.960 . S
C982 C980 1.381 . S
C982 C983 1.394 . S
C982 H990 0.930 . S
C983 C982 1.394 . S
C983 C984 1.383 . S
C983 H991 0.929 . S
C984 C983 1.383 . S
C984 C985 1.377 . S
C985 H969 0.930 . S
C985 C984 1.377 . S
C985 C986 1.379 . S
C986 H970 0.931 . S
C986 C980 1.383 . S
C986 C985 1.379 . S
H987 C981 0.959 . S
H988 C981 0.961 . S
H989 C981 0.960 . S
H990 C982 0.930 . S
H991 C983 0.929 . S
C281 C5 0.708 . S
C300 C67 0.673 . S
C317 C101 0.710 . S
C336 C39 0.755 . S
C353 C73 0.709 . S
C372 C135 0.662 . S
C389 C33 0.727 . S
C408 C107 0.693 . S
C425 C271 0.728 . S
C444 C141 0.690 . S
C461 C169 0.733 . S
C480 C175 0.755 . S
C497 C203 0.709 . S
C516 C209 0.753 . S
C533 C243 0.709 . S
C552 C237 0.689 . S
C569 C88 1.576 . S
C588 C20 1.557 . S
C605 C54 1.576 . S
C624 C122 1.595 . S
C641 C156 1.577 . S
C660 C224 1.553 . S
C677 C190 1.573 . S
C696 C258 1.559 . S
C713 C2 0.884 . S
C732 C70 0.876 . S
C749 C36 0.882 . S
C768 C104 0.901 . S
C785 C206 0.882 . S
C804 C138 0.875 . S
C821 C240 0.881 . S
C840 C172 0.898 . S
C857 C9 1.802 . S
C876 C179 1.790 . S
C893 C213 1.802 . S
C912 C43 1.808 . S
C929 C247 1.801 . S
C948 C77 1.803 . S
C965 C111 1.798 . S
C984 C145 1.786 . S
