# Generated by pormake.
# Topology uoq, (4)-cn, num edge types: 1
# Building blocks:
#     Node 0, Type 0, BuildingBlock: GALJAG_clean_sbu_0, # of connection points: 4
#     Node 1, Type 0, BuildingBlock: GALJAG_clean_sbu_0, # of connection points: 4
#     Node 2, Type 0, BuildingBlock: GALJAG_clean_sbu_0, # of connection points: 4
#     Node 3, Type 0, BuildingBlock: GALJAG_clean_sbu_0, # of connection points: 4
#     Node 4, Type 0, BuildingBlock: GALJAG_clean_sbu_0, # of connection points: 4
#     Node 5, Type 0, BuildingBlock: GALJAG_clean_sbu_0, # of connection points: 4
#     Node 6, Type 0, BuildingBlock: GALJAG_clean_sbu_0, # of connection points: 4
#     Node 7, Type 0, BuildingBlock: GALJAG_clean_sbu_0, # of connection points: 4
#     Node 8, Type 0, BuildingBlock: GALJAG_clean_sbu_0, # of connection points: 4
#     Node 9, Type 0, BuildingBlock: GALJAG_clean_sbu_0, # of connection points: 4
#     Node 10, Type 0, BuildingBlock: GALJAG_clean_sbu_0, # of connection points: 4
#     Node 11, Type 0, BuildingBlock: GALJAG_clean_sbu_0, # of connection points: 4
#     Edge 12, Type (0, 0), BuildingBlock: MIFKUJ_clean_linker_0, # of connection points: 2
#     Edge 13, Type (0, 0), BuildingBlock: MIFKUJ_clean_linker_0, # of connection points: 2
#     Edge 14, Type (0, 0), BuildingBlock: MIFKUJ_clean_linker_0, # of connection points: 2
#     Edge 15, Type (0, 0), BuildingBlock: MIFKUJ_clean_linker_0, # of connection points: 2
#     Edge 16, Type (0, 0), BuildingBlock: MIFKUJ_clean_linker_0, # of connection points: 2
#     Edge 17, Type (0, 0), BuildingBlock: MIFKUJ_clean_linker_0, # of connection points: 2
#     Edge 18, Type (0, 0), BuildingBlock: MIFKUJ_clean_linker_0, # of connection points: 2
#     Edge 19, Type (0, 0), BuildingBlock: MIFKUJ_clean_linker_0, # of connection points: 2
#     Edge 20, Type (0, 0), BuildingBlock: MIFKUJ_clean_linker_0, # of connection points: 2
#     Edge 21, Type (0, 0), BuildingBlock: MIFKUJ_clean_linker_0, # of connection points: 2
#     Edge 22, Type (0, 0), BuildingBlock: MIFKUJ_clean_linker_0, # of connection points: 2
#     Edge 23, Type (0, 0), BuildingBlock: MIFKUJ_clean_linker_0, # of connection points: 2
#     Edge 24, Type (0, 0), BuildingBlock: MIFKUJ_clean_linker_0, # of connection points: 2
#     Edge 25, Type (0, 0), BuildingBlock: MIFKUJ_clean_linker_0, # of connection points: 2
#     Edge 26, Type (0, 0), BuildingBlock: MIFKUJ_clean_linker_0, # of connection points: 2
#     Edge 27, Type (0, 0), BuildingBlock: MIFKUJ_clean_linker_0, # of connection points: 2
#     Edge 28, Type (0, 0), BuildingBlock: MIFKUJ_clean_linker_0, # of connection points: 2
#     Edge 29, Type (0, 0), BuildingBlock: MIFKUJ_clean_linker_0, # of connection points: 2
#     Edge 30, Type (0, 0), BuildingBlock: MIFKUJ_clean_linker_0, # of connection points: 2
#     Edge 31, Type (0, 0), BuildingBlock: MIFKUJ_clean_linker_0, # of connection points: 2
#     Edge 32, Type (0, 0), BuildingBlock: MIFKUJ_clean_linker_0, # of connection points: 2
#     Edge 33, Type (0, 0), BuildingBlock: MIFKUJ_clean_linker_0, # of connection points: 2
#     Edge 34, Type (0, 0), BuildingBlock: MIFKUJ_clean_linker_0, # of connection points: 2
#     Edge 35, Type (0, 0), BuildingBlock: MIFKUJ_clean_linker_0, # of connection points: 2
# Relax obj value: 0.135
# Max RMSD: 0.151
# Mean RMSD: 0.151
data_MOF--net-uoq--node1-GALJAG_clean_sbu_0--edge1-MIFKUJ_clean_linker_0
_symmetry_space_group_name_H-M    P1
_symmetry_Int_Tables_number       1
_symmetry_cell_setting            triclinic
loop_
_symmetry_equiv_pos_as_xyz
'x, y, z'
_cell_length_a     81.054999
_cell_length_b     81.091923
_cell_length_c     26.109095
_cell_angle_alpha  89.979742
_cell_angle_beta   89.99347
_cell_angle_gamma 119.99203
loop_
_atom_site_label
_atom_site_type_symbol
_atom_site_fract_x
_atom_site_fract_y
_atom_site_fract_z
_atom_type_partial_charge
In0 In 0.31335 0.44876 0.24197 0.0
O1 O 0.29638 0.43639 0.31552 0.0
O2 O 0.29108 0.45547 0.27229 0.0
C3 C 0.32795 0.42524 0.24388 0.0
C4 C 0.29454 0.44481 0.15329 0.0
C5 C 0.34359 0.48208 0.2707 0.0
O6 O 0.31092 0.41979 0.25587 0.0
O7 O 0.33725 0.44218 0.2282 0.0
O8 O 0.33944 0.47758 0.2242 0.0
O9 O 0.33236 0.46989 0.30243 0.0
C10 C 0.28698 0.44487 0.31106 0.0
O11 O 0.30775 0.46065 0.16898 0.0
O12 O 0.2917 0.4308 0.18058 0.0
In13 In 0.86909 0.31708 0.56447 0.0
O14 O 0.86509 0.29994 0.63735 0.0
O15 O 0.84054 0.29821 0.6027 0.0
C16 C 0.90683 0.32943 0.56123 0.0
C17 C 0.8517 0.29731 0.47851 0.0
C18 C 0.86831 0.34858 0.59296 0.0
O19 O 0.89466 0.31271 0.57403 0.0
O20 O 0.89994 0.33966 0.54775 0.0
O21 O 0.86786 0.344 0.54646 0.0
O22 O 0.86925 0.33734 0.6247 0.0
C23 C 0.84726 0.29294 0.63859 0.0
O24 O 0.85081 0.31169 0.49281 0.0
O25 O 0.86223 0.2936 0.50585 0.0
In26 In 0.54908 0.86369 0.92402 0.0
O27 O 0.56884 0.85729 0.97159 0.0
O28 O 0.53894 0.83906 0.97965 0.0
C29 C 0.57234 0.90124 0.94126 0.0
C30 C 0.55097 0.84552 0.83919 0.0
C31 C 0.51552 0.86245 0.93728 0.0
O32 O 0.5644 0.88917 0.97638 0.0
O33 O 0.56876 0.89443 0.89648 0.0
O34 O 0.52525 0.86909 0.89684 0.0
O35 O 0.52264 0.85632 0.96985 0.0
C36 C 0.55542 0.84292 0.9932 0.0
O37 O 0.53545 0.84293 0.8574 0.0
O38 O 0.56559 0.85801 0.86211 0.0
In39 In 0.68366 0.54708 0.25282 0.0
O40 O 0.69339 0.54024 0.32718 0.0
O41 O 0.71356 0.56474 0.28596 0.0
C42 C 0.67199 0.57233 0.27359 0.0
C43 C 0.704 0.54725 0.17047 0.0
C44 C 0.65072 0.51346 0.25691 0.0
O45 O 0.67783 0.56536 0.30724 0.0
O46 O 0.6722 0.56678 0.22854 0.0
O47 O 0.65374 0.52574 0.2229 0.0
O48 O 0.66437 0.51804 0.28742 0.0
C49 C 0.71015 0.55416 0.32462 0.0
O50 O 0.69489 0.5329 0.19884 0.0
O51 O 0.70207 0.56131 0.18196 0.0
In52 In 0.13523 0.68111 0.57175 0.0
O53 O 0.1504 0.68874 0.49343 0.0
O54 O 0.14329 0.70815 0.5264 0.0
C55 C 0.13717 0.64887 0.57007 0.0
C56 C 0.1555 0.70321 0.65103 0.0
C57 C 0.09808 0.66713 0.5939 0.0
O58 O 0.12319 0.64967 0.55161 0.0
O59 O 0.15034 0.66442 0.58744 0.0
O60 O 0.11035 0.66935 0.62699 0.0
O61 O 0.1045 0.67194 0.54891 0.0
C62 C 0.15131 0.70467 0.4902 0.0
O63 O 0.14133 0.7036 0.63256 0.0
O64 O 0.15935 0.69158 0.62978 0.0
In65 In 0.45096 0.13753 0.92448 0.0
O66 O 0.43254 0.14728 0.96592 0.0
O67 O 0.462 0.16077 0.98453 0.0
C68 C 0.42534 0.10066 0.94334 0.0
C69 C 0.45078 0.15679 0.8401 0.0
C70 C 0.48304 0.13566 0.93577 0.0
O71 O 0.43249 0.11312 0.97785 0.0
O72 O 0.43086 0.10678 0.89849 0.0
O73 O 0.47369 0.13093 0.89438 0.0
O74 O 0.4763 0.14143 0.9703 0.0
C75 C 0.44613 0.15965 0.99239 0.0
O76 O 0.46573 0.16102 0.86488 0.0
O77 O 0.43605 0.14219 0.85624 0.0
In78 In 0.54942 0.68499 0.42283 0.0
O79 O 0.56923 0.7114 0.37624 0.0
O80 O 0.5394 0.70078 0.37151 0.0
C81 C 0.57371 0.67191 0.40645 0.0
C82 C 0.5502 0.70404 0.50863 0.0
C83 C 0.51655 0.65223 0.40629 0.0
O84 O 0.56724 0.67769 0.37122 0.0
O85 O 0.56812 0.6729 0.45095 0.0
O86 O 0.52499 0.65599 0.44901 0.0
O87 O 0.52468 0.66495 0.37264 0.0
C88 C 0.55589 0.71322 0.35747 0.0
O89 O 0.53502 0.69268 0.48573 0.0
O90 O 0.56503 0.70502 0.48998 0.0
In91 In 0.86399 0.54978 0.75604 0.0
O92 O 0.85903 0.56515 0.6901 0.0
O93 O 0.83519 0.53993 0.71887 0.0
C94 C 0.90095 0.5744 0.73562 0.0
C95 C 0.84955 0.5557 0.84322 0.0
C96 C 0.86246 0.51592 0.74281 0.0
O97 O 0.88833 0.56709 0.70144 0.0
O98 O 0.89495 0.56945 0.7809 0.0
O99 O 0.85146 0.52029 0.7202 0.0
O100 O 0.87413 0.5285 0.7729 0.0
C101 C 0.84139 0.55351 0.68725 0.0
O102 O 0.84912 0.54025 0.83378 0.0
O103 O 0.8583 0.56853 0.81027 0.0
In104 In 0.311 0.86465 0.07667 0.0
O105 O 0.30464 0.84761 0.15122 0.0
O106 O 0.28658 0.85853 0.13093 0.0
C107 C 0.3446 0.86652 0.05768 0.0
C108 C 0.28556 0.83879 0.0114 0.0
C109 C 0.32225 0.90186 0.06458 0.0
O110 O 0.3383 0.86524 0.10268 0.0
O111 O 0.33396 0.86681 0.02289 0.0
O112 O 0.31404 0.88955 0.03013 0.0
O113 O 0.32449 0.89538 0.10641 0.0
C114 C 0.28992 0.84854 0.16159 0.0
O115 O 0.28592 0.85413 0.02207 0.0
O116 O 0.29821 0.83658 0.0332 0.0
In117 In 0.44542 0.31456 0.4278 0.0
O118 O 0.45855 0.30929 0.49905 0.0
O119 O 0.42897 0.2912 0.48706 0.0
C120 C 0.47653 0.34632 0.39445 0.0
C121 C 0.44289 0.28958 0.35599 0.0
C122 C 0.42061 0.32747 0.43383 0.0
O123 O 0.47485 0.34049 0.44009 0.0
O124 O 0.4625 0.33619 0.36586 0.0
O125 O 0.41675 0.31214 0.41173 0.0
O126 O 0.4367 0.33588 0.45537 0.0
C127 C 0.44334 0.29498 0.51395 0.0
O128 O 0.4303 0.29423 0.36147 0.0
O129 O 0.45676 0.29763 0.38642 0.0
In130 In 0.13427 0.4461 0.75369 0.0
O131 O 0.15488 0.46148 0.81936 0.0
O132 O 0.13707 0.43164 0.82596 0.0
C133 C 0.13485 0.47914 0.73475 0.0
C134 C 0.15474 0.4409 0.68066 0.0
C135 C 0.09778 0.4184 0.74162 0.0
O136 O 0.14968 0.47777 0.73379 0.0
O137 O 0.11985 0.46403 0.74684 0.0
O138 O 0.11116 0.41957 0.71432 0.0
O139 O 0.10288 0.43083 0.77642 0.0
C140 C 0.15055 0.44666 0.84475 0.0
O141 O 0.1456 0.44943 0.67215 0.0
O142 O 0.1533 0.43473 0.72569 0.0
In143 In 0.68925 0.13674 0.06882 0.0
O144 O 0.69804 0.16133 0.12454 0.0
O145 O 0.70737 0.14163 0.14055 0.0
C146 C 0.65495 0.13307 0.04904 0.0
C147 C 0.7155 0.15969 0.00025 0.0
C148 C 0.67929 0.09969 0.06255 0.0
O149 O 0.66177 0.13594 0.09382 0.0
O150 O 0.6654 0.13207 0.01489 0.0
O151 O 0.68922 0.11182 0.02907 0.0
O152 O 0.67492 0.10636 0.10056 0.0
C153 C 0.70778 0.15688 0.15297 0.0
O154 O 0.71821 0.14895 0.02976 0.0
O155 O 0.69951 0.15861 0.00488 0.0
H156 H 0.31088 0.3867 0.25625 0.0
H157 H 0.3257 0.36878 0.28818 0.0
H158 H 0.38011 0.42075 0.29453 0.0
H159 H 0.36558 0.43836 0.25952 0.0
H160 H 0.3866 0.39478 0.26962 0.0
H161 H 0.34879 0.39986 0.40276 0.0
H162 H 0.31977 0.39656 0.44306 0.0
H163 H 0.29175 0.33588 0.42434 0.0
H164 H 0.32054 0.33885 0.38329 0.0
H165 H 0.43066 0.36452 0.45042 0.0
H166 H 0.41341 0.38042 0.42134 0.0
H167 H 0.36669 0.32649 0.37172 0.0
H168 H 0.38394 0.3105 0.4001 0.0
H169 H 0.35623 0.35283 0.4199 0.0
H170 H 0.39749 0.35035 0.28795 0.0
H171 H 0.42868 0.35621 0.25658 0.0
H172 H 0.45267 0.41613 0.28328 0.0
H173 H 0.42173 0.41057 0.31596 0.0
C174 C 0.32607 0.39417 0.26348 0.0
C175 C 0.33709 0.41389 0.2556 0.0
C176 C 0.33451 0.38398 0.28228 0.0
C177 C 0.35395 0.39348 0.29534 0.0
C178 C 0.36509 0.41305 0.28506 0.0
C179 C 0.35677 0.42313 0.26496 0.0
C180 C 0.36261 0.3833 0.32133 0.0
C181 C 0.37999 0.38579 0.30279 0.0
C182 C 0.35406 0.37145 0.36463 0.0
C183 C 0.33675 0.3696 0.38948 0.0
C184 C 0.3364 0.38583 0.40694 0.0
C185 C 0.32 0.38401 0.42995 0.0
C186 C 0.30391 0.36602 0.43613 0.0
C187 C 0.30421 0.3498 0.41945 0.0
C188 C 0.32057 0.35154 0.39633 0.0
C189 C 0.4165 0.35598 0.4346 0.0
C190 C 0.40867 0.3363 0.42713 0.0
C191 C 0.40672 0.36509 0.41783 0.0
C192 C 0.38893 0.35461 0.39387 0.0
C193 C 0.38043 0.33478 0.39005 0.0
C194 C 0.3903 0.32569 0.40621 0.0
C195 C 0.38006 0.36449 0.36818 0.0
C196 C 0.3627 0.36186 0.38672 0.0
C197 C 0.38887 0.37664 0.32582 0.0
C198 C 0.40734 0.38001 0.3049 0.0
C199 C 0.40946 0.36475 0.28752 0.0
C200 C 0.42709 0.36803 0.26952 0.0
C201 C 0.44268 0.38653 0.26816 0.0
C202 C 0.44062 0.4018 0.28457 0.0
C203 C 0.42304 0.3986 0.30282 0.0
H204 H 0.45633 0.38904 0.25428 0.0
H205 H 0.29122 0.36465 0.45395 0.0
H206 H 0.92603 0.30981 0.56734 0.0
H207 H 0.9593 0.32243 0.59263 0.0
H208 H 0.96662 0.37887 0.60263 0.0
H209 H 0.93386 0.36649 0.57425 0.0
H210 H 0.99742 0.38264 0.57059 0.0
H211 H 0.95623 0.34721 0.71022 0.0
H212 H 0.93029 0.31912 0.75332 0.0
H213 H 0.95923 0.28777 0.7259 0.0
H214 H 0.98523 0.31562 0.68205 0.0
H215 H 0.06692 0.42092 0.77137 0.0
H216 H 0.03442 0.4025 0.73785 0.0
H217 H 0.05062 0.3679 0.64973 0.0
H218 H 0.08334 0.3866 0.68192 0.0
H219 H 0.00925 0.35157 0.71881 0.0
H220 H 0.0506 0.39045 0.57428 0.0
H221 H 0.07637 0.42122 0.54191 0.0
H222 H 0.04572 0.44879 0.59215 0.0
H223 H 0.01991 0.41819 0.6255 0.0
C224 C 0.93492 0.32497 0.57394 0.0
C225 C 0.92741 0.33718 0.56907 0.0
C226 C 0.95385 0.33214 0.5889 0.0
C227 C 0.96537 0.35154 0.60103 0.0
C228 C 0.95807 0.36385 0.59372 0.0
C229 C 0.93932 0.35677 0.57746 0.0
C230 C 0.9847 0.35898 0.62339 0.0
C231 C -0.00012 0.37575 0.60296 0.0
C232 C 0.98812 0.35014 0.66584 0.0
C233 C 0.97255 0.33342 0.69236 0.0
C234 C 0.95699 0.33429 0.7131 0.0
C235 C 0.94229 0.31842 0.73769 0.0
C236 C 0.94308 0.30166 0.74221 0.0
C237 C 0.95861 0.30075 0.72228 0.0
C238 C 0.97334 0.31657 0.69758 0.0
C239 C 0.06347 0.40913 0.74575 0.0
C240 C 0.07763 0.40522 0.72902 0.0
C241 C 0.04494 0.39866 0.72664 0.0
C242 C 0.04028 0.38397 0.6913 0.0
C243 C 0.05405 0.37922 0.67705 0.0
C244 C 0.07268 0.3899 0.69539 0.0
C245 C 0.02158 0.37493 0.66566 0.0
C246 C 0.00663 0.35807 0.6858 0.0
C247 C 0.0182 0.38387 0.62386 0.0
C248 C 0.03346 0.40212 0.60275 0.0
C249 C 0.04945 0.40311 0.57874 0.0
C250 C 0.06404 0.4205 0.56017 0.0
C251 C 0.06271 0.43696 0.56509 0.0
C252 C 0.04675 0.43604 0.58842 0.0
C253 C 0.03213 0.41868 0.60711 0.0
H254 H 0.07403 0.45042 0.55074 0.0
H255 H 0.93169 0.28938 0.76126 0.0
H256 H 0.57618 0.91879 0.03251 0.0
H257 H 0.59582 0.9526 0.0522 0.0
H258 H 0.61574 0.96388 0.89599 0.0
H259 H 0.59584 0.92986 0.87565 0.0
H260 H 0.64504 0.98174 0.97258 0.0
H261 H 0.58468 0.97524 0.92746 0.0
H262 H 0.54989 0.96192 0.93079 0.0
H263 H 0.55366 0.97669 0.08994 0.0
H264 H 0.58844 0.9898 0.08783 0.0
H265 H 0.68462 0.08238 0.97998 0.0
H266 H 0.66833 0.04837 0.96112 0.0
H267 H 0.64019 0.03637 0.10796 0.0
H268 H 0.65617 0.07051 0.1266 0.0
H269 H 0.61528 0.01868 0.03433 0.0
H270 H 0.67514 0.02493 0.08124 0.0
H271 H 0.70999 0.03862 0.07952 0.0
H272 H 0.7074 0.02433 0.92026 0.0
H273 H 0.67254 0.01078 0.92083 0.0
C274 C 0.58474 0.92844 0.00227 0.0
C275 C 0.58447 0.92172 0.95248 0.0
C276 C 0.59591 0.94775 0.0136 0.0
C277 C 0.60711 0.9607 0.97548 0.0
C278 C 0.60714 0.95405 0.92585 0.0
C279 C 0.59575 0.93468 0.91428 0.0
C280 C 0.61867 0.98118 0.98791 0.0
C281 C 0.63858 0.98995 0.98536 0.0
C282 C 0.61016 0.99162 0.00597 0.0
C283 C 0.58917 0.98335 0.00759 0.0
C284 C 0.57807 0.97544 0.96333 0.0
C285 C 0.55835 0.96797 0.96496 0.0
C286 C 0.54958 0.96846 0.01055 0.0
C287 C 0.56048 0.97632 0.05466 0.0
C288 C 0.5802 0.98378 0.05326 0.0
C289 C 0.67522 0.07249 0.00866 0.0
C290 C 0.67161 0.0791 0.05473 0.0
C291 C 0.66596 0.05303 0.99788 0.0
C292 C 0.6531 0.03979 0.03321 0.0
C293 C 0.65004 0.04634 0.08011 0.0
C294 C 0.65923 0.06582 0.09082 0.0
C295 C 0.64175 0.01933 0.01954 0.0
C296 C 0.62182 0.01053 0.0217 0.0
C297 C 0.65027 0.00886 0.00147 0.0
C298 C 0.67124 0.017 0.00097 0.0
C299 C 0.68201 0.02485 0.04573 0.0
C300 C 0.70177 0.03255 0.04499 0.0
C301 C 0.71091 0.03239 -0.00022 0.0
C302 C 0.7003 0.02447 0.95524 0.0
C303 C 0.68054 0.01675 0.95577 0.0
H304 H 0.7262 0.03835 0.99928 0.0
H305 H 0.53435 0.96284 0.01166 0.0
H306 H 0.67001 0.58505 0.36838 0.0
H307 H 0.65575 0.60427 0.39229 0.0
H308 H 0.64286 0.6077 0.2337 0.0
H309 H 0.65727 0.58846 0.20928 0.0
H310 H 0.65678 0.64226 0.28607 0.0
H311 H 0.60874 0.57645 0.30869 0.0
H312 H 0.5959 0.54381 0.34183 0.0
H313 H 0.6044 0.56482 0.49614 0.0
H314 H 0.61756 0.59764 0.46387 0.0
H315 H 0.585 0.66661 0.31297 0.0
H316 H 0.60428 0.65208 0.29331 0.0
H317 H 0.6103 0.6449 0.45473 0.0
H318 H 0.5905 0.6591 0.47473 0.0
H319 H 0.60139 0.61328 0.4042 0.0
H320 H 0.6478 0.67889 0.38266 0.0
H321 H 0.66097 0.71166 0.35028 0.0
H322 H 0.65614 0.69163 0.19577 0.0
H323 H 0.64269 0.65868 0.22717 0.0
C324 C 0.66427 0.59001 0.33847 0.0
C325 C 0.66461 0.58514 0.28696 0.0
C326 C 0.6561 0.60095 0.35225 0.0
C327 C 0.64804 0.60718 0.31485 0.0
C328 C 0.64898 0.60297 0.26313 0.0
C329 C 0.65715 0.59196 0.24926 0.0
C330 C 0.63798 0.61743 0.33014 0.0
C331 C 0.64454 0.63589 0.31143 0.0
C332 C 0.62236 0.60926 0.3644 0.0
C333 C 0.61431 0.58952 0.38386 0.0
C334 C 0.60801 0.57412 0.34969 0.0
C335 C 0.60065 0.55559 0.36831 0.0
C336 C 0.59938 0.55225 0.42106 0.0
C337 C 0.60542 0.56743 0.45529 0.0
C338 C 0.61281 0.586 0.43686 0.0
C339 C 0.59054 0.66208 0.34438 0.0
C340 C 0.58627 0.66401 0.39544 0.0
C341 C 0.60166 0.65387 0.33305 0.0
C342 C 0.60899 0.64765 0.37253 0.0
C343 C 0.60486 0.64968 0.42366 0.0
C344 C 0.5936 0.65781 0.43505 0.0
C345 C 0.62011 0.63817 0.36002 0.0
C346 C 0.61372 0.61979 0.37916 0.0
C347 C 0.63593 0.64646 0.32633 0.0
C348 C 0.64409 0.66628 0.30728 0.0
C349 C 0.64941 0.68145 0.34175 0.0
C350 C 0.65695 0.70006 0.32358 0.0
C351 C 0.65935 0.70372 0.271 0.0
C352 C 0.65426 0.68877 0.23649 0.0
C353 C 0.6467 0.67013 0.25446 0.0
H354 H 0.66519 0.71814 0.25701 0.0
H355 H 0.59368 0.53789 0.4354 0.0
H356 H 0.91569 0.5912 0.64393 0.0
H357 H 0.94921 0.60965 0.61966 0.0
H358 H 0.96559 0.60389 0.77297 0.0
H359 H 0.93194 0.58584 0.79794 0.0
H360 H 0.98903 0.63892 0.73556 0.0
H361 H 0.96349 0.57446 0.67496 0.0
H362 H 0.94046 0.54574 0.62782 0.0
H363 H 0.95577 0.5775 0.48723 0.0
H364 H 0.97866 0.6065 0.53372 0.0
H365 H 0.08164 0.6549 0.68739 0.0
H366 H 0.04817 0.64158 0.71018 0.0
H367 H 0.03518 0.64859 0.55417 0.0
H368 H 0.06876 0.66168 0.53082 0.0
H369 H 0.00989 0.61426 0.59027 0.0
H370 H 0.03648 0.67834 0.64928 0.0
H371 H 0.05902 0.70741 0.69596 0.0
H372 H 0.04183 0.6769 0.83838 0.0
H373 H 0.01937 0.64755 0.79247 0.0
C374 C 0.92643 0.59402 0.67263 0.0
C375 C 0.92123 0.58694 0.72271 0.0
C376 C 0.94558 0.60451 0.65865 0.0
C377 C 0.9599 0.6078 0.69419 0.0
C378 C 0.95477 0.60144 0.74486 0.0
C379 C 0.93556 0.5911 0.75906 0.0
C380 C 0.98014 0.61715 0.6779 0.0
C381 C 0.99364 0.63343 0.70418 0.0
C382 C 0.98607 0.61024 0.63605 0.0
C383 C 0.97265 0.59269 0.6079 0.0
C384 C 0.96187 0.57534 0.63403 0.0
C385 C 0.94885 0.55901 0.60742 0.0
C386 C 0.94662 0.55981 0.55456 0.0
C387 C 0.95749 0.57691 0.52818 0.0
C388 C 0.97049 0.59329 0.55463 0.0
C389 C 0.07168 0.65367 0.65791 0.0
C390 C 0.07782 0.65936 0.60731 0.0
C391 C 0.05257 0.64616 0.67109 0.0
C392 C 0.03921 0.64435 0.63407 0.0
C393 C 0.04527 0.64994 0.58339 0.0
C394 C 0.06444 0.65743 0.57012 0.0
C395 C 0.01884 0.636 0.64812 0.0
C396 C 0.00529 0.61986 0.62147 0.0
C397 C 0.01289 0.64305 0.68957 0.0
C398 C 0.02635 0.6607 0.71735 0.0
C399 C 0.03761 0.67778 0.69051 0.0
C400 C 0.05035 0.69432 0.71684 0.0
C401 C 0.05189 0.69399 0.77009 0.0
C402 C 0.04064 0.67713 0.79713 0.0
C403 C 0.02788 0.66054 0.77097 0.0
H404 H 0.06176 0.70681 0.79041 0.0
H405 H 0.93647 0.54719 0.53399 0.0
H406 H 0.34067 0.93168 0.13149 0.0
H407 H 0.35567 0.96576 0.11147 0.0
H408 H 0.33629 0.95216 0.9552 0.0
H409 H 0.32127 0.91826 0.97481 0.0
H410 H 0.37482 0.97798 0.96316 0.0
H411 H 0.31573 0.96894 0.0321 0.0
H412 H 0.29053 0.95907 0.09737 0.0
H413 H 0.33129 0.99854 0.20464 0.0
H414 H 0.35679 0.00845 0.1402 0.0
H415 H 0.40502 0.07135 0.87651 0.0
H416 H 0.38484 0.03755 0.89742 0.0
H417 H 0.39688 0.0505 0.0581 0.0
H418 H 0.41642 0.08424 0.03758 0.0
H419 H 0.36121 0.02471 0.04749 0.0
H420 H 0.42039 0.03284 0.9842 0.0
H421 H 0.44675 0.04265 0.92263 0.0
H422 H 0.40759 0.00488 0.80971 0.0
H423 H 0.38094 0.99503 0.87043 0.0
C424 C 0.33942 0.93599 0.09308 0.0
C425 C 0.32985 0.92233 0.05469 0.0
C426 C 0.34795 0.95542 0.08173 0.0
C427 C 0.34705 0.96143 0.03185 0.0
C428 C 0.33715 0.9478 0.99387 0.0
C429 C 0.32854 0.92844 0.00522 0.0
C430 C 0.3573 0.98189 0.01826 0.0
C431 C 0.37167 0.98818 0.98102 0.0
C432 C 0.35354 0.99521 0.04274 0.0
C433 C 0.3382 0.9893 0.08147 0.0
C434 C 0.31935 0.9754 0.06974 0.0
C435 C 0.30501 0.96982 0.10657 0.0
C436 C 0.30931 0.97814 0.15517 0.0
C437 C 0.32797 0.99209 0.167 0.0
C438 C 0.34238 0.99771 0.13033 0.0
C439 C 0.40321 0.06697 0.91627 0.0
C440 C 0.41236 0.08039 0.95538 0.0
C441 C 0.39177 0.04766 0.92819 0.0
C442 C 0.3896 0.04144 0.97931 0.0
C443 C 0.39833 0.05493 0.01842 0.0
C444 C 0.40956 0.07422 0.00659 0.0
C445 C 0.37875 0.02085 0.99217 0.0
C446 C 0.36432 0.01453 0.02939 0.0
C447 C 0.38264 0.0075 0.96821 0.0
C448 C 0.39865 0.01335 0.93167 0.0
C449 C 0.41738 0.02673 0.94611 0.0
C450 C 0.43237 0.03229 0.91139 0.0
C451 C 0.42884 0.02444 0.86224 0.0
C452 C 0.4103 0.01097 0.84776 0.0
C453 C 0.39525 0.00539 0.88232 0.0
H454 H 0.44047 0.02875 0.83541 0.0
H455 H 0.29819 0.9738 0.18362 0.0
H456 H 0.18324 0.47663 0.88157 0.0
H457 H 0.20693 0.4751 0.93608 0.0
H458 H 0.16955 0.41472 0.9559 0.0
H459 H 0.14572 0.41609 0.90105 0.0
H460 H 0.19075 0.43416 0.04604 0.0
H461 H 0.20054 0.42709 0.86771 0.0
H462 H 0.20428 0.43617 0.7765 0.0
H463 H 0.25435 0.48937 0.81194 0.0
H464 H 0.2507 0.48075 0.90357 0.0
H465 H 0.26145 0.41322 0.12463 0.0
H466 H 0.23631 0.41232 0.07082 0.0
H467 H 0.27192 0.47213 0.03774 0.0
H468 H 0.29715 0.47315 0.0914 0.0
H469 H 0.25085 0.45157 0.95356 0.0
H470 H 0.24081 0.45929 0.13142 0.0
H471 H 0.23715 0.45076 0.22303 0.0
H472 H 0.18774 0.39685 0.18905 0.0
H473 H 0.19131 0.40493 0.09704 0.0
C474 C 0.17983 0.4631 0.89855 0.0
C475 C 0.16269 0.44644 0.88664 0.0
C476 C 0.19342 0.46225 0.9295 0.0
C477 C 0.19009 0.44474 0.94919 0.0
C478 C 0.17239 0.42834 0.94082 0.0
C479 C 0.1588 0.42916 0.90953 0.0
C480 C 0.20573 0.44335 0.97429 0.0
C481 C 0.20379 0.4377 0.02572 0.0
C482 C 0.22282 0.44824 0.94778 0.0
C483 C 0.22524 0.45335 0.89259 0.0
C484 C 0.21226 0.44079 0.85612 0.0
C485 C 0.21437 0.44584 0.80434 0.0
C486 C 0.22952 0.46335 0.78845 0.0
C487 C 0.24261 0.47582 0.82432 0.0
C488 C 0.24053 0.47085 0.87618 0.0
C489 C 0.26411 0.42608 0.1049 0.0
C490 C 0.28121 0.4433 0.11254 0.0
C491 C 0.24969 0.42556 0.07443 0.0
C492 C 0.25214 0.44224 0.05114 0.0
C493 C 0.26972 0.45913 0.05562 0.0
C494 C 0.28412 0.45968 0.08626 0.0
C495 C 0.23595 0.44247 0.02546 0.0
C496 C 0.23778 0.44791 0.97387 0.0
C497 C 0.21878 0.43743 0.05188 0.0
C498 C 0.21645 0.43263 0.10726 0.0
C499 C 0.22925 0.44555 0.14342 0.0
C500 C 0.22719 0.44081 0.19543 0.0
C501 C 0.21225 0.42326 0.21184 0.0
C502 C 0.19932 0.41043 0.17627 0.0
C503 C 0.20135 0.41509 0.12418 0.0
H504 H 0.21068 0.41961 0.25212 0.0
H505 H 0.23113 0.46724 0.74834 0.0
H506 H 0.84778 0.26314 0.45056 0.0
H507 H 0.82352 0.23926 0.39439 0.0
H508 H 0.80283 0.27778 0.35986 0.0
H509 H 0.82684 0.30161 0.41701 0.0
H510 H 0.77427 0.24388 0.38605 0.0
H511 H 0.82719 0.26644 0.27033 0.0
H512 H 0.85963 0.27493 0.24312 0.0
H513 H 0.84665 0.21732 0.26799 0.0
H514 H 0.81419 0.20853 0.29601 0.0
H515 H 0.71271 0.19144 0.18079 0.0
H516 H 0.73712 0.21486 0.23748 0.0
H517 H 0.75654 0.1753 0.27172 0.0
H518 H 0.7323 0.15187 0.21416 0.0
H519 H 0.78571 0.20933 0.24646 0.0
H520 H 0.7327 0.18668 0.36132 0.0
H521 H 0.70026 0.17816 0.3886 0.0
H522 H 0.7134 0.2359 0.36549 0.0
H523 H 0.74585 0.24473 0.3374 0.0
C524 C 0.8383 0.26667 0.43023 0.0
C525 C 0.83921 0.28425 0.43818 0.0
C526 C 0.82444 0.253 0.39806 0.0
C527 C 0.81137 0.25673 0.37272 0.0
C528 C 0.81273 0.27457 0.37913 0.0
C529 C 0.82653 0.28821 0.41152 0.0
C530 C 0.79558 0.24164 0.34216 0.0
C531 C 0.77679 0.23653 0.35498 0.0
C532 C 0.79882 0.23163 0.30272 0.0
C533 C 0.81832 0.23687 0.28572 0.0
C534 C 0.8313 0.25561 0.27038 0.0
C535 C 0.84968 0.26047 0.25473 0.0
C536 C 0.85521 0.24669 0.25395 0.0
C537 C 0.84235 0.22799 0.26867 0.0
C538 C 0.82396 0.22305 0.28438 0.0
C539 C 0.72195 0.18759 0.20107 0.0
C540 C 0.72059 0.16981 0.19304 0.0
C541 C 0.73589 0.20099 0.23357 0.0
C542 C 0.74862 0.19682 0.25907 0.0
C543 C 0.74689 0.17883 0.25237 0.0
C544 C 0.73296 0.16542 0.21974 0.0
C545 C 0.76441 0.21163 0.29023 0.0
C546 C 0.7832 0.21667 0.27756 0.0
C547 C 0.76116 0.22158 0.32982 0.0
C548 C 0.74166 0.21632 0.34681 0.0
C549 C 0.72863 0.19753 0.36166 0.0
C550 C 0.71025 0.19265 0.37735 0.0
C551 C 0.70476 0.20647 0.37866 0.0
C552 C 0.71766 0.22521 0.36441 0.0
C553 C 0.73606 0.23016 0.34865 0.0
H554 H 0.69052 0.20266 0.39082 0.0
H555 H 0.86945 0.25048 0.24183 0.0
H556 H 0.58237 0.84477 0.80447 0.0
H557 H 0.58306 0.8211 0.74793 0.0
H558 H 0.52223 0.7944 0.7272 0.0
H559 H 0.52141 0.8178 0.78461 0.0
H560 H 0.53199 0.76872 0.75157 0.0
H561 H 0.55418 0.82009 0.63031 0.0
H562 H 0.57491 0.85272 0.59817 0.0
H563 H 0.62365 0.84533 0.61078 0.0
H564 H 0.60324 0.81273 0.64363 0.0
H565 H 0.52031 0.70655 0.547 0.0
H566 H 0.52152 0.73078 0.60462 0.0
H567 H 0.58235 0.75525 0.61947 0.0
H568 H 0.58129 0.73121 0.56054 0.0
H569 H 0.57374 0.78216 0.60008 0.0
H570 H 0.5514 0.73045 0.71914 0.0
H571 H 0.53062 0.69776 0.75077 0.0
H572 H 0.48217 0.70577 0.74241 0.0
H573 H 0.50263 0.73843 0.71008 0.0
C574 C 0.56919 0.83407 0.78711 0.0
C575 C 0.55183 0.83313 0.79898 0.0
C576 C 0.56961 0.82055 0.75472 0.0
C577 C 0.5527 0.80598 0.73316 0.0
C578 C 0.53544 0.80546 0.74354 0.0
C579 C 0.53501 0.81891 0.77611 0.0
C580 C 0.55278 0.7906 0.70245 0.0
C581 C 0.54093 0.77165 0.718 0.0
C582 C 0.56491 0.79444 0.65968 0.0
C583 C 0.5772 0.81404 0.63993 0.0
C584 C 0.56934 0.82548 0.62663 0.0
C585 C 0.58103 0.84396 0.6082 0.0
C586 C 0.60059 0.85111 0.60257 0.0
C587 C 0.6085 0.83978 0.61523 0.0
C588 C 0.59687 0.8213 0.63371 0.0
C589 C 0.53392 0.71688 0.5632 0.0
C590 C 0.55071 0.71695 0.54933 0.0
C591 C 0.53458 0.73072 0.59627 0.0
C592 C 0.55201 0.74478 0.61675 0.0
C593 C 0.56874 0.74455 0.60412 0.0
C594 C 0.5681 0.73074 0.57074 0.0
C595 C 0.55282 0.76027 0.64896 0.0
C596 C 0.56486 0.77923 0.63376 0.0
C597 C 0.54086 0.75646 0.6921 0.0
C598 C 0.52854 0.73684 0.71179 0.0
C599 C 0.5363 0.7252 0.72371 0.0
C600 C 0.52458 0.70668 0.74182 0.0
C601 C 0.50508 0.69968 0.7485 0.0
C602 C 0.49728 0.7112 0.73719 0.0
C603 C 0.50893 0.72973 0.71903 0.0
H604 H 0.49603 0.68533 0.76251 0.0
H605 H 0.60962 0.86542 0.58829 0.0
H606 H 0.72663 0.57711 0.10741 0.0
H607 H 0.75243 0.58014 0.05206 0.0
H608 H 0.7387 0.52304 0.09197 0.0
H609 H 0.71297 0.51993 0.14728 0.0
H610 H 0.77664 0.54866 0.10344 0.0
H611 H 0.72829 0.53234 0.9751 0.0
H612 H 0.704 0.53573 0.92689 0.0
H613 H 0.74635 0.59199 0.87991 0.0
H614 H 0.77086 0.58903 0.92846 0.0
H615 H 0.82829 0.5294 0.91596 0.0
H616 H 0.8052 0.53032 0.97431 0.0
H617 H 0.82142 0.58685 0.92146 0.0
H618 H 0.84445 0.58594 0.86261 0.0
H619 H 0.78351 0.56392 0.91797 0.0
H620 H 0.83225 0.5799 0.04214 0.0
H621 H 0.85673 0.57683 0.09031 0.0
H622 H 0.81416 0.52197 0.14566 0.0
H623 H 0.78943 0.52458 0.09721 0.0
C624 C 0.72891 0.5651 0.10368 0.0
C625 C 0.71778 0.54829 0.13167 0.0
C626 C 0.74366 0.56685 0.0721 0.0
C627 C 0.7475 0.55182 0.06801 0.0
C628 C 0.73603 0.53484 0.09477 0.0
C629 C 0.72126 0.53305 0.1261 0.0
C630 C 0.76396 0.55402 0.03767 0.0
C631 C 0.77805 0.55178 0.06274 0.0
C632 C 0.7661 0.55872 0.985 0.0
C633 C 0.75137 0.56054 0.95591 0.0
C634 C 0.73239 0.5455 0.9549 0.0
C635 C 0.71859 0.54733 0.92742 0.0
C636 C 0.72362 0.56409 0.90049 0.0
C637 C 0.74247 0.57903 0.90088 0.0
C638 C 0.75633 0.57728 0.92834 0.0
C639 C 0.82723 0.54219 0.91755 0.0
C640 C 0.83817 0.55758 0.88466 0.0
C641 C 0.81403 0.54271 0.95097 0.0
C642 C 0.81158 0.55867 0.9523 0.0
C643 C 0.82304 0.57438 0.92098 0.0
C644 C 0.83628 0.57388 0.88762 0.0
C645 C 0.79611 0.55834 0.98359 0.0
C646 C 0.7822 0.56094 0.95874 0.0
C647 C 0.79418 0.55403 0.03652 0.0
C648 C 0.80901 0.55237 0.06563 0.0
C649 C 0.82812 0.5671 0.06421 0.0
C650 C 0.84204 0.56546 0.09164 0.0
C651 C 0.83701 0.5492 0.12092 0.0
C652 C 0.81804 0.53455 0.12291 0.0
C653 C 0.80406 0.53611 0.09551 0.0
H654 H 0.84781 0.54796 0.14216 0.0
H655 H 0.71291 0.56547 0.87922 0.0
H656 H 0.15823 0.74109 0.4841 0.0
H657 H 0.18066 0.76639 0.42748 0.0
H658 H 0.19352 0.72669 0.35289 0.0
H659 H 0.17106 0.70122 0.40969 0.0
H660 H 0.21906 0.77982 0.42152 0.0
H661 H 0.20517 0.742 0.22571 0.0
H662 H 0.17875 0.71608 0.17758 0.0
H663 H 0.13841 0.72512 0.26161 0.0
H664 H 0.16459 0.75127 0.30966 0.0
H665 H 0.29459 0.82762 0.23655 0.0
H666 H 0.27002 0.80441 0.29413 0.0
H667 H 0.22935 0.81859 0.2322 0.0
H668 H 0.25383 0.84197 0.17525 0.0
H669 H 0.2169 0.77911 0.23161 0.0
H670 H 0.24406 0.8326 0.34654 0.0
H671 H 0.26999 0.85914 0.39423 0.0
H672 H 0.28246 0.81994 0.47178 0.0
H673 H 0.25678 0.79318 0.42397 0.0
C674 C 0.1656 0.73764 0.45513 0.0
C675 C 0.16289 0.71915 0.45132 0.0
C676 C 0.17849 0.75215 0.42302 0.0
C677 C 0.18878 0.74843 0.38609 0.0
C678 C 0.18563 0.72983 0.38094 0.0
C679 C 0.17279 0.7153 0.41334 0.0
C680 C 0.20341 0.76425 0.35473 0.0
C681 C 0.21858 0.77966 0.37998 0.0
C682 C 0.20273 0.76407 0.30058 0.0
C683 C 0.18685 0.74845 0.27171 0.0
C684 C 0.19066 0.73848 0.23382 0.0
C685 C 0.17573 0.72375 0.20655 0.0
C686 C 0.15691 0.71891 0.21668 0.0
C687 C 0.15299 0.72883 0.25397 0.0
C688 C 0.16787 0.74359 0.28129 0.0
C689 C 0.28051 0.82604 0.23595 0.0
C690 C 0.27614 0.83662 0.20146 0.0
C691 C 0.2665 0.81277 0.26874 0.0
C692 C 0.24787 0.80975 0.26715 0.0
C693 C 0.24363 0.82068 0.23382 0.0
C694 C 0.25768 0.83412 0.20158 0.0
C695 C 0.23257 0.79457 0.29843 0.0
C696 C 0.21735 0.77924 0.27315 0.0
C697 C 0.23316 0.79484 0.35253 0.0
C698 C 0.24863 0.81091 0.38126 0.0
C699 C 0.25245 0.82966 0.37339 0.0
C700 C 0.26708 0.84474 0.40053 0.0
C701 C 0.2779 0.84124 0.43591 0.0
C702 C 0.27409 0.82264 0.44431 0.0
C703 C 0.25949 0.8075 0.41723 0.0
H704 H 0.28921 0.85293 0.4569 0.0
H705 H 0.14536 0.70749 0.19554 0.0
H706 H 0.41974 0.15229 0.78699 0.0
H707 H 0.41804 0.17554 0.73073 0.0
H708 H 0.47856 0.2132 0.74777 0.0
H709 H 0.48032 0.19012 0.8044 0.0
H710 H 0.45906 0.23142 0.76591 0.0
H711 H 0.45984 0.19016 0.63534 0.0
H712 H 0.44919 0.15967 0.59078 0.0
H713 H 0.39385 0.15336 0.56822 0.0
H714 H 0.40408 0.1837 0.6133 0.0
H715 H 0.47318 0.29863 0.57103 0.0
H716 H 0.47348 0.27492 0.62819 0.0
H717 H 0.41308 0.23831 0.60519 0.0
H718 H 0.41274 0.26189 0.5473 0.0
H719 H 0.4316 0.21922 0.59099 0.0
H720 H 0.43084 0.26066 0.72014 0.0
H721 H 0.44137 0.29113 0.76463 0.0
H722 H 0.49641 0.29707 0.7902 0.0
H723 H 0.4863 0.26674 0.74522 0.0
C724 C 0.43274 0.16537 0.77798 0.0
C725 C 0.45016 0.16939 0.80014 0.0
C726 C 0.43175 0.17864 0.7458 0.0
C727 C 0.44818 0.19611 0.73503 0.0
C728 C 0.4657 0.19985 0.75572 0.0
C729 C 0.4667 0.18659 0.78783 0.0
C730 C 0.44695 0.21096 0.70475 0.0
C731 C 0.45331 0.22885 0.72736 0.0
C732 C 0.43888 0.20739 0.65512 0.0
C733 C 0.43267 0.18911 0.6282 0.0
C734 C 0.44534 0.18218 0.62131 0.0
C735 C 0.4394 0.16495 0.59586 0.0
C736 C 0.42084 0.15456 0.57681 0.0
C737 C 0.40821 0.16141 0.58307 0.0
C738 C 0.41408 0.17863 0.60853 0.0
C739 C 0.45989 0.28569 0.57892 0.0
C740 C 0.44294 0.28212 0.55468 0.0
C741 C 0.46008 0.27215 0.61166 0.0
C742 C 0.44328 0.25484 0.62111 0.0
C743 C 0.4262 0.25154 0.59836 0.0
C744 C 0.42602 0.26508 0.56555 0.0
C745 C 0.44381 0.23974 0.65205 0.0
C746 C 0.43731 0.22179 0.6296 0.0
C747 C 0.45172 0.24324 0.70187 0.0
C748 C 0.45786 0.26151 0.72886 0.0
C749 C 0.44524 0.26854 0.73485 0.0
C750 C 0.45113 0.28577 0.76025 0.0
C751 C 0.46956 0.29605 0.78011 0.0
C752 C 0.48214 0.2891 0.77473 0.0
C753 C 0.47634 0.27188 0.74934 0.0
H754 H 0.47409 0.30939 0.79977 0.0
H755 H 0.41627 0.14122 0.5571 0.0
H756 H 0.16025 0.45335 0.58181 0.0
H757 H 0.18145 0.45145 0.51849 0.0
H758 H 0.19742 0.422 0.62792 0.0
H759 H 0.17647 0.42414 0.69175 0.0
H760 H 0.22801 0.4502 0.58226 0.0
H761 H 0.16815 0.3983 0.52769 0.0
H762 H 0.13442 0.38238 0.50159 0.0
H763 H 0.14904 0.41989 0.37232 0.0
H764 H 0.18284 0.43623 0.39805 0.0
H765 H 0.27848 0.42621 0.40267 0.0
H766 H 0.25462 0.42328 0.46516 0.0
H767 H 0.23864 0.45548 0.36568 0.0
H768 H 0.2624 0.45843 0.30302 0.0
H769 H 0.20758 0.42409 0.40717 0.0
H770 H 0.26694 0.47698 0.46453 0.0
H771 H 0.30069 0.49309 0.49057 0.0
H772 H 0.28678 0.4536 0.61485 0.0
H773 H 0.25297 0.43706 0.58906 0.0
C774 C 0.16817 0.44635 0.59222 0.0
C775 C 0.1667 0.43886 0.6416 0.0
C776 C 0.1802 0.44519 0.55596 0.0
C777 C 0.19083 0.4364 0.56837 0.0
C778 C 0.18928 0.4288 0.61758 0.0
C779 C 0.17728 0.42998 0.65389 0.0
C780 C 0.20421 0.4359 0.53068 0.0
C781 C 0.22348 0.44418 0.54429 0.0
C782 C 0.19833 0.42844 0.48078 0.0
C783 C 0.17801 0.4186 0.46508 0.0
C784 C 0.16415 0.40326 0.49392 0.0
C785 C 0.14502 0.39414 0.47915 0.0
C786 C 0.13958 0.40015 0.4354 0.0
C787 C 0.15327 0.41526 0.40624 0.0
C788 C 0.17242 0.42444 0.42087 0.0
C789 C 0.26984 0.43262 0.39412 0.0
C790 C 0.27236 0.44267 0.34827 0.0
C791 C 0.25627 0.43096 0.42982 0.0
C792 C 0.24504 0.43932 0.42013 0.0
C793 C 0.24722 0.44896 0.37381 0.0
C794 C 0.26084 0.45071 0.33824 0.0
C795 C 0.23131 0.43843 0.45882 0.0
C796 C 0.21202 0.42994 0.44533 0.0
C797 C 0.23714 0.44569 0.50885 0.0
C798 C 0.25746 0.45565 0.52451 0.0
C799 C 0.2711 0.47162 0.49714 0.0
C800 C 0.29024 0.48086 0.5119 0.0
C801 C 0.29589 0.47434 0.55424 0.0
C802 C 0.28239 0.45861 0.582 0.0
C803 C 0.26324 0.44931 0.56735 0.0
H804 H 0.31071 0.48151 0.56562 0.0
H805 H 0.12476 0.39307 0.42403 0.0
H806 H 0.80919 0.27833 0.65161 0.0
H807 H 0.78893 0.25633 0.71809 0.0
H808 H 0.83754 0.25566 0.78298 0.0
H809 H 0.85799 0.27771 0.71622 0.0
H810 H 0.80579 0.21959 0.77286 0.0
H811 H 0.82094 0.28015 0.84239 0.0
H812 H 0.82435 0.31211 0.84084 0.0
H813 H 0.76428 0.28731 0.81448 0.0
H814 H 0.76055 0.25519 0.8151 0.0
H815 H 0.75285 0.16915 0.99446 0.0
H816 H 0.77726 0.19247 0.93708 0.0
H817 H 0.73529 0.20327 0.86731 0.0
H818 H 0.71102 0.18043 0.92547 0.0
H819 H 0.76663 0.23557 0.88619 0.0
H820 H 0.75167 0.17567 0.80857 0.0
H821 H 0.74782 0.14353 0.80649 0.0
H822 H 0.80683 0.16682 0.84521 0.0
H823 H 0.81097 0.1991 0.84815 0.0
C824 C 0.81558 0.27353 0.68007 0.0
C825 C 0.83515 0.27974 0.67891 0.0
C826 C 0.80401 0.26104 0.71808 0.0
C827 C 0.81182 0.25458 0.75564 0.0
C828 C 0.83132 0.26057 0.75433 0.0
C829 C 0.84294 0.27317 0.71635 0.0
C830 C 0.79942 0.24132 0.79571 0.0
C831 C 0.79746 0.22316 0.79837 0.0
C832 C 0.78835 0.24596 0.82811 0.0
C833 C 0.7905 0.26525 0.82842 0.0
C834 C 0.80848 0.28151 0.83592 0.0
C835 C 0.81046 0.29965 0.83525 0.0
C836 C 0.79455 0.30174 0.82745 0.0
C837 C 0.7766 0.28567 0.82048 0.0
C838 C 0.77454 0.26749 0.82106 0.0
C839 C 0.74885 0.17644 0.96667 0.0
C840 C 0.73007 0.17299 0.96425 0.0
C841 C 0.76278 0.18972 0.93387 0.0
C842 C 0.75805 0.19949 0.89765 0.0
C843 C 0.73925 0.19593 0.89508 0.0
C844 C 0.72539 0.18283 0.92816 0.0
C845 C 0.77264 0.21363 0.86268 0.0
C846 C 0.77506 0.23202 0.86109 0.0
C847 C 0.78404 0.20915 0.83104 0.0
C848 C 0.78158 0.18976 0.82914 0.0
C849 C 0.76379 0.17392 0.81703 0.0
C850 C 0.76156 0.15568 0.81563 0.0
C851 C 0.77706 0.15313 0.82587 0.0
C852 C 0.79483 0.16882 0.83738 0.0
C853 C 0.79713 0.18708 0.83889 0.0
H854 H 0.7753 0.13899 0.82475 0.0
H855 H 0.79612 0.3158 0.8269 0.0
H856 H 0.58908 0.84511 0.01982 0.0
H857 H 0.59394 0.82608 0.0849 0.0
H858 H 0.53382 0.79658 0.11911 0.0
H859 H 0.52884 0.81535 0.05426 0.0
H860 H 0.55709 0.80913 0.20625 0.0
H861 H 0.55064 0.77553 0.04697 0.0
H862 H 0.5595 0.77275 0.95837 0.0
H863 H 0.6157 0.78757 0.00852 0.0
H864 H 0.60723 0.79071 0.0974 0.0
H865 H 0.52958 0.72165 0.32125 0.0
H866 H 0.53475 0.74728 0.26287 0.0
H867 H 0.59461 0.76542 0.25507 0.0
H868 H 0.58954 0.73964 0.31386 0.0
H869 H 0.5781 0.76317 0.15925 0.0
H870 H 0.58278 0.79186 0.32108 0.0
H871 H 0.57355 0.79403 0.40969 0.0
H872 H 0.52103 0.78862 0.35569 0.0
H873 H 0.52981 0.78612 0.26676 0.0
C874 C 0.57694 0.83456 0.04131 0.0
C875 C 0.55858 0.83164 0.03203 0.0
C876 C 0.57973 0.82373 0.0783 0.0
C877 C 0.56422 0.80997 0.10661 0.0
C878 C 0.54595 0.8072 0.0977 0.0
C879 C 0.54313 0.81786 0.06051 0.0
C880 C 0.56675 0.79815 0.14527 0.0
C881 C 0.56165 0.79905 0.19608 0.0
C882 C 0.57331 0.7855 0.13203 0.0
C883 C 0.57839 0.78361 0.07867 0.0
C884 C 0.56494 0.77838 0.03902 0.0
C885 C 0.56988 0.7767 0.98877 0.0
C886 C 0.58818 0.78005 0.97779 0.0
C887 C 0.60155 0.78503 0.01707 0.0
C888 C 0.59669 0.78676 0.06738 0.0
C889 C 0.54386 0.7311 0.30722 0.0
C890 C 0.55918 0.72872 0.32214 0.0
C891 C 0.5468 0.74577 0.27407 0.0
C892 C 0.56509 0.75833 0.25526 0.0
C893 C 0.58042 0.75588 0.26948 0.0
C894 C 0.5775 0.74122 0.30304 0.0
C895 C 0.56786 0.77373 0.21994 0.0
C896 C 0.57396 0.77354 0.16978 0.0
C897 C 0.56226 0.78707 0.23377 0.0
C898 C 0.55692 0.78869 0.28721 0.0
C899 C 0.5692 0.79099 0.3281 0.0
C900 C 0.56406 0.79231 0.3784 0.0
C901 C 0.5467 0.79144 0.38832 0.0
C902 C 0.53447 0.78929 0.34794 0.0
C903 C 0.53954 0.78795 0.29756 0.0
H904 H 0.54274 0.79245 0.4273 0.0
H905 H 0.59197 0.77873 0.93887 0.0
H906 H 0.70484 0.53572 0.41533 0.0
H907 H 0.72912 0.5397 0.47731 0.0
H908 H 0.77262 0.58358 0.38295 0.0
H909 H 0.74832 0.57966 0.3205 0.0
H910 H 0.78162 0.55648 0.41352 0.0
H911 H 0.76108 0.59624 0.49107 0.0
H912 H 0.73809 0.60509 0.52421 0.0
H913 H 0.71838 0.56018 0.63552 0.0
H914 H 0.74107 0.55086 0.60254 0.0
H915 H 0.85206 0.57854 0.60754 0.0
H916 H 0.83123 0.58186 0.54546 0.0
H917 H 0.78196 0.53682 0.62121 0.0
H918 H 0.80266 0.53336 0.68321 0.0
H919 H 0.77835 0.56854 0.59857 0.0
H920 H 0.79662 0.52703 0.51513 0.0
H921 H 0.81929 0.51782 0.48144 0.0
H922 H 0.84314 0.56619 0.38076 0.0
H923 H 0.82077 0.57584 0.41444 0.0
C924 C 0.71955 0.54632 0.40796 0.0
C925 C 0.72472 0.55739 0.36317 0.0
C926 C 0.73338 0.54864 0.44349 0.0
C927 C 0.75261 0.56204 0.43483 0.0
C928 C 0.75783 0.57321 0.39029 0.0
C929 C 0.74395 0.571 0.35483 0.0
C930 C 0.76725 0.56361 0.47135 0.0
C931 C 0.78118 0.55952 0.4538 0.0
C932 C 0.76637 0.56721 0.52398 0.0
C933 C 0.75269 0.57276 0.54403 0.0
C934 C 0.75174 0.58814 0.52233 0.0
C935 C 0.73878 0.59327 0.54114 0.0
C936 C 0.72675 0.58318 0.58187 0.0
C937 C 0.72769 0.56797 0.60395 0.0
C938 C 0.74062 0.56278 0.58524 0.0
C939 C 0.83678 0.56936 0.61093 0.0
C940 C 0.82894 0.55564 0.65 0.0
C941 C 0.82494 0.57126 0.57547 0.0
C942 C 0.80511 0.55953 0.57878 0.0
C943 C 0.79725 0.54601 0.61818 0.0
C944 C 0.80907 0.544 0.65335 0.0
C945 C 0.79247 0.56112 0.54082 0.0
C946 C 0.77894 0.56578 0.55814 0.0
C947 C 0.79371 0.55805 0.48798 0.0
C948 C 0.80719 0.5523 0.46778 0.0
C949 C 0.80683 0.53581 0.48618 0.0
C950 C 0.81959 0.53049 0.46701 0.0
C951 C 0.83269 0.54145 0.42911 0.0
C952 C 0.83301 0.55774 0.41021 0.0
C953 C 0.82029 0.56314 0.42931 0.0
H954 H 0.84255 0.5373 0.41429 0.0
H955 H 0.71673 0.58717 0.5964 0.0
H956 H 0.15148 0.73108 0.69763 0.0
H957 H 0.17207 0.75339 0.76338 0.0
H958 H 0.20634 0.72635 0.76414 0.0
H959 H 0.18576 0.70392 0.69859 0.0
H960 H 0.19905 0.73475 0.86183 0.0
H961 H 0.22118 0.76616 0.69825 0.0
H962 H 0.2175 0.77805 0.61454 0.0
H963 H 0.19949 0.8135 0.68964 0.0
H964 H 0.20281 0.80161 0.77381 0.0
H965 H 0.28384 0.8063 0.97644 0.0
H966 H 0.26004 0.78253 0.91893 0.0
H967 H 0.23105 0.81493 0.91176 0.0
H968 H 0.25507 0.83898 0.96827 0.0
H969 H 0.23418 0.80364 0.81951 0.0
H970 H 0.21317 0.77383 0.98295 0.0
H971 H 0.21611 0.76194 0.06743 0.0
H972 H 0.23095 0.72361 0.99484 0.0
H973 H 0.22834 0.73546 0.90991 0.0
C974 C 0.16331 0.72981 0.71211 0.0
C975 C 0.16712 0.71588 0.69284 0.0
C976 C 0.17506 0.74256 0.74952 0.0
C977 C 0.1908 0.74159 0.7681 0.0
C978 C 0.19425 0.7273 0.75017 0.0
C979 C 0.18255 0.71457 0.71265 0.0
C980 C 0.20412 0.75594 0.80475 0.0
C981 C 0.20689 0.7498 0.85254 0.0
C982 C 0.21392 0.77558 0.79286 0.0
C983 C 0.21205 0.78285 0.74228 0.0
C984 C 0.21629 0.77638 0.69689 0.0
C985 C 0.21429 0.78314 0.64936 0.0
C986 C 0.20821 0.79648 0.64677 0.0
C987 C 0.20417 0.80314 0.69171 0.0
C988 C 0.20612 0.79641 0.73933 0.0
C989 C 0.27237 0.80833 0.96261 0.0
C990 C 0.27127 0.82445 0.97677 0.0
C991 C 0.25873 0.79469 0.93004 0.0
C992 C 0.24363 0.79684 0.91168 0.0
C993 C 0.24257 0.81299 0.9256 0.0
C994 C 0.25628 0.82669 0.95788 0.0
C995 C 0.22924 0.78249 0.87676 0.0
C996 C 0.22627 0.78862 0.82915 0.0
C997 C 0.21917 0.76285 0.88903 0.0
C998 C 0.22072 0.75566 0.94006 0.0
C999 C 0.2172 0.76297 0.98501 0.0
C1000 C 0.21878 0.75622 0.03297 0.0
C1001 C 0.22376 0.74206 0.0365 0.0
C1002 C 0.22712 0.73459 0.99205 0.0
C1003 C 0.22556 0.74131 0.94398 0.0
H1004 H 0.22497 0.73685 0.07367 0.0
H1005 H 0.20667 0.8017 0.60994 0.0
H1006 H 0.41484 0.16346 0.0075 0.0
H1007 H 0.4114 0.18428 0.0695 0.0
H1008 H 0.4686 0.20405 0.12337 0.0
H1009 H 0.47216 0.18342 0.06161 0.0
H1010 H 0.44196 0.19425 0.20205 0.0
H1011 H 0.46098 0.23119 0.04545 0.0
H1012 H 0.45788 0.23698 0.95416 0.0
H1013 H 0.40279 0.23048 0.98315 0.0
H1014 H 0.40545 0.22438 0.07455 0.0
H1015 H 0.46894 0.27867 0.33584 0.0
H1016 H 0.46636 0.255 0.27378 0.0
H1017 H 0.41096 0.24505 0.228 0.0
H1018 H 0.4136 0.26905 0.28964 0.0
H1019 H 0.43237 0.24737 0.14611 0.0
H1020 H 0.41434 0.21331 0.30393 0.0
H1021 H 0.41718 0.20747 0.39532 0.0
H1022 H 0.46941 0.20784 0.36477 0.0
H1023 H 0.46704 0.21397 0.27328 0.0
C1024 C 0.42664 0.17224 0.03266 0.0
C1025 C 0.44378 0.17189 0.02979 0.0
C1026 C 0.42468 0.18412 0.06786 0.0
C1027 C 0.43978 0.1957 0.10073 0.0
C1028 C 0.45679 0.19517 0.09831 0.0
C1029 C 0.45882 0.18345 0.06293 0.0
C1030 C 0.43808 0.20854 0.13763 0.0
C1031 C 0.43999 0.20595 0.18992 0.0
C1032 C 0.4349 0.22338 0.1216 0.0
C1033 C 0.43332 0.22709 0.0667 0.0
C1034 C 0.44813 0.23082 0.03227 0.0
C1035 C 0.44647 0.23419 0.98052 0.0
C1036 C 0.43012 0.23403 0.96283 0.0
C1037 C 0.41543 0.23056 0.99689 0.0
C1038 C 0.41701 0.22715 0.04867 0.0
C1039 C 0.45622 0.27146 0.31254 0.0
C1040 C 0.44143 0.2756 0.31768 0.0
C1041 C 0.45472 0.25789 0.27728 0.0
C1042 C 0.43833 0.24807 0.24696 0.0
C1043 C 0.42368 0.25243 0.25127 0.0
C1044 C 0.4252 0.26608 0.28649 0.0
C1045 C 0.43668 0.23334 0.21061 0.0
C1046 C 0.4341 0.23554 0.15842 0.0
C1047 C 0.43914 0.21805 0.22675 0.0
C1048 C 0.44058 0.21424 0.28176 0.0
C1049 C 0.4265 0.21229 0.31674 0.0
C1050 C 0.42802 0.2089 0.36857 0.0
C1051 C 0.44348 0.20732 0.38586 0.0
C1052 C 0.45744 0.20908 0.35133 0.0
C1053 C 0.45601 0.21248 0.29946 0.0
H1054 H 0.44463 0.2047 0.426 0.0
H1055 H 0.42887 0.23666 0.92276 0.0
H1056 H 0.35759 0.49233 0.36751 0.0
H1057 H 0.38681 0.5209 0.39395 0.0
H1058 H 0.39737 0.54052 0.23728 0.0
H1059 H 0.3684 0.51167 0.2104 0.0
H1060 H 0.42877 0.54465 0.27926 0.0
H1061 H 0.38082 0.55992 0.32918 0.0
H1062 H 0.35158 0.55458 0.37293 0.0
H1063 H 0.37574 0.55352 0.5184 0.0
H1064 H 0.40504 0.55861 0.47543 0.0
H1065 H 0.49778 0.64095 0.31552 0.0
H1066 H 0.4683 0.61147 0.29691 0.0
H1067 H 0.46516 0.59364 0.45401 0.0
H1068 H 0.4948 0.62332 0.47311 0.0
H1069 H 0.43047 0.58779 0.41652 0.0
H1070 H 0.47903 0.57395 0.36604 0.0
H1071 H 0.50827 0.57961 0.32171 0.0
H1072 H 0.48282 0.57825 0.17638 0.0
H1073 H 0.45351 0.57286 0.2199 0.0
C1074 C 0.36608 0.50279 0.33874 0.0
C1075 C 0.36072 0.49981 0.28689 0.0
C1076 C 0.38274 0.51915 0.35394 0.0
C1077 C 0.39418 0.53297 0.31769 0.0
C1078 C 0.38876 0.53005 0.26591 0.0
C1079 C 0.37218 0.5136 0.25062 0.0
C1080 C 0.41208 0.55021 0.33342 0.0
C1081 C 0.42908 0.5542 0.30881 0.0
C1082 C 0.4126 0.56237 0.37311 0.0
C1083 C 0.39505 0.55945 0.39904 0.0
C1084 C 0.37984 0.55841 0.37047 0.0
C1085 C 0.36327 0.55545 0.39513 0.0
C1086 C 0.36178 0.55365 0.4484 0.0
C1087 C 0.3769 0.55488 0.47714 0.0
C1088 C 0.3935 0.55782 0.45265 0.0
C1089 C 0.49084 0.63077 0.34618 0.0
C1090 C 0.49863 0.63439 0.39575 0.0
C1091 C 0.47403 0.61391 0.33542 0.0
C1092 C 0.46468 0.60031 0.37395 0.0
C1093 C 0.47222 0.60397 0.42375 0.0
C1094 C 0.48915 0.62086 0.43453 0.0
C1095 C 0.44701 0.5823 0.36177 0.0
C1096 C 0.43011 0.57816 0.38711 0.0
C1097 C 0.44655 0.57002 0.32263 0.0
C1098 C 0.46413 0.57316 0.29629 0.0
C1099 C 0.47972 0.57501 0.32465 0.0
C1100 C 0.4963 0.57814 0.29966 0.0
C1101 C 0.49742 0.57933 0.24627 0.0
C1102 C 0.48194 0.57734 0.21775 0.0
C1103 C 0.46533 0.57423 0.24255 0.0
H1104 H 0.51026 0.58176 0.22699 0.0
H1105 H 0.34893 0.55135 0.46742 0.0
H1106 H 0.88988 0.507 0.76656 0.0
H1107 H 0.89044 0.47797 0.74326 0.0
H1108 H 0.83515 0.45528 0.67299 0.0
H1109 H 0.83461 0.48433 0.69544 0.0
H1110 H 0.83944 0.42854 0.73457 0.0
H1111 H 0.871 0.47384 0.59812 0.0
H1112 H 0.89492 0.50448 0.56042 0.0
H1113 H 0.93993 0.49643 0.61865 0.0
H1114 H 0.91628 0.46587 0.65741 0.0
H1115 H 0.86528 0.37446 0.53252 0.0
H1116 H 0.86362 0.40244 0.56034 0.0
H1117 H 0.86858 0.38943 0.71788 0.0
H1118 H 0.86995 0.36133 0.69044 0.0
H1119 H 0.88866 0.43385 0.61189 0.0
H1120 H 0.84263 0.40256 0.79274 0.0
H1121 H 0.81836 0.37132 0.82672 0.0
H1122 H 0.80069 0.35069 0.67363 0.0
H1123 H 0.82469 0.38187 0.63878 0.0
C1124 C 0.87778 0.49573 0.74659 0.0
C1125 C 0.86223 0.49791 0.73262 0.0
C1126 C 0.87814 0.47922 0.73322 0.0
C1127 C 0.86287 0.46457 0.70623 0.0
C1128 C 0.84705 0.46644 0.69387 0.0
C1129 C 0.8468 0.48304 0.70655 0.0
C1130 C 0.8637 0.44763 0.68894 0.0
C1131 C 0.85023 0.42967 0.7079 0.0
C1132 C 0.87765 0.44915 0.65373 0.0
C1133 C 0.89187 0.46766 0.63111 0.0
C1134 C 0.886 0.4787 0.60338 0.0
C1135 C 0.8995 0.49604 0.58172 0.0
C1136 C 0.91892 0.50239 0.58719 0.0
C1137 C 0.92488 0.49148 0.61449 0.0
C1138 C 0.91144 0.47416 0.63629 0.0
C1139 C 0.866 0.37757 0.57307 0.0
C1140 C 0.86766 0.36568 0.60932 0.0
C1141 C 0.8651 0.39357 0.58889 0.0
C1142 C 0.86578 0.3979 0.64119 0.0
C1143 C 0.86773 0.38619 0.67739 0.0
C1144 C 0.86858 0.37018 0.66162 0.0
C1145 C 0.8645 0.41471 0.65781 0.0
C1146 C 0.87791 0.43268 0.63877 0.0
C1147 C 0.85041 0.41316 0.6927 0.0
C1148 C 0.83557 0.3945 0.71319 0.0
C1149 C 0.83349 0.39139 0.76635 0.0
C1150 C 0.8198 0.37368 0.78576 0.0
C1151 C 0.80803 0.35901 0.75235 0.0
C1152 C 0.80986 0.36205 0.69946 0.0
C1153 C 0.82352 0.37972 0.67986 0.0
H1154 H 0.79747 0.34531 0.76745 0.0
H1155 H 0.92936 0.51572 0.57007 0.0
H1156 H 0.49621 0.87375 0.87323 0.0
H1157 H 0.46697 0.8745 0.89237 0.0
H1158 H 0.4655 0.85223 0.0435 0.0
H1159 H 0.49431 0.85102 0.02424 0.0
H1160 H 0.4311 0.83535 0.00473 0.0
H1161 H 0.48169 0.89944 0.02279 0.0
H1162 H 0.51024 0.92902 0.99569 0.0
H1163 H 0.4786 0.93557 0.87323 0.0
H1164 H 0.44992 0.90568 0.89885 0.0
H1165 H 0.3673 0.86022 0.1229 0.0
H1166 H 0.39667 0.86001 0.10154 0.0
H1167 H 0.39224 0.87432 0.94496 0.0
H1168 H 0.36289 0.87444 0.96588 0.0
H1169 H 0.42942 0.89539 0.98581 0.0
H1170 H 0.37849 0.83005 0.97142 0.0
H1171 H 0.35063 0.80061 0.00282 0.0
H1172 H 0.38411 0.79755 0.12596 0.0
H1173 H 0.41212 0.82715 0.09568 0.0
C1174 C 0.48957 0.86893 0.91038 0.0
C1175 C 0.49756 0.86239 0.94728 0.0
C1176 C 0.47292 0.86944 0.92137 0.0
C1177 C 0.46417 0.86363 0.96963 0.0
C1178 C 0.47198 0.85676 0.00604 0.0
C1179 C 0.48849 0.85614 0.99499 0.0
C1180 C 0.44702 0.86491 0.98276 0.0
C1181 C 0.43083 0.84854 0.00108 0.0
C1182 C 0.44658 0.88207 0.97755 0.0
C1183 C 0.4637 0.9002 0.9624 0.0
C1184 C 0.48084 0.9071 0.98982 0.0
C1185 C 0.49706 0.92394 0.97476 0.0
C1186 C 0.49626 0.93419 0.93274 0.0
C1187 C 0.47921 0.92761 0.90574 0.0
C1188 C 0.46297 0.9107 0.92049 0.0
C1189 C 0.37266 0.86342 0.08403 0.0
C1190 C 0.36277 0.86724 0.04599 0.0
C1191 C 0.38938 0.86326 0.07187 0.0
C1192 C 0.39651 0.86703 0.02159 0.0
C1193 C 0.38695 0.87138 0.98395 0.0
C1194 C 0.37016 0.87136 0.99594 0.0
C1195 C 0.41361 0.86585 0.00775 0.0
C1196 C 0.42975 0.88223 0.98931 0.0
C1197 C 0.41413 0.84878 0.01358 0.0
C1198 C 0.39734 0.83091 0.03157 0.0
C1199 C 0.37987 0.82318 0.00542 0.0
C1200 C 0.36406 0.80645 0.02298 0.0
C1201 C 0.36558 0.79724 0.06643 0.0
C1202 C 0.38295 0.80471 0.09234 0.0
C1203 C 0.39879 0.82146 0.07498 0.0
H1204 H 0.35333 0.78429 0.07997 0.0
H1205 H 0.50883 0.94724 0.92117 0.0
H1206 H 0.64119 0.48703 0.33182 0.0
H1207 H 0.61078 0.4581 0.34514 0.0
H1208 H 0.58836 0.47 0.20897 0.0
H1209 H 0.61889 0.49949 0.19607 0.0
H1210 H 0.56305 0.45891 0.2847 0.0
H1211 H 0.59968 0.43445 0.20955 0.0
H1212 H 0.62744 0.43021 0.19624 0.0
H1213 H 0.62101 0.40755 0.34823 0.0
H1214 H 0.59336 0.4119 0.36277 0.0
H1215 H 0.48117 0.36458 0.3032 0.0
H1216 H 0.51002 0.39256 0.27119 0.0
H1217 H 0.53949 0.39446 0.41054 0.0
H1218 H 0.5107 0.3666 0.44294 0.0
H1219 H 0.55994 0.39729 0.3202 0.0
H1220 H 0.52488 0.42525 0.3957 0.0
H1221 H 0.49653 0.42876 0.40595 0.0
H1222 H 0.49939 0.44364 0.24707 0.0
H1223 H 0.52766 0.44001 0.23575 0.0
C1224 C 0.62986 0.48346 0.30441 0.0
C1225 C 0.63246 0.49548 0.26272 0.0
C1226 C 0.61248 0.46685 0.31197 0.0
C1227 C 0.59736 0.46168 0.27759 0.0
C1228 C 0.59987 0.47366 0.23584 0.0
C1229 C 0.61731 0.49044 0.2284 0.0
C1230 C 0.57888 0.44404 0.28673 0.0
C1231 C 0.56231 0.44535 0.29139 0.0
C1232 C 0.5779 0.42635 0.29592 0.0
C1233 C 0.5945 0.42362 0.28735 0.0
C1234 C 0.60426 0.42869 0.24028 0.0
C1235 C 0.61997 0.42624 0.23249 0.0
C1236 C 0.62601 0.41865 0.27139 0.0
C1237 C 0.61632 0.41344 0.31814 0.0
C1238 C 0.6006 0.41586 0.32614 0.0
C1239 C 0.4938 0.371 0.32703 0.0
C1240 C 0.49373 0.36344 0.37556 0.0
C1241 C 0.51022 0.38698 0.30874 0.0
C1242 C 0.52684 0.39555 0.33857 0.0
C1243 C 0.5268 0.388 0.38695 0.0
C1244 C 0.51034 0.37215 0.40547 0.0
C1245 C 0.54438 0.41236 0.31946 0.0
C1246 C 0.56071 0.41082 0.3128 0.0
C1247 C 0.54507 0.42973 0.30784 0.0
C1248 C 0.52826 0.43218 0.31477 0.0
C1249 C 0.51938 0.42915 0.36287 0.0
C1250 C 0.50335 0.43118 0.36889 0.0
C1251 C 0.49615 0.43638 0.32716 0.0
C1252 C 0.50499 0.4396 0.27934 0.0
C1253 C 0.52103 0.43758 0.27312 0.0
H1254 H 0.48375 0.43797 0.33194 0.0
H1255 H 0.63817 0.41677 0.26529 0.0
H1256 H 0.10766 0.61265 0.55566 0.0
H1257 H 0.1069 0.58292 0.57809 0.0
H1258 H 0.16607 0.61471 0.62192 0.0
H1259 H 0.16693 0.64445 0.5998 0.0
H1260 H 0.15644 0.581 0.56793 0.0
H1261 H 0.13372 0.60203 0.71151 0.0
H1262 H 0.11271 0.61198 0.75267 0.0
H1263 H 0.06374 0.55839 0.7136 0.0
H1264 H 0.08447 0.54823 0.67152 0.0
H1265 H 0.16544 0.51483 0.72301 0.0
H1266 H 0.16541 0.54319 0.6913 0.0
H1267 H 0.10419 0.51088 0.67651 0.0
H1268 H 0.10411 0.48272 0.71027 0.0
H1269 H 0.11374 0.54414 0.7116 0.0
H1270 H 0.13527 0.52193 0.57132 0.0
H1271 H 0.15531 0.51138 0.52729 0.0
H1272 H 0.20493 0.5658 0.55516 0.0
H1273 H 0.18522 0.5766 0.6 0.0
C1274 C 0.12059 0.61326 0.56921 0.0
C1275 C 0.13733 0.63085 0.57629 0.0
C1276 C 0.12011 0.5963 0.58219 0.0
C1277 C 0.13637 0.59668 0.6022 0.0
C1278 C 0.15337 0.61414 0.60662 0.0
C1279 C 0.15382 0.6311 0.59406 0.0
C1280 C 0.13543 0.57908 0.62168 0.0
C1281 C 0.14723 0.57299 0.59958 0.0
C1282 C 0.12306 0.56843 0.66214 0.0
C1283 C 0.11062 0.57445 0.68791 0.0
C1284 C 0.11846 0.59243 0.71136 0.0
C1285 C 0.10661 0.5981 0.73491 0.0
C1286 C 0.0869 0.58585 0.73562 0.0
C1287 C 0.07901 0.56788 0.71294 0.0
C1288 C 0.0908 0.56215 0.68927 0.0
C1289 C 0.15198 0.51385 0.71337 0.0
C1290 C 0.13479 0.49659 0.71895 0.0
C1291 C 0.15197 0.53001 0.69486 0.0
C1292 C 0.13483 0.52909 0.68036 0.0
C1293 C 0.1176 0.51195 0.68721 0.0
C1294 C 0.11758 0.49587 0.70652 0.0
C1295 C 0.13484 0.54596 0.65803 0.0
C1296 C 0.12287 0.55198 0.67966 0.0
C1297 C 0.1469 0.55641 0.61667 0.0
C1298 C 0.15879 0.55001 0.58941 0.0
C1299 C 0.15047 0.53161 0.56835 0.0
C1300 C 0.16177 0.52559 0.54321 0.0
C1301 C 0.18139 0.5379 0.53854 0.0
C1302 C 0.18974 0.55628 0.55886 0.0
C1303 C 0.17851 0.56236 0.5841 0.0
H1304 H 0.19011 0.53321 0.51908 0.0
H1305 H 0.07774 0.59027 0.75386 0.0
H1306 H 0.63174 0.13922 0.1126 0.0
H1307 H 0.60164 0.13766 0.09052 0.0
H1308 H 0.60609 0.12127 0.93613 0.0
H1309 H 0.63638 0.1233 0.95762 0.0
H1310 H 0.59643 0.1476 0.93404 0.0
H1311 H 0.57424 0.08885 0.02373 0.0
H1312 H 0.57225 0.06798 0.09501 0.0
H1313 H 0.55341 0.09705 0.19593 0.0
H1314 H 0.55553 0.11828 0.12539 0.0
H1315 H 0.50111 0.12398 0.86829 0.0
H1316 H 0.52965 0.12154 0.88455 0.0
H1317 H 0.53236 0.14188 0.03872 0.0
H1318 H 0.50394 0.1442 0.02299 0.0
H1319 H 0.53744 0.11131 0.03652 0.0
H1320 H 0.56169 0.1712 0.94663 0.0
H1321 H 0.56358 0.19172 0.8745 0.0
H1322 H 0.57821 0.15947 0.77254 0.0
H1323 H 0.57616 0.13859 0.844 0.0
C1324 C 0.62622 0.13519 0.07407 0.0
C1325 C 0.63638 0.13138 0.03685 0.0
C1326 C 0.60899 0.13421 0.06152 0.0
C1327 C 0.60149 0.12913 0.01177 0.0
C1328 C 0.61159 0.12522 0.97471 0.0
C1329 C 0.62888 0.12634 0.98711 0.0
C1330 C 0.58343 0.12852 0.99786 0.0
C1331 C 0.58345 0.13939 0.95596 0.0
C1332 C 0.56655 0.11804 0.02685 0.0
C1333 C 0.5652 0.10526 0.06935 0.0
C1334 C 0.5698 0.09088 0.06121 0.0
C1335 C 0.56863 0.07897 0.10147 0.0
C1336 C 0.56275 0.08121 0.15 0.0
C1337 C 0.55798 0.09534 0.15833 0.0
C1338 C 0.55914 0.1073 0.11821 0.0
C1339 C 0.50784 0.12794 0.90557 0.0
C1340 C 0.50034 0.13433 0.94431 0.0
C1341 C 0.52413 0.12658 0.91478 0.0
C1342 C 0.53316 0.13162 0.9628 0.0
C1343 C 0.52559 0.13787 0.00148 0.0
C1344 C 0.50939 0.13926 0.99231 0.0
C1345 C 0.55057 0.13055 0.97319 0.0
C1346 C 0.55041 0.11935 0.0144 0.0
C1347 C 0.56728 0.14063 0.94342 0.0
C1348 C 0.56856 0.15321 0.90052 0.0
C1349 C 0.56516 0.16839 0.90874 0.0
C1350 C 0.56628 0.18011 0.86801 0.0
C1351 C 0.57095 0.17687 0.81894 0.0
C1352 C 0.57456 0.16194 0.81055 0.0
C1353 C 0.57343 0.15017 0.85115 0.0
H1354 H 0.57182 0.18595 0.78745 0.0
H1355 H 0.56185 0.07198 0.18112 0.0
loop_
_geom_bond_atom_site_label_1
_geom_bond_atom_site_label_2
_geom_bond_distance
_geom_bond_site_symmetry_2
_ccdc_geom_bond_type
In0 O1 2.294 . S
In0 O2 2.326 . S
In0 O6 2.266 . S
In0 O7 2.326 . S
In0 O8 2.266 . S
In0 O9 2.326 . S
In0 O11 2.294 . S
In0 O12 2.326 . S
O1 In0 2.294 . S
O1 C10 1.240 . S
O2 In0 2.326 . S
O2 C10 1.252 . S
C3 O6 1.252 . S
C3 O7 1.260 . S
C4 O11 1.240 . S
C4 O12 1.252 . S
C5 O8 1.252 . S
C5 O9 1.260 . S
O6 In0 2.266 . S
O6 C3 1.252 . S
O7 In0 2.326 . S
O7 C3 1.260 . S
O8 In0 2.266 . S
O8 C5 1.252 . S
O9 In0 2.326 . S
O9 C5 1.260 . S
C10 O1 1.240 . S
C10 O2 1.252 . S
O11 In0 2.294 . S
O11 C4 1.240 . S
O12 In0 2.326 . S
O12 C4 1.252 . S
In13 O14 2.294 . S
In13 O15 2.326 . S
In13 O19 2.266 . S
In13 O20 2.326 . S
In13 O21 2.266 . S
In13 O22 2.326 . S
In13 O24 2.294 . S
In13 O25 2.326 . S
O14 In13 2.294 . S
O14 C23 1.240 . S
O15 In13 2.326 . S
O15 C23 1.252 . S
C16 O19 1.252 . S
C16 O20 1.260 . S
C17 O24 1.240 . S
C17 O25 1.252 . S
C18 O21 1.252 . S
C18 O22 1.260 . S
O19 In13 2.266 . S
O19 C16 1.252 . S
O20 In13 2.326 . S
O20 C16 1.260 . S
O21 In13 2.266 . S
O21 C18 1.252 . S
O22 In13 2.326 . S
O22 C18 1.260 . S
C23 O14 1.240 . S
C23 O15 1.252 . S
O24 In13 2.294 . S
O24 C17 1.240 . S
O25 In13 2.326 . S
O25 C17 1.252 . S
In26 O27 2.294 1_556 S
In26 O28 2.326 . S
In26 O32 2.266 . S
In26 O33 2.326 . S
In26 O34 2.266 . S
In26 O35 2.319 1_556 S
In26 O37 2.294 . S
In26 O38 2.326 . S
O27 In26 2.294 1_554 S
O27 C36 1.240 . S
O28 In26 2.326 . S
O28 C36 1.252 1_556 S
C29 O32 1.252 . S
C29 O33 1.260 . S
C30 O37 1.240 . S
C30 O38 1.252 . S
C31 O34 1.252 . S
C31 O35 1.253 1_556 S
O32 In26 2.266 . S
O32 C29 1.252 . S
O33 In26 2.326 . S
O33 C29 1.260 . S
O34 In26 2.266 . S
O34 C31 1.252 . S
O35 In26 2.319 1_554 S
O35 C31 1.253 1_554 S
C36 O27 1.240 . S
C36 O28 1.252 1_554 S
O37 In26 2.294 . S
O37 C30 1.240 . S
O38 In26 2.326 . S
O38 C30 1.252 . S
In39 O40 2.294 . S
In39 O41 2.326 . S
In39 O45 2.266 . S
In39 O46 2.326 . S
In39 O47 2.266 . S
In39 O48 2.326 . S
In39 O50 2.294 . S
In39 O51 2.326 . S
O40 In39 2.294 . S
O40 C49 1.240 . S
O41 In39 2.326 . S
O41 C49 1.252 . S
C42 O45 1.252 . S
C42 O46 1.260 . S
C43 O50 1.240 . S
C43 O51 1.252 . S
C44 O47 1.252 . S
C44 O48 1.260 . S
O45 In39 2.266 . S
O45 C42 1.252 . S
O46 In39 2.326 . S
O46 C42 1.260 . S
O47 In39 2.266 . S
O47 C44 1.252 . S
O48 In39 2.326 . S
O48 C44 1.260 . S
C49 O40 1.240 . S
C49 O41 1.252 . S
O50 In39 2.294 . S
O50 C43 1.240 . S
O51 In39 2.326 . S
O51 C43 1.252 . S
In52 O53 2.294 . S
In52 O54 2.326 . S
In52 O58 2.266 . S
In52 O59 2.326 . S
In52 O60 2.266 . S
In52 O61 2.326 . S
In52 O63 2.294 . S
In52 O64 2.326 . S
O53 In52 2.294 . S
O53 C62 1.240 . S
O54 In52 2.326 . S
O54 C62 1.252 . S
C55 O58 1.252 . S
C55 O59 1.260 . S
C56 O63 1.240 . S
C56 O64 1.252 . S
C57 O60 1.252 . S
C57 O61 1.260 . S
O58 In52 2.266 . S
O58 C55 1.252 . S
O59 In52 2.326 . S
O59 C55 1.260 . S
O60 In52 2.266 . S
O60 C57 1.252 . S
O61 In52 2.326 . S
O61 C57 1.260 . S
C62 O53 1.240 . S
C62 O54 1.252 . S
O63 In52 2.294 . S
O63 C56 1.240 . S
O64 In52 2.326 . S
O64 C56 1.252 . S
In65 O66 2.294 1_556 S
In65 O67 2.326 . S
In65 O71 2.266 . S
In65 O72 2.326 . S
In65 O73 2.266 . S
In65 O74 2.319 1_556 S
In65 O76 2.294 . S
In65 O77 2.326 . S
O66 In65 2.294 1_554 S
O66 C75 1.240 . S
O67 In65 2.326 . S
O67 C75 1.252 1_556 S
C68 O71 1.252 . S
C68 O72 1.260 . S
C69 O76 1.240 . S
C69 O77 1.252 . S
C70 O73 1.252 . S
C70 O74 1.253 1_556 S
O71 In65 2.266 . S
O71 C68 1.252 . S
O72 In65 2.326 . S
O72 C68 1.260 . S
O73 In65 2.266 . S
O73 C70 1.252 . S
O74 In65 2.319 1_554 S
O74 C70 1.253 1_554 S
C75 O66 1.240 . S
C75 O67 1.252 1_554 S
O76 In65 2.294 . S
O76 C69 1.240 . S
O77 In65 2.326 . S
O77 C69 1.252 . S
In78 O79 2.294 . S
In78 O80 2.326 . S
In78 O84 2.266 . S
In78 O85 2.326 . S
In78 O86 2.266 . S
In78 O87 2.326 . S
In78 O89 2.294 . S
In78 O90 2.326 . S
O79 In78 2.294 . S
O79 C88 1.240 . S
O80 In78 2.326 . S
O80 C88 1.252 . S
C81 O84 1.252 . S
C81 O85 1.260 . S
C82 O89 1.240 . S
C82 O90 1.252 . S
C83 O86 1.252 . S
C83 O87 1.260 . S
O84 In78 2.266 . S
O84 C81 1.252 . S
O85 In78 2.326 . S
O85 C81 1.260 . S
O86 In78 2.266 . S
O86 C83 1.252 . S
O87 In78 2.326 . S
O87 C83 1.260 . S
C88 O79 1.240 . S
C88 O80 1.252 . S
O89 In78 2.294 . S
O89 C82 1.240 . S
O90 In78 2.326 . S
O90 C82 1.252 . S
In91 O92 2.294 . S
In91 O93 2.326 . S
In91 O97 2.266 . S
In91 O98 2.326 . S
In91 O99 2.266 . S
In91 O100 2.326 . S
In91 O102 2.294 . S
In91 O103 2.326 . S
O92 In91 2.294 . S
O92 C101 1.240 . S
O93 In91 2.326 . S
O93 C101 1.252 . S
C94 O97 1.252 . S
C94 O98 1.260 . S
C95 O102 1.240 . S
C95 O103 1.252 . S
C96 O99 1.252 . S
C96 O100 1.260 . S
O97 In91 2.266 . S
O97 C94 1.252 . S
O98 In91 2.326 . S
O98 C94 1.260 . S
O99 In91 2.266 . S
O99 C96 1.252 . S
O100 In91 2.326 . S
O100 C96 1.260 . S
C101 O92 1.240 . S
C101 O93 1.252 . S
O102 In91 2.294 . S
O102 C95 1.240 . S
O103 In91 2.326 . S
O103 C95 1.252 . S
In104 O105 2.294 . S
In104 O106 2.326 . S
In104 O110 2.266 . S
In104 O111 2.319 1_554 S
In104 O112 2.266 . S
In104 O113 2.326 . S
In104 O115 2.294 1_554 S
In104 O116 2.326 . S
O105 In104 2.294 . S
O105 C114 1.240 . S
O106 In104 2.326 . S
O106 C114 1.252 . S
C107 O110 1.252 . S
C107 O111 1.253 1_554 S
C108 O115 1.240 . S
C108 O116 1.252 1_556 S
C109 O112 1.252 . S
C109 O113 1.260 . S
O110 In104 2.266 . S
O110 C107 1.252 . S
O111 In104 2.319 1_556 S
O111 C107 1.253 1_556 S
O112 In104 2.266 . S
O112 C109 1.252 . S
O113 In104 2.326 . S
O113 C109 1.260 . S
C114 O105 1.240 . S
C114 O106 1.252 . S
O115 In104 2.294 1_556 S
O115 C108 1.240 . S
O116 In104 2.326 . S
O116 C108 1.252 1_554 S
In117 O118 2.294 . S
In117 O119 2.326 . S
In117 O123 2.266 . S
In117 O124 2.326 . S
In117 O125 2.266 . S
In117 O126 2.326 . S
In117 O128 2.294 . S
In117 O129 2.326 . S
O118 In117 2.294 . S
O118 C127 1.240 . S
O119 In117 2.326 . S
O119 C127 1.252 . S
C120 O123 1.252 . S
C120 O124 1.260 . S
C121 O128 1.240 . S
C121 O129 1.252 . S
C122 O125 1.252 . S
C122 O126 1.260 . S
O123 In117 2.266 . S
O123 C120 1.252 . S
O124 In117 2.326 . S
O124 C120 1.260 . S
O125 In117 2.266 . S
O125 C122 1.252 . S
O126 In117 2.326 . S
O126 C122 1.260 . S
C127 O118 1.240 . S
C127 O119 1.252 . S
O128 In117 2.294 . S
O128 C121 1.240 . S
O129 In117 2.326 . S
O129 C121 1.252 . S
In130 O131 2.294 . S
In130 O132 2.326 . S
In130 O136 2.266 . S
In130 O137 2.326 . S
In130 O138 2.266 . S
In130 O139 2.326 . S
In130 O141 2.294 . S
In130 O142 2.326 . S
O131 In130 2.294 . S
O131 C140 1.240 . S
O132 In130 2.326 . S
O132 C140 1.252 . S
C133 O136 1.252 . S
C133 O137 1.260 . S
C134 O141 1.240 . S
C134 O142 1.252 . S
C135 O138 1.252 . S
C135 O139 1.260 . S
O136 In130 2.266 . S
O136 C133 1.252 . S
O137 In130 2.326 . S
O137 C133 1.260 . S
O138 In130 2.266 . S
O138 C135 1.252 . S
O139 In130 2.326 . S
O139 C135 1.260 . S
C140 O131 1.240 . S
C140 O132 1.252 . S
O141 In130 2.294 . S
O141 C134 1.240 . S
O142 In130 2.326 . S
O142 C134 1.252 . S
In143 O144 2.294 . S
In143 O145 2.326 . S
In143 O149 2.266 . S
In143 O150 2.319 1_554 S
In143 O151 2.266 . S
In143 O152 2.326 . S
In143 O154 2.294 1_554 S
In143 O155 2.326 . S
O144 In143 2.294 . S
O144 C153 1.240 . S
O145 In143 2.326 . S
O145 C153 1.252 . S
C146 O149 1.252 . S
C146 O150 1.253 1_554 S
C147 O154 1.240 . S
C147 O155 1.252 1_556 S
C148 O151 1.252 . S
C148 O152 1.260 . S
O149 In143 2.266 . S
O149 C146 1.252 . S
O150 In143 2.319 1_556 S
O150 C146 1.253 1_556 S
O151 In143 2.266 . S
O151 C148 1.252 . S
O152 In143 2.326 . S
O152 C148 1.260 . S
C153 O144 1.240 . S
C153 O145 1.252 . S
O154 In143 2.294 1_556 S
O154 C147 1.240 . S
O155 In143 2.326 . S
O155 C147 1.252 1_554 S
H156 C174 0.951 . S
H157 C176 0.951 . S
H158 C178 0.950 . S
H159 C179 0.950 . S
H160 C181 0.950 . S
H161 C184 0.950 . S
H162 C185 0.950 . S
H163 C187 0.950 . S
H164 C188 0.950 . S
H165 C189 0.951 . S
H166 C191 0.951 . S
H167 C193 0.950 . S
H168 C194 0.950 . S
H169 C196 0.950 . S
H170 C199 0.950 . S
H171 C200 0.950 . S
H172 C202 0.950 . S
H173 C203 0.950 . S
C174 H156 0.951 . S
C174 C175 1.366 . S
C174 C176 1.388 . S
C175 C174 1.366 . S
C175 C179 1.385 . S
C176 H157 0.951 . S
C176 C174 1.388 . S
C176 C177 1.366 . S
C177 C176 1.366 . S
C177 C178 1.414 . S
C177 C180 1.499 . S
C178 H158 0.950 . S
C178 C177 1.414 . S
C178 C179 1.374 . S
C179 H159 0.950 . S
C179 C175 1.385 . S
C179 C178 1.374 . S
C180 C177 1.499 . S
C180 C181 1.373 . S
C180 C182 1.389 . S
C181 H160 0.950 . S
C181 C180 1.373 . S
C181 C197 1.377 . S
C182 C180 1.389 . S
C182 C183 1.524 . S
C182 C196 1.377 . S
C183 C182 1.524 . S
C183 C184 1.397 . S
C183 C188 1.363 . S
C184 H161 0.950 . S
C184 C183 1.397 . S
C184 C185 1.334 . S
C185 H162 0.950 . S
C185 C184 1.334 . S
C185 C186 1.287 . S
C186 C185 1.287 . S
C186 C187 1.524 . S
C186 H205 0.913 . S
C187 H163 0.950 . S
C187 C186 1.524 . S
C187 C188 1.415 . S
C188 H164 0.950 . S
C188 C183 1.363 . S
C188 C187 1.415 . S
C189 H165 0.951 . S
C189 C190 1.366 . S
C189 C191 1.388 . S
C190 C189 1.366 . S
C190 C194 1.385 . S
C191 H166 0.951 . S
C191 C189 1.388 . S
C191 C192 1.366 . S
C192 C191 1.366 . S
C192 C193 1.414 . S
C192 C195 1.499 . S
C193 H167 0.950 . S
C193 C192 1.414 . S
C193 C194 1.374 . S
C194 H168 0.950 . S
C194 C190 1.385 . S
C194 C193 1.374 . S
C195 C192 1.499 . S
C195 C196 1.373 . S
C195 C197 1.389 . S
C196 H169 0.950 . S
C196 C182 1.377 . S
C196 C195 1.373 . S
C197 C181 1.377 . S
C197 C195 1.389 . S
C197 C198 1.524 . S
C198 C197 1.524 . S
C198 C199 1.397 . S
C198 C203 1.363 . S
C199 H170 0.950 . S
C199 C198 1.397 . S
C199 C200 1.334 . S
C200 H171 0.950 . S
C200 C199 1.334 . S
C200 C201 1.287 . S
C201 C200 1.287 . S
C201 C202 1.524 . S
C201 H204 0.999 . S
C202 H172 0.950 . S
C202 C201 1.524 . S
C202 C203 1.415 . S
C203 H173 0.950 . S
C203 C198 1.363 . S
C203 C202 1.415 . S
H204 C201 0.999 . S
H205 C186 0.913 . S
H206 C224 0.951 . S
H207 C226 0.951 . S
H208 C228 0.950 . S
H209 C229 0.950 . S
H210 C231 0.950 . S
H211 C234 0.950 . S
H212 C235 0.950 . S
H213 C237 0.950 . S
H214 C238 0.950 . S
H215 C239 0.951 . S
H216 C241 0.951 . S
H217 C243 0.950 . S
H218 C244 0.950 . S
H219 C246 0.950 . S
H220 C249 0.950 . S
H221 C250 0.950 . S
H222 C252 0.950 . S
H223 C253 0.950 . S
C224 H206 0.951 . S
C224 C225 1.366 . S
C224 C226 1.388 . S
C225 C224 1.366 . S
C225 C229 1.385 . S
C226 H207 0.951 . S
C226 C224 1.388 . S
C226 C227 1.366 . S
C227 C226 1.366 . S
C227 C228 1.414 . S
C227 C230 1.499 . S
C228 H208 0.950 . S
C228 C227 1.414 . S
C228 C229 1.374 . S
C229 H209 0.950 . S
C229 C225 1.385 . S
C229 C228 1.374 . S
C230 C227 1.499 . S
C230 C231 1.373 . S
C230 C232 1.389 . S
C231 H210 0.950 . S
C231 C230 1.373 . S
C231 C247 1.377 1_655 S
C232 C230 1.389 . S
C232 C233 1.524 . S
C232 C246 1.377 1_655 S
C233 C232 1.524 . S
C233 C234 1.397 . S
C233 C238 1.363 . S
C234 H211 0.950 . S
C234 C233 1.397 . S
C234 C235 1.334 . S
C235 H212 0.950 . S
C235 C234 1.334 . S
C235 C236 1.287 . S
C236 C235 1.287 . S
C236 C237 1.524 . S
C236 H255 0.913 . S
C237 H213 0.950 . S
C237 C236 1.524 . S
C237 C238 1.415 . S
C238 H214 0.950 . S
C238 C233 1.363 . S
C238 C237 1.415 . S
C239 H215 0.951 . S
C239 C240 1.366 . S
C239 C241 1.388 . S
C240 C239 1.366 . S
C240 C244 1.385 . S
C241 H216 0.951 . S
C241 C239 1.388 . S
C241 C242 1.366 . S
C242 C241 1.366 . S
C242 C243 1.414 . S
C242 C245 1.499 . S
C243 H217 0.950 . S
C243 C242 1.414 . S
C243 C244 1.374 . S
C244 H218 0.950 . S
C244 C240 1.385 . S
C244 C243 1.374 . S
C245 C242 1.499 . S
C245 C246 1.373 . S
C245 C247 1.389 . S
C246 H219 0.950 . S
C246 C232 1.377 1_455 S
C246 C245 1.373 . S
C247 C231 1.377 1_455 S
C247 C245 1.389 . S
C247 C248 1.524 . S
C248 C247 1.524 . S
C248 C249 1.397 . S
C248 C253 1.363 . S
C249 H220 0.950 . S
C249 C248 1.397 . S
C249 C250 1.334 . S
C250 H221 0.950 . S
C250 C249 1.334 . S
C250 C251 1.287 . S
C251 C250 1.287 . S
C251 C252 1.524 . S
C251 H254 0.999 . S
C252 H222 0.950 . S
C252 C251 1.524 . S
C252 C253 1.415 . S
C253 H223 0.950 . S
C253 C248 1.363 . S
C253 C252 1.415 . S
H254 C251 0.999 . S
H255 C236 0.913 . S
H256 C274 0.950 1_554 S
H257 C276 0.951 1_554 S
H258 C278 0.950 . S
H259 C279 0.950 . S
H260 C281 0.950 . S
H261 C284 0.950 . S
H262 C285 0.950 . S
H263 C287 0.950 . S
H264 C288 0.950 . S
H265 C289 0.950 1_556 S
H266 C291 0.951 1_556 S
H267 C293 0.950 . S
H268 C294 0.950 . S
H269 C296 0.950 . S
H270 C299 0.950 . S
H271 C300 0.950 . S
H272 C302 0.950 . S
H273 C303 0.950 . S
C274 H256 0.950 1_556 S
C274 C275 1.366 . S
C274 C276 1.388 . S
C275 C274 1.366 . S
C275 C279 1.385 . S
C276 H257 0.951 1_556 S
C276 C274 1.388 . S
C276 C277 1.366 . S
C277 C276 1.366 . S
C277 C278 1.414 . S
C277 C280 1.499 . S
C278 H258 0.950 . S
C278 C277 1.414 . S
C278 C279 1.374 . S
C279 H259 0.950 . S
C279 C275 1.385 . S
C279 C278 1.374 . S
C280 C277 1.499 . S
C280 C281 1.373 . S
C280 C282 1.389 . S
C281 H260 0.950 . S
C281 C280 1.373 . S
C281 C297 1.377 1_566 S
C282 C280 1.389 . S
C282 C283 1.524 . S
C282 C296 1.377 1_566 S
C283 C282 1.524 . S
C283 C284 1.397 . S
C283 C288 1.363 1_556 S
C284 H261 0.950 . S
C284 C283 1.397 . S
C284 C285 1.334 . S
C285 H262 0.950 . S
C285 C284 1.334 . S
C285 C286 1.287 . S
C286 C285 1.287 . S
C286 C287 1.524 1_556 S
C286 H305 0.913 . S
C287 H263 0.950 . S
C287 C286 1.524 1_554 S
C287 C288 1.415 . S
C288 H264 0.950 . S
C288 C283 1.363 1_554 S
C288 C287 1.415 . S
C289 H265 0.950 1_554 S
C289 C290 1.366 . S
C289 C291 1.388 . S
C290 C289 1.366 . S
C290 C294 1.385 . S
C291 H266 0.951 1_554 S
C291 C289 1.388 . S
C291 C292 1.366 . S
C292 C291 1.366 . S
C292 C293 1.414 . S
C292 C295 1.499 . S
C293 H267 0.950 . S
C293 C292 1.414 . S
C293 C294 1.374 . S
C294 H268 0.950 . S
C294 C290 1.385 . S
C294 C293 1.374 . S
C295 C292 1.499 . S
C295 C296 1.373 . S
C295 C297 1.389 . S
C296 H269 0.950 . S
C296 C282 1.377 1_544 S
C296 C295 1.373 . S
C297 C281 1.377 1_544 S
C297 C295 1.389 . S
C297 C298 1.524 . S
C298 C297 1.524 . S
C298 C299 1.397 . S
C298 C303 1.363 1_554 S
C299 H270 0.950 . S
C299 C298 1.397 . S
C299 C300 1.334 . S
C300 H271 0.950 . S
C300 C299 1.334 . S
C300 C301 1.287 . S
C301 C300 1.287 . S
C301 C302 1.524 1_554 S
C301 H304 0.999 . S
C302 H272 0.950 . S
C302 C301 1.524 1_556 S
C302 C303 1.415 . S
C303 H273 0.950 . S
C303 C298 1.363 1_556 S
C303 C302 1.415 . S
H304 C301 0.999 . S
H305 C286 0.913 . S
H306 C324 0.951 . S
H307 C326 0.951 . S
H308 C328 0.950 . S
H309 C329 0.950 . S
H310 C331 0.950 . S
H311 C334 0.950 . S
H312 C335 0.950 . S
H313 C337 0.950 . S
H314 C338 0.950 . S
H315 C339 0.951 . S
H316 C341 0.951 . S
H317 C343 0.950 . S
H318 C344 0.950 . S
H319 C346 0.950 . S
H320 C349 0.950 . S
H321 C350 0.950 . S
H322 C352 0.950 . S
H323 C353 0.950 . S
C324 H306 0.951 . S
C324 C325 1.366 . S
C324 C326 1.388 . S
C325 C324 1.366 . S
C325 C329 1.385 . S
C326 H307 0.951 . S
C326 C324 1.388 . S
C326 C327 1.366 . S
C327 C326 1.366 . S
C327 C328 1.414 . S
C327 C330 1.499 . S
C328 H308 0.950 . S
C328 C327 1.414 . S
C328 C329 1.374 . S
C329 H309 0.950 . S
C329 C325 1.385 . S
C329 C328 1.374 . S
C330 C327 1.499 . S
C330 C331 1.373 . S
C330 C332 1.389 . S
C331 H310 0.950 . S
C331 C330 1.373 . S
C331 C347 1.377 . S
C332 C330 1.389 . S
C332 C333 1.524 . S
C332 C346 1.377 . S
C333 C332 1.524 . S
C333 C334 1.397 . S
C333 C338 1.363 . S
C334 H311 0.950 . S
C334 C333 1.397 . S
C334 C335 1.334 . S
C335 H312 0.950 . S
C335 C334 1.334 . S
C335 C336 1.287 . S
C336 C335 1.287 . S
C336 C337 1.524 . S
C336 H355 0.913 . S
C337 H313 0.950 . S
C337 C336 1.524 . S
C337 C338 1.415 . S
C338 H314 0.950 . S
C338 C333 1.363 . S
C338 C337 1.415 . S
C339 H315 0.951 . S
C339 C340 1.366 . S
C339 C341 1.388 . S
C340 C339 1.366 . S
C340 C344 1.385 . S
C341 H316 0.951 . S
C341 C339 1.388 . S
C341 C342 1.366 . S
C342 C341 1.366 . S
C342 C343 1.414 . S
C342 C345 1.499 . S
C343 H317 0.950 . S
C343 C342 1.414 . S
C343 C344 1.374 . S
C344 H318 0.950 . S
C344 C340 1.385 . S
C344 C343 1.374 . S
C345 C342 1.499 . S
C345 C346 1.373 . S
C345 C347 1.389 . S
C346 H319 0.950 . S
C346 C332 1.377 . S
C346 C345 1.373 . S
C347 C331 1.377 . S
C347 C345 1.389 . S
C347 C348 1.524 . S
C348 C347 1.524 . S
C348 C349 1.397 . S
C348 C353 1.363 . S
C349 H320 0.950 . S
C349 C348 1.397 . S
C349 C350 1.334 . S
C350 H321 0.950 . S
C350 C349 1.334 . S
C350 C351 1.287 . S
C351 C350 1.287 . S
C351 C352 1.524 . S
C351 H354 0.999 . S
C352 H322 0.950 . S
C352 C351 1.524 . S
C352 C353 1.415 . S
C353 H323 0.950 . S
C353 C348 1.363 . S
C353 C352 1.415 . S
H354 C351 0.999 . S
H355 C336 0.913 . S
H356 C374 0.951 . S
H357 C376 0.951 . S
H358 C378 0.950 . S
H359 C379 0.950 . S
H360 C381 0.950 . S
H361 C384 0.950 . S
H362 C385 0.950 . S
H363 C387 0.950 . S
H364 C388 0.950 . S
H365 C389 0.951 . S
H366 C391 0.951 . S
H367 C393 0.950 . S
H368 C394 0.950 . S
H369 C396 0.950 . S
H370 C399 0.950 . S
H371 C400 0.950 . S
H372 C402 0.950 . S
H373 C403 0.950 . S
C374 H356 0.951 . S
C374 C375 1.366 . S
C374 C376 1.388 . S
C375 C374 1.366 . S
C375 C379 1.385 . S
C376 H357 0.951 . S
C376 C374 1.388 . S
C376 C377 1.366 . S
C377 C376 1.366 . S
C377 C378 1.414 . S
C377 C380 1.499 . S
C378 H358 0.950 . S
C378 C377 1.414 . S
C378 C379 1.374 . S
C379 H359 0.950 . S
C379 C375 1.385 . S
C379 C378 1.374 . S
C380 C377 1.499 . S
C380 C381 1.373 . S
C380 C382 1.389 . S
C381 H360 0.950 . S
C381 C380 1.373 . S
C381 C397 1.377 1_655 S
C382 C380 1.389 . S
C382 C383 1.524 . S
C382 C396 1.377 1_655 S
C383 C382 1.524 . S
C383 C384 1.397 . S
C383 C388 1.363 . S
C384 H361 0.950 . S
C384 C383 1.397 . S
C384 C385 1.334 . S
C385 H362 0.950 . S
C385 C384 1.334 . S
C385 C386 1.287 . S
C386 C385 1.287 . S
C386 C387 1.524 . S
C386 H405 0.913 . S
C387 H363 0.950 . S
C387 C386 1.524 . S
C387 C388 1.415 . S
C388 H364 0.950 . S
C388 C383 1.363 . S
C388 C387 1.415 . S
C389 H365 0.951 . S
C389 C390 1.366 . S
C389 C391 1.388 . S
C390 C389 1.366 . S
C390 C394 1.385 . S
C391 H366 0.951 . S
C391 C389 1.388 . S
C391 C392 1.366 . S
C392 C391 1.366 . S
C392 C393 1.414 . S
C392 C395 1.499 . S
C393 H367 0.950 . S
C393 C392 1.414 . S
C393 C394 1.374 . S
C394 H368 0.950 . S
C394 C390 1.385 . S
C394 C393 1.374 . S
C395 C392 1.499 . S
C395 C396 1.373 . S
C395 C397 1.389 . S
C396 H369 0.950 . S
C396 C382 1.377 1_455 S
C396 C395 1.373 . S
C397 C381 1.377 1_455 S
C397 C395 1.389 . S
C397 C398 1.524 . S
C398 C397 1.524 . S
C398 C399 1.397 . S
C398 C403 1.363 . S
C399 H370 0.950 . S
C399 C398 1.397 . S
C399 C400 1.334 . S
C400 H371 0.950 . S
C400 C399 1.334 . S
C400 C401 1.287 . S
C401 C400 1.287 . S
C401 C402 1.524 . S
C401 H404 0.999 . S
C402 H372 0.950 . S
C402 C401 1.524 . S
C402 C403 1.415 . S
C403 H373 0.950 . S
C403 C398 1.363 . S
C403 C402 1.415 . S
H404 C401 0.999 . S
H405 C386 0.913 . S
H406 C424 0.951 . S
H407 C426 0.951 . S
H408 C428 0.950 . S
H409 C429 0.950 1_556 S
H410 C431 0.950 . S
H411 C434 0.950 . S
H412 C435 0.950 . S
H413 C437 0.950 1_545 S
H414 C438 0.950 . S
H415 C439 0.951 . S
H416 C441 0.951 . S
H417 C443 0.950 . S
H418 C444 0.950 1_554 S
H419 C446 0.950 . S
H420 C449 0.950 . S
H421 C450 0.950 . S
H422 C452 0.950 1_565 S
H423 C453 0.950 . S
C424 H406 0.951 . S
C424 C425 1.366 . S
C424 C426 1.388 . S
C425 C424 1.366 . S
C425 C429 1.385 . S
C426 H407 0.951 . S
C426 C424 1.388 . S
C426 C427 1.366 . S
C427 C426 1.366 . S
C427 C428 1.414 1_554 S
C427 C430 1.499 . S
C428 H408 0.950 . S
C428 C427 1.414 1_556 S
C428 C429 1.374 1_556 S
C429 H409 0.950 1_554 S
C429 C425 1.385 . S
C429 C428 1.374 1_554 S
C430 C427 1.499 . S
C430 C431 1.373 1_554 S
C430 C432 1.389 . S
C431 H410 0.950 . S
C431 C430 1.373 1_556 S
C431 C447 1.377 1_565 S
C432 C430 1.389 . S
C432 C433 1.524 . S
C432 C446 1.377 1_565 S
C433 C432 1.524 . S
C433 C434 1.397 . S
C433 C438 1.363 1_565 S
C434 H411 0.950 . S
C434 C433 1.397 . S
C434 C435 1.334 . S
C435 H412 0.950 . S
C435 C434 1.334 . S
C435 C436 1.287 . S
C436 C435 1.287 . S
C436 C437 1.524 . S
C436 H455 0.913 . S
C437 H413 0.950 1_565 S
C437 C436 1.524 . S
C437 C438 1.415 1_565 S
C438 H414 0.950 . S
C438 C433 1.363 1_545 S
C438 C437 1.415 1_545 S
C439 H415 0.951 . S
C439 C440 1.366 . S
C439 C441 1.388 . S
C440 C439 1.366 . S
C440 C444 1.385 . S
C441 H416 0.951 . S
C441 C439 1.388 . S
C441 C442 1.366 . S
C442 C441 1.366 . S
C442 C443 1.414 1_556 S
C442 C445 1.499 . S
C443 H417 0.950 . S
C443 C442 1.414 1_554 S
C443 C444 1.374 1_554 S
C444 H418 0.950 1_556 S
C444 C440 1.385 . S
C444 C443 1.374 1_556 S
C445 C442 1.499 . S
C445 C446 1.373 1_556 S
C445 C447 1.389 . S
C446 H419 0.950 . S
C446 C432 1.377 1_545 S
C446 C445 1.373 1_554 S
C447 C431 1.377 1_545 S
C447 C445 1.389 . S
C447 C448 1.524 . S
C448 C447 1.524 . S
C448 C449 1.397 . S
C448 C453 1.363 1_545 S
C449 H420 0.950 . S
C449 C448 1.397 . S
C449 C450 1.334 . S
C450 H421 0.950 . S
C450 C449 1.334 . S
C450 C451 1.287 . S
C451 C450 1.287 . S
C451 C452 1.524 . S
C451 H454 0.999 . S
C452 H422 0.950 1_545 S
C452 C451 1.524 . S
C452 C453 1.415 1_545 S
C453 H423 0.950 . S
C453 C448 1.363 1_565 S
C453 C452 1.415 1_565 S
H454 C451 0.999 . S
H455 C436 0.913 . S
H456 C474 0.951 . S
H457 C476 0.951 . S
H458 C478 0.950 . S
H459 C479 0.950 . S
H460 C481 0.950 . S
H461 C484 0.950 . S
H462 C485 0.950 . S
H463 C487 0.950 . S
H464 C488 0.950 . S
H465 C489 0.951 . S
H466 C491 0.951 . S
H467 C493 0.950 . S
H468 C494 0.950 . S
H469 C496 0.950 . S
H470 C499 0.950 . S
H471 C500 0.950 . S
H472 C502 0.950 . S
H473 C503 0.950 . S
C474 H456 0.951 . S
C474 C475 1.366 . S
C474 C476 1.388 . S
C475 C474 1.366 . S
C475 C479 1.385 . S
C476 H457 0.951 . S
C476 C474 1.388 . S
C476 C477 1.366 . S
C477 C476 1.366 . S
C477 C478 1.414 . S
C477 C480 1.499 . S
C478 H458 0.950 . S
C478 C477 1.414 . S
C478 C479 1.374 . S
C479 H459 0.950 . S
C479 C475 1.385 . S
C479 C478 1.374 . S
C480 C477 1.499 . S
C480 C481 1.387 . S
C480 C482 1.389 . S
C481 H460 0.950 . S
C481 C480 1.387 . S
C481 C497 1.363 1_556 S
C482 C480 1.389 . S
C482 C483 1.524 . S
C482 C496 1.363 1_556 S
C483 C482 1.524 . S
C483 C484 1.397 . S
C483 C488 1.363 . S
C484 H461 0.950 . S
C484 C483 1.397 . S
C484 C485 1.334 . S
C485 H462 0.950 . S
C485 C484 1.334 . S
C485 C486 1.287 . S
C486 C485 1.287 . S
C486 C487 1.524 . S
C486 H505 0.913 . S
C487 H463 0.950 . S
C487 C486 1.524 . S
C487 C488 1.415 . S
C488 H464 0.950 . S
C488 C483 1.363 . S
C488 C487 1.415 . S
C489 H465 0.951 . S
C489 C490 1.366 . S
C489 C491 1.388 . S
C490 C489 1.366 . S
C490 C494 1.385 . S
C491 H466 0.951 . S
C491 C489 1.388 . S
C491 C492 1.366 . S
C492 C491 1.366 . S
C492 C493 1.414 . S
C492 C495 1.499 . S
C493 H467 0.950 . S
C493 C492 1.414 . S
C493 C494 1.374 . S
C494 H468 0.950 . S
C494 C490 1.385 . S
C494 C493 1.374 . S
C495 C492 1.499 . S
C495 C496 1.386 . S
C495 C497 1.389 . S
C496 H469 0.950 . S
C496 C482 1.363 1_554 S
C496 C495 1.386 . S
C497 C481 1.363 1_554 S
C497 C495 1.389 . S
C497 C498 1.524 . S
C498 C497 1.524 . S
C498 C499 1.397 . S
C498 C503 1.363 . S
C499 H470 0.950 . S
C499 C498 1.397 . S
C499 C500 1.334 . S
C500 H471 0.950 . S
C500 C499 1.334 . S
C500 C501 1.287 . S
C501 C500 1.287 . S
C501 C502 1.524 . S
C501 H504 0.999 . S
C502 H472 0.950 . S
C502 C501 1.524 . S
C502 C503 1.415 . S
C503 H473 0.950 . S
C503 C498 1.363 . S
C503 C502 1.415 . S
H504 C501 0.999 . S
H505 C486 0.913 . S
H506 C524 0.951 . S
H507 C526 0.951 . S
H508 C528 0.950 . S
H509 C529 0.950 . S
H510 C531 0.950 . S
H511 C534 0.950 . S
H512 C535 0.950 . S
H513 C537 0.950 . S
H514 C538 0.950 . S
H515 C539 0.951 . S
H516 C541 0.951 . S
H517 C543 0.950 . S
H518 C544 0.950 . S
H519 C546 0.950 . S
H520 C549 0.950 . S
H521 C550 0.950 . S
H522 C552 0.950 . S
H523 C553 0.950 . S
C524 H506 0.951 . S
C524 C525 1.366 . S
C524 C526 1.388 . S
C525 C524 1.366 . S
C525 C529 1.385 . S
C526 H507 0.951 . S
C526 C524 1.388 . S
C526 C527 1.366 . S
C527 C526 1.366 . S
C527 C528 1.414 . S
C527 C530 1.499 . S
C528 H508 0.950 . S
C528 C527 1.414 . S
C528 C529 1.374 . S
C529 H509 0.950 . S
C529 C525 1.385 . S
C529 C528 1.374 . S
C530 C527 1.499 . S
C530 C531 1.373 . S
C530 C532 1.389 . S
C531 H510 0.950 . S
C531 C530 1.373 . S
C531 C547 1.377 . S
C532 C530 1.389 . S
C532 C533 1.524 . S
C532 C546 1.377 . S
C533 C532 1.524 . S
C533 C534 1.397 . S
C533 C538 1.363 . S
C534 H511 0.950 . S
C534 C533 1.397 . S
C534 C535 1.334 . S
C535 H512 0.950 . S
C535 C534 1.334 . S
C535 C536 1.287 . S
C536 C535 1.287 . S
C536 C537 1.524 . S
C536 H555 0.913 . S
C537 H513 0.950 . S
C537 C536 1.524 . S
C537 C538 1.415 . S
C538 H514 0.950 . S
C538 C533 1.363 . S
C538 C537 1.415 . S
C539 H515 0.951 . S
C539 C540 1.366 . S
C539 C541 1.388 . S
C540 C539 1.366 . S
C540 C544 1.385 . S
C541 H516 0.951 . S
C541 C539 1.388 . S
C541 C542 1.366 . S
C542 C541 1.366 . S
C542 C543 1.414 . S
C542 C545 1.499 . S
C543 H517 0.950 . S
C543 C542 1.414 . S
C543 C544 1.374 . S
C544 H518 0.950 . S
C544 C540 1.385 . S
C544 C543 1.374 . S
C545 C542 1.499 . S
C545 C546 1.373 . S
C545 C547 1.389 . S
C546 H519 0.950 . S
C546 C532 1.377 . S
C546 C545 1.373 . S
C547 C531 1.377 . S
C547 C545 1.389 . S
C547 C548 1.524 . S
C548 C547 1.524 . S
C548 C549 1.397 . S
C548 C553 1.363 . S
C549 H520 0.950 . S
C549 C548 1.397 . S
C549 C550 1.334 . S
C550 H521 0.950 . S
C550 C549 1.334 . S
C550 C551 1.287 . S
C551 C550 1.287 . S
C551 C552 1.524 . S
C551 H554 0.999 . S
C552 H522 0.950 . S
C552 C551 1.524 . S
C552 C553 1.415 . S
C553 H523 0.950 . S
C553 C548 1.363 . S
C553 C552 1.415 . S
H554 C551 0.999 . S
H555 C536 0.913 . S
H556 C574 0.951 . S
H557 C576 0.951 . S
H558 C578 0.950 . S
H559 C579 0.950 . S
H560 C581 0.950 . S
H561 C584 0.950 . S
H562 C585 0.950 . S
H563 C587 0.950 . S
H564 C588 0.950 . S
H565 C589 0.951 . S
H566 C591 0.951 . S
H567 C593 0.950 . S
H568 C594 0.950 . S
H569 C596 0.950 . S
H570 C599 0.950 . S
H571 C600 0.950 . S
H572 C602 0.950 . S
H573 C603 0.950 . S
C574 H556 0.951 . S
C574 C575 1.366 . S
C574 C576 1.388 . S
C575 C574 1.366 . S
C575 C579 1.385 . S
C576 H557 0.951 . S
C576 C574 1.388 . S
C576 C577 1.366 . S
C577 C576 1.366 . S
C577 C578 1.414 . S
C577 C580 1.499 . S
C578 H558 0.950 . S
C578 C577 1.414 . S
C578 C579 1.374 . S
C579 H559 0.950 . S
C579 C575 1.385 . S
C579 C578 1.374 . S
C580 C577 1.499 . S
C580 C581 1.373 . S
C580 C582 1.389 . S
C581 H560 0.950 . S
C581 C580 1.373 . S
C581 C597 1.377 . S
C582 C580 1.389 . S
C582 C583 1.524 . S
C582 C596 1.377 . S
C583 C582 1.524 . S
C583 C584 1.397 . S
C583 C588 1.363 . S
C584 H561 0.950 . S
C584 C583 1.397 . S
C584 C585 1.334 . S
C585 H562 0.950 . S
C585 C584 1.334 . S
C585 C586 1.287 . S
C586 C585 1.287 . S
C586 C587 1.524 . S
C586 H605 0.913 . S
C587 H563 0.950 . S
C587 C586 1.524 . S
C587 C588 1.415 . S
C588 H564 0.950 . S
C588 C583 1.363 . S
C588 C587 1.415 . S
C589 H565 0.951 . S
C589 C590 1.366 . S
C589 C591 1.388 . S
C590 C589 1.366 . S
C590 C594 1.385 . S
C591 H566 0.951 . S
C591 C589 1.388 . S
C591 C592 1.366 . S
C592 C591 1.366 . S
C592 C593 1.414 . S
C592 C595 1.499 . S
C593 H567 0.950 . S
C593 C592 1.414 . S
C593 C594 1.374 . S
C594 H568 0.950 . S
C594 C590 1.385 . S
C594 C593 1.374 . S
C595 C592 1.499 . S
C595 C596 1.373 . S
C595 C597 1.389 . S
C596 H569 0.950 . S
C596 C582 1.377 . S
C596 C595 1.373 . S
C597 C581 1.377 . S
C597 C595 1.389 . S
C597 C598 1.524 . S
C598 C597 1.524 . S
C598 C599 1.397 . S
C598 C603 1.363 . S
C599 H570 0.950 . S
C599 C598 1.397 . S
C599 C600 1.334 . S
C600 H571 0.950 . S
C600 C599 1.334 . S
C600 C601 1.287 . S
C601 C600 1.287 . S
C601 C602 1.524 . S
C601 H604 0.999 . S
C602 H572 0.950 . S
C602 C601 1.524 . S
C602 C603 1.415 . S
C603 H573 0.950 . S
C603 C598 1.363 . S
C603 C602 1.415 . S
H604 C601 0.999 . S
H605 C586 0.913 . S
H606 C624 0.951 . S
H607 C626 0.951 . S
H608 C628 0.950 . S
H609 C629 0.950 . S
H610 C631 0.950 . S
H611 C634 0.950 1_554 S
H612 C635 0.950 . S
H613 C637 0.950 . S
H614 C638 0.950 . S
H615 C639 0.951 . S
H616 C641 0.951 . S
H617 C643 0.950 . S
H618 C644 0.950 . S
H619 C646 0.950 . S
H620 C649 0.950 1_556 S
H621 C650 0.950 . S
H622 C652 0.950 . S
H623 C653 0.950 . S
C624 H606 0.951 . S
C624 C625 1.366 . S
C624 C626 1.388 . S
C625 C624 1.366 . S
C625 C629 1.385 . S
C626 H607 0.951 . S
C626 C624 1.388 . S
C626 C627 1.366 . S
C627 C626 1.366 . S
C627 C628 1.414 . S
C627 C630 1.499 . S
C628 H608 0.950 . S
C628 C627 1.414 . S
C628 C629 1.374 . S
C629 H609 0.950 . S
C629 C625 1.385 . S
C629 C628 1.374 . S
C630 C627 1.499 . S
C630 C631 1.373 . S
C630 C632 1.389 1_554 S
C631 H610 0.950 . S
C631 C630 1.373 . S
C631 C647 1.377 . S
C632 C630 1.389 1_556 S
C632 C633 1.524 . S
C632 C646 1.377 . S
C633 C632 1.524 . S
C633 C634 1.397 . S
C633 C638 1.363 . S
C634 H611 0.950 1_556 S
C634 C633 1.397 . S
C634 C635 1.334 . S
C635 H612 0.950 . S
C635 C634 1.334 . S
C635 C636 1.287 . S
C636 C635 1.287 . S
C636 C637 1.524 . S
C636 H655 0.913 . S
C637 H613 0.950 . S
C637 C636 1.524 . S
C637 C638 1.415 . S
C638 H614 0.950 . S
C638 C633 1.363 . S
C638 C637 1.415 . S
C639 H615 0.951 . S
C639 C640 1.366 . S
C639 C641 1.388 . S
C640 C639 1.366 . S
C640 C644 1.385 . S
C641 H616 0.951 . S
C641 C639 1.388 . S
C641 C642 1.366 . S
C642 C641 1.366 . S
C642 C643 1.414 . S
C642 C645 1.499 . S
C643 H617 0.950 . S
C643 C642 1.414 . S
C643 C644 1.374 . S
C644 H618 0.950 . S
C644 C640 1.385 . S
C644 C643 1.374 . S
C645 C642 1.499 . S
C645 C646 1.373 . S
C645 C647 1.389 1_556 S
C646 H619 0.950 . S
C646 C632 1.377 . S
C646 C645 1.373 . S
C647 C631 1.377 . S
C647 C645 1.389 1_554 S
C647 C648 1.524 . S
C648 C647 1.524 . S
C648 C649 1.397 . S
C648 C653 1.363 . S
C649 H620 0.950 1_554 S
C649 C648 1.397 . S
C649 C650 1.334 . S
C650 H621 0.950 . S
C650 C649 1.334 . S
C650 C651 1.287 . S
C651 C650 1.287 . S
C651 C652 1.524 . S
C651 H654 0.999 . S
C652 H622 0.950 . S
C652 C651 1.524 . S
C652 C653 1.415 . S
C653 H623 0.950 . S
C653 C648 1.363 . S
C653 C652 1.415 . S
H654 C651 0.999 . S
H655 C636 0.913 . S
H656 C674 0.951 . S
H657 C676 0.951 . S
H658 C678 0.950 . S
H659 C679 0.950 . S
H660 C681 0.950 . S
H661 C684 0.950 . S
H662 C685 0.950 . S
H663 C687 0.950 . S
H664 C688 0.950 . S
H665 C689 0.951 . S
H666 C691 0.951 . S
H667 C693 0.950 . S
H668 C694 0.950 . S
H669 C696 0.950 . S
H670 C699 0.950 . S
H671 C700 0.950 . S
H672 C702 0.950 . S
H673 C703 0.950 . S
C674 H656 0.951 . S
C674 C675 1.366 . S
C674 C676 1.388 . S
C675 C674 1.366 . S
C675 C679 1.385 . S
C676 H657 0.951 . S
C676 C674 1.388 . S
C676 C677 1.366 . S
C677 C676 1.366 . S
C677 C678 1.414 . S
C677 C680 1.499 . S
C678 H658 0.950 . S
C678 C677 1.414 . S
C678 C679 1.374 . S
C679 H659 0.950 . S
C679 C675 1.385 . S
C679 C678 1.374 . S
C680 C677 1.499 . S
C680 C681 1.373 . S
C680 C682 1.389 . S
C681 H660 0.950 . S
C681 C680 1.373 . S
C681 C697 1.377 . S
C682 C680 1.389 . S
C682 C683 1.524 . S
C682 C696 1.377 . S
C683 C682 1.524 . S
C683 C684 1.397 . S
C683 C688 1.363 . S
C684 H661 0.950 . S
C684 C683 1.397 . S
C684 C685 1.334 . S
C685 H662 0.950 . S
C685 C684 1.334 . S
C685 C686 1.287 . S
C686 C685 1.287 . S
C686 C687 1.524 . S
C686 H705 0.913 . S
C687 H663 0.950 . S
C687 C686 1.524 . S
C687 C688 1.415 . S
C688 H664 0.950 . S
C688 C683 1.363 . S
C688 C687 1.415 . S
C689 H665 0.951 . S
C689 C690 1.366 . S
C689 C691 1.388 . S
C690 C689 1.366 . S
C690 C694 1.385 . S
C691 H666 0.951 . S
C691 C689 1.388 . S
C691 C692 1.366 . S
C692 C691 1.366 . S
C692 C693 1.414 . S
C692 C695 1.499 . S
C693 H667 0.950 . S
C693 C692 1.414 . S
C693 C694 1.374 . S
C694 H668 0.950 . S
C694 C690 1.385 . S
C694 C693 1.374 . S
C695 C692 1.499 . S
C695 C696 1.373 . S
C695 C697 1.389 . S
C696 H669 0.950 . S
C696 C682 1.377 . S
C696 C695 1.373 . S
C697 C681 1.377 . S
C697 C695 1.389 . S
C697 C698 1.524 . S
C698 C697 1.524 . S
C698 C699 1.397 . S
C698 C703 1.363 . S
C699 H670 0.950 . S
C699 C698 1.397 . S
C699 C700 1.334 . S
C700 H671 0.950 . S
C700 C699 1.334 . S
C700 C701 1.287 . S
C701 C700 1.287 . S
C701 C702 1.524 . S
C701 H704 0.999 . S
C702 H672 0.950 . S
C702 C701 1.524 . S
C702 C703 1.415 . S
C703 H673 0.950 . S
C703 C698 1.363 . S
C703 C702 1.415 . S
H704 C701 0.999 . S
H705 C686 0.913 . S
H706 C724 0.951 . S
H707 C726 0.951 . S
H708 C728 0.950 . S
H709 C729 0.950 . S
H710 C731 0.950 . S
H711 C734 0.950 . S
H712 C735 0.950 . S
H713 C737 0.950 . S
H714 C738 0.950 . S
H715 C739 0.951 . S
H716 C741 0.951 . S
H717 C743 0.950 . S
H718 C744 0.950 . S
H719 C746 0.950 . S
H720 C749 0.950 . S
H721 C750 0.950 . S
H722 C752 0.950 . S
H723 C753 0.950 . S
C724 H706 0.951 . S
C724 C725 1.366 . S
C724 C726 1.388 . S
C725 C724 1.366 . S
C725 C729 1.385 . S
C726 H707 0.951 . S
C726 C724 1.388 . S
C726 C727 1.366 . S
C727 C726 1.366 . S
C727 C728 1.414 . S
C727 C730 1.499 . S
C728 H708 0.950 . S
C728 C727 1.414 . S
C728 C729 1.374 . S
C729 H709 0.950 . S
C729 C725 1.385 . S
C729 C728 1.374 . S
C730 C727 1.499 . S
C730 C731 1.373 . S
C730 C732 1.389 . S
C731 H710 0.950 . S
C731 C730 1.373 . S
C731 C747 1.377 . S
C732 C730 1.389 . S
C732 C733 1.524 . S
C732 C746 1.377 . S
C733 C732 1.524 . S
C733 C734 1.397 . S
C733 C738 1.363 . S
C734 H711 0.950 . S
C734 C733 1.397 . S
C734 C735 1.334 . S
C735 H712 0.950 . S
C735 C734 1.334 . S
C735 C736 1.287 . S
C736 C735 1.287 . S
C736 C737 1.524 . S
C736 H755 0.913 . S
C737 H713 0.950 . S
C737 C736 1.524 . S
C737 C738 1.415 . S
C738 H714 0.950 . S
C738 C733 1.363 . S
C738 C737 1.415 . S
C739 H715 0.951 . S
C739 C740 1.366 . S
C739 C741 1.388 . S
C740 C739 1.366 . S
C740 C744 1.385 . S
C741 H716 0.951 . S
C741 C739 1.388 . S
C741 C742 1.366 . S
C742 C741 1.366 . S
C742 C743 1.414 . S
C742 C745 1.499 . S
C743 H717 0.950 . S
C743 C742 1.414 . S
C743 C744 1.374 . S
C744 H718 0.950 . S
C744 C740 1.385 . S
C744 C743 1.374 . S
C745 C742 1.499 . S
C745 C746 1.373 . S
C745 C747 1.389 . S
C746 H719 0.950 . S
C746 C732 1.377 . S
C746 C745 1.373 . S
C747 C731 1.377 . S
C747 C745 1.389 . S
C747 C748 1.524 . S
C748 C747 1.524 . S
C748 C749 1.397 . S
C748 C753 1.363 . S
C749 H720 0.950 . S
C749 C748 1.397 . S
C749 C750 1.334 . S
C750 H721 0.950 . S
C750 C749 1.334 . S
C750 C751 1.287 . S
C751 C750 1.287 . S
C751 C752 1.524 . S
C751 H754 0.999 . S
C752 H722 0.950 . S
C752 C751 1.524 . S
C752 C753 1.415 . S
C753 H723 0.950 . S
C753 C748 1.363 . S
C753 C752 1.415 . S
H754 C751 0.999 . S
H755 C736 0.913 . S
H756 C774 0.951 . S
H757 C776 0.951 . S
H758 C778 0.950 . S
H759 C779 0.950 . S
H760 C781 0.950 . S
H761 C784 0.950 . S
H762 C785 0.950 . S
H763 C787 0.950 . S
H764 C788 0.950 . S
H765 C789 0.951 . S
H766 C791 0.951 . S
H767 C793 0.950 . S
H768 C794 0.950 . S
H769 C796 0.950 . S
H770 C799 0.950 . S
H771 C800 0.950 . S
H772 C802 0.950 . S
H773 C803 0.950 . S
C774 H756 0.951 . S
C774 C775 1.366 . S
C774 C776 1.388 . S
C775 C774 1.366 . S
C775 C779 1.385 . S
C776 H757 0.951 . S
C776 C774 1.388 . S
C776 C777 1.366 . S
C777 C776 1.366 . S
C777 C778 1.414 . S
C777 C780 1.499 . S
C778 H758 0.950 . S
C778 C777 1.414 . S
C778 C779 1.374 . S
C779 H759 0.950 . S
C779 C775 1.385 . S
C779 C778 1.374 . S
C780 C777 1.499 . S
C780 C781 1.373 . S
C780 C782 1.389 . S
C781 H760 0.950 . S
C781 C780 1.373 . S
C781 C797 1.377 . S
C782 C780 1.389 . S
C782 C783 1.524 . S
C782 C796 1.377 . S
C783 C782 1.524 . S
C783 C784 1.397 . S
C783 C788 1.363 . S
C784 H761 0.950 . S
C784 C783 1.397 . S
C784 C785 1.334 . S
C785 H762 0.950 . S
C785 C784 1.334 . S
C785 C786 1.287 . S
C786 C785 1.287 . S
C786 C787 1.524 . S
C786 H805 0.913 . S
C787 H763 0.950 . S
C787 C786 1.524 . S
C787 C788 1.415 . S
C788 H764 0.950 . S
C788 C783 1.363 . S
C788 C787 1.415 . S
C789 H765 0.951 . S
C789 C790 1.366 . S
C789 C791 1.388 . S
C790 C789 1.366 . S
C790 C794 1.385 . S
C791 H766 0.951 . S
C791 C789 1.388 . S
C791 C792 1.366 . S
C792 C791 1.366 . S
C792 C793 1.414 . S
C792 C795 1.499 . S
C793 H767 0.950 . S
C793 C792 1.414 . S
C793 C794 1.374 . S
C794 H768 0.950 . S
C794 C790 1.385 . S
C794 C793 1.374 . S
C795 C792 1.499 . S
C795 C796 1.373 . S
C795 C797 1.389 . S
C796 H769 0.950 . S
C796 C782 1.377 . S
C796 C795 1.373 . S
C797 C781 1.377 . S
C797 C795 1.389 . S
C797 C798 1.524 . S
C798 C797 1.524 . S
C798 C799 1.397 . S
C798 C803 1.363 . S
C799 H770 0.950 . S
C799 C798 1.397 . S
C799 C800 1.334 . S
C800 H771 0.950 . S
C800 C799 1.334 . S
C800 C801 1.287 . S
C801 C800 1.287 . S
C801 C802 1.524 . S
C801 H804 0.999 . S
C802 H772 0.950 . S
C802 C801 1.524 . S
C802 C803 1.415 . S
C803 H773 0.950 . S
C803 C798 1.363 . S
C803 C802 1.415 . S
H804 C801 0.999 . S
H805 C786 0.913 . S
H806 C824 0.951 . S
H807 C826 0.951 . S
H808 C828 0.950 . S
H809 C829 0.950 . S
H810 C831 0.950 . S
H811 C834 0.950 . S
H812 C835 0.950 . S
H813 C837 0.950 . S
H814 C838 0.950 . S
H815 C839 0.951 1_554 S
H816 C841 0.951 . S
H817 C843 0.950 . S
H818 C844 0.950 . S
H819 C846 0.950 . S
H820 C849 0.950 . S
H821 C850 0.950 . S
H822 C852 0.950 . S
H823 C853 0.950 . S
C824 H806 0.951 . S
C824 C825 1.366 . S
C824 C826 1.388 . S
C825 C824 1.366 . S
C825 C829 1.385 . S
C826 H807 0.951 . S
C826 C824 1.388 . S
C826 C827 1.366 . S
C827 C826 1.366 . S
C827 C828 1.414 . S
C827 C830 1.499 . S
C828 H808 0.950 . S
C828 C827 1.414 . S
C828 C829 1.374 . S
C829 H809 0.950 . S
C829 C825 1.385 . S
C829 C828 1.374 . S
C830 C827 1.499 . S
C830 C831 1.373 . S
C830 C832 1.389 . S
C831 H810 0.950 . S
C831 C830 1.373 . S
C831 C847 1.377 . S
C832 C830 1.389 . S
C832 C833 1.524 . S
C832 C846 1.377 . S
C833 C832 1.524 . S
C833 C834 1.397 . S
C833 C838 1.363 . S
C834 H811 0.950 . S
C834 C833 1.397 . S
C834 C835 1.334 . S
C835 H812 0.950 . S
C835 C834 1.334 . S
C835 C836 1.287 . S
C836 C835 1.287 . S
C836 C837 1.524 . S
C836 H855 0.913 . S
C837 H813 0.950 . S
C837 C836 1.524 . S
C837 C838 1.415 . S
C838 H814 0.950 . S
C838 C833 1.363 . S
C838 C837 1.415 . S
C839 H815 0.951 1_556 S
C839 C840 1.366 . S
C839 C841 1.388 . S
C840 C839 1.366 . S
C840 C844 1.385 . S
C841 H816 0.951 . S
C841 C839 1.388 . S
C841 C842 1.366 . S
C842 C841 1.366 . S
C842 C843 1.414 . S
C842 C845 1.499 . S
C843 H817 0.950 . S
C843 C842 1.414 . S
C843 C844 1.374 . S
C844 H818 0.950 . S
C844 C840 1.385 . S
C844 C843 1.374 . S
C845 C842 1.499 . S
C845 C846 1.373 . S
C845 C847 1.389 . S
C846 H819 0.950 . S
C846 C832 1.377 . S
C846 C845 1.373 . S
C847 C831 1.377 . S
C847 C845 1.389 . S
C847 C848 1.524 . S
C848 C847 1.524 . S
C848 C849 1.397 . S
C848 C853 1.363 . S
C849 H820 0.950 . S
C849 C848 1.397 . S
C849 C850 1.334 . S
C850 H821 0.950 . S
C850 C849 1.334 . S
C850 C851 1.287 . S
C851 C850 1.287 . S
C851 C852 1.524 . S
C851 H854 0.999 . S
C852 H822 0.950 . S
C852 C851 1.524 . S
C852 C853 1.415 . S
C853 H823 0.950 . S
C853 C848 1.363 . S
C853 C852 1.415 . S
H854 C851 0.999 . S
H855 C836 0.913 . S
H856 C874 0.951 1_556 S
H857 C876 0.951 . S
H858 C878 0.950 . S
H859 C879 0.950 . S
H860 C881 0.950 . S
H861 C884 0.950 . S
H862 C885 0.950 1_556 S
H863 C887 0.950 . S
H864 C888 0.950 . S
H865 C889 0.951 . S
H866 C891 0.951 . S
H867 C893 0.950 . S
H868 C894 0.950 . S
H869 C896 0.950 . S
H870 C899 0.950 . S
H871 C900 0.950 . S
H872 C902 0.950 . S
H873 C903 0.950 . S
C874 H856 0.951 1_554 S
C874 C875 1.366 . S
C874 C876 1.388 . S
C875 C874 1.366 . S
C875 C879 1.385 . S
C876 H857 0.951 . S
C876 C874 1.388 . S
C876 C877 1.366 . S
C877 C876 1.366 . S
C877 C878 1.414 . S
C877 C880 1.499 . S
C878 H858 0.950 . S
C878 C877 1.414 . S
C878 C879 1.374 . S
C879 H859 0.950 . S
C879 C875 1.385 . S
C879 C878 1.374 . S
C880 C877 1.499 . S
C880 C881 1.373 . S
C880 C882 1.389 . S
C881 H860 0.950 . S
C881 C880 1.373 . S
C881 C897 1.377 . S
C882 C880 1.389 . S
C882 C883 1.524 . S
C882 C896 1.377 . S
C883 C882 1.524 . S
C883 C884 1.397 . S
C883 C888 1.363 . S
C884 H861 0.950 . S
C884 C883 1.397 . S
C884 C885 1.334 . S
C885 H862 0.950 1_554 S
C885 C884 1.334 . S
C885 C886 1.287 1_554 S
C886 C885 1.287 1_556 S
C886 C887 1.524 . S
C886 H905 0.913 . S
C887 H863 0.950 . S
C887 C886 1.524 . S
C887 C888 1.415 1_556 S
C888 H864 0.950 . S
C888 C883 1.363 . S
C888 C887 1.415 1_554 S
C889 H865 0.951 . S
C889 C890 1.366 . S
C889 C891 1.388 . S
C890 C889 1.366 . S
C890 C894 1.385 . S
C891 H866 0.951 . S
C891 C889 1.388 . S
C891 C892 1.366 . S
C892 C891 1.366 . S
C892 C893 1.414 . S
C892 C895 1.499 . S
C893 H867 0.950 . S
C893 C892 1.414 . S
C893 C894 1.374 . S
C894 H868 0.950 . S
C894 C890 1.385 . S
C894 C893 1.374 . S
C895 C892 1.499 . S
C895 C896 1.373 . S
C895 C897 1.389 . S
C896 H869 0.950 . S
C896 C882 1.377 . S
C896 C895 1.373 . S
C897 C881 1.377 . S
C897 C895 1.389 . S
C897 C898 1.524 . S
C898 C897 1.524 . S
C898 C899 1.397 . S
C898 C903 1.363 . S
C899 H870 0.950 . S
C899 C898 1.397 . S
C899 C900 1.334 . S
C900 H871 0.950 . S
C900 C899 1.334 . S
C900 C901 1.287 . S
C901 C900 1.287 . S
C901 C902 1.524 . S
C901 H904 0.999 . S
C902 H872 0.950 . S
C902 C901 1.524 . S
C902 C903 1.415 . S
C903 H873 0.950 . S
C903 C898 1.363 . S
C903 C902 1.415 . S
H904 C901 0.999 . S
H905 C886 0.913 . S
H906 C924 0.951 . S
H907 C926 0.951 . S
H908 C928 0.950 . S
H909 C929 0.950 . S
H910 C931 0.950 . S
H911 C934 0.950 . S
H912 C935 0.950 . S
H913 C937 0.950 . S
H914 C938 0.950 . S
H915 C939 0.951 . S
H916 C941 0.951 . S
H917 C943 0.950 . S
H918 C944 0.950 . S
H919 C946 0.950 . S
H920 C949 0.950 . S
H921 C950 0.950 . S
H922 C952 0.950 . S
H923 C953 0.950 . S
C924 H906 0.951 . S
C924 C925 1.366 . S
C924 C926 1.388 . S
C925 C924 1.366 . S
C925 C929 1.385 . S
C926 H907 0.951 . S
C926 C924 1.388 . S
C926 C927 1.366 . S
C927 C926 1.366 . S
C927 C928 1.414 . S
C927 C930 1.499 . S
C928 H908 0.950 . S
C928 C927 1.414 . S
C928 C929 1.374 . S
C929 H909 0.950 . S
C929 C925 1.385 . S
C929 C928 1.374 . S
C930 C927 1.499 . S
C930 C931 1.373 . S
C930 C932 1.389 . S
C931 H910 0.950 . S
C931 C930 1.373 . S
C931 C947 1.377 . S
C932 C930 1.389 . S
C932 C933 1.524 . S
C932 C946 1.377 . S
C933 C932 1.524 . S
C933 C934 1.397 . S
C933 C938 1.363 . S
C934 H911 0.950 . S
C934 C933 1.397 . S
C934 C935 1.334 . S
C935 H912 0.950 . S
C935 C934 1.334 . S
C935 C936 1.287 . S
C936 C935 1.287 . S
C936 C937 1.524 . S
C936 H955 0.913 . S
C937 H913 0.950 . S
C937 C936 1.524 . S
C937 C938 1.415 . S
C938 H914 0.950 . S
C938 C933 1.363 . S
C938 C937 1.415 . S
C939 H915 0.951 . S
C939 C940 1.366 . S
C939 C941 1.388 . S
C940 C939 1.366 . S
C940 C944 1.385 . S
C941 H916 0.951 . S
C941 C939 1.388 . S
C941 C942 1.366 . S
C942 C941 1.366 . S
C942 C943 1.414 . S
C942 C945 1.499 . S
C943 H917 0.950 . S
C943 C942 1.414 . S
C943 C944 1.374 . S
C944 H918 0.950 . S
C944 C940 1.385 . S
C944 C943 1.374 . S
C945 C942 1.499 . S
C945 C946 1.373 . S
C945 C947 1.389 . S
C946 H919 0.950 . S
C946 C932 1.377 . S
C946 C945 1.373 . S
C947 C931 1.377 . S
C947 C945 1.389 . S
C947 C948 1.524 . S
C948 C947 1.524 . S
C948 C949 1.397 . S
C948 C953 1.363 . S
C949 H920 0.950 . S
C949 C948 1.397 . S
C949 C950 1.334 . S
C950 H921 0.950 . S
C950 C949 1.334 . S
C950 C951 1.287 . S
C951 C950 1.287 . S
C951 C952 1.524 . S
C951 H954 0.999 . S
C952 H922 0.950 . S
C952 C951 1.524 . S
C952 C953 1.415 . S
C953 H923 0.950 . S
C953 C948 1.363 . S
C953 C952 1.415 . S
H954 C951 0.999 . S
H955 C936 0.913 . S
H956 C974 0.951 . S
H957 C976 0.951 . S
H958 C978 0.950 . S
H959 C979 0.950 . S
H960 C981 0.950 . S
H961 C984 0.950 . S
H962 C985 0.950 . S
H963 C987 0.950 . S
H964 C988 0.950 . S
H965 C989 0.951 . S
H966 C991 0.951 . S
H967 C993 0.950 . S
H968 C994 0.950 . S
H969 C996 0.950 . S
H970 C999 0.950 . S
H971 C1000 0.950 1_554 S
H972 C1002 0.950 . S
H973 C1003 0.950 . S
C974 H956 0.951 . S
C974 C975 1.366 . S
C974 C976 1.388 . S
C975 C974 1.366 . S
C975 C979 1.385 . S
C976 H957 0.951 . S
C976 C974 1.388 . S
C976 C977 1.366 . S
C977 C976 1.366 . S
C977 C978 1.414 . S
C977 C980 1.499 . S
C978 H958 0.950 . S
C978 C977 1.414 . S
C978 C979 1.374 . S
C979 H959 0.950 . S
C979 C975 1.385 . S
C979 C978 1.374 . S
C980 C977 1.499 . S
C980 C981 1.373 . S
C980 C982 1.389 . S
C981 H960 0.950 . S
C981 C980 1.373 . S
C981 C997 1.377 . S
C982 C980 1.389 . S
C982 C983 1.524 . S
C982 C996 1.377 . S
C983 C982 1.524 . S
C983 C984 1.397 . S
C983 C988 1.363 . S
C984 H961 0.950 . S
C984 C983 1.397 . S
C984 C985 1.334 . S
C985 H962 0.950 . S
C985 C984 1.334 . S
C985 C986 1.287 . S
C986 C985 1.287 . S
C986 C987 1.524 . S
C986 H1005 0.913 . S
C987 H963 0.950 . S
C987 C986 1.524 . S
C987 C988 1.415 . S
C988 H964 0.950 . S
C988 C983 1.363 . S
C988 C987 1.415 . S
C989 H965 0.951 . S
C989 C990 1.366 . S
C989 C991 1.388 . S
C990 C989 1.366 . S
C990 C994 1.385 . S
C991 H966 0.951 . S
C991 C989 1.388 . S
C991 C992 1.366 . S
C992 C991 1.366 . S
C992 C993 1.414 . S
C992 C995 1.499 . S
C993 H967 0.950 . S
C993 C992 1.414 . S
C993 C994 1.374 . S
C994 H968 0.950 . S
C994 C990 1.385 . S
C994 C993 1.374 . S
C995 C992 1.499 . S
C995 C996 1.373 . S
C995 C997 1.389 . S
C996 H969 0.950 . S
C996 C982 1.377 . S
C996 C995 1.373 . S
C997 C981 1.377 . S
C997 C995 1.389 . S
C997 C998 1.524 . S
C998 C997 1.524 . S
C998 C999 1.397 . S
C998 C1003 1.363 . S
C999 H970 0.950 . S
C999 C998 1.397 . S
C999 C1000 1.334 . S
C1000 H971 0.950 1_556 S
C1000 C999 1.334 . S
C1000 C1001 1.287 . S
C1001 C1000 1.287 . S
C1001 C1002 1.524 . S
C1001 H1004 0.999 . S
C1002 H972 0.950 . S
C1002 C1001 1.524 . S
C1002 C1003 1.415 . S
C1003 H973 0.950 . S
C1003 C998 1.363 . S
C1003 C1002 1.415 . S
H1004 C1001 0.999 . S
H1005 C986 0.913 . S
H1006 C1024 0.951 1_556 S
H1007 C1026 0.951 . S
H1008 C1028 0.950 . S
H1009 C1029 0.950 . S
H1010 C1031 0.950 . S
H1011 C1034 0.950 . S
H1012 C1035 0.950 . S
H1013 C1037 0.950 . S
H1014 C1038 0.950 . S
H1015 C1039 0.951 . S
H1016 C1041 0.951 . S
H1017 C1043 0.950 . S
H1018 C1044 0.950 . S
H1019 C1046 0.950 . S
H1020 C1049 0.950 . S
H1021 C1050 0.950 . S
H1022 C1052 0.950 . S
H1023 C1053 0.950 . S
C1024 H1006 0.951 1_554 S
C1024 C1025 1.366 . S
C1024 C1026 1.388 . S
C1025 C1024 1.366 . S
C1025 C1029 1.385 . S
C1026 H1007 0.951 . S
C1026 C1024 1.388 . S
C1026 C1027 1.366 . S
C1027 C1026 1.366 . S
C1027 C1028 1.414 . S
C1027 C1030 1.499 . S
C1028 H1008 0.950 . S
C1028 C1027 1.414 . S
C1028 C1029 1.374 . S
C1029 H1009 0.950 . S
C1029 C1025 1.385 . S
C1029 C1028 1.374 . S
C1030 C1027 1.499 . S
C1030 C1031 1.373 . S
C1030 C1032 1.389 . S
C1031 H1010 0.950 . S
C1031 C1030 1.373 . S
C1031 C1047 1.377 . S
C1032 C1030 1.389 . S
C1032 C1033 1.524 . S
C1032 C1046 1.377 . S
C1033 C1032 1.524 . S
C1033 C1034 1.397 . S
C1033 C1038 1.363 . S
C1034 H1011 0.950 . S
C1034 C1033 1.397 . S
C1034 C1035 1.334 1_554 S
C1035 H1012 0.950 . S
C1035 C1034 1.334 1_556 S
C1035 C1036 1.287 . S
C1036 C1035 1.287 . S
C1036 C1037 1.524 . S
C1036 H1055 0.913 . S
C1037 H1013 0.950 . S
C1037 C1036 1.524 . S
C1037 C1038 1.415 1_556 S
C1038 H1014 0.950 . S
C1038 C1033 1.363 . S
C1038 C1037 1.415 1_554 S
C1039 H1015 0.951 . S
C1039 C1040 1.366 . S
C1039 C1041 1.388 . S
C1040 C1039 1.366 . S
C1040 C1044 1.385 . S
C1041 H1016 0.951 . S
C1041 C1039 1.388 . S
C1041 C1042 1.366 . S
C1042 C1041 1.366 . S
C1042 C1043 1.414 . S
C1042 C1045 1.499 . S
C1043 H1017 0.950 . S
C1043 C1042 1.414 . S
C1043 C1044 1.374 . S
C1044 H1018 0.950 . S
C1044 C1040 1.385 . S
C1044 C1043 1.374 . S
C1045 C1042 1.499 . S
C1045 C1046 1.373 . S
C1045 C1047 1.389 . S
C1046 H1019 0.950 . S
C1046 C1032 1.377 . S
C1046 C1045 1.373 . S
C1047 C1031 1.377 . S
C1047 C1045 1.389 . S
C1047 C1048 1.524 . S
C1048 C1047 1.524 . S
C1048 C1049 1.397 . S
C1048 C1053 1.363 . S
C1049 H1020 0.950 . S
C1049 C1048 1.397 . S
C1049 C1050 1.334 . S
C1050 H1021 0.950 . S
C1050 C1049 1.334 . S
C1050 C1051 1.287 . S
C1051 C1050 1.287 . S
C1051 C1052 1.524 . S
C1051 H1054 0.999 . S
C1052 H1022 0.950 . S
C1052 C1051 1.524 . S
C1052 C1053 1.415 . S
C1053 H1023 0.950 . S
C1053 C1048 1.363 . S
C1053 C1052 1.415 . S
H1054 C1051 0.999 . S
H1055 C1036 0.913 . S
H1056 C1074 0.951 . S
H1057 C1076 0.951 . S
H1058 C1078 0.950 . S
H1059 C1079 0.950 . S
H1060 C1081 0.950 . S
H1061 C1084 0.950 . S
H1062 C1085 0.950 . S
H1063 C1087 0.950 . S
H1064 C1088 0.950 . S
H1065 C1089 0.951 . S
H1066 C1091 0.951 . S
H1067 C1093 0.950 . S
H1068 C1094 0.950 . S
H1069 C1096 0.950 . S
H1070 C1099 0.950 . S
H1071 C1100 0.950 . S
H1072 C1102 0.950 . S
H1073 C1103 0.950 . S
C1074 H1056 0.951 . S
C1074 C1075 1.366 . S
C1074 C1076 1.388 . S
C1075 C1074 1.366 . S
C1075 C1079 1.385 . S
C1076 H1057 0.951 . S
C1076 C1074 1.388 . S
C1076 C1077 1.366 . S
C1077 C1076 1.366 . S
C1077 C1078 1.414 . S
C1077 C1080 1.499 . S
C1078 H1058 0.950 . S
C1078 C1077 1.414 . S
C1078 C1079 1.374 . S
C1079 H1059 0.950 . S
C1079 C1075 1.385 . S
C1079 C1078 1.374 . S
C1080 C1077 1.499 . S
C1080 C1081 1.373 . S
C1080 C1082 1.389 . S
C1081 H1060 0.950 . S
C1081 C1080 1.373 . S
C1081 C1097 1.377 . S
C1082 C1080 1.389 . S
C1082 C1083 1.524 . S
C1082 C1096 1.377 . S
C1083 C1082 1.524 . S
C1083 C1084 1.397 . S
C1083 C1088 1.363 . S
C1084 H1061 0.950 . S
C1084 C1083 1.397 . S
C1084 C1085 1.334 . S
C1085 H1062 0.950 . S
C1085 C1084 1.334 . S
C1085 C1086 1.287 . S
C1086 C1085 1.287 . S
C1086 C1087 1.524 . S
C1086 H1105 0.913 . S
C1087 H1063 0.950 . S
C1087 C1086 1.524 . S
C1087 C1088 1.415 . S
C1088 H1064 0.950 . S
C1088 C1083 1.363 . S
C1088 C1087 1.415 . S
C1089 H1065 0.951 . S
C1089 C1090 1.366 . S
C1089 C1091 1.388 . S
C1090 C1089 1.366 . S
C1090 C1094 1.385 . S
C1091 H1066 0.951 . S
C1091 C1089 1.388 . S
C1091 C1092 1.366 . S
C1092 C1091 1.366 . S
C1092 C1093 1.414 . S
C1092 C1095 1.499 . S
C1093 H1067 0.950 . S
C1093 C1092 1.414 . S
C1093 C1094 1.374 . S
C1094 H1068 0.950 . S
C1094 C1090 1.385 . S
C1094 C1093 1.374 . S
C1095 C1092 1.499 . S
C1095 C1096 1.373 . S
C1095 C1097 1.389 . S
C1096 H1069 0.950 . S
C1096 C1082 1.377 . S
C1096 C1095 1.373 . S
C1097 C1081 1.377 . S
C1097 C1095 1.389 . S
C1097 C1098 1.524 . S
C1098 C1097 1.524 . S
C1098 C1099 1.397 . S
C1098 C1103 1.363 . S
C1099 H1070 0.950 . S
C1099 C1098 1.397 . S
C1099 C1100 1.334 . S
C1100 H1071 0.950 . S
C1100 C1099 1.334 . S
C1100 C1101 1.287 . S
C1101 C1100 1.287 . S
C1101 C1102 1.524 . S
C1101 H1104 0.999 . S
C1102 H1072 0.950 . S
C1102 C1101 1.524 . S
C1102 C1103 1.415 . S
C1103 H1073 0.950 . S
C1103 C1098 1.363 . S
C1103 C1102 1.415 . S
H1104 C1101 0.999 . S
H1105 C1086 0.913 . S
H1106 C1124 0.951 . S
H1107 C1126 0.951 . S
H1108 C1128 0.950 . S
H1109 C1129 0.950 . S
H1110 C1131 0.950 . S
H1111 C1134 0.950 . S
H1112 C1135 0.950 . S
H1113 C1137 0.950 . S
H1114 C1138 0.950 . S
H1115 C1139 0.951 . S
H1116 C1141 0.951 . S
H1117 C1143 0.950 . S
H1118 C1144 0.950 . S
H1119 C1146 0.950 . S
H1120 C1149 0.950 . S
H1121 C1150 0.950 . S
H1122 C1152 0.950 . S
H1123 C1153 0.950 . S
C1124 H1106 0.951 . S
C1124 C1125 1.366 . S
C1124 C1126 1.388 . S
C1125 C1124 1.366 . S
C1125 C1129 1.385 . S
C1126 H1107 0.951 . S
C1126 C1124 1.388 . S
C1126 C1127 1.366 . S
C1127 C1126 1.366 . S
C1127 C1128 1.414 . S
C1127 C1130 1.499 . S
C1128 H1108 0.950 . S
C1128 C1127 1.414 . S
C1128 C1129 1.374 . S
C1129 H1109 0.950 . S
C1129 C1125 1.385 . S
C1129 C1128 1.374 . S
C1130 C1127 1.499 . S
C1130 C1131 1.373 . S
C1130 C1132 1.389 . S
C1131 H1110 0.950 . S
C1131 C1130 1.373 . S
C1131 C1147 1.377 . S
C1132 C1130 1.389 . S
C1132 C1133 1.524 . S
C1132 C1146 1.377 . S
C1133 C1132 1.524 . S
C1133 C1134 1.397 . S
C1133 C1138 1.363 . S
C1134 H1111 0.950 . S
C1134 C1133 1.397 . S
C1134 C1135 1.334 . S
C1135 H1112 0.950 . S
C1135 C1134 1.334 . S
C1135 C1136 1.287 . S
C1136 C1135 1.287 . S
C1136 C1137 1.524 . S
C1136 H1155 0.913 . S
C1137 H1113 0.950 . S
C1137 C1136 1.524 . S
C1137 C1138 1.415 . S
C1138 H1114 0.950 . S
C1138 C1133 1.363 . S
C1138 C1137 1.415 . S
C1139 H1115 0.951 . S
C1139 C1140 1.366 . S
C1139 C1141 1.388 . S
C1140 C1139 1.366 . S
C1140 C1144 1.385 . S
C1141 H1116 0.951 . S
C1141 C1139 1.388 . S
C1141 C1142 1.366 . S
C1142 C1141 1.366 . S
C1142 C1143 1.414 . S
C1142 C1145 1.499 . S
C1143 H1117 0.950 . S
C1143 C1142 1.414 . S
C1143 C1144 1.374 . S
C1144 H1118 0.950 . S
C1144 C1140 1.385 . S
C1144 C1143 1.374 . S
C1145 C1142 1.499 . S
C1145 C1146 1.373 . S
C1145 C1147 1.389 . S
C1146 H1119 0.950 . S
C1146 C1132 1.377 . S
C1146 C1145 1.373 . S
C1147 C1131 1.377 . S
C1147 C1145 1.389 . S
C1147 C1148 1.524 . S
C1148 C1147 1.524 . S
C1148 C1149 1.397 . S
C1148 C1153 1.363 . S
C1149 H1120 0.950 . S
C1149 C1148 1.397 . S
C1149 C1150 1.334 . S
C1150 H1121 0.950 . S
C1150 C1149 1.334 . S
C1150 C1151 1.287 . S
C1151 C1150 1.287 . S
C1151 C1152 1.524 . S
C1151 H1154 0.999 . S
C1152 H1122 0.950 . S
C1152 C1151 1.524 . S
C1152 C1153 1.415 . S
C1153 H1123 0.950 . S
C1153 C1148 1.363 . S
C1153 C1152 1.415 . S
H1154 C1151 0.999 . S
H1155 C1136 0.913 . S
H1156 C1174 0.951 . S
H1157 C1176 0.951 . S
H1158 C1178 0.950 . S
H1159 C1179 0.950 . S
H1160 C1181 0.950 . S
H1161 C1184 0.950 . S
H1162 C1185 0.950 . S
H1163 C1187 0.950 . S
H1164 C1188 0.950 . S
H1165 C1189 0.951 . S
H1166 C1191 0.951 . S
H1167 C1193 0.950 . S
H1168 C1194 0.950 . S
H1169 C1196 0.950 . S
H1170 C1199 0.950 . S
H1171 C1200 0.950 . S
H1172 C1202 0.950 . S
H1173 C1203 0.950 . S
C1174 H1156 0.951 . S
C1174 C1175 1.366 . S
C1174 C1176 1.388 . S
C1175 C1174 1.366 . S
C1175 C1179 1.385 1_556 S
C1176 H1157 0.951 . S
C1176 C1174 1.388 . S
C1176 C1177 1.366 . S
C1177 C1176 1.366 . S
C1177 C1178 1.414 1_556 S
C1177 C1180 1.499 . S
C1178 H1158 0.950 . S
C1178 C1177 1.414 1_554 S
C1178 C1179 1.374 . S
C1179 H1159 0.950 . S
C1179 C1175 1.385 1_554 S
C1179 C1178 1.374 . S
C1180 C1177 1.499 . S
C1180 C1181 1.373 1_556 S
C1180 C1182 1.389 . S
C1181 H1160 0.950 . S
C1181 C1180 1.373 1_554 S
C1181 C1197 1.377 . S
C1182 C1180 1.389 . S
C1182 C1183 1.524 . S
C1182 C1196 1.377 . S
C1183 C1182 1.524 . S
C1183 C1184 1.397 . S
C1183 C1188 1.363 . S
C1184 H1161 0.950 . S
C1184 C1183 1.397 . S
C1184 C1185 1.334 . S
C1185 H1162 0.950 . S
C1185 C1184 1.334 . S
C1185 C1186 1.287 . S
C1186 C1185 1.287 . S
C1186 C1187 1.524 . S
C1186 H1205 0.913 . S
C1187 H1163 0.950 . S
C1187 C1186 1.524 . S
C1187 C1188 1.415 . S
C1188 H1164 0.950 . S
C1188 C1183 1.363 . S
C1188 C1187 1.415 . S
C1189 H1165 0.951 . S
C1189 C1190 1.366 . S
C1189 C1191 1.388 . S
C1190 C1189 1.366 . S
C1190 C1194 1.385 1_554 S
C1191 H1166 0.951 . S
C1191 C1189 1.388 . S
C1191 C1192 1.366 . S
C1192 C1191 1.366 . S
C1192 C1193 1.414 1_554 S
C1192 C1195 1.499 . S
C1193 H1167 0.950 . S
C1193 C1192 1.414 1_556 S
C1193 C1194 1.374 . S
C1194 H1168 0.950 . S
C1194 C1190 1.385 1_556 S
C1194 C1193 1.374 . S
C1195 C1192 1.499 . S
C1195 C1196 1.373 1_554 S
C1195 C1197 1.389 . S
C1196 H1169 0.950 . S
C1196 C1182 1.377 . S
C1196 C1195 1.373 1_556 S
C1197 C1181 1.377 . S
C1197 C1195 1.389 . S
C1197 C1198 1.524 . S
C1198 C1197 1.524 . S
C1198 C1199 1.397 . S
C1198 C1203 1.363 . S
C1199 H1170 0.950 . S
C1199 C1198 1.397 . S
C1199 C1200 1.334 . S
C1200 H1171 0.950 . S
C1200 C1199 1.334 . S
C1200 C1201 1.287 . S
C1201 C1200 1.287 . S
C1201 C1202 1.524 . S
C1201 H1204 0.999 . S
C1202 H1172 0.950 . S
C1202 C1201 1.524 . S
C1202 C1203 1.415 . S
C1203 H1173 0.950 . S
C1203 C1198 1.363 . S
C1203 C1202 1.415 . S
H1204 C1201 0.999 . S
H1205 C1186 0.913 . S
H1206 C1224 0.951 . S
H1207 C1226 0.951 . S
H1208 C1228 0.950 . S
H1209 C1229 0.950 . S
H1210 C1231 0.950 . S
H1211 C1234 0.950 . S
H1212 C1235 0.950 . S
H1213 C1237 0.950 . S
H1214 C1238 0.950 . S
H1215 C1239 0.951 . S
H1216 C1241 0.951 . S
H1217 C1243 0.950 . S
H1218 C1244 0.950 . S
H1219 C1246 0.950 . S
H1220 C1249 0.950 . S
H1221 C1250 0.950 . S
H1222 C1252 0.950 . S
H1223 C1253 0.950 . S
C1224 H1206 0.951 . S
C1224 C1225 1.366 . S
C1224 C1226 1.388 . S
C1225 C1224 1.366 . S
C1225 C1229 1.385 . S
C1226 H1207 0.951 . S
C1226 C1224 1.388 . S
C1226 C1227 1.366 . S
C1227 C1226 1.366 . S
C1227 C1228 1.414 . S
C1227 C1230 1.499 . S
C1228 H1208 0.950 . S
C1228 C1227 1.414 . S
C1228 C1229 1.374 . S
C1229 H1209 0.950 . S
C1229 C1225 1.385 . S
C1229 C1228 1.374 . S
C1230 C1227 1.499 . S
C1230 C1231 1.373 . S
C1230 C1232 1.389 . S
C1231 H1210 0.950 . S
C1231 C1230 1.373 . S
C1231 C1247 1.377 . S
C1232 C1230 1.389 . S
C1232 C1233 1.524 . S
C1232 C1246 1.377 . S
C1233 C1232 1.524 . S
C1233 C1234 1.397 . S
C1233 C1238 1.363 . S
C1234 H1211 0.950 . S
C1234 C1233 1.397 . S
C1234 C1235 1.334 . S
C1235 H1212 0.950 . S
C1235 C1234 1.334 . S
C1235 C1236 1.287 . S
C1236 C1235 1.287 . S
C1236 C1237 1.524 . S
C1236 H1255 0.913 . S
C1237 H1213 0.950 . S
C1237 C1236 1.524 . S
C1237 C1238 1.415 . S
C1238 H1214 0.950 . S
C1238 C1233 1.363 . S
C1238 C1237 1.415 . S
C1239 H1215 0.951 . S
C1239 C1240 1.366 . S
C1239 C1241 1.388 . S
C1240 C1239 1.366 . S
C1240 C1244 1.385 . S
C1241 H1216 0.951 . S
C1241 C1239 1.388 . S
C1241 C1242 1.366 . S
C1242 C1241 1.366 . S
C1242 C1243 1.414 . S
C1242 C1245 1.499 . S
C1243 H1217 0.950 . S
C1243 C1242 1.414 . S
C1243 C1244 1.374 . S
C1244 H1218 0.950 . S
C1244 C1240 1.385 . S
C1244 C1243 1.374 . S
C1245 C1242 1.499 . S
C1245 C1246 1.373 . S
C1245 C1247 1.389 . S
C1246 H1219 0.950 . S
C1246 C1232 1.377 . S
C1246 C1245 1.373 . S
C1247 C1231 1.377 . S
C1247 C1245 1.389 . S
C1247 C1248 1.524 . S
C1248 C1247 1.524 . S
C1248 C1249 1.397 . S
C1248 C1253 1.363 . S
C1249 H1220 0.950 . S
C1249 C1248 1.397 . S
C1249 C1250 1.334 . S
C1250 H1221 0.950 . S
C1250 C1249 1.334 . S
C1250 C1251 1.287 . S
C1251 C1250 1.287 . S
C1251 C1252 1.524 . S
C1251 H1254 0.999 . S
C1252 H1222 0.950 . S
C1252 C1251 1.524 . S
C1252 C1253 1.415 . S
C1253 H1223 0.950 . S
C1253 C1248 1.363 . S
C1253 C1252 1.415 . S
H1254 C1251 0.999 . S
H1255 C1236 0.913 . S
H1256 C1274 0.951 . S
H1257 C1276 0.951 . S
H1258 C1278 0.950 . S
H1259 C1279 0.950 . S
H1260 C1281 0.950 . S
H1261 C1284 0.950 . S
H1262 C1285 0.950 . S
H1263 C1287 0.950 . S
H1264 C1288 0.950 . S
H1265 C1289 0.951 . S
H1266 C1291 0.951 . S
H1267 C1293 0.950 . S
H1268 C1294 0.950 . S
H1269 C1296 0.950 . S
H1270 C1299 0.950 . S
H1271 C1300 0.950 . S
H1272 C1302 0.950 . S
H1273 C1303 0.950 . S
C1274 H1256 0.951 . S
C1274 C1275 1.366 . S
C1274 C1276 1.388 . S
C1275 C1274 1.366 . S
C1275 C1279 1.385 . S
C1276 H1257 0.951 . S
C1276 C1274 1.388 . S
C1276 C1277 1.366 . S
C1277 C1276 1.366 . S
C1277 C1278 1.414 . S
C1277 C1280 1.499 . S
C1278 H1258 0.950 . S
C1278 C1277 1.414 . S
C1278 C1279 1.374 . S
C1279 H1259 0.950 . S
C1279 C1275 1.385 . S
C1279 C1278 1.374 . S
C1280 C1277 1.499 . S
C1280 C1281 1.373 . S
C1280 C1282 1.389 . S
C1281 H1260 0.950 . S
C1281 C1280 1.373 . S
C1281 C1297 1.377 . S
C1282 C1280 1.389 . S
C1282 C1283 1.524 . S
C1282 C1296 1.377 . S
C1283 C1282 1.524 . S
C1283 C1284 1.397 . S
C1283 C1288 1.363 . S
C1284 H1261 0.950 . S
C1284 C1283 1.397 . S
C1284 C1285 1.334 . S
C1285 H1262 0.950 . S
C1285 C1284 1.334 . S
C1285 C1286 1.287 . S
C1286 C1285 1.287 . S
C1286 C1287 1.524 . S
C1286 H1305 0.913 . S
C1287 H1263 0.950 . S
C1287 C1286 1.524 . S
C1287 C1288 1.415 . S
C1288 H1264 0.950 . S
C1288 C1283 1.363 . S
C1288 C1287 1.415 . S
C1289 H1265 0.951 . S
C1289 C1290 1.366 . S
C1289 C1291 1.388 . S
C1290 C1289 1.366 . S
C1290 C1294 1.385 . S
C1291 H1266 0.951 . S
C1291 C1289 1.388 . S
C1291 C1292 1.366 . S
C1292 C1291 1.366 . S
C1292 C1293 1.414 . S
C1292 C1295 1.499 . S
C1293 H1267 0.950 . S
C1293 C1292 1.414 . S
C1293 C1294 1.374 . S
C1294 H1268 0.950 . S
C1294 C1290 1.385 . S
C1294 C1293 1.374 . S
C1295 C1292 1.499 . S
C1295 C1296 1.373 . S
C1295 C1297 1.389 . S
C1296 H1269 0.950 . S
C1296 C1282 1.377 . S
C1296 C1295 1.373 . S
C1297 C1281 1.377 . S
C1297 C1295 1.389 . S
C1297 C1298 1.524 . S
C1298 C1297 1.524 . S
C1298 C1299 1.397 . S
C1298 C1303 1.363 . S
C1299 H1270 0.950 . S
C1299 C1298 1.397 . S
C1299 C1300 1.334 . S
C1300 H1271 0.950 . S
C1300 C1299 1.334 . S
C1300 C1301 1.287 . S
C1301 C1300 1.287 . S
C1301 C1302 1.524 . S
C1301 H1304 0.999 . S
C1302 H1272 0.950 . S
C1302 C1301 1.524 . S
C1302 C1303 1.415 . S
C1303 H1273 0.950 . S
C1303 C1298 1.363 . S
C1303 C1302 1.415 . S
H1304 C1301 0.999 . S
H1305 C1286 0.913 . S
H1306 C1324 0.951 . S
H1307 C1326 0.951 . S
H1308 C1328 0.950 . S
H1309 C1329 0.950 . S
H1310 C1331 0.950 . S
H1311 C1334 0.950 . S
H1312 C1335 0.950 . S
H1313 C1337 0.950 . S
H1314 C1338 0.950 . S
H1315 C1339 0.951 . S
H1316 C1341 0.951 . S
H1317 C1343 0.950 . S
H1318 C1344 0.950 . S
H1319 C1346 0.950 . S
H1320 C1349 0.950 . S
H1321 C1350 0.950 . S
H1322 C1352 0.950 . S
H1323 C1353 0.950 . S
C1324 H1306 0.951 . S
C1324 C1325 1.366 . S
C1324 C1326 1.388 . S
C1325 C1324 1.366 . S
C1325 C1329 1.385 1_554 S
C1326 H1307 0.951 . S
C1326 C1324 1.388 . S
C1326 C1327 1.366 . S
C1327 C1326 1.366 . S
C1327 C1328 1.414 1_554 S
C1327 C1330 1.499 . S
C1328 H1308 0.950 . S
C1328 C1327 1.414 1_556 S
C1328 C1329 1.374 . S
C1329 H1309 0.950 . S
C1329 C1325 1.385 1_556 S
C1329 C1328 1.374 . S
C1330 C1327 1.499 . S
C1330 C1331 1.373 1_554 S
C1330 C1332 1.389 . S
C1331 H1310 0.950 . S
C1331 C1330 1.373 1_556 S
C1331 C1347 1.377 . S
C1332 C1330 1.389 . S
C1332 C1333 1.524 . S
C1332 C1346 1.377 . S
C1333 C1332 1.524 . S
C1333 C1334 1.397 . S
C1333 C1338 1.363 . S
C1334 H1311 0.950 . S
C1334 C1333 1.397 . S
C1334 C1335 1.334 . S
C1335 H1312 0.950 . S
C1335 C1334 1.334 . S
C1335 C1336 1.287 . S
C1336 C1335 1.287 . S
C1336 C1337 1.524 . S
C1336 H1355 0.913 . S
C1337 H1313 0.950 . S
C1337 C1336 1.524 . S
C1337 C1338 1.415 . S
C1338 H1314 0.950 . S
C1338 C1333 1.363 . S
C1338 C1337 1.415 . S
C1339 H1315 0.951 . S
C1339 C1340 1.366 . S
C1339 C1341 1.388 . S
C1340 C1339 1.366 . S
C1340 C1344 1.385 1_556 S
C1341 H1316 0.951 . S
C1341 C1339 1.388 . S
C1341 C1342 1.366 . S
C1342 C1341 1.366 . S
C1342 C1343 1.414 1_556 S
C1342 C1345 1.499 . S
C1343 H1317 0.950 . S
C1343 C1342 1.414 1_554 S
C1343 C1344 1.374 . S
C1344 H1318 0.950 . S
C1344 C1340 1.385 1_554 S
C1344 C1343 1.374 . S
C1345 C1342 1.499 . S
C1345 C1346 1.373 1_556 S
C1345 C1347 1.389 . S
C1346 H1319 0.950 . S
C1346 C1332 1.377 . S
C1346 C1345 1.373 1_554 S
C1347 C1331 1.377 . S
C1347 C1345 1.389 . S
C1347 C1348 1.524 . S
C1348 C1347 1.524 . S
C1348 C1349 1.397 . S
C1348 C1353 1.363 . S
C1349 H1320 0.950 . S
C1349 C1348 1.397 . S
C1349 C1350 1.334 . S
C1350 H1321 0.950 . S
C1350 C1349 1.334 . S
C1350 C1351 1.287 . S
C1351 C1350 1.287 . S
C1351 C1352 1.524 . S
C1351 H1354 0.999 . S
C1352 H1322 0.950 . S
C1352 C1351 1.524 . S
C1352 C1353 1.415 . S
C1353 H1323 0.950 . S
C1353 C1348 1.363 . S
C1353 C1352 1.415 . S
H1354 C1351 0.999 . S
H1355 C1336 0.913 . S
C175 C3 1.313 . S
C190 C122 1.313 . S
C225 C16 1.313 . S
C240 C135 1.313 . S
C275 C29 1.313 . S
C290 C148 1.313 . S
C325 C42 1.313 . S
C340 C81 1.312 . S
C375 C94 1.313 . S
C390 C57 1.313 . S
C425 C109 1.312 . S
C440 C68 1.313 . S
C475 C140 1.922 . S
C490 C4 1.922 . S
C525 C17 1.921 . S
C540 C153 1.922 . S
C575 C30 1.921 . S
C590 C82 1.921 . S
C625 C43 1.922 . S
C640 C95 1.921 . S
C675 C62 1.922 . S
C690 C114 1.921 . S
C725 C69 1.921 . S
C740 C127 1.921 . S
C775 C134 0.840 . S
C790 C10 0.840 . S
C825 C23 0.840 . S
C840 C147 0.840 . S
C875 C36 0.839 . S
C890 C88 0.839 . S
C925 C49 0.840 . S
C940 C101 0.840 . S
C975 C56 0.840 . S
C990 C108 0.840 . S
C1025 C75 0.839 . S
C1040 C121 0.839 . S
C1075 C5 1.780 . S
C1090 C83 1.780 . S
C1125 C96 1.780 . S
C1140 C18 1.780 . S
C1175 C31 1.780 . S
C1190 C107 1.780 . S
C1225 C44 1.780 . S
C1240 C120 1.780 . S
C1275 C55 1.780 . S
C1290 C133 1.780 . S
C1325 C146 1.780 . S
C1340 C70 1.780 . S
