# Generated by pormake.
# Topology wip, (6)-cn, num edge types: 1
# Building blocks:
#     Node 0, Type 0, BuildingBlock: CIFDUS_clean_sbu_1, # of connection points: 6
#     Node 1, Type 0, BuildingBlock: CIFDUS_clean_sbu_1, # of connection points: 6
#     Node 2, Type 0, BuildingBlock: CIFDUS_clean_sbu_1, # of connection points: 6
#     Node 3, Type 0, BuildingBlock: CIFDUS_clean_sbu_1, # of connection points: 6
#     Node 4, Type 0, BuildingBlock: CIFDUS_clean_sbu_1, # of connection points: 6
#     Node 5, Type 0, BuildingBlock: CIFDUS_clean_sbu_1, # of connection points: 6
#     Node 6, Type 0, BuildingBlock: CIFDUS_clean_sbu_1, # of connection points: 6
#     Node 7, Type 0, BuildingBlock: CIFDUS_clean_sbu_1, # of connection points: 6
#     Node 8, Type 0, BuildingBlock: CIFDUS_clean_sbu_1, # of connection points: 6
#     Node 9, Type 0, BuildingBlock: CIFDUS_clean_sbu_1, # of connection points: 6
#     Node 10, Type 0, BuildingBlock: CIFDUS_clean_sbu_1, # of connection points: 6
#     Node 11, Type 0, BuildingBlock: CIFDUS_clean_sbu_1, # of connection points: 6
#     Node 12, Type 0, BuildingBlock: CIFDUS_clean_sbu_1, # of connection points: 6
#     Node 13, Type 0, BuildingBlock: CIFDUS_clean_sbu_1, # of connection points: 6
#     Node 14, Type 0, BuildingBlock: CIFDUS_clean_sbu_1, # of connection points: 6
#     Node 15, Type 0, BuildingBlock: CIFDUS_clean_sbu_1, # of connection points: 6
#     Node 16, Type 0, BuildingBlock: CIFDUS_clean_sbu_1, # of connection points: 6
#     Node 17, Type 0, BuildingBlock: CIFDUS_clean_sbu_1, # of connection points: 6
#     Node 18, Type 0, BuildingBlock: CIFDUS_clean_sbu_1, # of connection points: 6
#     Node 19, Type 0, BuildingBlock: CIFDUS_clean_sbu_1, # of connection points: 6
#     Node 20, Type 0, BuildingBlock: CIFDUS_clean_sbu_1, # of connection points: 6
#     Node 21, Type 0, BuildingBlock: CIFDUS_clean_sbu_1, # of connection points: 6
#     Node 22, Type 0, BuildingBlock: CIFDUS_clean_sbu_1, # of connection points: 6
#     Node 23, Type 0, BuildingBlock: CIFDUS_clean_sbu_1, # of connection points: 6
#     Node 24, Type 0, BuildingBlock: CIFDUS_clean_sbu_1, # of connection points: 6
#     Node 25, Type 0, BuildingBlock: CIFDUS_clean_sbu_1, # of connection points: 6
#     Node 26, Type 0, BuildingBlock: CIFDUS_clean_sbu_1, # of connection points: 6
#     Node 27, Type 0, BuildingBlock: CIFDUS_clean_sbu_1, # of connection points: 6
#     Node 28, Type 0, BuildingBlock: CIFDUS_clean_sbu_1, # of connection points: 6
#     Node 29, Type 0, BuildingBlock: CIFDUS_clean_sbu_1, # of connection points: 6
#     Node 30, Type 0, BuildingBlock: CIFDUS_clean_sbu_1, # of connection points: 6
#     Node 31, Type 0, BuildingBlock: CIFDUS_clean_sbu_1, # of connection points: 6
#     Edge 32, Type (0, 0), BuildingBlock: XIVTED_clean_linker_0, # of connection points: 2
#     Edge 33, Type (0, 0), BuildingBlock: XIVTED_clean_linker_0, # of connection points: 2
#     Edge 34, Type (0, 0), BuildingBlock: XIVTED_clean_linker_0, # of connection points: 2
#     Edge 35, Type (0, 0), BuildingBlock: XIVTED_clean_linker_0, # of connection points: 2
#     Edge 36, Type (0, 0), BuildingBlock: XIVTED_clean_linker_0, # of connection points: 2
#     Edge 37, Type (0, 0), BuildingBlock: XIVTED_clean_linker_0, # of connection points: 2
#     Edge 38, Type (0, 0), BuildingBlock: XIVTED_clean_linker_0, # of connection points: 2
#     Edge 39, Type (0, 0), BuildingBlock: XIVTED_clean_linker_0, # of connection points: 2
#     Edge 40, Type (0, 0), BuildingBlock: XIVTED_clean_linker_0, # of connection points: 2
#     Edge 41, Type (0, 0), BuildingBlock: XIVTED_clean_linker_0, # of connection points: 2
#     Edge 42, Type (0, 0), BuildingBlock: XIVTED_clean_linker_0, # of connection points: 2
#     Edge 43, Type (0, 0), BuildingBlock: XIVTED_clean_linker_0, # of connection points: 2
#     Edge 44, Type (0, 0), BuildingBlock: XIVTED_clean_linker_0, # of connection points: 2
#     Edge 45, Type (0, 0), BuildingBlock: XIVTED_clean_linker_0, # of connection points: 2
#     Edge 46, Type (0, 0), BuildingBlock: XIVTED_clean_linker_0, # of connection points: 2
#     Edge 47, Type (0, 0), BuildingBlock: XIVTED_clean_linker_0, # of connection points: 2
#     Edge 48, Type (0, 0), BuildingBlock: XIVTED_clean_linker_0, # of connection points: 2
#     Edge 49, Type (0, 0), BuildingBlock: XIVTED_clean_linker_0, # of connection points: 2
#     Edge 50, Type (0, 0), BuildingBlock: XIVTED_clean_linker_0, # of connection points: 2
#     Edge 51, Type (0, 0), BuildingBlock: XIVTED_clean_linker_0, # of connection points: 2
#     Edge 52, Type (0, 0), BuildingBlock: XIVTED_clean_linker_0, # of connection points: 2
#     Edge 53, Type (0, 0), BuildingBlock: XIVTED_clean_linker_0, # of connection points: 2
#     Edge 54, Type (0, 0), BuildingBlock: XIVTED_clean_linker_0, # of connection points: 2
#     Edge 55, Type (0, 0), BuildingBlock: XIVTED_clean_linker_0, # of connection points: 2
#     Edge 56, Type (0, 0), BuildingBlock: XIVTED_clean_linker_0, # of connection points: 2
#     Edge 57, Type (0, 0), BuildingBlock: XIVTED_clean_linker_0, # of connection points: 2
#     Edge 58, Type (0, 0), BuildingBlock: XIVTED_clean_linker_0, # of connection points: 2
#     Edge 59, Type (0, 0), BuildingBlock: XIVTED_clean_linker_0, # of connection points: 2
#     Edge 60, Type (0, 0), BuildingBlock: XIVTED_clean_linker_0, # of connection points: 2
#     Edge 61, Type (0, 0), BuildingBlock: XIVTED_clean_linker_0, # of connection points: 2
#     Edge 62, Type (0, 0), BuildingBlock: XIVTED_clean_linker_0, # of connection points: 2
#     Edge 63, Type (0, 0), BuildingBlock: XIVTED_clean_linker_0, # of connection points: 2
#     Edge 64, Type (0, 0), BuildingBlock: XIVTED_clean_linker_0, # of connection points: 2
#     Edge 65, Type (0, 0), BuildingBlock: XIVTED_clean_linker_0, # of connection points: 2
#     Edge 66, Type (0, 0), BuildingBlock: XIVTED_clean_linker_0, # of connection points: 2
#     Edge 67, Type (0, 0), BuildingBlock: XIVTED_clean_linker_0, # of connection points: 2
#     Edge 68, Type (0, 0), BuildingBlock: XIVTED_clean_linker_0, # of connection points: 2
#     Edge 69, Type (0, 0), BuildingBlock: XIVTED_clean_linker_0, # of connection points: 2
#     Edge 70, Type (0, 0), BuildingBlock: XIVTED_clean_linker_0, # of connection points: 2
#     Edge 71, Type (0, 0), BuildingBlock: XIVTED_clean_linker_0, # of connection points: 2
#     Edge 72, Type (0, 0), BuildingBlock: XIVTED_clean_linker_0, # of connection points: 2
#     Edge 73, Type (0, 0), BuildingBlock: XIVTED_clean_linker_0, # of connection points: 2
#     Edge 74, Type (0, 0), BuildingBlock: XIVTED_clean_linker_0, # of connection points: 2
#     Edge 75, Type (0, 0), BuildingBlock: XIVTED_clean_linker_0, # of connection points: 2
#     Edge 76, Type (0, 0), BuildingBlock: XIVTED_clean_linker_0, # of connection points: 2
#     Edge 77, Type (0, 0), BuildingBlock: XIVTED_clean_linker_0, # of connection points: 2
#     Edge 78, Type (0, 0), BuildingBlock: XIVTED_clean_linker_0, # of connection points: 2
#     Edge 79, Type (0, 0), BuildingBlock: XIVTED_clean_linker_0, # of connection points: 2
#     Edge 80, Type (0, 0), BuildingBlock: XIVTED_clean_linker_0, # of connection points: 2
#     Edge 81, Type (0, 0), BuildingBlock: XIVTED_clean_linker_0, # of connection points: 2
#     Edge 82, Type (0, 0), BuildingBlock: XIVTED_clean_linker_0, # of connection points: 2
#     Edge 83, Type (0, 0), BuildingBlock: XIVTED_clean_linker_0, # of connection points: 2
#     Edge 84, Type (0, 0), BuildingBlock: XIVTED_clean_linker_0, # of connection points: 2
#     Edge 85, Type (0, 0), BuildingBlock: XIVTED_clean_linker_0, # of connection points: 2
#     Edge 86, Type (0, 0), BuildingBlock: XIVTED_clean_linker_0, # of connection points: 2
#     Edge 87, Type (0, 0), BuildingBlock: XIVTED_clean_linker_0, # of connection points: 2
#     Edge 88, Type (0, 0), BuildingBlock: XIVTED_clean_linker_0, # of connection points: 2
#     Edge 89, Type (0, 0), BuildingBlock: XIVTED_clean_linker_0, # of connection points: 2
#     Edge 90, Type (0, 0), BuildingBlock: XIVTED_clean_linker_0, # of connection points: 2
#     Edge 91, Type (0, 0), BuildingBlock: XIVTED_clean_linker_0, # of connection points: 2
#     Edge 92, Type (0, 0), BuildingBlock: XIVTED_clean_linker_0, # of connection points: 2
#     Edge 93, Type (0, 0), BuildingBlock: XIVTED_clean_linker_0, # of connection points: 2
#     Edge 94, Type (0, 0), BuildingBlock: XIVTED_clean_linker_0, # of connection points: 2
#     Edge 95, Type (0, 0), BuildingBlock: XIVTED_clean_linker_0, # of connection points: 2
#     Edge 96, Type (0, 0), BuildingBlock: XIVTED_clean_linker_0, # of connection points: 2
#     Edge 97, Type (0, 0), BuildingBlock: XIVTED_clean_linker_0, # of connection points: 2
#     Edge 98, Type (0, 0), BuildingBlock: XIVTED_clean_linker_0, # of connection points: 2
#     Edge 99, Type (0, 0), BuildingBlock: XIVTED_clean_linker_0, # of connection points: 2
#     Edge 100, Type (0, 0), BuildingBlock: XIVTED_clean_linker_0, # of connection points: 2
#     Edge 101, Type (0, 0), BuildingBlock: XIVTED_clean_linker_0, # of connection points: 2
#     Edge 102, Type (0, 0), BuildingBlock: XIVTED_clean_linker_0, # of connection points: 2
#     Edge 103, Type (0, 0), BuildingBlock: XIVTED_clean_linker_0, # of connection points: 2
#     Edge 104, Type (0, 0), BuildingBlock: XIVTED_clean_linker_0, # of connection points: 2
#     Edge 105, Type (0, 0), BuildingBlock: XIVTED_clean_linker_0, # of connection points: 2
#     Edge 106, Type (0, 0), BuildingBlock: XIVTED_clean_linker_0, # of connection points: 2
#     Edge 107, Type (0, 0), BuildingBlock: XIVTED_clean_linker_0, # of connection points: 2
#     Edge 108, Type (0, 0), BuildingBlock: XIVTED_clean_linker_0, # of connection points: 2
#     Edge 109, Type (0, 0), BuildingBlock: XIVTED_clean_linker_0, # of connection points: 2
#     Edge 110, Type (0, 0), BuildingBlock: XIVTED_clean_linker_0, # of connection points: 2
#     Edge 111, Type (0, 0), BuildingBlock: XIVTED_clean_linker_0, # of connection points: 2
#     Edge 112, Type (0, 0), BuildingBlock: XIVTED_clean_linker_0, # of connection points: 2
#     Edge 113, Type (0, 0), BuildingBlock: XIVTED_clean_linker_0, # of connection points: 2
#     Edge 114, Type (0, 0), BuildingBlock: XIVTED_clean_linker_0, # of connection points: 2
#     Edge 115, Type (0, 0), BuildingBlock: XIVTED_clean_linker_0, # of connection points: 2
#     Edge 116, Type (0, 0), BuildingBlock: XIVTED_clean_linker_0, # of connection points: 2
#     Edge 117, Type (0, 0), BuildingBlock: XIVTED_clean_linker_0, # of connection points: 2
#     Edge 118, Type (0, 0), BuildingBlock: XIVTED_clean_linker_0, # of connection points: 2
#     Edge 119, Type (0, 0), BuildingBlock: XIVTED_clean_linker_0, # of connection points: 2
#     Edge 120, Type (0, 0), BuildingBlock: XIVTED_clean_linker_0, # of connection points: 2
#     Edge 121, Type (0, 0), BuildingBlock: XIVTED_clean_linker_0, # of connection points: 2
#     Edge 122, Type (0, 0), BuildingBlock: XIVTED_clean_linker_0, # of connection points: 2
#     Edge 123, Type (0, 0), BuildingBlock: XIVTED_clean_linker_0, # of connection points: 2
#     Edge 124, Type (0, 0), BuildingBlock: XIVTED_clean_linker_0, # of connection points: 2
#     Edge 125, Type (0, 0), BuildingBlock: XIVTED_clean_linker_0, # of connection points: 2
#     Edge 126, Type (0, 0), BuildingBlock: XIVTED_clean_linker_0, # of connection points: 2
#     Edge 127, Type (0, 0), BuildingBlock: XIVTED_clean_linker_0, # of connection points: 2
# Relax obj value: 0.536
# Max RMSD: 0.243
# Mean RMSD: 0.242
data_MOF--net-wip--node1-CIFDUS_clean_sbu_1--edge1-XIVTED_clean_linker_0
_symmetry_space_group_name_H-M    P1
_symmetry_Int_Tables_number       1
_symmetry_cell_setting            triclinic
loop_
_symmetry_equiv_pos_as_xyz
'x, y, z'
_cell_length_a     72.001902
_cell_length_b     71.945543
_cell_length_c     24.587107
_cell_angle_alpha  90.013006
_cell_angle_beta   89.987788
_cell_angle_gamma 89.960816
loop_
_atom_site_label
_atom_site_type_symbol
_atom_site_fract_x
_atom_site_fract_y
_atom_site_fract_z
_atom_type_partial_charge
O0 O 0.04283 0.42962 0.14333 0.0
Mn1 Mn 0.05485 0.44251 0.07658 0.0
O2 O 0.03762 0.45489 0.19686 0.0
Mn3 Mn 0.03911 0.47454 0.14663 0.0
O4 O 0.06685 0.45757 0.01301 0.0
O5 O 0.07333 0.42126 0.0659 0.0
Mn6 Mn 0.07343 0.41734 0.99465 0.0
O7 O 0.03531 0.42999 0.02235 0.0
O8 O 0.08282 0.43787 0.96053 0.0
O9 O 0.07383 0.45578 0.13264 0.0
O10 O 0.06243 0.48445 0.1388 0.0
O11 O 0.08972 0.40047 0.01864 0.0
O12 O 0.05062 0.40922 0.97162 0.0
C13 C 0.02014 0.4694 0.08078 0.0
C14 C 0.03824 0.43722 0.18896 0.0
C15 C 0.07785 0.45421 0.97317 0.0
C16 C 0.08545 0.40779 0.06523 0.0
C17 C 0.03564 0.41715 0.98557 0.0
C18 C 0.07538 0.47296 0.14841 0.0
O19 O 0.03666 0.46294 0.08502 0.0
O20 O 0.01694 0.48248 0.11556 0.0
O21 O 0.82528 0.79123 0.39197 0.0
Mn22 Mn 0.8075 0.80182 0.32983 0.0
O23 O 0.81399 0.76275 0.41003 0.0
Mn24 Mn 0.78973 0.76974 0.39811 0.0
O25 O 0.7889 0.81228 0.27107 0.0
O26 O 0.82317 0.82475 0.32054 0.0
Mn27 Mn 0.82201 0.83052 0.25013 0.0
O28 O 0.82241 0.78797 0.26929 0.0
O29 O 0.7986 0.84032 0.24452 0.0
O30 O 0.79184 0.81438 0.39202 0.0
O31 O 0.78107 0.78971 0.44035 0.0
O32 O 0.84429 0.83935 0.27306 0.0
O33 O 0.82536 0.80986 0.20562 0.0
C34 C 0.77681 0.77156 0.31892 0.0
C35 C 0.82629 0.77527 0.41625 0.0
C36 C 0.78601 0.82798 0.24721 0.0
C37 C 0.84032 0.82991 0.31644 0.0
C38 C 0.82658 0.79301 0.22082 0.0
C39 C 0.78255 0.80727 0.43196 0.0
O40 O 0.79174 0.77961 0.33396 0.0
O41 O 0.77209 0.75867 0.35287 0.0
O42 O 0.44658 0.56586 0.65538 0.0
Mn43 Mn 0.43433 0.55249 0.5874 0.0
O44 O 0.46163 0.54294 0.70112 0.0
Mn45 Mn 0.45221 0.52268 0.66392 0.0
O46 O 0.42328 0.53843 0.52081 0.0
O47 O 0.41772 0.57419 0.573 0.0
Mn48 Mn 0.41662 0.57928 0.50279 0.0
O49 O 0.45429 0.56451 0.53432 0.0
O50 O 0.40718 0.55843 0.46876 0.0
O51 O 0.41414 0.54032 0.64184 0.0
O52 O 0.42858 0.51603 0.68228 0.0
O53 O 0.40144 0.59638 0.53523 0.0
O54 O 0.44033 0.58586 0.48135 0.0
C55 C 0.46126 0.51744 0.582 0.0
C56 C 0.45707 0.55996 0.69456 0.0
C57 C 0.41306 0.54217 0.47948 0.0
C58 C 0.40656 0.58795 0.57929 0.0
C59 C 0.45476 0.57717 0.49692 0.0
C60 C 0.4142 0.52581 0.67358 0.0
O61 O 0.4505 0.5306 0.59731 0.0
O62 O 0.46649 0.50692 0.62199 0.0
O63 O 0.6711 0.20719 0.7739 0.0
Mn64 Mn 0.68457 0.18906 0.82912 0.0
O65 O 0.64813 0.19213 0.73274 0.0
Mn66 Mn 0.65907 0.16977 0.74953 0.0
O67 O 0.69952 0.1729 0.88654 0.0
O68 O 0.70314 0.20882 0.83558 0.0
Mn69 Mn 0.70803 0.21635 0.90107 0.0
O70 O 0.66902 0.20044 0.89467 0.0
O71 O 0.71591 0.19444 0.93445 0.0
O72 O 0.70029 0.17784 0.76507 0.0
O73 O 0.67973 0.16409 0.70932 0.0
O74 O 0.72438 0.22833 0.85375 0.0
O75 O 0.68539 0.22521 0.92427 0.0
C76 C 0.65339 0.15508 0.81988 0.0
C77 C 0.65702 0.207 0.74175 0.0
C78 C 0.71126 0.17761 0.92418 0.0
C79 C 0.71707 0.21772 0.81712 0.0
C80 C 0.67084 0.21516 0.92441 0.0
C81 C 0.69621 0.16882 0.72147 0.0
O82 O 0.66531 0.16866 0.8192 0.0
O83 O 0.64508 0.15098 0.77462 0.0
O84 O 0.04502 0.56146 0.50565 0.0
Mn85 Mn 0.05784 0.55189 0.5759 0.0
O86 O 0.04124 0.5342 0.45998 0.0
Mn87 Mn 0.04471 0.51637 0.51504 0.0
O88 O 0.07098 0.54068 0.64376 0.0
O89 O 0.07406 0.57476 0.58195 0.0
Mn90 Mn 0.07224 0.58263 0.65 0.0
O91 O 0.03714 0.56378 0.62706 0.0
O92 O 0.08159 0.56436 0.6945 0.0
O93 O 0.07781 0.53896 0.52269 0.0
O94 O 0.06906 0.50933 0.52419 0.0
O95 O 0.08806 0.59899 0.61982 0.0
O96 O 0.0483 0.58979 0.66409 0.0
C97 C 0.0258 0.52248 0.58103 0.0
C98 C 0.04079 0.55207 0.4626 0.0
C99 C 0.0795 0.54709 0.68562 0.0
C100 C 0.0853 0.58873 0.57717 0.0
C101 C 0.03507 0.57852 0.65631 0.0
C102 C 0.08056 0.5217 0.50941 0.0
O103 O 0.04181 0.5297 0.57345 0.0
O104 O 0.02334 0.50806 0.55055 0.0
O105 O 0.67972 0.78787 0.87558 0.0
Mn106 Mn 0.69072 0.80879 0.82473 0.0
O107 O 0.65859 0.80103 0.92984 0.0
Mn108 Mn 0.66476 0.82461 0.90744 0.0
O109 O 0.70269 0.82917 0.77197 0.0
O110 O 0.7124 0.7922 0.81635 0.0
Mn111 Mn 0.72502 0.79655 0.75746 0.0
O112 O 0.67973 0.79671 0.755 0.0
O113 O 0.73215 0.82056 0.77265 0.0
O114 O 0.70455 0.82033 0.89118 0.0
O115 O 0.68431 0.83544 0.94337 0.0
O116 O 0.73399 0.77456 0.78809 0.0
O117 O 0.70617 0.79404 0.70453 0.0
C118 C 0.6533 0.83647 0.83954 0.0
C119 C 0.66749 0.78687 0.91363 0.0
C120 C 0.71984 0.83222 0.75896 0.0
C121 C 0.71999 0.77621 0.82058 0.0
C122 C 0.6884 0.79302 0.71013 0.0
C123 C 0.70078 0.83064 0.93215 0.0
O124 O 0.66786 0.82561 0.83545 0.0
O125 O 0.64633 0.83954 0.88741 0.0
O126 O 0.44514 0.42013 1.00508 0.0
Mn127 Mn 0.43561 0.43672 0.06967 0.0
O128 O 0.44747 0.44245 0.94045 0.0
Mn129 Mn 0.45057 0.46366 0.98349 0.0
O130 O 0.4273 0.45564 0.13052 0.0
O131 O 0.4166 0.41705 0.09216 0.0
Mn132 Mn 0.41439 0.41975 0.16319 0.0
O133 O 0.45499 0.42476 0.12494 0.0
O134 O 0.4046 0.44261 0.17825 0.0
O135 O 0.41572 0.44969 0.01508 0.0
O136 O 0.42929 0.47677 0.9965 0.0
O137 O 0.39864 0.40107 0.14873 0.0
O138 O 0.43715 0.41416 0.19357 0.0
C139 C 0.47193 0.4589 0.04169 0.0
C140 C 0.44782 0.4254 0.95537 0.0
C141 C 0.41399 0.45672 0.16509 0.0
C142 C 0.40466 0.40366 0.09958 0.0
C143 C 0.45302 0.4169 0.172 0.0
C144 C 0.41489 0.46667 0.99679 0.0
O145 O 0.45474 0.45499 0.04851 0.0
O146 O 0.47499 0.46933 0.99979 0.0
O147 O 0.81363 0.1999 0.25925 0.0
Mn148 Mn 0.80154 0.18712 0.32652 0.0
O149 O 0.788 0.20674 0.20884 0.0
Mn150 Mn 0.76874 0.20341 0.25974 0.0
O151 O 0.78775 0.17475 0.39167 0.0
O152 O 0.82292 0.16903 0.33514 0.0
Mn153 Mn 0.82865 0.1685 0.40527 0.0
O154 O 0.81406 0.20633 0.38096 0.0
O155 O 0.80849 0.1595 0.44296 0.0
O156 O 0.78823 0.16834 0.27075 0.0
O157 O 0.75947 0.17967 0.26411 0.0
O158 O 0.84477 0.15224 0.37482 0.0
O159 O 0.83645 0.19164 0.4273 0.0
C160 C 0.77365 0.22088 0.32976 0.0
C161 C 0.80569 0.20578 0.21539 0.0
C162 C 0.79194 0.16449 0.43259 0.0
C163 C 0.83603 0.15675 0.33063 0.0
C164 C 0.82724 0.20623 0.41658 0.0
C165 C 0.77111 0.1668 0.2549 0.0
O166 O 0.78061 0.20479 0.32115 0.0
O167 O 0.76031 0.22451 0.29626 0.0
O168 O 0.92279 0.54386 0.13622 0.0
Mn169 Mn 0.93633 0.55768 0.07399 0.0
O170 O 0.92171 0.56575 0.20031 0.0
Mn171 Mn 0.92492 0.58616 0.15513 0.0
O172 O 0.95016 0.57146 0.00963 0.0
O173 O 0.95211 0.53544 0.06692 0.0
Mn174 Mn 0.96145 0.53268 1.00236 0.0
O175 O 0.91854 0.54598 0.01526 0.0
O176 O 0.97521 0.55405 0.9935 0.0
O177 O 0.95669 0.56772 0.12887 0.0
O178 O 0.94851 0.59554 0.16 0.0
O179 O 0.96818 0.5119 0.04294 0.0
O180 O 0.93968 0.53117 0.96112 0.0
C181 C 0.90406 0.58762 0.09699 0.0
C182 C 0.91985 0.54897 0.18526 0.0
C183 C 0.96618 0.56907 0.9873 0.0
C184 C 0.95749 0.51909 0.07962 0.0
C185 C 0.92304 0.53625 0.97272 0.0
C186 C 0.96064 0.58288 0.15429 0.0
O187 O 0.9205 0.58103 0.08506 0.0
O188 O 0.9029 0.59702 0.142 0.0
O189 O 0.19949 0.16501 0.7639 0.0
Mn190 Mn 0.18699 0.18403 0.81931 0.0
O191 O 0.20323 0.18412 0.69249 0.0
Mn192 Mn 0.20672 0.20626 0.73046 0.0
O193 O 0.17564 0.20443 0.87376 0.0
O194 O 0.16748 0.16575 0.84076 0.0
Mn195 Mn 0.16165 0.16771 0.90974 0.0
O196 O 0.20352 0.1739 0.88344 0.0
O197 O 0.15184 0.19114 0.91775 0.0
O198 O 0.17021 0.19527 0.75466 0.0
O199 O 0.18588 0.22082 0.7313 0.0
O200 O 0.14828 0.14779 0.88423 0.0
O201 O 0.18351 0.16369 0.94742 0.0
C202 C 0.22448 0.20014 0.79666 0.0
C203 C 0.204 0.16799 0.71363 0.0
C204 C 0.16147 0.20541 0.9062 0.0
C205 C 0.15689 0.1514 0.83921 0.0
C206 C 0.19996 0.16714 0.93093 0.0
C207 C 0.17107 0.21125 0.7301 0.0
O208 O 0.20686 0.20138 0.80081 0.0
O209 O 0.23108 0.20757 0.75284 0.0
O210 O 0.58131 0.44852 0.51916 0.0
Mn211 Mn 0.56054 0.43923 0.57451 0.0
O212 O 0.56289 0.45456 0.44779 0.0
Mn213 Mn 0.54197 0.46232 0.48536 0.0
O214 O 0.53835 0.43183 0.62825 0.0
O215 O 0.57533 0.41623 0.59445 0.0
Mn216 Mn 0.5717 0.41246 0.66471 0.0
O217 O 0.57311 0.4541 0.63862 0.0
O218 O 0.54713 0.40693 0.67604 0.0
O219 O 0.54672 0.42445 0.51048 0.0
O220 O 0.52422 0.4441 0.48534 0.0
O221 O 0.58715 0.3938 0.64518 0.0
O222 O 0.58047 0.4329 0.70223 0.0
C223 C 0.55045 0.4791 0.55351 0.0
C224 C 0.57894 0.45316 0.46873 0.0
C225 C 0.53478 0.41841 0.66152 0.0
C226 C 0.5857 0.40151 0.59771 0.0
C227 C 0.57945 0.44969 0.68597 0.0
C228 C 0.5311 0.4278 0.48597 0.0
O229 O 0.54662 0.46178 0.55595 0.0
O230 O 0.5449 0.48661 0.50854 0.0
O231 O 0.29195 0.82389 0.26564 0.0
Mn232 Mn 0.30602 0.80714 0.32243 0.0
O233 O 0.28086 0.80212 0.20659 0.0
Mn234 Mn 0.28563 0.77993 0.24404 0.0
O235 O 0.31862 0.78807 0.37581 0.0
O236 O 0.32585 0.82748 0.33728 0.0
Mn237 Mn 0.3274 0.82578 0.40986 0.0
O238 O 0.28887 0.81681 0.38523 0.0
O239 O 0.33675 0.80345 0.43333 0.0
O240 O 0.32251 0.79682 0.25688 0.0
O241 O 0.30888 0.76989 0.23512 0.0
O242 O 0.34378 0.84337 0.39615 0.0
O243 O 0.30597 0.8335 0.44293 0.0
C244 C 0.2714 0.77999 0.32095 0.0
C245 C 0.28326 0.81904 0.2217 0.0
C246 C 0.3302 0.78834 0.41544 0.0
C247 C 0.33842 0.84039 0.34648 0.0
C248 C 0.29051 0.82708 0.42766 0.0
C249 C 0.32242 0.7811 0.23133 0.0
O250 O 0.28696 0.78779 0.31058 0.0
O251 O 0.26597 0.76927 0.28191 0.0
O252 O 0.92498 0.45403 0.51084 0.0
Mn253 Mn 0.9362 0.43791 0.57424 0.0
O254 O 0.90939 0.43467 0.45613 0.0
Mn255 Mn 0.91688 0.4138 0.49269 0.0
O256 O 0.94753 0.42231 0.63981 0.0
O257 O 0.9558 0.45678 0.58084 0.0
Mn258 Mn 0.96424 0.46015 0.64612 0.0
O259 O 0.92023 0.45266 0.63163 0.0
O260 O 0.9738 0.43713 0.66297 0.0
O261 O 0.95444 0.42479 0.51973 0.0
O262 O 0.9392 0.40409 0.4698 0.0
O263 O 0.97539 0.47777 0.60105 0.0
O264 O 0.94249 0.46686 0.6829 0.0
C265 C 0.9033 0.40518 0.56203 0.0
C266 C 0.91492 0.45084 0.46865 0.0
C267 C 0.963 0.42321 0.66636 0.0
C268 C 0.96428 0.47127 0.56436 0.0
C269 C 0.92548 0.46323 0.6715 0.0
C270 C 0.95418 0.41204 0.48331 0.0
O271 O 0.91623 0.41791 0.56431 0.0
O272 O 0.89932 0.39805 0.51495 0.0
O273 O 0.29645 0.16286 0.38885 0.0
Mn274 Mn 0.30806 0.18269 0.33306 0.0
O275 O 0.2836 0.18128 0.45317 0.0
Mn276 Mn 0.28202 0.20319 0.41509 0.0
O277 O 0.31878 0.20347 0.27769 0.0
O278 O 0.32987 0.1665 0.31547 0.0
Mn279 Mn 0.33605 0.16845 0.24639 0.0
O280 O 0.29342 0.17077 0.26869 0.0
O281 O 0.34512 0.19224 0.24166 0.0
O282 O 0.32238 0.19604 0.39865 0.0
O283 O 0.30224 0.21821 0.42671 0.0
O284 O 0.34725 0.14708 0.27116 0.0
O285 O 0.31486 0.16491 0.2045 0.0
C286 C 0.26938 0.19898 0.33555 0.0
C287 C 0.2881 0.16536 0.43523 0.0
C288 C 0.33365 0.20554 0.2482 0.0
C289 C 0.33762 0.15037 0.31462 0.0
C290 C 0.29801 0.16599 0.22016 0.0
C291 C 0.31845 0.21101 0.42598 0.0
O292 O 0.28662 0.19852 0.34656 0.0
O293 O 0.25989 0.20528 0.37629 0.0
O294 O 0.57432 0.54435 0.14362 0.0
Mn295 Mn 0.55726 0.55896 0.08729 0.0
O296 O 0.55338 0.52879 0.19608 0.0
Mn297 Mn 0.53103 0.53549 0.16296 0.0
O298 O 0.53771 0.57129 0.03349 0.0
O299 O 0.57802 0.57839 0.07409 0.0
Mn300 Mn 0.57247 0.58452 1.00535 0.0
O301 O 0.56772 0.54303 0.02229 0.0
O302 O 0.55004 0.59612 0.99597 0.0
O303 O 0.54612 0.57472 0.15392 0.0
O304 O 0.5215 0.55806 0.18357 0.0
O305 O 0.59177 0.5991 0.01909 0.0
O306 O 0.57629 0.56429 0.96057 0.0
C307 C 0.52965 0.52576 0.07975 0.0
C308 C 0.57007 0.53321 0.18338 0.0
C309 C 0.53613 0.58586 1.00375 0.0
C310 C 0.59122 0.59072 0.06582 0.0
C311 C 0.57375 0.54748 0.97472 0.0
C312 C 0.53128 0.5728 0.18351 0.0
O313 O 0.53793 0.54021 0.09694 0.0
O314 O 0.51957 0.51823 0.11723 0.0
O315 O 0.19701 0.82662 0.8863 0.0
Mn316 Mn 0.18469 0.80979 0.82637 0.0
O317 O 0.21082 0.80458 0.93942 0.0
Mn318 Mn 0.20886 0.78323 0.89633 0.0
O319 O 0.17355 0.79052 0.76956 0.0
O320 O 0.1623 0.82676 0.81619 0.0
Mn321 Mn 0.1569 0.82386 0.74571 0.0
O322 O 0.19928 0.82324 0.76583 0.0
O323 O 0.14623 0.80086 0.73958 0.0
O324 O 0.17032 0.79586 0.88944 0.0
O325 O 0.18703 0.77015 0.90369 0.0
O326 O 0.14806 0.84663 0.76238 0.0
O327 O 0.17765 0.82561 0.7013 0.0
C328 C 0.2223 0.78736 0.81869 0.0
C329 C 0.2063 0.82148 0.92895 0.0
C330 C 0.15811 0.78787 0.744 0.0
C331 C 0.15713 0.84385 0.8073 0.0
C332 C 0.19444 0.82633 0.71678 0.0
C333 C 0.17226 0.77955 0.91036 0.0
O334 O 0.20618 0.79306 0.83237 0.0
O335 O 0.22943 0.7764 0.85475 0.0
O336 O 0.54323 0.91596 0.64141 0.0
Mn337 Mn 0.5532 0.93411 0.57997 0.0
O338 O 0.51446 0.9263 0.65881 0.0
Mn339 Mn 0.52129 0.95085 0.65102 0.0
O340 O 0.56316 0.95292 0.52155 0.0
O341 O 0.57614 0.91851 0.56896 0.0
Mn342 Mn 0.58146 0.91904 0.49842 0.0
O343 O 0.53899 0.91936 0.51988 0.0
O344 O 0.5906 0.94267 0.49095 0.0
O345 O 0.56594 0.94954 0.64185 0.0
O346 O 0.54145 0.9586 0.69398 0.0
O347 O 0.59162 0.89754 0.52358 0.0
O348 O 0.56055 0.91434 0.45614 0.0
C349 C 0.52269 0.96493 0.57326 0.0
C350 C 0.52727 0.9143 0.665 0.0
C351 C 0.57854 0.95548 0.4958 0.0
C352 C 0.58232 0.90165 0.5671 0.0
C353 C 0.54378 0.91384 0.47234 0.0
C354 C 0.55893 0.95777 0.68385 0.0
O355 O 0.53104 0.94994 0.58643 0.0
O356 O 0.51014 0.96931 0.60858 0.0
O357 O 0.32044 0.29867 0.89999 0.0
Mn358 Mn 0.30445 0.3106 0.83509 0.0
O359 O 0.29968 0.2807 0.94626 0.0
Mn360 Mn 0.27789 0.2886 0.91422 0.0
O361 O 0.28644 0.32026 0.77374 0.0
O362 O 0.32455 0.32968 0.8184 0.0
Mn363 Mn 0.32127 0.33474 0.74859 0.0
O364 O 0.31681 0.29297 0.77588 0.0
O365 O 0.29848 0.34525 0.73562 0.0
O366 O 0.29163 0.32872 0.89354 0.0
O367 O 0.26973 0.31149 0.93648 0.0
O368 O 0.34048 0.34935 0.76664 0.0
O369 O 0.32586 0.31304 0.71086 0.0
C370 C 0.27339 0.28046 0.8307 0.0
C371 C 0.31607 0.28698 0.93849 0.0
C372 C 0.285 0.33427 0.7419 0.0
C373 C 0.3382 0.34145 0.81363 0.0
C374 C 0.3234 0.29649 0.72797 0.0
C375 C 0.27792 0.32685 0.92754 0.0
O376 O 0.28505 0.29228 0.84792 0.0
O377 O 0.26356 0.2734 0.86969 0.0
O378 O 0.95065 0.06068 0.145 0.0
Mn379 Mn 0.9383 0.05165 0.07303 0.0
O380 O 0.95409 0.03301 0.18873 0.0
Mn381 Mn 0.95108 0.01576 0.13218 0.0
O382 O 0.92597 0.04034 1.00361 0.0
O383 O 0.92208 0.07475 0.06915 0.0
Mn384 Mn 0.9218 0.08129 0.99957 0.0
O385 O 0.95899 0.06444 0.02318 0.0
O386 O 0.91128 0.06284 0.95799 0.0
O387 O 0.91793 0.03812 0.12351 0.0
O388 O 0.92677 0.00842 0.12283 0.0
O389 O 0.90735 0.09857 0.03135 0.0
O390 O 0.94532 0.08801 0.97901 0.0
C391 C 0.97052 0.02234 0.06792 0.0
C392 C 0.9545 0.05088 0.18764 0.0
C393 C 0.91582 0.04593 0.964 0.0
C394 C 0.91155 0.08931 0.07493 0.0
C395 C 0.95958 0.07835 0.98987 0.0
C396 C 0.91487 0.02078 0.13518 0.0
O397 O 0.95444 0.02954 0.07484 0.0
O398 O 0.97278 0.00773 0.09778 0.0
O399 O 0.17815 0.70731 0.27349 0.0
Mn400 Mn 0.19024 0.68821 0.32896 0.0
O401 O 0.16251 0.68962 0.2134 0.0
Mn402 Mn 0.16734 0.66707 0.24587 0.0
O403 O 0.20278 0.66894 0.38513 0.0
O404 O 0.21109 0.70555 0.33756 0.0
Mn405 Mn 0.22247 0.70358 0.39951 0.0
O406 O 0.17742 0.70071 0.39549 0.0
O407 O 0.23164 0.67983 0.39348 0.0
O408 O 0.20544 0.6763 0.26607 0.0
O409 O 0.18847 0.65489 0.22401 0.0
O410 O 0.23085 0.72525 0.36573 0.0
O411 O 0.2027 0.70604 0.44887 0.0
C412 C 0.15375 0.6605 0.31772 0.0
C413 C 0.16793 0.70541 0.23058 0.0
C414 C 0.21982 0.66703 0.40154 0.0
C415 C 0.21792 0.72173 0.33077 0.0
C416 C 0.18505 0.7056 0.44085 0.0
C417 C 0.20389 0.66275 0.2327 0.0
O418 O 0.16834 0.67107 0.31682 0.0
O419 O 0.14802 0.65387 0.27162 0.0
O420 O 0.54008 0.06427 0.01266 0.0
Mn421 Mn 0.55236 0.05211 0.08016 0.0
O422 O 0.53412 0.03843 0.96197 0.0
Mn423 Mn 0.53666 0.01917 0.01335 0.0
O424 O 0.56406 0.03758 0.14484 0.0
O425 O 0.57015 0.07372 0.08939 0.0
Mn426 Mn 0.57313 0.07652 0.16051 0.0
O427 O 0.53349 0.06519 0.1334 0.0
O428 O 0.58423 0.05564 0.18864 0.0
O429 O 0.57127 0.03879 0.02542 0.0
O430 O 0.56031 0.00994 0.02151 0.0
O431 O 0.5874 0.09462 0.1321 0.0
O432 O 0.55047 0.08288 0.18992 0.0
C433 C 0.51835 0.0243 0.08119 0.0
C434 C 0.5348 0.05617 0.96844 0.0
C435 C 0.57682 0.03993 0.18045 0.0
C436 C 0.58137 0.0878 0.08657 0.0
C437 C 0.53492 0.0766 0.17369 0.0
C438 C 0.57308 0.02155 0.01129 0.0
O439 O 0.53442 0.03143 0.07387 0.0
O440 O 0.51517 0.01082 0.04772 0.0
O441 O 0.17426 0.28665 0.3704 0.0
Mn442 Mn 0.18504 0.30737 0.31659 0.0
O443 O 0.15956 0.30272 0.4365 0.0
Mn444 Mn 0.16465 0.32628 0.41136 0.0
O445 O 0.19662 0.32775 0.26417 0.0
O446 O 0.20504 0.29041 0.29451 0.0
Mn447 Mn 0.20555 0.28805 0.22298 0.0
O448 O 0.16808 0.29673 0.25125 0.0
O449 O 0.20184 0.31075 0.18936 0.0
O450 O 0.20276 0.31653 0.37968 0.0
O451 O 0.18698 0.33626 0.43253 0.0
O452 O 0.2296 0.2859 0.24796 0.0
O453 O 0.18513 0.27303 0.21925 0.0
C454 C 0.15032 0.33569 0.34244 0.0
C455 C 0.16466 0.28742 0.41501 0.0
C456 C 0.20137 0.32628 0.21371 0.0
C457 C 0.2228 0.29057 0.29473 0.0
C458 C 0.16975 0.28167 0.22224 0.0
C459 C 0.20201 0.32837 0.41883 0.0
O460 O 0.16454 0.32474 0.34 0.0
O461 O 0.14545 0.34109 0.39068 0.0
O462 O 0.94506 0.92358 0.49745 0.0
Mn463 Mn 0.93315 0.93842 0.56382 0.0
O464 O 0.96656 0.94312 0.46172 0.0
Mn465 Mn 0.95514 0.96472 0.48443 0.0
O466 O 0.92223 0.9546 0.62764 0.0
O467 O 0.91447 0.91771 0.57766 0.0
Mn468 Mn 0.91437 0.91492 0.64915 0.0
O469 O 0.95298 0.92582 0.61825 0.0
O470 O 0.90604 0.93602 0.68264 0.0
O471 O 0.91426 0.95126 0.50766 0.0
O472 O 0.93242 0.96912 0.45335 0.0
O473 O 0.89755 0.89818 0.62766 0.0
O474 O 0.93703 0.90633 0.6715 0.0
C475 C 0.9572 0.97441 0.56777 0.0
C476 C 0.95878 0.92721 0.46487 0.0
C477 C 0.91189 0.95199 0.66952 0.0
C478 C 0.90226 0.90438 0.58005 0.0
C479 C 0.95232 0.91336 0.65633 0.0
C480 C 0.91666 0.96277 0.46746 0.0
O481 O 0.95057 0.95892 0.55173 0.0
O482 O 0.9645 0.98363 0.52788 0.0
O483 O 0.31183 0.7009 0.75319 0.0
Mn484 Mn 0.29961 0.68911 0.82113 0.0
O485 O 0.28624 0.70522 0.70051 0.0
Mn486 Mn 0.26691 0.70375 0.75182 0.0
O487 O 0.28549 0.67733 0.88632 0.0
O488 O 0.32129 0.67194 0.832 0.0
Mn489 Mn 0.32525 0.66905 0.90226 0.0
O490 O 0.31223 0.70869 0.87422 0.0
O491 O 0.30442 0.65779 0.93035 0.0
O492 O 0.28654 0.66945 0.76721 0.0
O493 O 0.25761 0.6802 0.76115 0.0
O494 O 0.34326 0.65519 0.86986 0.0
O495 O 0.3311 0.69226 0.92935 0.0
C496 C 0.27229 0.72309 0.81706 0.0
C497 C 0.30393 0.7049 0.70759 0.0
C498 C 0.28842 0.66458 0.92169 0.0
C499 C 0.33546 0.66122 0.82577 0.0
C500 C 0.32412 0.70761 0.91353 0.0
C501 C 0.26936 0.66739 0.75235 0.0
O502 O 0.27873 0.70659 0.81299 0.0
O503 O 0.25904 0.72608 0.7827 0.0
O504 O 0.41932 0.04135 0.63782 0.0
Mn505 Mn 0.43166 0.0552 0.57419 0.0
O506 O 0.41179 0.06321 0.69944 0.0
Mn507 Mn 0.4188 0.08343 0.65744 0.0
O508 O 0.44433 0.06806 0.50908 0.0
O509 O 0.44861 0.03388 0.56408 0.0
Mn510 Mn 0.44635 0.02304 0.50144 0.0
O511 O 0.41203 0.04356 0.5173 0.0
O512 O 0.44966 0.04324 0.45377 0.0
O513 O 0.4522 0.06517 0.62808 0.0
O514 O 0.44283 0.09131 0.66715 0.0
O515 O 0.46741 0.01328 0.535 0.0
O516 O 0.42245 0.01455 0.50869 0.0
C517 C 0.40191 0.09024 0.59125 0.0
C518 C 0.41281 0.04629 0.68415 0.0
C519 C 0.44948 0.06079 0.4637 0.0
C520 C 0.46431 0.02594 0.57114 0.0
C521 C 0.41001 0.02664 0.49978 0.0
C522 C 0.45535 0.07939 0.65828 0.0
O523 O 0.41432 0.07708 0.58879 0.0
O524 O 0.40134 0.09979 0.63599 0.0
O525 O 0.70128 0.66527 0.27028 0.0
Mn526 Mn 0.68986 0.68381 0.33022 0.0
O527 O 0.73037 0.67563 0.25573 0.0
Mn528 Mn 0.72416 0.70004 0.26797 0.0
O529 O 0.67854 0.703 0.38824 0.0
O530 O 0.66624 0.66872 0.3359 0.0
Mn531 Mn 0.65983 0.66908 0.40616 0.0
O532 O 0.70204 0.66853 0.39112 0.0
O533 O 0.65087 0.69259 0.4169 0.0
O534 O 0.6793 0.69966 0.26615 0.0
O535 O 0.70546 0.7097 0.22322 0.0
O536 O 0.64959 0.64795 0.37948 0.0
O537 O 0.67968 0.66376 0.45216 0.0
C538 C 0.72265 0.71233 0.34792 0.0
C539 C 0.71773 0.6635 0.24911 0.0
C540 C 0.663 0.70539 0.41405 0.0
C541 C 0.65986 0.65185 0.33761 0.0
C542 C 0.69662 0.66318 0.4379 0.0
C543 C 0.68774 0.70863 0.22796 0.0
O544 O 0.7129 0.69876 0.33013 0.0
O545 O 0.73618 0.71628 0.31531 0.0
O546 O 0.07183 0.95163 0.01073 0.0
Mn547 Mn 0.05503 0.93702 0.06661 0.0
O548 O 0.0504 0.96536 0.95574 0.0
Mn549 Mn 0.02832 0.96032 0.99319 0.0
O550 O 0.03573 0.92416 0.12053 0.0
O551 O 0.07566 0.9175 0.07711 0.0
Mn552 Mn 0.07089 0.9101 0.14485 0.0
O553 O 0.06595 0.95204 0.13211 0.0
O554 O 0.04841 0.89852 0.1525 0.0
O555 O 0.04367 0.92202 0.99938 0.0
O556 O 0.01775 0.93772 0.9769 0.0
O557 O 0.09034 0.89603 0.12665 0.0
O558 O 0.07472 0.92993 0.19121 0.0
C559 C 0.02966 0.97212 0.07409 0.0
C560 C 0.06723 0.96157 0.96884 0.0
C561 C 0.03444 0.90895 0.14766 0.0
C562 C 0.08913 0.90532 0.08153 0.0
C563 C 0.07218 0.94692 0.17879 0.0
C564 C 0.02821 0.92353 0.97271 0.0
O565 O 0.03602 0.95638 0.05917 0.0
O566 O 0.01907 0.97934 0.03727 0.0
O567 O 0.79327 0.33293 0.77126 0.0
Mn568 Mn 0.80344 0.31191 0.82501 0.0
O569 O 0.76306 0.32723 0.77438 0.0
Mn570 Mn 0.76709 0.30229 0.76224 0.0
O571 O 0.81286 0.29052 0.87693 0.0
O572 O 0.82802 0.32469 0.83461 0.0
Mn573 Mn 0.83528 0.32179 0.90349 0.0
O574 O 0.79285 0.32574 0.89095 0.0
O575 O 0.84155 0.29693 0.90654 0.0
O576 O 0.81216 0.29808 0.75566 0.0
O577 O 0.78498 0.29697 0.70825 0.0
O578 O 0.84676 0.34291 0.87916 0.0
O579 O 0.81601 0.32743 0.95129 0.0
C580 C 0.77122 0.2829 0.82893 0.0
C581 C 0.7764 0.33727 0.75801 0.0
C582 C 0.82789 0.28579 0.90192 0.0
C583 C 0.83577 0.34082 0.83788 0.0
C584 C 0.79902 0.32941 0.9384 0.0
C585 C 0.80266 0.29455 0.71226 0.0
O586 O 0.77988 0.29812 0.82089 0.0
O587 O 0.7568 0.28173 0.79795 0.0
O588 O 0.42774 0.95404 0.01378 0.0
Mn589 Mn 0.43921 0.93814 0.07574 0.0
O590 O 0.41731 0.93313 0.95307 0.0
Mn591 Mn 0.42124 0.91239 0.99539 0.0
O592 O 0.4511 0.92206 0.13897 0.0
O593 O 0.4586 0.95709 0.08293 0.0
Mn594 Mn 0.46684 0.96074 0.1484 0.0
O595 O 0.42317 0.95249 0.1347 0.0
O596 O 0.4769 0.93775 0.16341 0.0
O597 O 0.45761 0.92521 0.01928 0.0
O598 O 0.44349 0.90055 0.98482 0.0
O599 O 0.47611 0.97966 0.10384 0.0
O600 O 0.44517 0.96656 0.18683 0.0
C601 C 0.40466 0.9075 0.06269 0.0
C602 C 0.4205 0.94978 0.96779 0.0
C603 C 0.46677 0.92322 0.16435 0.0
C604 C 0.46499 0.97279 0.06782 0.0
C605 C 0.4282 0.96283 0.17542 0.0
C606 C 0.45804 0.9101 0.99129 0.0
O607 O 0.41853 0.91914 0.0643 0.0
O608 O 0.4016 0.89895 0.01711 0.0
O609 O 0.79076 0.66775 0.88567 0.0
Mn610 Mn 0.80517 0.68368 0.8264 0.0
O611 O 0.77336 0.68915 0.93095 0.0
Mn612 Mn 0.78072 0.71087 0.8959 0.0
O613 O 0.81797 0.70183 0.76897 0.0
O614 O 0.82471 0.66313 0.81835 0.0
Mn615 Mn 0.83128 0.66519 0.74874 0.0
O616 O 0.78972 0.67128 0.76461 0.0
O617 O 0.84233 0.68756 0.73332 0.0
O618 O 0.82062 0.69648 0.8897 0.0
O619 O 0.80302 0.72064 0.91823 0.0
O620 O 0.84559 0.64651 0.77286 0.0
O621 O 0.81079 0.65942 0.70681 0.0
C622 C 0.77163 0.71127 0.81213 0.0
C623 C 0.77864 0.6724 0.92235 0.0
C624 C 0.83268 0.70209 0.73926 0.0
C625 C 0.83671 0.64948 0.81795 0.0
C626 C 0.79406 0.66285 0.72034 0.0
C627 C 0.81817 0.71148 0.91783 0.0
O628 O 0.7859 0.70297 0.83099 0.0
O629 O 0.764 0.72197 0.84801 0.0
O630 O 0.08217 0.04474 0.63373 0.0
Mn631 Mn 0.06165 0.05483 0.5797 0.0
O632 O 0.06404 0.04158 0.70672 0.0
Mn633 Mn 0.04273 0.03388 0.67094 0.0
O634 O 0.0397 0.06305 0.52692 0.0
O635 O 0.07764 0.07702 0.55849 0.0
Mn636 Mn 0.07391 0.08047 0.48826 0.0
O637 O 0.07322 0.03907 0.51622 0.0
O638 O 0.04963 0.08678 0.47641 0.0
O639 O 0.04882 0.07069 0.64336 0.0
O640 O 0.02537 0.05242 0.66869 0.0
O641 O 0.09016 0.09855 0.50558 0.0
O642 O 0.08206 0.05955 0.45225 0.0
C643 C 0.04938 0.0154 0.60434 0.0
C644 C 0.07998 0.04141 0.68487 0.0
C645 C 0.03674 0.07606 0.49189 0.0
C646 C 0.08885 0.09109 0.55346 0.0
C647 C 0.08017 0.04295 0.46929 0.0
C648 C 0.03296 0.06835 0.66749 0.0
O649 O 0.04657 0.03295 0.5997 0.0
O650 O 0.04458 0.00923 0.6517 0.0
O651 O 0.70436 0.31956 0.38835 0.0
Mn652 Mn 0.68887 0.3047 0.33 0.0
O653 O 0.71743 0.29674 0.43968 0.0
Mn654 Mn 0.7099 0.27546 0.40166 0.0
O655 O 0.67433 0.28799 0.27321 0.0
O656 O 0.67127 0.32629 0.31937 0.0
Mn657 Mn 0.66512 0.32686 0.24969 0.0
O658 O 0.70552 0.31515 0.26781 0.0
O659 O 0.65288 0.30524 0.23159 0.0
O660 O 0.67241 0.2939 0.39428 0.0
O661 O 0.68638 0.26709 0.41855 0.0
O662 O 0.65286 0.3465 0.27908 0.0
O663 O 0.68664 0.33092 0.21128 0.0
C664 C 0.72126 0.27628 0.3199 0.0
C665 C 0.71453 0.31391 0.42854 0.0
C666 C 0.6605 0.28961 0.24036 0.0
C667 C 0.66084 0.34089 0.32341 0.0
C668 C 0.70255 0.32474 0.22469 0.0
C669 C 0.67275 0.27838 0.42084 0.0
O670 O 0.70629 0.2839 0.33632 0.0
O671 O 0.72767 0.26478 0.35565 0.0
H672 H 0.08614 0.45203 0.23707 0.0
H673 H 0.08678 0.54293 0.41774 0.0
H674 H 0.0902 0.50709 0.16923 0.0
H675 H 0.09642 0.48831 0.48391 0.0
H676 H 0.09264 0.53056 0.32643 0.0
H677 H 0.09458 0.46475 0.32635 0.0
C678 C 0.08964 0.46663 0.24026 0.0
C679 C 0.08748 0.47845 0.19517 0.0
C680 C 0.09403 0.52136 0.36103 0.0
C681 C 0.09639 0.49335 0.29825 0.0
C682 C 0.09096 0.52854 0.41351 0.0
C683 C 0.09112 0.5167 0.45903 0.0
C684 C 0.09712 0.50215 0.35371 0.0
C685 C 0.09614 0.49799 0.45022 0.0
C686 C 0.09418 0.474 0.29163 0.0
C687 C 0.09171 0.49742 0.20266 0.0
N688 N 0.09853 0.49125 0.39884 0.0
N689 N 0.09553 0.50429 0.2531 0.0
H690 H 0.75093 0.85221 0.7343 0.0
H691 H 0.74539 0.80601 0.44618 0.0
H692 H 0.7001 0.83185 0.66383 0.0
H693 H 0.7941 0.83498 0.50187 0.0
H694 H 0.72722 0.82068 0.51805 0.0
H695 H 0.76506 0.85265 0.64388 0.0
C696 C 0.74241 0.84872 0.69943 0.0
C697 C 0.72433 0.84179 0.70702 0.0
C698 C 0.74177 0.82424 0.51413 0.0
C699 C 0.74077 0.84135 0.60335 0.0
C700 C 0.75215 0.81587 0.47287 0.0
C701 C 0.77126 0.81933 0.46799 0.0
C702 C 0.75061 0.8358 0.55218 0.0
C703 C 0.77937 0.83205 0.50407 0.0
C704 C 0.75062 0.84866 0.64777 0.0
C705 C 0.71407 0.83725 0.66024 0.0
N706 N 0.76909 0.83955 0.54537 0.0
N707 N 0.72261 0.83655 0.61077 0.0
H708 H 0.40133 0.54529 0.76079 0.0
H709 H 0.40177 0.44839 0.90669 0.0
H710 H 0.39464 0.49357 0.67533 0.0
H711 H 0.39797 0.50042 0.99245 0.0
H712 H 0.39185 0.46419 0.82321 0.0
H713 H 0.39247 0.52972 0.84542 0.0
C714 C 0.39683 0.53093 0.75907 0.0
C715 C 0.39868 0.52081 0.7105 0.0
C716 C 0.3925 0.47208 0.86067 0.0
C717 C 0.38954 0.50243 0.80832 0.0
C718 C 0.39784 0.46291 0.90879 0.0
C719 C 0.40062 0.47301 0.95701 0.0
C720 C 0.39011 0.49155 0.86056 0.0
C721 C 0.39589 0.49202 0.9564 0.0
C722 C 0.3922 0.52186 0.80788 0.0
C723 C 0.39325 0.50199 0.7116 0.0
N724 N 0.39135 0.50071 0.90895 0.0
N725 N 0.38954 0.49332 0.75971 0.0
H726 H 0.73894 0.14747 0.24092 0.0
H727 H 0.74745 0.16719 0.92511 0.0
H728 H 0.79019 0.16113 0.16003 0.0
H729 H 0.69571 0.15858 0.00894 0.0
H730 H 0.7642 0.15538 1.00462 0.0
H731 H 0.72454 0.14153 0.15258 0.0
C732 C 0.74746 0.14831 0.20467 0.0
C733 C 0.76585 0.15478 0.20815 0.0
C734 C 0.74916 0.15547 1.00519 0.0
C735 C 0.74911 0.14884 0.10614 0.0
C736 C 0.73957 0.16197 0.9594 0.0
C737 C 0.72012 0.16363 0.96007 0.0
C738 C 0.73929 0.15092 0.05266 0.0
C739 C 0.71066 0.15721 1.00628 0.0
C740 C 0.73911 0.14522 0.15402 0.0
C741 C 0.77606 0.15597 0.15954 0.0
N742 N 0.72033 0.15149 0.05103 0.0
N743 N 0.76744 0.15353 0.11059 0.0
H744 H 0.91166 0.55185 0.87793 0.0
H745 H 0.9088 0.44982 0.76282 0.0
H746 H 0.90518 0.50315 0.97756 0.0
H747 H 0.91362 0.49883 0.66358 0.0
H748 H 0.89818 0.46922 0.83877 0.0
H749 H 0.90278 0.53359 0.79805 0.0
C750 C 0.90733 0.53755 0.88344 0.0
C751 C 0.90895 0.52908 0.93455 0.0
C752 C 0.90089 0.47572 0.79986 0.0
C753 C 0.89986 0.50768 0.8428 0.0
C754 C 0.90669 0.46457 0.75624 0.0
C755 C 0.91183 0.47271 0.7067 0.0
C756 C 0.9006 0.49521 0.79411 0.0
C757 C 0.9095 0.49198 0.7009 0.0
C758 C 0.9026 0.52698 0.83761 0.0
C759 C 0.90384 0.5103 0.93903 0.0
N760 N 0.90442 0.5026 0.74429 0.0
N761 N 0.89999 0.50013 0.89367 0.0
H762 H 0.19429 0.15441 0.61431 0.0
H763 H 0.30028 0.15298 0.53343 0.0
H764 H 0.23831 0.1531 0.7324 0.0
H765 H 0.25594 0.1466 0.41789 0.0
H766 H 0.27858 0.14577 0.60713 0.0
H767 H 0.21633 0.14467 0.54399 0.0
C768 C 0.20843 0.15113 0.62603 0.0
C769 C 0.21429 0.15422 0.67981 0.0
C770 C 0.27366 0.14519 0.56556 0.0
C771 C 0.24014 0.14406 0.5983 0.0
C772 C 0.28624 0.14886 0.52311 0.0
C773 C 0.2801 0.15022 0.46889 0.0
C774 C 0.25464 0.14296 0.55402 0.0
C775 C 0.26148 0.14541 0.45869 0.0
C776 C 0.22115 0.14586 0.58555 0.0
C777 C 0.23302 0.15047 0.69193 0.0
N778 N 0.24936 0.14256 0.50069 0.0
N779 N 0.24531 0.14602 0.65148 0.0
H780 H 0.58493 0.54564 0.27865 0.0
H781 H 0.59337 0.44094 0.37302 0.0
H782 H 0.58529 0.49892 0.1695 0.0
H783 H 0.59423 0.48729 0.48342 0.0
H784 H 0.5996 0.46214 0.29752 0.0
H785 H 0.59683 0.52551 0.35136 0.0
C786 C 0.58844 0.53135 0.26922 0.0
C787 C 0.58446 0.52409 0.2175 0.0
C788 C 0.59916 0.46769 0.33843 0.0
C789 C 0.59722 0.50055 0.30152 0.0
C790 C 0.59605 0.45544 0.38193 0.0
C791 C 0.59342 0.46222 0.43502 0.0
C792 C 0.59946 0.487 0.34774 0.0
C793 C 0.59644 0.48133 0.44347 0.0
C794 C 0.59496 0.51974 0.31106 0.0
C795 C 0.58854 0.50523 0.20834 0.0
N796 N 0.59872 0.49308 0.40031 0.0
N797 N 0.59436 0.49411 0.24997 0.0
H798 H 0.296 0.83339 0.12676 0.0
H799 H 0.23575 0.84489 0.91647 0.0
H800 H 0.24871 0.83372 0.23363 0.0
H801 H 0.19494 0.82673 0.03269 0.0
H802 H 0.25597 0.85447 0.99137 0.0
H803 H 0.27621 0.84381 0.05246 0.0
C804 C 0.28159 0.83667 0.1352 0.0
C805 C 0.27407 0.83294 0.18662 0.0
C806 C 0.24249 0.84871 1.00085 0.0
C807 C 0.25082 0.84421 0.10092 0.0
C808 C 0.23069 0.84373 0.95784 0.0
C809 C 0.21361 0.83508 0.96843 0.0
C810 C 0.23727 0.84461 0.05478 0.0
C811 C 0.20796 0.83349 0.02282 0.0
C812 C 0.27012 0.8425 0.09244 0.0
C813 C 0.25515 0.8367 0.19486 0.0
N814 N 0.21988 0.83781 0.06385 0.0
N815 N 0.24413 0.84168 0.15226 0.0
H816 H 0.593 0.98974 0.99682 0.0
H817 H 0.56486 0.99497 0.68648 0.0
H818 H 0.57698 0.04025 0.91542 0.0
H819 H 0.57882 0.94425 0.76989 0.0
H820 H 0.57738 0.01286 0.76268 0.0
H821 H 0.59707 0.97468 0.90853 0.0
C822 C 0.59126 -0.00204 0.96025 0.0
C823 C 0.58455 0.01628 0.96366 0.0
C824 C 0.57822 -0.00216 0.76388 0.0
C825 C 0.58824 -0.0012 0.86213 0.0
C826 C 0.57119 0.98761 0.7201 0.0
C827 C 0.57105 0.96812 0.72167 0.0
C828 C 0.58481 0.98851 0.81024 0.0
C829 C 0.57894 0.95927 0.76686 0.0
C830 C 0.59324 0.98924 0.90972 0.0
C831 C 0.58224 0.02615 0.91483 0.0
N832 N 0.58526 0.96952 0.8097 0.0
N833 N 0.58353 0.01714 0.86615 0.0
H834 H 0.29292 0.3378 0.02359 0.0
H835 H 0.18951 0.34354 0.12188 0.0
H836 H 0.2465 0.34732 0.91718 0.0
H837 H 0.23584 0.34027 0.23185 0.0
H838 H 0.21054 0.35351 0.04956 0.0
H839 H 0.27373 0.34715 0.1012 0.0
C840 C 0.27903 0.34302 0.01606 0.0
C841 C 0.27141 0.34199 0.96351 0.0
C842 C 0.21612 0.35134 0.08995 0.0
C843 C 0.24888 0.35177 0.0528 0.0
C844 C 0.20397 0.346 0.13168 0.0
C845 C 0.21081 0.34133 0.18337 0.0
C846 C 0.2354 0.35164 0.09946 0.0
C847 C 0.22987 0.34409 0.19299 0.0
C848 C 0.26789 0.34798 0.06069 0.0
C849 C 0.25305 0.34819 0.95673 0.0
N850 N 0.24155 0.34853 0.15119 0.0
N851 N 0.24233 0.35234 1.00078 0.0
H852 H 0.90828 0.03993 0.22974 0.0
H853 H 0.90037 0.94456 0.38293 0.0
H854 H 0.8949 0.98866 0.14826 0.0
H855 H 0.90154 -0.00279 0.46567 0.0
H856 H 0.89174 0.96059 0.29873 0.0
H857 H 0.89966 0.02566 0.31654 0.0
C858 C 0.90267 0.02596 0.22963 0.0
C859 C 0.90243 0.0155 0.18134 0.0
C860 C 0.89314 0.96864 0.33571 0.0
C861 C 0.89309 -0.0013 0.28146 0.0
C862 C 0.89765 0.95937 0.38429 0.0
C863 C 0.90147 0.96947 0.43187 0.0
C864 C 0.89268 0.98823 0.33442 0.0
C865 C 0.89844 0.9888 0.43028 0.0
C866 C 0.89799 0.01766 0.27955 0.0
C867 C 0.89543 -0.00276 0.18439 0.0
N868 N 0.89478 -0.00243 0.38227 0.0
N869 N 0.89145 0.98933 0.23347 0.0
H870 H 0.19871 0.65683 0.48988 0.0
H871 H 0.29025 0.65674 0.66387 0.0
H872 H 0.25314 0.65015 0.41975 0.0
H873 H 0.23576 0.65102 0.73435 0.0
H874 H 0.27734 0.64805 0.57523 0.0
H875 H 0.21151 0.64837 0.57888 0.0
C876 C 0.21315 0.65269 0.49256 0.0
C877 C 0.22485 0.65429 0.44706 0.0
C878 C 0.26827 0.64809 0.61037 0.0
C879 C 0.23988 0.64536 0.54964 0.0
C880 C 0.27575 0.65278 0.66138 0.0
C881 C 0.26409 0.6547 0.70687 0.0
C882 C 0.24895 0.64547 0.60463 0.0
C883 C 0.24528 0.64979 0.70044 0.0
C884 C 0.22058 0.64815 0.54376 0.0
C885 C 0.24361 0.64917 0.45368 0.0
N886 N 0.23824 0.64587 0.65029 0.0
N887 N 0.2506 0.64541 0.50398 0.0
H888 H 0.40787 0.04611 0.40445 0.0
H889 H 0.40674 0.94826 0.25737 0.0
H890 H 0.38918 0.9957 0.48111 0.0
H891 H 0.42033 -0.00038 0.17704 0.0
H892 H 0.39346 0.96613 0.33329 0.0
H893 H 0.40506 0.03094 0.31563 0.0
C894 C 0.40214 0.0322 0.40252 0.0
C895 C 0.3988 0.0222 0.45062 0.0
C896 C 0.39879 0.97354 0.29829 0.0
C897 C 0.39637 0.0043 0.34882 0.0
C898 C 0.40616 0.96328 0.2546 0.0
C899 C 0.41438 0.97244 0.2104 0.0
C900 C 0.39994 0.99313 0.2982 0.0
C901 C 0.41387 0.99198 0.20991 0.0
C902 C 0.40091 0.02335 0.35165 0.0
C903 C 0.39186 0.00399 0.4452 0.0
N904 N 0.40708 0.00163 0.2533 0.0
N905 N 0.39137 0.9955 0.39565 0.0
H906 H 0.79485 0.65318 1.00565 0.0
H907 H 0.74609 0.63867 0.23957 0.0
H908 H 0.7424 0.66232 0.92633 0.0
H909 H 0.6997 0.66149 0.1518 0.0
H910 H 0.76139 0.63158 0.15366 0.0
H911 H 0.77846 0.64177 0.08566 0.0
C912 C 0.77987 0.65181 1.00408 0.0
C913 C 0.77002 0.65849 0.959 0.0
C914 C 0.74778 0.6379 0.15255 0.0
C915 C 0.75071 0.64591 0.05171 0.0
C916 C 0.73874 0.64142 0.20198 0.0
C917 C 0.72156 0.6507 0.20314 0.0
C918 C 0.7398 0.64413 0.10358 0.0
C919 C 0.71287 0.6542 0.15303 0.0
C920 C 0.77034 0.64544 0.05033 0.0
C921 C 0.75055 0.65709 0.96005 0.0
N922 N 0.72227 0.65139 0.10548 0.0
N923 N 0.74157 0.65131 1.00582 0.0
H924 H 0.0794 0.94902 0.87091 0.0
H925 H 0.09486 0.05274 0.7807 0.0
H926 H 0.08509 0.99462 0.98287 0.0
H927 H 0.09388 0.00678 0.66883 0.0
H928 H 0.10006 0.03103 0.85556 0.0
H929 H 0.09257 0.96846 0.79864 0.0
C930 C 0.08424 0.96287 0.88084 0.0
C931 C 0.08146 0.97009 0.93322 0.0
C932 C 0.09945 0.02565 0.81448 0.0
C933 C 0.09572 0.99286 0.85 0.0
C934 C 0.09692 0.03815 0.7714 0.0
C935 C 0.09399 0.03163 0.71823 0.0
C936 C 0.09886 0.0064 0.80447 0.0
C937 C 0.09627 0.01248 0.70899 0.0
C938 C 0.09156 0.97409 0.83938 0.0
C939 C 0.08732 0.98838 0.94337 0.0
N940 N 0.09796 0.00051 0.75176 0.0
N941 N 0.09384 -0.00079 0.90204 0.0
H942 H 0.75052 0.32497 0.42119 0.0
H943 H 0.79693 0.33512 0.66418 0.0
H944 H 0.70143 0.33141 0.51922 0.0
H945 H 0.746 0.35752 0.72877 0.0
H946 H 0.78339 0.33553 0.57364 0.0
H947 H 0.76907 0.33873 0.49403 0.0
C948 C 0.74358 0.32986 0.45757 0.0
C949 C 0.72437 0.32732 0.4639 0.0
C950 C 0.7753 0.34116 0.60683 0.0
C951 C 0.74572 0.342 0.54957 0.0
C952 C 0.78324 0.34114 0.65897 0.0
C953 C 0.77258 0.34618 0.70453 0.0
C954 C 0.75653 0.34635 0.60007 0.0
C955 C 0.75474 0.35346 0.69493 0.0
C956 C 0.75426 0.33738 0.49984 0.0
C957 C 0.71615 0.33343 0.51237 0.0
N958 N 0.74713 0.35285 0.64425 0.0
N959 N 0.72688 0.34027 0.55349 0.0
H960 H 0.16254 0.34172 0.23878 0.0
H961 H 0.06966 0.3964 0.15996 0.0
H962 H 0.11391 0.34367 0.34121 0.0
H963 H 0.12179 0.40155 0.07495 0.0
H964 H 0.08458 0.37508 0.22455 0.0
H965 H 0.1458 0.35976 0.17003 0.0
C966 C 0.14822 0.34557 0.24603 0.0
C967 C 0.13964 0.34175 0.29564 0.0
C968 C 0.0928 0.38113 0.1922 0.0
C969 C 0.12072 0.3625 0.21913 0.0
C970 C 0.08439 0.39354 0.15636 0.0
C971 C 0.09468 0.40066 0.11307 0.0
C972 C 0.11147 0.37603 0.18389 0.0
C973 C 0.11355 0.39627 0.10843 0.0
C974 C 0.13874 0.35604 0.20737 0.0
C975 C 0.12106 0.34685 0.30359 0.0
N976 N 0.12135 0.38406 0.14323 0.0
N977 N 0.11223 0.35724 0.26591 0.0
H978 H 0.86619 0.89816 0.56566 0.0
H979 H 0.87768 0.83306 0.31367 0.0
H980 H 0.91994 0.8892 0.49292 0.0
H981 H 0.83106 0.83097 0.42373 0.0
H982 H 0.89519 0.85066 0.38102 0.0
H983 H 0.85337 0.8736 0.50951 0.0
C984 C 0.87511 0.89135 0.53621 0.0
C985 C 0.894 0.89563 0.53304 0.0
C986 C 0.88137 0.84583 0.39116 0.0
C987 C 0.87979 0.867 0.47092 0.0
C988 C 0.87145 0.83563 0.3531 0.0
C989 C 0.85274 0.83135 0.36285 0.0
C990 C 0.87229 0.85168 0.43847 0.0
C991 C 0.84533 0.83451 0.41443 0.0
C992 C 0.86794 0.87702 0.50533 0.0
C993 C 0.90519 0.88636 0.49537 0.0
N994 N 0.85499 0.84509 0.45004 0.0
N995 N 0.89789 0.87224 0.46562 0.0
H996 H 0.32054 0.6375 0.75341 0.0
H997 H 0.42161 0.61473 0.6403 0.0
H998 H 0.36857 0.67126 0.78688 0.0
H999 H 0.37514 0.57732 0.62841 0.0
H1000 H 0.40272 0.63587 0.6948 0.0
H1001 H 0.33983 0.61706 0.69737 0.0
C1002 C 0.33497 0.64109 0.74643 0.0
C1003 C 0.34315 0.65592 0.77397 0.0
C1004 C 0.39676 0.62282 0.68158 0.0
C1005 C 0.36532 0.63237 0.71371 0.0
C1006 C 0.40768 0.61059 0.65187 0.0
C1007 C 0.39979 0.59438 0.63097 0.0
C1008 C 0.37789 0.61869 0.6894 0.0
C1009 C 0.38161 0.58969 0.64491 0.0
C1010 C 0.34607 0.6292 0.71593 0.0
C1011 C 0.36191 0.65992 0.76544 0.0
N1012 N 0.37105 0.60203 0.67266 0.0
N1013 N 0.37254 0.64795 0.73669 0.0
H1014 H 0.64266 0.16839 0.91793 0.0
H1015 H 0.59642 0.07124 0.99738 0.0
H1016 H 0.6519 0.11797 0.82709 0.0
H1017 H 0.58086 0.12417 0.06592 0.0
H1018 H 0.61727 0.08743 0.93416 0.0
H1019 H 0.62275 0.15106 0.98067 0.0
C1020 C 0.64109 0.15351 0.91281 0.0
C1021 C 0.64869 0.14446 0.86788 0.0
C1022 C 0.60901 0.0955 0.9624 0.0
C1023 C 0.62554 0.12488 0.93667 0.0
C1024 C 0.59687 0.0863 0.99739 0.0
C1025 C 0.58719 0.09653 0.03642 0.0
C1026 C 0.61131 0.11485 0.96756 0.0
C1027 C 0.5883 0.11593 0.03611 0.0
C1028 C 0.62942 0.1437 0.94756 0.0
C1029 C 0.6461 0.12528 0.8617 0.0
N1030 N 0.60046 0.12451 1.00276 0.0
N1031 N 0.63446 0.1161 0.89535 0.0
H1032 H 0.07099 0.60045 0.48204 0.0
H1033 H 0.16743 0.65014 0.41607 0.0
H1034 H 0.12213 0.58914 0.56675 0.0
H1035 H 0.11677 0.65988 0.32698 0.0
H1036 H 0.15014 0.63036 0.47935 0.0
H1037 H 0.08759 0.6222 0.42308 0.0
C1038 C 0.08591 0.6019 0.48616 0.0
C1039 C 0.0954 0.59314 0.52838 0.0
C1040 C 0.14275 0.6371 0.44647 0.0
C1041 C 0.1141 0.61846 0.46458 0.0
C1042 C 0.15253 0.64867 0.41134 0.0
C1043 C 0.14341 0.6561 0.36634 0.0
C1044 C 0.12396 0.63317 0.43549 0.0
C1045 C 0.12419 0.65395 0.36116 0.0
C1046 C 0.09528 0.61466 0.45382 0.0
C1047 C 0.11455 0.59568 0.53383 0.0
N1048 N 0.11509 0.64228 0.39477 0.0
N1049 N 0.1233 0.60843 0.50279 0.0
H1050 H 0.58295 0.91173 0.67412 0.0
H1051 H 0.64301 0.82133 0.74196 0.0
H1052 H 0.58684 0.86451 0.5665 0.0
H1053 H 0.64203 0.87172 0.83695 0.0
H1054 H 0.61972 0.83503 0.68053 0.0
H1055 H 0.59914 0.89389 0.74401 0.0
C1056 C 0.58661 0.89738 0.66604 0.0
C1057 C 0.58423 0.88967 0.61443 0.0
C1058 C 0.62475 0.84309 0.71468 0.0
C1059 C 0.6033 0.86962 0.69223 0.0
C1060 C 0.63828 0.83545 0.74869 0.0
C1061 C 0.64436 0.84557 0.79378 0.0
C1062 C 0.61745 0.86081 0.72663 0.0
C1063 C 0.63762 0.86359 0.80218 0.0
C1064 C 0.59614 0.88729 0.70541 0.0
C1065 C 0.589 0.871 0.60576 0.0
N1066 N 0.62441 0.8706 0.76913 0.0
N1067 N 0.59883 0.86169 0.64387 0.0
H1068 H 0.38684 0.37106 0.11468 0.0
H1069 H 0.37267 0.35519 0.79978 0.0
H1070 H 0.41022 0.40614 0.98951 0.0
H1071 H 0.33501 0.3348 0.92286 0.0
H1072 H 0.39375 0.36561 0.87047 0.0
H1073 H 0.37507 0.35024 0.04523 0.0
C1074 C 0.38963 0.37433 0.07246 0.0
C1075 C 0.39921 0.39054 0.0574 0.0
C1076 C 0.38101 0.35863 0.88195 0.0
C1077 C 0.3859 0.36667 0.97844 0.0
C1078 C 0.36893 0.35275 0.84186 0.0
C1079 C 0.35186 0.3447 0.85605 0.0
C1080 C 0.37586 0.35654 0.93632 0.0
C1081 C 0.34793 0.34127 0.91069 0.0
C1082 C 0.38299 0.36235 0.03308 0.0
C1083 C 0.40278 0.39386 1.00249 0.0
N1084 N 0.35978 0.34758 0.94932 0.0
N1085 N 0.39586 0.38207 0.96461 0.0
H1086 H 0.85286 0.17123 0.24222 0.0
H1087 H 0.88866 0.07154 0.14594 0.0
H1088 H 0.83201 0.12036 0.31137 0.0
H1089 H 0.9171 0.12317 0.11545 0.0
H1090 H 0.86659 0.08826 0.20454 0.0
H1091 H 0.87337 0.15302 0.18332 0.0
C1092 C 0.852 0.15619 0.2429 0.0
C1093 C 0.8408 0.14714 0.28082 0.0
C1094 C 0.87793 0.09583 0.18593 0.0
C1095 C 0.86468 0.12636 0.21681 0.0
C1096 C 0.89072 0.08622 0.15377 0.0
C1097 C 0.90456 0.09612 0.12649 0.0
C1098 C 0.87911 0.11531 0.18959 0.0
C1099 C 0.90654 0.11517 0.13635 0.0
C1100 C 0.86401 0.1458 0.21055 0.0
C1101 C 0.84044 0.12768 0.28182 0.0
N1102 N 0.8937 0.12425 0.16635 0.0
N1103 N 0.85248 0.11785 0.25078 0.0
H1104 H 0.86925 0.59969 0.11821 0.0
H1105 H 0.84563 0.61341 0.80671 0.0
H1106 H 0.90411 0.58048 0.98667 0.0
H1107 H 0.833 0.65468 0.92874 0.0
H1108 H 0.85683 0.59258 0.87735 0.0
H1109 H 0.84659 0.6108 0.0522 0.0
C1110 C 0.87197 0.59741 0.07539 0.0
C1111 C 0.88885 0.58962 0.05762 0.0
C1112 C 0.85128 0.60604 0.88872 0.0
C1113 C 0.86277 0.60196 0.98265 0.0
C1114 C 0.84493 0.61798 0.84866 0.0
C1115 C 0.83899 0.636 0.8621 0.0
C1116 C 0.85167 0.61216 0.94252 0.0
C1117 C 0.8378 0.64099 0.91693 0.0
C1118 C 0.85899 0.60376 0.03802 0.0
C1119 C 0.89141 0.58661 1.00197 0.0
N1120 N 0.8445 0.62918 0.95547 0.0
N1121 N 0.87855 0.59306 0.96616 0.0
H1122 H 0.1032 0.07202 0.64026 0.0
H1123 H 0.16098 0.16066 0.73255 0.0
H1124 H 0.10248 0.12563 0.56179 0.0
H1125 H 0.14779 0.1151 0.83989 0.0
H1126 H 0.14852 0.1428 0.65638 0.0
H1127 H 0.1265 0.0837 0.70427 0.0
C1128 C 0.10768 0.08627 0.63724 0.0
C1129 C 0.10079 0.09798 0.59665 0.0
C1130 C 0.14875 0.13657 0.69649 0.0
C1131 C 0.12777 0.11108 0.66696 0.0
C1132 C 0.15597 0.1467 0.73964 0.0
C1133 C 0.15473 0.13947 0.79214 0.0
C1134 C 0.14032 0.11931 0.7068 0.0
C1135 C 0.14835 0.12128 0.79975 0.0
C1136 C 0.12121 0.09281 0.67281 0.0
C1137 C 0.10748 0.11619 0.59283 0.0
N1138 N 0.14097 0.11186 0.75747 0.0
N1139 N 0.12061 0.12222 0.62768 0.0
H1140 H 0.66037 0.37799 0.33571 0.0
H1141 H 0.58904 0.3654 0.57529 0.0
H1142 H 0.65251 0.32652 0.42234 0.0
H1143 H 0.60664 0.41966 0.52163 0.0
H1144 H 0.61209 0.35121 0.5163 0.0
H1145 H 0.64291 0.39434 0.40601 0.0
C1146 C 0.65552 0.3703 0.37086 0.0
C1147 C 0.65755 0.35096 0.37356 0.0
C1148 C 0.61096 0.36622 0.51719 0.0
C1149 C 0.6371 0.36923 0.45209 0.0
C1150 C 0.59762 0.37428 0.55003 0.0
C1151 C 0.59602 0.39362 0.55259 0.0
C1152 C 0.62283 0.37763 0.48689 0.0
C1153 C 0.60736 0.40465 0.51968 0.0
C1154 C 0.64542 0.37957 0.41052 0.0
C1155 C 0.65115 0.34147 0.41925 0.0
N1156 N 0.62049 0.39644 0.48806 0.0
N1157 N 0.64073 0.35069 0.45639 0.0
H1158 H 0.36982 0.86024 0.35613 0.0
H1159 H 0.36858 0.89799 0.05521 0.0
H1160 H 0.3261 0.84724 0.24186 0.0
H1161 H 0.41189 0.90975 0.17149 0.0
H1162 H 0.34981 0.88447 0.12725 0.0
H1163 H 0.38285 0.88193 0.29225 0.0
C1164 C 0.36292 0.86193 0.31728 0.0
C1165 C 0.34681 0.85192 0.30413 0.0
C1166 C 0.36326 0.89028 0.13729 0.0
C1167 C 0.36187 0.87691 0.23043 0.0
C1168 C 0.37396 0.89803 0.09637 0.0
C1169 C 0.39195 0.90443 0.10772 0.0
C1170 C 0.37078 0.88878 0.1895 0.0
C1171 C 0.39816 0.90467 0.16136 0.0
C1172 C 0.37038 0.87446 0.28091 0.0
C1173 C 0.33863 0.8546 0.25319 0.0
N1174 N 0.38768 0.89651 0.20041 0.0
N1175 N 0.34635 0.86689 0.21779 0.0
H1176 H 0.89737 0.36945 0.58248 0.0
H1177 H 0.84129 0.37783 0.84679 0.0
H1178 H 0.88608 0.42437 0.64464 0.0
H1179 H 0.8321 0.33427 0.72931 0.0
H1180 H 0.8553 0.39697 0.77577 0.0
H1181 H 0.87409 0.35675 0.64314 0.0
C1182 C 0.89014 0.37877 0.60996 0.0
C1183 C 0.89354 0.39789 0.6091 0.0
C1184 C 0.84961 0.38352 0.76515 0.0
C1185 C 0.86643 0.38361 0.67704 0.0
C1186 C 0.84158 0.37262 0.80543 0.0
C1187 C 0.83623 0.3543 0.79372 0.0
C1188 C 0.85249 0.37571 0.71377 0.0
C1189 C 0.83647 0.34821 0.73989 0.0
C1190 C 0.87659 0.37159 0.6436 0.0
C1191 C 0.8839 0.40948 0.64507 0.0
N1192 N 0.84511 0.35874 0.70188 0.0
N1193 N 0.87062 0.40211 0.67806 0.0
H1194 H 0.33139 0.15638 0.42287 0.0
H1195 H 0.40038 0.07917 0.48397 0.0
H1196 H 0.34279 0.11344 0.30495 0.0
H1197 H 0.36871 0.10606 0.61084 0.0
H1198 H 0.37605 0.08785 0.41876 0.0
H1199 H 0.34006 0.13488 0.49518 0.0
C1200 C 0.33503 0.14221 0.41247 0.0
C1201 C 0.3369 0.13672 0.35833 0.0
C1202 C 0.37426 0.09143 0.46122 0.0
C1203 C 0.34758 0.11245 0.43966 0.0
C1204 C 0.3882 0.08658 0.49811 0.0
C1205 C 0.38682 0.09255 0.55202 0.0
C1206 C 0.35918 0.10239 0.47891 0.0
C1207 C 0.37065 0.10184 0.56895 0.0
C1208 C 0.34012 0.12993 0.45358 0.0
C1209 C 0.34178 0.11827 0.34656 0.0
N1210 N 0.35762 0.10678 0.53231 0.0
N1211 N 0.34753 0.10688 0.38692 0.0
H1212 H 0.59467 0.58038 0.17371 0.0
H1213 H 0.66394 0.65918 0.22864 0.0
H1214 H 0.62333 0.60844 0.04294 0.0
H1215 H 0.65607 0.61474 0.34416 0.0
H1216 H 0.65298 0.63852 0.15642 0.0
H1217 H 0.61946 0.59037 0.23592 0.0
C1218 C 0.60623 0.58839 0.15807 0.0
C1219 C 0.60662 0.59413 0.10376 0.0
C1220 C 0.65417 0.6331 0.19736 0.0
C1221 C 0.63483 0.60545 0.17362 0.0
C1222 C 0.66055 0.64489 0.23835 0.0
C1223 C 0.66023 0.63875 0.2922 0.0
C1224 C 0.64717 0.61543 0.21125 0.0
C1225 C 0.65587 0.62009 0.30298 0.0
C1226 C 0.62043 0.59398 0.19326 0.0
C1227 C 0.6221 0.60422 0.08504 0.0
N1228 N 0.64891 0.6092 0.26308 0.0
N1229 N 0.63539 0.60985 0.12009 0.0
H1230 H 0.14949 0.88027 0.79258 0.0
H1231 H 0.12377 0.89316 0.10277 0.0
H1232 H 0.16143 0.83998 0.91796 0.0
H1233 H 0.08926 0.91303 0.97139 0.0
H1234 H 0.14717 0.88362 0.03735 0.0
H1235 H 0.13761 0.90155 0.86157 0.0
C1236 C 0.15011 0.8761 0.83488 0.0
C1237 C 0.15589 0.85813 0.84971 0.0
C1238 C 0.13464 0.89037 0.02297 0.0
C1239 C 0.14262 0.88247 0.92805 0.0
C1240 C 0.1212 0.89574 0.06002 0.0
C1241 C 0.10426 0.90328 0.04203 0.0
C1242 C 0.13116 0.89255 0.96756 0.0
C1243 C 0.10198 0.90691 0.98658 0.0
C1244 C 0.14331 0.88826 0.87394 0.0
C1245 C 0.15684 0.8536 0.90489 0.0
N1246 N 0.11522 0.90113 0.95084 0.0
N1247 N 0.14989 0.86564 0.94227 0.0
H1248 H 0.92486 0.5015 0.06076 0.0
H1249 H -0.00285 0.4767 0.99559 0.0
H1250 H 0.96728 0.50628 0.18194 0.0
H1251 H 0.00573 0.4384 0.12733 0.0
H1252 H 0.96391 0.47367 0.00796 0.0
H1253 H 0.93048 0.46815 0.05557 0.0
C1254 C 0.93444 0.49534 0.08955 0.0
C1255 C 0.94744 0.50663 0.11646 0.0
C1256 C 0.9729 0.46513 0.03294 0.0
C1257 C 0.9534 0.46894 0.11262 0.0
C1258 C 0.99202 0.46687 0.0254 0.0
C1259 C 0.0042 0.45848 0.06219 0.0
C1260 C 0.96634 0.45709 0.0816 0.0
C1261 C -0.00327 0.44578 0.09962 0.0
C1262 C 0.93769 0.47619 0.08625 0.0
C1263 C 0.95832 0.49802 0.15614 0.0
N1264 N 0.97825 0.44637 0.111 0.0
N1265 N 0.96181 0.47953 0.15144 0.0
H1266 H 0.75547 0.75999 0.23272 0.0
H1267 H 0.69006 0.72938 0.32939 0.0
H1268 H 0.76157 0.80597 0.34156 0.0
H1269 H 0.73809 0.73173 0.43297 0.0
H1270 H 0.69085 0.76269 0.32001 0.0
H1271 H 0.72337 0.75704 0.26038 0.0
C1272 C 0.74983 0.77022 0.26055 0.0
C1273 C 0.76175 0.78147 0.29095 0.0
C1274 C 0.70046 0.75616 0.34803 0.0
C1275 C 0.72568 0.77755 0.32521 0.0
C1276 C 0.69995 0.73692 0.354 0.0
C1277 C 0.7147 0.72764 0.37948 0.0
C1278 C 0.71637 0.7656 0.36523 0.0
C1279 C 0.72698 0.73836 0.41048 0.0
C1280 C 0.7314 0.76841 0.27722 0.0
C1281 C 0.75328 0.79526 0.32296 0.0
N1282 N 0.72809 0.75691 0.40067 0.0
N1283 N 0.7362 0.79183 0.34413 0.0
H1284 H 0.56823 0.51405 0.56861 0.0
H1285 H 0.47107 0.48726 0.51518 0.0
H1286 H 0.53958 0.47414 0.66313 0.0
H1287 H 0.47882 0.54542 0.51621 0.0
H1288 H 0.50263 0.4832 0.55126 0.0
H1289 H 0.53961 0.5322 0.5584 0.0
C1290 C 0.55584 0.50943 0.58963 0.0
C1291 C 0.55362 0.49054 0.60245 0.0
C1292 C 0.4972 0.49708 0.5449 0.0
C1293 C 0.52284 0.51113 0.59873 0.0
C1294 C 0.47956 0.49946 0.52221 0.0
C1295 C 0.4712 0.51686 0.52973 0.0
C1296 C 0.50667 0.51301 0.56377 0.0
C1297 C 0.48355 0.53181 0.52562 0.0
C1298 C 0.53952 0.51976 0.58324 0.0
C1299 C 0.53975 0.4871 0.64079 0.0
N1300 N 0.50055 0.53007 0.54869 0.0
N1301 N 0.52347 0.49618 0.63287 0.0
H1302 H 0.72677 0.23475 0.72136 0.0
H1303 H 0.803 0.26741 0.78782 0.0
H1304 H 0.73633 0.18536 0.81479 0.0
H1305 H 0.75994 0.25738 0.90471 0.0
H1306 H 0.79914 0.23613 0.75247 0.0
H1307 H 0.76003 0.23979 0.7167 0.0
C1308 C 0.73592 0.22419 0.73785 0.0
C1309 C 0.72895 0.21073 0.7734 0.0
C1310 C 0.79147 0.24032 0.78836 0.0
C1311 C 0.76648 0.21721 0.77221 0.0
C1312 C 0.79353 0.25833 0.80856 0.0
C1313 C 0.78039 0.2655 0.84531 0.0
C1314 C 0.7771 0.2293 0.80883 0.0
C1315 C 0.76957 0.25268 0.8738 0.0
C1316 C 0.75508 0.22713 0.73571 0.0
C1317 C 0.74138 0.19697 0.79098 0.0
N1318 N 0.76765 0.23523 0.85368 0.0
N1319 N 0.75971 0.20127 0.79434 0.0
H1320 H 0.93163 0.48932 0.57152 0.0
H1321 H 0.00019 0.51436 0.65908 0.0
H1322 H 0.97958 0.48453 0.46891 0.0
H1323 H 0.0126 0.55457 0.53528 0.0
H1324 H 0.96761 0.51668 0.6357 0.0
H1325 H 0.93597 0.52278 0.57507 0.0
C1326 C 0.94229 0.49542 0.54605 0.0
C1327 C 0.95649 0.48422 0.52463 0.0
C1328 C 0.97727 0.52574 0.61476 0.0
C1329 C 0.96148 0.52205 0.52854 0.0
C1330 C 0.99599 0.52442 0.62865 0.0
C1331 C 0.00929 0.53325 0.59635 0.0
C1332 C 0.97248 0.53406 0.56472 0.0
C1333 C 0.00292 0.54639 0.55844 0.0
C1334 C 0.94478 0.51466 0.5484 0.0
C1335 C 0.96922 0.49278 0.48985 0.0
N1336 N 0.98508 0.54547 0.54067 0.0
N1337 N 0.97201 0.51137 0.49458 0.0
H1338 H 0.7627 0.72697 0.71385 0.0
H1339 H 0.68872 0.7627 0.7729 0.0
H1340 H 0.75206 0.67913 0.81301 0.0
H1341 H 0.72869 0.74993 0.89676 0.0
H1342 H 0.6913 0.73114 0.73808 0.0
H1343 H 0.72952 0.7319 0.70513 0.0
C1344 C 0.75337 0.71669 0.73086 0.0
C1345 C 0.75995 0.70376 0.76869 0.0
C1346 C 0.69846 0.73483 0.77531 0.0
C1347 C 0.72242 0.71024 0.76305 0.0
C1348 C 0.69706 0.75295 0.79535 0.0
C1349 C 0.70977 0.75925 0.83458 0.0
C1350 C 0.71177 0.72296 0.79794 0.0
C1351 C 0.71941 0.74582 0.86428 0.0
C1352 C 0.73423 0.71955 0.72632 0.0
C1353 C 0.74731 0.69033 0.78705 0.0
N1354 N 0.72067 0.72829 0.8443 0.0
N1355 N 0.72892 0.6946 0.78762 0.0
H1356 H 0.49306 0.43042 1.0042 0.0
H1357 H 0.51358 0.51555 0.98372 0.0
H1358 H 0.48826 0.468 0.13848 0.0
H1359 H 0.56216 0.50739 0.08216 0.0
H1360 H 0.5118 0.4822 0.96949 0.0
H1361 H 0.52457 0.44133 0.9876 0.0
C1362 C 0.49915 0.43985 0.03329 0.0
C1363 C 0.48762 0.44993 0.06879 0.0
C1364 C 0.52361 0.48767 0.99165 0.0
C1365 C 0.52362 0.46148 0.05282 0.0
C1366 C 0.52467 0.50684 0.99927 0.0
C1367 C 0.53724 0.51387 0.03724 0.0
C1368 C 0.53432 0.476 0.02536 0.0
C1369 C 0.5515 0.50209 0.05523 0.0
C1370 C 0.51714 0.44623 0.02314 0.0
C1371 C 0.49639 0.46105 0.10749 0.0
N1372 N 0.54888 0.48343 0.05295 0.0
N1373 N 0.51376 0.46737 0.09693 0.0
H1374 H 0.76594 0.24434 0.41452 0.0
H1375 H 0.73679 0.31032 0.33407 0.0
H1376 H 0.80575 0.23441 0.28821 0.0
H1377 H 0.73768 0.26365 0.2255 0.0
H1378 H 0.77045 0.30915 0.34016 0.0
H1379 H 0.76858 0.27743 0.39802 0.0
C1380 C 0.77599 0.24917 0.38494 0.0
C1381 C 0.78457 0.23662 0.34959 0.0
C1382 C 0.76346 0.3 0.31181 0.0
C1383 C 0.78556 0.27404 0.32541 0.0
C1384 C 0.7441 0.3006 0.30826 0.0
C1385 C 0.73457 0.28569 0.2841 0.0
C1386 C 0.77267 0.28447 0.29021 0.0
C1387 C 0.74464 0.27443 0.24848 0.0
C1388 C 0.77753 0.26821 0.37497 0.0
C1389 C 0.7977 0.24373 0.31299 0.0
N1390 N 0.76337 0.27356 0.25392 0.0
N1391 N 0.79713 0.26202 0.29937 0.0
H1392 H 0.24588 0.27301 0.7553 0.0
H1393 H 0.25453 0.17504 0.79657 0.0
H1394 H 0.30358 0.26328 0.78147 0.0
H1395 H 0.22626 0.21066 0.90642 0.0
H1396 H 0.27875 0.19848 0.78371 0.0
H1397 H 0.23954 0.2409 0.78035 0.0
C1398 C 0.25752 0.26379 0.76277 0.0
C1399 C 0.2747 0.27112 0.77806 0.0
C1400 C 0.26773 0.201 0.81278 0.0
C1401 C 0.26852 0.23474 0.79938 0.0
C1402 C 0.25391 0.18763 0.82065 0.0
C1403 C 0.23677 0.19394 0.84074 0.0
C1404 C 0.26431 0.21882 0.83344 0.0
C1405 C 0.23806 0.20764 0.88055 0.0
C1406 C 0.25381 0.24558 0.77855 0.0
C1407 C 0.28956 0.25847 0.77801 0.0
N1408 N 0.2508 0.22118 0.87182 0.0
N1409 N 0.28623 0.24081 0.79446 0.0
H1410 H 0.18594 0.73633 0.37003 0.0
H1411 H 0.25602 0.76512 0.41266 0.0
H1412 H 0.2265 0.74389 0.24381 0.0
H1413 H 0.25328 0.81264 0.30722 0.0
H1414 H 0.22266 0.76678 0.42454 0.0
H1415 H 0.18618 0.76961 0.38726 0.0
C1416 C 0.19387 0.74512 0.34299 0.0
C1417 C 0.20741 0.73738 0.3086 0.0
C1418 C 0.22926 0.77749 0.40029 0.0
C1419 C 0.2075 0.77515 0.32733 0.0
C1420 C 0.24847 0.77643 0.39377 0.0
C1421 C 0.25721 0.78807 0.3562 0.0
C1422 C 0.21901 0.78751 0.36112 0.0
C1423 C 0.24675 0.80266 0.33392 0.0
C1424 C 0.1939 0.76425 0.35283 0.0
C1425 C 0.21675 0.74934 0.27331 0.0
N1426 N 0.2279 0.80141 0.33399 0.0
N1427 N 0.21688 0.76782 0.28417 0.0
H1428 H 0.28632 0.21152 0.23778 0.0
H1429 H 0.21224 0.27303 0.3919 0.0
H1430 H 0.23371 0.19217 0.28678 0.0
H1431 H 0.26087 0.29638 0.32344 0.0
H1432 H 0.22229 0.24192 0.36383 0.0
H1433 H 0.27655 0.2439 0.25331 0.0
C1434 C 0.27233 0.21427 0.25156 0.0
C1435 C 0.2623 0.20057 0.27933 0.0
C1436 C 0.23085 0.25383 0.35398 0.0
C1437 C 0.24982 0.23554 0.28766 0.0
C1438 C 0.2255 0.27149 0.37157 0.0
C1439 C 0.23351 0.28657 0.34441 0.0
C1440 C 0.24634 0.25248 0.31911 0.0
C1441 C 0.25245 0.28437 0.33303 0.0
C1442 C 0.26691 0.23266 0.26103 0.0
C1443 C 0.24312 0.20358 0.27896 0.0
N1444 N 0.25788 0.26745 0.31413 0.0
N1445 N 0.23743 0.22117 0.29028 0.0
H1446 H 0.30332 0.73682 0.76933 0.0
H1447 H 0.2331 0.77654 0.71643 0.0
H1448 H 0.26543 0.74705 0.90089 0.0
H1449 H 0.2415 0.81957 0.8344 0.0
H1450 H 0.26639 0.77194 0.71143 0.0
H1451 H 0.30251 0.76968 0.74596 0.0
C1452 C 0.29592 0.74615 0.79605 0.0
C1453 C 0.28333 0.73913 0.8346 0.0
C1454 C 0.26123 0.78317 0.73668 0.0
C1455 C 0.28282 0.77662 0.80937 0.0
C1456 C 0.24203 0.78589 0.73901 0.0
C1457 C 0.23464 0.79695 0.78048 0.0
C1458 C 0.27228 0.79068 0.77863 0.0
C1459 C 0.24684 0.80949 0.80564 0.0
C1460 C 0.29546 0.765 0.7824 0.0
C1461 C 0.27461 0.75186 0.869 0.0
N1462 N 0.2652 0.80509 0.80799 0.0
N1463 N 0.27403 0.77006 0.85457 0.0
H1464 H 0.48232 0.05664 0.53671 0.0
H1465 H 0.51046 0.98274 0.4819 0.0
H1466 H 0.48396 0.01463 0.66059 0.0
H1467 H 0.55477 0.98285 0.59862 0.0
H1468 H 0.51067 0.01641 0.48244 0.0
H1469 H 0.51558 0.05263 0.52211 0.0
C1470 C 0.48993 0.04762 0.56399 0.0
C1471 C 0.48036 0.03482 0.59668 0.0
C1472 C 0.52112 0.00924 0.50626 0.0
C1473 C 0.51806 0.03053 0.5814 0.0
C1474 C 0.52097 0.98985 0.50555 0.0
C1475 C 0.53168 0.98008 0.5433 0.0
C1476 C 0.5303 0.01836 0.54934 0.0
C1477 C 0.54531 0.99004 0.57187 0.0
C1478 C 0.50899 0.04534 0.55547 0.0
C1479 C 0.4908 0.02393 0.63238 0.0
N1480 N 0.54344 0.00874 0.57747 0.0
N1481 N 0.50921 0.02163 0.62289 0.0
H1482 H 0.01871 0.98563 0.17349 0.0
H1483 H 0.98416 0.05348 0.1168 0.0
H1484 H 0.06306 0.98891 0.05742 0.0
H1485 H 0.99575 0.01485 0.98787 0.0
H1486 H 0.0169 0.05367 0.14098 0.0
H1487 H 0.01888 0.01921 0.1807 0.0
C1488 C 0.02922 0.99336 0.15151 0.0
C1489 C 0.03962 0.98472 0.11071 0.0
C1490 C 0.01253 0.04621 0.10492 0.0
C1491 C 0.0379 0.02284 0.11283 0.0
C1492 C 0.99371 0.046 0.09102 0.0
C1493 C 0.98712 0.03303 0.05289 0.0
C1494 C 0.02447 0.03343 0.07969 0.0
C1495 C 0.0002 0.02429 0.0196 0.0
C1496 C 0.02929 0.01274 0.15509 0.0
C1497 C 0.05352 0.99538 0.08564 0.0
N1498 N 0.01832 0.02427 0.0346 0.0
N1499 N 0.05163 0.01418 0.08434 0.0
H1500 H 0.4757 0.98984 0.97309 0.0
H1501 H 0.50477 0.05646 0.04007 0.0
H1502 H 0.43025 0.9869 0.08565 0.0
H1503 H 0.49431 0.01572 0.16391 0.0
H1504 H 0.47191 0.05656 0.01699 0.0
H1505 H 0.47251 0.02334 0.97144 0.0
C1506 C 0.4644 0.99616 0.99558 0.0
C1507 C 0.45444 0.9858 0.03376 0.0
C1508 C 0.47652 0.04857 0.05182 0.0
C1509 C 0.45284 0.02392 0.03858 0.0
C1510 C 0.49539 0.04842 0.06495 0.0
C1511 C 0.50233 0.03488 0.10072 0.0
C1512 C 0.46505 0.03488 0.07464 0.0
C1513 C 0.48956 0.02555 0.1336 0.0
C1514 C 0.46257 0.01549 0.99523 0.0
C1515 C 0.43952 0.99471 0.05974 0.0
N1516 N 0.47142 0.02529 0.11873 0.0
N1517 N 0.43971 0.01354 0.0644 0.0
H1518 H 0.96945 0.95224 0.65816 0.0
H1519 H 0.0349 0.02077 0.49931 0.0
H1520 H 0.95928 0.00854 0.62738 0.0
H1521 H 0.06034 0.9774 0.58871 0.0
H1522 H 0.00419 0.00811 0.52068 0.0
H1523 H 0.00277 0.956 0.63172 0.0
C1524 C 0.97452 0.96545 0.64425 0.0
C1525 C 0.96204 0.97875 0.62471 0.0
C1526 C 0.01648 0.00115 0.53588 0.0
C1527 C -0.00153 0.98477 0.60743 0.0
C1528 C 0.03403 0.00801 0.52258 0.0
C1529 C 0.04855 0.00276 0.55706 0.0
C1530 C 0.01539 0.9869 0.57515 0.0
C1531 C 0.04795 0.98403 0.57302 0.0
C1532 C 0.99323 0.9676 0.62973 0.0
C1533 C 0.96881 -0.00309 0.62869 0.0
N1534 N 0.03109 0.9773 0.58846 0.0
N1535 N 0.9867 -0.00041 0.61287 0.0
H1536 H 0.00391 0.43781 0.96892 0.0
H1537 H 0.94263 0.42287 0.75861 0.0
H1538 H 0.03001 0.38641 0.92226 0.0
H1539 H 0.99202 0.39986 0.68628 0.0
H1540 H 0.95596 0.4175 0.84913 0.0
H1541 H 0.98052 0.4331 0.89816 0.0
C1542 C 0.00428 0.4252 0.94554 0.0
C1543 C 0.01894 0.41257 0.95218 0.0
C1544 C 0.96362 0.41308 0.81349 0.0
C1545 C 0.99252 0.40715 0.86949 0.0
C1546 C 0.95584 0.41571 0.76185 0.0
C1547 C 0.96621 0.41166 0.71492 0.0
C1548 C 0.98181 0.40616 0.81796 0.0
C1549 C 0.9835 0.40297 0.72143 0.0
C1550 C 0.99096 0.4225 0.90471 0.0
C1551 C 0.01908 0.39668 0.91862 0.0
N1552 N 0.99086 0.40071 0.77198 0.0
N1553 N 0.00642 0.39468 0.878 0.0
H1554 H 0.82404 0.69643 0.01717 0.0
H1555 H 0.83806 0.79971 0.11708 0.0
H1556 H 0.84011 0.74195 0.91396 0.0
H1557 H 0.82761 0.75452 0.22854 0.0
H1558 H 0.84379 0.77745 0.04527 0.0
H1559 H 0.83149 0.71534 0.09722 0.0
C1560 C 0.83023 0.71002 0.01135 0.0
C1561 C 0.83163 0.71762 0.95892 0.0
C1562 C 0.84055 0.77227 0.08551 0.0
C1563 C 0.83932 0.73964 0.05003 0.0
C1564 C 0.83719 0.78505 0.12683 0.0
C1565 C 0.83213 0.77906 0.17918 0.0
C1566 C 0.83877 0.75318 0.09591 0.0
C1567 C 0.83134 0.75981 0.18881 0.0
C1568 C 0.83411 0.72096 0.0571 0.0
C1569 C 0.83907 0.7355 0.95364 0.0
N1570 N 0.83437 0.74755 0.14736 0.0
N1571 N 0.84225 0.74603 0.99855 0.0
H1572 H 0.50077 0.59465 0.19304 0.0
H1573 H 0.4773 0.60791 0.48687 0.0
H1574 H 0.54952 0.57654 0.27936 0.0
H1575 H 0.46845 0.55285 0.42319 0.0
H1576 H 0.50007 0.61367 0.41322 0.0
H1577 H 0.48483 0.59911 0.28025 0.0
C1578 C 0.50856 0.59282 0.23039 0.0
C1579 C 0.52663 0.58548 0.22878 0.0
C1580 C 0.49347 0.6002 0.41662 0.0
C1581 C 0.50817 0.5898 0.32846 0.0
C1582 C 0.48064 0.59684 0.45864 0.0
C1583 C 0.47151 0.5796 0.46236 0.0
C1584 C 0.49686 0.58632 0.37777 0.0
C1585 C 0.47574 0.56601 0.42327 0.0
C1586 C 0.49932 0.59504 0.28008 0.0
C1587 C 0.53574 0.58258 0.27872 0.0
N1588 N 0.48797 0.5697 0.38246 0.0
N1589 N 0.52621 0.5841 0.32655 0.0
H1590 H 0.67656 0.23988 0.73202 0.0
H1591 H 0.64594 0.25197 0.43224 0.0
H1592 H 0.629 0.21081 0.66723 0.0
H1593 H 0.67392 0.29614 0.51717 0.0
H1594 H 0.63682 0.23853 0.5197 0.0
H1595 H 0.67404 0.26236 0.65749 0.0
C1596 C 0.6653 0.23846 0.7031 0.0
C1597 C 0.65315 0.2232 0.70571 0.0
C1598 C 0.64438 0.25154 0.51939 0.0
C1599 C 0.65043 0.24872 0.61965 0.0
C1600 C 0.64933 0.25934 0.46936 0.0
C1601 C 0.66037 0.27535 0.46758 0.0
C1602 C 0.65118 0.2594 0.56785 0.0
C1603 C 0.66504 0.28398 0.51696 0.0
C1604 C 0.66389 0.2513 0.66043 0.0
C1605 C 0.63887 0.22214 0.66671 0.0
N1606 N 0.66091 0.27562 0.56513 0.0
N1607 N 0.63817 0.23444 0.6248 0.0
H1608 H 0.94512 0.57463 0.89764 0.0
H1609 H 0.01098 0.55191 0.6937 0.0
H1610 H -0.0005 0.58514 0.96406 0.0
H1611 H 0.02284 0.61051 0.70454 0.0
H1612 H 0.98918 0.5551 0.7696 0.0
H1613 H 0.95764 0.57984 0.80574 0.0
C1614 C 0.95942 0.57908 0.89313 0.0
C1615 C 0.97129 0.57972 0.93844 0.0
C1616 C 0.99609 0.56734 0.75382 0.0
C1617 C 0.98551 0.58549 0.83423 0.0
C1618 C 0.00831 0.56558 0.70989 0.0
C1619 C 0.01849 0.58098 0.6916 0.0
C1620 C 0.99445 0.58451 0.78046 0.0
C1621 C 0.01527 0.59824 0.71709 0.0
C1622 C 0.96655 0.58174 0.84078 0.0
C1623 C 0.98988 0.58481 0.93022 0.0
N1624 N 0.00394 0.59943 0.76125 0.0
N1625 N -0.00351 0.58736 0.87895 0.0
H1626 H 0.66536 0.69396 0.14906 0.0
H1627 H 0.69522 0.76287 0.94047 0.0
H1628 H 0.68769 0.74554 0.2095 0.0
H1629 H 0.63727 0.7741 0.97 0.0
H1630 H 0.69519 0.74115 0.0171 0.0
H1631 H 0.65653 0.70999 0.06386 0.0
C1632 C 0.66764 0.70879 0.14526 0.0
C1633 C 0.67706 0.71858 0.18619 0.0
C1634 C 0.68234 0.74788 1.00525 0.0
C1635 C 0.6675 0.73656 0.0898 0.0
C1636 C 0.68226 0.76003 0.96102 0.0
C1637 C 0.66615 0.77004 0.94803 0.0
C1638 C 0.66623 0.74573 0.03655 0.0
C1639 C 0.64996 0.76654 0.97847 0.0
C1640 C 0.6628 0.7178 0.09673 0.0
C1641 C 0.6803 0.73762 0.1789 0.0
N1642 N 0.65046 0.7549 0.02211 0.0
N1643 N 0.67578 0.74596 0.1312 0.0
H1644 H 0.49991 0.40638 0.47994 0.0
H1645 H 0.48863 0.43168 0.17382 0.0
H1646 H 0.54681 0.42529 0.38658 0.0
H1647 H 0.45412 0.39059 0.25135 0.0
H1648 H 0.51139 0.42813 0.24764 0.0
H1649 H 0.48392 0.39835 0.39519 0.0
C1650 C 0.50717 0.40801 0.44164 0.0
C1651 C 0.52486 0.41608 0.44028 0.0
C1652 C 0.49901 0.41959 0.24771 0.0
C1653 C 0.50618 0.40821 0.34288 0.0
C1654 C 0.48605 0.42159 0.20534 0.0
C1655 C 0.46924 0.41176 0.20667 0.0
C1656 C 0.49499 0.40778 0.29187 0.0
C1657 C 0.46668 0.39882 0.24902 0.0
C1658 C 0.49796 0.4037 0.39313 0.0
C1659 C 0.53334 0.41867 0.38932 0.0
N1660 N 0.47915 0.3975 0.29028 0.0
N1661 N 0.52376 0.41522 0.3426 0.0
H1662 H 0.79494 0.29999 0.6055 0.0
H1663 H 0.84383 0.20622 0.51664 0.0
H1664 H 0.83054 0.26851 0.71227 0.0
H1665 H 0.81665 0.24297 0.4037 0.0
H1666 H 0.84227 0.23036 0.58576 0.0
H1667 H 0.8054 0.28108 0.52899 0.0
C1668 C 0.80526 0.28929 0.61255 0.0
C1669 C 0.81184 0.28574 0.6652 0.0
C1670 C 0.83676 0.23326 0.54567 0.0
C1671 C 0.82362 0.26373 0.57799 0.0
C1672 C 0.8377 0.21947 0.50582 0.0
C1673 C 0.82968 0.22228 0.45423 0.0
C1674 C 0.82767 0.25005 0.53418 0.0
C1675 C 0.82211 0.23982 0.44321 0.0
C1676 C 0.81122 0.27847 0.56887 0.0
C1677 C 0.82521 0.27175 0.67221 0.0
N1678 N 0.82101 0.25293 0.48298 0.0
N1679 N 0.83043 0.26102 0.62919 0.0
H1680 H 0.0199 0.58411 0.45549 0.0
H1681 H 0.99057 0.55936 0.15228 0.0
H1682 H 0.0458 0.54151 0.35803 0.0
H1683 H 0.96837 0.60658 0.2391 0.0
H1684 H 0.01388 0.55556 0.22324 0.0
H1685 H 0.00383 0.59552 0.37375 0.0
C1686 C 0.02255 0.57747 0.4167 0.0
C1687 C 0.03397 0.5617 0.4135 0.0
C1688 C 0.00412 0.56697 0.22642 0.0
C1689 C 0.01561 0.57446 0.3204 0.0
C1690 C 0.99083 0.56919 0.18565 0.0
C1691 C 0.97732 0.58319 0.18982 0.0
C1692 C 0.00383 0.57867 0.27225 0.0
C1693 C 0.97843 0.59552 0.23416 0.0
C1694 C 0.01331 0.5839 0.37015 0.0
C1695 C 0.03685 0.55352 0.3624 0.0
N1696 N 0.99122 0.59277 0.27413 0.0
N1697 N 0.02757 0.55984 0.31812 0.0
H1698 H 0.1442 0.25396 0.20966 0.0
H1699 H 0.18334 0.23685 0.92214 0.0
H1700 H 0.17094 0.29898 0.12526 0.0
H1701 H 0.13107 0.21236 0.96961 0.0
H1702 H 0.17936 0.26017 0.9946 0.0
H1703 H 0.13824 0.23882 0.12204 0.0
C1704 C 0.14789 0.26116 0.17251 0.0
C1705 C 0.15773 0.27796 0.17482 0.0
C1706 C 0.16861 0.24989 0.98815 0.0
C1707 C 0.15235 0.25999 0.07461 0.0
C1708 C 0.17084 0.23661 0.94662 0.0
C1709 C 0.15768 0.22236 0.93985 0.0
C1710 C 0.1533 0.24872 0.0237 0.0
C1711 C 0.1418 0.2228 0.9735 0.0
C1712 C 0.14483 0.25234 0.12246 0.0
C1713 C 0.16295 0.28624 0.12523 0.0
N1714 N 0.14028 0.23541 0.01449 0.0
N1715 N 0.16079 0.27691 0.07737 0.0
H1716 H 0.43336 0.41809 0.85563 0.0
H1717 H 0.52071 0.44533 0.72734 0.0
H1718 H 0.48044 0.40616 0.95755 0.0
H1719 H 0.51077 0.38927 0.67306 0.0
H1720 H 0.49736 0.44084 0.79949 0.0
H1721 H 0.45316 0.41419 0.77498 0.0
C1722 C 0.44764 0.41371 0.861 0.0
C1723 C 0.45535 0.41276 0.91346 0.0
C1724 C 0.50002 0.42974 0.77074 0.0
C1725 C 0.4781 0.40928 0.82182 0.0
C1726 C 0.51305 0.43238 0.72914 0.0
C1727 C 0.5173 0.41781 0.6933 0.0
C1728 C 0.49103 0.41252 0.77601 0.0
C1729 C 0.50758 0.40096 0.69919 0.0
C1730 C 0.45897 0.41187 0.81503 0.0
C1731 C 0.47402 0.40736 0.91797 0.0
N1732 N 0.49484 0.39874 0.73978 0.0
N1733 N 0.48499 0.40655 0.87281 0.0
H1734 H 0.35435 0.78378 0.50049 0.0
H1735 H 0.29922 0.69495 0.60262 0.0
H1736 H 0.31341 0.75416 0.40585 0.0
H1737 H 0.33346 0.72896 0.70634 0.0
H1738 H 0.31157 0.71112 0.52322 0.0
H1739 H 0.35381 0.75888 0.56768 0.0
C1740 C 0.34555 0.77184 0.49307 0.0
C1741 C 0.33359 0.77129 0.44785 0.0
C1742 C 0.31671 0.71483 0.56315 0.0
C1743 C 0.33292 0.74272 0.52504 0.0
C1744 C 0.30973 0.70555 0.60841 0.0
C1745 C 0.31519 0.71084 0.66086 0.0
C1746 C 0.32904 0.72972 0.57048 0.0
C1747 C 0.32891 0.72451 0.66643 0.0
C1748 C 0.34524 0.75763 0.53167 0.0
C1749 C 0.32271 0.75533 0.44027 0.0
N1750 N 0.3351 0.73379 0.62172 0.0
N1751 N 0.32241 0.74184 0.47898 0.0
H1752 H 0.0142 0.40765 0.18682 0.0
H1753 H 0.98899 0.42713 0.49533 0.0
H1754 H 0.04691 0.44154 0.29502 0.0
H1755 H 0.9574 0.39024 0.39219 0.0
H1756 H 0.01374 0.42731 0.42764 0.0
H1757 H -0.0031 0.39574 0.26556 0.0
C1758 C 0.01817 0.41205 0.22733 0.0
C1759 C 0.03181 0.42571 0.23468 0.0
C1760 C 0.00154 0.4189 0.42019 0.0
C1761 C 0.01197 0.41256 0.32439 0.0
C1762 C 0.9874 0.41874 0.45904 0.0
C1763 C 0.97091 0.40889 0.44924 0.0
C1764 C -0.00086 0.40934 0.37079 0.0
C1765 C 0.96975 0.39822 0.40138 0.0
C1766 C 0.0082 0.40541 0.27222 0.0
C1767 C 0.0363 0.43115 0.28781 0.0
N1768 N 0.98349 0.39901 0.36351 0.0
N1769 N 0.02622 0.4248 0.33051 0.0
H1770 H 0.31801 0.30231 0.03783 0.0
H1771 H 0.36117 0.21112 0.17282 0.0
H1772 H 0.34047 0.25758 0.94201 0.0
H1773 H 0.31157 0.23726 0.23548 0.0
H1774 H 0.36211 0.23392 0.09969 0.0
H1775 H 0.32488 0.28467 0.12081 0.0
C1776 C 0.32546 0.28926 0.03434 0.0
C1777 C 0.32902 0.28164 0.98266 0.0
C1778 C 0.35118 0.23483 0.12989 0.0
C1779 C 0.33648 0.26109 0.07782 0.0
C1780 C 0.35059 0.22183 0.17213 0.0
C1781 C 0.33605 0.22192 0.21074 0.0
C1782 C 0.33744 0.24852 0.12624 0.0
C1783 C 0.32296 0.23641 0.20689 0.0
C1784 C 0.32894 0.27901 0.08175 0.0
C1785 C 0.33792 0.26425 0.98077 0.0
N1786 N 0.32393 0.24906 0.16534 0.0
N1787 N 0.34122 0.25452 0.02754 0.0
H1788 H 0.53148 0.61146 0.92209 0.0
H1789 H 0.44332 0.55973 0.79574 0.0
H1790 H 0.50416 0.56474 0.99788 0.0
H1791 H 0.48513 0.58594 0.69688 0.0
H1792 H 0.45961 0.57017 0.87759 0.0
H1793 H 0.50886 0.61028 0.84806 0.0
C1794 C 0.52048 0.60122 0.92407 0.0
C1795 C 0.51992 0.58803 0.96643 0.0
C1796 C 0.46493 0.57416 0.83807 0.0
C1797 C 0.49386 0.58679 0.88136 0.0
C1798 C 0.4555 0.56846 0.79138 0.0
C1799 C 0.46274 0.57226 0.73957 0.0
C1800 C 0.48175 0.58382 0.83306 0.0
C1801 C 0.47889 0.58308 0.73606 0.0
C1802 C 0.50764 0.60053 0.88143 0.0
C1803 C 0.50525 0.57516 0.96628 0.0
N1804 N 0.48799 0.58835 0.78228 0.0
N1805 N 0.49291 0.57478 0.92424 0.0
H1806 H 0.17801 0.75538 0.74692 0.0
H1807 H 0.1569 0.7314 0.43968 0.0
H1808 H 0.13505 0.78343 0.65597 0.0
H1809 H 0.18847 0.69586 0.54621 0.0
H1810 H 0.14568 0.74869 0.51953 0.0
H1811 H 0.17949 0.73165 0.67608 0.0
C1812 C 0.16862 0.75636 0.71262 0.0
C1813 C 0.15646 0.7715 0.70746 0.0
C1814 C 0.15465 0.73678 0.52552 0.0
C1815 C 0.15836 0.74453 0.62524 0.0
C1816 C 0.16088 0.72682 0.47999 0.0
C1817 C 0.17365 0.71228 0.48662 0.0
C1818 C 0.1614 0.73216 0.57758 0.0
C1819 C 0.17871 0.70709 0.53956 0.0
C1820 C 0.16948 0.74281 0.67202 0.0
C1821 C 0.14464 0.77201 0.66185 0.0
N1822 N 0.17281 0.71718 0.58286 0.0
N1823 N 0.14613 0.75894 0.62205 0.0
H1824 H 0.44975 0.91797 0.26112 0.0
H1825 H 0.54945 0.89409 0.3793 0.0
H1826 H 0.49671 0.90034 0.16582 0.0
H1827 H 0.50567 0.91908 0.47447 0.0
H1828 H 0.52731 0.88793 0.307 0.0
H1829 H 0.46652 0.90932 0.34417 0.0
C1830 C 0.46317 0.91124 0.25757 0.0
C1831 C 0.47188 0.90976 0.20668 0.0
C1832 C 0.52241 0.89451 0.34393 0.0
C1833 C 0.49139 0.90053 0.30119 0.0
C1834 C 0.5351 0.8981 0.38536 0.0
C1835 C 0.52954 0.90748 0.43276 0.0
C1836 C 0.50394 0.90046 0.34931 0.0
C1837 C 0.51064 0.912 0.43844 0.0
C1838 C 0.47289 0.90666 0.30504 0.0
C1839 C 0.48949 0.90154 0.2043 0.0
N1840 N 0.49857 0.90874 0.39675 0.0
N1841 N 0.4988 0.89755 0.25091 0.0
H1842 H 0.32486 0.19699 0.52671 0.0
H1843 H 0.32132 0.30045 0.61943 0.0
H1844 H 0.33753 0.2434 0.42287 0.0
H1845 H 0.33305 0.25859 0.74057 0.0
H1846 H 0.32716 0.27811 0.54877 0.0
H1847 H 0.32983 0.21689 0.60676 0.0
C1848 C 0.32982 0.21106 0.5208 0.0
C1849 C 0.33095 0.21853 0.468 0.0
C1850 C 0.32871 0.27368 0.59063 0.0
C1851 C 0.33574 0.24155 0.55906 0.0
C1852 C 0.3253 0.28652 0.6315 0.0
C1853 C 0.32674 0.28159 0.68666 0.0
C1854 C 0.33342 0.25536 0.60394 0.0
C1855 C 0.33151 0.26304 0.6988 0.0
C1856 C 0.33231 0.22251 0.56655 0.0
C1857 C 0.33674 0.23701 0.46268 0.0
N1858 N 0.33455 0.25051 0.65766 0.0
N1859 N 0.33851 0.24794 0.50745 0.0
H1860 H 0.96825 0.11062 0.93752 0.0
H1861 H 0.00158 0.08918 0.67896 0.0
H1862 H 0.98778 0.05446 0.95904 0.0
H1863 H 0.05079 0.07123 0.76348 0.0
H1864 H 0.98696 0.0961 0.76693 0.0
H1865 H 0.98932 0.11413 0.86021 0.0
C1866 C 0.97739 0.09918 0.92729 0.0
C1867 C 0.97614 0.0821 0.95517 0.0
C1868 C 0.00122 0.09131 0.76604 0.0
C1869 C 0.00042 0.08627 0.86676 0.0
C1870 C 0.00965 0.08764 0.71589 0.0
C1871 C 0.0276 0.08012 0.71391 0.0
C1872 C 0.01056 0.08671 0.81439 0.0
C1873 C 0.03711 0.07747 0.76326 0.0
C1874 C 0.98933 0.10124 0.88297 0.0
C1875 C 0.98844 0.06789 0.93977 0.0
N1876 N 0.02826 0.08015 0.8116 0.0
N1877 N -3e-05 0.07022 0.89623 0.0
H1878 H 0.1685 0.79897 1.00384 0.0
H1879 H 0.18586 0.73908 0.21834 0.0
H1880 H 0.15389 0.74705 0.92782 0.0
H1881 H 0.13869 0.708 0.16094 0.0
H1882 H 0.18083 0.76175 0.14556 0.0
H1883 H 0.16338 0.78474 0.09339 0.0
C1884 C 0.16325 0.78487 1.00597 0.0
C1885 C 0.16142 0.77417 0.9585 0.0
C1886 C 0.17119 0.75031 0.15014 0.0
C1887 C 0.15615 0.75774 0.06024 0.0
C1888 C 0.1741 0.73737 0.19188 0.0
C1889 C 0.16285 0.72155 0.19586 0.0
C1890 C 0.15699 0.74723 0.11188 0.0
C1891 C 0.14794 0.71984 0.15913 0.0
C1892 C 0.16076 0.77666 0.05703 0.0
C1893 C 0.15522 0.75579 0.96346 0.0
N1894 N 0.14573 0.73224 0.11801 0.0
N1895 N 0.15294 0.7481 0.0135 0.0
H1896 H 0.499 0.0643 0.16301 0.0
H1897 H 0.43482 0.06629 0.36395 0.0
H1898 H 0.53313 0.10003 0.26155 0.0
H1899 H 0.48123 0.08119 0.46541 0.0
H1900 H 0.45188 0.07728 0.28433 0.0
H1901 H 0.47431 0.06683 0.22912 0.0
C1902 C 0.50119 0.07296 0.19788 0.0
C1903 C 0.5184 0.08138 0.20703 0.0
C1904 C 0.45837 0.07826 0.32389 0.0
C1905 C 0.48977 0.0852 0.28321 0.0
C1906 C 0.44848 0.07233 0.36934 0.0
C1907 C 0.45679 0.07273 0.4207 0.0
C1908 C 0.47693 0.08394 0.33001 0.0
C1909 C 0.47444 0.08066 0.42616 0.0
C1910 C 0.48689 0.07471 0.2357 0.0
C1911 C 0.52023 0.09289 0.25304 0.0
N1912 N 0.48414 0.0856 0.38103 0.0
N1913 N 0.50625 0.09415 0.28993 0.0
H1914 H 0.13434 0.28285 0.47879 0.0
H1915 H 0.17175 0.19292 0.63409 0.0
H1916 H 0.18373 0.25386 0.42694 0.0
H1917 H 0.14727 0.24023 0.71389 0.0
H1918 H 0.16683 0.20814 0.5458 0.0
H1919 H 0.13005 0.2601 0.55102 0.0
C1920 C 0.14408 0.27141 0.48164 0.0
C1921 C 0.15964 0.27052 0.447 0.0
C1922 C 0.1619 0.21484 0.58251 0.0
C1923 C 0.15458 0.24419 0.53015 0.0
C1924 C 0.16433 0.20602 0.63288 0.0
C1925 C 0.15966 0.2152 0.68153 0.0
C1926 C 0.15428 0.23278 0.58073 0.0
C1927 C 0.15072 0.23248 0.67751 0.0
C1928 C 0.14159 0.25845 0.52313 0.0
C1929 C 0.17158 0.25517 0.45258 0.0
N1930 N 0.14846 0.24076 0.62812 0.0
N1931 N 0.16895 0.24272 0.49399 0.0
H1932 H 0.04537 0.92607 0.87526 0.0
H1933 H 0.95408 0.88624 0.73371 0.0
H1934 H 0.00083 0.8979 0.95774 0.0
H1935 H 0.98891 0.92732 0.65706 0.0
H1936 H 0.97688 0.88264 0.80512 0.0
H1937 H 0.03049 0.91912 0.78759 0.0
C1938 C 0.03301 0.91748 0.87471 0.0
C1939 C 0.0245 0.9122 0.92383 0.0
C1940 C 0.97964 0.89246 0.77273 0.0
C1941 C 0.00711 0.90471 0.82388 0.0
C1942 C 0.96656 0.89458 0.73144 0.0
C1943 C 0.96885 0.90812 0.69046 0.0
C1944 C 0.9954 0.90383 0.77372 0.0
C1945 C 0.98587 0.91769 0.6894 0.0
C1946 C 0.02434 0.91385 0.8247 0.0
C1947 C 0.00806 0.90185 0.92091 0.0
N1948 N -0.00168 0.9157 0.73113 0.0
N1949 N -0.00015 0.89861 0.87196 0.0
H1950 H 0.34928 0.75527 0.21324 0.0
H1951 H 0.3572 0.71421 0.96308 0.0
H1952 H 0.3176 0.79842 0.13531 0.0
H1953 H 0.30294 0.73834 0.94066 0.0
H1954 H 0.36356 0.73688 0.03448 0.0
H1955 H 0.3543 0.74068 0.12487 0.0
C1956 C 0.34438 0.76229 0.17701 0.0
C1957 C 0.33342 0.77832 0.1815 0.0
C1958 C 0.35033 0.73738 0.01365 0.0
C1959 C 0.33815 0.76116 0.08002 0.0
C1960 C 0.34671 0.72454 0.97245 0.0
C1961 C 0.32939 0.72423 0.94606 0.0
C1962 C 0.33646 0.75 0.02924 0.0
C1963 C 0.31648 0.73811 0.95958 0.0
C1964 C 0.347 0.75382 0.12638 0.0
C1965 C 0.32657 0.78634 0.13336 0.0
N1966 N 0.32017 0.75028 1.00083 0.0
N1967 N 0.3285 0.77736 0.08488 0.0
H1968 H 0.47389 0.04944 0.69712 0.0
H1969 H 0.54963 0.05717 0.86789 0.0
H1970 H 0.47197 0.10913 0.70932 0.0
H1971 H 0.50422 0.07865 0.96325 0.0
H1972 H 0.53328 0.06659 0.78475 0.0
H1973 H 0.49749 0.0487 0.76817 0.0
C1974 C 0.47918 0.06245 0.71247 0.0
C1975 C 0.47169 0.0794 0.69491 0.0
C1976 C 0.52726 0.0698 0.82403 0.0
C1977 C 0.49754 0.07855 0.77957 0.0
C1978 C 0.53656 0.06455 0.87126 0.0
C1979 C 0.52826 0.06726 0.92215 0.0
C1980 C 0.50953 0.07769 0.82793 0.0
C1981 C 0.51115 0.07658 0.92465 0.0
C1982 C 0.4923 0.06198 0.75398 0.0
C1983 C 0.47772 0.09579 0.72076 0.0
N1984 N 0.50211 0.08119 0.87788 0.0
N1985 N 0.49013 0.09495 0.76259 0.0
H1986 H 0.65353 0.70238 0.52007 0.0
H1987 H 0.69447 0.79939 0.60271 0.0
H1988 H 0.66757 0.74332 0.39937 0.0
H1989 H 0.66022 0.76738 0.71178 0.0
H1990 H 0.68387 0.78013 0.52688 0.0
H1991 H 0.65464 0.72643 0.59008 0.0
C1992 C 0.6568 0.71651 0.50821 0.0
C1993 C 0.66133 0.72073 0.45405 0.0
C1994 C 0.67831 0.77757 0.56711 0.0
C1995 C 0.66285 0.74836 0.53428 0.0
C1996 C 0.68431 0.7886 0.61038 0.0
C1997 C 0.67824 0.78494 0.66357 0.0
C1998 C 0.66648 0.76246 0.57726 0.0
C1999 C 0.66517 0.77074 0.67137 0.0
C2000 C 0.65745 0.73024 0.54827 0.0
C2001 C 0.66531 0.73925 0.44103 0.0
N2002 N 0.66003 0.75974 0.62885 0.0
N2003 N 0.6663 0.75236 0.48097 0.0
H2004 H 0.03088 0.88145 0.224 0.0
H2005 H 0.94177 0.92551 0.36791 0.0
H2006 H 0.00203 0.92936 0.16012 0.0
H2007 H 0.98822 0.90335 0.45704 0.0
H2008 H 0.95732 0.91722 0.28241 0.0
H2009 H 0.00887 0.8803 0.29933 0.0
C2010 C 0.01967 0.89149 0.22483 0.0
C2011 C 0.01853 0.90571 0.18552 0.0
C2012 C 0.96377 0.91353 0.3207 0.0
C2013 C 0.99307 0.90416 0.27206 0.0
C2014 C 0.95476 0.91789 0.36949 0.0
C2015 C 0.96355 0.9147 0.4196 0.0
C2016 C 0.98158 0.90564 0.32212 0.0
C2017 C 0.98077 0.9056 0.41935 0.0
C2018 C 0.00716 0.89081 0.26819 0.0
C2019 C 0.00357 0.91821 0.18934 0.0
N2020 N 0.9893 0.90149 0.37133 0.0
N2021 N 0.9915 0.91723 0.23208 0.0
H2022 H 0.80022 0.2804 0.97356 0.0
H2023 H 0.81105 0.1912 0.11484 0.0
H2024 H 0.85322 0.25793 0.92468 0.0
H2025 H 0.82384 0.23901 0.21349 0.0
H2026 H 0.8199 0.20903 0.03328 0.0
H2027 H 0.79991 0.25908 0.05122 0.0
C2028 C 0.81152 0.27057 0.97827 0.0
C2029 C 0.82662 0.27064 0.94218 0.0
C2030 C 0.82135 0.21531 0.0731 0.0
C2031 C 0.82626 0.24636 0.03063 0.0
C2032 C 0.81644 0.20517 0.11947 0.0
C2033 C 0.81688 0.21361 0.17088 0.0
C2034 C 0.82615 0.23408 0.07845 0.0
C2035 C 0.82341 0.23193 0.17476 0.0
C2036 C 0.81141 0.25864 0.0228 0.0
C2037 C 0.84125 0.25808 0.95132 0.0
N2038 N 0.82728 0.24177 0.12892 0.0
N2039 N 0.84065 0.24623 0.99464 0.0
H2040 H 0.54675 0.92026 0.75685 0.0
H2041 H 0.46357 0.87833 0.93254 0.0
H2042 H 0.50237 0.88712 0.6909 0.0
H2043 H 0.4894 0.93108 0.96841 0.0
H2044 H 0.48579 0.87357 0.85905 0.0
H2045 H 0.53389 0.91575 0.84833 0.0
C2046 C 0.53496 0.91106 0.76199 0.0
C2047 C 0.5257 0.90386 0.71629 0.0
C2048 C 0.48683 0.886 0.88376 0.0
C2049 C 0.51078 0.89894 0.82048 0.0
C2050 C 0.47416 0.88877 0.9259 0.0
C2051 C 0.47431 0.90535 0.95636 0.0
C2052 C 0.5 0.89974 0.87199 0.0
C2053 C 0.48861 0.91817 0.94591 0.0
C2054 C 0.52742 0.90884 0.81408 0.0
C2055 C 0.51007 0.89265 0.72507 0.0
N2056 N 0.50073 0.91522 0.90407 0.0
N2057 N 0.50298 0.89071 0.77606 0.0
H2058 H 0.82028 0.79307 0.51112 0.0
H2059 H 0.86293 0.70671 0.67322 0.0
H2060 H 0.85397 0.7504 0.43808 0.0
H2061 H 0.81204 0.7341 0.72041 0.0
H2062 H 0.86692 0.72937 0.60052 0.0
H2063 H 0.82503 0.77857 0.60043 0.0
C2064 C 0.82964 0.78131 0.51433 0.0
C2065 C 0.83697 0.77307 0.46709 0.0
C2066 C 0.85506 0.73063 0.62737 0.0
C2067 C 0.84206 0.75614 0.56893 0.0
C2068 C 0.85273 0.7177 0.66916 0.0
C2069 C 0.83694 0.71823 0.70294 0.0
C2070 C 0.84164 0.74447 0.6191 0.0
C2071 C 0.82438 0.73301 0.69543 0.0
C2072 C 0.83198 0.77281 0.56518 0.0
C2073 C 0.84835 0.75739 0.47344 0.0
N2074 N 0.82689 0.74541 0.65396 0.0
N2075 N 0.85037 0.74932 0.52321 0.0
H2076 H 0.02554 0.10331 0.42167 0.0
H2077 H 0.94687 0.03972 0.29014 0.0
H2078 H 0.00815 0.05046 0.48751 0.0
H2079 H 0.97655 0.08193 0.20106 0.0
H2080 H 0.96271 0.04928 0.37323 0.0
H2081 H 0.00137 0.10098 0.35266 0.0
C2082 C 0.01638 0.09138 0.42253 0.0
C2083 C 0.01917 0.07687 0.46017 0.0
C2084 C 0.96556 0.05668 0.33579 0.0
C2085 C 0.99133 0.07425 0.38081 0.0
C2086 C 0.95649 0.05128 0.28835 0.0
C2087 C 0.96064 0.05988 0.23855 0.0
C2088 C 0.97893 0.07079 0.33361 0.0
C2089 C 0.97298 0.07494 0.23862 0.0
C2090 C 0.00262 0.09007 0.3828 0.0
C2091 C 0.00665 0.06193 0.45933 0.0
N2092 N 0.98195 0.07975 0.2854 0.0
N2093 N 0.99343 0.0609 0.41979 0.0
H2094 H 0.64518 0.24276 0.93265 0.0
H2095 H 0.67544 0.2542 0.23531 0.0
H2096 H 0.67048 0.19793 0.02171 0.0
H2097 H 0.63385 0.28917 0.16081 0.0
H2098 H 0.67092 0.23147 0.16222 0.0
H2099 H 0.63696 0.25772 0.01867 0.0
C2100 C 0.6481 0.23559 0.97044 0.0
C2101 C 0.65822 0.21896 0.97014 0.0
C2102 C 0.66251 0.24395 0.16258 0.0
C2103 C 0.6501 0.23659 0.06889 0.0
C2104 C 0.66508 0.25695 0.20442 0.0
C2105 C 0.65524 0.27384 0.20407 0.0
C2106 C 0.65022 0.24795 0.11964 0.0
C2107 C 0.64197 0.27652 0.16273 0.0
C2108 C 0.64371 0.24428 0.01969 0.0
C2109 C 0.66233 0.21059 0.02033 0.0
N2110 N 0.64013 0.26394 0.12181 0.0
N2111 N 0.65875 0.21974 0.06769 0.0
H2112 H 0.08666 0.50987 0.67627 0.0
H2113 H 0.071 0.49162 0.98391 0.0
H2114 H 0.08565 0.55502 0.79216 0.0
H2115 H 0.09854 0.45146 0.88074 0.0
H2116 H 0.07715 0.51555 0.91562 0.0
H2117 H 0.09198 0.48816 0.75114 0.0
C2118 C 0.08782 0.51521 0.71734 0.0
C2119 C 0.08548 0.53417 0.72825 0.0
C2120 C 0.08213 0.50154 0.90862 0.0
C2121 C 0.09124 0.50957 0.8136 0.0
C2122 C 0.07854 0.48788 0.94738 0.0
C2123 C 0.08385 0.46945 0.9374 0.0
C2124 C 0.09077 0.49656 0.85952 0.0
C2125 C 0.09384 0.46543 0.88972 0.0
C2126 C 0.09094 0.50288 0.75994 0.0
C2127 C 0.08728 0.54046 0.78206 0.0
N2128 N 0.09665 0.47882 0.85201 0.0
N2129 N 0.08968 0.52811 0.82301 0.0
H2130 H 0.70146 0.85773 0.0104 0.0
H2131 H 0.77065 0.7997 0.1902 0.0
H2132 H 0.73234 0.81067 0.94921 0.0
H2133 H 0.76795 0.85921 0.21116 0.0
H2134 H 0.75058 0.80232 0.11098 0.0
H2135 H 0.72162 0.85821 0.0909 0.0
C2136 C 0.7127 0.84776 0.01338 0.0
C2137 C 0.71519 0.83405 0.97334 0.0
C2138 C 0.7542 0.81478 0.13336 0.0
C2139 C 0.73764 0.83421 0.0654 0.0
C2140 C 0.76533 0.81326 0.17924 0.0
C2141 C 0.77079 0.82926 0.20759 0.0
C2142 C 0.74831 0.83237 0.11604 0.0
C2143 C 0.76396 0.84657 0.19034 0.0
C2144 C 0.72408 0.84802 0.05928 0.0
C2145 C 0.72994 0.82148 0.97903 0.0
N2146 N 0.753 0.8477 0.14543 0.0
N2147 N 0.7404 0.82164 0.02483 0.0
H2148 H 0.44176 0.52395 0.43426 0.0
H2149 H 0.38292 0.46821 0.21844 0.0
H2150 H 0.38242 0.53093 0.42253 0.0
H2151 H 0.44064 0.48195 0.19356 0.0
H2152 H 0.38187 0.48991 0.29482 0.0
H2153 H 0.44138 0.50599 0.34985 0.0
C2154 C 0.42858 0.52119 0.41457 0.0
C2155 C 0.41202 0.52849 0.43558 0.0
C2156 C 0.39465 0.48846 0.27192 0.0
C2157 C 0.41151 0.50837 0.33892 0.0
C2158 C 0.39524 0.47618 0.22821 0.0
C2159 C 0.41194 0.47322 0.19995 0.0
C2160 C 0.41094 0.49757 0.28796 0.0
C2161 C 0.42749 0.48385 0.21422 0.0
C2162 C 0.42841 0.51128 0.36599 0.0
C2163 C 0.39539 0.52522 0.40772 0.0
N2164 N 0.42672 0.49533 0.25804 0.0
N2165 N 0.39551 0.5152 0.36085 0.0
H2166 H 0.79677 0.151 0.53557 0.0
H2167 H 0.69046 0.16514 0.61368 0.0
H2168 H 0.7543 0.16893 0.42296 0.0
H2169 H 0.7341 0.16378 0.73406 0.0
H2170 H 0.71329 0.16023 0.54288 0.0
H2171 H 0.7734 0.14928 0.60731 0.0
C2172 C 0.78248 0.15426 0.5256 0.0
C2173 C 0.7775 0.16031 0.47323 0.0
C2174 C 0.71794 0.16098 0.58472 0.0
C2175 C 0.75084 0.15842 0.55519 0.0
C2176 C 0.7049 0.16371 0.62535 0.0
C2177 C 0.71045 0.16513 0.67992 0.0
C2178 C 0.73674 0.15959 0.59845 0.0
C2179 C 0.72934 0.16324 0.69241 0.0
C2180 C 0.76921 0.15339 0.56674 0.0
C2181 C 0.7588 0.16436 0.46279 0.0
N2182 N 0.74191 0.16061 0.65176 0.0
N2183 N 0.74617 0.16344 0.50356 0.0
H2184 H 0.90904 0.44653 0.36058 0.0
H2185 H 0.91841 0.55426 0.29493 0.0
H2186 H 0.91254 0.48873 0.48468 0.0
H2187 H 0.91104 0.51201 0.17199 0.0
H2188 H 0.91392 0.5309 0.36499 0.0
H2189 H 0.90698 0.47059 0.29174 0.0
C2190 C 0.90926 0.46092 0.37351 0.0
C2191 C 0.91154 0.46568 0.4285 0.0
C2192 C 0.91315 0.52673 0.32273 0.0
C2193 C 0.90936 0.49338 0.34941 0.0
C2194 C 0.91569 0.54008 0.28252 0.0
C2195 C 0.91537 0.53504 0.22731 0.0
C2196 C 0.91028 0.50816 0.30778 0.0
C2197 C 0.91175 0.51645 0.21395 0.0
C2198 C 0.90816 0.47467 0.334 0.0
C2199 C 0.91168 0.48452 0.44266 0.0
N2200 N 0.90949 0.50364 0.25398 0.0
N2201 N 0.91079 0.49774 0.40324 0.0
H2202 H 0.23806 0.16527 0.9146 0.0
H2203 H 0.26009 0.16325 0.23437 0.0
H2204 H 0.19624 0.16292 0.04026 0.0
H2205 H 0.30257 0.16269 0.11028 0.0
H2206 H 0.23647 0.16204 0.16305 0.0
H2207 H 0.26211 0.16351 0.9851 0.0
C2208 C 0.23392 0.16448 0.95677 0.0
C2209 C 0.21507 0.16455 0.97128 0.0
C2210 C 0.25098 0.16205 0.15148 0.0
C2211 C 0.24242 0.16216 0.05213 0.0
C2212 C 0.26448 0.16277 0.19227 0.0
C2213 C 0.28338 0.1632 0.1785 0.0
C2214 C 0.2564 0.16181 0.09648 0.0
C2215 C 0.28819 0.16236 0.12305 0.0
C2216 C 0.24763 0.16332 0.99704 0.0
C2217 C 0.21055 0.16292 0.02677 0.0
N2218 N 0.27481 0.16183 0.08417 0.0
N2219 N 0.22407 0.1619 0.06496 0.0
H2220 H 0.58608 0.44499 0.7945 0.0
H2221 H 0.57328 0.55234 0.86525 0.0
H2222 H 0.5818 0.48793 0.67262 0.0
H2223 H 0.58148 0.51 0.98718 0.0
H2224 H 0.57771 0.52915 0.79453 0.0
H2225 H 0.58667 0.46867 0.86479 0.0
C2226 C 0.58541 0.45943 0.78217 0.0
C2227 C 0.58328 0.46438 0.72712 0.0
C2228 C 0.57862 0.52488 0.83667 0.0
C2229 C 0.58373 0.49173 0.80846 0.0
C2230 C 0.57611 0.53813 0.87728 0.0
C2231 C 0.57686 0.53309 0.9325 0.0
C2232 C 0.58194 0.50632 0.851 0.0
C2233 C 0.5804 0.51444 0.9453 0.0
C2234 C 0.58564 0.47297 0.82269 0.0
C2235 C 0.58269 0.48337 0.71434 0.0
N2236 N 0.58277 0.5017 0.90483 0.0
N2237 N 0.58267 0.49634 0.75471 0.0
H2238 H 0.22851 0.84372 0.72335 0.0
H2239 H 0.26615 0.80054 0.45461 0.0
H2240 H 0.1927 0.81297 0.61503 0.0
H2241 H 0.28164 0.85669 0.49282 0.0
H2242 H 0.24184 0.80181 0.52338 0.0
H2243 H 0.25175 0.8458 0.6496 0.0
C2244 C 0.22555 0.83754 0.68412 0.0
C2245 C 0.20866 0.8284 0.67464 0.0
C2246 C 0.25025 0.81403 0.51582 0.0
C2247 C 0.23491 0.83036 0.59206 0.0
C2248 C 0.26365 0.81345 0.4754 0.0
C2249 C 0.27488 0.82888 0.46543 0.0
C2250 C 0.24863 0.82996 0.54814 0.0
C2251 C 0.27278 0.84468 0.49838 0.0
C2252 C 0.23867 0.83881 0.64233 0.0
C2253 C 0.20543 0.82043 0.62353 0.0
N2254 N 0.25989 0.84482 0.53882 0.0
N2255 N 0.21853 0.82142 0.5843 0.0
H2256 H 0.60965 0.97328 0.45887 0.0
H2257 H 0.55571 0.00919 0.19939 0.0
H2258 H 0.55005 0.97117 0.44106 0.0
H2259 H 0.60547 0.03726 0.25335 0.0
H2260 H 0.55726 0.98931 0.27941 0.0
H2261 H 0.6113 0.99312 0.37755 0.0
C2262 C 0.59692 0.97742 0.43871 0.0
C2263 C 0.57967 0.97085 0.45691 0.0
C2264 C 0.56792 -0.00027 0.27333 0.0
C2265 C 0.58155 0.99253 0.36366 0.0
C2266 C 0.5672 0.01092 0.22738 0.0
C2267 C 0.58029 0.02512 0.22033 0.0
C2268 C 0.58195 0.00263 0.31193 0.0
C2269 C 0.59493 0.02664 0.25786 0.0
C2270 C 0.5979 0.98853 0.39233 0.0
C2271 C 0.56358 0.97631 0.42918 0.0
N2272 N 0.5953 0.01559 0.30256 0.0
N2273 N 0.56493 0.98662 0.38336 0.0
H2274 H 0.22555 0.30121 0.4546 0.0
H2275 H 0.27099 0.36413 0.68688 0.0
H2276 H 0.21278 0.35939 0.47371 0.0
H2277 H 0.2672 0.3044 0.69744 0.0
H2278 H 0.25246 0.36322 0.60339 0.0
H2279 H 0.24535 0.30281 0.53554 0.0
C2280 C 0.22744 0.31446 0.47466 0.0
C2281 C 0.21766 0.33024 0.45719 0.0
C2282 C 0.25551 0.35034 0.62436 0.0
C2283 C 0.23975 0.33205 0.5506 0.0
C2284 C 0.26591 0.35088 0.67224 0.0
C2285 C 0.27046 0.33436 0.69948 0.0
C2286 C 0.24996 0.33313 0.60288 0.0
C2287 C 0.26375 0.31751 0.67829 0.0
C2288 C 0.23843 0.31528 0.52148 0.0
C2289 C 0.22016 0.34694 0.48578 0.0
N2290 N 0.25403 0.3173 0.63086 0.0
N2291 N 0.23089 0.3474 0.53118 0.0
H2292 H 0.90995 0.05416 0.85748 0.0
H2293 H 0.89351 0.94983 0.76613 0.0
H2294 H 0.91215 0.00805 0.96969 0.0
H2295 H 0.92242 0.98889 0.66274 0.0
H2296 H 0.89185 0.97333 0.83688 0.0
H2297 H 0.90635 0.03221 0.78223 0.0
C2298 C 0.90931 0.03943 0.8664 0.0
C2299 C 0.91132 0.03286 0.91988 0.0
C2300 C 0.89838 0.97677 0.79849 0.0
C2301 C 0.90711 0.00788 0.8342 0.0
C2302 C 0.89929 0.96343 0.75779 0.0
C2303 C 0.90834 0.96729 0.70836 0.0
C2304 C 0.90626 0.99426 0.78964 0.0
C2305 C 0.91543 0.98525 0.70023 0.0
C2306 C 0.90741 0.02698 0.82342 0.0
C2307 C 0.91067 0.01366 0.92905 0.0
N2308 N 0.9143 -0.00188 0.74071 0.0
N2309 N 0.90856 0.0018 0.88652 0.0
H2310 H 0.23155 0.68648 0.20508 0.0
H2311 H 0.28443 0.63292 0.98238 0.0
H2312 H 0.21014 0.63156 0.17123 0.0
H2313 H 0.25944 0.68647 0.95083 0.0
H2314 H 0.26408 0.62945 0.06218 0.0
H2315 H 0.25135 0.68406 0.12502 0.0
C2316 C 0.2314 0.67369 0.18181 0.0
C2317 C 0.21903 0.65927 0.1942 0.0
C2318 C 0.26294 0.64172 0.03686 0.0
C2319 C 0.24152 0.65658 0.10324 0.0
C2320 C 0.27442 0.64372 0.99159 0.0
C2321 C 0.27369 0.6601 0.96059 0.0
C2322 C 0.25125 0.65642 0.05135 0.0
C2323 C 0.26047 0.67366 0.97376 0.0
C2324 C 0.24251 0.67245 0.13595 0.0
C2325 C 0.21937 0.64304 0.1624 0.0
N2326 N 0.25004 0.67171 0.01912 0.0
N2327 N 0.23044 0.64212 0.11774 0.0
H2328 H 0.41025 0.98614 0.98559 0.0
H2329 H 0.41371 0.00874 0.66836 0.0
H2330 H 0.42231 0.94632 0.85904 0.0
H2331 H 0.40237 0.05047 0.79053 0.0
H2332 H 0.41272 0.98504 0.73833 0.0
H2333 H 0.40439 0.00972 0.91537 0.0
C2334 C 0.41173 0.98243 0.94315 0.0
C2335 C 0.41676 0.96436 0.92784 0.0
C2336 C 0.41024 -0.00065 0.74985 0.0
C2337 C 0.40991 0.99085 0.84809 0.0
C2338 C 0.41071 0.01291 0.70979 0.0
C2339 C 0.40848 0.03166 0.72381 0.0
C2340 C 0.40762 0.00459 0.80433 0.0
C2341 C 0.40444 0.03619 0.77809 0.0
C2342 C 0.40822 0.99577 0.90321 0.0
C2343 C 0.41823 0.96006 0.87248 0.0
N2344 N 0.40442 0.02273 0.81669 0.0
N2345 N 0.41489 0.97323 0.83465 0.0
H2346 H 0.75689 0.65667 0.7388 0.0
H2347 H 0.73391 0.65831 0.42169 0.0
H2348 H 0.7981 0.65824 0.61147 0.0
H2349 H 0.69169 0.65635 0.54649 0.0
H2350 H 0.75758 0.65419 0.49123 0.0
H2351 H 0.73268 0.65294 0.66961 0.0
C2352 C 0.76081 0.65631 0.69637 0.0
C2353 C 0.77942 0.65829 0.68075 0.0
C2354 C 0.74312 0.65444 0.50341 0.0
C2355 C 0.75205 0.65356 0.60172 0.0
C2356 C 0.72958 0.65676 0.46365 0.0
C2357 C 0.71078 0.65788 0.47835 0.0
C2358 C 0.73787 0.65338 0.55832 0.0
C2359 C 0.70602 0.65567 0.53335 0.0
C2360 C 0.74705 0.65397 0.65696 0.0
C2361 C 0.7839 0.65689 0.62538 0.0
N2362 N 0.71951 0.65376 0.57148 0.0
N2363 N 0.77029 0.65481 0.58787 0.0
H2364 H 0.07295 0.94084 0.28766 0.0
H2365 H 0.09229 0.04668 0.3646 0.0
H2366 H 0.0792 0.98448 0.16857 0.0
H2367 H 0.07646 0.00497 0.48205 0.0
H2368 H 0.09225 0.02311 0.29395 0.0
H2369 H 0.07803 0.96337 0.35978 0.0
C2370 C 0.07553 0.95518 0.27657 0.0
C2371 C 0.07563 0.9608 0.22185 0.0
C2372 C 0.08887 0.01908 0.33521 0.0
C2373 C 0.08148 0.98672 0.3047 0.0
C2374 C 0.08898 0.03251 0.3759 0.0
C2375 C 0.08386 0.02793 0.42948 0.0
C2376 C 0.08371 0.00083 0.34799 0.0
C2377 C 0.08001 0.00926 0.44128 0.0
C2378 C 0.07837 0.96804 0.31793 0.0
C2379 C 0.07881 0.97959 0.21014 0.0
N2380 N 0.07982 0.99641 0.40071 0.0
N2381 N 0.08162 0.99191 0.25132 0.0
H2382 H 0.69909 0.32047 0.11728 0.0
H2383 H 0.80555 0.33644 0.04655 0.0
H2384 H 0.73938 0.33374 0.24114 0.0
H2385 H 0.7614 0.33183 0.92821 0.0
H2386 H 0.78224 0.33718 0.11899 0.0
H2387 H 0.72262 0.32479 0.04811 0.0
C2388 C 0.71297 0.32447 0.12973 0.0
C2389 C 0.71737 0.32692 0.18463 0.0
C2390 C 0.77772 0.33624 0.07708 0.0
C2391 C 0.74447 0.33203 0.10564 0.0
C2392 C 0.79099 0.33589 0.0357 0.0
C2393 C 0.78543 0.33372 0.98131 0.0
C2394 C 0.75889 0.33431 0.06366 0.0
C2395 C 0.76639 0.33327 0.96952 0.0
C2396 C 0.72641 0.32696 0.09025 0.0
C2397 C 0.73559 0.33164 0.19899 0.0
N2398 N 0.75385 0.33331 0.01043 0.0
N2399 N 0.74859 0.33412 0.15946 0.0
loop_
_geom_bond_atom_site_label_1
_geom_bond_atom_site_label_2
_geom_bond_distance
_geom_bond_site_symmetry_2
_ccdc_geom_bond_type
O0 Mn1 2.163 . S
O0 C14 1.244 . S
Mn1 O0 2.163 . S
Mn1 O4 2.160 . S
Mn1 O5 2.221 . S
Mn1 O7 2.163 . S
Mn1 O9 2.160 . S
Mn1 O19 2.221 . S
O2 Mn3 2.087 . S
O2 C14 1.256 . S
Mn3 O2 2.087 . S
Mn3 O10 2.089 . S
Mn3 O19 2.290 . S
Mn3 O20 2.251 . S
O4 Mn1 2.160 . S
O4 C15 1.239 1_554 S
O5 Mn1 2.221 . S
O5 Mn6 2.290 1_554 S
O5 C16 1.278 . S
Mn6 O5 2.290 1_556 S
Mn6 O8 2.089 . S
Mn6 O11 2.251 1_556 S
Mn6 O12 2.087 . S
O7 Mn1 2.163 . S
O7 C17 1.244 1_554 S
O8 Mn6 2.089 . S
O8 C15 1.256 . S
O9 Mn1 2.160 . S
O9 C18 1.239 . S
O10 Mn3 2.089 . S
O10 C18 1.256 . S
O11 Mn6 2.251 1_554 S
O11 C16 1.241 . S
O12 Mn6 2.087 . S
O12 C17 1.256 . S
C13 O19 1.278 . S
C13 O20 1.241 . S
C14 O0 1.244 . S
C14 O2 1.256 . S
C15 O4 1.239 1_556 S
C15 O8 1.256 . S
C16 O5 1.278 . S
C16 O11 1.241 . S
C17 O7 1.244 1_556 S
C17 O12 1.256 . S
C18 O9 1.239 . S
C18 O10 1.256 . S
O19 Mn1 2.221 . S
O19 Mn3 2.290 . S
O19 C13 1.278 . S
O20 Mn3 2.251 . S
O20 C13 1.241 . S
O21 Mn22 2.163 . S
O21 C35 1.244 . S
Mn22 O21 2.163 . S
Mn22 O25 2.160 . S
Mn22 O26 2.221 . S
Mn22 O28 2.163 . S
Mn22 O30 2.160 . S
Mn22 O40 2.221 . S
O23 Mn24 2.087 . S
O23 C35 1.256 . S
Mn24 O23 2.087 . S
Mn24 O31 2.089 . S
Mn24 O40 2.290 . S
Mn24 O41 2.251 . S
O25 Mn22 2.160 . S
O25 C36 1.239 . S
O26 Mn22 2.221 . S
O26 Mn27 2.290 . S
O26 C37 1.278 . S
Mn27 O26 2.290 . S
Mn27 O29 2.089 . S
Mn27 O32 2.251 . S
Mn27 O33 2.087 . S
O28 Mn22 2.163 . S
O28 C38 1.244 . S
O29 Mn27 2.089 . S
O29 C36 1.256 . S
O30 Mn22 2.160 . S
O30 C39 1.239 . S
O31 Mn24 2.089 . S
O31 C39 1.256 . S
O32 Mn27 2.251 . S
O32 C37 1.241 . S
O33 Mn27 2.087 . S
O33 C38 1.256 . S
C34 O40 1.278 . S
C34 O41 1.241 . S
C35 O21 1.244 . S
C35 O23 1.256 . S
C36 O25 1.239 . S
C36 O29 1.256 . S
C37 O26 1.278 . S
C37 O32 1.241 . S
C38 O28 1.244 . S
C38 O33 1.256 . S
C39 O30 1.239 . S
C39 O31 1.256 . S
O40 Mn22 2.221 . S
O40 Mn24 2.290 . S
O40 C34 1.278 . S
O41 Mn24 2.251 . S
O41 C34 1.241 . S
O42 Mn43 2.163 . S
O42 C56 1.244 . S
Mn43 O42 2.163 . S
Mn43 O46 2.160 . S
Mn43 O47 2.221 . S
Mn43 O49 2.163 . S
Mn43 O51 2.160 . S
Mn43 O61 2.221 . S
O44 Mn45 2.087 . S
O44 C56 1.256 . S
Mn45 O44 2.087 . S
Mn45 O52 2.089 . S
Mn45 O61 2.290 . S
Mn45 O62 2.251 . S
O46 Mn43 2.160 . S
O46 C57 1.239 . S
O47 Mn43 2.221 . S
O47 Mn48 2.290 . S
O47 C58 1.278 . S
Mn48 O47 2.290 . S
Mn48 O50 2.089 . S
Mn48 O53 2.251 . S
Mn48 O54 2.087 . S
O49 Mn43 2.163 . S
O49 C59 1.244 . S
O50 Mn48 2.089 . S
O50 C57 1.256 . S
O51 Mn43 2.160 . S
O51 C60 1.239 . S
O52 Mn45 2.089 . S
O52 C60 1.256 . S
O53 Mn48 2.251 . S
O53 C58 1.241 . S
O54 Mn48 2.087 . S
O54 C59 1.256 . S
C55 O61 1.278 . S
C55 O62 1.241 . S
C56 O42 1.244 . S
C56 O44 1.256 . S
C57 O46 1.239 . S
C57 O50 1.256 . S
C58 O47 1.278 . S
C58 O53 1.241 . S
C59 O49 1.244 . S
C59 O54 1.256 . S
C60 O51 1.239 . S
C60 O52 1.256 . S
O61 Mn43 2.221 . S
O61 Mn45 2.290 . S
O61 C55 1.278 . S
O62 Mn45 2.251 . S
O62 C55 1.241 . S
O63 Mn64 2.163 . S
O63 C77 1.244 . S
Mn64 O63 2.163 . S
Mn64 O67 2.160 . S
Mn64 O68 2.221 . S
Mn64 O70 2.163 . S
Mn64 O72 2.160 . S
Mn64 O82 2.221 . S
O65 Mn66 2.087 . S
O65 C77 1.256 . S
Mn66 O65 2.087 . S
Mn66 O73 2.089 . S
Mn66 O82 2.290 . S
Mn66 O83 2.251 . S
O67 Mn64 2.160 . S
O67 C78 1.239 . S
O68 Mn64 2.221 . S
O68 Mn69 2.290 . S
O68 C79 1.278 . S
Mn69 O68 2.290 . S
Mn69 O71 2.089 . S
Mn69 O74 2.251 . S
Mn69 O75 2.087 . S
O70 Mn64 2.163 . S
O70 C80 1.244 . S
O71 Mn69 2.089 . S
O71 C78 1.256 . S
O72 Mn64 2.160 . S
O72 C81 1.239 . S
O73 Mn66 2.089 . S
O73 C81 1.256 . S
O74 Mn69 2.251 . S
O74 C79 1.241 . S
O75 Mn69 2.087 . S
O75 C80 1.256 . S
C76 O82 1.278 . S
C76 O83 1.241 . S
C77 O63 1.244 . S
C77 O65 1.256 . S
C78 O67 1.239 . S
C78 O71 1.256 . S
C79 O68 1.278 . S
C79 O74 1.241 . S
C80 O70 1.244 . S
C80 O75 1.256 . S
C81 O72 1.239 . S
C81 O73 1.256 . S
O82 Mn64 2.221 . S
O82 Mn66 2.290 . S
O82 C76 1.278 . S
O83 Mn66 2.251 . S
O83 C76 1.241 . S
O84 Mn85 2.163 . S
O84 C98 1.244 . S
Mn85 O84 2.163 . S
Mn85 O88 2.160 . S
Mn85 O89 2.221 . S
Mn85 O91 2.163 . S
Mn85 O93 2.160 . S
Mn85 O103 2.221 . S
O86 Mn87 2.087 . S
O86 C98 1.256 . S
Mn87 O86 2.087 . S
Mn87 O94 2.089 . S
Mn87 O103 2.290 . S
Mn87 O104 2.251 . S
O88 Mn85 2.160 . S
O88 C99 1.239 . S
O89 Mn85 2.221 . S
O89 Mn90 2.290 . S
O89 C100 1.278 . S
Mn90 O89 2.290 . S
Mn90 O92 2.089 . S
Mn90 O95 2.251 . S
Mn90 O96 2.087 . S
O91 Mn85 2.163 . S
O91 C101 1.244 . S
O92 Mn90 2.089 . S
O92 C99 1.256 . S
O93 Mn85 2.160 . S
O93 C102 1.239 . S
O94 Mn87 2.089 . S
O94 C102 1.256 . S
O95 Mn90 2.251 . S
O95 C100 1.241 . S
O96 Mn90 2.087 . S
O96 C101 1.256 . S
C97 O103 1.278 . S
C97 O104 1.241 . S
C98 O84 1.244 . S
C98 O86 1.256 . S
C99 O88 1.239 . S
C99 O92 1.256 . S
C100 O89 1.278 . S
C100 O95 1.241 . S
C101 O91 1.244 . S
C101 O96 1.256 . S
C102 O93 1.239 . S
C102 O94 1.256 . S
O103 Mn85 2.221 . S
O103 Mn87 2.290 . S
O103 C97 1.278 . S
O104 Mn87 2.251 . S
O104 C97 1.241 . S
O105 Mn106 2.163 . S
O105 C119 1.244 . S
Mn106 O105 2.163 . S
Mn106 O109 2.160 . S
Mn106 O110 2.221 . S
Mn106 O112 2.163 . S
Mn106 O114 2.160 . S
Mn106 O124 2.221 . S
O107 Mn108 2.087 . S
O107 C119 1.256 . S
Mn108 O107 2.087 . S
Mn108 O115 2.089 . S
Mn108 O124 2.290 . S
Mn108 O125 2.251 . S
O109 Mn106 2.160 . S
O109 C120 1.239 . S
O110 Mn106 2.221 . S
O110 Mn111 2.290 . S
O110 C121 1.278 . S
Mn111 O110 2.290 . S
Mn111 O113 2.089 . S
Mn111 O116 2.251 . S
Mn111 O117 2.087 . S
O112 Mn106 2.163 . S
O112 C122 1.244 . S
O113 Mn111 2.089 . S
O113 C120 1.256 . S
O114 Mn106 2.160 . S
O114 C123 1.239 . S
O115 Mn108 2.089 . S
O115 C123 1.256 . S
O116 Mn111 2.251 . S
O116 C121 1.241 . S
O117 Mn111 2.087 . S
O117 C122 1.256 . S
C118 O124 1.278 . S
C118 O125 1.241 . S
C119 O105 1.244 . S
C119 O107 1.256 . S
C120 O109 1.239 . S
C120 O113 1.256 . S
C121 O110 1.278 . S
C121 O116 1.241 . S
C122 O112 1.244 . S
C122 O117 1.256 . S
C123 O114 1.239 . S
C123 O115 1.256 . S
O124 Mn106 2.221 . S
O124 Mn108 2.290 . S
O124 C118 1.278 . S
O125 Mn108 2.251 . S
O125 C118 1.241 . S
O126 Mn127 2.163 1_556 S
O126 C140 1.244 . S
Mn127 O126 2.163 1_554 S
Mn127 O130 2.160 . S
Mn127 O131 2.221 . S
Mn127 O133 2.163 . S
Mn127 O135 2.160 1_554 S
Mn127 O145 2.221 . S
O128 Mn129 2.087 . S
O128 C140 1.256 . S
Mn129 O128 2.087 . S
Mn129 O136 2.089 . S
Mn129 O145 2.290 1_556 S
Mn129 O146 2.251 1_556 S
O130 Mn127 2.160 . S
O130 C141 1.239 . S
O131 Mn127 2.221 . S
O131 Mn132 2.290 . S
O131 C142 1.278 . S
Mn132 O131 2.290 . S
Mn132 O134 2.089 . S
Mn132 O137 2.251 . S
Mn132 O138 2.087 . S
O133 Mn127 2.163 . S
O133 C143 1.244 . S
O134 Mn132 2.089 . S
O134 C141 1.256 . S
O135 Mn127 2.160 1_556 S
O135 C144 1.239 . S
O136 Mn129 2.089 . S
O136 C144 1.256 . S
O137 Mn132 2.251 . S
O137 C142 1.241 . S
O138 Mn132 2.087 . S
O138 C143 1.256 . S
C139 O145 1.278 . S
C139 O146 1.241 . S
C140 O126 1.244 . S
C140 O128 1.256 . S
C141 O130 1.239 . S
C141 O134 1.256 . S
C142 O131 1.278 . S
C142 O137 1.241 . S
C143 O133 1.244 . S
C143 O138 1.256 . S
C144 O135 1.239 . S
C144 O136 1.256 . S
O145 Mn127 2.221 . S
O145 Mn129 2.290 1_554 S
O145 C139 1.278 . S
O146 Mn129 2.251 1_554 S
O146 C139 1.241 . S
O147 Mn148 2.163 . S
O147 C161 1.244 . S
Mn148 O147 2.163 . S
Mn148 O151 2.160 . S
Mn148 O152 2.221 . S
Mn148 O154 2.163 . S
Mn148 O156 2.160 . S
Mn148 O166 2.221 . S
O149 Mn150 2.087 . S
O149 C161 1.256 . S
Mn150 O149 2.087 . S
Mn150 O157 2.089 . S
Mn150 O166 2.290 . S
Mn150 O167 2.251 . S
O151 Mn148 2.160 . S
O151 C162 1.239 . S
O152 Mn148 2.221 . S
O152 Mn153 2.290 . S
O152 C163 1.278 . S
Mn153 O152 2.290 . S
Mn153 O155 2.089 . S
Mn153 O158 2.251 . S
Mn153 O159 2.087 . S
O154 Mn148 2.163 . S
O154 C164 1.244 . S
O155 Mn153 2.089 . S
O155 C162 1.256 . S
O156 Mn148 2.160 . S
O156 C165 1.239 . S
O157 Mn150 2.089 . S
O157 C165 1.256 . S
O158 Mn153 2.251 . S
O158 C163 1.241 . S
O159 Mn153 2.087 . S
O159 C164 1.256 . S
C160 O166 1.278 . S
C160 O167 1.241 . S
C161 O147 1.244 . S
C161 O149 1.256 . S
C162 O151 1.239 . S
C162 O155 1.256 . S
C163 O152 1.278 . S
C163 O158 1.241 . S
C164 O154 1.244 . S
C164 O159 1.256 . S
C165 O156 1.239 . S
C165 O157 1.256 . S
O166 Mn148 2.221 . S
O166 Mn150 2.290 . S
O166 C160 1.278 . S
O167 Mn150 2.251 . S
O167 C160 1.241 . S
O168 Mn169 2.163 . S
O168 C182 1.244 . S
Mn169 O168 2.163 . S
Mn169 O172 2.160 1_554 S
Mn169 O173 2.221 . S
Mn169 O175 2.163 1_554 S
Mn169 O177 2.160 . S
Mn169 O187 2.221 . S
O170 Mn171 2.087 . S
O170 C182 1.256 . S
Mn171 O170 2.087 . S
Mn171 O178 2.089 . S
Mn171 O187 2.290 . S
Mn171 O188 2.251 . S
O172 Mn169 2.160 1_556 S
O172 C183 1.239 . S
O173 Mn169 2.221 . S
O173 Mn174 2.290 1_554 S
O173 C184 1.278 . S
Mn174 O173 2.290 1_556 S
Mn174 O176 2.089 . S
Mn174 O179 2.251 1_556 S
Mn174 O180 2.087 . S
O175 Mn169 2.163 1_556 S
O175 C185 1.244 . S
O176 Mn174 2.089 . S
O176 C183 1.256 . S
O177 Mn169 2.160 . S
O177 C186 1.239 . S
O178 Mn171 2.089 . S
O178 C186 1.256 . S
O179 Mn174 2.251 1_554 S
O179 C184 1.241 . S
O180 Mn174 2.087 . S
O180 C185 1.256 . S
C181 O187 1.278 . S
C181 O188 1.241 . S
C182 O168 1.244 . S
C182 O170 1.256 . S
C183 O172 1.239 . S
C183 O176 1.256 . S
C184 O173 1.278 . S
C184 O179 1.241 . S
C185 O175 1.244 . S
C185 O180 1.256 . S
C186 O177 1.239 . S
C186 O178 1.256 . S
O187 Mn169 2.221 . S
O187 Mn171 2.290 . S
O187 C181 1.278 . S
O188 Mn171 2.251 . S
O188 C181 1.241 . S
O189 Mn190 2.163 . S
O189 C203 1.244 . S
Mn190 O189 2.163 . S
Mn190 O193 2.160 . S
Mn190 O194 2.221 . S
Mn190 O196 2.163 . S
Mn190 O198 2.160 . S
Mn190 O208 2.221 . S
O191 Mn192 2.087 . S
O191 C203 1.256 . S
Mn192 O191 2.087 . S
Mn192 O199 2.089 . S
Mn192 O208 2.290 . S
Mn192 O209 2.251 . S
O193 Mn190 2.160 . S
O193 C204 1.239 . S
O194 Mn190 2.221 . S
O194 Mn195 2.290 . S
O194 C205 1.278 . S
Mn195 O194 2.290 . S
Mn195 O197 2.089 . S
Mn195 O200 2.251 . S
Mn195 O201 2.087 . S
O196 Mn190 2.163 . S
O196 C206 1.244 . S
O197 Mn195 2.089 . S
O197 C204 1.256 . S
O198 Mn190 2.160 . S
O198 C207 1.239 . S
O199 Mn192 2.089 . S
O199 C207 1.256 . S
O200 Mn195 2.251 . S
O200 C205 1.241 . S
O201 Mn195 2.087 . S
O201 C206 1.256 . S
C202 O208 1.278 . S
C202 O209 1.241 . S
C203 O189 1.244 . S
C203 O191 1.256 . S
C204 O193 1.239 . S
C204 O197 1.256 . S
C205 O194 1.278 . S
C205 O200 1.241 . S
C206 O196 1.244 . S
C206 O201 1.256 . S
C207 O198 1.239 . S
C207 O199 1.256 . S
O208 Mn190 2.221 . S
O208 Mn192 2.290 . S
O208 C202 1.278 . S
O209 Mn192 2.251 . S
O209 C202 1.241 . S
O210 Mn211 2.163 . S
O210 C224 1.244 . S
Mn211 O210 2.163 . S
Mn211 O214 2.160 . S
Mn211 O215 2.221 . S
Mn211 O217 2.163 . S
Mn211 O219 2.160 . S
Mn211 O229 2.221 . S
O212 Mn213 2.087 . S
O212 C224 1.256 . S
Mn213 O212 2.087 . S
Mn213 O220 2.089 . S
Mn213 O229 2.290 . S
Mn213 O230 2.251 . S
O214 Mn211 2.160 . S
O214 C225 1.239 . S
O215 Mn211 2.221 . S
O215 Mn216 2.290 . S
O215 C226 1.278 . S
Mn216 O215 2.290 . S
Mn216 O218 2.089 . S
Mn216 O221 2.251 . S
Mn216 O222 2.087 . S
O217 Mn211 2.163 . S
O217 C227 1.244 . S
O218 Mn216 2.089 . S
O218 C225 1.256 . S
O219 Mn211 2.160 . S
O219 C228 1.239 . S
O220 Mn213 2.089 . S
O220 C228 1.256 . S
O221 Mn216 2.251 . S
O221 C226 1.241 . S
O222 Mn216 2.087 . S
O222 C227 1.256 . S
C223 O229 1.278 . S
C223 O230 1.241 . S
C224 O210 1.244 . S
C224 O212 1.256 . S
C225 O214 1.239 . S
C225 O218 1.256 . S
C226 O215 1.278 . S
C226 O221 1.241 . S
C227 O217 1.244 . S
C227 O222 1.256 . S
C228 O219 1.239 . S
C228 O220 1.256 . S
O229 Mn211 2.221 . S
O229 Mn213 2.290 . S
O229 C223 1.278 . S
O230 Mn213 2.251 . S
O230 C223 1.241 . S
O231 Mn232 2.163 . S
O231 C245 1.244 . S
Mn232 O231 2.163 . S
Mn232 O235 2.160 . S
Mn232 O236 2.221 . S
Mn232 O238 2.163 . S
Mn232 O240 2.160 . S
Mn232 O250 2.221 . S
O233 Mn234 2.087 . S
O233 C245 1.256 . S
Mn234 O233 2.087 . S
Mn234 O241 2.089 . S
Mn234 O250 2.290 . S
Mn234 O251 2.251 . S
O235 Mn232 2.160 . S
O235 C246 1.239 . S
O236 Mn232 2.221 . S
O236 Mn237 2.290 . S
O236 C247 1.278 . S
Mn237 O236 2.290 . S
Mn237 O239 2.089 . S
Mn237 O242 2.251 . S
Mn237 O243 2.087 . S
O238 Mn232 2.163 . S
O238 C248 1.244 . S
O239 Mn237 2.089 . S
O239 C246 1.256 . S
O240 Mn232 2.160 . S
O240 C249 1.239 . S
O241 Mn234 2.089 . S
O241 C249 1.256 . S
O242 Mn237 2.251 . S
O242 C247 1.241 . S
O243 Mn237 2.087 . S
O243 C248 1.256 . S
C244 O250 1.278 . S
C244 O251 1.241 . S
C245 O231 1.244 . S
C245 O233 1.256 . S
C246 O235 1.239 . S
C246 O239 1.256 . S
C247 O236 1.278 . S
C247 O242 1.241 . S
C248 O238 1.244 . S
C248 O243 1.256 . S
C249 O240 1.239 . S
C249 O241 1.256 . S
O250 Mn232 2.221 . S
O250 Mn234 2.290 . S
O250 C244 1.278 . S
O251 Mn234 2.251 . S
O251 C244 1.241 . S
O252 Mn253 2.163 . S
O252 C266 1.244 . S
Mn253 O252 2.163 . S
Mn253 O256 2.160 . S
Mn253 O257 2.221 . S
Mn253 O259 2.163 . S
Mn253 O261 2.160 . S
Mn253 O271 2.221 . S
O254 Mn255 2.087 . S
O254 C266 1.256 . S
Mn255 O254 2.087 . S
Mn255 O262 2.089 . S
Mn255 O271 2.290 . S
Mn255 O272 2.251 . S
O256 Mn253 2.160 . S
O256 C267 1.239 . S
O257 Mn253 2.221 . S
O257 Mn258 2.290 . S
O257 C268 1.278 . S
Mn258 O257 2.290 . S
Mn258 O260 2.089 . S
Mn258 O263 2.251 . S
Mn258 O264 2.087 . S
O259 Mn253 2.163 . S
O259 C269 1.244 . S
O260 Mn258 2.089 . S
O260 C267 1.256 . S
O261 Mn253 2.160 . S
O261 C270 1.239 . S
O262 Mn255 2.089 . S
O262 C270 1.256 . S
O263 Mn258 2.251 . S
O263 C268 1.241 . S
O264 Mn258 2.087 . S
O264 C269 1.256 . S
C265 O271 1.278 . S
C265 O272 1.241 . S
C266 O252 1.244 . S
C266 O254 1.256 . S
C267 O256 1.239 . S
C267 O260 1.256 . S
C268 O257 1.278 . S
C268 O263 1.241 . S
C269 O259 1.244 . S
C269 O264 1.256 . S
C270 O261 1.239 . S
C270 O262 1.256 . S
O271 Mn253 2.221 . S
O271 Mn255 2.290 . S
O271 C265 1.278 . S
O272 Mn255 2.251 . S
O272 C265 1.241 . S
O273 Mn274 2.163 . S
O273 C287 1.244 . S
Mn274 O273 2.163 . S
Mn274 O277 2.160 . S
Mn274 O278 2.221 . S
Mn274 O280 2.163 . S
Mn274 O282 2.160 . S
Mn274 O292 2.221 . S
O275 Mn276 2.087 . S
O275 C287 1.256 . S
Mn276 O275 2.087 . S
Mn276 O283 2.089 . S
Mn276 O292 2.290 . S
Mn276 O293 2.251 . S
O277 Mn274 2.160 . S
O277 C288 1.239 . S
O278 Mn274 2.221 . S
O278 Mn279 2.290 . S
O278 C289 1.278 . S
Mn279 O278 2.290 . S
Mn279 O281 2.089 . S
Mn279 O284 2.251 . S
Mn279 O285 2.087 . S
O280 Mn274 2.163 . S
O280 C290 1.244 . S
O281 Mn279 2.089 . S
O281 C288 1.256 . S
O282 Mn274 2.160 . S
O282 C291 1.239 . S
O283 Mn276 2.089 . S
O283 C291 1.256 . S
O284 Mn279 2.251 . S
O284 C289 1.241 . S
O285 Mn279 2.087 . S
O285 C290 1.256 . S
C286 O292 1.278 . S
C286 O293 1.241 . S
C287 O273 1.244 . S
C287 O275 1.256 . S
C288 O277 1.239 . S
C288 O281 1.256 . S
C289 O278 1.278 . S
C289 O284 1.241 . S
C290 O280 1.244 . S
C290 O285 1.256 . S
C291 O282 1.239 . S
C291 O283 1.256 . S
O292 Mn274 2.221 . S
O292 Mn276 2.290 . S
O292 C286 1.278 . S
O293 Mn276 2.251 . S
O293 C286 1.241 . S
O294 Mn295 2.163 . S
O294 C308 1.244 . S
Mn295 O294 2.163 . S
Mn295 O298 2.160 . S
Mn295 O299 2.221 . S
Mn295 O301 2.163 . S
Mn295 O303 2.160 . S
Mn295 O313 2.221 . S
O296 Mn297 2.087 . S
O296 C308 1.256 . S
Mn297 O296 2.087 . S
Mn297 O304 2.089 . S
Mn297 O313 2.290 . S
Mn297 O314 2.251 . S
O298 Mn295 2.160 . S
O298 C309 1.239 1_554 S
O299 Mn295 2.221 . S
O299 Mn300 2.290 1_554 S
O299 C310 1.278 . S
Mn300 O299 2.290 1_556 S
Mn300 O302 2.089 . S
Mn300 O305 2.251 1_556 S
Mn300 O306 2.087 . S
O301 Mn295 2.163 . S
O301 C311 1.244 1_554 S
O302 Mn300 2.089 . S
O302 C309 1.256 . S
O303 Mn295 2.160 . S
O303 C312 1.239 . S
O304 Mn297 2.089 . S
O304 C312 1.256 . S
O305 Mn300 2.251 1_554 S
O305 C310 1.241 . S
O306 Mn300 2.087 . S
O306 C311 1.256 . S
C307 O313 1.278 . S
C307 O314 1.241 . S
C308 O294 1.244 . S
C308 O296 1.256 . S
C309 O298 1.239 1_556 S
C309 O302 1.256 . S
C310 O299 1.278 . S
C310 O305 1.241 . S
C311 O301 1.244 1_556 S
C311 O306 1.256 . S
C312 O303 1.239 . S
C312 O304 1.256 . S
O313 Mn295 2.221 . S
O313 Mn297 2.290 . S
O313 C307 1.278 . S
O314 Mn297 2.251 . S
O314 C307 1.241 . S
O315 Mn316 2.163 . S
O315 C329 1.244 . S
Mn316 O315 2.163 . S
Mn316 O319 2.160 . S
Mn316 O320 2.221 . S
Mn316 O322 2.163 . S
Mn316 O324 2.160 . S
Mn316 O334 2.221 . S
O317 Mn318 2.087 . S
O317 C329 1.256 . S
Mn318 O317 2.087 . S
Mn318 O325 2.089 . S
Mn318 O334 2.290 . S
Mn318 O335 2.251 . S
O319 Mn316 2.160 . S
O319 C330 1.239 . S
O320 Mn316 2.221 . S
O320 Mn321 2.290 . S
O320 C331 1.278 . S
Mn321 O320 2.290 . S
Mn321 O323 2.089 . S
Mn321 O326 2.251 . S
Mn321 O327 2.087 . S
O322 Mn316 2.163 . S
O322 C332 1.244 . S
O323 Mn321 2.089 . S
O323 C330 1.256 . S
O324 Mn316 2.160 . S
O324 C333 1.239 . S
O325 Mn318 2.089 . S
O325 C333 1.256 . S
O326 Mn321 2.251 . S
O326 C331 1.241 . S
O327 Mn321 2.087 . S
O327 C332 1.256 . S
C328 O334 1.278 . S
C328 O335 1.241 . S
C329 O315 1.244 . S
C329 O317 1.256 . S
C330 O319 1.239 . S
C330 O323 1.256 . S
C331 O320 1.278 . S
C331 O326 1.241 . S
C332 O322 1.244 . S
C332 O327 1.256 . S
C333 O324 1.239 . S
C333 O325 1.256 . S
O334 Mn316 2.221 . S
O334 Mn318 2.290 . S
O334 C328 1.278 . S
O335 Mn318 2.251 . S
O335 C328 1.241 . S
O336 Mn337 2.163 . S
O336 C350 1.244 . S
Mn337 O336 2.163 . S
Mn337 O340 2.160 . S
Mn337 O341 2.221 . S
Mn337 O343 2.163 . S
Mn337 O345 2.160 . S
Mn337 O355 2.221 . S
O338 Mn339 2.087 . S
O338 C350 1.256 . S
Mn339 O338 2.087 . S
Mn339 O346 2.089 . S
Mn339 O355 2.290 . S
Mn339 O356 2.251 . S
O340 Mn337 2.160 . S
O340 C351 1.239 . S
O341 Mn337 2.221 . S
O341 Mn342 2.290 . S
O341 C352 1.278 . S
Mn342 O341 2.290 . S
Mn342 O344 2.089 . S
Mn342 O347 2.251 . S
Mn342 O348 2.087 . S
O343 Mn337 2.163 . S
O343 C353 1.244 . S
O344 Mn342 2.089 . S
O344 C351 1.256 . S
O345 Mn337 2.160 . S
O345 C354 1.239 . S
O346 Mn339 2.089 . S
O346 C354 1.256 . S
O347 Mn342 2.251 . S
O347 C352 1.241 . S
O348 Mn342 2.087 . S
O348 C353 1.256 . S
C349 O355 1.278 . S
C349 O356 1.241 . S
C350 O336 1.244 . S
C350 O338 1.256 . S
C351 O340 1.239 . S
C351 O344 1.256 . S
C352 O341 1.278 . S
C352 O347 1.241 . S
C353 O343 1.244 . S
C353 O348 1.256 . S
C354 O345 1.239 . S
C354 O346 1.256 . S
O355 Mn337 2.221 . S
O355 Mn339 2.290 . S
O355 C349 1.278 . S
O356 Mn339 2.251 . S
O356 C349 1.241 . S
O357 Mn358 2.163 . S
O357 C371 1.244 . S
Mn358 O357 2.163 . S
Mn358 O361 2.160 . S
Mn358 O362 2.221 . S
Mn358 O364 2.163 . S
Mn358 O366 2.160 . S
Mn358 O376 2.221 . S
O359 Mn360 2.087 . S
O359 C371 1.256 . S
Mn360 O359 2.087 . S
Mn360 O367 2.089 . S
Mn360 O376 2.290 . S
Mn360 O377 2.251 . S
O361 Mn358 2.160 . S
O361 C372 1.239 . S
O362 Mn358 2.221 . S
O362 Mn363 2.290 . S
O362 C373 1.278 . S
Mn363 O362 2.290 . S
Mn363 O365 2.089 . S
Mn363 O368 2.251 . S
Mn363 O369 2.087 . S
O364 Mn358 2.163 . S
O364 C374 1.244 . S
O365 Mn363 2.089 . S
O365 C372 1.256 . S
O366 Mn358 2.160 . S
O366 C375 1.239 . S
O367 Mn360 2.089 . S
O367 C375 1.256 . S
O368 Mn363 2.251 . S
O368 C373 1.241 . S
O369 Mn363 2.087 . S
O369 C374 1.256 . S
C370 O376 1.278 . S
C370 O377 1.241 . S
C371 O357 1.244 . S
C371 O359 1.256 . S
C372 O361 1.239 . S
C372 O365 1.256 . S
C373 O362 1.278 . S
C373 O368 1.241 . S
C374 O364 1.244 . S
C374 O369 1.256 . S
C375 O366 1.239 . S
C375 O367 1.256 . S
O376 Mn358 2.221 . S
O376 Mn360 2.290 . S
O376 C370 1.278 . S
O377 Mn360 2.251 . S
O377 C370 1.241 . S
O378 Mn379 2.163 . S
O378 C392 1.244 . S
Mn379 O378 2.163 . S
Mn379 O382 2.160 . S
Mn379 O383 2.221 . S
Mn379 O385 2.163 . S
Mn379 O387 2.160 . S
Mn379 O397 2.221 . S
O380 Mn381 2.087 . S
O380 C392 1.256 . S
Mn381 O380 2.087 . S
Mn381 O388 2.089 . S
Mn381 O397 2.290 . S
Mn381 O398 2.251 . S
O382 Mn379 2.160 . S
O382 C393 1.239 1_554 S
O383 Mn379 2.221 . S
O383 Mn384 2.290 1_554 S
O383 C394 1.278 . S
Mn384 O383 2.290 1_556 S
Mn384 O386 2.089 . S
Mn384 O389 2.251 1_556 S
Mn384 O390 2.087 . S
O385 Mn379 2.163 . S
O385 C395 1.244 1_554 S
O386 Mn384 2.089 . S
O386 C393 1.256 . S
O387 Mn379 2.160 . S
O387 C396 1.239 . S
O388 Mn381 2.089 . S
O388 C396 1.256 . S
O389 Mn384 2.251 1_554 S
O389 C394 1.241 . S
O390 Mn384 2.087 . S
O390 C395 1.256 . S
C391 O397 1.278 . S
C391 O398 1.241 . S
C392 O378 1.244 . S
C392 O380 1.256 . S
C393 O382 1.239 1_556 S
C393 O386 1.256 . S
C394 O383 1.278 . S
C394 O389 1.241 . S
C395 O385 1.244 1_556 S
C395 O390 1.256 . S
C396 O387 1.239 . S
C396 O388 1.256 . S
O397 Mn379 2.221 . S
O397 Mn381 2.290 . S
O397 C391 1.278 . S
O398 Mn381 2.251 . S
O398 C391 1.241 . S
O399 Mn400 2.163 . S
O399 C413 1.244 . S
Mn400 O399 2.163 . S
Mn400 O403 2.160 . S
Mn400 O404 2.221 . S
Mn400 O406 2.163 . S
Mn400 O408 2.160 . S
Mn400 O418 2.221 . S
O401 Mn402 2.087 . S
O401 C413 1.256 . S
Mn402 O401 2.087 . S
Mn402 O409 2.089 . S
Mn402 O418 2.290 . S
Mn402 O419 2.251 . S
O403 Mn400 2.160 . S
O403 C414 1.239 . S
O404 Mn400 2.221 . S
O404 Mn405 2.290 . S
O404 C415 1.278 . S
Mn405 O404 2.290 . S
Mn405 O407 2.089 . S
Mn405 O410 2.251 . S
Mn405 O411 2.087 . S
O406 Mn400 2.163 . S
O406 C416 1.244 . S
O407 Mn405 2.089 . S
O407 C414 1.256 . S
O408 Mn400 2.160 . S
O408 C417 1.239 . S
O409 Mn402 2.089 . S
O409 C417 1.256 . S
O410 Mn405 2.251 . S
O410 C415 1.241 . S
O411 Mn405 2.087 . S
O411 C416 1.256 . S
C412 O418 1.278 . S
C412 O419 1.241 . S
C413 O399 1.244 . S
C413 O401 1.256 . S
C414 O403 1.239 . S
C414 O407 1.256 . S
C415 O404 1.278 . S
C415 O410 1.241 . S
C416 O406 1.244 . S
C416 O411 1.256 . S
C417 O408 1.239 . S
C417 O409 1.256 . S
O418 Mn400 2.221 . S
O418 Mn402 2.290 . S
O418 C412 1.278 . S
O419 Mn402 2.251 . S
O419 C412 1.241 . S
O420 Mn421 2.163 1_556 S
O420 C434 1.244 . S
Mn421 O420 2.163 1_554 S
Mn421 O424 2.160 . S
Mn421 O425 2.221 . S
Mn421 O427 2.163 . S
Mn421 O429 2.160 1_554 S
Mn421 O439 2.221 . S
O422 Mn423 2.087 . S
O422 C434 1.256 . S
Mn423 O422 2.087 . S
Mn423 O430 2.089 . S
Mn423 O439 2.290 1_556 S
Mn423 O440 2.251 1_556 S
O424 Mn421 2.160 . S
O424 C435 1.239 . S
O425 Mn421 2.221 . S
O425 Mn426 2.290 . S
O425 C436 1.278 . S
Mn426 O425 2.290 . S
Mn426 O428 2.089 . S
Mn426 O431 2.251 . S
Mn426 O432 2.087 . S
O427 Mn421 2.163 . S
O427 C437 1.244 . S
O428 Mn426 2.089 . S
O428 C435 1.256 . S
O429 Mn421 2.160 1_556 S
O429 C438 1.239 . S
O430 Mn423 2.089 . S
O430 C438 1.256 . S
O431 Mn426 2.251 . S
O431 C436 1.241 . S
O432 Mn426 2.087 . S
O432 C437 1.256 . S
C433 O439 1.278 . S
C433 O440 1.241 . S
C434 O420 1.244 . S
C434 O422 1.256 . S
C435 O424 1.239 . S
C435 O428 1.256 . S
C436 O425 1.278 . S
C436 O431 1.241 . S
C437 O427 1.244 . S
C437 O432 1.256 . S
C438 O429 1.239 . S
C438 O430 1.256 . S
O439 Mn421 2.221 . S
O439 Mn423 2.290 1_554 S
O439 C433 1.278 . S
O440 Mn423 2.251 1_554 S
O440 C433 1.241 . S
O441 Mn442 2.163 . S
O441 C455 1.244 . S
Mn442 O441 2.163 . S
Mn442 O445 2.160 . S
Mn442 O446 2.221 . S
Mn442 O448 2.163 . S
Mn442 O450 2.160 . S
Mn442 O460 2.221 . S
O443 Mn444 2.087 . S
O443 C455 1.256 . S
Mn444 O443 2.087 . S
Mn444 O451 2.089 . S
Mn444 O460 2.290 . S
Mn444 O461 2.251 . S
O445 Mn442 2.160 . S
O445 C456 1.239 . S
O446 Mn442 2.221 . S
O446 Mn447 2.290 . S
O446 C457 1.278 . S
Mn447 O446 2.290 . S
Mn447 O449 2.089 . S
Mn447 O452 2.251 . S
Mn447 O453 2.087 . S
O448 Mn442 2.163 . S
O448 C458 1.244 . S
O449 Mn447 2.089 . S
O449 C456 1.256 . S
O450 Mn442 2.160 . S
O450 C459 1.239 . S
O451 Mn444 2.089 . S
O451 C459 1.256 . S
O452 Mn447 2.251 . S
O452 C457 1.241 . S
O453 Mn447 2.087 . S
O453 C458 1.256 . S
C454 O460 1.278 . S
C454 O461 1.241 . S
C455 O441 1.244 . S
C455 O443 1.256 . S
C456 O445 1.239 . S
C456 O449 1.256 . S
C457 O446 1.278 . S
C457 O452 1.241 . S
C458 O448 1.244 . S
C458 O453 1.256 . S
C459 O450 1.239 . S
C459 O451 1.256 . S
O460 Mn442 2.221 . S
O460 Mn444 2.290 . S
O460 C454 1.278 . S
O461 Mn444 2.251 . S
O461 C454 1.241 . S
O462 Mn463 2.163 . S
O462 C476 1.244 . S
Mn463 O462 2.163 . S
Mn463 O466 2.160 . S
Mn463 O467 2.221 . S
Mn463 O469 2.163 . S
Mn463 O471 2.160 . S
Mn463 O481 2.221 . S
O464 Mn465 2.087 . S
O464 C476 1.256 . S
Mn465 O464 2.087 . S
Mn465 O472 2.089 . S
Mn465 O481 2.290 . S
Mn465 O482 2.251 . S
O466 Mn463 2.160 . S
O466 C477 1.239 . S
O467 Mn463 2.221 . S
O467 Mn468 2.290 . S
O467 C478 1.278 . S
Mn468 O467 2.290 . S
Mn468 O470 2.089 . S
Mn468 O473 2.251 . S
Mn468 O474 2.087 . S
O469 Mn463 2.163 . S
O469 C479 1.244 . S
O470 Mn468 2.089 . S
O470 C477 1.256 . S
O471 Mn463 2.160 . S
O471 C480 1.239 . S
O472 Mn465 2.089 . S
O472 C480 1.256 . S
O473 Mn468 2.251 . S
O473 C478 1.241 . S
O474 Mn468 2.087 . S
O474 C479 1.256 . S
C475 O481 1.278 . S
C475 O482 1.241 . S
C476 O462 1.244 . S
C476 O464 1.256 . S
C477 O466 1.239 . S
C477 O470 1.256 . S
C478 O467 1.278 . S
C478 O473 1.241 . S
C479 O469 1.244 . S
C479 O474 1.256 . S
C480 O471 1.239 . S
C480 O472 1.256 . S
O481 Mn463 2.221 . S
O481 Mn465 2.290 . S
O481 C475 1.278 . S
O482 Mn465 2.251 . S
O482 C475 1.241 . S
O483 Mn484 2.163 . S
O483 C497 1.244 . S
Mn484 O483 2.163 . S
Mn484 O487 2.160 . S
Mn484 O488 2.221 . S
Mn484 O490 2.163 . S
Mn484 O492 2.160 . S
Mn484 O502 2.221 . S
O485 Mn486 2.087 . S
O485 C497 1.256 . S
Mn486 O485 2.087 . S
Mn486 O493 2.089 . S
Mn486 O502 2.290 . S
Mn486 O503 2.251 . S
O487 Mn484 2.160 . S
O487 C498 1.239 . S
O488 Mn484 2.221 . S
O488 Mn489 2.290 . S
O488 C499 1.278 . S
Mn489 O488 2.290 . S
Mn489 O491 2.089 . S
Mn489 O494 2.251 . S
Mn489 O495 2.087 . S
O490 Mn484 2.163 . S
O490 C500 1.244 . S
O491 Mn489 2.089 . S
O491 C498 1.256 . S
O492 Mn484 2.160 . S
O492 C501 1.239 . S
O493 Mn486 2.089 . S
O493 C501 1.256 . S
O494 Mn489 2.251 . S
O494 C499 1.241 . S
O495 Mn489 2.087 . S
O495 C500 1.256 . S
C496 O502 1.278 . S
C496 O503 1.241 . S
C497 O483 1.244 . S
C497 O485 1.256 . S
C498 O487 1.239 . S
C498 O491 1.256 . S
C499 O488 1.278 . S
C499 O494 1.241 . S
C500 O490 1.244 . S
C500 O495 1.256 . S
C501 O492 1.239 . S
C501 O493 1.256 . S
O502 Mn484 2.221 . S
O502 Mn486 2.290 . S
O502 C496 1.278 . S
O503 Mn486 2.251 . S
O503 C496 1.241 . S
O504 Mn505 2.163 . S
O504 C518 1.244 . S
Mn505 O504 2.163 . S
Mn505 O508 2.160 . S
Mn505 O509 2.221 . S
Mn505 O511 2.163 . S
Mn505 O513 2.160 . S
Mn505 O523 2.221 . S
O506 Mn507 2.087 . S
O506 C518 1.256 . S
Mn507 O506 2.087 . S
Mn507 O514 2.089 . S
Mn507 O523 2.290 . S
Mn507 O524 2.251 . S
O508 Mn505 2.160 . S
O508 C519 1.239 . S
O509 Mn505 2.221 . S
O509 Mn510 2.290 . S
O509 C520 1.278 . S
Mn510 O509 2.290 . S
Mn510 O512 2.089 . S
Mn510 O515 2.251 . S
Mn510 O516 2.087 . S
O511 Mn505 2.163 . S
O511 C521 1.244 . S
O512 Mn510 2.089 . S
O512 C519 1.256 . S
O513 Mn505 2.160 . S
O513 C522 1.239 . S
O514 Mn507 2.089 . S
O514 C522 1.256 . S
O515 Mn510 2.251 . S
O515 C520 1.241 . S
O516 Mn510 2.087 . S
O516 C521 1.256 . S
C517 O523 1.278 . S
C517 O524 1.241 . S
C518 O504 1.244 . S
C518 O506 1.256 . S
C519 O508 1.239 . S
C519 O512 1.256 . S
C520 O509 1.278 . S
C520 O515 1.241 . S
C521 O511 1.244 . S
C521 O516 1.256 . S
C522 O513 1.239 . S
C522 O514 1.256 . S
O523 Mn505 2.221 . S
O523 Mn507 2.290 . S
O523 C517 1.278 . S
O524 Mn507 2.251 . S
O524 C517 1.241 . S
O525 Mn526 2.163 . S
O525 C539 1.244 . S
Mn526 O525 2.163 . S
Mn526 O529 2.160 . S
Mn526 O530 2.221 . S
Mn526 O532 2.163 . S
Mn526 O534 2.160 . S
Mn526 O544 2.221 . S
O527 Mn528 2.087 . S
O527 C539 1.256 . S
Mn528 O527 2.087 . S
Mn528 O535 2.089 . S
Mn528 O544 2.290 . S
Mn528 O545 2.251 . S
O529 Mn526 2.160 . S
O529 C540 1.239 . S
O530 Mn526 2.221 . S
O530 Mn531 2.290 . S
O530 C541 1.278 . S
Mn531 O530 2.290 . S
Mn531 O533 2.089 . S
Mn531 O536 2.251 . S
Mn531 O537 2.087 . S
O532 Mn526 2.163 . S
O532 C542 1.244 . S
O533 Mn531 2.089 . S
O533 C540 1.256 . S
O534 Mn526 2.160 . S
O534 C543 1.239 . S
O535 Mn528 2.089 . S
O535 C543 1.256 . S
O536 Mn531 2.251 . S
O536 C541 1.241 . S
O537 Mn531 2.087 . S
O537 C542 1.256 . S
C538 O544 1.278 . S
C538 O545 1.241 . S
C539 O525 1.244 . S
C539 O527 1.256 . S
C540 O529 1.239 . S
C540 O533 1.256 . S
C541 O530 1.278 . S
C541 O536 1.241 . S
C542 O532 1.244 . S
C542 O537 1.256 . S
C543 O534 1.239 . S
C543 O535 1.256 . S
O544 Mn526 2.221 . S
O544 Mn528 2.290 . S
O544 C538 1.278 . S
O545 Mn528 2.251 . S
O545 C538 1.241 . S
O546 Mn547 2.163 1_556 S
O546 C560 1.244 . S
Mn547 O546 2.163 1_554 S
Mn547 O550 2.160 . S
Mn547 O551 2.221 . S
Mn547 O553 2.163 . S
Mn547 O555 2.160 1_554 S
Mn547 O565 2.221 . S
O548 Mn549 2.087 . S
O548 C560 1.256 . S
Mn549 O548 2.087 . S
Mn549 O556 2.089 . S
Mn549 O565 2.290 1_556 S
Mn549 O566 2.251 1_556 S
O550 Mn547 2.160 . S
O550 C561 1.239 . S
O551 Mn547 2.221 . S
O551 Mn552 2.290 . S
O551 C562 1.278 . S
Mn552 O551 2.290 . S
Mn552 O554 2.089 . S
Mn552 O557 2.251 . S
Mn552 O558 2.087 . S
O553 Mn547 2.163 . S
O553 C563 1.244 . S
O554 Mn552 2.089 . S
O554 C561 1.256 . S
O555 Mn547 2.160 1_556 S
O555 C564 1.239 . S
O556 Mn549 2.089 . S
O556 C564 1.256 . S
O557 Mn552 2.251 . S
O557 C562 1.241 . S
O558 Mn552 2.087 . S
O558 C563 1.256 . S
C559 O565 1.278 . S
C559 O566 1.241 . S
C560 O546 1.244 . S
C560 O548 1.256 . S
C561 O550 1.239 . S
C561 O554 1.256 . S
C562 O551 1.278 . S
C562 O557 1.241 . S
C563 O553 1.244 . S
C563 O558 1.256 . S
C564 O555 1.239 . S
C564 O556 1.256 . S
O565 Mn547 2.221 . S
O565 Mn549 2.290 1_554 S
O565 C559 1.278 . S
O566 Mn549 2.251 1_554 S
O566 C559 1.241 . S
O567 Mn568 2.163 . S
O567 C581 1.244 . S
Mn568 O567 2.163 . S
Mn568 O571 2.160 . S
Mn568 O572 2.221 . S
Mn568 O574 2.163 . S
Mn568 O576 2.160 . S
Mn568 O586 2.221 . S
O569 Mn570 2.087 . S
O569 C581 1.256 . S
Mn570 O569 2.087 . S
Mn570 O577 2.089 . S
Mn570 O586 2.290 . S
Mn570 O587 2.251 . S
O571 Mn568 2.160 . S
O571 C582 1.239 . S
O572 Mn568 2.221 . S
O572 Mn573 2.290 . S
O572 C583 1.278 . S
Mn573 O572 2.290 . S
Mn573 O575 2.089 . S
Mn573 O578 2.251 . S
Mn573 O579 2.087 . S
O574 Mn568 2.163 . S
O574 C584 1.244 . S
O575 Mn573 2.089 . S
O575 C582 1.256 . S
O576 Mn568 2.160 . S
O576 C585 1.239 . S
O577 Mn570 2.089 . S
O577 C585 1.256 . S
O578 Mn573 2.251 . S
O578 C583 1.241 . S
O579 Mn573 2.087 . S
O579 C584 1.256 . S
C580 O586 1.278 . S
C580 O587 1.241 . S
C581 O567 1.244 . S
C581 O569 1.256 . S
C582 O571 1.239 . S
C582 O575 1.256 . S
C583 O572 1.278 . S
C583 O578 1.241 . S
C584 O574 1.244 . S
C584 O579 1.256 . S
C585 O576 1.239 . S
C585 O577 1.256 . S
O586 Mn568 2.221 . S
O586 Mn570 2.290 . S
O586 C580 1.278 . S
O587 Mn570 2.251 . S
O587 C580 1.241 . S
O588 Mn589 2.163 . S
O588 C602 1.244 1_554 S
Mn589 O588 2.163 . S
Mn589 O592 2.160 . S
Mn589 O593 2.221 . S
Mn589 O595 2.163 . S
Mn589 O597 2.160 . S
Mn589 O607 2.221 . S
O590 Mn591 2.087 . S
O590 C602 1.256 . S
Mn591 O590 2.087 . S
Mn591 O598 2.089 . S
Mn591 O607 2.290 1_556 S
Mn591 O608 2.251 1_556 S
O592 Mn589 2.160 . S
O592 C603 1.239 . S
O593 Mn589 2.221 . S
O593 Mn594 2.290 . S
O593 C604 1.278 . S
Mn594 O593 2.290 . S
Mn594 O596 2.089 . S
Mn594 O599 2.251 . S
Mn594 O600 2.087 . S
O595 Mn589 2.163 . S
O595 C605 1.244 . S
O596 Mn594 2.089 . S
O596 C603 1.256 . S
O597 Mn589 2.160 . S
O597 C606 1.239 1_554 S
O598 Mn591 2.089 . S
O598 C606 1.256 . S
O599 Mn594 2.251 . S
O599 C604 1.241 . S
O600 Mn594 2.087 . S
O600 C605 1.256 . S
C601 O607 1.278 . S
C601 O608 1.241 . S
C602 O588 1.244 1_556 S
C602 O590 1.256 . S
C603 O592 1.239 . S
C603 O596 1.256 . S
C604 O593 1.278 . S
C604 O599 1.241 . S
C605 O595 1.244 . S
C605 O600 1.256 . S
C606 O597 1.239 1_556 S
C606 O598 1.256 . S
O607 Mn589 2.221 . S
O607 Mn591 2.290 1_554 S
O607 C601 1.278 . S
O608 Mn591 2.251 1_554 S
O608 C601 1.241 . S
O609 Mn610 2.163 . S
O609 C623 1.244 . S
Mn610 O609 2.163 . S
Mn610 O613 2.160 . S
Mn610 O614 2.221 . S
Mn610 O616 2.163 . S
Mn610 O618 2.160 . S
Mn610 O628 2.221 . S
O611 Mn612 2.087 . S
O611 C623 1.256 . S
Mn612 O611 2.087 . S
Mn612 O619 2.089 . S
Mn612 O628 2.290 . S
Mn612 O629 2.251 . S
O613 Mn610 2.160 . S
O613 C624 1.239 . S
O614 Mn610 2.221 . S
O614 Mn615 2.290 . S
O614 C625 1.278 . S
Mn615 O614 2.290 . S
Mn615 O617 2.089 . S
Mn615 O620 2.251 . S
Mn615 O621 2.087 . S
O616 Mn610 2.163 . S
O616 C626 1.244 . S
O617 Mn615 2.089 . S
O617 C624 1.256 . S
O618 Mn610 2.160 . S
O618 C627 1.239 . S
O619 Mn612 2.089 . S
O619 C627 1.256 . S
O620 Mn615 2.251 . S
O620 C625 1.241 . S
O621 Mn615 2.087 . S
O621 C626 1.256 . S
C622 O628 1.278 . S
C622 O629 1.241 . S
C623 O609 1.244 . S
C623 O611 1.256 . S
C624 O613 1.239 . S
C624 O617 1.256 . S
C625 O614 1.278 . S
C625 O620 1.241 . S
C626 O616 1.244 . S
C626 O621 1.256 . S
C627 O618 1.239 . S
C627 O619 1.256 . S
O628 Mn610 2.221 . S
O628 Mn612 2.290 . S
O628 C622 1.278 . S
O629 Mn612 2.251 . S
O629 C622 1.241 . S
O630 Mn631 2.163 . S
O630 C644 1.244 . S
Mn631 O630 2.163 . S
Mn631 O634 2.160 . S
Mn631 O635 2.221 . S
Mn631 O637 2.163 . S
Mn631 O639 2.160 . S
Mn631 O649 2.221 . S
O632 Mn633 2.087 . S
O632 C644 1.256 . S
Mn633 O632 2.087 . S
Mn633 O640 2.089 . S
Mn633 O649 2.290 . S
Mn633 O650 2.251 . S
O634 Mn631 2.160 . S
O634 C645 1.239 . S
O635 Mn631 2.221 . S
O635 Mn636 2.290 . S
O635 C646 1.278 . S
Mn636 O635 2.290 . S
Mn636 O638 2.089 . S
Mn636 O641 2.251 . S
Mn636 O642 2.087 . S
O637 Mn631 2.163 . S
O637 C647 1.244 . S
O638 Mn636 2.089 . S
O638 C645 1.256 . S
O639 Mn631 2.160 . S
O639 C648 1.239 . S
O640 Mn633 2.089 . S
O640 C648 1.256 . S
O641 Mn636 2.251 . S
O641 C646 1.241 . S
O642 Mn636 2.087 . S
O642 C647 1.256 . S
C643 O649 1.278 . S
C643 O650 1.241 . S
C644 O630 1.244 . S
C644 O632 1.256 . S
C645 O634 1.239 . S
C645 O638 1.256 . S
C646 O635 1.278 . S
C646 O641 1.241 . S
C647 O637 1.244 . S
C647 O642 1.256 . S
C648 O639 1.239 . S
C648 O640 1.256 . S
O649 Mn631 2.221 . S
O649 Mn633 2.290 . S
O649 C643 1.278 . S
O650 Mn633 2.251 . S
O650 C643 1.241 . S
O651 Mn652 2.163 . S
O651 C665 1.244 . S
Mn652 O651 2.163 . S
Mn652 O655 2.160 . S
Mn652 O656 2.221 . S
Mn652 O658 2.163 . S
Mn652 O660 2.160 . S
Mn652 O670 2.221 . S
O653 Mn654 2.087 . S
O653 C665 1.256 . S
Mn654 O653 2.087 . S
Mn654 O661 2.089 . S
Mn654 O670 2.290 . S
Mn654 O671 2.251 . S
O655 Mn652 2.160 . S
O655 C666 1.239 . S
O656 Mn652 2.221 . S
O656 Mn657 2.290 . S
O656 C667 1.278 . S
Mn657 O656 2.290 . S
Mn657 O659 2.089 . S
Mn657 O662 2.251 . S
Mn657 O663 2.087 . S
O658 Mn652 2.163 . S
O658 C668 1.244 . S
O659 Mn657 2.089 . S
O659 C666 1.256 . S
O660 Mn652 2.160 . S
O660 C669 1.239 . S
O661 Mn654 2.089 . S
O661 C669 1.256 . S
O662 Mn657 2.251 . S
O662 C667 1.241 . S
O663 Mn657 2.087 . S
O663 C668 1.256 . S
C664 O670 1.278 . S
C664 O671 1.241 . S
C665 O651 1.244 . S
C665 O653 1.256 . S
C666 O655 1.239 . S
C666 O659 1.256 . S
C667 O656 1.278 . S
C667 O662 1.241 . S
C668 O658 1.244 . S
C668 O663 1.256 . S
C669 O660 1.239 . S
C669 O661 1.256 . S
O670 Mn652 2.221 . S
O670 Mn654 2.290 . S
O670 C664 1.278 . S
O671 Mn654 2.251 . S
O671 C664 1.241 . S
H672 C678 0.930 . S
H673 C682 0.930 . S
H674 C687 0.929 . S
H675 C685 0.929 . S
H676 C680 0.929 . S
H677 C686 0.929 . S
C678 H672 0.930 . S
C678 C679 1.367 . S
C678 C686 1.378 . S
C679 C678 1.367 . S
C679 C687 1.433 . S
C680 H676 0.929 . S
C680 C682 1.378 . S
C680 C684 1.350 . S
C681 C684 1.463 . S
C681 C686 1.350 . S
C681 N689 1.427 . S
C682 H673 0.930 . S
C682 C680 1.378 . S
C682 C683 1.367 . S
C683 C682 1.367 . S
C683 C685 1.433 . S
C684 C680 1.350 . S
C684 C681 1.463 . S
C684 N688 1.427 . S
C685 H675 0.929 . S
C685 C683 1.433 . S
C685 N688 1.384 . S
C686 H677 0.929 . S
C686 C678 1.378 . S
C686 C681 1.350 . S
C687 H674 0.929 . S
C687 C679 1.433 . S
C687 N689 1.384 . S
N688 C684 1.427 . S
N688 C685 1.384 . S
N689 C681 1.427 . S
N689 C687 1.384 . S
H690 C696 0.930 . S
H691 C700 0.930 . S
H692 C705 0.929 . S
H693 C703 0.929 . S
H694 C698 0.929 . S
H695 C704 0.929 . S
C696 H690 0.930 . S
C696 C697 1.367 . S
C696 C704 1.378 . S
C697 C696 1.367 . S
C697 C705 1.433 . S
C698 H694 0.929 . S
C698 C700 1.378 . S
C698 C702 1.350 . S
C699 C702 1.463 . S
C699 C704 1.350 . S
C699 N707 1.427 . S
C700 H691 0.930 . S
C700 C698 1.378 . S
C700 C701 1.367 . S
C701 C700 1.367 . S
C701 C703 1.433 . S
C702 C698 1.350 . S
C702 C699 1.463 . S
C702 N706 1.427 . S
C703 H693 0.929 . S
C703 C701 1.433 . S
C703 N706 1.384 . S
C704 H695 0.929 . S
C704 C696 1.378 . S
C704 C699 1.350 . S
C705 H692 0.929 . S
C705 C697 1.433 . S
C705 N707 1.384 . S
N706 C702 1.427 . S
N706 C703 1.384 . S
N707 C699 1.427 . S
N707 C705 1.384 . S
H708 C714 0.930 . S
H709 C718 0.930 . S
H710 C723 0.929 . S
H711 C721 0.929 . S
H712 C716 0.929 . S
H713 C722 0.929 . S
C714 H708 0.930 . S
C714 C715 1.367 . S
C714 C722 1.378 . S
C715 C714 1.367 . S
C715 C723 1.433 . S
C716 H712 0.929 . S
C716 C718 1.378 . S
C716 C720 1.350 . S
C717 C720 1.463 . S
C717 C722 1.350 . S
C717 N725 1.427 . S
C718 H709 0.930 . S
C718 C716 1.378 . S
C718 C719 1.367 . S
C719 C718 1.367 . S
C719 C721 1.433 . S
C720 C716 1.350 . S
C720 C717 1.463 . S
C720 N724 1.427 . S
C721 H711 0.929 . S
C721 C719 1.433 . S
C721 N724 1.384 . S
C722 H713 0.929 . S
C722 C714 1.378 . S
C722 C717 1.350 . S
C723 H710 0.929 . S
C723 C715 1.433 . S
C723 N725 1.384 . S
N724 C720 1.427 . S
N724 C721 1.384 . S
N725 C717 1.427 . S
N725 C723 1.384 . S
H726 C732 0.930 . S
H727 C736 0.930 . S
H728 C741 0.929 . S
H729 C739 0.929 . S
H730 C734 0.929 . S
H731 C740 0.929 . S
C732 H726 0.930 . S
C732 C733 1.367 . S
C732 C740 1.378 . S
C733 C732 1.367 . S
C733 C741 1.433 . S
C734 H730 0.929 . S
C734 C736 1.378 1_554 S
C734 C738 1.350 . S
C735 C738 1.463 . S
C735 C740 1.350 . S
C735 N743 1.427 . S
C736 H727 0.930 . S
C736 C734 1.378 1_556 S
C736 C737 1.367 . S
C737 C736 1.367 . S
C737 C739 1.433 . S
C738 C734 1.350 . S
C738 C735 1.463 . S
C738 N742 1.427 . S
C739 H729 0.929 . S
C739 C737 1.433 . S
C739 N742 1.384 1_556 S
C740 H731 0.929 . S
C740 C732 1.378 . S
C740 C735 1.350 . S
C741 H728 0.929 . S
C741 C733 1.433 . S
C741 N743 1.384 . S
N742 C738 1.427 . S
N742 C739 1.384 1_554 S
N743 C735 1.427 . S
N743 C741 1.384 . S
H744 C750 0.930 . S
H745 C754 0.930 . S
H746 C759 0.929 . S
H747 C757 0.929 . S
H748 C752 0.929 . S
H749 C758 0.929 . S
C750 H744 0.930 . S
C750 C751 1.367 . S
C750 C758 1.378 . S
C751 C750 1.367 . S
C751 C759 1.433 . S
C752 H748 0.929 . S
C752 C754 1.378 . S
C752 C756 1.350 . S
C753 C756 1.463 . S
C753 C758 1.350 . S
C753 N761 1.427 . S
C754 H745 0.930 . S
C754 C752 1.378 . S
C754 C755 1.367 . S
C755 C754 1.367 . S
C755 C757 1.433 . S
C756 C752 1.350 . S
C756 C753 1.463 . S
C756 N760 1.427 . S
C757 H747 0.929 . S
C757 C755 1.433 . S
C757 N760 1.384 . S
C758 H749 0.929 . S
C758 C750 1.378 . S
C758 C753 1.350 . S
C759 H746 0.929 . S
C759 C751 1.433 . S
C759 N761 1.384 . S
N760 C756 1.427 . S
N760 C757 1.384 . S
N761 C753 1.427 . S
N761 C759 1.384 . S
H762 C768 0.930 . S
H763 C772 0.930 . S
H764 C777 0.929 . S
H765 C775 0.929 . S
H766 C770 0.929 . S
H767 C776 0.929 . S
C768 H762 0.930 . S
C768 C769 1.367 . S
C768 C776 1.378 . S
C769 C768 1.367 . S
C769 C777 1.433 . S
C770 H766 0.929 . S
C770 C772 1.378 . S
C770 C774 1.350 . S
C771 C774 1.463 . S
C771 C776 1.350 . S
C771 N779 1.427 . S
C772 H763 0.930 . S
C772 C770 1.378 . S
C772 C773 1.367 . S
C773 C772 1.367 . S
C773 C775 1.433 . S
C774 C770 1.350 . S
C774 C771 1.463 . S
C774 N778 1.427 . S
C775 H765 0.929 . S
C775 C773 1.433 . S
C775 N778 1.384 . S
C776 H767 0.929 . S
C776 C768 1.378 . S
C776 C771 1.350 . S
C777 H764 0.929 . S
C777 C769 1.433 . S
C777 N779 1.384 . S
N778 C774 1.427 . S
N778 C775 1.384 . S
N779 C771 1.427 . S
N779 C777 1.384 . S
H780 C786 0.930 . S
H781 C790 0.930 . S
H782 C795 0.929 . S
H783 C793 0.929 . S
H784 C788 0.929 . S
H785 C794 0.929 . S
C786 H780 0.930 . S
C786 C787 1.367 . S
C786 C794 1.378 . S
C787 C786 1.367 . S
C787 C795 1.433 . S
C788 H784 0.929 . S
C788 C790 1.378 . S
C788 C792 1.350 . S
C789 C792 1.463 . S
C789 C794 1.350 . S
C789 N797 1.427 . S
C790 H781 0.930 . S
C790 C788 1.378 . S
C790 C791 1.367 . S
C791 C790 1.367 . S
C791 C793 1.433 . S
C792 C788 1.350 . S
C792 C789 1.463 . S
C792 N796 1.427 . S
C793 H783 0.929 . S
C793 C791 1.433 . S
C793 N796 1.384 . S
C794 H785 0.929 . S
C794 C786 1.378 . S
C794 C789 1.350 . S
C795 H782 0.929 . S
C795 C787 1.433 . S
C795 N797 1.384 . S
N796 C792 1.427 . S
N796 C793 1.384 . S
N797 C789 1.427 . S
N797 C795 1.384 . S
H798 C804 0.930 . S
H799 C808 0.930 . S
H800 C813 0.929 . S
H801 C811 0.929 . S
H802 C806 0.929 . S
H803 C812 0.929 . S
C804 H798 0.930 . S
C804 C805 1.367 . S
C804 C812 1.378 . S
C805 C804 1.367 . S
C805 C813 1.433 . S
C806 H802 0.929 . S
C806 C808 1.378 1_554 S
C806 C810 1.350 . S
C807 C810 1.463 . S
C807 C812 1.350 . S
C807 N815 1.427 . S
C808 H799 0.930 . S
C808 C806 1.378 1_556 S
C808 C809 1.367 . S
C809 C808 1.367 . S
C809 C811 1.433 . S
C810 C806 1.350 . S
C810 C807 1.463 . S
C810 N814 1.427 . S
C811 H801 0.929 . S
C811 C809 1.433 . S
C811 N814 1.384 1_556 S
C812 H803 0.929 . S
C812 C804 1.378 . S
C812 C807 1.350 . S
C813 H800 0.929 . S
C813 C805 1.433 . S
C813 N815 1.384 . S
N814 C810 1.427 . S
N814 C811 1.384 1_554 S
N815 C807 1.427 . S
N815 C813 1.384 . S
H816 C822 0.930 . S
H817 C826 0.930 . S
H818 C831 0.929 . S
H819 C829 0.929 . S
H820 C824 0.929 1_545 S
H821 C830 0.929 1_565 S
C822 H816 0.930 . S
C822 C823 1.367 . S
C822 C830 1.378 . S
C823 C822 1.367 . S
C823 C831 1.433 . S
C824 H820 0.929 1_565 S
C824 C826 1.378 . S
C824 C828 1.350 . S
C825 C828 1.463 1_545 S
C825 C830 1.350 . S
C825 N833 1.427 . S
C826 H817 0.930 . S
C826 C824 1.378 . S
C826 C827 1.367 . S
C827 C826 1.367 . S
C827 C829 1.433 . S
C828 C824 1.350 . S
C828 C825 1.463 1_565 S
C828 N832 1.427 . S
C829 H819 0.929 . S
C829 C827 1.433 . S
C829 N832 1.384 . S
C830 H821 0.929 1_545 S
C830 C822 1.378 . S
C830 C825 1.350 . S
C831 H818 0.929 . S
C831 C823 1.433 . S
C831 N833 1.384 . S
N832 C828 1.427 . S
N832 C829 1.384 . S
N833 C825 1.427 . S
N833 C831 1.384 . S
H834 C840 0.930 . S
H835 C844 0.930 . S
H836 C849 0.929 . S
H837 C847 0.929 . S
H838 C842 0.929 . S
H839 C848 0.929 . S
C840 H834 0.930 . S
C840 C841 1.367 1_554 S
C840 C848 1.378 . S
C841 C840 1.367 1_556 S
C841 C849 1.433 . S
C842 H838 0.929 . S
C842 C844 1.378 . S
C842 C846 1.350 . S
C843 C846 1.463 . S
C843 C848 1.350 . S
C843 N851 1.427 1_554 S
C844 H835 0.930 . S
C844 C842 1.378 . S
C844 C845 1.367 . S
C845 C844 1.367 . S
C845 C847 1.433 . S
C846 C842 1.350 . S
C846 C843 1.463 . S
C846 N850 1.427 . S
C847 H837 0.929 . S
C847 C845 1.433 . S
C847 N850 1.384 . S
C848 H839 0.929 . S
C848 C840 1.378 . S
C848 C843 1.350 . S
C849 H836 0.929 . S
C849 C841 1.433 . S
C849 N851 1.384 . S
N850 C846 1.427 . S
N850 C847 1.384 . S
N851 C843 1.427 1_556 S
N851 C849 1.384 . S
H852 C858 0.930 . S
H853 C862 0.930 . S
H854 C867 0.929 . S
H855 C865 0.929 . S
H856 C860 0.929 . S
H857 C866 0.929 . S
C858 H852 0.930 . S
C858 C859 1.367 . S
C858 C866 1.378 . S
C859 C858 1.367 . S
C859 C867 1.433 . S
C860 H856 0.929 . S
C860 C862 1.378 . S
C860 C864 1.350 . S
C861 C864 1.463 1_545 S
C861 C866 1.350 . S
C861 N869 1.428 1_545 S
C862 H853 0.930 . S
C862 C860 1.378 . S
C862 C863 1.367 . S
C863 C862 1.367 . S
C863 C865 1.433 . S
C864 C860 1.350 . S
C864 C861 1.463 1_565 S
C864 N868 1.429 1_565 S
C865 H855 0.929 . S
C865 C863 1.433 . S
C865 N868 1.386 1_565 S
C866 H857 0.929 . S
C866 C858 1.378 . S
C866 C861 1.350 . S
C867 H854 0.929 . S
C867 C859 1.433 . S
C867 N869 1.385 1_545 S
N868 C864 1.429 1_545 S
N868 C865 1.386 1_545 S
N869 C861 1.428 1_565 S
N869 C867 1.385 1_565 S
H870 C876 0.930 . S
H871 C880 0.930 . S
H872 C885 0.929 . S
H873 C883 0.929 . S
H874 C878 0.929 . S
H875 C884 0.929 . S
C876 H870 0.930 . S
C876 C877 1.367 . S
C876 C884 1.378 . S
C877 C876 1.367 . S
C877 C885 1.433 . S
C878 H874 0.929 . S
C878 C880 1.378 . S
C878 C882 1.350 . S
C879 C882 1.463 . S
C879 C884 1.350 . S
C879 N887 1.427 . S
C880 H871 0.930 . S
C880 C878 1.378 . S
C880 C881 1.367 . S
C881 C880 1.367 . S
C881 C883 1.433 . S
C882 C878 1.350 . S
C882 C879 1.463 . S
C882 N886 1.427 . S
C883 H873 0.929 . S
C883 C881 1.433 . S
C883 N886 1.384 . S
C884 H875 0.929 . S
C884 C876 1.378 . S
C884 C879 1.350 . S
C885 H872 0.929 . S
C885 C877 1.433 . S
C885 N887 1.384 . S
N886 C882 1.427 . S
N886 C883 1.384 . S
N887 C879 1.427 . S
N887 C885 1.384 . S
H888 C894 0.930 . S
H889 C898 0.930 . S
H890 C903 0.929 . S
H891 C901 0.929 . S
H892 C896 0.929 . S
H893 C902 0.929 . S
C894 H888 0.930 . S
C894 C895 1.367 . S
C894 C902 1.378 . S
C895 C894 1.367 . S
C895 C903 1.433 . S
C896 H892 0.929 . S
C896 C898 1.378 . S
C896 C900 1.350 . S
C897 C900 1.463 1_545 S
C897 C902 1.350 . S
C897 N905 1.427 . S
C898 H889 0.930 . S
C898 C896 1.378 . S
C898 C899 1.367 . S
C899 C898 1.367 . S
C899 C901 1.433 . S
C900 C896 1.350 . S
C900 C897 1.463 1_565 S
C900 N904 1.427 . S
C901 H891 0.929 . S
C901 C899 1.433 . S
C901 N904 1.384 . S
C902 H893 0.929 . S
C902 C894 1.378 . S
C902 C897 1.350 . S
C903 H890 0.929 . S
C903 C895 1.433 . S
C903 N905 1.384 . S
N904 C900 1.427 . S
N904 C901 1.384 . S
N905 C897 1.427 . S
N905 C903 1.384 . S
H906 C912 0.930 . S
H907 C916 0.930 . S
H908 C921 0.929 . S
H909 C919 0.929 . S
H910 C914 0.929 . S
H911 C920 0.929 . S
C912 H906 0.930 . S
C912 C913 1.367 . S
C912 C920 1.378 1_556 S
C913 C912 1.367 . S
C913 C921 1.433 . S
C914 H910 0.929 . S
C914 C916 1.378 . S
C914 C918 1.350 . S
C915 C918 1.463 . S
C915 C920 1.350 . S
C915 N923 1.427 . S
C916 H907 0.930 . S
C916 C914 1.378 . S
C916 C917 1.367 . S
C917 C916 1.367 . S
C917 C919 1.433 . S
C918 C914 1.350 . S
C918 C915 1.463 . S
C918 N922 1.427 . S
C919 H909 0.929 . S
C919 C917 1.433 . S
C919 N922 1.384 . S
C920 H911 0.929 . S
C920 C912 1.378 1_554 S
C920 C915 1.350 . S
C921 H908 0.929 . S
C921 C913 1.433 . S
C921 N923 1.384 1_556 S
N922 C918 1.427 . S
N922 C919 1.384 . S
N923 C915 1.427 . S
N923 C921 1.384 1_554 S
H924 C930 0.930 . S
H925 C934 0.930 . S
H926 C939 0.929 . S
H927 C937 0.929 . S
H928 C932 0.929 . S
H929 C938 0.929 . S
C930 H924 0.930 . S
C930 C931 1.367 . S
C930 C938 1.378 . S
C931 C930 1.367 . S
C931 C939 1.433 . S
C932 H928 0.929 . S
C932 C934 1.378 . S
C932 C936 1.350 . S
C933 C936 1.463 1_565 S
C933 C938 1.350 . S
C933 N941 1.427 1_565 S
C934 H925 0.930 . S
C934 C932 1.378 . S
C934 C935 1.367 . S
C935 C934 1.367 . S
C935 C937 1.433 . S
C936 C932 1.350 . S
C936 C933 1.463 1_545 S
C936 N940 1.427 1_545 S
C937 H927 0.929 . S
C937 C935 1.433 . S
C937 N940 1.383 1_545 S
C938 H929 0.929 . S
C938 C930 1.378 . S
C938 C933 1.350 . S
C939 H926 0.929 . S
C939 C931 1.433 . S
C939 N941 1.384 1_565 S
N940 C936 1.427 1_565 S
N940 C937 1.383 1_565 S
N941 C933 1.427 1_545 S
N941 C939 1.384 1_545 S
H942 C948 0.930 . S
H943 C952 0.930 . S
H944 C957 0.929 . S
H945 C955 0.929 . S
H946 C950 0.929 . S
H947 C956 0.929 . S
C948 H942 0.930 . S
C948 C949 1.367 . S
C948 C956 1.378 . S
C949 C948 1.367 . S
C949 C957 1.433 . S
C950 H946 0.929 . S
C950 C952 1.378 . S
C950 C954 1.350 . S
C951 C954 1.463 . S
C951 C956 1.350 . S
C951 N959 1.427 . S
C952 H943 0.930 . S
C952 C950 1.378 . S
C952 C953 1.367 . S
C953 C952 1.367 . S
C953 C955 1.433 . S
C954 C950 1.350 . S
C954 C951 1.463 . S
C954 N958 1.427 . S
C955 H945 0.929 . S
C955 C953 1.433 . S
C955 N958 1.384 . S
C956 H947 0.929 . S
C956 C948 1.378 . S
C956 C951 1.350 . S
C957 H944 0.929 . S
C957 C949 1.433 . S
C957 N959 1.384 . S
N958 C954 1.427 . S
N958 C955 1.384 . S
N959 C951 1.427 . S
N959 C957 1.384 . S
H960 C966 0.930 . S
H961 C970 0.930 . S
H962 C975 0.929 . S
H963 C973 0.929 . S
H964 C968 0.929 . S
H965 C974 0.929 . S
C966 H960 0.930 . S
C966 C967 1.367 . S
C966 C974 1.378 . S
C967 C966 1.367 . S
C967 C975 1.433 . S
C968 H964 0.929 . S
C968 C970 1.378 . S
C968 C972 1.350 . S
C969 C972 1.463 . S
C969 C974 1.350 . S
C969 N977 1.427 . S
C970 H961 0.930 . S
C970 C968 1.378 . S
C970 C971 1.367 . S
C971 C970 1.367 . S
C971 C973 1.433 . S
C972 C968 1.350 . S
C972 C969 1.463 . S
C972 N976 1.427 . S
C973 H963 0.929 . S
C973 C971 1.433 . S
C973 N976 1.384 . S
C974 H965 0.929 . S
C974 C966 1.378 . S
C974 C969 1.350 . S
C975 H962 0.929 . S
C975 C967 1.433 . S
C975 N977 1.384 . S
N976 C972 1.427 . S
N976 C973 1.384 . S
N977 C969 1.427 . S
N977 C975 1.384 . S
H978 C984 0.930 . S
H979 C988 0.930 . S
H980 C993 0.929 . S
H981 C991 0.929 . S
H982 C986 0.929 . S
H983 C992 0.929 . S
C984 H978 0.930 . S
C984 C985 1.367 . S
C984 C992 1.378 . S
C985 C984 1.367 . S
C985 C993 1.433 . S
C986 H982 0.929 . S
C986 C988 1.378 . S
C986 C990 1.350 . S
C987 C990 1.463 . S
C987 C992 1.350 . S
C987 N995 1.427 . S
C988 H979 0.930 . S
C988 C986 1.378 . S
C988 C989 1.367 . S
C989 C988 1.367 . S
C989 C991 1.433 . S
C990 C986 1.350 . S
C990 C987 1.463 . S
C990 N994 1.427 . S
C991 H981 0.929 . S
C991 C989 1.433 . S
C991 N994 1.384 . S
C992 H983 0.929 . S
C992 C984 1.378 . S
C992 C987 1.350 . S
C993 H980 0.929 . S
C993 C985 1.433 . S
C993 N995 1.384 . S
N994 C990 1.427 . S
N994 C991 1.384 . S
N995 C987 1.427 . S
N995 C993 1.384 . S
H996 C1002 0.930 . S
H997 C1006 0.930 . S
H998 C1011 0.929 . S
H999 C1009 0.929 . S
H1000 C1004 0.929 . S
H1001 C1010 0.929 . S
C1002 H996 0.930 . S
C1002 C1003 1.367 . S
C1002 C1010 1.378 . S
C1003 C1002 1.367 . S
C1003 C1011 1.433 . S
C1004 H1000 0.929 . S
C1004 C1006 1.378 . S
C1004 C1008 1.350 . S
C1005 C1008 1.463 . S
C1005 C1010 1.350 . S
C1005 N1013 1.427 . S
C1006 H997 0.930 . S
C1006 C1004 1.378 . S
C1006 C1007 1.367 . S
C1007 C1006 1.367 . S
C1007 C1009 1.433 . S
C1008 C1004 1.350 . S
C1008 C1005 1.463 . S
C1008 N1012 1.427 . S
C1009 H999 0.929 . S
C1009 C1007 1.433 . S
C1009 N1012 1.384 . S
C1010 H1001 0.929 . S
C1010 C1002 1.378 . S
C1010 C1005 1.350 . S
C1011 H998 0.929 . S
C1011 C1003 1.433 . S
C1011 N1013 1.384 . S
N1012 C1008 1.427 . S
N1012 C1009 1.384 . S
N1013 C1005 1.427 . S
N1013 C1011 1.384 . S
H1014 C1020 0.930 . S
H1015 C1024 0.930 . S
H1016 C1029 0.929 . S
H1017 C1027 0.929 . S
H1018 C1022 0.929 . S
H1019 C1028 0.929 . S
C1020 H1014 0.930 . S
C1020 C1021 1.367 . S
C1020 C1028 1.378 . S
C1021 C1020 1.367 . S
C1021 C1029 1.433 . S
C1022 H1018 0.929 . S
C1022 C1024 1.378 . S
C1022 C1026 1.350 . S
C1023 C1026 1.463 . S
C1023 C1028 1.350 . S
C1023 N1031 1.427 . S
C1024 H1015 0.930 . S
C1024 C1022 1.378 . S
C1024 C1025 1.367 1_556 S
C1025 C1024 1.367 1_554 S
C1025 C1027 1.433 . S
C1026 C1022 1.350 . S
C1026 C1023 1.463 . S
C1026 N1030 1.427 1_556 S
C1027 H1017 0.929 . S
C1027 C1025 1.433 . S
C1027 N1030 1.384 . S
C1028 H1019 0.929 . S
C1028 C1020 1.378 . S
C1028 C1023 1.350 . S
C1029 H1016 0.929 . S
C1029 C1021 1.433 . S
C1029 N1031 1.384 . S
N1030 C1026 1.427 1_554 S
N1030 C1027 1.384 . S
N1031 C1023 1.427 . S
N1031 C1029 1.384 . S
H1032 C1038 0.930 . S
H1033 C1042 0.930 . S
H1034 C1047 0.929 . S
H1035 C1045 0.929 . S
H1036 C1040 0.929 . S
H1037 C1046 0.929 . S
C1038 H1032 0.930 . S
C1038 C1039 1.367 . S
C1038 C1046 1.378 . S
C1039 C1038 1.367 . S
C1039 C1047 1.433 . S
C1040 H1036 0.929 . S
C1040 C1042 1.378 . S
C1040 C1044 1.350 . S
C1041 C1044 1.463 . S
C1041 C1046 1.350 . S
C1041 N1049 1.427 . S
C1042 H1033 0.930 . S
C1042 C1040 1.378 . S
C1042 C1043 1.367 . S
C1043 C1042 1.367 . S
C1043 C1045 1.433 . S
C1044 C1040 1.350 . S
C1044 C1041 1.463 . S
C1044 N1048 1.427 . S
C1045 H1035 0.929 . S
C1045 C1043 1.433 . S
C1045 N1048 1.384 . S
C1046 H1037 0.929 . S
C1046 C1038 1.378 . S
C1046 C1041 1.350 . S
C1047 H1034 0.929 . S
C1047 C1039 1.433 . S
C1047 N1049 1.384 . S
N1048 C1044 1.427 . S
N1048 C1045 1.384 . S
N1049 C1041 1.427 . S
N1049 C1047 1.384 . S
H1050 C1056 0.930 . S
H1051 C1060 0.930 . S
H1052 C1065 0.929 . S
H1053 C1063 0.929 . S
H1054 C1058 0.929 . S
H1055 C1064 0.929 . S
C1056 H1050 0.930 . S
C1056 C1057 1.367 . S
C1056 C1064 1.378 . S
C1057 C1056 1.367 . S
C1057 C1065 1.433 . S
C1058 H1054 0.929 . S
C1058 C1060 1.378 . S
C1058 C1062 1.350 . S
C1059 C1062 1.463 . S
C1059 C1064 1.350 . S
C1059 N1067 1.427 . S
C1060 H1051 0.930 . S
C1060 C1058 1.378 . S
C1060 C1061 1.367 . S
C1061 C1060 1.367 . S
C1061 C1063 1.433 . S
C1062 C1058 1.350 . S
C1062 C1059 1.463 . S
C1062 N1066 1.427 . S
C1063 H1053 0.929 . S
C1063 C1061 1.433 . S
C1063 N1066 1.384 . S
C1064 H1055 0.929 . S
C1064 C1056 1.378 . S
C1064 C1059 1.350 . S
C1065 H1052 0.929 . S
C1065 C1057 1.433 . S
C1065 N1067 1.384 . S
N1066 C1062 1.427 . S
N1066 C1063 1.384 . S
N1067 C1059 1.427 . S
N1067 C1065 1.384 . S
H1068 C1074 0.930 . S
H1069 C1078 0.930 . S
H1070 C1083 0.929 . S
H1071 C1081 0.929 . S
H1072 C1076 0.929 . S
H1073 C1082 0.929 . S
C1074 H1068 0.930 . S
C1074 C1075 1.367 . S
C1074 C1082 1.378 . S
C1075 C1074 1.367 . S
C1075 C1083 1.433 1_554 S
C1076 H1072 0.929 . S
C1076 C1078 1.378 . S
C1076 C1080 1.350 . S
C1077 C1080 1.463 . S
C1077 C1082 1.350 1_556 S
C1077 N1085 1.427 . S
C1078 H1069 0.930 . S
C1078 C1076 1.378 . S
C1078 C1079 1.367 . S
C1079 C1078 1.367 . S
C1079 C1081 1.433 . S
C1080 C1076 1.350 . S
C1080 C1077 1.463 . S
C1080 N1084 1.427 . S
C1081 H1071 0.929 . S
C1081 C1079 1.433 . S
C1081 N1084 1.384 . S
C1082 H1073 0.929 . S
C1082 C1074 1.378 . S
C1082 C1077 1.350 1_554 S
C1083 H1070 0.929 . S
C1083 C1075 1.433 1_556 S
C1083 N1085 1.384 . S
N1084 C1080 1.427 . S
N1084 C1081 1.384 . S
N1085 C1077 1.427 . S
N1085 C1083 1.384 . S
H1086 C1092 0.930 . S
H1087 C1096 0.930 . S
H1088 C1101 0.929 . S
H1089 C1099 0.929 . S
H1090 C1094 0.929 . S
H1091 C1100 0.929 . S
C1092 H1086 0.930 . S
C1092 C1093 1.367 . S
C1092 C1100 1.378 . S
C1093 C1092 1.367 . S
C1093 C1101 1.433 . S
C1094 H1090 0.929 . S
C1094 C1096 1.378 . S
C1094 C1098 1.350 . S
C1095 C1098 1.463 . S
C1095 C1100 1.350 . S
C1095 N1103 1.427 . S
C1096 H1087 0.930 . S
C1096 C1094 1.378 . S
C1096 C1097 1.367 . S
C1097 C1096 1.367 . S
C1097 C1099 1.433 . S
C1098 C1094 1.350 . S
C1098 C1095 1.463 . S
C1098 N1102 1.427 . S
C1099 H1089 0.929 . S
C1099 C1097 1.433 . S
C1099 N1102 1.384 . S
C1100 H1091 0.929 . S
C1100 C1092 1.378 . S
C1100 C1095 1.350 . S
C1101 H1088 0.929 . S
C1101 C1093 1.433 . S
C1101 N1103 1.384 . S
N1102 C1098 1.427 . S
N1102 C1099 1.384 . S
N1103 C1095 1.427 . S
N1103 C1101 1.384 . S
H1104 C1110 0.930 . S
H1105 C1114 0.930 . S
H1106 C1119 0.929 . S
H1107 C1117 0.929 . S
H1108 C1112 0.929 . S
H1109 C1118 0.929 . S
C1110 H1104 0.930 . S
C1110 C1111 1.367 . S
C1110 C1118 1.378 . S
C1111 C1110 1.367 . S
C1111 C1119 1.433 1_554 S
C1112 H1108 0.929 . S
C1112 C1114 1.378 . S
C1112 C1116 1.350 . S
C1113 C1116 1.463 . S
C1113 C1118 1.350 1_556 S
C1113 N1121 1.427 . S
C1114 H1105 0.930 . S
C1114 C1112 1.378 . S
C1114 C1115 1.367 . S
C1115 C1114 1.367 . S
C1115 C1117 1.433 . S
C1116 C1112 1.350 . S
C1116 C1113 1.463 . S
C1116 N1120 1.427 . S
C1117 H1107 0.929 . S
C1117 C1115 1.433 . S
C1117 N1120 1.384 . S
C1118 H1109 0.929 . S
C1118 C1110 1.378 . S
C1118 C1113 1.350 1_554 S
C1119 H1106 0.929 . S
C1119 C1111 1.433 1_556 S
C1119 N1121 1.384 . S
N1120 C1116 1.427 . S
N1120 C1117 1.384 . S
N1121 C1113 1.427 . S
N1121 C1119 1.384 . S
H1122 C1128 0.930 . S
H1123 C1132 0.930 . S
H1124 C1137 0.929 . S
H1125 C1135 0.929 . S
H1126 C1130 0.929 . S
H1127 C1136 0.929 . S
C1128 H1122 0.930 . S
C1128 C1129 1.367 . S
C1128 C1136 1.378 . S
C1129 C1128 1.367 . S
C1129 C1137 1.433 . S
C1130 H1126 0.929 . S
C1130 C1132 1.378 . S
C1130 C1134 1.350 . S
C1131 C1134 1.463 . S
C1131 C1136 1.350 . S
C1131 N1139 1.427 . S
C1132 H1123 0.930 . S
C1132 C1130 1.378 . S
C1132 C1133 1.367 . S
C1133 C1132 1.367 . S
C1133 C1135 1.433 . S
C1134 C1130 1.350 . S
C1134 C1131 1.463 . S
C1134 N1138 1.427 . S
C1135 H1125 0.929 . S
C1135 C1133 1.433 . S
C1135 N1138 1.384 . S
C1136 H1127 0.929 . S
C1136 C1128 1.378 . S
C1136 C1131 1.350 . S
C1137 H1124 0.929 . S
C1137 C1129 1.433 . S
C1137 N1139 1.384 . S
N1138 C1134 1.427 . S
N1138 C1135 1.384 . S
N1139 C1131 1.427 . S
N1139 C1137 1.384 . S
H1140 C1146 0.930 . S
H1141 C1150 0.930 . S
H1142 C1155 0.929 . S
H1143 C1153 0.929 . S
H1144 C1148 0.929 . S
H1145 C1154 0.929 . S
C1146 H1140 0.930 . S
C1146 C1147 1.367 . S
C1146 C1154 1.378 . S
C1147 C1146 1.367 . S
C1147 C1155 1.433 . S
C1148 H1144 0.929 . S
C1148 C1150 1.378 . S
C1148 C1152 1.350 . S
C1149 C1152 1.463 . S
C1149 C1154 1.350 . S
C1149 N1157 1.427 . S
C1150 H1141 0.930 . S
C1150 C1148 1.378 . S
C1150 C1151 1.367 . S
C1151 C1150 1.367 . S
C1151 C1153 1.433 . S
C1152 C1148 1.350 . S
C1152 C1149 1.463 . S
C1152 N1156 1.427 . S
C1153 H1143 0.929 . S
C1153 C1151 1.433 . S
C1153 N1156 1.384 . S
C1154 H1145 0.929 . S
C1154 C1146 1.378 . S
C1154 C1149 1.350 . S
C1155 H1142 0.929 . S
C1155 C1147 1.433 . S
C1155 N1157 1.384 . S
N1156 C1152 1.427 . S
N1156 C1153 1.384 . S
N1157 C1149 1.427 . S
N1157 C1155 1.384 . S
H1158 C1164 0.930 . S
H1159 C1168 0.930 . S
H1160 C1173 0.929 . S
H1161 C1171 0.929 . S
H1162 C1166 0.929 . S
H1163 C1172 0.929 . S
C1164 H1158 0.930 . S
C1164 C1165 1.367 . S
C1164 C1172 1.378 . S
C1165 C1164 1.367 . S
C1165 C1173 1.433 . S
C1166 H1162 0.929 . S
C1166 C1168 1.378 . S
C1166 C1170 1.350 . S
C1167 C1170 1.463 . S
C1167 C1172 1.350 . S
C1167 N1175 1.427 . S
C1168 H1159 0.930 . S
C1168 C1166 1.378 . S
C1168 C1169 1.367 . S
C1169 C1168 1.367 . S
C1169 C1171 1.433 . S
C1170 C1166 1.350 . S
C1170 C1167 1.463 . S
C1170 N1174 1.427 . S
C1171 H1161 0.929 . S
C1171 C1169 1.433 . S
C1171 N1174 1.384 . S
C1172 H1163 0.929 . S
C1172 C1164 1.378 . S
C1172 C1167 1.350 . S
C1173 H1160 0.929 . S
C1173 C1165 1.433 . S
C1173 N1175 1.384 . S
N1174 C1170 1.427 . S
N1174 C1171 1.384 . S
N1175 C1167 1.427 . S
N1175 C1173 1.384 . S
H1176 C1182 0.930 . S
H1177 C1186 0.930 . S
H1178 C1191 0.929 . S
H1179 C1189 0.929 . S
H1180 C1184 0.929 . S
H1181 C1190 0.929 . S
C1182 H1176 0.930 . S
C1182 C1183 1.367 . S
C1182 C1190 1.378 . S
C1183 C1182 1.367 . S
C1183 C1191 1.433 . S
C1184 H1180 0.929 . S
C1184 C1186 1.378 . S
C1184 C1188 1.350 . S
C1185 C1188 1.463 . S
C1185 C1190 1.350 . S
C1185 N1193 1.427 . S
C1186 H1177 0.930 . S
C1186 C1184 1.378 . S
C1186 C1187 1.367 . S
C1187 C1186 1.367 . S
C1187 C1189 1.433 . S
C1188 C1184 1.350 . S
C1188 C1185 1.463 . S
C1188 N1192 1.427 . S
C1189 H1179 0.929 . S
C1189 C1187 1.433 . S
C1189 N1192 1.384 . S
C1190 H1181 0.929 . S
C1190 C1182 1.378 . S
C1190 C1185 1.350 . S
C1191 H1178 0.929 . S
C1191 C1183 1.433 . S
C1191 N1193 1.384 . S
N1192 C1188 1.427 . S
N1192 C1189 1.384 . S
N1193 C1185 1.427 . S
N1193 C1191 1.384 . S
H1194 C1200 0.930 . S
H1195 C1204 0.930 . S
H1196 C1209 0.929 . S
H1197 C1207 0.929 . S
H1198 C1202 0.929 . S
H1199 C1208 0.929 . S
C1200 H1194 0.930 . S
C1200 C1201 1.367 . S
C1200 C1208 1.378 . S
C1201 C1200 1.367 . S
C1201 C1209 1.433 . S
C1202 H1198 0.929 . S
C1202 C1204 1.378 . S
C1202 C1206 1.350 . S
C1203 C1206 1.463 . S
C1203 C1208 1.350 . S
C1203 N1211 1.427 . S
C1204 H1195 0.930 . S
C1204 C1202 1.378 . S
C1204 C1205 1.367 . S
C1205 C1204 1.367 . S
C1205 C1207 1.433 . S
C1206 C1202 1.350 . S
C1206 C1203 1.463 . S
C1206 N1210 1.427 . S
C1207 H1197 0.929 . S
C1207 C1205 1.433 . S
C1207 N1210 1.384 . S
C1208 H1199 0.929 . S
C1208 C1200 1.378 . S
C1208 C1203 1.350 . S
C1209 H1196 0.929 . S
C1209 C1201 1.433 . S
C1209 N1211 1.384 . S
N1210 C1206 1.427 . S
N1210 C1207 1.384 . S
N1211 C1203 1.427 . S
N1211 C1209 1.384 . S
H1212 C1218 0.930 . S
H1213 C1222 0.930 . S
H1214 C1227 0.929 . S
H1215 C1225 0.929 . S
H1216 C1220 0.929 . S
H1217 C1226 0.929 . S
C1218 H1212 0.930 . S
C1218 C1219 1.367 . S
C1218 C1226 1.378 . S
C1219 C1218 1.367 . S
C1219 C1227 1.433 . S
C1220 H1216 0.929 . S
C1220 C1222 1.378 . S
C1220 C1224 1.350 . S
C1221 C1224 1.463 . S
C1221 C1226 1.350 . S
C1221 N1229 1.427 . S
C1222 H1213 0.930 . S
C1222 C1220 1.378 . S
C1222 C1223 1.367 . S
C1223 C1222 1.367 . S
C1223 C1225 1.433 . S
C1224 C1220 1.350 . S
C1224 C1221 1.463 . S
C1224 N1228 1.427 . S
C1225 H1215 0.929 . S
C1225 C1223 1.433 . S
C1225 N1228 1.384 . S
C1226 H1217 0.929 . S
C1226 C1218 1.378 . S
C1226 C1221 1.350 . S
C1227 H1214 0.929 . S
C1227 C1219 1.433 . S
C1227 N1229 1.384 . S
N1228 C1224 1.427 . S
N1228 C1225 1.384 . S
N1229 C1221 1.427 . S
N1229 C1227 1.384 . S
H1230 C1236 0.930 . S
H1231 C1240 0.930 . S
H1232 C1245 0.929 . S
H1233 C1243 0.929 . S
H1234 C1238 0.929 . S
H1235 C1244 0.929 . S
C1236 H1230 0.930 . S
C1236 C1237 1.367 . S
C1236 C1244 1.378 . S
C1237 C1236 1.367 . S
C1237 C1245 1.433 . S
C1238 H1234 0.929 . S
C1238 C1240 1.378 . S
C1238 C1242 1.350 1_554 S
C1239 C1242 1.463 . S
C1239 C1244 1.350 . S
C1239 N1247 1.427 . S
C1240 H1231 0.930 . S
C1240 C1238 1.378 . S
C1240 C1241 1.367 . S
C1241 C1240 1.367 . S
C1241 C1243 1.433 1_554 S
C1242 C1238 1.350 1_556 S
C1242 C1239 1.463 . S
C1242 N1246 1.427 . S
C1243 H1233 0.929 . S
C1243 C1241 1.433 1_556 S
C1243 N1246 1.384 . S
C1244 H1235 0.929 . S
C1244 C1236 1.378 . S
C1244 C1239 1.350 . S
C1245 H1232 0.929 . S
C1245 C1237 1.433 . S
C1245 N1247 1.384 . S
N1246 C1242 1.427 . S
N1246 C1243 1.384 . S
N1247 C1239 1.427 . S
N1247 C1245 1.384 . S
H1248 C1254 0.930 . S
H1249 C1258 0.930 . S
H1250 C1263 0.929 . S
H1251 C1261 0.929 . S
H1252 C1256 0.929 . S
H1253 C1262 0.929 . S
C1254 H1248 0.930 . S
C1254 C1255 1.367 . S
C1254 C1262 1.378 . S
C1255 C1254 1.367 . S
C1255 C1263 1.433 . S
C1256 H1252 0.929 . S
C1256 C1258 1.378 . S
C1256 C1260 1.350 . S
C1257 C1260 1.463 1_655 S
C1257 C1262 1.350 . S
C1257 N1265 1.427 . S
C1258 H1249 0.930 . S
C1258 C1256 1.378 . S
C1258 C1259 1.367 . S
C1259 C1258 1.367 . S
C1259 C1261 1.433 . S
C1260 C1256 1.350 . S
C1260 C1257 1.463 1_455 S
C1260 N1264 1.427 1_455 S
C1261 H1251 0.929 . S
C1261 C1259 1.433 . S
C1261 N1264 1.384 1_455 S
C1262 H1253 0.929 . S
C1262 C1254 1.378 . S
C1262 C1257 1.350 . S
C1263 H1250 0.929 . S
C1263 C1255 1.433 . S
C1263 N1265 1.384 . S
N1264 C1260 1.427 1_655 S
N1264 C1261 1.384 1_655 S
N1265 C1257 1.427 . S
N1265 C1263 1.384 . S
H1266 C1272 0.930 . S
H1267 C1276 0.930 . S
H1268 C1281 0.929 . S
H1269 C1279 0.929 . S
H1270 C1274 0.929 . S
H1271 C1280 0.929 . S
C1272 H1266 0.930 . S
C1272 C1273 1.367 . S
C1272 C1280 1.378 . S
C1273 C1272 1.367 . S
C1273 C1281 1.433 . S
C1274 H1270 0.929 . S
C1274 C1276 1.378 . S
C1274 C1278 1.350 . S
C1275 C1278 1.463 . S
C1275 C1280 1.350 . S
C1275 N1283 1.427 . S
C1276 H1267 0.930 . S
C1276 C1274 1.378 . S
C1276 C1277 1.367 . S
C1277 C1276 1.367 . S
C1277 C1279 1.433 . S
C1278 C1274 1.350 . S
C1278 C1275 1.463 . S
C1278 N1282 1.427 . S
C1279 H1269 0.929 . S
C1279 C1277 1.433 . S
C1279 N1282 1.384 . S
C1280 H1271 0.929 . S
C1280 C1272 1.378 . S
C1280 C1275 1.350 . S
C1281 H1268 0.929 . S
C1281 C1273 1.433 . S
C1281 N1283 1.384 . S
N1282 C1278 1.427 . S
N1282 C1279 1.384 . S
N1283 C1275 1.427 . S
N1283 C1281 1.384 . S
H1284 C1290 0.930 . S
H1285 C1294 0.930 . S
H1286 C1299 0.929 . S
H1287 C1297 0.929 . S
H1288 C1292 0.929 . S
H1289 C1298 0.929 . S
C1290 H1284 0.930 . S
C1290 C1291 1.367 . S
C1290 C1298 1.378 . S
C1291 C1290 1.367 . S
C1291 C1299 1.433 . S
C1292 H1288 0.929 . S
C1292 C1294 1.378 . S
C1292 C1296 1.350 . S
C1293 C1296 1.463 . S
C1293 C1298 1.350 . S
C1293 N1301 1.427 . S
C1294 H1285 0.930 . S
C1294 C1292 1.378 . S
C1294 C1295 1.367 . S
C1295 C1294 1.367 . S
C1295 C1297 1.433 . S
C1296 C1292 1.350 . S
C1296 C1293 1.463 . S
C1296 N1300 1.427 . S
C1297 H1287 0.929 . S
C1297 C1295 1.433 . S
C1297 N1300 1.384 . S
C1298 H1289 0.929 . S
C1298 C1290 1.378 . S
C1298 C1293 1.350 . S
C1299 H1286 0.929 . S
C1299 C1291 1.433 . S
C1299 N1301 1.384 . S
N1300 C1296 1.427 . S
N1300 C1297 1.384 . S
N1301 C1293 1.427 . S
N1301 C1299 1.384 . S
H1302 C1308 0.930 . S
H1303 C1312 0.930 . S
H1304 C1317 0.929 . S
H1305 C1315 0.929 . S
H1306 C1310 0.929 . S
H1307 C1316 0.929 . S
C1308 H1302 0.930 . S
C1308 C1309 1.367 . S
C1308 C1316 1.378 . S
C1309 C1308 1.367 . S
C1309 C1317 1.433 . S
C1310 H1306 0.929 . S
C1310 C1312 1.378 . S
C1310 C1314 1.350 . S
C1311 C1314 1.463 . S
C1311 C1316 1.350 . S
C1311 N1319 1.427 . S
C1312 H1303 0.930 . S
C1312 C1310 1.378 . S
C1312 C1313 1.367 . S
C1313 C1312 1.367 . S
C1313 C1315 1.433 . S
C1314 C1310 1.350 . S
C1314 C1311 1.463 . S
C1314 N1318 1.427 . S
C1315 H1305 0.929 . S
C1315 C1313 1.433 . S
C1315 N1318 1.384 . S
C1316 H1307 0.929 . S
C1316 C1308 1.378 . S
C1316 C1311 1.350 . S
C1317 H1304 0.929 . S
C1317 C1309 1.433 . S
C1317 N1319 1.384 . S
N1318 C1314 1.427 . S
N1318 C1315 1.384 . S
N1319 C1311 1.427 . S
N1319 C1317 1.384 . S
H1320 C1326 0.930 . S
H1321 C1330 0.930 . S
H1322 C1335 0.929 . S
H1323 C1333 0.929 . S
H1324 C1328 0.929 . S
H1325 C1334 0.929 . S
C1326 H1320 0.930 . S
C1326 C1327 1.367 . S
C1326 C1334 1.378 . S
C1327 C1326 1.367 . S
C1327 C1335 1.433 . S
C1328 H1324 0.929 . S
C1328 C1330 1.378 . S
C1328 C1332 1.350 . S
C1329 C1332 1.463 1_655 S
C1329 C1334 1.350 . S
C1329 N1337 1.427 . S
C1330 H1321 0.930 . S
C1330 C1328 1.378 . S
C1330 C1331 1.367 . S
C1331 C1330 1.367 . S
C1331 C1333 1.433 . S
C1332 C1328 1.350 . S
C1332 C1329 1.463 1_455 S
C1332 N1336 1.427 . S
C1333 H1323 0.929 . S
C1333 C1331 1.433 . S
C1333 N1336 1.384 . S
C1334 H1325 0.929 . S
C1334 C1326 1.378 . S
C1334 C1329 1.350 . S
C1335 H1322 0.929 . S
C1335 C1327 1.433 . S
C1335 N1337 1.384 . S
N1336 C1332 1.427 . S
N1336 C1333 1.384 . S
N1337 C1329 1.427 . S
N1337 C1335 1.384 . S
H1338 C1344 0.930 . S
H1339 C1348 0.930 . S
H1340 C1353 0.929 . S
H1341 C1351 0.929 . S
H1342 C1346 0.929 . S
H1343 C1352 0.929 . S
C1344 H1338 0.930 . S
C1344 C1345 1.367 . S
C1344 C1352 1.378 . S
C1345 C1344 1.367 . S
C1345 C1353 1.433 . S
C1346 H1342 0.929 . S
C1346 C1348 1.378 . S
C1346 C1350 1.350 . S
C1347 C1350 1.463 . S
C1347 C1352 1.350 . S
C1347 N1355 1.427 . S
C1348 H1339 0.930 . S
C1348 C1346 1.378 . S
C1348 C1349 1.367 . S
C1349 C1348 1.367 . S
C1349 C1351 1.433 . S
C1350 C1346 1.350 . S
C1350 C1347 1.463 . S
C1350 N1354 1.427 . S
C1351 H1341 0.929 . S
C1351 C1349 1.433 . S
C1351 N1354 1.384 . S
C1352 H1343 0.929 . S
C1352 C1344 1.378 . S
C1352 C1347 1.350 . S
C1353 H1340 0.929 . S
C1353 C1345 1.433 . S
C1353 N1355 1.384 . S
N1354 C1350 1.427 . S
N1354 C1351 1.384 . S
N1355 C1347 1.427 . S
N1355 C1353 1.384 . S
H1356 C1362 0.930 . S
H1357 C1366 0.930 . S
H1358 C1371 0.929 . S
H1359 C1369 0.929 1_556 S
H1360 C1364 0.929 . S
H1361 C1370 0.929 1_556 S
C1362 H1356 0.930 . S
C1362 C1363 1.367 . S
C1362 C1370 1.378 . S
C1363 C1362 1.367 . S
C1363 C1371 1.433 . S
C1364 H1360 0.929 . S
C1364 C1366 1.378 . S
C1364 C1368 1.350 . S
C1365 C1368 1.463 . S
C1365 C1370 1.350 . S
C1365 N1373 1.427 . S
C1366 H1357 0.930 . S
C1366 C1364 1.378 . S
C1366 C1367 1.367 . S
C1367 C1366 1.367 . S
C1367 C1369 1.433 . S
C1368 C1364 1.350 . S
C1368 C1365 1.463 . S
C1368 N1372 1.427 . S
C1369 H1359 0.929 1_554 S
C1369 C1367 1.433 . S
C1369 N1372 1.384 . S
C1370 H1361 0.929 1_554 S
C1370 C1362 1.378 . S
C1370 C1365 1.350 . S
C1371 H1358 0.929 . S
C1371 C1363 1.433 . S
C1371 N1373 1.384 . S
N1372 C1368 1.427 . S
N1372 C1369 1.384 . S
N1373 C1365 1.427 . S
N1373 C1371 1.384 . S
H1374 C1380 0.930 . S
H1375 C1384 0.930 . S
H1376 C1389 0.929 . S
H1377 C1387 0.929 . S
H1378 C1382 0.929 . S
H1379 C1388 0.929 . S
C1380 H1374 0.930 . S
C1380 C1381 1.367 . S
C1380 C1388 1.378 . S
C1381 C1380 1.367 . S
C1381 C1389 1.433 . S
C1382 H1378 0.929 . S
C1382 C1384 1.378 . S
C1382 C1386 1.350 . S
C1383 C1386 1.463 . S
C1383 C1388 1.350 . S
C1383 N1391 1.427 . S
C1384 H1375 0.930 . S
C1384 C1382 1.378 . S
C1384 C1385 1.367 . S
C1385 C1384 1.367 . S
C1385 C1387 1.433 . S
C1386 C1382 1.350 . S
C1386 C1383 1.463 . S
C1386 N1390 1.427 . S
C1387 H1377 0.929 . S
C1387 C1385 1.433 . S
C1387 N1390 1.384 . S
C1388 H1379 0.929 . S
C1388 C1380 1.378 . S
C1388 C1383 1.350 . S
C1389 H1376 0.929 . S
C1389 C1381 1.433 . S
C1389 N1391 1.384 . S
N1390 C1386 1.427 . S
N1390 C1387 1.384 . S
N1391 C1383 1.427 . S
N1391 C1389 1.384 . S
H1392 C1398 0.930 . S
H1393 C1402 0.930 . S
H1394 C1407 0.929 . S
H1395 C1405 0.929 . S
H1396 C1400 0.929 . S
H1397 C1406 0.929 . S
C1398 H1392 0.930 . S
C1398 C1399 1.367 . S
C1398 C1406 1.378 . S
C1399 C1398 1.367 . S
C1399 C1407 1.433 . S
C1400 H1396 0.929 . S
C1400 C1402 1.378 . S
C1400 C1404 1.350 . S
C1401 C1404 1.463 . S
C1401 C1406 1.350 . S
C1401 N1409 1.427 . S
C1402 H1393 0.930 . S
C1402 C1400 1.378 . S
C1402 C1403 1.367 . S
C1403 C1402 1.367 . S
C1403 C1405 1.433 . S
C1404 C1400 1.350 . S
C1404 C1401 1.463 . S
C1404 N1408 1.427 . S
C1405 H1395 0.929 . S
C1405 C1403 1.433 . S
C1405 N1408 1.384 . S
C1406 H1397 0.929 . S
C1406 C1398 1.378 . S
C1406 C1401 1.350 . S
C1407 H1394 0.929 . S
C1407 C1399 1.433 . S
C1407 N1409 1.384 . S
N1408 C1404 1.427 . S
N1408 C1405 1.384 . S
N1409 C1401 1.427 . S
N1409 C1407 1.384 . S
H1410 C1416 0.930 . S
H1411 C1420 0.930 . S
H1412 C1425 0.929 . S
H1413 C1423 0.929 . S
H1414 C1418 0.929 . S
H1415 C1424 0.929 . S
C1416 H1410 0.930 . S
C1416 C1417 1.367 . S
C1416 C1424 1.378 . S
C1417 C1416 1.367 . S
C1417 C1425 1.433 . S
C1418 H1414 0.929 . S
C1418 C1420 1.378 . S
C1418 C1422 1.350 . S
C1419 C1422 1.463 . S
C1419 C1424 1.350 . S
C1419 N1427 1.427 . S
C1420 H1411 0.930 . S
C1420 C1418 1.378 . S
C1420 C1421 1.367 . S
C1421 C1420 1.367 . S
C1421 C1423 1.433 . S
C1422 C1418 1.350 . S
C1422 C1419 1.463 . S
C1422 N1426 1.427 . S
C1423 H1413 0.929 . S
C1423 C1421 1.433 . S
C1423 N1426 1.384 . S
C1424 H1415 0.929 . S
C1424 C1416 1.378 . S
C1424 C1419 1.350 . S
C1425 H1412 0.929 . S
C1425 C1417 1.433 . S
C1425 N1427 1.384 . S
N1426 C1422 1.427 . S
N1426 C1423 1.384 . S
N1427 C1419 1.427 . S
N1427 C1425 1.384 . S
H1428 C1434 0.930 . S
H1429 C1438 0.930 . S
H1430 C1443 0.929 . S
H1431 C1441 0.929 . S
H1432 C1436 0.929 . S
H1433 C1442 0.929 . S
C1434 H1428 0.930 . S
C1434 C1435 1.367 . S
C1434 C1442 1.378 . S
C1435 C1434 1.367 . S
C1435 C1443 1.433 . S
C1436 H1432 0.929 . S
C1436 C1438 1.378 . S
C1436 C1440 1.350 . S
C1437 C1440 1.463 . S
C1437 C1442 1.350 . S
C1437 N1445 1.427 . S
C1438 H1429 0.930 . S
C1438 C1436 1.378 . S
C1438 C1439 1.367 . S
C1439 C1438 1.367 . S
C1439 C1441 1.433 . S
C1440 C1436 1.350 . S
C1440 C1437 1.463 . S
C1440 N1444 1.427 . S
C1441 H1431 0.929 . S
C1441 C1439 1.433 . S
C1441 N1444 1.384 . S
C1442 H1433 0.929 . S
C1442 C1434 1.378 . S
C1442 C1437 1.350 . S
C1443 H1430 0.929 . S
C1443 C1435 1.433 . S
C1443 N1445 1.384 . S
N1444 C1440 1.427 . S
N1444 C1441 1.384 . S
N1445 C1437 1.427 . S
N1445 C1443 1.384 . S
H1446 C1452 0.930 . S
H1447 C1456 0.930 . S
H1448 C1461 0.929 . S
H1449 C1459 0.929 . S
H1450 C1454 0.929 . S
H1451 C1460 0.929 . S
C1452 H1446 0.930 . S
C1452 C1453 1.367 . S
C1452 C1460 1.378 . S
C1453 C1452 1.367 . S
C1453 C1461 1.433 . S
C1454 H1450 0.929 . S
C1454 C1456 1.378 . S
C1454 C1458 1.350 . S
C1455 C1458 1.463 . S
C1455 C1460 1.350 . S
C1455 N1463 1.427 . S
C1456 H1447 0.930 . S
C1456 C1454 1.378 . S
C1456 C1457 1.367 . S
C1457 C1456 1.367 . S
C1457 C1459 1.433 . S
C1458 C1454 1.350 . S
C1458 C1455 1.463 . S
C1458 N1462 1.427 . S
C1459 H1449 0.929 . S
C1459 C1457 1.433 . S
C1459 N1462 1.384 . S
C1460 H1451 0.929 . S
C1460 C1452 1.378 . S
C1460 C1455 1.350 . S
C1461 H1448 0.929 . S
C1461 C1453 1.433 . S
C1461 N1463 1.384 . S
N1462 C1458 1.427 . S
N1462 C1459 1.384 . S
N1463 C1455 1.427 . S
N1463 C1461 1.384 . S
H1464 C1470 0.930 . S
H1465 C1474 0.930 . S
H1466 C1479 0.929 . S
H1467 C1477 0.929 . S
H1468 C1472 0.929 . S
H1469 C1478 0.929 . S
C1470 H1464 0.930 . S
C1470 C1471 1.367 . S
C1470 C1478 1.378 . S
C1471 C1470 1.367 . S
C1471 C1479 1.433 . S
C1472 H1468 0.929 . S
C1472 C1474 1.378 . S
C1472 C1476 1.350 . S
C1473 C1476 1.463 1_545 S
C1473 C1478 1.350 . S
C1473 N1481 1.427 . S
C1474 H1465 0.930 . S
C1474 C1472 1.378 . S
C1474 C1475 1.367 . S
C1475 C1474 1.367 . S
C1475 C1477 1.433 . S
C1476 C1472 1.350 . S
C1476 C1473 1.463 1_565 S
C1476 N1480 1.427 . S
C1477 H1467 0.929 . S
C1477 C1475 1.433 . S
C1477 N1480 1.384 . S
C1478 H1469 0.929 . S
C1478 C1470 1.378 . S
C1478 C1473 1.350 . S
C1479 H1466 0.929 . S
C1479 C1471 1.433 . S
C1479 N1481 1.384 . S
N1480 C1476 1.427 . S
N1480 C1477 1.384 . S
N1481 C1473 1.427 . S
N1481 C1479 1.384 . S
H1482 C1488 0.930 . S
H1483 C1492 0.930 . S
H1484 C1497 0.929 . S
H1485 C1495 0.929 . S
H1486 C1490 0.889 1_455 S
H1487 C1496 0.929 1_655 S
C1488 H1482 0.930 . S
C1488 C1489 1.367 . S
C1488 C1496 1.378 . S
C1489 C1488 1.367 . S
C1489 C1497 1.433 . S
C1490 H1486 0.889 1_655 S
C1490 C1492 1.413 . S
C1490 C1494 1.357 . S
C1491 C1494 1.463 1_465 S
C1491 C1496 1.350 . S
C1491 N1499 1.427 1_565 S
C1492 H1483 0.930 . S
C1492 C1490 1.413 . S
C1492 C1493 1.367 . S
C1493 C1492 1.367 . S
C1493 C1495 1.433 . S
C1494 C1490 1.357 . S
C1494 C1491 1.463 1_645 S
C1494 N1498 1.427 . S
C1495 H1485 0.929 . S
C1495 C1493 1.433 . S
C1495 N1498 1.384 . S
C1496 H1487 0.929 1_455 S
C1496 C1488 1.378 . S
C1496 C1491 1.350 . S
C1497 H1484 0.929 . S
C1497 C1489 1.433 . S
C1497 N1499 1.384 1_565 S
N1498 C1494 1.427 . S
N1498 C1495 1.384 . S
N1499 C1491 1.427 1_545 S
N1499 C1497 1.384 1_545 S
H1500 C1506 0.930 . S
H1501 C1510 0.930 . S
H1502 C1515 0.929 . S
H1503 C1513 0.929 . S
H1504 C1508 0.929 . S
H1505 C1514 0.929 . S
C1506 H1500 0.930 . S
C1506 C1507 1.367 . S
C1506 C1514 1.378 . S
C1507 C1506 1.367 . S
C1507 C1515 1.433 . S
C1508 H1504 0.929 . S
C1508 C1510 1.378 . S
C1508 C1512 1.350 . S
C1509 C1512 1.463 1_565 S
C1509 C1514 1.350 . S
C1509 N1517 1.427 1_565 S
C1510 H1501 0.930 . S
C1510 C1508 1.378 . S
C1510 C1511 1.367 . S
C1511 C1510 1.367 . S
C1511 C1513 1.433 . S
C1512 C1508 1.350 . S
C1512 C1509 1.463 1_545 S
C1512 N1516 1.427 . S
C1513 H1503 0.929 . S
C1513 C1511 1.433 . S
C1513 N1516 1.384 . S
C1514 H1505 0.929 . S
C1514 C1506 1.378 . S
C1514 C1509 1.350 . S
C1515 H1502 0.929 . S
C1515 C1507 1.433 . S
C1515 N1517 1.384 1_565 S
N1516 C1512 1.427 . S
N1516 C1513 1.384 . S
N1517 C1509 1.427 1_545 S
N1517 C1515 1.384 1_545 S
H1518 C1524 0.930 . S
H1519 C1528 0.930 . S
H1520 C1533 0.929 . S
H1521 C1531 0.929 . S
H1522 C1526 0.929 . S
H1523 C1532 0.922 1_455 S
C1524 H1518 0.930 . S
C1524 C1525 1.367 . S
C1524 C1532 1.378 . S
C1525 C1524 1.367 . S
C1525 C1533 1.433 . S
C1526 H1522 0.929 . S
C1526 C1528 1.378 . S
C1526 C1530 1.350 . S
C1527 C1530 1.463 1_665 S
C1527 C1532 1.350 . S
C1527 N1535 1.427 . S
C1528 H1519 0.930 . S
C1528 C1526 1.378 . S
C1528 C1529 1.367 . S
C1529 C1528 1.367 . S
C1529 C1531 1.433 . S
C1530 C1526 1.350 . S
C1530 C1527 1.463 1_445 S
C1530 N1534 1.427 . S
C1531 H1521 0.929 . S
C1531 C1529 1.433 . S
C1531 N1534 1.384 . S
C1532 H1523 0.922 1_655 S
C1532 C1524 1.378 . S
C1532 C1527 1.350 . S
C1533 H1520 0.929 . S
C1533 C1525 1.433 . S
C1533 N1535 1.384 . S
N1534 C1530 1.427 . S
N1534 C1531 1.384 . S
N1535 C1527 1.427 . S
N1535 C1533 1.384 . S
H1536 C1542 0.930 . S
H1537 C1546 0.930 . S
H1538 C1551 0.929 . S
H1539 C1549 0.929 . S
H1540 C1544 0.929 . S
H1541 C1550 0.929 . S
C1542 H1536 0.930 . S
C1542 C1543 1.367 . S
C1542 C1550 1.378 . S
C1543 C1542 1.367 . S
C1543 C1551 1.433 . S
C1544 H1540 0.929 . S
C1544 C1546 1.378 . S
C1544 C1548 1.350 . S
C1545 C1548 1.463 1_455 S
C1545 C1550 1.350 . S
C1545 N1553 1.427 . S
C1546 H1537 0.930 . S
C1546 C1544 1.378 . S
C1546 C1547 1.367 . S
C1547 C1546 1.367 . S
C1547 C1549 1.433 . S
C1548 C1544 1.350 . S
C1548 C1545 1.463 1_655 S
C1548 N1552 1.427 . S
C1549 H1539 0.929 . S
C1549 C1547 1.433 . S
C1549 N1552 1.384 . S
C1550 H1541 0.929 . S
C1550 C1542 1.378 . S
C1550 C1545 1.350 . S
C1551 H1538 0.929 . S
C1551 C1543 1.433 . S
C1551 N1553 1.384 . S
N1552 C1548 1.427 . S
N1552 C1549 1.384 . S
N1553 C1545 1.427 . S
N1553 C1551 1.384 . S
H1554 C1560 0.930 . S
H1555 C1564 0.930 . S
H1556 C1569 0.929 . S
H1557 C1567 0.929 . S
H1558 C1562 0.929 . S
H1559 C1568 0.929 . S
C1560 H1554 0.930 . S
C1560 C1561 1.367 1_554 S
C1560 C1568 1.378 . S
C1561 C1560 1.367 1_556 S
C1561 C1569 1.433 . S
C1562 H1558 0.929 . S
C1562 C1564 1.378 . S
C1562 C1566 1.350 . S
C1563 C1566 1.463 . S
C1563 C1568 1.350 . S
C1563 N1571 1.427 . S
C1564 H1555 0.930 . S
C1564 C1562 1.378 . S
C1564 C1565 1.367 . S
C1565 C1564 1.367 . S
C1565 C1567 1.433 . S
C1566 C1562 1.350 . S
C1566 C1563 1.463 . S
C1566 N1570 1.427 . S
C1567 H1557 0.929 . S
C1567 C1565 1.433 . S
C1567 N1570 1.384 . S
C1568 H1559 0.929 . S
C1568 C1560 1.378 . S
C1568 C1563 1.350 . S
C1569 H1556 0.929 . S
C1569 C1561 1.433 . S
C1569 N1571 1.384 1_556 S
N1570 C1566 1.427 . S
N1570 C1567 1.384 . S
N1571 C1563 1.427 . S
N1571 C1569 1.384 1_554 S
H1572 C1578 0.930 . S
H1573 C1582 0.930 . S
H1574 C1587 0.929 . S
H1575 C1585 0.929 . S
H1576 C1580 0.929 . S
H1577 C1586 0.929 . S
C1578 H1572 0.930 . S
C1578 C1579 1.367 . S
C1578 C1586 1.378 . S
C1579 C1578 1.367 . S
C1579 C1587 1.433 . S
C1580 H1576 0.929 . S
C1580 C1582 1.378 . S
C1580 C1584 1.350 . S
C1581 C1584 1.463 . S
C1581 C1586 1.350 . S
C1581 N1589 1.427 . S
C1582 H1573 0.930 . S
C1582 C1580 1.378 . S
C1582 C1583 1.367 . S
C1583 C1582 1.367 . S
C1583 C1585 1.433 . S
C1584 C1580 1.350 . S
C1584 C1581 1.463 . S
C1584 N1588 1.427 . S
C1585 H1575 0.929 . S
C1585 C1583 1.433 . S
C1585 N1588 1.384 . S
C1586 H1577 0.929 . S
C1586 C1578 1.378 . S
C1586 C1581 1.350 . S
C1587 H1574 0.929 . S
C1587 C1579 1.433 . S
C1587 N1589 1.384 . S
N1588 C1584 1.427 . S
N1588 C1585 1.384 . S
N1589 C1581 1.427 . S
N1589 C1587 1.384 . S
H1590 C1596 0.930 . S
H1591 C1600 0.930 . S
H1592 C1605 0.929 . S
H1593 C1603 0.929 . S
H1594 C1598 0.929 . S
H1595 C1604 0.929 . S
C1596 H1590 0.930 . S
C1596 C1597 1.367 . S
C1596 C1604 1.378 . S
C1597 C1596 1.367 . S
C1597 C1605 1.433 . S
C1598 H1594 0.929 . S
C1598 C1600 1.378 . S
C1598 C1602 1.350 . S
C1599 C1602 1.463 . S
C1599 C1604 1.350 . S
C1599 N1607 1.427 . S
C1600 H1591 0.930 . S
C1600 C1598 1.378 . S
C1600 C1601 1.367 . S
C1601 C1600 1.367 . S
C1601 C1603 1.433 . S
C1602 C1598 1.350 . S
C1602 C1599 1.463 . S
C1602 N1606 1.427 . S
C1603 H1593 0.929 . S
C1603 C1601 1.433 . S
C1603 N1606 1.384 . S
C1604 H1595 0.929 . S
C1604 C1596 1.378 . S
C1604 C1599 1.350 . S
C1605 H1592 0.929 . S
C1605 C1597 1.433 . S
C1605 N1607 1.384 . S
N1606 C1602 1.427 . S
N1606 C1603 1.384 . S
N1607 C1599 1.427 . S
N1607 C1605 1.384 . S
H1608 C1614 0.930 . S
H1609 C1618 0.930 . S
H1610 C1623 0.929 . S
H1611 C1621 0.929 . S
H1612 C1616 0.929 . S
H1613 C1622 0.929 . S
C1614 H1608 0.930 . S
C1614 C1615 1.367 . S
C1614 C1622 1.378 . S
C1615 C1614 1.367 . S
C1615 C1623 1.433 . S
C1616 H1612 0.929 . S
C1616 C1618 1.378 . S
C1616 C1620 1.350 . S
C1617 C1620 1.463 1_655 S
C1617 C1622 1.350 . S
C1617 N1625 1.427 . S
C1618 H1609 0.930 . S
C1618 C1616 1.378 . S
C1618 C1619 1.367 . S
C1619 C1618 1.367 . S
C1619 C1621 1.433 . S
C1620 C1616 1.350 . S
C1620 C1617 1.463 1_455 S
C1620 N1624 1.427 . S
C1621 H1611 0.929 . S
C1621 C1619 1.433 . S
C1621 N1624 1.384 . S
C1622 H1613 0.929 . S
C1622 C1614 1.378 . S
C1622 C1617 1.350 . S
C1623 H1610 0.929 . S
C1623 C1615 1.433 . S
C1623 N1625 1.384 . S
N1624 C1620 1.427 . S
N1624 C1621 1.384 . S
N1625 C1617 1.427 . S
N1625 C1623 1.384 . S
H1626 C1632 0.930 . S
H1627 C1636 0.930 . S
H1628 C1641 0.929 . S
H1629 C1639 0.929 . S
H1630 C1634 0.929 1_554 S
H1631 C1640 0.929 . S
C1632 H1626 0.930 . S
C1632 C1633 1.367 . S
C1632 C1640 1.378 . S
C1633 C1632 1.367 . S
C1633 C1641 1.433 . S
C1634 H1630 0.929 1_556 S
C1634 C1636 1.378 . S
C1634 C1638 1.350 1_556 S
C1635 C1638 1.463 . S
C1635 C1640 1.350 . S
C1635 N1643 1.427 . S
C1636 H1627 0.930 . S
C1636 C1634 1.378 . S
C1636 C1637 1.367 . S
C1637 C1636 1.367 . S
C1637 C1639 1.433 . S
C1638 C1634 1.350 1_554 S
C1638 C1635 1.463 . S
C1638 N1642 1.427 . S
C1639 H1629 0.929 . S
C1639 C1637 1.433 . S
C1639 N1642 1.384 1_556 S
C1640 H1631 0.929 . S
C1640 C1632 1.378 . S
C1640 C1635 1.350 . S
C1641 H1628 0.929 . S
C1641 C1633 1.433 . S
C1641 N1643 1.384 . S
N1642 C1638 1.427 . S
N1642 C1639 1.384 1_554 S
N1643 C1635 1.427 . S
N1643 C1641 1.384 . S
H1644 C1650 0.930 . S
H1645 C1654 0.930 . S
H1646 C1659 0.929 . S
H1647 C1657 0.929 . S
H1648 C1652 0.929 . S
H1649 C1658 0.929 . S
C1650 H1644 0.930 . S
C1650 C1651 1.367 . S
C1650 C1658 1.378 . S
C1651 C1650 1.367 . S
C1651 C1659 1.433 . S
C1652 H1648 0.929 . S
C1652 C1654 1.378 . S
C1652 C1656 1.350 . S
C1653 C1656 1.463 . S
C1653 C1658 1.350 . S
C1653 N1661 1.427 . S
C1654 H1645 0.930 . S
C1654 C1652 1.378 . S
C1654 C1655 1.367 . S
C1655 C1654 1.367 . S
C1655 C1657 1.433 . S
C1656 C1652 1.350 . S
C1656 C1653 1.463 . S
C1656 N1660 1.427 . S
C1657 H1647 0.929 . S
C1657 C1655 1.433 . S
C1657 N1660 1.384 . S
C1658 H1649 0.929 . S
C1658 C1650 1.378 . S
C1658 C1653 1.350 . S
C1659 H1646 0.929 . S
C1659 C1651 1.433 . S
C1659 N1661 1.384 . S
N1660 C1656 1.427 . S
N1660 C1657 1.384 . S
N1661 C1653 1.427 . S
N1661 C1659 1.384 . S
H1662 C1668 0.930 . S
H1663 C1672 0.930 . S
H1664 C1677 0.929 . S
H1665 C1675 0.929 . S
H1666 C1670 0.929 . S
H1667 C1676 0.929 . S
C1668 H1662 0.930 . S
C1668 C1669 1.367 . S
C1668 C1676 1.378 . S
C1669 C1668 1.367 . S
C1669 C1677 1.433 . S
C1670 H1666 0.929 . S
C1670 C1672 1.378 . S
C1670 C1674 1.350 . S
C1671 C1674 1.463 . S
C1671 C1676 1.350 . S
C1671 N1679 1.427 . S
C1672 H1663 0.930 . S
C1672 C1670 1.378 . S
C1672 C1673 1.367 . S
C1673 C1672 1.367 . S
C1673 C1675 1.433 . S
C1674 C1670 1.350 . S
C1674 C1671 1.463 . S
C1674 N1678 1.427 . S
C1675 H1665 0.929 . S
C1675 C1673 1.433 . S
C1675 N1678 1.384 . S
C1676 H1667 0.929 . S
C1676 C1668 1.378 . S
C1676 C1671 1.350 . S
C1677 H1664 0.929 . S
C1677 C1669 1.433 . S
C1677 N1679 1.384 . S
N1678 C1674 1.427 . S
N1678 C1675 1.384 . S
N1679 C1671 1.427 . S
N1679 C1677 1.384 . S
H1680 C1686 0.930 . S
H1681 C1690 0.930 . S
H1682 C1695 0.929 . S
H1683 C1693 0.929 . S
H1684 C1688 0.929 . S
H1685 C1694 0.929 . S
C1686 H1680 0.930 . S
C1686 C1687 1.367 . S
C1686 C1694 1.378 . S
C1687 C1686 1.367 . S
C1687 C1695 1.433 . S
C1688 H1684 0.929 . S
C1688 C1690 1.378 . S
C1688 C1692 1.350 . S
C1689 C1692 1.463 1_455 S
C1689 C1694 1.350 . S
C1689 N1697 1.427 . S
C1690 H1681 0.930 . S
C1690 C1688 1.378 . S
C1690 C1691 1.367 . S
C1691 C1690 1.367 . S
C1691 C1693 1.433 . S
C1692 C1688 1.350 . S
C1692 C1689 1.463 1_655 S
C1692 N1696 1.427 . S
C1693 H1683 0.929 . S
C1693 C1691 1.433 . S
C1693 N1696 1.384 . S
C1694 H1685 0.929 . S
C1694 C1686 1.378 . S
C1694 C1689 1.350 . S
C1695 H1682 0.929 . S
C1695 C1687 1.433 . S
C1695 N1697 1.384 . S
N1696 C1692 1.427 . S
N1696 C1693 1.384 . S
N1697 C1689 1.427 . S
N1697 C1695 1.384 . S
H1698 C1704 0.930 . S
H1699 C1708 0.930 . S
H1700 C1713 0.929 . S
H1701 C1711 0.929 . S
H1702 C1706 0.929 . S
H1703 C1712 0.929 . S
C1704 H1698 0.930 . S
C1704 C1705 1.367 . S
C1704 C1712 1.378 . S
C1705 C1704 1.367 . S
C1705 C1713 1.433 . S
C1706 H1702 0.929 . S
C1706 C1708 1.378 . S
C1706 C1710 1.350 1_556 S
C1707 C1710 1.463 . S
C1707 C1712 1.350 . S
C1707 N1715 1.427 . S
C1708 H1699 0.930 . S
C1708 C1706 1.378 . S
C1708 C1709 1.367 . S
C1709 C1708 1.367 . S
C1709 C1711 1.433 . S
C1710 C1706 1.350 1_554 S
C1710 C1707 1.463 . S
C1710 N1714 1.427 . S
C1711 H1701 0.929 . S
C1711 C1709 1.433 . S
C1711 N1714 1.384 1_556 S
C1712 H1703 0.929 . S
C1712 C1704 1.378 . S
C1712 C1707 1.350 . S
C1713 H1700 0.929 . S
C1713 C1705 1.433 . S
C1713 N1715 1.384 . S
N1714 C1710 1.427 . S
N1714 C1711 1.384 1_554 S
N1715 C1707 1.427 . S
N1715 C1713 1.384 . S
H1716 C1722 0.930 . S
H1717 C1726 0.930 . S
H1718 C1731 0.929 . S
H1719 C1729 0.929 . S
H1720 C1724 0.929 . S
H1721 C1730 0.929 . S
C1722 H1716 0.930 . S
C1722 C1723 1.367 . S
C1722 C1730 1.378 . S
C1723 C1722 1.367 . S
C1723 C1731 1.433 . S
C1724 H1720 0.929 . S
C1724 C1726 1.378 . S
C1724 C1728 1.350 . S
C1725 C1728 1.463 . S
C1725 C1730 1.350 . S
C1725 N1733 1.427 . S
C1726 H1717 0.930 . S
C1726 C1724 1.378 . S
C1726 C1727 1.367 . S
C1727 C1726 1.367 . S
C1727 C1729 1.433 . S
C1728 C1724 1.350 . S
C1728 C1725 1.463 . S
C1728 N1732 1.427 . S
C1729 H1719 0.929 . S
C1729 C1727 1.433 . S
C1729 N1732 1.384 . S
C1730 H1721 0.929 . S
C1730 C1722 1.378 . S
C1730 C1725 1.350 . S
C1731 H1718 0.929 . S
C1731 C1723 1.433 . S
C1731 N1733 1.384 . S
N1732 C1728 1.427 . S
N1732 C1729 1.384 . S
N1733 C1725 1.427 . S
N1733 C1731 1.384 . S
H1734 C1740 0.930 . S
H1735 C1744 0.930 . S
H1736 C1749 0.929 . S
H1737 C1747 0.929 . S
H1738 C1742 0.929 . S
H1739 C1748 0.929 . S
C1740 H1734 0.930 . S
C1740 C1741 1.367 . S
C1740 C1748 1.378 . S
C1741 C1740 1.367 . S
C1741 C1749 1.433 . S
C1742 H1738 0.929 . S
C1742 C1744 1.378 . S
C1742 C1746 1.350 . S
C1743 C1746 1.463 . S
C1743 C1748 1.350 . S
C1743 N1751 1.427 . S
C1744 H1735 0.930 . S
C1744 C1742 1.378 . S
C1744 C1745 1.367 . S
C1745 C1744 1.367 . S
C1745 C1747 1.433 . S
C1746 C1742 1.350 . S
C1746 C1743 1.463 . S
C1746 N1750 1.427 . S
C1747 H1737 0.929 . S
C1747 C1745 1.433 . S
C1747 N1750 1.384 . S
C1748 H1739 0.929 . S
C1748 C1740 1.378 . S
C1748 C1743 1.350 . S
C1749 H1736 0.929 . S
C1749 C1741 1.433 . S
C1749 N1751 1.384 . S
N1750 C1746 1.427 . S
N1750 C1747 1.384 . S
N1751 C1743 1.427 . S
N1751 C1749 1.384 . S
H1752 C1758 0.930 . S
H1753 C1762 0.930 . S
H1754 C1767 0.929 . S
H1755 C1765 0.929 . S
H1756 C1760 0.929 . S
H1757 C1766 0.882 1_655 S
C1758 H1752 0.930 . S
C1758 C1759 1.367 . S
C1758 C1766 1.408 . S
C1759 C1758 1.367 . S
C1759 C1767 1.433 . S
C1760 H1756 0.929 . S
C1760 C1762 1.378 1_455 S
C1760 C1764 1.350 1_455 S
C1761 C1764 1.463 1_455 S
C1761 C1766 1.368 . S
C1761 N1769 1.427 . S
C1762 H1753 0.930 . S
C1762 C1760 1.378 1_655 S
C1762 C1763 1.367 . S
C1763 C1762 1.367 . S
C1763 C1765 1.433 . S
C1764 C1760 1.350 1_655 S
C1764 C1761 1.463 1_655 S
C1764 N1768 1.427 . S
C1765 H1755 0.929 . S
C1765 C1763 1.433 . S
C1765 N1768 1.384 . S
C1766 H1757 0.882 1_455 S
C1766 C1758 1.408 . S
C1766 C1761 1.368 . S
C1767 H1754 0.929 . S
C1767 C1759 1.433 . S
C1767 N1769 1.384 . S
N1768 C1764 1.427 . S
N1768 C1765 1.384 . S
N1769 C1761 1.427 . S
N1769 C1767 1.384 . S
H1770 C1776 0.930 . S
H1771 C1780 0.930 . S
H1772 C1785 0.929 . S
H1773 C1783 0.929 . S
H1774 C1778 0.929 . S
H1775 C1784 0.929 . S
C1776 H1770 0.930 . S
C1776 C1777 1.367 1_554 S
C1776 C1784 1.378 . S
C1777 C1776 1.367 1_556 S
C1777 C1785 1.433 . S
C1778 H1774 0.929 . S
C1778 C1780 1.378 . S
C1778 C1782 1.350 . S
C1779 C1782 1.463 . S
C1779 C1784 1.350 . S
C1779 N1787 1.427 . S
C1780 H1771 0.930 . S
C1780 C1778 1.378 . S
C1780 C1781 1.367 . S
C1781 C1780 1.367 . S
C1781 C1783 1.433 . S
C1782 C1778 1.350 . S
C1782 C1779 1.463 . S
C1782 N1786 1.427 . S
C1783 H1773 0.929 . S
C1783 C1781 1.433 . S
C1783 N1786 1.384 . S
C1784 H1775 0.929 . S
C1784 C1776 1.378 . S
C1784 C1779 1.350 . S
C1785 H1772 0.929 . S
C1785 C1777 1.433 . S
C1785 N1787 1.384 1_556 S
N1786 C1782 1.427 . S
N1786 C1783 1.384 . S
N1787 C1779 1.427 . S
N1787 C1785 1.384 1_554 S
H1788 C1794 0.930 . S
H1789 C1798 0.930 . S
H1790 C1803 0.929 . S
H1791 C1801 0.929 . S
H1792 C1796 0.929 . S
H1793 C1802 0.929 . S
C1794 H1788 0.930 . S
C1794 C1795 1.367 . S
C1794 C1802 1.378 . S
C1795 C1794 1.367 . S
C1795 C1803 1.433 . S
C1796 H1792 0.929 . S
C1796 C1798 1.378 . S
C1796 C1800 1.350 . S
C1797 C1800 1.463 . S
C1797 C1802 1.350 . S
C1797 N1805 1.427 . S
C1798 H1789 0.930 . S
C1798 C1796 1.378 . S
C1798 C1799 1.367 . S
C1799 C1798 1.367 . S
C1799 C1801 1.433 . S
C1800 C1796 1.350 . S
C1800 C1797 1.463 . S
C1800 N1804 1.427 . S
C1801 H1791 0.929 . S
C1801 C1799 1.433 . S
C1801 N1804 1.384 . S
C1802 H1793 0.929 . S
C1802 C1794 1.378 . S
C1802 C1797 1.350 . S
C1803 H1790 0.929 . S
C1803 C1795 1.433 . S
C1803 N1805 1.384 . S
N1804 C1800 1.427 . S
N1804 C1801 1.384 . S
N1805 C1797 1.427 . S
N1805 C1803 1.384 . S
H1806 C1812 0.930 . S
H1807 C1816 0.930 . S
H1808 C1821 0.929 . S
H1809 C1819 0.929 . S
H1810 C1814 0.929 . S
H1811 C1820 0.929 . S
C1812 H1806 0.930 . S
C1812 C1813 1.367 . S
C1812 C1820 1.378 . S
C1813 C1812 1.367 . S
C1813 C1821 1.433 . S
C1814 H1810 0.929 . S
C1814 C1816 1.378 . S
C1814 C1818 1.350 . S
C1815 C1818 1.463 . S
C1815 C1820 1.350 . S
C1815 N1823 1.427 . S
C1816 H1807 0.930 . S
C1816 C1814 1.378 . S
C1816 C1817 1.367 . S
C1817 C1816 1.367 . S
C1817 C1819 1.433 . S
C1818 C1814 1.350 . S
C1818 C1815 1.463 . S
C1818 N1822 1.427 . S
C1819 H1809 0.929 . S
C1819 C1817 1.433 . S
C1819 N1822 1.384 . S
C1820 H1811 0.929 . S
C1820 C1812 1.378 . S
C1820 C1815 1.350 . S
C1821 H1808 0.929 . S
C1821 C1813 1.433 . S
C1821 N1823 1.384 . S
N1822 C1818 1.427 . S
N1822 C1819 1.384 . S
N1823 C1815 1.427 . S
N1823 C1821 1.384 . S
H1824 C1830 0.930 . S
H1825 C1834 0.930 . S
H1826 C1839 0.929 . S
H1827 C1837 0.929 . S
H1828 C1832 0.929 . S
H1829 C1838 0.929 . S
C1830 H1824 0.930 . S
C1830 C1831 1.367 . S
C1830 C1838 1.378 . S
C1831 C1830 1.367 . S
C1831 C1839 1.433 . S
C1832 H1828 0.929 . S
C1832 C1834 1.378 . S
C1832 C1836 1.350 . S
C1833 C1836 1.463 . S
C1833 C1838 1.350 . S
C1833 N1841 1.427 . S
C1834 H1825 0.930 . S
C1834 C1832 1.378 . S
C1834 C1835 1.367 . S
C1835 C1834 1.367 . S
C1835 C1837 1.433 . S
C1836 C1832 1.350 . S
C1836 C1833 1.463 . S
C1836 N1840 1.427 . S
C1837 H1827 0.929 . S
C1837 C1835 1.433 . S
C1837 N1840 1.384 . S
C1838 H1829 0.929 . S
C1838 C1830 1.378 . S
C1838 C1833 1.350 . S
C1839 H1826 0.929 . S
C1839 C1831 1.433 . S
C1839 N1841 1.384 . S
N1840 C1836 1.427 . S
N1840 C1837 1.384 . S
N1841 C1833 1.427 . S
N1841 C1839 1.384 . S
H1842 C1848 0.930 . S
H1843 C1852 0.930 . S
H1844 C1857 0.929 . S
H1845 C1855 0.929 . S
H1846 C1850 0.929 . S
H1847 C1856 0.929 . S
C1848 H1842 0.930 . S
C1848 C1849 1.367 . S
C1848 C1856 1.378 . S
C1849 C1848 1.367 . S
C1849 C1857 1.433 . S
C1850 H1846 0.929 . S
C1850 C1852 1.378 . S
C1850 C1854 1.350 . S
C1851 C1854 1.463 . S
C1851 C1856 1.350 . S
C1851 N1859 1.427 . S
C1852 H1843 0.930 . S
C1852 C1850 1.378 . S
C1852 C1853 1.367 . S
C1853 C1852 1.367 . S
C1853 C1855 1.433 . S
C1854 C1850 1.350 . S
C1854 C1851 1.463 . S
C1854 N1858 1.427 . S
C1855 H1845 0.929 . S
C1855 C1853 1.433 . S
C1855 N1858 1.384 . S
C1856 H1847 0.929 . S
C1856 C1848 1.378 . S
C1856 C1851 1.350 . S
C1857 H1844 0.929 . S
C1857 C1849 1.433 . S
C1857 N1859 1.384 . S
N1858 C1854 1.427 . S
N1858 C1855 1.384 . S
N1859 C1851 1.427 . S
N1859 C1857 1.384 . S
H1860 C1866 0.930 . S
H1861 C1870 0.930 . S
H1862 C1875 0.929 . S
H1863 C1873 0.929 . S
H1864 C1868 0.929 . S
H1865 C1874 0.929 . S
C1866 H1860 0.930 . S
C1866 C1867 1.367 . S
C1866 C1874 1.378 . S
C1867 C1866 1.367 . S
C1867 C1875 1.433 . S
C1868 H1864 0.929 . S
C1868 C1870 1.378 . S
C1868 C1872 1.350 . S
C1869 C1872 1.463 1_655 S
C1869 C1874 1.350 . S
C1869 N1877 1.427 . S
C1870 H1861 0.930 . S
C1870 C1868 1.378 . S
C1870 C1871 1.367 . S
C1871 C1870 1.367 . S
C1871 C1873 1.433 . S
C1872 C1868 1.350 . S
C1872 C1869 1.463 1_455 S
C1872 N1876 1.427 . S
C1873 H1863 0.929 . S
C1873 C1871 1.433 . S
C1873 N1876 1.384 . S
C1874 H1865 0.929 . S
C1874 C1866 1.378 . S
C1874 C1869 1.350 . S
C1875 H1862 0.929 . S
C1875 C1867 1.433 . S
C1875 N1877 1.384 . S
N1876 C1872 1.427 . S
N1876 C1873 1.384 . S
N1877 C1869 1.427 . S
N1877 C1875 1.384 . S
H1878 C1884 0.930 1_556 S
H1879 C1888 0.930 . S
H1880 C1893 0.935 . S
H1881 C1891 0.929 . S
H1882 C1886 0.929 . S
H1883 C1892 0.929 . S
C1884 H1878 0.930 1_554 S
C1884 C1885 1.367 1_554 S
C1884 C1892 1.378 . S
C1885 C1884 1.367 1_556 S
C1885 C1893 1.437 . S
C1886 H1882 0.929 . S
C1886 C1888 1.378 . S
C1886 C1890 1.350 . S
C1887 C1890 1.463 . S
C1887 C1892 1.350 . S
C1887 N1895 1.427 . S
C1888 H1879 0.930 . S
C1888 C1886 1.378 . S
C1888 C1889 1.367 . S
C1889 C1888 1.367 . S
C1889 C1891 1.433 . S
C1890 C1886 1.350 . S
C1890 C1887 1.463 . S
C1890 N1894 1.427 . S
C1891 H1881 0.929 . S
C1891 C1889 1.433 . S
C1891 N1894 1.384 . S
C1892 H1883 0.929 . S
C1892 C1884 1.378 . S
C1892 C1887 1.350 . S
C1893 H1880 0.935 . S
C1893 C1885 1.437 . S
C1893 N1895 1.374 1_556 S
N1894 C1890 1.427 . S
N1894 C1891 1.384 . S
N1895 C1887 1.427 . S
N1895 C1893 1.374 1_554 S
H1896 C1902 0.930 . S
H1897 C1906 0.930 . S
H1898 C1911 0.929 . S
H1899 C1909 0.929 . S
H1900 C1904 0.929 . S
H1901 C1910 0.929 . S
C1902 H1896 0.930 . S
C1902 C1903 1.367 . S
C1902 C1910 1.378 . S
C1903 C1902 1.367 . S
C1903 C1911 1.433 . S
C1904 H1900 0.929 . S
C1904 C1906 1.378 . S
C1904 C1908 1.350 . S
C1905 C1908 1.463 . S
C1905 C1910 1.350 . S
C1905 N1913 1.427 . S
C1906 H1897 0.930 . S
C1906 C1904 1.378 . S
C1906 C1907 1.367 . S
C1907 C1906 1.367 . S
C1907 C1909 1.433 . S
C1908 C1904 1.350 . S
C1908 C1905 1.463 . S
C1908 N1912 1.427 . S
C1909 H1899 0.929 . S
C1909 C1907 1.433 . S
C1909 N1912 1.384 . S
C1910 H1901 0.929 . S
C1910 C1902 1.378 . S
C1910 C1905 1.350 . S
C1911 H1898 0.929 . S
C1911 C1903 1.433 . S
C1911 N1913 1.384 . S
N1912 C1908 1.427 . S
N1912 C1909 1.384 . S
N1913 C1905 1.427 . S
N1913 C1911 1.384 . S
H1914 C1920 0.930 . S
H1915 C1924 0.930 . S
H1916 C1929 0.929 . S
H1917 C1927 0.929 . S
H1918 C1922 0.929 . S
H1919 C1928 0.929 . S
C1920 H1914 0.930 . S
C1920 C1921 1.367 . S
C1920 C1928 1.378 . S
C1921 C1920 1.367 . S
C1921 C1929 1.433 . S
C1922 H1918 0.929 . S
C1922 C1924 1.378 . S
C1922 C1926 1.350 . S
C1923 C1926 1.463 . S
C1923 C1928 1.350 . S
C1923 N1931 1.427 . S
C1924 H1915 0.930 . S
C1924 C1922 1.378 . S
C1924 C1925 1.367 . S
C1925 C1924 1.367 . S
C1925 C1927 1.433 . S
C1926 C1922 1.350 . S
C1926 C1923 1.463 . S
C1926 N1930 1.427 . S
C1927 H1917 0.929 . S
C1927 C1925 1.433 . S
C1927 N1930 1.384 . S
C1928 H1919 0.929 . S
C1928 C1920 1.378 . S
C1928 C1923 1.350 . S
C1929 H1916 0.929 . S
C1929 C1921 1.433 . S
C1929 N1931 1.384 . S
N1930 C1926 1.427 . S
N1930 C1927 1.384 . S
N1931 C1923 1.427 . S
N1931 C1929 1.384 . S
H1932 C1938 0.930 . S
H1933 C1942 0.930 . S
H1934 C1947 0.929 . S
H1935 C1945 0.929 . S
H1936 C1940 0.929 . S
H1937 C1946 0.929 . S
C1938 H1932 0.930 . S
C1938 C1939 1.367 . S
C1938 C1946 1.378 . S
C1939 C1938 1.367 . S
C1939 C1947 1.433 . S
C1940 H1936 0.929 . S
C1940 C1942 1.378 . S
C1940 C1944 1.350 . S
C1941 C1944 1.463 1_455 S
C1941 C1946 1.350 . S
C1941 N1949 1.428 1_455 S
C1942 H1933 0.930 . S
C1942 C1940 1.378 . S
C1942 C1943 1.367 . S
C1943 C1942 1.367 . S
C1943 C1945 1.433 . S
C1944 C1940 1.350 . S
C1944 C1941 1.463 1_655 S
C1944 N1948 1.427 . S
C1945 H1935 0.929 . S
C1945 C1943 1.433 . S
C1945 N1948 1.384 . S
C1946 H1937 0.929 . S
C1946 C1938 1.378 . S
C1946 C1941 1.350 . S
C1947 H1934 0.929 . S
C1947 C1939 1.433 . S
C1947 N1949 1.385 1_455 S
N1948 C1944 1.427 . S
N1948 C1945 1.384 . S
N1949 C1941 1.428 1_655 S
N1949 C1947 1.385 1_655 S
H1950 C1956 0.930 . S
H1951 C1960 0.930 . S
H1952 C1965 0.929 . S
H1953 C1963 0.929 . S
H1954 C1958 0.929 1_554 S
H1955 C1964 0.929 . S
C1956 H1950 0.930 . S
C1956 C1957 1.367 . S
C1956 C1964 1.378 . S
C1957 C1956 1.367 . S
C1957 C1965 1.433 . S
C1958 H1954 0.929 1_556 S
C1958 C1960 1.378 . S
C1958 C1962 1.350 1_556 S
C1959 C1962 1.463 . S
C1959 C1964 1.350 . S
C1959 N1967 1.427 . S
C1960 H1951 0.930 . S
C1960 C1958 1.378 . S
C1960 C1961 1.367 . S
C1961 C1960 1.367 . S
C1961 C1963 1.433 . S
C1962 C1958 1.350 1_554 S
C1962 C1959 1.463 . S
C1962 N1966 1.433 . S
C1963 H1953 0.929 . S
C1963 C1961 1.433 . S
C1963 N1966 1.370 1_556 S
C1964 H1955 0.929 . S
C1964 C1956 1.378 . S
C1964 C1959 1.350 . S
C1965 H1952 0.929 . S
C1965 C1957 1.433 . S
C1965 N1967 1.384 . S
N1966 C1962 1.433 . S
N1966 C1963 1.370 1_554 S
N1967 C1959 1.427 . S
N1967 C1965 1.384 . S
H1968 C1974 0.930 . S
H1969 C1978 0.930 . S
H1970 C1983 0.929 . S
H1971 C1981 0.929 . S
H1972 C1976 0.929 . S
H1973 C1982 0.929 . S
C1974 H1968 0.930 . S
C1974 C1975 1.367 . S
C1974 C1982 1.378 . S
C1975 C1974 1.367 . S
C1975 C1983 1.433 . S
C1976 H1972 0.929 . S
C1976 C1978 1.378 . S
C1976 C1980 1.350 . S
C1977 C1980 1.463 . S
C1977 C1982 1.350 . S
C1977 N1985 1.427 . S
C1978 H1969 0.930 . S
C1978 C1976 1.378 . S
C1978 C1979 1.367 . S
C1979 C1978 1.367 . S
C1979 C1981 1.433 . S
C1980 C1976 1.350 . S
C1980 C1977 1.463 . S
C1980 N1984 1.427 . S
C1981 H1971 0.929 . S
C1981 C1979 1.433 . S
C1981 N1984 1.384 . S
C1982 H1973 0.929 . S
C1982 C1974 1.378 . S
C1982 C1977 1.350 . S
C1983 H1970 0.929 . S
C1983 C1975 1.433 . S
C1983 N1985 1.384 . S
N1984 C1980 1.427 . S
N1984 C1981 1.384 . S
N1985 C1977 1.427 . S
N1985 C1983 1.384 . S
H1986 C1992 0.930 . S
H1987 C1996 0.930 . S
H1988 C2001 0.929 . S
H1989 C1999 0.929 . S
H1990 C1994 0.929 . S
H1991 C2000 0.929 . S
C1992 H1986 0.930 . S
C1992 C1993 1.367 . S
C1992 C2000 1.378 . S
C1993 C1992 1.367 . S
C1993 C2001 1.433 . S
C1994 H1990 0.929 . S
C1994 C1996 1.378 . S
C1994 C1998 1.350 . S
C1995 C1998 1.463 . S
C1995 C2000 1.350 . S
C1995 N2003 1.427 . S
C1996 H1987 0.930 . S
C1996 C1994 1.378 . S
C1996 C1997 1.367 . S
C1997 C1996 1.367 . S
C1997 C1999 1.433 . S
C1998 C1994 1.350 . S
C1998 C1995 1.463 . S
C1998 N2002 1.427 . S
C1999 H1989 0.929 . S
C1999 C1997 1.433 . S
C1999 N2002 1.384 . S
C2000 H1991 0.929 . S
C2000 C1992 1.378 . S
C2000 C1995 1.350 . S
C2001 H1988 0.929 . S
C2001 C1993 1.433 . S
C2001 N2003 1.384 . S
N2002 C1998 1.427 . S
N2002 C1999 1.384 . S
N2003 C1995 1.427 . S
N2003 C2001 1.384 . S
H2004 C2010 0.930 . S
H2005 C2014 0.930 . S
H2006 C2019 0.929 . S
H2007 C2017 0.929 . S
H2008 C2012 0.929 . S
H2009 C2018 0.929 . S
C2010 H2004 0.930 . S
C2010 C2011 1.367 . S
C2010 C2018 1.378 . S
C2011 C2010 1.367 . S
C2011 C2019 1.433 . S
C2012 H2008 0.929 . S
C2012 C2014 1.378 . S
C2012 C2016 1.350 . S
C2013 C2016 1.463 1_455 S
C2013 C2018 1.350 . S
C2013 N2021 1.427 . S
C2014 H2005 0.930 . S
C2014 C2012 1.378 . S
C2014 C2015 1.367 . S
C2015 C2014 1.367 . S
C2015 C2017 1.433 . S
C2016 C2012 1.350 . S
C2016 C2013 1.463 1_655 S
C2016 N2020 1.427 . S
C2017 H2007 0.929 . S
C2017 C2015 1.433 . S
C2017 N2020 1.384 . S
C2018 H2009 0.929 . S
C2018 C2010 1.378 . S
C2018 C2013 1.350 . S
C2019 H2006 0.929 . S
C2019 C2011 1.433 . S
C2019 N2021 1.384 . S
N2020 C2016 1.427 . S
N2020 C2017 1.384 . S
N2021 C2013 1.427 . S
N2021 C2019 1.384 . S
H2022 C2028 0.930 . S
H2023 C2032 0.930 . S
H2024 C2037 0.929 . S
H2025 C2035 0.929 . S
H2026 C2030 0.929 . S
H2027 C2036 0.929 . S
C2028 H2022 0.930 . S
C2028 C2029 1.367 . S
C2028 C2036 1.378 1_556 S
C2029 C2028 1.367 . S
C2029 C2037 1.433 . S
C2030 H2026 0.929 . S
C2030 C2032 1.378 . S
C2030 C2034 1.350 . S
C2031 C2034 1.463 . S
C2031 C2036 1.350 . S
C2031 N2039 1.427 1_554 S
C2032 H2023 0.930 . S
C2032 C2030 1.378 . S
C2032 C2033 1.367 . S
C2033 C2032 1.367 . S
C2033 C2035 1.433 . S
C2034 C2030 1.350 . S
C2034 C2031 1.463 . S
C2034 N2038 1.427 . S
C2035 H2025 0.929 . S
C2035 C2033 1.433 . S
C2035 N2038 1.384 . S
C2036 H2027 0.929 . S
C2036 C2028 1.378 1_554 S
C2036 C2031 1.350 . S
C2037 H2024 0.929 . S
C2037 C2029 1.433 . S
C2037 N2039 1.384 . S
N2038 C2034 1.427 . S
N2038 C2035 1.384 . S
N2039 C2031 1.427 1_556 S
N2039 C2037 1.384 . S
H2040 C2046 0.930 . S
H2041 C2050 0.930 . S
H2042 C2055 0.929 . S
H2043 C2053 0.929 . S
H2044 C2048 0.929 . S
H2045 C2054 0.929 . S
C2046 H2040 0.930 . S
C2046 C2047 1.367 . S
C2046 C2054 1.378 . S
C2047 C2046 1.367 . S
C2047 C2055 1.433 . S
C2048 H2044 0.929 . S
C2048 C2050 1.378 . S
C2048 C2052 1.350 . S
C2049 C2052 1.463 . S
C2049 C2054 1.350 . S
C2049 N2057 1.427 . S
C2050 H2041 0.930 . S
C2050 C2048 1.378 . S
C2050 C2051 1.367 . S
C2051 C2050 1.367 . S
C2051 C2053 1.433 . S
C2052 C2048 1.350 . S
C2052 C2049 1.463 . S
C2052 N2056 1.427 . S
C2053 H2043 0.929 . S
C2053 C2051 1.433 . S
C2053 N2056 1.384 . S
C2054 H2045 0.929 . S
C2054 C2046 1.378 . S
C2054 C2049 1.350 . S
C2055 H2042 0.929 . S
C2055 C2047 1.433 . S
C2055 N2057 1.384 . S
N2056 C2052 1.427 . S
N2056 C2053 1.384 . S
N2057 C2049 1.427 . S
N2057 C2055 1.384 . S
H2058 C2064 0.930 . S
H2059 C2068 0.930 . S
H2060 C2073 0.929 . S
H2061 C2071 0.929 . S
H2062 C2066 0.929 . S
H2063 C2072 0.929 . S
C2064 H2058 0.930 . S
C2064 C2065 1.367 . S
C2064 C2072 1.378 . S
C2065 C2064 1.367 . S
C2065 C2073 1.433 . S
C2066 H2062 0.929 . S
C2066 C2068 1.378 . S
C2066 C2070 1.350 . S
C2067 C2070 1.463 . S
C2067 C2072 1.350 . S
C2067 N2075 1.427 . S
C2068 H2059 0.930 . S
C2068 C2066 1.378 . S
C2068 C2069 1.367 . S
C2069 C2068 1.367 . S
C2069 C2071 1.433 . S
C2070 C2066 1.350 . S
C2070 C2067 1.463 . S
C2070 N2074 1.427 . S
C2071 H2061 0.929 . S
C2071 C2069 1.433 . S
C2071 N2074 1.384 . S
C2072 H2063 0.929 . S
C2072 C2064 1.378 . S
C2072 C2067 1.350 . S
C2073 H2060 0.929 . S
C2073 C2065 1.433 . S
C2073 N2075 1.384 . S
N2074 C2070 1.427 . S
N2074 C2071 1.384 . S
N2075 C2067 1.427 . S
N2075 C2073 1.384 . S
H2076 C2082 0.930 . S
H2077 C2086 0.930 . S
H2078 C2091 0.929 . S
H2079 C2089 0.929 . S
H2080 C2084 0.929 . S
H2081 C2090 0.929 . S
C2082 H2076 0.930 . S
C2082 C2083 1.367 . S
C2082 C2090 1.378 . S
C2083 C2082 1.367 . S
C2083 C2091 1.433 . S
C2084 H2080 0.929 . S
C2084 C2086 1.378 . S
C2084 C2088 1.350 . S
C2085 C2088 1.463 1_455 S
C2085 C2090 1.350 . S
C2085 N2093 1.427 . S
C2086 H2077 0.930 . S
C2086 C2084 1.378 . S
C2086 C2087 1.367 . S
C2087 C2086 1.367 . S
C2087 C2089 1.433 . S
C2088 C2084 1.350 . S
C2088 C2085 1.463 1_655 S
C2088 N2092 1.427 . S
C2089 H2079 0.929 . S
C2089 C2087 1.433 . S
C2089 N2092 1.384 . S
C2090 H2081 0.929 . S
C2090 C2082 1.378 . S
C2090 C2085 1.350 . S
C2091 H2078 0.929 . S
C2091 C2083 1.433 . S
C2091 N2093 1.384 . S
N2092 C2088 1.427 . S
N2092 C2089 1.384 . S
N2093 C2085 1.427 . S
N2093 C2091 1.384 . S
H2094 C2100 0.930 . S
H2095 C2104 0.930 . S
H2096 C2109 0.929 . S
H2097 C2107 0.929 . S
H2098 C2102 0.929 . S
H2099 C2108 0.929 . S
C2100 H2094 0.930 . S
C2100 C2101 1.367 . S
C2100 C2108 1.378 1_556 S
C2101 C2100 1.367 . S
C2101 C2109 1.433 1_556 S
C2102 H2098 0.929 . S
C2102 C2104 1.378 . S
C2102 C2106 1.350 . S
C2103 C2106 1.463 . S
C2103 C2108 1.350 . S
C2103 N2111 1.427 . S
C2104 H2095 0.930 . S
C2104 C2102 1.378 . S
C2104 C2105 1.367 . S
C2105 C2104 1.367 . S
C2105 C2107 1.433 . S
C2106 C2102 1.350 . S
C2106 C2103 1.463 . S
C2106 N2110 1.427 . S
C2107 H2097 0.929 . S
C2107 C2105 1.433 . S
C2107 N2110 1.384 . S
C2108 H2099 0.929 . S
C2108 C2100 1.378 1_554 S
C2108 C2103 1.350 . S
C2109 H2096 0.929 . S
C2109 C2101 1.433 1_554 S
C2109 N2111 1.384 . S
N2110 C2106 1.427 . S
N2110 C2107 1.384 . S
N2111 C2103 1.427 . S
N2111 C2109 1.384 . S
H2112 C2118 0.930 . S
H2113 C2122 0.930 . S
H2114 C2127 0.929 . S
H2115 C2125 0.929 . S
H2116 C2120 0.929 . S
H2117 C2126 0.929 . S
C2118 H2112 0.930 . S
C2118 C2119 1.367 . S
C2118 C2126 1.378 . S
C2119 C2118 1.367 . S
C2119 C2127 1.433 . S
C2120 H2116 0.929 . S
C2120 C2122 1.378 . S
C2120 C2124 1.350 . S
C2121 C2124 1.463 . S
C2121 C2126 1.350 . S
C2121 N2129 1.427 . S
C2122 H2113 0.930 . S
C2122 C2120 1.378 . S
C2122 C2123 1.367 . S
C2123 C2122 1.367 . S
C2123 C2125 1.433 . S
C2124 C2120 1.350 . S
C2124 C2121 1.463 . S
C2124 N2128 1.427 . S
C2125 H2115 0.929 . S
C2125 C2123 1.433 . S
C2125 N2128 1.384 . S
C2126 H2117 0.929 . S
C2126 C2118 1.378 . S
C2126 C2121 1.350 . S
C2127 H2114 0.929 . S
C2127 C2119 1.433 . S
C2127 N2129 1.384 . S
N2128 C2124 1.427 . S
N2128 C2125 1.384 . S
N2129 C2121 1.427 . S
N2129 C2127 1.384 . S
H2130 C2136 0.930 . S
H2131 C2140 0.930 . S
H2132 C2145 0.929 . S
H2133 C2143 0.929 . S
H2134 C2138 0.929 . S
H2135 C2144 0.929 . S
C2136 H2130 0.930 . S
C2136 C2137 1.367 . S
C2136 C2144 1.378 1_556 S
C2137 C2136 1.367 . S
C2137 C2145 1.433 . S
C2138 H2134 0.929 . S
C2138 C2140 1.378 . S
C2138 C2142 1.350 . S
C2139 C2142 1.463 . S
C2139 C2144 1.350 . S
C2139 N2147 1.427 . S
C2140 H2131 0.930 . S
C2140 C2138 1.378 . S
C2140 C2141 1.367 . S
C2141 C2140 1.367 . S
C2141 C2143 1.433 . S
C2142 C2138 1.350 . S
C2142 C2139 1.463 . S
C2142 N2146 1.427 . S
C2143 H2133 0.929 . S
C2143 C2141 1.433 . S
C2143 N2146 1.384 . S
C2144 H2135 0.929 . S
C2144 C2136 1.378 1_554 S
C2144 C2139 1.350 . S
C2145 H2132 0.929 . S
C2145 C2137 1.433 . S
C2145 N2147 1.384 1_556 S
N2146 C2142 1.427 . S
N2146 C2143 1.384 . S
N2147 C2139 1.427 . S
N2147 C2145 1.384 1_554 S
H2148 C2154 0.930 . S
H2149 C2158 0.930 . S
H2150 C2163 0.929 . S
H2151 C2161 0.929 . S
H2152 C2156 0.929 . S
H2153 C2162 0.929 . S
C2154 H2148 0.930 . S
C2154 C2155 1.367 . S
C2154 C2162 1.378 . S
C2155 C2154 1.367 . S
C2155 C2163 1.433 . S
C2156 H2152 0.929 . S
C2156 C2158 1.378 . S
C2156 C2160 1.350 . S
C2157 C2160 1.463 . S
C2157 C2162 1.350 . S
C2157 N2165 1.427 . S
C2158 H2149 0.930 . S
C2158 C2156 1.378 . S
C2158 C2159 1.367 . S
C2159 C2158 1.367 . S
C2159 C2161 1.433 . S
C2160 C2156 1.350 . S
C2160 C2157 1.463 . S
C2160 N2164 1.427 . S
C2161 H2151 0.929 . S
C2161 C2159 1.433 . S
C2161 N2164 1.384 . S
C2162 H2153 0.929 . S
C2162 C2154 1.378 . S
C2162 C2157 1.350 . S
C2163 H2150 0.929 . S
C2163 C2155 1.433 . S
C2163 N2165 1.384 . S
N2164 C2160 1.427 . S
N2164 C2161 1.384 . S
N2165 C2157 1.427 . S
N2165 C2163 1.384 . S
H2166 C2172 0.930 . S
H2167 C2176 0.930 . S
H2168 C2181 0.929 . S
H2169 C2179 0.929 . S
H2170 C2174 0.929 . S
H2171 C2180 0.929 . S
C2172 H2166 0.930 . S
C2172 C2173 1.367 . S
C2172 C2180 1.378 . S
C2173 C2172 1.367 . S
C2173 C2181 1.433 . S
C2174 H2170 0.929 . S
C2174 C2176 1.378 . S
C2174 C2178 1.350 . S
C2175 C2178 1.463 . S
C2175 C2180 1.350 . S
C2175 N2183 1.427 . S
C2176 H2167 0.930 . S
C2176 C2174 1.378 . S
C2176 C2177 1.367 . S
C2177 C2176 1.367 . S
C2177 C2179 1.433 . S
C2178 C2174 1.350 . S
C2178 C2175 1.463 . S
C2178 N2182 1.427 . S
C2179 H2169 0.929 . S
C2179 C2177 1.433 . S
C2179 N2182 1.384 . S
C2180 H2171 0.929 . S
C2180 C2172 1.378 . S
C2180 C2175 1.350 . S
C2181 H2168 0.929 . S
C2181 C2173 1.433 . S
C2181 N2183 1.384 . S
N2182 C2178 1.427 . S
N2182 C2179 1.384 . S
N2183 C2175 1.427 . S
N2183 C2181 1.384 . S
H2184 C2190 0.930 . S
H2185 C2194 0.930 . S
H2186 C2199 0.929 . S
H2187 C2197 0.929 . S
H2188 C2192 0.929 . S
H2189 C2198 0.929 . S
C2190 H2184 0.930 . S
C2190 C2191 1.367 . S
C2190 C2198 1.378 . S
C2191 C2190 1.367 . S
C2191 C2199 1.433 . S
C2192 H2188 0.929 . S
C2192 C2194 1.378 . S
C2192 C2196 1.350 . S
C2193 C2196 1.463 . S
C2193 C2198 1.350 . S
C2193 N2201 1.427 . S
C2194 H2185 0.930 . S
C2194 C2192 1.378 . S
C2194 C2195 1.367 . S
C2195 C2194 1.367 . S
C2195 C2197 1.433 . S
C2196 C2192 1.350 . S
C2196 C2193 1.463 . S
C2196 N2200 1.427 . S
C2197 H2187 0.929 . S
C2197 C2195 1.433 . S
C2197 N2200 1.384 . S
C2198 H2189 0.929 . S
C2198 C2190 1.378 . S
C2198 C2193 1.350 . S
C2199 H2186 0.929 . S
C2199 C2191 1.433 . S
C2199 N2201 1.384 . S
N2200 C2196 1.427 . S
N2200 C2197 1.384 . S
N2201 C2193 1.427 . S
N2201 C2199 1.384 . S
H2202 C2208 0.930 . S
H2203 C2212 0.930 . S
H2204 C2217 0.929 . S
H2205 C2215 0.929 . S
H2206 C2210 0.929 . S
H2207 C2216 0.929 . S
C2208 H2202 0.930 . S
C2208 C2209 1.367 . S
C2208 C2216 1.378 . S
C2209 C2208 1.367 . S
C2209 C2217 1.442 . S
C2210 H2206 0.929 . S
C2210 C2212 1.378 . S
C2210 C2214 1.350 . S
C2211 C2214 1.463 . S
C2211 C2216 1.350 1_554 S
C2211 N2219 1.427 . S
C2212 H2203 0.930 . S
C2212 C2210 1.378 . S
C2212 C2213 1.367 . S
C2213 C2212 1.367 . S
C2213 C2215 1.433 . S
C2214 C2210 1.350 . S
C2214 C2211 1.463 . S
C2214 N2218 1.427 . S
C2215 H2205 0.929 . S
C2215 C2213 1.433 . S
C2215 N2218 1.384 . S
C2216 H2207 0.929 . S
C2216 C2208 1.378 . S
C2216 C2211 1.350 1_556 S
C2217 H2204 0.929 . S
C2217 C2209 1.442 . S
C2217 N2219 1.375 1_556 S
N2218 C2214 1.427 . S
N2218 C2215 1.384 . S
N2219 C2211 1.427 . S
N2219 C2217 1.375 1_554 S
H2220 C2226 0.930 . S
H2221 C2230 0.930 . S
H2222 C2235 0.929 . S
H2223 C2233 0.929 . S
H2224 C2228 0.929 . S
H2225 C2234 0.929 . S
C2226 H2220 0.930 . S
C2226 C2227 1.367 . S
C2226 C2234 1.378 . S
C2227 C2226 1.367 . S
C2227 C2235 1.433 . S
C2228 H2224 0.929 . S
C2228 C2230 1.378 . S
C2228 C2232 1.350 . S
C2229 C2232 1.463 . S
C2229 C2234 1.350 . S
C2229 N2237 1.427 . S
C2230 H2221 0.930 . S
C2230 C2228 1.378 . S
C2230 C2231 1.367 . S
C2231 C2230 1.367 . S
C2231 C2233 1.433 . S
C2232 C2228 1.350 . S
C2232 C2229 1.463 . S
C2232 N2236 1.427 . S
C2233 H2223 0.929 . S
C2233 C2231 1.433 . S
C2233 N2236 1.384 . S
C2234 H2225 0.929 . S
C2234 C2226 1.378 . S
C2234 C2229 1.350 . S
C2235 H2222 0.929 . S
C2235 C2227 1.433 . S
C2235 N2237 1.384 . S
N2236 C2232 1.427 . S
N2236 C2233 1.384 . S
N2237 C2229 1.427 . S
N2237 C2235 1.384 . S
H2238 C2244 0.930 . S
H2239 C2248 0.930 . S
H2240 C2253 0.929 . S
H2241 C2251 0.929 . S
H2242 C2246 0.929 . S
H2243 C2252 0.929 . S
C2244 H2238 0.930 . S
C2244 C2245 1.367 . S
C2244 C2252 1.378 . S
C2245 C2244 1.367 . S
C2245 C2253 1.433 . S
C2246 H2242 0.929 . S
C2246 C2248 1.378 . S
C2246 C2250 1.350 . S
C2247 C2250 1.463 . S
C2247 C2252 1.350 . S
C2247 N2255 1.427 . S
C2248 H2239 0.930 . S
C2248 C2246 1.378 . S
C2248 C2249 1.367 . S
C2249 C2248 1.367 . S
C2249 C2251 1.433 . S
C2250 C2246 1.350 . S
C2250 C2247 1.463 . S
C2250 N2254 1.427 . S
C2251 H2241 0.929 . S
C2251 C2249 1.433 . S
C2251 N2254 1.384 . S
C2252 H2243 0.929 . S
C2252 C2244 1.378 . S
C2252 C2247 1.350 . S
C2253 H2240 0.929 . S
C2253 C2245 1.433 . S
C2253 N2255 1.384 . S
N2254 C2250 1.427 . S
N2254 C2251 1.384 . S
N2255 C2247 1.427 . S
N2255 C2253 1.384 . S
H2256 C2262 0.930 . S
H2257 C2266 0.930 . S
H2258 C2271 0.929 . S
H2259 C2269 0.929 . S
H2260 C2264 0.929 1_565 S
H2261 C2270 0.929 1_545 S
C2262 H2256 0.930 . S
C2262 C2263 1.367 . S
C2262 C2270 1.378 . S
C2263 C2262 1.367 . S
C2263 C2271 1.433 . S
C2264 H2260 0.929 1_545 S
C2264 C2266 1.378 . S
C2264 C2268 1.350 . S
C2265 C2268 1.463 1_565 S
C2265 C2270 1.350 . S
C2265 N2273 1.427 . S
C2266 H2257 0.930 . S
C2266 C2264 1.378 . S
C2266 C2267 1.367 . S
C2267 C2266 1.367 . S
C2267 C2269 1.433 . S
C2268 C2264 1.350 . S
C2268 C2265 1.463 1_545 S
C2268 N2272 1.427 . S
C2269 H2259 0.929 . S
C2269 C2267 1.433 . S
C2269 N2272 1.384 . S
C2270 H2261 0.929 1_565 S
C2270 C2262 1.378 . S
C2270 C2265 1.350 . S
C2271 H2258 0.929 . S
C2271 C2263 1.433 . S
C2271 N2273 1.384 . S
N2272 C2268 1.427 . S
N2272 C2269 1.384 . S
N2273 C2265 1.427 . S
N2273 C2271 1.384 . S
H2274 C2280 0.930 . S
H2275 C2284 0.930 . S
H2276 C2289 0.929 . S
H2277 C2287 0.929 . S
H2278 C2282 0.929 . S
H2279 C2288 0.929 . S
C2280 H2274 0.930 . S
C2280 C2281 1.367 . S
C2280 C2288 1.378 . S
C2281 C2280 1.367 . S
C2281 C2289 1.433 . S
C2282 H2278 0.929 . S
C2282 C2284 1.378 . S
C2282 C2286 1.350 . S
C2283 C2286 1.463 . S
C2283 C2288 1.350 . S
C2283 N2291 1.427 . S
C2284 H2275 0.930 . S
C2284 C2282 1.378 . S
C2284 C2285 1.367 . S
C2285 C2284 1.367 . S
C2285 C2287 1.433 . S
C2286 C2282 1.350 . S
C2286 C2283 1.463 . S
C2286 N2290 1.427 . S
C2287 H2277 0.929 . S
C2287 C2285 1.433 . S
C2287 N2290 1.384 . S
C2288 H2279 0.929 . S
C2288 C2280 1.378 . S
C2288 C2283 1.350 . S
C2289 H2276 0.929 . S
C2289 C2281 1.433 . S
C2289 N2291 1.384 . S
N2290 C2286 1.427 . S
N2290 C2287 1.384 . S
N2291 C2283 1.427 . S
N2291 C2289 1.384 . S
H2292 C2298 0.930 . S
H2293 C2302 0.930 . S
H2294 C2307 0.929 . S
H2295 C2305 0.929 . S
H2296 C2300 0.929 . S
H2297 C2306 0.929 . S
C2298 H2292 0.930 . S
C2298 C2299 1.367 . S
C2298 C2306 1.378 . S
C2299 C2298 1.367 . S
C2299 C2307 1.433 . S
C2300 H2296 0.929 . S
C2300 C2302 1.378 . S
C2300 C2304 1.350 . S
C2301 C2304 1.463 1_545 S
C2301 C2306 1.350 . S
C2301 N2309 1.416 1_545 S
C2302 H2293 0.930 . S
C2302 C2300 1.378 . S
C2302 C2303 1.367 . S
C2303 C2302 1.367 . S
C2303 C2305 1.433 . S
C2304 C2300 1.350 . S
C2304 C2301 1.463 1_565 S
C2304 N2308 1.416 1_565 S
C2305 H2295 0.929 . S
C2305 C2303 1.433 . S
C2305 N2308 1.365 1_565 S
C2306 H2297 0.929 . S
C2306 C2298 1.378 . S
C2306 C2301 1.350 . S
C2307 H2294 0.929 . S
C2307 C2299 1.433 . S
C2307 N2309 1.364 1_545 S
N2308 C2304 1.416 1_545 S
N2308 C2305 1.365 1_545 S
N2309 C2301 1.416 1_565 S
N2309 C2307 1.364 1_565 S
H2310 C2316 0.930 . S
H2311 C2320 0.930 . S
H2312 C2325 0.929 . S
H2313 C2323 0.929 . S
H2314 C2318 0.929 . S
H2315 C2324 0.929 . S
C2316 H2310 0.930 . S
C2316 C2317 1.367 . S
C2316 C2324 1.378 . S
C2317 C2316 1.367 . S
C2317 C2325 1.433 . S
C2318 H2314 0.929 . S
C2318 C2320 1.378 1_554 S
C2318 C2322 1.350 . S
C2319 C2322 1.463 . S
C2319 C2324 1.350 . S
C2319 N2327 1.427 . S
C2320 H2311 0.930 . S
C2320 C2318 1.378 1_556 S
C2320 C2321 1.367 . S
C2321 C2320 1.367 . S
C2321 C2323 1.433 . S
C2322 C2318 1.350 . S
C2322 C2319 1.463 . S
C2322 N2326 1.427 . S
C2323 H2313 0.929 . S
C2323 C2321 1.433 . S
C2323 N2326 1.384 1_556 S
C2324 H2315 0.929 . S
C2324 C2316 1.378 . S
C2324 C2319 1.350 . S
C2325 H2312 0.929 . S
C2325 C2317 1.433 . S
C2325 N2327 1.384 . S
N2326 C2322 1.427 . S
N2326 C2323 1.384 1_554 S
N2327 C2319 1.427 . S
N2327 C2325 1.384 . S
H2328 C2334 0.930 . S
H2329 C2338 0.930 . S
H2330 C2343 0.929 . S
H2331 C2341 0.929 . S
H2332 C2336 0.929 1_565 S
H2333 C2342 0.929 1_545 S
C2334 H2328 0.930 . S
C2334 C2335 1.367 . S
C2334 C2342 1.378 . S
C2335 C2334 1.367 . S
C2335 C2343 1.433 . S
C2336 H2332 0.929 1_545 S
C2336 C2338 1.378 . S
C2336 C2340 1.350 . S
C2337 C2340 1.463 1_565 S
C2337 C2342 1.350 . S
C2337 N2345 1.427 . S
C2338 H2329 0.930 . S
C2338 C2336 1.378 . S
C2338 C2339 1.367 . S
C2339 C2338 1.367 . S
C2339 C2341 1.433 . S
C2340 C2336 1.350 . S
C2340 C2337 1.463 1_545 S
C2340 N2344 1.427 . S
C2341 H2331 0.929 . S
C2341 C2339 1.433 . S
C2341 N2344 1.384 . S
C2342 H2333 0.929 1_565 S
C2342 C2334 1.378 . S
C2342 C2337 1.350 . S
C2343 H2330 0.929 . S
C2343 C2335 1.433 . S
C2343 N2345 1.384 . S
N2344 C2340 1.427 . S
N2344 C2341 1.384 . S
N2345 C2337 1.427 . S
N2345 C2343 1.384 . S
H2346 C2352 0.930 . S
H2347 C2356 0.930 . S
H2348 C2361 0.929 . S
H2349 C2359 0.929 . S
H2350 C2354 0.929 . S
H2351 C2360 0.929 . S
C2352 H2346 0.930 . S
C2352 C2353 1.367 . S
C2352 C2360 1.378 . S
C2353 C2352 1.367 . S
C2353 C2361 1.433 . S
C2354 H2350 0.929 . S
C2354 C2356 1.378 . S
C2354 C2358 1.350 . S
C2355 C2358 1.463 . S
C2355 C2360 1.350 . S
C2355 N2363 1.427 . S
C2356 H2347 0.930 . S
C2356 C2354 1.378 . S
C2356 C2357 1.367 . S
C2357 C2356 1.367 . S
C2357 C2359 1.433 . S
C2358 C2354 1.350 . S
C2358 C2355 1.463 . S
C2358 N2362 1.427 . S
C2359 H2349 0.929 . S
C2359 C2357 1.433 . S
C2359 N2362 1.384 . S
C2360 H2351 0.929 . S
C2360 C2352 1.378 . S
C2360 C2355 1.350 . S
C2361 H2348 0.929 . S
C2361 C2353 1.433 . S
C2361 N2363 1.384 . S
N2362 C2358 1.427 . S
N2362 C2359 1.384 . S
N2363 C2355 1.427 . S
N2363 C2361 1.384 . S
H2364 C2370 0.930 . S
H2365 C2374 0.930 . S
H2366 C2379 0.929 . S
H2367 C2377 0.929 . S
H2368 C2372 0.929 . S
H2369 C2378 0.929 . S
C2370 H2364 0.930 . S
C2370 C2371 1.367 . S
C2370 C2378 1.378 . S
C2371 C2370 1.367 . S
C2371 C2379 1.433 . S
C2372 H2368 0.929 . S
C2372 C2374 1.378 . S
C2372 C2376 1.350 . S
C2373 C2376 1.463 1_565 S
C2373 C2378 1.350 . S
C2373 N2381 1.432 . S
C2374 H2365 0.930 . S
C2374 C2372 1.378 . S
C2374 C2375 1.367 . S
C2375 C2374 1.367 . S
C2375 C2377 1.433 . S
C2376 C2372 1.350 . S
C2376 C2373 1.463 1_545 S
C2376 N2380 1.432 . S
C2377 H2367 0.929 . S
C2377 C2375 1.433 . S
C2377 N2380 1.392 . S
C2378 H2369 0.929 . S
C2378 C2370 1.378 . S
C2378 C2373 1.350 . S
C2379 H2366 0.929 . S
C2379 C2371 1.433 . S
C2379 N2381 1.392 . S
N2380 C2376 1.432 . S
N2380 C2377 1.392 . S
N2381 C2373 1.432 . S
N2381 C2379 1.392 . S
H2382 C2388 0.930 . S
H2383 C2392 0.930 . S
H2384 C2397 0.929 . S
H2385 C2395 0.929 . S
H2386 C2390 0.929 . S
H2387 C2396 0.929 . S
C2388 H2382 0.930 . S
C2388 C2389 1.367 . S
C2388 C2396 1.378 . S
C2389 C2388 1.367 . S
C2389 C2397 1.433 . S
C2390 H2386 0.929 . S
C2390 C2392 1.378 1_554 S
C2390 C2394 1.350 . S
C2391 C2394 1.463 . S
C2391 C2396 1.350 . S
C2391 N2399 1.427 . S
C2392 H2383 0.930 . S
C2392 C2390 1.378 1_556 S
C2392 C2393 1.367 . S
C2393 C2392 1.367 . S
C2393 C2395 1.433 . S
C2394 C2390 1.350 . S
C2394 C2391 1.463 . S
C2394 N2398 1.427 . S
C2395 H2385 0.929 . S
C2395 C2393 1.433 . S
C2395 N2398 1.384 1_556 S
C2396 H2387 0.929 . S
C2396 C2388 1.378 . S
C2396 C2391 1.350 . S
C2397 H2384 0.929 . S
C2397 C2389 1.433 . S
C2397 N2399 1.384 . S
N2398 C2394 1.427 . S
N2398 C2395 1.384 1_554 S
N2399 C2391 1.427 . S
N2399 C2397 1.384 . S
C679 C18 0.904 . S
C683 C102 0.878 . S
C697 C120 0.903 . S
C701 C39 0.872 . S
C715 C60 0.902 . S
C719 C144 0.882 . S
C733 C165 0.869 . S
C737 C78 0.908 . S
C751 C185 0.963 . S
C755 C269 0.977 . S
C769 C203 0.981 . S
C773 C287 0.955 . S
C787 C308 0.981 . S
C791 C224 0.956 . S
C805 C245 0.946 . S
C809 C329 0.980 . S
C823 C438 0.876 . S
C827 C354 0.897 . S
C841 C375 0.886 . S
C845 C456 0.898 . S
C859 C396 0.887 . S
C863 C480 0.896 . S
C877 C414 0.879 . S
C881 C501 0.904 . S
C895 C521 0.957 . S
C899 C605 0.981 . S
C913 C623 0.946 . S
C917 C539 0.981 . S
C931 C560 0.970 . S
C935 C644 0.971 . S
C949 C665 0.982 . S
C953 C581 0.949 . S
C967 C454 0.865 . S
C971 C16 0.864 . S
C985 C478 0.843 . S
C989 C37 0.842 . S
C1003 C499 0.858 . S
C1007 C58 0.858 . S
C1021 C76 0.870 . S
C1025 C436 0.870 . S
C1039 C100 0.872 . S
C1043 C412 0.872 . S
C1057 C352 0.874 . S
C1061 C118 0.874 . S
C1075 C142 0.842 . S
C1079 C373 0.842 . S
C1093 C163 0.867 . S
C1097 C394 0.867 . S
C1111 C181 0.921 . S
C1115 C625 0.922 . S
C1129 C646 0.944 . S
C1133 C205 0.943 . S
C1147 C667 0.935 . S
C1151 C226 0.934 . S
C1165 C247 0.923 . S
C1169 C601 0.923 . S
C1183 C265 0.928 . S
C1187 C583 0.929 . S
C1201 C289 0.951 . S
C1205 C517 0.951 . S
C1219 C310 0.952 . S
C1223 C541 0.951 . S
C1237 C331 0.921 . S
C1241 C562 0.921 . S
C1255 C184 1.098 . S
C1259 C13 1.098 . S
C1273 C34 1.114 . S
C1277 C538 1.113 . S
C1291 C223 1.094 . S
C1295 C55 1.094 . S
C1309 C79 1.080 . S
C1313 C580 1.079 . S
C1327 C268 1.109 . S
C1331 C97 1.110 . S
C1345 C622 1.078 . S
C1349 C121 1.079 . S
C1363 C139 1.076 . S
C1367 C307 1.075 . S
C1381 C160 1.107 . S
C1385 C664 1.106 . S
C1399 C370 1.080 . S
C1403 C202 1.080 . S
C1417 C415 1.108 . S
C1421 C244 1.106 . S
C1435 C286 1.113 . S
C1439 C457 1.114 . S
C1453 C496 1.093 . S
C1457 C328 1.091 . S
C1471 C520 1.112 . S
C1475 C349 1.113 . S
C1489 C559 1.084 . S
C1493 C391 1.085 . S
C1507 C604 1.085 . S
C1511 C433 1.086 . S
C1525 C475 1.113 . S
C1529 C643 1.112 . S
C1543 C17 1.413 . S
C1547 C267 1.288 . S
C1561 C627 1.286 . S
C1565 C38 1.413 . S
C1579 C312 1.262 . S
C1583 C59 1.420 . S
C1597 C77 1.418 . S
C1601 C669 1.281 . S
C1615 C183 1.285 . S
C1619 C101 1.412 . S
C1633 C543 1.287 . S
C1637 C119 1.415 . S
C1651 C228 1.286 . S
C1655 C143 1.416 . S
C1669 C585 1.267 . S
C1673 C164 1.415 . S
C1687 C98 1.327 . S
C1691 C186 1.440 . S
C1705 C458 1.321 . S
C1709 C204 1.445 . S
C1723 C140 1.326 . S
C1727 C225 1.440 . S
C1741 C246 1.449 . S
C1745 C497 1.302 . S
C1759 C14 1.305 . S
C1763 C270 1.452 . S
C1777 C371 1.305 . S
C1781 C288 1.447 . S
C1795 C309 1.451 . S
C1799 C56 1.300 . S
C1813 C330 1.451 . S
C1817 C416 1.307 . S
C1831 C603 1.283 . S
C1835 C353 1.412 . S
C1849 C291 1.284 . S
C1853 C374 1.412 . S
C1867 C395 1.418 . S
C1871 C648 1.262 . S
C1885 C333 1.288 . S
C1889 C413 1.414 . S
C1903 C437 1.414 . S
C1907 C519 1.288 . S
C1921 C455 1.415 . S
C1925 C207 1.267 . S
C1939 C564 1.268 . S
C1943 C479 1.415 . S
C1957 C249 1.261 . S
C1961 C500 1.419 . S
C1975 C522 1.440 . S
C1979 C434 1.326 . S
C1993 C540 1.448 . S
C1997 C122 1.302 . S
C2011 C561 1.446 . S
C2015 C476 1.307 . S
C2029 C582 1.439 . S
C2033 C161 1.324 . S
C2047 C350 1.301 . S
C2051 C606 1.450 . S
C2065 C35 1.313 . S
C2069 C624 1.443 . S
C2083 C645 1.449 . S
C2087 C392 1.301 . S
C2101 C80 1.316 . S
C2105 C666 1.448 . S
C2119 C99 1.758 . S
C2123 C15 1.754 . S
C2137 C123 1.755 . S
C2141 C36 1.749 . S
C2155 C57 1.748 . S
C2159 C141 1.753 . S
C2173 C162 1.749 . S
C2177 C81 1.749 . S
C2191 C266 1.857 . S
C2195 C182 1.855 . S
C2209 C206 1.861 . S
C2213 C290 1.862 . S
C2227 C227 1.856 . S
C2231 C311 1.855 . S
C2245 C332 1.862 . S
C2249 C248 1.860 . S
C2263 C351 1.758 . S
C2267 C435 1.752 . S
C2281 C459 1.753 . S
C2285 C372 1.758 . S
C2299 C393 1.748 . S
C2303 C477 1.751 . S
C2317 C417 1.751 . S
C2321 C498 1.756 . S
C2335 C602 1.861 . S
C2339 C518 1.859 . S
C2353 C626 1.860 . S
C2357 C542 1.862 . S
C2371 C563 1.855 . S
C2375 C647 1.857 . S
C2389 C668 1.856 . S
C2393 C584 1.858 . S
