# Generated by pormake.
# Topology uos, (4)-cn, num edge types: 1
# Building blocks:
#     Node 0, Type 0, BuildingBlock: UXUYUI_clean_sbu_0, # of connection points: 4
#     Node 1, Type 0, BuildingBlock: UXUYUI_clean_sbu_0, # of connection points: 4
#     Node 2, Type 0, BuildingBlock: UXUYUI_clean_sbu_0, # of connection points: 4
#     Node 3, Type 0, BuildingBlock: UXUYUI_clean_sbu_0, # of connection points: 4
#     Node 4, Type 0, BuildingBlock: UXUYUI_clean_sbu_0, # of connection points: 4
#     Node 5, Type 0, BuildingBlock: UXUYUI_clean_sbu_0, # of connection points: 4
#     Node 6, Type 0, BuildingBlock: UXUYUI_clean_sbu_0, # of connection points: 4
#     Node 7, Type 0, BuildingBlock: UXUYUI_clean_sbu_0, # of connection points: 4
#     Node 8, Type 0, BuildingBlock: UXUYUI_clean_sbu_0, # of connection points: 4
#     Node 9, Type 0, BuildingBlock: UXUYUI_clean_sbu_0, # of connection points: 4
#     Node 10, Type 0, BuildingBlock: UXUYUI_clean_sbu_0, # of connection points: 4
#     Node 11, Type 0, BuildingBlock: UXUYUI_clean_sbu_0, # of connection points: 4
#     Node 12, Type 0, BuildingBlock: UXUYUI_clean_sbu_0, # of connection points: 4
#     Node 13, Type 0, BuildingBlock: UXUYUI_clean_sbu_0, # of connection points: 4
#     Node 14, Type 0, BuildingBlock: UXUYUI_clean_sbu_0, # of connection points: 4
#     Node 15, Type 0, BuildingBlock: UXUYUI_clean_sbu_0, # of connection points: 4
#     Node 16, Type 0, BuildingBlock: UXUYUI_clean_sbu_0, # of connection points: 4
#     Node 17, Type 0, BuildingBlock: UXUYUI_clean_sbu_0, # of connection points: 4
#     Node 18, Type 0, BuildingBlock: UXUYUI_clean_sbu_0, # of connection points: 4
#     Node 19, Type 0, BuildingBlock: UXUYUI_clean_sbu_0, # of connection points: 4
#     Node 20, Type 0, BuildingBlock: UXUYUI_clean_sbu_0, # of connection points: 4
#     Node 21, Type 0, BuildingBlock: UXUYUI_clean_sbu_0, # of connection points: 4
#     Node 22, Type 0, BuildingBlock: UXUYUI_clean_sbu_0, # of connection points: 4
#     Node 23, Type 0, BuildingBlock: UXUYUI_clean_sbu_0, # of connection points: 4
#     Node 24, Type 0, BuildingBlock: UXUYUI_clean_sbu_0, # of connection points: 4
#     Node 25, Type 0, BuildingBlock: UXUYUI_clean_sbu_0, # of connection points: 4
#     Node 26, Type 0, BuildingBlock: UXUYUI_clean_sbu_0, # of connection points: 4
#     Node 27, Type 0, BuildingBlock: UXUYUI_clean_sbu_0, # of connection points: 4
#     Node 28, Type 0, BuildingBlock: UXUYUI_clean_sbu_0, # of connection points: 4
#     Node 29, Type 0, BuildingBlock: UXUYUI_clean_sbu_0, # of connection points: 4
#     Node 30, Type 0, BuildingBlock: UXUYUI_clean_sbu_0, # of connection points: 4
#     Node 31, Type 0, BuildingBlock: UXUYUI_clean_sbu_0, # of connection points: 4
#     Edge 32, Type (0, 0), BuildingBlock: CIFDUS_clean_linker_0, # of connection points: 2
#     Edge 33, Type (0, 0), BuildingBlock: CIFDUS_clean_linker_0, # of connection points: 2
#     Edge 34, Type (0, 0), BuildingBlock: CIFDUS_clean_linker_0, # of connection points: 2
#     Edge 35, Type (0, 0), BuildingBlock: CIFDUS_clean_linker_0, # of connection points: 2
#     Edge 36, Type (0, 0), BuildingBlock: CIFDUS_clean_linker_0, # of connection points: 2
#     Edge 37, Type (0, 0), BuildingBlock: CIFDUS_clean_linker_0, # of connection points: 2
#     Edge 38, Type (0, 0), BuildingBlock: CIFDUS_clean_linker_0, # of connection points: 2
#     Edge 39, Type (0, 0), BuildingBlock: CIFDUS_clean_linker_0, # of connection points: 2
#     Edge 40, Type (0, 0), BuildingBlock: CIFDUS_clean_linker_0, # of connection points: 2
#     Edge 41, Type (0, 0), BuildingBlock: CIFDUS_clean_linker_0, # of connection points: 2
#     Edge 42, Type (0, 0), BuildingBlock: CIFDUS_clean_linker_0, # of connection points: 2
#     Edge 43, Type (0, 0), BuildingBlock: CIFDUS_clean_linker_0, # of connection points: 2
#     Edge 44, Type (0, 0), BuildingBlock: CIFDUS_clean_linker_0, # of connection points: 2
#     Edge 45, Type (0, 0), BuildingBlock: CIFDUS_clean_linker_0, # of connection points: 2
#     Edge 46, Type (0, 0), BuildingBlock: CIFDUS_clean_linker_0, # of connection points: 2
#     Edge 47, Type (0, 0), BuildingBlock: CIFDUS_clean_linker_0, # of connection points: 2
#     Edge 48, Type (0, 0), BuildingBlock: CIFDUS_clean_linker_0, # of connection points: 2
#     Edge 49, Type (0, 0), BuildingBlock: CIFDUS_clean_linker_0, # of connection points: 2
#     Edge 50, Type (0, 0), BuildingBlock: CIFDUS_clean_linker_0, # of connection points: 2
#     Edge 51, Type (0, 0), BuildingBlock: CIFDUS_clean_linker_0, # of connection points: 2
#     Edge 52, Type (0, 0), BuildingBlock: CIFDUS_clean_linker_0, # of connection points: 2
#     Edge 53, Type (0, 0), BuildingBlock: CIFDUS_clean_linker_0, # of connection points: 2
#     Edge 54, Type (0, 0), BuildingBlock: CIFDUS_clean_linker_0, # of connection points: 2
#     Edge 55, Type (0, 0), BuildingBlock: CIFDUS_clean_linker_0, # of connection points: 2
#     Edge 56, Type (0, 0), BuildingBlock: CIFDUS_clean_linker_0, # of connection points: 2
#     Edge 57, Type (0, 0), BuildingBlock: CIFDUS_clean_linker_0, # of connection points: 2
#     Edge 58, Type (0, 0), BuildingBlock: CIFDUS_clean_linker_0, # of connection points: 2
#     Edge 59, Type (0, 0), BuildingBlock: CIFDUS_clean_linker_0, # of connection points: 2
#     Edge 60, Type (0, 0), BuildingBlock: CIFDUS_clean_linker_0, # of connection points: 2
#     Edge 61, Type (0, 0), BuildingBlock: CIFDUS_clean_linker_0, # of connection points: 2
#     Edge 62, Type (0, 0), BuildingBlock: CIFDUS_clean_linker_0, # of connection points: 2
#     Edge 63, Type (0, 0), BuildingBlock: CIFDUS_clean_linker_0, # of connection points: 2
#     Edge 64, Type (0, 0), BuildingBlock: CIFDUS_clean_linker_0, # of connection points: 2
#     Edge 65, Type (0, 0), BuildingBlock: CIFDUS_clean_linker_0, # of connection points: 2
#     Edge 66, Type (0, 0), BuildingBlock: CIFDUS_clean_linker_0, # of connection points: 2
#     Edge 67, Type (0, 0), BuildingBlock: CIFDUS_clean_linker_0, # of connection points: 2
#     Edge 68, Type (0, 0), BuildingBlock: CIFDUS_clean_linker_0, # of connection points: 2
#     Edge 69, Type (0, 0), BuildingBlock: CIFDUS_clean_linker_0, # of connection points: 2
#     Edge 70, Type (0, 0), BuildingBlock: CIFDUS_clean_linker_0, # of connection points: 2
#     Edge 71, Type (0, 0), BuildingBlock: CIFDUS_clean_linker_0, # of connection points: 2
#     Edge 72, Type (0, 0), BuildingBlock: CIFDUS_clean_linker_0, # of connection points: 2
#     Edge 73, Type (0, 0), BuildingBlock: CIFDUS_clean_linker_0, # of connection points: 2
#     Edge 74, Type (0, 0), BuildingBlock: CIFDUS_clean_linker_0, # of connection points: 2
#     Edge 75, Type (0, 0), BuildingBlock: CIFDUS_clean_linker_0, # of connection points: 2
#     Edge 76, Type (0, 0), BuildingBlock: CIFDUS_clean_linker_0, # of connection points: 2
#     Edge 77, Type (0, 0), BuildingBlock: CIFDUS_clean_linker_0, # of connection points: 2
#     Edge 78, Type (0, 0), BuildingBlock: CIFDUS_clean_linker_0, # of connection points: 2
#     Edge 79, Type (0, 0), BuildingBlock: CIFDUS_clean_linker_0, # of connection points: 2
#     Edge 80, Type (0, 0), BuildingBlock: CIFDUS_clean_linker_0, # of connection points: 2
#     Edge 81, Type (0, 0), BuildingBlock: CIFDUS_clean_linker_0, # of connection points: 2
#     Edge 82, Type (0, 0), BuildingBlock: CIFDUS_clean_linker_0, # of connection points: 2
#     Edge 83, Type (0, 0), BuildingBlock: CIFDUS_clean_linker_0, # of connection points: 2
#     Edge 84, Type (0, 0), BuildingBlock: CIFDUS_clean_linker_0, # of connection points: 2
#     Edge 85, Type (0, 0), BuildingBlock: CIFDUS_clean_linker_0, # of connection points: 2
#     Edge 86, Type (0, 0), BuildingBlock: CIFDUS_clean_linker_0, # of connection points: 2
#     Edge 87, Type (0, 0), BuildingBlock: CIFDUS_clean_linker_0, # of connection points: 2
#     Edge 88, Type (0, 0), BuildingBlock: CIFDUS_clean_linker_0, # of connection points: 2
#     Edge 89, Type (0, 0), BuildingBlock: CIFDUS_clean_linker_0, # of connection points: 2
#     Edge 90, Type (0, 0), BuildingBlock: CIFDUS_clean_linker_0, # of connection points: 2
#     Edge 91, Type (0, 0), BuildingBlock: CIFDUS_clean_linker_0, # of connection points: 2
#     Edge 92, Type (0, 0), BuildingBlock: CIFDUS_clean_linker_0, # of connection points: 2
#     Edge 93, Type (0, 0), BuildingBlock: CIFDUS_clean_linker_0, # of connection points: 2
#     Edge 94, Type (0, 0), BuildingBlock: CIFDUS_clean_linker_0, # of connection points: 2
#     Edge 95, Type (0, 0), BuildingBlock: CIFDUS_clean_linker_0, # of connection points: 2
# Relax obj value: 0.138
# Max RMSD: 0.134
# Mean RMSD: 0.134
data_MOF--net-uos--node1-UXUYUI_clean_sbu_0--edge1-CIFDUS_clean_linker_0
_symmetry_space_group_name_H-M    P1
_symmetry_Int_Tables_number       1
_symmetry_cell_setting            triclinic
loop_
_symmetry_equiv_pos_as_xyz
'x, y, z'
_cell_length_a     112.89076
_cell_length_b     112.88517
_cell_length_c     32.06058
_cell_angle_alpha  89.984101
_cell_angle_beta   89.989888
_cell_angle_gamma 90.006893
loop_
_atom_site_label
_atom_site_type_symbol
_atom_site_fract_x
_atom_site_fract_y
_atom_site_fract_z
_atom_type_partial_charge
Li0 Li 0.18312 0.1586 0.13636 0.0
Li1 Li 0.16288 0.15645 0.1573 0.0
Li2 Li 0.16687 0.15432 0.08532 0.0
Li3 Li 0.16748 0.1745 0.12031 0.0
C4 C 0.17994 0.13521 0.1156 0.0
N5 N 0.19398 0.11731 0.0837 0.0
C6 C 0.18051 0.12424 0.13572 0.0
C7 C 0.18653 0.13707 0.07928 0.0
C8 C 0.18766 0.1153 0.11912 0.0
C9 C 0.19356 0.12791 0.06362 0.0
C10 C 0.17425 0.1702 0.21598 0.0
C11 C 0.1702 0.18138 0.2784 0.0
N12 N 0.17444 0.17226 0.30177 0.0
C13 C 0.17863 0.16096 0.24052 0.0
C14 C 0.17005 0.18052 0.23493 0.0
C15 C 0.17862 0.16216 0.28389 0.0
C16 C 0.20636 0.16678 0.14856 0.0
N17 N 0.19925 0.15718 0.15362 0.0
C18 C 0.21415 0.14742 0.19415 0.0
C19 C 0.20295 0.14753 0.17548 0.0
C20 C 0.22155 0.15739 0.19072 0.0
C21 C 0.2176 0.16707 0.16683 0.0
H22 H 0.20311 0.17441 0.13166 0.0
H23 H 0.19701 0.14014 0.18015 0.0
C24 C 0.15272 0.13792 0.2024 0.0
N25 N 0.15365 0.14992 0.20209 0.0
C26 C 0.14729 0.13213 0.2357 0.0
C27 C 0.14335 0.15117 0.26718 0.0
C28 C 0.14884 0.15661 0.23307 0.0
C29 C 0.14275 0.13874 0.26921 0.0
H30 H 0.15639 0.13282 0.17699 0.0
H31 H 0.14949 0.16615 0.23186 0.0
C32 C 0.18428 0.17131 0.04739 0.0
N33 N 0.194 0.18068 0.97553 0.0
C34 C 0.17792 0.17955 0.02381 0.0
C35 C 0.19564 0.16795 0.03476 0.0
C36 C 0.18297 0.18415 0.98747 0.0
C37 C 0.20038 0.17275 0.99823 0.0
C38 C 0.14273 0.16169 0.12508 0.0
C39 C 0.1371 0.15095 0.11631 0.0
C40 C 0.13709 0.17006 0.15031 0.0
C41 C 0.1259 0.14874 0.13314 0.0
C42 C 0.12588 0.16752 0.1665 0.0
N43 N 0.12057 0.157 0.15768 0.0
C44 C 0.15892 0.13475 0.0368 0.0
C45 C 0.16137 0.15249 0.99838 0.0
C46 C 0.15462 0.12891 1.00141 0.0
N47 N 0.16223 0.14633 0.0347 0.0
C48 C 0.15714 0.147 0.96223 0.0
C49 C 0.15362 0.13505 0.96342 0.0
H50 H 0.1594 0.13008 0.0662 0.0
H51 H 0.16366 0.16175 0.99761 0.0
C52 C 0.17566 0.19782 0.11917 0.0
N53 N 0.16577 0.19115 0.11357 0.0
C54 C 0.17517 0.21012 0.11495 0.0
C55 C 0.1543 0.20849 0.09916 0.0
C56 C 0.15523 0.19619 0.10334 0.0
C57 C 0.16436 0.21567 0.10519 0.0
H58 H 0.18396 0.19354 0.12684 0.0
H59 H 0.14753 0.19066 0.09855 0.0
O60 O 0.17305 0.14405 0.13191 0.0
O61 O 0.17407 0.16918 0.17354 0.0
O62 O 0.17958 0.16684 0.08344 0.0
O63 O 0.1538 0.16389 0.1097 0.0
H64 H 0.17554 0.12266 0.16405 0.0
H65 H 0.18617 0.14543 0.0631 0.0
H66 H 0.18819 0.10678 0.13444 0.0
H67 H 0.19867 0.12923 0.03546 0.0
H68 H 0.16694 0.18929 0.29356 0.0
H69 H 0.18184 0.15289 0.22625 0.0
H70 H 0.16664 0.18775 0.21623 0.0
H71 H 0.18191 0.15505 0.30334 0.0
H72 H 0.21674 0.13984 0.21275 0.0
H73 H 0.22305 0.17489 0.16301 0.0
H74 H 0.14676 0.12255 0.2354 0.0
H75 H 0.14 0.15663 0.29231 0.0
H76 H 0.16913 0.18228 0.03324 0.0
H77 H 0.20076 0.16171 0.05302 0.0
H78 H 0.17812 0.19049 0.96877 0.0
H79 H 0.20915 0.1702 0.98799 0.0
H80 H 0.14139 0.14435 0.09704 0.0
H81 H 0.14141 0.17834 0.15792 0.0
H82 H 0.12146 0.14044 0.12679 0.0
H83 H 0.12144 0.17388 0.18629 0.0
H84 H 0.15208 0.11968 0.00383 0.0
H85 H 0.15631 0.15218 0.93395 0.0
H86 H 0.18322 0.21521 0.11904 0.0
H87 H 0.14576 0.21233 0.092 0.0
Li88 Li 0.09545 0.9329 0.38905 0.0
Li89 Li 0.09722 0.91281 0.41179 0.0
Li90 Li 0.09806 0.91599 0.33882 0.0
Li91 Li 0.07863 0.91765 0.37868 0.0
C92 C 0.11814 0.92852 0.36148 0.0
N93 N 0.13562 0.94113 0.32045 0.0
C94 C 0.12961 0.92904 0.37783 0.0
C95 C 0.1156 0.93438 0.32409 0.0
C96 C 0.13831 0.93548 0.35669 0.0
C97 C 0.12455 0.9407 0.30384 0.0
C98 C 0.08451 0.9223 0.47153 0.0
C99 C 0.07559 0.91188 0.52916 0.0
N100 N 0.08338 0.91718 0.55563 0.0
C101 C 0.09237 0.92771 0.49925 0.0
C102 C 0.07601 0.91437 0.4865 0.0
C103 C 0.09168 0.92498 0.54169 0.0
C104 C 0.08759 0.95404 0.4227 0.0
N105 N 0.09734 0.94924 0.40446 0.0
C106 C 0.10833 0.96704 0.41705 0.0
C107 C 0.10761 0.9555 0.40126 0.0
C108 C 0.09845 0.9721 0.43692 0.0
C109 C 0.08795 0.96547 0.43931 0.0
H110 H 0.07955 0.94886 0.42513 0.0
H111 H 0.11536 0.95154 0.38744 0.0
C112 C 0.09841 0.89473 0.47634 0.0
N113 N 0.10399 0.9039 0.45702 0.0
C114 C 0.10391 0.88876 0.50933 0.0
C115 C 0.12056 0.90208 0.50293 0.0
C116 C 0.11479 0.9077 0.47001 0.0
C117 C 0.1152 0.89238 0.52286 0.0
H118 H 0.08967 0.89207 0.46641 0.0
H119 H 0.11886 0.91524 0.4551 0.0
C120 C 0.08115 0.93374 0.30301 0.0
N121 N 0.07115 0.94323 0.23183 0.0
C122 C 0.07252 0.92742 0.28112 0.0
C123 C 0.08458 0.94496 0.28907 0.0
C124 C 0.06761 0.93234 0.24509 0.0
C125 C 0.07946 0.94959 0.25291 0.0
C126 C 0.09086 0.89204 0.37603 0.0
C127 C 0.10238 0.88763 0.3723 0.0
C128 C 0.08169 0.8845 0.38834 0.0
C129 C 0.10454 0.87571 0.38127 0.0
C130 C 0.08421 0.87263 0.39697 0.0
N131 N 0.09549 0.86852 0.39331 0.0
C132 C 0.11639 0.90642 0.28838 0.0
C133 C 0.09839 0.90932 0.25195 0.0
C134 C 0.12156 0.90123 0.25322 0.0
N135 N 0.10498 0.91032 0.28728 0.0
C136 C 0.10322 0.90419 0.216 0.0
C137 C 0.11493 0.89992 0.2164 0.0
H138 H 0.12141 0.90703 0.317 0.0
H139 H 0.08929 0.91222 0.25183 0.0
C140 C 0.05593 0.92519 0.3986 0.0
N141 N 0.0618 0.91649 0.37789 0.0
C142 C 0.04359 0.9251 0.40077 0.0
C143 C 0.04348 0.90716 0.35964 0.0
C144 C 0.05588 0.90758 0.35838 0.0
C145 C 0.03717 0.91597 0.38136 0.0
H146 H 0.06089 0.9322 0.41363 0.0
H147 H 0.06078 0.9008 0.34195 0.0
O148 O 0.10958 0.92213 0.38182 0.0
O149 O 0.08523 0.92463 0.42981 0.0
O150 O 0.08596 0.92916 0.33867 0.0
O151 O 0.08856 0.90367 0.36749 0.0
H152 H 0.1318 0.92452 0.40654 0.0
H153 H 0.10687 0.934 0.31059 0.0
H154 H 0.14721 0.93597 0.36908 0.0
H155 H 0.12269 0.94526 0.2749 0.0
H156 H 0.06911 0.9057 0.54121 0.0
H157 H 0.09901 0.93385 0.48801 0.0
H158 H 0.0699 0.91008 0.46531 0.0
H159 H 0.09775 0.92903 0.56352 0.0
H160 H 0.11663 0.97181 0.41491 0.0
H161 H 0.08009 0.96908 0.45396 0.0
H162 H 0.09943 0.88133 0.5237 0.0
H163 H 0.1291 0.90541 0.51297 0.0
H164 H 0.06975 0.91874 0.29159 0.0
H165 H 0.09113 0.95005 0.30606 0.0
H166 H 0.06097 0.92751 0.22767 0.0
H167 H 0.08206 0.95824 0.24165 0.0
H168 H 0.10958 0.89338 0.36317 0.0
H169 H 0.07273 0.8878 0.39152 0.0
H170 H 0.11343 0.87219 0.37876 0.0
H171 H 0.07721 0.8667 0.40668 0.0
H172 H 0.13053 0.8979 0.2554 0.0
H173 H 0.09778 0.90349 0.1883 0.0
H174 H 0.03912 0.93218 0.41724 0.0
H175 H 0.03891 0.89992 0.34446 0.0
Li176 Li 0.32016 0.84502 0.63237 0.0
Li177 Li 0.34018 0.84643 0.65924 0.0
Li178 Li 0.33699 0.84919 0.58453 0.0
Li179 Li 0.33493 0.82896 0.618 0.0
C180 C 0.32701 0.86857 0.65232 0.0
N181 N 0.31874 0.88804 0.69552 0.0
C182 C 0.32458 0.86771 0.69492 0.0
C183 C 0.32529 0.87933 0.63167 0.0
C184 C 0.3204 0.87766 0.71623 0.0
C185 C 0.32108 0.88908 0.65405 0.0
C186 C 0.32658 0.82953 0.70977 0.0
C187 C 0.33083 0.81454 0.76129 0.0
N188 N 0.32331 0.81999 0.78832 0.0
C189 C 0.31885 0.83494 0.73801 0.0
C190 C 0.33259 0.81921 0.72141 0.0
C191 C 0.31733 0.83 0.77759 0.0
C192 C 0.29839 0.83714 0.66158 0.0
N193 N 0.30379 0.84707 0.64693 0.0
C194 C 0.28664 0.85868 0.66318 0.0
C195 C 0.29809 0.85769 0.64659 0.0
C196 C 0.2811 0.84866 0.68049 0.0
C197 C 0.28705 0.83775 0.67884 0.0
H198 H 0.30309 0.8288 0.66124 0.0
H199 H 0.30251 0.86546 0.63451 0.0
C200 C 0.35674 0.8618 0.69509 0.0
N201 N 0.34961 0.85247 0.70443 0.0
C202 C 0.36358 0.86718 0.72605 0.0
C203 C 0.35539 0.85347 0.77611 0.0
C204 C 0.34896 0.84817 0.74397 0.0
C205 C 0.36283 0.86317 0.76755 0.0
H206 H 0.35706 0.86512 0.66345 0.0
H207 H 0.34331 0.84078 0.75109 0.0
C208 C 0.3159 0.84082 0.54795 0.0
N209 N 0.29994 0.8483 0.4882 0.0
C210 C 0.31082 0.83265 0.52057 0.0
C211 C 0.31285 0.8528 0.54502 0.0
C212 C 0.30277 0.83661 0.49055 0.0
C213 C 0.30477 0.8564 0.51459 0.0
C214 C 0.36034 0.83864 0.62816 0.0
C215 C 0.369 0.84658 0.61448 0.0
C216 C 0.36303 0.83048 0.65952 0.0
C217 C 0.38023 0.84629 0.63276 0.0
C218 C 0.37436 0.83047 0.67704 0.0
N219 N 0.38265 0.83831 0.66343 0.0
C220 C 0.34866 0.86798 0.5448 0.0
C221 C 0.34116 0.85379 0.49725 0.0
C222 C 0.35359 0.87454 0.51212 0.0
N223 N 0.34262 0.8578 0.53691 0.0
C224 C 0.34589 0.86012 0.46354 0.0
C225 C 0.35228 0.87064 0.47069 0.0
H226 H 0.34981 0.87089 0.57669 0.0
H227 H 0.33639 0.84562 0.49178 0.0
C228 C 0.32707 0.80545 0.62088 0.0
N229 N 0.33662 0.8123 0.6118 0.0
C230 C 0.32786 0.79312 0.61857 0.0
C231 C 0.3483 0.79512 0.59721 0.0
C232 C 0.3471 0.80743 0.5999 0.0
C233 C 0.33861 0.78777 0.60682 0.0
H234 H 0.31885 0.80959 0.63029 0.0
H235 H 0.35457 0.8131 0.59293 0.0
O236 O 0.33104 0.85896 0.63065 0.0
O237 O 0.32816 0.83419 0.67078 0.0
O238 O 0.32378 0.83706 0.57749 0.0
O239 O 0.34921 0.83898 0.61142 0.0
H240 H 0.32592 0.85947 0.71135 0.0
H241 H 0.32713 0.88012 0.59863 0.0
H242 H 0.31847 0.87712 0.74922 0.0
H243 H 0.31967 0.89746 0.63846 0.0
H244 H 0.33544 0.80658 0.77075 0.0
H245 H 0.31407 0.84289 0.72958 0.0
H246 H 0.33857 0.81487 0.69996 0.0
H247 H 0.3114 0.83412 0.79977 0.0
H248 H 0.28236 0.86726 0.66381 0.0
H249 H 0.28303 0.82977 0.69117 0.0
H250 H 0.36933 0.87445 0.7174 0.0
H251 H 0.35425 0.85013 0.8075 0.0
H252 H 0.31308 0.82335 0.52252 0.0
H253 H 0.31669 0.85926 0.56592 0.0
H254 H 0.29877 0.83038 0.46911 0.0
H255 H 0.30234 0.86564 0.51194 0.0
H256 H 0.36704 0.85297 0.59025 0.0
H257 H 0.3564 0.82431 0.67051 0.0
H258 H 0.38702 0.85242 0.62265 0.0
H259 H 0.37655 0.82425 0.70152 0.0
H260 H 0.35859 0.88245 0.51943 0.0
H261 H 0.34451 0.85681 0.43222 0.0
H262 H 0.3201 0.78784 0.62564 0.0
H263 H 0.35679 0.7914 0.58844 0.0
Li264 Li 0.40831 0.09068 0.90961 0.0
Li265 Li 0.4093 0.07031 0.88571 0.0
Li266 Li 0.42543 0.08543 0.86661 0.0
Li267 Li 0.405 0.0868 0.83794 0.0
C268 C 0.42716 0.0798 0.9578 0.0
N269 N 0.44018 0.08146 0.03063 0.0
C270 C 0.42449 0.07251 0.99182 0.0
C271 C 0.43654 0.08785 0.96077 0.0
C272 C 0.43114 0.07351 0.02838 0.0
C273 C 0.44299 0.08857 0.99786 0.0
C274 C 0.38751 0.07689 0.9148 0.0
C275 C 0.36801 0.07037 0.93535 0.0
N276 N 0.3721 0.06827 0.97456 0.0
C277 C 0.3915 0.07465 0.95529 0.0
C278 C 0.37566 0.07473 0.90472 0.0
C279 C 0.38359 0.07031 0.98507 0.0
C280 C 0.39155 0.10496 0.95025 0.0
N281 N 0.40269 0.10055 0.95476 0.0
C282 C 0.40439 0.10964 0.0219 0.0
C283 C 0.40918 0.10291 0.98953 0.0
C284 C 0.39282 0.1141 0.01839 0.0
C285 C 0.38643 0.11181 0.98173 0.0
H286 H 0.38657 0.10304 0.92223 0.0
H287 H 0.41806 0.0996 0.99249 0.0
C288 C 0.41651 0.04899 0.9219 0.0
N289 N 0.40719 0.05414 0.90219 0.0
C290 C 0.41537 0.03777 0.93981 0.0
C291 C 0.39518 0.03704 0.91504 0.0
C292 C 0.3967 0.04834 0.8978 0.0
C293 C 0.40453 0.03166 0.93707 0.0
H294 H 0.42477 0.05378 0.92488 0.0
H295 H 0.38942 0.05259 0.88176 0.0
C296 C 0.41298 0.11078 0.87376 0.0
N297 N 0.40809 0.13331 0.90258 0.0
C298 C 0.4027 0.11663 0.86087 0.0
C299 C 0.42081 0.11641 0.90107 0.0
C300 C 0.40038 0.12802 0.87583 0.0
C301 C 0.41817 0.1278 0.91537 0.0
C302 C 0.41458 0.07012 0.79101 0.0
C303 C 0.4222 0.07338 0.75868 0.0
C304 C 0.40437 0.06358 0.78224 0.0
C305 C 0.41943 0.07009 0.71782 0.0
C306 C 0.4019 0.06048 0.74097 0.0
N307 N 0.40942 0.06377 0.70989 0.0
C308 C 0.44858 0.07689 0.85586 0.0
C309 C 0.44713 0.09779 0.85177 0.0
C310 C 0.46088 0.07746 0.85151 0.0
N311 N 0.44201 0.08697 0.85633 0.0
C312 C 0.45943 0.09879 0.8478 0.0
C313 C 0.46653 0.08853 0.84809 0.0
H314 H 0.44425 0.0684 0.85948 0.0
H315 H 0.44169 0.10567 0.85228 0.0
C316 C 0.38432 0.09105 0.78948 0.0
N317 N 0.39634 0.09179 0.78941 0.0
C318 C 0.37774 0.09556 0.75609 0.0
C319 C 0.39603 0.10135 0.72273 0.0
C320 C 0.40225 0.09681 0.75695 0.0
C321 C 0.38357 0.10088 0.72209 0.0
H322 H 0.37983 0.08724 0.81598 0.0
H323 H 0.4118 0.09746 0.75795 0.0
O324 O 0.42085 0.07884 0.92149 0.0
O325 O 0.39516 0.08096 0.88483 0.0
O326 O 0.4152 0.09949 0.86045 0.0
O327 O 0.41699 0.07346 0.83103 0.0
H328 H 0.41737 0.06611 0.9901 0.0
H329 H 0.43871 0.09362 0.93505 0.0
H330 H 0.42914 0.06796 0.05495 0.0
H331 H 0.45022 0.09482 1.00063 0.0
H332 H 0.35883 0.06863 0.92791 0.0
H333 H 0.4006 0.07628 0.9637 0.0
H334 H 0.37241 0.07629 0.87349 0.0
H335 H 0.38658 0.06856 0.01652 0.0
H336 H 0.40969 0.11137 0.04939 0.0
H337 H 0.37746 0.11502 0.97785 0.0
H338 H 0.4228 0.03413 0.95688 0.0
H339 H 0.38673 0.03262 0.91143 0.0
H340 H 0.3965 0.11237 0.83994 0.0
H341 H 0.42875 0.11197 0.91164 0.0
H342 H 0.39243 0.13263 0.86632 0.0
H343 H 0.42411 0.13222 0.93677 0.0
H344 H 0.43013 0.07847 0.76508 0.0
H345 H 0.39836 0.06106 0.80702 0.0
H346 H 0.42522 0.07258 0.69241 0.0
H347 H 0.394 0.05548 0.73364 0.0
H348 H 0.4659 0.06929 0.85104 0.0
H349 H 0.46334 0.10753 0.84577 0.0
H350 H 0.36817 0.09517 0.75755 0.0
H351 H 0.40095 0.10521 0.69714 0.0
Li352 Li 0.16609 0.84814 0.91474 0.0
Li353 Li 0.16722 0.82835 0.88529 0.0
Li354 Li 0.18253 0.84343 0.86751 0.0
Li355 Li 0.16221 0.84541 0.84003 0.0
C356 C 0.17807 0.83126 0.9621 0.0
N357 N 0.17617 0.82134 0.04059 0.0
C358 C 0.16694 0.82832 0.97821 0.0
C359 C 0.18823 0.82915 0.98586 0.0
C360 C 0.16617 0.82331 0.01796 0.0
C361 C 0.18708 0.82413 0.02549 0.0
C362 C 0.14273 0.83365 0.87709 0.0
C363 C 0.13115 0.82234 0.82804 0.0
N364 N 0.12179 0.82271 0.85475 0.0
C365 C 0.133 0.83395 0.904 0.0
C366 C 0.14181 0.82783 0.83876 0.0
C367 C 0.12249 0.82834 0.89217 0.0
C368 C 0.14964 0.86156 0.95964 0.0
N369 N 0.1608 0.8571 0.96207 0.0
C370 C 0.16311 0.86509 0.03077 0.0
C371 C 0.16759 0.85879 0.9966 0.0
C372 C 0.15153 0.86972 0.02937 0.0
C373 C 0.14482 0.86792 0.99297 0.0
H374 H 0.14446 0.86015 0.93169 0.0
H375 H 0.17646 0.85518 0.99782 0.0
C376 C 0.17555 0.80513 0.89089 0.0
N377 N 0.16545 0.81161 0.89417 0.0
C378 C 0.17525 0.79281 0.89527 0.0
C379 C 0.15415 0.79402 0.90667 0.0
C380 C 0.15489 0.80633 0.9027 0.0
C381 C 0.16441 0.78702 0.90267 0.0
H382 H 0.18386 0.80956 0.88455 0.0
H383 H 0.14699 0.8116 0.90612 0.0
C384 C 0.17798 0.86749 0.88249 0.0
N385 N 0.18957 0.88705 0.91438 0.0
C386 C 0.17523 0.87882 0.86787 0.0
C387 C 0.1866 0.8661 0.91341 0.0
C388 C 0.1812 0.8886 0.88435 0.0
C389 C 0.19236 0.8761 0.92912 0.0
C390 C 0.17644 0.82666 0.79519 0.0
C391 C 0.18485 0.83123 0.7675 0.0
C392 C 0.17089 0.81589 0.78621 0.0
C393 C 0.18755 0.82495 0.73118 0.0
C394 C 0.17383 0.80988 0.74956 0.0
N395 N 0.18202 0.81449 0.72304 0.0
C396 C 0.20586 0.83544 0.85501 0.0
C397 C 0.2026 0.85497 0.83062 0.0
C398 C 0.21731 0.83547 0.83841 0.0
N399 N 0.19874 0.84507 0.85065 0.0
C400 C 0.21403 0.85543 0.81385 0.0
C401 C 0.22155 0.84552 0.81709 0.0
H402 H 0.20247 0.82758 0.87017 0.0
H403 H 0.19669 0.86242 0.82652 0.0
C404 C 0.14382 0.85823 0.80208 0.0
N405 N 0.15312 0.85096 0.7938 0.0
C406 C 0.13713 0.86303 0.76949 0.0
C407 C 0.14962 0.85261 0.72051 0.0
C408 C 0.15606 0.84804 0.754 0.0
C409 C 0.14008 0.86033 0.72795 0.0
H410 H 0.1417 0.86044 0.83407 0.0
H411 H 0.16347 0.84228 0.74805 0.0
O412 O 0.1791 0.83619 0.92331 0.0
O413 O 0.15306 0.83909 0.88839 0.0
O414 O 0.17212 0.85786 0.86689 0.0
O415 O 0.17376 0.83263 0.83112 0.0
H416 H 0.15898 0.82989 0.96035 0.0
H417 H 0.1969 0.83138 0.97377 0.0
H418 H 0.15762 0.821 0.03084 0.0
H419 H 0.19487 0.82246 0.04425 0.0
H420 H 0.13031 0.8178 0.79849 0.0
H421 H 0.13359 0.83842 0.93379 0.0
H422 H 0.14924 0.82755 0.81754 0.0
H423 H 0.1149 0.82847 0.91273 0.0
H424 H 0.16858 0.86614 0.05824 0.0
H425 H 0.13595 0.87147 0.99003 0.0
H426 H 0.18347 0.78792 0.89293 0.0
H427 H 0.14555 0.79005 0.91195 0.0
H428 H 0.16854 0.88003 0.84404 0.0
H429 H 0.18884 0.85741 0.92518 0.0
H430 H 0.17916 0.89743 0.87331 0.0
H431 H 0.19905 0.87516 0.95304 0.0
H432 H 0.18916 0.8396 0.77371 0.0
H433 H 0.16438 0.81219 0.80726 0.0
H434 H 0.19401 0.8284 0.70944 0.0
H435 H 0.16959 0.80154 0.74221 0.0
H436 H 0.22263 0.82753 0.84109 0.0
H437 H 0.2169 0.86342 0.79817 0.0
H438 H 0.12995 0.86904 0.77675 0.0
H439 H 0.15212 0.85013 0.68909 0.0
Li440 Li 0.42604 0.91724 0.12361 0.0
Li441 Li 0.4061 0.9145 0.15679 0.0
Li442 Li 0.40849 0.91075 0.0837 0.0
Li443 Li 0.40973 0.93057 0.10855 0.0
C444 C 0.41813 0.89156 0.1131 0.0
N445 N 0.42055 0.86987 0.07413 0.0
C446 C 0.41132 0.8819 0.12609 0.0
C447 C 0.42623 0.89018 0.08047 0.0
C448 C 0.41266 0.87101 0.10594 0.0
C449 C 0.42731 0.87914 0.06113 0.0
C450 C 0.42294 0.92791 0.20133 0.0
C451 C 0.42899 0.93782 0.26443 0.0
N452 N 0.43371 0.9275 0.27868 0.0
C453 C 0.42787 0.91739 0.21655 0.0
C454 C 0.42352 0.93821 0.22536 0.0
C455 C 0.43327 0.91738 0.25575 0.0
C456 C 0.44848 0.92734 0.12652 0.0
N457 N 0.44286 0.91673 0.12928 0.0
C458 C 0.46142 0.90661 0.13485 0.0
C459 C 0.44902 0.90647 0.13423 0.0
C460 C 0.4675 0.91742 0.13048 0.0
C461 C 0.46083 0.92789 0.12706 0.0
H462 H 0.44334 0.93537 0.12323 0.0
H463 H 0.44433 0.89816 0.13697 0.0
C464 C 0.38996 0.89955 0.19552 0.0
N465 N 0.39743 0.90865 0.20446 0.0
C466 C 0.38375 0.89378 0.22727 0.0
C467 C 0.39249 0.90723 0.27705 0.0
C468 C 0.39858 0.91274 0.24421 0.0
C469 C 0.38512 0.89744 0.26889 0.0
H470 H 0.38896 0.89666 0.16355 0.0
H471 H 0.40432 0.92016 0.25075 0.0
C472 C 0.42083 0.9299 0.03509 0.0
N473 N 0.42111 0.94559 0.96893 0.0
C474 C 0.41086 0.93112 0.00958 0.0
C475 C 0.43096 0.93661 0.02681 0.0
C476 C 0.41118 0.9391 0.97629 0.0
C477 C 0.43092 0.94451 0.99326 0.0
C478 C 0.38624 0.92588 0.12674 0.0
C479 C 0.37492 0.9241 0.11028 0.0
C480 C 0.38781 0.93376 0.15995 0.0
C481 C 0.36533 0.93025 0.12728 0.0
C482 C 0.37799 0.93973 0.1761 0.0
N483 N 0.36705 0.93787 0.15956 0.0
C484 C 0.39343 0.89407 0.04543 0.0
C485 C 0.40893 0.90104 1.00192 0.0
C486 C 0.38893 0.88715 0.01298 0.0
N487 N 0.40319 0.90091 0.0392 0.0
C488 C 0.40459 0.89447 0.9684 0.0
C489 C 0.39442 0.88749 0.97374 0.0
H490 H 0.38907 0.89413 0.0755 0.0
H491 H 0.4168 0.90639 0.99804 0.0
C492 C 0.41684 0.95404 0.09893 0.0
N493 N 0.40739 0.94679 0.09272 0.0
C494 C 0.41725 0.96518 0.08007 0.0
C495 C 0.39788 0.96153 0.05073 0.0
C496 C 0.39786 0.95039 0.07002 0.0
C497 C 0.40784 0.96893 0.05459 0.0
H498 H 0.42437 0.95086 0.11652 0.0
H499 H 0.39059 0.94435 0.06462 0.0
O500 O 0.41671 0.9024 0.13155 0.0
O501 O 0.41764 0.92824 0.16301 0.0
O502 O 0.42057 0.92235 0.06848 0.0
O503 O 0.39566 0.91989 0.11016 0.0
H504 H 0.40507 0.88279 0.15144 0.0
H505 H 0.43147 0.8976 0.06973 0.0
H506 H 0.40743 0.86347 0.11558 0.0
H507 H 0.43348 0.87797 0.03564 0.0
H508 H 0.42948 0.94573 0.28341 0.0
H509 H 0.42751 0.90932 0.19848 0.0
H510 H 0.41976 0.94642 0.21393 0.0
H511 H 0.4371 0.90931 0.26795 0.0
H512 H 0.46617 0.89831 0.13744 0.0
H513 H 0.46511 0.93645 0.12457 0.0
H514 H 0.37795 0.88648 0.21928 0.0
H515 H 0.39382 0.91037 0.3086 0.0
H516 H 0.40288 0.92611 0.0159 0.0
H517 H 0.43876 0.93577 0.0462 0.0
H518 H 0.4035 0.94019 0.9565 0.0
H519 H 0.43868 0.9498 0.98661 0.0
H520 H 0.37358 0.91803 0.08458 0.0
H521 H 0.39647 0.93527 0.17319 0.0
H522 H 0.35652 0.92896 0.11481 0.0
H523 H 0.37907 0.94585 0.20178 0.0
H524 H 0.38103 0.88189 0.01806 0.0
H525 H 0.40909 0.89484 0.93858 0.0
H526 H 0.42504 0.97065 0.08433 0.0
H527 H 0.39049 0.96401 0.03105 0.0
Li528 Li 0.3357 0.17413 0.37715 0.0
Li529 Li 0.33751 0.15483 0.41373 0.0
Li530 Li 0.343 0.15647 0.3387 0.0
Li531 Li 0.32213 0.15724 0.36177 0.0
C532 C 0.36209 0.16549 0.38584 0.0
N533 N 0.3865 0.16681 0.3815 0.0
C534 C 0.36908 0.15739 0.40782 0.0
C535 C 0.36751 0.17432 0.36194 0.0
C536 C 0.3814 0.15819 0.40515 0.0
C537 C 0.37986 0.17481 0.36006 0.0
C538 C 0.32149 0.16703 0.45604 0.0
C539 C 0.31281 0.15894 0.51857 0.0
N540 N 0.31737 0.16812 0.54086 0.0
C541 C 0.32601 0.17643 0.47946 0.0
C542 C 0.31476 0.15825 0.47561 0.0
C543 C 0.32386 0.17681 0.52235 0.0
C544 C 0.32799 0.19774 0.36571 0.0
N545 N 0.33684 0.19096 0.38169 0.0
C546 C 0.34712 0.20824 0.40528 0.0
C547 C 0.34626 0.19593 0.40149 0.0
C548 C 0.3382 0.21549 0.38841 0.0
C549 C 0.32854 0.21008 0.36841 0.0
H550 H 0.32044 0.19356 0.35113 0.0
H551 H 0.35308 0.19032 0.4146 0.0
C552 C 0.34278 0.13573 0.46919 0.0
N553 N 0.34276 0.14771 0.4649 0.0
C554 C 0.34822 0.13043 0.50374 0.0
C555 C 0.35319 0.14991 0.5294 0.0
C556 C 0.34775 0.15482 0.49426 0.0
C557 C 0.35372 0.13753 0.53418 0.0
H558 H 0.33901 0.13025 0.44495 0.0
H559 H 0.34792 0.1643 0.48959 0.0
C560 C 0.33039 0.176 0.29179 0.0
N561 N 0.32994 0.1932 0.23056 0.0
C562 C 0.31958 0.18005 0.27615 0.0
C563 C 0.34098 0.18061 0.2761 0.0
C564 C 0.31953 0.18878 0.24525 0.0
C565 C 0.34057 0.18932 0.24519 0.0
C566 C 0.32697 0.13431 0.35757 0.0
C567 C 0.32848 0.12859 0.31929 0.0
C568 C 0.31832 0.13031 0.38537 0.0
C569 C 0.32117 0.11902 0.3092 0.0
C570 C 0.31118 0.12072 0.37411 0.0
N571 N 0.31273 0.11533 0.33657 0.0
C572 C 0.36371 0.14624 0.30139 0.0
C573 C 0.34787 0.15074 0.25562 0.0
C574 C 0.37022 0.14133 0.26861 0.0
N575 N 0.35277 0.15085 0.29436 0.0
C576 C 0.354 0.14579 0.22204 0.0
C577 C 0.36532 0.1409 0.2283 0.0
H578 H 0.3673 0.14608 0.33253 0.0
H579 H 0.33902 0.15415 0.25106 0.0
C580 C 0.29669 0.1572 0.3627 0.0
N581 N 0.30657 0.15386 0.34146 0.0
C582 C 0.28549 0.15588 0.3445 0.0
C583 C 0.29486 0.14747 0.28354 0.0
C584 C 0.30585 0.14912 0.30256 0.0
C585 C 0.28449 0.15101 0.30428 0.0
H586 H 0.29754 0.16118 0.39324 0.0
H587 H 0.31387 0.14694 0.28578 0.0
O588 O 0.35001 0.16489 0.38827 0.0
O589 O 0.32366 0.1664 0.41416 0.0
O590 O 0.33059 0.16752 0.32219 0.0
O591 O 0.33391 0.14381 0.36773 0.0
H592 H 0.36504 0.15049 0.42638 0.0
H593 H 0.36224 0.18075 0.34519 0.0
H594 H 0.38692 0.15195 0.42181 0.0
H595 H 0.38418 0.18158 0.34162 0.0
H596 H 0.30767 0.15218 0.53419 0.0
H597 H 0.33123 0.18331 0.46476 0.0
H598 H 0.31111 0.15098 0.45783 0.0
H599 H 0.32737 0.18399 0.54094 0.0
H600 H 0.35473 0.21205 0.42087 0.0
H601 H 0.32137 0.21532 0.35566 0.0
H602 H 0.34854 0.12086 0.50555 0.0
H603 H 0.35713 0.15579 0.55218 0.0
H604 H 0.3113 0.17654 0.28796 0.0
H605 H 0.34941 0.17744 0.28753 0.0
H606 H 0.31123 0.19205 0.23295 0.0
H607 H 0.34869 0.19298 0.23279 0.0
H608 H 0.33518 0.13154 0.29751 0.0
H609 H 0.3171 0.1346 0.4152 0.0
H610 H 0.32219 0.11455 0.27959 0.0
H611 H 0.3044 0.11757 0.39522 0.0
H612 H 0.37894 0.13779 0.27498 0.0
H613 H 0.34972 0.14545 0.19186 0.0
H614 H 0.2777 0.15872 0.3615 0.0
H615 H 0.2945 0.14388 0.25223 0.0
Li616 Li 0.07791 0.0874 0.63026 0.0
Li617 Li 0.09744 0.08837 0.66248 0.0
Li618 Li 0.09513 0.09234 0.58714 0.0
Li619 Li 0.09314 0.07206 0.61353 0.0
C620 C 0.08251 0.11178 0.63564 0.0
N621 N 0.06979 0.13268 0.63759 0.0
C622 C 0.08247 0.11877 0.67162 0.0
C623 C 0.07612 0.11544 0.60061 0.0
C624 C 0.07598 0.1293 0.672 0.0
C625 C 0.06973 0.12603 0.60222 0.0
C626 C 0.08003 0.07575 0.70677 0.0
C627 C 0.072 0.06569 0.76678 0.0
N628 N 0.06928 0.07635 0.78412 0.0
C629 C 0.07717 0.0866 0.72516 0.0
C630 C 0.07744 0.06521 0.72766 0.0
C631 C 0.07173 0.08672 0.76429 0.0
C632 C 0.05446 0.08027 0.62043 0.0
N633 N 0.06109 0.08921 0.63666 0.0
C634 C 0.04355 0.09959 0.65728 0.0
C635 C 0.05589 0.09866 0.65566 0.0
C636 C 0.03652 0.09057 0.64021 0.0
C637 C 0.0421 0.08073 0.62208 0.0
H638 H 0.05881 0.0728 0.60583 0.0
H639 H 0.06125 0.10549 0.66959 0.0
C640 C 0.11068 0.10436 0.71069 0.0
N641 N 0.10601 0.09326 0.71121 0.0
C642 C 0.11658 0.10882 0.74565 0.0
C643 C 0.11302 0.09024 0.78087 0.0
C644 C 0.10717 0.08614 0.74519 0.0
C645 C 0.11774 0.10178 0.78161 0.0
H646 H 0.10966 0.10983 0.68321 0.0
H647 H 0.10347 0.0773 0.74476 0.0
C648 C 0.07865 0.08081 0.5358 0.0
N649 N 0.07096 0.08097 0.45401 0.0
C650 C 0.08368 0.07309 0.50668 0.0
C651 C 0.06954 0.08843 0.52354 0.0
C652 C 0.07973 0.07336 0.46541 0.0
C653 C 0.06582 0.08842 0.48199 0.0
C654 C 0.11694 0.07641 0.63117 0.0
C655 C 0.12839 0.07893 0.61726 0.0
C656 C 0.11522 0.06776 0.66181 0.0
C657 C 0.13796 0.07275 0.63428 0.0
C658 C 0.12501 0.06178 0.67806 0.0
N659 N 0.13609 0.06437 0.66408 0.0
C660 C 0.10136 0.11311 0.54056 0.0
C661 C 0.10508 0.09474 0.5074 0.0
C662 C 0.10564 0.11926 0.50586 0.0
N663 N 0.10096 0.10107 0.5404 0.0
C664 C 0.10943 0.10051 0.47208 0.0
C665 C 0.10973 0.11295 0.47092 0.0
H666 H 0.09852 0.11796 0.56778 0.0
H667 H 0.10507 0.08517 0.50863 0.0
C668 C 0.08568 0.04848 0.60499 0.0
N669 N 0.09493 0.05588 0.59747 0.0
C670 C 0.08585 0.03687 0.58986 0.0
C671 C 0.10515 0.04064 0.56011 0.0
C672 C 0.10458 0.05221 0.57562 0.0
C673 C 0.09564 0.03281 0.56672 0.0
H674 H 0.07802 0.05172 0.62172 0.0
H675 H 0.11171 0.05835 0.56932 0.0
O676 O 0.08872 0.10137 0.63494 0.0
O677 O 0.0854 0.07539 0.66856 0.0
O678 O 0.08238 0.08064 0.57637 0.0
O679 O 0.10751 0.08244 0.61485 0.0
H680 H 0.08734 0.11605 0.69908 0.0
H681 H 0.07615 0.1102 0.57243 0.0
H682 H 0.07583 0.13478 0.69968 0.0
H683 H 0.06475 0.12896 0.57533 0.0
H684 H 0.06995 0.0576 0.78335 0.0
H685 H 0.07915 0.09484 0.70949 0.0
H686 H 0.07963 0.05674 0.71379 0.0
H687 H 0.06947 0.09505 0.7789 0.0
H688 H 0.03955 0.10724 0.67205 0.0
H689 H 0.03696 0.07361 0.6085 0.0
H690 H 0.11993 0.1178 0.74482 0.0
H691 H 0.11384 0.08442 0.80757 0.0
H692 H 0.09064 0.06703 0.51578 0.0
H693 H 0.06531 0.09422 0.5459 0.0
H694 H 0.08362 0.06752 0.44246 0.0
H695 H 0.05881 0.09431 0.47202 0.0
H696 H 0.12986 0.08561 0.59356 0.0
H697 H 0.10642 0.06566 0.67293 0.0
H698 H 0.14688 0.07461 0.62381 0.0
H699 H 0.12381 0.05507 0.70179 0.0
H700 H 0.10597 0.12885 0.50672 0.0
H701 H 0.11247 0.09528 0.44588 0.0
H702 H 0.07821 0.03127 0.59515 0.0
H703 H 0.11294 0.03791 0.5429 0.0
Li704 Li 0.84151 0.84584 0.84005 0.0
Li705 Li 0.83765 0.84746 0.91542 0.0
Li706 Li 0.83462 0.82824 0.87711 0.0
Li707 Li 0.82042 0.84446 0.86738 0.0
C708 C 0.86125 0.83651 0.87694 0.0
N709 N 0.88499 0.83536 0.85637 0.0
C710 C 0.86965 0.84242 0.9013 0.0
C711 C 0.86493 0.82995 0.84234 0.0
C712 C 0.88161 0.84174 0.89033 0.0
C713 C 0.87697 0.8295 0.83238 0.0
C714 C 0.83048 0.86968 0.87553 0.0
C715 C 0.81858 0.88639 0.8965 0.0
N716 N 0.82764 0.8938 0.88633 0.0
C717 C 0.83959 0.87747 0.86465 0.0
C718 C 0.81982 0.87418 0.89104 0.0
C719 C 0.83802 0.88962 0.87061 0.0
C720 C 0.84567 0.85221 0.75677 0.0
N721 N 0.85061 0.8523 0.79541 0.0
C722 C 0.86739 0.86299 0.7699 0.0
C723 C 0.86122 0.85762 0.80254 0.0
C724 C 0.86246 0.86321 0.7296 0.0
C725 C 0.85143 0.85766 0.72333 0.0
H726 H 0.83709 0.84815 0.75216 0.0
H727 H 0.8648 0.85792 0.83374 0.0
C728 C 0.84177 0.85014 0.00323 0.0
N729 N 0.84363 0.85499 0.96495 0.0
C730 C 0.84684 0.85525 0.03878 0.0
C731 C 0.85567 0.87024 0.99494 0.0
C732 C 0.85047 0.86482 0.9603 0.0
C733 C 0.85397 0.86542 0.03489 0.0
H734 H 0.83652 0.84217 0.00614 0.0
H735 H 0.85223 0.86824 0.9295 0.0
C736 C 0.82584 0.82541 0.79976 0.0
N737 N 0.82039 0.80577 0.75212 0.0
C738 C 0.8144 0.82069 0.80054 0.0
C739 C 0.83447 0.82026 0.77432 0.0
C740 C 0.81183 0.81072 0.77635 0.0
C741 C 0.83155 0.8103 0.75058 0.0
C742 C 0.8159 0.83737 0.95065 0.0
C743 C 0.80966 0.82768 0.96659 0.0
C744 C 0.81363 0.84871 0.9661 0.0
C745 C 0.80113 0.82954 0.99748 0.0
C746 C 0.80505 0.85021 0.99702 0.0
N747 N 0.79901 0.84067 0.01191 0.0
C748 C 0.84539 0.80506 0.87812 0.0
C749 C 0.82445 0.8057 0.88236 0.0
C750 C 0.8452 0.79266 0.87786 0.0
N751 N 0.83509 0.81129 0.87985 0.0
C752 C 0.82384 0.79335 0.88196 0.0
C753 C 0.8343 0.78664 0.8793 0.0
H754 H 0.85375 0.80969 0.87654 0.0
H755 H 0.8164 0.81086 0.88404 0.0
C756 C 0.80306 0.85482 0.81747 0.0
N757 N 0.80444 0.84807 0.85226 0.0
C758 C 0.7918 0.8567 0.80063 0.0
C759 C 0.78352 0.84491 0.85637 0.0
C760 C 0.79496 0.84318 0.87194 0.0
C761 C 0.78184 0.8516 0.81984 0.0
H762 H 0.81078 0.85846 0.8021 0.0
H763 H 0.79625 0.83756 0.89877 0.0
O764 O 0.8495 0.83716 0.88702 0.0
O765 O 0.83182 0.85775 0.86946 0.0
O766 O 0.82857 0.83506 0.82369 0.0
O767 O 0.8242 0.8357 0.92014 0.0
H768 H 0.86697 0.84747 0.92834 0.0
H769 H 0.85855 0.82532 0.82324 0.0
H770 H 0.88821 0.84629 0.90882 0.0
H771 H 0.87993 0.82449 0.80557 0.0
H772 H 0.8104 0.88999 0.90866 0.0
H773 H 0.84784 0.87415 0.85208 0.0
H774 H 0.81253 0.86833 0.89847 0.0
H775 H 0.84505 0.89574 0.86269 0.0
H776 H 0.87591 0.867 0.77637 0.0
H777 H 0.84711 0.8578 0.69322 0.0
H778 H 0.84524 0.85125 0.06896 0.0
H779 H 0.86131 0.87789 0.99026 0.0
H780 H 0.80761 0.82459 0.81999 0.0
H781 H 0.84331 0.82392 0.77284 0.0
H782 H 0.80304 0.80691 0.7769 0.0
H783 H 0.83815 0.80619 0.73088 0.0
H784 H 0.81135 0.81883 0.95513 0.0
H785 H 0.81854 0.85626 0.95469 0.0
H786 H 0.79619 0.82213 0.00998 0.0
H787 H 0.8032 0.85894 0.00927 0.0
H788 H 0.85347 0.78785 0.87558 0.0
H789 H 0.81526 0.7891 0.88383 0.0
H790 H 0.7909 0.86198 0.77259 0.0
H791 H 0.77611 0.84066 0.8718 0.0
Li792 Li 0.9078 0.09128 0.59143 0.0
Li793 Li 0.90436 0.08688 0.66654 0.0
Li794 Li 0.92444 0.08415 0.63205 0.0
Li795 Li 0.90827 0.0707 0.6165 0.0
C796 C 0.91459 0.11071 0.63185 0.0
N797 N 0.91274 0.13439 0.61112 0.0
C798 C 0.90575 0.11771 0.64984 0.0
C799 C 0.92255 0.11577 0.60361 0.0
C800 C 0.90495 0.12967 0.6389 0.0
C801 C 0.92144 0.12775 0.59344 0.0
C802 C 0.88568 0.07565 0.60117 0.0
C803 C 0.8708 0.06043 0.60786 0.0
N804 N 0.86801 0.06179 0.56687 0.0
C805 C 0.88263 0.07693 0.55915 0.0
C806 C 0.87968 0.06738 0.62581 0.0
C807 C 0.87368 0.06983 0.54239 0.0
C808 C 0.90724 0.09983 0.50821 0.0
N809 N 0.90272 0.10134 0.54715 0.0
C810 C 0.88954 0.11636 0.52249 0.0
C811 C 0.89398 0.10934 0.55475 0.0
C812 C 0.89396 0.11492 0.48187 0.0
C813 C 0.90296 0.10656 0.47492 0.0
H814 H 0.91396 0.0932 0.50278 0.0
H815 H 0.89027 0.11008 0.58573 0.0
C816 C 0.90202 0.09805 0.74564 0.0
N817 N 0.89599 0.09249 0.71458 0.0
C818 C 0.89589 0.10342 0.77856 0.0
C819 C 0.8775 0.09697 0.74746 0.0
C820 C 0.88398 0.0918 0.71504 0.0
C821 C 0.88342 0.10306 0.77957 0.0
H822 H 0.91157 0.09865 0.7441 0.0
H823 H 0.87939 0.08745 0.68972 0.0
C824 C 0.92913 0.07618 0.55565 0.0
N825 N 0.95018 0.07125 0.51522 0.0
C826 C 0.93287 0.06445 0.55078 0.0
C827 C 0.93606 0.08539 0.53967 0.0
C828 C 0.94354 0.06214 0.53029 0.0
C829 C 0.94669 0.08271 0.51944 0.0
C830 C 0.91457 0.06472 0.70044 0.0
C831 C 0.92421 0.0576 0.71137 0.0
C832 C 0.90359 0.06286 0.71945 0.0
C833 C 0.92266 0.04861 0.74082 0.0
C834 C 0.90239 0.05379 0.74878 0.0
N835 N 0.91187 0.0469 0.75875 0.0
C836 C 0.9471 0.09493 0.6476 0.0
C837 C 0.94711 0.07416 0.63723 0.0
C838 C 0.95945 0.09494 0.6519 0.0
N839 N 0.94123 0.08463 0.64011 0.0
C840 C 0.95942 0.07379 0.64058 0.0
C841 C 0.96583 0.08427 0.64809 0.0
H842 H 0.94221 0.10312 0.65028 0.0
H843 H 0.94223 0.06609 0.63164 0.0
C844 C 0.90236 0.05376 0.55679 0.0
N845 N 0.90484 0.05475 0.59816 0.0
C846 C 0.90072 0.04265 0.53851 0.0
C847 C 0.90422 0.03364 0.60564 0.0
C848 C 0.90566 0.04496 0.62274 0.0
C849 C 0.90184 0.03234 0.56279 0.0
H850 H 0.90194 0.06163 0.53765 0.0
H851 H 0.90775 0.0458 0.65536 0.0
O852 O 0.91541 0.09895 0.64169 0.0
O853 O 0.89458 0.08236 0.61797 0.0
O854 O 0.9188 0.07864 0.57618 0.0
O855 O 0.91597 0.07358 0.67177 0.0
H856 H 0.89948 0.11394 0.67163 0.0
H857 H 0.92947 0.11049 0.58955 0.0
H858 H 0.89811 0.13518 0.65239 0.0
H859 H 0.92751 0.13177 0.57146 0.0
H860 H 0.86613 0.05395 0.62652 0.0
H861 H 0.88719 0.08323 0.53951 0.0
H862 H 0.88191 0.06625 0.65834 0.0
H863 H 0.87128 0.07068 0.50987 0.0
H864 H 0.88246 0.12256 0.52897 0.0
H865 H 0.90658 0.10519 0.44402 0.0
H866 H 0.90086 0.10814 0.80214 0.0
H867 H 0.86794 0.09627 0.74711 0.0
H868 H 0.92768 0.05721 0.5632 0.0
H869 H 0.9333 0.0945 0.5431 0.0
H870 H 0.94658 0.05312 0.52652 0.0
H871 H 0.95217 0.08976 0.50713 0.0
H872 H 0.9328 0.05898 0.69719 0.0
H873 H 0.89607 0.06833 0.71163 0.0
H874 H 0.93003 0.043 0.74946 0.0
H875 H 0.89393 0.05222 0.76363 0.0
H876 H 0.96391 0.10323 0.65847 0.0
H877 H 0.96385 0.06537 0.63658 0.0
H878 H 0.89871 0.04218 0.50554 0.0
H879 H 0.90536 0.026 0.62565 0.0
Li880 Li 0.66282 0.15784 0.34307 0.0
Li881 Li 0.66626 0.15542 0.41686 0.0
Li882 Li 0.66804 0.17548 0.38364 0.0
Li883 Li 0.68304 0.15937 0.36935 0.0
C884 C 0.64222 0.16768 0.38557 0.0
N885 N 0.61835 0.17258 0.37704 0.0
C886 C 0.63376 0.16011 0.40309 0.0
C887 C 0.63853 0.17784 0.36431 0.0
C888 C 0.62174 0.16272 0.39827 0.0
C889 C 0.62643 0.18013 0.36017 0.0
C890 C 0.66731 0.13441 0.37011 0.0
C891 C 0.66879 0.11313 0.36655 0.0
N892 N 0.65681 0.11232 0.36994 0.0
C893 C 0.65503 0.13337 0.37353 0.0
C894 C 0.67427 0.12423 0.36655 0.0
C895 C 0.64987 0.12212 0.37338 0.0
C896 C 0.66141 0.14807 0.26354 0.0
N897 N 0.65441 0.15213 0.29499 0.0
C898 C 0.63699 0.14737 0.25591 0.0
C899 C 0.64239 0.15176 0.29197 0.0
C900 C 0.64404 0.14352 0.22257 0.0
C901 C 0.6564 0.1439 0.22658 0.0
H902 H 0.67092 0.14806 0.26723 0.0
H903 H 0.63694 0.15476 0.31743 0.0
C904 C 0.65292 0.15415 0.48992 0.0
N905 N 0.66078 0.14782 0.46687 0.0
C906 C 0.64781 0.14925 0.52566 0.0
C907 C 0.65922 0.13146 0.51417 0.0
C908 C 0.66408 0.1367 0.4784 0.0
C909 C 0.65091 0.13773 0.53834 0.0
H910 H 0.65044 0.16297 0.48007 0.0
H911 H 0.67043 0.13186 0.45977 0.0
C912 C 0.67425 0.17319 0.28938 0.0
N913 N 0.67268 0.17898 0.20582 0.0
C914 C 0.68322 0.16982 0.2618 0.0
C915 C 0.66455 0.17963 0.27457 0.0
C916 C 0.68225 0.1728 0.21964 0.0
C917 C 0.6639 0.18244 0.23219 0.0
C918 C 0.68684 0.16377 0.45456 0.0
C919 C 0.69027 0.17158 0.48613 0.0
C920 C 0.69111 0.15215 0.45459 0.0
C921 C 0.69795 0.16761 0.51732 0.0
C922 C 0.69877 0.14852 0.48634 0.0
N923 N 0.702 0.15626 0.51678 0.0
C924 C 0.65889 0.19688 0.41873 0.0
C925 C 0.67293 0.19915 0.36433 0.0
C926 C 0.6579 0.20919 0.42281 0.0
N927 N 0.66632 0.19216 0.38977 0.0
C928 C 0.67221 0.21147 0.3673 0.0
C929 C 0.66461 0.21667 0.39683 0.0
H930 H 0.65374 0.19109 0.43858 0.0
H931 H 0.67885 0.19515 0.34187 0.0
C932 C 0.70196 0.14797 0.32806 0.0
N933 N 0.69921 0.15691 0.35473 0.0
C934 C 0.71345 0.14691 0.31216 0.0
C935 C 0.71914 0.16407 0.3525 0.0
C936 C 0.70752 0.16485 0.3674 0.0
C937 C 0.7222 0.15513 0.32393 0.0
H938 H 0.69512 0.1419 0.31803 0.0
H939 H 0.70503 0.17201 0.38804 0.0
O940 O 0.65403 0.1653 0.39017 0.0
O941 O 0.67258 0.14532 0.37044 0.0
O942 O 0.67499 0.17022 0.33069 0.0
O943 O 0.67929 0.16752 0.42395 0.0
H944 H 0.63642 0.15228 0.42014 0.0
H945 H 0.64492 0.18394 0.35139 0.0
H946 H 0.61511 0.1569 0.41145 0.0
H947 H 0.62345 0.18795 0.34367 0.0
H948 H 0.67407 0.10517 0.36388 0.0
H949 H 0.64954 0.14116 0.37622 0.0
H950 H 0.68381 0.12491 0.36396 0.0
H951 H 0.64037 0.12119 0.376 0.0
H952 H 0.62741 0.14712 0.25385 0.0
H953 H 0.6621 0.14081 0.20167 0.0
H954 H 0.64133 0.1544 0.54269 0.0
H955 H 0.66203 0.12263 0.52295 0.0
H956 H 0.69083 0.1649 0.27276 0.0
H957 H 0.65758 0.18237 0.29547 0.0
H958 H 0.6891 0.17019 0.19791 0.0
H959 H 0.65641 0.18736 0.22027 0.0
H960 H 0.68702 0.1806 0.48651 0.0
H961 H 0.68855 0.14598 0.43043 0.0
H962 H 0.70069 0.17355 0.54197 0.0
H963 H 0.70214 0.13955 0.48678 0.0
H964 H 0.65186 0.21281 0.44576 0.0
H965 H 0.6777 0.21685 0.34712 0.0
H966 H 0.71544 0.13982 0.29052 0.0
H967 H 0.72554 0.17069 0.36203 0.0
Li968 Li 0.59706 0.91135 0.09367 0.0
Li969 Li 0.59967 0.91544 0.16794 0.0
Li970 Li 0.57963 0.91706 0.13332 0.0
Li971 Li 0.5948 0.9323 0.12014 0.0
C972 C 0.59032 0.89123 0.12979 0.0
N973 N 0.59182 0.86791 0.10417 0.0
C974 C 0.59802 0.88341 0.14997 0.0
C975 C 0.58328 0.88716 0.09695 0.0
C976 C 0.59867 0.87166 0.13647 0.0
C977 C 0.5842 0.87535 0.08434 0.0
C978 C 0.62039 0.92494 0.12905 0.0
C979 C 0.63463 0.93901 0.15537 0.0
N980 N 0.64352 0.93132 0.14617 0.0
C981 C 0.62969 0.91727 0.11919 0.0
C982 C 0.62289 0.93598 0.14672 0.0
C983 C 0.64131 0.92061 0.12837 0.0
C984 C 0.60029 0.9052 0.00885 0.0
N985 N 0.6034 0.90239 0.04858 0.0
C986 C 0.61712 0.88786 0.02398 0.0
C987 C 0.61162 0.89389 0.05666 0.0
C988 C 0.61426 0.89071 0.98249 0.0
C989 C 0.60562 0.89943 0.97516 0.0
H990 H 0.59392 0.91217 0.00327 0.0
H991 H 0.61409 0.89198 0.08851 0.0
C992 C 0.60363 0.91191 0.2554 0.0
N993 N 0.60815 0.91012 0.21658 0.0
C994 C 0.6095 0.9075 0.29057 0.0
C995 C 0.62441 0.89918 0.24524 0.0
C996 C 0.61831 0.90383 0.21101 0.0
C997 C 0.62003 0.90098 0.28575 0.0
H998 H 0.59534 0.9166 0.25907 0.0
H999 H 0.62151 0.90212 0.17986 0.0
C1000 C 0.57495 0.92588 0.05732 0.0
N1001 N 0.55418 0.93076 0.01507 0.0
C1002 C 0.57019 0.93731 0.05796 0.0
C1003 C 0.56922 0.91697 0.0348 0.0
C1004 C 0.55967 0.93959 0.0365 0.0
C1005 C 0.5587 0.9196 0.01377 0.0
C1006 C 0.58763 0.93676 0.20398 0.0
C1007 C 0.57731 0.9427 0.21593 0.0
C1008 C 0.59842 0.93975 0.22259 0.0
C1009 C 0.57799 0.95165 0.24594 0.0
C1010 C 0.59873 0.94874 0.2525 0.0
N1011 N 0.58859 0.95446 0.26342 0.0
C1012 C 0.55781 0.90428 0.14294 0.0
C1013 C 0.55613 0.92517 0.13965 0.0
C1014 C 0.54549 0.90313 0.14571 0.0
N1015 N 0.56285 0.91518 0.13958 0.0
C1016 C 0.54381 0.92444 0.14208 0.0
C1017 C 0.53831 0.9133 0.1449 0.0
H1018 H 0.56334 0.89646 0.14321 0.0
H1019 H 0.56035 0.93374 0.13737 0.0
C1020 C 0.60031 0.94986 0.06263 0.0
N1021 N 0.59702 0.94847 0.10314 0.0
C1022 C 0.6007 0.96113 0.04459 0.0
C1023 C 0.59479 0.96944 0.11078 0.0
C1024 C 0.59443 0.958 0.12745 0.0
C1025 C 0.59771 0.97112 0.06851 0.0
H1026 H 0.60217 0.94212 0.04383 0.0
H1027 H 0.59176 0.95679 0.15943 0.0
O1028 O 0.58968 0.90281 0.14217 0.0
O1029 O 0.60896 0.92185 0.11994 0.0
O1030 O 0.58517 0.92343 0.07861 0.0
O1031 O 0.58712 0.928 0.17455 0.0
H1032 H 0.60344 0.88637 0.17571 0.0
H1033 H 0.57723 0.89307 0.08123 0.0
H1034 H 0.60463 0.86552 0.15167 0.0
H1035 H 0.57885 0.8721 0.05879 0.0
H1036 H 0.63668 0.9475 0.16924 0.0
H1037 H 0.62795 0.90877 0.10487 0.0
H1038 H 0.61586 0.9422 0.15341 0.0
H1039 H 0.64858 0.9147 0.12126 0.0
H1040 H 0.62363 0.88112 0.03118 0.0
H1041 H 0.60328 0.90207 0.94376 0.0
H1042 H 0.60567 0.90892 0.32114 0.0
H1043 H 0.63249 0.89422 0.23999 0.0
H1044 H 0.57446 0.94431 0.07537 0.0
H1045 H 0.57284 0.90811 0.03352 0.0
H1046 H 0.55584 0.94837 0.037 0.0
H1047 H 0.55415 0.91277 0.99638 0.0
H1048 H 0.56886 0.94044 0.20219 0.0
H1049 H 0.60646 0.93512 0.21434 0.0
H1050 H 0.57007 0.95634 0.25535 0.0
H1051 H 0.60703 0.95115 0.26709 0.0
H1052 H 0.54162 0.89437 0.14765 0.0
H1053 H 0.53865 0.93253 0.14205 0.0
H1054 H 0.60285 0.96192 0.01179 0.0
H1055 H 0.5926 0.97687 0.13068 0.0
Li1056 Li 0.83572 0.17555 0.12717 0.0
Li1057 Li 0.82089 0.15998 0.14018 0.0
Li1058 Li 0.84168 0.1583 0.16767 0.0
Li1059 Li 0.83793 0.15526 0.09312 0.0
C1060 C 0.82669 0.17974 0.20498 0.0
N1061 N 0.82144 0.19969 0.25137 0.0
C1062 C 0.81496 0.18355 0.20893 0.0
C1063 C 0.83573 0.18598 0.2251 0.0
C1064 C 0.81249 0.19368 0.23241 0.0
C1065 C 0.8329 0.19608 0.24826 0.0
C1066 C 0.81648 0.16836 0.05643 0.0
C1067 C 0.80476 0.15974 1.00136 0.0
N1068 N 0.79889 0.17018 0.99687 0.0
C1069 C 0.81044 0.17905 0.05092 0.0
C1070 C 0.81372 0.15866 0.03115 0.0
C1071 C 0.80153 0.17977 0.02079 0.0
C1072 C 0.84809 0.19701 0.10843 0.0
N1073 N 0.83749 0.19233 0.1201 0.0
C1074 C 0.82891 0.21167 0.12412 0.0
C1075 C 0.82794 0.19938 0.1273 0.0
C1076 C 0.83977 0.21678 0.11262 0.0
C1077 C 0.84942 0.20929 0.10429 0.0
H1078 H 0.85552 0.19122 0.10242 0.0
H1079 H 0.81954 0.19546 0.13558 0.0
C1080 C 0.80334 0.15103 0.19233 0.0
N1081 N 0.80474 0.15707 0.15596 0.0
C1082 C 0.79208 0.14953 0.2097 0.0
C1083 C 0.78382 0.16026 0.15138 0.0
C1084 C 0.79525 0.16158 0.1352 0.0
C1085 C 0.78212 0.15432 0.18948 0.0
H1086 H 0.81105 0.14763 0.20842 0.0
H1087 H 0.79653 0.16652 0.10679 0.0
C1088 C 0.86175 0.16545 0.13148 0.0
N1089 N 0.88512 0.16475 0.15699 0.0
C1090 C 0.86955 0.1572 0.11412 0.0
C1091 C 0.86588 0.17346 0.16135 0.0
C1092 C 0.88132 0.15695 0.12755 0.0
C1093 C 0.87771 0.17294 0.17397 0.0
C1094 C 0.82761 0.13493 0.13207 0.0
C1095 C 0.83349 0.12497 0.14763 0.0
C1096 C 0.81741 0.13348 0.10793 0.0
C1097 C 0.8292 0.11369 0.13799 0.0
C1098 C 0.81338 0.12205 0.09903 0.0
N1099 N 0.81932 0.11248 0.11406 0.0
C1100 C 0.8489 0.1556 0.25229 0.0
C1101 C 0.85885 0.1435 0.20312 0.0
C1102 C 0.85502 0.15021 0.28512 0.0
N1103 N 0.85089 0.15214 0.21231 0.0
C1104 C 0.86525 0.13798 0.23483 0.0
C1105 C 0.86326 0.14117 0.27664 0.0
H1106 H 0.84232 0.1623 0.25881 0.0
H1107 H 0.86003 0.14072 0.17114 0.0
C1108 C 0.84387 0.15115 0.00701 0.0
N1109 N 0.84384 0.14651 0.04617 0.0
C1110 C 0.84938 0.14507 0.9742 0.0
C1111 C 0.85458 0.12951 0.02254 0.0
C1112 C 0.84903 0.13589 0.0543 0.0
C1113 C 0.85499 0.13414 0.98186 0.0
H1114 H 0.8399 0.15973 1.00148 0.0
H1115 H 0.84925 0.13255 0.08584 0.0
O1116 O 0.82929 0.1699 0.18186 0.0
O1117 O 0.8253 0.16752 0.08556 0.0
O1118 O 0.85015 0.16571 0.11919 0.0
O1119 O 0.8317 0.14603 0.14129 0.0
H1120 H 0.80785 0.17883 0.19368 0.0
H1121 H 0.84482 0.18307 0.22289 0.0
H1122 H 0.80347 0.19678 0.23548 0.0
H1123 H 0.83981 0.20102 0.26381 0.0
H1124 H 0.80251 0.15229 0.98169 0.0
H1125 H 0.81254 0.18668 0.06985 0.0
H1126 H 0.8185 0.1504 0.03423 0.0
H1127 H 0.79672 0.18797 0.0164 0.0
H1128 H 0.8212 0.21712 0.13011 0.0
H1129 H 0.85795 0.21288 0.09539 0.0
H1130 H 0.7912 0.14476 0.23884 0.0
H1131 H 0.77644 0.16424 0.13496 0.0
H1132 H 0.86653 0.15099 0.09073 0.0
H1133 H 0.86 0.18001 0.17463 0.0
H1134 H 0.88743 0.15055 0.1146 0.0
H1135 H 0.881 0.17904 0.19723 0.0
H1136 H 0.84134 0.12594 0.16671 0.0
H1137 H 0.81259 0.14107 0.09653 0.0
H1138 H 0.83371 0.1059 0.14956 0.0
H1139 H 0.80551 0.1208 0.0803 0.0
H1140 H 0.853 0.15282 0.31682 0.0
H1141 H 0.8716 0.13119 0.22659 0.0
H1142 H 0.8496 0.14909 0.94354 0.0
H1143 H 0.85864 0.12108 0.03001 0.0
Li1144 Li 0.59522 0.0707 0.88986 0.0
Li1145 Li 0.57891 0.08531 0.87717 0.0
Li1146 Li 0.59917 0.08702 0.84181 0.0
Li1147 Li 0.59698 0.09117 0.91545 0.0
C1148 C 0.5845 0.06346 0.8202 0.0
N1149 N 0.57987 0.04104 0.78981 0.0
C1150 C 0.57332 0.05839 0.8257 0.0
C1151 C 0.59329 0.0572 0.79891 0.0
C1152 C 0.57116 0.04703 0.81019 0.0
C1153 C 0.59079 0.04585 0.78388 0.0
C1154 C 0.58441 0.07978 0.97282 0.0
C1155 C 0.57881 0.09041 0.03505 0.0
N1156 N 0.58434 0.08207 0.05865 0.0
C1157 C 0.59001 0.07129 0.99771 0.0
C1158 C 0.57872 0.0894 0.99163 0.0
C1159 C 0.58988 0.07261 0.04104 0.0
C1160 C 0.60873 0.0502 0.9122 0.0
N1161 N 0.59767 0.0545 0.905 0.0
C1162 C 0.58897 0.0365 0.92971 0.0
C1163 C 0.58788 0.04791 0.91328 0.0
C1164 C 0.60026 0.03188 0.93848 0.0
C1165 C 0.61024 0.03884 0.92888 0.0
H1166 H 0.61637 0.05575 0.90656 0.0
H1167 H 0.57918 0.05167 0.90849 0.0
C1168 C 0.55643 0.08887 0.83634 0.0
N1169 N 0.56203 0.08642 0.87291 0.0
C1170 C 0.54402 0.08854 0.8341 0.0
C1171 C 0.54347 0.08348 0.90728 0.0
C1172 C 0.55581 0.08381 0.908 0.0
C1173 C 0.53737 0.08565 0.86984 0.0
H1174 H 0.56159 0.09077 0.80872 0.0
H1175 H 0.56044 0.08174 0.93653 0.0
C1176 C 0.62049 0.08171 0.87493 0.0
N1177 N 0.64344 0.08306 0.84549 0.0
C1178 C 0.62807 0.09062 0.88923 0.0
C1179 C 0.6246 0.07343 0.84599 0.0
C1180 C 0.63964 0.09117 0.87388 0.0
C1181 C 0.63623 0.07428 0.83138 0.0
C1182 C 0.58619 0.11103 0.876 0.0
C1183 C 0.59351 0.12019 0.86201 0.0
C1184 C 0.57576 0.11373 0.89749 0.0
C1185 C 0.59035 0.13192 0.87025 0.0
C1186 C 0.5729 0.12558 0.90509 0.0
N1187 N 0.5802 0.13435 0.89146 0.0
C1188 C 0.60458 0.08788 0.75412 0.0
C1189 C 0.61566 0.10088 0.79691 0.0
C1190 C 0.61033 0.09218 0.71843 0.0
N1191 N 0.60731 0.09229 0.7924 0.0
C1192 C 0.62173 0.1053 0.76228 0.0
C1193 C 0.61904 0.10106 0.72212 0.0
H1194 H 0.5978 0.08116 0.75121 0.0
H1195 H 0.61757 0.10438 0.82753 0.0
C1196 C 0.61016 0.0932 0.98794 0.0
N1197 N 0.60326 0.09985 0.9622 0.0
C1198 C 0.61471 0.098 0.02469 0.0
C1199 C 0.60557 0.11668 0.00688 0.0
C1200 C 0.60096 0.11143 0.97089 0.0
C1201 C 0.6124 0.10988 0.03447 0.0
H1202 H 0.61196 0.08405 0.98017 0.0
H1203 H 0.59546 0.11662 0.95049 0.0
O1204 O 0.58682 0.07451 0.83556 0.0
O1205 O 0.58472 0.07883 0.93027 0.0
O1206 O 0.6091 0.0811 0.88931 0.0
O1207 O 0.58909 0.0995 0.86791 0.0
H1208 H 0.56641 0.06313 0.84212 0.0
H1209 H 0.60195 0.06105 0.79405 0.0
H1210 H 0.56257 0.04296 0.81443 0.0
H1211 H 0.59752 0.04088 0.76746 0.0
H1212 H 0.57452 0.09785 0.04998 0.0
H1213 H 0.59454 0.06384 0.98379 0.0
H1214 H 0.57443 0.0961 0.97288 0.0
H1215 H 0.59423 0.06614 0.06066 0.0
H1216 H 0.58102 0.03144 0.93608 0.0
H1217 H 0.61911 0.03575 0.9357 0.0
H1218 H 0.53973 0.09016 0.80445 0.0
H1219 H 0.53877 0.08144 0.93584 0.0
H1220 H 0.62501 0.09711 0.91159 0.0
H1221 H 0.61887 0.06644 0.83484 0.0
H1222 H 0.64558 0.09805 0.88447 0.0
H1223 H 0.63952 0.06796 0.80882 0.0
H1224 H 0.60157 0.11826 0.8451 0.0
H1225 H 0.56995 0.10678 0.90835 0.0
H1226 H 0.59597 0.1391 0.85977 0.0
H1227 H 0.56489 0.1278 0.92184 0.0
H1228 H 0.60778 0.08873 0.68823 0.0
H1229 H 0.62848 0.11196 0.76713 0.0
H1230 H 0.62003 0.09252 0.04514 0.0
H1231 H 0.6036 0.12587 0.01362 0.0
Li1232 Li 0.66897 0.82771 0.62825 0.0
Li1233 Li 0.68285 0.84477 0.64204 0.0
Li1234 Li 0.66223 0.84569 0.66259 0.0
Li1235 Li 0.66688 0.84709 0.59002 0.0
C1236 C 0.67231 0.83443 0.72398 0.0
N1237 N 0.66718 0.83552 0.80821 0.0
C1238 C 0.67941 0.84114 0.75071 0.0
C1239 C 0.66264 0.82819 0.74019 0.0
C1240 C 0.67667 0.8416 0.79317 0.0
C1241 C 0.66018 0.82887 0.78282 0.0
C1242 C 0.68815 0.83886 0.55803 0.0
C1243 C 0.70013 0.85366 0.52398 0.0
N1244 N 0.70362 0.84545 0.49547 0.0
C1245 C 0.69184 0.83057 0.52841 0.0
C1246 C 0.69231 0.8505 0.55585 0.0
C1247 C 0.69968 0.83407 0.49702 0.0
C1248 C 0.66706 0.80515 0.58791 0.0
N1249 N 0.66853 0.81084 0.62493 0.0
C1250 C 0.67057 0.79239 0.66069 0.0
C1251 C 0.67028 0.80473 0.66089 0.0
C1252 C 0.66932 0.78618 0.62292 0.0
C1253 C 0.66744 0.79276 0.58616 0.0
H1254 H 0.66581 0.81025 0.55967 0.0
H1255 H 0.67159 0.80944 0.68981 0.0
C1256 C 0.70157 0.85756 0.68125 0.0
N1257 N 0.69885 0.84799 0.65733 0.0
C1258 C 0.71308 0.85902 0.6967 0.0
C1259 C 0.71883 0.84107 0.66099 0.0
C1260 C 0.70721 0.83986 0.64676 0.0
C1261 C 0.72185 0.85064 0.6869 0.0
H1262 H 0.69471 0.86382 0.68951 0.0
H1263 H 0.70475 0.83225 0.62819 0.0
C1264 C 0.6431 0.83354 0.62009 0.0
N1265 N 0.61978 0.82642 0.62788 0.0
C1266 C 0.63403 0.84029 0.60232 0.0
C1267 C 0.64033 0.82305 0.64118 0.0
C1268 C 0.62229 0.83657 0.6068 0.0
C1269 C 0.62848 0.81964 0.64495 0.0
C1270 C 0.66615 0.86883 0.63155 0.0
C1271 C 0.65393 0.86914 0.62473 0.0
C1272 C 0.67249 0.87942 0.63467 0.0
C1273 C 0.64824 0.88008 0.62097 0.0
C1274 C 0.66648 0.89018 0.63072 0.0
N1275 N 0.65458 0.89029 0.624 0.0
C1276 C 0.6573 0.86099 0.72891 0.0
C1277 C 0.64138 0.84786 0.71572 0.0
C1278 C 0.65119 0.86604 0.76231 0.0
N1279 N 0.65236 0.85207 0.70633 0.0
C1280 C 0.63495 0.85265 0.74891 0.0
C1281 C 0.63986 0.86185 0.77281 0.0
H1282 H 0.66609 0.86411 0.7212 0.0
H1283 H 0.63765 0.84064 0.69824 0.0
C1284 C 0.65435 0.84755 0.5143 0.0
N1285 N 0.66205 0.85393 0.5379 0.0
C1286 C 0.6496 0.85236 0.47777 0.0
C1287 C 0.66092 0.87018 0.49005 0.0
C1288 C 0.66554 0.86498 0.52619 0.0
C1289 C 0.65275 0.86389 0.46546 0.0
H1290 H 0.65169 0.8388 0.52439 0.0
H1291 H 0.67175 0.86986 0.54523 0.0
O1292 O 0.67465 0.83417 0.68208 0.0
O1293 O 0.68043 0.83557 0.58876 0.0
O1294 O 0.65466 0.83695 0.61555 0.0
O1295 O 0.67194 0.85824 0.63513 0.0
H1296 H 0.68691 0.84602 0.7388 0.0
H1297 H 0.65696 0.82304 0.71996 0.0
H1298 H 0.68206 0.84681 0.81416 0.0
H1299 H 0.65267 0.82418 0.79568 0.0
H1300 H 0.70342 0.86265 0.52189 0.0
H1301 H 0.68867 0.82152 0.52968 0.0
H1302 H 0.68953 0.85704 0.57848 0.0
H1303 H 0.70262 0.82775 0.47386 0.0
H1304 H 0.6718 0.78777 0.68998 0.0
H1305 H 0.66657 0.78841 0.55622 0.0
H1306 H 0.71506 0.86656 0.71639 0.0
H1307 H 0.72529 0.83433 0.65309 0.0
H1308 H 0.63601 0.84829 0.58509 0.0
H1309 H 0.64721 0.81766 0.6548 0.0
H1310 H 0.61518 0.84174 0.59338 0.0
H1311 H 0.6262 0.81159 0.66146 0.0
H1312 H 0.64891 0.86103 0.62248 0.0
H1313 H 0.68196 0.87931 0.63994 0.0
H1314 H 0.63879 0.88044 0.61566 0.0
H1315 H 0.67128 0.89846 0.63298 0.0
H1316 H 0.65529 0.8732 0.77955 0.0
H1317 H 0.62633 0.849 0.75629 0.0
H1318 H 0.64326 0.84723 0.46 0.0
H1319 H 0.66371 0.87903 0.48143 0.0
Li1320 Li 0.90922 0.93252 0.38555 0.0
Li1321 Li 0.92496 0.91792 0.37113 0.0
Li1322 Li 0.90563 0.91652 0.33514 0.0
Li1323 Li 0.90703 0.91157 0.40865 0.0
C1324 C 0.91415 0.93752 0.30189 0.0
N1325 N 0.907 0.95346 0.24155 0.0
C1326 C 0.92195 0.94089 0.27019 0.0
C1327 C 0.90272 0.94227 0.30297 0.0
C1328 C 0.91817 0.94896 0.23995 0.0
C1329 C 0.89927 0.95031 0.27216 0.0
C1330 C 0.92593 0.92416 0.45965 0.0
C1331 C 0.93539 0.9151 0.5191 0.0
N1332 N 0.94025 0.92573 0.52934 0.0
C1333 C 0.93088 0.93503 0.47112 0.0
C1334 C 0.92808 0.91413 0.48411 0.0
C1335 C 0.93815 0.93563 0.50629 0.0
C1336 C 0.89725 0.95186 0.42428 0.0
N1337 N 0.90697 0.9486 0.40206 0.0
C1338 C 0.91518 0.96803 0.4086 0.0
C1339 C 0.9158 0.95643 0.39368 0.0
C1340 C 0.90533 0.97169 0.43227 0.0
C1341 C 0.89622 0.96343 0.43961 0.0
H1342 H 0.8904 0.94541 0.43075 0.0
H1343 H 0.92351 0.95353 0.37644 0.0
C1344 C 0.94675 0.90747 0.34378 0.0
N1345 N 0.94183 0.91648 0.36601 0.0
C1346 C 0.95907 0.90644 0.34064 0.0
C1347 C 0.96103 0.92419 0.38211 0.0
C1348 C 0.9487 0.92488 0.38439 0.0
C1349 C 0.9664 0.91483 0.36024 0.0
H1350 H 0.94111 0.90105 0.32856 0.0
H1351 H 0.94459 0.9322 0.40049 0.0
C1352 C 0.88435 0.9163 0.37934 0.0
N1353 N 0.86282 0.90471 0.37558 0.0
C1354 C 0.88391 0.90421 0.37 0.0
C1355 C 0.87385 0.9225 0.38675 0.0
C1356 C 0.87294 0.89851 0.36825 0.0
C1357 C 0.86305 0.91648 0.38471 0.0
C1358 C 0.91916 0.8925 0.36933 0.0
C1359 C 0.91428 0.8827 0.3489 0.0
C1360 C 0.92814 0.89082 0.39872 0.0
C1361 C 0.91844 0.87137 0.35844 0.0
C1362 C 0.93207 0.87934 0.40736 0.0
N1363 N 0.92717 0.86994 0.38723 0.0
C1364 C 0.90287 0.90292 0.26204 0.0
C1365 C 0.8874 0.91677 0.27276 0.0
C1366 C 0.89703 0.89825 0.2273 0.0
N1367 N 0.89792 0.91189 0.28433 0.0
C1368 C 0.8813 0.91243 0.23797 0.0
C1369 C 0.88602 0.90292 0.21508 0.0
H1370 H 0.91126 0.89924 0.27178 0.0
H1371 H 0.88358 0.92383 0.29114 0.0
C1372 C 0.89621 0.90854 0.48612 0.0
N1373 N 0.90057 0.90231 0.45326 0.0
C1374 C 0.89088 0.90268 0.51961 0.0
C1375 C 0.89475 0.88406 0.4851 0.0
C1376 C 0.89986 0.8903 0.45209 0.0
C1377 C 0.89009 0.89024 0.51946 0.0
H1378 H 0.89674 0.91811 0.48598 0.0
H1379 H 0.90309 0.88548 0.42548 0.0
O1380 O 0.91775 0.9296 0.33158 0.0
O1381 O 0.91867 0.92345 0.42555 0.0
O1382 O 0.89497 0.92211 0.38109 0.0
O1383 O 0.91509 0.90364 0.36053 0.0
H1384 H 0.93083 0.93728 0.26897 0.0
H1385 H 0.89656 0.93979 0.32726 0.0
H1386 H 0.92411 0.95164 0.21521 0.0
H1387 H 0.89045 0.95404 0.27258 0.0
H1388 H 0.93716 0.9074 0.53822 0.0
H1389 H 0.9292 0.94291 0.45287 0.0
H1390 H 0.92408 0.90571 0.4765 0.0
H1391 H 0.94212 0.94397 0.51531 0.0
H1392 H 0.92253 0.97396 0.4027 0.0
H1393 H 0.88839 0.96584 0.45716 0.0
H1394 H 0.9628 0.89907 0.32349 0.0
H1395 H 0.9663 0.93103 0.3968 0.0
H1396 H 0.89194 0.89928 0.36401 0.0
H1397 H 0.87405 0.93187 0.39393 0.0
H1398 H 0.87247 0.88917 0.36104 0.0
H1399 H 0.85484 0.92116 0.39035 0.0
H1400 H 0.90725 0.88383 0.3263 0.0
H1401 H 0.93211 0.89829 0.41441 0.0
H1402 H 0.91471 0.8637 0.34303 0.0
H1403 H 0.93902 0.87792 0.43001 0.0
H1404 H 0.90108 0.89103 0.21021 0.0
H1405 H 0.8728 0.91625 0.22987 0.0
H1406 H 0.88722 0.90787 0.54489 0.0
H1407 H 0.8945 0.87449 0.48364 0.0
Li1408 Li 0.68243 0.6586 0.63364 0.0
Li1409 Li 0.66241 0.65739 0.66347 0.0
Li1410 Li 0.66553 0.6542 0.58828 0.0
Li1411 Li 0.66744 0.67411 0.61733 0.0
C1412 C 0.6774 0.63477 0.62048 0.0
N1413 N 0.68886 0.61509 0.58901 0.0
C1414 C 0.67546 0.62363 0.63818 0.0
C1415 C 0.68517 0.63591 0.58675 0.0
C1416 C 0.68134 0.61378 0.62184 0.0
C1417 C 0.69088 0.62585 0.57129 0.0
C1418 C 0.67602 0.67563 0.70776 0.0
C1419 C 0.6709 0.69144 0.75503 0.0
N1420 N 0.67941 0.68762 0.78192 0.0
C1421 C 0.68479 0.67194 0.73565 0.0
C1422 C 0.66909 0.68552 0.71731 0.0
C1423 C 0.68633 0.67809 0.77307 0.0
C1424 C 0.70638 0.66529 0.63843 0.0
N1425 N 0.69866 0.6565 0.6484 0.0
C1426 C 0.7136 0.64649 0.68794 0.0
C1427 C 0.70204 0.64716 0.67245 0.0
C1428 C 0.72175 0.65557 0.67895 0.0
C1429 C 0.71801 0.665 0.65337 0.0
H1430 H 0.70337 0.67274 0.62003 0.0
H1431 H 0.69565 0.64042 0.68073 0.0
C1432 C 0.64221 0.64895 0.70661 0.0
N1433 N 0.65368 0.65239 0.71121 0.0
C1434 C 0.63571 0.64503 0.74104 0.0
C1435 C 0.65303 0.64799 0.78408 0.0
C1436 C 0.65918 0.65188 0.74887 0.0
C1437 C 0.64114 0.64448 0.78042 0.0
H1438 H 0.63814 0.64913 0.6761 0.0
H1439 H 0.66838 0.65433 0.75153 0.0
C1440 C 0.67753 0.67082 0.53928 0.0
N1441 N 0.6753 0.68081 0.46101 0.0
C1442 C 0.66638 0.67419 0.52443 0.0
C1443 C 0.68754 0.67256 0.51439 0.0
C1444 C 0.66544 0.67922 0.48477 0.0
C1445 C 0.68623 0.67761 0.47488 0.0
C1446 C 0.64255 0.66926 0.62205 0.0
C1447 C 0.63395 0.66898 0.59073 0.0
C1448 C 0.6402 0.67514 0.65949 0.0
C1449 C 0.62314 0.67469 0.59731 0.0
C1450 C 0.62928 0.68073 0.66489 0.0
N1451 N 0.62104 0.6804 0.63394 0.0
C1452 C 0.64881 0.63979 0.55051 0.0
C1453 C 0.66442 0.6446 0.50418 0.0
C1454 C 0.64285 0.63368 0.51903 0.0
N1455 N 0.6593 0.64523 0.54252 0.0
C1456 C 0.65869 0.63867 0.47153 0.0
C1457 C 0.64764 0.63323 0.47854 0.0
H1458 H 0.64498 0.64037 0.58139 0.0
H1459 H 0.67283 0.64891 0.4986 0.0
C1460 C 0.6761 0.69715 0.6141 0.0
N1461 N 0.66597 0.69084 0.60869 0.0
C1462 C 0.67605 0.70947 0.6101 0.0
C1463 C 0.65513 0.70861 0.59473 0.0
C1464 C 0.65563 0.69628 0.59844 0.0
C1465 C 0.66542 0.71543 0.60087 0.0
H1466 H 0.68424 0.69258 0.6218 0.0
H1467 H 0.64772 0.69114 0.59341 0.0
O1468 O 0.67167 0.64447 0.6362 0.0
O1469 O 0.67452 0.66982 0.6707 0.0
O1470 O 0.67872 0.66589 0.57801 0.0
O1471 O 0.65317 0.66371 0.61596 0.0
H1472 H 0.66946 0.62261 0.6643 0.0
H1473 H 0.68681 0.64445 0.57262 0.0
H1474 H 0.67993 0.6051 0.63524 0.0
H1475 H 0.69691 0.6266 0.54521 0.0
H1476 H 0.66559 0.6991 0.76285 0.0
H1477 H 0.69029 0.66436 0.72863 0.0
H1478 H 0.66244 0.68868 0.69573 0.0
H1479 H 0.69303 0.67528 0.79506 0.0
H1480 H 0.71608 0.639 0.70712 0.0
H1481 H 0.72387 0.67231 0.64615 0.0
H1482 H 0.62663 0.6422 0.73667 0.0
H1483 H 0.65755 0.64773 0.81386 0.0
H1484 H 0.65853 0.6729 0.54317 0.0
H1485 H 0.69623 0.67 0.52551 0.0
H1486 H 0.65687 0.68185 0.47286 0.0
H1487 H 0.6939 0.679 0.45525 0.0
H1488 H 0.63565 0.66444 0.56159 0.0
H1489 H 0.6467 0.67531 0.6842 0.0
H1490 H 0.6164 0.67459 0.57331 0.0
H1491 H 0.62733 0.68532 0.69371 0.0
H1492 H 0.63452 0.62941 0.52638 0.0
H1493 H 0.66273 0.63865 0.4409 0.0
H1494 H 0.68428 0.71425 0.61416 0.0
H1495 H 0.64669 0.71273 0.58797 0.0
Li1496 Li 0.59419 0.43209 0.88659 0.0
Li1497 Li 0.59486 0.41219 0.91206 0.0
Li1498 Li 0.59724 0.41551 0.83754 0.0
Li1499 Li 0.57712 0.41779 0.87339 0.0
C1500 C 0.61779 0.42725 0.88925 0.0
N1501 N 0.63812 0.44042 0.90166 0.0
C1502 C 0.62085 0.43105 0.92932 0.0
C1503 C 0.62512 0.43008 0.85554 0.0
C1504 C 0.63115 0.43773 0.93493 0.0
C1505 C 0.63535 0.43676 0.86244 0.0
C1506 C 0.58073 0.42364 0.96743 0.0
C1507 C 0.56808 0.41745 0.02398 0.0
N1508 N 0.57601 0.42193 0.05174 0.0
C1509 C 0.58869 0.42831 0.99647 0.0
C1510 C 0.57028 0.41827 0.98118 0.0
C1511 C 0.58617 0.4273 0.03898 0.0
C1512 C 0.58784 0.45287 0.9264 0.0
N1513 N 0.59663 0.44842 0.90201 0.0
C1514 C 0.60772 0.4664 0.90957 0.0
C1515 C 0.60633 0.45506 0.89249 0.0
C1516 C 0.59896 0.47101 0.93623 0.0
C1517 C 0.58883 0.46412 0.944 0.0
H1518 H 0.58011 0.44756 0.93309 0.0
H1519 H 0.61312 0.45153 0.87233 0.0
C1520 C 0.61202 0.40215 0.96537 0.0
N1521 N 0.60018 0.40275 0.95824 0.0
C1522 C 0.61638 0.39619 1.00025 0.0
C1523 C 0.59631 0.39097 0.01876 0.0
C1524 C 0.59234 0.39713 0.98368 0.0
C1525 C 0.60848 0.39059 0.02785 0.0
H1526 H 0.61811 0.40645 0.94426 0.0
H1527 H 0.58298 0.39749 0.97699 0.0
C1528 C 0.58693 0.43558 0.79878 0.0
N1529 N 0.59008 0.44888 0.72736 0.0
C1530 C 0.57764 0.43688 0.77034 0.0
C1531 C 0.5978 0.44104 0.79099 0.0
C1532 C 0.57942 0.44364 0.73437 0.0
C1533 C 0.59923 0.44774 0.75469 0.0
C1534 C 0.58819 0.39202 0.87895 0.0
C1535 C 0.59904 0.38624 0.87394 0.0
C1536 C 0.57886 0.38624 0.89911 0.0
C1537 C 0.60039 0.37475 0.88942 0.0
C1538 C 0.58056 0.37475 0.9141 0.0
N1539 N 0.5912 0.36929 0.90901 0.0
C1540 C 0.61558 0.40498 0.78989 0.0
C1541 C 0.59844 0.4099 0.75098 0.0
C1542 C 0.62076 0.39972 0.75484 0.0
N1543 N 0.6046 0.40988 0.78743 0.0
C1544 C 0.60329 0.40476 0.71514 0.0
C1545 C 0.61455 0.39942 0.71684 0.0
H1546 H 0.6202 0.40485 0.81945 0.0
H1547 H 0.58964 0.41367 0.74995 0.0
C1548 C 0.55463 0.42721 0.88107 0.0
N1549 N 0.56037 0.4172 0.86918 0.0
C1550 C 0.54228 0.42754 0.88207 0.0
C1551 C 0.54193 0.40727 0.85785 0.0
C1552 C 0.55433 0.40736 0.85704 0.0
C1553 C 0.53573 0.41742 0.87103 0.0
H1554 H 0.55969 0.43491 0.89042 0.0
H1555 H 0.55913 0.39954 0.84744 0.0
O1556 O 0.60778 0.42063 0.88317 0.0
O1557 O 0.58305 0.42449 0.92568 0.0
O1558 O 0.58539 0.42885 0.83378 0.0
O1559 O 0.58679 0.40336 0.86477 0.0
H1560 H 0.61535 0.42887 0.95581 0.0
H1561 H 0.6229 0.42725 0.82429 0.0
H1562 H 0.63361 0.44076 0.96575 0.0
H1563 H 0.64107 0.43906 0.8366 0.0
H1564 H 0.56008 0.41324 0.03511 0.0
H1565 H 0.59671 0.43266 0.98628 0.0
H1566 H 0.56401 0.41465 0.95908 0.0
H1567 H 0.59229 0.43081 0.06182 0.0
H1568 H 0.61558 0.47147 0.90212 0.0
H1569 H 0.58189 0.46722 0.96458 0.0
H1570 H 0.62583 0.39625 0.00602 0.0
H1571 H 0.5899 0.38657 0.03854 0.0
H1572 H 0.56918 0.43265 0.77595 0.0
H1573 H 0.60506 0.44008 0.81263 0.0
H1574 H 0.57232 0.4447 0.71201 0.0
H1575 H 0.60761 0.45201 0.74823 0.0
H1576 H 0.60637 0.39063 0.85872 0.0
H1577 H 0.57046 0.39066 0.90384 0.0
H1578 H 0.60876 0.37019 0.88596 0.0
H1579 H 0.57344 0.37019 0.93001 0.0
H1580 H 0.62936 0.39557 0.75792 0.0
H1581 H 0.59821 0.40486 0.6865 0.0
H1582 H 0.53793 0.43565 0.89155 0.0
H1583 H 0.53728 0.39923 0.84933 0.0
Li1584 Li 0.82114 0.34465 0.13548 0.0
Li1585 Li 0.84129 0.34704 0.16307 0.0
Li1586 Li 0.8379 0.3483 0.08733 0.0
Li1587 Li 0.83653 0.32929 0.12228 0.0
C1588 C 0.82577 0.36824 0.11423 0.0
N1589 N 0.81437 0.38711 0.07685 0.0
C1590 C 0.82872 0.37985 0.12526 0.0
C1591 C 0.81702 0.36623 0.08418 0.0
C1592 C 0.82285 0.38927 0.10602 0.0
C1593 C 0.81136 0.37589 0.06565 0.0
C1594 C 0.82927 0.33148 0.21614 0.0
C1595 C 0.83595 0.31934 0.27341 0.0
N1596 N 0.82843 0.32519 0.29939 0.0
C1597 C 0.82149 0.33726 0.24328 0.0
C1598 C 0.83646 0.32235 0.23118 0.0
C1599 C 0.82125 0.334 0.2853 0.0
C1600 C 0.79891 0.33577 0.15464 0.0
N1601 N 0.80499 0.34614 0.15234 0.0
C1602 C 0.78936 0.35633 0.18787 0.0
C1603 C 0.80042 0.35636 0.16807 0.0
C1604 C 0.78313 0.34562 0.1923 0.0
C1605 C 0.78792 0.3353 0.17462 0.0
H1606 H 0.80289 0.32773 0.14276 0.0
H1607 H 0.80559 0.36442 0.16725 0.0
C1608 C 0.86132 0.35411 0.21279 0.0
N1609 N 0.84931 0.35384 0.20949 0.0
C1610 C 0.86669 0.35971 0.24678 0.0
C1611 C 0.84726 0.3648 0.27281 0.0
C1612 C 0.84229 0.35916 0.23833 0.0
C1613 C 0.85963 0.3652 0.27734 0.0
H1614 H 0.86675 0.35022 0.18867 0.0
H1615 H 0.83279 0.35917 0.23417 0.0
C1616 C 0.82553 0.33075 0.04396 0.0
N1617 N 0.82686 0.31964 0.96738 0.0
C1618 C 0.8365 0.32727 0.02798 0.0
C1619 C 0.81523 0.32861 0.02102 0.0
C1620 C 0.83699 0.32165 0.98922 0.0
C1621 C 0.81609 0.32297 0.98234 0.0
C1622 C 0.86077 0.33314 0.11959 0.0
C1623 C 0.86798 0.33185 0.08442 0.0
C1624 C 0.86387 0.32748 0.15677 0.0
C1625 C 0.87815 0.32483 0.08701 0.0
C1626 C 0.8741 0.32053 0.1581 0.0
N1627 N 0.88096 0.31936 0.12347 0.0
C1628 C 0.85486 0.36019 0.0397 0.0
C1629 C 0.83639 0.35876 0.00501 0.0
C1630 C 0.85974 0.36638 0.0061 0.0
N1631 N 0.8434 0.35649 0.03857 0.0
C1632 C 0.84087 0.36508 0.97084 0.0
C1633 C 0.85272 0.36895 0.97108 0.0
H1634 H 0.8602 0.3584 0.06697 0.0
H1635 H 0.8273 0.35574 0.00483 0.0
C1636 C 0.82843 0.3067 0.1372 0.0
N1637 N 0.83786 0.31236 0.11999 0.0
C1638 C 0.82819 0.29437 0.13981 0.0
C1639 C 0.8473 0.29377 0.1061 0.0
C1640 C 0.84713 0.30616 0.10379 0.0
C1641 C 0.83779 0.28769 0.12477 0.0
H1642 H 0.8211 0.31183 0.14929 0.0
H1643 H 0.85443 0.31077 0.08938 0.0
O1644 O 0.83153 0.35895 0.13256 0.0
O1645 O 0.8296 0.33452 0.17485 0.0
O1646 O 0.82481 0.33634 0.0817 0.0
O1647 O 0.85072 0.33988 0.11747 0.0
H1648 H 0.83548 0.38154 0.14843 0.0
H1649 H 0.81461 0.35731 0.07525 0.0
H1650 H 0.82504 0.3983 0.11424 0.0
H1651 H 0.80458 0.37446 0.04233 0.0
H1652 H 0.8415 0.31232 0.2855 0.0
H1653 H 0.81577 0.34425 0.23209 0.0
H1654 H 0.84231 0.31757 0.21045 0.0
H1655 H 0.81534 0.33847 0.30671 0.0
H1656 H 0.78604 0.36444 0.20156 0.0
H1657 H 0.78337 0.32689 0.17719 0.0
H1658 H 0.87627 0.36002 0.24849 0.0
H1659 H 0.84144 0.36882 0.29564 0.0
H1660 H 0.84455 0.32891 0.04525 0.0
H1661 H 0.80667 0.33129 0.03298 0.0
H1662 H 0.84543 0.3189 0.97648 0.0
H1663 H 0.80819 0.32125 0.96421 0.0
H1664 H 0.86571 0.33616 0.05534 0.0
H1665 H 0.85846 0.32849 0.18434 0.0
H1666 H 0.88378 0.32372 0.06 0.0
H1667 H 0.87659 0.31608 0.18667 0.0
H1668 H 0.86886 0.36933 0.00787 0.0
H1669 H 0.83518 0.36682 0.94435 0.0
H1670 H 0.8205 0.29014 0.15345 0.0
H1671 H 0.85493 0.28904 0.09415 0.0
Li1672 Li 0.90654 0.59102 0.41597 0.0
Li1673 Li 0.90771 0.57089 0.38712 0.0
Li1674 Li 0.92338 0.58572 0.37099 0.0
Li1675 Li 0.90365 0.58777 0.34068 0.0
C1676 C 0.92429 0.57806 0.46262 0.0
N1677 N 0.93548 0.57628 0.53899 0.0
C1678 C 0.92061 0.56956 0.49157 0.0
C1679 C 0.9338 0.58551 0.47222 0.0
C1680 C 0.92634 0.56884 0.5301 0.0
C1681 C 0.93931 0.58451 0.51107 0.0
C1682 C 0.88397 0.57617 0.37212 0.0
C1683 C 0.87512 0.56225 0.32432 0.0
N1684 N 0.86424 0.565 0.33972 0.0
C1685 C 0.8727 0.57886 0.38746 0.0
C1686 C 0.88521 0.5678 0.3403 0.0
C1687 C 0.86283 0.57312 0.37068 0.0
C1688 C 0.8972 0.61123 0.45528 0.0
N1689 N 0.90105 0.6 0.46239 0.0
C1690 C 0.89537 0.60131 0.53407 0.0
C1691 C 0.90018 0.59495 0.50077 0.0
C1692 C 0.89125 0.61292 0.52762 0.0
C1693 C 0.89231 0.6179 0.48763 0.0
H1694 H 0.89775 0.61494 0.42423 0.0
H1695 H 0.9029 0.58588 0.50534 0.0
C1696 C 0.91368 0.54666 0.39096 0.0
N1697 N 0.90533 0.5547 0.40229 0.0
C1698 C 0.91312 0.53503 0.40586 0.0
C1699 C 0.89525 0.54012 0.44329 0.0
C1700 C 0.89618 0.55167 0.42773 0.0
C1701 C 0.90388 0.53163 0.43285 0.0
H1702 H 0.921 0.54939 0.37139 0.0
H1703 H 0.88978 0.5583 0.43692 0.0
C1704 C 0.91908 0.61058 0.37322 0.0
N1705 N 0.93106 0.63178 0.38201 0.0
C1706 C 0.91979 0.6185 0.33975 0.0
C1707 C 0.92438 0.61349 0.41123 0.0
C1708 C 0.92591 0.62915 0.34479 0.0
C1709 C 0.93042 0.62424 0.41504 0.0
C1710 C 0.92016 0.57534 0.29287 0.0
C1711 C 0.92337 0.58641 0.27691 0.0
C1712 C 0.92203 0.56517 0.269 0.0
C1713 C 0.92842 0.58711 0.23721 0.0
C1714 C 0.9271 0.56623 0.22942 0.0
N1715 N 0.93017 0.57708 0.21448 0.0
C1716 C 0.94669 0.57746 0.37428 0.0
C1717 C 0.94545 0.597 0.34789 0.0
C1718 C 0.95903 0.57763 0.37077 0.0
N1719 N 0.94017 0.58708 0.36321 0.0
C1720 C 0.95777 0.59762 0.34433 0.0
C1721 C 0.96478 0.58786 0.35596 0.0
H1722 H 0.94226 0.56963 0.38598 0.0
H1723 H 0.94016 0.60448 0.33844 0.0
C1724 C 0.89187 0.60555 0.29779 0.0
N1725 N 0.89507 0.594 0.29395 0.0
C1726 C 0.8864 0.61146 0.26478 0.0
C1727 C 0.88701 0.59332 0.22485 0.0
C1728 C 0.89265 0.58777 0.2586 0.0
C1729 C 0.88401 0.60539 0.22751 0.0
H1730 H 0.89378 0.61026 0.32639 0.0
H1731 H 0.89528 0.57859 0.25628 0.0
O1732 O 0.91885 0.5788 0.42459 0.0
O1733 O 0.89368 0.58177 0.38824 0.0
O1734 O 0.91315 0.6001 0.36866 0.0
O1735 O 0.91516 0.57441 0.33157 0.0
H1736 H 0.91335 0.56365 0.48447 0.0
H1737 H 0.93698 0.59192 0.44982 0.0
H1738 H 0.92353 0.56237 0.55293 0.0
H1739 H 0.94665 0.59024 0.51896 0.0
H1740 H 0.87595 0.55576 0.29969 0.0
H1741 H 0.87161 0.58533 0.41209 0.0
H1742 H 0.89385 0.56558 0.32802 0.0
H1743 H 0.85406 0.57511 0.38226 0.0
H1744 H 0.8945 0.59704 0.56417 0.0
H1745 H 0.88929 0.62683 0.48132 0.0
H1746 H 0.92009 0.52889 0.39745 0.0
H1747 H 0.88791 0.53791 0.46359 0.0
H1748 H 0.91575 0.61638 0.31006 0.0
H1749 H 0.92376 0.60758 0.43762 0.0
H1750 H 0.92658 0.63533 0.3191 0.0
H1751 H 0.93456 0.62661 0.44429 0.0
H1752 H 0.92196 0.59438 0.29485 0.0
H1753 H 0.91957 0.55654 0.28094 0.0
H1754 H 0.93095 0.59561 0.22447 0.0
H1755 H 0.9286 0.55842 0.21057 0.0
H1756 H 0.96397 0.56978 0.37929 0.0
H1757 H 0.96174 0.60575 0.33315 0.0
H1758 H 0.88409 0.62072 0.26833 0.0
H1759 H 0.88536 0.58835 0.19656 0.0
Li1760 Li 0.66511 0.34783 0.41338 0.0
Li1761 Li 0.6674 0.32913 0.37745 0.0
Li1762 Li 0.68223 0.34508 0.36422 0.0
Li1763 Li 0.662 0.34625 0.33706 0.0
C1764 C 0.67979 0.32964 0.45237 0.0
N1765 N 0.68188 0.31543 0.5221 0.0
C1766 C 0.66987 0.32722 0.477 0.0
C1767 C 0.69077 0.32483 0.4631 0.0
C1768 C 0.6711 0.32001 0.51212 0.0
C1769 C 0.69165 0.31767 0.49853 0.0
C1770 C 0.6437 0.33112 0.38899 0.0
C1771 C 0.63086 0.31559 0.36397 0.0
N1772 N 0.62548 0.31519 0.40189 0.0
C1773 C 0.63798 0.33062 0.42763 0.0
C1774 C 0.64006 0.32362 0.35679 0.0
C1775 C 0.62881 0.32248 0.43356 0.0
C1776 C 0.64884 0.36126 0.45923 0.0
N1777 N 0.65961 0.35596 0.46221 0.0
C1778 C 0.66172 0.36274 0.53255 0.0
C1779 C 0.66611 0.35663 0.49783 0.0
C1780 C 0.65055 0.36826 0.53056 0.0
C1781 C 0.64412 0.36746 0.4931 0.0
H1782 H 0.64391 0.36069 0.43036 0.0
H1783 H 0.67471 0.35244 0.49933 0.0
C1784 C 0.67309 0.30616 0.35288 0.0
N1785 N 0.66629 0.31214 0.38082 0.0
C1786 C 0.67272 0.29382 0.35092 0.0
C1787 C 0.65863 0.29385 0.40762 0.0
C1788 C 0.6593 0.30624 0.40854 0.0
C1789 C 0.66529 0.28748 0.37812 0.0
H1790 H 0.6788 0.31099 0.33185 0.0
H1791 H 0.65413 0.31111 0.43109 0.0
C1792 C 0.67595 0.36849 0.38554 0.0
N1793 N 0.68575 0.38832 0.4223 0.0
C1794 C 0.67285 0.37978 0.37147 0.0
C1795 C 0.68401 0.36727 0.41837 0.0
C1796 C 0.67792 0.38971 0.39043 0.0
C1797 C 0.68887 0.37741 0.43653 0.0
C1798 C 0.67404 0.33314 0.28219 0.0
C1799 C 0.68155 0.33989 0.25694 0.0
C1800 C 0.66615 0.32515 0.26384 0.0
C1801 C 0.6809 0.33867 0.21364 0.0
C1802 C 0.66577 0.32418 0.22042 0.0
N1803 N 0.67309 0.33091 0.19643 0.0
C1804 C 0.70484 0.33794 0.34007 0.0
C1805 C 0.70252 0.35878 0.33818 0.0
C1806 C 0.71589 0.33882 0.32057 0.0
N1807 N 0.69834 0.34782 0.34795 0.0
C1808 C 0.71361 0.36008 0.31934 0.0
C1809 C 0.72038 0.35001 0.30924 0.0
H1810 H 0.70116 0.32931 0.34701 0.0
H1811 H 0.69709 0.36651 0.34328 0.0
C1812 C 0.64224 0.34931 0.2817 0.0
N1813 N 0.65368 0.35224 0.2901 0.0
C1814 C 0.63678 0.35346 0.24537 0.0
C1815 C 0.65494 0.36364 0.22754 0.0
C1816 C 0.65996 0.35945 0.2644 0.0
C1817 C 0.64324 0.36058 0.21751 0.0
H1818 H 0.63738 0.3437 0.30295 0.0
H1819 H 0.66898 0.3618 0.27231 0.0
O1820 O 0.67878 0.33668 0.41785 0.0
O1821 O 0.65268 0.33905 0.38259 0.0
O1822 O 0.67092 0.35871 0.36768 0.0
O1823 O 0.67441 0.33434 0.32465 0.0
H1824 H 0.66131 0.33085 0.46901 0.0
H1825 H 0.69853 0.32663 0.44427 0.0
H1826 H 0.66349 0.31805 0.53144 0.0
H1827 H 0.7001 0.3139 0.50729 0.0
H1828 H 0.62801 0.30968 0.33938 0.0
H1829 H 0.6406 0.33643 0.45281 0.0
H1830 H 0.64433 0.32394 0.32667 0.0
H1831 H 0.62433 0.32196 0.46335 0.0
H1832 H 0.66697 0.36301 0.5608 0.0
H1833 H 0.63559 0.37173 0.48971 0.0
H1834 H 0.67824 0.2893 0.32838 0.0
H1835 H 0.65278 0.28935 0.42917 0.0
H1836 H 0.66658 0.38086 0.34618 0.0
H1837 H 0.68652 0.3586 0.42965 0.0
H1838 H 0.67561 0.39851 0.37985 0.0
H1839 H 0.69512 0.3766 0.46194 0.0
H1840 H 0.68769 0.34614 0.27054 0.0
H1841 H 0.6604 0.31973 0.28288 0.0
H1842 H 0.6866 0.34391 0.19372 0.0
H1843 H 0.65968 0.31807 0.2058 0.0
H1844 H 0.72057 0.33075 0.3128 0.0
H1845 H 0.7167 0.36891 0.31191 0.0
H1846 H 0.62772 0.35094 0.23867 0.0
H1847 H 0.66013 0.36928 0.20717 0.0
Li1848 Li 0.90657 0.41707 0.66594 0.0
Li1849 Li 0.92562 0.41955 0.63005 0.0
Li1850 Li 0.90841 0.43272 0.61577 0.0
Li1851 Li 0.90806 0.41235 0.59113 0.0
C1852 C 0.91891 0.43307 0.70981 0.0
N1853 N 0.92137 0.43697 0.79445 0.0
C1854 C 0.92859 0.42836 0.73132 0.0
C1855 C 0.91058 0.43991 0.73122 0.0
C1856 C 0.92965 0.43039 0.77414 0.0
C1857 C 0.91195 0.44174 0.77404 0.0
C1858 C 0.91332 0.39338 0.64745 0.0
C1859 C 0.91807 0.37301 0.66278 0.0
N1860 N 0.90631 0.37053 0.66594 0.0
C1861 C 0.90128 0.39062 0.65064 0.0
C1862 C 0.92179 0.38452 0.65351 0.0
C1863 C 0.89792 0.37902 0.66014 0.0
C1864 C 0.8875 0.41056 0.71994 0.0
N1865 N 0.89949 0.41143 0.71708 0.0
C1866 C 0.90173 0.40148 0.78256 0.0
C1867 C 0.90661 0.40702 0.74753 0.0
C1868 C 0.88936 0.40008 0.78591 0.0
C1869 C 0.88224 0.40487 0.75406 0.0
H1870 H 0.882 0.41376 0.69475 0.0
H1871 H 0.91611 0.40743 0.744 0.0
C1872 C 0.9485 0.42743 0.61059 0.0
N1873 N 0.9425 0.41896 0.63206 0.0
C1874 C 0.96084 0.42711 0.60831 0.0
C1875 C 0.96068 0.40956 0.65153 0.0
C1876 C 0.9483 0.41017 0.65266 0.0
C1877 C 0.9671 0.41802 0.62864 0.0
H1878 H 0.94366 0.43435 0.59465 0.0
H1879 H 0.9433 0.40358 0.66967 0.0
C1880 C 0.88574 0.42828 0.61598 0.0
N1881 N 0.86695 0.4437 0.60569 0.0
C1882 C 0.87924 0.42824 0.57888 0.0
C1883 C 0.88257 0.43603 0.64805 0.0
C1884 C 0.8698 0.43614 0.57422 0.0
C1885 C 0.87308 0.44379 0.64221 0.0
C1886 C 0.92583 0.42163 0.54201 0.0
C1887 C 0.92685 0.42908 0.50741 0.0
C1888 C 0.93147 0.41061 0.54193 0.0
C1889 C 0.93358 0.4254 0.47323 0.0
C1890 C 0.93814 0.40726 0.50717 0.0
N1891 N 0.93904 0.41466 0.47383 0.0
C1892 C 0.90729 0.45803 0.62154 0.0
C1893 C 0.90054 0.44967 0.55808 0.0
C1894 C 0.90588 0.46948 0.60546 0.0
N1895 N 0.9047 0.44843 0.59762 0.0
C1896 C 0.89892 0.46093 0.54088 0.0
C1897 C 0.90179 0.47106 0.56431 0.0
H1898 H 0.91082 0.4568 0.65258 0.0
H1899 H 0.89876 0.44188 0.53949 0.0
C1900 C 0.90339 0.39097 0.54333 0.0
N1901 N 0.90313 0.40301 0.54441 0.0
C1902 C 0.8992 0.38488 0.50837 0.0
C1903 C 0.89515 0.40368 0.47537 0.0
C1904 C 0.89932 0.40939 0.51105 0.0
C1905 C 0.89486 0.39124 0.47389 0.0
H1906 H 0.9068 0.38601 0.56943 0.0
H1907 H 0.8995 0.41896 0.51228 0.0
O1908 O 0.91768 0.43112 0.66793 0.0
O1909 O 0.91686 0.40471 0.63882 0.0
O1910 O 0.89519 0.42082 0.62086 0.0
O1911 O 0.91911 0.42504 0.5754 0.0
H1912 H 0.93515 0.42309 0.71525 0.0
H1913 H 0.90316 0.44382 0.71496 0.0
H1914 H 0.93705 0.42672 0.79124 0.0
H1915 H 0.90553 0.44697 0.79103 0.0
H1916 H 0.92453 0.36606 0.66748 0.0
H1917 H 0.89461 0.39732 0.64543 0.0
H1918 H 0.93114 0.38649 0.6509 0.0
H1919 H 0.88864 0.37675 0.66275 0.0
H1920 H 0.90765 0.39815 0.80636 0.0
H1921 H 0.87271 0.40384 0.75444 0.0
H1922 H 0.96544 0.43391 0.59083 0.0
H1923 H 0.96515 0.40238 0.66748 0.0
H1924 H 0.88145 0.42221 0.55393 0.0
H1925 H 0.88741 0.43606 0.67711 0.0
H1926 H 0.86474 0.43625 0.54557 0.0
H1927 H 0.87058 0.44989 0.66671 0.0
H1928 H 0.92246 0.43761 0.50696 0.0
H1929 H 0.93069 0.40469 0.56833 0.0
H1930 H 0.93446 0.43107 0.44621 0.0
H1931 H 0.94256 0.39876 0.50666 0.0
H1932 H 0.90839 0.47698 0.62456 0.0
H1933 H 0.89558 0.46166 0.50933 0.0
H1934 H 0.89914 0.37529 0.50878 0.0
H1935 H 0.89221 0.40899 0.44919 0.0
Li1936 Li 0.83506 0.67453 0.88221 0.0
Li1937 Li 0.83589 0.65486 0.91576 0.0
Li1938 Li 0.84144 0.65763 0.8423 0.0
Li1939 Li 0.82067 0.65901 0.86385 0.0
C1940 C 0.86063 0.66218 0.88365 0.0
N1941 N 0.88366 0.65658 0.86208 0.0
C1942 C 0.86633 0.65257 0.90246 0.0
C1943 C 0.86667 0.66897 0.854 0.0
C1944 C 0.87798 0.64988 0.89113 0.0
C1945 C 0.8783 0.66598 0.84346 0.0
C1946 C 0.82027 0.6673 0.95963 0.0
C1947 C 0.81114 0.65876 0.0206 0.0
N1948 N 0.81567 0.66768 0.04423 0.0
C1949 C 0.82481 0.67641 0.98444 0.0
C1950 C 0.81334 0.65843 0.97773 0.0
C1951 C 0.82239 0.67644 0.02718 0.0
C1952 C 0.82667 0.69789 0.89296 0.0
N1953 N 0.8367 0.69128 0.88994 0.0
C1954 C 0.84868 0.70875 0.8928 0.0
C1955 C 0.84759 0.69643 0.89035 0.0
C1956 C 0.83846 0.71584 0.8949 0.0
C1957 C 0.82734 0.71023 0.89535 0.0
H1958 H 0.81812 0.69356 0.89282 0.0
H1959 H 0.85543 0.69098 0.8881 0.0
C1960 C 0.84001 0.63426 0.96453 0.0
N1961 N 0.84018 0.6463 0.96538 0.0
C1962 C 0.84431 0.62772 0.99838 0.0
C1963 C 0.8487 0.64608 0.03376 0.0
C1964 C 0.84445 0.65225 0.99903 0.0
C1965 C 0.84883 0.6336 0.03365 0.0
H1966 H 0.83692 0.6297 0.93697 0.0
H1967 H 0.84483 0.66182 0.99853 0.0
C1968 C 0.8273 0.68014 0.80762 0.0
N1969 N 0.82253 0.70223 0.77441 0.0
C1970 C 0.81563 0.68423 0.80521 0.0
C1971 C 0.83654 0.68727 0.793 0.0
C1972 C 0.8134 0.69542 0.78829 0.0
C1973 C 0.83395 0.69842 0.77641 0.0
C1974 C 0.82432 0.6361 0.85489 0.0
C1975 C 0.82512 0.63175 0.81418 0.0
C1976 C 0.81587 0.63143 0.88219 0.0
C1977 C 0.81737 0.62281 0.80135 0.0
C1978 C 0.80828 0.62251 0.86815 0.0
N1979 N 0.80918 0.61842 0.82836 0.0
C1980 C 0.85701 0.6412 0.80576 0.0
C1981 C 0.85249 0.65764 0.76259 0.0
C1982 C 0.86391 0.63615 0.77429 0.0
N1983 N 0.85146 0.65172 0.79932 0.0
C1984 C 0.85933 0.65294 0.7303 0.0
C1985 C 0.86506 0.64198 0.73574 0.0
H1986 H 0.85588 0.63662 0.83513 0.0
H1987 H 0.84787 0.66591 0.7581 0.0
C1988 C 0.79527 0.65817 0.86901 0.0
N1989 N 0.80488 0.6562 0.84446 0.0
C1990 C 0.78383 0.65701 0.85259 0.0
C1991 C 0.79244 0.6516 0.78629 0.0
C1992 C 0.80367 0.65298 0.80384 0.0
C1993 C 0.78228 0.65378 0.81049 0.0
H1994 H 0.79647 0.66095 0.901 0.0
H1995 H 0.81148 0.65169 0.7848 0.0
O1996 O 0.84914 0.66477 0.89355 0.0
O1997 O 0.82263 0.66705 0.91783 0.0
O1998 O 0.82969 0.66933 0.825 0.0
O1999 O 0.83168 0.64499 0.86783 0.0
H2000 H 0.86179 0.64717 0.9253 0.0
H2001 H 0.86234 0.67634 0.83871 0.0
H2002 H 0.88248 0.64245 0.90532 0.0
H2003 H 0.88303 0.67111 0.82033 0.0
H2004 H 0.80583 0.65192 0.03508 0.0
H2005 H 0.83023 0.68332 0.97095 0.0
H2006 H 0.80974 0.65134 0.95891 0.0
H2007 H 0.82588 0.6834 0.04682 0.0
H2008 H 0.85743 0.71268 0.89205 0.0
H2009 H 0.81923 0.71531 0.89761 0.0
H2010 H 0.84443 0.61815 0.99624 0.0
H2011 H 0.85194 0.65105 0.06025 0.0
H2012 H 0.80837 0.67891 0.81668 0.0
H2013 H 0.84563 0.68433 0.79517 0.0
H2014 H 0.80442 0.69872 0.78638 0.0
H2015 H 0.84102 0.70407 0.76531 0.0
H2016 H 0.83156 0.63532 0.79259 0.0
H2017 H 0.81515 0.6347 0.91378 0.0
H2018 H 0.81784 0.6194 0.76988 0.0
H2019 H 0.80167 0.61884 0.88888 0.0
H2020 H 0.86799 0.62761 0.7797 0.0
H2021 H 0.86007 0.65781 0.70131 0.0
H2022 H 0.77631 0.65897 0.87236 0.0
H2023 H 0.79176 0.64891 0.75397 0.0
Li2024 Li 0.57839 0.58627 0.12736 0.0
Li2025 Li 0.59822 0.58705 0.16296 0.0
Li2026 Li 0.59642 0.59158 0.09085 0.0
Li2027 Li 0.59395 0.57148 0.11165 0.0
C2028 C 0.5893 0.61127 0.12237 0.0
N2029 N 0.59096 0.63349 0.08677 0.0
C2030 C 0.59859 0.61883 0.13334 0.0
C2031 C 0.58083 0.615 0.09345 0.0
C2032 C 0.59928 0.63003 0.11495 0.0
C2033 C 0.58182 0.62627 0.07578 0.0
C2034 C 0.58019 0.57259 0.20257 0.0
C2035 C 0.57431 0.55993 0.25948 0.0
N2036 N 0.56855 0.5692 0.27738 0.0
C2037 C 0.57419 0.582 0.22145 0.0
C2038 C 0.58023 0.56145 0.22158 0.0
C2039 C 0.56836 0.58011 0.2593 0.0
C2040 C 0.55494 0.57864 0.12019 0.0
N2041 N 0.56165 0.58805 0.13186 0.0
C2042 C 0.5443 0.5993 0.14797 0.0
C2043 C 0.55663 0.59826 0.14576 0.0
C2044 C 0.53709 0.58974 0.13582 0.0
C2045 C 0.54259 0.57929 0.12191 0.0
H2046 H 0.5592 0.57064 0.10924 0.0
H2047 H 0.56219 0.60559 0.15516 0.0
C2048 C 0.61725 0.59755 0.20421 0.0
N2049 N 0.60704 0.59154 0.21204 0.0
C2050 C 0.62413 0.60195 0.23696 0.0
C2051 C 0.60997 0.59383 0.28561 0.0
C2052 C 0.60342 0.58946 0.25188 0.0
C2053 C 0.62043 0.60026 0.27835 0.0
H2054 H 0.61995 0.5991 0.17229 0.0
H2055 H 0.59543 0.58453 0.25779 0.0
C2056 C 0.58473 0.57593 0.03359 0.0
N2057 N 0.58648 0.5658 0.95541 0.0
C2058 C 0.59581 0.57449 0.01484 0.0
C2059 C 0.57454 0.57219 0.01266 0.0
C2060 C 0.59651 0.56936 0.97528 0.0
C2061 C 0.57561 0.56709 0.97312 0.0
C2062 C 0.61741 0.57452 0.13266 0.0
C2063 C 0.62888 0.57555 0.11668 0.0
C2064 C 0.61516 0.56655 0.16511 0.0
C2065 C 0.63793 0.56858 0.13344 0.0
C2066 C 0.62444 0.55974 0.18103 0.0
N2067 N 0.63554 0.56088 0.16501 0.0
C2068 C 0.6144 0.60486 0.05383 0.0
C2069 C 0.59704 0.60379 0.01245 0.0
C2070 C 0.62037 0.61088 0.02222 0.0
N2071 N 0.60303 0.60128 0.04814 0.0
C2072 C 0.60271 0.60971 0.97978 0.0
C2073 C 0.61463 0.61313 0.98411 0.0
H2074 H 0.61891 0.60278 0.08269 0.0
H2075 H 0.58798 0.60086 0.00882 0.0
C2076 C 0.58604 0.54826 0.10004 0.0
N2077 N 0.59554 0.55543 0.0939 0.0
C2078 C 0.58557 0.53712 0.08126 0.0
C2079 C 0.60485 0.54076 0.05116 0.0
C2080 C 0.60498 0.55183 0.07075 0.0
C2081 C 0.59492 0.53334 0.05545 0.0
H2082 H 0.57859 0.55143 0.11814 0.0
H2083 H 0.61233 0.5578 0.06559 0.0
O2084 O 0.58865 0.60015 0.1391 0.0
O2085 O 0.58574 0.57413 0.1651 0.0
O2086 O 0.58381 0.58072 0.07262 0.0
O2087 O 0.60853 0.58135 0.11642 0.0
H2088 H 0.60523 0.61606 0.15559 0.0
H2089 H 0.57366 0.60919 0.08426 0.0
H2090 H 0.60644 0.63597 0.123 0.0
H2091 H 0.57537 0.62926 0.05316 0.0
H2092 H 0.57429 0.55136 0.27461 0.0
H2093 H 0.57419 0.5907 0.20734 0.0
H2094 H 0.58479 0.55408 0.20715 0.0
H2095 H 0.56372 0.58731 0.27437 0.0
H2096 H 0.54045 0.60747 0.15938 0.0
H2097 H 0.53742 0.57175 0.11169 0.0
H2098 H 0.63209 0.60693 0.2299 0.0
H2099 H 0.60688 0.59219 0.31707 0.0
H2100 H 0.60381 0.57721 0.03079 0.0
H2101 H 0.5659 0.57319 0.02688 0.0
H2102 H 0.60504 0.56817 0.96044 0.0
H2103 H 0.5678 0.56416 0.95654 0.0
H2104 H 0.63076 0.58168 0.09156 0.0
H2105 H 0.60636 0.56561 0.17797 0.0
H2106 H 0.64685 0.56928 0.12137 0.0
H2107 H 0.62283 0.55355 0.20615 0.0
H2108 H 0.62947 0.61357 0.02735 0.0
H2109 H 0.59795 0.61116 0.95092 0.0
H2110 H 0.57781 0.53163 0.08608 0.0
H2111 H 0.6122 0.53832 0.03122 0.0
Li2112 Li 0.31958 0.34469 0.36674 0.0
Li2113 Li 0.3343 0.32778 0.377 0.0
Li2114 Li 0.33641 0.34708 0.41559 0.0
Li2115 Li 0.34007 0.34623 0.34243 0.0
C2116 C 0.31635 0.33785 0.45278 0.0
N2117 N 0.303 0.34325 0.5224 0.0
C2118 C 0.31502 0.32952 0.48466 0.0
C2119 C 0.31093 0.34893 0.4563 0.0
C2120 C 0.30821 0.33241 0.51961 0.0
C2121 C 0.30421 0.35149 0.49175 0.0
C2122 C 0.33071 0.33299 0.2841 0.0
C2123 C 0.34235 0.32337 0.23094 0.0
N2124 N 0.33743 0.33058 0.2017 0.0
C2125 C 0.32572 0.34027 0.25354 0.0
C2126 C 0.33906 0.32444 0.27277 0.0
C2127 C 0.32926 0.33893 0.21204 0.0
C2128 C 0.30138 0.35613 0.32249 0.0
N2129 N 0.30353 0.34783 0.35226 0.0
C2130 C 0.28306 0.34238 0.35366 0.0
C2131 C 0.29466 0.34104 0.36819 0.0
C2132 C 0.28064 0.3506 0.32188 0.0
C2133 C 0.28995 0.35763 0.3066 0.0
H2134 H 0.30864 0.36133 0.31018 0.0
H2135 H 0.29666 0.33434 0.39127 0.0
C2136 C 0.34384 0.30495 0.39891 0.0
N2137 N 0.33524 0.31095 0.37801 0.0
C2138 C 0.34435 0.29257 0.3968 0.0
C2139 C 0.32698 0.29283 0.35279 0.0
C2140 C 0.32684 0.30516 0.35559 0.0
C2141 C 0.33589 0.28633 0.37314 0.0
H2142 H 0.35039 0.30979 0.41668 0.0
H2143 H 0.32006 0.31017 0.33955 0.0
C2144 C 0.33315 0.36961 0.38062 0.0
N2145 N 0.33865 0.39291 0.39838 0.0
C2146 C 0.34496 0.3733 0.38149 0.0
C2147 C 0.32412 0.37779 0.38832 0.0
C2148 C 0.34757 0.38511 0.39064 0.0
C2149 C 0.32709 0.38952 0.39738 0.0
C2150 C 0.36047 0.33676 0.37915 0.0
C2151 C 0.36798 0.34595 0.39154 0.0
C2152 C 0.36521 0.32674 0.35972 0.0
C2153 C 0.3801 0.34508 0.38337 0.0
C2154 C 0.37739 0.32621 0.35214 0.0
N2155 N 0.38452 0.33532 0.36396 0.0
C2156 C 0.35079 0.34822 0.48701 0.0
C2157 C 0.33704 0.36402 0.4832 0.0
C2158 C 0.35576 0.35296 0.52328 0.0
N2159 N 0.3417 0.35384 0.46745 0.0
C2160 C 0.34182 0.36915 0.51919 0.0
C2161 C 0.35136 0.36365 0.53959 0.0
H2162 H 0.35433 0.34011 0.47401 0.0
H2163 H 0.32967 0.36824 0.46772 0.0
C2164 C 0.3444 0.36337 0.2815 0.0
N2165 N 0.34886 0.35307 0.29692 0.0
C2166 C 0.34997 0.36914 0.24843 0.0
C2167 C 0.36441 0.35337 0.24616 0.0
C2168 C 0.35856 0.34791 0.27946 0.0
C2169 C 0.36018 0.36419 0.2305 0.0
H2170 H 0.3364 0.36706 0.29458 0.0
H2171 H 0.36169 0.3395 0.29077 0.0
O2172 O 0.32308 0.33522 0.41858 0.0
O2173 O 0.32768 0.33444 0.32506 0.0
O2174 O 0.33039 0.35808 0.37192 0.0
O2175 O 0.34859 0.33735 0.38742 0.0
H2176 H 0.31921 0.32091 0.48239 0.0
H2177 H 0.31194 0.35551 0.43201 0.0
H2178 H 0.30709 0.32605 0.54453 0.0
H2179 H 0.29998 0.36004 0.49492 0.0
H2180 H 0.34886 0.31683 0.22174 0.0
H2181 H 0.3193 0.34698 0.26184 0.0
H2182 H 0.34306 0.31879 0.29609 0.0
H2183 H 0.32553 0.34456 0.18808 0.0
H2184 H 0.27616 0.3367 0.36592 0.0
H2185 H 0.28842 0.36412 0.28228 0.0
H2186 H 0.35144 0.28796 0.41276 0.0
H2187 H 0.32012 0.28844 0.33494 0.0
H2188 H 0.35202 0.36712 0.37488 0.0
H2189 H 0.31493 0.37507 0.38752 0.0
H2190 H 0.35667 0.38808 0.3915 0.0
H2191 H 0.3202 0.39594 0.40361 0.0
H2192 H 0.36452 0.35361 0.40767 0.0
H2193 H 0.35954 0.31953 0.35003 0.0
H2194 H 0.38602 0.35215 0.39265 0.0
H2195 H 0.38116 0.31856 0.33678 0.0
H2196 H 0.36315 0.34846 0.53783 0.0
H2197 H 0.33804 0.3773 0.53107 0.0
H2198 H 0.34622 0.3773 0.23662 0.0
H2199 H 0.37222 0.34921 0.23311 0.0
Li2200 Li 0.40734 0.59114 0.09237 0.0
Li2201 Li 0.40505 0.58652 0.16697 0.0
Li2202 Li 0.42487 0.58365 0.13133 0.0
Li2203 Li 0.40839 0.56991 0.11838 0.0
C2204 C 0.41928 0.60991 0.13368 0.0
N2205 N 0.42639 0.63295 0.11869 0.0
C2206 C 0.41432 0.61925 0.15638 0.0
C2207 C 0.42794 0.61229 0.10367 0.0
C2208 C 0.41801 0.63084 0.14826 0.0
C2209 C 0.43139 0.62399 0.09648 0.0
C2210 C 0.38332 0.58243 0.13016 0.0
C2211 C 0.36557 0.5747 0.162 0.0
N2212 N 0.35978 0.58488 0.15204 0.0
C2213 C 0.37715 0.59275 0.11974 0.0
C2214 C 0.37746 0.57327 0.15103 0.0
C2215 C 0.36527 0.59385 0.13129 0.0
C2216 C 0.39843 0.59471 0.01235 0.0
N2217 N 0.40152 0.60061 0.04762 0.0
C2218 C 0.39492 0.61893 0.0183 0.0
C2219 C 0.39981 0.61249 0.05124 0.0
C2220 C 0.39149 0.61307 0.98151 0.0
C2221 C 0.39336 0.60077 0.97883 0.0
H2222 H 0.3997 0.58522 0.01062 0.0
H2223 H 0.40201 0.61697 0.07988 0.0
C2224 C 0.39969 0.58754 0.25443 0.0
N2225 N 0.39725 0.59222 0.21628 0.0
C2226 C 0.39454 0.59236 0.29035 0.0
C2227 C 0.38442 0.60666 0.24711 0.0
C2228 C 0.38981 0.60162 0.21213 0.0
C2229 C 0.38683 0.60211 0.28699 0.0
H2230 H 0.40582 0.58023 0.25713 0.0
H2231 H 0.38832 0.60545 0.1817 0.0
C2232 C 0.42668 0.57733 0.04597 0.0
N2233 N 0.44326 0.57543 0.98288 0.0
C2234 C 0.43201 0.56643 0.03745 0.0
C2235 C 0.42958 0.58721 0.02176 0.0
C2236 C 0.44044 0.56566 0.00564 0.0
C2237 C 0.43803 0.58609 0.99016 0.0
C2238 C 0.41656 0.56284 0.19429 0.0
C2239 C 0.4271 0.55662 0.20089 0.0
C2240 C 0.40593 0.55837 0.21011 0.0
C2241 C 0.42679 0.54591 0.22275 0.0
C2242 C 0.40598 0.54765 0.23183 0.0
N2243 N 0.41632 0.54168 0.23761 0.0
C2244 C 0.44764 0.59363 0.15201 0.0
C2245 C 0.44771 0.57404 0.12562 0.0
C2246 C 0.46 0.59354 0.15517 0.0
N2247 N 0.44178 0.58402 0.13681 0.0
C2248 C 0.46004 0.57355 0.12833 0.0
C2249 C 0.46638 0.5834 0.14316 0.0
H2250 H 0.44273 0.60133 0.16205 0.0
H2251 H 0.44284 0.56639 0.11489 0.0
C2252 C 0.39476 0.55143 0.0823 0.0
N2253 N 0.40509 0.55393 0.10222 0.0
C2254 C 0.39289 0.54024 0.06473 0.0
C2255 C 0.41222 0.53431 0.08938 0.0
C2256 C 0.41372 0.54561 0.10631 0.0
C2257 C 0.4018 0.53155 0.06745 0.0
H2258 H 0.38815 0.55829 0.0786 0.0
H2259 H 0.422 0.54789 0.12119 0.0
O2260 O 0.41564 0.59853 0.14086 0.0
O2261 O 0.39495 0.5812 0.1191 0.0
O2262 O 0.41836 0.57822 0.07689 0.0
O2263 O 0.41667 0.57327 0.17261 0.0
H2264 H 0.40767 0.61757 0.17992 0.0
H2265 H 0.43204 0.60516 0.08647 0.0
H2266 H 0.4142 0.63815 0.16546 0.0
H2267 H 0.43808 0.62595 0.07331 0.0
H2268 H 0.36094 0.56771 0.1783 0.0
H2269 H 0.38152 0.59988 0.10328 0.0
H2270 H 0.38202 0.56511 0.15842 0.0
H2271 H 0.36041 0.60183 0.12374 0.0
H2272 H 0.3938 0.6284 0.0218 0.0
H2273 H 0.39065 0.59579 0.9516 0.0
H2274 H 0.39663 0.58854 0.32045 0.0
H2275 H 0.37874 0.61431 0.24306 0.0
H2276 H 0.42975 0.55864 0.0554 0.0
H2277 H 0.42529 0.59564 0.02695 0.0
H2278 H 0.44471 0.5573 0.999 0.0
H2279 H 0.44039 0.59368 0.97131 0.0
H2280 H 0.43542 0.55999 0.18911 0.0
H2281 H 0.39774 0.56318 0.20579 0.0
H2282 H 0.43487 0.54097 0.22791 0.0
H2283 H 0.39781 0.54407 0.24416 0.0
H2284 H 0.4645 0.60125 0.16755 0.0
H2285 H 0.46456 0.56556 0.11853 0.0
H2286 H 0.38478 0.53859 0.04766 0.0
H2287 H 0.41928 0.52789 0.09274 0.0
Li2288 Li 0.16182 0.65637 0.84032 0.0
Li2289 Li 0.16516 0.6543 0.91359 0.0
Li2290 Li 0.16728 0.67449 0.87583 0.0
Li2291 Li 0.18182 0.65776 0.86359 0.0
C2292 C 0.14137 0.6645 0.87652 0.0
N2293 N 0.11757 0.66434 0.85682 0.0
C2294 C 0.13488 0.65399 0.87935 0.0
C2295 C 0.13576 0.67496 0.86412 0.0
C2296 C 0.12286 0.65408 0.86909 0.0
C2297 C 0.12371 0.67468 0.8542 0.0
C2298 C 0.17697 0.63445 0.88603 0.0
C2299 C 0.19172 0.62682 0.93336 0.0
N2300 N 0.18859 0.61558 0.92273 0.0
C2301 C 0.1739 0.62282 0.87558 0.0
C2302 C 0.18594 0.63646 0.91519 0.0
C2303 C 0.17987 0.61341 0.89448 0.0
C2304 C 0.15649 0.63911 0.7814 0.0
N2305 N 0.15256 0.64975 0.79559 0.0
C2306 C 0.13679 0.64962 0.74573 0.0
C2307 C 0.14298 0.65513 0.7781 0.0
C2308 C 0.14054 0.63851 0.73102 0.0
C2309 C 0.1506 0.63331 0.74914 0.0
H2310 H 0.16433 0.63517 0.79488 0.0
H2311 H 0.1402 0.66375 0.78879 0.0
C2312 C 0.16017 0.65085 1.00148 0.0
N2313 N 0.15961 0.64621 0.96238 0.0
C2314 C 0.15548 0.64457 0.03545 0.0
C2315 C 0.14978 0.62892 0.98817 0.0
C2316 C 0.15448 0.6355 0.95529 0.0
C2317 C 0.15021 0.63342 0.02897 0.0
H2318 H 0.16416 0.65946 0.00626 0.0
H2319 H 0.15388 0.63212 0.92383 0.0
C2320 C 0.17205 0.66797 0.78089 0.0
N2321 N 0.16787 0.66677 0.69605 0.0
C2322 C 0.17884 0.66047 0.75576 0.0
C2323 C 0.16314 0.67487 0.76283 0.0
C2324 C 0.17659 0.65998 0.71295 0.0
C2325 C 0.16116 0.67414 0.71989 0.0
C2326 C 0.18681 0.67117 0.94118 0.0
C2327 C 0.19182 0.68208 0.93037 0.0
C2328 C 0.19051 0.66544 0.97756 0.0
C2329 C 0.20061 0.68696 0.95576 0.0
C2330 C 0.19932 0.67061 0.00215 0.0
N2331 N 0.20415 0.68117 0.99082 0.0
C2332 C 0.16383 0.69709 0.91611 0.0
C2333 C 0.16918 0.69754 0.84473 0.0
C2334 C 0.16433 0.7095 0.91815 0.0
N2335 N 0.16633 0.6914 0.87975 0.0
C2336 C 0.16957 0.70988 0.84514 0.0
C2337 C 0.16735 0.71609 0.88235 0.0
H2338 H 0.1618 0.69199 0.94377 0.0
H2339 H 0.17145 0.69286 0.81653 0.0
C2340 C 0.20089 0.64452 0.82854 0.0
N2341 N 0.19805 0.65479 0.8484 0.0
C2342 C 0.21222 0.64288 0.81185 0.0
C2343 C 0.21761 0.6623 0.83704 0.0
C2344 C 0.20617 0.66359 0.85296 0.0
C2345 C 0.22073 0.65193 0.81537 0.0
H2346 H 0.1942 0.6378 0.82386 0.0
H2347 H 0.20365 0.67182 0.86748 0.0
O2348 O 0.15312 0.66464 0.88657 0.0
O2349 O 0.17104 0.64374 0.86815 0.0
O2350 O 0.17396 0.66835 0.82303 0.0
O2351 O 0.178 0.66637 0.91722 0.0
H2352 H 0.13912 0.64584 0.88892 0.0
H2353 H 0.14067 0.68317 0.86198 0.0
H2354 H 0.11773 0.646 0.87084 0.0
H2355 H 0.11924 0.68269 0.84436 0.0
H2356 H 0.19871 0.62827 0.95588 0.0
H2357 H 0.1669 0.62108 0.85335 0.0
H2358 H 0.1885 0.64536 0.92342 0.0
H2359 H 0.17756 0.60437 0.88674 0.0
H2360 H 0.12908 0.65396 0.73268 0.0
H2361 H 0.154 0.6249 0.73812 0.0
H2362 H 0.15603 0.64836 0.06641 0.0
H2363 H 0.1456 0.62049 0.98151 0.0
H2364 H 0.18572 0.65501 0.76917 0.0
H2365 H 0.1576 0.68052 0.78189 0.0
H2366 H 0.18175 0.65419 0.69318 0.0
H2367 H 0.15424 0.67937 0.70558 0.0
H2368 H 0.18906 0.68666 0.90238 0.0
H2369 H 0.1866 0.65708 0.98682 0.0
H2370 H 0.20461 0.69535 0.94759 0.0
H2371 H 0.20229 0.66624 0.0303 0.0
H2372 H 0.1627 0.71383 0.94772 0.0
H2373 H 0.1717 0.71447 0.81646 0.0
H2374 H 0.2141 0.63483 0.79476 0.0
H2375 H 0.22388 0.66948 0.84097 0.0
Li2376 Li 0.09692 0.41401 0.59284 0.0
Li2377 Li 0.09964 0.41716 0.66736 0.0
Li2378 Li 0.07905 0.41875 0.63362 0.0
Li2379 Li 0.09496 0.43416 0.62113 0.0
C2380 C 0.08861 0.39299 0.63223 0.0
N2381 N 0.08635 0.36897 0.6179 0.0
C2382 C 0.09773 0.38525 0.6435 0.0
C2383 C 0.0783 0.38851 0.61396 0.0
C2384 C 0.09643 0.37314 0.6359 0.0
C2385 C 0.07734 0.37633 0.60689 0.0
C2386 C 0.12063 0.42512 0.63006 0.0
C2387 C 0.13636 0.43581 0.66418 0.0
N2388 N 0.14429 0.42768 0.64991 0.0
C2389 C 0.12892 0.41694 0.61535 0.0
C2390 C 0.12436 0.43469 0.65435 0.0
C2391 C 0.14085 0.41837 0.62589 0.0
C2392 C 0.10943 0.41362 0.519 0.0
N2393 N 0.10323 0.40626 0.54445 0.0
C2394 C 0.10755 0.38979 0.50003 0.0
C2395 C 0.10211 0.39454 0.53543 0.0
C2396 C 0.11401 0.3972 0.47299 0.0
C2397 C 0.11475 0.40933 0.48278 0.0
H2398 H 0.11023 0.4229 0.52694 0.0
H2399 H 0.09716 0.38878 0.55566 0.0
C2400 C 0.10288 0.41344 0.7543 0.0
N2401 N 0.10778 0.41155 0.71613 0.0
C2402 C 0.1079 0.40834 0.78995 0.0
C2403 C 0.12307 0.39964 0.74658 0.0
C2404 C 0.11773 0.40487 0.71179 0.0
C2405 C 0.11805 0.40119 0.78633 0.0
H2406 H 0.09487 0.41863 0.75693 0.0
H2407 H 0.12129 0.40319 0.68111 0.0
C2408 C 0.08197 0.42467 0.5398 0.0
N2409 N 0.07776 0.42142 0.45575 0.0
C2410 C 0.08656 0.43266 0.51072 0.0
C2411 C 0.07514 0.41509 0.52626 0.0
C2412 C 0.08436 0.43085 0.46832 0.0
C2413 C 0.07314 0.41358 0.48359 0.0
C2414 C 0.08541 0.43907 0.69998 0.0
C2415 C 0.07411 0.444 0.70411 0.0
C2416 C 0.09493 0.44398 0.72174 0.0
C2417 C 0.07258 0.45394 0.7295 0.0
C2418 C 0.09303 0.45391 0.74684 0.0
N2419 N 0.082 0.45865 0.75013 0.0
C2420 C 0.05754 0.40866 0.66531 0.0
C2421 C 0.05554 0.42456 0.61755 0.0
C2422 C 0.04521 0.40775 0.66896 0.0
N2423 N 0.0624 0.41695 0.63977 0.0
C2424 C 0.04322 0.424 0.62037 0.0
C2425 C 0.03786 0.41549 0.64625 0.0
H2426 H 0.06323 0.40274 0.6827 0.0
H2427 H 0.05968 0.43115 0.59782 0.0
C2428 C 0.10686 0.45348 0.58402 0.0
N2429 N 0.0972 0.45046 0.60706 0.0
C2430 C 0.10798 0.46494 0.56784 0.0
C2431 C 0.08934 0.47004 0.60017 0.0
C2432 C 0.08849 0.45846 0.61521 0.0
C2433 C 0.09909 0.47337 0.5756 0.0
H2434 H 0.11349 0.44687 0.57693 0.0
H2435 H 0.08066 0.45573 0.63196 0.0
O2436 O 0.08966 0.40485 0.63983 0.0
O2437 O 0.10893 0.42387 0.61996 0.0
O2438 O 0.08425 0.42614 0.58133 0.0
O2439 O 0.08707 0.42936 0.67524 0.0
H2440 H 0.10575 0.38857 0.65771 0.0
H2441 H 0.07113 0.39435 0.60522 0.0
H2442 H 0.10343 0.36705 0.6443 0.0
H2443 H 0.06943 0.37274 0.59266 0.0
H2444 H 0.13938 0.44315 0.68306 0.0
H2445 H 0.12616 0.40953 0.59628 0.0
H2446 H 0.11807 0.44121 0.66525 0.0
H2447 H 0.14737 0.41206 0.61497 0.0
H2448 H 0.10685 0.38036 0.49451 0.0
H2449 H 0.11937 0.4155 0.46271 0.0
H2450 H 0.10377 0.40986 0.81998 0.0
H2451 H 0.13076 0.39405 0.74212 0.0
H2452 H 0.09186 0.44013 0.52077 0.0
H2453 H 0.0715 0.40886 0.54844 0.0
H2454 H 0.08791 0.43692 0.44541 0.0
H2455 H 0.06793 0.40617 0.47261 0.0
H2456 H 0.06664 0.44024 0.68764 0.0
H2457 H 0.10367 0.44012 0.71945 0.0
H2458 H 0.06391 0.4579 0.73281 0.0
H2459 H 0.10033 0.45784 0.76379 0.0
H2460 H 0.04149 0.40098 0.68899 0.0
H2461 H 0.03797 0.43031 0.60293 0.0
H2462 H 0.11565 0.46714 0.54904 0.0
H2463 H 0.08218 0.47619 0.6062 0.0
Li2464 Li 0.32074 0.65968 0.63754 0.0
Li2465 Li 0.33561 0.67544 0.6254 0.0
Li2466 Li 0.33738 0.65579 0.58823 0.0
Li2467 Li 0.34209 0.6574 0.66283 0.0
C2468 C 0.31567 0.66809 0.55557 0.0
N2469 N 0.29737 0.66811 0.49842 0.0
C2470 C 0.31079 0.6788 0.54202 0.0
C2471 C 0.31131 0.6574 0.53991 0.0
C2472 C 0.30152 0.67862 0.51315 0.0
C2473 C 0.30204 0.65759 0.51105 0.0
C2474 C 0.32807 0.67753 0.70851 0.0
C2475 C 0.33539 0.68988 0.7642 0.0
N2476 N 0.32448 0.69488 0.76794 0.0
C2477 C 0.31689 0.68268 0.71329 0.0
C2478 C 0.33736 0.68105 0.73448 0.0
C2479 C 0.31527 0.69149 0.74334 0.0
C2480 C 0.30269 0.65042 0.68837 0.0
N2481 N 0.30467 0.65741 0.65453 0.0
C2482 C 0.28444 0.66368 0.65449 0.0
C2483 C 0.29579 0.6639 0.63725 0.0
C2484 C 0.2822 0.65693 0.69055 0.0
C2485 C 0.29148 0.65003 0.70696 0.0
H2486 H 0.30998 0.64557 0.70208 0.0
H2487 H 0.29758 0.66967 0.61123 0.0
C2488 C 0.34669 0.69839 0.61471 0.0
N2489 N 0.33649 0.69234 0.62232 0.0
C2490 C 0.34675 0.7108 0.61545 0.0
C2491 C 0.32578 0.71045 0.6305 0.0
C2492 C 0.32611 0.69811 0.62913 0.0
C2493 C 0.33622 0.71697 0.62415 0.0
H2494 H 0.35479 0.69363 0.60841 0.0
H2495 H 0.31807 0.69309 0.63382 0.0
C2496 C 0.33062 0.634 0.62633 0.0
N2497 N 0.32887 0.61012 0.60861 0.0
C2498 C 0.34004 0.6264 0.63541 0.0
C2499 C 0.3202 0.62942 0.60922 0.0
C2500 C 0.33902 0.61436 0.62592 0.0
C2501 C 0.31951 0.61733 0.60023 0.0
C2502 C 0.36163 0.66774 0.62305 0.0
C2503 C 0.37041 0.66223 0.59921 0.0
C2504 C 0.36485 0.67537 0.65541 0.0
C2505 C 0.38231 0.6644 0.60842 0.0
C2506 C 0.37685 0.67731 0.66363 0.0
N2507 N 0.38526 0.67182 0.64018 0.0
C2508 C 0.33908 0.65117 0.4999 0.0
C2509 C 0.35055 0.63882 0.54379 0.0
C2510 C 0.34336 0.6453 0.46449 0.0
N2511 N 0.34262 0.64776 0.53865 0.0
C2512 C 0.35499 0.63267 0.50937 0.0
C2513 C 0.35143 0.63587 0.46889 0.0
H2514 H 0.3331 0.65856 0.49632 0.0
H2515 H 0.3536 0.63657 0.5747 0.0
C2516 C 0.346 0.64972 0.74462 0.0
N2517 N 0.35135 0.65092 0.70689 0.0
C2518 C 0.352 0.6444 0.77779 0.0
C2519 C 0.36897 0.64177 0.73279 0.0
C2520 C 0.36257 0.64697 0.70035 0.0
C2521 C 0.36367 0.64031 0.77219 0.0
H2522 H 0.33697 0.65271 0.7487 0.0
H2523 H 0.36652 0.64767 0.6698 0.0
O2524 O 0.32461 0.66813 0.58432 0.0
O2525 O 0.32981 0.66887 0.67932 0.0
O2526 O 0.33145 0.6458 0.63553 0.0
O2527 O 0.34994 0.6656 0.61477 0.0
H2528 H 0.31409 0.68715 0.55382 0.0
H2529 H 0.3151 0.64907 0.54967 0.0
H2530 H 0.29762 0.68683 0.50249 0.0
H2531 H 0.29858 0.64938 0.49865 0.0
H2532 H 0.34252 0.69271 0.78442 0.0
H2533 H 0.30956 0.67997 0.69376 0.0
H2534 H 0.34599 0.67694 0.73198 0.0
H2535 H 0.30669 0.69562 0.74714 0.0
H2536 H 0.27756 0.66901 0.64028 0.0
H2537 H 0.29027 0.64483 0.735 0.0
H2538 H 0.35499 0.71549 0.61028 0.0
H2539 H 0.31742 0.71485 0.63636 0.0
H2540 H 0.34809 0.62978 0.6493 0.0
H2541 H 0.31268 0.63512 0.60329 0.0
H2542 H 0.34629 0.6084 0.63237 0.0
H2543 H 0.31153 0.61368 0.58676 0.0
H2544 H 0.36806 0.65633 0.57396 0.0
H2545 H 0.35816 0.67978 0.67382 0.0
H2546 H 0.38921 0.66018 0.59032 0.0
H2547 H 0.37947 0.68319 0.68863 0.0
H2548 H 0.34056 0.6483 0.43397 0.0
H2549 H 0.36112 0.62545 0.51458 0.0
H2550 H 0.34741 0.64325 0.80715 0.0
H2551 H 0.37796 0.6389 0.7269 0.0
Li2552 Li 0.09341 0.57088 0.38725 0.0
Li2553 Li 0.07711 0.58479 0.3745 0.0
Li2554 Li 0.09618 0.58793 0.33816 0.0
Li2555 Li 0.0941 0.59215 0.41219 0.0
C2556 C 0.08897 0.56663 0.30243 0.0
N2557 N 0.09699 0.55187 0.23977 0.0
C2558 C 0.08122 0.56279 0.27127 0.0
C2559 C 0.1008 0.56297 0.30174 0.0
C2560 C 0.08544 0.55532 0.23985 0.0
C2561 C 0.10468 0.55551 0.2698 0.0
C2562 C 0.07352 0.5762 0.45125 0.0
C2563 C 0.05658 0.58189 0.49249 0.0
N2564 N 0.05325 0.57033 0.49496 0.0
C2565 C 0.07 0.56436 0.45455 0.0
C2566 C 0.06683 0.58503 0.47071 0.0
C2567 C 0.0597 0.56158 0.47667 0.0
C2568 C 0.10337 0.55391 0.44003 0.0
N2569 N 0.09712 0.55506 0.40401 0.0
C2570 C 0.09415 0.53409 0.40072 0.0
C2571 C 0.09255 0.54544 0.38414 0.0
C2572 C 0.10032 0.53266 0.43848 0.0
C2573 C 0.10508 0.54275 0.4579 0.0
H2574 H 0.1067 0.56173 0.45557 0.0
H2575 H 0.08728 0.54659 0.3563 0.0
C2576 C 0.05404 0.59531 0.36623 0.0
N2577 N 0.06021 0.58501 0.36991 0.0
C2578 C 0.04164 0.59518 0.36624 0.0
C2579 C 0.04222 0.57386 0.37292 0.0
C2580 C 0.05457 0.57439 0.37204 0.0
C2581 C 0.03561 0.58436 0.37045 0.0
H2582 H 0.05872 0.60363 0.36382 0.0
H2583 H 0.0597 0.56631 0.37397 0.0
C2584 C 0.11839 0.58453 0.38031 0.0
N2585 N 0.14239 0.58841 0.37039 0.0
C2586 C 0.12256 0.59579 0.36964 0.0
C2587 C 0.12641 0.57523 0.38569 0.0
C2588 C 0.13473 0.59757 0.36483 0.0
C2589 C 0.13851 0.57737 0.38061 0.0
C2590 C 0.08584 0.61153 0.37671 0.0
C2591 C 0.0939 0.61942 0.35867 0.0
C2592 C 0.07803 0.61559 0.40735 0.0
C2593 C 0.09407 0.63121 0.37184 0.0
C2594 C 0.07848 0.62745 0.41973 0.0
N2595 N 0.08643 0.63495 0.40187 0.0
C2596 C 0.09753 0.60201 0.26643 0.0
C2597 C 0.11448 0.58991 0.27494 0.0
C2598 C 0.10282 0.60791 0.23297 0.0
N2599 N 0.10353 0.59347 0.28755 0.0
C2600 C 0.12014 0.5956 0.24161 0.0
C2601 C 0.11442 0.60497 0.2208 0.0
H2602 H 0.08876 0.60457 0.27666 0.0
H2603 H 0.11904 0.58296 0.29166 0.0
C2604 C 0.09642 0.59841 0.49701 0.0
N2605 N 0.09967 0.60164 0.45778 0.0
C2606 C 0.10064 0.60465 0.53157 0.0
C2607 C 0.1115 0.61745 0.48483 0.0
C2608 C 0.10707 0.61096 0.45125 0.0
C2609 C 0.10836 0.61428 0.52572 0.0
H2610 H 0.09067 0.59087 0.50157 0.0
H2611 H 0.1097 0.61332 0.42006 0.0
O2612 O 0.08495 0.57399 0.33319 0.0
O2613 O 0.08346 0.57912 0.42906 0.0
O2614 O 0.10651 0.5825 0.38443 0.0
O2615 O 0.08558 0.59991 0.36448 0.0
H2616 H 0.07204 0.56556 0.27139 0.0
H2617 H 0.10691 0.56581 0.32567 0.0
H2618 H 0.07954 0.55228 0.21553 0.0
H2619 H 0.11381 0.55261 0.26889 0.0
H2620 H 0.05128 0.58864 0.50745 0.0
H2621 H 0.07506 0.5574 0.43978 0.0
H2622 H 0.0695 0.5942 0.46897 0.0
H2623 H 0.05682 0.55247 0.4792 0.0
H2624 H 0.09018 0.52657 0.38508 0.0
H2625 H 0.10995 0.54203 0.4869 0.0
H2626 H 0.03683 0.60346 0.3642 0.0
H2627 H 0.03788 0.56533 0.37556 0.0
H2628 H 0.11645 0.60296 0.36386 0.0
H2629 H 0.12331 0.56643 0.39352 0.0
H2630 H 0.13807 0.60622 0.35631 0.0
H2631 H 0.14482 0.57025 0.38467 0.0
H2632 H 0.10012 0.61645 0.33527 0.0
H2633 H 0.07171 0.60965 0.42157 0.0
H2634 H 0.10032 0.63738 0.35833 0.0
H2635 H 0.07251 0.63069 0.44354 0.0
H2636 H 0.09794 0.61486 0.21726 0.0
H2637 H 0.12907 0.593 0.23339 0.0
H2638 H 0.09791 0.60195 0.56252 0.0
H2639 H 0.11758 0.62467 0.47882 0.0
Li2640 Li 0.1819 0.34449 0.14134 0.0
Li2641 Li 0.16719 0.32814 0.12595 0.0
Li2642 Li 0.16615 0.34779 0.08899 0.0
Li2643 Li 0.16119 0.34628 0.16142 0.0
C2644 C 0.18702 0.33864 0.05664 0.0
N2645 N 0.2027 0.34466 0.99399 0.0
C2646 C 0.18983 0.33044 0.02553 0.0
C2647 C 0.19217 0.3499 0.05591 0.0
C2648 C 0.19779 0.33365 0.99412 0.0
C2649 C 0.20008 0.35277 0.02397 0.0
C2650 C 0.17137 0.33353 0.22248 0.0
C2651 C 0.1591 0.32895 0.28202 0.0
N2652 N 0.16789 0.33271 0.30782 0.0
C2653 C 0.18031 0.33725 0.24964 0.0
C2654 C 0.16071 0.32924 0.23884 0.0
C2655 C 0.17838 0.3368 0.29265 0.0
C2656 C 0.20023 0.35625 0.18499 0.0
N2657 N 0.19787 0.34728 0.15793 0.0
C2658 C 0.21807 0.34095 0.15997 0.0
C2659 C 0.2065 0.33973 0.14507 0.0
C2660 C 0.22071 0.3499 0.18896 0.0
C2661 C 0.21164 0.35768 0.20126 0.0
H2662 H 0.19315 0.36205 0.19502 0.0
H2663 H 0.20434 0.33257 0.12398 0.0
C2664 C 0.16568 0.3054 0.08551 0.0
N2665 N 0.16604 0.31125 0.12258 0.0
C2666 C 0.1659 0.29298 0.08459 0.0
C2667 C 0.16657 0.29293 0.1599 0.0
C2668 C 0.16641 0.30527 0.15933 0.0
C2669 C 0.16655 0.28658 0.12222 0.0
H2670 H 0.16552 0.31038 0.05666 0.0
H2671 H 0.1668 0.31007 0.18834 0.0
C2672 C 0.16614 0.36922 0.13312 0.0
N2673 N 0.15533 0.39114 0.12903 0.0
C2674 C 0.15409 0.37008 0.12357 0.0
C2675 C 0.17269 0.3795 0.14068 0.0
C2676 C 0.14879 0.38124 0.12163 0.0
C2677 C 0.16706 0.3905 0.13843 0.0
C2678 C 0.14165 0.3351 0.11783 0.0
C2679 C 0.13283 0.34183 0.09837 0.0
C2680 C 0.13848 0.32511 0.14105 0.0
C2681 C 0.12097 0.33855 0.10307 0.0
C2682 C 0.12652 0.32212 0.145 0.0
N2683 N 0.11809 0.32885 0.12613 0.0
C2684 C 0.15322 0.35069 0.01411 0.0
C2685 C 0.16711 0.36599 0.02687 0.0
C2686 C 0.14893 0.35666 0.979 0.0
N2687 N 0.16201 0.35551 0.03762 0.0
C2688 C 0.16317 0.37222 0.99178 0.0
C2689 C 0.15382 0.36765 0.96768 0.0
H2690 H 0.14935 0.34231 0.02319 0.0
H2691 H 0.17404 0.36969 0.04614 0.0
C2692 C 0.1579 0.35882 0.23541 0.0
N2693 N 0.15168 0.35311 0.20517 0.0
C2694 C 0.15211 0.36374 0.2697 0.0
C2695 C 0.13346 0.35761 0.23984 0.0
C2696 C 0.13966 0.35254 0.20662 0.0
C2697 C 0.13968 0.3632 0.2724 0.0
H2698 H 0.16745 0.35935 0.23321 0.0
H2699 H 0.13478 0.34824 0.18214 0.0
O2700 O 0.1792 0.33565 0.08743 0.0
O2701 O 0.17306 0.3341 0.1802 0.0
O2702 O 0.17154 0.3584 0.13511 0.0
O2703 O 0.15331 0.33815 0.11338 0.0
H2704 H 0.18589 0.3217 0.02567 0.0
H2705 H 0.19008 0.35636 0.0797 0.0
H2706 H 0.20005 0.3274 0.96982 0.0
H2707 H 0.20413 0.36145 0.02299 0.0
H2708 H 0.15085 0.32576 0.29502 0.0
H2709 H 0.18868 0.34043 0.23771 0.0
H2710 H 0.15367 0.32636 0.21842 0.0
H2711 H 0.18521 0.3397 0.31398 0.0
H2712 H 0.22479 0.33471 0.15005 0.0
H2713 H 0.21334 0.36471 0.22341 0.0
H2714 H 0.16597 0.28847 0.05479 0.0
H2715 H 0.16683 0.28842 0.18969 0.0
H2716 H 0.14891 0.36222 0.11774 0.0
H2717 H 0.18203 0.37897 0.1481 0.0
H2718 H 0.13947 0.38203 0.11425 0.0
H2719 H 0.17203 0.39854 0.14416 0.0
H2720 H 0.13509 0.34956 0.08006 0.0
H2721 H 0.14515 0.3197 0.15581 0.0
H2722 H 0.11406 0.34372 0.0884 0.0
H2723 H 0.12395 0.31444 0.16302 0.0
H2724 H 0.14183 0.35274 0.96099 0.0
H2725 H 0.16714 0.38069 0.9844 0.0
H2726 H 0.15738 0.36776 0.29405 0.0
H2727 H 0.12389 0.3572 0.23969 0.0
Li2728 Li 0.40843 0.43174 0.88736 0.0
Li2729 Li 0.42377 0.41677 0.87135 0.0
Li2730 Li 0.40339 0.41514 0.83887 0.0
Li2731 Li 0.40669 0.41049 0.91232 0.0
C2732 C 0.41559 0.43689 0.80382 0.0
N2733 N 0.41541 0.45533 0.74717 0.0
C2734 C 0.42624 0.44195 0.79049 0.0
C2735 C 0.40487 0.44111 0.78797 0.0
C2736 C 0.42596 0.4513 0.76194 0.0
C2737 C 0.40495 0.45046 0.75944 0.0
C2738 C 0.42863 0.42501 0.94939 0.0
C2739 C 0.44487 0.41837 0.99234 0.0
N2740 N 0.44903 0.42966 0.9942 0.0
C2741 C 0.433 0.43657 0.95211 0.0
C2742 C 0.43455 0.41585 0.97001 0.0
C2743 C 0.44334 0.43874 0.97476 0.0
C2744 C 0.3997 0.44981 0.9394 0.0
N2745 N 0.40628 0.44789 0.90449 0.0
C2746 C 0.41217 0.46825 0.90308 0.0
C2747 C 0.41233 0.45688 0.88592 0.0
C2748 C 0.40587 0.47042 0.94015 0.0
C2749 C 0.39934 0.46105 0.95779 0.0
H2750 H 0.39515 0.44247 0.95401 0.0
H2751 H 0.41775 0.45516 0.85894 0.0
C2752 C 0.44551 0.40459 0.85428 0.0
N2753 N 0.44048 0.41524 0.86317 0.0
C2754 C 0.45782 0.40361 0.85035 0.0
C2755 C 0.45948 0.42459 0.86411 0.0
C2756 C 0.44717 0.42518 0.86733 0.0
C2757 C 0.46497 0.41368 0.85583 0.0
H2758 H 0.44 0.39684 0.85047 0.0
H2759 H 0.44293 0.43359 0.8734 0.0
C2760 C 0.38279 0.42345 0.87949 0.0
N2761 N 0.3593 0.42835 0.86236 0.0
C2762 C 0.37405 0.415 0.88769 0.0
C2763 C 0.37954 0.43451 0.86356 0.0
C2764 C 0.36224 0.4176 0.87852 0.0
C2765 C 0.36763 0.43679 0.85485 0.0
C2766 C 0.41405 0.39077 0.87363 0.0
C2767 C 0.40637 0.38267 0.85479 0.0
C2768 C 0.42205 0.38685 0.90386 0.0
C2769 C 0.40668 0.3708 0.8671 0.0
C2770 C 0.42209 0.37491 0.91535 0.0
N2771 N 0.41445 0.3672 0.89692 0.0
C2772 C 0.39818 0.41323 0.75143 0.0
C2773 C 0.38528 0.40268 0.79628 0.0
C2774 C 0.39218 0.40892 0.71636 0.0
N2775 N 0.39461 0.41013 0.79048 0.0
C2776 C 0.37911 0.39808 0.76215 0.0
C2777 C 0.38255 0.40115 0.72146 0.0
H2778 H 0.40585 0.41883 0.74736 0.0
H2779 H 0.38284 0.40001 0.82746 0.0
C2780 C 0.40462 0.4037 0.99673 0.0
N2781 N 0.40113 0.40098 0.95732 0.0
C2782 C 0.40014 0.39739 0.03071 0.0
C2783 C 0.38858 0.38553 0.98294 0.0
C2784 C 0.39327 0.3921 0.94988 0.0
C2785 C 0.39193 0.38823 0.02405 0.0
H2786 H 0.41072 0.41093 1.00188 0.0
H2787 H 0.39044 0.39027 0.91833 0.0
O2788 O 0.41572 0.42782 0.83214 0.0
O2789 O 0.41854 0.42271 0.92709 0.0
O2790 O 0.3944 0.42107 0.88848 0.0
O2791 O 0.41378 0.40247 0.86234 0.0
H2792 H 0.43463 0.43873 0.80219 0.0
H2793 H 0.39658 0.43711 0.79716 0.0
H2794 H 0.43413 0.45534 0.75152 0.0
H2795 H 0.39671 0.45382 0.74694 0.0
H2796 H 0.44956 0.41134 0.0083 0.0
H2797 H 0.42854 0.44379 0.93654 0.0
H2798 H 0.43119 0.40689 0.96902 0.0
H2799 H 0.44686 0.44763 0.97684 0.0
H2800 H 0.41721 0.4752 0.888 0.0
H2801 H 0.39448 0.46223 0.98659 0.0
H2802 H 0.46171 0.39503 0.84396 0.0
H2803 H 0.46464 0.43261 0.86778 0.0
H2804 H 0.37637 0.40647 0.90074 0.0
H2805 H 0.38612 0.44131 0.85829 0.0
H2806 H 0.35541 0.41109 0.88432 0.0
H2807 H 0.36501 0.44529 0.84229 0.0
H2808 H 0.40022 0.3855 0.83096 0.0
H2809 H 0.42817 0.39295 0.91823 0.0
H2810 H 0.40074 0.36445 0.85292 0.0
H2811 H 0.4282 0.37178 0.93887 0.0
H2812 H 0.39528 0.41136 0.68556 0.0
H2813 H 0.37173 0.39214 0.76759 0.0
H2814 H 0.40302 0.39971 0.06188 0.0
H2815 H 0.38214 0.37867 0.97647 0.0
H2816 H 0.26747 0.16795 0.29797 0.0
H2817 H 0.27548 0.13202 0.26215 0.0
H2818 H 0.25676 0.13077 0.22395 0.0
H2819 H 0.23826 0.14004 0.1995 0.0
H2820 H 0.23044 0.17609 0.23474 0.0
H2821 H 0.24893 0.17717 0.27395 0.0
C2822 C 0.26504 0.15981 0.28219 0.0
C2823 C 0.27282 0.15008 0.28305 0.0
C2824 C 0.25434 0.15921 0.25979 0.0
C2825 C 0.26966 0.13965 0.26181 0.0
C2826 C 0.25895 0.13892 0.23999 0.0
C2827 C 0.24057 0.1481 0.21595 0.0
C2828 C 0.23297 0.15798 0.21393 0.0
C2829 C 0.25125 0.14867 0.23854 0.0
C2830 C 0.23619 0.16841 0.23512 0.0
C2831 C 0.24673 0.16901 0.25786 0.0
H2832 H 0.09048 0.97902 0.51319 0.0
H2833 H 0.10807 0.99216 0.40308 0.0
H2834 H 0.10898 0.01199 0.43368 0.0
H2835 H 0.10423 0.02571 0.49086 0.0
H2836 H 0.0872 0.01234 0.60194 0.0
H2837 H 0.08641 0.99258 0.57143 0.0
C2838 C 0.09445 0.98625 0.49579 0.0
C2839 C 0.09914 0.98413 0.45579 0.0
C2840 C 0.09498 0.99761 0.51365 0.0
C2841 C 0.10445 0.99354 0.43399 0.0
C2842 C 0.10493 0.00489 0.45141 0.0
C2843 C 0.1005 0.01846 0.50874 0.0
C2844 C 0.09572 0.02061 0.54868 0.0
C2845 C 0.10019 0.00704 0.49119 0.0
C2846 C 0.09075 0.01106 0.5709 0.0
C2847 C 0.09036 0.99971 0.55357 0.0
H2848 H 0.22835 0.8556 0.74299 0.0
H2849 H 0.24195 0.83541 0.84696 0.0
H2850 H 0.26134 0.8345 0.81374 0.0
H2851 H 0.27451 0.83931 0.75511 0.0
H2852 H 0.26127 0.86011 0.6524 0.0
H2853 H 0.24178 0.86117 0.68574 0.0
C2854 C 0.23558 0.85114 0.7588 0.0
C2855 C 0.23357 0.84551 0.79747 0.0
C2856 C 0.24682 0.85078 0.73975 0.0
C2857 C 0.24309 0.83964 0.81691 0.0
C2858 C 0.25424 0.83917 0.79804 0.0
C2859 C 0.26734 0.84402 0.73992 0.0
C2860 C 0.26932 0.84955 0.70115 0.0
C2861 C 0.25619 0.84464 0.75936 0.0
C2862 C 0.25999 0.85582 0.68229 0.0
C2863 C 0.24884 0.85638 0.70127 0.0
H2864 H 0.42065 0.01371 0.94507 0.0
H2865 H 0.38482 0.02331 0.97781 0.0
H2866 H 0.38251 0.00469 0.0156 0.0
H2867 H 0.39094 0.98597 0.04214 0.0
H2868 H 0.42699 0.97684 0.01102 0.0
H2869 H 0.429 0.9951 0.97099 0.0
C2870 C 0.41235 0.01182 0.96072 0.0
C2871 C 0.40295 0.02 0.95846 0.0
C2872 C 0.41115 1.00119 0.98322 0.0
C2873 C 0.39218 0.01717 0.97832 0.0
C2874 C 0.39087 0.00654 1.00035 0.0
C2875 C 0.39921 0.98796 0.0264 0.0
C2876 C 0.40884 0.98009 0.03003 0.0
C2877 C 0.40033 0.99852 0.00333 0.0
C2878 C 0.41951 0.98283 0.00953 0.0
C2879 C 0.42065 0.99325 0.98633 0.0
H2880 H 0.77591 0.84928 0.73801 0.0
H2881 H 0.76084 0.85626 0.85919 0.0
H2882 H 0.74103 0.85714 0.82849 0.0
H2883 H 0.72789 0.8552 0.76751 0.0
H2884 H 0.74298 0.8478 0.64669 0.0
H2885 H 0.76287 0.84791 0.67684 0.0
C2886 C 0.76831 0.85117 0.75762 0.0
C2887 C 0.76987 0.85273 0.80084 0.0
C2888 C 0.75693 0.85155 0.73981 0.0
C2889 C 0.75988 0.85493 0.8259 0.0
C2890 C 0.74856 0.85548 0.80834 0.0
C2891 C 0.73555 0.85378 0.74771 0.0
C2892 C 0.73396 0.85151 0.7049 0.0
C2893 C 0.74696 0.8537 0.76538 0.0
C2894 C 0.74396 0.84948 0.67977 0.0
C2895 C 0.75534 0.84957 0.69698 0.0
H2896 H 0.8967 0.9786 0.50835 0.0
H2897 H 0.91281 0.99241 0.39623 0.0
H2898 H 0.91319 0.01219 0.42663 0.0
H2899 H 0.90955 0.02547 0.4856 0.0
H2900 H 0.89228 0.01202 0.59612 0.0
H2901 H 0.89179 0.99223 0.56564 0.0
C2902 C 0.90011 0.98595 0.49019 0.0
C2903 C 0.9048 0.98391 0.45004 0.0
C2904 C 0.90018 0.99739 0.50767 0.0
C2905 C 0.90936 0.99359 0.42746 0.0
C2906 C 0.90951 0.00495 0.44473 0.0
C2907 C 0.90546 0.0183 0.50287 0.0
C2908 C 0.901 0.02033 0.54332 0.0
C2909 C 0.90504 0.00694 0.48492 0.0
C2910 C 0.89599 0.01076 0.56529 0.0
C2911 C 0.89562 0.99942 0.54775 0.0
H2912 H 0.72818 0.15108 0.24273 0.0
H2913 H 0.74344 0.15832 0.36347 0.0
H2914 H 0.76324 0.15851 0.33275 0.0
H2915 H 0.7762 0.15714 0.27137 0.0
H2916 H 0.76099 0.14975 0.15066 0.0
H2917 H 0.74122 0.1491 0.18162 0.0
C2918 C 0.73585 0.15254 0.26245 0.0
C2919 C 0.7343 0.15468 0.3054 0.0
C2920 C 0.74723 0.15267 0.24454 0.0
C2921 C 0.74434 0.15677 0.33028 0.0
C2922 C 0.75569 0.15683 0.31276 0.0
C2923 C 0.76859 0.15522 0.25188 0.0
C2924 C 0.77012 0.15349 0.20869 0.0
C2925 C 0.75723 0.15487 0.26989 0.0
C2926 C 0.76009 0.15125 0.18388 0.0
C2927 C 0.74877 0.15082 0.2016 0.0
H2928 H 0.58658 0.02252 1.00031 0.0
H2929 H 0.617 0.01474 0.9235 0.0
H2930 H 0.61919 0.99554 0.9579 0.0
H2931 H 0.61231 0.98083 0.00927 0.0
H2932 H 0.58124 0.9884 0.08324 0.0
H2933 H 0.57952 0.00778 0.05047 0.0
C2934 C 0.59361 0.01658 0.99061 0.0
C2935 C 0.60157 0.0201 0.9591 0.0
C2936 C 0.59475 0.00551 0.01021 0.0
C2937 C 0.61079 0.01235 0.94785 0.0
C2938 C 0.61202 1.00133 0.96738 0.0
C2939 C 0.60511 0.98667 0.01806 0.0
C2940 C 0.59697 0.98311 0.04898 0.0
C2941 C 0.60403 0.99779 0.99854 0.0
C2942 C 0.5878 0.99093 0.06024 0.0
C2943 C 0.58673 0.002 0.04121 0.0
H2944 H 0.72845 0.64863 0.75726 0.0
H2945 H 0.74252 0.66234 0.64167 0.0
H2946 H 0.76229 0.66311 0.67219 0.0
H2947 H 0.77553 0.6603 0.73191 0.0
H2948 H 0.76175 0.64561 0.84644 0.0
H2949 H 0.74194 0.64487 0.81604 0.0
C2950 C 0.73585 0.65162 0.73846 0.0
C2951 C 0.73392 0.65546 0.69715 0.0
C2952 C 0.74726 0.65194 0.7561 0.0
C2953 C 0.74365 0.65951 0.67369 0.0
C2954 C 0.755 0.65989 0.69106 0.0
C2955 C 0.76826 0.65674 0.75014 0.0
C2956 C 0.77021 0.65302 0.79156 0.0
C2957 C 0.7569 0.65619 0.73228 0.0
C2958 C 0.76054 0.64871 0.81476 0.0
C2959 C 0.7492 0.6482 0.79728 0.0
H2960 H 0.58216 0.48796 0.9489 0.0
H2961 H 0.61909 0.48036 0.97084 0.0
H2962 H 0.6212 0.49898 0.00904 0.0
H2963 H 0.61231 0.51704 0.03892 0.0
H2964 H 0.57532 0.52445 0.01652 0.0
H2965 H 0.57343 0.50613 0.97703 0.0
C2966 C 0.59066 0.49033 0.96219 0.0
C2967 C 0.60043 0.48272 0.95706 0.0
C2968 C 0.59178 0.50096 0.98461 0.0
C2969 C 0.61144 0.48609 0.97384 0.0
C2970 C 0.61264 0.4967 0.99603 0.0
C2971 C 0.60385 0.5147 0.02514 0.0
C2972 C 0.59395 0.5221 0.03126 0.0
C2973 C 0.60283 0.50416 1.00195 0.0
C2974 C 0.58305 0.51883 0.0133 0.0
C2975 C 0.58197 0.50839 0.99032 0.0
H2976 H 0.74036 0.33628 0.31515 0.0
H2977 H 0.72588 0.36613 0.2479 0.0
H2978 H 0.74404 0.36771 0.20734 0.0
H2979 H 0.7639 0.36026 0.18898 0.0
H2980 H 0.77776 0.32966 0.25305 0.0
H2981 H 0.75987 0.32855 0.29574 0.0
C2982 C 0.74107 0.34307 0.29137 0.0
C2983 C 0.73168 0.3511 0.28509 0.0
C2984 C 0.75143 0.34374 0.2671 0.0
C2985 C 0.73298 0.35995 0.25441 0.0
C2986 C 0.74335 0.36081 0.23073 0.0
C2987 C 0.763 0.35338 0.21239 0.0
C2988 C 0.77212 0.34502 0.21768 0.0
C2989 C 0.75262 0.35272 0.23665 0.0
C2990 C 0.7708 0.3361 0.24795 0.0
C2991 C 0.7606 0.3355 0.27256 0.0
H2992 H 0.90714 0.47761 0.48442 0.0
H2993 H 0.89478 0.49182 0.60162 0.0
H2994 H 0.89428 0.51167 0.57142 0.0
H2995 H 0.89772 0.52509 0.51215 0.0
H2996 H 0.90925 0.51066 0.39423 0.0
H2997 H 0.90961 0.49082 0.42435 0.0
C2998 C 0.90414 0.48499 0.50329 0.0
C2999 C 0.90101 0.48314 0.54538 0.0
C3000 C 0.90376 0.49639 0.48562 0.0
C3001 C 0.89741 0.49294 0.56937 0.0
C3002 C 0.89704 0.50431 0.55204 0.0
C3003 C 0.90014 0.5176 0.49279 0.0
C3004 C 0.9035 0.51944 0.45091 0.0
C3005 C 0.90025 0.50615 0.51024 0.0
C3006 C 0.90681 0.50959 0.42667 0.0
C3007 C 0.90695 0.4982 0.44382 0.0
H3008 H 0.27481 0.35072 0.23972 0.0
H3009 H 0.25947 0.35205 0.36279 0.0
H3010 H 0.23957 0.35251 0.33249 0.0
H3011 H 0.22652 0.35189 0.27093 0.0
H3012 H 0.24189 0.34971 0.14804 0.0
H3013 H 0.26179 0.35028 0.17822 0.0
C3014 C 0.26711 0.35126 0.25984 0.0
C3015 C 0.2686 0.35141 0.30342 0.0
C3016 C 0.25571 0.35132 0.24221 0.0
C3017 C 0.25853 0.35188 0.32917 0.0
C3018 C 0.24717 0.35216 0.31186 0.0
C3019 C 0.23424 0.35168 0.25079 0.0
C3020 C 0.23275 0.3508 0.20732 0.0
C3021 C 0.24564 0.3518 0.26843 0.0
C3022 C 0.24282 0.35033 0.1816 0.0
C3023 C 0.25419 0.35067 0.19883 0.0
H3024 H 0.4187 0.51939 0.0246 0.0
H3025 H 0.38193 0.51761 0.06083 0.0
H3026 H 0.37981 0.49877 0.0239 0.0
H3027 H 0.38847 0.48272 0.98142 0.0
H3028 H 0.4255 0.48437 0.94809 0.0
H3029 H 0.4274 0.5033 0.98376 0.0
C3030 C 0.41025 0.51482 0.02499 0.0
C3031 C 0.40051 0.51992 0.04576 0.0
C3032 C 0.40911 0.50397 0.00393 0.0
C3033 C 0.38956 0.51397 0.04489 0.0
C3034 C 0.38835 0.50316 0.02391 0.0
C3035 C 0.39697 0.48718 0.98216 0.0
C3036 C 0.40679 0.48211 0.96164 0.0
C3037 C 0.39807 0.49806 0.00331 0.0
C3038 C 0.41771 0.48813 0.9627 0.0
C3039 C 0.41885 0.49893 0.98346 0.0
H3040 H 0.26986 0.63928 0.73043 0.0
H3041 H 0.26831 0.67657 0.70047 0.0
H3042 H 0.2493 0.67819 0.73566 0.0
H3043 H 0.23305 0.66916 0.77468 0.0
H3044 H 0.23487 0.6322 0.80854 0.0
H3045 H 0.25382 0.63037 0.77218 0.0
C3046 C 0.26543 0.64779 0.73186 0.0
C3047 C 0.27053 0.65774 0.71224 0.0
C3048 C 0.25452 0.64875 0.7529 0.0
C3049 C 0.26453 0.66866 0.71424 0.0
C3050 C 0.25367 0.66965 0.73477 0.0
C3051 C 0.23765 0.66073 0.77479 0.0
C3052 C 0.2325 0.65085 0.79456 0.0
C3053 C 0.24859 0.65976 0.75419 0.0
C3054 C 0.23853 0.63994 0.79329 0.0
C3055 C 0.2494 0.6389 0.77264 0.0
H3056 H 0.10444 0.47909 0.49527 0.0
H3057 H 0.09479 0.49459 0.61342 0.0
H3058 H 0.0947 0.51431 0.58178 0.0
H3059 H 0.09674 0.52707 0.52006 0.0
H3060 H 0.10593 0.51156 0.40145 0.0
H3061 H 0.10682 0.49193 0.43368 0.0
C3062 C 0.10247 0.48681 0.51418 0.0
C3063 C 0.09966 0.48538 0.55668 0.0
C3064 C 0.10229 0.49811 0.49563 0.0
C3065 C 0.09691 0.49545 0.5806 0.0
C3066 C 0.09688 0.50672 0.56255 0.0
C3067 C 0.09909 0.51941 0.50137 0.0
C3068 C 0.1013 0.52079 0.45842 0.0
C3069 C 0.09947 0.50815 0.52003 0.0
C3070 C 0.1041 0.51074 0.4345 0.0
C3071 C 0.10465 0.49952 0.45294 0.0
H3072 H 0.13483 0.11983 0.95878 0.0
H3073 H 0.16118 0.13714 0.88259 0.0
H3074 H 0.15258 0.12829 0.82006 0.0
H3075 H 0.13746 0.11579 0.78676 0.0
H3076 H 0.111 0.09864 0.86294 0.0
H3077 H 0.11998 0.10698 0.92562 0.0
C3078 C 0.1388 0.12155 0.92858 0.0
C3079 C 0.14864 0.12919 0.92554 0.0
C3080 C 0.13382 0.1164 0.89265 0.0
C3081 C 0.15352 0.13144 0.88593 0.0
C3082 C 0.14864 0.12633 0.85011 0.0
C3083 C 0.13361 0.11392 0.81703 0.0
C3084 C 0.12354 0.10658 0.81992 0.0
C3085 C 0.13874 0.11886 0.85304 0.0
C3086 C 0.11882 0.10412 0.85962 0.0
C3087 C 0.1239 0.10896 0.89556 0.0
H3088 H 0.12893 0.86873 0.05974 0.0
H3089 H 0.16269 0.88565 0.08068 0.0
H3090 H 0.15442 0.89645 0.13992 0.0
H3091 H 0.13753 0.90129 0.18545 0.0
H3092 H 0.10381 0.88429 0.16423 0.0
H3093 H 0.11205 0.87366 0.10476 0.0
C3094 C 0.13447 0.87487 0.0769 0.0
C3095 C 0.14644 0.87634 0.06556 0.0
C3096 C 0.12963 0.88115 0.11079 0.0
C3097 C 0.1535 0.8842 0.08888 0.0
C3098 C 0.14875 0.89045 0.12266 0.0
C3099 C 0.13199 0.89521 0.16801 0.0
C3100 C 0.12002 0.89367 0.17942 0.0
C3101 C 0.13683 0.88899 0.13394 0.0
C3102 C 0.11297 0.88585 0.15592 0.0
C3103 C 0.11771 0.87966 0.12202 0.0
H3104 H 0.37415 0.90639 0.33841 0.0
H3105 H 0.38286 0.87347 0.27723 0.0
H3106 H 0.37334 0.86238 0.33322 0.0
H3107 H 0.36294 0.8619 0.40044 0.0
H3108 H 0.35391 0.89477 0.46143 0.0
H3109 H 0.36336 0.9059 0.4053 0.0
C3110 C 0.37403 0.89678 0.33744 0.0
C3111 C 0.37921 0.89081 0.30343 0.0
C3112 C 0.36853 0.89041 0.36993 0.0
C3113 C 0.37881 0.87835 0.30259 0.0
C3114 C 0.37342 0.87197 0.33478 0.0
C3115 C 0.36288 0.8715 0.40129 0.0
C3116 C 0.35771 0.87743 0.43544 0.0
C3117 C 0.36825 0.87789 0.36863 0.0
C3118 C 0.35796 0.88991 0.43605 0.0
C3119 C 0.36331 0.89631 0.40376 0.0
H3120 H 0.38841 0.12114 0.67844 0.0
H3121 H 0.36308 0.09257 0.68626 0.0
H3122 H 0.35149 0.10149 0.63021 0.0
H3123 H 0.34848 0.11742 0.5788 0.0
H3124 H 0.37454 0.14529 0.56856 0.0
H3125 H 0.38582 0.1366 0.62554 0.0
C3126 C 0.38045 0.11674 0.66759 0.0
C3127 C 0.37667 0.10616 0.68685 0.0
C3128 C 0.37387 0.12184 0.63492 0.0
C3129 C 0.36616 0.10079 0.67265 0.0
C3130 C 0.35954 0.10585 0.64034 0.0
C3131 C 0.35668 0.12156 0.58872 0.0
C3132 C 0.36053 0.1321 0.56937 0.0
C3133 C 0.3633 0.11639 0.62124 0.0
C3134 C 0.37114 0.13735 0.58326 0.0
C3135 C 0.3777 0.13232 0.61571 0.0
H3136 H 0.85664 0.88886 0.05417 0.0
H3137 H 0.86503 0.85376 0.09869 0.0
H3138 H 0.87556 0.86222 0.15813 0.0
H3139 H 0.88268 0.87958 0.19708 0.0
H3140 H 0.87444 0.91468 0.15258 0.0
H3141 H 0.86361 0.90624 0.09359 0.0
C3142 C 0.86082 0.88306 0.07678 0.0
C3143 C 0.86002 0.87068 0.07187 0.0
C3144 C 0.86692 0.88799 0.1109 0.0
C3145 C 0.86535 0.86331 0.10188 0.0
C3146 C 0.87146 0.86814 0.13577 0.0
C3147 C 0.8786 0.88538 0.17429 0.0
C3148 C 0.87943 0.89775 0.17918 0.0
C3149 C 0.87235 0.88046 0.1405 0.0
C3150 C 0.87388 0.90514 0.14976 0.0
C3151 C 0.86772 0.90031 0.11591 0.0
H3152 H 0.84911 0.13178 0.89931 0.0
H3153 H 0.87607 0.12231 0.98881 0.0
H3154 H 0.88697 0.11169 0.93497 0.0
H3155 H 0.88895 0.10503 0.86244 0.0
H3156 H 0.86256 0.11533 0.77197 0.0
H3157 H 0.85141 0.12559 0.82612 0.0
C3158 C 0.85742 0.12749 0.90701 0.0
C3159 C 0.86166 0.12781 0.94833 0.0
C3160 C 0.86377 0.12147 0.87567 0.0
C3161 C 0.87241 0.12205 0.95761 0.0
C3162 C 0.87873 0.11602 0.92671 0.0
C3163 C 0.88082 0.10961 0.85438 0.0
C3164 C 0.87663 0.10931 0.81301 0.0
C3165 C 0.87449 0.11566 0.88563 0.0
C3166 C 0.86595 0.11518 0.80356 0.0
C3167 C 0.85958 0.12115 0.83451 0.0
H3168 H 0.62625 0.1239 0.70879 0.0
H3169 H 0.62566 0.08946 0.65021 0.0
H3170 H 0.63535 0.09767 0.58861 0.0
H3171 H 0.64391 0.1147 0.55093 0.0
H3172 H 0.64558 0.14875 0.61205 0.0
H3173 H 0.63571 0.14054 0.67307 0.0
C3174 C 0.62839 0.11809 0.68295 0.0
C3175 C 0.62516 0.10603 0.68452 0.0
C3176 C 0.63418 0.12282 0.64784 0.0
C3177 C 0.62781 0.0988 0.64995 0.0
C3178 C 0.63346 0.10348 0.6147 0.0
C3179 C 0.64227 0.12031 0.57778 0.0
C3180 C 0.64543 0.13239 0.57645 0.0
C3181 C 0.63668 0.11548 0.61325 0.0
C3182 C 0.64306 0.1395 0.61157 0.0
C3183 C 0.63746 0.13479 0.64672 0.0
H3184 H 0.64402 0.88629 0.4568 0.0
H3185 H 0.64926 0.85368 0.38917 0.0
H3186 H 0.63979 0.86228 0.32771 0.0
H3187 H 0.62965 0.87893 0.29351 0.0
H3188 H 0.62428 0.91153 0.36111 0.0
H3189 H 0.63414 0.90308 0.42214 0.0
C3190 C 0.64321 0.88111 0.42845 0.0
C3191 C 0.64736 0.86935 0.42764 0.0
C3192 C 0.63766 0.8861 0.39325 0.0
C3193 C 0.64605 0.86271 0.39082 0.0
C3194 C 0.64067 0.86764 0.35559 0.0
C3195 C 0.63074 0.88423 0.32143 0.0
C3196 C 0.62623 0.89586 0.32263 0.0
C3197 C 0.63639 0.8793 0.35649 0.0
C3198 C 0.62755 0.90252 0.35941 0.0
C3199 C 0.63324 0.89771 0.39429 0.0
H3200 H 0.65634 0.62022 0.41291 0.0
H3201 H 0.62367 0.63342 0.46546 0.0
H3202 H 0.61248 0.62399 0.40978 0.0
H3203 H 0.61185 0.61239 0.34509 0.0
H3204 H 0.64443 0.59991 0.29034 0.0
H3205 H 0.65573 0.60887 0.34731 0.0
C3206 C 0.64679 0.62114 0.41206 0.0
C3207 C 0.64091 0.62747 0.44385 0.0
C3208 C 0.64035 0.61586 0.37933 0.0
C3209 C 0.62848 0.6284 0.44218 0.0
C3210 C 0.62204 0.62309 0.41006 0.0
C3211 C 0.62142 0.61153 0.34585 0.0
C3212 C 0.62728 0.60545 0.31358 0.0
C3213 C 0.62786 0.61679 0.37848 0.0
C3214 C 0.6397 0.60461 0.31465 0.0
C3215 C 0.64617 0.6097 0.3473 0.0
H3216 H 0.63751 0.39916 0.68924 0.0
H3217 H 0.60277 0.38528 0.66136 0.0
H3218 H 0.61077 0.37459 0.60161 0.0
H3219 H 0.62765 0.36876 0.55806 0.0
H3220 H 0.66243 0.38263 0.58546 0.0
H3221 H 0.65444 0.39342 0.64517 0.0
C3222 C 0.63169 0.39374 0.67027 0.0
C3223 C 0.61952 0.39311 0.67986 0.0
C3224 C 0.63637 0.3875 0.636 0.0
C3225 C 0.61212 0.38614 0.65446 0.0
C3226 C 0.61671 0.37993 0.62039 0.0
C3227 C 0.63349 0.37424 0.57677 0.0
C3228 C 0.64565 0.37484 0.56709 0.0
C3229 C 0.62882 0.38053 0.61088 0.0
C3230 C 0.65307 0.38183 0.59235 0.0
C3231 C 0.64849 0.38809 0.62641 0.0
H3232 H 0.86789 0.40352 0.8249 0.0
H3233 H 0.89865 0.38072 0.82625 0.0
H3234 H 0.89022 0.36943 0.88354 0.0
H3235 H 0.87401 0.36568 0.93294 0.0
H3236 H 0.84273 0.38756 0.92924 0.0
H3237 H 0.8513 0.39924 0.87239 0.0
C3238 C 0.87273 0.39601 0.83726 0.0
C3239 C 0.88403 0.39317 0.82116 0.0
C3240 C 0.86767 0.38926 0.86969 0.0
C3241 C 0.89013 0.38343 0.83838 0.0
C3242 C 0.88524 0.37683 0.87101 0.0
C3243 C 0.86909 0.37303 0.91977 0.0
C3244 C 0.85776 0.37576 0.93544 0.0
C3245 C 0.87404 0.37966 0.88694 0.0
C3246 C 0.85142 0.38521 0.91757 0.0
C3247 C 0.85635 0.39193 0.88521 0.0
H3248 H 0.86535 0.5988 0.17834 0.0
H3249 H 0.89113 0.62655 0.19571 0.0
H3250 H 0.88263 0.63764 0.13759 0.0
H3251 H 0.86799 0.63945 0.08166 0.0
H3252 H 0.84144 0.61227 0.06609 0.0
H3253 H 0.85025 0.60091 0.12292 0.0
C3254 C 0.86913 0.60724 0.16916 0.0
C3255 C 0.87885 0.61185 0.19135 0.0
C3256 C 0.86408 0.61367 0.13592 0.0
C3257 C 0.88358 0.62286 0.1794 0.0
C3258 C 0.87874 0.62919 0.14608 0.0
C3259 C 0.86398 0.63114 0.09097 0.0
C3260 C 0.85402 0.62679 0.0693 0.0
C3261 C 0.86896 0.62472 0.12424 0.0
C3262 C 0.84919 0.61582 0.08156 0.0
C3263 C 0.85419 0.60932 0.11433 0.0
H3264 H 0.35735 0.38678 0.55222 0.0
H3265 H 0.3577 0.35253 0.61186 0.0
H3266 H 0.36717 0.3611 0.67335 0.0
H3267 H 0.3757 0.37825 0.7098 0.0
H3268 H 0.37562 0.41249 0.65007 0.0
H3269 H 0.36575 0.40402 0.58908 0.0
C3270 C 0.3594 0.38123 0.57887 0.0
C3271 C 0.3568 0.36903 0.57742 0.0
C3272 C 0.36495 0.38621 0.61406 0.0
C3273 C 0.35969 0.36191 0.61197 0.0
C3274 C 0.36507 0.36682 0.64722 0.0
C3275 C 0.37341 0.38389 0.68362 0.0
C3276 C 0.37637 0.396 0.68461 0.0
C3277 C 0.36779 0.37894 0.64856 0.0
C3278 C 0.37354 0.40313 0.65003 0.0
C3279 C 0.36784 0.3983 0.6152 0.0
H3280 H 0.37388 0.62736 0.45706 0.0
H3281 H 0.33983 0.63008 0.39645 0.0
H3282 H 0.34772 0.61996 0.3352 0.0
H3283 H 0.36427 0.6102 0.29877 0.0
H3284 H 0.39812 0.60709 0.3603 0.0
H3285 H 0.39019 0.61715 0.42165 0.0
C3286 C 0.3681 0.62561 0.43077 0.0
C3287 C 0.35625 0.62954 0.43162 0.0
C3288 C 0.37264 0.61962 0.39579 0.0
C3289 C 0.34903 0.62736 0.39664 0.0
C3290 C 0.35351 0.62148 0.36162 0.0
C3291 C 0.36992 0.61176 0.32556 0.0
C3292 C 0.38178 0.60787 0.32485 0.0
C3293 C 0.36531 0.61759 0.3608 0.0
C3294 C 0.38892 0.60983 0.36011 0.0
C3295 C 0.38442 0.61567 0.39514 0.0
H3296 H 0.13645 0.64164 0.09272 0.0
H3297 H 0.15201 0.60963 0.04374 0.0
H3298 H 0.14239 0.59803 0.09838 0.0
H3299 H 0.12911 0.59685 0.1591 0.0
H3300 H 0.11381 0.62894 0.2087 0.0
H3301 H 0.1237 0.64055 0.15485 0.0
C3302 C 0.13786 0.63215 0.09433 0.0
C3303 C 0.14493 0.62653 0.06404 0.0
C3304 C 0.13225 0.62549 0.12578 0.0
C3305 C 0.14651 0.61418 0.06631 0.0
C3306 C 0.14103 0.60753 0.09765 0.0
C3307 C 0.12802 0.60639 0.15839 0.0
C3308 C 0.12062 0.61196 0.18785 0.0
C3309 C 0.1338 0.61307 0.12738 0.0
C3310 C 0.11924 0.62435 0.18603 0.0
C3311 C 0.12498 0.63103 0.15538 0.0
H3312 H 0.14134 0.39808 0.80741 0.0
H3313 H 0.10583 0.38987 0.84817 0.0
H3314 H 0.11372 0.37886 0.90749 0.0
H3315 H 0.13068 0.37131 0.94752 0.0
H3316 H 0.1662 0.37937 0.90693 0.0
H3317 H 0.15834 0.39063 0.8479 0.0
C3318 C 0.13532 0.39384 0.82918 0.0
C3319 C 0.12299 0.39485 0.82327 0.0
C3320 C 0.13993 0.38746 0.86327 0.0
C3321 C 0.11535 0.38941 0.85218 0.0
C3322 C 0.11985 0.38303 0.886 0.0
C3323 C 0.1367 0.37545 0.92555 0.0
C3324 C 0.14902 0.37444 0.93157 0.0
C3325 C 0.13212 0.38195 0.89177 0.0
C3326 C 0.15669 0.38006 0.90322 0.0
C3327 C 0.1522 0.38647 0.86936 0.0
H3328 H 0.15519 0.27036 0.07258 0.0
H3329 H 0.18056 0.27314 0.17289 0.0
H3330 H 0.18192 0.25166 0.17677 0.0
H3331 H 0.17571 0.23208 0.15301 0.0
H3332 H 0.15117 0.22899 0.05034 0.0
H3333 H 0.14965 0.25054 0.04637 0.0
C3334 C 0.1611 0.26627 0.09498 0.0
C3335 C 0.16764 0.27342 0.12272 0.0
C3336 C 0.16196 0.25383 0.09686 0.0
C3337 C 0.1752 0.26791 0.15175 0.0
C3338 C 0.17606 0.2556 0.15386 0.0
C3339 C 0.17015 0.23608 0.12928 0.0
C3340 C 0.16357 0.22884 0.10206 0.0
C3341 C 0.16944 0.24847 0.12676 0.0
C3342 C 0.15622 0.23428 0.07218 0.0
C3343 C 0.1554 0.24663 0.06966 0.0
H3344 H 0.98244 0.91879 0.42211 0.0
H3345 H 0.97996 0.90885 0.29247 0.0
H3346 H 1.00155 0.90787 0.28785 0.0
H3347 H 0.02121 0.91058 0.32003 0.0
H3348 H 0.02351 0.92063 0.44966 0.0
H3349 H 0.00196 0.92105 0.45456 0.0
C3350 C 0.98661 0.91649 0.39274 0.0
C3351 C 0.97955 0.91394 0.35767 0.0
C3352 C 0.99903 0.91604 0.3902 0.0
C3353 C 0.98514 0.91074 0.32009 0.0
C3354 C 0.9975 0.91025 0.31735 0.0
C3355 C 0.01699 0.91274 0.34946 0.0
C3356 C 0.024 0.91566 0.38432 0.0
C3357 C 0.00455 0.91294 0.35215 0.0
C3358 C 0.01836 0.91854 0.42212 0.0
C3359 C 0.00602 0.91872 0.42504 0.0
H3360 H 0.32938 0.77153 0.66068 0.0
H3361 H 0.35031 0.77439 0.54848 0.0
H3362 H 0.35185 0.75283 0.5448 0.0
H3363 H 0.34669 0.73307 0.57223 0.0
H3364 H 0.32535 0.73038 0.68351 0.0
H3365 H 0.32436 0.75193 0.68825 0.0
C3366 C 0.33419 0.76746 0.63516 0.0
C3367 C 0.33968 0.77462 0.60485 0.0
C3368 C 0.33492 0.75505 0.63293 0.0
C3369 C 0.34609 0.76914 0.57253 0.0
C3370 C 0.34692 0.75679 0.57024 0.0
C3371 C 0.34191 0.73721 0.59769 0.0
C3372 C 0.33605 0.73012 0.62732 0.0
C3373 C 0.34133 0.74965 0.60017 0.0
C3374 C 0.3298 0.73563 0.65994 0.0
C3375 C 0.32927 0.74795 0.6628 0.0
H3376 H 0.48271 0.07485 0.889 0.0
H3377 H 0.48019 0.10422 0.80318 0.0
H3378 H 0.50174 0.10598 0.8023 0.0
H3379 H 0.52139 0.09932 0.82672 0.0
H3380 H 0.52364 0.06915 0.9092 0.0
H3381 H 0.50216 0.06753 0.91006 0.0
C3382 C 0.48683 0.08152 0.86946 0.0
C3383 C 0.47973 0.08938 0.84623 0.0
C3384 C 0.49924 0.08238 0.86859 0.0
C3385 C 0.48534 0.09814 0.82193 0.0
C3386 C 0.49771 0.09911 0.82117 0.0
C3387 C 0.5172 0.09231 0.8445 0.0
C3388 C 0.5242 0.08448 0.86831 0.0
C3389 C 0.50476 0.0913 0.8445 0.0
C3390 C 0.51854 0.0755 0.89138 0.0
C3391 C 0.50622 0.0745 0.89168 0.0
H3392 H 0.17754 0.77078 0.85949 0.0
H3393 H 0.14976 0.77331 0.95172 0.0
H3394 H 0.1481 0.75178 0.95329 0.0
H3395 H 0.15428 0.73216 0.92752 0.0
H3396 H 0.18337 0.72987 0.84025 0.0
H3397 H 0.18477 0.75132 0.83822 0.0
C3398 C 0.17125 0.76669 0.88062 0.0
C3399 C 0.16375 0.7738 0.90524 0.0
C3400 C 0.17051 0.75427 0.88215 0.0
C3401 C 0.15551 0.76818 0.93166 0.0
C3402 C 0.1546 0.75581 0.93288 0.0
C3403 C 0.16104 0.73631 0.90848 0.0
C3404 C 0.16855 0.72928 0.88351 0.0
C3405 C 0.16202 0.74876 0.90808 0.0
C3406 C 0.1772 0.73495 0.85888 0.0
C3407 C 0.1781 0.74727 0.85793 0.0
H3408 H 0.48357 0.90457 0.17583 0.0
H3409 H 0.48114 0.93109 0.07914 0.0
H3410 H 0.50266 0.93215 0.07529 0.0
H3411 H 0.52221 0.92556 0.09893 0.0
H3412 H 0.52487 0.8989 0.19489 0.0
H3413 H 0.50326 0.89767 0.19865 0.0
C3414 C 0.48774 0.9105 0.15367 0.0
C3415 C 0.48069 0.91781 0.12811 0.0
C3416 C 0.50019 0.91101 0.15128 0.0
C3417 C 0.4863 0.92553 0.09984 0.0
C3418 C 0.49863 0.92609 0.09736 0.0
C3419 C 0.51807 0.91954 0.12091 0.0
C3420 C 0.52517 0.91237 0.1467 0.0
C3421 C 0.50566 0.91891 0.12302 0.0
C3422 C 0.51963 0.90445 0.17441 0.0
C3423 C 0.50727 0.90379 0.17675 0.0
H3424 H 0.33371 0.2318 0.32808 0.0
H3425 H 0.34421 0.22862 0.45693 0.0
H3426 H 0.34472 0.2502 0.46347 0.0
H3427 H 0.34148 0.26999 0.43318 0.0
H3428 H 0.33144 0.27302 0.30366 0.0
H3429 H 0.33124 0.25152 0.29712 0.0
C3430 C 0.33606 0.23584 0.35764 0.0
C3431 C 0.33886 0.22861 0.392 0.0
C3432 C 0.33634 0.24824 0.36118 0.0
C3433 C 0.3421 0.23397 0.4299 0.0
C3434 C 0.34233 0.24632 0.43373 0.0
C3435 C 0.33939 0.26597 0.40337 0.0
C3436 C 0.33636 0.27318 0.36912 0.0
C3437 C 0.33941 0.25355 0.39962 0.0
C3438 C 0.33356 0.26774 0.33085 0.0
C3439 C 0.33352 0.25542 0.32695 0.0
H3440 H 0.98182 0.10112 0.62277 0.0
H3441 H 0.97975 0.06676 0.68178 0.0
H3442 H 1.00125 0.06559 0.68356 0.0
H3443 H 0.02079 0.07416 0.6678 0.0
H3444 H 0.02295 0.10904 0.61368 0.0
H3445 H 1.0013 0.11029 0.61159 0.0
C3446 C 0.98602 0.09345 0.63671 0.0
C3447 C 0.97904 0.08398 0.65157 0.0
C3448 C 0.99846 0.09292 0.63863 0.0
C3449 C 0.98478 0.07407 0.66899 0.0
C3450 C 0.99713 0.07341 0.6704 0.0
C3451 C 0.01649 0.08202 0.65558 0.0
C3452 C 0.02341 0.09146 0.6407 0.0
C3453 C 0.00406 0.08273 0.65501 0.0
C3454 C 0.01778 0.10168 0.62545 0.0
C3455 C 0.00541 0.10237 0.62412 0.0
H3456 H 0.82477 0.7319 0.85364 0.0
H3457 H 0.85426 0.7294 0.93883 0.0
H3458 H 0.85579 0.75099 0.94076 0.0
H3459 H 0.84846 0.77064 0.91942 0.0
H3460 H 0.81889 0.77302 0.83453 0.0
H3461 H 0.81755 0.75146 0.83206 0.0
C3462 C 0.83146 0.73607 0.87298 0.0
C3463 C 0.83937 0.72901 0.89613 0.0
C3464 C 0.83225 0.74849 0.87417 0.0
C3465 C 0.84813 0.73459 0.92034 0.0
C3466 C 0.84897 0.74695 0.92165 0.0
C3467 C 0.84179 0.76644 0.9001 0.0
C3468 C 0.83375 0.77347 0.87738 0.0
C3469 C 0.84107 0.754 0.89873 0.0
C3470 C 0.82508 0.76785 0.85287 0.0
C3471 C 0.82434 0.75551 0.85124 0.0
H3472 H 0.66404 0.23291 0.33409 0.0
H3473 H 0.66354 0.22997 0.46826 0.0
H3474 H 0.66324 0.25156 0.47446 0.0
H3475 H 0.66407 0.27131 0.4417 0.0
H3476 H 0.66459 0.27404 0.30739 0.0
H3477 H 0.66421 0.25252 0.30146 0.0
C3478 C 0.66393 0.23698 0.36473 0.0
C3479 C 0.66388 0.2298 0.40063 0.0
C3480 C 0.66388 0.24938 0.36808 0.0
C3481 C 0.66348 0.23526 0.44006 0.0
C3482 C 0.66339 0.24761 0.44365 0.0
C3483 C 0.66396 0.26721 0.41114 0.0
C3484 C 0.66448 0.27433 0.37508 0.0
C3485 C 0.66369 0.25477 0.40787 0.0
C3486 C 0.66444 0.26881 0.33572 0.0
C3487 C 0.66414 0.25649 0.33225 0.0
H3488 H 0.84633 0.27111 0.06983 0.0
H3489 H 0.82949 0.27453 0.19023 0.0
H3490 H 0.82857 0.25308 0.19676 0.0
H3491 H 0.83231 0.23326 0.16829 0.0
H3492 H 0.84989 0.22962 0.0496 0.0
H3493 H 0.85104 0.2512 0.04297 0.0
C3494 C 0.8426 0.26719 0.09777 0.0
C3495 C 0.83784 0.27452 0.12918 0.0
C3496 C 0.84227 0.25477 0.10175 0.0
C3497 C 0.83295 0.26919 0.16498 0.0
C3498 C 0.8325 0.25688 0.16896 0.0
C3499 C 0.83636 0.23721 0.14092 0.0
C3500 C 0.84093 0.22986 0.10936 0.0
C3501 C 0.83704 0.24959 0.13743 0.0
C3502 C 0.84635 0.23508 0.07442 0.0
C3503 C 0.84696 0.24742 0.07054 0.0
H3504 H 0.67789 0.73132 0.64772 0.0
H3505 H 0.65197 0.72942 0.54886 0.0
H3506 H 0.65077 0.75099 0.54726 0.0
H3507 H 0.65687 0.77044 0.57461 0.0
H3508 H 0.68401 0.77212 0.66941 0.0
H3509 H 0.68497 0.75061 0.67142 0.0
C3510 C 0.67212 0.73557 0.62521 0.0
C3511 C 0.66501 0.72864 0.59859 0.0
C3512 C 0.67163 0.74799 0.62378 0.0
C3513 C 0.65741 0.73444 0.57036 0.0
C3514 C 0.65677 0.74681 0.56915 0.0
C3515 C 0.66311 0.76613 0.59532 0.0
C3516 C 0.67022 0.77299 0.62221 0.0
C3517 C 0.66381 0.75368 0.59584 0.0
C3518 C 0.67818 0.76715 0.64909 0.0
C3519 C 0.67882 0.75481 0.65007 0.0
H3520 H 0.51961 0.40704 0.81855 0.0
H3521 H 0.52212 0.42776 0.93144 0.0
H3522 H 0.50062 0.4285 0.93629 0.0
H3523 H 0.48104 0.42335 0.9087 0.0
H3524 H 0.47831 0.40212 0.79733 0.0
H3525 H 0.49993 0.40124 0.79232 0.0
C3526 C 0.51547 0.41161 0.84448 0.0
C3527 C 0.52255 0.41745 0.87429 0.0
C3528 C 0.50304 0.41187 0.8475 0.0
C3529 C 0.51696 0.42341 0.90745 0.0
C3530 C 0.50463 0.42377 0.91048 0.0
C3531 C 0.48518 0.41858 0.8832 0.0
C3532 C 0.47809 0.41287 0.85329 0.0
C3533 C 0.49759 0.4181 0.88058 0.0
C3534 C 0.48358 0.40654 0.82088 0.0
C3535 C 0.49594 0.40608 0.8179 0.0
H3536 H 0.98112 0.5779 0.40833 0.0
H3537 H 0.97829 0.59898 0.29629 0.0
H3538 H 0.99981 0.60018 0.29193 0.0
H3539 H 0.01957 0.59497 0.31919 0.0
H3540 H 0.02231 0.57289 0.42849 0.0
H3541 H 1.00072 0.57213 0.43403 0.0
C3542 C 0.98516 0.58262 0.38254 0.0
C3543 C 0.97798 0.58837 0.35282 0.0
C3544 C 0.99757 0.58306 0.3796 0.0
C3545 C 0.9835 0.59464 0.32017 0.0
C3546 C 0.99585 0.59526 0.3174 0.0
C3547 C 0.01541 0.59004 0.34427 0.0
C3548 C 0.02249 0.584 0.37339 0.0
C3549 C 0.00298 0.58952 0.34694 0.0
C3550 C 0.01702 0.57753 0.40551 0.0
C3551 C 0.00469 0.57713 0.40877 0.0
H3552 H 0.98316 0.41354 0.69038 0.0
H3553 H 0.98049 0.42089 0.55864 0.0
H3554 H 0.00202 0.4204 0.55232 0.0
H3555 H 0.0216 0.41815 0.58413 0.0
H3556 H 0.02447 0.41138 0.71624 0.0
H3557 H 0.0029 0.41104 0.72221 0.0
C3558 C 0.9873 0.41492 0.66025 0.0
C3559 C 0.98022 0.41732 0.6251 0.0
C3560 C 0.99973 0.41468 0.65683 0.0
C3561 C 0.98573 0.41921 0.58632 0.0
C3562 C 0.99804 0.41887 0.58262 0.0
C3563 C 0.01754 0.4167 0.61434 0.0
C3564 C 0.02471 0.41484 0.64968 0.0
C3565 C 0.00513 0.41672 0.6177 0.0
C3566 C 0.01922 0.4127 0.68838 0.0
C3567 C 0.00686 0.4126 0.6919 0.0
H3568 H 0.48221 0.60081 0.12327 0.0
H3569 H 0.48017 0.56503 0.17018 0.0
H3570 H 0.50174 0.56391 0.1726 0.0
H3571 H 0.52121 0.57296 0.16069 0.0
H3572 H 0.52334 0.60868 0.11332 0.0
H3573 H 0.50175 0.61005 0.11293 0.0
C3574 C 0.48648 0.59282 0.13449 0.0
C3575 C 0.47954 0.583 0.14626 0.0
C3576 C 0.49892 0.59223 0.1359 0.0
C3577 C 0.48526 0.57266 0.16025 0.0
C3578 C 0.49761 0.57202 0.16187 0.0
C3579 C 0.51696 0.58102 0.15002 0.0
C3580 C 0.52392 0.59068 0.13694 0.0
C3581 C 0.50453 0.58172 0.14946 0.0
C3582 C 0.51823 0.60114 0.12399 0.0
C3583 C 0.50587 0.60191 0.12348 0.0
H3584 H 0.12327 0.14476 0.31536 0.0
H3585 H 0.15149 0.11904 0.30766 0.0
H3586 H 0.14373 0.10882 0.36875 0.0
H3587 H 0.12915 0.10726 0.42495 0.0
H3588 H 0.10093 0.13292 0.43352 0.0
H3589 H 0.10866 0.14325 0.37226 0.0
C3590 C 0.12777 0.13697 0.32723 0.0
C3591 C 0.1379 0.13264 0.30665 0.0
C3592 C 0.12332 0.13116 0.36273 0.0
C3593 C 0.14355 0.12246 0.3223 0.0
C3594 C 0.13917 0.11664 0.35747 0.0
C3595 C 0.12461 0.11504 0.4132 0.0
C3596 C 0.11445 0.11928 0.43376 0.0
C3597 C 0.12906 0.12089 0.37787 0.0
C3598 C 0.10883 0.12953 0.41856 0.0
C3599 C 0.11321 0.13541 0.38338 0.0
H3600 H 0.10571 0.88358 0.59507 0.0
H3601 H 0.13876 0.8871 0.52835 0.0
H3602 H 0.14927 0.87767 0.58577 0.0
H3603 H 0.14921 0.86873 0.65522 0.0
H3604 H 0.11618 0.86432 0.7212 0.0
H3605 H 0.10555 0.87377 0.66372 0.0
C3606 C 0.11518 0.88215 0.59282 0.0
C3607 C 0.12142 0.88614 0.55744 0.0
C3608 C 0.1212 0.87659 0.62589 0.0
C3609 C 0.13374 0.88434 0.55545 0.0
C3610 C 0.13977 0.87887 0.58819 0.0
C3611 C 0.13967 0.86967 0.65686 0.0
C3612 C 0.13353 0.8658 0.69256 0.0
C3613 C 0.1336 0.87501 0.6236 0.0
C3614 C 0.12117 0.86734 0.69438 0.0
C3615 C 0.11507 0.87269 0.6614 0.0
H3616 H 0.38774 0.89667 0.89968 0.0
H3617 H 0.38942 0.86393 0.96851 0.0
H3618 H 0.38045 0.85333 0.9097 0.0
H3619 H 0.37199 0.85351 0.83928 0.0
H3620 H 0.36837 0.88682 0.77384 0.0
H3621 H 0.3786 0.89695 0.83014 0.0
C3622 C 0.3862 0.88719 0.90153 0.0
C3623 C 0.38927 0.88103 0.93802 0.0
C3624 C 0.38079 0.88125 0.86813 0.0
C3625 C 0.3871 0.86881 0.94059 0.0
C3626 C 0.382 0.86277 0.90701 0.0
C3627 C 0.37325 0.86301 0.83735 0.0
C3628 C 0.36938 0.8693 0.80184 0.0
C3629 C 0.37873 0.86893 0.87073 0.0
C3630 C 0.37144 0.8816 0.80001 0.0
C3631 C 0.37719 0.88748 0.83252 0.0
H3632 H 0.39341 0.10868 0.10081 0.0
H3633 H 0.37987 0.13453 0.01396 0.0
H3634 H 0.37045 0.1453 0.07127 0.0
H3635 H 0.36601 0.14729 0.14598 0.0
H3636 H 0.37889 0.12083 0.23213 0.0
H3637 H 0.38892 0.11063 0.17532 0.0
C3638 C 0.38851 0.11675 0.0945 0.0
C3639 C 0.38736 0.12082 0.05323 0.0
C3640 C 0.38307 0.12284 0.1275 0.0
C3641 C 0.3808 0.13116 0.04543 0.0
C3642 C 0.37546 0.13735 0.07819 0.0
C3643 C 0.37093 0.13924 0.15237 0.0
C3644 C 0.3717 0.1349 0.1935 0.0
C3645 C 0.37648 0.13323 0.11934 0.0
C3646 C 0.3783 0.12455 0.20106 0.0
C3647 C 0.38397 0.11862 0.16848 0.0
H3648 H 0.89068 0.89558 0.60264 0.0
H3649 H 0.87631 0.87025 0.51526 0.0
H3650 H 0.86708 0.85942 0.57237 0.0
H3651 H 0.86296 0.85716 0.64694 0.0
H3652 H 0.87571 0.88359 0.73346 0.0
H3653 H 0.88571 0.89388 0.6768 0.0
C3654 C 0.88541 0.88779 0.59588 0.0
C3655 C 0.8843 0.88375 0.5545 0.0
C3656 C 0.87986 0.88173 0.6288 0.0
C3657 C 0.87758 0.87347 0.54674 0.0
C3658 C 0.87219 0.86731 0.57941 0.0
C3659 C 0.86778 0.86525 0.6535 0.0
C3660 C 0.86858 0.86949 0.69474 0.0
C3661 C 0.87326 0.87136 0.62055 0.0
C3662 C 0.8751 0.8799 0.70237 0.0
C3663 C 0.88076 0.8859 0.66985 0.0
H3664 H 0.87153 0.15013 0.35048 0.0
H3665 H 0.86848 0.11752 0.28078 0.0
H3666 H 0.87821 0.10677 0.33691 0.0
H3667 H 0.887 0.10639 0.40679 0.0
H3668 H 0.88919 0.13864 0.47841 0.0
H3669 H 0.88014 0.1497 0.42096 0.0
C3670 C 0.87289 0.14066 0.34764 0.0
C3671 C 0.86932 0.13471 0.31112 0.0
C3672 C 0.87829 0.13443 0.38054 0.0
C3673 C 0.87134 0.12243 0.30798 0.0
C3674 C 0.87682 0.11622 0.34028 0.0
C3675 C 0.88561 0.11586 0.4096 0.0
C3676 C 0.88881 0.12171 0.44664 0.0
C3677 C 0.8803 0.12212 0.37672 0.0
C3678 C 0.88675 0.13394 0.45023 0.0
C3679 C 0.8816 0.14026 0.41738 0.0
H3680 H 0.62887 0.12509 0.21492 0.0
H3681 H 0.64728 0.15174 0.14381 0.0
H3682 H 0.63865 0.14403 0.07912 0.0
H3683 H 0.62619 0.12937 0.04273 0.0
H3684 H 0.60896 0.10184 0.11338 0.0
H3685 H 0.61676 0.11017 0.17838 0.0
C3686 C 0.63089 0.12922 0.18519 0.0
C3687 C 0.6386 0.13898 0.18385 0.0
C3688 C 0.62615 0.12455 0.14818 0.0
C3689 C 0.64135 0.1442 0.14531 0.0
C3690 C 0.63643 0.13981 0.10845 0.0
C3691 C 0.62412 0.12527 0.07246 0.0
C3692 C 0.61701 0.11507 0.07355 0.0
C3693 C 0.62886 0.12995 0.10948 0.0
C3694 C 0.61447 0.10969 0.11202 0.0
C3695 C 0.6189 0.11446 0.14908 0.0
H3696 H 0.64864 0.8681 0.84874 0.0
H3697 H 0.61621 0.86704 0.77756 0.0
H3698 H 0.60538 0.8755 0.83639 0.0
H3699 H 0.60516 0.88344 0.9078 0.0
H3700 H 0.63782 0.88525 0.97758 0.0
H3701 H 0.64847 0.87624 0.91959 0.0
C3702 C 0.63922 0.86983 0.8459 0.0
C3703 C 0.63327 0.86696 0.8087 0.0
C3704 C 0.63307 0.87479 0.87969 0.0
C3705 C 0.62101 0.86904 0.80595 0.0
C3706 C 0.61481 0.87394 0.83951 0.0
C3707 C 0.61462 0.88195 0.91023 0.0
C3708 C 0.62064 0.885 0.94717 0.0
C3709 C 0.62076 0.87689 0.8765 0.0
C3710 C 0.63289 0.88282 0.9499 0.0
C3711 C 0.63903 0.87775 0.91659 0.0
H3712 H 0.6067 0.6292 0.92656 0.0
H3713 H 0.63748 0.60869 0.96096 0.0
H3714 H 0.6484 0.61684 0.90213 0.0
H3715 H 0.64911 0.62926 0.83963 0.0
H3716 H 0.61832 0.64943 0.80355 0.0
H3717 H 0.60742 0.64169 0.86361 0.0
C3718 C 0.61577 0.62646 0.92106 0.0
C3719 C 0.62126 0.61839 0.94847 0.0
C3720 C 0.62198 0.63103 0.88663 0.0
C3721 C 0.63308 0.61505 0.94101 0.0
C3722 C 0.63932 0.61963 0.9071 0.0
C3723 C 0.64006 0.63207 0.84516 0.0
C3724 C 0.63455 0.63994 0.81722 0.0
C3725 C 0.63386 0.62759 0.87966 0.0
C3726 C 0.62273 0.64331 0.82439 0.0
C3727 C 0.61652 0.63893 0.85883 0.0
H3728 H 0.6218 0.37112 0.20696 0.0
H3729 H 0.65279 0.35951 0.13974 0.0
H3730 H 0.64451 0.36722 0.07473 0.0
H3731 H 0.62873 0.37767 0.03745 0.0
H3732 H 0.59824 0.39038 0.10537 0.0
H3733 H 0.6059 0.38154 0.16931 0.0
C3734 C 0.62666 0.37019 0.17795 0.0
C3735 C 0.63789 0.3648 0.17805 0.0
C3736 C 0.62192 0.37479 0.14081 0.0
C3737 C 0.64418 0.36374 0.14041 0.0
C3738 C 0.63944 0.36811 0.10327 0.0
C3739 C 0.62378 0.37861 0.06625 0.0
C3740 C 0.61292 0.38472 0.06641 0.0
C3741 C 0.62838 0.37377 0.10319 0.0
C3742 C 0.60654 0.38559 0.10401 0.0
C3743 C 0.61096 0.38062 0.14076 0.0
H3744 H 0.87568 0.39759 0.42758 0.0
H3745 H 0.90276 0.37073 0.43721 0.0
H3746 H 0.89422 0.36026 0.37775 0.0
H3747 H 0.87896 0.35867 0.32322 0.0
H3748 H 0.85257 0.38617 0.31186 0.0
H3749 H 0.86102 0.39647 0.37162 0.0
C3750 C 0.87985 0.38954 0.41638 0.0
C3751 C 0.88987 0.38499 0.43699 0.0
C3752 C 0.87499 0.38365 0.38187 0.0
C3753 C 0.89495 0.37438 0.42241 0.0
C3754 C 0.89012 0.36842 0.3882 0.0
C3755 C 0.87513 0.36698 0.33351 0.0
C3756 C 0.86507 0.37157 0.31316 0.0
C3757 C 0.88012 0.37296 0.36772 0.0
C3758 C 0.86016 0.38229 0.32734 0.0
C3759 C 0.86504 0.38824 0.36139 0.0
H3760 H 0.85919 0.64156 0.65343 0.0
H3761 H 0.88604 0.62981 0.73987 0.0
H3762 H 0.89656 0.6199 0.6832 0.0
H3763 H 0.89801 0.61436 0.60912 0.0
H3764 H 0.87116 0.62628 0.523 0.0
H3765 H 0.86097 0.63662 0.57935 0.0
C3766 C 0.86744 0.637 0.65985 0.0
C3767 C 0.87179 0.63644 0.70094 0.0
C3768 C 0.87348 0.63138 0.62711 0.0
C3769 C 0.88239 0.63027 0.70868 0.0
C3770 C 0.88845 0.62464 0.67624 0.0
C3771 C 0.88991 0.61919 0.60274 0.0
C3772 C 0.88537 0.61955 0.56188 0.0
C3773 C 0.88403 0.62507 0.63538 0.0
C3774 C 0.87494 0.62599 0.55402 0.0
C3775 C 0.86906 0.63184 0.58629 0.0
H3776 H 0.36912 0.35441 0.15938 0.0
H3777 H 0.3649 0.3878 0.22324 0.0
H3778 H 0.37439 0.39811 0.16529 0.0
H3779 H 0.38363 0.39772 0.09614 0.0
H3780 H 0.38802 0.36442 0.03205 0.0
H3781 H 0.37875 0.35399 0.09046 0.0
C3782 C 0.3704 0.36393 0.16079 0.0
C3783 C 0.36628 0.37032 0.19557 0.0
C3784 C 0.37587 0.36982 0.1273 0.0
C3785 C 0.36785 0.38268 0.19663 0.0
C3786 C 0.37333 0.38858 0.16359 0.0
C3787 C 0.38269 0.38816 0.09516 0.0
C3788 C 0.38655 0.38185 0.05987 0.0
C3789 C 0.37733 0.38225 0.12874 0.0
C3790 C 0.38504 0.36949 0.05873 0.0
C3791 C 0.37978 0.36352 0.09217 0.0
H3792 H 0.39393 0.60938 0.89764 0.0
H3793 H 0.37587 0.63163 0.98694 0.0
H3794 H 0.36627 0.64234 0.93035 0.0
H3795 H 0.36267 0.6452 0.85569 0.0
H3796 H 0.37923 0.62168 0.7668 0.0
H3797 H 0.38971 0.61172 0.82313 0.0
C3798 C 0.38779 0.61647 0.90489 0.0
C3799 C 0.38571 0.61967 0.94672 0.0
C3800 C 0.38203 0.62242 0.8722 0.0
C3801 C 0.37788 0.62907 0.95517 0.0
C3802 C 0.37228 0.63516 0.92278 0.0
C3803 C 0.36845 0.63781 0.84852 0.0
C3804 C 0.37014 0.63428 0.80678 0.0
C3805 C 0.37424 0.63187 0.88119 0.0
C3806 C 0.37789 0.6248 0.79837 0.0
C3807 C 0.38383 0.619 0.83066 0.0
H3808 H 0.13129 0.64821 0.66021 0.0
H3809 H 0.13536 0.61494 0.72501 0.0
H3810 H 0.12562 0.60459 0.66772 0.0
H3811 H 0.11648 0.60487 0.59844 0.0
H3812 H 0.11187 0.63816 0.53423 0.0
H3813 H 0.12126 0.64861 0.59217 0.0
C3814 C 0.12991 0.63872 0.66207 0.0
C3815 C 0.13412 0.63237 0.6968 0.0
C3816 C 0.12424 0.63281 0.62906 0.0
C3817 C 0.13239 0.62003 0.69837 0.0
C3818 C 0.12676 0.61411 0.66571 0.0
C3819 C 0.11735 0.61444 0.59736 0.0
C3820 C 0.11348 0.62071 0.56196 0.0
C3821 C 0.12272 0.62039 0.6308 0.0
C3822 C 0.1149 0.63309 0.56083 0.0
C3823 C 0.12022 0.63908 0.59404 0.0
H3824 H 0.14567 0.38276 0.31837 0.0
H3825 H 0.11918 0.35522 0.30936 0.0
H3826 H 0.10864 0.36368 0.36846 0.0
H3827 H 0.10701 0.3787 0.42325 0.0
H3828 H 0.13495 0.40459 0.43769 0.0
H3829 H 0.14478 0.39689 0.37597 0.0
C3830 C 0.13771 0.37843 0.32957 0.0
C3831 C 0.13327 0.36834 0.3089 0.0
C3832 C 0.13187 0.38308 0.36461 0.0
C3833 C 0.12274 0.36313 0.32373 0.0
C3834 C 0.11673 0.3679 0.35792 0.0
C3835 C 0.11534 0.38259 0.41349 0.0
C3836 C 0.1201 0.39232 0.43534 0.0
C3837 C 0.12124 0.37785 0.3787 0.0
C3838 C 0.13082 0.3973 0.42123 0.0
C3839 C 0.13656 0.39282 0.38604 0.0
loop_
_geom_bond_atom_site_label_1
_geom_bond_atom_site_label_2
_geom_bond_distance
_geom_bond_site_symmetry_2
_ccdc_geom_bond_type
Li0 N17 1.990 . S
Li0 O60 1.956 . S
Li0 O61 1.970 . S
Li0 O62 1.961 . S
Li1 N25 1.990 . S
Li1 O60 1.970 . S
Li1 O61 1.956 . S
Li1 O63 1.961 . S
Li2 N47 1.990 . S
Li2 O60 1.961 . S
Li2 O62 1.956 . S
Li2 O63 1.970 . S
Li3 N53 1.990 . S
Li3 O61 1.961 . S
Li3 O62 1.970 . S
Li3 O63 1.956 . S
C4 C6 1.348 . S
C4 C7 1.356 . S
C4 O60 1.325 . S
N5 C8 1.314 . S
N5 C9 1.279 . S
C6 C4 1.348 . S
C6 C8 1.353 . S
C6 H64 0.929 . S
C7 C4 1.356 . S
C7 C9 1.358 . S
C7 H65 0.930 . S
C8 N5 1.314 . S
C8 C6 1.353 . S
C8 H66 0.930 . S
C9 N5 1.279 . S
C9 C7 1.358 . S
C9 H67 0.930 . S
C10 C13 1.348 . S
C10 C14 1.356 . S
C10 O61 1.325 . S
C11 N12 1.279 . S
C11 C14 1.358 . S
C11 H68 0.930 . S
N12 C11 1.279 . S
N12 C15 1.314 . S
C13 C10 1.348 . S
C13 C15 1.353 . S
C13 H69 0.929 . S
C14 C10 1.356 . S
C14 C11 1.358 . S
C14 H70 0.930 . S
C15 N12 1.314 . S
C15 C13 1.353 . S
C15 H71 0.930 . S
C16 N17 1.314 . S
C16 C21 1.353 . S
C16 H22 0.930 . S
N17 Li0 1.990 . S
N17 C16 1.314 . S
N17 C19 1.279 . S
C18 C19 1.358 . S
C18 C20 1.356 . S
C18 H72 0.930 . S
C19 N17 1.279 . S
C19 C18 1.358 . S
C19 H23 0.930 . S
C20 C18 1.356 . S
C20 C21 1.348 . S
C21 C16 1.353 . S
C21 C20 1.348 . S
C21 H73 0.929 . S
H22 C16 0.930 . S
H23 C19 0.930 . S
C24 N25 1.314 . S
C24 C26 1.353 . S
C24 H30 0.930 . S
N25 Li1 1.990 . S
N25 C24 1.314 . S
N25 C28 1.279 . S
C26 C24 1.353 . S
C26 C29 1.348 . S
C26 H74 0.929 . S
C27 C28 1.358 . S
C27 C29 1.356 . S
C27 H75 0.930 . S
C28 N25 1.279 . S
C28 C27 1.358 . S
C28 H31 0.930 . S
C29 C26 1.348 . S
C29 C27 1.356 . S
H30 C24 0.930 . S
H31 C28 0.930 . S
C32 C34 1.348 . S
C32 C35 1.356 . S
C32 O62 1.325 . S
N33 C36 1.314 . S
N33 C37 1.279 . S
C34 C32 1.348 . S
C34 C36 1.353 . S
C34 H76 0.929 . S
C35 C32 1.356 . S
C35 C37 1.358 . S
C35 H77 0.930 . S
C36 N33 1.314 . S
C36 C34 1.353 . S
C36 H78 0.930 . S
C37 N33 1.279 . S
C37 C35 1.358 . S
C37 H79 0.930 . S
C38 C39 1.348 . S
C38 C40 1.356 . S
C38 O63 1.325 . S
C39 C38 1.348 . S
C39 C41 1.353 . S
C39 H80 0.929 . S
C40 C38 1.356 . S
C40 C42 1.358 . S
C40 H81 0.930 . S
C41 C39 1.353 . S
C41 N43 1.314 . S
C41 H82 0.930 . S
C42 C40 1.358 . S
C42 N43 1.279 . S
C42 H83 0.930 . S
N43 C41 1.314 . S
N43 C42 1.279 . S
C44 C46 1.353 . S
C44 N47 1.314 . S
C44 H50 0.930 . S
C45 N47 1.279 . S
C45 C48 1.358 1_554 S
C45 H51 0.930 . S
C46 C44 1.353 . S
C46 C49 1.348 1_554 S
C46 H84 0.929 . S
N47 Li2 1.990 . S
N47 C44 1.314 . S
N47 C45 1.279 . S
C48 C45 1.358 1_556 S
C48 C49 1.356 . S
C48 H85 0.930 . S
C49 C46 1.348 1_556 S
C49 C48 1.356 . S
H50 C44 0.930 . S
H51 C45 0.930 . S
C52 N53 1.314 . S
C52 C54 1.353 . S
C52 H58 0.930 . S
N53 Li3 1.990 . S
N53 C52 1.314 . S
N53 C56 1.279 . S
C54 C52 1.353 . S
C54 C57 1.348 . S
C54 H86 0.929 . S
C55 C56 1.358 . S
C55 C57 1.356 . S
C55 H87 0.930 . S
C56 N53 1.279 . S
C56 C55 1.358 . S
C56 H59 0.930 . S
C57 C54 1.348 . S
C57 C55 1.356 . S
H58 C52 0.930 . S
H59 C56 0.930 . S
O60 Li0 1.956 . S
O60 Li1 1.970 . S
O60 Li2 1.961 . S
O60 C4 1.325 . S
O61 Li0 1.970 . S
O61 Li1 1.956 . S
O61 Li3 1.961 . S
O61 C10 1.325 . S
O62 Li0 1.961 . S
O62 Li2 1.956 . S
O62 Li3 1.970 . S
O62 C32 1.325 . S
O63 Li1 1.961 . S
O63 Li2 1.970 . S
O63 Li3 1.956 . S
O63 C38 1.325 . S
H64 C6 0.929 . S
H65 C7 0.930 . S
H66 C8 0.930 . S
H67 C9 0.930 . S
H68 C11 0.930 . S
H69 C13 0.929 . S
H70 C14 0.930 . S
H71 C15 0.930 . S
H72 C18 0.930 . S
H73 C21 0.929 . S
H74 C26 0.929 . S
H75 C27 0.930 . S
H76 C34 0.929 . S
H77 C35 0.930 . S
H78 C36 0.930 . S
H79 C37 0.930 . S
H80 C39 0.929 . S
H81 C40 0.930 . S
H82 C41 0.930 . S
H83 C42 0.930 . S
H84 C46 0.929 . S
H85 C48 0.930 . S
H86 C54 0.929 . S
H87 C55 0.930 . S
Li88 N105 1.990 . S
Li88 O148 1.956 . S
Li88 O149 1.970 . S
Li88 O150 1.961 . S
Li89 N113 1.990 . S
Li89 O148 1.970 . S
Li89 O149 1.956 . S
Li89 O151 1.961 . S
Li90 N135 1.990 . S
Li90 O148 1.961 . S
Li90 O150 1.956 . S
Li90 O151 1.970 . S
Li91 N141 1.990 . S
Li91 O149 1.961 . S
Li91 O150 1.970 . S
Li91 O151 1.956 . S
C92 C94 1.348 . S
C92 C95 1.356 . S
C92 O148 1.325 . S
N93 C96 1.314 . S
N93 C97 1.279 . S
C94 C92 1.348 . S
C94 C96 1.353 . S
C94 H152 0.929 . S
C95 C92 1.356 . S
C95 C97 1.358 . S
C95 H153 0.930 . S
C96 N93 1.314 . S
C96 C94 1.353 . S
C96 H154 0.930 . S
C97 N93 1.279 . S
C97 C95 1.358 . S
C97 H155 0.930 . S
C98 C101 1.348 . S
C98 C102 1.356 . S
C98 O149 1.325 . S
C99 N100 1.279 . S
C99 C102 1.358 . S
C99 H156 0.930 . S
N100 C99 1.279 . S
N100 C103 1.314 . S
C101 C98 1.348 . S
C101 C103 1.353 . S
C101 H157 0.929 . S
C102 C98 1.356 . S
C102 C99 1.358 . S
C102 H158 0.930 . S
C103 N100 1.314 . S
C103 C101 1.353 . S
C103 H159 0.930 . S
C104 N105 1.314 . S
C104 C109 1.353 . S
C104 H110 0.930 . S
N105 Li88 1.990 . S
N105 C104 1.314 . S
N105 C107 1.279 . S
C106 C107 1.358 . S
C106 C108 1.356 . S
C106 H160 0.930 . S
C107 N105 1.279 . S
C107 C106 1.358 . S
C107 H111 0.930 . S
C108 C106 1.356 . S
C108 C109 1.348 . S
C109 C104 1.353 . S
C109 C108 1.348 . S
C109 H161 0.929 . S
H110 C104 0.930 . S
H111 C107 0.930 . S
C112 N113 1.314 . S
C112 C114 1.353 . S
C112 H118 0.930 . S
N113 Li89 1.990 . S
N113 C112 1.314 . S
N113 C116 1.279 . S
C114 C112 1.353 . S
C114 C117 1.348 . S
C114 H162 0.929 . S
C115 C116 1.358 . S
C115 C117 1.356 . S
C115 H163 0.930 . S
C116 N113 1.279 . S
C116 C115 1.358 . S
C116 H119 0.930 . S
C117 C114 1.348 . S
C117 C115 1.356 . S
H118 C112 0.930 . S
H119 C116 0.930 . S
C120 C122 1.348 . S
C120 C123 1.356 . S
C120 O150 1.325 . S
N121 C124 1.314 . S
N121 C125 1.279 . S
C122 C120 1.348 . S
C122 C124 1.353 . S
C122 H164 0.929 . S
C123 C120 1.356 . S
C123 C125 1.358 . S
C123 H165 0.930 . S
C124 N121 1.314 . S
C124 C122 1.353 . S
C124 H166 0.930 . S
C125 N121 1.279 . S
C125 C123 1.358 . S
C125 H167 0.930 . S
C126 C127 1.348 . S
C126 C128 1.356 . S
C126 O151 1.325 . S
C127 C126 1.348 . S
C127 C129 1.353 . S
C127 H168 0.929 . S
C128 C126 1.356 . S
C128 C130 1.358 . S
C128 H169 0.930 . S
C129 C127 1.353 . S
C129 N131 1.314 . S
C129 H170 0.930 . S
C130 C128 1.358 . S
C130 N131 1.279 . S
C130 H171 0.930 . S
N131 C129 1.314 . S
N131 C130 1.279 . S
C132 C134 1.353 . S
C132 N135 1.314 . S
C132 H138 0.930 . S
C133 N135 1.279 . S
C133 C136 1.358 . S
C133 H139 0.930 . S
C134 C132 1.353 . S
C134 C137 1.348 . S
C134 H172 0.929 . S
N135 Li90 1.990 . S
N135 C132 1.314 . S
N135 C133 1.279 . S
C136 C133 1.358 . S
C136 C137 1.356 . S
C136 H173 0.930 . S
C137 C134 1.348 . S
C137 C136 1.356 . S
H138 C132 0.930 . S
H139 C133 0.930 . S
C140 N141 1.314 . S
C140 C142 1.353 . S
C140 H146 0.930 . S
N141 Li91 1.990 . S
N141 C140 1.314 . S
N141 C144 1.279 . S
C142 C140 1.353 . S
C142 C145 1.348 . S
C142 H174 0.929 . S
C143 C144 1.358 . S
C143 C145 1.356 . S
C143 H175 0.930 . S
C144 N141 1.279 . S
C144 C143 1.358 . S
C144 H147 0.930 . S
C145 C142 1.348 . S
C145 C143 1.356 . S
H146 C140 0.930 . S
H147 C144 0.930 . S
O148 Li88 1.956 . S
O148 Li89 1.970 . S
O148 Li90 1.961 . S
O148 C92 1.325 . S
O149 Li88 1.970 . S
O149 Li89 1.956 . S
O149 Li91 1.961 . S
O149 C98 1.325 . S
O150 Li88 1.961 . S
O150 Li90 1.956 . S
O150 Li91 1.970 . S
O150 C120 1.325 . S
O151 Li89 1.961 . S
O151 Li90 1.970 . S
O151 Li91 1.956 . S
O151 C126 1.325 . S
H152 C94 0.929 . S
H153 C95 0.930 . S
H154 C96 0.930 . S
H155 C97 0.930 . S
H156 C99 0.930 . S
H157 C101 0.929 . S
H158 C102 0.930 . S
H159 C103 0.930 . S
H160 C106 0.930 . S
H161 C109 0.929 . S
H162 C114 0.929 . S
H163 C115 0.930 . S
H164 C122 0.929 . S
H165 C123 0.930 . S
H166 C124 0.930 . S
H167 C125 0.930 . S
H168 C127 0.929 . S
H169 C128 0.930 . S
H170 C129 0.930 . S
H171 C130 0.930 . S
H172 C134 0.929 . S
H173 C136 0.930 . S
H174 C142 0.929 . S
H175 C143 0.930 . S
Li176 N193 1.990 . S
Li176 O236 1.956 . S
Li176 O237 1.970 . S
Li176 O238 1.961 . S
Li177 N201 1.990 . S
Li177 O236 1.970 . S
Li177 O237 1.956 . S
Li177 O239 1.961 . S
Li178 N223 1.990 . S
Li178 O236 1.961 . S
Li178 O238 1.956 . S
Li178 O239 1.970 . S
Li179 N229 1.990 . S
Li179 O237 1.961 . S
Li179 O238 1.970 . S
Li179 O239 1.956 . S
C180 C182 1.348 . S
C180 C183 1.356 . S
C180 O236 1.325 . S
N181 C184 1.314 . S
N181 C185 1.279 . S
C182 C180 1.348 . S
C182 C184 1.353 . S
C182 H240 0.929 . S
C183 C180 1.356 . S
C183 C185 1.358 . S
C183 H241 0.930 . S
C184 N181 1.314 . S
C184 C182 1.353 . S
C184 H242 0.930 . S
C185 N181 1.279 . S
C185 C183 1.358 . S
C185 H243 0.930 . S
C186 C189 1.348 . S
C186 C190 1.356 . S
C186 O237 1.325 . S
C187 N188 1.279 . S
C187 C190 1.358 . S
C187 H244 0.930 . S
N188 C187 1.279 . S
N188 C191 1.314 . S
C189 C186 1.348 . S
C189 C191 1.353 . S
C189 H245 0.929 . S
C190 C186 1.356 . S
C190 C187 1.358 . S
C190 H246 0.930 . S
C191 N188 1.314 . S
C191 C189 1.353 . S
C191 H247 0.930 . S
C192 N193 1.314 . S
C192 C197 1.353 . S
C192 H198 0.930 . S
N193 Li176 1.990 . S
N193 C192 1.314 . S
N193 C195 1.279 . S
C194 C195 1.358 . S
C194 C196 1.356 . S
C194 H248 0.930 . S
C195 N193 1.279 . S
C195 C194 1.358 . S
C195 H199 0.930 . S
C196 C194 1.356 . S
C196 C197 1.348 . S
C197 C192 1.353 . S
C197 C196 1.348 . S
C197 H249 0.929 . S
H198 C192 0.930 . S
H199 C195 0.930 . S
C200 N201 1.314 . S
C200 C202 1.353 . S
C200 H206 0.930 . S
N201 Li177 1.990 . S
N201 C200 1.314 . S
N201 C204 1.279 . S
C202 C200 1.353 . S
C202 C205 1.348 . S
C202 H250 0.929 . S
C203 C204 1.358 . S
C203 C205 1.356 . S
C203 H251 0.930 . S
C204 N201 1.279 . S
C204 C203 1.358 . S
C204 H207 0.930 . S
C205 C202 1.348 . S
C205 C203 1.356 . S
H206 C200 0.930 . S
H207 C204 0.930 . S
C208 C210 1.348 . S
C208 C211 1.356 . S
C208 O238 1.325 . S
N209 C212 1.314 . S
N209 C213 1.279 . S
C210 C208 1.348 . S
C210 C212 1.353 . S
C210 H252 0.929 . S
C211 C208 1.356 . S
C211 C213 1.358 . S
C211 H253 0.930 . S
C212 N209 1.314 . S
C212 C210 1.353 . S
C212 H254 0.930 . S
C213 N209 1.279 . S
C213 C211 1.358 . S
C213 H255 0.930 . S
C214 C215 1.348 . S
C214 C216 1.356 . S
C214 O239 1.325 . S
C215 C214 1.348 . S
C215 C217 1.353 . S
C215 H256 0.929 . S
C216 C214 1.356 . S
C216 C218 1.358 . S
C216 H257 0.930 . S
C217 C215 1.353 . S
C217 N219 1.314 . S
C217 H258 0.930 . S
C218 C216 1.358 . S
C218 N219 1.279 . S
C218 H259 0.930 . S
N219 C217 1.314 . S
N219 C218 1.279 . S
C220 C222 1.353 . S
C220 N223 1.314 . S
C220 H226 0.930 . S
C221 N223 1.279 . S
C221 C224 1.358 . S
C221 H227 0.930 . S
C222 C220 1.353 . S
C222 C225 1.348 . S
C222 H260 0.929 . S
N223 Li178 1.990 . S
N223 C220 1.314 . S
N223 C221 1.279 . S
C224 C221 1.358 . S
C224 C225 1.356 . S
C224 H261 0.930 . S
C225 C222 1.348 . S
C225 C224 1.356 . S
H226 C220 0.930 . S
H227 C221 0.930 . S
C228 N229 1.314 . S
C228 C230 1.353 . S
C228 H234 0.930 . S
N229 Li179 1.990 . S
N229 C228 1.314 . S
N229 C232 1.279 . S
C230 C228 1.353 . S
C230 C233 1.348 . S
C230 H262 0.929 . S
C231 C232 1.358 . S
C231 C233 1.356 . S
C231 H263 0.930 . S
C232 N229 1.279 . S
C232 C231 1.358 . S
C232 H235 0.930 . S
C233 C230 1.348 . S
C233 C231 1.356 . S
H234 C228 0.930 . S
H235 C232 0.930 . S
O236 Li176 1.956 . S
O236 Li177 1.970 . S
O236 Li178 1.961 . S
O236 C180 1.325 . S
O237 Li176 1.970 . S
O237 Li177 1.956 . S
O237 Li179 1.961 . S
O237 C186 1.325 . S
O238 Li176 1.961 . S
O238 Li178 1.956 . S
O238 Li179 1.970 . S
O238 C208 1.325 . S
O239 Li177 1.961 . S
O239 Li178 1.970 . S
O239 Li179 1.956 . S
O239 C214 1.325 . S
H240 C182 0.929 . S
H241 C183 0.930 . S
H242 C184 0.930 . S
H243 C185 0.930 . S
H244 C187 0.930 . S
H245 C189 0.929 . S
H246 C190 0.930 . S
H247 C191 0.930 . S
H248 C194 0.930 . S
H249 C197 0.929 . S
H250 C202 0.929 . S
H251 C203 0.930 . S
H252 C210 0.929 . S
H253 C211 0.930 . S
H254 C212 0.930 . S
H255 C213 0.930 . S
H256 C215 0.929 . S
H257 C216 0.930 . S
H258 C217 0.930 . S
H259 C218 0.930 . S
H260 C222 0.929 . S
H261 C224 0.930 . S
H262 C230 0.929 . S
H263 C231 0.930 . S
Li264 N281 1.990 . S
Li264 O324 1.956 . S
Li264 O325 1.970 . S
Li264 O326 1.961 . S
Li265 N289 1.990 . S
Li265 O324 1.970 . S
Li265 O325 1.956 . S
Li265 O327 1.961 . S
Li266 N311 1.990 . S
Li266 O324 1.961 . S
Li266 O326 1.956 . S
Li266 O327 1.970 . S
Li267 N317 1.990 . S
Li267 O325 1.961 . S
Li267 O326 1.970 . S
Li267 O327 1.956 . S
C268 C270 1.348 1_556 S
C268 C271 1.356 1_556 S
C268 O324 1.325 . S
N269 C272 1.314 . S
N269 C273 1.279 . S
C270 C268 1.348 1_554 S
C270 C272 1.353 . S
C270 H328 0.929 1_554 S
C271 C268 1.356 1_554 S
C271 C273 1.358 . S
C271 H329 0.930 1_554 S
C272 N269 1.314 . S
C272 C270 1.353 . S
C272 H330 0.930 . S
C273 N269 1.279 . S
C273 C271 1.358 . S
C273 H331 0.930 . S
C274 C277 1.348 . S
C274 C278 1.356 . S
C274 O325 1.325 . S
C275 N276 1.279 . S
C275 C278 1.358 . S
C275 H332 0.930 . S
N276 C275 1.279 . S
N276 C279 1.314 . S
C277 C274 1.348 . S
C277 C279 1.353 . S
C277 H333 0.929 . S
C278 C274 1.356 . S
C278 C275 1.358 . S
C278 H334 0.930 . S
C279 N276 1.314 . S
C279 C277 1.353 . S
C279 H335 0.930 . S
C280 N281 1.314 . S
C280 C285 1.353 1_556 S
C280 H286 0.930 . S
N281 Li264 1.990 . S
N281 C280 1.314 . S
N281 C283 1.279 1_556 S
C282 C283 1.358 . S
C282 C284 1.356 . S
C282 H336 0.930 . S
C283 N281 1.279 1_554 S
C283 C282 1.358 . S
C283 H287 0.930 . S
C284 C282 1.356 . S
C284 C285 1.348 . S
C285 C280 1.353 1_554 S
C285 C284 1.348 . S
C285 H337 0.930 1_554 S
H286 C280 0.930 . S
H287 C283 0.930 . S
C288 N289 1.314 . S
C288 C290 1.353 . S
C288 H294 0.930 . S
N289 Li265 1.990 . S
N289 C288 1.314 . S
N289 C292 1.279 . S
C290 C288 1.353 . S
C290 C293 1.348 . S
C290 H338 0.929 . S
C291 C292 1.358 . S
C291 C293 1.356 . S
C291 H339 0.930 . S
C292 N289 1.279 . S
C292 C291 1.358 . S
C292 H295 0.930 . S
C293 C290 1.348 . S
C293 C291 1.356 . S
H294 C288 0.930 . S
H295 C292 0.930 . S
C296 C298 1.348 . S
C296 C299 1.356 . S
C296 O326 1.325 . S
N297 C300 1.314 . S
N297 C301 1.279 . S
C298 C296 1.348 . S
C298 C300 1.353 . S
C298 H340 0.929 . S
C299 C296 1.356 . S
C299 C301 1.358 . S
C299 H341 0.930 . S
C300 N297 1.314 . S
C300 C298 1.353 . S
C300 H342 0.930 . S
C301 N297 1.279 . S
C301 C299 1.358 . S
C301 H343 0.930 . S
C302 C303 1.348 . S
C302 C304 1.356 . S
C302 O327 1.325 . S
C303 C302 1.348 . S
C303 C305 1.353 . S
C303 H344 0.929 . S
C304 C302 1.356 . S
C304 C306 1.358 . S
C304 H345 0.930 . S
C305 C303 1.353 . S
C305 N307 1.314 . S
C305 H346 0.930 . S
C306 C304 1.358 . S
C306 N307 1.279 . S
C306 H347 0.930 . S
N307 C305 1.314 . S
N307 C306 1.279 . S
C308 C310 1.353 . S
C308 N311 1.314 . S
C308 H314 0.930 . S
C309 N311 1.279 . S
C309 C312 1.358 . S
C309 H315 0.930 . S
C310 C308 1.353 . S
C310 C313 1.348 . S
C310 H348 0.929 . S
N311 Li266 1.990 . S
N311 C308 1.314 . S
N311 C309 1.279 . S
C312 C309 1.358 . S
C312 C313 1.356 . S
C312 H349 0.930 . S
C313 C310 1.348 . S
C313 C312 1.356 . S
H314 C308 0.930 . S
H315 C309 0.930 . S
C316 N317 1.314 . S
C316 C318 1.353 . S
C316 H322 0.930 . S
N317 Li267 1.990 . S
N317 C316 1.314 . S
N317 C320 1.279 . S
C318 C316 1.353 . S
C318 C321 1.348 . S
C318 H350 0.929 . S
C319 C320 1.358 . S
C319 C321 1.356 . S
C319 H351 0.930 . S
C320 N317 1.279 . S
C320 C319 1.358 . S
C320 H323 0.930 . S
C321 C318 1.348 . S
C321 C319 1.356 . S
H322 C316 0.930 . S
H323 C320 0.930 . S
O324 Li264 1.956 . S
O324 Li265 1.970 . S
O324 Li266 1.961 . S
O324 C268 1.325 . S
O325 Li264 1.970 . S
O325 Li265 1.956 . S
O325 Li267 1.961 . S
O325 C274 1.325 . S
O326 Li264 1.961 . S
O326 Li266 1.956 . S
O326 Li267 1.970 . S
O326 C296 1.325 . S
O327 Li265 1.961 . S
O327 Li266 1.970 . S
O327 Li267 1.956 . S
O327 C302 1.325 . S
H328 C270 0.929 1_556 S
H329 C271 0.930 1_556 S
H330 C272 0.930 . S
H331 C273 0.930 . S
H332 C275 0.930 . S
H333 C277 0.929 . S
H334 C278 0.930 . S
H335 C279 0.930 . S
H336 C282 0.930 . S
H337 C285 0.930 1_556 S
H338 C290 0.929 . S
H339 C291 0.930 . S
H340 C298 0.929 . S
H341 C299 0.930 . S
H342 C300 0.930 . S
H343 C301 0.930 . S
H344 C303 0.929 . S
H345 C304 0.930 . S
H346 C305 0.930 . S
H347 C306 0.930 . S
H348 C310 0.929 . S
H349 C312 0.930 . S
H350 C318 0.929 . S
H351 C319 0.930 . S
Li352 N369 1.990 . S
Li352 O412 1.956 . S
Li352 O413 1.970 . S
Li352 O414 1.961 . S
Li353 N377 1.990 . S
Li353 O412 1.970 . S
Li353 O413 1.956 . S
Li353 O415 1.961 . S
Li354 N399 1.990 . S
Li354 O412 1.961 . S
Li354 O414 1.956 . S
Li354 O415 1.970 . S
Li355 N405 1.990 . S
Li355 O413 1.961 . S
Li355 O414 1.970 . S
Li355 O415 1.956 . S
C356 C358 1.348 . S
C356 C359 1.356 . S
C356 O412 1.325 . S
N357 C360 1.314 . S
N357 C361 1.279 . S
C358 C356 1.348 . S
C358 C360 1.353 . S
C358 H416 0.929 . S
C359 C356 1.356 . S
C359 C361 1.358 . S
C359 H417 0.930 . S
C360 N357 1.314 . S
C360 C358 1.353 . S
C360 H418 0.930 . S
C361 N357 1.279 . S
C361 C359 1.358 . S
C361 H419 0.930 . S
C362 C365 1.348 . S
C362 C366 1.356 . S
C362 O413 1.325 . S
C363 N364 1.279 . S
C363 C366 1.358 . S
C363 H420 0.930 . S
N364 C363 1.279 . S
N364 C367 1.314 . S
C365 C362 1.348 . S
C365 C367 1.353 . S
C365 H421 0.929 . S
C366 C362 1.356 . S
C366 C363 1.358 . S
C366 H422 0.930 . S
C367 N364 1.314 . S
C367 C365 1.353 . S
C367 H423 0.930 . S
C368 N369 1.314 . S
C368 C373 1.353 . S
C368 H374 0.930 . S
N369 Li352 1.990 . S
N369 C368 1.314 . S
N369 C371 1.279 . S
C370 C371 1.358 1_554 S
C370 C372 1.356 . S
C370 H424 0.930 . S
C371 N369 1.279 . S
C371 C370 1.358 1_556 S
C371 H375 0.930 . S
C372 C370 1.356 . S
C372 C373 1.348 1_554 S
C373 C368 1.353 . S
C373 C372 1.348 1_556 S
C373 H425 0.929 . S
H374 C368 0.930 . S
H375 C371 0.930 . S
C376 N377 1.314 . S
C376 C378 1.353 . S
C376 H382 0.930 . S
N377 Li353 1.990 . S
N377 C376 1.314 . S
N377 C380 1.279 . S
C378 C376 1.353 . S
C378 C381 1.348 . S
C378 H426 0.929 . S
C379 C380 1.358 . S
C379 C381 1.356 . S
C379 H427 0.930 . S
C380 N377 1.279 . S
C380 C379 1.358 . S
C380 H383 0.930 . S
C381 C378 1.348 . S
C381 C379 1.356 . S
H382 C376 0.930 . S
H383 C380 0.930 . S
C384 C386 1.348 . S
C384 C387 1.356 . S
C384 O414 1.325 . S
N385 C388 1.314 . S
N385 C389 1.279 . S
C386 C384 1.348 . S
C386 C388 1.353 . S
C386 H428 0.929 . S
C387 C384 1.356 . S
C387 C389 1.358 . S
C387 H429 0.930 . S
C388 N385 1.314 . S
C388 C386 1.353 . S
C388 H430 0.930 . S
C389 N385 1.279 . S
C389 C387 1.358 . S
C389 H431 0.930 . S
C390 C391 1.348 . S
C390 C392 1.356 . S
C390 O415 1.325 . S
C391 C390 1.348 . S
C391 C393 1.353 . S
C391 H432 0.929 . S
C392 C390 1.356 . S
C392 C394 1.358 . S
C392 H433 0.930 . S
C393 C391 1.353 . S
C393 N395 1.314 . S
C393 H434 0.930 . S
C394 C392 1.358 . S
C394 N395 1.279 . S
C394 H435 0.930 . S
N395 C393 1.314 . S
N395 C394 1.279 . S
C396 C398 1.353 . S
C396 N399 1.314 . S
C396 H402 0.930 . S
C397 N399 1.279 . S
C397 C400 1.358 . S
C397 H403 0.930 . S
C398 C396 1.353 . S
C398 C401 1.348 . S
C398 H436 0.929 . S
N399 Li354 1.990 . S
N399 C396 1.314 . S
N399 C397 1.279 . S
C400 C397 1.358 . S
C400 C401 1.356 . S
C400 H437 0.930 . S
C401 C398 1.348 . S
C401 C400 1.356 . S
H402 C396 0.930 . S
H403 C397 0.930 . S
C404 N405 1.314 . S
C404 C406 1.353 . S
C404 H410 0.930 . S
N405 Li355 1.990 . S
N405 C404 1.314 . S
N405 C408 1.279 . S
C406 C404 1.353 . S
C406 C409 1.348 . S
C406 H438 0.929 . S
C407 C408 1.358 . S
C407 C409 1.356 . S
C407 H439 0.930 . S
C408 N405 1.279 . S
C408 C407 1.358 . S
C408 H411 0.930 . S
C409 C406 1.348 . S
C409 C407 1.356 . S
H410 C404 0.930 . S
H411 C408 0.930 . S
O412 Li352 1.956 . S
O412 Li353 1.970 . S
O412 Li354 1.961 . S
O412 C356 1.325 . S
O413 Li352 1.970 . S
O413 Li353 1.956 . S
O413 Li355 1.961 . S
O413 C362 1.325 . S
O414 Li352 1.961 . S
O414 Li354 1.956 . S
O414 Li355 1.970 . S
O414 C384 1.325 . S
O415 Li353 1.961 . S
O415 Li354 1.970 . S
O415 Li355 1.956 . S
O415 C390 1.325 . S
H416 C358 0.929 . S
H417 C359 0.930 . S
H418 C360 0.930 . S
H419 C361 0.930 . S
H420 C363 0.930 . S
H421 C365 0.929 . S
H422 C366 0.930 . S
H423 C367 0.930 . S
H424 C370 0.930 . S
H425 C373 0.929 . S
H426 C378 0.929 . S
H427 C379 0.930 . S
H428 C386 0.929 . S
H429 C387 0.930 . S
H430 C388 0.930 . S
H431 C389 0.930 . S
H432 C391 0.929 . S
H433 C392 0.930 . S
H434 C393 0.930 . S
H435 C394 0.930 . S
H436 C398 0.929 . S
H437 C400 0.930 . S
H438 C406 0.929 . S
H439 C407 0.930 . S
Li440 N457 1.990 . S
Li440 O500 1.956 . S
Li440 O501 1.970 . S
Li440 O502 1.961 . S
Li441 N465 1.990 . S
Li441 O500 1.970 . S
Li441 O501 1.956 . S
Li441 O503 1.961 . S
Li442 N487 1.990 . S
Li442 O500 1.961 . S
Li442 O502 1.956 . S
Li442 O503 1.970 . S
Li443 N493 1.990 . S
Li443 O501 1.961 . S
Li443 O502 1.970 . S
Li443 O503 1.956 . S
C444 C446 1.348 . S
C444 C447 1.356 . S
C444 O500 1.325 . S
N445 C448 1.314 . S
N445 C449 1.279 . S
C446 C444 1.348 . S
C446 C448 1.353 . S
C446 H504 0.929 . S
C447 C444 1.356 . S
C447 C449 1.358 . S
C447 H505 0.930 . S
C448 N445 1.314 . S
C448 C446 1.353 . S
C448 H506 0.930 . S
C449 N445 1.279 . S
C449 C447 1.358 . S
C449 H507 0.930 . S
C450 C453 1.348 . S
C450 C454 1.356 . S
C450 O501 1.325 . S
C451 N452 1.279 . S
C451 C454 1.358 . S
C451 H508 0.930 . S
N452 C451 1.279 . S
N452 C455 1.314 . S
C453 C450 1.348 . S
C453 C455 1.353 . S
C453 H509 0.929 . S
C454 C450 1.356 . S
C454 C451 1.358 . S
C454 H510 0.930 . S
C455 N452 1.314 . S
C455 C453 1.353 . S
C455 H511 0.930 . S
C456 N457 1.314 . S
C456 C461 1.353 . S
C456 H462 0.930 . S
N457 Li440 1.990 . S
N457 C456 1.314 . S
N457 C459 1.279 . S
C458 C459 1.358 . S
C458 C460 1.356 . S
C458 H512 0.930 . S
C459 N457 1.279 . S
C459 C458 1.358 . S
C459 H463 0.930 . S
C460 C458 1.356 . S
C460 C461 1.348 . S
C461 C456 1.353 . S
C461 C460 1.348 . S
C461 H513 0.929 . S
H462 C456 0.930 . S
H463 C459 0.930 . S
C464 N465 1.314 . S
C464 C466 1.353 . S
C464 H470 0.930 . S
N465 Li441 1.990 . S
N465 C464 1.314 . S
N465 C468 1.279 . S
C466 C464 1.353 . S
C466 C469 1.348 . S
C466 H514 0.929 . S
C467 C468 1.358 . S
C467 C469 1.356 . S
C467 H515 0.930 . S
C468 N465 1.279 . S
C468 C467 1.358 . S
C468 H471 0.930 . S
C469 C466 1.348 . S
C469 C467 1.356 . S
H470 C464 0.930 . S
H471 C468 0.930 . S
C472 C474 1.348 1_554 S
C472 C475 1.356 1_554 S
C472 O502 1.325 . S
N473 C476 1.314 . S
N473 C477 1.279 . S
C474 C472 1.348 1_556 S
C474 C476 1.353 . S
C474 H516 0.929 1_556 S
C475 C472 1.356 1_556 S
C475 C477 1.358 . S
C475 H517 0.930 1_556 S
C476 N473 1.314 . S
C476 C474 1.353 . S
C476 H518 0.930 . S
C477 N473 1.279 . S
C477 C475 1.358 . S
C477 H519 0.930 . S
C478 C479 1.348 . S
C478 C480 1.356 . S
C478 O503 1.325 . S
C479 C478 1.348 . S
C479 C481 1.353 . S
C479 H520 0.929 . S
C480 C478 1.356 . S
C480 C482 1.358 . S
C480 H521 0.930 . S
C481 C479 1.353 . S
C481 N483 1.314 . S
C481 H522 0.930 . S
C482 C480 1.358 . S
C482 N483 1.279 . S
C482 H523 0.930 . S
N483 C481 1.314 . S
N483 C482 1.279 . S
C484 C486 1.353 1_554 S
C484 N487 1.314 . S
C484 H490 0.930 . S
C485 N487 1.279 1_556 S
C485 C488 1.358 . S
C485 H491 0.930 . S
C486 C484 1.353 1_556 S
C486 C489 1.348 . S
C486 H524 0.930 1_556 S
N487 Li442 1.990 . S
N487 C484 1.314 . S
N487 C485 1.279 1_554 S
C488 C485 1.358 . S
C488 C489 1.356 . S
C488 H525 0.930 . S
C489 C486 1.348 . S
C489 C488 1.356 . S
H490 C484 0.930 . S
H491 C485 0.930 . S
C492 N493 1.314 . S
C492 C494 1.353 . S
C492 H498 0.930 . S
N493 Li443 1.990 . S
N493 C492 1.314 . S
N493 C496 1.279 . S
C494 C492 1.353 . S
C494 C497 1.348 . S
C494 H526 0.929 . S
C495 C496 1.358 . S
C495 C497 1.356 . S
C495 H527 0.930 . S
C496 N493 1.279 . S
C496 C495 1.358 . S
C496 H499 0.930 . S
C497 C494 1.348 . S
C497 C495 1.356 . S
H498 C492 0.930 . S
H499 C496 0.930 . S
O500 Li440 1.956 . S
O500 Li441 1.970 . S
O500 Li442 1.961 . S
O500 C444 1.325 . S
O501 Li440 1.970 . S
O501 Li441 1.956 . S
O501 Li443 1.961 . S
O501 C450 1.325 . S
O502 Li440 1.961 . S
O502 Li442 1.956 . S
O502 Li443 1.970 . S
O502 C472 1.325 . S
O503 Li441 1.961 . S
O503 Li442 1.970 . S
O503 Li443 1.956 . S
O503 C478 1.325 . S
H504 C446 0.929 . S
H505 C447 0.930 . S
H506 C448 0.930 . S
H507 C449 0.930 . S
H508 C451 0.930 . S
H509 C453 0.929 . S
H510 C454 0.930 . S
H511 C455 0.930 . S
H512 C458 0.930 . S
H513 C461 0.929 . S
H514 C466 0.929 . S
H515 C467 0.930 . S
H516 C474 0.929 1_554 S
H517 C475 0.930 1_554 S
H518 C476 0.930 . S
H519 C477 0.930 . S
H520 C479 0.929 . S
H521 C480 0.930 . S
H522 C481 0.930 . S
H523 C482 0.930 . S
H524 C486 0.930 1_554 S
H525 C488 0.930 . S
H526 C494 0.929 . S
H527 C495 0.930 . S
Li528 N545 1.990 . S
Li528 O588 1.956 . S
Li528 O589 1.970 . S
Li528 O590 1.961 . S
Li529 N553 1.990 . S
Li529 O588 1.970 . S
Li529 O589 1.956 . S
Li529 O591 1.961 . S
Li530 N575 1.990 . S
Li530 O588 1.961 . S
Li530 O590 1.956 . S
Li530 O591 1.970 . S
Li531 N581 1.990 . S
Li531 O589 1.961 . S
Li531 O590 1.970 . S
Li531 O591 1.956 . S
C532 C534 1.348 . S
C532 C535 1.356 . S
C532 O588 1.325 . S
N533 C536 1.314 . S
N533 C537 1.279 . S
C534 C532 1.348 . S
C534 C536 1.353 . S
C534 H592 0.929 . S
C535 C532 1.356 . S
C535 C537 1.358 . S
C535 H593 0.930 . S
C536 N533 1.314 . S
C536 C534 1.353 . S
C536 H594 0.930 . S
C537 N533 1.279 . S
C537 C535 1.358 . S
C537 H595 0.930 . S
C538 C541 1.348 . S
C538 C542 1.356 . S
C538 O589 1.325 . S
C539 N540 1.279 . S
C539 C542 1.358 . S
C539 H596 0.930 . S
N540 C539 1.279 . S
N540 C543 1.314 . S
C541 C538 1.348 . S
C541 C543 1.353 . S
C541 H597 0.929 . S
C542 C538 1.356 . S
C542 C539 1.358 . S
C542 H598 0.930 . S
C543 N540 1.314 . S
C543 C541 1.353 . S
C543 H599 0.930 . S
C544 N545 1.314 . S
C544 C549 1.353 . S
C544 H550 0.930 . S
N545 Li528 1.990 . S
N545 C544 1.314 . S
N545 C547 1.279 . S
C546 C547 1.358 . S
C546 C548 1.356 . S
C546 H600 0.930 . S
C547 N545 1.279 . S
C547 C546 1.358 . S
C547 H551 0.930 . S
C548 C546 1.356 . S
C548 C549 1.348 . S
C549 C544 1.353 . S
C549 C548 1.348 . S
C549 H601 0.929 . S
H550 C544 0.930 . S
H551 C547 0.930 . S
C552 N553 1.314 . S
C552 C554 1.353 . S
C552 H558 0.930 . S
N553 Li529 1.990 . S
N553 C552 1.314 . S
N553 C556 1.279 . S
C554 C552 1.353 . S
C554 C557 1.348 . S
C554 H602 0.929 . S
C555 C556 1.358 . S
C555 C557 1.356 . S
C555 H603 0.930 . S
C556 N553 1.279 . S
C556 C555 1.358 . S
C556 H559 0.930 . S
C557 C554 1.348 . S
C557 C555 1.356 . S
H558 C552 0.930 . S
H559 C556 0.930 . S
C560 C562 1.348 . S
C560 C563 1.356 . S
C560 O590 1.325 . S
N561 C564 1.314 . S
N561 C565 1.279 . S
C562 C560 1.348 . S
C562 C564 1.353 . S
C562 H604 0.929 . S
C563 C560 1.356 . S
C563 C565 1.358 . S
C563 H605 0.930 . S
C564 N561 1.314 . S
C564 C562 1.353 . S
C564 H606 0.930 . S
C565 N561 1.279 . S
C565 C563 1.358 . S
C565 H607 0.930 . S
C566 C567 1.348 . S
C566 C568 1.356 . S
C566 O591 1.325 . S
C567 C566 1.348 . S
C567 C569 1.353 . S
C567 H608 0.929 . S
C568 C566 1.356 . S
C568 C570 1.358 . S
C568 H609 0.930 . S
C569 C567 1.353 . S
C569 N571 1.314 . S
C569 H610 0.930 . S
C570 C568 1.358 . S
C570 N571 1.279 . S
C570 H611 0.930 . S
N571 C569 1.314 . S
N571 C570 1.279 . S
C572 C574 1.353 . S
C572 N575 1.314 . S
C572 H578 0.930 . S
C573 N575 1.279 . S
C573 C576 1.358 . S
C573 H579 0.930 . S
C574 C572 1.353 . S
C574 C577 1.348 . S
C574 H612 0.929 . S
N575 Li530 1.990 . S
N575 C572 1.314 . S
N575 C573 1.279 . S
C576 C573 1.358 . S
C576 C577 1.356 . S
C576 H613 0.930 . S
C577 C574 1.348 . S
C577 C576 1.356 . S
H578 C572 0.930 . S
H579 C573 0.930 . S
C580 N581 1.314 . S
C580 C582 1.353 . S
C580 H586 0.930 . S
N581 Li531 1.990 . S
N581 C580 1.314 . S
N581 C584 1.279 . S
C582 C580 1.353 . S
C582 C585 1.348 . S
C582 H614 0.929 . S
C583 C584 1.358 . S
C583 C585 1.356 . S
C583 H615 0.930 . S
C584 N581 1.279 . S
C584 C583 1.358 . S
C584 H587 0.930 . S
C585 C582 1.348 . S
C585 C583 1.356 . S
H586 C580 0.930 . S
H587 C584 0.930 . S
O588 Li528 1.956 . S
O588 Li529 1.970 . S
O588 Li530 1.961 . S
O588 C532 1.325 . S
O589 Li528 1.970 . S
O589 Li529 1.956 . S
O589 Li531 1.961 . S
O589 C538 1.325 . S
O590 Li528 1.961 . S
O590 Li530 1.956 . S
O590 Li531 1.970 . S
O590 C560 1.325 . S
O591 Li529 1.961 . S
O591 Li530 1.970 . S
O591 Li531 1.956 . S
O591 C566 1.325 . S
H592 C534 0.929 . S
H593 C535 0.930 . S
H594 C536 0.930 . S
H595 C537 0.930 . S
H596 C539 0.930 . S
H597 C541 0.929 . S
H598 C542 0.930 . S
H599 C543 0.930 . S
H600 C546 0.930 . S
H601 C549 0.929 . S
H602 C554 0.929 . S
H603 C555 0.930 . S
H604 C562 0.929 . S
H605 C563 0.930 . S
H606 C564 0.930 . S
H607 C565 0.930 . S
H608 C567 0.929 . S
H609 C568 0.930 . S
H610 C569 0.930 . S
H611 C570 0.930 . S
H612 C574 0.929 . S
H613 C576 0.930 . S
H614 C582 0.929 . S
H615 C583 0.930 . S
Li616 N633 1.990 . S
Li616 O676 1.956 . S
Li616 O677 1.970 . S
Li616 O678 1.961 . S
Li617 N641 1.990 . S
Li617 O676 1.970 . S
Li617 O677 1.956 . S
Li617 O679 1.961 . S
Li618 N663 1.990 . S
Li618 O676 1.961 . S
Li618 O678 1.956 . S
Li618 O679 1.970 . S
Li619 N669 1.990 . S
Li619 O677 1.961 . S
Li619 O678 1.970 . S
Li619 O679 1.956 . S
C620 C622 1.348 . S
C620 C623 1.356 . S
C620 O676 1.325 . S
N621 C624 1.314 . S
N621 C625 1.279 . S
C622 C620 1.348 . S
C622 C624 1.353 . S
C622 H680 0.929 . S
C623 C620 1.356 . S
C623 C625 1.358 . S
C623 H681 0.930 . S
C624 N621 1.314 . S
C624 C622 1.353 . S
C624 H682 0.930 . S
C625 N621 1.279 . S
C625 C623 1.358 . S
C625 H683 0.930 . S
C626 C629 1.348 . S
C626 C630 1.356 . S
C626 O677 1.325 . S
C627 N628 1.279 . S
C627 C630 1.358 . S
C627 H684 0.930 . S
N628 C627 1.279 . S
N628 C631 1.314 . S
C629 C626 1.348 . S
C629 C631 1.353 . S
C629 H685 0.929 . S
C630 C626 1.356 . S
C630 C627 1.358 . S
C630 H686 0.930 . S
C631 N628 1.314 . S
C631 C629 1.353 . S
C631 H687 0.930 . S
C632 N633 1.314 . S
C632 C637 1.353 . S
C632 H638 0.930 . S
N633 Li616 1.990 . S
N633 C632 1.314 . S
N633 C635 1.279 . S
C634 C635 1.358 . S
C634 C636 1.356 . S
C634 H688 0.930 . S
C635 N633 1.279 . S
C635 C634 1.358 . S
C635 H639 0.930 . S
C636 C634 1.356 . S
C636 C637 1.348 . S
C637 C632 1.353 . S
C637 C636 1.348 . S
C637 H689 0.929 . S
H638 C632 0.930 . S
H639 C635 0.930 . S
C640 N641 1.314 . S
C640 C642 1.353 . S
C640 H646 0.930 . S
N641 Li617 1.990 . S
N641 C640 1.314 . S
N641 C644 1.279 . S
C642 C640 1.353 . S
C642 C645 1.348 . S
C642 H690 0.929 . S
C643 C644 1.358 . S
C643 C645 1.356 . S
C643 H691 0.930 . S
C644 N641 1.279 . S
C644 C643 1.358 . S
C644 H647 0.930 . S
C645 C642 1.348 . S
C645 C643 1.356 . S
H646 C640 0.930 . S
H647 C644 0.930 . S
C648 C650 1.348 . S
C648 C651 1.356 . S
C648 O678 1.325 . S
N649 C652 1.314 . S
N649 C653 1.279 . S
C650 C648 1.348 . S
C650 C652 1.353 . S
C650 H692 0.929 . S
C651 C648 1.356 . S
C651 C653 1.358 . S
C651 H693 0.930 . S
C652 N649 1.314 . S
C652 C650 1.353 . S
C652 H694 0.930 . S
C653 N649 1.279 . S
C653 C651 1.358 . S
C653 H695 0.930 . S
C654 C655 1.348 . S
C654 C656 1.356 . S
C654 O679 1.325 . S
C655 C654 1.348 . S
C655 C657 1.353 . S
C655 H696 0.929 . S
C656 C654 1.356 . S
C656 C658 1.358 . S
C656 H697 0.930 . S
C657 C655 1.353 . S
C657 N659 1.314 . S
C657 H698 0.930 . S
C658 C656 1.358 . S
C658 N659 1.279 . S
C658 H699 0.930 . S
N659 C657 1.314 . S
N659 C658 1.279 . S
C660 C662 1.353 . S
C660 N663 1.314 . S
C660 H666 0.930 . S
C661 N663 1.279 . S
C661 C664 1.358 . S
C661 H667 0.930 . S
C662 C660 1.353 . S
C662 C665 1.348 . S
C662 H700 0.929 . S
N663 Li618 1.990 . S
N663 C660 1.314 . S
N663 C661 1.279 . S
C664 C661 1.358 . S
C664 C665 1.356 . S
C664 H701 0.930 . S
C665 C662 1.348 . S
C665 C664 1.356 . S
H666 C660 0.930 . S
H667 C661 0.930 . S
C668 N669 1.314 . S
C668 C670 1.353 . S
C668 H674 0.930 . S
N669 Li619 1.990 . S
N669 C668 1.314 . S
N669 C672 1.279 . S
C670 C668 1.353 . S
C670 C673 1.348 . S
C670 H702 0.929 . S
C671 C672 1.358 . S
C671 C673 1.356 . S
C671 H703 0.930 . S
C672 N669 1.279 . S
C672 C671 1.358 . S
C672 H675 0.930 . S
C673 C670 1.348 . S
C673 C671 1.356 . S
H674 C668 0.930 . S
H675 C672 0.930 . S
O676 Li616 1.956 . S
O676 Li617 1.970 . S
O676 Li618 1.961 . S
O676 C620 1.325 . S
O677 Li616 1.970 . S
O677 Li617 1.956 . S
O677 Li619 1.961 . S
O677 C626 1.325 . S
O678 Li616 1.961 . S
O678 Li618 1.956 . S
O678 Li619 1.970 . S
O678 C648 1.325 . S
O679 Li617 1.961 . S
O679 Li618 1.970 . S
O679 Li619 1.956 . S
O679 C654 1.325 . S
H680 C622 0.929 . S
H681 C623 0.930 . S
H682 C624 0.930 . S
H683 C625 0.930 . S
H684 C627 0.930 . S
H685 C629 0.929 . S
H686 C630 0.930 . S
H687 C631 0.930 . S
H688 C634 0.930 . S
H689 C637 0.929 . S
H690 C642 0.929 . S
H691 C643 0.930 . S
H692 C650 0.929 . S
H693 C651 0.930 . S
H694 C652 0.930 . S
H695 C653 0.930 . S
H696 C655 0.929 . S
H697 C656 0.930 . S
H698 C657 0.930 . S
H699 C658 0.930 . S
H700 C662 0.929 . S
H701 C664 0.930 . S
H702 C670 0.929 . S
H703 C671 0.930 . S
Li704 N721 1.990 . S
Li704 O764 1.956 . S
Li704 O765 1.970 . S
Li704 O766 1.961 . S
Li705 N729 1.990 . S
Li705 O764 1.970 . S
Li705 O765 1.956 . S
Li705 O767 1.961 . S
Li706 N751 1.990 . S
Li706 O764 1.961 . S
Li706 O766 1.956 . S
Li706 O767 1.970 . S
Li707 N757 1.990 . S
Li707 O765 1.961 . S
Li707 O766 1.970 . S
Li707 O767 1.956 . S
C708 C710 1.348 . S
C708 C711 1.356 . S
C708 O764 1.325 . S
N709 C712 1.314 . S
N709 C713 1.279 . S
C710 C708 1.348 . S
C710 C712 1.353 . S
C710 H768 0.929 . S
C711 C708 1.356 . S
C711 C713 1.358 . S
C711 H769 0.930 . S
C712 N709 1.314 . S
C712 C710 1.353 . S
C712 H770 0.930 . S
C713 N709 1.279 . S
C713 C711 1.358 . S
C713 H771 0.930 . S
C714 C717 1.348 . S
C714 C718 1.356 . S
C714 O765 1.325 . S
C715 N716 1.279 . S
C715 C718 1.358 . S
C715 H772 0.930 . S
N716 C715 1.279 . S
N716 C719 1.314 . S
C717 C714 1.348 . S
C717 C719 1.353 . S
C717 H773 0.929 . S
C718 C714 1.356 . S
C718 C715 1.358 . S
C718 H774 0.930 . S
C719 N716 1.314 . S
C719 C717 1.353 . S
C719 H775 0.930 . S
C720 N721 1.314 . S
C720 C725 1.353 . S
C720 H726 0.930 . S
N721 Li704 1.990 . S
N721 C720 1.314 . S
N721 C723 1.279 . S
C722 C723 1.358 . S
C722 C724 1.356 . S
C722 H776 0.930 . S
C723 N721 1.279 . S
C723 C722 1.358 . S
C723 H727 0.930 . S
C724 C722 1.356 . S
C724 C725 1.348 . S
C725 C720 1.353 . S
C725 C724 1.348 . S
C725 H777 0.929 . S
H726 C720 0.930 . S
H727 C723 0.930 . S
C728 N729 1.314 . S
C728 C730 1.353 1_556 S
C728 H734 0.930 . S
N729 Li705 1.990 . S
N729 C728 1.314 . S
N729 C732 1.279 . S
C730 C728 1.353 1_554 S
C730 C733 1.348 . S
C730 H778 0.929 . S
C731 C732 1.358 . S
C731 C733 1.356 1_556 S
C731 H779 0.930 . S
C732 N729 1.279 . S
C732 C731 1.358 . S
C732 H735 0.930 . S
C733 C730 1.348 . S
C733 C731 1.356 1_554 S
H734 C728 0.930 . S
H735 C732 0.930 . S
C736 C738 1.348 . S
C736 C739 1.356 . S
C736 O766 1.325 . S
N737 C740 1.314 . S
N737 C741 1.279 . S
C738 C736 1.348 . S
C738 C740 1.353 . S
C738 H780 0.929 . S
C739 C736 1.356 . S
C739 C741 1.358 . S
C739 H781 0.930 . S
C740 N737 1.314 . S
C740 C738 1.353 . S
C740 H782 0.930 . S
C741 N737 1.279 . S
C741 C739 1.358 . S
C741 H783 0.930 . S
C742 C743 1.348 . S
C742 C744 1.356 . S
C742 O767 1.325 . S
C743 C742 1.348 . S
C743 C745 1.353 . S
C743 H784 0.929 . S
C744 C742 1.356 . S
C744 C746 1.358 . S
C744 H785 0.930 . S
C745 C743 1.353 . S
C745 N747 1.314 . S
C745 H786 0.930 . S
C746 C744 1.358 . S
C746 N747 1.279 . S
C746 H787 0.930 1_556 S
N747 C745 1.314 . S
N747 C746 1.279 . S
C748 C750 1.353 . S
C748 N751 1.314 . S
C748 H754 0.930 . S
C749 N751 1.279 . S
C749 C752 1.358 . S
C749 H755 0.930 . S
C750 C748 1.353 . S
C750 C753 1.348 . S
C750 H788 0.929 . S
N751 Li706 1.990 . S
N751 C748 1.314 . S
N751 C749 1.279 . S
C752 C749 1.358 . S
C752 C753 1.356 . S
C752 H789 0.930 . S
C753 C750 1.348 . S
C753 C752 1.356 . S
H754 C748 0.930 . S
H755 C749 0.930 . S
C756 N757 1.314 . S
C756 C758 1.353 . S
C756 H762 0.930 . S
N757 Li707 1.990 . S
N757 C756 1.314 . S
N757 C760 1.279 . S
C758 C756 1.353 . S
C758 C761 1.348 . S
C758 H790 0.929 . S
C759 C760 1.358 . S
C759 C761 1.356 . S
C759 H791 0.930 . S
C760 N757 1.279 . S
C760 C759 1.358 . S
C760 H763 0.930 . S
C761 C758 1.348 . S
C761 C759 1.356 . S
H762 C756 0.930 . S
H763 C760 0.930 . S
O764 Li704 1.956 . S
O764 Li705 1.970 . S
O764 Li706 1.961 . S
O764 C708 1.325 . S
O765 Li704 1.970 . S
O765 Li705 1.956 . S
O765 Li707 1.961 . S
O765 C714 1.325 . S
O766 Li704 1.961 . S
O766 Li706 1.956 . S
O766 Li707 1.970 . S
O766 C736 1.325 . S
O767 Li705 1.961 . S
O767 Li706 1.970 . S
O767 Li707 1.956 . S
O767 C742 1.325 . S
H768 C710 0.929 . S
H769 C711 0.930 . S
H770 C712 0.930 . S
H771 C713 0.930 . S
H772 C715 0.930 . S
H773 C717 0.929 . S
H774 C718 0.930 . S
H775 C719 0.930 . S
H776 C722 0.930 . S
H777 C725 0.929 . S
H778 C730 0.929 . S
H779 C731 0.930 . S
H780 C738 0.929 . S
H781 C739 0.930 . S
H782 C740 0.930 . S
H783 C741 0.930 . S
H784 C743 0.929 . S
H785 C744 0.930 . S
H786 C745 0.930 . S
H787 C746 0.930 1_554 S
H788 C750 0.929 . S
H789 C752 0.930 . S
H790 C758 0.929 . S
H791 C759 0.930 . S
Li792 N809 1.990 . S
Li792 O852 1.956 . S
Li792 O853 1.970 . S
Li792 O854 1.961 . S
Li793 N817 1.990 . S
Li793 O852 1.970 . S
Li793 O853 1.956 . S
Li793 O855 1.961 . S
Li794 N839 1.990 . S
Li794 O852 1.961 . S
Li794 O854 1.956 . S
Li794 O855 1.970 . S
Li795 N845 1.990 . S
Li795 O853 1.961 . S
Li795 O854 1.970 . S
Li795 O855 1.956 . S
C796 C798 1.348 . S
C796 C799 1.356 . S
C796 O852 1.325 . S
N797 C800 1.314 . S
N797 C801 1.279 . S
C798 C796 1.348 . S
C798 C800 1.353 . S
C798 H856 0.929 . S
C799 C796 1.356 . S
C799 C801 1.358 . S
C799 H857 0.930 . S
C800 N797 1.314 . S
C800 C798 1.353 . S
C800 H858 0.930 . S
C801 N797 1.279 . S
C801 C799 1.358 . S
C801 H859 0.930 . S
C802 C805 1.348 . S
C802 C806 1.356 . S
C802 O853 1.325 . S
C803 N804 1.279 . S
C803 C806 1.358 . S
C803 H860 0.930 . S
N804 C803 1.279 . S
N804 C807 1.314 . S
C805 C802 1.348 . S
C805 C807 1.353 . S
C805 H861 0.929 . S
C806 C802 1.356 . S
C806 C803 1.358 . S
C806 H862 0.930 . S
C807 N804 1.314 . S
C807 C805 1.353 . S
C807 H863 0.930 . S
C808 N809 1.314 . S
C808 C813 1.353 . S
C808 H814 0.930 . S
N809 Li792 1.990 . S
N809 C808 1.314 . S
N809 C811 1.279 . S
C810 C811 1.358 . S
C810 C812 1.356 . S
C810 H864 0.930 . S
C811 N809 1.279 . S
C811 C810 1.358 . S
C811 H815 0.930 . S
C812 C810 1.356 . S
C812 C813 1.348 . S
C813 C808 1.353 . S
C813 C812 1.348 . S
C813 H865 0.929 . S
H814 C808 0.930 . S
H815 C811 0.930 . S
C816 N817 1.314 . S
C816 C818 1.353 . S
C816 H822 0.930 . S
N817 Li793 1.990 . S
N817 C816 1.314 . S
N817 C820 1.279 . S
C818 C816 1.353 . S
C818 C821 1.348 . S
C818 H866 0.929 . S
C819 C820 1.358 . S
C819 C821 1.356 . S
C819 H867 0.930 . S
C820 N817 1.279 . S
C820 C819 1.358 . S
C820 H823 0.930 . S
C821 C818 1.348 . S
C821 C819 1.356 . S
H822 C816 0.930 . S
H823 C820 0.930 . S
C824 C826 1.348 . S
C824 C827 1.356 . S
C824 O854 1.325 . S
N825 C828 1.314 . S
N825 C829 1.279 . S
C826 C824 1.348 . S
C826 C828 1.353 . S
C826 H868 0.929 . S
C827 C824 1.356 . S
C827 C829 1.358 . S
C827 H869 0.930 . S
C828 N825 1.314 . S
C828 C826 1.353 . S
C828 H870 0.930 . S
C829 N825 1.279 . S
C829 C827 1.358 . S
C829 H871 0.930 . S
C830 C831 1.348 . S
C830 C832 1.356 . S
C830 O855 1.325 . S
C831 C830 1.348 . S
C831 C833 1.353 . S
C831 H872 0.929 . S
C832 C830 1.356 . S
C832 C834 1.358 . S
C832 H873 0.930 . S
C833 C831 1.353 . S
C833 N835 1.314 . S
C833 H874 0.930 . S
C834 C832 1.358 . S
C834 N835 1.279 . S
C834 H875 0.930 . S
N835 C833 1.314 . S
N835 C834 1.279 . S
C836 C838 1.353 . S
C836 N839 1.314 . S
C836 H842 0.930 . S
C837 N839 1.279 . S
C837 C840 1.358 . S
C837 H843 0.930 . S
C838 C836 1.353 . S
C838 C841 1.348 . S
C838 H876 0.929 . S
N839 Li794 1.990 . S
N839 C836 1.314 . S
N839 C837 1.279 . S
C840 C837 1.358 . S
C840 C841 1.356 . S
C840 H877 0.930 . S
C841 C838 1.348 . S
C841 C840 1.356 . S
H842 C836 0.930 . S
H843 C837 0.930 . S
C844 N845 1.314 . S
C844 C846 1.353 . S
C844 H850 0.930 . S
N845 Li795 1.990 . S
N845 C844 1.314 . S
N845 C848 1.279 . S
C846 C844 1.353 . S
C846 C849 1.348 . S
C846 H878 0.929 . S
C847 C848 1.358 . S
C847 C849 1.356 . S
C847 H879 0.930 . S
C848 N845 1.279 . S
C848 C847 1.358 . S
C848 H851 0.930 . S
C849 C846 1.348 . S
C849 C847 1.356 . S
H850 C844 0.930 . S
H851 C848 0.930 . S
O852 Li792 1.956 . S
O852 Li793 1.970 . S
O852 Li794 1.961 . S
O852 C796 1.325 . S
O853 Li792 1.970 . S
O853 Li793 1.956 . S
O853 Li795 1.961 . S
O853 C802 1.325 . S
O854 Li792 1.961 . S
O854 Li794 1.956 . S
O854 Li795 1.970 . S
O854 C824 1.325 . S
O855 Li793 1.961 . S
O855 Li794 1.970 . S
O855 Li795 1.956 . S
O855 C830 1.325 . S
H856 C798 0.929 . S
H857 C799 0.930 . S
H858 C800 0.930 . S
H859 C801 0.930 . S
H860 C803 0.930 . S
H861 C805 0.929 . S
H862 C806 0.930 . S
H863 C807 0.930 . S
H864 C810 0.930 . S
H865 C813 0.929 . S
H866 C818 0.929 . S
H867 C819 0.930 . S
H868 C826 0.929 . S
H869 C827 0.930 . S
H870 C828 0.930 . S
H871 C829 0.930 . S
H872 C831 0.929 . S
H873 C832 0.930 . S
H874 C833 0.930 . S
H875 C834 0.930 . S
H876 C838 0.929 . S
H877 C840 0.930 . S
H878 C846 0.929 . S
H879 C847 0.930 . S
Li880 N897 1.990 . S
Li880 O940 1.956 . S
Li880 O941 1.970 . S
Li880 O942 1.961 . S
Li881 N905 1.990 . S
Li881 O940 1.970 . S
Li881 O941 1.956 . S
Li881 O943 1.961 . S
Li882 N927 1.990 . S
Li882 O940 1.961 . S
Li882 O942 1.956 . S
Li882 O943 1.970 . S
Li883 N933 1.990 . S
Li883 O941 1.961 . S
Li883 O942 1.970 . S
Li883 O943 1.956 . S
C884 C886 1.348 . S
C884 C887 1.356 . S
C884 O940 1.325 . S
N885 C888 1.314 . S
N885 C889 1.279 . S
C886 C884 1.348 . S
C886 C888 1.353 . S
C886 H944 0.929 . S
C887 C884 1.356 . S
C887 C889 1.358 . S
C887 H945 0.930 . S
C888 N885 1.314 . S
C888 C886 1.353 . S
C888 H946 0.930 . S
C889 N885 1.279 . S
C889 C887 1.358 . S
C889 H947 0.930 . S
C890 C893 1.348 . S
C890 C894 1.356 . S
C890 O941 1.325 . S
C891 N892 1.279 . S
C891 C894 1.358 . S
C891 H948 0.930 . S
N892 C891 1.279 . S
N892 C895 1.314 . S
C893 C890 1.348 . S
C893 C895 1.353 . S
C893 H949 0.929 . S
C894 C890 1.356 . S
C894 C891 1.358 . S
C894 H950 0.930 . S
C895 N892 1.314 . S
C895 C893 1.353 . S
C895 H951 0.930 . S
C896 N897 1.314 . S
C896 C901 1.353 . S
C896 H902 0.930 . S
N897 Li880 1.990 . S
N897 C896 1.314 . S
N897 C899 1.279 . S
C898 C899 1.358 . S
C898 C900 1.356 . S
C898 H952 0.930 . S
C899 N897 1.279 . S
C899 C898 1.358 . S
C899 H903 0.930 . S
C900 C898 1.356 . S
C900 C901 1.348 . S
C901 C896 1.353 . S
C901 C900 1.348 . S
C901 H953 0.929 . S
H902 C896 0.930 . S
H903 C899 0.930 . S
C904 N905 1.314 . S
C904 C906 1.353 . S
C904 H910 0.930 . S
N905 Li881 1.990 . S
N905 C904 1.314 . S
N905 C908 1.279 . S
C906 C904 1.353 . S
C906 C909 1.348 . S
C906 H954 0.929 . S
C907 C908 1.358 . S
C907 C909 1.356 . S
C907 H955 0.930 . S
C908 N905 1.279 . S
C908 C907 1.358 . S
C908 H911 0.930 . S
C909 C906 1.348 . S
C909 C907 1.356 . S
H910 C904 0.930 . S
H911 C908 0.930 . S
C912 C914 1.348 . S
C912 C915 1.356 . S
C912 O942 1.325 . S
N913 C916 1.314 . S
N913 C917 1.279 . S
C914 C912 1.348 . S
C914 C916 1.353 . S
C914 H956 0.929 . S
C915 C912 1.356 . S
C915 C917 1.358 . S
C915 H957 0.930 . S
C916 N913 1.314 . S
C916 C914 1.353 . S
C916 H958 0.930 . S
C917 N913 1.279 . S
C917 C915 1.358 . S
C917 H959 0.930 . S
C918 C919 1.348 . S
C918 C920 1.356 . S
C918 O943 1.325 . S
C919 C918 1.348 . S
C919 C921 1.353 . S
C919 H960 0.929 . S
C920 C918 1.356 . S
C920 C922 1.358 . S
C920 H961 0.930 . S
C921 C919 1.353 . S
C921 N923 1.314 . S
C921 H962 0.930 . S
C922 C920 1.358 . S
C922 N923 1.279 . S
C922 H963 0.930 . S
N923 C921 1.314 . S
N923 C922 1.279 . S
C924 C926 1.353 . S
C924 N927 1.314 . S
C924 H930 0.930 . S
C925 N927 1.279 . S
C925 C928 1.358 . S
C925 H931 0.930 . S
C926 C924 1.353 . S
C926 C929 1.348 . S
C926 H964 0.929 . S
N927 Li882 1.990 . S
N927 C924 1.314 . S
N927 C925 1.279 . S
C928 C925 1.358 . S
C928 C929 1.356 . S
C928 H965 0.930 . S
C929 C926 1.348 . S
C929 C928 1.356 . S
H930 C924 0.930 . S
H931 C925 0.930 . S
C932 N933 1.314 . S
C932 C934 1.353 . S
C932 H938 0.930 . S
N933 Li883 1.990 . S
N933 C932 1.314 . S
N933 C936 1.279 . S
C934 C932 1.353 . S
C934 C937 1.348 . S
C934 H966 0.929 . S
C935 C936 1.358 . S
C935 C937 1.356 . S
C935 H967 0.930 . S
C936 N933 1.279 . S
C936 C935 1.358 . S
C936 H939 0.930 . S
C937 C934 1.348 . S
C937 C935 1.356 . S
H938 C932 0.930 . S
H939 C936 0.930 . S
O940 Li880 1.956 . S
O940 Li881 1.970 . S
O940 Li882 1.961 . S
O940 C884 1.325 . S
O941 Li880 1.970 . S
O941 Li881 1.956 . S
O941 Li883 1.961 . S
O941 C890 1.325 . S
O942 Li880 1.961 . S
O942 Li882 1.956 . S
O942 Li883 1.970 . S
O942 C912 1.325 . S
O943 Li881 1.961 . S
O943 Li882 1.970 . S
O943 Li883 1.956 . S
O943 C918 1.325 . S
H944 C886 0.929 . S
H945 C887 0.930 . S
H946 C888 0.930 . S
H947 C889 0.930 . S
H948 C891 0.930 . S
H949 C893 0.929 . S
H950 C894 0.930 . S
H951 C895 0.930 . S
H952 C898 0.930 . S
H953 C901 0.929 . S
H954 C906 0.929 . S
H955 C907 0.930 . S
H956 C914 0.929 . S
H957 C915 0.930 . S
H958 C916 0.930 . S
H959 C917 0.930 . S
H960 C919 0.929 . S
H961 C920 0.930 . S
H962 C921 0.930 . S
H963 C922 0.930 . S
H964 C926 0.929 . S
H965 C928 0.930 . S
H966 C934 0.929 . S
H967 C935 0.930 . S
Li968 N985 1.990 . S
Li968 O1028 1.956 . S
Li968 O1029 1.970 . S
Li968 O1030 1.961 . S
Li969 N993 1.990 . S
Li969 O1028 1.970 . S
Li969 O1029 1.956 . S
Li969 O1031 1.961 . S
Li970 N1015 1.990 . S
Li970 O1028 1.961 . S
Li970 O1030 1.956 . S
Li970 O1031 1.970 . S
Li971 N1021 1.990 . S
Li971 O1029 1.961 . S
Li971 O1030 1.970 . S
Li971 O1031 1.956 . S
C972 C974 1.348 . S
C972 C975 1.356 . S
C972 O1028 1.325 . S
N973 C976 1.314 . S
N973 C977 1.279 . S
C974 C972 1.348 . S
C974 C976 1.353 . S
C974 H1032 0.929 . S
C975 C972 1.356 . S
C975 C977 1.358 . S
C975 H1033 0.930 . S
C976 N973 1.314 . S
C976 C974 1.353 . S
C976 H1034 0.930 . S
C977 N973 1.279 . S
C977 C975 1.358 . S
C977 H1035 0.930 . S
C978 C981 1.348 . S
C978 C982 1.356 . S
C978 O1029 1.325 . S
C979 N980 1.279 . S
C979 C982 1.358 . S
C979 H1036 0.930 . S
N980 C979 1.279 . S
N980 C983 1.314 . S
C981 C978 1.348 . S
C981 C983 1.353 . S
C981 H1037 0.929 . S
C982 C978 1.356 . S
C982 C979 1.358 . S
C982 H1038 0.930 . S
C983 N980 1.314 . S
C983 C981 1.353 . S
C983 H1039 0.930 . S
C984 N985 1.314 1_556 S
C984 C989 1.353 . S
C984 H990 0.930 . S
N985 Li968 1.990 . S
N985 C984 1.314 1_554 S
N985 C987 1.279 . S
C986 C987 1.358 1_556 S
C986 C988 1.356 . S
C986 H1040 0.930 . S
C987 N985 1.279 . S
C987 C986 1.358 1_554 S
C987 H991 0.930 . S
C988 C986 1.356 . S
C988 C989 1.348 . S
C989 C984 1.353 . S
C989 C988 1.348 . S
C989 H1041 0.929 . S
H990 C984 0.930 . S
H991 C987 0.930 . S
C992 N993 1.314 . S
C992 C994 1.353 . S
C992 H998 0.930 . S
N993 Li969 1.990 . S
N993 C992 1.314 . S
N993 C996 1.279 . S
C994 C992 1.353 . S
C994 C997 1.348 . S
C994 H1042 0.929 . S
C995 C996 1.358 . S
C995 C997 1.356 . S
C995 H1043 0.930 . S
C996 N993 1.279 . S
C996 C995 1.358 . S
C996 H999 0.930 . S
C997 C994 1.348 . S
C997 C995 1.356 . S
H998 C992 0.930 . S
H999 C996 0.930 . S
C1000 C1002 1.348 . S
C1000 C1003 1.356 1_554 S
C1000 O1030 1.325 . S
N1001 C1004 1.314 . S
N1001 C1005 1.279 . S
C1002 C1000 1.348 . S
C1002 C1004 1.353 1_554 S
C1002 H1044 0.929 . S
C1003 C1000 1.356 1_556 S
C1003 C1005 1.358 . S
C1003 H1045 0.930 . S
C1004 N1001 1.314 . S
C1004 C1002 1.353 1_556 S
C1004 H1046 0.930 . S
C1005 N1001 1.279 . S
C1005 C1003 1.358 . S
C1005 H1047 0.930 . S
C1006 C1007 1.348 . S
C1006 C1008 1.356 . S
C1006 O1031 1.325 . S
C1007 C1006 1.348 . S
C1007 C1009 1.353 . S
C1007 H1048 0.929 . S
C1008 C1006 1.356 . S
C1008 C1010 1.358 . S
C1008 H1049 0.930 . S
C1009 C1007 1.353 . S
C1009 N1011 1.314 . S
C1009 H1050 0.930 . S
C1010 C1008 1.358 . S
C1010 N1011 1.279 . S
C1010 H1051 0.930 . S
N1011 C1009 1.314 . S
N1011 C1010 1.279 . S
C1012 C1014 1.353 . S
C1012 N1015 1.314 . S
C1012 H1018 0.930 . S
C1013 N1015 1.279 . S
C1013 C1016 1.358 . S
C1013 H1019 0.930 . S
C1014 C1012 1.353 . S
C1014 C1017 1.348 . S
C1014 H1052 0.929 . S
N1015 Li970 1.990 . S
N1015 C1012 1.314 . S
N1015 C1013 1.279 . S
C1016 C1013 1.358 . S
C1016 C1017 1.356 . S
C1016 H1053 0.930 . S
C1017 C1014 1.348 . S
C1017 C1016 1.356 . S
H1018 C1012 0.930 . S
H1019 C1013 0.930 . S
C1020 N1021 1.314 . S
C1020 C1022 1.353 . S
C1020 H1026 0.930 . S
N1021 Li971 1.990 . S
N1021 C1020 1.314 . S
N1021 C1024 1.279 . S
C1022 C1020 1.353 . S
C1022 C1025 1.348 . S
C1022 H1054 0.929 . S
C1023 C1024 1.358 . S
C1023 C1025 1.356 . S
C1023 H1055 0.930 . S
C1024 N1021 1.279 . S
C1024 C1023 1.358 . S
C1024 H1027 0.930 . S
C1025 C1022 1.348 . S
C1025 C1023 1.356 . S
H1026 C1020 0.930 . S
H1027 C1024 0.930 . S
O1028 Li968 1.956 . S
O1028 Li969 1.970 . S
O1028 Li970 1.961 . S
O1028 C972 1.325 . S
O1029 Li968 1.970 . S
O1029 Li969 1.956 . S
O1029 Li971 1.961 . S
O1029 C978 1.325 . S
O1030 Li968 1.961 . S
O1030 Li970 1.956 . S
O1030 Li971 1.970 . S
O1030 C1000 1.325 . S
O1031 Li969 1.961 . S
O1031 Li970 1.970 . S
O1031 Li971 1.956 . S
O1031 C1006 1.325 . S
H1032 C974 0.929 . S
H1033 C975 0.930 . S
H1034 C976 0.930 . S
H1035 C977 0.930 . S
H1036 C979 0.930 . S
H1037 C981 0.929 . S
H1038 C982 0.930 . S
H1039 C983 0.930 . S
H1040 C986 0.930 . S
H1041 C989 0.929 . S
H1042 C994 0.929 . S
H1043 C995 0.930 . S
H1044 C1002 0.929 . S
H1045 C1003 0.930 . S
H1046 C1004 0.930 . S
H1047 C1005 0.930 . S
H1048 C1007 0.929 . S
H1049 C1008 0.930 . S
H1050 C1009 0.930 . S
H1051 C1010 0.930 . S
H1052 C1014 0.929 . S
H1053 C1016 0.930 . S
H1054 C1022 0.929 . S
H1055 C1023 0.930 . S
Li1056 N1073 1.990 . S
Li1056 O1116 1.956 . S
Li1056 O1117 1.970 . S
Li1056 O1118 1.961 . S
Li1057 N1081 1.990 . S
Li1057 O1116 1.970 . S
Li1057 O1117 1.956 . S
Li1057 O1119 1.961 . S
Li1058 N1103 1.990 . S
Li1058 O1116 1.961 . S
Li1058 O1118 1.956 . S
Li1058 O1119 1.970 . S
Li1059 N1109 1.990 . S
Li1059 O1117 1.961 . S
Li1059 O1118 1.970 . S
Li1059 O1119 1.956 . S
C1060 C1062 1.348 . S
C1060 C1063 1.356 . S
C1060 O1116 1.325 . S
N1061 C1064 1.314 . S
N1061 C1065 1.279 . S
C1062 C1060 1.348 . S
C1062 C1064 1.353 . S
C1062 H1120 0.929 . S
C1063 C1060 1.356 . S
C1063 C1065 1.358 . S
C1063 H1121 0.930 . S
C1064 N1061 1.314 . S
C1064 C1062 1.353 . S
C1064 H1122 0.930 . S
C1065 N1061 1.279 . S
C1065 C1063 1.358 . S
C1065 H1123 0.930 . S
C1066 C1069 1.348 . S
C1066 C1070 1.356 . S
C1066 O1117 1.325 . S
C1067 N1068 1.279 . S
C1067 C1070 1.358 . S
C1067 H1124 0.930 1_554 S
N1068 C1067 1.279 . S
N1068 C1071 1.314 . S
C1069 C1066 1.348 . S
C1069 C1071 1.353 . S
C1069 H1125 0.929 . S
C1070 C1066 1.356 . S
C1070 C1067 1.358 . S
C1070 H1126 0.930 . S
C1071 N1068 1.314 . S
C1071 C1069 1.353 . S
C1071 H1127 0.930 . S
C1072 N1073 1.314 . S
C1072 C1077 1.353 . S
C1072 H1078 0.930 . S
N1073 Li1056 1.990 . S
N1073 C1072 1.314 . S
N1073 C1075 1.279 . S
C1074 C1075 1.358 . S
C1074 C1076 1.356 . S
C1074 H1128 0.930 . S
C1075 N1073 1.279 . S
C1075 C1074 1.358 . S
C1075 H1079 0.930 . S
C1076 C1074 1.356 . S
C1076 C1077 1.348 . S
C1077 C1072 1.353 . S
C1077 C1076 1.348 . S
C1077 H1129 0.929 . S
H1078 C1072 0.930 . S
H1079 C1075 0.930 . S
C1080 N1081 1.314 . S
C1080 C1082 1.353 . S
C1080 H1086 0.930 . S
N1081 Li1057 1.990 . S
N1081 C1080 1.314 . S
N1081 C1084 1.279 . S
C1082 C1080 1.353 . S
C1082 C1085 1.348 . S
C1082 H1130 0.929 . S
C1083 C1084 1.358 . S
C1083 C1085 1.356 . S
C1083 H1131 0.930 . S
C1084 N1081 1.279 . S
C1084 C1083 1.358 . S
C1084 H1087 0.930 . S
C1085 C1082 1.348 . S
C1085 C1083 1.356 . S
H1086 C1080 0.930 . S
H1087 C1084 0.930 . S
C1088 C1090 1.348 . S
C1088 C1091 1.356 . S
C1088 O1118 1.325 . S
N1089 C1092 1.314 . S
N1089 C1093 1.279 . S
C1090 C1088 1.348 . S
C1090 C1092 1.353 . S
C1090 H1132 0.929 . S
C1091 C1088 1.356 . S
C1091 C1093 1.358 . S
C1091 H1133 0.930 . S
C1092 N1089 1.314 . S
C1092 C1090 1.353 . S
C1092 H1134 0.930 . S
C1093 N1089 1.279 . S
C1093 C1091 1.358 . S
C1093 H1135 0.930 . S
C1094 C1095 1.348 . S
C1094 C1096 1.356 . S
C1094 O1119 1.325 . S
C1095 C1094 1.348 . S
C1095 C1097 1.353 . S
C1095 H1136 0.929 . S
C1096 C1094 1.356 . S
C1096 C1098 1.358 . S
C1096 H1137 0.930 . S
C1097 C1095 1.353 . S
C1097 N1099 1.314 . S
C1097 H1138 0.930 . S
C1098 C1096 1.358 . S
C1098 N1099 1.279 . S
C1098 H1139 0.930 . S
N1099 C1097 1.314 . S
N1099 C1098 1.279 . S
C1100 C1102 1.353 . S
C1100 N1103 1.314 . S
C1100 H1106 0.930 . S
C1101 N1103 1.279 . S
C1101 C1104 1.358 . S
C1101 H1107 0.930 . S
C1102 C1100 1.353 . S
C1102 C1105 1.348 . S
C1102 H1140 0.929 . S
N1103 Li1058 1.990 . S
N1103 C1100 1.314 . S
N1103 C1101 1.279 . S
C1104 C1101 1.358 . S
C1104 C1105 1.356 . S
C1104 H1141 0.930 . S
C1105 C1102 1.348 . S
C1105 C1104 1.356 . S
H1106 C1100 0.930 . S
H1107 C1101 0.930 . S
C1108 N1109 1.314 . S
C1108 C1110 1.353 1_554 S
C1108 H1114 0.930 . S
N1109 Li1059 1.990 . S
N1109 C1108 1.314 . S
N1109 C1112 1.279 . S
C1110 C1108 1.353 1_556 S
C1110 C1113 1.348 . S
C1110 H1142 0.929 . S
C1111 C1112 1.358 . S
C1111 C1113 1.356 1_554 S
C1111 H1143 0.930 . S
C1112 N1109 1.279 . S
C1112 C1111 1.358 . S
C1112 H1115 0.930 . S
C1113 C1110 1.348 . S
C1113 C1111 1.356 1_556 S
H1114 C1108 0.930 . S
H1115 C1112 0.930 . S
O1116 Li1056 1.956 . S
O1116 Li1057 1.970 . S
O1116 Li1058 1.961 . S
O1116 C1060 1.325 . S
O1117 Li1056 1.970 . S
O1117 Li1057 1.956 . S
O1117 Li1059 1.961 . S
O1117 C1066 1.325 . S
O1118 Li1056 1.961 . S
O1118 Li1058 1.956 . S
O1118 Li1059 1.970 . S
O1118 C1088 1.325 . S
O1119 Li1057 1.961 . S
O1119 Li1058 1.970 . S
O1119 Li1059 1.956 . S
O1119 C1094 1.325 . S
H1120 C1062 0.929 . S
H1121 C1063 0.930 . S
H1122 C1064 0.930 . S
H1123 C1065 0.930 . S
H1124 C1067 0.930 1_556 S
H1125 C1069 0.929 . S
H1126 C1070 0.930 . S
H1127 C1071 0.930 . S
H1128 C1074 0.930 . S
H1129 C1077 0.929 . S
H1130 C1082 0.929 . S
H1131 C1083 0.930 . S
H1132 C1090 0.929 . S
H1133 C1091 0.930 . S
H1134 C1092 0.930 . S
H1135 C1093 0.930 . S
H1136 C1095 0.929 . S
H1137 C1096 0.930 . S
H1138 C1097 0.930 . S
H1139 C1098 0.930 . S
H1140 C1102 0.929 . S
H1141 C1104 0.930 . S
H1142 C1110 0.929 . S
H1143 C1111 0.930 . S
Li1144 N1161 1.990 . S
Li1144 O1204 1.956 . S
Li1144 O1205 1.970 . S
Li1144 O1206 1.961 . S
Li1145 N1169 1.990 . S
Li1145 O1204 1.970 . S
Li1145 O1205 1.956 . S
Li1145 O1207 1.961 . S
Li1146 N1191 1.990 . S
Li1146 O1204 1.961 . S
Li1146 O1206 1.956 . S
Li1146 O1207 1.970 . S
Li1147 N1197 1.990 . S
Li1147 O1205 1.961 . S
Li1147 O1206 1.970 . S
Li1147 O1207 1.956 . S
C1148 C1150 1.348 . S
C1148 C1151 1.356 . S
C1148 O1204 1.325 . S
N1149 C1152 1.314 . S
N1149 C1153 1.279 . S
C1150 C1148 1.348 . S
C1150 C1152 1.353 . S
C1150 H1208 0.929 . S
C1151 C1148 1.356 . S
C1151 C1153 1.358 . S
C1151 H1209 0.930 . S
C1152 N1149 1.314 . S
C1152 C1150 1.353 . S
C1152 H1210 0.930 . S
C1153 N1149 1.279 . S
C1153 C1151 1.358 . S
C1153 H1211 0.930 . S
C1154 C1157 1.348 . S
C1154 C1158 1.356 1_556 S
C1154 O1205 1.325 . S
C1155 N1156 1.279 . S
C1155 C1158 1.358 . S
C1155 H1212 0.930 . S
N1156 C1155 1.279 . S
N1156 C1159 1.314 . S
C1157 C1154 1.348 . S
C1157 C1159 1.353 1_556 S
C1157 H1213 0.929 . S
C1158 C1154 1.356 1_554 S
C1158 C1155 1.358 . S
C1158 H1214 0.930 . S
C1159 N1156 1.314 . S
C1159 C1157 1.353 1_554 S
C1159 H1215 0.930 . S
C1160 N1161 1.314 . S
C1160 C1165 1.353 . S
C1160 H1166 0.930 . S
N1161 Li1144 1.990 . S
N1161 C1160 1.314 . S
N1161 C1163 1.279 . S
C1162 C1163 1.358 . S
C1162 C1164 1.356 . S
C1162 H1216 0.930 . S
C1163 N1161 1.279 . S
C1163 C1162 1.358 . S
C1163 H1167 0.930 . S
C1164 C1162 1.356 . S
C1164 C1165 1.348 . S
C1165 C1160 1.353 . S
C1165 C1164 1.348 . S
C1165 H1217 0.929 . S
H1166 C1160 0.930 . S
H1167 C1163 0.930 . S
C1168 N1169 1.314 . S
C1168 C1170 1.353 . S
C1168 H1174 0.930 . S
N1169 Li1145 1.990 . S
N1169 C1168 1.314 . S
N1169 C1172 1.279 . S
C1170 C1168 1.353 . S
C1170 C1173 1.348 . S
C1170 H1218 0.929 . S
C1171 C1172 1.358 . S
C1171 C1173 1.356 . S
C1171 H1219 0.930 . S
C1172 N1169 1.279 . S
C1172 C1171 1.358 . S
C1172 H1175 0.930 . S
C1173 C1170 1.348 . S
C1173 C1171 1.356 . S
H1174 C1168 0.930 . S
H1175 C1172 0.930 . S
C1176 C1178 1.348 . S
C1176 C1179 1.356 . S
C1176 O1206 1.325 . S
N1177 C1180 1.314 . S
N1177 C1181 1.279 . S
C1178 C1176 1.348 . S
C1178 C1180 1.353 . S
C1178 H1220 0.929 . S
C1179 C1176 1.356 . S
C1179 C1181 1.358 . S
C1179 H1221 0.930 . S
C1180 N1177 1.314 . S
C1180 C1178 1.353 . S
C1180 H1222 0.930 . S
C1181 N1177 1.279 . S
C1181 C1179 1.358 . S
C1181 H1223 0.930 . S
C1182 C1183 1.348 . S
C1182 C1184 1.356 . S
C1182 O1207 1.325 . S
C1183 C1182 1.348 . S
C1183 C1185 1.353 . S
C1183 H1224 0.929 . S
C1184 C1182 1.356 . S
C1184 C1186 1.358 . S
C1184 H1225 0.930 . S
C1185 C1183 1.353 . S
C1185 N1187 1.314 . S
C1185 H1226 0.930 . S
C1186 C1184 1.358 . S
C1186 N1187 1.279 . S
C1186 H1227 0.930 . S
N1187 C1185 1.314 . S
N1187 C1186 1.279 . S
C1188 C1190 1.353 . S
C1188 N1191 1.314 . S
C1188 H1194 0.930 . S
C1189 N1191 1.279 . S
C1189 C1192 1.358 . S
C1189 H1195 0.930 . S
C1190 C1188 1.353 . S
C1190 C1193 1.348 . S
C1190 H1228 0.929 . S
N1191 Li1146 1.990 . S
N1191 C1188 1.314 . S
N1191 C1189 1.279 . S
C1192 C1189 1.358 . S
C1192 C1193 1.356 . S
C1192 H1229 0.930 . S
C1193 C1190 1.348 . S
C1193 C1192 1.356 . S
H1194 C1188 0.930 . S
H1195 C1189 0.930 . S
C1196 N1197 1.314 1_554 S
C1196 C1198 1.353 . S
C1196 H1202 0.930 . S
N1197 Li1147 1.990 . S
N1197 C1196 1.314 1_556 S
N1197 C1200 1.279 . S
C1198 C1196 1.353 . S
C1198 C1201 1.348 . S
C1198 H1230 0.929 . S
C1199 C1200 1.358 1_554 S
C1199 C1201 1.356 . S
C1199 H1231 0.930 . S
C1200 N1197 1.279 . S
C1200 C1199 1.358 1_556 S
C1200 H1203 0.930 . S
C1201 C1198 1.348 . S
C1201 C1199 1.356 . S
H1202 C1196 0.930 . S
H1203 C1200 0.930 . S
O1204 Li1144 1.956 . S
O1204 Li1145 1.970 . S
O1204 Li1146 1.961 . S
O1204 C1148 1.325 . S
O1205 Li1144 1.970 . S
O1205 Li1145 1.956 . S
O1205 Li1147 1.961 . S
O1205 C1154 1.325 . S
O1206 Li1144 1.961 . S
O1206 Li1146 1.956 . S
O1206 Li1147 1.970 . S
O1206 C1176 1.325 . S
O1207 Li1145 1.961 . S
O1207 Li1146 1.970 . S
O1207 Li1147 1.956 . S
O1207 C1182 1.325 . S
H1208 C1150 0.929 . S
H1209 C1151 0.930 . S
H1210 C1152 0.930 . S
H1211 C1153 0.930 . S
H1212 C1155 0.930 . S
H1213 C1157 0.929 . S
H1214 C1158 0.930 . S
H1215 C1159 0.930 . S
H1216 C1162 0.930 . S
H1217 C1165 0.929 . S
H1218 C1170 0.929 . S
H1219 C1171 0.930 . S
H1220 C1178 0.929 . S
H1221 C1179 0.930 . S
H1222 C1180 0.930 . S
H1223 C1181 0.930 . S
H1224 C1183 0.929 . S
H1225 C1184 0.930 . S
H1226 C1185 0.930 . S
H1227 C1186 0.930 . S
H1228 C1190 0.929 . S
H1229 C1192 0.930 . S
H1230 C1198 0.929 . S
H1231 C1199 0.930 . S
Li1232 N1249 1.990 . S
Li1232 O1292 1.956 . S
Li1232 O1293 1.970 . S
Li1232 O1294 1.961 . S
Li1233 N1257 1.990 . S
Li1233 O1292 1.970 . S
Li1233 O1293 1.956 . S
Li1233 O1295 1.961 . S
Li1234 N1279 1.990 . S
Li1234 O1292 1.961 . S
Li1234 O1294 1.956 . S
Li1234 O1295 1.970 . S
Li1235 N1285 1.990 . S
Li1235 O1293 1.961 . S
Li1235 O1294 1.970 . S
Li1235 O1295 1.956 . S
C1236 C1238 1.348 . S
C1236 C1239 1.356 . S
C1236 O1292 1.325 . S
N1237 C1240 1.314 . S
N1237 C1241 1.279 . S
C1238 C1236 1.348 . S
C1238 C1240 1.353 . S
C1238 H1296 0.929 . S
C1239 C1236 1.356 . S
C1239 C1241 1.358 . S
C1239 H1297 0.930 . S
C1240 N1237 1.314 . S
C1240 C1238 1.353 . S
C1240 H1298 0.930 . S
C1241 N1237 1.279 . S
C1241 C1239 1.358 . S
C1241 H1299 0.930 . S
C1242 C1245 1.348 . S
C1242 C1246 1.356 . S
C1242 O1293 1.325 . S
C1243 N1244 1.279 . S
C1243 C1246 1.358 . S
C1243 H1300 0.930 . S
N1244 C1243 1.279 . S
N1244 C1247 1.314 . S
C1245 C1242 1.348 . S
C1245 C1247 1.353 . S
C1245 H1301 0.929 . S
C1246 C1242 1.356 . S
C1246 C1243 1.358 . S
C1246 H1302 0.930 . S
C1247 N1244 1.314 . S
C1247 C1245 1.353 . S
C1247 H1303 0.930 . S
C1248 N1249 1.314 . S
C1248 C1253 1.353 . S
C1248 H1254 0.930 . S
N1249 Li1232 1.990 . S
N1249 C1248 1.314 . S
N1249 C1251 1.279 . S
C1250 C1251 1.358 . S
C1250 C1252 1.356 . S
C1250 H1304 0.930 . S
C1251 N1249 1.279 . S
C1251 C1250 1.358 . S
C1251 H1255 0.930 . S
C1252 C1250 1.356 . S
C1252 C1253 1.348 . S
C1253 C1248 1.353 . S
C1253 C1252 1.348 . S
C1253 H1305 0.929 . S
H1254 C1248 0.930 . S
H1255 C1251 0.930 . S
C1256 N1257 1.314 . S
C1256 C1258 1.353 . S
C1256 H1262 0.930 . S
N1257 Li1233 1.990 . S
N1257 C1256 1.314 . S
N1257 C1260 1.279 . S
C1258 C1256 1.353 . S
C1258 C1261 1.348 . S
C1258 H1306 0.929 . S
C1259 C1260 1.358 . S
C1259 C1261 1.356 . S
C1259 H1307 0.930 . S
C1260 N1257 1.279 . S
C1260 C1259 1.358 . S
C1260 H1263 0.930 . S
C1261 C1258 1.348 . S
C1261 C1259 1.356 . S
H1262 C1256 0.930 . S
H1263 C1260 0.930 . S
C1264 C1266 1.348 . S
C1264 C1267 1.356 . S
C1264 O1294 1.325 . S
N1265 C1268 1.314 . S
N1265 C1269 1.279 . S
C1266 C1264 1.348 . S
C1266 C1268 1.353 . S
C1266 H1308 0.929 . S
C1267 C1264 1.356 . S
C1267 C1269 1.358 . S
C1267 H1309 0.930 . S
C1268 N1265 1.314 . S
C1268 C1266 1.353 . S
C1268 H1310 0.930 . S
C1269 N1265 1.279 . S
C1269 C1267 1.358 . S
C1269 H1311 0.930 . S
C1270 C1271 1.348 . S
C1270 C1272 1.356 . S
C1270 O1295 1.325 . S
C1271 C1270 1.348 . S
C1271 C1273 1.353 . S
C1271 H1312 0.929 . S
C1272 C1270 1.356 . S
C1272 C1274 1.358 . S
C1272 H1313 0.930 . S
C1273 C1271 1.353 . S
C1273 N1275 1.314 . S
C1273 H1314 0.930 . S
C1274 C1272 1.358 . S
C1274 N1275 1.279 . S
C1274 H1315 0.930 . S
N1275 C1273 1.314 . S
N1275 C1274 1.279 . S
C1276 C1278 1.353 . S
C1276 N1279 1.314 . S
C1276 H1282 0.930 . S
C1277 N1279 1.279 . S
C1277 C1280 1.358 . S
C1277 H1283 0.930 . S
C1278 C1276 1.353 . S
C1278 C1281 1.348 . S
C1278 H1316 0.929 . S
N1279 Li1234 1.990 . S
N1279 C1276 1.314 . S
N1279 C1277 1.279 . S
C1280 C1277 1.358 . S
C1280 C1281 1.356 . S
C1280 H1317 0.930 . S
C1281 C1278 1.348 . S
C1281 C1280 1.356 . S
H1282 C1276 0.930 . S
H1283 C1277 0.930 . S
C1284 N1285 1.314 . S
C1284 C1286 1.353 . S
C1284 H1290 0.930 . S
N1285 Li1235 1.990 . S
N1285 C1284 1.314 . S
N1285 C1288 1.279 . S
C1286 C1284 1.353 . S
C1286 C1289 1.348 . S
C1286 H1318 0.929 . S
C1287 C1288 1.358 . S
C1287 C1289 1.356 . S
C1287 H1319 0.930 . S
C1288 N1285 1.279 . S
C1288 C1287 1.358 . S
C1288 H1291 0.930 . S
C1289 C1286 1.348 . S
C1289 C1287 1.356 . S
H1290 C1284 0.930 . S
H1291 C1288 0.930 . S
O1292 Li1232 1.956 . S
O1292 Li1233 1.970 . S
O1292 Li1234 1.961 . S
O1292 C1236 1.325 . S
O1293 Li1232 1.970 . S
O1293 Li1233 1.956 . S
O1293 Li1235 1.961 . S
O1293 C1242 1.325 . S
O1294 Li1232 1.961 . S
O1294 Li1234 1.956 . S
O1294 Li1235 1.970 . S
O1294 C1264 1.325 . S
O1295 Li1233 1.961 . S
O1295 Li1234 1.970 . S
O1295 Li1235 1.956 . S
O1295 C1270 1.325 . S
H1296 C1238 0.929 . S
H1297 C1239 0.930 . S
H1298 C1240 0.930 . S
H1299 C1241 0.930 . S
H1300 C1243 0.930 . S
H1301 C1245 0.929 . S
H1302 C1246 0.930 . S
H1303 C1247 0.930 . S
H1304 C1250 0.930 . S
H1305 C1253 0.929 . S
H1306 C1258 0.929 . S
H1307 C1259 0.930 . S
H1308 C1266 0.929 . S
H1309 C1267 0.930 . S
H1310 C1268 0.930 . S
H1311 C1269 0.930 . S
H1312 C1271 0.929 . S
H1313 C1272 0.930 . S
H1314 C1273 0.930 . S
H1315 C1274 0.930 . S
H1316 C1278 0.929 . S
H1317 C1280 0.930 . S
H1318 C1286 0.929 . S
H1319 C1287 0.930 . S
Li1320 N1337 1.990 . S
Li1320 O1380 1.956 . S
Li1320 O1381 1.970 . S
Li1320 O1382 1.961 . S
Li1321 N1345 1.990 . S
Li1321 O1380 1.970 . S
Li1321 O1381 1.956 . S
Li1321 O1383 1.961 . S
Li1322 N1367 1.990 . S
Li1322 O1380 1.961 . S
Li1322 O1382 1.956 . S
Li1322 O1383 1.970 . S
Li1323 N1373 1.990 . S
Li1323 O1381 1.961 . S
Li1323 O1382 1.970 . S
Li1323 O1383 1.956 . S
C1324 C1326 1.348 . S
C1324 C1327 1.356 . S
C1324 O1380 1.325 . S
N1325 C1328 1.314 . S
N1325 C1329 1.279 . S
C1326 C1324 1.348 . S
C1326 C1328 1.353 . S
C1326 H1384 0.929 . S
C1327 C1324 1.356 . S
C1327 C1329 1.358 . S
C1327 H1385 0.930 . S
C1328 N1325 1.314 . S
C1328 C1326 1.353 . S
C1328 H1386 0.930 . S
C1329 N1325 1.279 . S
C1329 C1327 1.358 . S
C1329 H1387 0.930 . S
C1330 C1333 1.348 . S
C1330 C1334 1.356 . S
C1330 O1381 1.325 . S
C1331 N1332 1.279 . S
C1331 C1334 1.358 . S
C1331 H1388 0.930 . S
N1332 C1331 1.279 . S
N1332 C1335 1.314 . S
C1333 C1330 1.348 . S
C1333 C1335 1.353 . S
C1333 H1389 0.929 . S
C1334 C1330 1.356 . S
C1334 C1331 1.358 . S
C1334 H1390 0.930 . S
C1335 N1332 1.314 . S
C1335 C1333 1.353 . S
C1335 H1391 0.930 . S
C1336 N1337 1.314 . S
C1336 C1341 1.353 . S
C1336 H1342 0.930 . S
N1337 Li1320 1.990 . S
N1337 C1336 1.314 . S
N1337 C1339 1.279 . S
C1338 C1339 1.358 . S
C1338 C1340 1.356 . S
C1338 H1392 0.930 . S
C1339 N1337 1.279 . S
C1339 C1338 1.358 . S
C1339 H1343 0.930 . S
C1340 C1338 1.356 . S
C1340 C1341 1.348 . S
C1341 C1336 1.353 . S
C1341 C1340 1.348 . S
C1341 H1393 0.929 . S
H1342 C1336 0.930 . S
H1343 C1339 0.930 . S
C1344 N1345 1.314 . S
C1344 C1346 1.353 . S
C1344 H1350 0.930 . S
N1345 Li1321 1.990 . S
N1345 C1344 1.314 . S
N1345 C1348 1.279 . S
C1346 C1344 1.353 . S
C1346 C1349 1.348 . S
C1346 H1394 0.929 . S
C1347 C1348 1.358 . S
C1347 C1349 1.356 . S
C1347 H1395 0.930 . S
C1348 N1345 1.279 . S
C1348 C1347 1.358 . S
C1348 H1351 0.930 . S
C1349 C1346 1.348 . S
C1349 C1347 1.356 . S
H1350 C1344 0.930 . S
H1351 C1348 0.930 . S
C1352 C1354 1.348 . S
C1352 C1355 1.356 . S
C1352 O1382 1.325 . S
N1353 C1356 1.314 . S
N1353 C1357 1.279 . S
C1354 C1352 1.348 . S
C1354 C1356 1.353 . S
C1354 H1396 0.929 . S
C1355 C1352 1.356 . S
C1355 C1357 1.358 . S
C1355 H1397 0.930 . S
C1356 N1353 1.314 . S
C1356 C1354 1.353 . S
C1356 H1398 0.930 . S
C1357 N1353 1.279 . S
C1357 C1355 1.358 . S
C1357 H1399 0.930 . S
C1358 C1359 1.348 . S
C1358 C1360 1.356 . S
C1358 O1383 1.325 . S
C1359 C1358 1.348 . S
C1359 C1361 1.353 . S
C1359 H1400 0.929 . S
C1360 C1358 1.356 . S
C1360 C1362 1.358 . S
C1360 H1401 0.930 . S
C1361 C1359 1.353 . S
C1361 N1363 1.314 . S
C1361 H1402 0.930 . S
C1362 C1360 1.358 . S
C1362 N1363 1.279 . S
C1362 H1403 0.930 . S
N1363 C1361 1.314 . S
N1363 C1362 1.279 . S
C1364 C1366 1.353 . S
C1364 N1367 1.314 . S
C1364 H1370 0.930 . S
C1365 N1367 1.279 . S
C1365 C1368 1.358 . S
C1365 H1371 0.930 . S
C1366 C1364 1.353 . S
C1366 C1369 1.348 . S
C1366 H1404 0.929 . S
N1367 Li1322 1.990 . S
N1367 C1364 1.314 . S
N1367 C1365 1.279 . S
C1368 C1365 1.358 . S
C1368 C1369 1.356 . S
C1368 H1405 0.930 . S
C1369 C1366 1.348 . S
C1369 C1368 1.356 . S
H1370 C1364 0.930 . S
H1371 C1365 0.930 . S
C1372 N1373 1.314 . S
C1372 C1374 1.353 . S
C1372 H1378 0.930 . S
N1373 Li1323 1.990 . S
N1373 C1372 1.314 . S
N1373 C1376 1.279 . S
C1374 C1372 1.353 . S
C1374 C1377 1.348 . S
C1374 H1406 0.929 . S
C1375 C1376 1.358 . S
C1375 C1377 1.356 . S
C1375 H1407 0.930 . S
C1376 N1373 1.279 . S
C1376 C1375 1.358 . S
C1376 H1379 0.930 . S
C1377 C1374 1.348 . S
C1377 C1375 1.356 . S
H1378 C1372 0.930 . S
H1379 C1376 0.930 . S
O1380 Li1320 1.956 . S
O1380 Li1321 1.970 . S
O1380 Li1322 1.961 . S
O1380 C1324 1.325 . S
O1381 Li1320 1.970 . S
O1381 Li1321 1.956 . S
O1381 Li1323 1.961 . S
O1381 C1330 1.325 . S
O1382 Li1320 1.961 . S
O1382 Li1322 1.956 . S
O1382 Li1323 1.970 . S
O1382 C1352 1.325 . S
O1383 Li1321 1.961 . S
O1383 Li1322 1.970 . S
O1383 Li1323 1.956 . S
O1383 C1358 1.325 . S
H1384 C1326 0.929 . S
H1385 C1327 0.930 . S
H1386 C1328 0.930 . S
H1387 C1329 0.930 . S
H1388 C1331 0.930 . S
H1389 C1333 0.929 . S
H1390 C1334 0.930 . S
H1391 C1335 0.930 . S
H1392 C1338 0.930 . S
H1393 C1341 0.929 . S
H1394 C1346 0.929 . S
H1395 C1347 0.930 . S
H1396 C1354 0.929 . S
H1397 C1355 0.930 . S
H1398 C1356 0.930 . S
H1399 C1357 0.930 . S
H1400 C1359 0.929 . S
H1401 C1360 0.930 . S
H1402 C1361 0.930 . S
H1403 C1362 0.930 . S
H1404 C1366 0.929 . S
H1405 C1368 0.930 . S
H1406 C1374 0.929 . S
H1407 C1375 0.930 . S
Li1408 N1425 1.990 . S
Li1408 O1468 1.956 . S
Li1408 O1469 1.970 . S
Li1408 O1470 1.961 . S
Li1409 N1433 1.990 . S
Li1409 O1468 1.970 . S
Li1409 O1469 1.956 . S
Li1409 O1471 1.961 . S
Li1410 N1455 1.990 . S
Li1410 O1468 1.961 . S
Li1410 O1470 1.956 . S
Li1410 O1471 1.970 . S
Li1411 N1461 1.990 . S
Li1411 O1469 1.961 . S
Li1411 O1470 1.970 . S
Li1411 O1471 1.956 . S
C1412 C1414 1.348 . S
C1412 C1415 1.356 . S
C1412 O1468 1.325 . S
N1413 C1416 1.314 . S
N1413 C1417 1.279 . S
C1414 C1412 1.348 . S
C1414 C1416 1.353 . S
C1414 H1472 0.929 . S
C1415 C1412 1.356 . S
C1415 C1417 1.358 . S
C1415 H1473 0.930 . S
C1416 N1413 1.314 . S
C1416 C1414 1.353 . S
C1416 H1474 0.930 . S
C1417 N1413 1.279 . S
C1417 C1415 1.358 . S
C1417 H1475 0.930 . S
C1418 C1421 1.348 . S
C1418 C1422 1.356 . S
C1418 O1469 1.325 . S
C1419 N1420 1.279 . S
C1419 C1422 1.358 . S
C1419 H1476 0.930 . S
N1420 C1419 1.279 . S
N1420 C1423 1.314 . S
C1421 C1418 1.348 . S
C1421 C1423 1.353 . S
C1421 H1477 0.929 . S
C1422 C1418 1.356 . S
C1422 C1419 1.358 . S
C1422 H1478 0.930 . S
C1423 N1420 1.314 . S
C1423 C1421 1.353 . S
C1423 H1479 0.930 . S
C1424 N1425 1.314 . S
C1424 C1429 1.353 . S
C1424 H1430 0.930 . S
N1425 Li1408 1.990 . S
N1425 C1424 1.314 . S
N1425 C1427 1.279 . S
C1426 C1427 1.358 . S
C1426 C1428 1.356 . S
C1426 H1480 0.930 . S
C1427 N1425 1.279 . S
C1427 C1426 1.358 . S
C1427 H1431 0.930 . S
C1428 C1426 1.356 . S
C1428 C1429 1.348 . S
C1429 C1424 1.353 . S
C1429 C1428 1.348 . S
C1429 H1481 0.929 . S
H1430 C1424 0.930 . S
H1431 C1427 0.930 . S
C1432 N1433 1.314 . S
C1432 C1434 1.353 . S
C1432 H1438 0.930 . S
N1433 Li1409 1.990 . S
N1433 C1432 1.314 . S
N1433 C1436 1.279 . S
C1434 C1432 1.353 . S
C1434 C1437 1.348 . S
C1434 H1482 0.929 . S
C1435 C1436 1.358 . S
C1435 C1437 1.356 . S
C1435 H1483 0.930 . S
C1436 N1433 1.279 . S
C1436 C1435 1.358 . S
C1436 H1439 0.930 . S
C1437 C1434 1.348 . S
C1437 C1435 1.356 . S
H1438 C1432 0.930 . S
H1439 C1436 0.930 . S
C1440 C1442 1.348 . S
C1440 C1443 1.356 . S
C1440 O1470 1.325 . S
N1441 C1444 1.314 . S
N1441 C1445 1.279 . S
C1442 C1440 1.348 . S
C1442 C1444 1.353 . S
C1442 H1484 0.929 . S
C1443 C1440 1.356 . S
C1443 C1445 1.358 . S
C1443 H1485 0.930 . S
C1444 N1441 1.314 . S
C1444 C1442 1.353 . S
C1444 H1486 0.930 . S
C1445 N1441 1.279 . S
C1445 C1443 1.358 . S
C1445 H1487 0.930 . S
C1446 C1447 1.348 . S
C1446 C1448 1.356 . S
C1446 O1471 1.325 . S
C1447 C1446 1.348 . S
C1447 C1449 1.353 . S
C1447 H1488 0.929 . S
C1448 C1446 1.356 . S
C1448 C1450 1.358 . S
C1448 H1489 0.930 . S
C1449 C1447 1.353 . S
C1449 N1451 1.314 . S
C1449 H1490 0.930 . S
C1450 C1448 1.358 . S
C1450 N1451 1.279 . S
C1450 H1491 0.930 . S
N1451 C1449 1.314 . S
N1451 C1450 1.279 . S
C1452 C1454 1.353 . S
C1452 N1455 1.314 . S
C1452 H1458 0.930 . S
C1453 N1455 1.279 . S
C1453 C1456 1.358 . S
C1453 H1459 0.930 . S
C1454 C1452 1.353 . S
C1454 C1457 1.348 . S
C1454 H1492 0.929 . S
N1455 Li1410 1.990 . S
N1455 C1452 1.314 . S
N1455 C1453 1.279 . S
C1456 C1453 1.358 . S
C1456 C1457 1.356 . S
C1456 H1493 0.930 . S
C1457 C1454 1.348 . S
C1457 C1456 1.356 . S
H1458 C1452 0.930 . S
H1459 C1453 0.930 . S
C1460 N1461 1.314 . S
C1460 C1462 1.353 . S
C1460 H1466 0.930 . S
N1461 Li1411 1.990 . S
N1461 C1460 1.314 . S
N1461 C1464 1.279 . S
C1462 C1460 1.353 . S
C1462 C1465 1.348 . S
C1462 H1494 0.929 . S
C1463 C1464 1.358 . S
C1463 C1465 1.356 . S
C1463 H1495 0.930 . S
C1464 N1461 1.279 . S
C1464 C1463 1.358 . S
C1464 H1467 0.930 . S
C1465 C1462 1.348 . S
C1465 C1463 1.356 . S
H1466 C1460 0.930 . S
H1467 C1464 0.930 . S
O1468 Li1408 1.956 . S
O1468 Li1409 1.970 . S
O1468 Li1410 1.961 . S
O1468 C1412 1.325 . S
O1469 Li1408 1.970 . S
O1469 Li1409 1.956 . S
O1469 Li1411 1.961 . S
O1469 C1418 1.325 . S
O1470 Li1408 1.961 . S
O1470 Li1410 1.956 . S
O1470 Li1411 1.970 . S
O1470 C1440 1.325 . S
O1471 Li1409 1.961 . S
O1471 Li1410 1.970 . S
O1471 Li1411 1.956 . S
O1471 C1446 1.325 . S
H1472 C1414 0.929 . S
H1473 C1415 0.930 . S
H1474 C1416 0.930 . S
H1475 C1417 0.930 . S
H1476 C1419 0.930 . S
H1477 C1421 0.929 . S
H1478 C1422 0.930 . S
H1479 C1423 0.930 . S
H1480 C1426 0.930 . S
H1481 C1429 0.929 . S
H1482 C1434 0.929 . S
H1483 C1435 0.930 . S
H1484 C1442 0.929 . S
H1485 C1443 0.930 . S
H1486 C1444 0.930 . S
H1487 C1445 0.930 . S
H1488 C1447 0.929 . S
H1489 C1448 0.930 . S
H1490 C1449 0.930 . S
H1491 C1450 0.930 . S
H1492 C1454 0.929 . S
H1493 C1456 0.930 . S
H1494 C1462 0.929 . S
H1495 C1463 0.930 . S
Li1496 N1513 1.990 . S
Li1496 O1556 1.956 . S
Li1496 O1557 1.970 . S
Li1496 O1558 1.961 . S
Li1497 N1521 1.990 . S
Li1497 O1556 1.970 . S
Li1497 O1557 1.956 . S
Li1497 O1559 1.961 . S
Li1498 N1543 1.990 . S
Li1498 O1556 1.961 . S
Li1498 O1558 1.956 . S
Li1498 O1559 1.970 . S
Li1499 N1549 1.990 . S
Li1499 O1557 1.961 . S
Li1499 O1558 1.970 . S
Li1499 O1559 1.956 . S
C1500 C1502 1.348 . S
C1500 C1503 1.356 . S
C1500 O1556 1.325 . S
N1501 C1504 1.314 . S
N1501 C1505 1.279 . S
C1502 C1500 1.348 . S
C1502 C1504 1.353 . S
C1502 H1560 0.929 . S
C1503 C1500 1.356 . S
C1503 C1505 1.358 . S
C1503 H1561 0.930 . S
C1504 N1501 1.314 . S
C1504 C1502 1.353 . S
C1504 H1562 0.930 . S
C1505 N1501 1.279 . S
C1505 C1503 1.358 . S
C1505 H1563 0.930 . S
C1506 C1509 1.348 1_556 S
C1506 C1510 1.356 1_556 S
C1506 O1557 1.325 . S
C1507 N1508 1.279 . S
C1507 C1510 1.358 . S
C1507 H1564 0.930 . S
N1508 C1507 1.279 . S
N1508 C1511 1.314 . S
C1509 C1506 1.348 1_554 S
C1509 C1511 1.353 . S
C1509 H1565 0.929 1_554 S
C1510 C1506 1.356 1_554 S
C1510 C1507 1.358 . S
C1510 H1566 0.930 1_554 S
C1511 N1508 1.314 . S
C1511 C1509 1.353 . S
C1511 H1567 0.930 . S
C1512 N1513 1.314 . S
C1512 C1517 1.353 . S
C1512 H1518 0.930 . S
N1513 Li1496 1.990 . S
N1513 C1512 1.314 . S
N1513 C1515 1.279 . S
C1514 C1515 1.358 . S
C1514 C1516 1.356 . S
C1514 H1568 0.930 . S
C1515 N1513 1.279 . S
C1515 C1514 1.358 . S
C1515 H1519 0.930 . S
C1516 C1514 1.356 . S
C1516 C1517 1.348 . S
C1517 C1512 1.353 . S
C1517 C1516 1.348 . S
C1517 H1569 0.929 . S
H1518 C1512 0.930 . S
H1519 C1515 0.930 . S
C1520 N1521 1.314 . S
C1520 C1522 1.353 1_556 S
C1520 H1526 0.930 . S
N1521 Li1497 1.990 . S
N1521 C1520 1.314 . S
N1521 C1524 1.279 1_556 S
C1522 C1520 1.353 1_554 S
C1522 C1525 1.348 . S
C1522 H1570 0.930 1_554 S
C1523 C1524 1.358 . S
C1523 C1525 1.356 . S
C1523 H1571 0.930 . S
C1524 N1521 1.279 1_554 S
C1524 C1523 1.358 . S
C1524 H1527 0.930 . S
C1525 C1522 1.348 . S
C1525 C1523 1.356 . S
H1526 C1520 0.930 . S
H1527 C1524 0.930 . S
C1528 C1530 1.348 . S
C1528 C1531 1.356 . S
C1528 O1558 1.325 . S
N1529 C1532 1.314 . S
N1529 C1533 1.279 . S
C1530 C1528 1.348 . S
C1530 C1532 1.353 . S
C1530 H1572 0.929 . S
C1531 C1528 1.356 . S
C1531 C1533 1.358 . S
C1531 H1573 0.930 . S
C1532 N1529 1.314 . S
C1532 C1530 1.353 . S
C1532 H1574 0.930 . S
C1533 N1529 1.279 . S
C1533 C1531 1.358 . S
C1533 H1575 0.930 . S
C1534 C1535 1.348 . S
C1534 C1536 1.356 . S
C1534 O1559 1.325 . S
C1535 C1534 1.348 . S
C1535 C1537 1.353 . S
C1535 H1576 0.929 . S
C1536 C1534 1.356 . S
C1536 C1538 1.358 . S
C1536 H1577 0.930 . S
C1537 C1535 1.353 . S
C1537 N1539 1.314 . S
C1537 H1578 0.930 . S
C1538 C1536 1.358 . S
C1538 N1539 1.279 . S
C1538 H1579 0.930 . S
N1539 C1537 1.314 . S
N1539 C1538 1.279 . S
C1540 C1542 1.353 . S
C1540 N1543 1.314 . S
C1540 H1546 0.930 . S
C1541 N1543 1.279 . S
C1541 C1544 1.358 . S
C1541 H1547 0.930 . S
C1542 C1540 1.353 . S
C1542 C1545 1.348 . S
C1542 H1580 0.929 . S
N1543 Li1498 1.990 . S
N1543 C1540 1.314 . S
N1543 C1541 1.279 . S
C1544 C1541 1.358 . S
C1544 C1545 1.356 . S
C1544 H1581 0.930 . S
C1545 C1542 1.348 . S
C1545 C1544 1.356 . S
H1546 C1540 0.930 . S
H1547 C1541 0.930 . S
C1548 N1549 1.314 . S
C1548 C1550 1.353 . S
C1548 H1554 0.930 . S
N1549 Li1499 1.990 . S
N1549 C1548 1.314 . S
N1549 C1552 1.279 . S
C1550 C1548 1.353 . S
C1550 C1553 1.348 . S
C1550 H1582 0.929 . S
C1551 C1552 1.358 . S
C1551 C1553 1.356 . S
C1551 H1583 0.930 . S
C1552 N1549 1.279 . S
C1552 C1551 1.358 . S
C1552 H1555 0.930 . S
C1553 C1550 1.348 . S
C1553 C1551 1.356 . S
H1554 C1548 0.930 . S
H1555 C1552 0.930 . S
O1556 Li1496 1.956 . S
O1556 Li1497 1.970 . S
O1556 Li1498 1.961 . S
O1556 C1500 1.325 . S
O1557 Li1496 1.970 . S
O1557 Li1497 1.956 . S
O1557 Li1499 1.961 . S
O1557 C1506 1.325 . S
O1558 Li1496 1.961 . S
O1558 Li1498 1.956 . S
O1558 Li1499 1.970 . S
O1558 C1528 1.325 . S
O1559 Li1497 1.961 . S
O1559 Li1498 1.970 . S
O1559 Li1499 1.956 . S
O1559 C1534 1.325 . S
H1560 C1502 0.929 . S
H1561 C1503 0.930 . S
H1562 C1504 0.930 . S
H1563 C1505 0.930 . S
H1564 C1507 0.930 . S
H1565 C1509 0.929 1_556 S
H1566 C1510 0.930 1_556 S
H1567 C1511 0.930 . S
H1568 C1514 0.930 . S
H1569 C1517 0.929 . S
H1570 C1522 0.930 1_556 S
H1571 C1523 0.930 . S
H1572 C1530 0.929 . S
H1573 C1531 0.930 . S
H1574 C1532 0.930 . S
H1575 C1533 0.930 . S
H1576 C1535 0.929 . S
H1577 C1536 0.930 . S
H1578 C1537 0.930 . S
H1579 C1538 0.930 . S
H1580 C1542 0.929 . S
H1581 C1544 0.930 . S
H1582 C1550 0.929 . S
H1583 C1551 0.930 . S
Li1584 N1601 1.990 . S
Li1584 O1644 1.956 . S
Li1584 O1645 1.970 . S
Li1584 O1646 1.961 . S
Li1585 N1609 1.990 . S
Li1585 O1644 1.970 . S
Li1585 O1645 1.956 . S
Li1585 O1647 1.961 . S
Li1586 N1631 1.990 . S
Li1586 O1644 1.961 . S
Li1586 O1646 1.956 . S
Li1586 O1647 1.970 . S
Li1587 N1637 1.990 . S
Li1587 O1645 1.961 . S
Li1587 O1646 1.970 . S
Li1587 O1647 1.956 . S
C1588 C1590 1.348 . S
C1588 C1591 1.356 . S
C1588 O1644 1.325 . S
N1589 C1592 1.314 . S
N1589 C1593 1.279 . S
C1590 C1588 1.348 . S
C1590 C1592 1.353 . S
C1590 H1648 0.929 . S
C1591 C1588 1.356 . S
C1591 C1593 1.358 . S
C1591 H1649 0.930 . S
C1592 N1589 1.314 . S
C1592 C1590 1.353 . S
C1592 H1650 0.930 . S
C1593 N1589 1.279 . S
C1593 C1591 1.358 . S
C1593 H1651 0.930 . S
C1594 C1597 1.348 . S
C1594 C1598 1.356 . S
C1594 O1645 1.325 . S
C1595 N1596 1.279 . S
C1595 C1598 1.358 . S
C1595 H1652 0.930 . S
N1596 C1595 1.279 . S
N1596 C1599 1.314 . S
C1597 C1594 1.348 . S
C1597 C1599 1.353 . S
C1597 H1653 0.929 . S
C1598 C1594 1.356 . S
C1598 C1595 1.358 . S
C1598 H1654 0.930 . S
C1599 N1596 1.314 . S
C1599 C1597 1.353 . S
C1599 H1655 0.930 . S
C1600 N1601 1.314 . S
C1600 C1605 1.353 . S
C1600 H1606 0.930 . S
N1601 Li1584 1.990 . S
N1601 C1600 1.314 . S
N1601 C1603 1.279 . S
C1602 C1603 1.358 . S
C1602 C1604 1.356 . S
C1602 H1656 0.930 . S
C1603 N1601 1.279 . S
C1603 C1602 1.358 . S
C1603 H1607 0.930 . S
C1604 C1602 1.356 . S
C1604 C1605 1.348 . S
C1605 C1600 1.353 . S
C1605 C1604 1.348 . S
C1605 H1657 0.929 . S
H1606 C1600 0.930 . S
H1607 C1603 0.930 . S
C1608 N1609 1.314 . S
C1608 C1610 1.353 . S
C1608 H1614 0.930 . S
N1609 Li1585 1.990 . S
N1609 C1608 1.314 . S
N1609 C1612 1.279 . S
C1610 C1608 1.353 . S
C1610 C1613 1.348 . S
C1610 H1658 0.929 . S
C1611 C1612 1.358 . S
C1611 C1613 1.356 . S
C1611 H1659 0.930 . S
C1612 N1609 1.279 . S
C1612 C1611 1.358 . S
C1612 H1615 0.930 . S
C1613 C1610 1.348 . S
C1613 C1611 1.356 . S
H1614 C1608 0.930 . S
H1615 C1612 0.930 . S
C1616 C1618 1.348 . S
C1616 C1619 1.356 . S
C1616 O1646 1.325 . S
N1617 C1620 1.314 . S
N1617 C1621 1.279 . S
C1618 C1616 1.348 . S
C1618 C1620 1.353 . S
C1618 H1660 0.929 . S
C1619 C1616 1.356 . S
C1619 C1621 1.358 . S
C1619 H1661 0.930 . S
C1620 N1617 1.314 . S
C1620 C1618 1.353 . S
C1620 H1662 0.930 . S
C1621 N1617 1.279 . S
C1621 C1619 1.358 . S
C1621 H1663 0.930 . S
C1622 C1623 1.348 . S
C1622 C1624 1.356 . S
C1622 O1647 1.325 . S
C1623 C1622 1.348 . S
C1623 C1625 1.353 . S
C1623 H1664 0.929 . S
C1624 C1622 1.356 . S
C1624 C1626 1.358 . S
C1624 H1665 0.930 . S
C1625 C1623 1.353 . S
C1625 N1627 1.314 . S
C1625 H1666 0.930 . S
C1626 C1624 1.358 . S
C1626 N1627 1.279 . S
C1626 H1667 0.930 . S
N1627 C1625 1.314 . S
N1627 C1626 1.279 . S
C1628 C1630 1.353 . S
C1628 N1631 1.314 . S
C1628 H1634 0.930 . S
C1629 N1631 1.279 . S
C1629 C1632 1.358 1_554 S
C1629 H1635 0.930 . S
C1630 C1628 1.353 . S
C1630 C1633 1.348 1_554 S
C1630 H1668 0.929 . S
N1631 Li1586 1.990 . S
N1631 C1628 1.314 . S
N1631 C1629 1.279 . S
C1632 C1629 1.358 1_556 S
C1632 C1633 1.356 . S
C1632 H1669 0.930 . S
C1633 C1630 1.348 1_556 S
C1633 C1632 1.356 . S
H1634 C1628 0.930 . S
H1635 C1629 0.930 . S
C1636 N1637 1.314 . S
C1636 C1638 1.353 . S
C1636 H1642 0.930 . S
N1637 Li1587 1.990 . S
N1637 C1636 1.314 . S
N1637 C1640 1.279 . S
C1638 C1636 1.353 . S
C1638 C1641 1.348 . S
C1638 H1670 0.929 . S
C1639 C1640 1.358 . S
C1639 C1641 1.356 . S
C1639 H1671 0.930 . S
C1640 N1637 1.279 . S
C1640 C1639 1.358 . S
C1640 H1643 0.930 . S
C1641 C1638 1.348 . S
C1641 C1639 1.356 . S
H1642 C1636 0.930 . S
H1643 C1640 0.930 . S
O1644 Li1584 1.956 . S
O1644 Li1585 1.970 . S
O1644 Li1586 1.961 . S
O1644 C1588 1.325 . S
O1645 Li1584 1.970 . S
O1645 Li1585 1.956 . S
O1645 Li1587 1.961 . S
O1645 C1594 1.325 . S
O1646 Li1584 1.961 . S
O1646 Li1586 1.956 . S
O1646 Li1587 1.970 . S
O1646 C1616 1.325 . S
O1647 Li1585 1.961 . S
O1647 Li1586 1.970 . S
O1647 Li1587 1.956 . S
O1647 C1622 1.325 . S
H1648 C1590 0.929 . S
H1649 C1591 0.930 . S
H1650 C1592 0.930 . S
H1651 C1593 0.930 . S
H1652 C1595 0.930 . S
H1653 C1597 0.929 . S
H1654 C1598 0.930 . S
H1655 C1599 0.930 . S
H1656 C1602 0.930 . S
H1657 C1605 0.929 . S
H1658 C1610 0.929 . S
H1659 C1611 0.930 . S
H1660 C1618 0.929 . S
H1661 C1619 0.930 . S
H1662 C1620 0.930 . S
H1663 C1621 0.930 . S
H1664 C1623 0.929 . S
H1665 C1624 0.930 . S
H1666 C1625 0.930 . S
H1667 C1626 0.930 . S
H1668 C1630 0.929 . S
H1669 C1632 0.930 . S
H1670 C1638 0.929 . S
H1671 C1639 0.930 . S
Li1672 N1689 1.990 . S
Li1672 O1732 1.956 . S
Li1672 O1733 1.970 . S
Li1672 O1734 1.961 . S
Li1673 N1697 1.990 . S
Li1673 O1732 1.970 . S
Li1673 O1733 1.956 . S
Li1673 O1735 1.961 . S
Li1674 N1719 1.990 . S
Li1674 O1732 1.961 . S
Li1674 O1734 1.956 . S
Li1674 O1735 1.970 . S
Li1675 N1725 1.990 . S
Li1675 O1733 1.961 . S
Li1675 O1734 1.970 . S
Li1675 O1735 1.956 . S
C1676 C1678 1.348 . S
C1676 C1679 1.356 . S
C1676 O1732 1.325 . S
N1677 C1680 1.314 . S
N1677 C1681 1.279 . S
C1678 C1676 1.348 . S
C1678 C1680 1.353 . S
C1678 H1736 0.929 . S
C1679 C1676 1.356 . S
C1679 C1681 1.358 . S
C1679 H1737 0.930 . S
C1680 N1677 1.314 . S
C1680 C1678 1.353 . S
C1680 H1738 0.930 . S
C1681 N1677 1.279 . S
C1681 C1679 1.358 . S
C1681 H1739 0.930 . S
C1682 C1685 1.348 . S
C1682 C1686 1.356 . S
C1682 O1733 1.325 . S
C1683 N1684 1.279 . S
C1683 C1686 1.358 . S
C1683 H1740 0.930 . S
N1684 C1683 1.279 . S
N1684 C1687 1.314 . S
C1685 C1682 1.348 . S
C1685 C1687 1.353 . S
C1685 H1741 0.929 . S
C1686 C1682 1.356 . S
C1686 C1683 1.358 . S
C1686 H1742 0.930 . S
C1687 N1684 1.314 . S
C1687 C1685 1.353 . S
C1687 H1743 0.930 . S
C1688 N1689 1.314 . S
C1688 C1693 1.353 . S
C1688 H1694 0.930 . S
N1689 Li1672 1.990 . S
N1689 C1688 1.314 . S
N1689 C1691 1.279 . S
C1690 C1691 1.358 . S
C1690 C1692 1.356 . S
C1690 H1744 0.930 . S
C1691 N1689 1.279 . S
C1691 C1690 1.358 . S
C1691 H1695 0.930 . S
C1692 C1690 1.356 . S
C1692 C1693 1.348 . S
C1693 C1688 1.353 . S
C1693 C1692 1.348 . S
C1693 H1745 0.929 . S
H1694 C1688 0.930 . S
H1695 C1691 0.930 . S
C1696 N1697 1.314 . S
C1696 C1698 1.353 . S
C1696 H1702 0.930 . S
N1697 Li1673 1.990 . S
N1697 C1696 1.314 . S
N1697 C1700 1.279 . S
C1698 C1696 1.353 . S
C1698 C1701 1.348 . S
C1698 H1746 0.929 . S
C1699 C1700 1.358 . S
C1699 C1701 1.356 . S
C1699 H1747 0.930 . S
C1700 N1697 1.279 . S
C1700 C1699 1.358 . S
C1700 H1703 0.930 . S
C1701 C1698 1.348 . S
C1701 C1699 1.356 . S
H1702 C1696 0.930 . S
H1703 C1700 0.930 . S
C1704 C1706 1.348 . S
C1704 C1707 1.356 . S
C1704 O1734 1.325 . S
N1705 C1708 1.314 . S
N1705 C1709 1.279 . S
C1706 C1704 1.348 . S
C1706 C1708 1.353 . S
C1706 H1748 0.929 . S
C1707 C1704 1.356 . S
C1707 C1709 1.358 . S
C1707 H1749 0.930 . S
C1708 N1705 1.314 . S
C1708 C1706 1.353 . S
C1708 H1750 0.930 . S
C1709 N1705 1.279 . S
C1709 C1707 1.358 . S
C1709 H1751 0.930 . S
C1710 C1711 1.348 . S
C1710 C1712 1.356 . S
C1710 O1735 1.325 . S
C1711 C1710 1.348 . S
C1711 C1713 1.353 . S
C1711 H1752 0.929 . S
C1712 C1710 1.356 . S
C1712 C1714 1.358 . S
C1712 H1753 0.930 . S
C1713 C1711 1.353 . S
C1713 N1715 1.314 . S
C1713 H1754 0.930 . S
C1714 C1712 1.358 . S
C1714 N1715 1.279 . S
C1714 H1755 0.930 . S
N1715 C1713 1.314 . S
N1715 C1714 1.279 . S
C1716 C1718 1.353 . S
C1716 N1719 1.314 . S
C1716 H1722 0.930 . S
C1717 N1719 1.279 . S
C1717 C1720 1.358 . S
C1717 H1723 0.930 . S
C1718 C1716 1.353 . S
C1718 C1721 1.348 . S
C1718 H1756 0.929 . S
N1719 Li1674 1.990 . S
N1719 C1716 1.314 . S
N1719 C1717 1.279 . S
C1720 C1717 1.358 . S
C1720 C1721 1.356 . S
C1720 H1757 0.930 . S
C1721 C1718 1.348 . S
C1721 C1720 1.356 . S
H1722 C1716 0.930 . S
H1723 C1717 0.930 . S
C1724 N1725 1.314 . S
C1724 C1726 1.353 . S
C1724 H1730 0.930 . S
N1725 Li1675 1.990 . S
N1725 C1724 1.314 . S
N1725 C1728 1.279 . S
C1726 C1724 1.353 . S
C1726 C1729 1.348 . S
C1726 H1758 0.929 . S
C1727 C1728 1.358 . S
C1727 C1729 1.356 . S
C1727 H1759 0.930 . S
C1728 N1725 1.279 . S
C1728 C1727 1.358 . S
C1728 H1731 0.930 . S
C1729 C1726 1.348 . S
C1729 C1727 1.356 . S
H1730 C1724 0.930 . S
H1731 C1728 0.930 . S
O1732 Li1672 1.956 . S
O1732 Li1673 1.970 . S
O1732 Li1674 1.961 . S
O1732 C1676 1.325 . S
O1733 Li1672 1.970 . S
O1733 Li1673 1.956 . S
O1733 Li1675 1.961 . S
O1733 C1682 1.325 . S
O1734 Li1672 1.961 . S
O1734 Li1674 1.956 . S
O1734 Li1675 1.970 . S
O1734 C1704 1.325 . S
O1735 Li1673 1.961 . S
O1735 Li1674 1.970 . S
O1735 Li1675 1.956 . S
O1735 C1710 1.325 . S
H1736 C1678 0.929 . S
H1737 C1679 0.930 . S
H1738 C1680 0.930 . S
H1739 C1681 0.930 . S
H1740 C1683 0.930 . S
H1741 C1685 0.929 . S
H1742 C1686 0.930 . S
H1743 C1687 0.930 . S
H1744 C1690 0.930 . S
H1745 C1693 0.929 . S
H1746 C1698 0.929 . S
H1747 C1699 0.930 . S
H1748 C1706 0.929 . S
H1749 C1707 0.930 . S
H1750 C1708 0.930 . S
H1751 C1709 0.930 . S
H1752 C1711 0.929 . S
H1753 C1712 0.930 . S
H1754 C1713 0.930 . S
H1755 C1714 0.930 . S
H1756 C1718 0.929 . S
H1757 C1720 0.930 . S
H1758 C1726 0.929 . S
H1759 C1727 0.930 . S
Li1760 N1777 1.990 . S
Li1760 O1820 1.956 . S
Li1760 O1821 1.970 . S
Li1760 O1822 1.961 . S
Li1761 N1785 1.990 . S
Li1761 O1820 1.970 . S
Li1761 O1821 1.956 . S
Li1761 O1823 1.961 . S
Li1762 N1807 1.990 . S
Li1762 O1820 1.961 . S
Li1762 O1822 1.956 . S
Li1762 O1823 1.970 . S
Li1763 N1813 1.990 . S
Li1763 O1821 1.961 . S
Li1763 O1822 1.970 . S
Li1763 O1823 1.956 . S
C1764 C1766 1.348 . S
C1764 C1767 1.356 . S
C1764 O1820 1.325 . S
N1765 C1768 1.314 . S
N1765 C1769 1.279 . S
C1766 C1764 1.348 . S
C1766 C1768 1.353 . S
C1766 H1824 0.929 . S
C1767 C1764 1.356 . S
C1767 C1769 1.358 . S
C1767 H1825 0.930 . S
C1768 N1765 1.314 . S
C1768 C1766 1.353 . S
C1768 H1826 0.930 . S
C1769 N1765 1.279 . S
C1769 C1767 1.358 . S
C1769 H1827 0.930 . S
C1770 C1773 1.348 . S
C1770 C1774 1.356 . S
C1770 O1821 1.325 . S
C1771 N1772 1.279 . S
C1771 C1774 1.358 . S
C1771 H1828 0.930 . S
N1772 C1771 1.279 . S
N1772 C1775 1.314 . S
C1773 C1770 1.348 . S
C1773 C1775 1.353 . S
C1773 H1829 0.929 . S
C1774 C1770 1.356 . S
C1774 C1771 1.358 . S
C1774 H1830 0.930 . S
C1775 N1772 1.314 . S
C1775 C1773 1.353 . S
C1775 H1831 0.930 . S
C1776 N1777 1.314 . S
C1776 C1781 1.353 . S
C1776 H1782 0.930 . S
N1777 Li1760 1.990 . S
N1777 C1776 1.314 . S
N1777 C1779 1.279 . S
C1778 C1779 1.358 . S
C1778 C1780 1.356 . S
C1778 H1832 0.930 . S
C1779 N1777 1.279 . S
C1779 C1778 1.358 . S
C1779 H1783 0.930 . S
C1780 C1778 1.356 . S
C1780 C1781 1.348 . S
C1781 C1776 1.353 . S
C1781 C1780 1.348 . S
C1781 H1833 0.929 . S
H1782 C1776 0.930 . S
H1783 C1779 0.930 . S
C1784 N1785 1.314 . S
C1784 C1786 1.353 . S
C1784 H1790 0.930 . S
N1785 Li1761 1.990 . S
N1785 C1784 1.314 . S
N1785 C1788 1.279 . S
C1786 C1784 1.353 . S
C1786 C1789 1.348 . S
C1786 H1834 0.929 . S
C1787 C1788 1.358 . S
C1787 C1789 1.356 . S
C1787 H1835 0.930 . S
C1788 N1785 1.279 . S
C1788 C1787 1.358 . S
C1788 H1791 0.930 . S
C1789 C1786 1.348 . S
C1789 C1787 1.356 . S
H1790 C1784 0.930 . S
H1791 C1788 0.930 . S
C1792 C1794 1.348 . S
C1792 C1795 1.356 . S
C1792 O1822 1.325 . S
N1793 C1796 1.314 . S
N1793 C1797 1.279 . S
C1794 C1792 1.348 . S
C1794 C1796 1.353 . S
C1794 H1836 0.929 . S
C1795 C1792 1.356 . S
C1795 C1797 1.358 . S
C1795 H1837 0.930 . S
C1796 N1793 1.314 . S
C1796 C1794 1.353 . S
C1796 H1838 0.930 . S
C1797 N1793 1.279 . S
C1797 C1795 1.358 . S
C1797 H1839 0.930 . S
C1798 C1799 1.348 . S
C1798 C1800 1.356 . S
C1798 O1823 1.325 . S
C1799 C1798 1.348 . S
C1799 C1801 1.353 . S
C1799 H1840 0.929 . S
C1800 C1798 1.356 . S
C1800 C1802 1.358 . S
C1800 H1841 0.930 . S
C1801 C1799 1.353 . S
C1801 N1803 1.314 . S
C1801 H1842 0.930 . S
C1802 C1800 1.358 . S
C1802 N1803 1.279 . S
C1802 H1843 0.930 . S
N1803 C1801 1.314 . S
N1803 C1802 1.279 . S
C1804 C1806 1.353 . S
C1804 N1807 1.314 . S
C1804 H1810 0.930 . S
C1805 N1807 1.279 . S
C1805 C1808 1.358 . S
C1805 H1811 0.930 . S
C1806 C1804 1.353 . S
C1806 C1809 1.348 . S
C1806 H1844 0.929 . S
N1807 Li1762 1.990 . S
N1807 C1804 1.314 . S
N1807 C1805 1.279 . S
C1808 C1805 1.358 . S
C1808 C1809 1.356 . S
C1808 H1845 0.930 . S
C1809 C1806 1.348 . S
C1809 C1808 1.356 . S
H1810 C1804 0.930 . S
H1811 C1805 0.930 . S
C1812 N1813 1.314 . S
C1812 C1814 1.353 . S
C1812 H1818 0.930 . S
N1813 Li1763 1.990 . S
N1813 C1812 1.314 . S
N1813 C1816 1.279 . S
C1814 C1812 1.353 . S
C1814 C1817 1.348 . S
C1814 H1846 0.929 . S
C1815 C1816 1.358 . S
C1815 C1817 1.356 . S
C1815 H1847 0.930 . S
C1816 N1813 1.279 . S
C1816 C1815 1.358 . S
C1816 H1819 0.930 . S
C1817 C1814 1.348 . S
C1817 C1815 1.356 . S
H1818 C1812 0.930 . S
H1819 C1816 0.930 . S
O1820 Li1760 1.956 . S
O1820 Li1761 1.970 . S
O1820 Li1762 1.961 . S
O1820 C1764 1.325 . S
O1821 Li1760 1.970 . S
O1821 Li1761 1.956 . S
O1821 Li1763 1.961 . S
O1821 C1770 1.325 . S
O1822 Li1760 1.961 . S
O1822 Li1762 1.956 . S
O1822 Li1763 1.970 . S
O1822 C1792 1.325 . S
O1823 Li1761 1.961 . S
O1823 Li1762 1.970 . S
O1823 Li1763 1.956 . S
O1823 C1798 1.325 . S
H1824 C1766 0.929 . S
H1825 C1767 0.930 . S
H1826 C1768 0.930 . S
H1827 C1769 0.930 . S
H1828 C1771 0.930 . S
H1829 C1773 0.929 . S
H1830 C1774 0.930 . S
H1831 C1775 0.930 . S
H1832 C1778 0.930 . S
H1833 C1781 0.929 . S
H1834 C1786 0.929 . S
H1835 C1787 0.930 . S
H1836 C1794 0.929 . S
H1837 C1795 0.930 . S
H1838 C1796 0.930 . S
H1839 C1797 0.930 . S
H1840 C1799 0.929 . S
H1841 C1800 0.930 . S
H1842 C1801 0.930 . S
H1843 C1802 0.930 . S
H1844 C1806 0.929 . S
H1845 C1808 0.930 . S
H1846 C1814 0.929 . S
H1847 C1815 0.930 . S
Li1848 N1865 1.990 . S
Li1848 O1908 1.956 . S
Li1848 O1909 1.970 . S
Li1848 O1910 1.961 . S
Li1849 N1873 1.990 . S
Li1849 O1908 1.970 . S
Li1849 O1909 1.956 . S
Li1849 O1911 1.961 . S
Li1850 N1895 1.990 . S
Li1850 O1908 1.961 . S
Li1850 O1910 1.956 . S
Li1850 O1911 1.970 . S
Li1851 N1901 1.990 . S
Li1851 O1909 1.961 . S
Li1851 O1910 1.970 . S
Li1851 O1911 1.956 . S
C1852 C1854 1.348 . S
C1852 C1855 1.356 . S
C1852 O1908 1.325 . S
N1853 C1856 1.314 . S
N1853 C1857 1.279 . S
C1854 C1852 1.348 . S
C1854 C1856 1.353 . S
C1854 H1912 0.929 . S
C1855 C1852 1.356 . S
C1855 C1857 1.358 . S
C1855 H1913 0.930 . S
C1856 N1853 1.314 . S
C1856 C1854 1.353 . S
C1856 H1914 0.930 . S
C1857 N1853 1.279 . S
C1857 C1855 1.358 . S
C1857 H1915 0.930 . S
C1858 C1861 1.348 . S
C1858 C1862 1.356 . S
C1858 O1909 1.325 . S
C1859 N1860 1.279 . S
C1859 C1862 1.358 . S
C1859 H1916 0.930 . S
N1860 C1859 1.279 . S
N1860 C1863 1.314 . S
C1861 C1858 1.348 . S
C1861 C1863 1.353 . S
C1861 H1917 0.929 . S
C1862 C1858 1.356 . S
C1862 C1859 1.358 . S
C1862 H1918 0.930 . S
C1863 N1860 1.314 . S
C1863 C1861 1.353 . S
C1863 H1919 0.930 . S
C1864 N1865 1.314 . S
C1864 C1869 1.353 . S
C1864 H1870 0.930 . S
N1865 Li1848 1.990 . S
N1865 C1864 1.314 . S
N1865 C1867 1.279 . S
C1866 C1867 1.358 . S
C1866 C1868 1.356 . S
C1866 H1920 0.930 . S
C1867 N1865 1.279 . S
C1867 C1866 1.358 . S
C1867 H1871 0.930 . S
C1868 C1866 1.356 . S
C1868 C1869 1.348 . S
C1869 C1864 1.353 . S
C1869 C1868 1.348 . S
C1869 H1921 0.929 . S
H1870 C1864 0.930 . S
H1871 C1867 0.930 . S
C1872 N1873 1.314 . S
C1872 C1874 1.353 . S
C1872 H1878 0.930 . S
N1873 Li1849 1.990 . S
N1873 C1872 1.314 . S
N1873 C1876 1.279 . S
C1874 C1872 1.353 . S
C1874 C1877 1.348 . S
C1874 H1922 0.929 . S
C1875 C1876 1.358 . S
C1875 C1877 1.356 . S
C1875 H1923 0.930 . S
C1876 N1873 1.279 . S
C1876 C1875 1.358 . S
C1876 H1879 0.930 . S
C1877 C1874 1.348 . S
C1877 C1875 1.356 . S
H1878 C1872 0.930 . S
H1879 C1876 0.930 . S
C1880 C1882 1.348 . S
C1880 C1883 1.356 . S
C1880 O1910 1.325 . S
N1881 C1884 1.314 . S
N1881 C1885 1.279 . S
C1882 C1880 1.348 . S
C1882 C1884 1.353 . S
C1882 H1924 0.929 . S
C1883 C1880 1.356 . S
C1883 C1885 1.358 . S
C1883 H1925 0.930 . S
C1884 N1881 1.314 . S
C1884 C1882 1.353 . S
C1884 H1926 0.930 . S
C1885 N1881 1.279 . S
C1885 C1883 1.358 . S
C1885 H1927 0.930 . S
C1886 C1887 1.348 . S
C1886 C1888 1.356 . S
C1886 O1911 1.325 . S
C1887 C1886 1.348 . S
C1887 C1889 1.353 . S
C1887 H1928 0.929 . S
C1888 C1886 1.356 . S
C1888 C1890 1.358 . S
C1888 H1929 0.930 . S
C1889 C1887 1.353 . S
C1889 N1891 1.314 . S
C1889 H1930 0.930 . S
C1890 C1888 1.358 . S
C1890 N1891 1.279 . S
C1890 H1931 0.930 . S
N1891 C1889 1.314 . S
N1891 C1890 1.279 . S
C1892 C1894 1.353 . S
C1892 N1895 1.314 . S
C1892 H1898 0.930 . S
C1893 N1895 1.279 . S
C1893 C1896 1.358 . S
C1893 H1899 0.930 . S
C1894 C1892 1.353 . S
C1894 C1897 1.348 . S
C1894 H1932 0.929 . S
N1895 Li1850 1.990 . S
N1895 C1892 1.314 . S
N1895 C1893 1.279 . S
C1896 C1893 1.358 . S
C1896 C1897 1.356 . S
C1896 H1933 0.930 . S
C1897 C1894 1.348 . S
C1897 C1896 1.356 . S
H1898 C1892 0.930 . S
H1899 C1893 0.930 . S
C1900 N1901 1.314 . S
C1900 C1902 1.353 . S
C1900 H1906 0.930 . S
N1901 Li1851 1.990 . S
N1901 C1900 1.314 . S
N1901 C1904 1.279 . S
C1902 C1900 1.353 . S
C1902 C1905 1.348 . S
C1902 H1934 0.929 . S
C1903 C1904 1.358 . S
C1903 C1905 1.356 . S
C1903 H1935 0.930 . S
C1904 N1901 1.279 . S
C1904 C1903 1.358 . S
C1904 H1907 0.930 . S
C1905 C1902 1.348 . S
C1905 C1903 1.356 . S
H1906 C1900 0.930 . S
H1907 C1904 0.930 . S
O1908 Li1848 1.956 . S
O1908 Li1849 1.970 . S
O1908 Li1850 1.961 . S
O1908 C1852 1.325 . S
O1909 Li1848 1.970 . S
O1909 Li1849 1.956 . S
O1909 Li1851 1.961 . S
O1909 C1858 1.325 . S
O1910 Li1848 1.961 . S
O1910 Li1850 1.956 . S
O1910 Li1851 1.970 . S
O1910 C1880 1.325 . S
O1911 Li1849 1.961 . S
O1911 Li1850 1.970 . S
O1911 Li1851 1.956 . S
O1911 C1886 1.325 . S
H1912 C1854 0.929 . S
H1913 C1855 0.930 . S
H1914 C1856 0.930 . S
H1915 C1857 0.930 . S
H1916 C1859 0.930 . S
H1917 C1861 0.929 . S
H1918 C1862 0.930 . S
H1919 C1863 0.930 . S
H1920 C1866 0.930 . S
H1921 C1869 0.929 . S
H1922 C1874 0.929 . S
H1923 C1875 0.930 . S
H1924 C1882 0.929 . S
H1925 C1883 0.930 . S
H1926 C1884 0.930 . S
H1927 C1885 0.930 . S
H1928 C1887 0.929 . S
H1929 C1888 0.930 . S
H1930 C1889 0.930 . S
H1931 C1890 0.930 . S
H1932 C1894 0.929 . S
H1933 C1896 0.930 . S
H1934 C1902 0.929 . S
H1935 C1903 0.930 . S
Li1936 N1953 1.990 . S
Li1936 O1996 1.956 . S
Li1936 O1997 1.970 . S
Li1936 O1998 1.961 . S
Li1937 N1961 1.990 . S
Li1937 O1996 1.970 . S
Li1937 O1997 1.956 . S
Li1937 O1999 1.961 . S
Li1938 N1983 1.990 . S
Li1938 O1996 1.961 . S
Li1938 O1998 1.956 . S
Li1938 O1999 1.970 . S
Li1939 N1989 1.990 . S
Li1939 O1997 1.961 . S
Li1939 O1998 1.970 . S
Li1939 O1999 1.956 . S
C1940 C1942 1.348 . S
C1940 C1943 1.356 . S
C1940 O1996 1.325 . S
N1941 C1944 1.314 . S
N1941 C1945 1.279 . S
C1942 C1940 1.348 . S
C1942 C1944 1.353 . S
C1942 H2000 0.929 . S
C1943 C1940 1.356 . S
C1943 C1945 1.358 . S
C1943 H2001 0.930 . S
C1944 N1941 1.314 . S
C1944 C1942 1.353 . S
C1944 H2002 0.930 . S
C1945 N1941 1.279 . S
C1945 C1943 1.358 . S
C1945 H2003 0.930 . S
C1946 C1949 1.348 . S
C1946 C1950 1.356 . S
C1946 O1997 1.325 . S
C1947 N1948 1.279 . S
C1947 C1950 1.358 . S
C1947 H2004 0.930 . S
N1948 C1947 1.279 . S
N1948 C1951 1.314 . S
C1949 C1946 1.348 . S
C1949 C1951 1.353 . S
C1949 H2005 0.929 . S
C1950 C1946 1.356 . S
C1950 C1947 1.358 . S
C1950 H2006 0.930 . S
C1951 N1948 1.314 . S
C1951 C1949 1.353 . S
C1951 H2007 0.930 . S
C1952 N1953 1.314 . S
C1952 C1957 1.353 . S
C1952 H1958 0.930 . S
N1953 Li1936 1.990 . S
N1953 C1952 1.314 . S
N1953 C1955 1.279 . S
C1954 C1955 1.358 . S
C1954 C1956 1.356 . S
C1954 H2008 0.930 . S
C1955 N1953 1.279 . S
C1955 C1954 1.358 . S
C1955 H1959 0.930 . S
C1956 C1954 1.356 . S
C1956 C1957 1.348 . S
C1957 C1952 1.353 . S
C1957 C1956 1.348 . S
C1957 H2009 0.929 . S
H1958 C1952 0.930 . S
H1959 C1955 0.930 . S
C1960 N1961 1.314 . S
C1960 C1962 1.353 . S
C1960 H1966 0.930 . S
N1961 Li1937 1.990 . S
N1961 C1960 1.314 . S
N1961 C1964 1.279 . S
C1962 C1960 1.353 . S
C1962 C1965 1.348 1_556 S
C1962 H2010 0.929 . S
C1963 C1964 1.358 1_554 S
C1963 C1965 1.356 . S
C1963 H2011 0.930 . S
C1964 N1961 1.279 . S
C1964 C1963 1.358 1_556 S
C1964 H1967 0.930 . S
C1965 C1962 1.348 1_554 S
C1965 C1963 1.356 . S
H1966 C1960 0.930 . S
H1967 C1964 0.930 . S
C1968 C1970 1.348 . S
C1968 C1971 1.356 . S
C1968 O1998 1.325 . S
N1969 C1972 1.314 . S
N1969 C1973 1.279 . S
C1970 C1968 1.348 . S
C1970 C1972 1.353 . S
C1970 H2012 0.929 . S
C1971 C1968 1.356 . S
C1971 C1973 1.358 . S
C1971 H2013 0.930 . S
C1972 N1969 1.314 . S
C1972 C1970 1.353 . S
C1972 H2014 0.930 . S
C1973 N1969 1.279 . S
C1973 C1971 1.358 . S
C1973 H2015 0.930 . S
C1974 C1975 1.348 . S
C1974 C1976 1.356 . S
C1974 O1999 1.325 . S
C1975 C1974 1.348 . S
C1975 C1977 1.353 . S
C1975 H2016 0.929 . S
C1976 C1974 1.356 . S
C1976 C1978 1.358 . S
C1976 H2017 0.930 . S
C1977 C1975 1.353 . S
C1977 N1979 1.314 . S
C1977 H2018 0.930 . S
C1978 C1976 1.358 . S
C1978 N1979 1.279 . S
C1978 H2019 0.930 . S
N1979 C1977 1.314 . S
N1979 C1978 1.279 . S
C1980 C1982 1.353 . S
C1980 N1983 1.314 . S
C1980 H1986 0.930 . S
C1981 N1983 1.279 . S
C1981 C1984 1.358 . S
C1981 H1987 0.930 . S
C1982 C1980 1.353 . S
C1982 C1985 1.348 . S
C1982 H2020 0.929 . S
N1983 Li1938 1.990 . S
N1983 C1980 1.314 . S
N1983 C1981 1.279 . S
C1984 C1981 1.358 . S
C1984 C1985 1.356 . S
C1984 H2021 0.930 . S
C1985 C1982 1.348 . S
C1985 C1984 1.356 . S
H1986 C1980 0.930 . S
H1987 C1981 0.930 . S
C1988 N1989 1.314 . S
C1988 C1990 1.353 . S
C1988 H1994 0.930 . S
N1989 Li1939 1.990 . S
N1989 C1988 1.314 . S
N1989 C1992 1.279 . S
C1990 C1988 1.353 . S
C1990 C1993 1.348 . S
C1990 H2022 0.929 . S
C1991 C1992 1.358 . S
C1991 C1993 1.356 . S
C1991 H2023 0.930 . S
C1992 N1989 1.279 . S
C1992 C1991 1.358 . S
C1992 H1995 0.930 . S
C1993 C1990 1.348 . S
C1993 C1991 1.356 . S
H1994 C1988 0.930 . S
H1995 C1992 0.930 . S
O1996 Li1936 1.956 . S
O1996 Li1937 1.970 . S
O1996 Li1938 1.961 . S
O1996 C1940 1.325 . S
O1997 Li1936 1.970 . S
O1997 Li1937 1.956 . S
O1997 Li1939 1.961 . S
O1997 C1946 1.325 . S
O1998 Li1936 1.961 . S
O1998 Li1938 1.956 . S
O1998 Li1939 1.970 . S
O1998 C1968 1.325 . S
O1999 Li1937 1.961 . S
O1999 Li1938 1.970 . S
O1999 Li1939 1.956 . S
O1999 C1974 1.325 . S
H2000 C1942 0.929 . S
H2001 C1943 0.930 . S
H2002 C1944 0.930 . S
H2003 C1945 0.930 . S
H2004 C1947 0.930 . S
H2005 C1949 0.929 . S
H2006 C1950 0.930 . S
H2007 C1951 0.930 . S
H2008 C1954 0.930 . S
H2009 C1957 0.929 . S
H2010 C1962 0.929 . S
H2011 C1963 0.930 . S
H2012 C1970 0.929 . S
H2013 C1971 0.930 . S
H2014 C1972 0.930 . S
H2015 C1973 0.930 . S
H2016 C1975 0.929 . S
H2017 C1976 0.930 . S
H2018 C1977 0.930 . S
H2019 C1978 0.930 . S
H2020 C1982 0.929 . S
H2021 C1984 0.930 . S
H2022 C1990 0.929 . S
H2023 C1991 0.930 . S
Li2024 N2041 1.990 . S
Li2024 O2084 1.956 . S
Li2024 O2085 1.970 . S
Li2024 O2086 1.961 . S
Li2025 N2049 1.990 . S
Li2025 O2084 1.970 . S
Li2025 O2085 1.956 . S
Li2025 O2087 1.961 . S
Li2026 N2071 1.990 . S
Li2026 O2084 1.961 . S
Li2026 O2086 1.956 . S
Li2026 O2087 1.970 . S
Li2027 N2077 1.990 . S
Li2027 O2085 1.961 . S
Li2027 O2086 1.970 . S
Li2027 O2087 1.956 . S
C2028 C2030 1.348 . S
C2028 C2031 1.356 . S
C2028 O2084 1.325 . S
N2029 C2032 1.314 . S
N2029 C2033 1.279 . S
C2030 C2028 1.348 . S
C2030 C2032 1.353 . S
C2030 H2088 0.929 . S
C2031 C2028 1.356 . S
C2031 C2033 1.358 . S
C2031 H2089 0.930 . S
C2032 N2029 1.314 . S
C2032 C2030 1.353 . S
C2032 H2090 0.930 . S
C2033 N2029 1.279 . S
C2033 C2031 1.358 . S
C2033 H2091 0.930 . S
C2034 C2037 1.348 . S
C2034 C2038 1.356 . S
C2034 O2085 1.325 . S
C2035 N2036 1.279 . S
C2035 C2038 1.358 . S
C2035 H2092 0.930 . S
N2036 C2035 1.279 . S
N2036 C2039 1.314 . S
C2037 C2034 1.348 . S
C2037 C2039 1.353 . S
C2037 H2093 0.929 . S
C2038 C2034 1.356 . S
C2038 C2035 1.358 . S
C2038 H2094 0.930 . S
C2039 N2036 1.314 . S
C2039 C2037 1.353 . S
C2039 H2095 0.930 . S
C2040 N2041 1.314 . S
C2040 C2045 1.353 . S
C2040 H2046 0.930 . S
N2041 Li2024 1.990 . S
N2041 C2040 1.314 . S
N2041 C2043 1.279 . S
C2042 C2043 1.358 . S
C2042 C2044 1.356 . S
C2042 H2096 0.930 . S
C2043 N2041 1.279 . S
C2043 C2042 1.358 . S
C2043 H2047 0.930 . S
C2044 C2042 1.356 . S
C2044 C2045 1.348 . S
C2045 C2040 1.353 . S
C2045 C2044 1.348 . S
C2045 H2097 0.929 . S
H2046 C2040 0.930 . S
H2047 C2043 0.930 . S
C2048 N2049 1.314 . S
C2048 C2050 1.353 . S
C2048 H2054 0.930 . S
N2049 Li2025 1.990 . S
N2049 C2048 1.314 . S
N2049 C2052 1.279 . S
C2050 C2048 1.353 . S
C2050 C2053 1.348 . S
C2050 H2098 0.929 . S
C2051 C2052 1.358 . S
C2051 C2053 1.356 . S
C2051 H2099 0.930 . S
C2052 N2049 1.279 . S
C2052 C2051 1.358 . S
C2052 H2055 0.930 . S
C2053 C2050 1.348 . S
C2053 C2051 1.356 . S
H2054 C2048 0.930 . S
H2055 C2052 0.930 . S
C2056 C2058 1.348 1_554 S
C2056 C2059 1.356 1_554 S
C2056 O2086 1.325 . S
N2057 C2060 1.314 . S
N2057 C2061 1.279 . S
C2058 C2056 1.348 1_556 S
C2058 C2060 1.353 . S
C2058 H2100 0.929 1_556 S
C2059 C2056 1.356 1_556 S
C2059 C2061 1.358 . S
C2059 H2101 0.930 1_556 S
C2060 N2057 1.314 . S
C2060 C2058 1.353 . S
C2060 H2102 0.930 . S
C2061 N2057 1.279 . S
C2061 C2059 1.358 . S
C2061 H2103 0.930 . S
C2062 C2063 1.348 . S
C2062 C2064 1.356 . S
C2062 O2087 1.325 . S
C2063 C2062 1.348 . S
C2063 C2065 1.353 . S
C2063 H2104 0.929 . S
C2064 C2062 1.356 . S
C2064 C2066 1.358 . S
C2064 H2105 0.930 . S
C2065 C2063 1.353 . S
C2065 N2067 1.314 . S
C2065 H2106 0.930 . S
C2066 C2064 1.358 . S
C2066 N2067 1.279 . S
C2066 H2107 0.930 . S
N2067 C2065 1.314 . S
N2067 C2066 1.279 . S
C2068 C2070 1.353 1_554 S
C2068 N2071 1.314 . S
C2068 H2074 0.930 . S
C2069 N2071 1.279 1_556 S
C2069 C2072 1.358 . S
C2069 H2075 0.930 . S
C2070 C2068 1.353 1_556 S
C2070 C2073 1.348 . S
C2070 H2108 0.930 1_556 S
N2071 Li2026 1.990 . S
N2071 C2068 1.314 . S
N2071 C2069 1.279 1_554 S
C2072 C2069 1.358 . S
C2072 C2073 1.356 . S
C2072 H2109 0.930 . S
C2073 C2070 1.348 . S
C2073 C2072 1.356 . S
H2074 C2068 0.930 . S
H2075 C2069 0.930 . S
C2076 N2077 1.314 . S
C2076 C2078 1.353 . S
C2076 H2082 0.930 . S
N2077 Li2027 1.990 . S
N2077 C2076 1.314 . S
N2077 C2080 1.279 . S
C2078 C2076 1.353 . S
C2078 C2081 1.348 . S
C2078 H2110 0.929 . S
C2079 C2080 1.358 . S
C2079 C2081 1.356 . S
C2079 H2111 0.930 . S
C2080 N2077 1.279 . S
C2080 C2079 1.358 . S
C2080 H2083 0.930 . S
C2081 C2078 1.348 . S
C2081 C2079 1.356 . S
H2082 C2076 0.930 . S
H2083 C2080 0.930 . S
O2084 Li2024 1.956 . S
O2084 Li2025 1.970 . S
O2084 Li2026 1.961 . S
O2084 C2028 1.325 . S
O2085 Li2024 1.970 . S
O2085 Li2025 1.956 . S
O2085 Li2027 1.961 . S
O2085 C2034 1.325 . S
O2086 Li2024 1.961 . S
O2086 Li2026 1.956 . S
O2086 Li2027 1.970 . S
O2086 C2056 1.325 . S
O2087 Li2025 1.961 . S
O2087 Li2026 1.970 . S
O2087 Li2027 1.956 . S
O2087 C2062 1.325 . S
H2088 C2030 0.929 . S
H2089 C2031 0.930 . S
H2090 C2032 0.930 . S
H2091 C2033 0.930 . S
H2092 C2035 0.930 . S
H2093 C2037 0.929 . S
H2094 C2038 0.930 . S
H2095 C2039 0.930 . S
H2096 C2042 0.930 . S
H2097 C2045 0.929 . S
H2098 C2050 0.929 . S
H2099 C2051 0.930 . S
H2100 C2058 0.929 1_554 S
H2101 C2059 0.930 1_554 S
H2102 C2060 0.930 . S
H2103 C2061 0.930 . S
H2104 C2063 0.929 . S
H2105 C2064 0.930 . S
H2106 C2065 0.930 . S
H2107 C2066 0.930 . S
H2108 C2070 0.930 1_554 S
H2109 C2072 0.930 . S
H2110 C2078 0.929 . S
H2111 C2079 0.930 . S
Li2112 N2129 1.990 . S
Li2112 O2172 1.956 . S
Li2112 O2173 1.970 . S
Li2112 O2174 1.961 . S
Li2113 N2137 1.990 . S
Li2113 O2172 1.970 . S
Li2113 O2173 1.956 . S
Li2113 O2175 1.961 . S
Li2114 N2159 1.990 . S
Li2114 O2172 1.961 . S
Li2114 O2174 1.956 . S
Li2114 O2175 1.970 . S
Li2115 N2165 1.990 . S
Li2115 O2173 1.961 . S
Li2115 O2174 1.970 . S
Li2115 O2175 1.956 . S
C2116 C2118 1.348 . S
C2116 C2119 1.356 . S
C2116 O2172 1.325 . S
N2117 C2120 1.314 . S
N2117 C2121 1.279 . S
C2118 C2116 1.348 . S
C2118 C2120 1.353 . S
C2118 H2176 0.929 . S
C2119 C2116 1.356 . S
C2119 C2121 1.358 . S
C2119 H2177 0.930 . S
C2120 N2117 1.314 . S
C2120 C2118 1.353 . S
C2120 H2178 0.930 . S
C2121 N2117 1.279 . S
C2121 C2119 1.358 . S
C2121 H2179 0.930 . S
C2122 C2125 1.348 . S
C2122 C2126 1.356 . S
C2122 O2173 1.325 . S
C2123 N2124 1.279 . S
C2123 C2126 1.358 . S
C2123 H2180 0.930 . S
N2124 C2123 1.279 . S
N2124 C2127 1.314 . S
C2125 C2122 1.348 . S
C2125 C2127 1.353 . S
C2125 H2181 0.929 . S
C2126 C2122 1.356 . S
C2126 C2123 1.358 . S
C2126 H2182 0.930 . S
C2127 N2124 1.314 . S
C2127 C2125 1.353 . S
C2127 H2183 0.930 . S
C2128 N2129 1.314 . S
C2128 C2133 1.353 . S
C2128 H2134 0.930 . S
N2129 Li2112 1.990 . S
N2129 C2128 1.314 . S
N2129 C2131 1.279 . S
C2130 C2131 1.358 . S
C2130 C2132 1.356 . S
C2130 H2184 0.930 . S
C2131 N2129 1.279 . S
C2131 C2130 1.358 . S
C2131 H2135 0.930 . S
C2132 C2130 1.356 . S
C2132 C2133 1.348 . S
C2133 C2128 1.353 . S
C2133 C2132 1.348 . S
C2133 H2185 0.929 . S
H2134 C2128 0.930 . S
H2135 C2131 0.930 . S
C2136 N2137 1.314 . S
C2136 C2138 1.353 . S
C2136 H2142 0.930 . S
N2137 Li2113 1.990 . S
N2137 C2136 1.314 . S
N2137 C2140 1.279 . S
C2138 C2136 1.353 . S
C2138 C2141 1.348 . S
C2138 H2186 0.929 . S
C2139 C2140 1.358 . S
C2139 C2141 1.356 . S
C2139 H2187 0.930 . S
C2140 N2137 1.279 . S
C2140 C2139 1.358 . S
C2140 H2143 0.930 . S
C2141 C2138 1.348 . S
C2141 C2139 1.356 . S
H2142 C2136 0.930 . S
H2143 C2140 0.930 . S
C2144 C2146 1.348 . S
C2144 C2147 1.356 . S
C2144 O2174 1.325 . S
N2145 C2148 1.314 . S
N2145 C2149 1.279 . S
C2146 C2144 1.348 . S
C2146 C2148 1.353 . S
C2146 H2188 0.929 . S
C2147 C2144 1.356 . S
C2147 C2149 1.358 . S
C2147 H2189 0.930 . S
C2148 N2145 1.314 . S
C2148 C2146 1.353 . S
C2148 H2190 0.930 . S
C2149 N2145 1.279 . S
C2149 C2147 1.358 . S
C2149 H2191 0.930 . S
C2150 C2151 1.348 . S
C2150 C2152 1.356 . S
C2150 O2175 1.325 . S
C2151 C2150 1.348 . S
C2151 C2153 1.353 . S
C2151 H2192 0.929 . S
C2152 C2150 1.356 . S
C2152 C2154 1.358 . S
C2152 H2193 0.930 . S
C2153 C2151 1.353 . S
C2153 N2155 1.314 . S
C2153 H2194 0.930 . S
C2154 C2152 1.358 . S
C2154 N2155 1.279 . S
C2154 H2195 0.930 . S
N2155 C2153 1.314 . S
N2155 C2154 1.279 . S
C2156 C2158 1.353 . S
C2156 N2159 1.314 . S
C2156 H2162 0.930 . S
C2157 N2159 1.279 . S
C2157 C2160 1.358 . S
C2157 H2163 0.930 . S
C2158 C2156 1.353 . S
C2158 C2161 1.348 . S
C2158 H2196 0.929 . S
N2159 Li2114 1.990 . S
N2159 C2156 1.314 . S
N2159 C2157 1.279 . S
C2160 C2157 1.358 . S
C2160 C2161 1.356 . S
C2160 H2197 0.930 . S
C2161 C2158 1.348 . S
C2161 C2160 1.356 . S
H2162 C2156 0.930 . S
H2163 C2157 0.930 . S
C2164 N2165 1.314 . S
C2164 C2166 1.353 . S
C2164 H2170 0.930 . S
N2165 Li2115 1.990 . S
N2165 C2164 1.314 . S
N2165 C2168 1.279 . S
C2166 C2164 1.353 . S
C2166 C2169 1.348 . S
C2166 H2198 0.929 . S
C2167 C2168 1.358 . S
C2167 C2169 1.356 . S
C2167 H2199 0.930 . S
C2168 N2165 1.279 . S
C2168 C2167 1.358 . S
C2168 H2171 0.930 . S
C2169 C2166 1.348 . S
C2169 C2167 1.356 . S
H2170 C2164 0.930 . S
H2171 C2168 0.930 . S
O2172 Li2112 1.956 . S
O2172 Li2113 1.970 . S
O2172 Li2114 1.961 . S
O2172 C2116 1.325 . S
O2173 Li2112 1.970 . S
O2173 Li2113 1.956 . S
O2173 Li2115 1.961 . S
O2173 C2122 1.325 . S
O2174 Li2112 1.961 . S
O2174 Li2114 1.956 . S
O2174 Li2115 1.970 . S
O2174 C2144 1.325 . S
O2175 Li2113 1.961 . S
O2175 Li2114 1.970 . S
O2175 Li2115 1.956 . S
O2175 C2150 1.325 . S
H2176 C2118 0.929 . S
H2177 C2119 0.930 . S
H2178 C2120 0.930 . S
H2179 C2121 0.930 . S
H2180 C2123 0.930 . S
H2181 C2125 0.929 . S
H2182 C2126 0.930 . S
H2183 C2127 0.930 . S
H2184 C2130 0.930 . S
H2185 C2133 0.929 . S
H2186 C2138 0.929 . S
H2187 C2139 0.930 . S
H2188 C2146 0.929 . S
H2189 C2147 0.930 . S
H2190 C2148 0.930 . S
H2191 C2149 0.930 . S
H2192 C2151 0.929 . S
H2193 C2152 0.930 . S
H2194 C2153 0.930 . S
H2195 C2154 0.930 . S
H2196 C2158 0.929 . S
H2197 C2160 0.930 . S
H2198 C2166 0.929 . S
H2199 C2167 0.930 . S
Li2200 N2217 1.990 . S
Li2200 O2260 1.956 . S
Li2200 O2261 1.970 . S
Li2200 O2262 1.961 . S
Li2201 N2225 1.990 . S
Li2201 O2260 1.970 . S
Li2201 O2261 1.956 . S
Li2201 O2263 1.961 . S
Li2202 N2247 1.990 . S
Li2202 O2260 1.961 . S
Li2202 O2262 1.956 . S
Li2202 O2263 1.970 . S
Li2203 N2253 1.990 . S
Li2203 O2261 1.961 . S
Li2203 O2262 1.970 . S
Li2203 O2263 1.956 . S
C2204 C2206 1.348 . S
C2204 C2207 1.356 . S
C2204 O2260 1.325 . S
N2205 C2208 1.314 . S
N2205 C2209 1.279 . S
C2206 C2204 1.348 . S
C2206 C2208 1.353 . S
C2206 H2264 0.929 . S
C2207 C2204 1.356 . S
C2207 C2209 1.358 . S
C2207 H2265 0.930 . S
C2208 N2205 1.314 . S
C2208 C2206 1.353 . S
C2208 H2266 0.930 . S
C2209 N2205 1.279 . S
C2209 C2207 1.358 . S
C2209 H2267 0.930 . S
C2210 C2213 1.348 . S
C2210 C2214 1.356 . S
C2210 O2261 1.325 . S
C2211 N2212 1.279 . S
C2211 C2214 1.358 . S
C2211 H2268 0.930 . S
N2212 C2211 1.279 . S
N2212 C2215 1.314 . S
C2213 C2210 1.348 . S
C2213 C2215 1.353 . S
C2213 H2269 0.929 . S
C2214 C2210 1.356 . S
C2214 C2211 1.358 . S
C2214 H2270 0.930 . S
C2215 N2212 1.314 . S
C2215 C2213 1.353 . S
C2215 H2271 0.930 . S
C2216 N2217 1.314 1_556 S
C2216 C2221 1.353 . S
C2216 H2222 0.930 . S
N2217 Li2200 1.990 . S
N2217 C2216 1.314 1_554 S
N2217 C2219 1.279 . S
C2218 C2219 1.358 1_556 S
C2218 C2220 1.356 . S
C2218 H2272 0.930 . S
C2219 N2217 1.279 . S
C2219 C2218 1.358 1_554 S
C2219 H2223 0.930 . S
C2220 C2218 1.356 . S
C2220 C2221 1.348 . S
C2221 C2216 1.353 . S
C2221 C2220 1.348 . S
C2221 H2273 0.929 . S
H2222 C2216 0.930 . S
H2223 C2219 0.930 . S
C2224 N2225 1.314 . S
C2224 C2226 1.353 . S
C2224 H2230 0.930 . S
N2225 Li2201 1.990 . S
N2225 C2224 1.314 . S
N2225 C2228 1.279 . S
C2226 C2224 1.353 . S
C2226 C2229 1.348 . S
C2226 H2274 0.929 . S
C2227 C2228 1.358 . S
C2227 C2229 1.356 . S
C2227 H2275 0.930 . S
C2228 N2225 1.279 . S
C2228 C2227 1.358 . S
C2228 H2231 0.930 . S
C2229 C2226 1.348 . S
C2229 C2227 1.356 . S
H2230 C2224 0.930 . S
H2231 C2228 0.930 . S
C2232 C2234 1.348 . S
C2232 C2235 1.356 1_554 S
C2232 O2262 1.325 . S
N2233 C2236 1.314 . S
N2233 C2237 1.279 . S
C2234 C2232 1.348 . S
C2234 C2236 1.353 1_554 S
C2234 H2276 0.929 . S
C2235 C2232 1.356 1_556 S
C2235 C2237 1.358 . S
C2235 H2277 0.930 . S
C2236 N2233 1.314 . S
C2236 C2234 1.353 1_556 S
C2236 H2278 0.930 . S
C2237 N2233 1.279 . S
C2237 C2235 1.358 . S
C2237 H2279 0.930 . S
C2238 C2239 1.348 . S
C2238 C2240 1.356 . S
C2238 O2263 1.325 . S
C2239 C2238 1.348 . S
C2239 C2241 1.353 . S
C2239 H2280 0.929 . S
C2240 C2238 1.356 . S
C2240 C2242 1.358 . S
C2240 H2281 0.930 . S
C2241 C2239 1.353 . S
C2241 N2243 1.314 . S
C2241 H2282 0.930 . S
C2242 C2240 1.358 . S
C2242 N2243 1.279 . S
C2242 H2283 0.930 . S
N2243 C2241 1.314 . S
N2243 C2242 1.279 . S
C2244 C2246 1.353 . S
C2244 N2247 1.314 . S
C2244 H2250 0.930 . S
C2245 N2247 1.279 . S
C2245 C2248 1.358 . S
C2245 H2251 0.930 . S
C2246 C2244 1.353 . S
C2246 C2249 1.348 . S
C2246 H2284 0.929 . S
N2247 Li2202 1.990 . S
N2247 C2244 1.314 . S
N2247 C2245 1.279 . S
C2248 C2245 1.358 . S
C2248 C2249 1.356 . S
C2248 H2285 0.930 . S
C2249 C2246 1.348 . S
C2249 C2248 1.356 . S
H2250 C2244 0.930 . S
H2251 C2245 0.930 . S
C2252 N2253 1.314 . S
C2252 C2254 1.353 . S
C2252 H2258 0.930 . S
N2253 Li2203 1.990 . S
N2253 C2252 1.314 . S
N2253 C2256 1.279 . S
C2254 C2252 1.353 . S
C2254 C2257 1.348 . S
C2254 H2286 0.929 . S
C2255 C2256 1.358 . S
C2255 C2257 1.356 . S
C2255 H2287 0.930 . S
C2256 N2253 1.279 . S
C2256 C2255 1.358 . S
C2256 H2259 0.930 . S
C2257 C2254 1.348 . S
C2257 C2255 1.356 . S
H2258 C2252 0.930 . S
H2259 C2256 0.930 . S
O2260 Li2200 1.956 . S
O2260 Li2201 1.970 . S
O2260 Li2202 1.961 . S
O2260 C2204 1.325 . S
O2261 Li2200 1.970 . S
O2261 Li2201 1.956 . S
O2261 Li2203 1.961 . S
O2261 C2210 1.325 . S
O2262 Li2200 1.961 . S
O2262 Li2202 1.956 . S
O2262 Li2203 1.970 . S
O2262 C2232 1.325 . S
O2263 Li2201 1.961 . S
O2263 Li2202 1.970 . S
O2263 Li2203 1.956 . S
O2263 C2238 1.325 . S
H2264 C2206 0.929 . S
H2265 C2207 0.930 . S
H2266 C2208 0.930 . S
H2267 C2209 0.930 . S
H2268 C2211 0.930 . S
H2269 C2213 0.929 . S
H2270 C2214 0.930 . S
H2271 C2215 0.930 . S
H2272 C2218 0.930 . S
H2273 C2221 0.929 . S
H2274 C2226 0.929 . S
H2275 C2227 0.930 . S
H2276 C2234 0.929 . S
H2277 C2235 0.930 . S
H2278 C2236 0.930 . S
H2279 C2237 0.930 . S
H2280 C2239 0.929 . S
H2281 C2240 0.930 . S
H2282 C2241 0.930 . S
H2283 C2242 0.930 . S
H2284 C2246 0.929 . S
H2285 C2248 0.930 . S
H2286 C2254 0.929 . S
H2287 C2255 0.930 . S
Li2288 N2305 1.990 . S
Li2288 O2348 1.956 . S
Li2288 O2349 1.970 . S
Li2288 O2350 1.961 . S
Li2289 N2313 1.990 . S
Li2289 O2348 1.970 . S
Li2289 O2349 1.956 . S
Li2289 O2351 1.961 . S
Li2290 N2335 1.990 . S
Li2290 O2348 1.961 . S
Li2290 O2350 1.956 . S
Li2290 O2351 1.970 . S
Li2291 N2341 1.990 . S
Li2291 O2349 1.961 . S
Li2291 O2350 1.970 . S
Li2291 O2351 1.956 . S
C2292 C2294 1.348 . S
C2292 C2295 1.356 . S
C2292 O2348 1.325 . S
N2293 C2296 1.314 . S
N2293 C2297 1.279 . S
C2294 C2292 1.348 . S
C2294 C2296 1.353 . S
C2294 H2352 0.929 . S
C2295 C2292 1.356 . S
C2295 C2297 1.358 . S
C2295 H2353 0.930 . S
C2296 N2293 1.314 . S
C2296 C2294 1.353 . S
C2296 H2354 0.930 . S
C2297 N2293 1.279 . S
C2297 C2295 1.358 . S
C2297 H2355 0.930 . S
C2298 C2301 1.348 . S
C2298 C2302 1.356 . S
C2298 O2349 1.325 . S
C2299 N2300 1.279 . S
C2299 C2302 1.358 . S
C2299 H2356 0.930 . S
N2300 C2299 1.279 . S
N2300 C2303 1.314 . S
C2301 C2298 1.348 . S
C2301 C2303 1.353 . S
C2301 H2357 0.929 . S
C2302 C2298 1.356 . S
C2302 C2299 1.358 . S
C2302 H2358 0.930 . S
C2303 N2300 1.314 . S
C2303 C2301 1.353 . S
C2303 H2359 0.930 . S
C2304 N2305 1.314 . S
C2304 C2309 1.353 . S
C2304 H2310 0.930 . S
N2305 Li2288 1.990 . S
N2305 C2304 1.314 . S
N2305 C2307 1.279 . S
C2306 C2307 1.358 . S
C2306 C2308 1.356 . S
C2306 H2360 0.930 . S
C2307 N2305 1.279 . S
C2307 C2306 1.358 . S
C2307 H2311 0.930 . S
C2308 C2306 1.356 . S
C2308 C2309 1.348 . S
C2309 C2304 1.353 . S
C2309 C2308 1.348 . S
C2309 H2361 0.929 . S
H2310 C2304 0.930 . S
H2311 C2307 0.930 . S
C2312 N2313 1.314 . S
C2312 C2314 1.353 1_556 S
C2312 H2318 0.930 . S
N2313 Li2289 1.990 . S
N2313 C2312 1.314 . S
N2313 C2316 1.279 . S
C2314 C2312 1.353 1_554 S
C2314 C2317 1.348 . S
C2314 H2362 0.929 . S
C2315 C2316 1.358 . S
C2315 C2317 1.356 1_556 S
C2315 H2363 0.930 . S
C2316 N2313 1.279 . S
C2316 C2315 1.358 . S
C2316 H2319 0.930 . S
C2317 C2314 1.348 . S
C2317 C2315 1.356 1_554 S
H2318 C2312 0.930 . S
H2319 C2316 0.930 . S
C2320 C2322 1.348 . S
C2320 C2323 1.356 . S
C2320 O2350 1.325 . S
N2321 C2324 1.314 . S
N2321 C2325 1.279 . S
C2322 C2320 1.348 . S
C2322 C2324 1.353 . S
C2322 H2364 0.929 . S
C2323 C2320 1.356 . S
C2323 C2325 1.358 . S
C2323 H2365 0.930 . S
C2324 N2321 1.314 . S
C2324 C2322 1.353 . S
C2324 H2366 0.930 . S
C2325 N2321 1.279 . S
C2325 C2323 1.358 . S
C2325 H2367 0.930 . S
C2326 C2327 1.348 . S
C2326 C2328 1.356 . S
C2326 O2351 1.325 . S
C2327 C2326 1.348 . S
C2327 C2329 1.353 . S
C2327 H2368 0.929 . S
C2328 C2326 1.356 . S
C2328 C2330 1.358 . S
C2328 H2369 0.930 . S
C2329 C2327 1.353 . S
C2329 N2331 1.314 . S
C2329 H2370 0.930 . S
C2330 C2328 1.358 . S
C2330 N2331 1.279 . S
C2330 H2371 0.930 1_556 S
N2331 C2329 1.314 . S
N2331 C2330 1.279 . S
C2332 C2334 1.353 . S
C2332 N2335 1.314 . S
C2332 H2338 0.930 . S
C2333 N2335 1.279 . S
C2333 C2336 1.358 . S
C2333 H2339 0.930 . S
C2334 C2332 1.353 . S
C2334 C2337 1.348 . S
C2334 H2372 0.929 . S
N2335 Li2290 1.990 . S
N2335 C2332 1.314 . S
N2335 C2333 1.279 . S
C2336 C2333 1.358 . S
C2336 C2337 1.356 . S
C2336 H2373 0.930 . S
C2337 C2334 1.348 . S
C2337 C2336 1.356 . S
H2338 C2332 0.930 . S
H2339 C2333 0.930 . S
C2340 N2341 1.314 . S
C2340 C2342 1.353 . S
C2340 H2346 0.930 . S
N2341 Li2291 1.990 . S
N2341 C2340 1.314 . S
N2341 C2344 1.279 . S
C2342 C2340 1.353 . S
C2342 C2345 1.348 . S
C2342 H2374 0.929 . S
C2343 C2344 1.358 . S
C2343 C2345 1.356 . S
C2343 H2375 0.930 . S
C2344 N2341 1.279 . S
C2344 C2343 1.358 . S
C2344 H2347 0.930 . S
C2345 C2342 1.348 . S
C2345 C2343 1.356 . S
H2346 C2340 0.930 . S
H2347 C2344 0.930 . S
O2348 Li2288 1.956 . S
O2348 Li2289 1.970 . S
O2348 Li2290 1.961 . S
O2348 C2292 1.325 . S
O2349 Li2288 1.970 . S
O2349 Li2289 1.956 . S
O2349 Li2291 1.961 . S
O2349 C2298 1.325 . S
O2350 Li2288 1.961 . S
O2350 Li2290 1.956 . S
O2350 Li2291 1.970 . S
O2350 C2320 1.325 . S
O2351 Li2289 1.961 . S
O2351 Li2290 1.970 . S
O2351 Li2291 1.956 . S
O2351 C2326 1.325 . S
H2352 C2294 0.929 . S
H2353 C2295 0.930 . S
H2354 C2296 0.930 . S
H2355 C2297 0.930 . S
H2356 C2299 0.930 . S
H2357 C2301 0.929 . S
H2358 C2302 0.930 . S
H2359 C2303 0.930 . S
H2360 C2306 0.930 . S
H2361 C2309 0.929 . S
H2362 C2314 0.929 . S
H2363 C2315 0.930 . S
H2364 C2322 0.929 . S
H2365 C2323 0.930 . S
H2366 C2324 0.930 . S
H2367 C2325 0.930 . S
H2368 C2327 0.929 . S
H2369 C2328 0.930 . S
H2370 C2329 0.930 . S
H2371 C2330 0.930 1_554 S
H2372 C2334 0.929 . S
H2373 C2336 0.930 . S
H2374 C2342 0.929 . S
H2375 C2343 0.930 . S
Li2376 N2393 1.990 . S
Li2376 O2436 1.956 . S
Li2376 O2437 1.970 . S
Li2376 O2438 1.961 . S
Li2377 N2401 1.990 . S
Li2377 O2436 1.970 . S
Li2377 O2437 1.956 . S
Li2377 O2439 1.961 . S
Li2378 N2423 1.990 . S
Li2378 O2436 1.961 . S
Li2378 O2438 1.956 . S
Li2378 O2439 1.970 . S
Li2379 N2429 1.990 . S
Li2379 O2437 1.961 . S
Li2379 O2438 1.970 . S
Li2379 O2439 1.956 . S
C2380 C2382 1.348 . S
C2380 C2383 1.356 . S
C2380 O2436 1.325 . S
N2381 C2384 1.314 . S
N2381 C2385 1.279 . S
C2382 C2380 1.348 . S
C2382 C2384 1.353 . S
C2382 H2440 0.929 . S
C2383 C2380 1.356 . S
C2383 C2385 1.358 . S
C2383 H2441 0.930 . S
C2384 N2381 1.314 . S
C2384 C2382 1.353 . S
C2384 H2442 0.930 . S
C2385 N2381 1.279 . S
C2385 C2383 1.358 . S
C2385 H2443 0.930 . S
C2386 C2389 1.348 . S
C2386 C2390 1.356 . S
C2386 O2437 1.325 . S
C2387 N2388 1.279 . S
C2387 C2390 1.358 . S
C2387 H2444 0.930 . S
N2388 C2387 1.279 . S
N2388 C2391 1.314 . S
C2389 C2386 1.348 . S
C2389 C2391 1.353 . S
C2389 H2445 0.929 . S
C2390 C2386 1.356 . S
C2390 C2387 1.358 . S
C2390 H2446 0.930 . S
C2391 N2388 1.314 . S
C2391 C2389 1.353 . S
C2391 H2447 0.930 . S
C2392 N2393 1.314 . S
C2392 C2397 1.353 . S
C2392 H2398 0.930 . S
N2393 Li2376 1.990 . S
N2393 C2392 1.314 . S
N2393 C2395 1.279 . S
C2394 C2395 1.358 . S
C2394 C2396 1.356 . S
C2394 H2448 0.930 . S
C2395 N2393 1.279 . S
C2395 C2394 1.358 . S
C2395 H2399 0.930 . S
C2396 C2394 1.356 . S
C2396 C2397 1.348 . S
C2397 C2392 1.353 . S
C2397 C2396 1.348 . S
C2397 H2449 0.929 . S
H2398 C2392 0.930 . S
H2399 C2395 0.930 . S
C2400 N2401 1.314 . S
C2400 C2402 1.353 . S
C2400 H2406 0.930 . S
N2401 Li2377 1.990 . S
N2401 C2400 1.314 . S
N2401 C2404 1.279 . S
C2402 C2400 1.353 . S
C2402 C2405 1.348 . S
C2402 H2450 0.929 . S
C2403 C2404 1.358 . S
C2403 C2405 1.356 . S
C2403 H2451 0.930 . S
C2404 N2401 1.279 . S
C2404 C2403 1.358 . S
C2404 H2407 0.930 . S
C2405 C2402 1.348 . S
C2405 C2403 1.356 . S
H2406 C2400 0.930 . S
H2407 C2404 0.930 . S
C2408 C2410 1.348 . S
C2408 C2411 1.356 . S
C2408 O2438 1.325 . S
N2409 C2412 1.314 . S
N2409 C2413 1.279 . S
C2410 C2408 1.348 . S
C2410 C2412 1.353 . S
C2410 H2452 0.929 . S
C2411 C2408 1.356 . S
C2411 C2413 1.358 . S
C2411 H2453 0.930 . S
C2412 N2409 1.314 . S
C2412 C2410 1.353 . S
C2412 H2454 0.930 . S
C2413 N2409 1.279 . S
C2413 C2411 1.358 . S
C2413 H2455 0.930 . S
C2414 C2415 1.348 . S
C2414 C2416 1.356 . S
C2414 O2439 1.325 . S
C2415 C2414 1.348 . S
C2415 C2417 1.353 . S
C2415 H2456 0.929 . S
C2416 C2414 1.356 . S
C2416 C2418 1.358 . S
C2416 H2457 0.930 . S
C2417 C2415 1.353 . S
C2417 N2419 1.314 . S
C2417 H2458 0.930 . S
C2418 C2416 1.358 . S
C2418 N2419 1.279 . S
C2418 H2459 0.930 . S
N2419 C2417 1.314 . S
N2419 C2418 1.279 . S
C2420 C2422 1.353 . S
C2420 N2423 1.314 . S
C2420 H2426 0.930 . S
C2421 N2423 1.279 . S
C2421 C2424 1.358 . S
C2421 H2427 0.930 . S
C2422 C2420 1.353 . S
C2422 C2425 1.348 . S
C2422 H2460 0.929 . S
N2423 Li2378 1.990 . S
N2423 C2420 1.314 . S
N2423 C2421 1.279 . S
C2424 C2421 1.358 . S
C2424 C2425 1.356 . S
C2424 H2461 0.930 . S
C2425 C2422 1.348 . S
C2425 C2424 1.356 . S
H2426 C2420 0.930 . S
H2427 C2421 0.930 . S
C2428 N2429 1.314 . S
C2428 C2430 1.353 . S
C2428 H2434 0.930 . S
N2429 Li2379 1.990 . S
N2429 C2428 1.314 . S
N2429 C2432 1.279 . S
C2430 C2428 1.353 . S
C2430 C2433 1.348 . S
C2430 H2462 0.929 . S
C2431 C2432 1.358 . S
C2431 C2433 1.356 . S
C2431 H2463 0.930 . S
C2432 N2429 1.279 . S
C2432 C2431 1.358 . S
C2432 H2435 0.930 . S
C2433 C2430 1.348 . S
C2433 C2431 1.356 . S
H2434 C2428 0.930 . S
H2435 C2432 0.930 . S
O2436 Li2376 1.956 . S
O2436 Li2377 1.970 . S
O2436 Li2378 1.961 . S
O2436 C2380 1.325 . S
O2437 Li2376 1.970 . S
O2437 Li2377 1.956 . S
O2437 Li2379 1.961 . S
O2437 C2386 1.325 . S
O2438 Li2376 1.961 . S
O2438 Li2378 1.956 . S
O2438 Li2379 1.970 . S
O2438 C2408 1.325 . S
O2439 Li2377 1.961 . S
O2439 Li2378 1.970 . S
O2439 Li2379 1.956 . S
O2439 C2414 1.325 . S
H2440 C2382 0.929 . S
H2441 C2383 0.930 . S
H2442 C2384 0.930 . S
H2443 C2385 0.930 . S
H2444 C2387 0.930 . S
H2445 C2389 0.929 . S
H2446 C2390 0.930 . S
H2447 C2391 0.930 . S
H2448 C2394 0.930 . S
H2449 C2397 0.929 . S
H2450 C2402 0.929 . S
H2451 C2403 0.930 . S
H2452 C2410 0.929 . S
H2453 C2411 0.930 . S
H2454 C2412 0.930 . S
H2455 C2413 0.930 . S
H2456 C2415 0.929 . S
H2457 C2416 0.930 . S
H2458 C2417 0.930 . S
H2459 C2418 0.930 . S
H2460 C2422 0.929 . S
H2461 C2424 0.930 . S
H2462 C2430 0.929 . S
H2463 C2431 0.930 . S
Li2464 N2481 1.990 . S
Li2464 O2524 1.956 . S
Li2464 O2525 1.970 . S
Li2464 O2526 1.961 . S
Li2465 N2489 1.990 . S
Li2465 O2524 1.970 . S
Li2465 O2525 1.956 . S
Li2465 O2527 1.961 . S
Li2466 N2511 1.990 . S
Li2466 O2524 1.961 . S
Li2466 O2526 1.956 . S
Li2466 O2527 1.970 . S
Li2467 N2517 1.990 . S
Li2467 O2525 1.961 . S
Li2467 O2526 1.970 . S
Li2467 O2527 1.956 . S
C2468 C2470 1.348 . S
C2468 C2471 1.356 . S
C2468 O2524 1.325 . S
N2469 C2472 1.314 . S
N2469 C2473 1.279 . S
C2470 C2468 1.348 . S
C2470 C2472 1.353 . S
C2470 H2528 0.929 . S
C2471 C2468 1.356 . S
C2471 C2473 1.358 . S
C2471 H2529 0.930 . S
C2472 N2469 1.314 . S
C2472 C2470 1.353 . S
C2472 H2530 0.930 . S
C2473 N2469 1.279 . S
C2473 C2471 1.358 . S
C2473 H2531 0.930 . S
C2474 C2477 1.348 . S
C2474 C2478 1.356 . S
C2474 O2525 1.325 . S
C2475 N2476 1.279 . S
C2475 C2478 1.358 . S
C2475 H2532 0.930 . S
N2476 C2475 1.279 . S
N2476 C2479 1.314 . S
C2477 C2474 1.348 . S
C2477 C2479 1.353 . S
C2477 H2533 0.929 . S
C2478 C2474 1.356 . S
C2478 C2475 1.358 . S
C2478 H2534 0.930 . S
C2479 N2476 1.314 . S
C2479 C2477 1.353 . S
C2479 H2535 0.930 . S
C2480 N2481 1.314 . S
C2480 C2485 1.353 . S
C2480 H2486 0.930 . S
N2481 Li2464 1.990 . S
N2481 C2480 1.314 . S
N2481 C2483 1.279 . S
C2482 C2483 1.358 . S
C2482 C2484 1.356 . S
C2482 H2536 0.930 . S
C2483 N2481 1.279 . S
C2483 C2482 1.358 . S
C2483 H2487 0.930 . S
C2484 C2482 1.356 . S
C2484 C2485 1.348 . S
C2485 C2480 1.353 . S
C2485 C2484 1.348 . S
C2485 H2537 0.929 . S
H2486 C2480 0.930 . S
H2487 C2483 0.930 . S
C2488 N2489 1.314 . S
C2488 C2490 1.353 . S
C2488 H2494 0.930 . S
N2489 Li2465 1.990 . S
N2489 C2488 1.314 . S
N2489 C2492 1.279 . S
C2490 C2488 1.353 . S
C2490 C2493 1.348 . S
C2490 H2538 0.929 . S
C2491 C2492 1.358 . S
C2491 C2493 1.356 . S
C2491 H2539 0.930 . S
C2492 N2489 1.279 . S
C2492 C2491 1.358 . S
C2492 H2495 0.930 . S
C2493 C2490 1.348 . S
C2493 C2491 1.356 . S
H2494 C2488 0.930 . S
H2495 C2492 0.930 . S
C2496 C2498 1.348 . S
C2496 C2499 1.356 . S
C2496 O2526 1.325 . S
N2497 C2500 1.314 . S
N2497 C2501 1.279 . S
C2498 C2496 1.348 . S
C2498 C2500 1.353 . S
C2498 H2540 0.929 . S
C2499 C2496 1.356 . S
C2499 C2501 1.358 . S
C2499 H2541 0.930 . S
C2500 N2497 1.314 . S
C2500 C2498 1.353 . S
C2500 H2542 0.930 . S
C2501 N2497 1.279 . S
C2501 C2499 1.358 . S
C2501 H2543 0.930 . S
C2502 C2503 1.348 . S
C2502 C2504 1.356 . S
C2502 O2527 1.325 . S
C2503 C2502 1.348 . S
C2503 C2505 1.353 . S
C2503 H2544 0.929 . S
C2504 C2502 1.356 . S
C2504 C2506 1.358 . S
C2504 H2545 0.930 . S
C2505 C2503 1.353 . S
C2505 N2507 1.314 . S
C2505 H2546 0.930 . S
C2506 C2504 1.358 . S
C2506 N2507 1.279 . S
C2506 H2547 0.930 . S
N2507 C2505 1.314 . S
N2507 C2506 1.279 . S
C2508 C2510 1.353 . S
C2508 N2511 1.314 . S
C2508 H2514 0.930 . S
C2509 N2511 1.279 . S
C2509 C2512 1.358 . S
C2509 H2515 0.930 . S
C2510 C2508 1.353 . S
C2510 C2513 1.348 . S
C2510 H2548 0.929 . S
N2511 Li2466 1.990 . S
N2511 C2508 1.314 . S
N2511 C2509 1.279 . S
C2512 C2509 1.358 . S
C2512 C2513 1.356 . S
C2512 H2549 0.930 . S
C2513 C2510 1.348 . S
C2513 C2512 1.356 . S
H2514 C2508 0.930 . S
H2515 C2509 0.930 . S
C2516 N2517 1.314 . S
C2516 C2518 1.353 . S
C2516 H2522 0.930 . S
N2517 Li2467 1.990 . S
N2517 C2516 1.314 . S
N2517 C2520 1.279 . S
C2518 C2516 1.353 . S
C2518 C2521 1.348 . S
C2518 H2550 0.929 . S
C2519 C2520 1.358 . S
C2519 C2521 1.356 . S
C2519 H2551 0.930 . S
C2520 N2517 1.279 . S
C2520 C2519 1.358 . S
C2520 H2523 0.930 . S
C2521 C2518 1.348 . S
C2521 C2519 1.356 . S
H2522 C2516 0.930 . S
H2523 C2520 0.930 . S
O2524 Li2464 1.956 . S
O2524 Li2465 1.970 . S
O2524 Li2466 1.961 . S
O2524 C2468 1.325 . S
O2525 Li2464 1.970 . S
O2525 Li2465 1.956 . S
O2525 Li2467 1.961 . S
O2525 C2474 1.325 . S
O2526 Li2464 1.961 . S
O2526 Li2466 1.956 . S
O2526 Li2467 1.970 . S
O2526 C2496 1.325 . S
O2527 Li2465 1.961 . S
O2527 Li2466 1.970 . S
O2527 Li2467 1.956 . S
O2527 C2502 1.325 . S
H2528 C2470 0.929 . S
H2529 C2471 0.930 . S
H2530 C2472 0.930 . S
H2531 C2473 0.930 . S
H2532 C2475 0.930 . S
H2533 C2477 0.929 . S
H2534 C2478 0.930 . S
H2535 C2479 0.930 . S
H2536 C2482 0.930 . S
H2537 C2485 0.929 . S
H2538 C2490 0.929 . S
H2539 C2491 0.930 . S
H2540 C2498 0.929 . S
H2541 C2499 0.930 . S
H2542 C2500 0.930 . S
H2543 C2501 0.930 . S
H2544 C2503 0.929 . S
H2545 C2504 0.930 . S
H2546 C2505 0.930 . S
H2547 C2506 0.930 . S
H2548 C2510 0.929 . S
H2549 C2512 0.930 . S
H2550 C2518 0.929 . S
H2551 C2519 0.930 . S
Li2552 N2569 1.990 . S
Li2552 O2612 1.956 . S
Li2552 O2613 1.970 . S
Li2552 O2614 1.961 . S
Li2553 N2577 1.990 . S
Li2553 O2612 1.970 . S
Li2553 O2613 1.956 . S
Li2553 O2615 1.961 . S
Li2554 N2599 1.990 . S
Li2554 O2612 1.961 . S
Li2554 O2614 1.956 . S
Li2554 O2615 1.970 . S
Li2555 N2605 1.990 . S
Li2555 O2613 1.961 . S
Li2555 O2614 1.970 . S
Li2555 O2615 1.956 . S
C2556 C2558 1.348 . S
C2556 C2559 1.356 . S
C2556 O2612 1.325 . S
N2557 C2560 1.314 . S
N2557 C2561 1.279 . S
C2558 C2556 1.348 . S
C2558 C2560 1.353 . S
C2558 H2616 0.929 . S
C2559 C2556 1.356 . S
C2559 C2561 1.358 . S
C2559 H2617 0.930 . S
C2560 N2557 1.314 . S
C2560 C2558 1.353 . S
C2560 H2618 0.930 . S
C2561 N2557 1.279 . S
C2561 C2559 1.358 . S
C2561 H2619 0.930 . S
C2562 C2565 1.348 . S
C2562 C2566 1.356 . S
C2562 O2613 1.325 . S
C2563 N2564 1.279 . S
C2563 C2566 1.358 . S
C2563 H2620 0.930 . S
N2564 C2563 1.279 . S
N2564 C2567 1.314 . S
C2565 C2562 1.348 . S
C2565 C2567 1.353 . S
C2565 H2621 0.929 . S
C2566 C2562 1.356 . S
C2566 C2563 1.358 . S
C2566 H2622 0.930 . S
C2567 N2564 1.314 . S
C2567 C2565 1.353 . S
C2567 H2623 0.930 . S
C2568 N2569 1.314 . S
C2568 C2573 1.353 . S
C2568 H2574 0.930 . S
N2569 Li2552 1.990 . S
N2569 C2568 1.314 . S
N2569 C2571 1.279 . S
C2570 C2571 1.358 . S
C2570 C2572 1.356 . S
C2570 H2624 0.930 . S
C2571 N2569 1.279 . S
C2571 C2570 1.358 . S
C2571 H2575 0.930 . S
C2572 C2570 1.356 . S
C2572 C2573 1.348 . S
C2573 C2568 1.353 . S
C2573 C2572 1.348 . S
C2573 H2625 0.929 . S
H2574 C2568 0.930 . S
H2575 C2571 0.930 . S
C2576 N2577 1.314 . S
C2576 C2578 1.353 . S
C2576 H2582 0.930 . S
N2577 Li2553 1.990 . S
N2577 C2576 1.314 . S
N2577 C2580 1.279 . S
C2578 C2576 1.353 . S
C2578 C2581 1.348 . S
C2578 H2626 0.929 . S
C2579 C2580 1.358 . S
C2579 C2581 1.356 . S
C2579 H2627 0.930 . S
C2580 N2577 1.279 . S
C2580 C2579 1.358 . S
C2580 H2583 0.930 . S
C2581 C2578 1.348 . S
C2581 C2579 1.356 . S
H2582 C2576 0.930 . S
H2583 C2580 0.930 . S
C2584 C2586 1.348 . S
C2584 C2587 1.356 . S
C2584 O2614 1.325 . S
N2585 C2588 1.314 . S
N2585 C2589 1.279 . S
C2586 C2584 1.348 . S
C2586 C2588 1.353 . S
C2586 H2628 0.929 . S
C2587 C2584 1.356 . S
C2587 C2589 1.358 . S
C2587 H2629 0.930 . S
C2588 N2585 1.314 . S
C2588 C2586 1.353 . S
C2588 H2630 0.930 . S
C2589 N2585 1.279 . S
C2589 C2587 1.358 . S
C2589 H2631 0.930 . S
C2590 C2591 1.348 . S
C2590 C2592 1.356 . S
C2590 O2615 1.325 . S
C2591 C2590 1.348 . S
C2591 C2593 1.353 . S
C2591 H2632 0.929 . S
C2592 C2590 1.356 . S
C2592 C2594 1.358 . S
C2592 H2633 0.930 . S
C2593 C2591 1.353 . S
C2593 N2595 1.314 . S
C2593 H2634 0.930 . S
C2594 C2592 1.358 . S
C2594 N2595 1.279 . S
C2594 H2635 0.930 . S
N2595 C2593 1.314 . S
N2595 C2594 1.279 . S
C2596 C2598 1.353 . S
C2596 N2599 1.314 . S
C2596 H2602 0.930 . S
C2597 N2599 1.279 . S
C2597 C2600 1.358 . S
C2597 H2603 0.930 . S
C2598 C2596 1.353 . S
C2598 C2601 1.348 . S
C2598 H2636 0.929 . S
N2599 Li2554 1.990 . S
N2599 C2596 1.314 . S
N2599 C2597 1.279 . S
C2600 C2597 1.358 . S
C2600 C2601 1.356 . S
C2600 H2637 0.930 . S
C2601 C2598 1.348 . S
C2601 C2600 1.356 . S
H2602 C2596 0.930 . S
H2603 C2597 0.930 . S
C2604 N2605 1.314 . S
C2604 C2606 1.353 . S
C2604 H2610 0.930 . S
N2605 Li2555 1.990 . S
N2605 C2604 1.314 . S
N2605 C2608 1.279 . S
C2606 C2604 1.353 . S
C2606 C2609 1.348 . S
C2606 H2638 0.929 . S
C2607 C2608 1.358 . S
C2607 C2609 1.356 . S
C2607 H2639 0.930 . S
C2608 N2605 1.279 . S
C2608 C2607 1.358 . S
C2608 H2611 0.930 . S
C2609 C2606 1.348 . S
C2609 C2607 1.356 . S
H2610 C2604 0.930 . S
H2611 C2608 0.930 . S
O2612 Li2552 1.956 . S
O2612 Li2553 1.970 . S
O2612 Li2554 1.961 . S
O2612 C2556 1.325 . S
O2613 Li2552 1.970 . S
O2613 Li2553 1.956 . S
O2613 Li2555 1.961 . S
O2613 C2562 1.325 . S
O2614 Li2552 1.961 . S
O2614 Li2554 1.956 . S
O2614 Li2555 1.970 . S
O2614 C2584 1.325 . S
O2615 Li2553 1.961 . S
O2615 Li2554 1.970 . S
O2615 Li2555 1.956 . S
O2615 C2590 1.325 . S
H2616 C2558 0.929 . S
H2617 C2559 0.930 . S
H2618 C2560 0.930 . S
H2619 C2561 0.930 . S
H2620 C2563 0.930 . S
H2621 C2565 0.929 . S
H2622 C2566 0.930 . S
H2623 C2567 0.930 . S
H2624 C2570 0.930 . S
H2625 C2573 0.929 . S
H2626 C2578 0.929 . S
H2627 C2579 0.930 . S
H2628 C2586 0.929 . S
H2629 C2587 0.930 . S
H2630 C2588 0.930 . S
H2631 C2589 0.930 . S
H2632 C2591 0.929 . S
H2633 C2592 0.930 . S
H2634 C2593 0.930 . S
H2635 C2594 0.930 . S
H2636 C2598 0.929 . S
H2637 C2600 0.930 . S
H2638 C2606 0.929 . S
H2639 C2607 0.930 . S
Li2640 N2657 1.990 . S
Li2640 O2700 1.956 . S
Li2640 O2701 1.970 . S
Li2640 O2702 1.961 . S
Li2641 N2665 1.990 . S
Li2641 O2700 1.970 . S
Li2641 O2701 1.956 . S
Li2641 O2703 1.961 . S
Li2642 N2687 1.990 . S
Li2642 O2700 1.961 . S
Li2642 O2702 1.956 . S
Li2642 O2703 1.970 . S
Li2643 N2693 1.990 . S
Li2643 O2701 1.961 . S
Li2643 O2702 1.970 . S
Li2643 O2703 1.956 . S
C2644 C2646 1.348 . S
C2644 C2647 1.356 . S
C2644 O2700 1.325 . S
N2645 C2648 1.314 . S
N2645 C2649 1.279 . S
C2646 C2644 1.348 . S
C2646 C2648 1.353 . S
C2646 H2704 0.929 . S
C2647 C2644 1.356 . S
C2647 C2649 1.358 . S
C2647 H2705 0.930 . S
C2648 N2645 1.314 . S
C2648 C2646 1.353 . S
C2648 H2706 0.930 . S
C2649 N2645 1.279 . S
C2649 C2647 1.358 . S
C2649 H2707 0.930 1_554 S
C2650 C2653 1.348 . S
C2650 C2654 1.356 . S
C2650 O2701 1.325 . S
C2651 N2652 1.279 . S
C2651 C2654 1.358 . S
C2651 H2708 0.930 . S
N2652 C2651 1.279 . S
N2652 C2655 1.314 . S
C2653 C2650 1.348 . S
C2653 C2655 1.353 . S
C2653 H2709 0.929 . S
C2654 C2650 1.356 . S
C2654 C2651 1.358 . S
C2654 H2710 0.930 . S
C2655 N2652 1.314 . S
C2655 C2653 1.353 . S
C2655 H2711 0.930 . S
C2656 N2657 1.314 . S
C2656 C2661 1.353 . S
C2656 H2662 0.930 . S
N2657 Li2640 1.990 . S
N2657 C2656 1.314 . S
N2657 C2659 1.279 . S
C2658 C2659 1.358 . S
C2658 C2660 1.356 . S
C2658 H2712 0.930 . S
C2659 N2657 1.279 . S
C2659 C2658 1.358 . S
C2659 H2663 0.930 . S
C2660 C2658 1.356 . S
C2660 C2661 1.348 . S
C2661 C2656 1.353 . S
C2661 C2660 1.348 . S
C2661 H2713 0.929 . S
H2662 C2656 0.930 . S
H2663 C2659 0.930 . S
C2664 N2665 1.314 . S
C2664 C2666 1.353 . S
C2664 H2670 0.930 . S
N2665 Li2641 1.990 . S
N2665 C2664 1.314 . S
N2665 C2668 1.279 . S
C2666 C2664 1.353 . S
C2666 C2669 1.348 . S
C2666 H2714 0.929 . S
C2667 C2668 1.358 . S
C2667 C2669 1.356 . S
C2667 H2715 0.930 . S
C2668 N2665 1.279 . S
C2668 C2667 1.358 . S
C2668 H2671 0.930 . S
C2669 C2666 1.348 . S
C2669 C2667 1.356 . S
H2670 C2664 0.930 . S
H2671 C2668 0.930 . S
C2672 C2674 1.348 . S
C2672 C2675 1.356 . S
C2672 O2702 1.325 . S
N2673 C2676 1.314 . S
N2673 C2677 1.279 . S
C2674 C2672 1.348 . S
C2674 C2676 1.353 . S
C2674 H2716 0.929 . S
C2675 C2672 1.356 . S
C2675 C2677 1.358 . S
C2675 H2717 0.930 . S
C2676 N2673 1.314 . S
C2676 C2674 1.353 . S
C2676 H2718 0.930 . S
C2677 N2673 1.279 . S
C2677 C2675 1.358 . S
C2677 H2719 0.930 . S
C2678 C2679 1.348 . S
C2678 C2680 1.356 . S
C2678 O2703 1.325 . S
C2679 C2678 1.348 . S
C2679 C2681 1.353 . S
C2679 H2720 0.929 . S
C2680 C2678 1.356 . S
C2680 C2682 1.358 . S
C2680 H2721 0.930 . S
C2681 C2679 1.353 . S
C2681 N2683 1.314 . S
C2681 H2722 0.930 . S
C2682 C2680 1.358 . S
C2682 N2683 1.279 . S
C2682 H2723 0.930 . S
N2683 C2681 1.314 . S
N2683 C2682 1.279 . S
C2684 C2686 1.353 1_554 S
C2684 N2687 1.314 . S
C2684 H2690 0.930 . S
C2685 N2687 1.279 . S
C2685 C2688 1.358 . S
C2685 H2691 0.930 . S
C2686 C2684 1.353 1_556 S
C2686 C2689 1.348 . S
C2686 H2724 0.929 . S
N2687 Li2642 1.990 . S
N2687 C2684 1.314 . S
N2687 C2685 1.279 . S
C2688 C2685 1.358 . S
C2688 C2689 1.356 1_554 S
C2688 H2725 0.930 . S
C2689 C2686 1.348 . S
C2689 C2688 1.356 1_556 S
H2690 C2684 0.930 . S
H2691 C2685 0.930 . S
C2692 N2693 1.314 . S
C2692 C2694 1.353 . S
C2692 H2698 0.930 . S
N2693 Li2643 1.990 . S
N2693 C2692 1.314 . S
N2693 C2696 1.279 . S
C2694 C2692 1.353 . S
C2694 C2697 1.348 . S
C2694 H2726 0.929 . S
C2695 C2696 1.358 . S
C2695 C2697 1.356 . S
C2695 H2727 0.930 . S
C2696 N2693 1.279 . S
C2696 C2695 1.358 . S
C2696 H2699 0.930 . S
C2697 C2694 1.348 . S
C2697 C2695 1.356 . S
H2698 C2692 0.930 . S
H2699 C2696 0.930 . S
O2700 Li2640 1.956 . S
O2700 Li2641 1.970 . S
O2700 Li2642 1.961 . S
O2700 C2644 1.325 . S
O2701 Li2640 1.970 . S
O2701 Li2641 1.956 . S
O2701 Li2643 1.961 . S
O2701 C2650 1.325 . S
O2702 Li2640 1.961 . S
O2702 Li2642 1.956 . S
O2702 Li2643 1.970 . S
O2702 C2672 1.325 . S
O2703 Li2641 1.961 . S
O2703 Li2642 1.970 . S
O2703 Li2643 1.956 . S
O2703 C2678 1.325 . S
H2704 C2646 0.929 . S
H2705 C2647 0.930 . S
H2706 C2648 0.930 . S
H2707 C2649 0.930 1_556 S
H2708 C2651 0.930 . S
H2709 C2653 0.929 . S
H2710 C2654 0.930 . S
H2711 C2655 0.930 . S
H2712 C2658 0.930 . S
H2713 C2661 0.929 . S
H2714 C2666 0.929 . S
H2715 C2667 0.930 . S
H2716 C2674 0.929 . S
H2717 C2675 0.930 . S
H2718 C2676 0.930 . S
H2719 C2677 0.930 . S
H2720 C2679 0.929 . S
H2721 C2680 0.930 . S
H2722 C2681 0.930 . S
H2723 C2682 0.930 . S
H2724 C2686 0.929 . S
H2725 C2688 0.930 . S
H2726 C2694 0.929 . S
H2727 C2695 0.930 . S
Li2728 N2745 1.990 . S
Li2728 O2788 1.956 . S
Li2728 O2789 1.970 . S
Li2728 O2790 1.961 . S
Li2729 N2753 1.990 . S
Li2729 O2788 1.970 . S
Li2729 O2789 1.956 . S
Li2729 O2791 1.961 . S
Li2730 N2775 1.990 . S
Li2730 O2788 1.961 . S
Li2730 O2790 1.956 . S
Li2730 O2791 1.970 . S
Li2731 N2781 1.990 . S
Li2731 O2789 1.961 . S
Li2731 O2790 1.970 . S
Li2731 O2791 1.956 . S
C2732 C2734 1.348 . S
C2732 C2735 1.356 . S
C2732 O2788 1.325 . S
N2733 C2736 1.314 . S
N2733 C2737 1.279 . S
C2734 C2732 1.348 . S
C2734 C2736 1.353 . S
C2734 H2792 0.929 . S
C2735 C2732 1.356 . S
C2735 C2737 1.358 . S
C2735 H2793 0.930 . S
C2736 N2733 1.314 . S
C2736 C2734 1.353 . S
C2736 H2794 0.930 . S
C2737 N2733 1.279 . S
C2737 C2735 1.358 . S
C2737 H2795 0.930 . S
C2738 C2741 1.348 . S
C2738 C2742 1.356 1_556 S
C2738 O2789 1.325 . S
C2739 N2740 1.279 . S
C2739 C2742 1.358 . S
C2739 H2796 0.930 . S
N2740 C2739 1.279 . S
N2740 C2743 1.314 . S
C2741 C2738 1.348 . S
C2741 C2743 1.353 1_556 S
C2741 H2797 0.929 . S
C2742 C2738 1.356 1_554 S
C2742 C2739 1.358 . S
C2742 H2798 0.930 . S
C2743 N2740 1.314 . S
C2743 C2741 1.353 1_554 S
C2743 H2799 0.930 . S
C2744 N2745 1.314 . S
C2744 C2749 1.353 . S
C2744 H2750 0.930 . S
N2745 Li2728 1.990 . S
N2745 C2744 1.314 . S
N2745 C2747 1.279 . S
C2746 C2747 1.358 . S
C2746 C2748 1.356 . S
C2746 H2800 0.930 . S
C2747 N2745 1.279 . S
C2747 C2746 1.358 . S
C2747 H2751 0.930 . S
C2748 C2746 1.356 . S
C2748 C2749 1.348 . S
C2749 C2744 1.353 . S
C2749 C2748 1.348 . S
C2749 H2801 0.929 . S
H2750 C2744 0.930 . S
H2751 C2747 0.930 . S
C2752 N2753 1.314 . S
C2752 C2754 1.353 . S
C2752 H2758 0.930 . S
N2753 Li2729 1.990 . S
N2753 C2752 1.314 . S
N2753 C2756 1.279 . S
C2754 C2752 1.353 . S
C2754 C2757 1.348 . S
C2754 H2802 0.929 . S
C2755 C2756 1.358 . S
C2755 C2757 1.356 . S
C2755 H2803 0.930 . S
C2756 N2753 1.279 . S
C2756 C2755 1.358 . S
C2756 H2759 0.930 . S
C2757 C2754 1.348 . S
C2757 C2755 1.356 . S
H2758 C2752 0.930 . S
H2759 C2756 0.930 . S
C2760 C2762 1.348 . S
C2760 C2763 1.356 . S
C2760 O2790 1.325 . S
N2761 C2764 1.314 . S
N2761 C2765 1.279 . S
C2762 C2760 1.348 . S
C2762 C2764 1.353 . S
C2762 H2804 0.929 . S
C2763 C2760 1.356 . S
C2763 C2765 1.358 . S
C2763 H2805 0.930 . S
C2764 N2761 1.314 . S
C2764 C2762 1.353 . S
C2764 H2806 0.930 . S
C2765 N2761 1.279 . S
C2765 C2763 1.358 . S
C2765 H2807 0.930 . S
C2766 C2767 1.348 . S
C2766 C2768 1.356 . S
C2766 O2791 1.325 . S
C2767 C2766 1.348 . S
C2767 C2769 1.353 . S
C2767 H2808 0.929 . S
C2768 C2766 1.356 . S
C2768 C2770 1.358 . S
C2768 H2809 0.930 . S
C2769 C2767 1.353 . S
C2769 N2771 1.314 . S
C2769 H2810 0.930 . S
C2770 C2768 1.358 . S
C2770 N2771 1.279 . S
C2770 H2811 0.930 . S
N2771 C2769 1.314 . S
N2771 C2770 1.279 . S
C2772 C2774 1.353 . S
C2772 N2775 1.314 . S
C2772 H2778 0.930 . S
C2773 N2775 1.279 . S
C2773 C2776 1.358 . S
C2773 H2779 0.930 . S
C2774 C2772 1.353 . S
C2774 C2777 1.348 . S
C2774 H2812 0.929 . S
N2775 Li2730 1.990 . S
N2775 C2772 1.314 . S
N2775 C2773 1.279 . S
C2776 C2773 1.358 . S
C2776 C2777 1.356 . S
C2776 H2813 0.930 . S
C2777 C2774 1.348 . S
C2777 C2776 1.356 . S
H2778 C2772 0.930 . S
H2779 C2773 0.930 . S
C2780 N2781 1.314 1_554 S
C2780 C2782 1.353 . S
C2780 H2786 0.930 . S
N2781 Li2731 1.990 . S
N2781 C2780 1.314 1_556 S
N2781 C2784 1.279 . S
C2782 C2780 1.353 . S
C2782 C2785 1.348 . S
C2782 H2814 0.929 . S
C2783 C2784 1.358 1_554 S
C2783 C2785 1.356 . S
C2783 H2815 0.930 . S
C2784 N2781 1.279 . S
C2784 C2783 1.358 1_556 S
C2784 H2787 0.930 . S
C2785 C2782 1.348 . S
C2785 C2783 1.356 . S
H2786 C2780 0.930 . S
H2787 C2784 0.930 . S
O2788 Li2728 1.956 . S
O2788 Li2729 1.970 . S
O2788 Li2730 1.961 . S
O2788 C2732 1.325 . S
O2789 Li2728 1.970 . S
O2789 Li2729 1.956 . S
O2789 Li2731 1.961 . S
O2789 C2738 1.325 . S
O2790 Li2728 1.961 . S
O2790 Li2730 1.956 . S
O2790 Li2731 1.970 . S
O2790 C2760 1.325 . S
O2791 Li2729 1.961 . S
O2791 Li2730 1.970 . S
O2791 Li2731 1.956 . S
O2791 C2766 1.325 . S
H2792 C2734 0.929 . S
H2793 C2735 0.930 . S
H2794 C2736 0.930 . S
H2795 C2737 0.930 . S
H2796 C2739 0.930 . S
H2797 C2741 0.929 . S
H2798 C2742 0.930 . S
H2799 C2743 0.930 . S
H2800 C2746 0.930 . S
H2801 C2749 0.929 . S
H2802 C2754 0.929 . S
H2803 C2755 0.930 . S
H2804 C2762 0.929 . S
H2805 C2763 0.930 . S
H2806 C2764 0.930 . S
H2807 C2765 0.930 . S
H2808 C2767 0.929 . S
H2809 C2768 0.930 . S
H2810 C2769 0.930 . S
H2811 C2770 0.930 . S
H2812 C2774 0.929 . S
H2813 C2776 0.930 . S
H2814 C2782 0.929 . S
H2815 C2783 0.930 . S
H2816 C2822 0.930 . S
H2817 C2825 0.930 . S
H2818 C2826 0.930 . S
H2819 C2827 0.930 . S
H2820 C2830 0.930 . S
H2821 C2831 0.930 . S
C2822 H2816 0.930 . S
C2822 C2823 1.355 . S
C2822 C2824 1.415 . S
C2823 C2822 1.355 . S
C2823 C2825 1.419 . S
C2824 C2822 1.415 . S
C2824 C2829 1.425 . S
C2824 C2831 1.409 . S
C2825 H2817 0.930 . S
C2825 C2823 1.419 . S
C2825 C2826 1.362 . S
C2826 H2818 0.930 . S
C2826 C2825 1.362 . S
C2826 C2829 1.409 . S
C2827 H2819 0.930 . S
C2827 C2828 1.355 . S
C2827 C2829 1.415 . S
C2828 C2827 1.355 . S
C2828 C2830 1.419 . S
C2829 C2824 1.425 . S
C2829 C2826 1.409 . S
C2829 C2827 1.415 . S
C2830 H2820 0.930 . S
C2830 C2828 1.419 . S
C2830 C2831 1.362 . S
C2831 H2821 0.930 . S
C2831 C2824 1.409 . S
C2831 C2830 1.362 . S
H2832 C2838 0.930 . S
H2833 C2841 0.930 . S
H2834 C2842 0.930 . S
H2835 C2843 0.930 . S
H2836 C2846 0.930 . S
H2837 C2847 0.930 . S
C2838 H2832 0.930 . S
C2838 C2839 1.355 . S
C2838 C2840 1.415 . S
C2839 C2838 1.355 . S
C2839 C2841 1.419 . S
C2840 C2838 1.415 . S
C2840 C2845 1.425 1_565 S
C2840 C2847 1.409 . S
C2841 H2833 0.930 . S
C2841 C2839 1.419 . S
C2841 C2842 1.362 1_565 S
C2842 H2834 0.930 . S
C2842 C2841 1.362 1_545 S
C2842 C2845 1.409 . S
C2843 H2835 0.930 . S
C2843 C2844 1.355 . S
C2843 C2845 1.415 . S
C2844 C2843 1.355 . S
C2844 C2846 1.419 . S
C2845 C2840 1.425 1_545 S
C2845 C2842 1.409 . S
C2845 C2843 1.415 . S
C2846 H2836 0.930 . S
C2846 C2844 1.419 . S
C2846 C2847 1.362 1_545 S
C2847 H2837 0.930 . S
C2847 C2840 1.409 . S
C2847 C2846 1.362 1_565 S
H2848 C2854 0.930 . S
H2849 C2857 0.930 . S
H2850 C2858 0.930 . S
H2851 C2859 0.930 . S
H2852 C2862 0.930 . S
H2853 C2863 0.930 . S
C2854 H2848 0.930 . S
C2854 C2855 1.355 . S
C2854 C2856 1.415 . S
C2855 C2854 1.355 . S
C2855 C2857 1.419 . S
C2856 C2854 1.415 . S
C2856 C2861 1.425 . S
C2856 C2863 1.409 . S
C2857 H2849 0.930 . S
C2857 C2855 1.419 . S
C2857 C2858 1.362 . S
C2858 H2850 0.930 . S
C2858 C2857 1.362 . S
C2858 C2861 1.409 . S
C2859 H2851 0.930 . S
C2859 C2860 1.355 . S
C2859 C2861 1.415 . S
C2860 C2859 1.355 . S
C2860 C2862 1.419 . S
C2861 C2856 1.425 . S
C2861 C2858 1.409 . S
C2861 C2859 1.415 . S
C2862 H2852 0.930 . S
C2862 C2860 1.419 . S
C2862 C2863 1.362 . S
C2863 H2853 0.930 . S
C2863 C2856 1.409 . S
C2863 C2862 1.362 . S
H2864 C2870 0.930 . S
H2865 C2873 0.930 . S
H2866 C2874 0.930 . S
H2867 C2875 0.930 . S
H2868 C2878 0.930 . S
H2869 C2879 0.930 . S
C2870 H2864 0.930 . S
C2870 C2871 1.355 . S
C2870 C2872 1.391 1_545 S
C2871 C2870 1.355 . S
C2871 C2873 1.419 . S
C2872 C2870 1.391 1_565 S
C2872 C2877 1.423 1_566 S
C2872 C2879 1.435 . S
C2873 H2865 0.930 . S
C2873 C2871 1.419 . S
C2873 C2874 1.362 1_556 S
C2874 H2866 0.930 . S
C2874 C2873 1.362 1_554 S
C2874 C2877 1.435 . S
C2875 H2867 0.930 . S
C2875 C2876 1.355 . S
C2875 C2877 1.391 1_565 S
C2876 C2875 1.355 . S
C2876 C2878 1.419 . S
C2877 C2872 1.423 1_544 S
C2877 C2874 1.435 . S
C2877 C2875 1.391 1_545 S
C2878 H2868 0.930 . S
C2878 C2876 1.419 . S
C2878 C2879 1.362 1_554 S
C2879 H2869 0.930 . S
C2879 C2872 1.435 . S
C2879 C2878 1.362 1_556 S
H2880 C2886 0.930 . S
H2881 C2889 0.930 . S
H2882 C2890 0.930 . S
H2883 C2891 0.930 . S
H2884 C2894 0.930 . S
H2885 C2895 0.930 . S
C2886 H2880 0.930 . S
C2886 C2887 1.355 . S
C2886 C2888 1.415 . S
C2887 C2886 1.355 . S
C2887 C2889 1.419 . S
C2888 C2886 1.415 . S
C2888 C2893 1.425 . S
C2888 C2895 1.409 . S
C2889 H2881 0.930 . S
C2889 C2887 1.419 . S
C2889 C2890 1.362 . S
C2890 H2882 0.930 . S
C2890 C2889 1.362 . S
C2890 C2893 1.409 . S
C2891 H2883 0.930 . S
C2891 C2892 1.355 . S
C2891 C2893 1.415 . S
C2892 C2891 1.355 . S
C2892 C2894 1.419 . S
C2893 C2888 1.425 . S
C2893 C2890 1.409 . S
C2893 C2891 1.415 . S
C2894 H2884 0.930 . S
C2894 C2892 1.419 . S
C2894 C2895 1.362 . S
C2895 H2885 0.930 . S
C2895 C2888 1.409 . S
C2895 C2894 1.362 . S
H2896 C2902 0.930 . S
H2897 C2905 0.930 . S
H2898 C2906 0.930 . S
H2899 C2907 0.930 . S
H2900 C2910 0.930 . S
H2901 C2911 0.930 . S
C2902 H2896 0.930 . S
C2902 C2903 1.355 . S
C2902 C2904 1.415 . S
C2903 C2902 1.355 . S
C2903 C2905 1.419 . S
C2904 C2902 1.415 . S
C2904 C2909 1.425 1_565 S
C2904 C2911 1.409 . S
C2905 H2897 0.930 . S
C2905 C2903 1.419 . S
C2905 C2906 1.362 1_565 S
C2906 H2898 0.930 . S
C2906 C2905 1.362 1_545 S
C2906 C2909 1.409 . S
C2907 H2899 0.930 . S
C2907 C2908 1.355 . S
C2907 C2909 1.415 . S
C2908 C2907 1.355 . S
C2908 C2910 1.419 . S
C2909 C2904 1.425 1_545 S
C2909 C2906 1.409 . S
C2909 C2907 1.415 . S
C2910 H2900 0.930 . S
C2910 C2908 1.419 . S
C2910 C2911 1.362 1_545 S
C2911 H2901 0.930 . S
C2911 C2904 1.409 . S
C2911 C2910 1.362 1_565 S
H2912 C2918 0.930 . S
H2913 C2921 0.930 . S
H2914 C2922 0.930 . S
H2915 C2923 0.930 . S
H2916 C2926 0.930 . S
H2917 C2927 0.930 . S
C2918 H2912 0.930 . S
C2918 C2919 1.355 . S
C2918 C2920 1.415 . S
C2919 C2918 1.355 . S
C2919 C2921 1.419 . S
C2920 C2918 1.415 . S
C2920 C2925 1.425 . S
C2920 C2927 1.409 . S
C2921 H2913 0.930 . S
C2921 C2919 1.419 . S
C2921 C2922 1.362 . S
C2922 H2914 0.930 . S
C2922 C2921 1.362 . S
C2922 C2925 1.409 . S
C2923 H2915 0.930 . S
C2923 C2924 1.355 . S
C2923 C2925 1.415 . S
C2924 C2923 1.355 . S
C2924 C2926 1.419 . S
C2925 C2920 1.425 . S
C2925 C2922 1.409 . S
C2925 C2923 1.415 . S
C2926 H2916 0.930 . S
C2926 C2924 1.419 . S
C2926 C2927 1.362 . S
C2927 H2917 0.930 . S
C2927 C2920 1.409 . S
C2927 C2926 1.362 . S
H2928 C2934 0.930 . S
H2929 C2937 0.930 . S
H2930 C2938 0.929 . S
H2931 C2939 0.930 . S
H2932 C2942 0.930 . S
H2933 C2943 0.929 . S
C2934 H2928 0.930 . S
C2934 C2935 1.355 . S
C2934 C2936 1.457 . S
C2935 C2934 1.355 . S
C2935 C2937 1.419 . S
C2936 C2934 1.457 . S
C2936 C2941 1.419 1_546 S
C2936 C2943 1.372 1_545 S
C2937 H2929 0.930 . S
C2937 C2935 1.419 . S
C2937 C2938 1.364 1_556 S
C2938 H2930 0.929 . S
C2938 C2937 1.364 1_554 S
C2938 C2941 1.372 1_545 S
C2939 H2931 0.930 . S
C2939 C2940 1.355 . S
C2939 C2941 1.457 . S
C2940 C2939 1.355 . S
C2940 C2942 1.419 . S
C2941 C2936 1.419 1_564 S
C2941 C2938 1.372 1_565 S
C2941 C2939 1.457 . S
C2942 H2932 0.930 . S
C2942 C2940 1.419 . S
C2942 C2943 1.364 1_554 S
C2943 H2933 0.929 . S
C2943 C2936 1.372 1_565 S
C2943 C2942 1.364 1_556 S
H2944 C2950 0.930 . S
H2945 C2953 0.930 . S
H2946 C2954 0.930 . S
H2947 C2955 0.930 . S
H2948 C2958 0.930 . S
H2949 C2959 0.930 . S
C2950 H2944 0.930 . S
C2950 C2951 1.355 . S
C2950 C2952 1.415 . S
C2951 C2950 1.355 . S
C2951 C2953 1.419 . S
C2952 C2950 1.415 . S
C2952 C2957 1.425 . S
C2952 C2959 1.409 . S
C2953 H2945 0.930 . S
C2953 C2951 1.419 . S
C2953 C2954 1.362 . S
C2954 H2946 0.930 . S
C2954 C2953 1.362 . S
C2954 C2957 1.409 . S
C2955 H2947 0.930 . S
C2955 C2956 1.355 . S
C2955 C2957 1.415 . S
C2956 C2955 1.355 . S
C2956 C2958 1.419 . S
C2957 C2952 1.425 . S
C2957 C2954 1.409 . S
C2957 C2955 1.415 . S
C2958 H2948 0.930 . S
C2958 C2956 1.419 . S
C2958 C2959 1.362 . S
C2959 H2949 0.930 . S
C2959 C2952 1.409 . S
C2959 C2958 1.362 . S
H2960 C2966 0.930 . S
H2961 C2969 0.930 . S
H2962 C2970 0.930 . S
H2963 C2971 0.930 . S
H2964 C2974 0.930 . S
H2965 C2975 0.930 . S
C2966 H2960 0.930 . S
C2966 C2967 1.355 . S
C2966 C2968 1.415 . S
C2967 C2966 1.355 . S
C2967 C2969 1.419 . S
C2968 C2966 1.415 . S
C2968 C2973 1.425 1_556 S
C2968 C2975 1.409 . S
C2969 H2961 0.930 . S
C2969 C2967 1.419 . S
C2969 C2970 1.362 1_556 S
C2970 H2962 0.930 . S
C2970 C2969 1.362 1_554 S
C2970 C2973 1.409 . S
C2971 H2963 0.930 . S
C2971 C2972 1.355 . S
C2971 C2973 1.415 . S
C2972 C2971 1.355 . S
C2972 C2974 1.419 . S
C2973 C2968 1.425 1_554 S
C2973 C2970 1.409 . S
C2973 C2971 1.415 . S
C2974 H2964 0.930 . S
C2974 C2972 1.419 . S
C2974 C2975 1.362 1_554 S
C2975 H2965 0.930 . S
C2975 C2968 1.409 . S
C2975 C2974 1.362 1_556 S
H2976 C2982 0.930 . S
H2977 C2985 0.930 . S
H2978 C2986 0.930 . S
H2979 C2987 0.930 . S
H2980 C2990 0.930 . S
H2981 C2991 0.930 . S
C2982 H2976 0.930 . S
C2982 C2983 1.355 . S
C2982 C2984 1.415 . S
C2983 C2982 1.355 . S
C2983 C2985 1.419 . S
C2984 C2982 1.415 . S
C2984 C2989 1.425 . S
C2984 C2991 1.409 . S
C2985 H2977 0.930 . S
C2985 C2983 1.419 . S
C2985 C2986 1.362 . S
C2986 H2978 0.930 . S
C2986 C2985 1.362 . S
C2986 C2989 1.409 . S
C2987 H2979 0.930 . S
C2987 C2988 1.355 . S
C2987 C2989 1.415 . S
C2988 C2987 1.355 . S
C2988 C2990 1.419 . S
C2989 C2984 1.425 . S
C2989 C2986 1.409 . S
C2989 C2987 1.415 . S
C2990 H2980 0.930 . S
C2990 C2988 1.419 . S
C2990 C2991 1.362 . S
C2991 H2981 0.930 . S
C2991 C2984 1.409 . S
C2991 C2990 1.362 . S
H2992 C2998 0.930 . S
H2993 C3001 0.930 . S
H2994 C3002 0.930 . S
H2995 C3003 0.930 . S
H2996 C3006 0.930 . S
H2997 C3007 0.930 . S
C2998 H2992 0.930 . S
C2998 C2999 1.355 . S
C2998 C3000 1.415 . S
C2999 C2998 1.355 . S
C2999 C3001 1.419 . S
C3000 C2998 1.415 . S
C3000 C3005 1.425 . S
C3000 C3007 1.409 . S
C3001 H2993 0.930 . S
C3001 C2999 1.419 . S
C3001 C3002 1.362 . S
C3002 H2994 0.930 . S
C3002 C3001 1.362 . S
C3002 C3005 1.409 . S
C3003 H2995 0.930 . S
C3003 C3004 1.355 . S
C3003 C3005 1.415 . S
C3004 C3003 1.355 . S
C3004 C3006 1.419 . S
C3005 C3000 1.425 . S
C3005 C3002 1.409 . S
C3005 C3003 1.415 . S
C3006 H2996 0.930 . S
C3006 C3004 1.419 . S
C3006 C3007 1.362 . S
C3007 H2997 0.930 . S
C3007 C3000 1.409 . S
C3007 C3006 1.362 . S
H3008 C3014 0.930 . S
H3009 C3017 0.930 . S
H3010 C3018 0.930 . S
H3011 C3019 0.930 . S
H3012 C3022 0.930 . S
H3013 C3023 0.930 . S
C3014 H3008 0.930 . S
C3014 C3015 1.355 . S
C3014 C3016 1.415 . S
C3015 C3014 1.355 . S
C3015 C3017 1.419 . S
C3016 C3014 1.415 . S
C3016 C3021 1.425 . S
C3016 C3023 1.409 . S
C3017 H3009 0.930 . S
C3017 C3015 1.419 . S
C3017 C3018 1.362 . S
C3018 H3010 0.930 . S
C3018 C3017 1.362 . S
C3018 C3021 1.409 . S
C3019 H3011 0.930 . S
C3019 C3020 1.355 . S
C3019 C3021 1.415 . S
C3020 C3019 1.355 . S
C3020 C3022 1.419 . S
C3021 C3016 1.425 . S
C3021 C3018 1.409 . S
C3021 C3019 1.415 . S
C3022 H3012 0.930 . S
C3022 C3020 1.419 . S
C3022 C3023 1.362 . S
C3023 H3013 0.930 . S
C3023 C3016 1.409 . S
C3023 C3022 1.362 . S
H3024 C3030 0.930 . S
H3025 C3033 0.930 . S
H3026 C3034 0.930 . S
H3027 C3035 0.930 . S
H3028 C3038 0.930 . S
H3029 C3039 0.930 . S
C3030 H3024 0.930 . S
C3030 C3031 1.355 . S
C3030 C3032 1.415 . S
C3031 C3030 1.355 . S
C3031 C3033 1.419 . S
C3032 C3030 1.415 . S
C3032 C3037 1.425 1_554 S
C3032 C3039 1.409 . S
C3033 H3025 0.930 . S
C3033 C3031 1.419 . S
C3033 C3034 1.362 1_554 S
C3034 H3026 0.930 . S
C3034 C3033 1.362 1_556 S
C3034 C3037 1.409 . S
C3035 H3027 0.930 . S
C3035 C3036 1.355 . S
C3035 C3037 1.415 . S
C3036 C3035 1.355 . S
C3036 C3038 1.419 . S
C3037 C3032 1.425 1_556 S
C3037 C3034 1.409 . S
C3037 C3035 1.415 . S
C3038 H3028 0.930 . S
C3038 C3036 1.419 . S
C3038 C3039 1.362 1_556 S
C3039 H3029 0.930 . S
C3039 C3032 1.409 . S
C3039 C3038 1.362 1_554 S
H3040 C3046 0.930 . S
H3041 C3049 0.930 . S
H3042 C3050 0.930 . S
H3043 C3051 0.930 . S
H3044 C3054 0.930 . S
H3045 C3055 0.930 . S
C3046 H3040 0.930 . S
C3046 C3047 1.355 . S
C3046 C3048 1.415 . S
C3047 C3046 1.355 . S
C3047 C3049 1.419 . S
C3048 C3046 1.415 . S
C3048 C3053 1.425 . S
C3048 C3055 1.409 . S
C3049 H3041 0.930 . S
C3049 C3047 1.419 . S
C3049 C3050 1.362 . S
C3050 H3042 0.930 . S
C3050 C3049 1.362 . S
C3050 C3053 1.409 . S
C3051 H3043 0.930 . S
C3051 C3052 1.355 . S
C3051 C3053 1.415 . S
C3052 C3051 1.355 . S
C3052 C3054 1.419 . S
C3053 C3048 1.425 . S
C3053 C3050 1.409 . S
C3053 C3051 1.415 . S
C3054 H3044 0.930 . S
C3054 C3052 1.419 . S
C3054 C3055 1.362 . S
C3055 H3045 0.930 . S
C3055 C3048 1.409 . S
C3055 C3054 1.362 . S
H3056 C3062 0.930 . S
H3057 C3065 0.930 . S
H3058 C3066 0.930 . S
H3059 C3067 0.930 . S
H3060 C3070 0.930 . S
H3061 C3071 0.930 . S
C3062 H3056 0.930 . S
C3062 C3063 1.355 . S
C3062 C3064 1.415 . S
C3063 C3062 1.355 . S
C3063 C3065 1.419 . S
C3064 C3062 1.415 . S
C3064 C3069 1.425 . S
C3064 C3071 1.409 . S
C3065 H3057 0.930 . S
C3065 C3063 1.419 . S
C3065 C3066 1.362 . S
C3066 H3058 0.930 . S
C3066 C3065 1.362 . S
C3066 C3069 1.409 . S
C3067 H3059 0.930 . S
C3067 C3068 1.355 . S
C3067 C3069 1.415 . S
C3068 C3067 1.355 . S
C3068 C3070 1.419 . S
C3069 C3064 1.425 . S
C3069 C3066 1.409 . S
C3069 C3067 1.415 . S
C3070 H3060 0.930 . S
C3070 C3068 1.419 . S
C3070 C3071 1.362 . S
C3071 H3061 0.930 . S
C3071 C3064 1.409 . S
C3071 C3070 1.362 . S
H3072 C3078 0.930 . S
H3073 C3081 0.930 . S
H3074 C3082 0.930 . S
H3075 C3083 0.930 . S
H3076 C3086 0.930 . S
H3077 C3087 0.930 . S
C3078 H3072 0.930 . S
C3078 C3079 1.355 . S
C3078 C3080 1.415 . S
C3079 C3078 1.355 . S
C3079 C3081 1.419 . S
C3080 C3078 1.415 . S
C3080 C3085 1.425 . S
C3080 C3087 1.409 . S
C3081 H3073 0.930 . S
C3081 C3079 1.419 . S
C3081 C3082 1.362 . S
C3082 H3074 0.930 . S
C3082 C3081 1.362 . S
C3082 C3085 1.409 . S
C3083 H3075 0.930 . S
C3083 C3084 1.355 . S
C3083 C3085 1.415 . S
C3084 C3083 1.355 . S
C3084 C3086 1.419 . S
C3085 C3080 1.425 . S
C3085 C3082 1.409 . S
C3085 C3083 1.415 . S
C3086 H3076 0.930 . S
C3086 C3084 1.419 . S
C3086 C3087 1.362 . S
C3087 H3077 0.930 . S
C3087 C3080 1.409 . S
C3087 C3086 1.362 . S
H3088 C3094 0.930 . S
H3089 C3097 0.930 . S
H3090 C3098 0.930 . S
H3091 C3099 0.930 . S
H3092 C3102 0.930 . S
H3093 C3103 0.930 . S
C3094 H3088 0.930 . S
C3094 C3095 1.355 . S
C3094 C3096 1.415 . S
C3095 C3094 1.355 . S
C3095 C3097 1.419 . S
C3096 C3094 1.415 . S
C3096 C3101 1.425 . S
C3096 C3103 1.409 . S
C3097 H3089 0.930 . S
C3097 C3095 1.419 . S
C3097 C3098 1.362 . S
C3098 H3090 0.930 . S
C3098 C3097 1.362 . S
C3098 C3101 1.409 . S
C3099 H3091 0.930 . S
C3099 C3100 1.355 . S
C3099 C3101 1.415 . S
C3100 C3099 1.355 . S
C3100 C3102 1.419 . S
C3101 C3096 1.425 . S
C3101 C3098 1.409 . S
C3101 C3099 1.415 . S
C3102 H3092 0.930 . S
C3102 C3100 1.419 . S
C3102 C3103 1.362 . S
C3103 H3093 0.930 . S
C3103 C3096 1.409 . S
C3103 C3102 1.362 . S
H3104 C3110 0.930 . S
H3105 C3113 0.930 . S
H3106 C3114 0.930 . S
H3107 C3115 0.930 . S
H3108 C3118 0.930 . S
H3109 C3119 0.930 . S
C3110 H3104 0.930 . S
C3110 C3111 1.355 . S
C3110 C3112 1.415 . S
C3111 C3110 1.355 . S
C3111 C3113 1.419 . S
C3112 C3110 1.415 . S
C3112 C3117 1.425 . S
C3112 C3119 1.409 . S
C3113 H3105 0.930 . S
C3113 C3111 1.419 . S
C3113 C3114 1.362 . S
C3114 H3106 0.930 . S
C3114 C3113 1.362 . S
C3114 C3117 1.409 . S
C3115 H3107 0.930 . S
C3115 C3116 1.355 . S
C3115 C3117 1.415 . S
C3116 C3115 1.355 . S
C3116 C3118 1.419 . S
C3117 C3112 1.425 . S
C3117 C3114 1.409 . S
C3117 C3115 1.415 . S
C3118 H3108 0.930 . S
C3118 C3116 1.419 . S
C3118 C3119 1.362 . S
C3119 H3109 0.930 . S
C3119 C3112 1.409 . S
C3119 C3118 1.362 . S
H3120 C3126 0.930 . S
H3121 C3129 0.930 . S
H3122 C3130 0.930 . S
H3123 C3131 0.930 . S
H3124 C3134 0.930 . S
H3125 C3135 0.930 . S
C3126 H3120 0.930 . S
C3126 C3127 1.355 . S
C3126 C3128 1.415 . S
C3127 C3126 1.355 . S
C3127 C3129 1.419 . S
C3128 C3126 1.415 . S
C3128 C3133 1.425 . S
C3128 C3135 1.409 . S
C3129 H3121 0.930 . S
C3129 C3127 1.419 . S
C3129 C3130 1.362 . S
C3130 H3122 0.930 . S
C3130 C3129 1.362 . S
C3130 C3133 1.409 . S
C3131 H3123 0.930 . S
C3131 C3132 1.355 . S
C3131 C3133 1.415 . S
C3132 C3131 1.355 . S
C3132 C3134 1.419 . S
C3133 C3128 1.425 . S
C3133 C3130 1.409 . S
C3133 C3131 1.415 . S
C3134 H3124 0.930 . S
C3134 C3132 1.419 . S
C3134 C3135 1.362 . S
C3135 H3125 0.930 . S
C3135 C3128 1.409 . S
C3135 C3134 1.362 . S
H3136 C3142 0.930 . S
H3137 C3145 0.930 . S
H3138 C3146 0.930 . S
H3139 C3147 0.930 . S
H3140 C3150 0.930 . S
H3141 C3151 0.930 . S
C3142 H3136 0.930 . S
C3142 C3143 1.355 . S
C3142 C3144 1.415 . S
C3143 C3142 1.355 . S
C3143 C3145 1.419 . S
C3144 C3142 1.415 . S
C3144 C3149 1.425 . S
C3144 C3151 1.409 . S
C3145 H3137 0.930 . S
C3145 C3143 1.419 . S
C3145 C3146 1.362 . S
C3146 H3138 0.930 . S
C3146 C3145 1.362 . S
C3146 C3149 1.409 . S
C3147 H3139 0.930 . S
C3147 C3148 1.355 . S
C3147 C3149 1.415 . S
C3148 C3147 1.355 . S
C3148 C3150 1.419 . S
C3149 C3144 1.425 . S
C3149 C3146 1.409 . S
C3149 C3147 1.415 . S
C3150 H3140 0.930 . S
C3150 C3148 1.419 . S
C3150 C3151 1.362 . S
C3151 H3141 0.930 . S
C3151 C3144 1.409 . S
C3151 C3150 1.362 . S
H3152 C3158 0.930 . S
H3153 C3161 0.930 . S
H3154 C3162 0.930 . S
H3155 C3163 0.930 . S
H3156 C3166 0.930 . S
H3157 C3167 0.930 . S
C3158 H3152 0.930 . S
C3158 C3159 1.355 . S
C3158 C3160 1.415 . S
C3159 C3158 1.355 . S
C3159 C3161 1.419 . S
C3160 C3158 1.415 . S
C3160 C3165 1.425 . S
C3160 C3167 1.409 . S
C3161 H3153 0.930 . S
C3161 C3159 1.419 . S
C3161 C3162 1.362 . S
C3162 H3154 0.930 . S
C3162 C3161 1.362 . S
C3162 C3165 1.409 . S
C3163 H3155 0.930 . S
C3163 C3164 1.355 . S
C3163 C3165 1.415 . S
C3164 C3163 1.355 . S
C3164 C3166 1.419 . S
C3165 C3160 1.425 . S
C3165 C3162 1.409 . S
C3165 C3163 1.415 . S
C3166 H3156 0.930 . S
C3166 C3164 1.419 . S
C3166 C3167 1.362 . S
C3167 H3157 0.930 . S
C3167 C3160 1.409 . S
C3167 C3166 1.362 . S
H3168 C3174 0.930 . S
H3169 C3177 0.930 . S
H3170 C3178 0.930 . S
H3171 C3179 0.930 . S
H3172 C3182 0.930 . S
H3173 C3183 0.930 . S
C3174 H3168 0.930 . S
C3174 C3175 1.355 . S
C3174 C3176 1.415 . S
C3175 C3174 1.355 . S
C3175 C3177 1.419 . S
C3176 C3174 1.415 . S
C3176 C3181 1.425 . S
C3176 C3183 1.409 . S
C3177 H3169 0.930 . S
C3177 C3175 1.419 . S
C3177 C3178 1.362 . S
C3178 H3170 0.930 . S
C3178 C3177 1.362 . S
C3178 C3181 1.409 . S
C3179 H3171 0.930 . S
C3179 C3180 1.355 . S
C3179 C3181 1.415 . S
C3180 C3179 1.355 . S
C3180 C3182 1.419 . S
C3181 C3176 1.425 . S
C3181 C3178 1.409 . S
C3181 C3179 1.415 . S
C3182 H3172 0.930 . S
C3182 C3180 1.419 . S
C3182 C3183 1.362 . S
C3183 H3173 0.930 . S
C3183 C3176 1.409 . S
C3183 C3182 1.362 . S
H3184 C3190 0.930 . S
H3185 C3193 0.930 . S
H3186 C3194 0.930 . S
H3187 C3195 0.930 . S
H3188 C3198 0.930 . S
H3189 C3199 0.930 . S
C3190 H3184 0.930 . S
C3190 C3191 1.355 . S
C3190 C3192 1.415 . S
C3191 C3190 1.355 . S
C3191 C3193 1.419 . S
C3192 C3190 1.415 . S
C3192 C3197 1.425 . S
C3192 C3199 1.409 . S
C3193 H3185 0.930 . S
C3193 C3191 1.419 . S
C3193 C3194 1.362 . S
C3194 H3186 0.930 . S
C3194 C3193 1.362 . S
C3194 C3197 1.409 . S
C3195 H3187 0.930 . S
C3195 C3196 1.355 . S
C3195 C3197 1.415 . S
C3196 C3195 1.355 . S
C3196 C3198 1.419 . S
C3197 C3192 1.425 . S
C3197 C3194 1.409 . S
C3197 C3195 1.415 . S
C3198 H3188 0.930 . S
C3198 C3196 1.419 . S
C3198 C3199 1.362 . S
C3199 H3189 0.930 . S
C3199 C3192 1.409 . S
C3199 C3198 1.362 . S
H3200 C3206 0.930 . S
H3201 C3209 0.930 . S
H3202 C3210 0.930 . S
H3203 C3211 0.930 . S
H3204 C3214 0.930 . S
H3205 C3215 0.930 . S
C3206 H3200 0.930 . S
C3206 C3207 1.355 . S
C3206 C3208 1.415 . S
C3207 C3206 1.355 . S
C3207 C3209 1.419 . S
C3208 C3206 1.415 . S
C3208 C3213 1.425 . S
C3208 C3215 1.409 . S
C3209 H3201 0.930 . S
C3209 C3207 1.419 . S
C3209 C3210 1.362 . S
C3210 H3202 0.930 . S
C3210 C3209 1.362 . S
C3210 C3213 1.409 . S
C3211 H3203 0.930 . S
C3211 C3212 1.355 . S
C3211 C3213 1.415 . S
C3212 C3211 1.355 . S
C3212 C3214 1.419 . S
C3213 C3208 1.425 . S
C3213 C3210 1.409 . S
C3213 C3211 1.415 . S
C3214 H3204 0.930 . S
C3214 C3212 1.419 . S
C3214 C3215 1.362 . S
C3215 H3205 0.930 . S
C3215 C3208 1.409 . S
C3215 C3214 1.362 . S
H3216 C3222 0.930 . S
H3217 C3225 0.930 . S
H3218 C3226 0.930 . S
H3219 C3227 0.930 . S
H3220 C3230 0.930 . S
H3221 C3231 0.930 . S
C3222 H3216 0.930 . S
C3222 C3223 1.355 . S
C3222 C3224 1.415 . S
C3223 C3222 1.355 . S
C3223 C3225 1.419 . S
C3224 C3222 1.415 . S
C3224 C3229 1.425 . S
C3224 C3231 1.409 . S
C3225 H3217 0.930 . S
C3225 C3223 1.419 . S
C3225 C3226 1.362 . S
C3226 H3218 0.930 . S
C3226 C3225 1.362 . S
C3226 C3229 1.409 . S
C3227 H3219 0.930 . S
C3227 C3228 1.355 . S
C3227 C3229 1.415 . S
C3228 C3227 1.355 . S
C3228 C3230 1.419 . S
C3229 C3224 1.425 . S
C3229 C3226 1.409 . S
C3229 C3227 1.415 . S
C3230 H3220 0.930 . S
C3230 C3228 1.419 . S
C3230 C3231 1.362 . S
C3231 H3221 0.930 . S
C3231 C3224 1.409 . S
C3231 C3230 1.362 . S
H3232 C3238 0.930 . S
H3233 C3241 0.930 . S
H3234 C3242 0.930 . S
H3235 C3243 0.930 . S
H3236 C3246 0.930 . S
H3237 C3247 0.930 . S
C3238 H3232 0.930 . S
C3238 C3239 1.355 . S
C3238 C3240 1.415 . S
C3239 C3238 1.355 . S
C3239 C3241 1.419 . S
C3240 C3238 1.415 . S
C3240 C3245 1.425 . S
C3240 C3247 1.409 . S
C3241 H3233 0.930 . S
C3241 C3239 1.419 . S
C3241 C3242 1.362 . S
C3242 H3234 0.930 . S
C3242 C3241 1.362 . S
C3242 C3245 1.409 . S
C3243 H3235 0.930 . S
C3243 C3244 1.355 . S
C3243 C3245 1.415 . S
C3244 C3243 1.355 . S
C3244 C3246 1.419 . S
C3245 C3240 1.425 . S
C3245 C3242 1.409 . S
C3245 C3243 1.415 . S
C3246 H3236 0.930 . S
C3246 C3244 1.419 . S
C3246 C3247 1.362 . S
C3247 H3237 0.930 . S
C3247 C3240 1.409 . S
C3247 C3246 1.362 . S
H3248 C3254 0.930 . S
H3249 C3257 0.930 . S
H3250 C3258 0.930 . S
H3251 C3259 0.930 . S
H3252 C3262 0.930 . S
H3253 C3263 0.930 . S
C3254 H3248 0.930 . S
C3254 C3255 1.355 . S
C3254 C3256 1.415 . S
C3255 C3254 1.355 . S
C3255 C3257 1.419 . S
C3256 C3254 1.415 . S
C3256 C3261 1.425 . S
C3256 C3263 1.409 . S
C3257 H3249 0.930 . S
C3257 C3255 1.419 . S
C3257 C3258 1.362 . S
C3258 H3250 0.930 . S
C3258 C3257 1.362 . S
C3258 C3261 1.409 . S
C3259 H3251 0.930 . S
C3259 C3260 1.355 . S
C3259 C3261 1.415 . S
C3260 C3259 1.355 . S
C3260 C3262 1.419 . S
C3261 C3256 1.425 . S
C3261 C3258 1.409 . S
C3261 C3259 1.415 . S
C3262 H3252 0.930 . S
C3262 C3260 1.419 . S
C3262 C3263 1.362 . S
C3263 H3253 0.930 . S
C3263 C3256 1.409 . S
C3263 C3262 1.362 . S
H3264 C3270 0.930 . S
H3265 C3273 0.930 . S
H3266 C3274 0.930 . S
H3267 C3275 0.930 . S
H3268 C3278 0.930 . S
H3269 C3279 0.930 . S
C3270 H3264 0.930 . S
C3270 C3271 1.355 . S
C3270 C3272 1.415 . S
C3271 C3270 1.355 . S
C3271 C3273 1.419 . S
C3272 C3270 1.415 . S
C3272 C3277 1.425 . S
C3272 C3279 1.409 . S
C3273 H3265 0.930 . S
C3273 C3271 1.419 . S
C3273 C3274 1.362 . S
C3274 H3266 0.930 . S
C3274 C3273 1.362 . S
C3274 C3277 1.409 . S
C3275 H3267 0.930 . S
C3275 C3276 1.355 . S
C3275 C3277 1.415 . S
C3276 C3275 1.355 . S
C3276 C3278 1.419 . S
C3277 C3272 1.425 . S
C3277 C3274 1.409 . S
C3277 C3275 1.415 . S
C3278 H3268 0.930 . S
C3278 C3276 1.419 . S
C3278 C3279 1.362 . S
C3279 H3269 0.930 . S
C3279 C3272 1.409 . S
C3279 C3278 1.362 . S
H3280 C3286 0.930 . S
H3281 C3289 0.930 . S
H3282 C3290 0.930 . S
H3283 C3291 0.930 . S
H3284 C3294 0.930 . S
H3285 C3295 0.930 . S
C3286 H3280 0.930 . S
C3286 C3287 1.355 . S
C3286 C3288 1.415 . S
C3287 C3286 1.355 . S
C3287 C3289 1.419 . S
C3288 C3286 1.415 . S
C3288 C3293 1.425 . S
C3288 C3295 1.409 . S
C3289 H3281 0.930 . S
C3289 C3287 1.419 . S
C3289 C3290 1.362 . S
C3290 H3282 0.930 . S
C3290 C3289 1.362 . S
C3290 C3293 1.409 . S
C3291 H3283 0.930 . S
C3291 C3292 1.355 . S
C3291 C3293 1.415 . S
C3292 C3291 1.355 . S
C3292 C3294 1.419 . S
C3293 C3288 1.425 . S
C3293 C3290 1.409 . S
C3293 C3291 1.415 . S
C3294 H3284 0.930 . S
C3294 C3292 1.419 . S
C3294 C3295 1.362 . S
C3295 H3285 0.930 . S
C3295 C3288 1.409 . S
C3295 C3294 1.362 . S
H3296 C3302 0.930 . S
H3297 C3305 0.930 . S
H3298 C3306 0.930 . S
H3299 C3307 0.930 . S
H3300 C3310 0.930 . S
H3301 C3311 0.930 . S
C3302 H3296 0.930 . S
C3302 C3303 1.355 . S
C3302 C3304 1.415 . S
C3303 C3302 1.355 . S
C3303 C3305 1.419 . S
C3304 C3302 1.415 . S
C3304 C3309 1.425 . S
C3304 C3311 1.409 . S
C3305 H3297 0.930 . S
C3305 C3303 1.419 . S
C3305 C3306 1.362 . S
C3306 H3298 0.930 . S
C3306 C3305 1.362 . S
C3306 C3309 1.409 . S
C3307 H3299 0.930 . S
C3307 C3308 1.355 . S
C3307 C3309 1.415 . S
C3308 C3307 1.355 . S
C3308 C3310 1.419 . S
C3309 C3304 1.425 . S
C3309 C3306 1.409 . S
C3309 C3307 1.415 . S
C3310 H3300 0.930 . S
C3310 C3308 1.419 . S
C3310 C3311 1.362 . S
C3311 H3301 0.930 . S
C3311 C3304 1.409 . S
C3311 C3310 1.362 . S
H3312 C3318 0.930 . S
H3313 C3321 0.930 . S
H3314 C3322 0.930 . S
H3315 C3323 0.930 . S
H3316 C3326 0.930 . S
H3317 C3327 0.930 . S
C3318 H3312 0.930 . S
C3318 C3319 1.355 . S
C3318 C3320 1.415 . S
C3319 C3318 1.355 . S
C3319 C3321 1.419 . S
C3320 C3318 1.415 . S
C3320 C3325 1.425 . S
C3320 C3327 1.409 . S
C3321 H3313 0.930 . S
C3321 C3319 1.419 . S
C3321 C3322 1.362 . S
C3322 H3314 0.930 . S
C3322 C3321 1.362 . S
C3322 C3325 1.409 . S
C3323 H3315 0.930 . S
C3323 C3324 1.355 . S
C3323 C3325 1.415 . S
C3324 C3323 1.355 . S
C3324 C3326 1.419 . S
C3325 C3320 1.425 . S
C3325 C3322 1.409 . S
C3325 C3323 1.415 . S
C3326 H3316 0.930 . S
C3326 C3324 1.419 . S
C3326 C3327 1.362 . S
C3327 H3317 0.930 . S
C3327 C3320 1.409 . S
C3327 C3326 1.362 . S
H3328 C3334 0.930 . S
H3329 C3337 0.930 . S
H3330 C3338 0.930 . S
H3331 C3339 0.930 . S
H3332 C3342 0.930 . S
H3333 C3343 0.930 . S
C3334 H3328 0.930 . S
C3334 C3335 1.355 . S
C3334 C3336 1.415 . S
C3335 C3334 1.355 . S
C3335 C3337 1.419 . S
C3336 C3334 1.415 . S
C3336 C3341 1.425 . S
C3336 C3343 1.409 . S
C3337 H3329 0.930 . S
C3337 C3335 1.419 . S
C3337 C3338 1.362 . S
C3338 H3330 0.930 . S
C3338 C3337 1.362 . S
C3338 C3341 1.409 . S
C3339 H3331 0.930 . S
C3339 C3340 1.355 . S
C3339 C3341 1.415 . S
C3340 C3339 1.355 . S
C3340 C3342 1.419 . S
C3341 C3336 1.425 . S
C3341 C3338 1.409 . S
C3341 C3339 1.415 . S
C3342 H3332 0.930 . S
C3342 C3340 1.419 . S
C3342 C3343 1.362 . S
C3343 H3333 0.930 . S
C3343 C3336 1.409 . S
C3343 C3342 1.362 . S
H3344 C3350 0.930 . S
H3345 C3353 0.930 . S
H3346 C3354 0.930 . S
H3347 C3355 0.930 . S
H3348 C3358 0.930 . S
H3349 C3359 0.930 . S
C3350 H3344 0.930 . S
C3350 C3351 1.355 . S
C3350 C3352 1.415 . S
C3351 C3350 1.355 . S
C3351 C3353 1.419 . S
C3352 C3350 1.415 . S
C3352 C3357 1.425 1_655 S
C3352 C3359 1.409 1_655 S
C3353 H3345 0.930 . S
C3353 C3351 1.419 . S
C3353 C3354 1.362 . S
C3354 H3346 0.930 . S
C3354 C3353 1.362 . S
C3354 C3357 1.409 1_655 S
C3355 H3347 0.930 . S
C3355 C3356 1.355 . S
C3355 C3357 1.415 . S
C3356 C3355 1.355 . S
C3356 C3358 1.419 . S
C3357 C3352 1.425 1_455 S
C3357 C3354 1.409 1_455 S
C3357 C3355 1.415 . S
C3358 H3348 0.930 . S
C3358 C3356 1.419 . S
C3358 C3359 1.362 . S
C3359 H3349 0.930 . S
C3359 C3352 1.409 1_455 S
C3359 C3358 1.362 . S
H3360 C3366 0.930 . S
H3361 C3369 0.930 . S
H3362 C3370 0.930 . S
H3363 C3371 0.930 . S
H3364 C3374 0.930 . S
H3365 C3375 0.930 . S
C3366 H3360 0.930 . S
C3366 C3367 1.355 . S
C3366 C3368 1.415 . S
C3367 C3366 1.355 . S
C3367 C3369 1.419 . S
C3368 C3366 1.415 . S
C3368 C3373 1.425 . S
C3368 C3375 1.409 . S
C3369 H3361 0.930 . S
C3369 C3367 1.419 . S
C3369 C3370 1.362 . S
C3370 H3362 0.930 . S
C3370 C3369 1.362 . S
C3370 C3373 1.409 . S
C3371 H3363 0.930 . S
C3371 C3372 1.355 . S
C3371 C3373 1.415 . S
C3372 C3371 1.355 . S
C3372 C3374 1.419 . S
C3373 C3368 1.425 . S
C3373 C3370 1.409 . S
C3373 C3371 1.415 . S
C3374 H3364 0.930 . S
C3374 C3372 1.419 . S
C3374 C3375 1.362 . S
C3375 H3365 0.930 . S
C3375 C3368 1.409 . S
C3375 C3374 1.362 . S
H3376 C3382 0.930 . S
H3377 C3385 0.930 . S
H3378 C3386 0.930 . S
H3379 C3387 0.930 . S
H3380 C3390 0.930 . S
H3381 C3391 0.930 . S
C3382 H3376 0.930 . S
C3382 C3383 1.355 . S
C3382 C3384 1.415 . S
C3383 C3382 1.355 . S
C3383 C3385 1.419 . S
C3384 C3382 1.415 . S
C3384 C3389 1.425 . S
C3384 C3391 1.409 . S
C3385 H3377 0.930 . S
C3385 C3383 1.419 . S
C3385 C3386 1.362 . S
C3386 H3378 0.930 . S
C3386 C3385 1.362 . S
C3386 C3389 1.409 . S
C3387 H3379 0.930 . S
C3387 C3388 1.355 . S
C3387 C3389 1.415 . S
C3388 C3387 1.355 . S
C3388 C3390 1.419 . S
C3389 C3384 1.425 . S
C3389 C3386 1.409 . S
C3389 C3387 1.415 . S
C3390 H3380 0.930 . S
C3390 C3388 1.419 . S
C3390 C3391 1.362 . S
C3391 H3381 0.930 . S
C3391 C3384 1.409 . S
C3391 C3390 1.362 . S
H3392 C3398 0.930 . S
H3393 C3401 0.930 . S
H3394 C3402 0.930 . S
H3395 C3403 0.930 . S
H3396 C3406 0.930 . S
H3397 C3407 0.930 . S
C3398 H3392 0.930 . S
C3398 C3399 1.355 . S
C3398 C3400 1.415 . S
C3399 C3398 1.355 . S
C3399 C3401 1.419 . S
C3400 C3398 1.415 . S
C3400 C3405 1.425 . S
C3400 C3407 1.409 . S
C3401 H3393 0.930 . S
C3401 C3399 1.419 . S
C3401 C3402 1.362 . S
C3402 H3394 0.930 . S
C3402 C3401 1.362 . S
C3402 C3405 1.409 . S
C3403 H3395 0.930 . S
C3403 C3404 1.355 . S
C3403 C3405 1.415 . S
C3404 C3403 1.355 . S
C3404 C3406 1.419 . S
C3405 C3400 1.425 . S
C3405 C3402 1.409 . S
C3405 C3403 1.415 . S
C3406 H3396 0.930 . S
C3406 C3404 1.419 . S
C3406 C3407 1.362 . S
C3407 H3397 0.930 . S
C3407 C3400 1.409 . S
C3407 C3406 1.362 . S
H3408 C3414 0.930 . S
H3409 C3417 0.930 . S
H3410 C3418 0.930 . S
H3411 C3419 0.930 . S
H3412 C3422 0.930 . S
H3413 C3423 0.930 . S
C3414 H3408 0.930 . S
C3414 C3415 1.355 . S
C3414 C3416 1.415 . S
C3415 C3414 1.355 . S
C3415 C3417 1.419 . S
C3416 C3414 1.415 . S
C3416 C3421 1.425 . S
C3416 C3423 1.409 . S
C3417 H3409 0.930 . S
C3417 C3415 1.419 . S
C3417 C3418 1.362 . S
C3418 H3410 0.930 . S
C3418 C3417 1.362 . S
C3418 C3421 1.409 . S
C3419 H3411 0.930 . S
C3419 C3420 1.355 . S
C3419 C3421 1.415 . S
C3420 C3419 1.355 . S
C3420 C3422 1.419 . S
C3421 C3416 1.425 . S
C3421 C3418 1.409 . S
C3421 C3419 1.415 . S
C3422 H3412 0.930 . S
C3422 C3420 1.419 . S
C3422 C3423 1.362 . S
C3423 H3413 0.930 . S
C3423 C3416 1.409 . S
C3423 C3422 1.362 . S
H3424 C3430 0.930 . S
H3425 C3433 0.930 . S
H3426 C3434 0.930 . S
H3427 C3435 0.930 . S
H3428 C3438 0.930 . S
H3429 C3439 0.930 . S
C3430 H3424 0.930 . S
C3430 C3431 1.355 . S
C3430 C3432 1.415 . S
C3431 C3430 1.355 . S
C3431 C3433 1.419 . S
C3432 C3430 1.415 . S
C3432 C3437 1.425 . S
C3432 C3439 1.409 . S
C3433 H3425 0.930 . S
C3433 C3431 1.419 . S
C3433 C3434 1.362 . S
C3434 H3426 0.930 . S
C3434 C3433 1.362 . S
C3434 C3437 1.409 . S
C3435 H3427 0.930 . S
C3435 C3436 1.355 . S
C3435 C3437 1.415 . S
C3436 C3435 1.355 . S
C3436 C3438 1.419 . S
C3437 C3432 1.425 . S
C3437 C3434 1.409 . S
C3437 C3435 1.415 . S
C3438 H3428 0.930 . S
C3438 C3436 1.419 . S
C3438 C3439 1.362 . S
C3439 H3429 0.930 . S
C3439 C3432 1.409 . S
C3439 C3438 1.362 . S
H3440 C3446 0.930 . S
H3441 C3449 0.930 . S
H3442 C3450 0.930 . S
H3443 C3451 0.930 . S
H3444 C3454 0.930 . S
H3445 C3455 0.930 . S
C3446 H3440 0.930 . S
C3446 C3447 1.355 . S
C3446 C3448 1.415 . S
C3447 C3446 1.355 . S
C3447 C3449 1.419 . S
C3448 C3446 1.415 . S
C3448 C3453 1.425 1_655 S
C3448 C3455 1.409 1_655 S
C3449 H3441 0.930 . S
C3449 C3447 1.419 . S
C3449 C3450 1.362 . S
C3450 H3442 0.930 . S
C3450 C3449 1.362 . S
C3450 C3453 1.409 1_655 S
C3451 H3443 0.930 . S
C3451 C3452 1.355 . S
C3451 C3453 1.415 . S
C3452 C3451 1.355 . S
C3452 C3454 1.419 . S
C3453 C3448 1.425 1_455 S
C3453 C3450 1.409 1_455 S
C3453 C3451 1.415 . S
C3454 H3444 0.930 . S
C3454 C3452 1.419 . S
C3454 C3455 1.362 . S
C3455 H3445 0.930 . S
C3455 C3448 1.409 1_455 S
C3455 C3454 1.362 . S
H3456 C3462 0.930 . S
H3457 C3465 0.930 . S
H3458 C3466 0.930 . S
H3459 C3467 0.930 . S
H3460 C3470 0.930 . S
H3461 C3471 0.930 . S
C3462 H3456 0.930 . S
C3462 C3463 1.355 . S
C3462 C3464 1.415 . S
C3463 C3462 1.355 . S
C3463 C3465 1.419 . S
C3464 C3462 1.415 . S
C3464 C3469 1.425 . S
C3464 C3471 1.409 . S
C3465 H3457 0.930 . S
C3465 C3463 1.419 . S
C3465 C3466 1.362 . S
C3466 H3458 0.930 . S
C3466 C3465 1.362 . S
C3466 C3469 1.409 . S
C3467 H3459 0.930 . S
C3467 C3468 1.355 . S
C3467 C3469 1.415 . S
C3468 C3467 1.355 . S
C3468 C3470 1.419 . S
C3469 C3464 1.425 . S
C3469 C3466 1.409 . S
C3469 C3467 1.415 . S
C3470 H3460 0.930 . S
C3470 C3468 1.419 . S
C3470 C3471 1.362 . S
C3471 H3461 0.930 . S
C3471 C3464 1.409 . S
C3471 C3470 1.362 . S
H3472 C3478 0.930 . S
H3473 C3481 0.930 . S
H3474 C3482 0.930 . S
H3475 C3483 0.930 . S
H3476 C3486 0.930 . S
H3477 C3487 0.930 . S
C3478 H3472 0.930 . S
C3478 C3479 1.355 . S
C3478 C3480 1.415 . S
C3479 C3478 1.355 . S
C3479 C3481 1.419 . S
C3480 C3478 1.415 . S
C3480 C3485 1.425 . S
C3480 C3487 1.409 . S
C3481 H3473 0.930 . S
C3481 C3479 1.419 . S
C3481 C3482 1.362 . S
C3482 H3474 0.930 . S
C3482 C3481 1.362 . S
C3482 C3485 1.409 . S
C3483 H3475 0.930 . S
C3483 C3484 1.355 . S
C3483 C3485 1.415 . S
C3484 C3483 1.355 . S
C3484 C3486 1.419 . S
C3485 C3480 1.425 . S
C3485 C3482 1.409 . S
C3485 C3483 1.415 . S
C3486 H3476 0.930 . S
C3486 C3484 1.419 . S
C3486 C3487 1.362 . S
C3487 H3477 0.930 . S
C3487 C3480 1.409 . S
C3487 C3486 1.362 . S
H3488 C3494 0.930 . S
H3489 C3497 0.930 . S
H3490 C3498 0.930 . S
H3491 C3499 0.930 . S
H3492 C3502 0.930 . S
H3493 C3503 0.930 . S
C3494 H3488 0.930 . S
C3494 C3495 1.355 . S
C3494 C3496 1.415 . S
C3495 C3494 1.355 . S
C3495 C3497 1.419 . S
C3496 C3494 1.415 . S
C3496 C3501 1.425 . S
C3496 C3503 1.409 . S
C3497 H3489 0.930 . S
C3497 C3495 1.419 . S
C3497 C3498 1.362 . S
C3498 H3490 0.930 . S
C3498 C3497 1.362 . S
C3498 C3501 1.409 . S
C3499 H3491 0.930 . S
C3499 C3500 1.355 . S
C3499 C3501 1.415 . S
C3500 C3499 1.355 . S
C3500 C3502 1.419 . S
C3501 C3496 1.425 . S
C3501 C3498 1.409 . S
C3501 C3499 1.415 . S
C3502 H3492 0.930 . S
C3502 C3500 1.419 . S
C3502 C3503 1.362 . S
C3503 H3493 0.930 . S
C3503 C3496 1.409 . S
C3503 C3502 1.362 . S
H3504 C3510 0.930 . S
H3505 C3513 0.930 . S
H3506 C3514 0.930 . S
H3507 C3515 0.930 . S
H3508 C3518 0.930 . S
H3509 C3519 0.930 . S
C3510 H3504 0.930 . S
C3510 C3511 1.355 . S
C3510 C3512 1.415 . S
C3511 C3510 1.355 . S
C3511 C3513 1.419 . S
C3512 C3510 1.415 . S
C3512 C3517 1.425 . S
C3512 C3519 1.409 . S
C3513 H3505 0.930 . S
C3513 C3511 1.419 . S
C3513 C3514 1.362 . S
C3514 H3506 0.930 . S
C3514 C3513 1.362 . S
C3514 C3517 1.409 . S
C3515 H3507 0.930 . S
C3515 C3516 1.355 . S
C3515 C3517 1.415 . S
C3516 C3515 1.355 . S
C3516 C3518 1.419 . S
C3517 C3512 1.425 . S
C3517 C3514 1.409 . S
C3517 C3515 1.415 . S
C3518 H3508 0.930 . S
C3518 C3516 1.419 . S
C3518 C3519 1.362 . S
C3519 H3509 0.930 . S
C3519 C3512 1.409 . S
C3519 C3518 1.362 . S
H3520 C3526 0.930 . S
H3521 C3529 0.930 . S
H3522 C3530 0.930 . S
H3523 C3531 0.930 . S
H3524 C3534 0.930 . S
H3525 C3535 0.930 . S
C3526 H3520 0.930 . S
C3526 C3527 1.355 . S
C3526 C3528 1.415 . S
C3527 C3526 1.355 . S
C3527 C3529 1.419 . S
C3528 C3526 1.415 . S
C3528 C3533 1.425 . S
C3528 C3535 1.409 . S
C3529 H3521 0.930 . S
C3529 C3527 1.419 . S
C3529 C3530 1.362 . S
C3530 H3522 0.930 . S
C3530 C3529 1.362 . S
C3530 C3533 1.409 . S
C3531 H3523 0.930 . S
C3531 C3532 1.355 . S
C3531 C3533 1.415 . S
C3532 C3531 1.355 . S
C3532 C3534 1.419 . S
C3533 C3528 1.425 . S
C3533 C3530 1.409 . S
C3533 C3531 1.415 . S
C3534 H3524 0.930 . S
C3534 C3532 1.419 . S
C3534 C3535 1.362 . S
C3535 H3525 0.930 . S
C3535 C3528 1.409 . S
C3535 C3534 1.362 . S
H3536 C3542 0.930 . S
H3537 C3545 0.930 . S
H3538 C3546 0.930 . S
H3539 C3547 0.930 . S
H3540 C3550 0.930 . S
H3541 C3551 0.930 . S
C3542 H3536 0.930 . S
C3542 C3543 1.355 . S
C3542 C3544 1.415 . S
C3543 C3542 1.355 . S
C3543 C3545 1.419 . S
C3544 C3542 1.415 . S
C3544 C3549 1.425 1_655 S
C3544 C3551 1.409 1_655 S
C3545 H3537 0.930 . S
C3545 C3543 1.419 . S
C3545 C3546 1.362 . S
C3546 H3538 0.930 . S
C3546 C3545 1.362 . S
C3546 C3549 1.409 1_655 S
C3547 H3539 0.930 . S
C3547 C3548 1.355 . S
C3547 C3549 1.415 . S
C3548 C3547 1.355 . S
C3548 C3550 1.419 . S
C3549 C3544 1.425 1_455 S
C3549 C3546 1.409 1_455 S
C3549 C3547 1.415 . S
C3550 H3540 0.930 . S
C3550 C3548 1.419 . S
C3550 C3551 1.362 . S
C3551 H3541 0.930 . S
C3551 C3544 1.409 1_455 S
C3551 C3550 1.362 . S
H3552 C3558 0.930 . S
H3553 C3561 0.930 . S
H3554 C3562 0.930 . S
H3555 C3563 0.930 . S
H3556 C3566 0.930 . S
H3557 C3567 0.930 . S
C3558 H3552 0.930 . S
C3558 C3559 1.355 . S
C3558 C3560 1.415 . S
C3559 C3558 1.355 . S
C3559 C3561 1.419 . S
C3560 C3558 1.415 . S
C3560 C3565 1.425 1_655 S
C3560 C3567 1.409 1_655 S
C3561 H3553 0.930 . S
C3561 C3559 1.419 . S
C3561 C3562 1.362 . S
C3562 H3554 0.930 . S
C3562 C3561 1.362 . S
C3562 C3565 1.409 1_655 S
C3563 H3555 0.930 . S
C3563 C3564 1.355 . S
C3563 C3565 1.415 . S
C3564 C3563 1.355 . S
C3564 C3566 1.419 . S
C3565 C3560 1.425 1_455 S
C3565 C3562 1.409 1_455 S
C3565 C3563 1.415 . S
C3566 H3556 0.930 . S
C3566 C3564 1.419 . S
C3566 C3567 1.362 . S
C3567 H3557 0.930 . S
C3567 C3560 1.409 1_455 S
C3567 C3566 1.362 . S
H3568 C3574 0.930 . S
H3569 C3577 0.930 . S
H3570 C3578 0.930 . S
H3571 C3579 0.930 . S
H3572 C3582 0.930 . S
H3573 C3583 0.930 . S
C3574 H3568 0.930 . S
C3574 C3575 1.355 . S
C3574 C3576 1.415 . S
C3575 C3574 1.355 . S
C3575 C3577 1.419 . S
C3576 C3574 1.415 . S
C3576 C3581 1.425 . S
C3576 C3583 1.409 . S
C3577 H3569 0.930 . S
C3577 C3575 1.419 . S
C3577 C3578 1.362 . S
C3578 H3570 0.930 . S
C3578 C3577 1.362 . S
C3578 C3581 1.409 . S
C3579 H3571 0.930 . S
C3579 C3580 1.355 . S
C3579 C3581 1.415 . S
C3580 C3579 1.355 . S
C3580 C3582 1.419 . S
C3581 C3576 1.425 . S
C3581 C3578 1.409 . S
C3581 C3579 1.415 . S
C3582 H3572 0.930 . S
C3582 C3580 1.419 . S
C3582 C3583 1.362 . S
C3583 H3573 0.930 . S
C3583 C3576 1.409 . S
C3583 C3582 1.362 . S
H3584 C3590 0.930 . S
H3585 C3593 0.930 . S
H3586 C3594 0.930 . S
H3587 C3595 0.930 . S
H3588 C3598 0.930 . S
H3589 C3599 0.930 . S
C3590 H3584 0.930 . S
C3590 C3591 1.355 . S
C3590 C3592 1.415 . S
C3591 C3590 1.355 . S
C3591 C3593 1.419 . S
C3592 C3590 1.415 . S
C3592 C3597 1.425 . S
C3592 C3599 1.409 . S
C3593 H3585 0.930 . S
C3593 C3591 1.419 . S
C3593 C3594 1.362 . S
C3594 H3586 0.930 . S
C3594 C3593 1.362 . S
C3594 C3597 1.409 . S
C3595 H3587 0.930 . S
C3595 C3596 1.355 . S
C3595 C3597 1.415 . S
C3596 C3595 1.355 . S
C3596 C3598 1.419 . S
C3597 C3592 1.425 . S
C3597 C3594 1.409 . S
C3597 C3595 1.415 . S
C3598 H3588 0.930 . S
C3598 C3596 1.419 . S
C3598 C3599 1.362 . S
C3599 H3589 0.930 . S
C3599 C3592 1.409 . S
C3599 C3598 1.362 . S
H3600 C3606 0.930 . S
H3601 C3609 0.930 . S
H3602 C3610 0.930 . S
H3603 C3611 0.930 . S
H3604 C3614 0.930 . S
H3605 C3615 0.930 . S
C3606 H3600 0.930 . S
C3606 C3607 1.355 . S
C3606 C3608 1.415 . S
C3607 C3606 1.355 . S
C3607 C3609 1.419 . S
C3608 C3606 1.415 . S
C3608 C3613 1.425 . S
C3608 C3615 1.409 . S
C3609 H3601 0.930 . S
C3609 C3607 1.419 . S
C3609 C3610 1.362 . S
C3610 H3602 0.930 . S
C3610 C3609 1.362 . S
C3610 C3613 1.409 . S
C3611 H3603 0.930 . S
C3611 C3612 1.355 . S
C3611 C3613 1.415 . S
C3612 C3611 1.355 . S
C3612 C3614 1.419 . S
C3613 C3608 1.425 . S
C3613 C3610 1.409 . S
C3613 C3611 1.415 . S
C3614 H3604 0.930 . S
C3614 C3612 1.419 . S
C3614 C3615 1.362 . S
C3615 H3605 0.930 . S
C3615 C3608 1.409 . S
C3615 C3614 1.362 . S
H3616 C3622 0.930 . S
H3617 C3625 0.930 . S
H3618 C3626 0.930 . S
H3619 C3627 0.930 . S
H3620 C3630 0.930 . S
H3621 C3631 0.930 . S
C3622 H3616 0.930 . S
C3622 C3623 1.355 . S
C3622 C3624 1.415 . S
C3623 C3622 1.355 . S
C3623 C3625 1.419 . S
C3624 C3622 1.415 . S
C3624 C3629 1.425 . S
C3624 C3631 1.409 . S
C3625 H3617 0.930 . S
C3625 C3623 1.419 . S
C3625 C3626 1.362 . S
C3626 H3618 0.930 . S
C3626 C3625 1.362 . S
C3626 C3629 1.409 . S
C3627 H3619 0.930 . S
C3627 C3628 1.355 . S
C3627 C3629 1.415 . S
C3628 C3627 1.355 . S
C3628 C3630 1.419 . S
C3629 C3624 1.425 . S
C3629 C3626 1.409 . S
C3629 C3627 1.415 . S
C3630 H3620 0.930 . S
C3630 C3628 1.419 . S
C3630 C3631 1.362 . S
C3631 H3621 0.930 . S
C3631 C3624 1.409 . S
C3631 C3630 1.362 . S
H3632 C3638 0.930 . S
H3633 C3641 0.930 . S
H3634 C3642 0.930 . S
H3635 C3643 0.930 . S
H3636 C3646 0.930 . S
H3637 C3647 0.930 . S
C3638 H3632 0.930 . S
C3638 C3639 1.355 . S
C3638 C3640 1.415 . S
C3639 C3638 1.355 . S
C3639 C3641 1.419 . S
C3640 C3638 1.415 . S
C3640 C3645 1.425 . S
C3640 C3647 1.409 . S
C3641 H3633 0.930 . S
C3641 C3639 1.419 . S
C3641 C3642 1.362 . S
C3642 H3634 0.930 . S
C3642 C3641 1.362 . S
C3642 C3645 1.409 . S
C3643 H3635 0.930 . S
C3643 C3644 1.355 . S
C3643 C3645 1.415 . S
C3644 C3643 1.355 . S
C3644 C3646 1.419 . S
C3645 C3640 1.425 . S
C3645 C3642 1.409 . S
C3645 C3643 1.415 . S
C3646 H3636 0.930 . S
C3646 C3644 1.419 . S
C3646 C3647 1.362 . S
C3647 H3637 0.930 . S
C3647 C3640 1.409 . S
C3647 C3646 1.362 . S
H3648 C3654 0.930 . S
H3649 C3657 0.930 . S
H3650 C3658 0.930 . S
H3651 C3659 0.930 . S
H3652 C3662 0.930 . S
H3653 C3663 0.930 . S
C3654 H3648 0.930 . S
C3654 C3655 1.355 . S
C3654 C3656 1.415 . S
C3655 C3654 1.355 . S
C3655 C3657 1.419 . S
C3656 C3654 1.415 . S
C3656 C3661 1.425 . S
C3656 C3663 1.409 . S
C3657 H3649 0.930 . S
C3657 C3655 1.419 . S
C3657 C3658 1.362 . S
C3658 H3650 0.930 . S
C3658 C3657 1.362 . S
C3658 C3661 1.409 . S
C3659 H3651 0.930 . S
C3659 C3660 1.355 . S
C3659 C3661 1.415 . S
C3660 C3659 1.355 . S
C3660 C3662 1.419 . S
C3661 C3656 1.425 . S
C3661 C3658 1.409 . S
C3661 C3659 1.415 . S
C3662 H3652 0.930 . S
C3662 C3660 1.419 . S
C3662 C3663 1.362 . S
C3663 H3653 0.930 . S
C3663 C3656 1.409 . S
C3663 C3662 1.362 . S
H3664 C3670 0.930 . S
H3665 C3673 0.930 . S
H3666 C3674 0.930 . S
H3667 C3675 0.930 . S
H3668 C3678 0.930 . S
H3669 C3679 0.930 . S
C3670 H3664 0.930 . S
C3670 C3671 1.355 . S
C3670 C3672 1.415 . S
C3671 C3670 1.355 . S
C3671 C3673 1.419 . S
C3672 C3670 1.415 . S
C3672 C3677 1.425 . S
C3672 C3679 1.409 . S
C3673 H3665 0.930 . S
C3673 C3671 1.419 . S
C3673 C3674 1.362 . S
C3674 H3666 0.930 . S
C3674 C3673 1.362 . S
C3674 C3677 1.409 . S
C3675 H3667 0.930 . S
C3675 C3676 1.355 . S
C3675 C3677 1.415 . S
C3676 C3675 1.355 . S
C3676 C3678 1.419 . S
C3677 C3672 1.425 . S
C3677 C3674 1.409 . S
C3677 C3675 1.415 . S
C3678 H3668 0.930 . S
C3678 C3676 1.419 . S
C3678 C3679 1.362 . S
C3679 H3669 0.930 . S
C3679 C3672 1.409 . S
C3679 C3678 1.362 . S
H3680 C3686 0.930 . S
H3681 C3689 0.930 . S
H3682 C3690 0.930 . S
H3683 C3691 0.930 . S
H3684 C3694 0.930 . S
H3685 C3695 0.930 . S
C3686 H3680 0.930 . S
C3686 C3687 1.355 . S
C3686 C3688 1.415 . S
C3687 C3686 1.355 . S
C3687 C3689 1.419 . S
C3688 C3686 1.415 . S
C3688 C3693 1.425 . S
C3688 C3695 1.409 . S
C3689 H3681 0.930 . S
C3689 C3687 1.419 . S
C3689 C3690 1.362 . S
C3690 H3682 0.930 . S
C3690 C3689 1.362 . S
C3690 C3693 1.409 . S
C3691 H3683 0.930 . S
C3691 C3692 1.355 . S
C3691 C3693 1.415 . S
C3692 C3691 1.355 . S
C3692 C3694 1.419 . S
C3693 C3688 1.425 . S
C3693 C3690 1.409 . S
C3693 C3691 1.415 . S
C3694 H3684 0.930 . S
C3694 C3692 1.419 . S
C3694 C3695 1.362 . S
C3695 H3685 0.930 . S
C3695 C3688 1.409 . S
C3695 C3694 1.362 . S
H3696 C3702 0.930 . S
H3697 C3705 0.930 . S
H3698 C3706 0.930 . S
H3699 C3707 0.930 . S
H3700 C3710 0.930 . S
H3701 C3711 0.930 . S
C3702 H3696 0.930 . S
C3702 C3703 1.355 . S
C3702 C3704 1.415 . S
C3703 C3702 1.355 . S
C3703 C3705 1.419 . S
C3704 C3702 1.415 . S
C3704 C3709 1.425 . S
C3704 C3711 1.409 . S
C3705 H3697 0.930 . S
C3705 C3703 1.419 . S
C3705 C3706 1.362 . S
C3706 H3698 0.930 . S
C3706 C3705 1.362 . S
C3706 C3709 1.409 . S
C3707 H3699 0.930 . S
C3707 C3708 1.355 . S
C3707 C3709 1.415 . S
C3708 C3707 1.355 . S
C3708 C3710 1.419 . S
C3709 C3704 1.425 . S
C3709 C3706 1.409 . S
C3709 C3707 1.415 . S
C3710 H3700 0.930 . S
C3710 C3708 1.419 . S
C3710 C3711 1.362 . S
C3711 H3701 0.930 . S
C3711 C3704 1.409 . S
C3711 C3710 1.362 . S
H3712 C3718 0.930 . S
H3713 C3721 0.930 . S
H3714 C3722 0.930 . S
H3715 C3723 0.930 . S
H3716 C3726 0.930 . S
H3717 C3727 0.930 . S
C3718 H3712 0.930 . S
C3718 C3719 1.355 . S
C3718 C3720 1.415 . S
C3719 C3718 1.355 . S
C3719 C3721 1.419 . S
C3720 C3718 1.415 . S
C3720 C3725 1.425 . S
C3720 C3727 1.409 . S
C3721 H3713 0.930 . S
C3721 C3719 1.419 . S
C3721 C3722 1.362 . S
C3722 H3714 0.930 . S
C3722 C3721 1.362 . S
C3722 C3725 1.409 . S
C3723 H3715 0.930 . S
C3723 C3724 1.355 . S
C3723 C3725 1.415 . S
C3724 C3723 1.355 . S
C3724 C3726 1.419 . S
C3725 C3720 1.425 . S
C3725 C3722 1.409 . S
C3725 C3723 1.415 . S
C3726 H3716 0.930 . S
C3726 C3724 1.419 . S
C3726 C3727 1.362 . S
C3727 H3717 0.930 . S
C3727 C3720 1.409 . S
C3727 C3726 1.362 . S
H3728 C3734 0.930 . S
H3729 C3737 0.930 . S
H3730 C3738 0.930 . S
H3731 C3739 0.930 . S
H3732 C3742 0.930 . S
H3733 C3743 0.930 . S
C3734 H3728 0.930 . S
C3734 C3735 1.355 . S
C3734 C3736 1.415 . S
C3735 C3734 1.355 . S
C3735 C3737 1.419 . S
C3736 C3734 1.415 . S
C3736 C3741 1.425 . S
C3736 C3743 1.409 . S
C3737 H3729 0.930 . S
C3737 C3735 1.419 . S
C3737 C3738 1.362 . S
C3738 H3730 0.930 . S
C3738 C3737 1.362 . S
C3738 C3741 1.409 . S
C3739 H3731 0.930 . S
C3739 C3740 1.355 . S
C3739 C3741 1.415 . S
C3740 C3739 1.355 . S
C3740 C3742 1.419 . S
C3741 C3736 1.425 . S
C3741 C3738 1.409 . S
C3741 C3739 1.415 . S
C3742 H3732 0.930 . S
C3742 C3740 1.419 . S
C3742 C3743 1.362 . S
C3743 H3733 0.930 . S
C3743 C3736 1.409 . S
C3743 C3742 1.362 . S
H3744 C3750 0.930 . S
H3745 C3753 0.930 . S
H3746 C3754 0.930 . S
H3747 C3755 0.930 . S
H3748 C3758 0.930 . S
H3749 C3759 0.930 . S
C3750 H3744 0.930 . S
C3750 C3751 1.355 . S
C3750 C3752 1.415 . S
C3751 C3750 1.355 . S
C3751 C3753 1.419 . S
C3752 C3750 1.415 . S
C3752 C3757 1.425 . S
C3752 C3759 1.409 . S
C3753 H3745 0.930 . S
C3753 C3751 1.419 . S
C3753 C3754 1.362 . S
C3754 H3746 0.930 . S
C3754 C3753 1.362 . S
C3754 C3757 1.409 . S
C3755 H3747 0.930 . S
C3755 C3756 1.355 . S
C3755 C3757 1.415 . S
C3756 C3755 1.355 . S
C3756 C3758 1.419 . S
C3757 C3752 1.425 . S
C3757 C3754 1.409 . S
C3757 C3755 1.415 . S
C3758 H3748 0.930 . S
C3758 C3756 1.419 . S
C3758 C3759 1.362 . S
C3759 H3749 0.930 . S
C3759 C3752 1.409 . S
C3759 C3758 1.362 . S
H3760 C3766 0.930 . S
H3761 C3769 0.930 . S
H3762 C3770 0.930 . S
H3763 C3771 0.930 . S
H3764 C3774 0.930 . S
H3765 C3775 0.930 . S
C3766 H3760 0.930 . S
C3766 C3767 1.355 . S
C3766 C3768 1.415 . S
C3767 C3766 1.355 . S
C3767 C3769 1.419 . S
C3768 C3766 1.415 . S
C3768 C3773 1.425 . S
C3768 C3775 1.409 . S
C3769 H3761 0.930 . S
C3769 C3767 1.419 . S
C3769 C3770 1.362 . S
C3770 H3762 0.930 . S
C3770 C3769 1.362 . S
C3770 C3773 1.409 . S
C3771 H3763 0.930 . S
C3771 C3772 1.355 . S
C3771 C3773 1.415 . S
C3772 C3771 1.355 . S
C3772 C3774 1.419 . S
C3773 C3768 1.425 . S
C3773 C3770 1.409 . S
C3773 C3771 1.415 . S
C3774 H3764 0.930 . S
C3774 C3772 1.419 . S
C3774 C3775 1.362 . S
C3775 H3765 0.930 . S
C3775 C3768 1.409 . S
C3775 C3774 1.362 . S
H3776 C3782 0.930 . S
H3777 C3785 0.930 . S
H3778 C3786 0.930 . S
H3779 C3787 0.930 . S
H3780 C3790 0.930 . S
H3781 C3791 0.930 . S
C3782 H3776 0.930 . S
C3782 C3783 1.355 . S
C3782 C3784 1.415 . S
C3783 C3782 1.355 . S
C3783 C3785 1.419 . S
C3784 C3782 1.415 . S
C3784 C3789 1.425 . S
C3784 C3791 1.409 . S
C3785 H3777 0.930 . S
C3785 C3783 1.419 . S
C3785 C3786 1.362 . S
C3786 H3778 0.930 . S
C3786 C3785 1.362 . S
C3786 C3789 1.409 . S
C3787 H3779 0.930 . S
C3787 C3788 1.355 . S
C3787 C3789 1.415 . S
C3788 C3787 1.355 . S
C3788 C3790 1.419 . S
C3789 C3784 1.425 . S
C3789 C3786 1.409 . S
C3789 C3787 1.415 . S
C3790 H3780 0.930 . S
C3790 C3788 1.419 . S
C3790 C3791 1.362 . S
C3791 H3781 0.930 . S
C3791 C3784 1.409 . S
C3791 C3790 1.362 . S
H3792 C3798 0.930 . S
H3793 C3801 0.930 . S
H3794 C3802 0.930 . S
H3795 C3803 0.930 . S
H3796 C3806 0.930 . S
H3797 C3807 0.930 . S
C3798 H3792 0.930 . S
C3798 C3799 1.355 . S
C3798 C3800 1.415 . S
C3799 C3798 1.355 . S
C3799 C3801 1.419 . S
C3800 C3798 1.415 . S
C3800 C3805 1.425 . S
C3800 C3807 1.409 . S
C3801 H3793 0.930 . S
C3801 C3799 1.419 . S
C3801 C3802 1.362 . S
C3802 H3794 0.930 . S
C3802 C3801 1.362 . S
C3802 C3805 1.409 . S
C3803 H3795 0.930 . S
C3803 C3804 1.355 . S
C3803 C3805 1.415 . S
C3804 C3803 1.355 . S
C3804 C3806 1.419 . S
C3805 C3800 1.425 . S
C3805 C3802 1.409 . S
C3805 C3803 1.415 . S
C3806 H3796 0.930 . S
C3806 C3804 1.419 . S
C3806 C3807 1.362 . S
C3807 H3797 0.930 . S
C3807 C3800 1.409 . S
C3807 C3806 1.362 . S
H3808 C3814 0.930 . S
H3809 C3817 0.930 . S
H3810 C3818 0.930 . S
H3811 C3819 0.930 . S
H3812 C3822 0.930 . S
H3813 C3823 0.930 . S
C3814 H3808 0.930 . S
C3814 C3815 1.355 . S
C3814 C3816 1.415 . S
C3815 C3814 1.355 . S
C3815 C3817 1.419 . S
C3816 C3814 1.415 . S
C3816 C3821 1.425 . S
C3816 C3823 1.409 . S
C3817 H3809 0.930 . S
C3817 C3815 1.419 . S
C3817 C3818 1.362 . S
C3818 H3810 0.930 . S
C3818 C3817 1.362 . S
C3818 C3821 1.409 . S
C3819 H3811 0.930 . S
C3819 C3820 1.355 . S
C3819 C3821 1.415 . S
C3820 C3819 1.355 . S
C3820 C3822 1.419 . S
C3821 C3816 1.425 . S
C3821 C3818 1.409 . S
C3821 C3819 1.415 . S
C3822 H3812 0.930 . S
C3822 C3820 1.419 . S
C3822 C3823 1.362 . S
C3823 H3813 0.930 . S
C3823 C3816 1.409 . S
C3823 C3822 1.362 . S
H3824 C3830 0.930 . S
H3825 C3833 0.930 . S
H3826 C3834 0.930 . S
H3827 C3835 0.930 . S
H3828 C3838 0.930 . S
H3829 C3839 0.930 . S
C3830 H3824 0.930 . S
C3830 C3831 1.355 . S
C3830 C3832 1.415 . S
C3831 C3830 1.355 . S
C3831 C3833 1.419 . S
C3832 C3830 1.415 . S
C3832 C3837 1.425 . S
C3832 C3839 1.409 . S
C3833 H3825 0.930 . S
C3833 C3831 1.419 . S
C3833 C3834 1.362 . S
C3834 H3826 0.930 . S
C3834 C3833 1.362 . S
C3834 C3837 1.409 . S
C3835 H3827 0.930 . S
C3835 C3836 1.355 . S
C3835 C3837 1.415 . S
C3836 C3835 1.355 . S
C3836 C3838 1.419 . S
C3837 C3832 1.425 . S
C3837 C3834 1.409 . S
C3837 C3835 1.415 . S
C3838 H3828 0.930 . S
C3838 C3836 1.419 . S
C3838 C3839 1.362 . S
C3839 H3829 0.930 . S
C3839 C3832 1.409 . S
C3839 C3838 1.362 . S
C2823 C585 1.734 . S
C2828 C20 1.718 . S
C2839 C108 1.747 . S
C2844 C673 1.743 . S
C2855 C401 1.725 . S
C2860 C196 1.739 . S
C2871 C293 1.720 . S
C2876 C497 1.704 . S
C2887 C761 1.740 . S
C2892 C1261 1.738 . S
C2903 C1340 1.740 . S
C2908 C849 1.738 . S
C2919 C937 1.740 . S
C2924 C1085 1.730 . S
C2935 C1164 1.705 . S
C2940 C1025 1.689 . S
C2951 C1428 1.740 . S
C2956 C1993 1.747 . S
C2967 C1516 1.715 . S
C2972 C2081 1.700 . S
C2983 C1809 1.704 . S
C2988 C1604 1.693 . S
C2999 C1897 1.743 . S
C3004 C1701 1.748 . S
C3015 C2132 1.741 . S
C3020 C2660 1.736 . S
C3031 C2257 1.694 . S
C3036 C2748 1.685 . S
C3047 C2484 1.692 . S
C3052 C2345 1.710 . S
C3063 C2433 1.736 . S
C3068 C2572 1.741 . S
C3079 C49 1.677 . S
C3084 C645 1.670 . S
C3095 C372 1.671 . S
C3100 C137 1.663 . S
C3111 C469 1.658 . S
C3116 C225 1.665 . S
C3127 C321 1.668 . S
C3132 C557 1.660 . S
C3143 C733 1.658 . S
C3148 C1369 1.664 . S
C3159 C1113 1.646 . S
C3164 C821 1.647 . S
C3175 C1193 1.672 . S
C3180 C909 1.670 . S
C3191 C1289 1.665 . S
C3196 C997 1.670 . S
C3207 C1457 1.661 . S
C3212 C2053 1.669 . S
C3223 C1545 1.673 . S
C3228 C1780 1.679 . S
C3239 C1868 1.672 . S
C3244 C1633 1.678 . S
C3255 C1729 1.662 . S
C3260 C1965 1.670 . S
C3271 C2161 1.666 . S
C3276 C2777 1.670 . S
C3287 C2513 1.672 . S
C3292 C2229 1.669 . S
C3303 C2317 1.658 . S
C3308 C2601 1.652 . S
C3319 C2405 1.653 . S
C3324 C2689 1.659 . S
C3335 C2669 1.469 . S
C3340 C57 1.487 . S
C3351 C1349 1.479 . S
C3356 C145 1.480 . S
C3367 C233 1.484 . S
C3372 C2493 1.472 . S
C3383 C313 1.489 . S
C3388 C1173 1.466 . S
C3399 C381 1.489 . S
C3404 C2337 1.466 . S
C3415 C460 1.472 . S
C3420 C1017 1.488 . S
C3431 C548 1.485 . S
C3436 C2141 1.471 . S
C3447 C841 1.466 . S
C3452 C636 1.489 . S
C3463 C1956 1.489 . S
C3468 C753 1.467 . S
C3479 C929 1.486 . S
C3484 C1789 1.473 . S
C3495 C1641 1.471 . S
C3500 C1076 1.488 . S
C3511 C1465 1.489 . S
C3516 C1252 1.466 . S
C3527 C1553 1.471 . S
C3532 C2757 1.489 . S
C3543 C1721 1.487 . S
C3548 C2581 1.469 . S
C3559 C1877 1.470 . S
C3564 C2425 1.490 . S
C3575 C2249 1.466 . S
C3580 C2044 1.489 . S
C3591 C29 0.457 . S
C3596 C665 0.482 . S
C3607 C117 0.438 . S
C3612 C409 0.459 . S
C3623 C489 0.533 . S
C3628 C205 0.524 . S
C3639 C284 0.534 . S
C3644 C577 0.527 . S
C3655 C1377 0.517 . S
C3660 C724 0.517 . S
C3671 C1105 0.511 . S
C3676 C812 0.517 . S
C3687 C900 0.427 . S
C3692 C1201 0.442 . S
C3703 C1281 0.516 . S
C3708 C988 0.506 . S
C3719 C2073 0.468 . S
C3724 C1437 0.493 . S
C3735 C1817 0.449 . S
C3740 C1525 0.431 . S
C3751 C1905 0.491 . S
C3756 C1613 0.466 . S
C3767 C1985 0.532 . S
C3772 C1692 0.520 . S
C3783 C2169 0.461 . S
C3788 C2785 0.482 . S
C3799 C2220 0.516 . S
C3804 C2521 0.506 . S
C3815 C2308 0.498 . S
C3820 C2609 0.511 . S
C3831 C2697 0.458 . S
C3836 C2396 0.439 . S
