# Generated by pormake.
# Topology irl, (4)-cn, num edge types: 1
# Building blocks:
#     Node 0, Type 0, BuildingBlock: NAHDIM_clean_sbu_0, # of connection points: 4
#     Node 1, Type 0, BuildingBlock: NAHDIM_clean_sbu_0, # of connection points: 4
#     Node 2, Type 0, BuildingBlock: NAHDIM_clean_sbu_0, # of connection points: 4
#     Node 3, Type 0, BuildingBlock: NAHDIM_clean_sbu_0, # of connection points: 4
#     Node 4, Type 0, BuildingBlock: NAHDIM_clean_sbu_0, # of connection points: 4
#     Node 5, Type 0, BuildingBlock: NAHDIM_clean_sbu_0, # of connection points: 4
#     Node 6, Type 0, BuildingBlock: NAHDIM_clean_sbu_0, # of connection points: 4
#     Node 7, Type 0, BuildingBlock: NAHDIM_clean_sbu_0, # of connection points: 4
#     Edge 8, Type (0, 0), BuildingBlock: FUNLAD_clean_linker_0, # of connection points: 2
#     Edge 9, Type (0, 0), BuildingBlock: FUNLAD_clean_linker_0, # of connection points: 2
#     Edge 10, Type (0, 0), BuildingBlock: FUNLAD_clean_linker_0, # of connection points: 2
#     Edge 11, Type (0, 0), BuildingBlock: FUNLAD_clean_linker_0, # of connection points: 2
#     Edge 12, Type (0, 0), BuildingBlock: FUNLAD_clean_linker_0, # of connection points: 2
#     Edge 13, Type (0, 0), BuildingBlock: FUNLAD_clean_linker_0, # of connection points: 2
#     Edge 14, Type (0, 0), BuildingBlock: FUNLAD_clean_linker_0, # of connection points: 2
#     Edge 15, Type (0, 0), BuildingBlock: FUNLAD_clean_linker_0, # of connection points: 2
#     Edge 16, Type (0, 0), BuildingBlock: FUNLAD_clean_linker_0, # of connection points: 2
#     Edge 17, Type (0, 0), BuildingBlock: FUNLAD_clean_linker_0, # of connection points: 2
#     Edge 18, Type (0, 0), BuildingBlock: FUNLAD_clean_linker_0, # of connection points: 2
#     Edge 19, Type (0, 0), BuildingBlock: FUNLAD_clean_linker_0, # of connection points: 2
#     Edge 20, Type (0, 0), BuildingBlock: FUNLAD_clean_linker_0, # of connection points: 2
#     Edge 21, Type (0, 0), BuildingBlock: FUNLAD_clean_linker_0, # of connection points: 2
#     Edge 22, Type (0, 0), BuildingBlock: FUNLAD_clean_linker_0, # of connection points: 2
#     Edge 23, Type (0, 0), BuildingBlock: FUNLAD_clean_linker_0, # of connection points: 2
# Relax obj value: 0.191
# Max RMSD: 0.181
# Mean RMSD: 0.181
data_MOF--net-irl--node1-NAHDIM_clean_sbu_0--edge1-FUNLAD_clean_linker_0
_symmetry_space_group_name_H-M    P1
_symmetry_Int_Tables_number       1
_symmetry_cell_setting            triclinic
loop_
_symmetry_equiv_pos_as_xyz
'x, y, z'
_cell_length_a     46.731333
_cell_length_b     41.599752
_cell_length_c     30.849716
_cell_angle_alpha  89.550988
_cell_angle_beta   89.923267
_cell_angle_gamma 89.705148
loop_
_atom_site_label
_atom_site_type_symbol
_atom_site_fract_x
_atom_site_fract_y
_atom_site_fract_z
_atom_type_partial_charge
C0 C 0.11042 0.23246 0.00034 0.0
O1 O 0.09519 0.25562 0.98244 0.0
O2 O 0.03376 0.21533 0.05411 0.0
Zn3 Zn 0.05602 0.20079 0.00234 0.0
O4 O 0.04438 0.22559 0.94931 0.0
C5 C 0.02331 0.1427 -0.00242 0.0
O6 O 0.00245 0.1623 0.00863 0.0
O7 O 0.09808 0.2067 0.01219 0.0
C8 C 0.01903 0.23549 0.9425 0.0
O9 O -0.00095 0.22973 0.97149 0.0
C10 C 0.03442 0.24373 0.06888 0.0
O11 O 0.05048 0.26542 0.0497 0.0
O12 O 0.0484 0.15383 -0.0072 0.0
C13 C 0.87347 0.76495 0.9797 0.0
O14 O 0.888 0.74499 0.95516 0.0
O15 O 0.95087 0.77286 0.03499 0.0
Zn16 Zn 0.92834 0.79514 0.98798 0.0
O17 O 0.93887 0.78012 0.92846 0.0
C18 C 0.96072 0.85348 0.98339 0.0
O19 O 0.98133 0.83343 0.97274 0.0
O20 O 0.88637 0.7882 -0.00256 0.0
C21 C 0.96045 0.76291 0.91889 0.0
O22 O 0.97798 0.75332 0.94969 0.0
C23 C 0.94254 0.74738 0.05408 0.0
O24 O 0.91888 0.73347 0.04127 0.0
O25 O 0.93594 0.8425 -0.00859 0.0
C26 C 0.11014 0.77435 0.49298 0.0
O27 O 0.0921 0.75032 0.4904 0.0
O28 O 0.05082 0.78656 0.42108 0.0
Zn29 Zn 0.05857 0.80709 0.47853 0.0
O30 O 0.03859 0.78459 0.52764 0.0
C31 C 0.0266 0.86292 0.45141 0.0
O32 O 0.01376 0.84151 0.42726 0.0
O33 O 0.10066 0.80291 0.48913 0.0
C34 C 0.01206 0.78738 0.53577 0.0
O35 O -0.00407 0.80504 0.51003 0.0
C36 C 0.03667 0.76105 0.41463 0.0
O37 O 0.02499 0.74585 0.44761 0.0
O38 O 0.04677 0.85387 0.47637 0.0
C39 C 0.8758 0.23768 0.51056 0.0
O40 O 0.89159 0.26368 0.50801 0.0
O41 O 0.94049 0.23194 0.4474 0.0
Zn42 Zn 0.93059 0.20952 0.50328 0.0
O43 O 0.94769 0.23218 0.55407 0.0
C44 C 0.94995 0.14867 0.46785 0.0
O45 O 0.94579 0.16337 0.43052 0.0
O46 O 0.88798 0.21034 0.50954 0.0
C47 C 0.97288 0.22531 0.56661 0.0
O48 O 0.98786 0.20391 0.54505 0.0
C49 C 0.96256 0.24909 0.44127 0.0
O50 O 0.98081 0.25312 0.47306 0.0
O51 O 0.94464 0.16358 0.50278 0.0
C52 C 0.61164 0.725 0.00436 0.0
O53 O 0.59685 0.75091 0.0141 0.0
O54 O 0.54684 0.71998 0.06261 0.0
Zn55 Zn 0.556 0.69908 0.00577 0.0
O56 O 0.53996 0.72326 0.95472 0.0
C57 C 0.5201 0.6446 0.02724 0.0
O58 O 0.50622 0.66582 0.05068 0.0
O59 O 0.59853 0.69866 -0.00089 0.0
C60 C 0.51399 0.72134 0.943 0.0
O61 O 0.49612 0.70417 0.96639 0.0
C62 C 0.5304 0.744 0.06829 0.0
O63 O 0.51716 0.75707 0.03496 0.0
O64 O 0.54186 0.65345 0.00555 0.0
C65 C 0.37231 0.2737 -0.00489 0.0
O66 O 0.38659 0.25144 0.97407 0.0
O67 O 0.44754 0.27623 0.05688 0.0
Zn68 Zn 0.42866 0.29894 0.00667 0.0
O69 O 0.4403 0.27988 0.94974 0.0
C70 C 0.46548 0.35344 0.01802 0.0
O71 O 0.48387 0.33089 0.0292 0.0
O72 O 0.38591 0.29664 0.01238 0.0
C73 C 0.4658 0.2717 0.94063 0.0
O74 O 0.4859 0.27481 0.97 0.0
C75 C 0.43616 0.25344 0.07836 0.0
O76 O 0.41102 0.24258 0.06666 0.0
O77 O 0.44028 0.34549 0.00711 0.0
C78 C 0.61403 0.28312 0.51226 0.0
O79 O 0.59788 0.25735 0.51258 0.0
O80 O 0.55129 0.28981 0.44124 0.0
Zn81 Zn 0.56003 0.31204 0.49718 0.0
O82 O 0.54126 0.29028 0.54793 0.0
C83 C 0.54639 0.3736 0.45818 0.0
O84 O 0.55475 0.35907 0.42265 0.0
O85 O 0.6024 0.31044 0.50616 0.0
C86 C 0.51572 0.29701 0.55879 0.0
O87 O 0.50099 0.31765 0.5352 0.0
C88 C 0.53415 0.2665 0.43652 0.0
O89 O 0.52024 0.25513 0.47028 0.0
O90 O 0.54694 0.35823 0.49395 0.0
C91 C 0.37289 0.74412 0.51323 0.0
O92 O 0.39076 0.7684 0.51213 0.0
O93 O 0.43448 0.73273 0.44368 0.0
Zn94 Zn 0.42494 0.71143 0.50047 0.0
O95 O 0.44378 0.73264 0.55112 0.0
C96 C 0.45684 0.65486 0.47567 0.0
O97 O 0.47097 0.67588 0.45205 0.0
O98 O 0.38267 0.71577 0.50892 0.0
C99 C 0.46946 0.72705 0.56243 0.0
O100 O 0.48536 0.70779 0.53884 0.0
C101 C 0.45373 0.75368 0.43718 0.0
O102 O 0.46967 0.76315 0.46965 0.0
O103 O 0.43606 0.66449 0.49895 0.0
C104 C -0.00639 0.90072 0.97729 0.0
C105 C 0.96627 0.8884 0.98625 0.0
C106 C -0.00112 0.93368 0.98028 0.0
C107 C 0.97681 0.95509 -0.00793 0.0
C108 C 0.9496 0.94266 0.00139 0.0
C109 C 0.94433 0.90974 -0.00164 0.0
C110 C 0.98137 0.99027 -0.00349 0.0
C111 C 0.00277 0.00647 0.97693 0.0
C112 C 0.00726 0.0416 0.98204 0.0
C113 C 0.03477 0.05409 0.9752 0.0
C114 C 0.04001 0.08691 0.9801 0.0
C115 C 0.01774 0.10803 -0.00841 0.0
H116 H 0.96311 0.05452 -0.00337 0.0
C117 C 0.99007 0.09569 -0.00249 0.0
C118 C 0.98483 0.06287 -0.00735 0.0
H119 H 0.97236 0.11136 0.00588 0.0
H120 H 0.01105 0.88488 0.96824 0.0
H121 H 0.02041 0.94199 0.97417 0.0
H122 H 0.93226 0.95851 0.0109 0.0
H123 H 0.92303 0.90105 0.00566 0.0
H124 H 0.96618 1.00317 0.01664 0.0
H125 H 0.01811 0.99368 0.95695 0.0
H126 H 0.05237 0.03834 0.96655 0.0
H127 H 0.06156 0.09566 0.97505 0.0
C128 C 0.03058 0.92014 0.47593 0.0
C129 C 0.01744 0.89704 0.44967 0.0
C130 C 0.02173 0.95231 0.47427 0.0
C131 C -0.00061 0.96202 0.44642 0.0
C132 C 0.98659 0.93897 0.41982 0.0
C133 C -0.00461 0.90685 0.42153 0.0
C134 C 0.98932 0.99594 0.44319 0.0
C135 C -0.00749 0.0176 0.47507 0.0
C136 C 0.98158 0.0512 0.47209 0.0
C137 C 0.976 0.06797 0.51052 0.0
C138 C 0.96566 0.09955 0.5092 0.0
C139 C 0.96088 0.1152 0.46929 0.0
H140 H 0.98217 0.05544 0.40173 0.0
C141 C 0.9669 0.09864 0.43078 0.0
C142 C 0.97723 0.06705 0.43211 0.0
H143 H 0.96376 0.11012 0.39949 0.0
H144 H 0.0478 0.91342 0.49771 0.0
H145 H 0.03281 0.96944 0.49432 0.0
H146 H 0.96952 0.94578 0.39779 0.0
H147 H 0.98487 0.88973 0.4007 0.0
H148 H 0.97741 1.00261 0.41427 0.0
H149 H 0.00204 0.01014 0.50562 0.0
H150 H 0.97942 0.0565 0.54177 0.0
H151 H 0.96143 0.11166 0.5395 0.0
C152 C 0.52597 0.58785 0.00201 0.0
C153 C 0.51058 0.61074 0.02604 0.0
C154 C 0.51717 0.55583 0.00109 0.0
C155 C 0.49281 0.54592 0.02441 0.0
C156 C 0.47715 0.56891 0.04775 0.0
C157 C 0.48601 0.60095 0.04878 0.0
C158 C 0.48274 0.5121 0.02418 0.0
C159 C 0.50036 0.48683 0.01775 0.0
C160 C 0.49059 0.45289 0.01811 0.0
C161 C 0.5105 0.4285 0.02767 0.0
C162 C 0.50232 0.39624 0.02787 0.0
C163 C 0.47405 0.38764 0.01801 0.0
H164 H 0.44653 0.46227 -0.00106 0.0
C165 C 0.45415 0.41201 0.00788 0.0
C166 C 0.46231 0.44429 0.00784 0.0
H167 H 0.43224 0.40617 -0.00022 0.0
H168 H 0.54484 0.59465 0.98376 0.0
H169 H 0.52927 0.53911 0.9815 0.0
H170 H 0.45815 0.56201 0.06562 0.0
H171 H 0.47356 0.618 0.0674 0.0
H172 H 0.46038 0.50796 0.0319 0.0
H173 H 0.52319 0.49085 0.01429 0.0
H174 H 0.53248 0.43441 0.0353 0.0
H175 H 0.51824 0.37807 0.0356 0.0
C176 C 0.52811 0.42328 0.49471 0.0
C177 C 0.53639 0.40742 0.4566 0.0
C178 C 0.51878 0.45525 0.49325 0.0
C179 C 0.51728 0.47203 0.45348 0.0
C180 C 0.5258 0.45621 0.41551 0.0
C181 C 0.53516 0.42426 0.41698 0.0
C182 C 0.50807 0.50627 0.45041 0.0
C183 C 0.49176 0.52096 0.48051 0.0
C184 C 0.4829 0.55534 0.47767 0.0
C185 C 0.45912 0.56566 0.50182 0.0
C186 C 0.45047 0.59788 0.50095 0.0
C187 C 0.46557 0.62059 0.47605 0.0
H188 H 0.51715 0.57157 0.43503 0.0
C189 C 0.48947 0.61036 0.45206 0.0
C190 C 0.49815 0.57816 0.45298 0.0
H191 H 0.50177 0.6273 0.43287 0.0
H192 H 0.52903 0.41109 0.52584 0.0
H193 H 0.51335 0.46676 0.5235 0.0
H194 H 0.52514 0.46859 0.38449 0.0
H195 H 0.54145 0.4128 0.38701 0.0
H196 H 0.51411 0.51931 0.42122 0.0
H197 H 0.4835 0.50711 0.50769 0.0
H198 H 0.44712 0.54871 0.52145 0.0
H199 H 0.43202 0.60497 0.51996 0.0
C200 C 0.02336 0.28017 0.13115 0.0
C201 C 0.01839 0.25144 0.10877 0.0
C202 C 0.00992 0.28587 0.17092 0.0
C203 C 0.99124 0.26288 0.18886 0.0
C204 C 0.98516 0.23507 0.16525 0.0
C205 C -0.0013 0.22929 0.1258 0.0
C206 C 0.97859 0.26601 0.23273 0.0
C207 C 0.99126 0.28213 0.26515 0.0
C208 C 0.98218 0.27831 0.31105 0.0
C209 C 0.0028 0.28115 0.34384 0.0
C210 C -0.00385 0.27299 0.3867 0.0
C211 C 0.96871 0.26186 0.39747 0.0
H212 H 0.93725 0.26857 0.29856 0.0
C213 C 0.94752 0.26122 0.36524 0.0
C214 C 0.95409 0.26963 0.32253 0.0
H215 H 0.92596 0.25348 0.37277 0.0
H216 H 0.03819 0.29786 0.11855 0.0
H217 H 0.01442 0.30807 0.18757 0.0
H218 H 0.97063 0.21713 0.1781 0.0
H219 H -0.0059 0.2071 0.10907 0.0
H220 H 0.96027 0.2509 0.23982 0.0
H221 H 0.0111 0.29485 0.25902 0.0
H222 H 0.0245 0.2882 0.33598 0.0
H223 H 0.01286 0.27406 0.41094 0.0
C224 C 0.01236 0.72596 0.36021 0.0
C225 C 0.03276 0.74954 0.36985 0.0
C226 C 0.00726 0.71722 0.31719 0.0
C227 C 0.0226 0.7319 0.28312 0.0
C228 C 0.04405 0.75408 0.29314 0.0
C229 C 0.04895 0.76299 0.33593 0.0
C230 C 0.01591 0.72656 0.23673 0.0
C231 C 0.98954 0.71917 0.22252 0.0
C232 C 0.98066 0.72265 0.17647 0.0
C233 C 0.95593 0.70683 0.16241 0.0
C234 C 0.94434 0.71347 0.12152 0.0
C235 C 0.95709 0.73644 0.09411 0.0
H236 H 0.01279 0.75795 0.1578 0.0
C237 C 0.98256 0.75118 0.10733 0.0
C238 C -0.00581 0.74447 0.14805 0.0
H239 H -0.00708 0.769 0.08698 0.0
H240 H -0.0002 0.71487 0.38574 0.0
H241 H 0.99117 0.69927 0.31085 0.0
H242 H 0.05634 0.76556 0.26759 0.0
H243 H 0.06512 0.7809 0.3423 0.0
H244 H 0.03254 0.7325 0.21346 0.0
H245 H 0.97291 0.71285 0.24562 0.0
H246 H 0.94496 0.69011 0.18371 0.0
H247 H 0.92468 0.70169 0.1123 0.0
C248 C 0.01788 0.75496 0.60384 0.0
C249 C 0.00037 0.7737 0.57644 0.0
C250 C 0.00817 0.74531 0.6447 0.0
C251 C 0.98077 0.75445 0.65916 0.0
C252 C 0.96262 0.7713 0.63063 0.0
C253 C 0.97233 0.78095 0.5897 0.0
C254 C 0.97095 0.74859 0.70432 0.0
C255 C 0.98908 0.74653 0.73823 0.0
C256 C 0.97977 0.74744 0.78429 0.0
C257 C -0.00105 0.73712 0.81663 0.0
C258 C -0.00763 0.7411 0.86051 0.0
C259 C 0.96654 0.75581 0.87289 0.0
H260 H 0.93843 0.77053 0.77327 0.0
C261 C 0.94701 0.76533 0.84061 0.0
C262 C 0.95354 0.76132 0.79685 0.0
H263 H 0.9269 0.77677 0.84903 0.0
H264 H 0.03943 0.74842 0.59423 0.0
H265 H 0.02239 0.73116 0.66497 0.0
H266 H 0.94128 0.7783 0.64074 0.0
H267 H 0.9582 0.79508 0.56919 0.0
H268 H 0.94802 0.74894 0.70993 0.0
H269 H 0.012 0.74612 0.73253 0.0
H270 H 0.0194 0.72661 0.8079 0.0
H271 H 0.00788 0.7335 0.8846 0.0
C272 C 0.03353 0.26025 0.87194 0.0
C273 C 0.01173 0.24987 0.90005 0.0
C274 C 0.0272 0.26941 0.8294 0.0
C275 C -0.00106 0.26778 0.81392 0.0
C276 C 0.97691 0.2599 0.8431 0.0
C277 C 0.98322 0.25103 0.88581 0.0
C278 C 0.99184 0.27127 0.76719 0.0
C279 C 0.01079 0.26454 0.73547 0.0
C280 C 0.00228 0.25878 0.68985 0.0
C281 C 0.01955 0.23847 0.66465 0.0
C282 C 0.01054 0.22858 0.62379 0.0
C283 C 0.98408 0.23898 0.60719 0.0
H284 H 0.96338 0.28775 0.68955 0.0
C285 C 0.96769 0.26108 0.63106 0.0
C286 C 0.97674 0.27103 0.67193 0.0
H287 H 0.94744 0.27004 0.61874 0.0
H288 H 0.05566 0.26039 0.88239 0.0
H289 H 0.04464 0.27685 0.8086 0.0
H290 H 0.95489 0.25891 0.83223 0.0
H291 H 0.96592 0.24348 0.90689 0.0
H292 H 0.96943 0.27477 0.75918 0.0
H293 H 0.0327 0.25845 0.7439 0.0
H294 H 0.03951 0.22899 0.67739 0.0
H295 H 0.02385 0.21185 0.60599 0.0
C296 C 0.50292 0.77732 0.12168 0.0
C297 C 0.52561 0.75612 0.11261 0.0
C298 C 0.49719 0.78648 0.16438 0.0
C299 C 0.51418 0.77464 0.19868 0.0
C300 C 0.53778 0.75496 0.18919 0.0
C301 C 0.54333 0.74558 0.1467 0.0
C302 C 0.50716 0.78053 0.24484 0.0
C303 C 0.48007 0.7838 0.25911 0.0
C304 C 0.47242 0.78044 0.30559 0.0
C305 C 0.44626 0.76604 0.3163 0.0
C306 C 0.43985 0.75826 0.35926 0.0
C307 C 0.45931 0.76519 0.39256 0.0
H308 H 0.51117 0.80117 0.33207 0.0
C309 C 0.48467 0.78158 0.38225 0.0
C310 C 0.49121 0.78912 0.3391 0.0
H311 H 0.49992 0.78759 0.40727 0.0
H312 H 0.48911 0.78614 0.096 0.0
H313 H 0.47932 0.80248 0.17042 0.0
H314 H 0.55134 0.74573 0.21494 0.0
H315 H 0.56124 0.72959 0.14072 0.0
H316 H 0.52434 0.77722 0.26817 0.0
H317 H 0.4626 0.78396 0.23592 0.0
H318 H 0.43129 0.75939 0.29115 0.0
H319 H 0.41992 0.74606 0.36621 0.0
C320 C 0.5059 0.23298 0.38477 0.0
C321 C 0.52889 0.25375 0.39268 0.0
C322 C 0.49951 0.22352 0.34245 0.0
C323 C 0.5161 0.23467 0.30734 0.0
C324 C 0.54006 0.25381 0.31571 0.0
C325 C 0.54629 0.26344 0.35782 0.0
C326 C 0.50831 0.2289 0.26145 0.0
C327 C 0.4811 0.22507 0.24817 0.0
C328 C 0.47215 0.22826 0.20213 0.0
C329 C 0.44559 0.21581 0.18954 0.0
C330 C 0.43445 0.22256 0.1484 0.0
C331 C 0.44954 0.24231 0.11923 0.0
H332 H 0.50796 0.25774 0.18063 0.0
C333 C 0.47665 0.25365 0.13111 0.0
C334 C 0.48782 0.24682 0.17208 0.0
H335 H 0.48883 0.26894 0.10938 0.0
H336 H 0.49233 0.22476 0.41105 0.0
H337 H 0.48142 0.20786 0.33744 0.0
H338 H 0.55335 0.26251 0.28934 0.0
H339 H 0.56442 0.2791 0.36287 0.0
H340 H 0.52523 0.23153 0.23757 0.0
H341 H 0.46414 0.22209 0.27191 0.0
H342 H 0.43297 0.20168 0.21212 0.0
H343 H 0.41348 0.21344 0.14024 0.0
C344 C 0.45122 0.25613 0.86577 0.0
C345 C 0.47305 0.26224 0.89586 0.0
C346 C 0.45775 0.25101 0.82218 0.0
C347 C 0.48629 0.25239 0.80765 0.0
C348 C 0.50818 0.25643 0.83827 0.0
C349 C 0.50166 0.26133 0.88194 0.0
C350 C 0.49405 0.25153 0.76092 0.0
C351 C 0.47583 0.26028 0.729 0.0
C352 C 0.48496 0.26606 0.68345 0.0
C353 C 0.46853 0.28705 0.65757 0.0
C354 C 0.47793 0.29616 0.6163 0.0
C355 C 0.50396 0.28434 0.59998 0.0
H356 H 0.52278 0.23529 0.68398 0.0
C357 C 0.51955 0.2618 0.62471 0.0
C358 C 0.51009 0.25258 0.66593 0.0
H359 H 0.53945 0.25178 0.61268 0.0
H360 H 0.42898 0.256 0.87569 0.0
H361 H 0.44031 0.24653 0.80009 0.0
H362 H 0.53038 0.25716 0.82812 0.0
H363 H 0.51898 0.26569 0.9044 0.0
H364 H 0.51642 0.24723 0.75333 0.0
H365 H 0.45406 0.26718 0.73711 0.0
H366 H 0.44889 0.29748 0.66997 0.0
H367 H 0.46527 0.31334 0.59791 0.0
C368 C 0.52488 0.75141 0.87442 0.0
C369 C 0.5051 0.73489 0.90064 0.0
C370 C 0.5178 0.76033 0.83202 0.0
C371 C 0.49081 0.75273 0.81494 0.0
C372 C 0.47039 0.73831 0.84216 0.0
C373 C 0.47747 0.72935 0.88456 0.0
C374 C 0.48373 0.75755 0.76845 0.0
C375 C 0.50363 0.75632 0.7368 0.0
C376 C 0.49609 0.75327 0.6903 0.0
C377 C 0.51475 0.73628 0.66297 0.0
C378 C 0.5067 0.72897 0.6206 0.0
C379 C 0.47987 0.73876 0.60466 0.0
H380 H 0.45572 0.77937 0.69286 0.0
C381 C 0.4621 0.75781 0.63096 0.0
C382 C 0.47015 0.76509 0.67332 0.0
H383 H 0.4415 0.76625 0.61936 0.0
H384 H 0.54621 0.75657 0.88611 0.0
H385 H 0.53372 0.77257 0.81256 0.0
H386 H 0.4493 0.73257 0.82999 0.0
H387 H 0.46163 0.71698 0.90408 0.0
H388 H 0.46119 0.75771 0.75993 0.0
H389 H 0.526 0.75304 0.7453 0.0
H390 H 0.53504 0.72727 0.67507 0.0
H391 H 0.52102 0.71455 0.60102 0.0
C392 C 0.32596 0.24589 0.98126 0.0
C393 C 0.34083 0.27197 -0.00116 0.0
C394 C 0.2962 0.24431 0.98435 0.0
C395 C 0.28068 0.26876 0.00534 0.0
C396 C 0.29553 0.29496 0.02251 0.0
C397 C 0.32532 0.29649 0.01955 0.0
C398 C 0.24899 0.26837 0.00801 0.0
C399 C 0.2337 0.24104 0.00773 0.0
C400 C 0.20196 0.24035 0.00804 0.0
C401 C 0.18816 0.21229 0.02224 0.0
C402 C 0.15839 0.20996 0.02067 0.0
C403 C 0.14178 0.23559 0.00442 0.0
H404 H 0.19511 0.28784 0.97969 0.0
C405 C 0.15553 0.2638 -0.00948 0.0
C406 C 0.18531 0.26615 -0.00784 0.0
H407 H 0.14336 0.2839 0.97756 0.0
H408 H 0.33726 0.22674 0.96478 0.0
H409 H 0.28547 0.22427 0.96939 0.0
H410 H 0.28405 0.31427 0.03841 0.0
H411 H 0.33614 0.317 0.03326 0.0
H412 H 0.23814 0.29133 0.01174 0.0
H413 H 0.24477 0.21802 0.00839 0.0
H414 H 0.20048 0.19198 0.03429 0.0
H415 H 0.14846 0.18784 0.03154 0.0
C416 C 0.65765 0.75521 0.00788 0.0
C417 C 0.64302 0.72656 -0.00078 0.0
C418 C 0.6873 0.75684 0.00283 0.0
C419 C 0.70294 0.72975 0.98914 0.0
C420 C 0.68827 0.7013 0.9799 0.0
C421 C 0.65862 0.69961 0.98516 0.0
C422 C 0.73436 0.73078 0.98258 0.0
C423 C 0.75159 0.7501 0.00558 0.0
C424 C 0.783 0.75264 -0.00122 0.0
C425 C 0.79723 0.77911 0.01648 0.0
C426 C 0.82661 0.78304 0.01049 0.0
C427 C 0.84247 0.76047 0.98669 0.0
H428 H 0.78931 0.70835 0.96257 0.0
C429 C 0.82843 0.73366 0.96956 0.0
C430 C 0.79903 0.72966 0.97568 0.0
H431 H 0.84013 0.71565 0.95149 0.0
H432 H 0.64622 0.77648 0.01839 0.0
H433 H 0.69771 0.77954 0.0088 0.0
H434 H 0.6998 0.68022 0.96886 0.0
H435 H 0.64795 0.67723 0.97796 0.0
H436 H 0.74317 0.7148 0.95835 0.0
H437 H 0.74227 0.76541 0.03027 0.0
H438 H 0.78553 0.79708 0.03468 0.0
H439 H 0.83681 0.80392 0.02427 0.0
C440 C 0.16054 0.79358 0.50114 0.0
C441 C 0.14105 0.76806 0.49875 0.0
C442 C 0.18986 0.78749 0.50506 0.0
C443 C 0.20025 0.75567 0.5069 0.0
C444 C 0.18072 0.73025 0.50459 0.0
C445 C 0.15143 0.73633 0.50078 0.0
C446 C 0.23127 0.74795 0.50871 0.0
C447 C 0.25114 0.76816 0.52427 0.0
C448 C 0.2823 0.76104 0.52331 0.0
C449 C 0.30153 0.78683 0.52326 0.0
C450 C 0.33097 0.78134 0.52047 0.0
C451 C 0.34182 0.74984 0.51799 0.0
H452 H 0.27925 0.70882 0.52396 0.0
C453 C 0.32266 0.72394 0.51945 0.0
C454 C 0.29322 0.72944 0.52228 0.0
H455 H 0.33038 0.69937 0.51823 0.0
H456 H 0.15322 0.8183 0.49935 0.0
H457 H 0.2042 0.8078 0.50532 0.0
H458 H 0.18815 0.70553 0.50558 0.0
H459 H 0.13699 0.71611 0.49891 0.0
H460 H 0.23774 0.7247 0.49623 0.0
H461 H 0.24465 0.79141 0.53671 0.0
H462 H 0.29373 0.81139 0.52449 0.0
H463 H 0.34518 0.80183 0.51974 0.0
C464 C 0.65826 0.24996 0.52349 0.0
C465 C 0.64535 0.28027 0.51785 0.0
C466 C 0.68794 0.24713 0.5275 0.0
C467 C 0.70535 0.27462 0.52566 0.0
C468 C 0.69234 0.30495 0.52125 0.0
C469 C 0.66267 0.30777 0.51718 0.0
C470 C 0.73703 0.27277 0.52842 0.0
C471 C 0.75226 0.24672 0.51637 0.0
C472 C 0.78403 0.2453 0.51659 0.0
C473 C 0.79751 0.21506 0.51711 0.0
C474 C 0.82731 0.21253 0.51569 0.0
C475 C 0.8443 0.24026 0.51337 0.0
H476 H 0.79166 0.29684 0.51223 0.0
C477 C 0.83087 0.27054 0.5128 0.0
C478 C 0.80107 0.27308 0.5142 0.0
H479 H 0.84334 0.29238 0.51064 0.0
H480 H 0.64548 0.22832 0.52469 0.0
H481 H 0.69699 0.22341 0.53247 0.0
H482 H 0.70521 0.32654 0.52018 0.0
H483 H 0.65338 0.33152 0.51317 0.0
H484 H 0.74799 0.29415 0.53932 0.0
H485 H 0.74121 0.22539 0.50543 0.0
H486 H 0.78493 0.19327 0.51855 0.0
H487 H 0.83699 0.18881 0.51605 0.0
loop_
_geom_bond_atom_site_label_1
_geom_bond_atom_site_label_2
_geom_bond_distance
_geom_bond_site_symmetry_2
_ccdc_geom_bond_type
C0 O1 1.160 . S
C0 O7 1.185 1_554 S
O1 C0 1.160 . S
O2 Zn3 1.899 . S
O2 C10 1.284 . S
Zn3 O2 1.899 . S
Zn3 O4 2.032 1_554 S
Zn3 O7 2.086 1_554 S
Zn3 O12 1.977 1_554 S
O4 Zn3 2.032 1_556 S
O4 C8 1.278 . S
C5 O6 1.203 . S
C5 O12 1.267 1_554 S
O6 C5 1.203 . S
O7 C0 1.185 1_556 S
O7 Zn3 2.086 1_556 S
C8 O4 1.278 . S
C8 O9 1.211 . S
O9 C8 1.211 . S
C10 O2 1.284 . S
C10 O11 1.273 . S
O11 C10 1.273 . S
O12 Zn3 1.977 1_556 S
O12 C5 1.267 1_556 S
C13 O14 1.160 . S
C13 O20 1.185 1_554 S
O14 C13 1.160 . S
O15 Zn16 1.899 . S
O15 C23 1.284 . S
Zn16 O15 1.899 . S
Zn16 O17 2.032 1_554 S
Zn16 O20 2.086 1_554 S
Zn16 O25 1.977 1_554 S
O17 Zn16 2.032 1_556 S
O17 C21 1.278 . S
C18 O19 1.203 . S
C18 O25 1.267 1_554 S
O19 C18 1.203 . S
O20 C13 1.185 1_556 S
O20 Zn16 2.086 1_556 S
C21 O17 1.278 . S
C21 O22 1.211 . S
O22 C21 1.211 . S
C23 O15 1.284 . S
C23 O24 1.273 . S
O24 C23 1.273 . S
O25 Zn16 1.977 1_556 S
O25 C18 1.267 1_556 S
C26 O27 1.160 . S
C26 O33 1.185 . S
O27 C26 1.160 . S
O28 Zn29 1.899 . S
O28 C36 1.284 . S
Zn29 O28 1.899 . S
Zn29 O30 2.032 . S
Zn29 O33 2.086 . S
Zn29 O38 1.977 . S
O30 Zn29 2.032 . S
O30 C34 1.278 . S
C31 O32 1.203 . S
C31 O38 1.267 . S
O32 C31 1.203 . S
O33 C26 1.185 . S
O33 Zn29 2.086 . S
C34 O30 1.278 . S
C34 O35 1.211 . S
O35 C34 1.211 . S
C36 O28 1.284 . S
C36 O37 1.273 . S
O37 C36 1.273 . S
O38 Zn29 1.977 . S
O38 C31 1.267 . S
C39 O40 1.160 . S
C39 O46 1.185 . S
O40 C39 1.160 . S
O41 Zn42 1.899 . S
O41 C49 1.284 . S
Zn42 O41 1.899 . S
Zn42 O43 2.032 . S
Zn42 O46 2.086 . S
Zn42 O51 1.977 . S
O43 Zn42 2.032 . S
O43 C47 1.278 . S
C44 O45 1.203 . S
C44 O51 1.267 . S
O45 C44 1.203 . S
O46 C39 1.185 . S
O46 Zn42 2.086 . S
C47 O43 1.278 . S
C47 O48 1.211 . S
O48 C47 1.211 . S
C49 O41 1.284 . S
C49 O50 1.273 . S
O50 C49 1.273 . S
O51 Zn42 1.977 . S
O51 C44 1.267 . S
C52 O53 1.160 . S
C52 O59 1.185 1_554 S
O53 C52 1.160 . S
O54 Zn55 1.899 . S
O54 C62 1.284 . S
Zn55 O54 1.899 . S
Zn55 O56 2.032 1_554 S
Zn55 O59 2.086 1_554 S
Zn55 O64 1.977 1_554 S
O56 Zn55 2.032 1_556 S
O56 C60 1.278 . S
C57 O58 1.203 . S
C57 O64 1.267 1_554 S
O58 C57 1.203 . S
O59 C52 1.185 1_556 S
O59 Zn55 2.086 1_556 S
C60 O56 1.278 . S
C60 O61 1.211 . S
O61 C60 1.211 . S
C62 O54 1.284 . S
C62 O63 1.273 . S
O63 C62 1.273 . S
O64 Zn55 1.977 1_556 S
O64 C57 1.267 1_556 S
C65 O66 1.160 . S
C65 O72 1.185 1_554 S
O66 C65 1.160 . S
O67 Zn68 1.899 . S
O67 C75 1.284 . S
Zn68 O67 1.899 . S
Zn68 O69 2.032 1_554 S
Zn68 O72 2.086 1_554 S
Zn68 O77 1.977 1_554 S
O69 Zn68 2.032 1_556 S
O69 C73 1.278 . S
C70 O71 1.203 . S
C70 O77 1.267 1_554 S
O71 C70 1.203 . S
O72 C65 1.185 1_556 S
O72 Zn68 2.086 1_556 S
C73 O69 1.278 . S
C73 O74 1.211 . S
O74 C73 1.211 . S
C75 O67 1.284 . S
C75 O76 1.273 . S
O76 C75 1.273 . S
O77 Zn68 1.977 1_556 S
O77 C70 1.267 1_556 S
C78 O79 1.160 . S
C78 O85 1.185 . S
O79 C78 1.160 . S
O80 Zn81 1.899 . S
O80 C88 1.284 . S
Zn81 O80 1.899 . S
Zn81 O82 2.032 . S
Zn81 O85 2.086 . S
Zn81 O90 1.977 . S
O82 Zn81 2.032 . S
O82 C86 1.278 . S
C83 O84 1.203 . S
C83 O90 1.267 . S
O84 C83 1.203 . S
O85 C78 1.185 . S
O85 Zn81 2.086 . S
C86 O82 1.278 . S
C86 O87 1.211 . S
O87 C86 1.211 . S
C88 O80 1.284 . S
C88 O89 1.273 . S
O89 C88 1.273 . S
O90 Zn81 1.977 . S
O90 C83 1.267 . S
C91 O92 1.160 . S
C91 O98 1.185 . S
O92 C91 1.160 . S
O93 Zn94 1.899 . S
O93 C101 1.284 . S
Zn94 O93 1.899 . S
Zn94 O95 2.032 . S
Zn94 O98 2.086 . S
Zn94 O103 1.977 . S
O95 Zn94 2.032 . S
O95 C99 1.278 . S
C96 O97 1.203 . S
C96 O103 1.267 . S
O97 C96 1.203 . S
O98 C91 1.185 . S
O98 Zn94 2.086 . S
C99 O95 1.278 . S
C99 O100 1.211 . S
O100 C99 1.211 . S
C101 O93 1.284 . S
C101 O102 1.273 . S
O102 C101 1.273 . S
O103 Zn94 1.977 . S
O103 C96 1.267 . S
C104 C105 1.386 . S
C104 C106 1.379 1_655 S
C104 H120 0.951 1_655 S
C105 C104 1.386 . S
C105 C109 1.383 1_554 S
C106 C104 1.379 1_455 S
C106 C107 1.386 1_454 S
C106 H121 0.970 . S
C107 C106 1.386 1_656 S
C107 C108 1.375 . S
C107 C110 1.481 . S
C108 C107 1.375 . S
C108 C109 1.367 . S
C108 H122 0.951 . S
C109 C105 1.383 1_556 S
C109 C108 1.367 . S
C109 H123 0.950 . S
C110 C107 1.481 . S
C110 C111 1.297 1_665 S
C110 H124 0.950 1_565 S
C111 C110 1.297 1_445 S
C111 C112 1.479 . S
C111 H125 0.950 1_545 S
C112 C111 1.479 . S
C112 C113 1.375 . S
C112 C118 1.404 1_455 S
C113 C112 1.375 . S
C113 C114 1.369 1_556 S
C113 H126 0.950 . S
C114 C113 1.369 1_554 S
C114 C115 1.393 . S
C114 H127 0.951 . S
C115 C114 1.393 . S
C115 C117 1.382 1_554 S
H116 C118 0.949 . S
C117 C115 1.382 1_556 S
C117 C118 1.385 1_455 S
C117 H119 0.950 1_455 S
C118 C112 1.404 1_655 S
C118 H116 0.949 . S
C118 C117 1.385 1_655 S
H119 C117 0.950 1_655 S
H120 C104 0.951 1_455 S
H121 C106 0.970 . S
H122 C108 0.951 . S
H123 C109 0.950 . S
H124 C110 0.950 1_545 S
H125 C111 0.950 1_565 S
H126 C113 0.950 . S
H127 C114 0.951 . S
C128 C129 1.386 . S
C128 C130 1.383 . S
C128 H144 0.951 . S
C129 C128 1.386 . S
C129 C133 1.383 . S
C130 C128 1.383 . S
C130 C131 1.402 . S
C130 H145 0.951 . S
C131 C130 1.402 . S
C131 C132 1.375 . S
C131 C134 1.481 . S
C132 C131 1.375 . S
C132 C133 1.367 . S
C132 H146 0.951 . S
C133 C129 1.383 . S
C133 C132 1.367 . S
C133 H147 0.950 . S
C134 C131 1.481 . S
C134 C135 1.297 1_565 S
C134 H148 0.950 1_455 S
C135 C134 1.297 1_545 S
C135 C136 1.479 1_455 S
C135 H149 0.950 . S
C136 C135 1.479 1_655 S
C136 C137 1.375 . S
C136 C142 1.404 . S
C137 C136 1.375 . S
C137 C138 1.369 . S
C137 H150 0.950 1_655 S
C138 C137 1.369 . S
C138 C139 1.392 . S
C138 H151 0.951 . S
C139 C138 1.392 . S
C139 C141 1.384 . S
H140 C142 0.949 . S
C141 C139 1.384 . S
C141 C142 1.385 . S
C141 H143 0.950 . S
C142 C136 1.404 . S
C142 H140 0.949 . S
C142 C141 1.385 . S
H143 C141 0.950 . S
H144 C128 0.951 . S
H145 C130 0.951 . S
H146 C132 0.951 . S
H147 C133 0.950 . S
H148 C134 0.950 1_655 S
H149 C135 0.950 . S
H150 C137 0.950 1_455 S
H151 C138 0.951 . S
C152 C153 1.386 . S
C152 C154 1.383 . S
C152 H168 0.951 . S
C153 C152 1.386 . S
C153 C157 1.383 . S
C154 C152 1.383 . S
C154 C155 1.402 . S
C154 H169 0.951 . S
C155 C154 1.402 . S
C155 C156 1.375 . S
C155 C158 1.481 . S
C156 C155 1.375 . S
C156 C157 1.367 . S
C156 H170 0.955 . S
C157 C153 1.383 . S
C157 C156 1.367 . S
C157 H171 0.950 1_554 S
C158 C155 1.481 . S
C158 C159 1.297 . S
C158 H172 0.950 . S
C159 C158 1.297 . S
C159 C160 1.479 . S
C159 H173 0.950 . S
C160 C159 1.479 . S
C160 C161 1.375 . S
C160 C166 1.404 . S
C161 C160 1.375 . S
C161 C162 1.369 . S
C161 H174 0.950 . S
C162 C161 1.369 . S
C162 C163 1.392 . S
C162 H175 0.951 . S
C163 C162 1.392 . S
C163 C165 1.384 . S
H164 C166 0.949 . S
C165 C163 1.384 . S
C165 C166 1.385 . S
C165 H167 0.950 . S
C166 C160 1.404 . S
C166 H164 0.949 . S
C166 C165 1.385 . S
H167 C165 0.950 . S
H168 C152 0.951 . S
H169 C154 0.951 . S
H170 C156 0.955 . S
H171 C157 0.950 1_556 S
H172 C158 0.950 . S
H173 C159 0.950 . S
H174 C161 0.950 . S
H175 C162 0.951 . S
C176 C177 1.386 . S
C176 C178 1.383 . S
C176 H192 0.951 . S
C177 C176 1.386 . S
C177 C181 1.383 . S
C178 C176 1.383 . S
C178 C179 1.402 . S
C178 H193 0.951 . S
C179 C178 1.402 . S
C179 C180 1.375 . S
C179 C182 1.481 . S
C180 C179 1.375 . S
C180 C181 1.367 . S
C180 H194 0.951 . S
C181 C177 1.383 . S
C181 C180 1.367 . S
C181 H195 0.950 . S
C182 C179 1.481 . S
C182 C183 1.297 . S
C182 H196 0.950 . S
C183 C182 1.297 . S
C183 C184 1.479 . S
C183 H197 0.950 . S
C184 C183 1.479 . S
C184 C185 1.375 . S
C184 C190 1.404 . S
C185 C184 1.375 . S
C185 C186 1.369 . S
C185 H198 0.950 . S
C186 C185 1.369 . S
C186 C187 1.392 . S
C186 H199 0.951 . S
C187 C186 1.392 . S
C187 C189 1.384 . S
H188 C190 0.949 . S
C189 C187 1.384 . S
C189 C190 1.385 . S
C189 H191 0.950 . S
C190 C184 1.404 . S
C190 H188 0.949 . S
C190 C189 1.385 . S
H191 C189 0.950 . S
H192 C176 0.951 . S
H193 C178 0.951 . S
H194 C180 0.951 . S
H195 C181 0.950 . S
H196 C182 0.950 . S
H197 C183 0.950 . S
H198 C185 0.950 . S
H199 C186 0.951 . S
C200 C201 1.386 . S
C200 C202 1.383 . S
C200 H216 0.951 . S
C201 C200 1.386 . S
C201 C205 1.383 1_455 S
C202 C200 1.383 . S
C202 C203 1.402 1_455 S
C202 H217 0.951 . S
C203 C202 1.402 1_655 S
C203 C204 1.375 . S
C203 C206 1.481 . S
C204 C203 1.375 . S
C204 C205 1.367 . S
C204 H218 0.951 . S
C205 C201 1.383 1_655 S
C205 C204 1.367 . S
C205 H219 0.950 . S
C206 C203 1.481 . S
C206 C207 1.297 . S
C206 H220 0.950 . S
C207 C206 1.297 . S
C207 C208 1.479 . S
C207 H221 0.950 1_655 S
C208 C207 1.479 . S
C208 C209 1.375 1_655 S
C208 C214 1.404 . S
C209 C208 1.375 1_455 S
C209 C210 1.368 1_455 S
C209 H222 0.950 . S
C210 C209 1.368 1_655 S
C210 C211 1.395 . S
C210 H223 0.948 1_655 S
C211 C210 1.395 . S
C211 C213 1.384 . S
H212 C214 0.949 . S
C213 C211 1.384 . S
C213 C214 1.385 . S
C213 H215 0.950 . S
C214 C208 1.404 . S
C214 H212 0.949 . S
C214 C213 1.385 . S
H215 C213 0.950 . S
H216 C200 0.951 . S
H217 C202 0.951 . S
H218 C204 0.951 . S
H219 C205 0.950 . S
H220 C206 0.950 . S
H221 C207 0.950 1_455 S
H222 C209 0.950 . S
H223 C210 0.948 1_455 S
C224 C225 1.386 1_655 S
C224 C226 1.383 . S
C224 H240 0.951 . S
C225 C224 1.386 1_455 S
C225 C229 1.383 . S
C226 C224 1.383 . S
C226 C227 1.402 1_655 S
C226 H241 0.951 . S
C227 C226 1.402 1_455 S
C227 C228 1.375 . S
C227 C230 1.481 . S
C228 C227 1.375 . S
C228 C229 1.367 . S
C228 H242 0.951 . S
C229 C225 1.383 . S
C229 C228 1.367 . S
C229 H243 0.950 . S
C230 C227 1.481 . S
C230 C231 1.297 1_455 S
C230 H244 0.950 . S
C231 C230 1.297 1_655 S
C231 C232 1.479 . S
C231 H245 0.950 . S
C232 C231 1.479 . S
C232 C233 1.375 . S
C232 C238 1.404 1_655 S
C233 C232 1.375 . S
C233 C234 1.369 . S
C233 H246 0.950 . S
C234 C233 1.369 . S
C234 C235 1.392 . S
C234 H247 0.951 . S
C235 C234 1.392 . S
C235 C237 1.384 1_655 S
H236 C238 0.949 . S
C237 C235 1.384 1_455 S
C237 C238 1.385 . S
C237 H239 0.950 . S
C238 C232 1.404 1_455 S
C238 H236 0.949 . S
C238 C237 1.385 . S
H239 C237 0.950 . S
H240 C224 0.951 . S
H241 C226 0.951 . S
H242 C228 0.951 . S
H243 C229 0.950 . S
H244 C230 0.950 . S
H245 C231 0.950 . S
H246 C233 0.950 . S
H247 C234 0.951 . S
C248 C249 1.386 . S
C248 C250 1.383 . S
C248 H264 0.951 . S
C249 C248 1.386 . S
C249 C253 1.383 . S
C250 C248 1.383 . S
C250 C251 1.402 . S
C250 H265 0.951 . S
C251 C250 1.402 . S
C251 C252 1.375 1_455 S
C251 C254 1.481 1_455 S
C252 C251 1.375 1_655 S
C252 C253 1.367 1_655 S
C252 H266 0.951 . S
C253 C249 1.383 . S
C253 C252 1.367 1_455 S
C253 H267 0.950 1_455 S
C254 C251 1.481 1_655 S
C254 C255 1.297 1_655 S
C254 H268 0.950 . S
C255 C254 1.297 1_455 S
C255 C256 1.486 . S
C255 H269 0.950 . S
C256 C255 1.486 . S
C256 C257 1.383 . S
C256 C262 1.390 1_455 S
C257 C256 1.383 . S
C257 C258 1.369 . S
C257 H270 0.950 . S
C258 C257 1.369 . S
C258 C259 1.392 1_455 S
C258 H271 0.951 . S
C259 C258 1.392 1_655 S
C259 C261 1.384 . S
H260 C262 0.949 . S
C261 C259 1.384 . S
C261 C262 1.385 . S
C261 H263 0.950 . S
C262 C256 1.390 1_655 S
C262 H260 0.949 . S
C262 C261 1.385 . S
H263 C261 0.950 . S
H264 C248 0.951 . S
H265 C250 0.951 . S
H266 C252 0.951 . S
H267 C253 0.950 1_655 S
H268 C254 0.950 . S
H269 C255 0.950 . S
H270 C257 0.950 . S
H271 C258 0.951 . S
C272 C273 1.386 . S
C272 C274 1.383 . S
C272 H288 0.951 . S
C273 C272 1.386 . S
C273 C277 1.383 1_455 S
C274 C272 1.383 . S
C274 C275 1.373 1_455 S
C274 H289 0.951 . S
C275 C274 1.373 1_655 S
C275 C276 1.392 . S
C275 C278 1.493 . S
C276 C275 1.392 . S
C276 C277 1.367 . S
C276 H290 0.951 . S
C277 C273 1.383 1_655 S
C277 C276 1.367 . S
C277 H291 0.950 . S
C278 C275 1.493 . S
C278 C279 1.297 . S
C278 H292 0.950 . S
C279 C278 1.297 . S
C279 C280 1.479 . S
C279 H293 0.950 1_655 S
C280 C279 1.479 . S
C280 C281 1.375 1_655 S
C280 C286 1.404 . S
C281 C280 1.375 1_455 S
C281 C282 1.369 . S
C281 H294 0.950 . S
C282 C281 1.369 . S
C282 C283 1.392 1_455 S
C282 H295 0.951 . S
C283 C282 1.392 1_655 S
C283 C285 1.384 . S
H284 C286 0.949 . S
C285 C283 1.384 . S
C285 C286 1.385 . S
C285 H287 0.950 . S
C286 C280 1.404 . S
C286 H284 0.949 . S
C286 C285 1.385 . S
H287 C285 0.950 . S
H288 C272 0.951 . S
H289 C274 0.951 . S
H290 C276 0.951 . S
H291 C277 0.950 . S
H292 C278 0.950 . S
H293 C279 0.950 1_455 S
H294 C281 0.950 . S
H295 C282 0.951 . S
C296 C297 1.386 . S
C296 C298 1.383 . S
C296 H312 0.951 . S
C297 C296 1.386 . S
C297 C301 1.383 . S
C298 C296 1.383 . S
C298 C299 1.402 . S
C298 H313 0.951 . S
C299 C298 1.402 . S
C299 C300 1.375 . S
C299 C302 1.481 . S
C300 C299 1.375 . S
C300 C301 1.367 . S
C300 H314 0.951 . S
C301 C297 1.383 . S
C301 C300 1.367 . S
C301 H315 0.950 . S
C302 C299 1.481 . S
C302 C303 1.297 . S
C302 H316 0.950 . S
C303 C302 1.297 . S
C303 C304 1.479 . S
C303 H317 0.950 . S
C304 C303 1.479 . S
C304 C305 1.375 . S
C304 C310 1.404 . S
C305 C304 1.375 . S
C305 C306 1.369 . S
C305 H318 0.950 . S
C306 C305 1.369 . S
C306 C307 1.392 . S
C306 H319 0.951 . S
C307 C306 1.392 . S
C307 C309 1.384 . S
H308 C310 0.949 . S
C309 C307 1.384 . S
C309 C310 1.385 . S
C309 H311 0.950 . S
C310 C304 1.404 . S
C310 H308 0.949 . S
C310 C309 1.385 . S
H311 C309 0.950 . S
H312 C296 0.951 . S
H313 C298 0.951 . S
H314 C300 0.951 . S
H315 C301 0.950 . S
H316 C302 0.950 . S
H317 C303 0.950 . S
H318 C305 0.950 . S
H319 C306 0.951 . S
C320 C321 1.386 . S
C320 C322 1.383 . S
C320 H336 0.951 . S
C321 C320 1.386 . S
C321 C325 1.383 . S
C322 C320 1.383 . S
C322 C323 1.402 . S
C322 H337 0.951 . S
C323 C322 1.402 . S
C323 C324 1.375 . S
C323 C326 1.481 . S
C324 C323 1.375 . S
C324 C325 1.367 . S
C324 H338 0.951 . S
C325 C321 1.383 . S
C325 C324 1.367 . S
C325 H339 0.950 . S
C326 C323 1.481 . S
C326 C327 1.297 . S
C326 H340 0.950 . S
C327 C326 1.297 . S
C327 C328 1.479 . S
C327 H341 0.950 . S
C328 C327 1.479 . S
C328 C329 1.375 . S
C328 C334 1.404 . S
C329 C328 1.375 . S
C329 C330 1.369 . S
C329 H342 0.950 . S
C330 C329 1.369 . S
C330 C331 1.392 . S
C330 H343 0.951 . S
C331 C330 1.392 . S
C331 C333 1.384 . S
H332 C334 0.949 . S
C333 C331 1.384 . S
C333 C334 1.385 . S
C333 H335 0.950 . S
C334 C328 1.404 . S
C334 H332 0.949 . S
C334 C333 1.385 . S
H335 C333 0.950 . S
H336 C320 0.951 . S
H337 C322 0.951 . S
H338 C324 0.951 . S
H339 C325 0.950 . S
H340 C326 0.950 . S
H341 C327 0.950 . S
H342 C329 0.950 . S
H343 C330 0.951 . S
C344 C345 1.386 . S
C344 C346 1.383 . S
C344 H360 0.951 . S
C345 C344 1.386 . S
C345 C349 1.383 . S
C346 C344 1.383 . S
C346 C347 1.402 . S
C346 H361 0.951 . S
C347 C346 1.402 . S
C347 C348 1.375 . S
C347 C350 1.481 . S
C348 C347 1.375 . S
C348 C349 1.367 . S
C348 H362 0.951 . S
C349 C345 1.383 . S
C349 C348 1.367 . S
C349 H363 0.950 . S
C350 C347 1.481 . S
C350 C351 1.297 . S
C350 H364 0.950 . S
C351 C350 1.297 . S
C351 C352 1.479 . S
C351 H365 0.950 . S
C352 C351 1.479 . S
C352 C353 1.375 . S
C352 C358 1.404 . S
C353 C352 1.375 . S
C353 C354 1.369 . S
C353 H366 0.950 . S
C354 C353 1.369 . S
C354 C355 1.392 . S
C354 H367 0.951 . S
C355 C354 1.392 . S
C355 C357 1.384 . S
H356 C358 0.949 . S
C357 C355 1.384 . S
C357 C358 1.385 . S
C357 H359 0.950 . S
C358 C352 1.404 . S
C358 H356 0.949 . S
C358 C357 1.385 . S
H359 C357 0.950 . S
H360 C344 0.951 . S
H361 C346 0.951 . S
H362 C348 0.951 . S
H363 C349 0.950 . S
H364 C350 0.950 . S
H365 C351 0.950 . S
H366 C353 0.950 . S
H367 C354 0.951 . S
C368 C369 1.386 . S
C368 C370 1.383 . S
C368 H384 0.951 . S
C369 C368 1.386 . S
C369 C373 1.383 . S
C370 C368 1.383 . S
C370 C371 1.402 . S
C370 H385 0.951 . S
C371 C370 1.402 . S
C371 C372 1.375 . S
C371 C374 1.481 . S
C372 C371 1.375 . S
C372 C373 1.367 . S
C372 H386 0.951 . S
C373 C369 1.383 . S
C373 C372 1.367 . S
C373 H387 0.950 . S
C374 C371 1.481 . S
C374 C375 1.297 . S
C374 H388 0.950 . S
C375 C374 1.297 . S
C375 C376 1.479 . S
C375 H389 0.950 . S
C376 C375 1.479 . S
C376 C377 1.375 . S
C376 C382 1.404 . S
C377 C376 1.375 . S
C377 C378 1.369 . S
C377 H390 0.950 . S
C378 C377 1.369 . S
C378 C379 1.392 . S
C378 H391 0.951 . S
C379 C378 1.392 . S
C379 C381 1.384 . S
H380 C382 0.949 . S
C381 C379 1.384 . S
C381 C382 1.385 . S
C381 H383 0.950 . S
C382 C376 1.404 . S
C382 H380 0.949 . S
C382 C381 1.385 . S
H383 C381 0.950 . S
H384 C368 0.951 . S
H385 C370 0.951 . S
H386 C372 0.951 . S
H387 C373 0.950 . S
H388 C374 0.950 . S
H389 C375 0.950 . S
H390 C377 0.950 . S
H391 C378 0.951 . S
C392 C393 1.386 1_556 S
C392 C394 1.383 . S
C392 H408 0.951 . S
C393 C392 1.386 1_554 S
C393 C397 1.383 . S
C394 C392 1.383 . S
C394 C395 1.402 1_556 S
C394 H409 0.951 . S
C395 C394 1.402 1_554 S
C395 C396 1.375 . S
C395 C398 1.481 . S
C396 C395 1.375 . S
C396 C397 1.367 . S
C396 H410 0.951 . S
C397 C393 1.383 . S
C397 C396 1.367 . S
C397 H411 0.950 . S
C398 C395 1.481 . S
C398 C399 1.297 . S
C398 H412 0.950 . S
C399 C398 1.297 . S
C399 C400 1.479 . S
C399 H413 0.958 . S
C400 C399 1.479 . S
C400 C401 1.375 1_554 S
C400 C406 1.404 . S
C401 C400 1.375 1_556 S
C401 C402 1.369 . S
C401 H414 0.950 . S
C402 C401 1.369 . S
C402 C403 1.392 1_556 S
C402 H415 0.951 . S
C403 C402 1.392 1_554 S
C403 C405 1.384 . S
H404 C406 0.949 . S
C405 C403 1.384 . S
C405 C406 1.385 . S
C405 H407 0.950 . S
C406 C400 1.404 . S
C406 H404 0.949 . S
C406 C405 1.385 . S
H407 C405 0.950 . S
H408 C392 0.951 . S
H409 C394 0.951 . S
H410 C396 0.951 . S
H411 C397 0.950 . S
H412 C398 0.950 . S
H413 C399 0.958 . S
H414 C401 0.950 . S
H415 C402 0.951 . S
C416 C417 1.386 1_554 S
C416 C418 1.383 . S
C416 H432 0.951 . S
C417 C416 1.386 1_556 S
C417 C421 1.383 . S
C418 C416 1.383 . S
C418 C419 1.402 1_554 S
C418 H433 0.951 . S
C419 C418 1.402 1_556 S
C419 C420 1.375 . S
C419 C422 1.481 . S
C420 C419 1.375 . S
C420 C421 1.367 . S
C420 H434 0.951 . S
C421 C417 1.383 . S
C421 C420 1.367 . S
C421 H435 0.950 . S
C422 C419 1.481 . S
C422 C423 1.297 1_556 S
C422 H436 0.950 . S
C423 C422 1.297 1_554 S
C423 C424 1.479 . S
C423 H437 0.950 . S
C424 C423 1.479 . S
C424 C425 1.375 . S
C424 C430 1.404 1_554 S
C425 C424 1.375 . S
C425 C426 1.369 . S
C425 H438 0.950 . S
C426 C425 1.369 . S
C426 C427 1.392 . S
C426 H439 0.951 . S
C427 C426 1.392 . S
C427 C429 1.384 1_554 S
H428 C430 0.949 . S
C429 C427 1.384 1_556 S
C429 C430 1.385 . S
C429 H431 0.950 . S
C430 C424 1.404 1_556 S
C430 H428 0.949 . S
C430 C429 1.385 . S
H431 C429 0.950 . S
H432 C416 0.951 . S
H433 C418 0.951 . S
H434 C420 0.951 . S
H435 C421 0.950 . S
H436 C422 0.950 . S
H437 C423 0.950 . S
H438 C425 0.950 . S
H439 C426 0.951 . S
C440 C441 1.386 . S
C440 C442 1.383 . S
C440 H456 0.951 . S
C441 C440 1.386 . S
C441 C445 1.383 . S
C442 C440 1.383 . S
C442 C443 1.402 . S
C442 H457 0.951 . S
C443 C442 1.402 . S
C443 C444 1.375 . S
C443 C446 1.481 . S
C444 C443 1.375 . S
C444 C445 1.367 . S
C444 H458 0.951 . S
C445 C441 1.383 . S
C445 C444 1.367 . S
C445 H459 0.950 . S
C446 C443 1.481 . S
C446 C447 1.297 . S
C446 H460 0.950 . S
C447 C446 1.297 . S
C447 C448 1.479 . S
C447 H461 0.950 . S
C448 C447 1.479 . S
C448 C449 1.375 . S
C448 C454 1.404 . S
C449 C448 1.375 . S
C449 C450 1.369 . S
C449 H462 0.950 . S
C450 C449 1.369 . S
C450 C451 1.392 . S
C450 H463 0.951 . S
C451 C450 1.392 . S
C451 C453 1.384 . S
H452 C454 0.949 . S
C453 C451 1.384 . S
C453 C454 1.385 . S
C453 H455 0.950 . S
C454 C448 1.404 . S
C454 H452 0.949 . S
C454 C453 1.385 . S
H455 C453 0.950 . S
H456 C440 0.951 . S
H457 C442 0.951 . S
H458 C444 0.951 . S
H459 C445 0.950 . S
H460 C446 0.950 . S
H461 C447 0.950 . S
H462 C449 0.950 . S
H463 C450 0.951 . S
C464 C465 1.386 . S
C464 C466 1.383 . S
C464 H480 0.951 . S
C465 C464 1.386 . S
C465 C469 1.383 . S
C466 C464 1.383 . S
C466 C467 1.402 . S
C466 H481 0.951 . S
C467 C466 1.402 . S
C467 C468 1.375 . S
C467 C470 1.481 . S
C468 C467 1.375 . S
C468 C469 1.367 . S
C468 H482 0.951 . S
C469 C465 1.383 . S
C469 C468 1.367 . S
C469 H483 0.950 . S
C470 C467 1.481 . S
C470 C471 1.297 . S
C470 H484 0.950 . S
C471 C470 1.297 . S
C471 C472 1.479 . S
C471 H485 0.950 . S
C472 C471 1.479 . S
C472 C473 1.375 . S
C472 C478 1.404 . S
C473 C472 1.375 . S
C473 C474 1.369 . S
C473 H486 0.950 . S
C474 C473 1.369 . S
C474 C475 1.392 . S
C474 H487 0.951 . S
C475 C474 1.392 . S
C475 C477 1.384 . S
H476 C478 0.949 . S
C477 C475 1.384 . S
C477 C478 1.385 . S
C477 H479 0.950 . S
C478 C472 1.404 . S
C478 H476 0.949 . S
C478 C477 1.385 . S
H479 C477 0.950 . S
H480 C464 0.951 . S
H481 C466 0.951 . S
H482 C468 0.951 . S
H483 C469 0.950 . S
H484 C470 0.950 . S
H485 C471 0.950 . S
H486 C473 0.950 . S
H487 C474 0.951 . S
C105 C18 1.495 . S
C115 C5 1.488 . S
C129 C31 1.472 . S
C139 C44 1.420 . S
C153 C57 1.446 . S
C163 C70 1.453 . S
C177 C83 1.478 . S
C187 C96 1.423 . S
C201 C10 1.085 . S
C211 C49 1.094 . S
C225 C36 1.064 . S
C235 C23 1.047 . S
C249 C34 0.957 . S
C259 C21 0.947 . S
C273 C8 0.999 . S
C283 C47 0.915 . S
C297 C62 1.064 . S
C307 C101 1.047 . S
C321 C88 1.065 . S
C331 C75 1.056 . S
C345 C73 1.050 . S
C355 C86 0.982 . S
C369 C60 0.972 . S
C379 C99 0.916 . S
C393 C65 1.505 . S
C403 C0 1.491 . S
C417 C52 1.538 1_556 S
C427 C13 1.503 . S
C441 C26 1.536 . S
C451 C91 1.543 . S
C465 C78 1.502 . S
C475 C39 1.508 . S
