12c_Mn_1
_audit_creation_date              2020-06-09
_audit_creation_method            'assign_MBBB_charges.py'
_symmetry_space_group_name_H-M    'P1'
_symmetry_Int_Tables_number       1
_symmetry_cell_setting            triclinic
loop_
_symmetry_equiv_pos_as_xyz
  x,y,z
_cell_length_a                    50.0000
_cell_length_b                    50.0000
_cell_length_c                    50.0000
_cell_angle_alpha                 90.0000
_cell_angle_beta                  90.0000
_cell_angle_gamma                 90.0000
loop_
_atom_site_label
_atom_site_type_symbol
_atom_site_fract_x
_atom_site_fract_y
_atom_site_fract_z
_atom_site_U_iso_or_equiv
_atom_site_adp_type
_atom_site_occupancy
_atom_site_charge
O1      O         0.57652      0.52226      0.53775      0.00000   Uiso   1.00     -0.87882
X2      C         0.45749      0.57170      0.45578      0.00000   Uiso   1.00      1.12158
O3      O         0.53297      0.50000      0.50000      0.00000   Uiso   1.00     -1.35690
O4      O         0.47645      0.58317      0.52973      0.00000   Uiso   1.00     -0.89366
O5      O         0.58381      0.47881      0.52973      0.00000   Uiso   1.00     -0.90032
O6      O         0.52107      0.47300      0.55817      0.00000   Uiso   1.00     -0.78855
O7      O         0.53119      0.55722      0.52711      0.00000   Uiso   1.00     -1.00941
X8      C         0.44256      0.49645      0.55123      0.00000   Uiso   1.00      1.22202
O9      O         0.48351      0.47145      0.50000      0.00000   Uiso   1.00     -1.35836
Mn10    Mn        0.50000      0.50000      0.46816      0.00000   Uiso   1.00      1.82055
O11     O         0.46609      0.49526      0.55817      0.00000   Uiso   1.00     -0.77928
O12     O         0.44246      0.55514      0.53775      0.00000   Uiso   1.00     -0.87326
X13     C         0.44256      0.50355      0.44877      0.00000   Uiso   1.00      1.13288
X14     C         0.45916      0.57267      0.54422      0.00000   Uiso   1.00      1.08011
O15     O         0.51285      0.46826      0.44183      0.00000   Uiso   1.00     -0.78867
O16     O         0.48351      0.52855      0.50000      0.00000   Uiso   1.00     -1.32561
O17     O         0.53119      0.44278      0.47289      0.00000   Uiso   1.00     -0.98078
X18     C         0.45749      0.42830      0.54422      0.00000   Uiso   1.00      1.06725
Mn19    Mn        0.43935      0.53393      0.50176      0.00000   Uiso   1.00      1.48570
O20     O         0.48102      0.42260      0.53775      0.00000   Uiso   1.00     -0.87276
Mn21    Mn        0.55971      0.46444      0.49824      0.00000   Uiso   1.00      1.49558
O22     O         0.58381      0.52119      0.47027      0.00000   Uiso   1.00     -0.91155
X23     C         0.52564      0.55152      0.55123      0.00000   Uiso   1.00      1.19919
X24     C         0.58335      0.50097      0.45578      0.00000   Uiso   1.00      1.11977
Mn25    Mn        0.50000      0.50000      0.53184      0.00000   Uiso   1.00      1.80972
O26     O         0.43485      0.50160      0.47289      0.00000   Uiso   1.00     -0.96306
Mn27    Mn        0.55971      0.53556      0.50176      0.00000   Uiso   1.00      1.49261
X28     C         0.58335      0.49903      0.54422      0.00000   Uiso   1.00      1.08496
Mn29    Mn        0.43935      0.46607      0.49824      0.00000   Uiso   1.00      1.49932
X30     C         0.45916      0.42733      0.45578      0.00000   Uiso   1.00      1.11402
O31     O         0.53396      0.44438      0.52711      0.00000   Uiso   1.00     -1.02107
O32     O         0.43974      0.56198      0.47027      0.00000   Uiso   1.00     -0.91770
X33     C         0.53180      0.45204      0.55123      0.00000   Uiso   1.00      1.22684
O34     O         0.43485      0.49840      0.52711      0.00000   Uiso   1.00     -1.02496
O35     O         0.48102      0.57740      0.46225      0.00000   Uiso   1.00     -0.89895
O36     O         0.44246      0.44487      0.46225      0.00000   Uiso   1.00     -0.89502
O37     O         0.57652      0.47774      0.46225      0.00000   Uiso   1.00     -0.89526
Mn38    Mn        0.50094      0.56949      0.49824      0.00000   Uiso   1.00      1.47856
O39     O         0.46608      0.50474      0.44183      0.00000   Uiso   1.00     -0.77999
X40     C         0.52564      0.44848      0.44877      0.00000   Uiso   1.00      1.15735
O41     O         0.51285      0.53174      0.55817      0.00000   Uiso   1.00     -0.76731
O42     O         0.52107      0.52700      0.44183      0.00000   Uiso   1.00     -0.76345
Mn43    Mn        0.50094      0.43051      0.50176      0.00000   Uiso   1.00      1.51060
O44     O         0.43974      0.43802      0.52973      0.00000   Uiso   1.00     -0.88698
O45     O         0.53396      0.55562      0.47289      0.00000   Uiso   1.00     -0.96226
O46     O         0.47645      0.41683      0.47027      0.00000   Uiso   1.00     -0.91237
X47     C         0.53180      0.54796      0.44877      0.00000   Uiso   1.00      1.13524
loop_
_geom_bond_atom_site_label_1
_geom_bond_atom_site_label_2
_geom_bond_distance
_geom_bond_site_symmetry_2
_ccdc_geom_bond_type
O1      X28        1.253 .   A  
O1      Mn27       2.095 .   S  
X2      O35        1.253 .   A  
X2      O32        1.244 .   A  
O3      Mn10       2.292 .   S  
O3      Mn21       2.226 .   S  
O3      Mn25       2.292 .   S  
O3      Mn27       2.226 .   S  
O4      X14        1.244 .   A  
O4      Mn38       2.109 .   S  
O5      Mn21       2.109 .   S  
O5      X28        1.244 .   A  
O6      X33        1.227 .   A  
O6      Mn25       2.160 .   S  
O7      Mn38       2.179 .   S  
O7      Mn27       2.194 .   S  
O7      X23        1.270 .   A  
X8      O34        1.270 .   A  
X8      O11        1.227 .   A  
O9      Mn29       2.226 .   S  
O9      Mn10       2.292 .   S  
O9      Mn43       2.226 .   S  
O9      Mn25       2.292 .   S  
Mn10    O39        2.160 .   S  
Mn10    O16        2.292 .   S  
Mn10    O15        2.160 .   S  
Mn10    O42        2.160 .   S  
O11     Mn25       2.160 .   S  
O12     Mn19       2.095 .   S  
O12     X14        1.253 .   A  
X13     O39        1.227 .   A  
X13     O26        1.270 .   A  
O15     X40        1.227 .   A  
O16     Mn19       2.226 .   S  
O16     Mn38       2.226 .   S  
O16     Mn25       2.292 .   S  
O17     X40        1.270 .   A  
O17     Mn21       2.194 .   S  
O17     Mn43       2.179 .   S  
X18     O44        1.244 .   A  
X18     O20        1.253 .   A  
Mn19    O34        2.194 .   S  
Mn19    O32        2.109 .   S  
Mn19    O26        2.179 .   S  
O20     Mn43       2.095 .   S  
Mn21    O37        2.095 .   S  
Mn21    O31        2.179 .   S  
O22     X24        1.244 .   A  
O22     Mn27       2.109 .   S  
X23     O41        1.227 .   A  
X24     O37        1.253 .   A  
Mn25    O41        2.160 .   S  
O26     Mn29       2.194 .   S  
Mn27    O45        2.179 .   S  
Mn29    O36        2.095 .   S  
Mn29    O34        2.179 .   S  
Mn29    O44        2.109 .   S  
X30     O36        1.253 .   A  
X30     O46        1.244 .   A  
O31     Mn43       2.194 .   S  
O31     X33        1.270 .   A  
O35     Mn38       2.095 .   S  
Mn38    O45        2.194 .   S  
O42     X47        1.227 .   A  
Mn43    O46        2.109 .   S  
O45     X47        1.270 .   A  
