12c_Ce_1
_audit_creation_date              2020-06-09
_audit_creation_method            'assign_MBBB_charges.py'
_symmetry_space_group_name_H-M    'P1'
_symmetry_Int_Tables_number       1
_symmetry_cell_setting            triclinic
loop_
_symmetry_equiv_pos_as_xyz
  x,y,z
_cell_length_a                    50.0000
_cell_length_b                    50.0000
_cell_length_c                    50.0000
_cell_angle_alpha                 90.0000
_cell_angle_beta                  90.0000
_cell_angle_gamma                 90.0000
loop_
_atom_site_label
_atom_site_type_symbol
_atom_site_fract_x
_atom_site_fract_y
_atom_site_fract_z
_atom_site_U_iso_or_equiv
_atom_site_adp_type
_atom_site_occupancy
_atom_site_charge
X1      C         0.43376      0.41974      0.44176      0.00000   Uiso   1.00      0.83369
O2      O         0.47281      0.53750      0.47299      0.00000   Uiso   1.00     -0.64336
O3      O         0.45558      0.51683      0.52488      0.00000   Uiso   1.00     -0.64025
O4      O         0.53067      0.53969      0.48103      0.00000   Uiso   1.00     -0.64202
X5      C         0.45492      0.52223      0.46343      0.00000   Uiso   1.00      0.94175
X6      C         0.52531      0.55676      0.49904      0.00000   Uiso   1.00      0.93825
O7      O         0.56895      0.55801      0.54507      0.00000   Uiso   1.00     -0.65743
O8      O         0.46829      0.50314      0.40442      0.00000   Uiso   1.00     -0.65768
O9      O         0.54747      0.58400      0.57372      0.00000   Uiso   1.00     -0.61961
O10     O         0.48647      0.56835      0.57278      0.00000   Uiso   1.00     -0.65418
Ce11    Ce        0.50000      0.50000      0.50000      0.00000   Uiso   1.00      2.00053
O12     O         0.48828      0.50877      0.55333      0.00000   Uiso   1.00     -0.72487
O13     O         0.48782      0.44975      0.48037      0.00000   Uiso   1.00     -0.72671
O14     O         0.49523      0.44796      0.39040      0.00000   Uiso   1.00     -0.61775
X15     C         0.51236      0.43411      0.40137      0.00000   Uiso   1.00      0.84697
Ce16    Ce        0.52695      0.53812      0.56602      0.00000   Uiso   1.00      1.89450
O17     O         0.54331      0.50289      0.53426      0.00000   Uiso   1.00     -0.72401
O18     O         0.51353      0.43165      0.42723      0.00000   Uiso   1.00     -0.65779
O19     O         0.50477      0.55204      0.60960      0.00000   Uiso   1.00     -0.62209
X20     C         0.56624      0.58026      0.55824      0.00000   Uiso   1.00      0.84526
X21     C         0.54508      0.47777      0.53657      0.00000   Uiso   1.00      0.94602
X22     C         0.55359      0.50584      0.60637      0.00000   Uiso   1.00      0.84534
O23     O         0.51218      0.55025      0.51963      0.00000   Uiso   1.00     -0.71659
X24     C         0.47468      0.44324      0.50096      0.00000   Uiso   1.00      0.93701
X25     C         0.53598      0.48587      0.45132      0.00000   Uiso   1.00      0.94249
O26     O         0.56337      0.52746      0.59987      0.00000   Uiso   1.00     -0.61674
O27     O         0.46933      0.46031      0.51897      0.00000   Uiso   1.00     -0.64201
X28     C         0.44641      0.49416      0.39363      0.00000   Uiso   1.00      0.84449
Ce29    Ce        0.47305      0.46188      0.43398      0.00000   Uiso   1.00      1.90696
O30     O         0.54442      0.48317      0.47512      0.00000   Uiso   1.00     -0.64389
O31     O         0.51172      0.49123      0.44667      0.00000   Uiso   1.00     -0.72262
O32     O         0.45253      0.41600      0.42628      0.00000   Uiso   1.00     -0.62280
O33     O         0.43663      0.47254      0.40013      0.00000   Uiso   1.00     -0.62123
X34     C         0.48764      0.56589      0.59863      0.00000   Uiso   1.00      0.83494
X35     C         0.46402      0.51413      0.54868      0.00000   Uiso   1.00      0.93517
O36     O         0.53171      0.49686      0.59558      0.00000   Uiso   1.00     -0.65646
O37     O         0.43105      0.44199      0.45493      0.00000   Uiso   1.00     -0.65759
O38     O         0.45669      0.49711      0.46574      0.00000   Uiso   1.00     -0.72166
O39     O         0.52719      0.46250      0.52702      0.00000   Uiso   1.00     -0.64209
loop_
_geom_bond_atom_site_label_1
_geom_bond_atom_site_label_2
_geom_bond_distance
_geom_bond_site_symmetry_2
_ccdc_geom_bond_type
X1      O37        1.300 .   A  
X1      O32        1.230 .   A  
O2      X5         1.269 .   A  
O2      Ce11       2.681 .   S  
O3      X35        1.269 .   A  
O3      Ce11       2.681 .   S  
O4      X6         1.269 .   A  
O4      Ce11       2.681 .   S  
X5      O38        1.264 .   A  
X6      O23        1.264 .   A  
O7      Ce16       2.549 .   S  
O7      X20        1.300 .   A  
O8      Ce29       2.549 .   S  
O8      X28        1.300 .   A  
O9      Ce16       2.542 .   S  
O9      X20        1.230 .   A  
O10     X34        1.300 .   A  
O10     Ce16       2.549 .   S  
Ce11    O13        2.765 .   S  
Ce11    O30        2.681 .   S  
Ce11    O38        2.765 .   S  
Ce11    O31        2.765 .   S  
Ce11    O27        2.681 .   S  
Ce11    O12        2.765 .   S  
Ce11    O39        2.681 .   S  
Ce11    O17        2.765 .   S  
Ce11    O23        2.765 .   S  
O12     X35        1.264 .   A  
O12     Ce16       2.509 .   S  
O13     Ce29       2.509 .   S  
O13     X24        1.264 .   A  
O14     Ce29       2.542 .   S  
O14     X15        1.230 .   A  
X15     O18        1.300 .   A  
Ce16    O36        2.549 .   S  
Ce16    O17        2.509 .   S  
Ce16    O19        2.542 .   S  
Ce16    O23        2.509 .   S  
Ce16    O26        2.542 .   S  
O17     X21        1.264 .   A  
O18     Ce29       2.549 .   S  
O19     X34        1.230 .   A  
X21     O39        1.269 .   A  
X22     O36        1.300 .   A  
X22     O26        1.230 .   A  
X24     O27        1.269 .   A  
X25     O30        1.269 .   A  
X25     O31        1.264 .   A  
X28     O33        1.230 .   A  
Ce29    O37        2.549 .   S  
Ce29    O33        2.542 .   S  
Ce29    O32        2.542 .   S  
Ce29    O38        2.509 .   S  
Ce29    O31        2.509 .   S  
