4c_porphyrin
_audit_creation_date              2020-06-23
_audit_creation_method            'assign_MBBB_charges.py'
_symmetry_space_group_name_H-M    'P1'
_symmetry_Int_Tables_number       1
_symmetry_cell_setting            triclinic
loop_
_symmetry_equiv_pos_as_xyz
  x,y,z
_cell_length_a                    50.0000
_cell_length_b                    50.0000
_cell_length_c                    50.0000
_cell_angle_alpha                 90.0000
_cell_angle_beta                  90.0000
_cell_angle_gamma                 90.0000
loop_
_atom_site_label
_atom_site_type_symbol
_atom_site_fract_x
_atom_site_fract_y
_atom_site_fract_z
_atom_site_U_iso_or_equiv
_atom_site_adp_type
_atom_site_occupancy
_atom_site_charge
N2      N         0.50000      0.45780      0.50000      0.00000   Uiso   1.00     -0.36312
N3      N         0.53965      0.50027      0.50000      0.00000   Uiso   1.00     -0.56873
N4      N         0.50000      0.54290      0.50000      0.00000   Uiso   1.00     -0.36306
N5      N         0.46035      0.50027      0.50000      0.00000   Uiso   1.00     -0.56873
C6      C         0.52293      0.44277      0.50000      0.00000   Uiso   1.00      0.27276
C7      C         0.47707      0.44277      0.50000      0.00000   Uiso   1.00      0.27277
C8      C         0.52275      0.55880      0.50000      0.00000   Uiso   1.00      0.27272
C9      C         0.47725      0.55880      0.50000      0.00000   Uiso   1.00      0.27272
C10     C         0.55562      0.47951      0.50000      0.00000   Uiso   1.00      0.35892
C11     C         0.55618      0.52251      0.50000      0.00000   Uiso   1.00      0.35894
C12     C         0.44438      0.47951      0.50000      0.00000   Uiso   1.00      0.35892
C13     C         0.44382      0.52251      0.50000      0.00000   Uiso   1.00      0.35894
C14     C         0.51342      0.41522      0.50000      0.00000   Uiso   1.00     -0.21595
C15     C         0.48658      0.41522      0.50000      0.00000   Uiso   1.00     -0.21595
C16     C         0.51400      0.58505      0.50000      0.00000   Uiso   1.00     -0.21594
C17     C         0.48600      0.58505      0.50000      0.00000   Uiso   1.00     -0.21594
C18     C         0.58423      0.48634      0.50000      0.00000   Uiso   1.00     -0.22651
C19     C         0.58344      0.51284      0.50000      0.00000   Uiso   1.00     -0.22648
C20     C         0.41577      0.48634      0.50000      0.00000   Uiso   1.00     -0.22651
C21     C         0.41656      0.51284      0.50000      0.00000   Uiso   1.00     -0.22647
X22     C         0.54873      0.45028      0.50000      0.00000   Uiso   1.00     -0.17999
X23     C         0.45127      0.45028      0.50000      0.00000   Uiso   1.00     -0.17999
X24     C         0.45021      0.54884      0.50000      0.00000   Uiso   1.00     -0.17995
X25     C         0.54979      0.54884      0.50000      0.00000   Uiso   1.00     -0.17995
H26     H         0.52550      0.39740      0.50000      0.00000   Uiso   1.00      0.14908
H27     H         0.47450      0.39740      0.50000      0.00000   Uiso   1.00      0.14908
H28     H         0.52638      0.60277      0.50000      0.00000   Uiso   1.00      0.14908
H29     H         0.47362      0.60277      0.50000      0.00000   Uiso   1.00      0.14908
H30     H         0.60150      0.47364      0.50000      0.00000   Uiso   1.00      0.13196
H31     H         0.60112      0.52518      0.50000      0.00000   Uiso   1.00      0.13194
H32     H         0.39850      0.47364      0.50000      0.00000   Uiso   1.00      0.13196
H33     H         0.39888      0.52518      0.50000      0.00000   Uiso   1.00      0.13194
H37     H         0.50000      0.47813      0.50000      0.00000   Uiso   1.00      0.26454
H38     H         0.50000      0.52262      0.50000      0.00000   Uiso   1.00      0.26452
loop_
_geom_bond_atom_site_label_1
_geom_bond_atom_site_label_2
_geom_bond_distance
_geom_bond_site_symmetry_2
_ccdc_geom_bond_type
N2      C7         1.371 .   A  
N2      H37        1.017 .   S  
N2      C6         1.371 .   A  
N3      C10        1.310 .   A  
N3      C11        1.385 .   A  
N4      C9         1.388 .   A  
N4      H38        1.014 .   S  
N4      C8         1.388 .   A  
N5      C12        1.310 .   A  
N5      C13        1.385 .   A  
C6      C14        1.457 .   A  
C6      X22        1.344 .   A  
C7      X23        1.344 .   A  
C7      C15        1.457 .   A  
C8      C16        1.383 .   A  
C8      X25        1.441 .   A  
C9      X24        1.441 .   A  
C9      C17        1.383 .   A  
C10     X22        1.501 .   A  
C10     C18        1.471 .   A  
C11     X25        1.355 .   A  
C11     C19        1.446 .   A  
C12     C20        1.471 .   A  
C12     X23        1.501 .   A  
C13     C21        1.446 .   A  
C13     X24        1.355 .   A  
C14     C15        1.342 .   A  
C14     H26        1.076 .   S  
C15     H27        1.076 .   S  
C16     C17        1.400 .   A  
C16     H28        1.081 .   S  
C17     H29        1.081 .   S  
C18     H30        1.072 .   S  
C18     C19        1.326 .   A  
C19     H31        1.078 .   S  
C20     H32        1.072 .   S  
C20     C21        1.326 .   A  
C21     H33        1.078 .   S  
