# Generated by pormake.
# Topology uod, (4)-cn, num edge types: 1
# Building blocks:
#     Node 0, Type 0, BuildingBlock: CEKHIL_clean_sbu_0, # of connection points: 4
#     Node 1, Type 0, BuildingBlock: CEKHIL_clean_sbu_0, # of connection points: 4
#     Node 2, Type 0, BuildingBlock: CEKHIL_clean_sbu_0, # of connection points: 4
#     Node 3, Type 0, BuildingBlock: CEKHIL_clean_sbu_0, # of connection points: 4
#     Node 4, Type 0, BuildingBlock: CEKHIL_clean_sbu_0, # of connection points: 4
#     Node 5, Type 0, BuildingBlock: CEKHIL_clean_sbu_0, # of connection points: 4
#     Node 6, Type 0, BuildingBlock: CEKHIL_clean_sbu_0, # of connection points: 4
#     Node 7, Type 0, BuildingBlock: CEKHIL_clean_sbu_0, # of connection points: 4
#     Node 8, Type 0, BuildingBlock: CEKHIL_clean_sbu_0, # of connection points: 4
#     Node 9, Type 0, BuildingBlock: CEKHIL_clean_sbu_0, # of connection points: 4
#     Node 10, Type 0, BuildingBlock: CEKHIL_clean_sbu_0, # of connection points: 4
#     Node 11, Type 0, BuildingBlock: CEKHIL_clean_sbu_0, # of connection points: 4
#     Node 12, Type 0, BuildingBlock: CEKHIL_clean_sbu_0, # of connection points: 4
#     Node 13, Type 0, BuildingBlock: CEKHIL_clean_sbu_0, # of connection points: 4
#     Node 14, Type 0, BuildingBlock: CEKHIL_clean_sbu_0, # of connection points: 4
#     Node 15, Type 0, BuildingBlock: CEKHIL_clean_sbu_0, # of connection points: 4
#     Node 16, Type 0, BuildingBlock: CEKHIL_clean_sbu_0, # of connection points: 4
#     Node 17, Type 0, BuildingBlock: CEKHIL_clean_sbu_0, # of connection points: 4
#     Node 18, Type 0, BuildingBlock: CEKHIL_clean_sbu_0, # of connection points: 4
#     Node 19, Type 0, BuildingBlock: CEKHIL_clean_sbu_0, # of connection points: 4
#     Node 20, Type 0, BuildingBlock: CEKHIL_clean_sbu_0, # of connection points: 4
#     Node 21, Type 0, BuildingBlock: CEKHIL_clean_sbu_0, # of connection points: 4
#     Node 22, Type 0, BuildingBlock: CEKHIL_clean_sbu_0, # of connection points: 4
#     Node 23, Type 0, BuildingBlock: CEKHIL_clean_sbu_0, # of connection points: 4
#     Node 24, Type 0, BuildingBlock: CEKHIL_clean_sbu_0, # of connection points: 4
#     Node 25, Type 0, BuildingBlock: CEKHIL_clean_sbu_0, # of connection points: 4
#     Node 26, Type 0, BuildingBlock: CEKHIL_clean_sbu_0, # of connection points: 4
#     Node 27, Type 0, BuildingBlock: CEKHIL_clean_sbu_0, # of connection points: 4
#     Node 28, Type 0, BuildingBlock: CEKHIL_clean_sbu_0, # of connection points: 4
#     Node 29, Type 0, BuildingBlock: CEKHIL_clean_sbu_0, # of connection points: 4
#     Node 30, Type 0, BuildingBlock: CEKHIL_clean_sbu_0, # of connection points: 4
#     Node 31, Type 0, BuildingBlock: CEKHIL_clean_sbu_0, # of connection points: 4
#     Edge 32, Type (0, 0), BuildingBlock: EYOCIG_clean_linker_4, # of connection points: 2
#     Edge 33, Type (0, 0), BuildingBlock: EYOCIG_clean_linker_4, # of connection points: 2
#     Edge 34, Type (0, 0), BuildingBlock: EYOCIG_clean_linker_4, # of connection points: 2
#     Edge 35, Type (0, 0), BuildingBlock: EYOCIG_clean_linker_4, # of connection points: 2
#     Edge 36, Type (0, 0), BuildingBlock: EYOCIG_clean_linker_4, # of connection points: 2
#     Edge 37, Type (0, 0), BuildingBlock: EYOCIG_clean_linker_4, # of connection points: 2
#     Edge 38, Type (0, 0), BuildingBlock: EYOCIG_clean_linker_4, # of connection points: 2
#     Edge 39, Type (0, 0), BuildingBlock: EYOCIG_clean_linker_4, # of connection points: 2
#     Edge 40, Type (0, 0), BuildingBlock: EYOCIG_clean_linker_4, # of connection points: 2
#     Edge 41, Type (0, 0), BuildingBlock: EYOCIG_clean_linker_4, # of connection points: 2
#     Edge 42, Type (0, 0), BuildingBlock: EYOCIG_clean_linker_4, # of connection points: 2
#     Edge 43, Type (0, 0), BuildingBlock: EYOCIG_clean_linker_4, # of connection points: 2
#     Edge 44, Type (0, 0), BuildingBlock: EYOCIG_clean_linker_4, # of connection points: 2
#     Edge 45, Type (0, 0), BuildingBlock: EYOCIG_clean_linker_4, # of connection points: 2
#     Edge 46, Type (0, 0), BuildingBlock: EYOCIG_clean_linker_4, # of connection points: 2
#     Edge 47, Type (0, 0), BuildingBlock: EYOCIG_clean_linker_4, # of connection points: 2
#     Edge 48, Type (0, 0), BuildingBlock: EYOCIG_clean_linker_4, # of connection points: 2
#     Edge 49, Type (0, 0), BuildingBlock: EYOCIG_clean_linker_4, # of connection points: 2
#     Edge 50, Type (0, 0), BuildingBlock: EYOCIG_clean_linker_4, # of connection points: 2
#     Edge 51, Type (0, 0), BuildingBlock: EYOCIG_clean_linker_4, # of connection points: 2
#     Edge 52, Type (0, 0), BuildingBlock: EYOCIG_clean_linker_4, # of connection points: 2
#     Edge 53, Type (0, 0), BuildingBlock: EYOCIG_clean_linker_4, # of connection points: 2
#     Edge 54, Type (0, 0), BuildingBlock: EYOCIG_clean_linker_4, # of connection points: 2
#     Edge 55, Type (0, 0), BuildingBlock: EYOCIG_clean_linker_4, # of connection points: 2
#     Edge 56, Type (0, 0), BuildingBlock: EYOCIG_clean_linker_4, # of connection points: 2
#     Edge 57, Type (0, 0), BuildingBlock: EYOCIG_clean_linker_4, # of connection points: 2
#     Edge 58, Type (0, 0), BuildingBlock: EYOCIG_clean_linker_4, # of connection points: 2
#     Edge 59, Type (0, 0), BuildingBlock: EYOCIG_clean_linker_4, # of connection points: 2
#     Edge 60, Type (0, 0), BuildingBlock: EYOCIG_clean_linker_4, # of connection points: 2
#     Edge 61, Type (0, 0), BuildingBlock: EYOCIG_clean_linker_4, # of connection points: 2
#     Edge 62, Type (0, 0), BuildingBlock: EYOCIG_clean_linker_4, # of connection points: 2
#     Edge 63, Type (0, 0), BuildingBlock: EYOCIG_clean_linker_4, # of connection points: 2
#     Edge 64, Type (0, 0), BuildingBlock: EYOCIG_clean_linker_4, # of connection points: 2
#     Edge 65, Type (0, 0), BuildingBlock: EYOCIG_clean_linker_4, # of connection points: 2
#     Edge 66, Type (0, 0), BuildingBlock: EYOCIG_clean_linker_4, # of connection points: 2
#     Edge 67, Type (0, 0), BuildingBlock: EYOCIG_clean_linker_4, # of connection points: 2
#     Edge 68, Type (0, 0), BuildingBlock: EYOCIG_clean_linker_4, # of connection points: 2
#     Edge 69, Type (0, 0), BuildingBlock: EYOCIG_clean_linker_4, # of connection points: 2
#     Edge 70, Type (0, 0), BuildingBlock: EYOCIG_clean_linker_4, # of connection points: 2
#     Edge 71, Type (0, 0), BuildingBlock: EYOCIG_clean_linker_4, # of connection points: 2
#     Edge 72, Type (0, 0), BuildingBlock: EYOCIG_clean_linker_4, # of connection points: 2
#     Edge 73, Type (0, 0), BuildingBlock: EYOCIG_clean_linker_4, # of connection points: 2
#     Edge 74, Type (0, 0), BuildingBlock: EYOCIG_clean_linker_4, # of connection points: 2
#     Edge 75, Type (0, 0), BuildingBlock: EYOCIG_clean_linker_4, # of connection points: 2
#     Edge 76, Type (0, 0), BuildingBlock: EYOCIG_clean_linker_4, # of connection points: 2
#     Edge 77, Type (0, 0), BuildingBlock: EYOCIG_clean_linker_4, # of connection points: 2
#     Edge 78, Type (0, 0), BuildingBlock: EYOCIG_clean_linker_4, # of connection points: 2
#     Edge 79, Type (0, 0), BuildingBlock: EYOCIG_clean_linker_4, # of connection points: 2
#     Edge 80, Type (0, 0), BuildingBlock: EYOCIG_clean_linker_4, # of connection points: 2
#     Edge 81, Type (0, 0), BuildingBlock: EYOCIG_clean_linker_4, # of connection points: 2
#     Edge 82, Type (0, 0), BuildingBlock: EYOCIG_clean_linker_4, # of connection points: 2
#     Edge 83, Type (0, 0), BuildingBlock: EYOCIG_clean_linker_4, # of connection points: 2
#     Edge 84, Type (0, 0), BuildingBlock: EYOCIG_clean_linker_4, # of connection points: 2
#     Edge 85, Type (0, 0), BuildingBlock: EYOCIG_clean_linker_4, # of connection points: 2
#     Edge 86, Type (0, 0), BuildingBlock: EYOCIG_clean_linker_4, # of connection points: 2
#     Edge 87, Type (0, 0), BuildingBlock: EYOCIG_clean_linker_4, # of connection points: 2
#     Edge 88, Type (0, 0), BuildingBlock: EYOCIG_clean_linker_4, # of connection points: 2
#     Edge 89, Type (0, 0), BuildingBlock: EYOCIG_clean_linker_4, # of connection points: 2
#     Edge 90, Type (0, 0), BuildingBlock: EYOCIG_clean_linker_4, # of connection points: 2
#     Edge 91, Type (0, 0), BuildingBlock: EYOCIG_clean_linker_4, # of connection points: 2
#     Edge 92, Type (0, 0), BuildingBlock: EYOCIG_clean_linker_4, # of connection points: 2
#     Edge 93, Type (0, 0), BuildingBlock: EYOCIG_clean_linker_4, # of connection points: 2
#     Edge 94, Type (0, 0), BuildingBlock: EYOCIG_clean_linker_4, # of connection points: 2
#     Edge 95, Type (0, 0), BuildingBlock: EYOCIG_clean_linker_4, # of connection points: 2
# Relax obj value: 0.164
# Max RMSD: 0.161
# Mean RMSD: 0.161
data_MOF--net-uod--node1-CEKHIL_clean_sbu_0--edge1-EYOCIG_clean_linker_4
_symmetry_space_group_name_H-M    P1
_symmetry_Int_Tables_number       1
_symmetry_cell_setting            triclinic
loop_
_symmetry_equiv_pos_as_xyz
'x, y, z'
_cell_length_a     74.387
_cell_length_b     20.439
_cell_length_c     48.036
_cell_angle_alpha  90.000
_cell_angle_beta   90.013
_cell_angle_gamma  90.000
loop_
_atom_site_label
_atom_site_type_symbol
_atom_site_fract_x
_atom_site_fract_y
_atom_site_fract_z
_atom_type_partial_charge
Co0 Co 0.04474 0.39401 0.08928 0.0
O1 O 0.01679 0.40596 0.07414 0.0
O2 O 0.04061 0.41722 0.04737 0.0
C3 C 0.03748 0.28607 0.11210 0.0
O4 O 0.07164 0.38837 0.09000 0.0
Co5 Co 0.05304 0.38228 0.16050 0.0
O6 O 0.07561 0.39144 0.13590 0.0
C7 C 0.03988 0.50290 0.12918 0.0
C8 C 0.02383 0.41733 0.05110 0.0
C9 C 0.08115 0.39066 0.11167 0.0
O10 O 0.04324 0.48550 0.10506 0.0
O11 O 0.04022 0.46788 0.15029 0.0
O12 O 0.04061 0.29070 0.08667 0.0
O13 O 0.03837 0.33615 0.12773 0.0
Co14 Co 0.20525 0.85596 0.08927 0.0
O15 O 0.23320 0.84402 0.07414 0.0
O16 O 0.20936 0.83275 0.04736 0.0
C17 C 0.21251 0.96390 0.11209 0.0
O18 O 0.17835 0.86159 0.08999 0.0
Co19 Co 0.19696 0.86769 0.16048 0.0
O20 O 0.17439 0.85852 0.13588 0.0
C21 C 0.21011 0.74707 0.12917 0.0
C22 C 0.22615 0.83265 0.05109 0.0
C23 C 0.16885 0.85931 0.11165 0.0
O24 O 0.20675 0.76447 0.10505 0.0
O25 O 0.20978 0.78209 0.15028 0.0
O26 O 0.20938 0.95927 0.08666 0.0
O27 O 0.21163 0.91381 0.12773 0.0
Co28 Co 0.04475 0.85596 0.16073 0.0
O29 O 0.01681 0.84402 0.17586 0.0
O30 O 0.04064 0.83275 0.20264 0.0
C31 C 0.03749 0.96390 0.13791 0.0
O32 O 0.07165 0.86160 0.16001 0.0
Co33 Co 0.05304 0.86769 0.08951 0.0
O34 O 0.07561 0.85852 0.11412 0.0
C35 C 0.03989 0.74707 0.12083 0.0
C36 C 0.02385 0.83265 0.19891 0.0
C37 C 0.08115 0.85931 0.13835 0.0
O38 O 0.04325 0.76447 0.14495 0.0
O39 O 0.04022 0.78209 0.09972 0.0
O40 O 0.04062 0.95927 0.16334 0.0
O41 O 0.03837 0.91381 0.12227 0.0
Co42 Co 0.20526 0.39401 0.16072 0.0
O43 O 0.23321 0.40596 0.17586 0.0
O44 O 0.20938 0.41722 0.20263 0.0
C45 C 0.21252 0.28607 0.13790 0.0
O46 O 0.17836 0.38837 0.16000 0.0
Co47 Co 0.19696 0.38228 0.08950 0.0
O48 O 0.17439 0.39144 0.11410 0.0
C49 C 0.21012 0.50290 0.12082 0.0
C50 C 0.22617 0.41733 0.19890 0.0
C51 C 0.16885 0.39066 0.13833 0.0
O52 O 0.20676 0.48550 0.14494 0.0
O53 O 0.20978 0.46788 0.09971 0.0
O54 O 0.20939 0.29070 0.16333 0.0
O55 O 0.21163 0.33615 0.12226 0.0
Co56 Co 0.95525 0.60599 0.91072 0.0
O57 O 0.98320 0.59404 0.92586 0.0
O58 O 0.95938 0.58278 0.95263 0.0
C59 C 0.96252 0.71393 0.88790 0.0
O60 O 0.92835 0.61163 0.91000 0.0
Co61 Co 0.94695 0.61772 0.83950 0.0
O62 O 0.92439 0.60856 0.86410 0.0
C63 C 0.96011 0.49710 0.87082 0.0
C64 C 0.97616 0.58267 0.94890 0.0
C65 C 0.91885 0.60934 0.88833 0.0
O66 O 0.95676 0.51450 0.89494 0.0
O67 O 0.95977 0.53212 0.84971 0.0
O68 O 0.95939 0.70930 0.91333 0.0
O69 O 0.96163 0.66385 0.87226 0.0
Co70 Co 0.79475 0.14404 0.91073 0.0
O71 O 0.76680 0.15598 0.92586 0.0
O72 O 0.79063 0.16725 0.95264 0.0
C73 C 0.78748 0.03610 0.88791 0.0
O74 O 0.82165 0.13841 0.91002 0.0
Co75 Co 0.80304 0.13231 0.83952 0.0
O76 O 0.82561 0.14148 0.86412 0.0
C77 C 0.78988 0.25293 0.87083 0.0
C78 C 0.77384 0.16735 0.94891 0.0
C79 C 0.83115 0.14069 0.88835 0.0
O80 O 0.79324 0.23553 0.89496 0.0
O81 O 0.79022 0.21791 0.84972 0.0
O82 O 0.79061 0.04073 0.91334 0.0
O83 O 0.78837 0.08619 0.87227 0.0
Co84 Co 0.95525 0.14404 0.83927 0.0
O85 O 0.98320 0.15598 0.82414 0.0
O86 O 0.95937 0.16724 0.79736 0.0
C87 C 0.96252 0.03610 0.86209 0.0
O88 O 0.92835 0.13840 0.83998 0.0
Co89 Co 0.94696 0.13231 0.91048 0.0
O90 O 0.92439 0.14148 0.88588 0.0
C91 C 0.96012 0.25293 0.87917 0.0
C92 C 0.97615 0.16735 0.80109 0.0
C93 C 0.91885 0.14069 0.86165 0.0
O94 O 0.95676 0.23553 0.85504 0.0
O95 O 0.95978 0.21791 0.90028 0.0
O96 O 0.95939 0.04073 0.83666 0.0
O97 O 0.96163 0.08619 0.87773 0.0
Co98 Co 0.79475 0.60599 0.83928 0.0
O99 O 0.76680 0.59404 0.82414 0.0
O100 O 0.79062 0.58278 0.79737 0.0
C101 C 0.78748 0.71393 0.86210 0.0
O102 O 0.82165 0.61163 0.84000 0.0
Co103 Co 0.80305 0.61772 0.91050 0.0
O104 O 0.82561 0.60856 0.88590 0.0
C105 C 0.78989 0.49710 0.87918 0.0
C106 C 0.77384 0.58267 0.80110 0.0
C107 C 0.83115 0.60934 0.86168 0.0
O108 O 0.79324 0.51450 0.85506 0.0
O109 O 0.79023 0.53212 0.90029 0.0
O110 O 0.79061 0.70930 0.83667 0.0
O111 O 0.78837 0.66385 0.87774 0.0
Co112 Co 0.04474 0.89401 0.58928 0.0
O113 O 0.01679 0.90596 0.57414 0.0
O114 O 0.04061 0.91722 0.54737 0.0
C115 C 0.03748 0.78607 0.61210 0.0
O116 O 0.07164 0.88837 0.59000 0.0
Co117 Co 0.05304 0.88228 0.66050 0.0
O118 O 0.07561 0.89144 0.63590 0.0
C119 C 0.03988 0.00290 0.62918 0.0
C120 C 0.02383 0.91733 0.55110 0.0
C121 C 0.08115 0.89066 0.61167 0.0
O122 O 0.04324 0.98550 0.60506 0.0
O123 O 0.04022 0.96788 0.65029 0.0
O124 O 0.04061 0.79070 0.58667 0.0
O125 O 0.03837 0.83615 0.62773 0.0
Co126 Co 0.20525 0.35596 0.58927 0.0
O127 O 0.23319 0.34402 0.57414 0.0
O128 O 0.20936 0.33275 0.54736 0.0
C129 C 0.21251 0.46390 0.61209 0.0
O130 O 0.17835 0.36159 0.58999 0.0
Co131 Co 0.19696 0.36769 0.66049 0.0
O132 O 0.17439 0.35852 0.63588 0.0
C133 C 0.21011 0.24707 0.62917 0.0
C134 C 0.22615 0.33265 0.55109 0.0
C135 C 0.16885 0.35931 0.61165 0.0
O136 O 0.20675 0.26447 0.60505 0.0
O137 O 0.20978 0.28209 0.65028 0.0
O138 O 0.20938 0.45927 0.58666 0.0
O139 O 0.21163 0.41381 0.62773 0.0
Co140 Co 0.04475 0.35596 0.66073 0.0
O141 O 0.01681 0.34402 0.67586 0.0
O142 O 0.04064 0.33275 0.70264 0.0
C143 C 0.03749 0.46390 0.63791 0.0
O144 O 0.07165 0.36160 0.66001 0.0
Co145 Co 0.05304 0.36769 0.58951 0.0
O146 O 0.07561 0.35852 0.61412 0.0
C147 C 0.03989 0.24707 0.62083 0.0
C148 C 0.02385 0.33265 0.69891 0.0
C149 C 0.08116 0.35931 0.63835 0.0
O150 O 0.04325 0.26447 0.64495 0.0
O151 O 0.04022 0.28209 0.59972 0.0
O152 O 0.04062 0.45927 0.66334 0.0
O153 O 0.03837 0.41381 0.62227 0.0
Co154 Co 0.20526 0.89401 0.66072 0.0
O155 O 0.23321 0.90596 0.67586 0.0
O156 O 0.20938 0.91722 0.70263 0.0
C157 C 0.21252 0.78607 0.63790 0.0
O158 O 0.17836 0.88837 0.66000 0.0
Co159 Co 0.19696 0.88228 0.58950 0.0
O160 O 0.17439 0.89144 0.61410 0.0
C161 C 0.21012 0.00290 0.62082 0.0
C162 C 0.22617 0.91733 0.69890 0.0
C163 C 0.16885 0.89066 0.63833 0.0
O164 O 0.20676 0.98550 0.64494 0.0
O165 O 0.20978 0.96788 0.59971 0.0
O166 O 0.20939 0.79070 0.66333 0.0
O167 O 0.21163 0.83615 0.62226 0.0
Co168 Co 0.95525 0.10599 0.41072 0.0
O169 O 0.98320 0.09404 0.42586 0.0
O170 O 0.95938 0.08278 0.45263 0.0
C171 C 0.96252 0.21393 0.38790 0.0
O172 O 0.92835 0.11163 0.41000 0.0
Co173 Co 0.94695 0.11772 0.33950 0.0
O174 O 0.92439 0.10856 0.36410 0.0
C175 C 0.96011 0.99710 0.37082 0.0
C176 C 0.97616 0.08267 0.44890 0.0
C177 C 0.91885 0.10934 0.38833 0.0
O178 O 0.95676 0.01450 0.39494 0.0
O179 O 0.95977 0.03212 0.34971 0.0
O180 O 0.95939 0.20930 0.41333 0.0
O181 O 0.96163 0.16385 0.37226 0.0
Co182 Co 0.79475 0.64404 0.41073 0.0
O183 O 0.76680 0.65598 0.42586 0.0
O184 O 0.79063 0.66725 0.45264 0.0
C185 C 0.78748 0.53610 0.38791 0.0
O186 O 0.82164 0.63841 0.41002 0.0
Co187 Co 0.80304 0.63231 0.33952 0.0
O188 O 0.82561 0.64148 0.36412 0.0
C189 C 0.78988 0.75293 0.37083 0.0
C190 C 0.77384 0.66735 0.44891 0.0
C191 C 0.83115 0.64069 0.38835 0.0
O192 O 0.79324 0.73553 0.39496 0.0
O193 O 0.79022 0.71791 0.34972 0.0
O194 O 0.79061 0.54073 0.41334 0.0
O195 O 0.78837 0.58619 0.37227 0.0
Co196 Co 0.95525 0.64404 0.33927 0.0
O197 O 0.98320 0.65598 0.32414 0.0
O198 O 0.95937 0.66724 0.29736 0.0
C199 C 0.96252 0.53610 0.36209 0.0
O200 O 0.92835 0.63840 0.33998 0.0
Co201 Co 0.94696 0.63231 0.41048 0.0
O202 O 0.92439 0.64148 0.38588 0.0
C203 C 0.96012 0.75293 0.37917 0.0
C204 C 0.97616 0.66735 0.30109 0.0
C205 C 0.91885 0.64069 0.36165 0.0
O206 O 0.95676 0.73553 0.35504 0.0
O207 O 0.95978 0.71791 0.40028 0.0
O208 O 0.95939 0.54073 0.33666 0.0
O209 O 0.96163 0.58619 0.37773 0.0
Co210 Co 0.79475 0.10599 0.33928 0.0
O211 O 0.76680 0.09404 0.32414 0.0
O212 O 0.79062 0.08278 0.29737 0.0
C213 C 0.78748 0.21393 0.36210 0.0
O214 O 0.82165 0.11163 0.34000 0.0
Co215 Co 0.80305 0.11772 0.41050 0.0
O216 O 0.82561 0.10856 0.38590 0.0
C217 C 0.78989 0.99710 0.37918 0.0
C218 C 0.77384 0.08267 0.30110 0.0
C219 C 0.83115 0.10934 0.36168 0.0
O220 O 0.79324 0.01450 0.35506 0.0
O221 O 0.79023 0.03212 0.40029 0.0
O222 O 0.79061 0.20930 0.33667 0.0
O223 O 0.78837 0.16385 0.37774 0.0
Co224 Co 0.54474 0.39401 0.58928 0.0
O225 O 0.51679 0.40596 0.57414 0.0
O226 O 0.54061 0.41722 0.54737 0.0
C227 C 0.53748 0.28607 0.61210 0.0
O228 O 0.57164 0.38837 0.59000 0.0
Co229 Co 0.55304 0.38228 0.66050 0.0
O230 O 0.57561 0.39144 0.63590 0.0
C231 C 0.53988 0.50290 0.62918 0.0
C232 C 0.52383 0.41733 0.55110 0.0
C233 C 0.58115 0.39066 0.61167 0.0
O234 O 0.54324 0.48550 0.60506 0.0
O235 O 0.54022 0.46788 0.65029 0.0
O236 O 0.54060 0.29070 0.58667 0.0
O237 O 0.53837 0.33615 0.62773 0.0
Co238 Co 0.70525 0.85596 0.58927 0.0
O239 O 0.73319 0.84402 0.57414 0.0
O240 O 0.70936 0.83275 0.54736 0.0
C241 C 0.71251 0.96390 0.61209 0.0
O242 O 0.67835 0.86159 0.58999 0.0
Co243 Co 0.69696 0.86769 0.66049 0.0
O244 O 0.67439 0.85852 0.63588 0.0
C245 C 0.71011 0.74707 0.62917 0.0
C246 C 0.72615 0.83265 0.55109 0.0
C247 C 0.66884 0.85931 0.61165 0.0
O248 O 0.70675 0.76447 0.60505 0.0
O249 O 0.70978 0.78209 0.65028 0.0
O250 O 0.70938 0.95927 0.58666 0.0
O251 O 0.71163 0.91381 0.62773 0.0
Co252 Co 0.54476 0.85596 0.66073 0.0
O253 O 0.51681 0.84402 0.67586 0.0
O254 O 0.54064 0.83275 0.70264 0.0
C255 C 0.53749 0.96390 0.63791 0.0
O256 O 0.57165 0.86160 0.66001 0.0
Co257 Co 0.55304 0.86769 0.58951 0.0
O258 O 0.57561 0.85852 0.61412 0.0
C259 C 0.53989 0.74707 0.62083 0.0
C260 C 0.52385 0.83265 0.69891 0.0
C261 C 0.58116 0.85931 0.63835 0.0
O262 O 0.54325 0.76447 0.64495 0.0
O263 O 0.54022 0.78209 0.59972 0.0
O264 O 0.54062 0.95927 0.66334 0.0
O265 O 0.53837 0.91381 0.62227 0.0
Co266 Co 0.70526 0.39401 0.66072 0.0
O267 O 0.73321 0.40596 0.67586 0.0
O268 O 0.70939 0.41722 0.70263 0.0
C269 C 0.71252 0.28607 0.63790 0.0
O270 O 0.67836 0.38837 0.66000 0.0
Co271 Co 0.69696 0.38228 0.58950 0.0
O272 O 0.67439 0.39144 0.61410 0.0
C273 C 0.71012 0.50290 0.62082 0.0
C274 C 0.72617 0.41733 0.69890 0.0
C275 C 0.66885 0.39066 0.63833 0.0
O276 O 0.70676 0.48550 0.64494 0.0
O277 O 0.70978 0.46788 0.59971 0.0
O278 O 0.70939 0.29070 0.66333 0.0
O279 O 0.71163 0.33615 0.62226 0.0
Co280 Co 0.45525 0.60599 0.41072 0.0
O281 O 0.48320 0.59404 0.42586 0.0
O282 O 0.45938 0.58278 0.45263 0.0
C283 C 0.46252 0.71393 0.38790 0.0
O284 O 0.42835 0.61163 0.41000 0.0
Co285 Co 0.44695 0.61772 0.33950 0.0
O286 O 0.42439 0.60856 0.36410 0.0
C287 C 0.46011 0.49710 0.37082 0.0
C288 C 0.47616 0.58267 0.44890 0.0
C289 C 0.41885 0.60934 0.38833 0.0
O290 O 0.45676 0.51450 0.39494 0.0
O291 O 0.45977 0.53212 0.34971 0.0
O292 O 0.45939 0.70930 0.41333 0.0
O293 O 0.46163 0.66385 0.37226 0.0
Co294 Co 0.29475 0.14404 0.41073 0.0
O295 O 0.26680 0.15598 0.42586 0.0
O296 O 0.29063 0.16725 0.45264 0.0
C297 C 0.28748 0.03610 0.38791 0.0
O298 O 0.32165 0.13841 0.41002 0.0
Co299 Co 0.30304 0.13231 0.33952 0.0
O300 O 0.32561 0.14148 0.36412 0.0
C301 C 0.28988 0.25293 0.37083 0.0
C302 C 0.27384 0.16735 0.44891 0.0
C303 C 0.33115 0.14069 0.38835 0.0
O304 O 0.29324 0.23553 0.39496 0.0
O305 O 0.29022 0.21791 0.34972 0.0
O306 O 0.29061 0.04073 0.41334 0.0
O307 O 0.28837 0.08619 0.37227 0.0
Co308 Co 0.45525 0.14404 0.33927 0.0
O309 O 0.48320 0.15598 0.32414 0.0
O310 O 0.45937 0.16724 0.29736 0.0
C311 C 0.46252 0.03610 0.36209 0.0
O312 O 0.42835 0.13840 0.33998 0.0
Co313 Co 0.44696 0.13231 0.41048 0.0
O314 O 0.42439 0.14148 0.38588 0.0
C315 C 0.46012 0.25293 0.37917 0.0
C316 C 0.47616 0.16735 0.30109 0.0
C317 C 0.41885 0.14069 0.36165 0.0
O318 O 0.45676 0.23553 0.35504 0.0
O319 O 0.45978 0.21791 0.40028 0.0
O320 O 0.45939 0.04073 0.33666 0.0
O321 O 0.46163 0.08619 0.37773 0.0
Co322 Co 0.29475 0.60599 0.33928 0.0
O323 O 0.26680 0.59404 0.32414 0.0
O324 O 0.29062 0.58278 0.29737 0.0
C325 C 0.28748 0.71393 0.36210 0.0
O326 O 0.32165 0.61163 0.34000 0.0
Co327 Co 0.30305 0.61772 0.41050 0.0
O328 O 0.32561 0.60856 0.38590 0.0
C329 C 0.28989 0.49710 0.37918 0.0
C330 C 0.27384 0.58267 0.30110 0.0
C331 C 0.33115 0.60934 0.36168 0.0
O332 O 0.29324 0.51450 0.35506 0.0
O333 O 0.29023 0.53212 0.40029 0.0
O334 O 0.29061 0.70930 0.33667 0.0
O335 O 0.28837 0.66385 0.37774 0.0
Co336 Co 0.54474 0.89401 0.08928 0.0
O337 O 0.51679 0.90596 0.07414 0.0
O338 O 0.54061 0.91722 0.04737 0.0
C339 C 0.53748 0.78607 0.11210 0.0
O340 O 0.57164 0.88837 0.09000 0.0
Co341 Co 0.55304 0.88228 0.16050 0.0
O342 O 0.57561 0.89144 0.13590 0.0
C343 C 0.53988 0.00290 0.12918 0.0
C344 C 0.52383 0.91733 0.05110 0.0
C345 C 0.58115 0.89066 0.11167 0.0
O346 O 0.54324 0.98550 0.10506 0.0
O347 O 0.54022 0.96788 0.15029 0.0
O348 O 0.54060 0.79070 0.08667 0.0
O349 O 0.53837 0.83615 0.12773 0.0
Co350 Co 0.70525 0.35596 0.08927 0.0
O351 O 0.73319 0.34402 0.07414 0.0
O352 O 0.70936 0.33275 0.04736 0.0
C353 C 0.71251 0.46390 0.11209 0.0
O354 O 0.67835 0.36159 0.08999 0.0
Co355 Co 0.69696 0.36769 0.16049 0.0
O356 O 0.67439 0.35852 0.13588 0.0
C357 C 0.71011 0.24707 0.12917 0.0
C358 C 0.72615 0.33265 0.05109 0.0
C359 C 0.66885 0.35931 0.11165 0.0
O360 O 0.70675 0.26447 0.10505 0.0
O361 O 0.70978 0.28209 0.15028 0.0
O362 O 0.70938 0.45927 0.08666 0.0
O363 O 0.71163 0.41381 0.12773 0.0
Co364 Co 0.54475 0.35596 0.16073 0.0
O365 O 0.51681 0.34402 0.17586 0.0
O366 O 0.54064 0.33275 0.20264 0.0
C367 C 0.53749 0.46390 0.13791 0.0
O368 O 0.57165 0.36160 0.16001 0.0
Co369 Co 0.55304 0.36769 0.08951 0.0
O370 O 0.57561 0.35852 0.11412 0.0
C371 C 0.53989 0.24707 0.12083 0.0
C372 C 0.52385 0.33265 0.19891 0.0
C373 C 0.58116 0.35931 0.13835 0.0
O374 O 0.54325 0.26447 0.14495 0.0
O375 O 0.54022 0.28209 0.09972 0.0
O376 O 0.54062 0.45927 0.16334 0.0
O377 O 0.53837 0.41381 0.12227 0.0
Co378 Co 0.70526 0.89401 0.16072 0.0
O379 O 0.73321 0.90596 0.17586 0.0
O380 O 0.70939 0.91722 0.20263 0.0
C381 C 0.71252 0.78607 0.13790 0.0
O382 O 0.67836 0.88837 0.16000 0.0
Co383 Co 0.69696 0.88228 0.08950 0.0
O384 O 0.67439 0.89144 0.11410 0.0
C385 C 0.71012 0.00290 0.12082 0.0
C386 C 0.72617 0.91733 0.19890 0.0
C387 C 0.66885 0.89066 0.13833 0.0
O388 O 0.70676 0.98550 0.14494 0.0
O389 O 0.70978 0.96788 0.09971 0.0
O390 O 0.70939 0.79070 0.16333 0.0
O391 O 0.71163 0.83615 0.12226 0.0
Co392 Co 0.45525 0.10599 0.91072 0.0
O393 O 0.48320 0.09404 0.92586 0.0
O394 O 0.45938 0.08278 0.95263 0.0
C395 C 0.46252 0.21393 0.88790 0.0
O396 O 0.42835 0.11163 0.91000 0.0
Co397 Co 0.44695 0.11772 0.83950 0.0
O398 O 0.42439 0.10856 0.86410 0.0
C399 C 0.46011 0.99710 0.87082 0.0
C400 C 0.47616 0.08267 0.94890 0.0
C401 C 0.41885 0.10934 0.88833 0.0
O402 O 0.45676 0.01450 0.89494 0.0
O403 O 0.45977 0.03212 0.84971 0.0
O404 O 0.45939 0.20930 0.91333 0.0
O405 O 0.46163 0.16385 0.87226 0.0
Co406 Co 0.29475 0.64404 0.91073 0.0
O407 O 0.26680 0.65598 0.92586 0.0
O408 O 0.29063 0.66725 0.95264 0.0
C409 C 0.28748 0.53610 0.88791 0.0
O410 O 0.32165 0.63841 0.91002 0.0
Co411 Co 0.30304 0.63231 0.83952 0.0
O412 O 0.32561 0.64148 0.86412 0.0
C413 C 0.28988 0.75293 0.87083 0.0
C414 C 0.27384 0.66735 0.94891 0.0
C415 C 0.33115 0.64069 0.88835 0.0
O416 O 0.29324 0.73553 0.89496 0.0
O417 O 0.29022 0.71791 0.84972 0.0
O418 O 0.29061 0.54073 0.91334 0.0
O419 O 0.28837 0.58619 0.87227 0.0
Co420 Co 0.45525 0.64404 0.83927 0.0
O421 O 0.48320 0.65598 0.82414 0.0
O422 O 0.45937 0.66724 0.79736 0.0
C423 C 0.46252 0.53610 0.86209 0.0
O424 O 0.42835 0.63840 0.83998 0.0
Co425 Co 0.44696 0.63231 0.91048 0.0
O426 O 0.42439 0.64148 0.88588 0.0
C427 C 0.46012 0.75293 0.87917 0.0
C428 C 0.47615 0.66735 0.80109 0.0
C429 C 0.41885 0.64069 0.86165 0.0
O430 O 0.45676 0.73553 0.85504 0.0
O431 O 0.45978 0.71791 0.90028 0.0
O432 O 0.45939 0.54073 0.83666 0.0
O433 O 0.46163 0.58619 0.87773 0.0
Co434 Co 0.29475 0.10599 0.83928 0.0
O435 O 0.26680 0.09404 0.82414 0.0
O436 O 0.29062 0.08278 0.79737 0.0
C437 C 0.28748 0.21393 0.86210 0.0
O438 O 0.32165 0.11163 0.84000 0.0
Co439 Co 0.30305 0.11772 0.91050 0.0
O440 O 0.32561 0.10856 0.88590 0.0
C441 C 0.28989 0.99710 0.87918 0.0
C442 C 0.27384 0.08267 0.80110 0.0
C443 C 0.33115 0.10934 0.86168 0.0
O444 O 0.29324 0.01450 0.85506 0.0
O445 O 0.29023 0.03212 0.90029 0.0
O446 O 0.29061 0.20930 0.83667 0.0
O447 O 0.28837 0.16385 0.87774 0.0
C448 C 0.03690 0.65924 0.12513 0.0
C449 C 0.03651 0.71533 0.12029 0.0
C450 C 0.03694 0.59259 0.12975 0.0
C451 C 0.03709 0.53575 0.13262 0.0
C452 C 0.21439 0.65756 0.12925 0.0
C453 C 0.21376 0.71420 0.13267 0.0
C454 C 0.21442 0.59093 0.12457 0.0
C455 C 0.21422 0.53490 0.11960 0.0
C456 C 0.96467 0.34112 0.87581 0.0
C457 C 0.96398 0.28478 0.88000 0.0
C458 C 0.96469 0.40778 0.87123 0.0
C459 C 0.96433 0.46458 0.86824 0.0
C460 C 0.78613 0.40925 0.87497 0.0
C461 C 0.78661 0.46537 0.87971 0.0
C462 C 0.78609 0.34259 0.87035 0.0
C463 C 0.78603 0.28574 0.86750 0.0
C464 C 0.03536 0.09226 0.62888 0.0
C465 C 0.03605 0.03571 0.63252 0.0
C466 C 0.03533 0.15888 0.62419 0.0
C467 C 0.03568 0.21496 0.61931 0.0
C468 C 0.21485 0.09206 0.62165 0.0
C469 C 0.21414 0.03561 0.61773 0.0
C470 C 0.21487 0.15868 0.62634 0.0
C471 C 0.21438 0.21481 0.63107 0.0
C472 C 0.96178 0.90819 0.37229 0.0
C473 C 0.96246 0.96452 0.36808 0.0
C474 C 0.96177 0.84157 0.37699 0.0
C475 C 0.96239 0.78535 0.38148 0.0
C476 C 0.78653 0.84074 0.37516 0.0
C477 C 0.78685 0.78468 0.37026 0.0
C478 C 0.78649 0.90739 0.37980 0.0
C479 C 0.78626 0.96423 0.38269 0.0
C480 C 0.53762 0.65906 0.62464 0.0
C481 C 0.53699 0.71530 0.62019 0.0
C482 C 0.53765 0.59240 0.62924 0.0
C483 C 0.53746 0.53555 0.63212 0.0
C484 C 0.71204 0.65884 0.62592 0.0
C485 C 0.71274 0.71520 0.63005 0.0
C486 C 0.71201 0.59217 0.62134 0.0
C487 C 0.71241 0.53539 0.61832 0.0
C488 C 0.46385 0.40925 0.37504 0.0
C489 C 0.46338 0.46537 0.37029 0.0
C490 C 0.46389 0.34260 0.37966 0.0
C491 C 0.46396 0.28574 0.38251 0.0
C492 C 0.28577 0.40915 0.37522 0.0
C493 C 0.28636 0.46535 0.37977 0.0
C494 C 0.28573 0.34249 0.37062 0.0
C495 C 0.28584 0.28564 0.36777 0.0
C496 C 0.53823 0.15841 0.12296 0.0
C497 C 0.53755 0.21497 0.11936 0.0
C498 C 0.53824 0.09174 0.12753 0.0
C499 C 0.53761 0.03510 0.13094 0.0
C500 C 0.71177 0.09177 0.12240 0.0
C501 C 0.71239 0.03512 0.11901 0.0
C502 C 0.71177 0.15844 0.12697 0.0
C503 C 0.71246 0.21499 0.13060 0.0
C504 C 0.46408 0.84084 0.87508 0.0
C505 C 0.46354 0.78467 0.87972 0.0
C506 C 0.46412 0.90749 0.87047 0.0
C507 C 0.46407 0.96435 0.86763 0.0
C508 C 0.28514 0.84208 0.87168 0.0
C509 C 0.28562 0.78533 0.86856 0.0
C510 C 0.28516 0.90875 0.87626 0.0
C511 C 0.28588 0.96518 0.88022 0.0
C512 C 0.99664 0.52329 0.99065 0.0
C513 C 0.98857 0.55393 0.97430 0.0
C514 C 0.00549 0.48542 0.01010 0.0
C515 C 0.01269 0.45125 0.02614 0.0
C516 C 0.25583 0.73334 0.99101 0.0
C517 C 0.26271 0.70120 0.97391 0.0
C518 C 0.24700 0.77103 0.01054 0.0
C519 C 0.23897 0.80140 0.02702 0.0
C520 C 0.00404 0.76498 0.23847 0.0
C521 C 0.01192 0.79805 0.22277 0.0
C522 C 0.99518 0.72726 0.25795 0.0
C523 C 0.98762 0.69733 0.27510 0.0
C524 C 0.24520 0.47721 0.24204 0.0
C525 C 0.23812 0.44623 0.22473 0.0
C526 C 0.25399 0.51511 0.26155 0.0
C527 C 0.26140 0.54921 0.27740 0.0
C528 C 0.75565 0.23491 0.99026 0.0
C529 C 0.76251 0.20191 0.97343 0.0
C530 C 0.74683 0.27263 0.00980 0.0
C531 C 0.73897 0.30258 0.02660 0.0
C532 C 0.99526 0.23594 0.76108 0.0
C533 C 0.98815 0.20186 0.77727 0.0
C534 C 0.00405 0.27376 0.74156 0.0
C535 C 0.01144 0.30391 0.72430 0.0
C536 C 0.74465 0.47885 0.74206 0.0
C537 C 0.73774 0.44696 0.72489 0.0
C538 C 0.75345 0.51678 0.76155 0.0
C539 C 0.76113 0.55044 0.77726 0.0
C540 C 0.99416 0.01678 0.49105 0.0
C541 C 0.98728 0.04888 0.47393 0.0
C542 C 0.00299 0.97908 0.51059 0.0
C543 C 0.01102 0.94865 0.52705 0.0
C544 C 0.25527 0.23581 0.48953 0.0
C545 C 0.26220 0.20213 0.47302 0.0
C546 C 0.24647 0.27357 0.50907 0.0
C547 C 0.23883 0.30345 0.52615 0.0
C548 C 0.24480 0.97829 0.74209 0.0
C549 C 0.23785 0.94669 0.72486 0.0
C550 C 0.25360 0.01621 0.76158 0.0
C551 C 0.26120 0.05005 0.77732 0.0
C552 C 0.75583 0.73256 0.49129 0.0
C553 C 0.76276 0.70079 0.47410 0.0
C554 C 0.74700 0.77024 0.51082 0.0
C555 C 0.73892 0.80088 0.52715 0.0
C556 C 0.74472 0.98578 0.23955 0.0
C557 C 0.73739 0.95163 0.22363 0.0
C558 C 0.75357 0.02363 0.25900 0.0
C559 C 0.76159 0.05397 0.27551 0.0
C560 C 0.49478 0.51414 0.48945 0.0
C561 C 0.48784 0.54790 0.47297 0.0
C562 C 0.50358 0.47635 0.50898 0.0
C563 C 0.51118 0.44645 0.52610 0.0
C564 C 0.50325 0.76776 0.73859 0.0
C565 C 0.51135 0.79939 0.72262 0.0
C566 C 0.49440 0.73008 0.75809 0.0
C567 C 0.48726 0.69933 0.77541 0.0
C568 C 0.49625 0.22624 0.25876 0.0
C569 C 0.48828 0.19609 0.27538 0.0
C570 C 0.50512 0.26406 0.23932 0.0
C571 C 0.51254 0.29814 0.22347 0.0
C572 C 0.49664 0.01720 0.98850 0.0
C573 C 0.48891 0.05072 0.97280 0.0
C574 C 0.50545 0.97926 0.00798 0.0
C575 C 0.51233 0.94717 0.02511 0.0
C576 C 0.13361 0.39598 0.13060 0.0
C577 C 0.14887 0.39483 0.13649 0.0
C578 C 0.11579 0.39587 0.12256 0.0
C579 C 0.10078 0.39340 0.11538 0.0
C580 C 0.11566 0.85667 0.12676 0.0
C581 C 0.10074 0.85840 0.13441 0.0
C582 C 0.13347 0.85652 0.11868 0.0
C583 C 0.14875 0.85634 0.11288 0.0
C584 C 0.86571 0.60540 0.87300 0.0
C585 C 0.85083 0.60578 0.86510 0.0
C586 C 0.88351 0.60553 0.88112 0.0
C587 C 0.89871 0.60764 0.88735 0.0
C588 C 0.88361 0.14604 0.86942 0.0
C589 C 0.89874 0.14355 0.86285 0.0
C590 C 0.86582 0.14614 0.87756 0.0
C591 C 0.85092 0.14491 0.88535 0.0
C592 C 0.13436 0.89213 0.62665 0.0
C593 C 0.14926 0.89082 0.63441 0.0
C594 C 0.11655 0.89228 0.61857 0.0
C595 C 0.10128 0.89298 0.61274 0.0
C596 C 0.11642 0.36266 0.63076 0.0
C597 C 0.10127 0.36024 0.63723 0.0
C598 C 0.13422 0.36277 0.62262 0.0
C599 C 0.14911 0.36177 0.61478 0.0
C600 C 0.86586 0.11359 0.37220 0.0
C601 C 0.85081 0.11102 0.36522 0.0
C602 C 0.88368 0.11367 0.38023 0.0
C603 C 0.89892 0.11211 0.38623 0.0
C604 C 0.88422 0.63730 0.37264 0.0
C605 C 0.89923 0.63972 0.36541 0.0
C606 C 0.86641 0.63719 0.38069 0.0
C607 C 0.85115 0.63822 0.38658 0.0
C608 C 0.61619 0.39724 0.62047 0.0
C609 C 0.60099 0.39513 0.61424 0.0
C610 C 0.63401 0.39721 0.62849 0.0
C611 C 0.64912 0.39466 0.63515 0.0
C612 C 0.61635 0.85359 0.63038 0.0
C613 C 0.60111 0.85499 0.63635 0.0
C614 C 0.63416 0.85367 0.62233 0.0
C615 C 0.64920 0.85622 0.61527 0.0
C616 C 0.38357 0.60458 0.38083 0.0
C617 C 0.39873 0.60695 0.38724 0.0
C618 C 0.36577 0.60447 0.37270 0.0
C619 C 0.35088 0.60535 0.36486 0.0
C620 C 0.38356 0.13754 0.36917 0.0
C621 C 0.39883 0.13836 0.36331 0.0
C622 C 0.36575 0.13765 0.37722 0.0
C623 C 0.35076 0.14000 0.38454 0.0
C624 C 0.63379 0.88576 0.12966 0.0
C625 C 0.64883 0.88833 0.13667 0.0
C626 C 0.61599 0.88573 0.12151 0.0
C627 C 0.60103 0.88780 0.11403 0.0
C628 C 0.63376 0.35290 0.12019 0.0
C629 C 0.64897 0.35483 0.11404 0.0
C630 C 0.61594 0.35295 0.12823 0.0
C631 C 0.60085 0.35554 0.13502 0.0
C632 C 0.38400 0.11429 0.87852 0.0
C633 C 0.39912 0.11175 0.88516 0.0
C634 C 0.36619 0.11432 0.87049 0.0
C635 C 0.35099 0.11219 0.86425 0.0
C636 C 0.38400 0.63573 0.87145 0.0
C637 C 0.39911 0.63827 0.86481 0.0
C638 C 0.36618 0.63570 0.87949 0.0
C639 C 0.35099 0.63785 0.88575 0.0
C640 C 0.03510 0.09223 0.12930 0.0
C641 C 0.03531 0.03519 0.13133 0.0
C642 C 0.03506 0.15922 0.12567 0.0
C643 C 0.03471 0.21566 0.12162 0.0
C644 C 0.21436 0.09082 0.12541 0.0
C645 C 0.21491 0.03430 0.12163 0.0
C646 C 0.21432 0.15782 0.12901 0.0
C647 C 0.21438 0.21488 0.13100 0.0
C648 C 0.96424 0.84216 0.87894 0.0
C649 C 0.96482 0.78524 0.88139 0.0
C650 C 0.96420 0.90914 0.87527 0.0
C651 C 0.96432 0.96554 0.87111 0.0
C652 C 0.78342 0.90879 0.87587 0.0
C653 C 0.78413 0.96553 0.87893 0.0
C654 C 0.78340 0.84179 0.87230 0.0
C655 C 0.78391 0.78483 0.86999 0.0
C656 C 0.03338 0.65871 0.62397 0.0
C657 C 0.03391 0.71522 0.62015 0.0
C658 C 0.03339 0.59174 0.62767 0.0
C659 C 0.03411 0.53504 0.63082 0.0
C660 C 0.21442 0.59217 0.62090 0.0
C661 C 0.21443 0.53512 0.61892 0.0
C662 C 0.21447 0.65917 0.62451 0.0
C663 C 0.21498 0.71567 0.62835 0.0
C664 C 0.96595 0.40914 0.37528 0.0
C665 C 0.96536 0.46569 0.37159 0.0
C666 C 0.96598 0.34214 0.37888 0.0
C667 C 0.96586 0.28509 0.38089 0.0
C668 C 0.78644 0.34127 0.37403 0.0
C669 C 0.78593 0.28476 0.37020 0.0
C670 C 0.78643 0.40824 0.37773 0.0
C671 C 0.78571 0.46495 0.38086 0.0
C672 C 0.53632 0.09111 0.62556 0.0
C673 C 0.53561 0.03442 0.62877 0.0
C674 C 0.53633 0.15812 0.62198 0.0
C675 C 0.53590 0.21511 0.61977 0.0
C676 C 0.71519 0.15922 0.62433 0.0
C677 C 0.71544 0.21564 0.62844 0.0
C678 C 0.71515 0.09224 0.62069 0.0
C679 C 0.71483 0.03521 0.61860 0.0
C680 C 0.46518 0.84078 0.37433 0.0
C681 C 0.46486 0.78434 0.37838 0.0
C682 C 0.46523 0.90777 0.37070 0.0
C683 C 0.46546 0.96481 0.36866 0.0
C684 C 0.28417 0.84086 0.37539 0.0
C685 C 0.28473 0.78434 0.37163 0.0
C686 C 0.28413 0.90786 0.37900 0.0
C687 C 0.28420 0.96491 0.38099 0.0
C688 C 0.53333 0.59163 0.12729 0.0
C689 C 0.53402 0.53498 0.13062 0.0
C690 C 0.53332 0.65860 0.12359 0.0
C691 C 0.53391 0.71515 0.11991 0.0
C692 C 0.71349 0.59163 0.12273 0.0
C693 C 0.71408 0.53471 0.12026 0.0
C694 C 0.71350 0.65863 0.12630 0.0
C695 C 0.71420 0.71543 0.12916 0.0
C696 C 0.46484 0.34226 0.87928 0.0
C697 C 0.46522 0.28525 0.88143 0.0
C698 C 0.46480 0.40925 0.87563 0.0
C699 C 0.46463 0.46565 0.87148 0.0
C700 C 0.28556 0.34084 0.87547 0.0
C701 C 0.28557 0.28444 0.87130 0.0
C702 C 0.28552 0.40782 0.87914 0.0
C703 C 0.28501 0.46478 0.88145 0.0
loop_
_geom_bond_atom_site_label_1
_geom_bond_atom_site_label_2
_geom_bond_distance
_geom_bond_site_symmetry_2
_ccdc_geom_bond_type
Co0 O1 2.216 . S
Co0 O2 2.091 . S
Co0 O4 2.004 . S
Co0 O10 2.021 . S
Co0 O12 2.137 . S
Co0 O13 2.244 . S
O1 Co0 2.216 . S
O1 C8 1.247 . S
O2 Co0 2.091 . S
O2 C8 1.261 . S
C3 O12 1.247 . S
C3 O13 1.272 . S
O4 Co0 2.004 . S
O4 C9 1.259 . S
Co5 O6 2.061 . S
Co5 O11 2.052 . S
Co5 O13 2.135 . S
O6 Co5 2.061 . S
O6 C9 1.235 . S
C7 O10 1.238 . S
C7 O11 1.241 . S
C8 O1 1.247 . S
C8 O2 1.261 . S
C9 O4 1.259 . S
C9 O6 1.235 . S
O10 Co0 2.021 . S
O10 C7 1.238 . S
O11 Co5 2.052 . S
O11 C7 1.241 . S
O12 Co0 2.137 . S
O12 C3 1.247 . S
O13 Co0 2.244 . S
O13 C3 1.272 . S
O13 Co5 2.135 . S
Co14 O15 2.216 . S
Co14 O16 2.091 . S
Co14 O18 2.004 . S
Co14 O24 2.021 . S
Co14 O26 2.137 . S
Co14 O27 2.244 . S
O15 Co14 2.216 . S
O15 C22 1.247 . S
O16 Co14 2.091 . S
O16 C22 1.261 . S
C17 O26 1.247 . S
C17 O27 1.272 . S
O18 Co14 2.004 . S
O18 C23 1.259 . S
Co19 O20 2.061 . S
Co19 O25 2.052 . S
Co19 O27 2.135 . S
O20 Co19 2.061 . S
O20 C23 1.235 . S
C21 O24 1.238 . S
C21 O25 1.241 . S
C22 O15 1.247 . S
C22 O16 1.261 . S
C23 O18 1.259 . S
C23 O20 1.235 . S
O24 Co14 2.021 . S
O24 C21 1.238 . S
O25 Co19 2.052 . S
O25 C21 1.241 . S
O26 Co14 2.137 . S
O26 C17 1.247 . S
O27 Co14 2.244 . S
O27 C17 1.272 . S
O27 Co19 2.135 . S
Co28 O29 2.216 . S
Co28 O30 2.091 . S
Co28 O32 2.004 . S
Co28 O38 2.021 . S
Co28 O40 2.137 . S
Co28 O41 2.244 . S
O29 Co28 2.216 . S
O29 C36 1.247 . S
O30 Co28 2.091 . S
O30 C36 1.261 . S
C31 O40 1.247 . S
C31 O41 1.272 . S
O32 Co28 2.004 . S
O32 C37 1.259 . S
Co33 O34 2.061 . S
Co33 O39 2.052 . S
Co33 O41 2.135 . S
O34 Co33 2.061 . S
O34 C37 1.235 . S
C35 O38 1.238 . S
C35 O39 1.241 . S
C36 O29 1.247 . S
C36 O30 1.261 . S
C37 O32 1.259 . S
C37 O34 1.235 . S
O38 Co28 2.021 . S
O38 C35 1.238 . S
O39 Co33 2.052 . S
O39 C35 1.241 . S
O40 Co28 2.137 . S
O40 C31 1.247 . S
O41 Co28 2.244 . S
O41 C31 1.272 . S
O41 Co33 2.135 . S
Co42 O43 2.216 . S
Co42 O44 2.091 . S
Co42 O46 2.004 . S
Co42 O52 2.021 . S
Co42 O54 2.137 . S
Co42 O55 2.244 . S
O43 Co42 2.216 . S
O43 C50 1.247 . S
O44 Co42 2.091 . S
O44 C50 1.261 . S
C45 O54 1.247 . S
C45 O55 1.272 . S
O46 Co42 2.004 . S
O46 C51 1.259 . S
Co47 O48 2.061 . S
Co47 O53 2.052 . S
Co47 O55 2.135 . S
O48 Co47 2.061 . S
O48 C51 1.235 . S
C49 O52 1.238 . S
C49 O53 1.241 . S
C50 O43 1.247 . S
C50 O44 1.261 . S
C51 O46 1.259 . S
C51 O48 1.235 . S
O52 Co42 2.021 . S
O52 C49 1.238 . S
O53 Co47 2.052 . S
O53 C49 1.241 . S
O54 Co42 2.137 . S
O54 C45 1.247 . S
O55 Co42 2.244 . S
O55 C45 1.272 . S
O55 Co47 2.135 . S
Co56 O57 2.216 . S
Co56 O58 2.091 . S
Co56 O60 2.004 . S
Co56 O66 2.021 . S
Co56 O68 2.137 . S
Co56 O69 2.244 . S
O57 Co56 2.216 . S
O57 C64 1.247 . S
O58 Co56 2.091 . S
O58 C64 1.261 . S
C59 O68 1.247 . S
C59 O69 1.272 . S
O60 Co56 2.004 . S
O60 C65 1.259 . S
Co61 O62 2.061 . S
Co61 O67 2.052 . S
Co61 O69 2.135 . S
O62 Co61 2.061 . S
O62 C65 1.235 . S
C63 O66 1.238 . S
C63 O67 1.241 . S
C64 O57 1.247 . S
C64 O58 1.261 . S
C65 O60 1.259 . S
C65 O62 1.235 . S
O66 Co56 2.021 . S
O66 C63 1.238 . S
O67 Co61 2.052 . S
O67 C63 1.241 . S
O68 Co56 2.137 . S
O68 C59 1.247 . S
O69 Co56 2.244 . S
O69 C59 1.272 . S
O69 Co61 2.135 . S
Co70 O71 2.216 . S
Co70 O72 2.091 . S
Co70 O74 2.004 . S
Co70 O80 2.021 . S
Co70 O82 2.137 . S
Co70 O83 2.244 . S
O71 Co70 2.216 . S
O71 C78 1.247 . S
O72 Co70 2.091 . S
O72 C78 1.261 . S
C73 O82 1.247 . S
C73 O83 1.272 . S
O74 Co70 2.004 . S
O74 C79 1.259 . S
Co75 O76 2.061 . S
Co75 O81 2.052 . S
Co75 O83 2.135 . S
O76 Co75 2.061 . S
O76 C79 1.235 . S
C77 O80 1.238 . S
C77 O81 1.241 . S
C78 O71 1.247 . S
C78 O72 1.261 . S
C79 O74 1.259 . S
C79 O76 1.235 . S
O80 Co70 2.021 . S
O80 C77 1.238 . S
O81 Co75 2.052 . S
O81 C77 1.241 . S
O82 Co70 2.137 . S
O82 C73 1.247 . S
O83 Co70 2.244 . S
O83 C73 1.272 . S
O83 Co75 2.135 . S
Co84 O85 2.216 . S
Co84 O86 2.091 . S
Co84 O88 2.004 . S
Co84 O94 2.021 . S
Co84 O96 2.137 . S
Co84 O97 2.244 . S
O85 Co84 2.216 . S
O85 C92 1.247 . S
O86 Co84 2.091 . S
O86 C92 1.261 . S
C87 O96 1.247 . S
C87 O97 1.272 . S
O88 Co84 2.004 . S
O88 C93 1.259 . S
Co89 O90 2.061 . S
Co89 O95 2.052 . S
Co89 O97 2.135 . S
O90 Co89 2.061 . S
O90 C93 1.235 . S
C91 O94 1.238 . S
C91 O95 1.241 . S
C92 O85 1.247 . S
C92 O86 1.261 . S
C93 O88 1.259 . S
C93 O90 1.235 . S
O94 Co84 2.021 . S
O94 C91 1.238 . S
O95 Co89 2.052 . S
O95 C91 1.241 . S
O96 Co84 2.137 . S
O96 C87 1.247 . S
O97 Co84 2.244 . S
O97 C87 1.272 . S
O97 Co89 2.135 . S
Co98 O99 2.216 . S
Co98 O100 2.091 . S
Co98 O102 2.004 . S
Co98 O108 2.021 . S
Co98 O110 2.137 . S
Co98 O111 2.244 . S
O99 Co98 2.216 . S
O99 C106 1.247 . S
O100 Co98 2.091 . S
O100 C106 1.261 . S
C101 O110 1.247 . S
C101 O111 1.272 . S
O102 Co98 2.004 . S
O102 C107 1.259 . S
Co103 O104 2.061 . S
Co103 O109 2.052 . S
Co103 O111 2.135 . S
O104 Co103 2.061 . S
O104 C107 1.235 . S
C105 O108 1.238 . S
C105 O109 1.241 . S
C106 O99 1.247 . S
C106 O100 1.261 . S
C107 O102 1.259 . S
C107 O104 1.235 . S
O108 Co98 2.021 . S
O108 C105 1.238 . S
O109 Co103 2.052 . S
O109 C105 1.241 . S
O110 Co98 2.137 . S
O110 C101 1.247 . S
O111 Co98 2.244 . S
O111 C101 1.272 . S
O111 Co103 2.135 . S
Co112 O113 2.216 . S
Co112 O114 2.091 . S
Co112 O116 2.004 . S
Co112 O122 2.021 . S
Co112 O124 2.137 . S
Co112 O125 2.244 . S
O113 Co112 2.216 . S
O113 C120 1.247 . S
O114 Co112 2.091 . S
O114 C120 1.261 . S
C115 O124 1.247 . S
C115 O125 1.272 . S
O116 Co112 2.004 . S
O116 C121 1.259 . S
Co117 O118 2.061 . S
Co117 O123 2.052 . S
Co117 O125 2.135 . S
O118 Co117 2.061 . S
O118 C121 1.235 . S
C119 O122 1.238 1_545 S
C119 O123 1.241 1_545 S
C120 O113 1.247 . S
C120 O114 1.261 . S
C121 O116 1.259 . S
C121 O118 1.235 . S
O122 Co112 2.021 . S
O122 C119 1.238 1_565 S
O123 Co117 2.052 . S
O123 C119 1.241 1_565 S
O124 Co112 2.137 . S
O124 C115 1.247 . S
O125 Co112 2.244 . S
O125 C115 1.272 . S
O125 Co117 2.135 . S
Co126 O127 2.216 . S
Co126 O128 2.091 . S
Co126 O130 2.004 . S
Co126 O136 2.021 . S
Co126 O138 2.137 . S
Co126 O139 2.244 . S
O127 Co126 2.216 . S
O127 C134 1.247 . S
O128 Co126 2.091 . S
O128 C134 1.261 . S
C129 O138 1.247 . S
C129 O139 1.272 . S
O130 Co126 2.004 . S
O130 C135 1.259 . S
Co131 O132 2.061 . S
Co131 O137 2.052 . S
Co131 O139 2.135 . S
O132 Co131 2.061 . S
O132 C135 1.235 . S
C133 O136 1.238 . S
C133 O137 1.241 . S
C134 O127 1.247 . S
C134 O128 1.261 . S
C135 O130 1.259 . S
C135 O132 1.235 . S
O136 Co126 2.021 . S
O136 C133 1.238 . S
O137 Co131 2.052 . S
O137 C133 1.241 . S
O138 Co126 2.137 . S
O138 C129 1.247 . S
O139 Co126 2.244 . S
O139 C129 1.272 . S
O139 Co131 2.135 . S
Co140 O141 2.216 . S
Co140 O142 2.091 . S
Co140 O144 2.004 . S
Co140 O150 2.021 . S
Co140 O152 2.137 . S
Co140 O153 2.244 . S
O141 Co140 2.216 . S
O141 C148 1.247 . S
O142 Co140 2.091 . S
O142 C148 1.261 . S
C143 O152 1.247 . S
C143 O153 1.272 . S
O144 Co140 2.004 . S
O144 C149 1.259 . S
Co145 O146 2.061 . S
Co145 O151 2.052 . S
Co145 O153 2.135 . S
O146 Co145 2.061 . S
O146 C149 1.235 . S
C147 O150 1.238 . S
C147 O151 1.241 . S
C148 O141 1.247 . S
C148 O142 1.261 . S
C149 O144 1.259 . S
C149 O146 1.235 . S
O150 Co140 2.021 . S
O150 C147 1.238 . S
O151 Co145 2.052 . S
O151 C147 1.241 . S
O152 Co140 2.137 . S
O152 C143 1.247 . S
O153 Co140 2.244 . S
O153 C143 1.272 . S
O153 Co145 2.135 . S
Co154 O155 2.216 . S
Co154 O156 2.091 . S
Co154 O158 2.004 . S
Co154 O164 2.021 . S
Co154 O166 2.137 . S
Co154 O167 2.244 . S
O155 Co154 2.216 . S
O155 C162 1.247 . S
O156 Co154 2.091 . S
O156 C162 1.261 . S
C157 O166 1.247 . S
C157 O167 1.272 . S
O158 Co154 2.004 . S
O158 C163 1.259 . S
Co159 O160 2.061 . S
Co159 O165 2.052 . S
Co159 O167 2.135 . S
O160 Co159 2.061 . S
O160 C163 1.235 . S
C161 O164 1.238 1_545 S
C161 O165 1.241 1_545 S
C162 O155 1.247 . S
C162 O156 1.261 . S
C163 O158 1.259 . S
C163 O160 1.235 . S
O164 Co154 2.021 . S
O164 C161 1.238 1_565 S
O165 Co159 2.052 . S
O165 C161 1.241 1_565 S
O166 Co154 2.137 . S
O166 C157 1.247 . S
O167 Co154 2.244 . S
O167 C157 1.272 . S
O167 Co159 2.135 . S
Co168 O169 2.216 . S
Co168 O170 2.091 . S
Co168 O172 2.004 . S
Co168 O178 2.021 . S
Co168 O180 2.137 . S
Co168 O181 2.244 . S
O169 Co168 2.216 . S
O169 C176 1.247 . S
O170 Co168 2.091 . S
O170 C176 1.261 . S
C171 O180 1.247 . S
C171 O181 1.272 . S
O172 Co168 2.004 . S
O172 C177 1.259 . S
Co173 O174 2.061 . S
Co173 O179 2.052 . S
Co173 O181 2.135 . S
O174 Co173 2.061 . S
O174 C177 1.235 . S
C175 O178 1.238 1_565 S
C175 O179 1.241 1_565 S
C176 O169 1.247 . S
C176 O170 1.261 . S
C177 O172 1.259 . S
C177 O174 1.235 . S
O178 Co168 2.021 . S
O178 C175 1.238 1_545 S
O179 Co173 2.052 . S
O179 C175 1.241 1_545 S
O180 Co168 2.137 . S
O180 C171 1.247 . S
O181 Co168 2.244 . S
O181 C171 1.272 . S
O181 Co173 2.135 . S
Co182 O183 2.216 . S
Co182 O184 2.091 . S
Co182 O186 2.004 . S
Co182 O192 2.021 . S
Co182 O194 2.137 . S
Co182 O195 2.244 . S
O183 Co182 2.216 . S
O183 C190 1.247 . S
O184 Co182 2.091 . S
O184 C190 1.261 . S
C185 O194 1.247 . S
C185 O195 1.272 . S
O186 Co182 2.004 . S
O186 C191 1.259 . S
Co187 O188 2.061 . S
Co187 O193 2.052 . S
Co187 O195 2.135 . S
O188 Co187 2.061 . S
O188 C191 1.235 . S
C189 O192 1.238 . S
C189 O193 1.241 . S
C190 O183 1.247 . S
C190 O184 1.261 . S
C191 O186 1.259 . S
C191 O188 1.235 . S
O192 Co182 2.021 . S
O192 C189 1.238 . S
O193 Co187 2.052 . S
O193 C189 1.241 . S
O194 Co182 2.137 . S
O194 C185 1.247 . S
O195 Co182 2.244 . S
O195 C185 1.272 . S
O195 Co187 2.135 . S
Co196 O197 2.216 . S
Co196 O198 2.091 . S
Co196 O200 2.004 . S
Co196 O206 2.021 . S
Co196 O208 2.137 . S
Co196 O209 2.244 . S
O197 Co196 2.216 . S
O197 C204 1.247 . S
O198 Co196 2.091 . S
O198 C204 1.261 . S
C199 O208 1.247 . S
C199 O209 1.272 . S
O200 Co196 2.004 . S
O200 C205 1.259 . S
Co201 O202 2.061 . S
Co201 O207 2.052 . S
Co201 O209 2.135 . S
O202 Co201 2.061 . S
O202 C205 1.235 . S
C203 O206 1.238 . S
C203 O207 1.241 . S
C204 O197 1.247 . S
C204 O198 1.261 . S
C205 O200 1.259 . S
C205 O202 1.235 . S
O206 Co196 2.021 . S
O206 C203 1.238 . S
O207 Co201 2.052 . S
O207 C203 1.241 . S
O208 Co196 2.137 . S
O208 C199 1.247 . S
O209 Co196 2.244 . S
O209 C199 1.272 . S
O209 Co201 2.135 . S
Co210 O211 2.216 . S
Co210 O212 2.091 . S
Co210 O214 2.004 . S
Co210 O220 2.021 . S
Co210 O222 2.137 . S
Co210 O223 2.244 . S
O211 Co210 2.216 . S
O211 C218 1.247 . S
O212 Co210 2.091 . S
O212 C218 1.261 . S
C213 O222 1.247 . S
C213 O223 1.272 . S
O214 Co210 2.004 . S
O214 C219 1.259 . S
Co215 O216 2.061 . S
Co215 O221 2.052 . S
Co215 O223 2.135 . S
O216 Co215 2.061 . S
O216 C219 1.235 . S
C217 O220 1.238 1_565 S
C217 O221 1.241 1_565 S
C218 O211 1.247 . S
C218 O212 1.261 . S
C219 O214 1.259 . S
C219 O216 1.235 . S
O220 Co210 2.021 . S
O220 C217 1.238 1_545 S
O221 Co215 2.052 . S
O221 C217 1.241 1_545 S
O222 Co210 2.137 . S
O222 C213 1.247 . S
O223 Co210 2.244 . S
O223 C213 1.272 . S
O223 Co215 2.135 . S
Co224 O225 2.216 . S
Co224 O226 2.091 . S
Co224 O228 2.004 . S
Co224 O234 2.021 . S
Co224 O236 2.137 . S
Co224 O237 2.244 . S
O225 Co224 2.216 . S
O225 C232 1.247 . S
O226 Co224 2.091 . S
O226 C232 1.261 . S
C227 O236 1.247 . S
C227 O237 1.272 . S
O228 Co224 2.004 . S
O228 C233 1.259 . S
Co229 O230 2.061 . S
Co229 O235 2.052 . S
Co229 O237 2.135 . S
O230 Co229 2.061 . S
O230 C233 1.235 . S
C231 O234 1.238 . S
C231 O235 1.241 . S
C232 O225 1.247 . S
C232 O226 1.261 . S
C233 O228 1.259 . S
C233 O230 1.235 . S
O234 Co224 2.021 . S
O234 C231 1.238 . S
O235 Co229 2.052 . S
O235 C231 1.241 . S
O236 Co224 2.137 . S
O236 C227 1.247 . S
O237 Co224 2.244 . S
O237 C227 1.272 . S
O237 Co229 2.135 . S
Co238 O239 2.216 . S
Co238 O240 2.091 . S
Co238 O242 2.004 . S
Co238 O248 2.021 . S
Co238 O250 2.137 . S
Co238 O251 2.244 . S
O239 Co238 2.216 . S
O239 C246 1.247 . S
O240 Co238 2.091 . S
O240 C246 1.261 . S
C241 O250 1.247 . S
C241 O251 1.272 . S
O242 Co238 2.004 . S
O242 C247 1.259 . S
Co243 O244 2.061 . S
Co243 O249 2.052 . S
Co243 O251 2.135 . S
O244 Co243 2.061 . S
O244 C247 1.235 . S
C245 O248 1.238 . S
C245 O249 1.241 . S
C246 O239 1.247 . S
C246 O240 1.261 . S
C247 O242 1.259 . S
C247 O244 1.235 . S
O248 Co238 2.021 . S
O248 C245 1.238 . S
O249 Co243 2.052 . S
O249 C245 1.241 . S
O250 Co238 2.137 . S
O250 C241 1.247 . S
O251 Co238 2.244 . S
O251 C241 1.272 . S
O251 Co243 2.135 . S
Co252 O253 2.216 . S
Co252 O254 2.091 . S
Co252 O256 2.004 . S
Co252 O262 2.021 . S
Co252 O264 2.137 . S
Co252 O265 2.244 . S
O253 Co252 2.216 . S
O253 C260 1.247 . S
O254 Co252 2.091 . S
O254 C260 1.261 . S
C255 O264 1.247 . S
C255 O265 1.272 . S
O256 Co252 2.004 . S
O256 C261 1.259 . S
Co257 O258 2.061 . S
Co257 O263 2.052 . S
Co257 O265 2.135 . S
O258 Co257 2.061 . S
O258 C261 1.235 . S
C259 O262 1.238 . S
C259 O263 1.241 . S
C260 O253 1.247 . S
C260 O254 1.261 . S
C261 O256 1.259 . S
C261 O258 1.235 . S
O262 Co252 2.021 . S
O262 C259 1.238 . S
O263 Co257 2.052 . S
O263 C259 1.241 . S
O264 Co252 2.137 . S
O264 C255 1.247 . S
O265 Co252 2.244 . S
O265 C255 1.272 . S
O265 Co257 2.135 . S
Co266 O267 2.216 . S
Co266 O268 2.091 . S
Co266 O270 2.004 . S
Co266 O276 2.021 . S
Co266 O278 2.137 . S
Co266 O279 2.244 . S
O267 Co266 2.216 . S
O267 C274 1.247 . S
O268 Co266 2.091 . S
O268 C274 1.261 . S
C269 O278 1.247 . S
C269 O279 1.272 . S
O270 Co266 2.004 . S
O270 C275 1.259 . S
Co271 O272 2.061 . S
Co271 O277 2.052 . S
Co271 O279 2.135 . S
O272 Co271 2.061 . S
O272 C275 1.235 . S
C273 O276 1.238 . S
C273 O277 1.241 . S
C274 O267 1.247 . S
C274 O268 1.261 . S
C275 O270 1.259 . S
C275 O272 1.235 . S
O276 Co266 2.021 . S
O276 C273 1.238 . S
O277 Co271 2.052 . S
O277 C273 1.241 . S
O278 Co266 2.137 . S
O278 C269 1.247 . S
O279 Co266 2.244 . S
O279 C269 1.272 . S
O279 Co271 2.135 . S
Co280 O281 2.216 . S
Co280 O282 2.091 . S
Co280 O284 2.004 . S
Co280 O290 2.021 . S
Co280 O292 2.137 . S
Co280 O293 2.244 . S
O281 Co280 2.216 . S
O281 C288 1.247 . S
O282 Co280 2.091 . S
O282 C288 1.261 . S
C283 O292 1.247 . S
C283 O293 1.272 . S
O284 Co280 2.004 . S
O284 C289 1.259 . S
Co285 O286 2.061 . S
Co285 O291 2.052 . S
Co285 O293 2.135 . S
O286 Co285 2.061 . S
O286 C289 1.235 . S
C287 O290 1.238 . S
C287 O291 1.241 . S
C288 O281 1.247 . S
C288 O282 1.261 . S
C289 O284 1.259 . S
C289 O286 1.235 . S
O290 Co280 2.021 . S
O290 C287 1.238 . S
O291 Co285 2.052 . S
O291 C287 1.241 . S
O292 Co280 2.137 . S
O292 C283 1.247 . S
O293 Co280 2.244 . S
O293 C283 1.272 . S
O293 Co285 2.135 . S
Co294 O295 2.216 . S
Co294 O296 2.091 . S
Co294 O298 2.004 . S
Co294 O304 2.021 . S
Co294 O306 2.137 . S
Co294 O307 2.244 . S
O295 Co294 2.216 . S
O295 C302 1.247 . S
O296 Co294 2.091 . S
O296 C302 1.261 . S
C297 O306 1.247 . S
C297 O307 1.272 . S
O298 Co294 2.004 . S
O298 C303 1.259 . S
Co299 O300 2.061 . S
Co299 O305 2.052 . S
Co299 O307 2.135 . S
O300 Co299 2.061 . S
O300 C303 1.235 . S
C301 O304 1.238 . S
C301 O305 1.241 . S
C302 O295 1.247 . S
C302 O296 1.261 . S
C303 O298 1.259 . S
C303 O300 1.235 . S
O304 Co294 2.021 . S
O304 C301 1.238 . S
O305 Co299 2.052 . S
O305 C301 1.241 . S
O306 Co294 2.137 . S
O306 C297 1.247 . S
O307 Co294 2.244 . S
O307 C297 1.272 . S
O307 Co299 2.135 . S
Co308 O309 2.216 . S
Co308 O310 2.091 . S
Co308 O312 2.004 . S
Co308 O318 2.021 . S
Co308 O320 2.137 . S
Co308 O321 2.244 . S
O309 Co308 2.216 . S
O309 C316 1.247 . S
O310 Co308 2.091 . S
O310 C316 1.261 . S
C311 O320 1.247 . S
C311 O321 1.272 . S
O312 Co308 2.004 . S
O312 C317 1.259 . S
Co313 O314 2.061 . S
Co313 O319 2.052 . S
Co313 O321 2.135 . S
O314 Co313 2.061 . S
O314 C317 1.235 . S
C315 O318 1.238 . S
C315 O319 1.241 . S
C316 O309 1.247 . S
C316 O310 1.261 . S
C317 O312 1.259 . S
C317 O314 1.235 . S
O318 Co308 2.021 . S
O318 C315 1.238 . S
O319 Co313 2.052 . S
O319 C315 1.241 . S
O320 Co308 2.137 . S
O320 C311 1.247 . S
O321 Co308 2.244 . S
O321 C311 1.272 . S
O321 Co313 2.135 . S
Co322 O323 2.216 . S
Co322 O324 2.091 . S
Co322 O326 2.004 . S
Co322 O332 2.021 . S
Co322 O334 2.137 . S
Co322 O335 2.244 . S
O323 Co322 2.216 . S
O323 C330 1.247 . S
O324 Co322 2.091 . S
O324 C330 1.261 . S
C325 O334 1.247 . S
C325 O335 1.272 . S
O326 Co322 2.004 . S
O326 C331 1.259 . S
Co327 O328 2.061 . S
Co327 O333 2.052 . S
Co327 O335 2.135 . S
O328 Co327 2.061 . S
O328 C331 1.235 . S
C329 O332 1.238 . S
C329 O333 1.241 . S
C330 O323 1.247 . S
C330 O324 1.261 . S
C331 O326 1.259 . S
C331 O328 1.235 . S
O332 Co322 2.021 . S
O332 C329 1.238 . S
O333 Co327 2.052 . S
O333 C329 1.241 . S
O334 Co322 2.137 . S
O334 C325 1.247 . S
O335 Co322 2.244 . S
O335 C325 1.272 . S
O335 Co327 2.135 . S
Co336 O337 2.216 . S
Co336 O338 2.091 . S
Co336 O340 2.004 . S
Co336 O346 2.021 . S
Co336 O348 2.137 . S
Co336 O349 2.244 . S
O337 Co336 2.216 . S
O337 C344 1.247 . S
O338 Co336 2.091 . S
O338 C344 1.261 . S
C339 O348 1.247 . S
C339 O349 1.272 . S
O340 Co336 2.004 . S
O340 C345 1.259 . S
Co341 O342 2.061 . S
Co341 O347 2.052 . S
Co341 O349 2.135 . S
O342 Co341 2.061 . S
O342 C345 1.235 . S
C343 O346 1.238 1_545 S
C343 O347 1.241 1_545 S
C344 O337 1.247 . S
C344 O338 1.261 . S
C345 O340 1.259 . S
C345 O342 1.235 . S
O346 Co336 2.021 . S
O346 C343 1.238 1_565 S
O347 Co341 2.052 . S
O347 C343 1.241 1_565 S
O348 Co336 2.137 . S
O348 C339 1.247 . S
O349 Co336 2.244 . S
O349 C339 1.272 . S
O349 Co341 2.135 . S
Co350 O351 2.216 . S
Co350 O352 2.091 . S
Co350 O354 2.004 . S
Co350 O360 2.021 . S
Co350 O362 2.137 . S
Co350 O363 2.244 . S
O351 Co350 2.216 . S
O351 C358 1.247 . S
O352 Co350 2.091 . S
O352 C358 1.261 . S
C353 O362 1.247 . S
C353 O363 1.272 . S
O354 Co350 2.004 . S
O354 C359 1.259 . S
Co355 O356 2.061 . S
Co355 O361 2.052 . S
Co355 O363 2.135 . S
O356 Co355 2.061 . S
O356 C359 1.235 . S
C357 O360 1.238 . S
C357 O361 1.241 . S
C358 O351 1.247 . S
C358 O352 1.261 . S
C359 O354 1.259 . S
C359 O356 1.235 . S
O360 Co350 2.021 . S
O360 C357 1.238 . S
O361 Co355 2.052 . S
O361 C357 1.241 . S
O362 Co350 2.137 . S
O362 C353 1.247 . S
O363 Co350 2.244 . S
O363 C353 1.272 . S
O363 Co355 2.135 . S
Co364 O365 2.216 . S
Co364 O366 2.091 . S
Co364 O368 2.004 . S
Co364 O374 2.021 . S
Co364 O376 2.137 . S
Co364 O377 2.244 . S
O365 Co364 2.216 . S
O365 C372 1.247 . S
O366 Co364 2.091 . S
O366 C372 1.261 . S
C367 O376 1.247 . S
C367 O377 1.272 . S
O368 Co364 2.004 . S
O368 C373 1.259 . S
Co369 O370 2.061 . S
Co369 O375 2.052 . S
Co369 O377 2.135 . S
O370 Co369 2.061 . S
O370 C373 1.235 . S
C371 O374 1.238 . S
C371 O375 1.241 . S
C372 O365 1.247 . S
C372 O366 1.261 . S
C373 O368 1.259 . S
C373 O370 1.235 . S
O374 Co364 2.021 . S
O374 C371 1.238 . S
O375 Co369 2.052 . S
O375 C371 1.241 . S
O376 Co364 2.137 . S
O376 C367 1.247 . S
O377 Co364 2.244 . S
O377 C367 1.272 . S
O377 Co369 2.135 . S
Co378 O379 2.216 . S
Co378 O380 2.091 . S
Co378 O382 2.004 . S
Co378 O388 2.021 . S
Co378 O390 2.137 . S
Co378 O391 2.244 . S
O379 Co378 2.216 . S
O379 C386 1.247 . S
O380 Co378 2.091 . S
O380 C386 1.261 . S
C381 O390 1.247 . S
C381 O391 1.272 . S
O382 Co378 2.004 . S
O382 C387 1.259 . S
Co383 O384 2.061 . S
Co383 O389 2.052 . S
Co383 O391 2.135 . S
O384 Co383 2.061 . S
O384 C387 1.235 . S
C385 O388 1.238 1_545 S
C385 O389 1.241 1_545 S
C386 O379 1.247 . S
C386 O380 1.261 . S
C387 O382 1.259 . S
C387 O384 1.235 . S
O388 Co378 2.021 . S
O388 C385 1.238 1_565 S
O389 Co383 2.052 . S
O389 C385 1.241 1_565 S
O390 Co378 2.137 . S
O390 C381 1.247 . S
O391 Co378 2.244 . S
O391 C381 1.272 . S
O391 Co383 2.135 . S
Co392 O393 2.216 . S
Co392 O394 2.091 . S
Co392 O396 2.004 . S
Co392 O402 2.021 . S
Co392 O404 2.137 . S
Co392 O405 2.244 . S
O393 Co392 2.216 . S
O393 C400 1.247 . S
O394 Co392 2.091 . S
O394 C400 1.261 . S
C395 O404 1.247 . S
C395 O405 1.272 . S
O396 Co392 2.004 . S
O396 C401 1.259 . S
Co397 O398 2.061 . S
Co397 O403 2.052 . S
Co397 O405 2.135 . S
O398 Co397 2.061 . S
O398 C401 1.235 . S
C399 O402 1.238 1_565 S
C399 O403 1.241 1_565 S
C400 O393 1.247 . S
C400 O394 1.261 . S
C401 O396 1.259 . S
C401 O398 1.235 . S
O402 Co392 2.021 . S
O402 C399 1.238 1_545 S
O403 Co397 2.052 . S
O403 C399 1.241 1_545 S
O404 Co392 2.137 . S
O404 C395 1.247 . S
O405 Co392 2.244 . S
O405 C395 1.272 . S
O405 Co397 2.135 . S
Co406 O407 2.216 . S
Co406 O408 2.091 . S
Co406 O410 2.004 . S
Co406 O416 2.021 . S
Co406 O418 2.137 . S
Co406 O419 2.244 . S
O407 Co406 2.216 . S
O407 C414 1.247 . S
O408 Co406 2.091 . S
O408 C414 1.261 . S
C409 O418 1.247 . S
C409 O419 1.272 . S
O410 Co406 2.004 . S
O410 C415 1.259 . S
Co411 O412 2.061 . S
Co411 O417 2.052 . S
Co411 O419 2.135 . S
O412 Co411 2.061 . S
O412 C415 1.235 . S
C413 O416 1.238 . S
C413 O417 1.241 . S
C414 O407 1.247 . S
C414 O408 1.261 . S
C415 O410 1.259 . S
C415 O412 1.235 . S
O416 Co406 2.021 . S
O416 C413 1.238 . S
O417 Co411 2.052 . S
O417 C413 1.241 . S
O418 Co406 2.137 . S
O418 C409 1.247 . S
O419 Co406 2.244 . S
O419 C409 1.272 . S
O419 Co411 2.135 . S
Co420 O421 2.216 . S
Co420 O422 2.091 . S
Co420 O424 2.004 . S
Co420 O430 2.021 . S
Co420 O432 2.137 . S
Co420 O433 2.244 . S
O421 Co420 2.216 . S
O421 C428 1.247 . S
O422 Co420 2.091 . S
O422 C428 1.261 . S
C423 O432 1.247 . S
C423 O433 1.272 . S
O424 Co420 2.004 . S
O424 C429 1.259 . S
Co425 O426 2.061 . S
Co425 O431 2.052 . S
Co425 O433 2.135 . S
O426 Co425 2.061 . S
O426 C429 1.235 . S
C427 O430 1.238 . S
C427 O431 1.241 . S
C428 O421 1.247 . S
C428 O422 1.261 . S
C429 O424 1.259 . S
C429 O426 1.235 . S
O430 Co420 2.021 . S
O430 C427 1.238 . S
O431 Co425 2.052 . S
O431 C427 1.241 . S
O432 Co420 2.137 . S
O432 C423 1.247 . S
O433 Co420 2.244 . S
O433 C423 1.272 . S
O433 Co425 2.135 . S
Co434 O435 2.216 . S
Co434 O436 2.091 . S
Co434 O438 2.004 . S
Co434 O444 2.021 . S
Co434 O446 2.137 . S
Co434 O447 2.244 . S
O435 Co434 2.216 . S
O435 C442 1.247 . S
O436 Co434 2.091 . S
O436 C442 1.261 . S
C437 O446 1.247 . S
C437 O447 1.272 . S
O438 Co434 2.004 . S
O438 C443 1.259 . S
Co439 O440 2.061 . S
Co439 O445 2.052 . S
Co439 O447 2.135 . S
O440 Co439 2.061 . S
O440 C443 1.235 . S
C441 O444 1.238 1_565 S
C441 O445 1.241 1_565 S
C442 O435 1.247 . S
C442 O436 1.261 . S
C443 O438 1.259 . S
C443 O440 1.235 . S
O444 Co434 2.021 . S
O444 C441 1.238 1_545 S
O445 Co439 2.052 . S
O445 C441 1.241 1_545 S
O446 Co434 2.137 . S
O446 C437 1.247 . S
O447 Co434 2.244 . S
O447 C437 1.272 . S
O447 Co439 2.135 . S
C448 C449 1.170 . S
C448 C450 1.380 . S
C449 C448 1.170 . S
C450 C448 1.380 . S
C450 C451 1.170 . S
C451 C450 1.170 . S
C452 C453 1.170 . S
C452 C454 1.380 . S
C453 C452 1.170 . S
C454 C452 1.380 . S
C454 C455 1.170 . S
C455 C454 1.170 . S
C456 C457 1.170 . S
C456 C458 1.380 . S
C457 C456 1.170 . S
C458 C456 1.380 . S
C458 C459 1.170 . S
C459 C458 1.170 . S
C460 C461 1.170 . S
C460 C462 1.380 . S
C461 C460 1.170 . S
C462 C460 1.380 . S
C462 C463 1.170 . S
C463 C462 1.170 . S
C464 C465 1.170 . S
C464 C466 1.380 . S
C465 C464 1.170 . S
C466 C464 1.380 . S
C466 C467 1.170 . S
C467 C466 1.170 . S
C468 C469 1.170 . S
C468 C470 1.380 . S
C469 C468 1.170 . S
C470 C468 1.380 . S
C470 C471 1.170 . S
C471 C470 1.170 . S
C472 C473 1.170 . S
C472 C474 1.380 . S
C473 C472 1.170 . S
C474 C472 1.380 . S
C474 C475 1.170 . S
C475 C474 1.170 . S
C476 C477 1.170 . S
C476 C478 1.380 . S
C477 C476 1.170 . S
C478 C476 1.380 . S
C478 C479 1.170 . S
C479 C478 1.170 . S
C480 C481 1.170 . S
C480 C482 1.380 . S
C481 C480 1.170 . S
C482 C480 1.380 . S
C482 C483 1.170 . S
C483 C482 1.170 . S
C484 C485 1.170 . S
C484 C486 1.380 . S
C485 C484 1.170 . S
C486 C484 1.380 . S
C486 C487 1.170 . S
C487 C486 1.170 . S
C488 C489 1.170 . S
C488 C490 1.380 . S
C489 C488 1.170 . S
C490 C488 1.380 . S
C490 C491 1.170 . S
C491 C490 1.170 . S
C492 C493 1.170 . S
C492 C494 1.380 . S
C493 C492 1.170 . S
C494 C492 1.380 . S
C494 C495 1.170 . S
C495 C494 1.170 . S
C496 C497 1.170 . S
C496 C498 1.380 . S
C497 C496 1.170 . S
C498 C496 1.380 . S
C498 C499 1.170 . S
C499 C498 1.170 . S
C500 C501 1.170 . S
C500 C502 1.380 . S
C501 C500 1.170 . S
C502 C500 1.380 . S
C502 C503 1.170 . S
C503 C502 1.170 . S
C504 C505 1.170 . S
C504 C506 1.380 . S
C505 C504 1.170 . S
C506 C504 1.380 . S
C506 C507 1.170 . S
C507 C506 1.170 . S
C508 C509 1.170 . S
C508 C510 1.380 . S
C509 C508 1.170 . S
C510 C508 1.380 . S
C510 C511 1.170 . S
C511 C510 1.170 . S
C512 C513 1.170 . S
C512 C514 1.380 1_656 S
C513 C512 1.170 . S
C514 C512 1.380 1_454 S
C514 C515 1.170 . S
C515 C514 1.170 . S
C516 C517 1.170 . S
C516 C518 1.380 1_556 S
C517 C516 1.170 . S
C518 C516 1.380 1_554 S
C518 C519 1.170 . S
C519 C518 1.170 . S
C520 C521 1.170 . S
C520 C522 1.380 1_455 S
C521 C520 1.170 . S
C522 C520 1.380 1_655 S
C522 C523 1.170 . S
C523 C522 1.170 . S
C524 C525 1.170 . S
C524 C526 1.380 . S
C525 C524 1.170 . S
C526 C524 1.380 . S
C526 C527 1.170 . S
C527 C526 1.170 . S
C528 C529 1.170 . S
C528 C530 1.380 1_556 S
C529 C528 1.170 . S
C530 C528 1.380 1_554 S
C530 C531 1.170 . S
C531 C530 1.170 . S
C532 C533 1.170 . S
C532 C534 1.380 1_655 S
C533 C532 1.170 . S
C534 C532 1.380 1_455 S
C534 C535 1.170 . S
C535 C534 1.170 . S
C536 C537 1.170 . S
C536 C538 1.380 . S
C537 C536 1.170 . S
C538 C536 1.380 . S
C538 C539 1.170 . S
C539 C538 1.170 . S
C540 C541 1.170 . S
C540 C542 1.380 1_645 S
C541 C540 1.170 . S
C542 C540 1.380 1_465 S
C542 C543 1.170 . S
C543 C542 1.170 . S
C544 C545 1.170 . S
C544 C546 1.380 . S
C545 C544 1.170 . S
C546 C544 1.380 . S
C546 C547 1.170 . S
C547 C546 1.170 . S
C548 C549 1.170 . S
C548 C550 1.380 1_565 S
C549 C548 1.170 . S
C550 C548 1.380 1_545 S
C550 C551 1.170 . S
C551 C550 1.170 . S
C552 C553 1.170 . S
C552 C554 1.380 . S
C553 C552 1.170 . S
C554 C552 1.380 . S
C554 C555 1.170 . S
C555 C554 1.170 . S
C556 C557 1.170 . S
C556 C558 1.380 1_565 S
C557 C556 1.170 . S
C558 C556 1.380 1_545 S
C558 C559 1.170 . S
C559 C558 1.170 . S
C560 C561 1.170 . S
C560 C562 1.380 . S
C561 C560 1.170 . S
C562 C560 1.380 . S
C562 C563 1.170 . S
C563 C562 1.170 . S
C564 C565 1.170 . S
C564 C566 1.380 . S
C565 C564 1.170 . S
C566 C564 1.380 . S
C566 C567 1.170 . S
C567 C566 1.170 . S
C568 C569 1.170 . S
C568 C570 1.380 . S
C569 C568 1.170 . S
C570 C568 1.380 . S
C570 C571 1.170 . S
C571 C570 1.170 . S
C572 C573 1.170 . S
C572 C574 1.380 1_546 S
C573 C572 1.170 . S
C574 C572 1.380 1_564 S
C574 C575 1.170 . S
C575 C574 1.170 . S
C576 C577 1.170 . S
C576 C578 1.380 . S
C577 C576 1.170 . S
C578 C576 1.380 . S
C578 C579 1.170 . S
C579 C578 1.170 . S
C580 C581 1.170 . S
C580 C582 1.380 . S
C581 C580 1.170 . S
C582 C580 1.380 . S
C582 C583 1.170 . S
C583 C582 1.170 . S
C584 C585 1.170 . S
C584 C586 1.380 . S
C585 C584 1.170 . S
C586 C584 1.380 . S
C586 C587 1.170 . S
C587 C586 1.170 . S
C588 C589 1.170 . S
C588 C590 1.380 . S
C589 C588 1.170 . S
C590 C588 1.380 . S
C590 C591 1.170 . S
C591 C590 1.170 . S
C592 C593 1.170 . S
C592 C594 1.380 . S
C593 C592 1.170 . S
C594 C592 1.380 . S
C594 C595 1.170 . S
C595 C594 1.170 . S
C596 C597 1.170 . S
C596 C598 1.380 . S
C597 C596 1.170 . S
C598 C596 1.380 . S
C598 C599 1.170 . S
C599 C598 1.170 . S
C600 C601 1.170 . S
C600 C602 1.380 . S
C601 C600 1.170 . S
C602 C600 1.380 . S
C602 C603 1.170 . S
C603 C602 1.170 . S
C604 C605 1.170 . S
C604 C606 1.380 . S
C605 C604 1.170 . S
C606 C604 1.380 . S
C606 C607 1.170 . S
C607 C606 1.170 . S
C608 C609 1.170 . S
C608 C610 1.380 . S
C609 C608 1.170 . S
C610 C608 1.380 . S
C610 C611 1.170 . S
C611 C610 1.170 . S
C612 C613 1.170 . S
C612 C614 1.380 . S
C613 C612 1.170 . S
C614 C612 1.380 . S
C614 C615 1.170 . S
C615 C614 1.170 . S
C616 C617 1.170 . S
C616 C618 1.380 . S
C617 C616 1.170 . S
C618 C616 1.380 . S
C618 C619 1.170 . S
C619 C618 1.170 . S
C620 C621 1.170 . S
C620 C622 1.380 . S
C621 C620 1.170 . S
C622 C620 1.380 . S
C622 C623 1.170 . S
C623 C622 1.170 . S
C624 C625 1.170 . S
C624 C626 1.380 . S
C625 C624 1.170 . S
C626 C624 1.380 . S
C626 C627 1.170 . S
C627 C626 1.170 . S
C628 C629 1.170 . S
C628 C630 1.380 . S
C629 C628 1.170 . S
C630 C628 1.380 . S
C630 C631 1.170 . S
C631 C630 1.170 . S
C632 C633 1.170 . S
C632 C634 1.380 . S
C633 C632 1.170 . S
C634 C632 1.380 . S
C634 C635 1.170 . S
C635 C634 1.170 . S
C636 C637 1.170 . S
C636 C638 1.380 . S
C637 C636 1.170 . S
C638 C636 1.380 . S
C638 C639 1.170 . S
C639 C638 1.170 . S
C640 C641 1.170 . S
C640 C642 1.380 . S
C641 C640 1.170 . S
C642 C640 1.380 . S
C642 C643 1.170 . S
C643 C642 1.170 . S
C644 C645 1.170 . S
C644 C646 1.380 . S
C645 C644 1.170 . S
C646 C644 1.380 . S
C646 C647 1.170 . S
C647 C646 1.170 . S
C648 C649 1.170 . S
C648 C650 1.380 . S
C649 C648 1.170 . S
C650 C648 1.380 . S
C650 C651 1.170 . S
C651 C650 1.170 . S
C652 C653 1.170 . S
C652 C654 1.380 . S
C653 C652 1.170 . S
C654 C652 1.380 . S
C654 C655 1.170 . S
C655 C654 1.170 . S
C656 C657 1.170 . S
C656 C658 1.380 . S
C657 C656 1.170 . S
C658 C656 1.380 . S
C658 C659 1.170 . S
C659 C658 1.170 . S
C660 C661 1.170 . S
C660 C662 1.380 . S
C661 C660 1.170 . S
C662 C660 1.380 . S
C662 C663 1.170 . S
C663 C662 1.170 . S
C664 C665 1.170 . S
C664 C666 1.380 . S
C665 C664 1.170 . S
C666 C664 1.380 . S
C666 C667 1.170 . S
C667 C666 1.170 . S
C668 C669 1.170 . S
C668 C670 1.380 . S
C669 C668 1.170 . S
C670 C668 1.380 . S
C670 C671 1.170 . S
C671 C670 1.170 . S
C672 C673 1.170 . S
C672 C674 1.380 . S
C673 C672 1.170 . S
C674 C672 1.380 . S
C674 C675 1.170 . S
C675 C674 1.170 . S
C676 C677 1.170 . S
C676 C678 1.380 . S
C677 C676 1.170 . S
C678 C676 1.380 . S
C678 C679 1.170 . S
C679 C678 1.170 . S
C680 C681 1.170 . S
C680 C682 1.380 . S
C681 C680 1.170 . S
C682 C680 1.380 . S
C682 C683 1.170 . S
C683 C682 1.170 . S
C684 C685 1.170 . S
C684 C686 1.380 . S
C685 C684 1.170 . S
C686 C684 1.380 . S
C686 C687 1.170 . S
C687 C686 1.170 . S
C688 C689 1.170 . S
C688 C690 1.380 . S
C689 C688 1.170 . S
C690 C688 1.380 . S
C690 C691 1.170 . S
C691 C690 1.170 . S
C692 C693 1.170 . S
C692 C694 1.380 . S
C693 C692 1.170 . S
C694 C692 1.380 . S
C694 C695 1.170 . S
C695 C694 1.170 . S
C696 C697 1.170 . S
C696 C698 1.380 . S
C697 C696 1.170 . S
C698 C696 1.380 . S
C698 C699 1.170 . S
C699 C698 1.170 . S
C700 C701 1.170 . S
C700 C702 1.380 . S
C701 C700 1.170 . S
C702 C700 1.380 . S
C702 C703 1.170 . S
C703 C702 1.170 . S
C449 C35 0.696 . S
C451 C7 0.722 . S
C453 C21 0.744 . S
C455 C49 0.724 . S
C457 C91 0.713 . S
C459 C63 0.745 . S
C461 C105 0.694 . S
C463 C77 0.747 . S
C465 C119 0.746 . S
C467 C147 0.731 . S
C469 C161 0.748 . S
C471 C133 0.737 . S
C473 C175 0.701 . S
C475 C203 0.693 . S
C477 C189 0.688 . S
C479 C217 0.744 . S
C481 C259 0.685 . S
C483 C231 0.706 . S
C485 C245 0.681 . S
C487 C273 0.696 . S
C489 C287 0.693 . S
C491 C315 0.746 . S
C493 C329 0.701 . S
C495 C301 0.748 . S
C497 C371 0.682 . S
C499 C343 0.685 . S
C501 C385 0.685 . S
C503 C357 0.682 . S
C505 C427 0.698 . S
C507 C399 0.747 . S
C509 C413 0.742 . S
C511 C441 0.719 . S
C513 C64 1.638 . S
C515 C8 1.613 . S
C517 C414 1.614 . S
C519 C22 1.629 . S
C521 C36 1.613 . S
C523 C204 1.632 . S
C525 C50 1.637 . S
C527 C330 1.619 . S
C529 C78 1.612 . S
C531 C358 1.634 . S
C533 C92 1.614 . S
C535 C148 1.639 . S
C537 C274 1.633 . S
C539 C106 1.624 . S
C541 C176 1.614 . S
C543 C120 1.628 . S
C545 C302 1.612 . S
C547 C134 1.638 . S
C549 C162 1.634 . S
C551 C442 1.623 . S
C553 C190 1.616 . S
C555 C246 1.627 . S
C557 C386 1.612 . S
C559 C218 1.638 . S
C561 C288 1.611 . S
C563 C232 1.637 . S
C565 C260 1.620 . S
C567 C428 1.622 . S
C569 C316 1.638 . S
C571 C372 1.612 . S
C573 C400 1.626 . S
C575 C344 1.632 . S
C577 C51 1.492 . S
C579 C9 1.472 . S
C581 C37 1.469 . S
C583 C23 1.498 . S
C585 C107 1.475 . S
C587 C65 1.499 . S
C589 C93 1.498 . S
C591 C79 1.480 . S
C593 C163 1.469 . S
C595 C121 1.499 . S
C597 C149 1.498 . S
C599 C135 1.477 . S
C601 C219 1.472 . S
C603 C177 1.487 . S
C605 C205 1.471 . S
C607 C191 1.491 . S
C609 C233 1.484 . S
C611 C275 1.478 . S
C613 C261 1.490 . S
C615 C247 1.473 . S
C617 C289 1.498 . S
C619 C331 1.477 . S
C621 C317 1.492 . S
C623 C303 1.471 . S
C625 C387 1.492 . S
C627 C345 1.485 . S
C629 C359 1.486 . S
C631 C373 1.476 . S
C633 C401 1.476 . S
C635 C443 1.482 . S
C637 C429 1.477 . S
C639 C415 1.483 . S
C641 C31 1.500 1_545 S
C643 C3 1.524 . S
C645 C17 1.520 1_545 S
C647 C45 1.499 . S
C649 C59 1.500 . S
C651 C87 1.512 1_565 S
C653 C73 1.526 1_565 S
C655 C101 1.521 . S
C657 C115 1.522 . S
C659 C143 1.514 . S
C661 C129 1.499 . S
C663 C157 1.521 . S
C665 C199 1.524 . S
C667 C171 1.513 . S
C669 C213 1.504 . S
C671 C185 1.499 . S
C673 C255 1.513 1_545 S
C675 C227 1.501 . S
C677 C269 1.525 . S
C679 C241 1.501 1_545 S
C681 C283 1.520 . S
C683 C311 1.507 1_565 S
C685 C325 1.524 . S
C687 C297 1.512 1_565 S
C689 C367 1.516 . S
C691 C339 1.521 . S
C693 C353 1.504 . S
C695 C381 1.509 . S
C697 C395 1.504 . S
C699 C423 1.517 . S
C701 C437 1.514 . S
C703 C409 1.502 . S
