#======================================================================

# CRYSTAL DATA

#----------------------------------------------------------------------

data_VESTA_phase_1


_pd_phase_name                         'HKUST-1 PBEsol                        '
_cell_length_a                         18.59484
_cell_length_b                         18.59490
_cell_length_c                         18.59496
_cell_angle_alpha                      59.99992
_cell_angle_beta                       60.00001
_cell_angle_gamma                      60.00034
_symmetry_space_group_name_H-M         'P 1'
_symmetry_Int_Tables_number            1

loop_
_symmetry_equiv_pos_as_xyz
   'x, y, z'

loop_
   _atom_site_label
   _atom_site_occupancy
   _atom_site_fract_x
   _atom_site_fract_y
   _atom_site_fract_z
   _atom_site_adp_type
   _atom_site_B_iso_or_equiv
   _atom_site_type_symbol
   O1         1.0     0.874414      0.020501      0.613727     Biso  1.000000 O
   O2         1.0     0.020509      0.874415      0.491353     Biso  1.000000 O
   O3         1.0     0.613724      0.491353      0.874415     Biso  1.000000 O
   O4         1.0     0.491359      0.613727      0.020501     Biso  1.000000 O
   O5         1.0     0.613727      0.874414      0.020504     Biso  1.000000 O
   O6         1.0     0.491355      0.020504      0.874414     Biso  1.000000 O
   O7         1.0     0.874412      0.613725      0.491356     Biso  1.000000 O
   O8         1.0     0.020508      0.491356      0.613725     Biso  1.000000 O
   O9         1.0     0.020501      0.613726      0.874416     Biso  1.000000 O
   O10        1.0     0.874415      0.491355      0.020504     Biso  1.000000 O
   O11        1.0     0.491356      0.874416      0.613726     Biso  1.000000 O
   O12        1.0     0.613726      0.020504      0.491355     Biso  1.000000 O
   O13        1.0     0.125585      0.979492      0.508647     Biso  1.000000 O
   O14        1.0     0.979498      0.125586      0.386274     Biso  1.000000 O
   O15        1.0     0.386276      0.508647      0.979492     Biso  1.000000 O
   O16        1.0     0.508641      0.386274      0.125586     Biso  1.000000 O
   O17        1.0     0.386275      0.125586      0.508646     Biso  1.000000 O
   O18        1.0     0.508642      0.979496      0.386274     Biso  1.000000 O
   O19        1.0     0.125588      0.386274      0.979496     Biso  1.000000 O
   O20        1.0     0.979492      0.508646      0.125586     Biso  1.000000 O
   O21        1.0     0.979498      0.386273      0.508646     Biso  1.000000 O
   O22        1.0     0.125583      0.508646      0.386273     Biso  1.000000 O
   O23        1.0     0.508645      0.125586      0.979496     Biso  1.000000 O
   O24        1.0     0.386273      0.979496      0.125586     Biso  1.000000 O
   O25        1.0     0.125586      0.979499      0.386273     Biso  1.000000 O
   O26        1.0     0.979491      0.125585      0.508647     Biso  1.000000 O
   O27        1.0     0.386276      0.508647      0.125585     Biso  1.000000 O
   O28        1.0     0.508641      0.386273      0.979499     Biso  1.000000 O
   O29        1.0     0.386273      0.125586      0.979496     Biso  1.000000 O
   O30        1.0     0.508645      0.979496      0.125586     Biso  1.000000 O
   O31        1.0     0.125588      0.386275      0.508644     Biso  1.000000 O
   O32        1.0     0.979492      0.508644      0.386275     Biso  1.000000 O
   O33        1.0     0.979499      0.386274      0.125584     Biso  1.000000 O
   O34        1.0     0.125585      0.508645      0.979496     Biso  1.000000 O
   O35        1.0     0.508644      0.125584      0.386274     Biso  1.000000 O
   O36        1.0     0.386274      0.979496      0.508645     Biso  1.000000 O
   O37        1.0     0.874415      0.020508      0.491353     Biso  1.000000 O
   O38        1.0     0.020502      0.874414      0.613726     Biso  1.000000 O
   O39        1.0     0.613724      0.491353      0.020508     Biso  1.000000 O
   O40        1.0     0.491359      0.613726      0.874414     Biso  1.000000 O
   O41        1.0     0.613725      0.874414      0.491354     Biso  1.000000 O
   O42        1.0     0.491358      0.020504      0.613726     Biso  1.000000 O
   O43        1.0     0.874412      0.613726      0.020504     Biso  1.000000 O
   O44        1.0     0.020507      0.491354      0.874414     Biso  1.000000 O
   O45        1.0     0.020502      0.613727      0.491354     Biso  1.000000 O
   O46        1.0     0.874417      0.491354      0.613727     Biso  1.000000 O
   O47        1.0     0.491355      0.874414      0.020504     Biso  1.000000 O
   O48        1.0     0.613727      0.020504      0.874414     Biso  1.000000 O
   C1         1.0     0.700152      0.029701      0.700153     Biso  1.000000 C
   C2         1.0     0.029702      0.700153      0.569994     Biso  1.000000 C
   C3         1.0     0.700152      0.569994      0.700153     Biso  1.000000 C
   C4         1.0     0.569995      0.700153      0.029701     Biso  1.000000 C
   C5         1.0     0.700152      0.700153      0.029701     Biso  1.000000 C
   C6         1.0     0.569996      0.029701      0.700153     Biso  1.000000 C
   C7         1.0     0.700151      0.700152      0.569994     Biso  1.000000 C
   C8         1.0     0.029704      0.569994      0.700152     Biso  1.000000 C
   C9         1.0     0.029702      0.700151      0.700152     Biso  1.000000 C
   C10        1.0     0.700153      0.569994      0.029701     Biso  1.000000 C
   C11        1.0     0.569995      0.700152      0.700151     Biso  1.000000 C
   C12        1.0     0.700153      0.029701      0.569994     Biso  1.000000 C
   C13        1.0     0.299847      0.970299      0.430006     Biso  1.000000 C
   C14        1.0     0.970298      0.299849      0.299848     Biso  1.000000 C
   C15        1.0     0.299847      0.430006      0.970299     Biso  1.000000 C
   C16        1.0     0.430005      0.299848      0.299849     Biso  1.000000 C
   C17        1.0     0.299849      0.299848      0.430006     Biso  1.000000 C
   C18        1.0     0.430004      0.970299      0.299847     Biso  1.000000 C
   C19        1.0     0.299848      0.299847      0.970299     Biso  1.000000 C
   C20        1.0     0.970296      0.430006      0.299848     Biso  1.000000 C
   C21        1.0     0.970298      0.299847      0.430006     Biso  1.000000 C
   C22        1.0     0.299848      0.430006      0.299847     Biso  1.000000 C
   C23        1.0     0.430005      0.299847      0.970299     Biso  1.000000 C
   C24        1.0     0.299848      0.970299      0.299847     Biso  1.000000 C
   C25        1.0     0.837747      0.023831      0.569209     Biso  1.000000 C
   C26        1.0     0.023831      0.837747      0.569208     Biso  1.000000 C
   C27        1.0     0.569212      0.569208      0.837747     Biso  1.000000 C
   C28        1.0     0.569212      0.569209      0.023831     Biso  1.000000 C
   C29        1.0     0.569210      0.837747      0.023832     Biso  1.000000 C
   C30        1.0     0.569210      0.023832      0.837747     Biso  1.000000 C
   C31        1.0     0.837746      0.569209      0.569212     Biso  1.000000 C
   C32        1.0     0.023832      0.569212      0.569209     Biso  1.000000 C
   C33        1.0     0.023832      0.569210      0.837747     Biso  1.000000 C
   C34        1.0     0.837746      0.569209      0.023831     Biso  1.000000 C
   C35        1.0     0.569210      0.837747      0.569210     Biso  1.000000 C
   C36        1.0     0.569212      0.023831      0.569209     Biso  1.000000 C
   C37        1.0     0.162253      0.976169      0.430791     Biso  1.000000 C
   C38        1.0     0.976169      0.162253      0.430792     Biso  1.000000 C
   C39        1.0     0.430788      0.430791      0.976169     Biso  1.000000 C
   C40        1.0     0.430788      0.430792      0.162253     Biso  1.000000 C
   C41        1.0     0.430790      0.162253      0.430790     Biso  1.000000 C
   C42        1.0     0.430788      0.976169      0.430791     Biso  1.000000 C
   C43        1.0     0.162254      0.430791      0.976169     Biso  1.000000 C
   C44        1.0     0.976168      0.430790      0.162253     Biso  1.000000 C
   C45        1.0     0.976168      0.430788      0.430791     Biso  1.000000 C
   C46        1.0     0.162254      0.430791      0.430788     Biso  1.000000 C
   C47        1.0     0.430790      0.162253      0.976168     Biso  1.000000 C
   C48        1.0     0.430790      0.976168      0.162253     Biso  1.000000 C
   C49        1.0     0.743404      0.029630      0.613482     Biso  1.000000 C
   C50        1.0     0.029631      0.743404      0.613481     Biso  1.000000 C
   C51        1.0     0.613483      0.613481      0.743404     Biso  1.000000 C
   C52        1.0     0.613482      0.613482      0.029630     Biso  1.000000 C
   C53        1.0     0.613482      0.743403      0.029631     Biso  1.000000 C
   C54        1.0     0.613482      0.029631      0.743403     Biso  1.000000 C
   C55        1.0     0.743404      0.613481      0.613482     Biso  1.000000 C
   C56        1.0     0.029632      0.613482      0.613481     Biso  1.000000 C
   C57        1.0     0.029632      0.613482      0.743403     Biso  1.000000 C
   C58        1.0     0.743404      0.613482      0.029630     Biso  1.000000 C
   C59        1.0     0.613482      0.743403      0.613482     Biso  1.000000 C
   C60        1.0     0.613483      0.029630      0.613482     Biso  1.000000 C
   C61        1.0     0.256595      0.970370      0.386518     Biso  1.000000 C
   C62        1.0     0.970369      0.256595      0.386519     Biso  1.000000 C
   C63        1.0     0.386518      0.386518      0.970370     Biso  1.000000 C
   C64        1.0     0.386517      0.386519      0.256595     Biso  1.000000 C
   C65        1.0     0.386518      0.256596      0.386518     Biso  1.000000 C
   C66        1.0     0.386517      0.970370      0.386518     Biso  1.000000 C
   C67        1.0     0.256595      0.386518      0.970370     Biso  1.000000 C
   C68        1.0     0.970368      0.386518      0.256596     Biso  1.000000 C
   C69        1.0     0.970368      0.386518      0.386519     Biso  1.000000 C
   C70        1.0     0.256595      0.386519      0.386518     Biso  1.000000 C
   C71        1.0     0.386518      0.256595      0.970369     Biso  1.000000 C
   C72        1.0     0.386518      0.970369      0.256595     Biso  1.000000 C
   H1         1.0     0.734615      0.028085      0.734614     Biso  1.000000 H
   H2         1.0     0.028085      0.734617      0.502682     Biso  1.000000 H
   H3         1.0     0.734616      0.502682      0.734617     Biso  1.000000 H
   H4         1.0     0.502686      0.734614      0.028085     Biso  1.000000 H
   H5         1.0     0.734615      0.734615      0.028085     Biso  1.000000 H
   H6         1.0     0.502685      0.028085      0.734615     Biso  1.000000 H
   H7         1.0     0.734615      0.734615      0.502685     Biso  1.000000 H
   H8         1.0     0.028086      0.502685      0.734615     Biso  1.000000 H
   H9         1.0     0.028085      0.734615      0.734615     Biso  1.000000 H
   H10        1.0     0.734616      0.502682      0.028085     Biso  1.000000 H
   H11        1.0     0.502686      0.734615      0.734615     Biso  1.000000 H
   H12        1.0     0.734617      0.028085      0.502682     Biso  1.000000 H
   H13        1.0     0.265383      0.971915      0.497318     Biso  1.000000 H
   H14        1.0     0.971915      0.265385      0.265385     Biso  1.000000 H
   H15        1.0     0.265384      0.497318      0.971915     Biso  1.000000 H
   H16        1.0     0.497314      0.265385      0.265385     Biso  1.000000 H
   H17        1.0     0.265385      0.265385      0.497315     Biso  1.000000 H
   H18        1.0     0.497315      0.971915      0.265385     Biso  1.000000 H
   H19        1.0     0.265385      0.265385      0.971915     Biso  1.000000 H
   H20        1.0     0.971914      0.497315      0.265385     Biso  1.000000 H
   H21        1.0     0.971915      0.265383      0.497318     Biso  1.000000 H
   H22        1.0     0.265384      0.497318      0.265383     Biso  1.000000 H
   H23        1.0     0.497314      0.265385      0.971915     Biso  1.000000 H
   H24        1.0     0.265385      0.971915      0.265385     Biso  1.000000 H
   Cu1        1.0     0.999998      0.999998      0.565198     Biso  1.000000 Cu
   Cu2        1.0     0.565194      0.434802      0.000002     Biso  1.000000 Cu
   Cu3        1.0     0.565196      0.000000      1.000000     Biso  1.000000 Cu
   Cu4        1.0     0.999995      0.565195      0.434805     Biso  1.000000 Cu
   Cu5        1.0     0.999997      0.565197      0.000001     Biso  1.000000 Cu
   Cu6        1.0     0.565195      0.999999      0.434803     Biso  1.000000 Cu
   Cu7        1.0     0.000002      0.000002      0.434802     Biso  1.000000 Cu
   Cu8        1.0     0.434806      0.565198      0.999998     Biso  1.000000 Cu
   Cu9        1.0     0.434804      1.000000      0.000000     Biso  1.000000 Cu
   Cu10       1.0     0.000005      0.434805      0.565195     Biso  1.000000 Cu
   Cu11       1.0     0.000003      0.434803      0.999999     Biso  1.000000 Cu
   Cu12       1.0     0.434805      0.000001      0.565197     Biso  1.000000 Cu