3c_pyrrole
_audit_creation_date              2020-06-11
_audit_creation_method            'assign_MBBB_charges.py'
_symmetry_space_group_name_H-M    'P1'
_symmetry_Int_Tables_number       1
_symmetry_cell_setting            triclinic
loop_
_symmetry_equiv_pos_as_xyz
  x,y,z
_cell_length_a                    50.0000
_cell_length_b                    50.0000
_cell_length_c                    50.0000
_cell_angle_alpha                 90.0000
_cell_angle_beta                  90.0000
_cell_angle_gamma                 90.0000
loop_
_atom_site_label
_atom_site_type_symbol
_atom_site_fract_x
_atom_site_fract_y
_atom_site_fract_z
_atom_site_U_iso_or_equiv
_atom_site_adp_type
_atom_site_occupancy
_atom_site_charge
X1      N         0.49424      0.50343      0.49792      0.00000   Uiso   1.00     -0.03177
X2      C         0.51895      0.51445      0.50386      0.00000   Uiso   1.00     -0.00586
C3      C         0.53573      0.49378      0.51117      0.00000   Uiso   1.00     -0.23473
C4      C         0.52099      0.46983      0.50965      0.00000   Uiso   1.00     -0.23678
X5      C         0.49533      0.47605      0.50142      0.00000   Uiso   1.00     -0.00687
H7      H         0.55648      0.49585      0.51699      0.00000   Uiso   1.00      0.13092
H8      H         0.52826      0.44993      0.51409      0.00000   Uiso   1.00      0.13131
loop_
_geom_bond_atom_site_label_1
_geom_bond_atom_site_label_2
_geom_bond_distance
_geom_bond_site_symmetry_2
_ccdc_geom_bond_type
X1      X5         1.382 .   A  
X1      X2         1.385 .   A  
X2      C3         1.380 .   A  
C3      C4         1.408 .   A  
C3      H7         1.082 .   S  
C4      X5         1.383 .   A  
C4      H8         1.083 .   S  
