8c_Mn_1
_audit_creation_date              2020-06-09
_audit_creation_method            'assign_MBBB_charges.py'
_symmetry_space_group_name_H-M    'P1'
_symmetry_Int_Tables_number       1
_symmetry_cell_setting            triclinic
loop_
_symmetry_equiv_pos_as_xyz
  x,y,z
_cell_length_a                    50.0000
_cell_length_b                    50.0000
_cell_length_c                    50.0000
_cell_angle_alpha                 90.0000
_cell_angle_beta                  90.0000
_cell_angle_gamma                 90.0000
loop_
_atom_site_label
_atom_site_type_symbol
_atom_site_fract_x
_atom_site_fract_y
_atom_site_fract_z
_atom_site_U_iso_or_equiv
_atom_site_adp_type
_atom_site_occupancy
_atom_site_charge
N1      N         0.44944      0.53084      0.46813      0.00000   Uiso   1.00     -0.05822
N2      N         0.43303      0.55158      0.46455      0.00000   Uiso   1.00     -0.57942
N3      N         0.46813      0.46916      0.44944      0.00000   Uiso   1.00     -0.05502
N4      N         0.46455      0.44842      0.43303      0.00000   Uiso   1.00     -0.60069
N5      N         0.44944      0.46916      0.46813      0.00000   Uiso   1.00     -0.05099
N6      N         0.43303      0.44842      0.46455      0.00000   Uiso   1.00     -0.57918
N7      N         0.46813      0.53084      0.44944      0.00000   Uiso   1.00     -0.04778
N8      N         0.46455      0.55158      0.43303      0.00000   Uiso   1.00     -0.60422
X9      C         0.44273      0.56388      0.44273      0.00000   Uiso   1.00      0.96354
X10     C         0.44273      0.43612      0.44273      0.00000   Uiso   1.00      0.96132
N11     N         0.55056      0.46916      0.46813      0.00000   Uiso   1.00     -0.06008
N12     N         0.56697      0.44842      0.46455      0.00000   Uiso   1.00     -0.58519
N13     N         0.53187      0.53084      0.44944      0.00000   Uiso   1.00     -0.04127
N14     N         0.53545      0.55158      0.43303      0.00000   Uiso   1.00     -0.59772
N15     N         0.55056      0.53084      0.46813      0.00000   Uiso   1.00     -0.06037
N16     N         0.56697      0.55158      0.46455      0.00000   Uiso   1.00     -0.58787
N17     N         0.53187      0.46916      0.44944      0.00000   Uiso   1.00     -0.03769
N18     N         0.53545      0.44842      0.43303      0.00000   Uiso   1.00     -0.59859
Mn19    Mn        0.50000      0.50000      0.44529      0.00000   Uiso   1.00      1.18444
X20     C         0.55727      0.43612      0.44273      0.00000   Uiso   1.00      0.98437
X21     C         0.55727      0.56388      0.44273      0.00000   Uiso   1.00      0.99101
N22     N         0.44944      0.46916      0.53187      0.00000   Uiso   1.00     -0.06057
N23     N         0.43303      0.44842      0.53545      0.00000   Uiso   1.00     -0.62366
N24     N         0.46813      0.53084      0.55056      0.00000   Uiso   1.00     -0.04859
N25     N         0.46455      0.55158      0.56697      0.00000   Uiso   1.00     -0.63039
N26     N         0.44944      0.53084      0.53187      0.00000   Uiso   1.00     -0.05563
N27     N         0.43303      0.55158      0.53545      0.00000   Uiso   1.00     -0.62630
N28     N         0.46813      0.46916      0.55056      0.00000   Uiso   1.00     -0.04459
N29     N         0.46455      0.44842      0.56697      0.00000   Uiso   1.00     -0.63320
Mn30    Mn        0.44529      0.50000      0.50000      0.00000   Uiso   1.00      1.10656
X31     C         0.44273      0.43612      0.55727      0.00000   Uiso   1.00      0.99659
X32     C         0.44273      0.56388      0.55727      0.00000   Uiso   1.00      0.99735
N33     N         0.55056      0.53084      0.53187      0.00000   Uiso   1.00     -0.05571
N34     N         0.56697      0.55158      0.53545      0.00000   Uiso   1.00     -0.60945
N35     N         0.53187      0.46916      0.55056      0.00000   Uiso   1.00     -0.04889
N36     N         0.53545      0.44842      0.56697      0.00000   Uiso   1.00     -0.57674
N37     N         0.55056      0.46916      0.53187      0.00000   Uiso   1.00     -0.06200
N38     N         0.56697      0.44842      0.53545      0.00000   Uiso   1.00     -0.60511
N39     N         0.53187      0.53084      0.55056      0.00000   Uiso   1.00     -0.05187
N40     N         0.53545      0.55158      0.56697      0.00000   Uiso   1.00     -0.57697
Mn41    Mn        0.55471      0.50000      0.50000      0.00000   Uiso   1.00      1.20191
Mn42    Mn        0.50000      0.50000      0.55471      0.00000   Uiso   1.00      1.10087
Cl43    Cl        0.50000      0.50000      0.50000      0.00000   Uiso   1.00     -0.85668
X44     C         0.55727      0.56388      0.55727      0.00000   Uiso   1.00      0.96665
X45     C         0.55727      0.43612      0.55727      0.00000   Uiso   1.00      0.96463
loop_
_geom_bond_atom_site_label_1
_geom_bond_atom_site_label_2
_geom_bond_distance
_geom_bond_site_symmetry_2
_ccdc_geom_bond_type
N1      N2         1.335 .   A  
N1      N7         1.322 .   A  
N1      Mn30       2.227 .   S  
N2      X9         1.343 .   A  
N3      N5         1.322 .   A  
N3      N4         1.335 .   A  
N3      Mn19       2.227 .   S  
N4      X10        1.343 .   A  
N5      N6         1.335 .   A  
N5      Mn30       2.227 .   S  
N6      X10        1.343 .   A  
N7      N8         1.335 .   A  
N7      Mn19       2.227 .   S  
N8      X9         1.343 .   A  
N11     N17        1.322 .   A  
N11     N12        1.335 .   A  
N11     Mn41       2.227 .   S  
N12     X20        1.343 .   A  
N13     Mn19       2.227 .   S  
N13     N14        1.335 .   A  
N13     N15        1.322 .   A  
N14     X21        1.343 .   A  
N15     N16        1.335 .   A  
N15     Mn41       2.227 .   S  
N16     X21        1.343 .   A  
N17     N18        1.335 .   A  
N17     Mn19       2.227 .   S  
N18     X20        1.343 .   A  
Mn19    Cl43       2.735 .   S  
N22     N23        1.335 .   A  
N22     N28        1.322 .   A  
N22     Mn30       2.227 .   S  
N23     X31        1.343 .   A  
N24     N26        1.322 .   A  
N24     N25        1.335 .   A  
N24     Mn42       2.227 .   S  
N25     X32        1.343 .   A  
N26     N27        1.335 .   A  
N26     Mn30       2.227 .   S  
N27     X32        1.343 .   A  
N28     N29        1.335 .   A  
N28     Mn42       2.227 .   S  
N29     X31        1.343 .   A  
Mn30    Cl43       2.735 .   S  
N33     N34        1.335 .   A  
N33     N39        1.322 .   A  
N33     Mn41       2.227 .   S  
N34     X44        1.343 .   A  
N35     N36        1.335 .   A  
N35     N37        1.322 .   A  
N35     Mn42       2.227 .   S  
N36     X45        1.343 .   A  
N37     N38        1.335 .   A  
N37     Mn41       2.227 .   S  
N38     X45        1.343 .   A  
N39     Mn42       2.227 .   S  
N39     N40        1.335 .   A  
N40     X44        1.343 .   A  
Mn41    Cl43       2.735 .   S  
Mn42    Cl43       2.735 .   S  
