# Generated by pormake.
# Topology snz, (6)-cn, num edge types: 1
# Building blocks:
#     Node 0, Type 0, BuildingBlock: KUMBUR_clean_sbu_1, # of connection points: 6
#     Node 1, Type 0, BuildingBlock: KUMBUR_clean_sbu_1, # of connection points: 6
#     Node 2, Type 0, BuildingBlock: KUMBUR_clean_sbu_1, # of connection points: 6
#     Node 3, Type 0, BuildingBlock: KUMBUR_clean_sbu_1, # of connection points: 6
#     Node 4, Type 0, BuildingBlock: KUMBUR_clean_sbu_1, # of connection points: 6
#     Node 5, Type 0, BuildingBlock: KUMBUR_clean_sbu_1, # of connection points: 6
#     Node 6, Type 0, BuildingBlock: KUMBUR_clean_sbu_1, # of connection points: 6
#     Node 7, Type 0, BuildingBlock: KUMBUR_clean_sbu_1, # of connection points: 6
#     Node 8, Type 0, BuildingBlock: KUMBUR_clean_sbu_1, # of connection points: 6
#     Edge 9, Type (0, 0), BuildingBlock: KIFKEQ_clean_linker_1, # of connection points: 2
#     Edge 10, Type (0, 0), BuildingBlock: KIFKEQ_clean_linker_1, # of connection points: 2
#     Edge 11, Type (0, 0), BuildingBlock: KIFKEQ_clean_linker_1, # of connection points: 2
#     Edge 12, Type (0, 0), BuildingBlock: KIFKEQ_clean_linker_1, # of connection points: 2
#     Edge 13, Type (0, 0), BuildingBlock: KIFKEQ_clean_linker_1, # of connection points: 2
#     Edge 14, Type (0, 0), BuildingBlock: KIFKEQ_clean_linker_1, # of connection points: 2
#     Edge 15, Type (0, 0), BuildingBlock: KIFKEQ_clean_linker_1, # of connection points: 2
#     Edge 16, Type (0, 0), BuildingBlock: KIFKEQ_clean_linker_1, # of connection points: 2
#     Edge 17, Type (0, 0), BuildingBlock: KIFKEQ_clean_linker_1, # of connection points: 2
#     Edge 18, Type (0, 0), BuildingBlock: KIFKEQ_clean_linker_1, # of connection points: 2
#     Edge 19, Type (0, 0), BuildingBlock: KIFKEQ_clean_linker_1, # of connection points: 2
#     Edge 20, Type (0, 0), BuildingBlock: KIFKEQ_clean_linker_1, # of connection points: 2
#     Edge 21, Type (0, 0), BuildingBlock: KIFKEQ_clean_linker_1, # of connection points: 2
#     Edge 22, Type (0, 0), BuildingBlock: KIFKEQ_clean_linker_1, # of connection points: 2
#     Edge 23, Type (0, 0), BuildingBlock: KIFKEQ_clean_linker_1, # of connection points: 2
#     Edge 24, Type (0, 0), BuildingBlock: KIFKEQ_clean_linker_1, # of connection points: 2
#     Edge 25, Type (0, 0), BuildingBlock: KIFKEQ_clean_linker_1, # of connection points: 2
#     Edge 26, Type (0, 0), BuildingBlock: KIFKEQ_clean_linker_1, # of connection points: 2
#     Edge 27, Type (0, 0), BuildingBlock: KIFKEQ_clean_linker_1, # of connection points: 2
#     Edge 28, Type (0, 0), BuildingBlock: KIFKEQ_clean_linker_1, # of connection points: 2
#     Edge 29, Type (0, 0), BuildingBlock: KIFKEQ_clean_linker_1, # of connection points: 2
#     Edge 30, Type (0, 0), BuildingBlock: KIFKEQ_clean_linker_1, # of connection points: 2
#     Edge 31, Type (0, 0), BuildingBlock: KIFKEQ_clean_linker_1, # of connection points: 2
#     Edge 32, Type (0, 0), BuildingBlock: KIFKEQ_clean_linker_1, # of connection points: 2
#     Edge 33, Type (0, 0), BuildingBlock: KIFKEQ_clean_linker_1, # of connection points: 2
#     Edge 34, Type (0, 0), BuildingBlock: KIFKEQ_clean_linker_1, # of connection points: 2
#     Edge 35, Type (0, 0), BuildingBlock: KIFKEQ_clean_linker_1, # of connection points: 2
# Relax obj value: 0.239
# Max RMSD: 0.166
# Mean RMSD: 0.113
data_MOF--net-snz--node1-KUMBUR_clean_sbu_1--edge1-KIFKEQ_clean_linker_1
_symmetry_space_group_name_H-M    P1
_symmetry_Int_Tables_number       1
_symmetry_cell_setting            triclinic
loop_
_symmetry_equiv_pos_as_xyz
'x, y, z'
_cell_length_a     67.415
_cell_length_b     54.579
_cell_length_c     19.255
_cell_angle_alpha  97.384
_cell_angle_beta   97.433
_cell_angle_gamma  120.561
loop_
_atom_site_label
_atom_site_type_symbol
_atom_site_fract_x
_atom_site_fract_y
_atom_site_fract_z
_atom_type_partial_charge
Tb0 Tb 0.98919 0.47631 0.13258 0.0
C1 C 0.11082 0.53134 0.15022 0.0
N2 N 0.09104 0.50874 0.10083 0.0
C3 C 0.11070 0.52549 0.00675 0.0
C4 C 0.13073 0.55150 0.12656 0.0
C5 C 0.09136 0.50595 0.03117 0.0
C6 C 0.13002 0.54848 0.05196 0.0
C7 C 0.13078 0.55800 0.27516 0.0
C8 C 0.11076 0.53441 0.22472 0.0
C9 C 0.15077 0.57805 0.25059 0.0
C10 C 0.15077 0.57504 0.18103 0.0
Tb11 Tb 0.05332 0.47684 0.14846 0.0
N12 N 0.09121 0.51427 0.24442 0.0
C13 C 0.12960 0.56050 0.34843 0.0
C14 C 0.09133 0.51771 0.31467 0.0
C15 C 0.11050 0.54084 0.36794 0.0
H16 H 0.07820 0.49043 0.99785 0.0
H17 H 0.10985 0.54236 0.41612 0.0
H18 H 0.96431 0.46273 0.28319 0.0
H19 H 0.93266 0.41079 0.86492 0.0
H20 H 0.07810 0.50414 0.32897 0.0
H21 H 0.14227 0.57601 0.38326 0.0
H22 H 0.96441 0.44902 0.95208 0.0
H23 H 0.11021 0.52252 0.95773 0.0
H24 H 0.16403 0.59345 0.28376 0.0
H25 H 0.16407 0.58852 0.16678 0.0
H26 H 0.93231 0.43064 0.32331 0.0
H27 H 0.14254 0.56199 0.03494 0.0
H28 H 0.90025 0.37714 0.89778 0.0
N29 N 0.95147 0.44442 0.18022 0.0
C30 C 0.93169 0.42182 0.13082 0.0
C31 C 0.93182 0.42767 0.27430 0.0
C32 C 0.91179 0.40166 0.15448 0.0
C33 C 0.95116 0.44721 0.24987 0.0
C34 C 0.91249 0.40468 0.22908 0.0
N35 N 0.95131 0.43889 0.03663 0.0
C36 C 0.95118 0.43545 0.96637 0.0
C37 C 0.91173 0.39515 0.00588 0.0
C38 C 0.93175 0.41875 0.05632 0.0
C39 C 0.91291 0.39266 0.93262 0.0
C40 C 0.93201 0.41231 0.91310 0.0
H41 H 0.89998 0.39116 0.24610 0.0
H42 H 0.87845 0.36463 0.11426 0.0
H43 H 0.87848 0.35971 0.99728 0.0
O44 O 0.98043 0.50465 0.05812 0.0
O45 O 0.98472 0.42960 0.12125 0.0
O46 O 0.01801 0.43068 0.11393 0.0
O47 O 0.97341 0.50622 0.16639 0.0
O48 O 0.00822 0.47466 0.04234 0.0
O49 O 0.03971 0.47390 0.02478 0.0
O50 O 0.06208 0.44851 0.22293 0.0
O51 O 0.05780 0.52356 0.15980 0.0
O52 O 0.02451 0.52248 0.16711 0.0
O53 O 0.06910 0.44693 0.11466 0.0
O54 O 0.03430 0.47850 0.23870 0.0
O55 O 0.00280 0.47926 0.25626 0.0
C56 C 0.99614 0.41812 0.10425 0.0
C57 C 0.96426 0.53292 0.09390 0.0
C58 C 0.95576 0.55990 0.01817 0.0
C59 C 0.94556 0.56682 0.07003 0.0
C60 C 0.95416 0.54030 0.14532 0.0
C61 C 0.94495 0.55757 0.13354 0.0
C62 C 0.96522 0.54307 0.03142 0.0
C63 C 0.02345 0.47807 0.00601 0.0
C64 C 0.97311 0.51335 0.10693 0.0
C65 C 0.89175 0.37811 0.10001 0.0
C66 C 0.89174 0.37511 0.03045 0.0
C67 C 0.04637 0.53504 0.17679 0.0
C68 C 0.07825 0.42024 0.18715 0.0
C69 C 0.08675 0.39326 0.26287 0.0
C70 C 0.09695 0.38633 0.21102 0.0
C71 C 0.08835 0.41285 0.13572 0.0
C72 C 0.07729 0.41009 0.24962 0.0
C73 C 0.09756 0.39559 0.14750 0.0
C74 C 0.01906 0.47508 0.27504 0.0
C75 C 0.06941 0.43981 0.17411 0.0
H76 H 0.93905 0.57792 0.06153 0.0
H77 H 0.95357 0.53362 0.18750 0.0
H78 H 0.93847 0.56276 0.16799 0.0
H79 H 0.97232 0.53858 0.99780 0.0
H80 H 0.10346 0.37524 0.21952 0.0
H81 H 0.08895 0.41954 0.09354 0.0
H82 H 0.07020 0.41458 0.28324 0.0
H83 H 0.10404 0.39039 0.11306 0.0
Tb84 Tb 0.56193 0.49764 0.05777 0.0
C85 C 0.62841 0.43103 0.09993 0.0
N86 N 0.63107 0.45534 0.14240 0.0
C87 C 0.63784 0.43878 0.24645 0.0
C88 C 0.63025 0.41014 0.13209 0.0
C89 C 0.63597 0.45900 0.21374 0.0
C90 C 0.63453 0.41423 0.20791 0.0
C91 C 0.62001 0.40171 0.98023 0.0
C92 C 0.62336 0.42699 0.02377 0.0
C93 C 0.62207 0.38093 0.01337 0.0
C94 C 0.62684 0.38484 0.08447 0.0
Tb95 Tb 0.62192 0.48899 0.07766 0.0
N96 N 0.62195 0.44788 0.99584 0.0
C97 C 0.61444 0.39836 0.90478 0.0
C98 C 0.61688 0.44354 0.92404 0.0
C99 C 0.61305 0.41875 0.87721 0.0
H100 H 0.63818 0.47564 0.24254 0.0
H101 H 0.60961 0.41665 0.82768 0.0
H102 H 0.54567 0.51099 0.89289 0.0
H103 H 0.57424 0.56998 0.30775 0.0
H104 H 0.61585 0.45761 0.90414 0.0
H105 H 0.61172 0.38178 0.87417 0.0
H106 H 0.56800 0.52902 0.23129 0.0
H107 H 0.64150 0.44238 0.29641 0.0
H108 H 0.62005 0.36440 0.98480 0.0
H109 H 0.62802 0.37084 0.10437 0.0
H110 H 0.54235 0.54425 0.83903 0.0
H111 H 0.63501 0.40034 0.23018 0.0
H112 H 0.57213 0.60485 0.26126 0.0
N113 N 0.55278 0.53129 0.99303 0.0
C114 C 0.55545 0.55560 0.03550 0.0
C115 C 0.54601 0.54785 0.88898 0.0
C116 C 0.55360 0.57649 0.00334 0.0
C117 C 0.54789 0.52763 0.92169 0.0
C118 C 0.54932 0.57240 0.92753 0.0
N119 N 0.56190 0.53875 0.13960 0.0
C120 C 0.56697 0.54309 0.21139 0.0
C121 C 0.56384 0.58492 0.15521 0.0
C122 C 0.56049 0.55964 0.11166 0.0
C123 C 0.56941 0.58827 0.23066 0.0
C124 C 0.57080 0.56788 0.25823 0.0
H125 H 0.54884 0.58629 0.90526 0.0
H126 H 0.55584 0.61578 0.03106 0.0
H127 H 0.56380 0.62223 0.15063 0.0
O128 O 0.53087 0.47345 0.12415 0.0
O129 O 0.59926 0.54196 0.07388 0.0
O130 O 0.63017 0.53697 0.09989 0.0
O131 O 0.51949 0.47113 0.01001 0.0
O132 O 0.58423 0.49827 0.16037 0.0
O133 O 0.61537 0.49537 0.19605 0.0
O134 O 0.65298 0.51318 0.01129 0.0
O135 O 0.58459 0.44467 0.06155 0.0
O136 O 0.55368 0.44966 0.03555 0.0
O137 O 0.66436 0.51550 0.12543 0.0
O138 O 0.59962 0.48836 0.97506 0.0
O139 O 0.56848 0.49125 0.93939 0.0
C140 C 0.62078 0.55154 0.09932 0.0
C141 C 0.48945 0.44850 0.07440 0.0
C142 C 0.45986 0.42556 0.14241 0.0
C143 C 0.44247 0.41954 0.08295 0.0
C144 C 0.47175 0.44203 0.01537 0.0
C145 C 0.44812 0.42725 0.01952 0.0
C146 C 0.48331 0.43990 0.13684 0.0
C147 C 0.59681 0.49378 0.20532 0.0
C148 C 0.51473 0.46547 0.06912 0.0
C149 C 0.55701 0.60179 0.05097 0.0
C150 C 0.56179 0.60570 0.12206 0.0
C151 C 0.56307 0.43509 0.03611 0.0
C152 C 0.69441 0.53813 0.06103 0.0
C153 C 0.72399 0.56107 0.99303 0.0
C154 C 0.74138 0.56709 0.05248 0.0
C155 C 0.71210 0.54459 0.12007 0.0
C156 C 0.70054 0.54673 0.99859 0.0
C157 C 0.73573 0.55938 0.11591 0.0
C158 C 0.58705 0.49285 0.93011 0.0
C159 C 0.66912 0.52116 0.06631 0.0
H160 H 0.42675 0.41012 0.08623 0.0
H161 H 0.47580 0.44768 0.97322 0.0
H162 H 0.43632 0.42265 0.98010 0.0
H163 H 0.49504 0.44374 0.17566 0.0
H164 H 0.75710 0.57651 0.04921 0.0
H165 H 0.70806 0.53895 0.16221 0.0
H166 H 0.68881 0.54289 0.95977 0.0
H167 H 0.74753 0.56398 0.15533 0.0
Tb168 Tb 0.60994 0.11932 0.03753 0.0
C169 C 0.52856 0.96602 0.92778 0.0
N170 N 0.52956 0.98819 0.89800 0.0
C171 C 0.52095 0.95921 0.78150 0.0
C172 C 0.52393 0.94017 0.88288 0.0
C173 C 0.52551 0.98440 0.82658 0.0
C174 C 0.52066 0.93746 0.80750 0.0
C175 C 0.53226 0.94734 0.03448 0.0
C176 C 0.53267 0.96972 0.00388 0.0
C177 C 0.52743 0.92133 0.98856 0.0
C178 C 0.52354 0.91795 0.91758 0.0
Tb179 Tb 0.54361 0.03758 0.98602 0.0
N180 N 0.53687 0.99494 0.04436 0.0
C181 C 0.53704 0.95240 0.11049 0.0
C182 C 0.54100 0.99821 0.11593 0.0
C183 C 0.54116 0.97704 0.15032 0.0
H184 H 0.52577 0.99990 0.80630 0.0
H185 H 0.54408 0.98020 0.20016 0.0
H186 H 0.62778 0.15780 0.21726 0.0
H187 H 0.60947 0.17669 0.82339 0.0
H188 H 0.54391 0.01533 0.14431 0.0
H189 H 0.53733 0.93840 0.13284 0.0
H190 H 0.60964 0.14157 0.87924 0.0
H191 H 0.51801 0.95742 0.73198 0.0
H192 H 0.52697 0.90649 0.00859 0.0
H193 H 0.52049 0.90076 0.88917 0.0
H194 H 0.63554 0.19948 0.29158 0.0
H195 H 0.51841 0.92114 0.77709 0.0
H196 H 0.61622 0.21849 0.89071 0.0
N197 N 0.62399 0.16871 0.12555 0.0
C198 C 0.62499 0.19087 0.09577 0.0
C199 C 0.63260 0.19768 0.24206 0.0
C200 C 0.62962 0.21673 0.14067 0.0
C201 C 0.62804 0.17250 0.19697 0.0
C202 C 0.63289 0.21944 0.21605 0.0
N203 N 0.61668 0.16196 0.97920 0.0
C204 C 0.61255 0.15868 0.90762 0.0
C205 C 0.62129 0.20956 0.98908 0.0
C206 C 0.62088 0.18717 0.01968 0.0
C207 C 0.61651 0.20450 0.91307 0.0
C208 C 0.61239 0.17985 0.87324 0.0
H209 H 0.63515 0.23576 0.24646 0.0
H210 H 0.63306 0.25614 0.13439 0.0
H211 H 0.62658 0.25040 0.01496 0.0
O212 O 0.64104 0.12832 0.97118 0.0
O213 O 0.57576 0.12254 0.03011 0.0
O214 O 0.54167 0.07941 0.98751 0.0
O215 O 0.65188 0.14249 0.08905 0.0
O216 O 0.58685 0.09055 0.92538 0.0
O217 O 0.55291 0.04917 0.87420 0.0
O218 O 0.51251 0.02858 0.05237 0.0
O219 O 0.57779 0.03436 0.99344 0.0
O220 O 0.61188 0.07749 0.03605 0.0
O221 O 0.50167 0.01440 0.93450 0.0
O222 O 0.56670 0.06635 0.09818 0.0
O223 O 0.60064 0.10773 0.14935 0.0
C224 C 0.55396 0.10655 0.00010 0.0
C225 C 0.68207 0.15202 0.02511 0.0
C226 C 0.71176 0.16057 0.95719 0.0
C227 C 0.72920 0.17642 0.02094 0.0
C228 C 0.69979 0.16774 0.08833 0.0
C229 C 0.72347 0.17978 0.08625 0.0
C230 C 0.68820 0.14829 0.96049 0.0
C231 C 0.57300 0.06939 0.87228 0.0
C232 C 0.65689 0.14041 0.02882 0.0
C233 C 0.63001 0.23894 0.10598 0.0
C234 C 0.62612 0.23557 0.03499 0.0
C235 C 0.59959 0.05035 0.02299 0.0
C236 C 0.47148 0.00488 0.99844 0.0
C237 C 0.44179 0.99632 0.06637 0.0
C238 C 0.42435 0.98048 0.00262 0.0
C239 C 0.45376 0.98916 0.93523 0.0
C240 C 0.46535 0.00861 0.06306 0.0
C241 C 0.43008 0.97712 0.93731 0.0
C242 C 0.58055 0.08751 0.15128 0.0
C243 C 0.49666 0.01649 0.99473 0.0
H244 H 0.74502 0.18487 0.01928 0.0
H245 H 0.69574 0.17019 0.13189 0.0
H246 H 0.73524 0.18995 0.12829 0.0
H247 H 0.67638 0.13740 0.91866 0.0
H248 H 0.40853 0.97202 0.00427 0.0
H249 H 0.45781 0.98670 0.89166 0.0
H250 H 0.47717 0.01950 0.10490 0.0
H251 H 0.41831 0.96694 0.89526 0.0
Tb252 Tb 0.71275 0.85650 0.20519 0.0
C253 C 0.83438 0.91152 0.22282 0.0
N254 N 0.81460 0.88892 0.17343 0.0
C255 C 0.83425 0.90567 0.07935 0.0
C256 C 0.85429 0.93168 0.19916 0.0
C257 C 0.81492 0.88613 0.10377 0.0
C258 C 0.85358 0.92866 0.12457 0.0
C259 C 0.85434 0.93818 0.34776 0.0
C260 C 0.83432 0.91459 0.29732 0.0
C261 C 0.87433 0.95823 0.32320 0.0
C262 C 0.87432 0.95522 0.25363 0.0
Tb263 Tb 0.77688 0.85703 0.22106 0.0
N264 N 0.81477 0.89445 0.31702 0.0
C265 C 0.85316 0.94068 0.42103 0.0
C266 C 0.81489 0.89789 0.38727 0.0
C267 C 0.83406 0.92102 0.44054 0.0
H268 H 0.80176 0.87061 0.07045 0.0
H269 H 0.83341 0.92254 0.48872 0.0
H270 H 0.68787 0.84291 0.35579 0.0
H271 H 0.65622 0.79098 0.93752 0.0
H272 H 0.80166 0.88432 0.40157 0.0
H273 H 0.86582 0.95619 0.45586 0.0
H274 H 0.68797 0.82920 0.02468 0.0
H275 H 0.83377 0.90270 0.03033 0.0
H276 H 0.88759 0.97363 0.35637 0.0
H277 H 0.88762 0.96870 0.23938 0.0
H278 H 0.65587 0.81082 0.39591 0.0
H279 H 0.86610 0.94218 0.10755 0.0
H280 H 0.62381 0.75733 0.97038 0.0
N281 N 0.67503 0.82460 0.25282 0.0
C282 C 0.65525 0.80200 0.20342 0.0
C283 C 0.65538 0.80785 0.34690 0.0
C284 C 0.63534 0.78184 0.22708 0.0
C285 C 0.67471 0.82739 0.32247 0.0
C286 C 0.63605 0.78486 0.30168 0.0
N287 N 0.67486 0.81907 0.10923 0.0
C288 C 0.67474 0.81563 0.03897 0.0
C289 C 0.63529 0.77534 0.07848 0.0
C290 C 0.65531 0.79893 0.12892 0.0
C291 C 0.63647 0.77284 0.00521 0.0
C292 C 0.65557 0.79250 0.98570 0.0
H293 H 0.62353 0.77134 0.31870 0.0
H294 H 0.60201 0.74482 0.18686 0.0
H295 H 0.60204 0.73989 0.06988 0.0
O296 O 0.70399 0.88483 0.13072 0.0
O297 O 0.70827 0.80978 0.19385 0.0
O298 O 0.74157 0.81086 0.18653 0.0
O299 O 0.69697 0.88641 0.23899 0.0
O300 O 0.73177 0.85484 0.11494 0.0
O301 O 0.76327 0.85408 0.09738 0.0
O302 O 0.78564 0.82869 0.29552 0.0
O303 O 0.78136 0.90374 0.23240 0.0
O304 O 0.74806 0.90266 0.23972 0.0
O305 O 0.79266 0.82711 0.18725 0.0
O306 O 0.75786 0.85868 0.31130 0.0
O307 O 0.72636 0.85944 0.32886 0.0
C308 C 0.71970 0.79830 0.17685 0.0
C309 C 0.68782 0.91310 0.16650 0.0
C310 C 0.67932 0.94009 0.09078 0.0
C311 C 0.66912 0.94701 0.14264 0.0
C312 C 0.67772 0.92049 0.21793 0.0
C313 C 0.66851 0.93775 0.20615 0.0
C314 C 0.68878 0.92325 0.10403 0.0
C315 C 0.74701 0.85826 0.07861 0.0
C316 C 0.69667 0.89353 0.17954 0.0
C317 C 0.61531 0.75830 0.17261 0.0
C318 C 0.61530 0.75529 0.10305 0.0
C319 C 0.76993 0.91522 0.24940 0.0
C320 C 0.80181 0.80042 0.25974 0.0
C321 C 0.81031 0.77343 0.33546 0.0
C322 C 0.82051 0.76651 0.28361 0.0
C323 C 0.81191 0.79303 0.20831 0.0
C324 C 0.80085 0.79027 0.32222 0.0
C325 C 0.82112 0.77577 0.22010 0.0
C326 C 0.74262 0.85526 0.34764 0.0
C327 C 0.79296 0.81999 0.24671 0.0
H328 H 0.66261 0.95810 0.13414 0.0
H329 H 0.67713 0.91381 0.26011 0.0
H330 H 0.66203 0.94295 0.24060 0.0
H331 H 0.69588 0.91876 0.07041 0.0
H332 H 0.82702 0.75542 0.29211 0.0
H333 H 0.81250 0.79972 0.16614 0.0
H334 H 0.79375 0.79476 0.35584 0.0
H335 H 0.82760 0.77057 0.18565 0.0
Tb336 Tb 0.14414 0.84433 0.27595 0.0
C337 C 0.21062 0.77773 0.31811 0.0
N338 N 0.21328 0.80203 0.36059 0.0
C339 C 0.22005 0.78547 0.46463 0.0
C340 C 0.21246 0.75684 0.35027 0.0
C341 C 0.21818 0.80570 0.43193 0.0
C342 C 0.21674 0.76092 0.42609 0.0
C343 C 0.20223 0.74841 0.19841 0.0
C344 C 0.20557 0.77369 0.24196 0.0
C345 C 0.20428 0.72763 0.23155 0.0
C346 C 0.20905 0.73153 0.30265 0.0
Tb347 Tb 0.20413 0.83569 0.29584 0.0
N348 N 0.20416 0.79458 0.21402 0.0
C349 C 0.19665 0.74506 0.12296 0.0
C350 C 0.19909 0.79024 0.14222 0.0
C351 C 0.19526 0.76545 0.09539 0.0
H352 H 0.22039 0.82233 0.46072 0.0
H353 H 0.19182 0.76335 0.04587 0.0
H354 H 0.12788 0.85769 0.11108 0.0
H355 H 0.15645 0.91667 0.52593 0.0
H356 H 0.19806 0.80431 0.12233 0.0
H357 H 0.19393 0.72848 0.09235 0.0
H358 H 0.15021 0.87571 0.44947 0.0
H359 H 0.22371 0.78908 0.51459 0.0
H360 H 0.20226 0.71110 0.20298 0.0
H361 H 0.21023 0.71754 0.32255 0.0
H362 H 0.12456 0.89094 0.05721 0.0
H363 H 0.21722 0.74704 0.44836 0.0
H364 H 0.15434 0.95155 0.47945 0.0
N365 N 0.13499 0.87799 0.21121 0.0
C366 C 0.13766 0.90230 0.25368 0.0
C367 C 0.12822 0.89455 0.10716 0.0
C368 C 0.13581 0.92318 0.22152 0.0
C369 C 0.13010 0.87432 0.13987 0.0
C370 C 0.13153 0.91910 0.14571 0.0
N371 N 0.14411 0.88544 0.35778 0.0
C372 C 0.14918 0.88978 0.42957 0.0
C373 C 0.14605 0.93162 0.37339 0.0
C374 C 0.14270 0.90634 0.32984 0.0
C375 C 0.15162 0.93496 0.44884 0.0
C376 C 0.15301 0.91457 0.47641 0.0
H377 H 0.13105 0.93299 0.12344 0.0
H378 H 0.13805 0.96248 0.24925 0.0
H379 H 0.14601 0.96893 0.36881 0.0
O380 O 0.11308 0.82015 0.34232 0.0
O381 O 0.18147 0.88866 0.29207 0.0
O382 O 0.21238 0.88366 0.31807 0.0
O383 O 0.10170 0.81783 0.22818 0.0
O384 O 0.16644 0.84496 0.37856 0.0
O385 O 0.19758 0.84207 0.41423 0.0
O386 O 0.23519 0.85988 0.22947 0.0
O387 O 0.16680 0.79137 0.27973 0.0
O388 O 0.13589 0.79636 0.25373 0.0
O389 O 0.24657 0.86219 0.34361 0.0
O390 O 0.18183 0.83506 0.19324 0.0
O391 O 0.15069 0.83795 0.15757 0.0
C392 C 0.20299 0.89823 0.31751 0.0
C393 C 0.07166 0.79520 0.29258 0.0
C394 C 0.04207 0.77226 0.36058 0.0
C395 C 0.02468 0.76623 0.30113 0.0
C396 C 0.05396 0.78873 0.23354 0.0
C397 C 0.03033 0.77394 0.23770 0.0
C398 C 0.06552 0.78659 0.35502 0.0
C399 C 0.17902 0.84047 0.42350 0.0
C400 C 0.09694 0.81216 0.28730 0.0
C401 C 0.13922 0.94849 0.26915 0.0
C402 C 0.14399 0.95240 0.34025 0.0
C403 C 0.14528 0.78179 0.25429 0.0
C404 C 0.27662 0.88483 0.27922 0.0
C405 C 0.30620 0.90777 0.21122 0.0
C406 C 0.32359 0.91379 0.27067 0.0
C407 C 0.29431 0.89129 0.33825 0.0
C408 C 0.28275 0.89343 0.21678 0.0
C409 C 0.31794 0.90608 0.33410 0.0
C410 C 0.16926 0.83955 0.14829 0.0
C411 C 0.25133 0.86786 0.28449 0.0
H412 H 0.00896 0.75682 0.30440 0.0
H413 H 0.05801 0.79437 0.19140 0.0
H414 H 0.01853 0.76935 0.19828 0.0
H415 H 0.07725 0.79044 0.39384 0.0
H416 H 0.33931 0.92321 0.26739 0.0
H417 H 0.29027 0.88565 0.38040 0.0
H418 H 0.27102 0.88958 0.17796 0.0
H419 H 0.32974 0.91068 0.37352 0.0
Tb420 Tb 0.22246 0.29576 0.36765 0.0
C421 C 0.14108 0.14246 0.25790 0.0
N422 N 0.14208 0.16463 0.22812 0.0
C423 C 0.13347 0.13565 0.11161 0.0
C424 C 0.13645 0.11661 0.21300 0.0
C425 C 0.13803 0.16083 0.15670 0.0
C426 C 0.13318 0.11389 0.13762 0.0
C427 C 0.14478 0.12378 0.36460 0.0
C428 C 0.14519 0.14616 0.33399 0.0
C429 C 0.13995 0.09777 0.31868 0.0
C430 C 0.13606 0.09439 0.24770 0.0
Tb431 Tb 0.15613 0.21402 0.31613 0.0
N432 N 0.14939 0.17138 0.37448 0.0
C433 C 0.14956 0.12884 0.44061 0.0
C434 C 0.15352 0.17465 0.44605 0.0
C435 C 0.15368 0.15348 0.48044 0.0
H436 H 0.13829 0.17554 0.13641 0.0
H437 H 0.15660 0.15664 0.53028 0.0
H438 H 0.24030 0.33424 0.54737 0.0
H439 H 0.22199 0.35313 0.15350 0.0
H440 H 0.15643 0.19177 0.47443 0.0
H441 H 0.14985 0.11484 0.46296 0.0
H442 H 0.22216 0.31801 0.20935 0.0
H443 H 0.13053 0.13385 0.06209 0.0
H444 H 0.13949 0.08293 0.33871 0.0
H445 H 0.13301 0.07719 0.21929 0.0
H446 H 0.24806 0.37592 0.62169 0.0
H447 H 0.13092 0.09757 0.10721 0.0
H448 H 0.22874 0.39493 0.22082 0.0
N449 N 0.23651 0.34515 0.45566 0.0
C450 C 0.23751 0.36731 0.42588 0.0
C451 C 0.24512 0.37412 0.57217 0.0
C452 C 0.24214 0.39316 0.47078 0.0
C453 C 0.24056 0.34894 0.52708 0.0
C454 C 0.24541 0.39588 0.54616 0.0
N455 N 0.22920 0.33840 0.30930 0.0
C456 C 0.22506 0.33512 0.23773 0.0
C457 C 0.23381 0.38600 0.31918 0.0
C458 C 0.23340 0.36361 0.34979 0.0
C459 C 0.22902 0.38093 0.24317 0.0
C460 C 0.22491 0.35629 0.20334 0.0
H461 H 0.24766 0.41220 0.57657 0.0
H462 H 0.24558 0.43258 0.46449 0.0
H463 H 0.23909 0.42684 0.34507 0.0
O464 O 0.25356 0.30476 0.30129 0.0
O465 O 0.18827 0.29897 0.36022 0.0
O466 O 0.15419 0.25585 0.31762 0.0
O467 O 0.26440 0.31893 0.41916 0.0
O468 O 0.19937 0.26698 0.25549 0.0
O469 O 0.16543 0.22560 0.20431 0.0
O470 O 0.12503 0.20502 0.38249 0.0
O471 O 0.19031 0.21080 0.32356 0.0
O472 O 0.22440 0.25393 0.36616 0.0
O473 O 0.11419 0.19084 0.26462 0.0
O474 O 0.17922 0.24279 0.42829 0.0
O475 O 0.21316 0.28417 0.47947 0.0
C476 C 0.16648 0.28299 0.33068 0.0
C477 C 0.29459 0.32846 0.35522 0.0
C478 C 0.32427 0.33701 0.28729 0.0
C479 C 0.34172 0.35285 0.35104 0.0
C480 C 0.31231 0.34418 0.41844 0.0
C481 C 0.33598 0.35622 0.41635 0.0
C482 C 0.30071 0.32473 0.29060 0.0
C483 C 0.18552 0.24583 0.20239 0.0
C484 C 0.26941 0.31684 0.35893 0.0
C485 C 0.24252 0.41538 0.43608 0.0
C486 C 0.23864 0.41200 0.36510 0.0
C487 C 0.21211 0.22679 0.35310 0.0
C488 C 0.08400 0.18131 0.32856 0.0
C489 C 0.05431 0.17276 0.39649 0.0
C490 C 0.03687 0.15692 0.33274 0.0
C491 C 0.06628 0.16559 0.26534 0.0
C492 C 0.07787 0.18505 0.39318 0.0
C493 C 0.04260 0.15355 0.26743 0.0
C494 C 0.19307 0.26394 0.48139 0.0
C495 C 0.10918 0.19293 0.32485 0.0
H496 H 0.35754 0.36131 0.34939 0.0
H497 H 0.30826 0.34663 0.46200 0.0
H498 H 0.34776 0.36639 0.45840 0.0
H499 H 0.28890 0.31383 0.24876 0.0
H500 H 0.02105 0.14846 0.33439 0.0
H501 H 0.07033 0.16314 0.22178 0.0
H502 H 0.08969 0.19594 0.43502 0.0
H503 H 0.03083 0.14338 0.22538 0.0
Tb504 Tb 0.36403 0.15625 0.76036 0.0
C505 C 0.45759 0.19035 0.58204 0.0
N506 N 0.44761 0.20619 0.60066 0.0
C507 C 0.48628 0.24924 0.63909 0.0
C508 C 0.48248 0.20448 0.59333 0.0
C509 C 0.46180 0.23493 0.62753 0.0
C510 C 0.49699 0.23481 0.62465 0.0
C511 C 0.45288 0.14337 0.53552 0.0
C512 C 0.44263 0.15972 0.55281 0.0
C513 C 0.47798 0.15791 0.54676 0.0
C514 C 0.49186 0.18652 0.57388 0.0
Tb515 Tb 0.40204 0.17709 0.59333 0.0
N516 N 0.41882 0.14734 0.54266 0.0
C517 C 0.43726 0.11286 0.50831 0.0
C518 C 0.40502 0.11842 0.51598 0.0
C519 C 0.41395 0.10065 0.49828 0.0
H520 H 0.45510 0.24575 0.63894 0.0
H521 H 0.40372 0.08067 0.47978 0.0
H522 H 0.31097 0.08759 0.71474 0.0
H523 H 0.36235 0.25267 0.87390 0.0
H524 H 0.38872 0.10964 0.50877 0.0
H525 H 0.44332 0.10122 0.49736 0.0
H526 H 0.37736 0.22370 0.84491 0.0
H527 H 0.49545 0.26936 0.65732 0.0
H528 H 0.48474 0.14722 0.53490 0.0
H529 H 0.50816 0.19532 0.58068 0.0
H530 H 0.27062 0.06399 0.69636 0.0
H531 H 0.51340 0.24439 0.63487 0.0
H532 H 0.32275 0.23212 0.85632 0.0
N533 N 0.31846 0.12715 0.75303 0.0
C534 C 0.30848 0.14299 0.77164 0.0
C535 C 0.27979 0.08410 0.71459 0.0
C536 C 0.28359 0.12887 0.76036 0.0
C537 C 0.30427 0.09841 0.72615 0.0
C538 C 0.26908 0.09853 0.72903 0.0
N539 N 0.34725 0.18600 0.81103 0.0
C540 C 0.36106 0.21492 0.83771 0.0
C541 C 0.31319 0.18997 0.81816 0.0
C542 C 0.32344 0.17363 0.80087 0.0
C543 C 0.32881 0.22048 0.84538 0.0
C544 C 0.35212 0.23269 0.85540 0.0
H545 H 0.25267 0.08895 0.71881 0.0
H546 H 0.25791 0.13802 0.77300 0.0
H547 H 0.28133 0.18612 0.81878 0.0
O548 O 0.38424 0.17705 0.88857 0.0
O549 O 0.34734 0.16794 0.66276 0.0
O550 O 0.37069 0.18487 0.58572 0.0
O551 O 0.35703 0.13013 0.85637 0.0
O552 O 0.39506 0.20104 0.75341 0.0
O553 O 0.41882 0.22169 0.68142 0.0
O554 O 0.38183 0.15629 0.46512 0.0
O555 O 0.41873 0.16540 0.69093 0.0
O556 O 0.39538 0.14847 0.76796 0.0
O557 O 0.40904 0.20321 0.49731 0.0
O558 O 0.37101 0.13230 0.60027 0.0
O559 O 0.34725 0.11165 0.67226 0.0
C560 C 0.35434 0.18188 0.61446 0.0
C561 C 0.37599 0.15028 0.98055 0.0
C562 C 0.39617 0.17195 0.10543 0.0
C563 C 0.38089 0.14537 0.12222 0.0
C564 C 0.36103 0.12382 0.99845 0.0
C565 C 0.36364 0.12131 0.06962 0.0
C566 C 0.39356 0.17390 0.03396 0.0
C567 C 0.41384 0.22151 0.74165 0.0
C568 C 0.37208 0.15258 0.90402 0.0
C569 C 0.27421 0.14682 0.77980 0.0
C570 C 0.28809 0.17543 0.80692 0.0
C571 C 0.41173 0.15146 0.73922 0.0
C572 C 0.39008 0.18306 0.37313 0.0
C573 C 0.36990 0.16139 0.24825 0.0
C574 C 0.38518 0.18797 0.23147 0.0
C575 C 0.40504 0.20952 0.35523 0.0
C576 C 0.37251 0.15944 0.31973 0.0
C577 C 0.40243 0.21203 0.28407 0.0
C578 C 0.35223 0.11183 0.61204 0.0
C579 C 0.39399 0.18076 0.44966 0.0
H580 H 0.38239 0.14388 0.16990 0.0
H581 H 0.34927 0.10787 0.96268 0.0
H582 H 0.35389 0.10367 0.08149 0.0
H583 H 0.40378 0.19134 0.02186 0.0
H584 H 0.38368 0.18946 0.18379 0.0
H585 H 0.41680 0.22547 0.39100 0.0
H586 H 0.36230 0.14200 0.33182 0.0
H587 H 0.41218 0.22967 0.27219 0.0
Tb588 Tb 0.87475 0.18419 0.59240 0.0
C589 C 0.92781 0.12187 0.78534 0.0
N590 N 0.90426 0.11129 0.75825 0.0
C591 C 0.89788 0.06416 0.71747 0.0
C592 C 0.93640 0.10303 0.77714 0.0
C593 C 0.88983 0.08303 0.72613 0.0
C594 C 0.92072 0.07344 0.74019 0.0
C595 C 0.96758 0.16294 0.84626 0.0
C596 C 0.94334 0.15193 0.82020 0.0
C597 C 0.97596 0.14367 0.83802 0.0
C598 C 0.96139 0.11562 0.80562 0.0
Tb599 Tb 0.89132 0.14915 0.76130 0.0
N600 N 0.93408 0.16897 0.82701 0.0
C601 C 0.98239 0.19313 0.87889 0.0
C602 C 0.94900 0.19729 0.85913 0.0
C603 C 0.97340 0.20989 0.88566 0.0
H604 H 0.87386 0.07573 0.70894 0.0
H605 H 0.98311 0.22965 0.90770 0.0
H606 H 0.89221 0.25761 0.64476 0.0
H607 H 0.78297 0.10369 0.44600 0.0
H608 H 0.94294 0.20922 0.86415 0.0
H609 H 0.99854 0.20135 0.89570 0.0
H610 H 0.82313 0.12412 0.48956 0.0
H611 H 0.88713 0.04456 0.69531 0.0
H612 H 0.99187 0.15083 0.85563 0.0
H613 H 0.96743 0.10365 0.80099 0.0
H614 H 0.87894 0.28878 0.65839 0.0
H615 H 0.92608 0.06089 0.73195 0.0
H616 H 0.76754 0.13198 0.45800 0.0
N617 N 0.86181 0.22205 0.59545 0.0
C618 C 0.83826 0.21147 0.56836 0.0
C619 C 0.86819 0.26918 0.63624 0.0
C620 C 0.82968 0.23030 0.57656 0.0
C621 C 0.87624 0.25031 0.62757 0.0
C622 C 0.84536 0.25989 0.61351 0.0
N623 N 0.83200 0.16437 0.52669 0.0
C624 C 0.81707 0.13605 0.49458 0.0
C625 C 0.79849 0.17040 0.50744 0.0
C626 C 0.82273 0.18141 0.53350 0.0
C627 C 0.78369 0.14021 0.47482 0.0
C628 C 0.79268 0.12345 0.46804 0.0
H629 H 0.83999 0.27245 0.62175 0.0
H630 H 0.79865 0.22969 0.55271 0.0
H631 H 0.77420 0.18251 0.49807 0.0
O632 O 0.87136 0.16511 0.46538 0.0
O633 O 0.85091 0.17474 0.67890 0.0
O634 O 0.85690 0.15053 0.75606 0.0
O635 O 0.89121 0.21279 0.50504 0.0
O636 O 0.86080 0.13589 0.59319 0.0
O637 O 0.86365 0.10847 0.66419 0.0
O638 O 0.89472 0.16822 0.88832 0.0
O639 O 0.91517 0.15860 0.67480 0.0
O640 O 0.90917 0.18281 0.59764 0.0
O641 O 0.87487 0.12055 0.84866 0.0
O642 O 0.90528 0.19745 0.76051 0.0
O643 O 0.90242 0.22487 0.68951 0.0
C644 C 0.84494 0.15870 0.72367 0.0
C645 C 0.88737 0.19448 0.38182 0.0
C646 C 0.88320 0.17451 0.25775 0.0
C647 C 0.89402 0.20279 0.24583 0.0
C648 C 0.89835 0.22260 0.36885 0.0
C649 C 0.90187 0.22678 0.30061 0.0
C650 C 0.88020 0.17082 0.32651 0.0
C651 C 0.85856 0.11224 0.60346 0.0
C652 C 0.88299 0.19064 0.45500 0.0
C653 C 0.80469 0.21772 0.54809 0.0
C654 C 0.79011 0.18967 0.51568 0.0
C655 C 0.92114 0.17463 0.63003 0.0
C656 C 0.87870 0.13886 0.97189 0.0
C657 C 0.88288 0.15883 0.09595 0.0
C658 C 0.87205 0.13055 0.10787 0.0
C659 C 0.86773 0.11073 0.98485 0.0
C660 C 0.88588 0.16252 0.02719 0.0
C661 C 0.86421 0.10656 0.05310 0.0
C662 C 0.90751 0.22110 0.75025 0.0
C663 C 0.88308 0.14270 0.89870 0.0
H664 H 0.89599 0.20550 0.19995 0.0
H665 H 0.90328 0.23857 0.40595 0.0
H666 H 0.90939 0.24548 0.29209 0.0
H667 H 0.87328 0.15217 0.33545 0.0
H668 H 0.87009 0.12784 0.15375 0.0
H669 H 0.86279 0.09477 0.94775 0.0
H670 H 0.89280 0.18117 0.01825 0.0
H671 H 0.85669 0.08786 0.06161 0.0
Tb672 Tb 0.89820 0.69984 0.77400 0.0
C673 C 0.82036 0.56135 0.53482 0.0
N674 N 0.84458 0.57652 0.55968 0.0
C675 C 0.84137 0.53213 0.57563 0.0
C676 C 0.80653 0.53099 0.53143 0.0
C677 C 0.85459 0.56191 0.57849 0.0
C678 C 0.81773 0.51649 0.55460 0.0
C679 C 0.78463 0.56126 0.49042 0.0
C680 C 0.80949 0.57665 0.51408 0.0
C681 C 0.77093 0.53063 0.48686 0.0
C682 C 0.78116 0.51644 0.50610 0.0
Tb683 Tb 0.86786 0.63348 0.57961 0.0
N684 N 0.82367 0.60579 0.51796 0.0
C685 C 0.77464 0.57762 0.47213 0.0
C686 C 0.81312 0.61992 0.49912 0.0
C687 C 0.78845 0.60614 0.47585 0.0
H688 H 0.87096 0.57200 0.59407 0.0
H689 H 0.78188 0.61678 0.46318 0.0
H690 H 0.89510 0.76132 0.75955 0.0
H691 H 0.98418 0.71654 0.89044 0.0
H692 H 0.82257 0.63983 0.50152 0.0
H693 H 0.75830 0.56840 0.45743 0.0
H694 H 0.94349 0.69349 0.85209 0.0
H695 H 0.84913 0.52280 0.58865 0.0
H696 H 0.75458 0.52043 0.47079 0.0
H697 H 0.77171 0.49648 0.50328 0.0
H698 H 0.91693 0.81052 0.76496 0.0
H699 H 0.80897 0.49679 0.55522 0.0
H700 H 0.00776 0.76492 0.89619 0.0
N701 N 0.92148 0.75680 0.79394 0.0
C702 C 0.94570 0.77197 0.81879 0.0
C703 C 0.92470 0.80120 0.77799 0.0
C704 C 0.95953 0.80233 0.82218 0.0
C705 C 0.91147 0.77141 0.77513 0.0
C706 C 0.94834 0.81683 0.79901 0.0
N707 N 0.94239 0.72753 0.83566 0.0
C708 C 0.95294 0.71340 0.85449 0.0
C709 C 0.98144 0.77206 0.86320 0.0
C710 C 0.95657 0.75667 0.83953 0.0
C711 C 0.99142 0.75570 0.88148 0.0
C712 C 0.97761 0.72718 0.87776 0.0
H713 H 0.95709 0.83653 0.79839 0.0
H714 H 0.99435 0.83684 0.85033 0.0
H715 H 0.01148 0.81289 0.88283 0.0
O716 O 0.90019 0.68831 0.89339 0.0
O717 O 0.92058 0.71093 0.68356 0.0
O718 O 0.90651 0.67303 0.59036 0.0
O719 O 0.88860 0.71862 0.87708 0.0
O720 O 0.90223 0.66034 0.74787 0.0
O721 O 0.89103 0.62256 0.65956 0.0
O722 O 0.86587 0.64501 0.46022 0.0
O723 O 0.84549 0.62239 0.67005 0.0
O724 O 0.85955 0.66029 0.76326 0.0
O725 O 0.87746 0.61470 0.47653 0.0
O726 O 0.86383 0.67298 0.60575 0.0
O727 O 0.87504 0.71076 0.69405 0.0
C728 C 0.92243 0.69704 0.62963 0.0
C729 C 0.89117 0.70824 0.99309 0.0
C730 C 0.89375 0.69642 0.10907 0.0
C731 C 0.88869 0.71721 0.13571 0.0
C732 C 0.88594 0.72876 0.02069 0.0
C733 C 0.88449 0.73306 0.09225 0.0
C734 C 0.89472 0.69206 0.03719 0.0
C735 C 0.89888 0.63546 0.72437 0.0
C736 C 0.89355 0.70502 0.91680 0.0
C737 C 0.98490 0.81688 0.84751 0.0
C738 C 0.99514 0.80269 0.86675 0.0
C739 C 0.84363 0.63628 0.72399 0.0
C740 C 0.87489 0.62508 0.36053 0.0
C741 C 0.87231 0.63690 0.24455 0.0
C742 C 0.87737 0.61611 0.21790 0.0
C743 C 0.88013 0.60456 0.33293 0.0
C744 C 0.87134 0.64126 0.31642 0.0
C745 C 0.88157 0.60026 0.26137 0.0
C746 C 0.86718 0.69786 0.62925 0.0
C747 C 0.87252 0.62830 0.43682 0.0
H748 H 0.88814 0.72043 0.18380 0.0
H749 H 0.88344 0.73958 0.99114 0.0
H750 H 0.88076 0.74645 0.11046 0.0
H751 H 0.89779 0.67806 0.01849 0.0
H752 H 0.87792 0.61289 0.16981 0.0
H753 H 0.88262 0.59374 0.36247 0.0
H754 H 0.86827 0.65526 0.33513 0.0
H755 H 0.88530 0.58687 0.24316 0.0
H756 H 0.01464 0.51151 0.81888 0.0
H757 H 0.03187 0.45040 0.81287 0.0
H758 H 0.01343 0.50865 0.69652 0.0
H759 H 0.03212 0.44889 0.69155 0.0
H760 H 0.02787 0.44164 0.46217 0.0
H761 H 0.02909 0.44451 0.58452 0.0
H762 H 0.01040 0.50427 0.58949 0.0
H763 H 0.01064 0.50276 0.46817 0.0
C764 C 0.01779 0.49836 0.79282 0.0
C765 C 0.02299 0.48097 0.82779 0.0
C766 C 0.01714 0.49668 0.71977 0.0
C767 C 0.02189 0.47772 0.67983 0.0
C768 C 0.02799 0.46118 0.71671 0.0
C769 C 0.02819 0.46234 0.78938 0.0
C770 C 0.02472 0.45480 0.48822 0.0
C771 C 0.01952 0.47219 0.45325 0.0
C772 C 0.02537 0.45648 0.56127 0.0
C773 C 0.02063 0.47544 0.60121 0.0
C774 C 0.01452 0.49198 0.56434 0.0
C775 C 0.01432 0.49082 0.49166 0.0
H776 H 0.62679 0.51339 0.76539 0.0
H777 H 0.55562 0.47432 0.71604 0.0
H778 H 0.62729 0.51281 0.64449 0.0
H779 H 0.55599 0.47208 0.59462 0.0
H780 H 0.55707 0.47324 0.37004 0.0
H781 H 0.55656 0.47382 0.49094 0.0
H782 H 0.62786 0.51455 0.54081 0.0
H783 H 0.62823 0.51231 0.41939 0.0
C784 C 0.61239 0.50545 0.73092 0.0
C785 C 0.59126 0.49437 0.75292 0.0
C786 C 0.61265 0.50499 0.65864 0.0
C787 C 0.59174 0.49323 0.60630 0.0
C788 C 0.57052 0.48115 0.62925 0.0
C789 C 0.57021 0.48208 0.70159 0.0
C790 C 0.57146 0.48118 0.40451 0.0
C791 C 0.59259 0.49226 0.38251 0.0
C792 C 0.57120 0.48164 0.47679 0.0
C793 C 0.59211 0.49340 0.52913 0.0
C794 C 0.61333 0.50548 0.50618 0.0
C795 C 0.61364 0.50455 0.43384 0.0
H796 H 0.60444 0.11517 0.71579 0.0
H797 H 0.55085 0.03046 0.64899 0.0
H798 H 0.60398 0.11906 0.59662 0.0
H799 H 0.55140 0.03387 0.52982 0.0
H800 H 0.54911 0.04172 0.30777 0.0
H801 H 0.54957 0.03783 0.42693 0.0
H802 H 0.60215 0.12303 0.49374 0.0
H803 H 0.60270 0.12643 0.37457 0.0
C804 C 0.59334 0.09873 0.67807 0.0
C805 C 0.57750 0.07265 0.69431 0.0
C806 C 0.59308 0.10098 0.60684 0.0
C807 C 0.57709 0.07712 0.54989 0.0
C808 C 0.56187 0.05069 0.56737 0.0
C809 C 0.56173 0.04848 0.63847 0.0
C810 C 0.56021 0.05816 0.34548 0.0
C811 C 0.57605 0.08425 0.32924 0.0
C812 C 0.56047 0.05591 0.41671 0.0
C813 C 0.57646 0.07978 0.47367 0.0
C814 C 0.59168 0.10620 0.45619 0.0
C815 C 0.59182 0.10841 0.38508 0.0
H816 H 0.73967 0.88733 0.54397 0.0
H817 H 0.74601 0.81715 0.53153 0.0
H818 H 0.74086 0.89036 0.66635 0.0
H819 H 0.74569 0.81908 0.65290 0.0
H820 H 0.74996 0.82619 0.88227 0.0
H821 H 0.74877 0.82316 0.75989 0.0
H822 H 0.74394 0.89444 0.77334 0.0
H823 H 0.74362 0.89637 0.89472 0.0
C824 C 0.74133 0.87373 0.56627 0.0
C825 C 0.74309 0.85230 0.52584 0.0
C826 C 0.74196 0.87545 0.63932 0.0
C827 C 0.74419 0.85560 0.67381 0.0
C828 C 0.74502 0.83346 0.63150 0.0
C829 C 0.74488 0.83201 0.55878 0.0
C830 C 0.74830 0.83979 0.85998 0.0
C831 C 0.74654 0.86122 0.90040 0.0
C832 C 0.74767 0.83807 0.78692 0.0
C833 C 0.74544 0.85792 0.75243 0.0
C834 C 0.74461 0.88006 0.79475 0.0
C835 C 0.74475 0.88151 0.86746 0.0
H836 H 0.19531 0.82151 0.61897 0.0
H837 H 0.15560 0.85747 0.60748 0.0
H838 H 0.19456 0.82208 0.73974 0.0
H839 H 0.15612 0.85973 0.72938 0.0
H840 H 0.15297 0.85852 0.95282 0.0
H841 H 0.15372 0.85794 0.83206 0.0
H842 H 0.19215 0.82029 0.84241 0.0
H843 H 0.19267 0.82256 0.96432 0.0
C844 C 0.18696 0.82881 0.64096 0.0
C845 C 0.17526 0.83897 0.60094 0.0
C846 C 0.18655 0.82926 0.71316 0.0
C847 C 0.17458 0.84011 0.74746 0.0
C848 C 0.16366 0.85129 0.70687 0.0
C849 C 0.16361 0.85034 0.63433 0.0
C850 C 0.16132 0.85121 0.93084 0.0
C851 C 0.17302 0.84106 0.97085 0.0
C852 C 0.16172 0.85076 0.85864 0.0
C853 C 0.17369 0.83992 0.82434 0.0
C854 C 0.18461 0.82874 0.86493 0.0
C855 C 0.18467 0.82968 0.93747 0.0
H856 H 0.19437 0.22675 0.65240 0.0
H857 H 0.18608 0.29523 0.69176 0.0
H858 H 0.19392 0.22261 0.77116 0.0
H859 H 0.18713 0.29225 0.81164 0.0
H860 H 0.18421 0.28302 0.03138 0.0
H861 H 0.18467 0.28716 0.91262 0.0
H862 H 0.19146 0.21752 0.87214 0.0
H863 H 0.19251 0.21454 0.99202 0.0
C864 C 0.19247 0.23978 0.68435 0.0
C865 C 0.18991 0.26104 0.65994 0.0
C866 C 0.19226 0.23740 0.75537 0.0
C867 C 0.18969 0.25640 0.80409 0.0
C868 C 0.18805 0.27841 0.77914 0.0
C869 C 0.18775 0.28051 0.70784 0.0
C870 C 0.18612 0.27000 0.99990 0.0
C871 C 0.18868 0.24873 0.02384 0.0
C872 C 0.18632 0.27237 0.92841 0.0
C873 C 0.18890 0.25337 0.87969 0.0
C874 C 0.19054 0.23137 0.90464 0.0
C875 C 0.19083 0.22927 0.97594 0.0
H876 H 0.32510 0.15420 0.22888 0.0
H877 H 0.35481 0.11031 0.29488 0.0
H878 H 0.35529 0.17842 0.16995 0.0
H879 H 0.38578 0.13589 0.23976 0.0
H880 H 0.44097 0.17914 0.12481 0.0
H881 H 0.41078 0.15492 0.18374 0.0
H882 H 0.38029 0.19745 0.11392 0.0
H883 H 0.41127 0.22303 0.05880 0.0
C884 C 0.33720 0.15004 0.23010 0.0
C885 C 0.33672 0.12956 0.26671 0.0
C886 C 0.35529 0.16456 0.19512 0.0
C887 C 0.37351 0.15914 0.19632 0.0
C888 C 0.37320 0.13923 0.23587 0.0
C889 C 0.35491 0.12423 0.26970 0.0
C890 C 0.42887 0.18330 0.12359 0.0
C891 C 0.42935 0.20378 0.08697 0.0
C892 C 0.41078 0.16879 0.15856 0.0
C893 C 0.39256 0.17420 0.15736 0.0
C894 C 0.39287 0.19411 0.11781 0.0
C895 C 0.41116 0.20911 0.08398 0.0
H896 H 0.87491 0.19091 0.36508 0.0
H897 H 0.86855 0.11298 0.30509 0.0
H898 H 0.88300 0.20132 0.25480 0.0
H899 H 0.87811 0.12420 0.19665 0.0
H900 H 0.89117 0.14243 0.98862 0.0
H901 H 0.88308 0.13202 0.09890 0.0
H902 H 0.88797 0.20914 0.15705 0.0
H903 H 0.89753 0.22036 0.04861 0.0
C904 C 0.87513 0.17706 0.33039 0.0
C905 C 0.87056 0.15079 0.34566 0.0
C906 C 0.88003 0.18328 0.26457 0.0
C907 C 0.88069 0.16347 0.21243 0.0
C908 C 0.87694 0.13758 0.22996 0.0
C909 C 0.87156 0.13100 0.29508 0.0
C910 C 0.89095 0.15628 0.02331 0.0
C911 C 0.89552 0.18255 0.00805 0.0
C912 C 0.88605 0.15006 0.08913 0.0
C913 C 0.88538 0.16987 0.14128 0.0
C914 C 0.88914 0.19575 0.12374 0.0
C915 C 0.89452 0.20234 0.05862 0.0
H916 H 0.85193 0.58658 0.20163 0.0
H917 H 0.85401 0.65034 0.34132 0.0
H918 H 0.87276 0.62018 0.13514 0.0
H919 H 0.87353 0.68352 0.27228 0.0
H920 H 0.91414 0.74674 0.15198 0.0
H921 H 0.89331 0.71314 0.21847 0.0
H922 H 0.89253 0.64980 0.08134 0.0
H923 H 0.91205 0.68298 0.01229 0.0
C924 C 0.85667 0.60641 0.21687 0.0
C925 C 0.85122 0.61515 0.27858 0.0
C926 C 0.86905 0.62649 0.17710 0.0
C927 C 0.87615 0.65585 0.19766 0.0
C928 C 0.86969 0.66399 0.25851 0.0
C929 C 0.85774 0.64413 0.29928 0.0
C930 C 0.90939 0.72691 0.13674 0.0
C931 C 0.91484 0.71817 0.07504 0.0
C932 C 0.89701 0.70683 0.17651 0.0
C933 C 0.88991 0.67747 0.15595 0.0
C934 C 0.89638 0.66933 0.09511 0.0
C935 C 0.90833 0.68919 0.05434 0.0
H936 H 0.14126 0.29332 0.40929 0.0
H937 H 0.16263 0.31508 0.22755 0.0
H938 H 0.12152 0.31800 0.40266 0.0
H939 H 0.14415 0.34131 0.22349 0.0
H940 H 0.10569 0.38521 0.20750 0.0
H941 H 0.12542 0.36052 0.21413 0.0
H942 H 0.10280 0.33722 0.39330 0.0
H943 H 0.08432 0.36345 0.38924 0.0
C944 C 0.14152 0.30262 0.37069 0.0
C945 C 0.15357 0.30133 0.31863 0.0
C946 C 0.12981 0.31745 0.36675 0.0
C947 C 0.12999 0.33162 0.31093 0.0
C948 C 0.14301 0.33102 0.26051 0.0
C949 C 0.15435 0.31572 0.26336 0.0
C950 C 0.10543 0.37591 0.24610 0.0
C951 C 0.09338 0.37719 0.29816 0.0
C952 C 0.11714 0.36107 0.25004 0.0
C953 C 0.11696 0.34690 0.30586 0.0
C954 C 0.10394 0.34751 0.35628 0.0
C955 C 0.09260 0.36280 0.35343 0.0
H956 H 0.66492 0.60929 0.21332 0.0
H957 H 0.62148 0.59648 0.02805 0.0
H958 H 0.68426 0.65963 0.22478 0.0
H959 H 0.64179 0.64675 0.03720 0.0
H960 H 0.67645 0.74063 0.06160 0.0
H961 H 0.65712 0.69029 0.05013 0.0
H962 H 0.69959 0.70317 0.23771 0.0
H963 H 0.71990 0.75344 0.24686 0.0
C964 C 0.65990 0.61687 0.17806 0.0
C965 C 0.64108 0.59791 0.12033 0.0
C966 C 0.67147 0.64693 0.18469 0.0
C967 C 0.66466 0.65885 0.13340 0.0
C968 C 0.64624 0.63932 0.07413 0.0
C969 C 0.63429 0.60928 0.06799 0.0
C970 C 0.68148 0.73305 0.09685 0.0
C971 C 0.70029 0.75201 0.15458 0.0
C972 C 0.66990 0.70299 0.09022 0.0
C973 C 0.67671 0.69107 0.14152 0.0
C974 C 0.69514 0.71060 0.20078 0.0
C975 C 0.70708 0.74064 0.20692 0.0
H976 H 0.43703 0.96761 0.16144 0.0
H977 H 0.41961 0.01654 0.05881 0.0
H978 H 0.39914 0.94184 0.18233 0.0
H979 H 0.38220 0.99200 0.08369 0.0
H980 H 0.31091 0.94235 0.11707 0.0
H981 H 0.34881 0.96812 0.09619 0.0
H982 H 0.36575 0.91796 0.19482 0.0
H983 H 0.32834 0.89342 0.21971 0.0
C984 C 0.42578 0.97227 0.14442 0.0
C985 C 0.43199 0.99427 0.10716 0.0
C986 C 0.40315 0.95697 0.15703 0.0
C987 C 0.38617 0.96343 0.13323 0.0
C988 C 0.39308 0.98645 0.09819 0.0
C989 C 0.41551 0.00142 0.08415 0.0
C990 C 0.32217 0.93769 0.13410 0.0
C991 C 0.31596 0.91569 0.17136 0.0
C992 C 0.34479 0.95300 0.12148 0.0
C993 C 0.36177 0.94653 0.14529 0.0
C994 C 0.35487 0.92351 0.18032 0.0
C995 C 0.33243 0.90854 0.19437 0.0
H996 H 0.49991 0.08163 0.96719 0.0
H997 H 0.55005 0.15893 0.93429 0.0
H998 H 0.47050 0.08792 0.91187 0.0
H999 H 0.52066 0.16606 0.88306 0.0
H1000 H 0.46586 0.17668 0.77436 0.0
H1001 H 0.49527 0.17039 0.82969 0.0
H1002 H 0.44510 0.09225 0.85850 0.0
H1003 H 0.41572 0.09938 0.80727 0.0
C1004 C 0.50418 0.09859 0.94896 0.0
C1005 C 0.52784 0.11936 0.95525 0.0
C1006 C 0.48664 0.10243 0.91609 0.0
C1007 C 0.49230 0.12729 0.88915 0.0
C1008 C 0.51629 0.14850 0.89851 0.0
C1009 C 0.53388 0.14450 0.93000 0.0
C1010 C 0.46159 0.15972 0.79260 0.0
C1011 C 0.43793 0.13895 0.78631 0.0
C1012 C 0.47913 0.15588 0.82547 0.0
C1013 C 0.47347 0.13102 0.85241 0.0
C1014 C 0.44948 0.10981 0.84304 0.0
C1015 C 0.43188 0.11381 0.81156 0.0
H1016 H 0.91193 0.23276 0.89926 0.0
H1017 H 0.93191 0.27346 0.73682 0.0
H1018 H 0.93204 0.27789 0.98068 0.0
H1019 H 0.95325 0.31849 0.81891 0.0
H1020 H 0.98904 0.40273 0.96958 0.0
H1021 H 0.96893 0.35760 0.88816 0.0
H1022 H 0.94773 0.31700 0.04993 0.0
H1023 H 0.96906 0.36203 0.13202 0.0
C1024 C 0.91997 0.25020 0.88256 0.0
C1025 C 0.91959 0.24861 0.80995 0.0
C1026 C 0.93205 0.27717 0.93114 0.0
C1027 C 0.94426 0.30330 0.90848 0.0
C1028 C 0.94442 0.30118 0.83543 0.0
C1029 C 0.93197 0.27430 0.78642 0.0
C1030 C 0.98100 0.38530 0.98628 0.0
C1031 C 0.98138 0.38689 0.05889 0.0
C1032 C 0.96892 0.35832 0.93770 0.0
C1033 C 0.95671 0.33220 0.96036 0.0
C1034 C 0.95655 0.33432 0.03341 0.0
C1035 C 0.96900 0.36119 0.08242 0.0
H1036 H 0.83530 0.60143 0.79638 0.0
H1037 H 0.80998 0.64794 0.71787 0.0
H1038 H 0.80539 0.58258 0.85910 0.0
H1039 H 0.78098 0.63051 0.78420 0.0
H1040 H 0.72398 0.59347 0.89609 0.0
H1041 H 0.75389 0.61232 0.83336 0.0
H1042 H 0.77830 0.56440 0.90827 0.0
H1043 H 0.74930 0.54697 0.97460 0.0
C1044 C 0.82401 0.60698 0.79276 0.0
C1045 C 0.82541 0.62615 0.75007 0.0
C1046 C 0.80617 0.59582 0.83037 0.0
C1047 C 0.78936 0.60372 0.82676 0.0
C1048 C 0.79163 0.62395 0.78560 0.0
C1049 C 0.80913 0.63472 0.74674 0.0
C1050 C 0.73527 0.58792 0.89970 0.0
C1051 C 0.73386 0.56875 0.94240 0.0
C1052 C 0.75311 0.59909 0.86210 0.0
C1053 C 0.76992 0.59119 0.86571 0.0
C1054 C 0.76765 0.57095 0.90686 0.0
C1055 C 0.75015 0.56019 0.94572 0.0
H1056 H 0.91152 0.65429 0.85208 0.0
H1057 H 0.89603 0.59190 0.67892 0.0
H1058 H 0.92875 0.63563 0.92345 0.0
H1059 H 0.91192 0.57215 0.75127 0.0
H1060 H 0.94584 0.53886 0.88281 0.0
H1061 H 0.92861 0.55751 0.81144 0.0
H1062 H 0.94544 0.62099 0.98362 0.0
H1063 H 0.96134 0.60124 0.05597 0.0
C1064 C 0.91196 0.63789 0.83114 0.0
C1065 C 0.90241 0.62529 0.75835 0.0
C1066 C 0.92218 0.62666 0.87373 0.0
C1067 C 0.92295 0.60235 0.84476 0.0
C1068 C 0.91241 0.58928 0.77182 0.0
C1069 C 0.90260 0.60078 0.72869 0.0
C1070 C 0.94541 0.55525 0.90375 0.0
C1071 C 0.95495 0.56785 0.97654 0.0
C1072 C 0.93519 0.56649 0.86116 0.0
C1073 C 0.93441 0.59079 0.89013 0.0
C1074 C 0.94495 0.60386 0.96307 0.0
C1075 C 0.95476 0.59237 0.00620 0.0
H1076 H 0.55699 0.37657 0.97307 0.0
H1077 H 0.51376 0.40629 0.99990 0.0
H1078 H 0.52447 0.33115 0.91053 0.0
H1079 H 0.48111 0.36032 0.94105 0.0
H1080 H 0.42067 0.27648 0.81913 0.0
H1081 H 0.45319 0.32190 0.88168 0.0
H1082 H 0.49655 0.29273 0.85116 0.0
H1083 H 0.46390 0.24676 0.79257 0.0
C1084 C 0.54161 0.37349 0.96551 0.0
C1085 C 0.53869 0.39605 0.99155 0.0
C1086 C 0.52215 0.34635 0.92836 0.0
C1087 C 0.49921 0.34096 0.91676 0.0
C1088 C 0.49655 0.36366 0.94587 0.0
C1089 C 0.51598 0.39101 0.98176 0.0
C1090 C 0.43605 0.27956 0.82670 0.0
C1091 C 0.43897 0.25700 0.80066 0.0
C1092 C 0.45551 0.30670 0.86385 0.0
C1093 C 0.47845 0.31209 0.87544 0.0
C1094 C 0.48111 0.28939 0.84634 0.0
C1095 C 0.46168 0.26204 0.81044 0.0
H1096 H 0.80307 0.11294 0.76934 0.0
H1097 H 0.83124 0.19698 0.75410 0.0
H1098 H 0.77314 0.11393 0.81545 0.0
H1099 H 0.80217 0.19852 0.80445 0.0
H1100 H 0.74526 0.19968 0.88456 0.0
H1101 H 0.77519 0.19869 0.83845 0.0
H1102 H 0.74616 0.11409 0.84946 0.0
H1103 H 0.71709 0.11563 0.89981 0.0
C1104 C 0.80269 0.13022 0.77521 0.0
C1105 C 0.81988 0.15463 0.75608 0.0
C1106 C 0.78487 0.13089 0.80296 0.0
C1107 C 0.78388 0.15609 0.81290 0.0
C1108 C 0.80191 0.18082 0.79587 0.0
C1109 C 0.81949 0.18009 0.76675 0.0
C1110 C 0.74564 0.18239 0.87870 0.0
C1111 C 0.72844 0.15799 0.89782 0.0
C1112 C 0.76346 0.18172 0.85094 0.0
C1113 C 0.76445 0.15653 0.84101 0.0
C1114 C 0.74642 0.13180 0.85803 0.0
C1115 C 0.72884 0.13253 0.88715 0.0
H1116 H 0.64449 0.06674 0.09861 0.0
H1117 H 0.58485 0.99301 0.98040 0.0
H1118 H 0.66396 0.04170 0.10316 0.0
H1119 H 0.60389 0.96754 0.98883 0.0
H1120 H 0.64071 0.92141 0.99192 0.0
H1121 H 0.62124 0.94646 0.98737 0.0
H1122 H 0.68130 0.02061 0.10170 0.0
H1123 H 0.70035 0.99515 0.11013 0.0
C1124 C 0.63630 0.04668 0.07511 0.0
C1125 C 0.61291 0.03256 0.03821 0.0
C1126 C 0.64788 0.03166 0.07796 0.0
C1127 C 0.63630 0.00201 0.04444 0.0
C1128 C 0.61244 0.98789 0.00986 0.0
C1129 C 0.60092 0.00294 0.00560 0.0
C1130 C 0.64889 0.94147 0.01542 0.0
C1131 C 0.67229 0.95560 0.05232 0.0
C1132 C 0.63731 0.95649 0.01257 0.0
C1133 C 0.64890 0.98614 0.04609 0.0
C1134 C 0.67276 0.00010 0.08067 0.0
C1135 C 0.68428 0.98522 0.08493 0.0
H1136 H 0.15469 0.73425 0.26555 0.0
H1137 H 0.09188 0.72680 0.20227 0.0
H1138 H 0.13520 0.68388 0.25374 0.0
H1139 H 0.07231 0.67668 0.19485 0.0
H1140 H 0.03607 0.58250 0.16679 0.0
H1141 H 0.05556 0.63287 0.17860 0.0
H1142 H 0.11845 0.64007 0.23749 0.0
H1143 H 0.09888 0.58994 0.23007 0.0
C1144 C 0.13795 0.72252 0.24990 0.0
C1145 C 0.12531 0.73548 0.23405 0.0
C1146 C 0.12627 0.69244 0.24303 0.0
C1147 C 0.10160 0.67452 0.22067 0.0
C1148 C 0.08911 0.68815 0.20762 0.0
C1149 C 0.10072 0.71813 0.21299 0.0
C1150 C 0.05281 0.59422 0.18244 0.0
C1151 C 0.06545 0.58126 0.19829 0.0
C1152 C 0.06449 0.62430 0.18931 0.0
C1153 C 0.08916 0.64222 0.21167 0.0
C1154 C 0.10165 0.62859 0.22472 0.0
C1155 C 0.09003 0.59861 0.21935 0.0
H1156 H 0.44058 0.44516 0.15502 0.0
H1157 H 0.45079 0.38181 0.20311 0.0
H1158 H 0.40307 0.42052 0.17912 0.0
H1159 H 0.41270 0.35626 0.22279 0.0
H1160 H 0.34361 0.31154 0.27374 0.0
H1161 H 0.38112 0.33618 0.24965 0.0
H1162 H 0.37148 0.40044 0.20598 0.0
H1163 H 0.33340 0.37489 0.22566 0.0
C1164 C 0.43512 0.42734 0.17006 0.0
C1165 C 0.44955 0.41623 0.17772 0.0
C1166 C 0.41269 0.41254 0.18426 0.0
C1167 C 0.40400 0.38608 0.20595 0.0
C1168 C 0.41847 0.37468 0.21067 0.0
C1169 C 0.44109 0.38968 0.19797 0.0
C1170 C 0.34907 0.32936 0.25870 0.0
C1171 C 0.33464 0.34047 0.25104 0.0
C1172 C 0.37150 0.34416 0.24450 0.0
C1173 C 0.38019 0.37062 0.22281 0.0
C1174 C 0.36572 0.38202 0.21809 0.0
C1175 C 0.34310 0.36702 0.23080 0.0
H1176 H 0.89259 0.73438 0.56387 0.0
H1177 H 0.82900 0.68173 0.60747 0.0
H1178 H 0.87621 0.75428 0.49389 0.0
H1179 H 0.81231 0.70032 0.53382 0.0
H1180 H 0.78218 0.73913 0.40849 0.0
H1181 H 0.79856 0.71924 0.47847 0.0
H1182 H 0.86246 0.77319 0.43854 0.0
H1183 H 0.84577 0.79178 0.36489 0.0
C1184 C 0.87634 0.72778 0.55891 0.0
C1185 C 0.86257 0.70646 0.59350 0.0
C1186 C 0.86650 0.73957 0.51694 0.0
C1187 C 0.84257 0.73018 0.50796 0.0
C1188 C 0.82878 0.70786 0.54105 0.0
C1189 C 0.83862 0.69642 0.58424 0.0
C1190 C 0.79843 0.74573 0.41345 0.0
C1191 C 0.81219 0.76705 0.37886 0.0
C1192 C 0.80826 0.73394 0.45542 0.0
C1193 C 0.83220 0.74334 0.46440 0.0
C1194 C 0.84599 0.76566 0.43131 0.0
C1195 C 0.83615 0.77710 0.38812 0.0
H1196 H 0.34032 0.05278 0.58394 0.0
H1197 H 0.30660 0.09130 0.51080 0.0
H1198 H 0.30797 0.00718 0.52169 0.0
H1199 H 0.27367 0.04555 0.45228 0.0
H1200 H 0.21415 0.96084 0.33116 0.0
H1201 H 0.24651 0.00643 0.39341 0.0
H1202 H 0.28081 0.96807 0.46282 0.0
H1203 H 0.24788 0.92232 0.40429 0.0
C1204 C 0.32695 0.05142 0.55613 0.0
C1205 C 0.32686 0.07657 0.55271 0.0
C1206 C 0.30757 0.02420 0.51909 0.0
C1207 C 0.28749 0.02137 0.47807 0.0
C1208 C 0.28738 0.04690 0.47756 0.0
C1209 C 0.30689 0.07422 0.51329 0.0
C1210 C 0.22752 0.96219 0.35896 0.0
C1211 C 0.22761 0.93705 0.36239 0.0
C1212 C 0.24690 0.98942 0.39601 0.0
C1213 C 0.26698 0.99225 0.43703 0.0
C1214 C 0.26709 0.96672 0.43753 0.0
C1215 C 0.24759 0.93940 0.40181 0.0
H1216 H 0.94619 0.14772 0.64699 0.0
H1217 H 0.95153 0.20850 0.53743 0.0
H1218 H 0.97613 0.14678 0.60083 0.0
H1219 H 0.98042 0.20618 0.48774 0.0
H1220 H 0.03763 0.20634 0.40648 0.0
H1221 H 0.00769 0.20728 0.45264 0.0
H1222 H 0.00340 0.14788 0.56573 0.0
H1223 H 0.03229 0.14556 0.51605 0.0
C1224 C 0.95342 0.16003 0.61562 0.0
C1225 C 0.94614 0.17848 0.59781 0.0
C1226 C 0.97125 0.15943 0.58780 0.0
C1227 C 0.98216 0.17711 0.54092 0.0
C1228 C 0.97393 0.19473 0.52144 0.0
C1229 C 0.95645 0.19586 0.55022 0.0
C1230 C 0.03040 0.19403 0.43786 0.0
C1231 C 0.03768 0.17558 0.45566 0.0
C1232 C 0.01257 0.19462 0.46567 0.0
C1233 C 0.00166 0.17695 0.51256 0.0
C1234 C 0.00989 0.15933 0.53203 0.0
C1235 C 0.02737 0.15820 0.50325 0.0
H1236 H 0.35007 0.23125 0.53639 0.0
H1237 H 0.29981 0.15583 0.57697 0.0
H1238 H 0.32091 0.23859 0.48432 0.0
H1239 H 0.27057 0.16225 0.52083 0.0
H1240 H 0.21631 0.17711 0.42940 0.0
H1241 H 0.24547 0.16978 0.48147 0.0
H1242 H 0.29581 0.24612 0.44497 0.0
H1243 H 0.26657 0.25254 0.38882 0.0
C1244 C 0.33393 0.21744 0.53447 0.0
C1245 C 0.32791 0.19312 0.56284 0.0
C1246 C 0.31648 0.22173 0.50318 0.0
C1247 C 0.29250 0.20168 0.49889 0.0
C1248 C 0.28674 0.17673 0.52532 0.0
C1249 C 0.30414 0.17263 0.55796 0.0
C1250 C 0.23244 0.19093 0.43132 0.0
C1251 C 0.23846 0.21524 0.40295 0.0
C1252 C 0.24990 0.18663 0.46261 0.0
C1253 C 0.27388 0.20668 0.46691 0.0
C1254 C 0.27964 0.23163 0.44048 0.0
C1255 C 0.26224 0.23574 0.40784 0.0
H1256 H 0.75756 0.95436 0.28215 0.0
H1257 H 0.81387 0.94616 0.32881 0.0
H1258 H 0.77835 0.99990 0.36204 0.0
H1259 H 0.83408 0.99085 0.41204 0.0
H1260 H 0.87361 0.07682 0.55636 0.0
H1261 H 0.85283 0.03129 0.47647 0.0
H1262 H 0.79709 0.04033 0.42647 0.0
H1263 H 0.81731 0.08503 0.50970 0.0
C1264 C 0.77329 0.96197 0.30754 0.0
C1265 C 0.78373 0.94595 0.29665 0.0
C1266 C 0.78571 0.98912 0.35546 0.0
C1267 C 0.80885 0.00010 0.39425 0.0
C1268 C 0.81873 0.98389 0.38456 0.0
C1269 C 0.80658 0.95700 0.33565 0.0
C1270 C 0.85789 0.06921 0.53097 0.0
C1271 C 0.84745 0.08523 0.54186 0.0
C1272 C 0.84547 0.04206 0.48305 0.0
C1273 C 0.82233 0.03029 0.44426 0.0
C1274 C 0.81245 0.04729 0.45395 0.0
C1275 C 0.82460 0.07418 0.50286 0.0
H1276 H 0.96863 0.72286 0.69021 0.0
H1277 H 0.91914 0.69420 0.50601 0.0
H1278 H 0.99835 0.74176 0.62679 0.0
H1279 H 0.94878 0.71147 0.44194 0.0
H1280 H 0.00421 0.74888 0.32454 0.0
H1281 H 0.97450 0.72998 0.38796 0.0
H1282 H 0.02406 0.76026 0.57282 0.0
H1283 H 0.05371 0.77754 0.50875 0.0
C1284 C 0.96456 0.72097 0.63989 0.0
C1285 C 0.94100 0.70709 0.60479 0.0
C1286 C 0.98228 0.73216 0.60187 0.0
C1287 C 0.97690 0.72956 0.52755 0.0
C1288 C 0.95299 0.71448 0.49270 0.0
C1289 C 0.93523 0.70378 0.53066 0.0
C1290 C 0.00829 0.75077 0.37486 0.0
C1291 C 0.03184 0.76465 0.40997 0.0
C1292 C 0.99057 0.73958 0.41289 0.0
C1293 C 0.99594 0.74218 0.48721 0.0
C1294 C 0.01985 0.75725 0.52206 0.0
C1295 C 0.03761 0.76796 0.48410 0.0
loop_
_geom_bond_atom_site_label_1
_geom_bond_atom_site_label_2
_geom_bond_distance
_geom_bond_site_symmetry_2
_ccdc_geom_bond_type
Tb0 N29 2.617 . S
Tb0 N35 2.572 . S
Tb0 O44 2.465 . S
Tb0 O45 2.387 . S
Tb0 O47 2.428 . S
Tb0 O48 2.308 1_655 S
Tb0 O52 2.349 1_655 S
Tb0 O55 2.393 1_655 S
Tb0 C64 2.802 . S
C1 N2 1.379 . S
C1 C4 1.416 . S
C1 C8 1.424 . S
N2 C1 1.379 . S
N2 C5 1.334 . S
N2 Tb11 2.617 . S
C3 C5 1.390 . S
C3 C6 1.339 . S
C3 H23 0.930 1_554 S
C4 C1 1.416 . S
C4 C6 1.416 . S
C4 C10 1.448 . S
C5 N2 1.334 . S
C5 C3 1.390 . S
C5 H16 0.930 1_554 S
C6 C3 1.339 . S
C6 C4 1.416 . S
C6 H27 0.930 . S
C7 C8 1.413 . S
C7 C9 1.427 . S
C7 C13 1.416 . S
C8 C1 1.424 . S
C8 C7 1.413 . S
C8 N12 1.361 . S
C9 C7 1.427 . S
C9 C10 1.328 . S
C9 H24 0.929 . S
C10 C4 1.448 . S
C10 C9 1.328 . S
C10 H25 0.930 . S
Tb11 N2 2.617 . S
Tb11 N12 2.572 . S
Tb11 O46 2.349 . S
Tb11 O49 2.393 . S
Tb11 O50 2.465 . S
Tb11 O51 2.387 . S
Tb11 O53 2.428 . S
Tb11 O54 2.308 . S
Tb11 C75 2.802 . S
N12 C8 1.361 . S
N12 Tb11 2.572 . S
N12 C14 1.340 . S
C13 C7 1.416 . S
C13 C15 1.332 . S
C13 H21 0.931 . S
C14 N12 1.340 . S
C14 C15 1.407 . S
C14 H20 0.930 . S
C15 C13 1.332 . S
C15 C14 1.407 . S
C15 H17 0.929 . S
H16 C5 0.930 1_556 S
H17 C15 0.929 . S
H18 C33 0.930 . S
H19 C40 0.929 . S
H20 C14 0.930 . S
H21 C13 0.931 . S
H22 C36 0.930 . S
H23 C3 0.930 1_556 S
H24 C9 0.929 . S
H25 C10 0.930 . S
H26 C31 0.930 . S
H27 C6 0.930 . S
H28 C39 0.931 . S
N29 Tb0 2.617 . S
N29 C30 1.379 . S
N29 C33 1.334 . S
C30 N29 1.379 . S
C30 C32 1.416 . S
C30 C38 1.424 . S
C31 H26 0.930 . S
C31 C33 1.390 . S
C31 C34 1.339 . S
C32 C30 1.416 . S
C32 C34 1.416 . S
C32 C65 1.448 . S
C33 H18 0.930 . S
C33 N29 1.334 . S
C33 C31 1.390 . S
C34 C31 1.339 . S
C34 C32 1.416 . S
C34 H41 0.930 . S
N35 Tb0 2.572 . S
N35 C36 1.340 1_554 S
N35 C38 1.361 . S
C36 H22 0.930 . S
C36 N35 1.340 1_556 S
C36 C40 1.407 . S
C37 C38 1.413 . S
C37 C39 1.416 1_554 S
C37 C66 1.427 . S
C38 C30 1.424 . S
C38 N35 1.361 . S
C38 C37 1.413 . S
C39 H28 0.931 . S
C39 C37 1.416 1_556 S
C39 C40 1.332 . S
C40 H19 0.929 . S
C40 C36 1.407 . S
C40 C39 1.332 . S
H41 C34 0.930 . S
H42 C65 0.930 . S
H43 C66 0.929 1_556 S
O44 Tb0 2.465 . S
O44 C64 1.264 . S
O45 Tb0 2.387 . S
O45 C56 1.264 . S
O46 Tb11 2.349 . S
O46 C56 1.243 1_455 S
O47 Tb0 2.428 . S
O47 C64 1.256 . S
O48 Tb0 2.308 1_455 S
O48 C63 1.266 . S
O49 Tb11 2.393 . S
O49 C63 1.248 . S
O50 Tb11 2.465 . S
O50 C75 1.264 . S
O51 Tb11 2.387 . S
O51 C67 1.264 . S
O52 Tb0 2.349 1_455 S
O52 C67 1.243 . S
O53 Tb11 2.428 . S
O53 C75 1.256 . S
O54 Tb11 2.308 . S
O54 C74 1.266 . S
O55 Tb0 2.393 1_455 S
O55 C74 1.248 . S
C56 O45 1.264 . S
C56 O46 1.243 1_655 S
C57 C60 1.399 . S
C57 C62 1.383 . S
C57 C64 1.496 . S
C58 C59 1.399 . S
C58 C62 1.389 . S
C59 C58 1.399 . S
C59 C61 1.380 . S
C59 H76 0.929 . S
C60 C57 1.399 . S
C60 C61 1.392 . S
C60 H77 0.929 . S
C61 C59 1.380 . S
C61 C60 1.392 . S
C61 H78 0.929 . S
C62 C57 1.383 . S
C62 C58 1.389 . S
C62 H79 0.931 1_554 S
C63 O48 1.266 . S
C63 O49 1.248 . S
C64 Tb0 2.802 . S
C64 O44 1.264 . S
C64 O47 1.256 . S
C64 C57 1.496 . S
C65 C32 1.448 . S
C65 H42 0.930 . S
C65 C66 1.328 . S
C66 C37 1.427 . S
C66 H43 0.929 1_554 S
C66 C65 1.328 . S
C67 O51 1.264 . S
C67 O52 1.243 . S
C68 C71 1.399 . S
C68 C72 1.383 . S
C68 C75 1.496 . S
C69 C70 1.399 . S
C69 C72 1.389 . S
C70 C69 1.399 . S
C70 C73 1.380 . S
C70 H80 0.929 . S
C71 C68 1.399 . S
C71 C73 1.392 . S
C71 H81 0.929 . S
C72 C68 1.383 . S
C72 C69 1.389 . S
C72 H82 0.931 . S
C73 C70 1.380 . S
C73 C71 1.392 . S
C73 H83 0.929 . S
C74 O54 1.266 . S
C74 O55 1.248 . S
C75 Tb11 2.802 . S
C75 O50 1.264 . S
C75 O53 1.256 . S
C75 C68 1.496 . S
H76 C59 0.929 . S
H77 C60 0.929 . S
H78 C61 0.929 . S
H79 C62 0.931 1_556 S
H80 C70 0.929 . S
H81 C71 0.929 . S
H82 C72 0.931 . S
H83 C73 0.929 . S
Tb84 N113 2.617 1_554 S
Tb84 N119 2.572 . S
Tb84 O128 2.465 . S
Tb84 O129 2.387 . S
Tb84 O131 2.428 . S
Tb84 O132 2.308 . S
Tb84 O136 2.349 . S
Tb84 O139 2.393 1_554 S
Tb84 C148 2.802 . S
C85 N86 1.379 . S
C85 C88 1.416 . S
C85 C92 1.424 . S
N86 C85 1.379 . S
N86 C89 1.334 . S
N86 Tb95 2.617 . S
C87 C89 1.390 . S
C87 C90 1.339 . S
C87 H107 0.930 . S
C88 C85 1.416 . S
C88 C90 1.416 . S
C88 C94 1.448 . S
C89 N86 1.334 . S
C89 C87 1.390 . S
C89 H100 0.930 . S
C90 C87 1.339 . S
C90 C88 1.416 . S
C90 H111 0.930 . S
C91 C92 1.413 1_556 S
C91 C93 1.427 1_556 S
C91 C97 1.416 . S
C92 C85 1.424 . S
C92 C91 1.413 1_554 S
C92 N96 1.361 1_554 S
C93 C91 1.427 1_554 S
C93 C94 1.328 . S
C93 H108 0.929 1_554 S
C94 C88 1.448 . S
C94 C93 1.328 . S
C94 H109 0.930 . S
Tb95 N86 2.617 . S
Tb95 N96 2.572 1_554 S
Tb95 O130 2.349 . S
Tb95 O133 2.393 . S
Tb95 O134 2.465 . S
Tb95 O135 2.387 . S
Tb95 O137 2.428 . S
Tb95 O138 2.308 1_554 S
Tb95 C159 2.802 . S
N96 C92 1.361 1_556 S
N96 Tb95 2.572 1_556 S
N96 C98 1.340 . S
C97 C91 1.416 . S
C97 C99 1.332 . S
C97 H105 0.931 . S
C98 N96 1.340 . S
C98 C99 1.407 . S
C98 H104 0.930 . S
C99 C97 1.332 . S
C99 C98 1.407 . S
C99 H101 0.929 . S
H100 C89 0.930 . S
H101 C99 0.929 . S
H102 C117 0.930 . S
H103 C124 0.929 . S
H104 C98 0.930 . S
H105 C97 0.931 . S
H106 C120 0.930 . S
H107 C87 0.930 . S
H108 C93 0.929 1_556 S
H109 C94 0.930 . S
H110 C115 0.930 . S
H111 C90 0.930 . S
H112 C123 0.931 . S
N113 Tb84 2.617 1_556 S
N113 C114 1.379 1_556 S
N113 C117 1.334 . S
C114 N113 1.379 1_554 S
C114 C116 1.416 . S
C114 C122 1.424 . S
C115 H110 0.930 . S
C115 C117 1.390 . S
C115 C118 1.339 . S
C116 C114 1.416 . S
C116 C118 1.416 1_554 S
C116 C149 1.448 . S
C117 H102 0.930 . S
C117 N113 1.334 . S
C117 C115 1.390 . S
C118 C115 1.339 . S
C118 C116 1.416 1_556 S
C118 H125 0.930 . S
N119 Tb84 2.572 . S
N119 C120 1.340 . S
N119 C122 1.361 . S
C120 H106 0.930 . S
C120 N119 1.340 . S
C120 C124 1.407 . S
C121 C122 1.413 . S
C121 C123 1.416 . S
C121 C150 1.427 . S
C122 C114 1.424 . S
C122 N119 1.361 . S
C122 C121 1.413 . S
C123 H112 0.931 . S
C123 C121 1.416 . S
C123 C124 1.332 . S
C124 H103 0.929 . S
C124 C120 1.407 . S
C124 C123 1.332 . S
H125 C118 0.930 . S
H126 C149 0.930 . S
H127 C150 0.929 . S
O128 Tb84 2.465 . S
O128 C148 1.264 . S
O129 Tb84 2.387 . S
O129 C140 1.264 . S
O130 Tb95 2.349 . S
O130 C140 1.243 . S
O131 Tb84 2.428 . S
O131 C148 1.256 . S
O132 Tb84 2.308 . S
O132 C147 1.266 . S
O133 Tb95 2.393 . S
O133 C147 1.248 . S
O134 Tb95 2.465 . S
O134 C159 1.264 . S
O135 Tb95 2.387 . S
O135 C151 1.264 . S
O136 Tb84 2.349 . S
O136 C151 1.243 . S
O137 Tb95 2.428 . S
O137 C159 1.256 . S
O138 Tb95 2.308 1_556 S
O138 C158 1.266 . S
O139 Tb84 2.393 1_556 S
O139 C158 1.248 . S
C140 O129 1.264 . S
C140 O130 1.243 . S
C141 C144 1.399 . S
C141 C146 1.383 . S
C141 C148 1.496 . S
C142 C143 1.399 . S
C142 C146 1.389 . S
C143 C142 1.399 . S
C143 C145 1.380 . S
C143 H160 0.929 . S
C144 C141 1.399 . S
C144 C145 1.392 . S
C144 H161 0.929 1_554 S
C145 C143 1.380 . S
C145 C144 1.392 . S
C145 H162 0.929 1_554 S
C146 C141 1.383 . S
C146 C142 1.389 . S
C146 H163 0.931 . S
C147 O132 1.266 . S
C147 O133 1.248 . S
C148 Tb84 2.802 . S
C148 O128 1.264 . S
C148 O131 1.256 . S
C148 C141 1.496 . S
C149 C116 1.448 . S
C149 H126 0.930 . S
C149 C150 1.328 . S
C150 C121 1.427 . S
C150 H127 0.929 . S
C150 C149 1.328 . S
C151 O135 1.264 . S
C151 O136 1.243 . S
C152 C155 1.399 . S
C152 C156 1.383 1_554 S
C152 C159 1.496 . S
C153 C154 1.399 1_556 S
C153 C156 1.389 . S
C154 C153 1.399 1_554 S
C154 C157 1.380 . S
C154 H164 0.929 . S
C155 C152 1.399 . S
C155 C157 1.392 . S
C155 H165 0.929 . S
C156 C152 1.383 1_556 S
C156 C153 1.389 . S
C156 H166 0.931 . S
C157 C154 1.380 . S
C157 C155 1.392 . S
C157 H167 0.929 . S
C158 O138 1.266 . S
C158 O139 1.248 . S
C159 Tb95 2.802 . S
C159 O134 1.264 . S
C159 O137 1.256 . S
C159 C152 1.496 . S
H160 C143 0.929 . S
H161 C144 0.929 1_556 S
H162 C145 0.929 1_556 S
H163 C146 0.931 . S
H164 C154 0.929 . S
H165 C155 0.929 . S
H166 C156 0.931 . S
H167 C157 0.929 . S
Tb168 N197 2.617 . S
Tb168 N203 2.572 1_554 S
Tb168 O212 2.465 1_554 S
Tb168 O213 2.387 . S
Tb168 O215 2.428 . S
Tb168 O216 2.308 1_554 S
Tb168 O220 2.349 . S
Tb168 O223 2.393 . S
Tb168 C232 2.802 . S
C169 N170 1.379 . S
C169 C172 1.416 . S
C169 C176 1.424 1_556 S
N170 C169 1.379 . S
N170 C173 1.334 . S
N170 Tb179 2.617 1_565 S
C171 C173 1.390 . S
C171 C174 1.339 . S
C171 H191 0.930 . S
C172 C169 1.416 . S
C172 C174 1.416 . S
C172 C178 1.448 . S
C173 N170 1.334 . S
C173 C171 1.390 . S
C173 H184 0.970 . S
C174 C171 1.339 . S
C174 C172 1.416 . S
C174 H195 0.930 . S
C175 C176 1.413 . S
C175 C177 1.427 1_554 S
C175 C181 1.416 . S
C176 C169 1.424 1_554 S
C176 C175 1.413 . S
C176 N180 1.361 . S
C177 C175 1.427 1_556 S
C177 C178 1.328 . S
C177 H192 0.929 1_556 S
C178 C172 1.448 . S
C178 C177 1.328 . S
C178 H193 0.930 . S
Tb179 N170 2.617 1_545 S
Tb179 N180 2.572 1_546 S
Tb179 O214 2.349 . S
Tb179 O217 2.393 . S
Tb179 O218 2.465 1_556 S
Tb179 O219 2.387 . S
Tb179 O221 2.428 . S
Tb179 O222 2.308 1_556 S
Tb179 C243 2.802 . S
N180 C176 1.361 . S
N180 Tb179 2.572 1_564 S
N180 C182 1.340 . S
C181 C175 1.416 . S
C181 C183 1.332 . S
C181 H189 0.931 . S
C182 N180 1.340 . S
C182 C183 1.407 . S
C182 H188 0.930 1_565 S
C183 C181 1.332 . S
C183 C182 1.407 . S
C183 H185 0.929 . S
H184 C173 0.970 . S
H185 C183 0.929 . S
H186 C201 0.930 . S
H187 C208 0.929 . S
H188 C182 0.930 1_545 S
H189 C181 0.931 . S
H190 C204 0.930 . S
H191 C171 0.930 . S
H192 C177 0.929 1_554 S
H193 C178 0.930 . S
H194 C199 0.930 . S
H195 C174 0.930 . S
H196 C207 0.931 . S
N197 Tb168 2.617 . S
N197 C198 1.379 . S
N197 C201 1.334 . S
C198 N197 1.379 . S
C198 C200 1.416 . S
C198 C206 1.424 . S
C199 H194 0.930 . S
C199 C201 1.390 . S
C199 C202 1.339 . S
C200 C198 1.416 . S
C200 C202 1.416 . S
C200 C233 1.448 . S
C201 H186 0.930 . S
C201 N197 1.334 . S
C201 C199 1.390 . S
C202 C199 1.339 . S
C202 C200 1.416 . S
C202 H209 0.930 . S
N203 Tb168 2.572 1_556 S
N203 C204 1.340 . S
N203 C206 1.361 1_556 S
C204 H190 0.930 . S
C204 N203 1.340 . S
C204 C208 1.407 . S
C205 C206 1.413 1_556 S
C205 C207 1.416 . S
C205 C234 1.427 1_556 S
C206 C198 1.424 . S
C206 N203 1.361 1_554 S
C206 C205 1.413 1_554 S
C207 H196 0.931 . S
C207 C205 1.416 . S
C207 C208 1.332 . S
C208 H187 0.929 . S
C208 C204 1.407 . S
C208 C207 1.332 . S
H209 C202 0.930 . S
H210 C233 0.930 . S
H211 C234 0.929 . S
O212 Tb168 2.465 1_556 S
O212 C232 1.264 1_556 S
O213 Tb168 2.387 . S
O213 C224 1.265 . S
O214 Tb179 2.349 . S
O214 C224 1.244 1_556 S
O215 Tb168 2.428 . S
O215 C232 1.256 . S
O216 Tb168 2.308 1_556 S
O216 C231 1.266 . S
O217 Tb179 2.393 . S
O217 C231 1.248 . S
O218 Tb179 2.465 1_554 S
O218 C243 1.264 1_554 S
O219 Tb179 2.387 . S
O219 C235 1.264 1_556 S
O220 Tb168 2.349 . S
O220 C235 1.243 . S
O221 Tb179 2.428 . S
O221 C243 1.256 . S
O222 Tb179 2.308 1_554 S
O222 C242 1.266 . S
O223 Tb168 2.393 . S
O223 C242 1.248 . S
C224 O213 1.265 . S
C224 O214 1.244 1_554 S
C225 C228 1.399 . S
C225 C230 1.383 1_554 S
C225 C232 1.496 . S
C226 C227 1.399 1_556 S
C226 C230 1.389 . S
C227 C226 1.399 1_554 S
C227 C229 1.380 . S
C227 H244 0.929 . S
C228 C225 1.399 . S
C228 C229 1.392 . S
C228 H245 0.929 . S
C229 C227 1.380 . S
C229 C228 1.392 . S
C229 H246 0.929 . S
C230 C225 1.383 1_556 S
C230 C226 1.389 . S
C230 H247 0.931 . S
C231 O216 1.266 . S
C231 O217 1.248 . S
C232 Tb168 2.802 . S
C232 O212 1.264 1_554 S
C232 O215 1.256 . S
C232 C225 1.496 . S
C233 C200 1.448 . S
C233 H210 0.930 . S
C233 C234 1.328 . S
C234 C205 1.427 1_554 S
C234 H211 0.929 . S
C234 C233 1.328 . S
C235 O219 1.264 1_554 S
C235 O220 1.243 . S
C236 C239 1.399 1_545 S
C236 C240 1.383 1_556 S
C236 C243 1.496 . S
C237 C238 1.399 . S
C237 C240 1.389 1_565 S
C238 C237 1.399 . S
C238 C241 1.380 1_554 S
C238 H248 0.929 . S
C239 C236 1.399 1_565 S
C239 C241 1.392 . S
C239 H249 0.929 . S
C240 C236 1.383 1_554 S
C240 C237 1.389 1_545 S
C240 H250 0.931 . S
C241 C238 1.380 1_556 S
C241 C239 1.392 . S
C241 H251 0.929 . S
C242 O222 1.266 . S
C242 O223 1.248 . S
C243 Tb179 2.802 . S
C243 O218 1.264 1_556 S
C243 O221 1.256 . S
C243 C236 1.496 . S
H244 C227 0.929 . S
H245 C228 0.929 . S
H246 C229 0.929 . S
H247 C230 0.931 . S
H248 C238 0.929 . S
H249 C239 0.929 . S
H250 C240 0.931 . S
H251 C241 0.929 . S
Tb252 N281 2.617 . S
Tb252 N287 2.572 . S
Tb252 O296 2.465 . S
Tb252 O297 2.387 . S
Tb252 O299 2.428 . S
Tb252 O300 2.308 . S
Tb252 O304 2.349 . S
Tb252 O307 2.393 . S
Tb252 C316 2.802 . S
C253 N254 1.379 . S
C253 C256 1.416 . S
C253 C260 1.424 . S
N254 C253 1.379 . S
N254 C257 1.334 . S
N254 Tb263 2.617 . S
C255 C257 1.390 . S
C255 C258 1.339 . S
C255 H275 0.930 . S
C256 C253 1.416 . S
C256 C258 1.416 . S
C256 C262 1.448 . S
C257 N254 1.334 . S
C257 C255 1.390 . S
C257 H268 0.930 . S
C258 C255 1.339 . S
C258 C256 1.416 . S
C258 H279 0.930 . S
C259 C260 1.413 . S
C259 C261 1.427 . S
C259 C265 1.416 . S
C260 C253 1.424 . S
C260 C259 1.413 . S
C260 N264 1.361 . S
C261 C259 1.427 . S
C261 C262 1.328 . S
C261 H276 0.929 . S
C262 C256 1.448 . S
C262 C261 1.328 . S
C262 H277 0.930 . S
Tb263 N254 2.617 . S
Tb263 N264 2.572 . S
Tb263 O298 2.349 . S
Tb263 O301 2.393 . S
Tb263 O302 2.465 . S
Tb263 O303 2.387 . S
Tb263 O305 2.428 . S
Tb263 O306 2.308 . S
Tb263 C327 2.802 . S
N264 C260 1.361 . S
N264 Tb263 2.572 . S
N264 C266 1.340 . S
C265 C259 1.416 . S
C265 C267 1.332 . S
C265 H273 0.931 . S
C266 N264 1.340 . S
C266 C267 1.407 . S
C266 H272 0.930 . S
C267 C265 1.332 . S
C267 C266 1.407 . S
C267 H269 0.929 . S
H268 C257 0.930 . S
H269 C267 0.929 . S
H270 C285 0.930 . S
H271 C292 0.929 . S
H272 C266 0.930 . S
H273 C265 0.931 . S
H274 C288 0.930 . S
H275 C255 0.930 . S
H276 C261 0.929 . S
H277 C262 0.930 . S
H278 C283 0.930 . S
H279 C258 0.930 . S
H280 C291 0.931 1_556 S
N281 Tb252 2.617 . S
N281 C282 1.379 . S
N281 C285 1.334 . S
C282 N281 1.379 . S
C282 C284 1.416 . S
C282 C290 1.424 . S
C283 H278 0.930 . S
C283 C285 1.390 . S
C283 C286 1.339 . S
C284 C282 1.416 . S
C284 C286 1.416 . S
C284 C317 1.448 . S
C285 H270 0.930 . S
C285 N281 1.334 . S
C285 C283 1.390 . S
C286 C283 1.339 . S
C286 C284 1.416 . S
C286 H293 0.930 . S
N287 Tb252 2.572 . S
N287 C288 1.340 . S
N287 C290 1.361 . S
C288 H274 0.930 . S
C288 N287 1.340 . S
C288 C292 1.407 1_554 S
C289 C290 1.413 . S
C289 C291 1.416 . S
C289 C318 1.427 . S
C290 C282 1.424 . S
C290 N287 1.361 . S
C290 C289 1.413 . S
C291 H280 0.931 1_554 S
C291 C289 1.416 . S
C291 C292 1.332 1_554 S
C292 H271 0.929 . S
C292 C288 1.407 1_556 S
C292 C291 1.332 1_556 S
H293 C286 0.930 . S
H294 C317 0.930 . S
H295 C318 0.929 . S
O296 Tb252 2.465 . S
O296 C316 1.264 . S
O297 Tb252 2.387 . S
O297 C308 1.264 . S
O298 Tb263 2.349 . S
O298 C308 1.243 . S
O299 Tb252 2.428 . S
O299 C316 1.256 . S
O300 Tb252 2.308 . S
O300 C315 1.266 . S
O301 Tb263 2.393 . S
O301 C315 1.248 . S
O302 Tb263 2.465 . S
O302 C327 1.264 . S
O303 Tb263 2.387 . S
O303 C319 1.264 . S
O304 Tb252 2.349 . S
O304 C319 1.243 . S
O305 Tb263 2.428 . S
O305 C327 1.256 . S
O306 Tb263 2.308 . S
O306 C326 1.266 . S
O307 Tb252 2.393 . S
O307 C326 1.248 . S
C308 O297 1.264 . S
C308 O298 1.243 . S
C309 C312 1.399 . S
C309 C314 1.383 . S
C309 C316 1.496 . S
C310 C311 1.399 . S
C310 C314 1.389 . S
C311 C310 1.399 . S
C311 C313 1.380 . S
C311 H328 0.929 . S
C312 C309 1.399 . S
C312 C313 1.392 . S
C312 H329 0.929 . S
C313 C311 1.380 . S
C313 C312 1.392 . S
C313 H330 0.929 . S
C314 C309 1.383 . S
C314 C310 1.389 . S
C314 H331 0.931 . S
C315 O300 1.266 . S
C315 O301 1.248 . S
C316 Tb252 2.802 . S
C316 O296 1.264 . S
C316 O299 1.256 . S
C316 C309 1.496 . S
C317 C284 1.448 . S
C317 H294 0.930 . S
C317 C318 1.328 . S
C318 C289 1.427 . S
C318 H295 0.929 . S
C318 C317 1.328 . S
C319 O303 1.264 . S
C319 O304 1.243 . S
C320 C323 1.399 . S
C320 C324 1.383 . S
C320 C327 1.496 . S
C321 C322 1.399 . S
C321 C324 1.389 . S
C322 C321 1.399 . S
C322 C325 1.380 . S
C322 H332 0.929 . S
C323 C320 1.399 . S
C323 C325 1.392 . S
C323 H333 0.929 . S
C324 C320 1.383 . S
C324 C321 1.389 . S
C324 H334 0.931 . S
C325 C322 1.380 . S
C325 C323 1.392 . S
C325 H335 0.929 . S
C326 O306 1.266 . S
C326 O307 1.248 . S
C327 Tb263 2.802 . S
C327 O302 1.264 . S
C327 O305 1.256 . S
C327 C320 1.496 . S
H328 C311 0.929 . S
H329 C312 0.929 . S
H330 C313 0.929 . S
H331 C314 0.931 . S
H332 C322 0.929 . S
H333 C323 0.929 . S
H334 C324 0.931 . S
H335 C325 0.929 . S
Tb336 N365 2.617 . S
Tb336 N371 2.572 . S
Tb336 O380 2.465 . S
Tb336 O381 2.387 . S
Tb336 O383 2.428 . S
Tb336 O384 2.308 . S
Tb336 O388 2.349 . S
Tb336 O391 2.393 . S
Tb336 C400 2.802 . S
C337 N338 1.379 . S
C337 C340 1.416 . S
C337 C344 1.424 . S
N338 C337 1.379 . S
N338 C341 1.334 . S
N338 Tb347 2.617 . S
C339 C341 1.390 . S
C339 C342 1.339 . S
C339 H359 0.930 . S
C340 C337 1.416 . S
C340 C342 1.416 . S
C340 C346 1.448 . S
C341 N338 1.334 . S
C341 C339 1.390 . S
C341 H352 0.930 . S
C342 C339 1.339 . S
C342 C340 1.416 . S
C342 H363 0.930 . S
C343 C344 1.413 . S
C343 C345 1.427 . S
C343 C349 1.416 . S
C344 C337 1.424 . S
C344 C343 1.413 . S
C344 N348 1.361 . S
C345 C343 1.427 . S
C345 C346 1.328 . S
C345 H360 0.929 . S
C346 C340 1.448 . S
C346 C345 1.328 . S
C346 H361 0.930 . S
Tb347 N338 2.617 . S
Tb347 N348 2.572 . S
Tb347 O382 2.349 . S
Tb347 O385 2.393 . S
Tb347 O386 2.465 . S
Tb347 O387 2.387 . S
Tb347 O389 2.428 . S
Tb347 O390 2.308 . S
Tb347 C411 2.802 . S
N348 C344 1.361 . S
N348 Tb347 2.572 . S
N348 C350 1.340 . S
C349 C343 1.416 . S
C349 C351 1.332 . S
C349 H357 0.931 . S
C350 N348 1.340 . S
C350 C351 1.407 . S
C350 H356 0.930 . S
C351 C349 1.332 . S
C351 C350 1.407 . S
C351 H353 0.929 . S
H352 C341 0.930 . S
H353 C351 0.929 . S
H354 C369 0.930 . S
H355 C376 0.929 . S
H356 C350 0.930 . S
H357 C349 0.931 . S
H358 C372 0.930 . S
H359 C339 0.930 . S
H360 C345 0.929 . S
H361 C346 0.930 . S
H362 C367 0.930 . S
H363 C342 0.930 . S
H364 C375 0.931 . S
N365 Tb336 2.617 . S
N365 C366 1.379 . S
N365 C369 1.334 . S
C366 N365 1.379 . S
C366 C368 1.416 . S
C366 C374 1.424 . S
C367 H362 0.930 . S
C367 C369 1.390 . S
C367 C370 1.339 . S
C368 C366 1.416 . S
C368 C370 1.416 . S
C368 C401 1.448 . S
C369 H354 0.930 . S
C369 N365 1.334 . S
C369 C367 1.390 . S
C370 C367 1.339 . S
C370 C368 1.416 . S
C370 H377 0.930 . S
N371 Tb336 2.572 . S
N371 C372 1.340 . S
N371 C374 1.361 . S
C372 H358 0.930 . S
C372 N371 1.340 . S
C372 C376 1.407 . S
C373 C374 1.413 . S
C373 C375 1.416 . S
C373 C402 1.427 . S
C374 C366 1.424 . S
C374 N371 1.361 . S
C374 C373 1.413 . S
C375 H364 0.931 . S
C375 C373 1.416 . S
C375 C376 1.332 . S
C376 H355 0.929 . S
C376 C372 1.407 . S
C376 C375 1.332 . S
H377 C370 0.930 . S
H378 C401 0.930 . S
H379 C402 0.929 . S
O380 Tb336 2.465 . S
O380 C400 1.264 . S
O381 Tb336 2.387 . S
O381 C392 1.264 . S
O382 Tb347 2.349 . S
O382 C392 1.243 . S
O383 Tb336 2.428 . S
O383 C400 1.256 . S
O384 Tb336 2.308 . S
O384 C399 1.266 . S
O385 Tb347 2.393 . S
O385 C399 1.248 . S
O386 Tb347 2.465 . S
O386 C411 1.264 . S
O387 Tb347 2.387 . S
O387 C403 1.264 . S
O388 Tb336 2.349 . S
O388 C403 1.243 . S
O389 Tb347 2.428 . S
O389 C411 1.256 . S
O390 Tb347 2.308 . S
O390 C410 1.266 . S
O391 Tb336 2.393 . S
O391 C410 1.248 . S
C392 O381 1.264 . S
C392 O382 1.243 . S
C393 C396 1.399 . S
C393 C398 1.383 . S
C393 C400 1.496 . S
C394 C395 1.399 . S
C394 C398 1.389 . S
C395 C394 1.399 . S
C395 C397 1.380 . S
C395 H412 0.929 . S
C396 C393 1.399 . S
C396 C397 1.392 . S
C396 H413 0.929 . S
C397 C395 1.380 . S
C397 C396 1.392 . S
C397 H414 0.929 . S
C398 C393 1.383 . S
C398 C394 1.389 . S
C398 H415 0.931 . S
C399 O384 1.266 . S
C399 O385 1.248 . S
C400 Tb336 2.802 . S
C400 O380 1.264 . S
C400 O383 1.256 . S
C400 C393 1.496 . S
C401 C368 1.448 . S
C401 H378 0.930 . S
C401 C402 1.328 . S
C402 C373 1.427 . S
C402 H379 0.929 . S
C402 C401 1.328 . S
C403 O387 1.264 . S
C403 O388 1.243 . S
C404 C407 1.399 . S
C404 C408 1.383 . S
C404 C411 1.496 . S
C405 C406 1.399 . S
C405 C408 1.389 . S
C406 C405 1.399 . S
C406 C409 1.380 . S
C406 H416 0.929 . S
C407 C404 1.399 . S
C407 C409 1.392 . S
C407 H417 0.929 . S
C408 C404 1.383 . S
C408 C405 1.389 . S
C408 H418 0.931 . S
C409 C406 1.380 . S
C409 C407 1.392 . S
C409 H419 0.929 . S
C410 O390 1.266 . S
C410 O391 1.248 . S
C411 Tb347 2.802 . S
C411 O386 1.264 . S
C411 O389 1.256 . S
C411 C404 1.496 . S
H412 C395 0.929 . S
H413 C396 0.929 . S
H414 C397 0.929 . S
H415 C398 0.931 . S
H416 C406 0.929 . S
H417 C407 0.929 . S
H418 C408 0.931 . S
H419 C409 0.929 . S
Tb420 N449 2.617 . S
Tb420 N455 2.572 . S
Tb420 O464 2.465 . S
Tb420 O465 2.387 . S
Tb420 O467 2.428 . S
Tb420 O468 2.308 . S
Tb420 O472 2.349 . S
Tb420 O475 2.393 . S
Tb420 C484 2.802 . S
C421 N422 1.379 . S
C421 C424 1.416 . S
C421 C428 1.424 . S
N422 C421 1.379 . S
N422 C425 1.334 . S
N422 Tb431 2.617 . S
C423 C425 1.390 . S
C423 C426 1.339 . S
C423 H443 0.930 . S
C424 C421 1.416 . S
C424 C426 1.416 . S
C424 C430 1.448 . S
C425 N422 1.334 . S
C425 C423 1.390 . S
C425 H436 0.930 . S
C426 C423 1.339 . S
C426 C424 1.416 . S
C426 H447 0.930 . S
C427 C428 1.413 . S
C427 C429 1.427 . S
C427 C433 1.416 . S
C428 C421 1.424 . S
C428 C427 1.413 . S
C428 N432 1.361 . S
C429 C427 1.427 . S
C429 C430 1.328 . S
C429 H444 0.929 . S
C430 C424 1.448 . S
C430 C429 1.328 . S
C430 H445 0.930 . S
Tb431 N422 2.617 . S
Tb431 N432 2.572 . S
Tb431 O466 2.349 . S
Tb431 O469 2.393 . S
Tb431 O470 2.465 . S
Tb431 O471 2.387 . S
Tb431 O473 2.428 . S
Tb431 O474 2.308 . S
Tb431 C495 2.802 . S
N432 C428 1.361 . S
N432 Tb431 2.572 . S
N432 C434 1.340 . S
C433 C427 1.416 . S
C433 C435 1.332 . S
C433 H441 0.931 . S
C434 N432 1.340 . S
C434 C435 1.407 . S
C434 H440 0.930 . S
C435 C433 1.332 . S
C435 C434 1.407 . S
C435 H437 0.929 . S
H436 C425 0.930 . S
H437 C435 0.929 . S
H438 C453 0.930 . S
H439 C460 0.929 . S
H440 C434 0.930 . S
H441 C433 0.931 . S
H442 C456 0.930 . S
H443 C423 0.930 . S
H444 C429 0.929 . S
H445 C430 0.930 . S
H446 C451 0.930 . S
H447 C426 0.930 . S
H448 C459 0.931 . S
N449 Tb420 2.617 . S
N449 C450 1.379 . S
N449 C453 1.334 . S
C450 N449 1.379 . S
C450 C452 1.416 . S
C450 C458 1.424 . S
C451 H446 0.930 . S
C451 C453 1.390 . S
C451 C454 1.339 . S
C452 C450 1.416 . S
C452 C454 1.416 . S
C452 C485 1.448 . S
C453 H438 0.930 . S
C453 N449 1.334 . S
C453 C451 1.390 . S
C454 C451 1.339 . S
C454 C452 1.416 . S
C454 H461 0.930 . S
N455 Tb420 2.572 . S
N455 C456 1.340 . S
N455 C458 1.361 . S
C456 H442 0.930 . S
C456 N455 1.340 . S
C456 C460 1.407 . S
C457 C458 1.413 . S
C457 C459 1.416 . S
C457 C486 1.427 . S
C458 C450 1.424 . S
C458 N455 1.361 . S
C458 C457 1.413 . S
C459 H448 0.931 . S
C459 C457 1.416 . S
C459 C460 1.332 . S
C460 H439 0.929 . S
C460 C456 1.407 . S
C460 C459 1.332 . S
H461 C454 0.930 . S
H462 C485 0.930 . S
H463 C486 0.929 . S
O464 Tb420 2.465 . S
O464 C484 1.264 . S
O465 Tb420 2.387 . S
O465 C476 1.264 . S
O466 Tb431 2.349 . S
O466 C476 1.243 . S
O467 Tb420 2.428 . S
O467 C484 1.256 . S
O468 Tb420 2.308 . S
O468 C483 1.266 . S
O469 Tb431 2.393 . S
O469 C483 1.248 . S
O470 Tb431 2.465 . S
O470 C495 1.264 . S
O471 Tb431 2.387 . S
O471 C487 1.264 . S
O472 Tb420 2.349 . S
O472 C487 1.243 . S
O473 Tb431 2.428 . S
O473 C495 1.256 . S
O474 Tb431 2.308 . S
O474 C494 1.266 . S
O475 Tb420 2.393 . S
O475 C494 1.248 . S
C476 O465 1.264 . S
C476 O466 1.243 . S
C477 C480 1.399 . S
C477 C482 1.383 . S
C477 C484 1.496 . S
C478 C479 1.399 . S
C478 C482 1.389 . S
C479 C478 1.399 . S
C479 C481 1.380 . S
C479 H496 0.929 . S
C480 C477 1.399 . S
C480 C481 1.392 . S
C480 H497 0.929 . S
C481 C479 1.380 . S
C481 C480 1.392 . S
C481 H498 0.929 . S
C482 C477 1.383 . S
C482 C478 1.389 . S
C482 H499 0.931 . S
C483 O468 1.266 . S
C483 O469 1.248 . S
C484 Tb420 2.802 . S
C484 O464 1.264 . S
C484 O467 1.256 . S
C484 C477 1.496 . S
C485 C452 1.448 . S
C485 H462 0.930 . S
C485 C486 1.328 . S
C486 C457 1.427 . S
C486 H463 0.929 . S
C486 C485 1.328 . S
C487 O471 1.264 . S
C487 O472 1.243 . S
C488 C491 1.399 . S
C488 C492 1.383 . S
C488 C495 1.496 . S
C489 C490 1.399 . S
C489 C492 1.389 . S
C490 C489 1.399 . S
C490 C493 1.380 . S
C490 H500 0.929 . S
C491 C488 1.399 . S
C491 C493 1.392 . S
C491 H501 0.929 . S
C492 C488 1.383 . S
C492 C489 1.389 . S
C492 H502 0.931 . S
C493 C490 1.380 . S
C493 C491 1.392 . S
C493 H503 0.929 . S
C494 O474 1.266 . S
C494 O475 1.248 . S
C495 Tb431 2.802 . S
C495 O470 1.264 . S
C495 O473 1.256 . S
C495 C488 1.496 . S
H496 C479 0.929 . S
H497 C480 0.929 . S
H498 C481 0.929 . S
H499 C482 0.931 . S
H500 C490 0.929 . S
H501 C491 0.929 . S
H502 C492 0.931 . S
H503 C493 0.929 . S
Tb504 N533 2.617 . S
Tb504 N539 2.572 . S
Tb504 O548 2.465 . S
Tb504 O549 2.387 . S
Tb504 O551 2.428 . S
Tb504 O552 2.308 . S
Tb504 O556 2.349 . S
Tb504 O559 2.393 . S
Tb504 C568 2.802 . S
C505 N506 1.379 . S
C505 C508 1.416 . S
C505 C512 1.424 . S
N506 C505 1.379 . S
N506 C509 1.334 . S
N506 Tb515 2.617 . S
C507 C509 1.390 . S
C507 C510 1.339 . S
C507 H527 0.930 . S
C508 C505 1.416 . S
C508 C510 1.416 . S
C508 C514 1.448 . S
C509 N506 1.334 . S
C509 C507 1.390 . S
C509 H520 0.930 . S
C510 C507 1.339 . S
C510 C508 1.416 . S
C510 H531 0.930 . S
C511 C512 1.413 . S
C511 C513 1.427 . S
C511 C517 1.416 . S
C512 C505 1.424 . S
C512 C511 1.413 . S
C512 N516 1.361 . S
C513 C511 1.427 . S
C513 C514 1.328 . S
C513 H528 0.929 . S
C514 C508 1.448 . S
C514 C513 1.328 . S
C514 H529 0.930 . S
Tb515 N506 2.617 . S
Tb515 N516 2.572 . S
Tb515 O550 2.349 . S
Tb515 O553 2.393 . S
Tb515 O554 2.465 . S
Tb515 O555 2.387 . S
Tb515 O557 2.428 . S
Tb515 O558 2.308 . S
Tb515 C579 2.802 . S
N516 C512 1.361 . S
N516 Tb515 2.572 . S
N516 C518 1.340 . S
C517 C511 1.416 . S
C517 C519 1.332 . S
C517 H525 0.931 . S
C518 N516 1.340 . S
C518 C519 1.407 . S
C518 H524 0.930 . S
C519 C517 1.332 . S
C519 C518 1.407 . S
C519 H521 0.929 . S
H520 C509 0.930 . S
H521 C519 0.929 . S
H522 C537 0.930 . S
H523 C544 0.929 . S
H524 C518 0.930 . S
H525 C517 0.931 . S
H526 C540 0.930 . S
H527 C507 0.930 . S
H528 C513 0.929 . S
H529 C514 0.930 . S
H530 C535 0.930 . S
H531 C510 0.930 . S
H532 C543 0.931 . S
N533 Tb504 2.617 . S
N533 C534 1.379 . S
N533 C537 1.334 . S
C534 N533 1.379 . S
C534 C536 1.416 . S
C534 C542 1.424 . S
C535 H530 0.930 . S
C535 C537 1.390 . S
C535 C538 1.339 . S
C536 C534 1.416 . S
C536 C538 1.416 . S
C536 C569 1.448 . S
C537 H522 0.930 . S
C537 N533 1.334 . S
C537 C535 1.390 . S
C538 C535 1.339 . S
C538 C536 1.416 . S
C538 H545 0.930 . S
N539 Tb504 2.572 . S
N539 C540 1.340 . S
N539 C542 1.361 . S
C540 H526 0.930 . S
C540 N539 1.340 . S
C540 C544 1.407 . S
C541 C542 1.413 . S
C541 C543 1.416 . S
C541 C570 1.427 . S
C542 C534 1.424 . S
C542 N539 1.361 . S
C542 C541 1.413 . S
C543 H532 0.931 . S
C543 C541 1.416 . S
C543 C544 1.332 . S
C544 H523 0.929 . S
C544 C540 1.407 . S
C544 C543 1.332 . S
H545 C538 0.930 . S
H546 C569 0.930 . S
H547 C570 0.929 . S
O548 Tb504 2.465 . S
O548 C568 1.264 . S
O549 Tb504 2.387 . S
O549 C560 1.264 . S
O550 Tb515 2.349 . S
O550 C560 1.243 . S
O551 Tb504 2.428 . S
O551 C568 1.256 . S
O552 Tb504 2.308 . S
O552 C567 1.266 . S
O553 Tb515 2.393 . S
O553 C567 1.248 . S
O554 Tb515 2.465 . S
O554 C579 1.264 . S
O555 Tb515 2.387 . S
O555 C571 1.264 . S
O556 Tb504 2.349 . S
O556 C571 1.243 . S
O557 Tb515 2.428 . S
O557 C579 1.256 . S
O558 Tb515 2.308 . S
O558 C578 1.266 . S
O559 Tb504 2.393 . S
O559 C578 1.248 . S
C560 O549 1.264 . S
C560 O550 1.243 . S
C561 C564 1.399 . S
C561 C566 1.383 1_556 S
C561 C568 1.496 . S
C562 C563 1.399 . S
C562 C566 1.389 . S
C563 C562 1.399 . S
C563 C565 1.380 . S
C563 H580 0.929 . S
C564 C561 1.399 . S
C564 C565 1.392 1_556 S
C564 H581 0.929 . S
C565 C563 1.380 . S
C565 C564 1.392 1_554 S
C565 H582 0.929 . S
C566 C561 1.383 1_554 S
C566 C562 1.389 . S
C566 H583 0.931 . S
C567 O552 1.266 . S
C567 O553 1.248 . S
C568 Tb504 2.802 . S
C568 O548 1.264 . S
C568 O551 1.256 . S
C568 C561 1.496 . S
C569 C536 1.448 . S
C569 H546 0.930 . S
C569 C570 1.328 . S
C570 C541 1.427 . S
C570 H547 0.929 . S
C570 C569 1.328 . S
C571 O555 1.264 . S
C571 O556 1.243 . S
C572 C575 1.399 . S
C572 C576 1.383 . S
C572 C579 1.496 . S
C573 C574 1.399 . S
C573 C576 1.389 . S
C574 C573 1.399 . S
C574 C577 1.380 . S
C574 H584 0.929 . S
C575 C572 1.399 . S
C575 C577 1.392 . S
C575 H585 0.929 . S
C576 C572 1.383 . S
C576 C573 1.389 . S
C576 H586 0.931 . S
C577 C574 1.380 . S
C577 C575 1.392 . S
C577 H587 0.929 . S
C578 O558 1.266 . S
C578 O559 1.248 . S
C579 Tb515 2.802 . S
C579 O554 1.264 . S
C579 O557 1.256 . S
C579 C572 1.496 . S
H580 C563 0.929 . S
H581 C564 0.929 . S
H582 C565 0.929 . S
H583 C566 0.931 . S
H584 C574 0.929 . S
H585 C575 0.929 . S
H586 C576 0.931 . S
H587 C577 0.929 . S
Tb588 N617 2.617 . S
Tb588 N623 2.572 . S
Tb588 O632 2.465 . S
Tb588 O633 2.387 . S
Tb588 O635 2.428 . S
Tb588 O636 2.308 . S
Tb588 O640 2.349 . S
Tb588 O643 2.393 . S
Tb588 C652 2.802 . S
C589 N590 1.379 . S
C589 C592 1.416 . S
C589 C596 1.424 . S
N590 C589 1.379 . S
N590 C593 1.334 . S
N590 Tb599 2.617 . S
C591 C593 1.390 . S
C591 C594 1.339 . S
C591 H611 0.930 . S
C592 C589 1.416 . S
C592 C594 1.416 . S
C592 C598 1.448 . S
C593 N590 1.334 . S
C593 C591 1.390 . S
C593 H604 0.930 . S
C594 C591 1.339 . S
C594 C592 1.416 . S
C594 H615 0.930 . S
C595 C596 1.413 . S
C595 C597 1.427 . S
C595 C601 1.416 . S
C596 C589 1.424 . S
C596 C595 1.413 . S
C596 N600 1.361 . S
C597 C595 1.427 . S
C597 C598 1.328 . S
C597 H612 0.929 . S
C598 C592 1.448 . S
C598 C597 1.328 . S
C598 H613 0.930 . S
Tb599 N590 2.617 . S
Tb599 N600 2.572 . S
Tb599 O634 2.349 . S
Tb599 O637 2.393 . S
Tb599 O638 2.465 . S
Tb599 O639 2.387 . S
Tb599 O641 2.428 . S
Tb599 O642 2.308 . S
Tb599 C663 2.802 . S
N600 C596 1.361 . S
N600 Tb599 2.572 . S
N600 C602 1.340 . S
C601 C595 1.416 . S
C601 C603 1.332 . S
C601 H609 0.931 . S
C602 N600 1.340 . S
C602 C603 1.407 . S
C602 H608 0.930 . S
C603 C601 1.332 . S
C603 C602 1.407 . S
C603 H605 0.929 . S
H604 C593 0.930 . S
H605 C603 0.929 . S
H606 C621 0.930 . S
H607 C628 0.929 . S
H608 C602 0.930 . S
H609 C601 0.931 . S
H610 C624 0.930 . S
H611 C591 0.930 . S
H612 C597 0.929 . S
H613 C598 0.930 . S
H614 C619 0.930 . S
H615 C594 0.930 . S
H616 C627 0.931 . S
N617 Tb588 2.617 . S
N617 C618 1.379 . S
N617 C621 1.334 . S
C618 N617 1.379 . S
C618 C620 1.416 . S
C618 C626 1.424 . S
C619 H614 0.930 . S
C619 C621 1.390 . S
C619 C622 1.339 . S
C620 C618 1.416 . S
C620 C622 1.416 . S
C620 C653 1.448 . S
C621 H606 0.930 . S
C621 N617 1.334 . S
C621 C619 1.390 . S
C622 C619 1.339 . S
C622 C620 1.416 . S
C622 H629 0.930 . S
N623 Tb588 2.572 . S
N623 C624 1.340 . S
N623 C626 1.361 . S
C624 H610 0.930 . S
C624 N623 1.340 . S
C624 C628 1.407 . S
C625 C626 1.413 . S
C625 C627 1.416 . S
C625 C654 1.427 . S
C626 C618 1.424 . S
C626 N623 1.361 . S
C626 C625 1.413 . S
C627 H616 0.931 . S
C627 C625 1.416 . S
C627 C628 1.332 . S
C628 H607 0.929 . S
C628 C624 1.407 . S
C628 C627 1.332 . S
H629 C622 0.930 . S
H630 C653 0.930 . S
H631 C654 0.929 . S
O632 Tb588 2.465 . S
O632 C652 1.264 . S
O633 Tb588 2.387 . S
O633 C644 1.264 . S
O634 Tb599 2.349 . S
O634 C644 1.243 . S
O635 Tb588 2.428 . S
O635 C652 1.256 . S
O636 Tb588 2.308 . S
O636 C651 1.266 . S
O637 Tb599 2.393 . S
O637 C651 1.248 . S
O638 Tb599 2.465 . S
O638 C663 1.264 . S
O639 Tb599 2.387 . S
O639 C655 1.264 . S
O640 Tb588 2.349 . S
O640 C655 1.243 . S
O641 Tb599 2.428 . S
O641 C663 1.256 . S
O642 Tb599 2.308 . S
O642 C662 1.266 . S
O643 Tb588 2.393 . S
O643 C662 1.248 . S
C644 O633 1.264 . S
C644 O634 1.243 . S
C645 C648 1.399 . S
C645 C650 1.383 . S
C645 C652 1.496 . S
C646 C647 1.399 . S
C646 C650 1.389 . S
C647 C646 1.399 . S
C647 C649 1.380 . S
C647 H664 0.929 . S
C648 C645 1.399 . S
C648 C649 1.392 . S
C648 H665 0.929 . S
C649 C647 1.380 . S
C649 C648 1.392 . S
C649 H666 0.929 . S
C650 C645 1.383 . S
C650 C646 1.389 . S
C650 H667 0.931 . S
C651 O636 1.266 . S
C651 O637 1.248 . S
C652 Tb588 2.802 . S
C652 O632 1.264 . S
C652 O635 1.256 . S
C652 C645 1.496 . S
C653 C620 1.448 . S
C653 H630 0.930 . S
C653 C654 1.328 . S
C654 C625 1.427 . S
C654 H631 0.929 . S
C654 C653 1.328 . S
C655 O639 1.264 . S
C655 O640 1.243 . S
C656 C659 1.399 . S
C656 C660 1.383 1_556 S
C656 C663 1.496 . S
C657 C658 1.399 . S
C657 C660 1.389 . S
C658 C657 1.399 . S
C658 C661 1.380 . S
C658 H668 0.929 . S
C659 C656 1.399 . S
C659 C661 1.392 1_556 S
C659 H669 0.929 . S
C660 C656 1.383 1_554 S
C660 C657 1.389 . S
C660 H670 0.931 . S
C661 C658 1.380 . S
C661 C659 1.392 1_554 S
C661 H671 0.929 . S
C662 O642 1.266 . S
C662 O643 1.248 . S
C663 Tb599 2.802 . S
C663 O638 1.264 . S
C663 O641 1.256 . S
C663 C656 1.496 . S
H664 C647 0.929 . S
H665 C648 0.929 . S
H666 C649 0.929 . S
H667 C650 0.931 . S
H668 C658 0.929 . S
H669 C659 0.929 . S
H670 C660 0.931 . S
H671 C661 0.929 . S
Tb672 N701 2.617 . S
Tb672 N707 2.572 . S
Tb672 O716 2.465 . S
Tb672 O717 2.387 . S
Tb672 O719 2.428 . S
Tb672 O720 2.308 . S
Tb672 O724 2.349 . S
Tb672 O727 2.393 . S
Tb672 C736 2.802 . S
C673 N674 1.379 . S
C673 C676 1.416 . S
C673 C680 1.424 . S
N674 C673 1.379 . S
N674 C677 1.334 . S
N674 Tb683 2.617 . S
C675 C677 1.390 . S
C675 C678 1.339 . S
C675 H695 0.930 . S
C676 C673 1.416 . S
C676 C678 1.416 . S
C676 C682 1.448 . S
C677 N674 1.334 . S
C677 C675 1.390 . S
C677 H688 0.930 . S
C678 C675 1.339 . S
C678 C676 1.416 . S
C678 H699 0.930 . S
C679 C680 1.413 . S
C679 C681 1.427 . S
C679 C685 1.416 . S
C680 C673 1.424 . S
C680 C679 1.413 . S
C680 N684 1.361 . S
C681 C679 1.427 . S
C681 C682 1.328 . S
C681 H696 0.929 . S
C682 C676 1.448 . S
C682 C681 1.328 . S
C682 H697 0.930 . S
Tb683 N674 2.617 . S
Tb683 N684 2.572 . S
Tb683 O718 2.349 . S
Tb683 O721 2.393 . S
Tb683 O722 2.465 . S
Tb683 O723 2.387 . S
Tb683 O725 2.428 . S
Tb683 O726 2.308 . S
Tb683 C747 2.802 . S
N684 C680 1.361 . S
N684 Tb683 2.572 . S
N684 C686 1.340 . S
C685 C679 1.416 . S
C685 C687 1.332 . S
C685 H693 0.931 . S
C686 N684 1.340 . S
C686 C687 1.407 . S
C686 H692 0.930 . S
C687 C685 1.332 . S
C687 C686 1.407 . S
C687 H689 0.929 . S
H688 C677 0.930 . S
H689 C687 0.929 . S
H690 C705 0.930 . S
H691 C712 0.929 . S
H692 C686 0.930 . S
H693 C685 0.931 . S
H694 C708 0.930 . S
H695 C675 0.930 . S
H696 C681 0.929 . S
H697 C682 0.930 . S
H698 C703 0.930 . S
H699 C678 0.930 . S
H700 C711 0.931 1_455 S
N701 Tb672 2.617 . S
N701 C702 1.379 . S
N701 C705 1.334 . S
C702 N701 1.379 . S
C702 C704 1.416 . S
C702 C710 1.424 . S
C703 H698 0.930 . S
C703 C705 1.390 . S
C703 C706 1.339 . S
C704 C702 1.416 . S
C704 C706 1.416 . S
C704 C737 1.448 . S
C705 H690 0.930 . S
C705 N701 1.334 . S
C705 C703 1.390 . S
C706 C703 1.339 . S
C706 C704 1.416 . S
C706 H713 0.930 . S
N707 Tb672 2.572 . S
N707 C708 1.340 . S
N707 C710 1.361 . S
C708 H694 0.930 . S
C708 N707 1.340 . S
C708 C712 1.407 . S
C709 C710 1.413 . S
C709 C711 1.416 . S
C709 C738 1.427 . S
C710 C702 1.424 . S
C710 N707 1.361 . S
C710 C709 1.413 . S
C711 H700 0.931 1_655 S
C711 C709 1.416 . S
C711 C712 1.332 . S
C712 H691 0.929 . S
C712 C708 1.407 . S
C712 C711 1.332 . S
H713 C706 0.930 . S
H714 C737 0.930 . S
H715 C738 0.929 1_455 S
O716 Tb672 2.465 . S
O716 C736 1.264 . S
O717 Tb672 2.387 . S
O717 C728 1.264 . S
O718 Tb683 2.349 . S
O718 C728 1.243 . S
O719 Tb672 2.428 . S
O719 C736 1.256 . S
O720 Tb672 2.308 . S
O720 C735 1.266 . S
O721 Tb683 2.393 . S
O721 C735 1.248 . S
O722 Tb683 2.465 . S
O722 C747 1.264 . S
O723 Tb683 2.387 . S
O723 C739 1.264 . S
O724 Tb672 2.349 . S
O724 C739 1.243 . S
O725 Tb683 2.428 . S
O725 C747 1.256 . S
O726 Tb683 2.308 . S
O726 C746 1.266 . S
O727 Tb672 2.393 . S
O727 C746 1.248 . S
C728 O717 1.264 . S
C728 O718 1.243 . S
C729 C732 1.399 1_556 S
C729 C734 1.383 1_556 S
C729 C736 1.496 . S
C730 C731 1.399 . S
C730 C734 1.389 . S
C731 C730 1.399 . S
C731 C733 1.380 . S
C731 H748 0.929 . S
C732 C729 1.399 1_554 S
C732 C733 1.392 . S
C732 H749 0.929 1_554 S
C733 C731 1.380 . S
C733 C732 1.392 . S
C733 H750 0.929 . S
C734 C729 1.383 1_554 S
C734 C730 1.389 . S
C734 H751 0.931 . S
C735 O720 1.266 . S
C735 O721 1.248 . S
C736 Tb672 2.802 . S
C736 O716 1.264 . S
C736 O719 1.256 . S
C736 C729 1.496 . S
C737 C704 1.448 . S
C737 H714 0.930 . S
C737 C738 1.328 . S
C738 C709 1.427 . S
C738 H715 0.929 1_655 S
C738 C737 1.328 . S
C739 O723 1.264 . S
C739 O724 1.243 . S
C740 C743 1.399 . S
C740 C744 1.383 . S
C740 C747 1.496 . S
C741 C742 1.399 . S
C741 C744 1.389 . S
C742 C741 1.399 . S
C742 C745 1.380 . S
C742 H752 0.929 . S
C743 C740 1.399 . S
C743 C745 1.392 . S
C743 H753 0.929 . S
C744 C740 1.383 . S
C744 C741 1.389 . S
C744 H754 0.931 . S
C745 C742 1.380 . S
C745 C743 1.392 . S
C745 H755 0.929 . S
C746 O726 1.266 . S
C746 O727 1.248 . S
C747 Tb683 2.802 . S
C747 O722 1.264 . S
C747 O725 1.256 . S
C747 C740 1.496 . S
H748 C731 0.929 . S
H749 C732 0.929 1_556 S
H750 C733 0.929 . S
H751 C734 0.931 . S
H752 C742 0.929 . S
H753 C743 0.929 . S
H754 C744 0.931 . S
H755 C745 0.929 . S
H756 C764 0.950 . S
H757 C769 0.950 . S
H758 C766 0.950 . S
H759 C768 0.950 . S
H760 C770 0.950 . S
H761 C772 0.950 . S
H762 C774 0.950 . S
H763 C775 0.950 . S
C764 H756 0.950 . S
C764 C765 1.386 . S
C764 C766 1.391 . S
C765 C764 1.386 . S
C765 C769 1.393 . S
C766 H758 0.950 . S
C766 C764 1.391 . S
C766 C767 1.400 . S
C767 C766 1.400 . S
C767 C768 1.398 . S
C767 C773 1.491 . S
C768 H759 0.950 . S
C768 C767 1.398 . S
C768 C769 1.391 . S
C769 H757 0.950 . S
C769 C765 1.393 . S
C769 C768 1.391 . S
C770 H760 0.950 . S
C770 C771 1.386 . S
C770 C772 1.391 . S
C771 C770 1.386 . S
C771 C775 1.393 . S
C772 H761 0.950 . S
C772 C770 1.391 . S
C772 C773 1.400 . S
C773 C767 1.491 . S
C773 C772 1.400 . S
C773 C774 1.398 . S
C774 H762 0.950 . S
C774 C773 1.398 . S
C774 C775 1.391 . S
C775 H763 0.950 . S
C775 C771 1.393 . S
C775 C774 1.391 . S
H776 C784 0.950 . S
H777 C789 0.950 . S
H778 C786 0.950 . S
H779 C788 0.950 . S
H780 C790 0.950 . S
H781 C792 0.950 . S
H782 C794 0.950 . S
H783 C795 0.950 . S
C784 H776 0.950 . S
C784 C785 1.386 . S
C784 C786 1.391 . S
C785 C784 1.386 . S
C785 C789 1.393 . S
C786 H778 0.950 . S
C786 C784 1.391 . S
C786 C787 1.400 . S
C787 C786 1.400 . S
C787 C788 1.398 . S
C787 C793 1.491 . S
C788 H779 0.950 . S
C788 C787 1.398 . S
C788 C789 1.391 . S
C789 H777 0.950 . S
C789 C785 1.393 . S
C789 C788 1.391 . S
C790 H780 0.950 . S
C790 C791 1.386 . S
C790 C792 1.391 . S
C791 C790 1.386 . S
C791 C795 1.393 . S
C792 H781 0.950 . S
C792 C790 1.391 . S
C792 C793 1.400 . S
C793 C787 1.491 . S
C793 C792 1.400 . S
C793 C794 1.398 . S
C794 H782 0.950 . S
C794 C793 1.398 . S
C794 C795 1.391 . S
C795 H783 0.950 . S
C795 C791 1.393 . S
C795 C794 1.391 . S
H796 C804 0.950 . S
H797 C809 0.950 . S
H798 C806 0.950 . S
H799 C808 0.950 . S
H800 C810 0.950 . S
H801 C812 0.950 . S
H802 C814 0.950 . S
H803 C815 0.950 . S
C804 H796 0.950 . S
C804 C805 1.386 . S
C804 C806 1.391 . S
C805 C804 1.386 . S
C805 C809 1.393 . S
C806 H798 0.950 . S
C806 C804 1.391 . S
C806 C807 1.400 . S
C807 C806 1.400 . S
C807 C808 1.398 . S
C807 C813 1.491 . S
C808 H799 0.950 . S
C808 C807 1.398 . S
C808 C809 1.391 . S
C809 H797 0.950 . S
C809 C805 1.393 . S
C809 C808 1.391 . S
C810 H800 0.950 . S
C810 C811 1.386 . S
C810 C812 1.391 . S
C811 C810 1.386 . S
C811 C815 1.393 . S
C812 H801 0.950 . S
C812 C810 1.391 . S
C812 C813 1.400 . S
C813 C807 1.491 . S
C813 C812 1.400 . S
C813 C814 1.398 . S
C814 H802 0.950 . S
C814 C813 1.398 . S
C814 C815 1.391 . S
C815 H803 0.950 . S
C815 C811 1.393 . S
C815 C814 1.391 . S
H816 C824 0.950 . S
H817 C829 0.950 . S
H818 C826 0.950 . S
H819 C828 0.950 . S
H820 C830 0.950 . S
H821 C832 0.950 . S
H822 C834 0.950 . S
H823 C835 0.950 . S
C824 H816 0.950 . S
C824 C825 1.386 . S
C824 C826 1.391 . S
C825 C824 1.386 . S
C825 C829 1.393 . S
C826 H818 0.950 . S
C826 C824 1.391 . S
C826 C827 1.400 . S
C827 C826 1.400 . S
C827 C828 1.398 . S
C827 C833 1.491 . S
C828 H819 0.950 . S
C828 C827 1.398 . S
C828 C829 1.391 . S
C829 H817 0.950 . S
C829 C825 1.393 . S
C829 C828 1.391 . S
C830 H820 0.950 . S
C830 C831 1.386 . S
C830 C832 1.391 . S
C831 C830 1.386 . S
C831 C835 1.393 . S
C832 H821 0.950 . S
C832 C830 1.391 . S
C832 C833 1.400 . S
C833 C827 1.491 . S
C833 C832 1.400 . S
C833 C834 1.398 . S
C834 H822 0.950 . S
C834 C833 1.398 . S
C834 C835 1.391 . S
C835 H823 0.950 . S
C835 C831 1.393 . S
C835 C834 1.391 . S
H836 C844 0.950 . S
H837 C849 0.950 . S
H838 C846 0.950 . S
H839 C848 0.950 . S
H840 C850 0.950 . S
H841 C852 0.950 . S
H842 C854 0.950 . S
H843 C855 0.950 . S
C844 H836 0.950 . S
C844 C845 1.386 . S
C844 C846 1.391 . S
C845 C844 1.386 . S
C845 C849 1.393 . S
C846 H838 0.950 . S
C846 C844 1.391 . S
C846 C847 1.400 . S
C847 C846 1.400 . S
C847 C848 1.398 . S
C847 C853 1.491 . S
C848 H839 0.950 . S
C848 C847 1.398 . S
C848 C849 1.391 . S
C849 H837 0.950 . S
C849 C845 1.393 . S
C849 C848 1.391 . S
C850 H840 0.950 . S
C850 C851 1.386 . S
C850 C852 1.391 . S
C851 C850 1.386 . S
C851 C855 1.393 . S
C852 H841 0.950 . S
C852 C850 1.391 . S
C852 C853 1.400 . S
C853 C847 1.491 . S
C853 C852 1.400 . S
C853 C854 1.398 . S
C854 H842 0.950 . S
C854 C853 1.398 . S
C854 C855 1.391 . S
C855 H843 0.950 . S
C855 C851 1.393 . S
C855 C854 1.391 . S
H856 C864 0.950 . S
H857 C869 0.950 . S
H858 C866 0.950 . S
H859 C868 0.950 . S
H860 C870 0.944 1_554 S
H861 C872 0.950 . S
H862 C874 0.950 . S
H863 C875 0.950 . S
C864 H856 0.950 . S
C864 C865 1.386 . S
C864 C866 1.391 . S
C865 C864 1.386 . S
C865 C869 1.393 . S
C866 H858 0.950 . S
C866 C864 1.391 . S
C866 C867 1.400 . S
C867 C866 1.400 . S
C867 C868 1.398 . S
C867 C873 1.491 . S
C868 H859 0.950 . S
C868 C867 1.398 . S
C868 C869 1.391 . S
C869 H857 0.950 . S
C869 C865 1.393 . S
C869 C868 1.391 . S
C870 H860 0.944 1_556 S
C870 C871 1.382 1_556 S
C870 C872 1.400 . S
C871 C870 1.382 1_554 S
C871 C875 1.393 1_554 S
C872 H861 0.950 . S
C872 C870 1.400 . S
C872 C873 1.400 . S
C873 C867 1.491 . S
C873 C872 1.400 . S
C873 C874 1.398 . S
C874 H862 0.950 . S
C874 C873 1.398 . S
C874 C875 1.391 . S
C875 H863 0.950 . S
C875 C871 1.393 1_556 S
C875 C874 1.391 . S
H876 C884 0.950 . S
H877 C889 0.950 . S
H878 C886 0.950 . S
H879 C888 0.950 . S
H880 C890 0.950 . S
H881 C892 0.950 . S
H882 C894 0.950 . S
H883 C895 0.950 . S
C884 H876 0.950 . S
C884 C885 1.386 . S
C884 C886 1.391 . S
C885 C884 1.386 . S
C885 C889 1.393 . S
C886 H878 0.950 . S
C886 C884 1.391 . S
C886 C887 1.400 . S
C887 C886 1.400 . S
C887 C888 1.398 . S
C887 C893 1.491 . S
C888 H879 0.950 . S
C888 C887 1.398 . S
C888 C889 1.391 . S
C889 H877 0.950 . S
C889 C885 1.393 . S
C889 C888 1.391 . S
C890 H880 0.950 . S
C890 C891 1.386 . S
C890 C892 1.391 . S
C891 C890 1.386 . S
C891 C895 1.393 . S
C892 H881 0.950 . S
C892 C890 1.391 . S
C892 C893 1.400 . S
C893 C887 1.491 . S
C893 C892 1.400 . S
C893 C894 1.398 . S
C894 H882 0.950 . S
C894 C893 1.398 . S
C894 C895 1.391 . S
C895 H883 0.950 . S
C895 C891 1.393 . S
C895 C894 1.391 . S
H896 C904 0.950 . S
H897 C909 0.950 . S
H898 C906 0.950 . S
H899 C908 0.950 . S
H900 C910 0.950 1_556 S
H901 C912 0.950 . S
H902 C914 0.950 . S
H903 C915 0.950 . S
C904 H896 0.950 . S
C904 C905 1.386 . S
C904 C906 1.391 . S
C905 C904 1.386 . S
C905 C909 1.393 . S
C906 H898 0.950 . S
C906 C904 1.391 . S
C906 C907 1.400 . S
C907 C906 1.400 . S
C907 C908 1.398 . S
C907 C913 1.491 . S
C908 H899 0.950 . S
C908 C907 1.398 . S
C908 C909 1.391 . S
C909 H897 0.950 . S
C909 C905 1.393 . S
C909 C908 1.391 . S
C910 H900 0.950 1_554 S
C910 C911 1.386 . S
C910 C912 1.391 . S
C911 C910 1.386 . S
C911 C915 1.393 . S
C912 H901 0.950 . S
C912 C910 1.391 . S
C912 C913 1.400 . S
C913 C907 1.491 . S
C913 C912 1.400 . S
C913 C914 1.398 . S
C914 H902 0.950 . S
C914 C913 1.398 . S
C914 C915 1.391 . S
C915 H903 0.950 . S
C915 C911 1.393 . S
C915 C914 1.391 . S
H916 C924 0.950 . S
H917 C929 0.950 . S
H918 C926 0.950 . S
H919 C928 0.950 . S
H920 C930 0.950 . S
H921 C932 0.950 . S
H922 C934 0.950 . S
H923 C935 0.950 . S
C924 H916 0.950 . S
C924 C925 1.386 . S
C924 C926 1.391 . S
C925 C924 1.386 . S
C925 C929 1.393 . S
C926 H918 0.950 . S
C926 C924 1.391 . S
C926 C927 1.400 . S
C927 C926 1.400 . S
C927 C928 1.398 . S
C927 C933 1.491 . S
C928 H919 0.950 . S
C928 C927 1.398 . S
C928 C929 1.391 . S
C929 H917 0.950 . S
C929 C925 1.393 . S
C929 C928 1.391 . S
C930 H920 0.950 . S
C930 C931 1.386 . S
C930 C932 1.391 . S
C931 C930 1.386 . S
C931 C935 1.393 . S
C932 H921 0.950 . S
C932 C930 1.391 . S
C932 C933 1.400 . S
C933 C927 1.491 . S
C933 C932 1.400 . S
C933 C934 1.398 . S
C934 H922 0.950 . S
C934 C933 1.398 . S
C934 C935 1.391 . S
C935 H923 0.950 . S
C935 C931 1.393 . S
C935 C934 1.391 . S
H936 C944 0.950 . S
H937 C949 0.950 . S
H938 C946 0.950 . S
H939 C948 0.950 . S
H940 C950 0.950 . S
H941 C952 0.950 . S
H942 C954 0.950 . S
H943 C955 0.950 . S
C944 H936 0.950 . S
C944 C945 1.386 . S
C944 C946 1.391 . S
C945 C944 1.386 . S
C945 C949 1.393 . S
C946 H938 0.950 . S
C946 C944 1.391 . S
C946 C947 1.400 . S
C947 C946 1.400 . S
C947 C948 1.398 . S
C947 C953 1.491 . S
C948 H939 0.950 . S
C948 C947 1.398 . S
C948 C949 1.391 . S
C949 H937 0.950 . S
C949 C945 1.393 . S
C949 C948 1.391 . S
C950 H940 0.950 . S
C950 C951 1.386 . S
C950 C952 1.391 . S
C951 C950 1.386 . S
C951 C955 1.393 . S
C952 H941 0.950 . S
C952 C950 1.391 . S
C952 C953 1.400 . S
C953 C947 1.491 . S
C953 C952 1.400 . S
C953 C954 1.398 . S
C954 H942 0.950 . S
C954 C953 1.398 . S
C954 C955 1.391 . S
C955 H943 0.950 . S
C955 C951 1.393 . S
C955 C954 1.391 . S
H956 C964 0.950 . S
H957 C969 0.950 . S
H958 C966 0.950 . S
H959 C968 0.950 . S
H960 C970 0.950 . S
H961 C972 0.950 . S
H962 C974 0.950 . S
H963 C975 0.950 . S
C964 H956 0.950 . S
C964 C965 1.386 . S
C964 C966 1.391 . S
C965 C964 1.386 . S
C965 C969 1.393 . S
C966 H958 0.950 . S
C966 C964 1.391 . S
C966 C967 1.400 . S
C967 C966 1.400 . S
C967 C968 1.398 . S
C967 C973 1.491 . S
C968 H959 0.950 . S
C968 C967 1.398 . S
C968 C969 1.391 . S
C969 H957 0.950 . S
C969 C965 1.393 . S
C969 C968 1.391 . S
C970 H960 0.950 . S
C970 C971 1.386 . S
C970 C972 1.391 . S
C971 C970 1.386 . S
C971 C975 1.393 . S
C972 H961 0.950 . S
C972 C970 1.391 . S
C972 C973 1.400 . S
C973 C967 1.491 . S
C973 C972 1.400 . S
C973 C974 1.398 . S
C974 H962 0.950 . S
C974 C973 1.398 . S
C974 C975 1.391 . S
C975 H963 0.950 . S
C975 C971 1.393 . S
C975 C974 1.391 . S
H976 C984 0.950 . S
H977 C989 0.950 . S
H978 C986 0.950 . S
H979 C988 0.950 . S
H980 C990 0.950 . S
H981 C992 0.950 . S
H982 C994 0.950 . S
H983 C995 0.950 . S
C984 H976 0.950 . S
C984 C985 1.386 . S
C984 C986 1.391 . S
C985 C984 1.386 . S
C985 C989 1.393 1_565 S
C986 H978 0.950 . S
C986 C984 1.391 . S
C986 C987 1.400 . S
C987 C986 1.400 . S
C987 C988 1.398 . S
C987 C993 1.491 . S
C988 H979 0.950 . S
C988 C987 1.398 . S
C988 C989 1.391 1_565 S
C989 H977 0.950 . S
C989 C985 1.393 1_545 S
C989 C988 1.391 1_545 S
C990 H980 0.950 . S
C990 C991 1.386 . S
C990 C992 1.391 . S
C991 C990 1.386 . S
C991 C995 1.393 . S
C992 H981 0.950 . S
C992 C990 1.391 . S
C992 C993 1.400 . S
C993 C987 1.491 . S
C993 C992 1.400 . S
C993 C994 1.398 . S
C994 H982 0.950 . S
C994 C993 1.398 . S
C994 C995 1.391 . S
C995 H983 0.950 . S
C995 C991 1.393 . S
C995 C994 1.391 . S
H996 C1004 0.950 . S
H997 C1009 0.950 . S
H998 C1006 0.950 . S
H999 C1008 0.950 . S
H1000 C1010 0.950 . S
H1001 C1012 0.950 . S
H1002 C1014 0.950 . S
H1003 C1015 0.950 . S
C1004 H996 0.950 . S
C1004 C1005 1.386 . S
C1004 C1006 1.391 . S
C1005 C1004 1.386 . S
C1005 C1009 1.393 . S
C1006 H998 0.950 . S
C1006 C1004 1.391 . S
C1006 C1007 1.400 . S
C1007 C1006 1.400 . S
C1007 C1008 1.398 . S
C1007 C1013 1.491 . S
C1008 H999 0.950 . S
C1008 C1007 1.398 . S
C1008 C1009 1.391 . S
C1009 H997 0.950 . S
C1009 C1005 1.393 . S
C1009 C1008 1.391 . S
C1010 H1000 0.950 . S
C1010 C1011 1.386 . S
C1010 C1012 1.391 . S
C1011 C1010 1.386 . S
C1011 C1015 1.393 . S
C1012 H1001 0.950 . S
C1012 C1010 1.391 . S
C1012 C1013 1.400 . S
C1013 C1007 1.491 . S
C1013 C1012 1.400 . S
C1013 C1014 1.398 . S
C1014 H1002 0.950 . S
C1014 C1013 1.398 . S
C1014 C1015 1.391 . S
C1015 H1003 0.950 . S
C1015 C1011 1.393 . S
C1015 C1014 1.391 . S
H1016 C1024 0.950 . S
H1017 C1029 0.950 . S
H1018 C1026 0.950 . S
H1019 C1028 0.950 . S
H1020 C1030 0.950 . S
H1021 C1032 0.950 . S
H1022 C1034 0.950 . S
H1023 C1035 0.950 . S
C1024 H1016 0.950 . S
C1024 C1025 1.386 . S
C1024 C1026 1.391 . S
C1025 C1024 1.386 . S
C1025 C1029 1.393 . S
C1026 H1018 0.950 . S
C1026 C1024 1.391 . S
C1026 C1027 1.400 . S
C1027 C1026 1.400 . S
C1027 C1028 1.398 . S
C1027 C1033 1.491 . S
C1028 H1019 0.950 . S
C1028 C1027 1.398 . S
C1028 C1029 1.391 . S
C1029 H1017 0.950 . S
C1029 C1025 1.393 . S
C1029 C1028 1.391 . S
C1030 H1020 0.950 . S
C1030 C1031 1.386 1_556 S
C1030 C1032 1.391 . S
C1031 C1030 1.386 1_554 S
C1031 C1035 1.393 . S
C1032 H1021 0.950 . S
C1032 C1030 1.391 . S
C1032 C1033 1.400 . S
C1033 C1027 1.491 . S
C1033 C1032 1.400 . S
C1033 C1034 1.398 1_556 S
C1034 H1022 0.950 . S
C1034 C1033 1.398 1_554 S
C1034 C1035 1.391 . S
C1035 H1023 0.950 . S
C1035 C1031 1.393 . S
C1035 C1034 1.391 . S
H1036 C1044 0.950 . S
H1037 C1049 0.950 . S
H1038 C1046 0.950 . S
H1039 C1048 0.950 . S
H1040 C1050 0.950 . S
H1041 C1052 0.950 . S
H1042 C1054 0.950 . S
H1043 C1055 0.950 . S
C1044 H1036 0.950 . S
C1044 C1045 1.386 . S
C1044 C1046 1.391 . S
C1045 C1044 1.386 . S
C1045 C1049 1.393 . S
C1046 H1038 0.950 . S
C1046 C1044 1.391 . S
C1046 C1047 1.400 . S
C1047 C1046 1.400 . S
C1047 C1048 1.398 . S
C1047 C1053 1.491 . S
C1048 H1039 0.950 . S
C1048 C1047 1.398 . S
C1048 C1049 1.391 . S
C1049 H1037 0.950 . S
C1049 C1045 1.393 . S
C1049 C1048 1.391 . S
C1050 H1040 0.950 . S
C1050 C1051 1.386 . S
C1050 C1052 1.391 . S
C1051 C1050 1.386 . S
C1051 C1055 1.393 . S
C1052 H1041 0.950 . S
C1052 C1050 1.391 . S
C1052 C1053 1.400 . S
C1053 C1047 1.491 . S
C1053 C1052 1.400 . S
C1053 C1054 1.398 . S
C1054 H1042 0.950 . S
C1054 C1053 1.398 . S
C1054 C1055 1.391 . S
C1055 H1043 0.950 . S
C1055 C1051 1.393 . S
C1055 C1054 1.391 . S
H1056 C1064 0.950 . S
H1057 C1069 0.950 . S
H1058 C1066 0.950 . S
H1059 C1068 0.950 . S
H1060 C1070 0.950 . S
H1061 C1072 0.950 . S
H1062 C1074 0.950 . S
H1063 C1075 0.950 . S
C1064 H1056 0.950 . S
C1064 C1065 1.386 . S
C1064 C1066 1.391 . S
C1065 C1064 1.386 . S
C1065 C1069 1.393 . S
C1066 H1058 0.950 . S
C1066 C1064 1.391 . S
C1066 C1067 1.400 . S
C1067 C1066 1.400 . S
C1067 C1068 1.398 . S
C1067 C1073 1.491 . S
C1068 H1059 0.950 . S
C1068 C1067 1.398 . S
C1068 C1069 1.391 . S
C1069 H1057 0.950 . S
C1069 C1065 1.393 . S
C1069 C1068 1.391 . S
C1070 H1060 0.950 . S
C1070 C1071 1.386 . S
C1070 C1072 1.391 . S
C1071 C1070 1.386 . S
C1071 C1075 1.393 1_556 S
C1072 H1061 0.950 . S
C1072 C1070 1.391 . S
C1072 C1073 1.400 . S
C1073 C1067 1.491 . S
C1073 C1072 1.400 . S
C1073 C1074 1.398 . S
C1074 H1062 0.950 . S
C1074 C1073 1.398 . S
C1074 C1075 1.391 1_556 S
C1075 H1063 0.950 . S
C1075 C1071 1.393 1_554 S
C1075 C1074 1.391 1_554 S
H1076 C1084 0.950 . S
H1077 C1089 0.951 . S
H1078 C1086 0.950 . S
H1079 C1088 0.950 . S
H1080 C1090 0.950 . S
H1081 C1092 0.950 . S
H1082 C1094 0.950 . S
H1083 C1095 0.950 . S
C1084 H1076 0.950 . S
C1084 C1085 1.386 . S
C1084 C1086 1.391 . S
C1085 C1084 1.386 . S
C1085 C1089 1.393 . S
C1086 H1078 0.950 . S
C1086 C1084 1.391 . S
C1086 C1087 1.400 . S
C1087 C1086 1.400 . S
C1087 C1088 1.398 . S
C1087 C1093 1.491 . S
C1088 H1079 0.950 . S
C1088 C1087 1.398 . S
C1088 C1089 1.391 . S
C1089 H1077 0.951 . S
C1089 C1085 1.393 . S
C1089 C1088 1.391 . S
C1090 H1080 0.950 . S
C1090 C1091 1.386 . S
C1090 C1092 1.391 . S
C1091 C1090 1.386 . S
C1091 C1095 1.393 . S
C1092 H1081 0.950 . S
C1092 C1090 1.391 . S
C1092 C1093 1.400 . S
C1093 C1087 1.491 . S
C1093 C1092 1.400 . S
C1093 C1094 1.398 . S
C1094 H1082 0.950 . S
C1094 C1093 1.398 . S
C1094 C1095 1.391 . S
C1095 H1083 0.950 . S
C1095 C1091 1.393 . S
C1095 C1094 1.391 . S
H1096 C1104 0.950 . S
H1097 C1109 0.950 . S
H1098 C1106 0.950 . S
H1099 C1108 0.950 . S
H1100 C1110 0.950 . S
H1101 C1112 0.950 . S
H1102 C1114 0.950 . S
H1103 C1115 0.950 . S
C1104 H1096 0.950 . S
C1104 C1105 1.386 . S
C1104 C1106 1.391 . S
C1105 C1104 1.386 . S
C1105 C1109 1.393 . S
C1106 H1098 0.950 . S
C1106 C1104 1.391 . S
C1106 C1107 1.400 . S
C1107 C1106 1.400 . S
C1107 C1108 1.398 . S
C1107 C1113 1.491 . S
C1108 H1099 0.950 . S
C1108 C1107 1.398 . S
C1108 C1109 1.391 . S
C1109 H1097 0.950 . S
C1109 C1105 1.393 . S
C1109 C1108 1.391 . S
C1110 H1100 0.950 . S
C1110 C1111 1.386 . S
C1110 C1112 1.391 . S
C1111 C1110 1.386 . S
C1111 C1115 1.393 . S
C1112 H1101 0.950 . S
C1112 C1110 1.391 . S
C1112 C1113 1.400 . S
C1113 C1107 1.491 . S
C1113 C1112 1.400 . S
C1113 C1114 1.398 . S
C1114 H1102 0.950 . S
C1114 C1113 1.398 . S
C1114 C1115 1.391 . S
C1115 H1103 0.950 . S
C1115 C1111 1.393 . S
C1115 C1114 1.391 . S
H1116 C1124 0.950 . S
H1117 C1129 0.950 1_566 S
H1118 C1126 0.950 . S
H1119 C1128 0.950 1_556 S
H1120 C1130 0.950 1_556 S
H1121 C1132 0.950 1_556 S
H1122 C1134 0.957 . S
H1123 C1135 0.950 . S
C1124 H1116 0.950 . S
C1124 C1125 1.386 . S
C1124 C1126 1.391 . S
C1125 C1124 1.386 . S
C1125 C1129 1.393 . S
C1126 H1118 0.950 . S
C1126 C1124 1.391 . S
C1126 C1127 1.400 . S
C1127 C1126 1.400 . S
C1127 C1128 1.398 1_545 S
C1127 C1133 1.491 1_545 S
C1128 H1119 0.950 1_554 S
C1128 C1127 1.398 1_565 S
C1128 C1129 1.391 1_565 S
C1129 H1117 0.950 1_544 S
C1129 C1125 1.393 . S
C1129 C1128 1.391 1_545 S
C1130 H1120 0.950 1_554 S
C1130 C1131 1.386 . S
C1130 C1132 1.391 . S
C1131 C1130 1.386 . S
C1131 C1135 1.393 . S
C1132 H1121 0.950 1_554 S
C1132 C1130 1.391 . S
C1132 C1133 1.400 . S
C1133 C1127 1.491 1_565 S
C1133 C1132 1.400 . S
C1133 C1134 1.399 1_565 S
C1134 H1122 0.957 . S
C1134 C1133 1.399 1_545 S
C1134 C1135 1.383 1_545 S
C1135 H1123 0.950 . S
C1135 C1131 1.393 . S
C1135 C1134 1.383 1_565 S
H1136 C1144 0.950 . S
H1137 C1149 0.950 . S
H1138 C1146 0.950 . S
H1139 C1148 0.950 . S
H1140 C1150 0.950 . S
H1141 C1152 0.950 . S
H1142 C1154 0.950 . S
H1143 C1155 0.950 . S
C1144 H1136 0.950 . S
C1144 C1145 1.386 . S
C1144 C1146 1.391 . S
C1145 C1144 1.386 . S
C1145 C1149 1.393 . S
C1146 H1138 0.950 . S
C1146 C1144 1.391 . S
C1146 C1147 1.400 . S
C1147 C1146 1.400 . S
C1147 C1148 1.398 . S
C1147 C1153 1.491 . S
C1148 H1139 0.950 . S
C1148 C1147 1.398 . S
C1148 C1149 1.391 . S
C1149 H1137 0.950 . S
C1149 C1145 1.393 . S
C1149 C1148 1.391 . S
C1150 H1140 0.950 . S
C1150 C1151 1.386 . S
C1150 C1152 1.391 . S
C1151 C1150 1.386 . S
C1151 C1155 1.393 . S
C1152 H1141 0.950 . S
C1152 C1150 1.391 . S
C1152 C1153 1.400 . S
C1153 C1147 1.491 . S
C1153 C1152 1.400 . S
C1153 C1154 1.398 . S
C1154 H1142 0.950 . S
C1154 C1153 1.398 . S
C1154 C1155 1.391 . S
C1155 H1143 0.950 . S
C1155 C1151 1.393 . S
C1155 C1154 1.391 . S
H1156 C1164 0.950 . S
H1157 C1169 0.950 . S
H1158 C1166 0.950 . S
H1159 C1168 0.950 . S
H1160 C1170 0.950 . S
H1161 C1172 0.950 . S
H1162 C1174 0.950 . S
H1163 C1175 0.950 . S
C1164 H1156 0.950 . S
C1164 C1165 1.386 . S
C1164 C1166 1.391 . S
C1165 C1164 1.386 . S
C1165 C1169 1.393 . S
C1166 H1158 0.950 . S
C1166 C1164 1.391 . S
C1166 C1167 1.400 . S
C1167 C1166 1.400 . S
C1167 C1168 1.398 . S
C1167 C1173 1.491 . S
C1168 H1159 0.950 . S
C1168 C1167 1.398 . S
C1168 C1169 1.391 . S
C1169 H1157 0.950 . S
C1169 C1165 1.393 . S
C1169 C1168 1.391 . S
C1170 H1160 0.950 . S
C1170 C1171 1.386 . S
C1170 C1172 1.391 . S
C1171 C1170 1.386 . S
C1171 C1175 1.393 . S
C1172 H1161 0.950 . S
C1172 C1170 1.391 . S
C1172 C1173 1.400 . S
C1173 C1167 1.491 . S
C1173 C1172 1.400 . S
C1173 C1174 1.398 . S
C1174 H1162 0.950 . S
C1174 C1173 1.398 . S
C1174 C1175 1.391 . S
C1175 H1163 0.950 . S
C1175 C1171 1.393 . S
C1175 C1174 1.391 . S
H1176 C1184 0.950 . S
H1177 C1189 0.950 . S
H1178 C1186 0.950 . S
H1179 C1188 0.950 . S
H1180 C1190 0.950 . S
H1181 C1192 0.950 . S
H1182 C1194 0.950 . S
H1183 C1195 0.950 . S
C1184 H1176 0.950 . S
C1184 C1185 1.386 . S
C1184 C1186 1.391 . S
C1185 C1184 1.386 . S
C1185 C1189 1.393 . S
C1186 H1178 0.950 . S
C1186 C1184 1.391 . S
C1186 C1187 1.400 . S
C1187 C1186 1.400 . S
C1187 C1188 1.398 . S
C1187 C1193 1.491 . S
C1188 H1179 0.950 . S
C1188 C1187 1.398 . S
C1188 C1189 1.391 . S
C1189 H1177 0.950 . S
C1189 C1185 1.393 . S
C1189 C1188 1.391 . S
C1190 H1180 0.950 . S
C1190 C1191 1.386 . S
C1190 C1192 1.391 . S
C1191 C1190 1.386 . S
C1191 C1195 1.393 . S
C1192 H1181 0.950 . S
C1192 C1190 1.391 . S
C1192 C1193 1.400 . S
C1193 C1187 1.491 . S
C1193 C1192 1.400 . S
C1193 C1194 1.398 . S
C1194 H1182 0.950 . S
C1194 C1193 1.398 . S
C1194 C1195 1.391 . S
C1195 H1183 0.950 . S
C1195 C1191 1.393 . S
C1195 C1194 1.391 . S
H1196 C1204 0.950 . S
H1197 C1209 0.950 . S
H1198 C1206 0.950 . S
H1199 C1208 0.950 . S
H1200 C1210 0.950 . S
H1201 C1212 0.950 1_545 S
H1202 C1214 0.950 . S
H1203 C1215 0.950 . S
C1204 H1196 0.950 . S
C1204 C1205 1.386 . S
C1204 C1206 1.391 . S
C1205 C1204 1.386 . S
C1205 C1209 1.393 . S
C1206 H1198 0.950 . S
C1206 C1204 1.391 . S
C1206 C1207 1.400 . S
C1207 C1206 1.400 . S
C1207 C1208 1.398 . S
C1207 C1213 1.491 1_545 S
C1208 H1199 0.950 . S
C1208 C1207 1.398 . S
C1208 C1209 1.391 . S
C1209 H1197 0.950 . S
C1209 C1205 1.393 . S
C1209 C1208 1.391 . S
C1210 H1200 0.950 . S
C1210 C1211 1.386 . S
C1210 C1212 1.391 . S
C1211 C1210 1.386 . S
C1211 C1215 1.393 . S
C1212 H1201 0.950 1_565 S
C1212 C1210 1.391 . S
C1212 C1213 1.400 . S
C1213 C1207 1.491 1_565 S
C1213 C1212 1.400 . S
C1213 C1214 1.398 . S
C1214 H1202 0.950 . S
C1214 C1213 1.398 . S
C1214 C1215 1.391 . S
C1215 H1203 0.950 . S
C1215 C1211 1.393 . S
C1215 C1214 1.391 . S
H1216 C1224 0.950 . S
H1217 C1229 0.950 . S
H1218 C1226 0.950 . S
H1219 C1228 0.950 . S
H1220 C1230 0.950 . S
H1221 C1232 0.950 . S
H1222 C1234 0.950 . S
H1223 C1235 0.950 . S
C1224 H1216 0.950 . S
C1224 C1225 1.386 . S
C1224 C1226 1.391 . S
C1225 C1224 1.386 . S
C1225 C1229 1.393 . S
C1226 H1218 0.950 . S
C1226 C1224 1.391 . S
C1226 C1227 1.400 . S
C1227 C1226 1.400 . S
C1227 C1228 1.398 . S
C1227 C1233 1.491 1_655 S
C1228 H1219 0.950 . S
C1228 C1227 1.398 . S
C1228 C1229 1.391 . S
C1229 H1217 0.950 . S
C1229 C1225 1.393 . S
C1229 C1228 1.391 . S
C1230 H1220 0.950 . S
C1230 C1231 1.386 . S
C1230 C1232 1.391 . S
C1231 C1230 1.386 . S
C1231 C1235 1.393 . S
C1232 H1221 0.950 . S
C1232 C1230 1.391 . S
C1232 C1233 1.400 . S
C1233 C1227 1.491 1_455 S
C1233 C1232 1.400 . S
C1233 C1234 1.398 . S
C1234 H1222 0.950 . S
C1234 C1233 1.398 . S
C1234 C1235 1.391 . S
C1235 H1223 0.950 . S
C1235 C1231 1.393 . S
C1235 C1234 1.391 . S
H1236 C1244 0.950 . S
H1237 C1249 0.950 . S
H1238 C1246 0.950 . S
H1239 C1248 0.950 . S
H1240 C1250 0.950 . S
H1241 C1252 0.950 . S
H1242 C1254 0.950 . S
H1243 C1255 0.950 . S
C1244 H1236 0.950 . S
C1244 C1245 1.386 . S
C1244 C1246 1.391 . S
C1245 C1244 1.386 . S
C1245 C1249 1.393 . S
C1246 H1238 0.950 . S
C1246 C1244 1.391 . S
C1246 C1247 1.400 . S
C1247 C1246 1.400 . S
C1247 C1248 1.398 . S
C1247 C1253 1.491 . S
C1248 H1239 0.950 . S
C1248 C1247 1.398 . S
C1248 C1249 1.391 . S
C1249 H1237 0.950 . S
C1249 C1245 1.393 . S
C1249 C1248 1.391 . S
C1250 H1240 0.950 . S
C1250 C1251 1.386 . S
C1250 C1252 1.391 . S
C1251 C1250 1.386 . S
C1251 C1255 1.393 . S
C1252 H1241 0.950 . S
C1252 C1250 1.391 . S
C1252 C1253 1.400 . S
C1253 C1247 1.491 . S
C1253 C1252 1.400 . S
C1253 C1254 1.398 . S
C1254 H1242 0.950 . S
C1254 C1253 1.398 . S
C1254 C1255 1.391 . S
C1255 H1243 0.950 . S
C1255 C1251 1.393 . S
C1255 C1254 1.391 . S
H1256 C1264 0.950 . S
H1257 C1269 0.950 . S
H1258 C1266 0.950 . S
H1259 C1268 0.950 . S
H1260 C1270 0.950 . S
H1261 C1272 0.950 . S
H1262 C1274 0.950 . S
H1263 C1275 0.950 . S
C1264 H1256 0.950 . S
C1264 C1265 1.386 . S
C1264 C1266 1.391 . S
C1265 C1264 1.386 . S
C1265 C1269 1.393 . S
C1266 H1258 0.950 . S
C1266 C1264 1.391 . S
C1266 C1267 1.408 1_565 S
C1267 C1266 1.408 1_545 S
C1267 C1268 1.360 1_545 S
C1267 C1273 1.520 . S
C1268 H1259 0.950 . S
C1268 C1267 1.360 1_565 S
C1268 C1269 1.391 . S
C1269 H1257 0.950 . S
C1269 C1265 1.393 . S
C1269 C1268 1.391 . S
C1270 H1260 0.950 . S
C1270 C1271 1.386 . S
C1270 C1272 1.391 . S
C1271 C1270 1.386 . S
C1271 C1275 1.393 . S
C1272 H1261 0.950 . S
C1272 C1270 1.391 . S
C1272 C1273 1.400 . S
C1273 C1267 1.520 . S
C1273 C1272 1.400 . S
C1273 C1274 1.398 . S
C1274 H1262 0.950 . S
C1274 C1273 1.398 . S
C1274 C1275 1.391 . S
C1275 H1263 0.950 . S
C1275 C1271 1.393 . S
C1275 C1274 1.391 . S
H1276 C1284 0.950 . S
H1277 C1289 0.950 . S
H1278 C1286 0.950 . S
H1279 C1288 0.950 . S
H1280 C1290 0.950 . S
H1281 C1292 0.950 . S
H1282 C1294 0.950 . S
H1283 C1295 0.950 . S
C1284 H1276 0.950 . S
C1284 C1285 1.386 . S
C1284 C1286 1.391 . S
C1285 C1284 1.386 . S
C1285 C1289 1.393 . S
C1286 H1278 0.950 . S
C1286 C1284 1.391 . S
C1286 C1287 1.400 . S
C1287 C1286 1.400 . S
C1287 C1288 1.398 . S
C1287 C1293 1.491 . S
C1288 H1279 0.950 . S
C1288 C1287 1.398 . S
C1288 C1289 1.391 . S
C1289 H1277 0.950 . S
C1289 C1285 1.393 . S
C1289 C1288 1.391 . S
C1290 H1280 0.950 . S
C1290 C1291 1.386 . S
C1290 C1292 1.391 1_455 S
C1291 C1290 1.386 . S
C1291 C1295 1.393 . S
C1292 H1281 0.950 . S
C1292 C1290 1.391 1_655 S
C1292 C1293 1.400 . S
C1293 C1287 1.491 . S
C1293 C1292 1.400 . S
C1293 C1294 1.398 1_655 S
C1294 H1282 0.950 . S
C1294 C1293 1.398 1_455 S
C1294 C1295 1.391 . S
C1295 H1283 0.950 . S
C1295 C1291 1.393 . S
C1295 C1294 1.391 . S
C765 C63 3.452 1_556 S
C771 C74 3.452 . S
C785 C158 3.468 . S
C791 C147 3.468 . S
C805 C231 3.498 . S
C811 C242 3.498 . S
C825 C326 3.453 . S
C831 C315 3.453 1_556 S
C845 C399 3.467 . S
C851 C410 3.467 1_556 S
C865 C494 3.491 . S
C871 C483 3.491 . S
C885 C573 2.135 . S
C891 C562 2.135 . S
C905 C646 2.254 . S
C911 C657 2.254 . S
C925 C741 1.607 . S
C931 C730 1.607 . S
C945 C476 1.645 . S
C951 C69 1.379 . S
C965 C140 2.125 . S
C971 C308 2.120 . S
C985 C237 1.072 . S
C991 C405 1.066 . S
C1005 C224 2.313 1_556 S
C1011 C571 2.319 . S
C1025 C662 1.520 . S
C1031 C56 1.525 . S
C1045 C739 1.267 . S
C1051 C153 1.248 . S
C1065 C735 0.990 . S
C1071 C58 0.967 1_556 S
C1085 C151 1.893 1_556 S
C1091 C567 1.874 . S
C1105 C644 1.794 . S
C1111 C226 1.745 . S
C1125 C235 1.651 . S
C1131 C310 1.403 . S
C1145 C403 2.122 . S
C1151 C67 2.118 . S
C1165 C142 1.028 . S
C1171 C478 1.018 . S
C1185 C746 0.983 . S
C1191 C321 0.963 . S
C1205 C578 1.875 . S
C1211 C392 1.890 . S
C1225 C655 1.793 . S
C1231 C489 1.744 . S
C1245 C560 2.313 . S
C1251 C487 2.308 . S
C1265 C319 1.519 . S
C1271 C651 1.529 . S
C1285 C728 1.273 . S
C1291 C394 1.238 . S
