12c_Eu_1
_audit_creation_date              2020-06-11
_audit_creation_method            'assign_MBBB_charges.py'
_symmetry_space_group_name_H-M    'P1'
_symmetry_Int_Tables_number       1
_symmetry_cell_setting            triclinic
loop_
_symmetry_equiv_pos_as_xyz
  x,y,z
_cell_length_a                    50.0000
_cell_length_b                    50.0000
_cell_length_c                    50.0000
_cell_angle_alpha                 90.0000
_cell_angle_beta                  90.0000
_cell_angle_gamma                 90.0000
loop_
_atom_site_label
_atom_site_type_symbol
_atom_site_fract_x
_atom_site_fract_y
_atom_site_fract_z
_atom_site_U_iso_or_equiv
_atom_site_adp_type
_atom_site_occupancy
_atom_site_charge
O1      O         0.42941      0.50000      0.46054      0.00000   Uiso   1.00     -0.79834
O2      O         0.57059      0.50000      0.46054      0.00000   Uiso   1.00     -0.81388
O3      O         0.50000      0.53946      0.42941      0.00000   Uiso   1.00     -0.78407
O4      O         0.50000      0.46054      0.42941      0.00000   Uiso   1.00     -0.76792
O5      O         0.50000      0.42941      0.46054      0.00000   Uiso   1.00     -0.78583
O6      O         0.50000      0.57059      0.46054      0.00000   Uiso   1.00     -0.79515
O7      O         0.53946      0.50000      0.42941      0.00000   Uiso   1.00     -0.80841
O8      O         0.46054      0.50000      0.42941      0.00000   Uiso   1.00     -0.81130
Eu9     Eu        0.50000      0.50000      0.45036      0.00000   Uiso   1.00      2.39202
O10     O         0.52322      0.47678      0.47678      0.00000   Uiso   1.00     -0.88640
O11     O         0.47678      0.52322      0.47678      0.00000   Uiso   1.00     -0.92244
X12     C         0.43641      0.50000      0.43641      0.00000   Uiso   1.00      1.02446
X13     C         0.56359      0.50000      0.43641      0.00000   Uiso   1.00      1.02265
X14     C         0.50000      0.56359      0.43641      0.00000   Uiso   1.00      1.02209
X15     C         0.50000      0.43641      0.43641      0.00000   Uiso   1.00      1.00067
H16     H         0.53726      0.53726      0.46274      0.00000   Uiso   1.00      0.29816
O17     O         0.52322      0.52322      0.47678      0.00000   Uiso   1.00     -1.01027
H18     H         0.46274      0.46274      0.46274      0.00000   Uiso   1.00      0.29850
O19     O         0.47678      0.47678      0.47678      0.00000   Uiso   1.00     -1.03569
O20     O         0.57059      0.50000      0.53946      0.00000   Uiso   1.00     -0.80795
O21     O         0.42941      0.50000      0.53946      0.00000   Uiso   1.00     -0.80333
O22     O         0.53946      0.57059      0.50000      0.00000   Uiso   1.00     -0.78770
O23     O         0.53946      0.42941      0.50000      0.00000   Uiso   1.00     -0.82110
O24     O         0.46054      0.42941      0.50000      0.00000   Uiso   1.00     -0.79966
O25     O         0.46054      0.57059      0.50000      0.00000   Uiso   1.00     -0.78614
O26     O         0.50000      0.53946      0.57059      0.00000   Uiso   1.00     -0.80136
O27     O         0.50000      0.46054      0.57059      0.00000   Uiso   1.00     -0.82059
O28     O         0.50000      0.57059      0.53946      0.00000   Uiso   1.00     -0.78798
O29     O         0.50000      0.42941      0.53946      0.00000   Uiso   1.00     -0.81474
O30     O         0.57059      0.53946      0.50000      0.00000   Uiso   1.00     -0.77208
O31     O         0.42941      0.53946      0.50000      0.00000   Uiso   1.00     -0.77241
O32     O         0.42941      0.46054      0.50000      0.00000   Uiso   1.00     -0.76886
O33     O         0.57059      0.46054      0.50000      0.00000   Uiso   1.00     -0.80382
O34     O         0.53946      0.50000      0.57059      0.00000   Uiso   1.00     -0.79807
O35     O         0.46054      0.50000      0.57059      0.00000   Uiso   1.00     -0.78134
Eu36    Eu        0.54964      0.50000      0.50000      0.00000   Uiso   1.00      2.39768
Eu37    Eu        0.45036      0.50000      0.50000      0.00000   Uiso   1.00      2.39573
Eu38    Eu        0.50000      0.54964      0.50000      0.00000   Uiso   1.00      2.38399
Eu39    Eu        0.50000      0.45036      0.50000      0.00000   Uiso   1.00      2.39879
Eu40    Eu        0.50000      0.50000      0.54964      0.00000   Uiso   1.00      2.39786
O41     O         0.47678      0.47678      0.52322      0.00000   Uiso   1.00     -0.92550
O42     O         0.52322      0.52322      0.52322      0.00000   Uiso   1.00     -0.91442
X43     C         0.56359      0.50000      0.56359      0.00000   Uiso   1.00      1.02620
X44     C         0.43641      0.50000      0.56359      0.00000   Uiso   1.00      1.01338
X45     C         0.56359      0.56359      0.50000      0.00000   Uiso   1.00      1.00728
X46     C         0.56359      0.43641      0.50000      0.00000   Uiso   1.00      1.02742
X47     C         0.43641      0.43641      0.50000      0.00000   Uiso   1.00      1.01659
X48     C         0.43641      0.56359      0.50000      0.00000   Uiso   1.00      1.00507
X49     C         0.50000      0.56359      0.56359      0.00000   Uiso   1.00      1.00565
X50     C         0.50000      0.43641      0.56359      0.00000   Uiso   1.00      1.03180
H51     H         0.46274      0.53726      0.53726      0.00000   Uiso   1.00      0.30551
O52     O         0.47678      0.52322      0.52322      0.00000   Uiso   1.00     -1.04711
H53     H         0.53726      0.46274      0.53726      0.00000   Uiso   1.00      0.32601
O54     O         0.52322      0.47678      0.52322      0.00000   Uiso   1.00     -1.07273
loop_
_geom_bond_atom_site_label_1
_geom_bond_atom_site_label_2
_geom_bond_distance
_geom_bond_site_symmetry_2
_ccdc_geom_bond_type
O1      X12        1.256 .   A  
O1      Eu37       2.234 .   S  
O2      X13        1.256 .   A  
O2      Eu36       2.234 .   S  
O3      Eu9        2.234 .   S  
O3      X14        1.256 .   A  
O4      X15        1.256 .   A  
O4      Eu9        2.234 .   S  
O5      X15        1.256 .   A  
O5      Eu39       2.234 .   S  
O6      X14        1.256 .   A  
O6      Eu38       2.234 .   S  
O7      Eu9        2.234 .   S  
O7      X13        1.256 .   A  
O8      X12        1.256 .   A  
O8      Eu9        2.234 .   S  
Eu9     O19        2.107 .   S  
Eu9     O11        2.107 .   S  
Eu9     O10        2.107 .   S  
Eu9     O17        2.107 .   S  
O10     Eu39       2.107 .   S  
O10     Eu36       2.107 .   S  
O11     Eu37       2.107 .   S  
O11     Eu38       2.107 .   S  
H16     O17        1.216 .   S  
O17     Eu38       2.107 .   S  
O17     Eu36       2.107 .   S  
H18     O19        1.216 .   S  
O19     Eu37       2.107 .   S  
O19     Eu39       2.107 .   S  
O20     Eu36       2.234 .   S  
O20     X43        1.256 .   A  
O21     Eu37       2.234 .   S  
O21     X44        1.256 .   A  
O22     Eu38       2.234 .   S  
O22     X45        1.256 .   A  
O23     X46        1.256 .   A  
O23     Eu39       2.234 .   S  
O24     X47        1.256 .   A  
O24     Eu39       2.234 .   S  
O25     X48        1.256 .   A  
O25     Eu38       2.234 .   S  
O26     Eu40       2.234 .   S  
O26     X49        1.256 .   A  
O27     X50        1.256 .   A  
O27     Eu40       2.234 .   S  
O28     Eu38       2.234 .   S  
O28     X49        1.256 .   A  
O29     Eu39       2.234 .   S  
O29     X50        1.256 .   A  
O30     Eu36       2.234 .   S  
O30     X45        1.256 .   A  
O31     Eu37       2.234 .   S  
O31     X48        1.256 .   A  
O32     X47        1.256 .   A  
O32     Eu37       2.234 .   S  
O33     X46        1.256 .   A  
O33     Eu36       2.234 .   S  
O34     Eu40       2.234 .   S  
O34     X43        1.256 .   A  
O35     X44        1.256 .   A  
O35     Eu40       2.234 .   S  
Eu36    O54        2.107 .   S  
Eu36    O42        2.107 .   S  
Eu37    O41        2.107 .   S  
Eu37    O52        2.107 .   S  
Eu38    O52        2.107 .   S  
Eu38    O42        2.107 .   S  
Eu39    O41        2.107 .   S  
Eu39    O54        2.107 .   S  
Eu40    O41        2.107 .   S  
Eu40    O52        2.107 .   S  
Eu40    O54        2.107 .   S  
Eu40    O42        2.107 .   S  
H51     O52        1.216 .   S  
H53     O54        1.216 .   S  
