4c_bicyclooctane
_audit_creation_date              2019-09-07
_audit_creation_method            'assign_MBBB_charges.py'
_symmetry_space_group_name_H-M    'P1'
_symmetry_Int_Tables_number       1
_symmetry_cell_setting            triclinic
loop_
_symmetry_equiv_pos_as_xyz
  x,y,z
_cell_length_a                    10.0000
_cell_length_b                    10.0000
_cell_length_c                    10.0000
_cell_angle_alpha                 90.0000
_cell_angle_beta                  90.0000
_cell_angle_gamma                 90.0000
loop_
_atom_site_label
_atom_site_type_symbol
_atom_site_fract_x
_atom_site_fract_y
_atom_site_fract_z
_atom_site_U_iso_or_equiv
_atom_site_adp_type
_atom_site_occupancy
_atom_site_charge
X1      C         0.03646      0.16558     -0.00879      0.00000   Uiso   1.00      0.86785
C2      C         0.11010      0.07373     -0.10815      0.00000   Uiso   1.00     -0.53453
X3      C         0.07606     -0.07638     -0.10149      0.00000   Uiso   1.00      0.09708
C4      C        -0.02608     -0.11912      0.00570      0.00000   Uiso   1.00      0.20660
C5      C        -0.11048      0.12577     -0.03264      0.00000   Uiso   1.00     -0.54174
X6      C        -0.14347     -0.02453     -0.02573      0.00000   Uiso   1.00      0.09813
C7      C         0.06586      0.09532      0.12505      0.00000   Uiso   1.00     -0.53709
X8      C         0.03203     -0.05475      0.13301      0.00000   Uiso   1.00      0.10382
H9      H         0.18534      0.11479     -0.18331      0.00000   Uiso   1.00      0.14899
H10     H        -0.05022     -0.23037      0.01149      0.00000   Uiso   1.00      0.00639
H11     H        -0.19075      0.20380     -0.05410      0.00000   Uiso   1.00      0.15203
H12     H         0.11059      0.15146      0.21361      0.00000   Uiso   1.00      0.14992
loop_
_geom_bond_atom_site_label_1
_geom_bond_atom_site_label_2
_geom_bond_distance
_geom_bond_site_symmetry_2
_ccdc_geom_bond_type
H9      C2         1.140 .   S  
H10     C4         1.140 .   S  
H11     C5         1.140 .   S  
H12     C7         1.140 .   S  
X8      C7         1.540 .   D  
X8      C4         1.540 .   S  
X3      C2         1.541 .   D  
X3      C4         1.541 .   S  
C2      X1         1.541 .   S  
X1      C7         1.540 .   S  
X1      C5         1.541 .   S  
X6      C5         1.540 .   D  
X6      C4         1.540 .   S  
