# Generated by pormake.
# Topology uod, (4)-cn, num edge types: 1
# Building blocks:
#     Node 0, Type 0, BuildingBlock: CEKHIL_clean_sbu_0, # of connection points: 4
#     Node 1, Type 0, BuildingBlock: CEKHIL_clean_sbu_0, # of connection points: 4
#     Node 2, Type 0, BuildingBlock: CEKHIL_clean_sbu_0, # of connection points: 4
#     Node 3, Type 0, BuildingBlock: CEKHIL_clean_sbu_0, # of connection points: 4
#     Node 4, Type 0, BuildingBlock: CEKHIL_clean_sbu_0, # of connection points: 4
#     Node 5, Type 0, BuildingBlock: CEKHIL_clean_sbu_0, # of connection points: 4
#     Node 6, Type 0, BuildingBlock: CEKHIL_clean_sbu_0, # of connection points: 4
#     Node 7, Type 0, BuildingBlock: CEKHIL_clean_sbu_0, # of connection points: 4
#     Node 8, Type 0, BuildingBlock: CEKHIL_clean_sbu_0, # of connection points: 4
#     Node 9, Type 0, BuildingBlock: CEKHIL_clean_sbu_0, # of connection points: 4
#     Node 10, Type 0, BuildingBlock: CEKHIL_clean_sbu_0, # of connection points: 4
#     Node 11, Type 0, BuildingBlock: CEKHIL_clean_sbu_0, # of connection points: 4
#     Node 12, Type 0, BuildingBlock: CEKHIL_clean_sbu_0, # of connection points: 4
#     Node 13, Type 0, BuildingBlock: CEKHIL_clean_sbu_0, # of connection points: 4
#     Node 14, Type 0, BuildingBlock: CEKHIL_clean_sbu_0, # of connection points: 4
#     Node 15, Type 0, BuildingBlock: CEKHIL_clean_sbu_0, # of connection points: 4
#     Node 16, Type 0, BuildingBlock: CEKHIL_clean_sbu_0, # of connection points: 4
#     Node 17, Type 0, BuildingBlock: CEKHIL_clean_sbu_0, # of connection points: 4
#     Node 18, Type 0, BuildingBlock: CEKHIL_clean_sbu_0, # of connection points: 4
#     Node 19, Type 0, BuildingBlock: CEKHIL_clean_sbu_0, # of connection points: 4
#     Node 20, Type 0, BuildingBlock: CEKHIL_clean_sbu_0, # of connection points: 4
#     Node 21, Type 0, BuildingBlock: CEKHIL_clean_sbu_0, # of connection points: 4
#     Node 22, Type 0, BuildingBlock: CEKHIL_clean_sbu_0, # of connection points: 4
#     Node 23, Type 0, BuildingBlock: CEKHIL_clean_sbu_0, # of connection points: 4
#     Node 24, Type 0, BuildingBlock: CEKHIL_clean_sbu_0, # of connection points: 4
#     Node 25, Type 0, BuildingBlock: CEKHIL_clean_sbu_0, # of connection points: 4
#     Node 26, Type 0, BuildingBlock: CEKHIL_clean_sbu_0, # of connection points: 4
#     Node 27, Type 0, BuildingBlock: CEKHIL_clean_sbu_0, # of connection points: 4
#     Node 28, Type 0, BuildingBlock: CEKHIL_clean_sbu_0, # of connection points: 4
#     Node 29, Type 0, BuildingBlock: CEKHIL_clean_sbu_0, # of connection points: 4
#     Node 30, Type 0, BuildingBlock: CEKHIL_clean_sbu_0, # of connection points: 4
#     Node 31, Type 0, BuildingBlock: CEKHIL_clean_sbu_0, # of connection points: 4
#     Edge 32, Type (0, 0), BuildingBlock: TEMPAE_clean_linker_10, # of connection points: 2
#     Edge 33, Type (0, 0), BuildingBlock: TEMPAE_clean_linker_10, # of connection points: 2
#     Edge 34, Type (0, 0), BuildingBlock: TEMPAE_clean_linker_10, # of connection points: 2
#     Edge 35, Type (0, 0), BuildingBlock: TEMPAE_clean_linker_10, # of connection points: 2
#     Edge 36, Type (0, 0), BuildingBlock: TEMPAE_clean_linker_10, # of connection points: 2
#     Edge 37, Type (0, 0), BuildingBlock: TEMPAE_clean_linker_10, # of connection points: 2
#     Edge 38, Type (0, 0), BuildingBlock: TEMPAE_clean_linker_10, # of connection points: 2
#     Edge 39, Type (0, 0), BuildingBlock: TEMPAE_clean_linker_10, # of connection points: 2
#     Edge 40, Type (0, 0), BuildingBlock: TEMPAE_clean_linker_10, # of connection points: 2
#     Edge 41, Type (0, 0), BuildingBlock: TEMPAE_clean_linker_10, # of connection points: 2
#     Edge 42, Type (0, 0), BuildingBlock: TEMPAE_clean_linker_10, # of connection points: 2
#     Edge 43, Type (0, 0), BuildingBlock: TEMPAE_clean_linker_10, # of connection points: 2
#     Edge 44, Type (0, 0), BuildingBlock: TEMPAE_clean_linker_10, # of connection points: 2
#     Edge 45, Type (0, 0), BuildingBlock: TEMPAE_clean_linker_10, # of connection points: 2
#     Edge 46, Type (0, 0), BuildingBlock: TEMPAE_clean_linker_10, # of connection points: 2
#     Edge 47, Type (0, 0), BuildingBlock: TEMPAE_clean_linker_10, # of connection points: 2
#     Edge 48, Type (0, 0), BuildingBlock: TEMPAE_clean_linker_10, # of connection points: 2
#     Edge 49, Type (0, 0), BuildingBlock: TEMPAE_clean_linker_10, # of connection points: 2
#     Edge 50, Type (0, 0), BuildingBlock: TEMPAE_clean_linker_10, # of connection points: 2
#     Edge 51, Type (0, 0), BuildingBlock: TEMPAE_clean_linker_10, # of connection points: 2
#     Edge 52, Type (0, 0), BuildingBlock: TEMPAE_clean_linker_10, # of connection points: 2
#     Edge 53, Type (0, 0), BuildingBlock: TEMPAE_clean_linker_10, # of connection points: 2
#     Edge 54, Type (0, 0), BuildingBlock: TEMPAE_clean_linker_10, # of connection points: 2
#     Edge 55, Type (0, 0), BuildingBlock: TEMPAE_clean_linker_10, # of connection points: 2
#     Edge 56, Type (0, 0), BuildingBlock: TEMPAE_clean_linker_10, # of connection points: 2
#     Edge 57, Type (0, 0), BuildingBlock: TEMPAE_clean_linker_10, # of connection points: 2
#     Edge 58, Type (0, 0), BuildingBlock: TEMPAE_clean_linker_10, # of connection points: 2
#     Edge 59, Type (0, 0), BuildingBlock: TEMPAE_clean_linker_10, # of connection points: 2
#     Edge 60, Type (0, 0), BuildingBlock: TEMPAE_clean_linker_10, # of connection points: 2
#     Edge 61, Type (0, 0), BuildingBlock: TEMPAE_clean_linker_10, # of connection points: 2
#     Edge 62, Type (0, 0), BuildingBlock: TEMPAE_clean_linker_10, # of connection points: 2
#     Edge 63, Type (0, 0), BuildingBlock: TEMPAE_clean_linker_10, # of connection points: 2
#     Edge 64, Type (0, 0), BuildingBlock: TEMPAE_clean_linker_10, # of connection points: 2
#     Edge 65, Type (0, 0), BuildingBlock: TEMPAE_clean_linker_10, # of connection points: 2
#     Edge 66, Type (0, 0), BuildingBlock: TEMPAE_clean_linker_10, # of connection points: 2
#     Edge 67, Type (0, 0), BuildingBlock: TEMPAE_clean_linker_10, # of connection points: 2
#     Edge 68, Type (0, 0), BuildingBlock: TEMPAE_clean_linker_10, # of connection points: 2
#     Edge 69, Type (0, 0), BuildingBlock: TEMPAE_clean_linker_10, # of connection points: 2
#     Edge 70, Type (0, 0), BuildingBlock: TEMPAE_clean_linker_10, # of connection points: 2
#     Edge 71, Type (0, 0), BuildingBlock: TEMPAE_clean_linker_10, # of connection points: 2
#     Edge 72, Type (0, 0), BuildingBlock: TEMPAE_clean_linker_10, # of connection points: 2
#     Edge 73, Type (0, 0), BuildingBlock: TEMPAE_clean_linker_10, # of connection points: 2
#     Edge 74, Type (0, 0), BuildingBlock: TEMPAE_clean_linker_10, # of connection points: 2
#     Edge 75, Type (0, 0), BuildingBlock: TEMPAE_clean_linker_10, # of connection points: 2
#     Edge 76, Type (0, 0), BuildingBlock: TEMPAE_clean_linker_10, # of connection points: 2
#     Edge 77, Type (0, 0), BuildingBlock: TEMPAE_clean_linker_10, # of connection points: 2
#     Edge 78, Type (0, 0), BuildingBlock: TEMPAE_clean_linker_10, # of connection points: 2
#     Edge 79, Type (0, 0), BuildingBlock: TEMPAE_clean_linker_10, # of connection points: 2
#     Edge 80, Type (0, 0), BuildingBlock: TEMPAE_clean_linker_10, # of connection points: 2
#     Edge 81, Type (0, 0), BuildingBlock: TEMPAE_clean_linker_10, # of connection points: 2
#     Edge 82, Type (0, 0), BuildingBlock: TEMPAE_clean_linker_10, # of connection points: 2
#     Edge 83, Type (0, 0), BuildingBlock: TEMPAE_clean_linker_10, # of connection points: 2
#     Edge 84, Type (0, 0), BuildingBlock: TEMPAE_clean_linker_10, # of connection points: 2
#     Edge 85, Type (0, 0), BuildingBlock: TEMPAE_clean_linker_10, # of connection points: 2
#     Edge 86, Type (0, 0), BuildingBlock: TEMPAE_clean_linker_10, # of connection points: 2
#     Edge 87, Type (0, 0), BuildingBlock: TEMPAE_clean_linker_10, # of connection points: 2
#     Edge 88, Type (0, 0), BuildingBlock: TEMPAE_clean_linker_10, # of connection points: 2
#     Edge 89, Type (0, 0), BuildingBlock: TEMPAE_clean_linker_10, # of connection points: 2
#     Edge 90, Type (0, 0), BuildingBlock: TEMPAE_clean_linker_10, # of connection points: 2
#     Edge 91, Type (0, 0), BuildingBlock: TEMPAE_clean_linker_10, # of connection points: 2
#     Edge 92, Type (0, 0), BuildingBlock: TEMPAE_clean_linker_10, # of connection points: 2
#     Edge 93, Type (0, 0), BuildingBlock: TEMPAE_clean_linker_10, # of connection points: 2
#     Edge 94, Type (0, 0), BuildingBlock: TEMPAE_clean_linker_10, # of connection points: 2
#     Edge 95, Type (0, 0), BuildingBlock: TEMPAE_clean_linker_10, # of connection points: 2
# Relax obj value: 0.167
# Max RMSD: 0.163
# Mean RMSD: 0.163
data_MOF--net-uod--node1-CEKHIL_clean_sbu_0--edge1-TEMPAE_clean_linker_10
_symmetry_space_group_name_H-M    P1
_symmetry_Int_Tables_number       1
_symmetry_cell_setting            triclinic
loop_
_symmetry_equiv_pos_as_xyz
'x, y, z'
_cell_length_a     94.399
_cell_length_b     26.212
_cell_length_c     60.981
_cell_angle_alpha  90.000
_cell_angle_beta   90.014
_cell_angle_gamma  90.000
loop_
_atom_site_label
_atom_site_type_symbol
_atom_site_fract_x
_atom_site_fract_y
_atom_site_fract_z
_atom_type_partial_charge
Co0 Co 0.04468 0.39558 0.09109 0.0
O1 O 0.02266 0.40497 0.07914 0.0
O2 O 0.04145 0.41373 0.05807 0.0
C3 C 0.03893 0.31140 0.10903 0.0
O4 O 0.06587 0.39113 0.09168 0.0
Co5 Co 0.05119 0.38633 0.14719 0.0
O6 O 0.06898 0.39346 0.12784 0.0
C7 C 0.04085 0.48045 0.12253 0.0
C8 C 0.02822 0.41385 0.06099 0.0
C9 C 0.07336 0.39287 0.10876 0.0
O10 O 0.04350 0.46690 0.10353 0.0
O11 O 0.04110 0.45312 0.13915 0.0
O12 O 0.04140 0.31504 0.08900 0.0
O13 O 0.03963 0.35044 0.12136 0.0
Co14 Co 0.20532 0.85437 0.09108 0.0
O15 O 0.22733 0.84499 0.07914 0.0
O16 O 0.20854 0.83623 0.05807 0.0
C17 C 0.21107 0.93855 0.10903 0.0
O18 O 0.18412 0.85882 0.09167 0.0
Co19 Co 0.19882 0.86361 0.14719 0.0
O20 O 0.18102 0.85648 0.12783 0.0
C21 C 0.20915 0.76950 0.12253 0.0
C22 C 0.22177 0.83611 0.06099 0.0
C23 C 0.17664 0.85708 0.10875 0.0
O24 O 0.20650 0.78305 0.10353 0.0
O25 O 0.20890 0.79683 0.13915 0.0
O26 O 0.20859 0.93492 0.08900 0.0
O27 O 0.21037 0.89951 0.12136 0.0
Co28 Co 0.04469 0.85438 0.15893 0.0
O29 O 0.02267 0.84499 0.17087 0.0
O30 O 0.04146 0.83623 0.19194 0.0
C31 C 0.03893 0.93855 0.14098 0.0
O32 O 0.06588 0.85883 0.15834 0.0
Co33 Co 0.05119 0.86361 0.10282 0.0
O34 O 0.06898 0.85649 0.12218 0.0
C35 C 0.04085 0.76950 0.12748 0.0
C36 C 0.02823 0.83612 0.18902 0.0
C37 C 0.07336 0.85708 0.14126 0.0
O38 O 0.04351 0.78305 0.14648 0.0
O39 O 0.04110 0.79683 0.11086 0.0
O40 O 0.04141 0.93492 0.16100 0.0
O41 O 0.03963 0.89951 0.12865 0.0
Co42 Co 0.20533 0.39558 0.15891 0.0
O43 O 0.22734 0.40497 0.17086 0.0
O44 O 0.20856 0.41374 0.19192 0.0
C45 C 0.21108 0.31140 0.14096 0.0
O46 O 0.18413 0.39113 0.15831 0.0
Co47 Co 0.19882 0.38634 0.10280 0.0
O48 O 0.18102 0.39347 0.12215 0.0
C49 C 0.20915 0.48045 0.12746 0.0
C50 C 0.22178 0.41385 0.18900 0.0
C51 C 0.17665 0.39287 0.14123 0.0
O52 O 0.20650 0.46691 0.14646 0.0
O53 O 0.20890 0.45312 0.11084 0.0
O54 O 0.20860 0.31504 0.16099 0.0
O55 O 0.21037 0.35044 0.12863 0.0
Co56 Co 0.95532 0.60442 0.90891 0.0
O57 O 0.97734 0.59503 0.92086 0.0
O58 O 0.95855 0.58627 0.94193 0.0
C59 C 0.96107 0.68860 0.89097 0.0
O60 O 0.93412 0.60887 0.90832 0.0
Co61 Co 0.94881 0.61367 0.85281 0.0
O62 O 0.93102 0.60654 0.87216 0.0
C63 C 0.95915 0.51955 0.87747 0.0
C64 C 0.97178 0.58615 0.93901 0.0
C65 C 0.92664 0.60713 0.89124 0.0
O66 O 0.95650 0.53310 0.89647 0.0
O67 O 0.95889 0.54688 0.86085 0.0
O68 O 0.95859 0.68496 0.91100 0.0
O69 O 0.96037 0.64956 0.87864 0.0
Co70 Co 0.79468 0.14563 0.90892 0.0
O71 O 0.77266 0.15501 0.92086 0.0
O72 O 0.79146 0.16377 0.94193 0.0
C73 C 0.78893 0.06145 0.89097 0.0
O74 O 0.81587 0.14118 0.90833 0.0
Co75 Co 0.80118 0.13639 0.85282 0.0
O76 O 0.81898 0.14352 0.87217 0.0
C77 C 0.79085 0.23050 0.87747 0.0
C78 C 0.77823 0.16389 0.93901 0.0
C79 C 0.82335 0.14292 0.89125 0.0
O80 O 0.79350 0.21695 0.89648 0.0
O81 O 0.79109 0.20317 0.86085 0.0
O82 O 0.79141 0.06508 0.91100 0.0
O83 O 0.78963 0.10049 0.87864 0.0
Co84 Co 0.95532 0.14562 0.84107 0.0
O85 O 0.97733 0.15501 0.82913 0.0
O86 O 0.95854 0.16377 0.80806 0.0
C87 C 0.96107 0.06145 0.85902 0.0
O88 O 0.93412 0.14118 0.84166 0.0
Co89 Co 0.94882 0.13639 0.89718 0.0
O90 O 0.93102 0.14351 0.87782 0.0
C91 C 0.95915 0.23050 0.87252 0.0
C92 C 0.97177 0.16388 0.81098 0.0
C93 C 0.92664 0.14292 0.85874 0.0
O94 O 0.95650 0.21695 0.85352 0.0
O95 O 0.95890 0.20317 0.88914 0.0
O96 O 0.95859 0.06508 0.83899 0.0
O97 O 0.96037 0.10049 0.87135 0.0
Co98 Co 0.79468 0.60442 0.84109 0.0
O99 O 0.77266 0.59503 0.82914 0.0
O100 O 0.79145 0.58626 0.80808 0.0
C101 C 0.78893 0.68860 0.85904 0.0
O102 O 0.81587 0.60887 0.84169 0.0
Co103 Co 0.80119 0.61366 0.89720 0.0
O104 O 0.81898 0.60653 0.87785 0.0
C105 C 0.79085 0.51955 0.87254 0.0
C106 C 0.77822 0.58615 0.81100 0.0
C107 C 0.82335 0.60713 0.85877 0.0
O108 O 0.79350 0.53309 0.85354 0.0
O109 O 0.79110 0.54688 0.88916 0.0
O110 O 0.79140 0.68496 0.83901 0.0
O111 O 0.78963 0.64956 0.87137 0.0
Co112 Co 0.04468 0.89558 0.59109 0.0
O113 O 0.02266 0.90497 0.57914 0.0
O114 O 0.04145 0.91373 0.55807 0.0
C115 C 0.03893 0.81140 0.60903 0.0
O116 O 0.06587 0.89113 0.59168 0.0
Co117 Co 0.05119 0.88633 0.64719 0.0
O118 O 0.06898 0.89346 0.62784 0.0
C119 C 0.04085 0.98045 0.62253 0.0
C120 C 0.02822 0.91385 0.56099 0.0
C121 C 0.07336 0.89287 0.60876 0.0
O122 O 0.04350 0.96690 0.60353 0.0
O123 O 0.04111 0.95312 0.63915 0.0
O124 O 0.04141 0.81504 0.58900 0.0
O125 O 0.03963 0.85044 0.62136 0.0
Co126 Co 0.20532 0.35437 0.59108 0.0
O127 O 0.22733 0.34499 0.57914 0.0
O128 O 0.20854 0.33623 0.55807 0.0
C129 C 0.21107 0.43855 0.60903 0.0
O130 O 0.18412 0.35882 0.59167 0.0
Co131 Co 0.19882 0.36361 0.64718 0.0
O132 O 0.18102 0.35648 0.62783 0.0
C133 C 0.20915 0.26950 0.62253 0.0
C134 C 0.22177 0.33611 0.56099 0.0
C135 C 0.17664 0.35708 0.60875 0.0
O136 O 0.20650 0.28305 0.60353 0.0
O137 O 0.20890 0.29683 0.63915 0.0
O138 O 0.20859 0.43492 0.58900 0.0
O139 O 0.21037 0.39951 0.62136 0.0
Co140 Co 0.04469 0.35438 0.65893 0.0
O141 O 0.02267 0.34499 0.67087 0.0
O142 O 0.04146 0.33623 0.69194 0.0
C143 C 0.03893 0.43855 0.64098 0.0
O144 O 0.06588 0.35882 0.65834 0.0
Co145 Co 0.05119 0.36361 0.60282 0.0
O146 O 0.06898 0.35649 0.62218 0.0
C147 C 0.04085 0.26950 0.62748 0.0
C148 C 0.02823 0.33612 0.68902 0.0
C149 C 0.07336 0.35708 0.64126 0.0
O150 O 0.04350 0.28305 0.64648 0.0
O151 O 0.04110 0.29683 0.61086 0.0
O152 O 0.04141 0.43492 0.66100 0.0
O153 O 0.03963 0.39951 0.62865 0.0
Co154 Co 0.20533 0.89558 0.65891 0.0
O155 O 0.22734 0.90497 0.67086 0.0
O156 O 0.20856 0.91374 0.69192 0.0
C157 C 0.21108 0.81140 0.64096 0.0
O158 O 0.18413 0.89113 0.65831 0.0
Co159 Co 0.19881 0.88634 0.60280 0.0
O160 O 0.18102 0.89347 0.62215 0.0
C161 C 0.20915 0.98045 0.62746 0.0
C162 C 0.22178 0.91385 0.68900 0.0
C163 C 0.17665 0.89287 0.64123 0.0
O164 O 0.20650 0.96691 0.64646 0.0
O165 O 0.20890 0.95312 0.61084 0.0
O166 O 0.20860 0.81504 0.66099 0.0
O167 O 0.21037 0.85044 0.62863 0.0
Co168 Co 0.95532 0.10442 0.40891 0.0
O169 O 0.97734 0.09503 0.42086 0.0
O170 O 0.95855 0.08627 0.44193 0.0
C171 C 0.96107 0.18860 0.39097 0.0
O172 O 0.93412 0.10887 0.40832 0.0
Co173 Co 0.94881 0.11367 0.35281 0.0
O174 O 0.93102 0.10654 0.37216 0.0
C175 C 0.95915 0.01955 0.37747 0.0
C176 C 0.97178 0.08615 0.43901 0.0
C177 C 0.92664 0.10713 0.39124 0.0
O178 O 0.95650 0.03310 0.39647 0.0
O179 O 0.95889 0.04688 0.36085 0.0
O180 O 0.95859 0.18496 0.41100 0.0
O181 O 0.96037 0.14956 0.37864 0.0
Co182 Co 0.79468 0.64563 0.40892 0.0
O183 O 0.77266 0.65501 0.42086 0.0
O184 O 0.79146 0.66377 0.44193 0.0
C185 C 0.78893 0.56145 0.39097 0.0
O186 O 0.81588 0.64118 0.40833 0.0
Co187 Co 0.80118 0.63639 0.35282 0.0
O188 O 0.81898 0.64352 0.37217 0.0
C189 C 0.79085 0.73050 0.37747 0.0
C190 C 0.77823 0.66389 0.43901 0.0
C191 C 0.82335 0.64292 0.39125 0.0
O192 O 0.79350 0.71695 0.39648 0.0
O193 O 0.79110 0.70317 0.36085 0.0
O194 O 0.79141 0.56508 0.41100 0.0
O195 O 0.78963 0.60049 0.37864 0.0
Co196 Co 0.95532 0.64562 0.34107 0.0
O197 O 0.97733 0.65501 0.32913 0.0
O198 O 0.95854 0.66377 0.30806 0.0
C199 C 0.96107 0.56145 0.35902 0.0
O200 O 0.93412 0.64117 0.34166 0.0
Co201 Co 0.94881 0.63639 0.39718 0.0
O202 O 0.93102 0.64351 0.37782 0.0
C203 C 0.95915 0.73050 0.37252 0.0
C204 C 0.97177 0.66388 0.31098 0.0
C205 C 0.92664 0.64292 0.35874 0.0
O206 O 0.95650 0.71695 0.35352 0.0
O207 O 0.95890 0.70317 0.38914 0.0
O208 O 0.95859 0.56508 0.33900 0.0
O209 O 0.96037 0.60049 0.37135 0.0
Co210 Co 0.79468 0.10442 0.34109 0.0
O211 O 0.77266 0.09503 0.32914 0.0
O212 O 0.79145 0.08626 0.30808 0.0
C213 C 0.78893 0.18860 0.35904 0.0
O214 O 0.81587 0.10887 0.34169 0.0
Co215 Co 0.80119 0.11366 0.39720 0.0
O216 O 0.81898 0.10653 0.37785 0.0
C217 C 0.79085 0.01955 0.37254 0.0
C218 C 0.77822 0.08615 0.31100 0.0
C219 C 0.82335 0.10713 0.35877 0.0
O220 O 0.79350 0.03309 0.35354 0.0
O221 O 0.79110 0.04688 0.38916 0.0
O222 O 0.79140 0.18496 0.33901 0.0
O223 O 0.78963 0.14956 0.37137 0.0
Co224 Co 0.54468 0.39558 0.59109 0.0
O225 O 0.52266 0.40497 0.57914 0.0
O226 O 0.54145 0.41373 0.55807 0.0
C227 C 0.53893 0.31140 0.60903 0.0
O228 O 0.56587 0.39113 0.59168 0.0
Co229 Co 0.55119 0.38633 0.64719 0.0
O230 O 0.56898 0.39346 0.62784 0.0
C231 C 0.54085 0.48045 0.62253 0.0
C232 C 0.52822 0.41385 0.56099 0.0
C233 C 0.57336 0.39287 0.60876 0.0
O234 O 0.54350 0.46690 0.60353 0.0
O235 O 0.54111 0.45312 0.63915 0.0
O236 O 0.54141 0.31504 0.58900 0.0
O237 O 0.53963 0.35044 0.62136 0.0
Co238 Co 0.70532 0.85437 0.59108 0.0
O239 O 0.72733 0.84499 0.57914 0.0
O240 O 0.70854 0.83623 0.55807 0.0
C241 C 0.71107 0.93855 0.60903 0.0
O242 O 0.68412 0.85882 0.59167 0.0
Co243 Co 0.69882 0.86361 0.64719 0.0
O244 O 0.68102 0.85648 0.62783 0.0
C245 C 0.70915 0.76950 0.62253 0.0
C246 C 0.72177 0.83611 0.56099 0.0
C247 C 0.67664 0.85708 0.60875 0.0
O248 O 0.70650 0.78305 0.60353 0.0
O249 O 0.70890 0.79683 0.63915 0.0
O250 O 0.70859 0.93492 0.58900 0.0
O251 O 0.71037 0.89951 0.62136 0.0
Co252 Co 0.54469 0.85438 0.65893 0.0
O253 O 0.52267 0.84499 0.67087 0.0
O254 O 0.54146 0.83623 0.69194 0.0
C255 C 0.53893 0.93855 0.64098 0.0
O256 O 0.56588 0.85882 0.65834 0.0
Co257 Co 0.55119 0.86361 0.60282 0.0
O258 O 0.56898 0.85649 0.62218 0.0
C259 C 0.54085 0.76950 0.62748 0.0
C260 C 0.52823 0.83612 0.68902 0.0
C261 C 0.57336 0.85708 0.64126 0.0
O262 O 0.54350 0.78305 0.64648 0.0
O263 O 0.54110 0.79683 0.61086 0.0
O264 O 0.54141 0.93492 0.66100 0.0
O265 O 0.53963 0.89951 0.62865 0.0
Co266 Co 0.70533 0.39558 0.65891 0.0
O267 O 0.72734 0.40497 0.67086 0.0
O268 O 0.70856 0.41374 0.69192 0.0
C269 C 0.71108 0.31140 0.64096 0.0
O270 O 0.68413 0.39113 0.65831 0.0
Co271 Co 0.69881 0.38634 0.60280 0.0
O272 O 0.68102 0.39347 0.62215 0.0
C273 C 0.70915 0.48045 0.62746 0.0
C274 C 0.72178 0.41385 0.68900 0.0
C275 C 0.67665 0.39287 0.64123 0.0
O276 O 0.70650 0.46691 0.64646 0.0
O277 O 0.70890 0.45312 0.61084 0.0
O278 O 0.70860 0.31504 0.66099 0.0
O279 O 0.71037 0.35044 0.62863 0.0
Co280 Co 0.45532 0.60442 0.40891 0.0
O281 O 0.47734 0.59503 0.42086 0.0
O282 O 0.45855 0.58627 0.44193 0.0
C283 C 0.46107 0.68860 0.39097 0.0
O284 O 0.43413 0.60887 0.40832 0.0
Co285 Co 0.44881 0.61367 0.35281 0.0
O286 O 0.43102 0.60654 0.37216 0.0
C287 C 0.45915 0.51955 0.37747 0.0
C288 C 0.47178 0.58615 0.43901 0.0
C289 C 0.42664 0.60713 0.39124 0.0
O290 O 0.45650 0.53310 0.39647 0.0
O291 O 0.45889 0.54688 0.36085 0.0
O292 O 0.45859 0.68496 0.41100 0.0
O293 O 0.46037 0.64956 0.37864 0.0
Co294 Co 0.29468 0.14563 0.40892 0.0
O295 O 0.27266 0.15501 0.42086 0.0
O296 O 0.29146 0.16377 0.44193 0.0
C297 C 0.28893 0.06145 0.39097 0.0
O298 O 0.31588 0.14118 0.40833 0.0
Co299 Co 0.30118 0.13639 0.35282 0.0
O300 O 0.31898 0.14352 0.37217 0.0
C301 C 0.29085 0.23050 0.37747 0.0
C302 C 0.27823 0.16389 0.43901 0.0
C303 C 0.32335 0.14292 0.39125 0.0
O304 O 0.29350 0.21695 0.39648 0.0
O305 O 0.29109 0.20317 0.36085 0.0
O306 O 0.29141 0.06508 0.41100 0.0
O307 O 0.28963 0.10049 0.37864 0.0
Co308 Co 0.45532 0.14562 0.34107 0.0
O309 O 0.47733 0.15501 0.32913 0.0
O310 O 0.45854 0.16377 0.30806 0.0
C311 C 0.46107 0.06145 0.35902 0.0
O312 O 0.43412 0.14118 0.34166 0.0
Co313 Co 0.44881 0.13639 0.39718 0.0
O314 O 0.43102 0.14351 0.37782 0.0
C315 C 0.45915 0.23050 0.37252 0.0
C316 C 0.47177 0.16388 0.31098 0.0
C317 C 0.42664 0.14292 0.35874 0.0
O318 O 0.45650 0.21695 0.35352 0.0
O319 O 0.45890 0.20317 0.38914 0.0
O320 O 0.45859 0.06508 0.33900 0.0
O321 O 0.46037 0.10049 0.37135 0.0
Co322 Co 0.29468 0.60442 0.34109 0.0
O323 O 0.27266 0.59503 0.32914 0.0
O324 O 0.29145 0.58626 0.30808 0.0
C325 C 0.28893 0.68860 0.35904 0.0
O326 O 0.31587 0.60887 0.34169 0.0
Co327 Co 0.30119 0.61366 0.39720 0.0
O328 O 0.31898 0.60653 0.37785 0.0
C329 C 0.29085 0.51955 0.37254 0.0
C330 C 0.27822 0.58615 0.31100 0.0
C331 C 0.32335 0.60713 0.35877 0.0
O332 O 0.29350 0.53309 0.35354 0.0
O333 O 0.29110 0.54688 0.38916 0.0
O334 O 0.29140 0.68496 0.33901 0.0
O335 O 0.28963 0.64956 0.37137 0.0
Co336 Co 0.54468 0.89558 0.09109 0.0
O337 O 0.52266 0.90497 0.07914 0.0
O338 O 0.54145 0.91373 0.05807 0.0
C339 C 0.53893 0.81140 0.10903 0.0
O340 O 0.56587 0.89113 0.09168 0.0
Co341 Co 0.55119 0.88633 0.14719 0.0
O342 O 0.56898 0.89346 0.12784 0.0
C343 C 0.54085 0.98045 0.12253 0.0
C344 C 0.52822 0.91385 0.06099 0.0
C345 C 0.57336 0.89287 0.10876 0.0
O346 O 0.54350 0.96690 0.10353 0.0
O347 O 0.54111 0.95312 0.13915 0.0
O348 O 0.54141 0.81504 0.08900 0.0
O349 O 0.53963 0.85044 0.12136 0.0
Co350 Co 0.70532 0.35437 0.09108 0.0
O351 O 0.72733 0.34499 0.07914 0.0
O352 O 0.70854 0.33623 0.05807 0.0
C353 C 0.71107 0.43855 0.10903 0.0
O354 O 0.68412 0.35882 0.09167 0.0
Co355 Co 0.69882 0.36361 0.14719 0.0
O356 O 0.68102 0.35648 0.12783 0.0
C357 C 0.70915 0.26950 0.12253 0.0
C358 C 0.72177 0.33611 0.06099 0.0
C359 C 0.67664 0.35708 0.10875 0.0
O360 O 0.70650 0.28305 0.10353 0.0
O361 O 0.70890 0.29683 0.13915 0.0
O362 O 0.70859 0.43492 0.08900 0.0
O363 O 0.71037 0.39951 0.12136 0.0
Co364 Co 0.54469 0.35438 0.15893 0.0
O365 O 0.52267 0.34499 0.17087 0.0
O366 O 0.54146 0.33623 0.19194 0.0
C367 C 0.53893 0.43855 0.14098 0.0
O368 O 0.56588 0.35883 0.15834 0.0
Co369 Co 0.55119 0.36361 0.10282 0.0
O370 O 0.56898 0.35649 0.12218 0.0
C371 C 0.54085 0.26950 0.12748 0.0
C372 C 0.52823 0.33612 0.18902 0.0
C373 C 0.57336 0.35708 0.14126 0.0
O374 O 0.54350 0.28305 0.14648 0.0
O375 O 0.54110 0.29683 0.11086 0.0
O376 O 0.54141 0.43492 0.16100 0.0
O377 O 0.53963 0.39951 0.12865 0.0
Co378 Co 0.70533 0.89558 0.15891 0.0
O379 O 0.72734 0.90497 0.17086 0.0
O380 O 0.70856 0.91374 0.19192 0.0
C381 C 0.71108 0.81140 0.14096 0.0
O382 O 0.68413 0.89113 0.15831 0.0
Co383 Co 0.69881 0.88634 0.10280 0.0
O384 O 0.68102 0.89347 0.12215 0.0
C385 C 0.70915 0.98045 0.12746 0.0
C386 C 0.72178 0.91385 0.18900 0.0
C387 C 0.67665 0.89287 0.14123 0.0
O388 O 0.70650 0.96691 0.14646 0.0
O389 O 0.70890 0.95312 0.11084 0.0
O390 O 0.70860 0.81504 0.16099 0.0
O391 O 0.71037 0.85044 0.12863 0.0
Co392 Co 0.45532 0.10442 0.90891 0.0
O393 O 0.47734 0.09503 0.92086 0.0
O394 O 0.45855 0.08627 0.94193 0.0
C395 C 0.46107 0.18860 0.89097 0.0
O396 O 0.43412 0.10887 0.90832 0.0
Co397 Co 0.44881 0.11367 0.85281 0.0
O398 O 0.43101 0.10654 0.87216 0.0
C399 C 0.45915 0.01955 0.87747 0.0
C400 C 0.47178 0.08615 0.93901 0.0
C401 C 0.42664 0.10713 0.89124 0.0
O402 O 0.45650 0.03310 0.89647 0.0
O403 O 0.45889 0.04688 0.86085 0.0
O404 O 0.45859 0.18496 0.91100 0.0
O405 O 0.46037 0.14956 0.87864 0.0
Co406 Co 0.29468 0.64563 0.90892 0.0
O407 O 0.27266 0.65501 0.92086 0.0
O408 O 0.29146 0.66377 0.94193 0.0
C409 C 0.28893 0.56145 0.89097 0.0
O410 O 0.31587 0.64118 0.90833 0.0
Co411 Co 0.30118 0.63639 0.85282 0.0
O412 O 0.31898 0.64352 0.87217 0.0
C413 C 0.29085 0.73050 0.87747 0.0
C414 C 0.27823 0.66389 0.93901 0.0
C415 C 0.32335 0.64292 0.89125 0.0
O416 O 0.29350 0.71695 0.89648 0.0
O417 O 0.29109 0.70317 0.86085 0.0
O418 O 0.29141 0.56508 0.91100 0.0
O419 O 0.28963 0.60049 0.87864 0.0
Co420 Co 0.45532 0.64562 0.84107 0.0
O421 O 0.47733 0.65501 0.82913 0.0
O422 O 0.45854 0.66377 0.80806 0.0
C423 C 0.46107 0.56145 0.85902 0.0
O424 O 0.43412 0.64118 0.84166 0.0
Co425 Co 0.44882 0.63639 0.89718 0.0
O426 O 0.43102 0.64351 0.87782 0.0
C427 C 0.45915 0.73050 0.87252 0.0
C428 C 0.47177 0.66388 0.81098 0.0
C429 C 0.42664 0.64292 0.85874 0.0
O430 O 0.45650 0.71695 0.85352 0.0
O431 O 0.45890 0.70317 0.88914 0.0
O432 O 0.45859 0.56508 0.83899 0.0
O433 O 0.46037 0.60049 0.87135 0.0
Co434 Co 0.29468 0.10442 0.84109 0.0
O435 O 0.27266 0.09503 0.82914 0.0
O436 O 0.29145 0.08626 0.80808 0.0
C437 C 0.28893 0.18860 0.85904 0.0
O438 O 0.31587 0.10887 0.84169 0.0
Co439 Co 0.30119 0.11366 0.89720 0.0
O440 O 0.31898 0.10653 0.87785 0.0
C441 C 0.29085 0.01955 0.87254 0.0
C442 C 0.27822 0.08615 0.81100 0.0
C443 C 0.32335 0.10713 0.85877 0.0
O444 O 0.29350 0.03309 0.85354 0.0
O445 O 0.29110 0.04688 0.88916 0.0
O446 O 0.29140 0.18496 0.83901 0.0
O447 O 0.28963 0.14956 0.87137 0.0
C448 C 0.04518 0.73249 0.14293 0.0
C449 C 0.03733 0.75903 0.12736 0.0
C450 C 0.04438 0.67941 0.14327 0.0
C451 C 0.03590 0.65348 0.12888 0.0
C452 C 0.02750 0.68034 0.11365 0.0
C453 C 0.02850 0.73332 0.11322 0.0
C454 C 0.05314 0.64993 0.16018 0.0
C455 C 0.01767 0.65339 0.09789 0.0
C456 C 0.04703 0.52153 0.11288 0.0
C457 C 0.03784 0.49114 0.12434 0.0
C458 C 0.04630 0.57340 0.11395 0.0
C459 C 0.03653 0.59628 0.12734 0.0
C460 C 0.02723 0.56651 0.13991 0.0
C461 C 0.02771 0.51310 0.13844 0.0
C462 C 0.05645 0.60538 0.10020 0.0
C463 C 0.01554 0.59056 0.15416 0.0
H464 H 0.05085 0.74984 0.15294 0.0
H465 H 0.02313 0.75166 0.10318 0.0
H466 H 0.04835 0.61879 0.16388 0.0
H467 H 0.06227 0.64211 0.15407 0.0
H468 H 0.05432 0.67044 0.17311 0.0
H469 H 0.01651 0.67379 0.08492 0.0
H470 H 0.02164 0.62092 0.09391 0.0
H471 H 0.00861 0.64820 0.10470 0.0
H472 H 0.05393 0.50633 0.10414 0.0
H473 H 0.02154 0.49276 0.14649 0.0
H474 H 0.06279 0.62338 0.10967 0.0
H475 H 0.05114 0.62935 0.09157 0.0
H476 H 0.06177 0.58347 0.09063 0.0
H477 H 0.01892 0.59455 0.16887 0.0
H478 H 0.00735 0.56877 0.15412 0.0
H479 H 0.01301 0.62327 0.14828 0.0
C480 C 0.19885 0.73312 0.12140 0.0
C481 C 0.21170 0.75900 0.12197 0.0
C482 C 0.19897 0.68001 0.12038 0.0
C483 C 0.21144 0.65341 0.11960 0.0
C484 C 0.22448 0.67959 0.11929 0.0
C485 C 0.22427 0.73261 0.12060 0.0
C486 C 0.18486 0.65126 0.12004 0.0
C487 C 0.23849 0.65189 0.11779 0.0
C488 C 0.21172 0.52180 0.14346 0.0
C489 C 0.21180 0.49113 0.12526 0.0
C490 C 0.21187 0.57365 0.14175 0.0
C491 C 0.21157 0.59623 0.12149 0.0
C492 C 0.21117 0.56619 0.10247 0.0
C493 C 0.21138 0.51278 0.10414 0.0
C494 C 0.21232 0.60593 0.16253 0.0
C495 C 0.21169 0.58985 0.07938 0.0
H496 H 0.19032 0.75092 0.12168 0.0
H497 H 0.23276 0.75052 0.12060 0.0
H498 H 0.18597 0.61993 0.11206 0.0
H499 H 0.18201 0.64381 0.13484 0.0
H500 H 0.17778 0.67202 0.11310 0.0
H501 H 0.24574 0.67202 0.12466 0.0
H502 H 0.23778 0.61957 0.12515 0.0
H503 H 0.24089 0.64635 0.10267 0.0
H504 H 0.21158 0.50682 0.15730 0.0
H505 H 0.21126 0.49225 0.09170 0.0
H506 H 0.20363 0.62440 0.16396 0.0
H507 H 0.22009 0.62948 0.16169 0.0
H508 H 0.21357 0.58414 0.17505 0.0
H509 H 0.20224 0.59426 0.07396 0.0
H510 H 0.21686 0.56764 0.06972 0.0
H511 H 0.21635 0.62234 0.08005 0.0
C512 C 0.94985 0.26640 0.88231 0.0
C513 C 0.96205 0.24083 0.87578 0.0
C514 C 0.95023 0.31939 0.88407 0.0
C515 C 0.96238 0.34614 0.87984 0.0
C516 C 0.97492 0.32020 0.87408 0.0
C517 C 0.97440 0.26733 0.87207 0.0
C518 C 0.93679 0.34782 0.89097 0.0
C519 C 0.98868 0.34803 0.86989 0.0
C520 C 0.95852 0.47971 0.85891 0.0
C521 C 0.96194 0.50881 0.87681 0.0
C522 C 0.95890 0.42775 0.85966 0.0
C523 C 0.96225 0.40345 0.87887 0.0
C524 C 0.96535 0.43184 0.89777 0.0
C525 C 0.96532 0.48536 0.89692 0.0
C526 C 0.95552 0.39728 0.83903 0.0
C527 C 0.96999 0.40623 0.91932 0.0
H528 H 0.94159 0.24847 0.88545 0.0
H529 H 0.98253 0.24960 0.86811 0.0
H530 H 0.93934 0.37847 0.89863 0.0
H531 H 0.93139 0.35648 0.87812 0.0
H532 H 0.93122 0.32634 0.90036 0.0
H533 H 0.99437 0.32864 0.85983 0.0
H534 H 0.98671 0.38094 0.86364 0.0
H535 H 0.99372 0.35232 0.88344 0.0
H536 H 0.95590 0.49586 0.84593 0.0
H537 H 0.96749 0.50480 0.90922 0.0
H538 H 0.94690 0.37877 0.84113 0.0
H539 H 0.96310 0.37381 0.83610 0.0
H540 H 0.95449 0.42014 0.82682 0.0
H541 H 0.96190 0.40118 0.92854 0.0
H542 H 0.97674 0.42770 0.92669 0.0
H543 H 0.97430 0.37391 0.91615 0.0
C544 C 0.77556 0.48311 0.87005 0.0
C545 C 0.78835 0.50905 0.87199 0.0
C546 C 0.77575 0.43000 0.86905 0.0
C547 C 0.78823 0.40346 0.86960 0.0
C548 C 0.80124 0.42969 0.87067 0.0
C549 C 0.80096 0.48271 0.87196 0.0
C550 C 0.76169 0.40119 0.86721 0.0
C551 C 0.81529 0.40205 0.87066 0.0
C552 C 0.78749 0.27184 0.89343 0.0
C553 C 0.78839 0.24118 0.87529 0.0
C554 C 0.78770 0.32369 0.89174 0.0
C555 C 0.78830 0.34628 0.87150 0.0
C556 C 0.78875 0.31624 0.85248 0.0
C557 C 0.78890 0.26283 0.85417 0.0
C558 C 0.78722 0.35597 0.91252 0.0
C559 C 0.79028 0.33990 0.82950 0.0
H560 H 0.76703 0.50088 0.86943 0.0
H561 H 0.80942 0.50066 0.87285 0.0
H562 H 0.76316 0.36987 0.85938 0.0
H563 H 0.75820 0.39372 0.88168 0.0
H564 H 0.75492 0.42192 0.85954 0.0
H565 H 0.82222 0.42221 0.87828 0.0
H566 H 0.81428 0.36973 0.87793 0.0
H567 H 0.81836 0.39652 0.85583 0.0
H568 H 0.78675 0.25686 0.90722 0.0
H569 H 0.78933 0.24230 0.84175 0.0
H570 H 0.77849 0.37441 0.91302 0.0
H571 H 0.79500 0.37956 0.91250 0.0
H572 H 0.78792 0.33419 0.92514 0.0
H573 H 0.78109 0.34427 0.82309 0.0
H574 H 0.79587 0.31772 0.82041 0.0
H575 H 0.79489 0.37241 0.83066 0.0
C576 C 0.02794 0.01618 0.63629 0.0
C577 C 0.03889 0.99079 0.62563 0.0
C578 C 0.02850 0.06918 0.63787 0.0
C579 C 0.03968 0.09611 0.62949 0.0
C580 C 0.05107 0.07036 0.61946 0.0
C581 C 0.05034 0.01747 0.61767 0.0
C582 C 0.01639 0.09741 0.64933 0.0
C583 C 0.06382 0.09839 0.61054 0.0
C584 C 0.03269 0.22959 0.61049 0.0
C585 C 0.03861 0.25876 0.62673 0.0
C586 C 0.03323 0.17764 0.61108 0.0
C587 C 0.03934 0.15341 0.62860 0.0
C588 C 0.04510 0.18187 0.64592 0.0
C589 C 0.04488 0.23539 0.64512 0.0
C590 C 0.02694 0.14709 0.59217 0.0
C591 C 0.05282 0.15636 0.66527 0.0
H592 H 0.02037 0.99813 0.64225 0.0
H593 H 0.05769 0.99990 0.61095 0.0
H594 H 0.01996 0.12810 0.65590 0.0
H595 H 0.00923 0.10597 0.63872 0.0
H596 H 0.01237 0.07586 0.66044 0.0
H597 H 0.06791 0.07907 0.59875 0.0
H598 H 0.06095 0.13126 0.60515 0.0
H599 H 0.07072 0.10277 0.62197 0.0
H600 H 0.02821 0.24569 0.59877 0.0
H601 H 0.04878 0.25488 0.65634 0.0
H602 H 0.01888 0.12845 0.59724 0.0
H603 H 0.03392 0.12374 0.58664 0.0
H604 H 0.02412 0.16993 0.58064 0.0
H605 H 0.04629 0.15120 0.67710 0.0
H606 H 0.06044 0.17794 0.67008 0.0
H607 H 0.05658 0.12410 0.66066 0.0
C608 C 0.20123 0.01723 0.63773 0.0
C609 C 0.21230 0.99094 0.62779 0.0
C610 C 0.20179 0.07033 0.63848 0.0
C611 C 0.21306 0.09652 0.62997 0.0
C612 C 0.22457 0.06993 0.62068 0.0
C613 C 0.22384 0.01692 0.61973 0.0
C614 C 0.18955 0.09953 0.64914 0.0
C615 C 0.23742 0.09717 0.61167 0.0
C616 C 0.20630 0.22825 0.60865 0.0
C617 C 0.21204 0.25882 0.62457 0.0
C618 C 0.20683 0.17639 0.61009 0.0
C619 C 0.21274 0.15371 0.62816 0.0
C620 C 0.21830 0.18366 0.64516 0.0
C621 C 0.21810 0.23707 0.64349 0.0
C622 C 0.20076 0.14421 0.59151 0.0
C623 C 0.22579 0.15986 0.66512 0.0
H624 H 0.19360 0.99990 0.64377 0.0
H625 H 0.23127 0.99874 0.61350 0.0
H626 H 0.19305 0.13078 0.65531 0.0
H627 H 0.18251 0.10715 0.63820 0.0
H628 H 0.18540 0.07895 0.66047 0.0
H629 H 0.24163 0.07685 0.60031 0.0
H630 H 0.23461 0.12955 0.60568 0.0
H631 H 0.24418 0.10256 0.62320 0.0
H632 H 0.20197 0.24331 0.59656 0.0
H633 H 0.22187 0.25753 0.65449 0.0
H634 H 0.19264 0.12601 0.59666 0.0
H635 H 0.20780 0.12039 0.58656 0.0
H636 H 0.19807 0.16602 0.57956 0.0
H637 H 0.21913 0.15573 0.67684 0.0
H638 H 0.23336 0.18185 0.66978 0.0
H639 H 0.22961 0.12723 0.66113 0.0
C640 C 0.96263 0.98416 0.35581 0.0
C641 C 0.96297 0.00914 0.37593 0.0
C642 C 0.96357 0.93111 0.35548 0.0
C643 C 0.96503 0.90372 0.37446 0.0
C644 C 0.96594 0.92902 0.39481 0.0
C645 C 0.96480 0.98197 0.39502 0.0
C646 C 0.96302 0.90334 0.33342 0.0
C647 C 0.96796 0.90045 0.41610 0.0
C648 C 0.95035 0.77103 0.37529 0.0
C649 C 0.96224 0.74121 0.37398 0.0
C650 C 0.95119 0.82293 0.37586 0.0
C651 C 0.96411 0.84646 0.37429 0.0
C652 C 0.97650 0.81734 0.37219 0.0
C653 C 0.97572 0.76386 0.37215 0.0
C654 C 0.93766 0.85420 0.37816 0.0
C655 C 0.99129 0.84203 0.37171 0.0
H656 H 0.96180 0.00252 0.34281 0.0
H657 H 0.96527 0.99990 0.40829 0.0
H658 H 0.96840 0.87232 0.33434 0.0
H659 H 0.95334 0.89540 0.32991 0.0
H660 H 0.96693 0.92490 0.32221 0.0
H661 H 0.96390 0.91976 0.42792 0.0
H662 H 0.96334 0.86785 0.41521 0.0
H663 H 0.97789 0.89545 0.41879 0.0
H664 H 0.94150 0.75542 0.37584 0.0
H665 H 0.98383 0.74393 0.37099 0.0
H666 H 0.93608 0.87319 0.36500 0.0
H667 H 0.93859 0.87726 0.39032 0.0
H668 H 0.92979 0.83176 0.38072 0.0
H669 H 0.99415 0.84732 0.35680 0.0
H670 H 0.99797 0.81993 0.37888 0.0
H671 H 0.99100 0.87416 0.37923 0.0
C672 C 0.78741 0.76763 0.39594 0.0
C673 C 0.78950 0.74093 0.37650 0.0
C674 C 0.78835 0.82069 0.39562 0.0
C675 C 0.79149 0.84643 0.37670 0.0
C676 C 0.79418 0.81938 0.35716 0.0
C677 C 0.79303 0.76644 0.35755 0.0
C678 C 0.78587 0.85035 0.41689 0.0
C679 C 0.79809 0.84611 0.33606 0.0
C680 C 0.77712 0.97882 0.37063 0.0
C681 C 0.78880 0.00884 0.37397 0.0
C682 C 0.77797 0.92691 0.37107 0.0
C683 C 0.79061 0.90365 0.37575 0.0
C684 C 0.80272 0.93305 0.38000 0.0
C685 C 0.80198 0.98649 0.37902 0.0
C686 C 0.76475 0.89534 0.36642 0.0
C687 C 0.81731 0.90855 0.38403 0.0
H688 H 0.78543 0.75041 0.40893 0.0
H689 H 0.79466 0.74798 0.34480 0.0
H690 H 0.79130 0.88131 0.41662 0.0
H691 H 0.77597 0.85850 0.41818 0.0
H692 H 0.78873 0.82981 0.42917 0.0
H693 H 0.79510 0.82574 0.32380 0.0
H694 H 0.79345 0.87872 0.33543 0.0
H695 H 0.80817 0.85096 0.33543 0.0
H696 H 0.76841 0.99428 0.36795 0.0
H697 H 0.80992 0.00658 0.38157 0.0
H698 H 0.76200 0.87748 0.37941 0.0
H699 H 0.76672 0.87124 0.35495 0.0
H700 H 0.75719 0.91747 0.36185 0.0
H701 H 0.81881 0.90458 0.39947 0.0
H702 H 0.82457 0.93008 0.37799 0.0
H703 H 0.81766 0.87579 0.37704 0.0
C704 C 0.53927 0.73411 0.60583 0.0
C705 C 0.53954 0.75909 0.62595 0.0
C706 C 0.54020 0.68106 0.60551 0.0
C707 C 0.54160 0.65367 0.62450 0.0
C708 C 0.54245 0.67897 0.64485 0.0
C709 C 0.54131 0.73192 0.64506 0.0
C710 C 0.53973 0.65329 0.58344 0.0
C711 C 0.54440 0.65040 0.66616 0.0
C712 C 0.52691 0.52098 0.62521 0.0
C713 C 0.53881 0.49116 0.62400 0.0
C714 C 0.52775 0.57288 0.62579 0.0
C715 C 0.54068 0.59641 0.62432 0.0
C716 C 0.55308 0.56729 0.62232 0.0
C717 C 0.55229 0.51381 0.62227 0.0
C718 C 0.51422 0.60416 0.62799 0.0
C719 C 0.56787 0.59197 0.62195 0.0
H720 H 0.53848 0.75248 0.59283 0.0
H721 H 0.54173 0.74925 0.65833 0.0
H722 H 0.54510 0.62227 0.58441 0.0
H723 H 0.53005 0.64536 0.57986 0.0
H724 H 0.54367 0.67485 0.57226 0.0
H725 H 0.54030 0.66971 0.67795 0.0
H726 H 0.53978 0.61780 0.66524 0.0
H727 H 0.55432 0.64539 0.66892 0.0
H728 H 0.51806 0.50538 0.62570 0.0
H729 H 0.56041 0.49387 0.62118 0.0
H730 H 0.51268 0.62315 0.61482 0.0
H731 H 0.51511 0.62722 0.64016 0.0
H732 H 0.50634 0.58172 0.63049 0.0
H733 H 0.57077 0.59726 0.60706 0.0
H734 H 0.57452 0.56986 0.62917 0.0
H735 H 0.56755 0.62410 0.62947 0.0
C736 C 0.72291 0.73368 0.63436 0.0
C737 C 0.71125 0.75917 0.62572 0.0
C738 C 0.72243 0.68069 0.63604 0.0
C739 C 0.71069 0.65385 0.62969 0.0
C740 C 0.69864 0.67970 0.62175 0.0
C741 C 0.69927 0.73258 0.61985 0.0
C742 C 0.73530 0.65235 0.64526 0.0
C743 C 0.68529 0.65177 0.61516 0.0
C744 C 0.71614 0.52033 0.60958 0.0
C745 C 0.71145 0.49119 0.62676 0.0
C746 C 0.71567 0.57228 0.61026 0.0
C747 C 0.71092 0.59655 0.62875 0.0
C748 C 0.70647 0.56812 0.64698 0.0
C749 C 0.70659 0.51461 0.64614 0.0
C750 C 0.72053 0.60279 0.59035 0.0
C751 C 0.70026 0.59368 0.66757 0.0
H752 H 0.73088 0.75167 0.63894 0.0
H753 H 0.69147 0.75025 0.61448 0.0
H754 H 0.73222 0.62168 0.65243 0.0
H755 H 0.74161 0.64375 0.63345 0.0
H756 H 0.74013 0.67387 0.65558 0.0
H757 H 0.68037 0.67113 0.60417 0.0
H758 H 0.68772 0.61888 0.60930 0.0
H759 H 0.67929 0.64744 0.62774 0.0
H760 H 0.71970 0.50420 0.59714 0.0
H761 H 0.70355 0.49513 0.65798 0.0
H762 H 0.72893 0.62136 0.59396 0.0
H763 H 0.71320 0.62620 0.58610 0.0
H764 H 0.72246 0.57994 0.57841 0.0
H765 H 0.70763 0.59878 0.67816 0.0
H766 H 0.69303 0.57216 0.67370 0.0
H767 H 0.69620 0.62597 0.66366 0.0
C768 C 0.47305 0.48286 0.38570 0.0
C769 C 0.46127 0.50906 0.37790 0.0
C770 C 0.47259 0.42975 0.38654 0.0
C771 C 0.46075 0.40347 0.38019 0.0
C772 C 0.44859 0.42997 0.37310 0.0
C773 C 0.44920 0.48298 0.37203 0.0
C774 C 0.48559 0.40066 0.39484 0.0
C775 C 0.43515 0.40261 0.36654 0.0
C776 C 0.46589 0.27180 0.35775 0.0
C777 C 0.46145 0.24118 0.37461 0.0
C778 C 0.46544 0.32366 0.35928 0.0
C779 C 0.46097 0.34628 0.37832 0.0
C780 C 0.45679 0.31628 0.39623 0.0
C781 C 0.45689 0.26288 0.39452 0.0
C782 C 0.47001 0.35589 0.33972 0.0
C783 C 0.45089 0.34002 0.41743 0.0
H784 H 0.48108 0.50045 0.39029 0.0
H785 H 0.44133 0.50109 0.36723 0.0
H786 H 0.48261 0.36938 0.40162 0.0
H787 H 0.49173 0.39310 0.38268 0.0
H788 H 0.49058 0.42127 0.40533 0.0
H789 H 0.43007 0.42290 0.35605 0.0
H790 H 0.43749 0.37026 0.36007 0.0
H791 H 0.42933 0.39717 0.37925 0.0
H792 H 0.46926 0.25678 0.34494 0.0
H793 H 0.45402 0.24238 0.40615 0.0
H794 H 0.47846 0.37415 0.34332 0.0
H795 H 0.46261 0.37964 0.33611 0.0
H796 H 0.47176 0.33410 0.32734 0.0
H797 H 0.45841 0.34421 0.42783 0.0
H798 H 0.44375 0.31796 0.42347 0.0
H799 H 0.44677 0.37262 0.41419 0.0
C800 C 0.29696 0.48393 0.38911 0.0
C801 C 0.28748 0.50920 0.37543 0.0
C802 C 0.29626 0.43092 0.39050 0.0
C803 C 0.28634 0.40387 0.37899 0.0
C804 C 0.27634 0.42949 0.36581 0.0
C805 C 0.27723 0.48238 0.36426 0.0
C806 C 0.30679 0.40283 0.40530 0.0
C807 C 0.26494 0.40131 0.35332 0.0
C808 C 0.29565 0.27049 0.36240 0.0
C809 C 0.28788 0.24123 0.37661 0.0
C810 C 0.29499 0.32244 0.36281 0.0
C811 C 0.28683 0.34657 0.37823 0.0
C812 C 0.27909 0.31802 0.39355 0.0
C813 C 0.27945 0.26451 0.39283 0.0
C814 C 0.30344 0.35308 0.34608 0.0
C815 C 0.26913 0.34341 0.41029 0.0
H816 H 0.30364 0.50207 0.39718 0.0
H817 H 0.27082 0.49991 0.35551 0.0
H818 H 0.30251 0.37209 0.41071 0.0
H819 H 0.31512 0.39438 0.39698 0.0
H820 H 0.30936 0.42443 0.41739 0.0
H821 H 0.26235 0.42059 0.34054 0.0
H822 H 0.26845 0.36848 0.34887 0.0
H823 H 0.25678 0.39682 0.36252 0.0
H824 H 0.30148 0.25447 0.35220 0.0
H825 H 0.27428 0.24495 0.40271 0.0
H826 H 0.31072 0.37182 0.35343 0.0
H827 H 0.29724 0.37635 0.33861 0.0
H828 H 0.30764 0.33030 0.33560 0.0
H829 H 0.27409 0.34864 0.42382 0.0
H830 H 0.26108 0.32174 0.41278 0.0
H831 H 0.26596 0.37563 0.40466 0.0
C832 C 0.55072 0.23298 0.13174 0.0
C833 C 0.53810 0.25900 0.12801 0.0
C834 C 0.55044 0.17987 0.13270 0.0
C835 C 0.53803 0.15341 0.13041 0.0
C836 C 0.52514 0.17973 0.12752 0.0
C837 C 0.52553 0.23275 0.12628 0.0
C838 C 0.56432 0.15097 0.13650 0.0
C839 C 0.51114 0.15217 0.12556 0.0
C840 C 0.54009 0.02179 0.10676 0.0
C841 C 0.53812 0.99113 0.12470 0.0
C842 C 0.53981 0.07365 0.10842 0.0
C843 C 0.53805 0.09623 0.12850 0.0
C844 C 0.53647 0.06619 0.14737 0.0
C845 C 0.53640 0.01278 0.14566 0.0
C846 C 0.54153 0.10592 0.08780 0.0
C847 C 0.53362 0.08986 0.17005 0.0
H848 H 0.55918 0.25069 0.13355 0.0
H849 H 0.51716 0.25074 0.12420 0.0
H850 H 0.56239 0.11966 0.14409 0.0
H851 H 0.56864 0.14349 0.12258 0.0
H852 H 0.57062 0.17167 0.14509 0.0
H853 H 0.50470 0.17238 0.11699 0.0
H854 H 0.51256 0.11985 0.11845 0.0
H855 H 0.50722 0.14666 0.13990 0.0
H856 H 0.54163 0.00681 0.09313 0.0
H857 H 0.53523 0.99226 0.15797 0.0
H858 H 0.55026 0.12431 0.08852 0.0
H859 H 0.53378 0.12956 0.08672 0.0
H860 H 0.54155 0.08415 0.07513 0.0
H861 H 0.54240 0.09417 0.17771 0.0
H862 H 0.52750 0.06771 0.17831 0.0
H863 H 0.52911 0.12240 0.16825 0.0
C864 C 0.70612 0.01750 0.14401 0.0
C865 C 0.71276 0.99091 0.12716 0.0
C866 C 0.70697 0.07058 0.14421 0.0
C867 C 0.71436 0.09646 0.12842 0.0
C868 C 0.72157 0.06954 0.11182 0.0
C869 C 0.72052 0.01657 0.11156 0.0
C870 C 0.69953 0.10011 0.16255 0.0
C871 C 0.73019 0.09642 0.09443 0.0
C872 C 0.70220 0.22850 0.11448 0.0
C873 C 0.71220 0.25881 0.12426 0.0
C874 C 0.70298 0.17662 0.11541 0.0
C875 C 0.71366 0.15366 0.12701 0.0
C876 C 0.72384 0.18334 0.13786 0.0
C877 C 0.72328 0.23677 0.13649 0.0
C878 C 0.69186 0.14473 0.10354 0.0
C879 C 0.73648 0.15921 0.14997 0.0
H880 H 0.70121 0.00010 0.15495 0.0
H881 H 0.72510 0.99819 0.10065 0.0
H882 H 0.70458 0.13121 0.16538 0.0
H883 H 0.69001 0.10801 0.15807 0.0
H884 H 0.69930 0.07961 0.17560 0.0
H885 H 0.73038 0.07602 0.08135 0.0
H886 H 0.72597 0.12892 0.09118 0.0
H887 H 0.73970 0.10153 0.09962 0.0
H888 H 0.69472 0.24376 0.10700 0.0
H889 H 0.73001 0.25705 0.14340 0.0
H890 H 0.68625 0.12677 0.11405 0.0
H891 H 0.69649 0.12072 0.09403 0.0
H892 H 0.68589 0.16668 0.09496 0.0
H893 H 0.73420 0.15522 0.16518 0.0
H894 H 0.74463 0.18093 0.14850 0.0
H895 H 0.73854 0.12647 0.14369 0.0
C896 C 0.46405 0.76763 0.85433 0.0
C897 C 0.46053 0.74094 0.87328 0.0
C898 C 0.46312 0.82069 0.85450 0.0
C899 C 0.45863 0.84645 0.87274 0.0
C900 C 0.45451 0.81943 0.89168 0.0
C901 C 0.45565 0.76647 0.89149 0.0
C902 C 0.46716 0.85033 0.83380 0.0
C903 C 0.44910 0.84618 0.91197 0.0
C904 C 0.47254 0.97873 0.88131 0.0
C905 C 0.46119 0.00884 0.87594 0.0
C906 C 0.47170 0.92683 0.88072 0.0
C907 C 0.45947 0.90367 0.87384 0.0
C908 C 0.44777 0.93316 0.86750 0.0
C909 C 0.44846 0.98659 0.86862 0.0
C910 C 0.48448 0.89516 0.88766 0.0
C911 C 0.43355 0.90878 0.86094 0.0
H912 H 0.46696 0.75039 0.84178 0.0
H913 H 0.45310 0.74802 0.90387 0.0
H914 H 0.46176 0.88134 0.83312 0.0
H915 H 0.47709 0.85841 0.83426 0.0
H916 H 0.46520 0.82982 0.82110 0.0
H917 H 0.45116 0.82579 0.92466 0.0
H918 H 0.45368 0.87875 0.91341 0.0
H919 H 0.43904 0.85111 0.91082 0.0
H920 H 0.48101 0.99413 0.88550 0.0
H921 H 0.44077 0.00675 0.86469 0.0
H922 H 0.48815 0.87729 0.87523 0.0
H923 H 0.48166 0.87108 0.89870 0.0
H924 H 0.49167 0.91723 0.89352 0.0
H925 H 0.43318 0.90482 0.84533 0.0
H926 H 0.42590 0.93035 0.86567 0.0
H927 H 0.43267 0.87601 0.86782 0.0
C928 C 0.28242 0.76754 0.89383 0.0
C929 C 0.28930 0.74096 0.87721 0.0
C930 C 0.28326 0.82062 0.89406 0.0
C931 C 0.29087 0.84651 0.87852 0.0
C932 C 0.29832 0.81960 0.86218 0.0
C933 C 0.29727 0.76662 0.86188 0.0
C934 C 0.27556 0.85014 0.91214 0.0
C935 C 0.30719 0.84650 0.84509 0.0
C936 C 0.27890 0.97854 0.86417 0.0
C937 C 0.28875 0.00885 0.87429 0.0
C938 C 0.27967 0.92665 0.86513 0.0
C939 C 0.29018 0.90371 0.87709 0.0
C940 C 0.30020 0.93341 0.88829 0.0
C941 C 0.29966 0.98683 0.88690 0.0
C942 C 0.26873 0.89475 0.85288 0.0
C943 C 0.31267 0.90928 0.90082 0.0
H944 H 0.27736 0.75022 0.90460 0.0
H945 H 0.30202 0.74825 0.85112 0.0
H946 H 0.28056 0.88125 0.91514 0.0
H947 H 0.26610 0.85803 0.90734 0.0
H948 H 0.27514 0.82964 0.92517 0.0
H949 H 0.30756 0.82610 0.83201 0.0
H950 H 0.30301 0.87899 0.84169 0.0
H951 H 0.31661 0.85162 0.85059 0.0
H952 H 0.27152 0.99379 0.85644 0.0
H953 H 0.30629 0.00712 0.89403 0.0
H954 H 0.26297 0.87678 0.86319 0.0
H955 H 0.27349 0.87075 0.84353 0.0
H956 H 0.26288 0.91670 0.84410 0.0
H957 H 0.31017 0.90530 0.91595 0.0
H958 H 0.32084 0.93102 0.89963 0.0
H959 H 0.31482 0.87655 0.89461 0.0
C960 C 0.97442 0.52578 0.97033 0.0
C961 C 0.98149 0.56140 0.95744 0.0
C962 C 0.98213 0.49790 0.98569 0.0
C963 C 0.99644 0.50449 0.98797 0.0
C964 C 0.00374 0.53906 0.97434 0.0
C965 C 0.99593 0.56727 0.95924 0.0
C966 C 0.97438 0.45913 0.00010 0.0
C967 C 0.01958 0.54650 0.97584 0.0
C968 C 0.01219 0.48009 0.04335 0.0
C969 C 0.01889 0.43413 0.04067 0.0
C970 C 0.00523 0.50320 0.02646 0.0
C971 C 0.00437 0.47953 0.00647 0.0
C972 C 0.01067 0.43166 0.00327 0.0
C973 C 0.01816 0.40832 0.02045 0.0
C974 C 0.99842 0.55523 0.03012 0.0
C975 C 0.01070 0.40511 0.98075 0.0
H976 H 0.96472 0.52065 0.96872 0.0
H977 H 0.00010 0.59055 0.95023 0.0
H978 H 0.98074 0.43191 0.00392 0.0
H979 H 0.97117 0.47571 0.01328 0.0
H980 H 0.96639 0.44566 0.99227 0.0
H981 H 0.02196 0.58045 0.97119 0.0
H982 H 0.02261 0.54175 0.99075 0.0
H983 H 0.02429 0.52216 0.96659 0.0
H984 H 0.01243 0.49589 0.05701 0.0
H985 H 0.02252 0.37683 0.01856 0.0
H986 H 0.98835 0.55211 0.02912 0.0
H987 H 0.00174 0.57868 0.01916 0.0
H988 H 0.00010 0.56778 0.04439 0.0
H989 H 0.00284 0.38209 0.97985 0.0
H990 H 0.01939 0.38647 0.97897 0.0
H991 H 0.00995 0.43028 0.96939 0.0
C992 C 0.25453 0.67266 0.96237 0.0
C993 C 0.26896 0.68181 0.95991 0.0
C994 C 0.24737 0.69592 0.97967 0.0
C995 C 0.25433 0.72661 0.99429 0.0
C996 C 0.26906 0.73433 0.99238 0.0
C997 C 0.27610 0.71152 0.97487 0.0
C998 C 0.23146 0.68654 0.98230 0.0
C999 C 0.27725 0.76668 0.00850 0.0
C1000 C 0.23354 0.83129 0.02092 0.0
C1001 C 0.23143 0.81329 0.04176 0.0
C1002 C 0.24107 0.80420 0.00581 0.0
C1003 C 0.24628 0.75697 0.01108 0.0
C1004 C 0.24395 0.73644 0.03201 0.0
C1005 C 0.23651 0.76475 0.04779 0.0
C1006 C 0.24355 0.82690 0.98312 0.0
C1007 C 0.25032 0.68493 0.03907 0.0
H1008 H 0.24975 0.65139 0.95264 0.0
H1009 H 0.28578 0.71650 0.97323 0.0
H1010 H 0.22896 0.68871 0.99753 0.0
H1011 H 0.22631 0.71197 0.97419 0.0
H1012 H 0.22914 0.65326 0.97677 0.0
H1013 H 0.28540 0.78095 0.00135 0.0
H1014 H 0.27131 0.79386 0.01375 0.0
H1015 H 0.28024 0.74605 0.02067 0.0
H1016 H 0.22975 0.86281 0.01702 0.0
H1017 H 0.23498 0.75197 0.06182 0.0
H1018 H 0.23860 0.80711 0.97241 0.0
H1019 H 0.25351 0.82660 0.97990 0.0
H1020 H 0.24015 0.86143 0.98282 0.0
H1021 H 0.24355 0.65831 0.03662 0.0
H1022 H 0.25273 0.68624 0.05438 0.0
H1023 H 0.25871 0.67825 0.03066 0.0
C1024 C 0.00768 0.83998 0.21945 0.0
C1025 C 0.01786 0.81374 0.20742 0.0
C1026 C 0.99990 0.81323 0.23479 0.0
C1027 C 0.00149 0.76193 0.23787 0.0
C1028 C 0.01139 0.73481 0.22509 0.0
C1029 C 0.01950 0.76194 0.21001 0.0
C1030 C 0.98856 0.84201 0.24828 0.0
C1031 C 0.01348 0.67792 0.22748 0.0
C1032 C 0.99362 0.70926 0.29363 0.0
C1033 C 0.98095 0.68474 0.29065 0.0
C1034 C 0.00010 0.73317 0.27674 0.0
C1035 C 0.99420 0.73466 0.25640 0.0
C1036 C 0.98101 0.71148 0.25284 0.0
C1037 C 0.97420 0.68573 0.27005 0.0
C1038 C 0.01470 0.75819 0.28078 0.0
C1039 C 0.97411 0.70958 0.22999 0.0
H1040 H 0.00625 0.87475 0.21729 0.0
H1041 H 0.02617 0.74481 0.20157 0.0
H1042 H 0.98095 0.81930 0.25201 0.0
H1043 H 0.99287 0.85465 0.26150 0.0
H1044 H 0.98495 0.87012 0.23986 0.0
H1045 H 0.02301 0.66918 0.22343 0.0
H1046 H 0.01187 0.66812 0.24246 0.0
H1047 H 0.00694 0.66016 0.21814 0.0
H1048 H 0.99772 0.70949 0.30751 0.0
H1049 H 0.96552 0.66971 0.26795 0.0
H1050 H 0.01381 0.79434 0.27924 0.0
H1051 H 0.02144 0.74556 0.27032 0.0
H1052 H 0.01789 0.75020 0.29534 0.0
H1053 H 0.96771 0.73771 0.22838 0.0
H1054 H 0.96900 0.67807 0.22837 0.0
H1055 H 0.98133 0.71155 0.21894 0.0
C1056 C 0.24431 0.45764 0.20351 0.0
C1057 C 0.23080 0.43918 0.20802 0.0
C1058 C 0.25129 0.48613 0.21949 0.0
C1059 C 0.24500 0.49671 0.23920 0.0
C1060 C 0.23109 0.47983 0.24349 0.0
C1061 C 0.22427 0.45080 0.22756 0.0
C1062 C 0.26622 0.50598 0.21474 0.0
C1063 C 0.22358 0.49188 0.26475 0.0
C1064 C 0.26869 0.51449 0.28785 0.0
C1065 C 0.26846 0.56622 0.29104 0.0
C1066 C 0.26101 0.49198 0.27158 0.0
C1067 C 0.25323 0.52142 0.25743 0.0
C1068 C 0.25309 0.57467 0.25968 0.0
C1069 C 0.26070 0.59790 0.27676 0.0
C1070 C 0.26123 0.43408 0.26929 0.0
C1071 C 0.24385 0.60895 0.24501 0.0
H1072 H 0.24860 0.45110 0.19006 0.0
H1073 H 0.21515 0.43898 0.23016 0.0
H1074 H 0.26775 0.53721 0.22261 0.0
H1075 H 0.27306 0.48101 0.21939 0.0
H1076 H 0.26723 0.51194 0.19928 0.0
H1077 H 0.21678 0.46559 0.26786 0.0
H1078 H 0.23037 0.49349 0.27648 0.0
H1079 H 0.21881 0.52413 0.26352 0.0
H1080 H 0.27421 0.49428 0.29705 0.0
H1081 H 0.26062 0.63310 0.27864 0.0
H1082 H 0.26583 0.42497 0.25588 0.0
H1083 H 0.25169 0.42136 0.26920 0.0
H1084 H 0.26628 0.41944 0.28144 0.0
H1085 H 0.24934 0.62083 0.23282 0.0
H1086 H 0.24053 0.63762 0.25339 0.0
H1087 H 0.23588 0.58981 0.23975 0.0
C1088 C 0.77349 0.23349 0.96540 0.0
C1089 C 0.76816 0.18770 0.95734 0.0
C1090 C 0.76553 0.26055 0.98073 0.0
C1091 C 0.75259 0.24322 0.98759 0.0
C1092 C 0.74690 0.19790 0.97880 0.0
C1093 C 0.75500 0.17073 0.96372 0.0
C1094 C 0.77142 0.31062 0.98988 0.0
C1095 C 0.73248 0.17811 0.98541 0.0
C1096 C 0.74099 0.27851 0.04430 0.0
C1097 C 0.73097 0.31537 0.04065 0.0
C1098 C 0.74774 0.25466 0.02741 0.0
C1099 C 0.74494 0.26876 0.00621 0.0
C1100 C 0.73510 0.30753 0.00180 0.0
C1101 C 0.72786 0.33129 0.01912 0.0
C1102 C 0.75840 0.21255 0.03239 0.0
C1103 C 0.73100 0.32246 0.97822 0.0
H1104 H 0.78221 0.24584 0.96064 0.0
H1105 H 0.75148 0.14056 0.95788 0.0
H1106 H 0.76372 0.33289 0.99363 0.0
H1107 H 0.77694 0.30358 0.00278 0.0
H1108 H 0.77730 0.32660 0.97902 0.0
H1109 H 0.73228 0.14166 0.98385 0.0
H1110 H 0.73065 0.18690 0.00010 0.0
H1111 H 0.72533 0.19307 0.97623 0.0
H1112 H 0.74321 0.26951 0.05867 0.0
H1113 H 0.72121 0.35671 0.01650 0.0
H1114 H 0.76767 0.22358 0.02825 0.0
H1115 H 0.75594 0.18241 0.02428 0.0
H1116 H 0.75825 0.20501 0.04780 0.0
H1117 H 0.73672 0.35061 0.97352 0.0
H1118 H 0.72118 0.33204 0.97782 0.0
H1119 H 0.73250 0.29393 0.96864 0.0
C1120 C 0.98706 0.15710 0.77398 0.0
C1121 C 0.98022 0.18519 0.79017 0.0
C1122 C 0.99369 0.18308 0.75688 0.0
C1123 C 0.99335 0.23521 0.75567 0.0
C1124 C 0.98594 0.26371 0.77156 0.0
C1125 C 0.97951 0.23751 0.78875 0.0
C1126 C 0.00140 0.15243 0.73917 0.0
C1127 C 0.98493 0.32119 0.77053 0.0
C1128 C 0.02384 0.30040 0.72818 0.0
C1129 C 0.01828 0.31483 0.70837 0.0
C1130 C 0.01586 0.27581 0.74351 0.0
C1131 C 0.00207 0.26328 0.73895 0.0
C1132 C 0.99612 0.27585 0.71858 0.0
C1133 C 0.00420 0.30231 0.70296 0.0
C1134 C 0.02243 0.26237 0.76560 0.0
C1135 C 0.98045 0.26526 0.71325 0.0
H1136 H 0.98721 0.12163 0.77454 0.0
H1137 H 0.97467 0.25566 0.79948 0.0
H1138 H 0.00109 0.17075 0.72555 0.0
H1139 H 0.01111 0.14755 0.74347 0.0
H1140 H 0.99689 0.11983 0.73746 0.0
H1141 H 0.98381 0.33460 0.78509 0.0
H1142 H 0.99344 0.33482 0.76416 0.0
H1143 H 0.97694 0.33091 0.76171 0.0
H1144 H 0.03329 0.30768 0.73123 0.0
H1145 H 0.00010 0.31141 0.68945 0.0
H1146 H 0.02314 0.22612 0.76693 0.0
H1147 H 0.01658 0.27550 0.77719 0.0
H1148 H 0.03171 0.27727 0.76662 0.0
H1149 H 0.97964 0.23314 0.70585 0.0
H1150 H 0.97685 0.29195 0.70399 0.0
H1151 H 0.97508 0.26431 0.72660 0.0
C1152 C 0.74045 0.47483 0.70272 0.0
C1153 C 0.73040 0.43856 0.70864 0.0
C1154 C 0.74716 0.50268 0.71918 0.0
C1155 C 0.74386 0.49541 0.74081 0.0
C1156 C 0.73327 0.46016 0.74682 0.0
C1157 C 0.72675 0.43200 0.73030 0.0
C1158 C 0.75837 0.54218 0.71279 0.0
C1159 C 0.72899 0.45195 0.77044 0.0
C1160 C 0.77233 0.52030 0.78221 0.0
C1161 C 0.76831 0.56584 0.79130 0.0
C1162 C 0.76443 0.49715 0.76636 0.0
C1163 C 0.75242 0.52040 0.75861 0.0
C1164 C 0.74820 0.56786 0.76697 0.0
C1165 C 0.75612 0.59122 0.78368 0.0
C1166 C 0.76911 0.44556 0.75740 0.0
C1167 C 0.73436 0.59388 0.75969 0.0
H1168 H 0.74265 0.48042 0.68804 0.0
H1169 H 0.71983 0.40828 0.73396 0.0
H1170 H 0.75848 0.56915 0.72344 0.0
H1171 H 0.76752 0.52606 0.71237 0.0
H1172 H 0.75616 0.55586 0.69859 0.0
H1173 H 0.72550 0.41778 0.77223 0.0
H1174 H 0.73706 0.45689 0.77980 0.0
H1175 H 0.72170 0.47583 0.77437 0.0
H1176 H 0.78065 0.50480 0.78700 0.0
H1177 H 0.75341 0.62244 0.78957 0.0
H1178 H 0.77180 0.44916 0.74237 0.0
H1179 H 0.76142 0.42169 0.75852 0.0
H1180 H 0.77702 0.43321 0.76576 0.0
H1181 H 0.73632 0.61728 0.74801 0.0
H1182 H 0.73033 0.61204 0.77188 0.0
H1183 H 0.72778 0.56849 0.75474 0.0
C1184 C 0.98652 0.01586 0.45429 0.0
C1185 C 0.98233 0.06604 0.45787 0.0
C1186 C 0.99474 0.99159 0.47015 0.0
C1187 C 0.99888 0.01652 0.48881 0.0
C1188 C 0.99513 0.06801 0.49209 0.0
C1189 C 0.98676 0.09177 0.47631 0.0
C1190 C 0.99990 0.93615 0.46644 0.0
C1191 C 0.99990 0.09748 0.51212 0.0
C1192 C 0.00470 0.93781 0.53925 0.0
C1193 C 0.01916 0.93615 0.54096 0.0
C1194 C 0.99815 0.96421 0.52287 0.0
C1195 C 0.00608 0.98829 0.50714 0.0
C1196 C 0.02092 0.98608 0.50789 0.0
C1197 C 0.02770 0.96002 0.52505 0.0
C1198 C 0.98202 0.96639 0.52222 0.0
C1199 C 0.03024 0.01507 0.49135 0.0
H1200 H 0.98389 0.99881 0.44154 0.0
H1201 H 0.98408 0.12557 0.47827 0.0
H1202 H 0.00814 0.93007 0.47357 0.0
H1203 H 0.99217 0.91376 0.47249 0.0
H1204 H 0.00010 0.92986 0.45099 0.0
H1205 H 0.99303 0.12384 0.51523 0.0
H1206 H 0.00010 0.07480 0.52447 0.0
H1207 H 0.00892 0.11255 0.50950 0.0
H1208 H 0.99990 0.92057 0.54956 0.0
H1209 H 0.03753 0.95857 0.52593 0.0
H1210 H 0.97867 0.94840 0.50961 0.0
H1211 H 0.97901 0.00135 0.52148 0.0
H1212 H 0.97825 0.95096 0.53525 0.0
H1213 H 0.03270 0.99287 0.47947 0.0
H1214 H 0.03872 0.02661 0.49855 0.0
H1215 H 0.02514 0.04397 0.48581 0.0
C1216 C 0.27460 0.22976 0.46768 0.0
C1217 C 0.26832 0.18818 0.45737 0.0
C1218 C 0.26674 0.25722 0.48301 0.0
C1219 C 0.25302 0.24440 0.48771 0.0
C1220 C 0.24643 0.20356 0.47665 0.0
C1221 C 0.25441 0.17589 0.46158 0.0
C1222 C 0.27365 0.30261 0.49462 0.0
C1223 C 0.23118 0.18899 0.48085 0.0
C1224 C 0.23960 0.27415 0.54405 0.0
C1225 C 0.23103 0.31560 0.54065 0.0
C1226 C 0.24644 0.25067 0.52715 0.0
C1227 C 0.24524 0.26963 0.50629 0.0
C1228 C 0.23695 0.31303 0.50223 0.0
C1229 C 0.22961 0.33655 0.51950 0.0
C1230 C 0.25541 0.20351 0.53175 0.0
C1231 C 0.23463 0.33380 0.47889 0.0
H1232 H 0.28387 0.23909 0.46440 0.0
H1233 H 0.25029 0.14859 0.45426 0.0
H1234 H 0.26652 0.32729 0.49830 0.0
H1235 H 0.27821 0.29095 0.50781 0.0
H1236 H 0.28056 0.31784 0.48510 0.0
H1237 H 0.22992 0.15327 0.47792 0.0
H1238 H 0.22884 0.19578 0.49590 0.0
H1239 H 0.22506 0.20851 0.47147 0.0
H1240 H 0.24074 0.26171 0.55824 0.0
H1241 H 0.22395 0.36505 0.51708 0.0
H1242 H 0.26516 0.21118 0.52909 0.0
H1243 H 0.25246 0.17619 0.52229 0.0
H1244 H 0.25419 0.19334 0.54676 0.0
H1245 H 0.24143 0.36005 0.47591 0.0
H1246 H 0.22522 0.34758 0.47773 0.0
H1247 H 0.23573 0.30663 0.46849 0.0
C1248 C 0.24203 0.96916 0.70264 0.0
C1249 C 0.23053 0.93888 0.70841 0.0
C1250 C 0.24883 0.99731 0.71893 0.0
C1251 C 0.24422 0.99614 0.74020 0.0
C1252 C 0.23222 0.96712 0.74596 0.0
C1253 C 0.22561 0.93857 0.72965 0.0
C1254 C 0.26162 0.03018 0.71273 0.0
C1255 C 0.22651 0.96588 0.76910 0.0
C1256 C 0.27119 0.01732 0.78431 0.0
C1257 C 0.26836 0.06602 0.79121 0.0
C1258 C 0.26335 0.99447 0.76831 0.0
C1259 C 0.25268 0.02095 0.75816 0.0
C1260 C 0.24976 0.07148 0.76424 0.0
C1261 C 0.25757 0.09472 0.78108 0.0
C1262 C 0.26661 0.93954 0.76185 0.0
C1263 C 0.23735 0.10160 0.75421 0.0
H1264 H 0.24514 0.97062 0.68817 0.0
H1265 H 0.21775 0.91887 0.73316 0.0
H1266 H 0.26214 0.05907 0.72238 0.0
H1267 H 0.27012 0.01024 0.71412 0.0
H1268 H 0.26063 0.04164 0.69785 0.0
H1269 H 0.22177 0.93397 0.77160 0.0
H1270 H 0.23420 0.96928 0.77933 0.0
H1271 H 0.21995 0.99345 0.77118 0.0
H1272 H 0.27863 0.99990 0.79075 0.0
H1273 H 0.25569 0.12800 0.78548 0.0
H1274 H 0.27016 0.93875 0.74718 0.0
H1275 H 0.25811 0.91949 0.76275 0.0
H1276 H 0.27359 0.92572 0.77167 0.0
H1277 H 0.24069 0.12140 0.74206 0.0
H1278 H 0.23339 0.12387 0.76513 0.0
H1279 H 0.23019 0.07827 0.74928 0.0
C1280 C 0.75950 0.65758 0.47214 0.0
C1281 C 0.76961 0.68392 0.46001 0.0
C1282 C 0.75278 0.68259 0.48941 0.0
C1283 C 0.75613 0.73187 0.49473 0.0
C1284 C 0.76677 0.75800 0.48304 0.0
C1285 C 0.77330 0.73299 0.46562 0.0
C1286 C 0.74151 0.65404 0.50264 0.0
C1287 C 0.77111 0.81188 0.48874 0.0
C1288 C 0.72770 0.81200 0.52014 0.0
C1289 C 0.73168 0.81428 0.54173 0.0
C1290 C 0.73561 0.78653 0.50498 0.0
C1291 C 0.74756 0.76085 0.51136 0.0
C1292 C 0.75174 0.76082 0.53343 0.0
C1293 C 0.74382 0.78807 0.54901 0.0
C1294 C 0.73098 0.78684 0.48104 0.0
C1295 C 0.76553 0.73509 0.54111 0.0
H1296 H 0.75727 0.62389 0.46879 0.0
H1297 H 0.78026 0.74973 0.45761 0.0
H1298 H 0.74138 0.66676 0.51741 0.0
H1299 H 0.73238 0.65936 0.49602 0.0
H1300 H 0.74367 0.61824 0.50272 0.0
H1301 H 0.77465 0.82863 0.47584 0.0
H1302 H 0.76305 0.83030 0.49421 0.0
H1303 H 0.77837 0.81120 0.49977 0.0
H1304 H 0.71941 0.82832 0.51575 0.0
H1305 H 0.74650 0.78890 0.56367 0.0
H1306 H 0.72825 0.75316 0.47677 0.0
H1307 H 0.73870 0.79817 0.47201 0.0
H1308 H 0.72310 0.80963 0.47925 0.0
H1309 H 0.76353 0.70110 0.54598 0.0
H1310 H 0.76956 0.75440 0.55297 0.0
H1311 H 0.77214 0.73393 0.52917 0.0
C1312 C 0.72931 0.92051 0.23057 0.0
C1313 C 0.73210 0.93191 0.20872 0.0
C1314 C 0.73743 0.94391 0.24679 0.0
C1315 C 0.74813 0.97693 0.24152 0.0
C1316 C 0.75137 0.98699 0.21937 0.0
C1317 C 0.74309 0.96400 0.20327 0.0
C1318 C 0.73429 0.93205 0.27088 0.0
C1319 C 0.76336 0.02199 0.21278 0.0
C1320 C 0.75672 0.08004 0.28188 0.0
C1321 C 0.76911 0.06340 0.29115 0.0
C1322 C 0.75011 0.05306 0.26573 0.0
C1323 C 0.75557 0.00722 0.25900 0.0
C1324 C 0.76798 0.98803 0.26859 0.0
C1325 C 0.77501 0.01630 0.28483 0.0
C1326 C 0.73664 0.07429 0.25541 0.0
C1327 C 0.77495 0.93827 0.26063 0.0
H1328 H 0.72215 0.89768 0.23429 0.0
H1329 H 0.74498 0.97049 0.18859 0.0
H1330 H 0.74284 0.93503 0.27929 0.0
H1331 H 0.72739 0.95590 0.27632 0.0
H1332 H 0.73062 0.89799 0.27209 0.0
H1333 H 0.76128 0.03705 0.19878 0.0
H1334 H 0.76440 0.04854 0.22353 0.0
H1335 H 0.77202 0.00290 0.21182 0.0
H1336 H 0.75275 0.11054 0.28671 0.0
H1337 H 0.78333 0.00442 0.29122 0.0
H1338 H 0.72881 0.05283 0.25910 0.0
H1339 H 0.73772 0.07544 0.23976 0.0
H1340 H 0.73495 0.10816 0.26083 0.0
H1341 H 0.77172 0.91034 0.26945 0.0
H1342 H 0.78507 0.94122 0.26184 0.0
H1343 H 0.77245 0.93235 0.24559 0.0
C1344 C 0.48784 0.51836 0.45358 0.0
C1345 C 0.48232 0.56648 0.45801 0.0
C1346 C 0.49604 0.49440 0.46956 0.0
C1347 C 0.49888 0.51772 0.48915 0.0
C1348 C 0.49379 0.56732 0.49335 0.0
C1349 C 0.48544 0.59072 0.47743 0.0
C1350 C 0.50198 0.44116 0.46490 0.0
C1351 C 0.49701 0.59512 0.51448 0.0
C1352 C 0.50478 0.43385 0.53801 0.0
C1353 C 0.51915 0.43632 0.54102 0.0
C1354 C 0.49822 0.46051 0.52173 0.0
C1355 C 0.50608 0.48915 0.50740 0.0
C1356 C 0.52086 0.49132 0.50947 0.0
C1357 C 0.52763 0.46496 0.52655 0.0
C1358 C 0.48214 0.45791 0.51963 0.0
C1359 C 0.53002 0.52538 0.49458 0.0
H1360 H 0.48609 0.50247 0.44021 0.0
H1361 H 0.48190 0.62324 0.47997 0.0
H1362 H 0.51074 0.43676 0.47269 0.0
H1363 H 0.49528 0.41588 0.46972 0.0
H1364 H 0.50359 0.43743 0.44943 0.0
H1365 H 0.48952 0.61883 0.51760 0.0
H1366 H 0.49772 0.57095 0.52628 0.0
H1367 H 0.50581 0.61324 0.51309 0.0
H1368 H 0.49939 0.41354 0.54734 0.0
H1369 H 0.53741 0.46635 0.52832 0.0
H1370 H 0.47969 0.44084 0.50631 0.0
H1371 H 0.47832 0.49187 0.51948 0.0
H1372 H 0.47830 0.43952 0.53189 0.0
H1373 H 0.53343 0.50578 0.48241 0.0
H1374 H 0.53792 0.53837 0.50283 0.0
H1375 H 0.52444 0.55339 0.48929 0.0
C1376 C 0.50702 0.78504 0.70282 0.0
C1377 C 0.51939 0.81093 0.70828 0.0
C1378 C 0.50015 0.75674 0.71899 0.0
C1379 C 0.50550 0.75351 0.73981 0.0
C1380 C 0.51834 0.77801 0.74516 0.0
C1381 C 0.52503 0.80677 0.72901 0.0
C1382 C 0.48643 0.72871 0.71317 0.0
C1383 C 0.52485 0.77427 0.76775 0.0
C1384 C 0.47970 0.73417 0.78569 0.0
C1385 C 0.48160 0.68392 0.79112 0.0
C1386 C 0.48749 0.75686 0.76959 0.0
C1387 C 0.49712 0.72879 0.75787 0.0
C1388 C 0.49904 0.67681 0.76244 0.0
C1389 C 0.49130 0.65361 0.77937 0.0
C1390 C 0.48532 0.81338 0.76477 0.0
C1391 C 0.51032 0.64459 0.75060 0.0
H1392 H 0.50339 0.78656 0.68864 0.0
H1393 H 0.53343 0.82353 0.73227 0.0
H1394 H 0.48556 0.69876 0.72213 0.0
H1395 H 0.47850 0.75087 0.71580 0.0
H1396 H 0.48663 0.71913 0.69797 0.0
H1397 H 0.53040 0.80425 0.77059 0.0
H1398 H 0.51747 0.77171 0.77855 0.0
H1399 H 0.53079 0.74460 0.76856 0.0
H1400 H 0.47295 0.75325 0.79320 0.0
H1401 H 0.49253 0.61932 0.78277 0.0
H1402 H 0.48130 0.81730 0.75048 0.0
H1403 H 0.49428 0.83068 0.76539 0.0
H1404 H 0.47905 0.82781 0.77552 0.0
H1405 H 0.50611 0.62761 0.73831 0.0
H1406 H 0.51411 0.61971 0.76059 0.0
H1407 H 0.51783 0.66637 0.74560 0.0
C1408 C 0.47605 0.18398 0.26977 0.0
C1409 C 0.48045 0.18876 0.29145 0.0
C1410 C 0.48297 0.21237 0.25369 0.0
C1411 C 0.49375 0.24510 0.25897 0.0
C1412 C 0.49784 0.25160 0.28102 0.0
C1413 C 0.49101 0.22258 0.29695 0.0
C1414 C 0.47832 0.20677 0.22977 0.0
C1415 C 0.50939 0.28839 0.28767 0.0
C1416 C 0.52164 0.26827 0.21648 0.0
C1417 C 0.51845 0.31616 0.20894 0.0
C1418 C 0.51395 0.24577 0.23274 0.0
C1419 C 0.50241 0.27034 0.24136 0.0
C1420 C 0.49850 0.31869 0.23358 0.0
C1421 C 0.50660 0.34254 0.21723 0.0
C1422 C 0.51829 0.19323 0.24107 0.0
C1423 C 0.48615 0.34895 0.24368 0.0
H1424 H 0.46864 0.16224 0.26607 0.0
H1425 H 0.49364 0.22602 0.31155 0.0
H1426 H 0.48000 0.23821 0.22212 0.0
H1427 H 0.48368 0.17989 0.22296 0.0
H1428 H 0.46841 0.19857 0.22924 0.0
H1429 H 0.51379 0.27663 0.30095 0.0
H1430 H 0.51640 0.29027 0.27626 0.0
H1431 H 0.50541 0.32166 0.29004 0.0
H1432 H 0.52926 0.25078 0.21036 0.0
H1433 H 0.50426 0.37480 0.21202 0.0
H1434 H 0.51116 0.16889 0.23730 0.0
H1435 H 0.51938 0.19432 0.25673 0.0
H1436 H 0.52713 0.18350 0.23449 0.0
H1437 H 0.47768 0.34272 0.23544 0.0
H1438 H 0.48833 0.38476 0.24336 0.0
H1439 H 0.48477 0.33838 0.25860 0.0
C1440 C 0.47710 0.01514 0.96433 0.0
C1441 C 0.48191 0.06258 0.95733 0.0
C1442 C 0.48511 0.98826 0.97967 0.0
C1443 C 0.49760 0.00741 0.98756 0.0
C1444 C 0.50279 0.05452 0.97985 0.0
C1445 C 0.49464 0.08146 0.96475 0.0
C1446 C 0.47978 0.93633 0.98765 0.0
C1447 C 0.51672 0.07642 0.98762 0.0
C1448 C 0.50841 0.96922 0.04432 0.0
C1449 C 0.51905 0.93470 0.04066 0.0
C1450 C 0.50170 0.99328 0.02743 0.0
C1451 C 0.50519 0.98169 0.00620 0.0
C1452 C 0.51570 0.94529 0.00175 0.0
C1453 C 0.52288 0.92138 0.01909 0.0
C1454 C 0.49030 0.03278 0.03245 0.0
C1455 C 0.52055 0.93334 0.97821 0.0
H1456 H 0.46870 0.00158 0.95886 0.0
H1457 H 0.49783 0.11278 0.95961 0.0
H1458 H 0.48772 0.91524 0.99149 0.0
H1459 H 0.47386 0.94111 0.00010 0.0
H1460 H 0.47440 0.92025 0.97621 0.0
H1461 H 0.51641 0.11299 0.98666 0.0
H1462 H 0.51834 0.06663 0.00260 0.0
H1463 H 0.52430 0.06372 0.97863 0.0
H1464 H 0.50573 0.97646 0.05867 0.0
H1465 H 0.52997 0.89754 0.01646 0.0
H1466 H 0.48131 0.02039 0.02759 0.0
H1467 H 0.49249 0.06408 0.02498 0.0
H1468 H 0.48999 0.03893 0.04797 0.0
H1469 H 0.51539 0.90459 0.97272 0.0
H1470 H 0.53051 0.92570 0.97824 0.0
H1471 H 0.51885 0.96239 0.96902 0.0
C1472 C 0.15634 0.35937 0.12353 0.0
C1473 C 0.16082 0.38993 0.14084 0.0
C1474 C 0.14192 0.35705 0.11874 0.0
C1475 C 0.13222 0.38351 0.13095 0.0
C1476 C 0.13666 0.41288 0.14905 0.0
C1477 C 0.15111 0.41556 0.15354 0.0
C1478 C 0.13694 0.32403 0.09953 0.0
C1479 C 0.12630 0.44151 0.16337 0.0
C1480 C 0.09891 0.42535 0.10288 0.0
C1481 C 0.08896 0.39221 0.11093 0.0
C1482 C 0.11269 0.42336 0.10952 0.0
C1483 C 0.11697 0.38639 0.12397 0.0
C1484 C 0.10721 0.35067 0.13203 0.0
C1485 C 0.09294 0.35338 0.12566 0.0
C1486 C 0.12320 0.46239 0.10067 0.0
C1487 C 0.11136 0.31045 0.14926 0.0
H1488 H 0.16285 0.34081 0.11530 0.0
H1489 H 0.15425 0.43506 0.16529 0.0
H1490 H 0.12755 0.31167 0.10244 0.0
H1491 H 0.13685 0.34421 0.08636 0.0
H1492 H 0.14329 0.29573 0.09772 0.0
H1493 H 0.13092 0.47067 0.16969 0.0
H1494 H 0.11841 0.45276 0.15465 0.0
H1495 H 0.12294 0.41954 0.17485 0.0
H1496 H 0.09617 0.44983 0.09266 0.0
H1497 H 0.08629 0.33034 0.13100 0.0
H1498 H 0.13002 0.44556 0.09163 0.0
H1499 H 0.12793 0.47883 0.11269 0.0
H1500 H 0.11823 0.48754 0.09217 0.0
H1501 H 0.11392 0.27931 0.14206 0.0
H1502 H 0.10347 0.30440 0.15888 0.0
H1503 H 0.11925 0.32270 0.15767 0.0
C1504 C 0.09917 0.84636 0.15586 0.0
C1505 C 0.08897 0.85196 0.13957 0.0
C1506 C 0.11336 0.84306 0.14975 0.0
C1507 C 0.11731 0.84441 0.12816 0.0
C1508 C 0.10696 0.84800 0.11156 0.0
C1509 C 0.09282 0.85199 0.11781 0.0
C1510 C 0.12466 0.83758 0.16761 0.0
C1511 C 0.11079 0.84812 0.08750 0.0
C1512 C 0.15315 0.89736 0.11501 0.0
C1513 C 0.16090 0.85463 0.11016 0.0
C1514 C 0.13916 0.89441 0.12037 0.0
C1515 C 0.13267 0.84777 0.12180 0.0
C1516 C 0.14035 0.80299 0.11767 0.0
C1517 C 0.15467 0.80593 0.11161 0.0
C1518 C 0.13091 0.94331 0.12481 0.0
C1519 C 0.13329 0.75006 0.11780 0.0
H1520 H 0.09657 0.84484 0.17056 0.0
H1521 H 0.08585 0.85480 0.10712 0.0
H1522 H 0.13258 0.81884 0.16191 0.0
H1523 H 0.12775 0.87092 0.17213 0.0
H1524 H 0.12071 0.81980 0.17995 0.0
H1525 H 0.10372 0.86657 0.07941 0.0
H1526 H 0.11983 0.86439 0.08554 0.0
H1527 H 0.11129 0.81367 0.08219 0.0
H1528 H 0.15756 0.92912 0.11459 0.0
H1529 H 0.15990 0.77669 0.10860 0.0
H1530 H 0.12819 0.94441 0.13990 0.0
H1531 H 0.12259 0.94408 0.11574 0.0
H1532 H 0.13675 0.97230 0.12147 0.0
H1533 H 0.13437 0.73481 0.13198 0.0
H1534 H 0.13769 0.72878 0.10692 0.0
H1535 H 0.12340 0.75358 0.11447 0.0
C1536 C 0.84377 0.57102 0.87582 0.0
C1537 C 0.83919 0.60310 0.85909 0.0
C1538 C 0.85820 0.56881 0.88057 0.0
C1539 C 0.86781 0.59686 0.86887 0.0
C1540 C 0.86327 0.62783 0.85133 0.0
C1541 C 0.84882 0.63037 0.84688 0.0
C1542 C 0.86329 0.53410 0.89915 0.0
C1543 C 0.87355 0.65830 0.83756 0.0
C1544 C 0.90099 0.63721 0.89770 0.0
C1545 C 0.91104 0.60531 0.88905 0.0
C1546 C 0.88722 0.63533 0.89102 0.0
C1547 C 0.88305 0.59967 0.87590 0.0
C1548 C 0.89292 0.56519 0.86719 0.0
C1549 C 0.90718 0.56784 0.87361 0.0
C1550 C 0.87659 0.67300 0.90059 0.0
C1551 C 0.88889 0.52657 0.84923 0.0
H1552 H 0.83732 0.55138 0.88370 0.0
H1553 H 0.84561 0.65089 0.83550 0.0
H1554 H 0.87271 0.52243 0.89603 0.0
H1555 H 0.86331 0.55294 0.91268 0.0
H1556 H 0.85702 0.50539 0.90044 0.0
H1557 H 0.86883 0.68787 0.83178 0.0
H1558 H 0.88140 0.66898 0.84648 0.0
H1559 H 0.87697 0.63764 0.82568 0.0
H1560 H 0.90365 0.66076 0.90836 0.0
H1561 H 0.91390 0.54563 0.86785 0.0
H1562 H 0.86982 0.65500 0.90930 0.0
H1563 H 0.87180 0.69044 0.88887 0.0
H1564 H 0.88148 0.69748 0.90954 0.0
H1565 H 0.88644 0.49463 0.85585 0.0
H1566 H 0.89680 0.52181 0.83951 0.0
H1567 H 0.88096 0.53932 0.84105 0.0
C1568 C 0.90719 0.12776 0.88144 0.0
C1569 C 0.91116 0.14751 0.86119 0.0
C1570 C 0.89303 0.13094 0.88773 0.0
C1571 C 0.88315 0.15372 0.87453 0.0
C1572 C 0.88724 0.17561 0.85439 0.0
C1573 C 0.90137 0.17166 0.84809 0.0
C1574 C 0.88855 0.10868 0.90988 0.0
C1575 C 0.87678 0.20244 0.83959 0.0
C1576 C 0.84575 0.10713 0.87852 0.0
C1577 C 0.83911 0.14532 0.88991 0.0
C1578 C 0.85975 0.11004 0.87321 0.0
C1579 C 0.86764 0.15099 0.87999 0.0
C1580 C 0.86135 0.19008 0.89231 0.0
C1581 C 0.84686 0.18786 0.89735 0.0
C1582 C 0.86647 0.06736 0.85980 0.0
C1583 C 0.86960 0.23819 0.89914 0.0
H1584 H 0.91386 0.11272 0.89063 0.0
H1585 H 0.90424 0.18548 0.83479 0.0
H1586 H 0.88061 0.12749 0.91547 0.0
H1587 H 0.88590 0.07353 0.90797 0.0
H1588 H 0.89633 0.11089 0.92000 0.0
H1589 H 0.87993 0.19997 0.82464 0.0
H1590 H 0.86764 0.18661 0.84093 0.0
H1591 H 0.87608 0.23772 0.84370 0.0
H1592 H 0.84055 0.07859 0.87429 0.0
H1593 H 0.84248 0.21366 0.90531 0.0
H1594 H 0.87326 0.04969 0.86861 0.0
H1595 H 0.87109 0.08163 0.84718 0.0
H1596 H 0.85925 0.04397 0.85507 0.0
H1597 H 0.87339 0.23360 0.91358 0.0
H1598 H 0.86333 0.26709 0.89904 0.0
H1599 H 0.87719 0.24402 0.88898 0.0
C1600 C 0.15083 0.90191 0.65598 0.0
C1601 C 0.16103 0.89800 0.63962 0.0
C1602 C 0.13662 0.90523 0.64992 0.0
C1603 C 0.13267 0.90553 0.62833 0.0
C1604 C 0.14301 0.90366 0.61168 0.0
C1605 C 0.15717 0.89964 0.61787 0.0
C1606 C 0.12533 0.90885 0.66786 0.0
C1607 C 0.13917 0.90539 0.58764 0.0
C1608 C 0.09695 0.85250 0.61439 0.0
C1609 C 0.08909 0.89533 0.61019 0.0
C1610 C 0.11094 0.85547 0.61979 0.0
C1611 C 0.11732 0.90218 0.62192 0.0
C1612 C 0.10951 0.94701 0.61848 0.0
C1613 C 0.09520 0.94409 0.61238 0.0
C1614 C 0.11932 0.80651 0.62347 0.0
C1615 C 0.11643 0.00010 0.61941 0.0
H1616 H 0.15343 0.90230 0.67070 0.0
H1617 H 0.16413 0.89794 0.60714 0.0
H1618 H 0.11735 0.92778 0.66245 0.0
H1619 H 0.12232 0.87506 0.67187 0.0
H1620 H 0.12923 0.92574 0.68046 0.0
H1621 H 0.14628 0.88787 0.57927 0.0
H1622 H 0.13017 0.88900 0.58543 0.0
H1623 H 0.13858 0.94024 0.58286 0.0
H1624 H 0.09263 0.82064 0.61349 0.0
H1625 H 0.08989 0.97338 0.60982 0.0
H1626 H 0.12205 0.80427 0.63854 0.0
H1627 H 0.12764 0.80678 0.61440 0.0
H1628 H 0.11356 0.77763 0.61969 0.0
H1629 H 0.11532 0.01417 0.63382 0.0
H1630 H 0.11197 0.02215 0.60887 0.0
H1631 H 0.12633 0.99722 0.61604 0.0
C1632 C 0.09731 0.31393 0.64497 0.0
C1633 C 0.08872 0.35400 0.63813 0.0
C1634 C 0.11134 0.31252 0.63788 0.0
C1635 C 0.11663 0.34918 0.62415 0.0
C1636 C 0.10780 0.38870 0.61648 0.0
C1637 C 0.09385 0.39024 0.62387 0.0
C1638 C 0.12090 0.26890 0.64559 0.0
C1639 C 0.11306 0.42914 0.60081 0.0
C1640 C 0.15537 0.37844 0.62801 0.0
C1641 C 0.16081 0.35571 0.60962 0.0
C1642 C 0.14123 0.37730 0.63253 0.0
C1643 C 0.13218 0.35137 0.61894 0.0
C1644 C 0.13740 0.32614 0.60034 0.0
C1645 C 0.15190 0.32831 0.59533 0.0
C1646 C 0.13567 0.40487 0.65278 0.0
C1647 C 0.12752 0.29916 0.58394 0.0
H1648 H 0.09376 0.28853 0.65411 0.0
H1649 H 0.08790 0.41623 0.61913 0.0
H1650 H 0.12792 0.26201 0.63459 0.0
H1651 H 0.12552 0.27861 0.65902 0.0
H1652 H 0.11527 0.23892 0.64805 0.0
H1653 H 0.10772 0.45995 0.60290 0.0
H1654 H 0.12291 0.43585 0.60360 0.0
H1655 H 0.11193 0.41753 0.58597 0.0
H1656 H 0.16148 0.39513 0.63761 0.0
H1657 H 0.15552 0.31224 0.58295 0.0
H1658 H 0.13214 0.38044 0.66305 0.0
H1659 H 0.12819 0.42770 0.64859 0.0
H1660 H 0.14321 0.42407 0.65940 0.0
H1661 H 0.12681 0.26373 0.58763 0.0
H1662 H 0.13129 0.30263 0.56937 0.0
H1663 H 0.11830 0.31450 0.58451 0.0
C1664 C 0.84310 0.08210 0.37975 0.0
C1665 C 0.83910 0.10235 0.35959 0.0
C1666 C 0.85747 0.07922 0.38482 0.0
C1667 C 0.86758 0.09511 0.37025 0.0
C1668 C 0.86359 0.11373 0.34946 0.0
C1669 C 0.84920 0.11715 0.34463 0.0
C1670 C 0.86194 0.05760 0.40710 0.0
C1671 C 0.87439 0.13030 0.33261 0.0
C1672 C 0.90175 0.14409 0.39323 0.0
C1673 C 0.91101 0.10493 0.38923 0.0
C1674 C 0.88793 0.14156 0.38684 0.0
C1675 C 0.88289 0.09835 0.37689 0.0
C1676 C 0.89191 0.05673 0.37316 0.0
C1677 C 0.90623 0.05967 0.37921 0.0
C1678 C 0.87822 0.18702 0.39096 0.0
C1679 C 0.88692 0.00869 0.36087 0.0
H1680 H 0.83631 0.07068 0.38966 0.0
H1681 H 0.84637 0.12971 0.33108 0.0
H1682 H 0.87106 0.04168 0.40578 0.0
H1683 H 0.86247 0.08489 0.41761 0.0
H1684 H 0.85508 0.03293 0.41187 0.0
H1685 H 0.87029 0.15577 0.32323 0.0
H1686 H 0.88252 0.14442 0.33991 0.0
H1687 H 0.87726 0.10146 0.32397 0.0
H1688 H 0.90500 0.17312 0.40045 0.0
H1689 H 0.91240 0.03266 0.37667 0.0
H1690 H 0.87115 0.17783 0.40146 0.0
H1691 H 0.87374 0.19687 0.37747 0.0
H1692 H 0.88370 0.21513 0.39648 0.0
H1693 H 0.88382 0.98357 0.37122 0.0
H1694 H 0.89462 0.99522 0.35234 0.0
H1695 H 0.87923 0.01741 0.35128 0.0
C1696 C 0.90144 0.61503 0.34771 0.0
C1697 C 0.91117 0.63957 0.36121 0.0
C1698 C 0.88734 0.61234 0.35437 0.0
C1699 C 0.88305 0.63260 0.37397 0.0
C1700 C 0.89298 0.65568 0.38810 0.0
C1701 C 0.90701 0.65883 0.38119 0.0
C1702 C 0.87655 0.58598 0.33945 0.0
C1703 C 0.88881 0.67721 0.41016 0.0
C1704 C 0.84564 0.67914 0.37792 0.0
C1705 C 0.83915 0.64205 0.39015 0.0
C1706 C 0.85972 0.67681 0.37305 0.0
C1707 C 0.86759 0.63572 0.37973 0.0
C1708 C 0.86124 0.59610 0.39165 0.0
C1709 C 0.84683 0.59898 0.39717 0.0
C1710 C 0.86652 0.72009 0.36010 0.0
C1711 C 0.86985 0.55078 0.40059 0.0
H1712 H 0.90429 0.60065 0.33447 0.0
H1713 H 0.91369 0.67427 0.39019 0.0
H1714 H 0.86915 0.57134 0.34823 0.0
H1715 H 0.87254 0.61066 0.32957 0.0
H1716 H 0.88119 0.55965 0.33119 0.0
H1717 H 0.89516 0.70438 0.41404 0.0
H1718 H 0.87931 0.69031 0.40941 0.0
H1719 H 0.88927 0.65087 0.42108 0.0
H1720 H 0.84031 0.70661 0.37287 0.0
H1721 H 0.84246 0.57332 0.40525 0.0
H1722 H 0.86941 0.70777 0.34605 0.0
H1723 H 0.87463 0.73266 0.36794 0.0
H1724 H 0.85980 0.74726 0.35826 0.0
H1725 H 0.86944 0.52303 0.39039 0.0
H1726 H 0.86595 0.54015 0.41442 0.0
H1727 H 0.87952 0.56098 0.40265 0.0
C1728 C 0.59596 0.34669 0.61292 0.0
C1729 C 0.58930 0.39286 0.60845 0.0
C1730 C 0.61045 0.34672 0.61732 0.0
C1731 C 0.61814 0.39099 0.61695 0.0
C1732 C 0.61153 0.43756 0.61156 0.0
C1733 C 0.59702 0.43731 0.60748 0.0
C1734 C 0.61781 0.29613 0.62254 0.0
C1735 C 0.61968 0.48711 0.61033 0.0
C1736 C 0.65004 0.39855 0.65330 0.0
C1737 C 0.66108 0.39353 0.63886 0.0
C1738 C 0.63632 0.39873 0.64635 0.0
C1739 C 0.63328 0.39187 0.62457 0.0
C1740 C 0.64426 0.38489 0.60936 0.0
C1741 C 0.65842 0.38598 0.61636 0.0
C1742 C 0.62448 0.40638 0.66301 0.0
C1743 C 0.64138 0.38013 0.58459 0.0
H1744 H 0.59085 0.31634 0.61296 0.0
H1745 H 0.59246 0.46770 0.60408 0.0
H1746 H 0.62751 0.29771 0.61783 0.0
H1747 H 0.61749 0.29020 0.63809 0.0
H1748 H 0.61304 0.26886 0.61505 0.0
H1749 H 0.61344 0.51506 0.61357 0.0
H1750 H 0.62726 0.48665 0.62085 0.0
H1751 H 0.62354 0.49131 0.59587 0.0
H1752 H 0.65199 0.40202 0.66819 0.0
H1753 H 0.66584 0.38192 0.60649 0.0
H1754 H 0.61900 0.37581 0.66412 0.0
H1755 H 0.61850 0.43398 0.65836 0.0
H1756 H 0.62850 0.41442 0.67707 0.0
H1757 H 0.64072 0.34481 0.58068 0.0
H1758 H 0.64900 0.39578 0.57658 0.0
H1759 H 0.63266 0.39705 0.58107 0.0
C1760 C 0.59444 0.89824 0.62810 0.0
C1761 C 0.58925 0.85909 0.64124 0.0
C1762 C 0.60890 0.89977 0.62354 0.0
C1763 C 0.61797 0.86412 0.63202 0.0
C1764 C 0.61284 0.82560 0.64606 0.0
C1765 C 0.59835 0.82392 0.65029 0.0
C1766 C 0.61464 0.94236 0.60886 0.0
C1767 C 0.62252 0.78635 0.65630 0.0
C1768 C 0.65052 0.83319 0.59957 0.0
C1769 C 0.66106 0.85729 0.61105 0.0
C1770 C 0.63678 0.83445 0.60642 0.0
C1771 C 0.63316 0.86184 0.62472 0.0
C1772 C 0.64356 0.88846 0.63651 0.0
C1773 C 0.65778 0.88622 0.62984 0.0
C1774 C 0.62557 0.80535 0.59349 0.0
C1775 C 0.64012 0.91717 0.65788 0.0
H1776 H 0.58837 0.92296 0.62246 0.0
H1777 H 0.59476 0.79856 0.65936 0.0
H1778 H 0.62423 0.94994 0.61295 0.0
H1779 H 0.61440 0.93134 0.59382 0.0
H1780 H 0.60888 0.97231 0.61054 0.0
H1781 H 0.61729 0.75556 0.65904 0.0
H1782 H 0.63022 0.77906 0.64647 0.0
H1783 H 0.62624 0.79926 0.66988 0.0
H1784 H 0.65282 0.81548 0.58683 0.0
H1785 H 0.66484 0.90320 0.63757 0.0
H1786 H 0.61915 0.82901 0.58688 0.0
H1787 H 0.62045 0.78316 0.60320 0.0
H1788 H 0.63007 0.78533 0.58228 0.0
H1789 H 0.63824 0.95228 0.65464 0.0
H1790 H 0.64805 0.91482 0.66771 0.0
H1791 H 0.63196 0.90212 0.66466 0.0
C1792 C 0.40515 0.56225 0.38056 0.0
C1793 C 0.41073 0.60444 0.39136 0.0
C1794 C 0.39067 0.56115 0.37608 0.0
C1795 C 0.38197 0.60022 0.38242 0.0
C1796 C 0.38750 0.64207 0.39414 0.0
C1797 C 0.40200 0.64322 0.39829 0.0
C1798 C 0.38449 0.51514 0.36394 0.0
C1799 C 0.37822 0.68534 0.40203 0.0
C1800 C 0.34967 0.62493 0.34839 0.0
C1801 C 0.33893 0.60594 0.36110 0.0
C1802 C 0.36340 0.62407 0.35529 0.0
C1803 C 0.36679 0.60214 0.37500 0.0
C1804 C 0.35616 0.58073 0.38818 0.0
C1805 C 0.34196 0.58268 0.38139 0.0
C1806 C 0.37486 0.64748 0.34085 0.0
C1807 C 0.35936 0.55847 0.41101 0.0
H1808 H 0.41096 0.53526 0.37640 0.0
H1809 H 0.40585 0.67069 0.40584 0.0
H1810 H 0.37483 0.51011 0.36840 0.0
H1811 H 0.38480 0.52138 0.34841 0.0
H1812 H 0.38996 0.48528 0.36733 0.0
H1813 H 0.38375 0.71602 0.40299 0.0
H1814 H 0.37058 0.69049 0.39184 0.0
H1815 H 0.37441 0.67721 0.41620 0.0
H1816 H 0.34751 0.63882 0.33474 0.0
H1817 H 0.33476 0.56914 0.39001 0.0
H1818 H 0.38103 0.62119 0.33566 0.0
H1819 H 0.38022 0.67182 0.34922 0.0
H1820 H 0.37054 0.66441 0.32858 0.0
H1821 H 0.36090 0.52245 0.40981 0.0
H1822 H 0.35148 0.56484 0.42060 0.0
H1823 H 0.36768 0.57444 0.41689 0.0
C1824 C 0.40081 0.15234 0.34403 0.0
C1825 C 0.41090 0.13926 0.35967 0.0
C1826 C 0.38652 0.14902 0.34958 0.0
C1827 C 0.38235 0.13247 0.36986 0.0
C1828 C 0.39253 0.11722 0.38546 0.0
C1829 C 0.40679 0.12131 0.37989 0.0
C1830 C 0.37537 0.16400 0.33253 0.0
C1831 C 0.38841 0.09730 0.40782 0.0
C1832 C 0.34801 0.18241 0.39183 0.0
C1833 C 0.33904 0.14167 0.38952 0.0
C1834 C 0.36192 0.17939 0.38596 0.0
C1835 C 0.36709 0.13547 0.37676 0.0
C1836 C 0.35814 0.09347 0.37345 0.0
C1837 C 0.34389 0.09598 0.37998 0.0
C1838 C 0.37156 0.22525 0.38965 0.0
C1839 C 0.36368 0.04241 0.36440 0.0
H1840 H 0.40355 0.16309 0.33012 0.0
H1841 H 0.41366 0.11184 0.39002 0.0
H1842 H 0.36689 0.14460 0.33495 0.0
H1843 H 0.37328 0.19977 0.33393 0.0
H1844 H 0.37895 0.15722 0.31808 0.0
H1845 H 0.39586 0.10446 0.41810 0.0
H1846 H 0.37985 0.11377 0.41259 0.0
H1847 H 0.38688 0.06111 0.40707 0.0
H1848 H 0.34452 0.21280 0.39758 0.0
H1849 H 0.33784 0.06835 0.37811 0.0
H1850 H 0.37449 0.23871 0.37581 0.0
H1851 H 0.37974 0.21485 0.39789 0.0
H1852 H 0.36652 0.25101 0.39769 0.0
H1853 H 0.36235 0.04142 0.34883 0.0
H1854 H 0.35856 0.01478 0.37109 0.0
H1855 H 0.37357 0.03909 0.36774 0.0
C1856 C 0.65728 0.90493 0.11799 0.0
C1857 C 0.66115 0.88931 0.13895 0.0
C1858 C 0.64310 0.90166 0.11183 0.0
C1859 C 0.63308 0.88271 0.12588 0.0
C1860 C 0.63705 0.86492 0.14681 0.0
C1861 C 0.65121 0.86897 0.15295 0.0
C1862 C 0.63875 0.91943 0.08889 0.0
C1863 C 0.62643 0.84234 0.16261 0.0
C1864 C 0.59600 0.93153 0.11999 0.0
C1865 C 0.58909 0.89164 0.11017 0.0
C1866 C 0.60999 0.92855 0.12541 0.0
C1867 C 0.61759 0.88562 0.12031 0.0
C1868 C 0.61102 0.84460 0.10959 0.0
C1869 C 0.59654 0.84701 0.10447 0.0
C1870 C 0.61701 0.97333 0.13707 0.0
C1871 C 0.61893 0.79451 0.10473 0.0
H1872 H 0.66405 0.91734 0.10825 0.0
H1873 H 0.65400 0.85784 0.16674 0.0
H1874 H 0.63067 0.90019 0.08406 0.0
H1875 H 0.63634 0.95506 0.08938 0.0
H1876 H 0.64649 0.91435 0.07891 0.0
H1877 H 0.62961 0.84776 0.17739 0.0
H1878 H 0.61739 0.85862 0.16063 0.0
H1879 H 0.62548 0.80640 0.15992 0.0
H1880 H 0.59101 0.96131 0.12305 0.0
H1881 H 0.59198 0.81999 0.09757 0.0
H1882 H 0.62391 0.98842 0.12760 0.0
H1883 H 0.62155 0.96145 0.15021 0.0
H1884 H 0.60996 0.99827 0.14083 0.0
H1885 H 0.62274 0.79562 0.09018 0.0
H1886 H 0.61246 0.76632 0.10597 0.0
H1887 H 0.62649 0.79023 0.11509 0.0
C1888 C 0.65421 0.40322 0.11394 0.0
C1889 C 0.66070 0.35732 0.10846 0.0
C1890 C 0.63972 0.40337 0.11835 0.0
C1891 C 0.63187 0.35958 0.11702 0.0
C1892 C 0.63830 0.31338 0.11062 0.0
C1893 C 0.65281 0.31342 0.10653 0.0
C1894 C 0.63255 0.45363 0.12466 0.0
C1895 C 0.62997 0.26444 0.10832 0.0
C1896 C 0.59995 0.34927 0.15318 0.0
C1897 C 0.58894 0.35652 0.13889 0.0
C1898 C 0.61367 0.34926 0.14623 0.0
C1899 C 0.61673 0.35852 0.12462 0.0
C1900 C 0.60578 0.36782 0.10959 0.0
C1901 C 0.59161 0.36659 0.11658 0.0
C1902 C 0.62549 0.33908 0.16270 0.0
C1903 C 0.60866 0.37536 0.08496 0.0
H1904 H 0.65944 0.43328 0.11464 0.0
H1905 H 0.65726 0.28326 0.10247 0.0
H1906 H 0.62285 0.45307 0.11994 0.0
H1907 H 0.63290 0.45770 0.14033 0.0
H1908 H 0.63743 0.48152 0.11777 0.0
H1909 H 0.63611 0.23585 0.11093 0.0
H1910 H 0.62240 0.26403 0.11884 0.0
H1911 H 0.62609 0.26214 0.09379 0.0
H1912 H 0.59800 0.34414 0.16798 0.0
H1913 H 0.58421 0.37216 0.10681 0.0
H1914 H 0.63108 0.36921 0.16446 0.0
H1915 H 0.63137 0.31178 0.15744 0.0
H1916 H 0.62144 0.32958 0.17656 0.0
H1917 H 0.60946 0.41105 0.08182 0.0
H1918 H 0.60098 0.36104 0.07663 0.0
H1919 H 0.61732 0.35845 0.08106 0.0
C1920 C 0.40156 0.13694 0.90164 0.0
C1921 C 0.41119 0.11036 0.88869 0.0
C1922 C 0.38747 0.13951 0.89492 0.0
C1923 C 0.38309 0.11717 0.87579 0.0
C1924 C 0.39293 0.09196 0.86219 0.0
C1925 C 0.40695 0.08896 0.86916 0.0
C1926 C 0.37679 0.16814 0.90924 0.0
C1927 C 0.38866 0.06804 0.84063 0.0
C1928 C 0.34551 0.07203 0.87286 0.0
C1929 C 0.33915 0.10793 0.85984 0.0
C1930 C 0.35960 0.07426 0.87768 0.0
C1931 C 0.36762 0.11411 0.87011 0.0
C1932 C 0.36140 0.15257 0.85733 0.0
C1933 C 0.34698 0.14974 0.85188 0.0
C1934 C 0.36625 0.03224 0.89156 0.0
C1935 C 0.37017 0.19635 0.84740 0.0
H1936 H 0.40448 0.15273 0.91454 0.0
H1937 H 0.41356 0.07214 0.86050 0.0
H1938 H 0.36944 0.18207 0.90015 0.0
H1939 H 0.37269 0.14486 0.91965 0.0
H1940 H 0.38153 0.19519 0.91692 0.0
H1941 H 0.39491 0.04014 0.83735 0.0
H1942 H 0.37911 0.05551 0.84166 0.0
H1943 H 0.38921 0.09302 0.82914 0.0
H1944 H 0.34008 0.04546 0.87851 0.0
H1945 H 0.34271 0.17461 0.84325 0.0
H1946 H 0.36919 0.04608 0.90533 0.0
H1947 H 0.37430 0.01837 0.88401 0.0
H1948 H 0.35942 0.00566 0.89399 0.0
H1949 H 0.36988 0.22529 0.85699 0.0
H1950 H 0.36630 0.20551 0.83336 0.0
H1951 H 0.37980 0.18545 0.84557 0.0
C1952 C 0.40276 0.60055 0.85543 0.0
C1953 C 0.41128 0.64114 0.86189 0.0
C1954 C 0.38873 0.59921 0.86254 0.0
C1955 C 0.38339 0.63646 0.87591 0.0
C1956 C 0.39215 0.67655 0.88322 0.0
C1957 C 0.40609 0.67799 0.87581 0.0
C1958 C 0.37924 0.55501 0.85525 0.0
C1959 C 0.38682 0.71766 0.89850 0.0
C1960 C 0.34460 0.66471 0.87178 0.0
C1961 C 0.33919 0.64281 0.89039 0.0
C1962 C 0.35874 0.66363 0.86728 0.0
C1963 C 0.36783 0.63859 0.88110 0.0
C1964 C 0.36265 0.61421 0.89994 0.0
C1965 C 0.34815 0.61633 0.90493 0.0
C1966 C 0.36425 0.69027 0.84677 0.0
C1967 C 0.37257 0.58829 0.91660 0.0
H1968 H 0.40635 0.57477 0.84654 0.0
H1969 H 0.41200 0.70434 0.88030 0.0
H1970 H 0.37223 0.54854 0.86631 0.0
H1971 H 0.37461 0.56394 0.84173 0.0
H1972 H 0.38492 0.52503 0.85307 0.0
H1973 H 0.39211 0.74848 0.89611 0.0
H1974 H 0.37696 0.72403 0.89565 0.0
H1975 H 0.38797 0.70684 0.91345 0.0
H1976 H 0.33846 0.68077 0.86203 0.0
H1977 H 0.34455 0.60083 0.91746 0.0
H1978 H 0.36783 0.66539 0.83674 0.0
H1979 H 0.37170 0.71346 0.85074 0.0
H1980 H 0.35668 0.70897 0.83997 0.0
H1981 H 0.37333 0.55269 0.91324 0.0
H1982 H 0.36879 0.59242 0.93112 0.0
H1983 H 0.38177 0.60378 0.91588 0.0
C1984 C 0.02858 0.02391 0.14775 0.0
C1985 C 0.03774 0.99314 0.13574 0.0
C1986 C 0.02930 0.07662 0.14499 0.0
C1987 C 0.03894 0.09823 0.13105 0.0
C1988 C 0.04863 0.06731 0.11952 0.0
C1989 C 0.04772 0.01465 0.12214 0.0
C1990 C 0.01911 0.11065 0.15793 0.0
C1991 C 0.05973 0.08958 0.10445 0.0
C1992 C 0.02923 0.22269 0.10494 0.0
C1993 C 0.03731 0.25725 0.11623 0.0
C1994 C 0.02990 0.17175 0.10932 0.0
C1995 C 0.03842 0.15429 0.12590 0.0
C1996 C 0.04650 0.18861 0.13833 0.0
C1997 C 0.04611 0.24096 0.13351 0.0
C1998 C 0.02107 0.13478 0.09569 0.0
C1999 C 0.05685 0.17042 0.15621 0.0
H2000 H 0.02209 0.00957 0.15744 0.0
H2001 H 0.05393 0.99362 0.11454 0.0
H2002 H 0.02351 0.14307 0.16065 0.0
H2003 H 0.01060 0.11567 0.14955 0.0
H2004 H 0.01683 0.09451 0.17162 0.0
H2005 H 0.06203 0.06523 0.09324 0.0
H2006 H 0.05612 0.12009 0.09773 0.0
H2007 H 0.06810 0.09767 0.11271 0.0
H2008 H 0.02315 0.23431 0.09399 0.0
H2009 H 0.05151 0.26422 0.14144 0.0
H2010 H 0.01397 0.11957 0.10475 0.0
H2011 H 0.02711 0.10864 0.08981 0.0
H2012 H 0.01663 0.15290 0.08385 0.0
H2013 H 0.05221 0.17103 0.17018 0.0
H2014 H 0.06495 0.19263 0.15656 0.0
H2015 H 0.05989 0.13631 0.15299 0.0
C2016 C 0.22177 0.02373 0.10271 0.0
C2017 C 0.21230 0.99316 0.11422 0.0
C2018 C 0.22108 0.07646 0.10543 0.0
C2019 C 0.21115 0.09827 0.11885 0.0
C2020 C 0.20117 0.06756 0.12985 0.0
C2021 C 0.20206 0.01487 0.12728 0.0
C2022 C 0.23159 0.11028 0.09304 0.0
C2023 C 0.18977 0.09006 0.14431 0.0
C2024 C 0.22048 0.22254 0.14546 0.0
C2025 C 0.21271 0.25726 0.13374 0.0
C2026 C 0.21983 0.17162 0.14105 0.0
C2027 C 0.21165 0.15432 0.12402 0.0
C2028 C 0.20390 0.18880 0.11116 0.0
C2029 C 0.20427 0.24114 0.11600 0.0
C2030 C 0.22828 0.13448 0.15514 0.0
C2031 C 0.19394 0.17081 0.09274 0.0
H2032 H 0.22845 0.00926 0.09337 0.0
H2033 H 0.19565 0.99398 0.13454 0.0
H2034 H 0.22731 0.14278 0.09009 0.0
H2035 H 0.23993 0.11512 0.10187 0.0
H2036 H 0.23416 0.09408 0.07948 0.0
H2037 H 0.18719 0.06575 0.15540 0.0
H2038 H 0.19328 0.12050 0.15122 0.0
H2039 H 0.18161 0.09831 0.13562 0.0
H2040 H 0.22632 0.23405 0.15673 0.0
H2041 H 0.19909 0.26451 0.10779 0.0
H2042 H 0.23556 0.11911 0.14646 0.0
H2043 H 0.22208 0.10846 0.16070 0.0
H2044 H 0.23249 0.15251 0.16721 0.0
H2045 H 0.19889 0.17132 0.07903 0.0
H2046 H 0.18588 0.19318 0.09196 0.0
H2047 H 0.19077 0.13677 0.09580 0.0
C2048 C 0.95521 0.77416 0.89828 0.0
C2049 C 0.96397 0.74317 0.88567 0.0
C2050 C 0.95595 0.82686 0.89547 0.0
C2051 C 0.96525 0.84822 0.88090 0.0
C2052 C 0.97455 0.81706 0.86875 0.0
C2053 C 0.97360 0.76443 0.87142 0.0
C2054 C 0.94621 0.86114 0.90907 0.0
C2055 C 0.98526 0.83906 0.85296 0.0
C2056 C 0.95506 0.97293 0.85545 0.0
C2057 C 0.96352 0.00729 0.86619 0.0
C2058 C 0.95576 0.92198 0.85979 0.0
C2059 C 0.96469 0.90429 0.87579 0.0
C2060 C 0.97318 0.93841 0.88767 0.0
C2061 C 0.97276 0.99077 0.88288 0.0
C2062 C 0.94649 0.88524 0.84676 0.0
C2063 C 0.98398 0.91995 0.90486 0.0
H2064 H 0.94897 0.75998 0.90839 0.0
H2065 H 0.97956 0.74324 0.86343 0.0
H2066 H 0.95074 0.89344 0.91149 0.0
H2067 H 0.93747 0.86637 0.90126 0.0
H2068 H 0.94427 0.84505 0.92290 0.0
H2069 H 0.98720 0.81465 0.84160 0.0
H2070 H 0.98153 0.86966 0.84648 0.0
H2071 H 0.99387 0.84693 0.86065 0.0
H2072 H 0.94872 0.98472 0.84491 0.0
H2073 H 0.97841 0.01389 0.89044 0.0
H2074 H 0.93962 0.87021 0.85628 0.0
H2075 H 0.95231 0.85895 0.84048 0.0
H2076 H 0.94176 0.90348 0.83522 0.0
H2077 H 0.97972 0.92067 0.91912 0.0
H2078 H 0.99212 0.94195 0.90466 0.0
H2079 H 0.98686 0.88576 0.90144 0.0
C2080 C 0.79890 0.97900 0.89011 0.0
C2081 C 0.78660 0.00670 0.88616 0.0
C2082 C 0.79855 0.92613 0.88776 0.0
C2083 C 0.78632 0.90140 0.88203 0.0
C2084 C 0.77369 0.92913 0.87888 0.0
C2085 C 0.77418 0.98199 0.88097 0.0
C2086 C 0.81210 0.89549 0.89179 0.0
C2087 C 0.75986 0.90329 0.87317 0.0
C2088 C 0.78979 0.77881 0.85097 0.0
C2089 C 0.78669 0.74266 0.86647 0.0
C2090 C 0.78944 0.82961 0.85574 0.0
C2091 C 0.78643 0.84543 0.87664 0.0
C2092 C 0.78366 0.80956 0.89316 0.0
C2093 C 0.78366 0.75727 0.88819 0.0
C2094 C 0.79246 0.86826 0.83766 0.0
C2095 C 0.77940 0.82567 0.91652 0.0
H2096 H 0.80722 0.99545 0.89424 0.0
H2097 H 0.76599 0.00010 0.87878 0.0
H2098 H 0.80968 0.86210 0.89707 0.0
H2099 H 0.81727 0.89243 0.87827 0.0
H2100 H 0.81784 0.91278 0.90247 0.0
H2101 H 0.75400 0.92648 0.86502 0.0
H2102 H 0.76171 0.87356 0.86440 0.0
H2103 H 0.75505 0.89333 0.88638 0.0
H2104 H 0.79218 0.76839 0.83685 0.0
H2105 H 0.78171 0.73296 0.89887 0.0
H2106 H 0.80111 0.88572 0.84081 0.0
H2107 H 0.78483 0.89245 0.83690 0.0
H2108 H 0.79327 0.85089 0.82385 0.0
H2109 H 0.78766 0.82690 0.92565 0.0
H2110 H 0.77278 0.80136 0.92239 0.0
H2111 H 0.77504 0.85872 0.91607 0.0
C2112 C 0.03948 0.73924 0.63695 0.0
C2113 C 0.03572 0.75760 0.61636 0.0
C2114 C 0.03856 0.68698 0.64092 0.0
C2115 C 0.03385 0.65406 0.62510 0.0
C2116 C 0.02949 0.67276 0.60450 0.0
C2117 C 0.03062 0.72492 0.60056 0.0
C2118 C 0.04285 0.66644 0.66346 0.0
C2119 C 0.02383 0.63802 0.58677 0.0
C2120 C 0.04766 0.52020 0.62649 0.0
C2121 C 0.03639 0.49295 0.63443 0.0
C2122 C 0.04683 0.57151 0.62309 0.0
C2123 C 0.03467 0.59730 0.62841 0.0
C2124 C 0.02306 0.57107 0.63726 0.0
C2125 C 0.02375 0.51804 0.64027 0.0
C2126 C 0.05951 0.59963 0.61345 0.0
C2127 C 0.00892 0.59795 0.64224 0.0
H2128 H 0.04254 0.76142 0.64789 0.0
H2129 H 0.02791 0.73792 0.58703 0.0
H2130 H 0.03747 0.63628 0.66668 0.0
H2131 H 0.05278 0.65820 0.66334 0.0
H2132 H 0.04105 0.69195 0.67441 0.0
H2133 H 0.02573 0.65274 0.57265 0.0
H2134 H 0.02839 0.60532 0.58774 0.0
H2135 H 0.01379 0.63375 0.58857 0.0
H2136 H 0.05607 0.50321 0.62332 0.0
H2137 H 0.01610 0.49994 0.64592 0.0
H2138 H 0.06333 0.62237 0.62419 0.0
H2139 H 0.05655 0.61873 0.60081 0.0
H2140 H 0.06663 0.57539 0.60919 0.0
H2141 H 0.00875 0.60838 0.65730 0.0
H2142 H 0.00122 0.57483 0.63948 0.0
H2143 H 0.00795 0.62731 0.63296 0.0
C2144 C 0.21488 0.51064 0.63716 0.0
C2145 C 0.21436 0.49259 0.61572 0.0
C2146 C 0.21581 0.56308 0.64064 0.0
C2147 C 0.21644 0.59653 0.62343 0.0
C2148 C 0.21648 0.57825 0.60169 0.0
C2149 C 0.21536 0.52587 0.59835 0.0
C2150 C 0.21621 0.58324 0.66419 0.0
C2151 C 0.21757 0.61366 0.58221 0.0
C2152 C 0.20171 0.72757 0.63223 0.0
C2153 C 0.21362 0.75711 0.63415 0.0
C2154 C 0.20254 0.67642 0.62840 0.0
C2155 C 0.21551 0.65311 0.62720 0.0
C2156 C 0.22796 0.68172 0.62980 0.0
C2157 C 0.22715 0.73461 0.63320 0.0
C2158 C 0.18895 0.64571 0.62558 0.0
C2159 C 0.24275 0.65769 0.62727 0.0
H2160 H 0.21462 0.48814 0.64895 0.0
H2161 H 0.21525 0.51313 0.58413 0.0
H2162 H 0.22152 0.61446 0.66463 0.0
H2163 H 0.20669 0.58957 0.66912 0.0
H2164 H 0.22059 0.55834 0.67354 0.0
H2165 H 0.21302 0.59829 0.56976 0.0
H2166 H 0.21299 0.64545 0.58555 0.0
H2167 H 0.22737 0.61988 0.57886 0.0
H2168 H 0.19285 0.74286 0.63354 0.0
H2169 H 0.23529 0.75427 0.63475 0.0
H2170 H 0.18795 0.62249 0.63757 0.0
H2171 H 0.18936 0.62694 0.61206 0.0
H2172 H 0.18098 0.66846 0.62523 0.0
H2173 H 0.24624 0.64763 0.64138 0.0
H2174 H 0.24909 0.68220 0.62087 0.0
H2175 H 0.24214 0.62836 0.61790 0.0
C2176 C 0.95158 0.47838 0.35828 0.0
C2177 C 0.96351 0.50671 0.36388 0.0
C2178 C 0.95202 0.42554 0.36069 0.0
C2179 C 0.96397 0.40143 0.36807 0.0
C2180 C 0.97626 0.42981 0.37292 0.0
C2181 C 0.97568 0.48265 0.37076 0.0
C2182 C 0.93887 0.39420 0.35483 0.0
C2183 C 0.98981 0.40469 0.38050 0.0
C2184 C 0.95923 0.27865 0.39857 0.0
C2185 C 0.96335 0.24267 0.38357 0.0
C2186 C 0.95965 0.32946 0.39385 0.0
C2187 C 0.96378 0.34546 0.37344 0.0
C2188 C 0.96762 0.30976 0.35738 0.0
C2189 C 0.96754 0.25746 0.36234 0.0
C2190 C 0.95546 0.36793 0.41143 0.0
C2191 C 0.97313 0.32611 0.33468 0.0
H2192 H 0.94347 0.49441 0.35302 0.0
H2193 H 0.98363 0.50204 0.37405 0.0
H2194 H 0.94171 0.36095 0.34991 0.0
H2195 H 0.93296 0.39086 0.36759 0.0
H2196 H 0.93369 0.41120 0.34341 0.0
H2197 H 0.99509 0.42817 0.38942 0.0
H2198 H 0.98759 0.37486 0.38899 0.0
H2199 H 0.99539 0.39499 0.36801 0.0
H2200 H 0.95609 0.26808 0.41231 0.0
H2201 H 0.97019 0.23327 0.35197 0.0
H2202 H 0.94695 0.38494 0.40711 0.0
H2203 H 0.96292 0.39251 0.41322 0.0
H2204 H 0.95393 0.35050 0.42509 0.0
H2205 H 0.96542 0.32693 0.32446 0.0
H2206 H 0.98015 0.30216 0.32975 0.0
H2207 H 0.97731 0.35939 0.33571 0.0
C2208 C 0.79601 0.27354 0.35336 0.0
C2209 C 0.78614 0.24322 0.36418 0.0
C2210 C 0.79534 0.32628 0.35602 0.0
C2211 C 0.78508 0.34837 0.36872 0.0
C2212 C 0.77472 0.31792 0.37900 0.0
C2213 C 0.77557 0.26522 0.37649 0.0
C2214 C 0.80629 0.35981 0.34440 0.0
C2215 C 0.76295 0.34074 0.39264 0.0
C2216 C 0.79386 0.47239 0.39598 0.0
C2217 C 0.78652 0.50732 0.38372 0.0
C2218 C 0.79323 0.42149 0.39152 0.0
C2219 C 0.78554 0.40440 0.37393 0.0
C2220 C 0.77825 0.43909 0.36053 0.0
C2221 C 0.77858 0.49142 0.36540 0.0
C2222 C 0.80119 0.38412 0.40619 0.0
C2223 C 0.76881 0.42136 0.34142 0.0
H2224 H 0.80293 0.25888 0.34450 0.0
H2225 H 0.76891 0.24450 0.38329 0.0
H2226 H 0.80216 0.39243 0.34115 0.0
H2227 H 0.81436 0.36443 0.35381 0.0
H2228 H 0.80922 0.34355 0.33103 0.0
H2229 H 0.75999 0.31651 0.40353 0.0
H2230 H 0.76631 0.37109 0.39979 0.0
H2231 H 0.75507 0.34921 0.38337 0.0
H2232 H 0.79939 0.48375 0.40765 0.0
H2233 H 0.77370 0.51492 0.35683 0.0
H2234 H 0.80868 0.36856 0.39804 0.0
H2235 H 0.79477 0.35828 0.41130 0.0
H2236 H 0.80507 0.40205 0.41855 0.0
H2237 H 0.77416 0.42173 0.32807 0.0
H2238 H 0.76083 0.44394 0.34007 0.0
H2239 H 0.76548 0.38740 0.34425 0.0
C2240 C 0.52396 0.01744 0.63073 0.0
C2241 C 0.53661 0.99331 0.63617 0.0
C2242 C 0.52388 0.07035 0.62848 0.0
C2243 C 0.53588 0.09854 0.63186 0.0
C2244 C 0.54858 0.07443 0.63824 0.0
C2245 C 0.54863 0.02150 0.64016 0.0
C2246 C 0.51004 0.09707 0.62222 0.0
C2247 C 0.56198 0.10415 0.64277 0.0
C2248 C 0.53944 0.22113 0.60083 0.0
C2249 C 0.53686 0.25737 0.61652 0.0
C2250 C 0.53941 0.17038 0.60572 0.0
C2251 C 0.53622 0.15454 0.62656 0.0
C2252 C 0.53305 0.19036 0.64293 0.0
C2253 C 0.53343 0.24270 0.63809 0.0
C2254 C 0.54288 0.13179 0.58782 0.0
C2255 C 0.53025 0.17446 0.66683 0.0
H2256 H 0.51571 0.99862 0.62864 0.0
H2257 H 0.55692 0.00489 0.64417 0.0
H2258 H 0.50993 0.13080 0.62836 0.0
H2259 H 0.50939 0.09930 0.60651 0.0
H2260 H 0.50216 0.07784 0.62777 0.0
H2261 H 0.57007 0.08295 0.63986 0.0
H2262 H 0.56232 0.13367 0.63343 0.0
H2263 H 0.56213 0.11483 0.65784 0.0
H2264 H 0.54129 0.23147 0.58651 0.0
H2265 H 0.53149 0.26701 0.64878 0.0
H2266 H 0.53464 0.11191 0.58461 0.0
H2267 H 0.55036 0.10976 0.59274 0.0
H2268 H 0.54588 0.14947 0.57483 0.0
H2269 H 0.52026 0.17062 0.66910 0.0
H2270 H 0.53387 0.20023 0.67655 0.0
H2271 H 0.53492 0.14270 0.66979 0.0
C2272 C 0.72228 0.22650 0.64655 0.0
C2273 C 0.71236 0.25677 0.63583 0.0
C2274 C 0.72162 0.17375 0.64389 0.0
C2275 C 0.71131 0.15163 0.63130 0.0
C2276 C 0.70088 0.18202 0.62113 0.0
C2277 C 0.70173 0.23473 0.62363 0.0
C2278 C 0.73263 0.14027 0.65540 0.0
C2279 C 0.68906 0.15916 0.60762 0.0
C2280 C 0.72000 0.02764 0.60395 0.0
C2281 C 0.71272 0.99268 0.61628 0.0
C2282 C 0.71937 0.07854 0.60841 0.0
C2283 C 0.71176 0.09560 0.62609 0.0
C2284 C 0.70455 0.06088 0.63956 0.0
C2285 C 0.70487 0.00855 0.63469 0.0
C2286 C 0.72724 0.11593 0.59366 0.0
C2287 C 0.69518 0.07856 0.65877 0.0
H2288 H 0.72924 0.24119 0.65533 0.0
H2289 H 0.69503 0.25543 0.61690 0.0
H2290 H 0.72853 0.10763 0.65869 0.0
H2291 H 0.74066 0.13568 0.64590 0.0
H2292 H 0.73562 0.15655 0.66873 0.0
H2293 H 0.68604 0.18338 0.59676 0.0
H2294 H 0.69240 0.12883 0.60043 0.0
H2295 H 0.68122 0.15066 0.61697 0.0
H2296 H 0.72547 0.01631 0.59222 0.0
H2297 H 0.70004 0.98503 0.64331 0.0
H2298 H 0.73477 0.13153 0.60173 0.0
H2299 H 0.72080 0.14175 0.58861 0.0
H2300 H 0.73107 0.09802 0.58126 0.0
H2301 H 0.70060 0.07822 0.67206 0.0
H2302 H 0.68722 0.05595 0.66020 0.0
H2303 H 0.69184 0.11251 0.65598 0.0
C2304 C 0.46275 0.76062 0.36266 0.0
C2305 C 0.46185 0.74256 0.38406 0.0
C2306 C 0.46181 0.81299 0.35902 0.0
C2307 C 0.45981 0.84636 0.37600 0.0
C2308 C 0.45832 0.82804 0.39761 0.0
C2309 C 0.45946 0.77573 0.40115 0.0
C2310 C 0.46298 0.83317 0.33553 0.0
C2311 C 0.45569 0.86333 0.41678 0.0
C2312 C 0.47442 0.97834 0.36968 0.0
C2313 C 0.46257 0.00712 0.36575 0.0
C2314 C 0.47358 0.92714 0.37338 0.0
C2315 C 0.46071 0.90300 0.37239 0.0
C2316 C 0.44839 0.93081 0.36768 0.0
C2317 C 0.44917 0.98375 0.36441 0.0
C2318 C 0.48703 0.89730 0.37849 0.0
C2319 C 0.43363 0.90583 0.36770 0.0
H2320 H 0.46395 0.73815 0.35099 0.0
H2321 H 0.45863 0.76297 0.41530 0.0
H2322 H 0.45758 0.86405 0.33418 0.0
H2323 H 0.47276 0.84012 0.33224 0.0
H2324 H 0.45941 0.80802 0.32551 0.0
H2325 H 0.45941 0.84824 0.42992 0.0
H2326 H 0.46032 0.89542 0.41421 0.0
H2327 H 0.44569 0.86892 0.41845 0.0
H2328 H 0.48324 0.99420 0.36988 0.0
H2329 H 0.44109 0.00288 0.36149 0.0
H2330 H 0.48899 0.87418 0.36676 0.0
H2331 H 0.48577 0.87848 0.39187 0.0
H2332 H 0.49482 0.92056 0.38018 0.0
H2333 H 0.43121 0.89558 0.35309 0.0
H2334 H 0.42675 0.92992 0.37299 0.0
H2335 H 0.43372 0.87653 0.37713 0.0
C2336 C 0.29971 0.76941 0.36422 0.0
C2337 C 0.28688 0.74337 0.36379 0.0
C2338 C 0.29956 0.82231 0.36648 0.0
C2339 C 0.28708 0.84867 0.36791 0.0
C2340 C 0.27404 0.82264 0.36659 0.0
C2341 C 0.27428 0.76973 0.36464 0.0
C2342 C 0.31365 0.85113 0.36725 0.0
C2343 C 0.26001 0.85031 0.36745 0.0
C2344 C 0.28725 0.97102 0.39960 0.0
C2345 C 0.28680 0.00741 0.38349 0.0
C2346 C 0.28707 0.92026 0.39474 0.0
C2347 C 0.28697 0.90464 0.37329 0.0
C2348 C 0.28699 0.94070 0.35630 0.0
C2349 C 0.28681 0.99300 0.36124 0.0
C2350 C 0.28704 0.88141 0.41334 0.0
C2351 C 0.28603 0.92493 0.33203 0.0
H2352 H 0.30824 0.75184 0.36301 0.0
H2353 H 0.26580 0.75186 0.36392 0.0
H2354 H 0.31238 0.88476 0.36134 0.0
H2355 H 0.31679 0.85364 0.38222 0.0
H2356 H 0.32060 0.83300 0.35879 0.0
H2357 H 0.25290 0.82798 0.37335 0.0
H2358 H 0.26085 0.87986 0.37669 0.0
H2359 H 0.25731 0.86077 0.35295 0.0
H2360 H 0.28766 0.98125 0.41421 0.0
H2361 H 0.28668 0.01744 0.35019 0.0
H2362 H 0.29575 0.86280 0.41321 0.0
H2363 H 0.27926 0.85824 0.41141 0.0
H2364 H 0.28603 0.89879 0.42712 0.0
H2365 H 0.29536 0.92253 0.32597 0.0
H2366 H 0.28066 0.95002 0.32408 0.0
H2367 H 0.28138 0.89247 0.33091 0.0
C2368 C 0.54552 0.51246 0.11765 0.0
C2369 C 0.53610 0.49204 0.13283 0.0
C2370 C 0.54481 0.56447 0.11302 0.0
C2371 C 0.53494 0.59511 0.12285 0.0
C2372 C 0.52501 0.57418 0.13757 0.0
C2373 C 0.52590 0.52233 0.14234 0.0
C2374 C 0.55527 0.58731 0.09655 0.0
C2375 C 0.51366 0.60626 0.14831 0.0
C2376 C 0.54433 0.73259 0.13099 0.0
C2377 C 0.53650 0.75686 0.11520 0.0
C2378 C 0.54368 0.68105 0.13377 0.0
C2379 C 0.53544 0.65207 0.12008 0.0
C2380 C 0.52763 0.67527 0.10324 0.0
C2381 C 0.52800 0.72847 0.10067 0.0
C2382 C 0.55220 0.65624 0.15213 0.0
C2383 C 0.51760 0.64461 0.08833 0.0
H2384 H 0.55216 0.49180 0.11071 0.0
H2385 H 0.51952 0.50792 0.15214 0.0
H2386 H 0.55097 0.61596 0.08934 0.0
H2387 H 0.56364 0.59841 0.10418 0.0
H2388 H 0.55779 0.56191 0.08588 0.0
H2389 H 0.51113 0.59144 0.16217 0.0
H2390 H 0.51719 0.64022 0.15067 0.0
H2391 H 0.50546 0.60768 0.13902 0.0
H2392 H 0.55021 0.75182 0.14004 0.0
H2393 H 0.52279 0.74456 0.08974 0.0
H2394 H 0.55944 0.63523 0.14594 0.0
H2395 H 0.54603 0.63572 0.16102 0.0
H2396 H 0.55645 0.68226 0.16107 0.0
H2397 H 0.52249 0.63492 0.07522 0.0
H2398 H 0.50953 0.66527 0.08461 0.0
H2399 H 0.51445 0.61461 0.09592 0.0
C2400 C 0.70853 0.52517 0.09891 0.0
C2401 C 0.71187 0.49244 0.11610 0.0
C2402 C 0.70765 0.57735 0.10309 0.0
C2403 C 0.70979 0.59642 0.12372 0.0
C2404 C 0.71261 0.56318 0.14136 0.0
C2405 C 0.71367 0.51118 0.13700 0.0
C2406 C 0.70415 0.61364 0.08418 0.0
C2407 C 0.71464 0.58238 0.16452 0.0
C2408 C 0.72421 0.72905 0.12833 0.0
C2409 C 0.71262 0.75695 0.13456 0.0
C2410 C 0.72343 0.67762 0.12525 0.0
C2411 C 0.71072 0.65297 0.12757 0.0
C2412 C 0.69850 0.68042 0.13322 0.0
C2413 C 0.69933 0.73318 0.13695 0.0
C2414 C 0.73678 0.64816 0.11913 0.0
C2415 C 0.68419 0.65388 0.13729 0.0
H2416 H 0.70690 0.51248 0.08488 0.0
H2417 H 0.71564 0.48872 0.14837 0.0
H2418 H 0.69922 0.64290 0.08978 0.0
H2419 H 0.71280 0.62447 0.07728 0.0
H2420 H 0.69832 0.59630 0.07365 0.0
H2421 H 0.72068 0.55929 0.17241 0.0
H2422 H 0.71896 0.61558 0.16417 0.0
H2423 H 0.70562 0.58458 0.17175 0.0
H2424 H 0.73282 0.74564 0.12621 0.0
H2425 H 0.69137 0.75192 0.14092 0.0
H2426 H 0.73584 0.63503 0.10458 0.0
H2427 H 0.73809 0.62042 0.12922 0.0
H2428 H 0.74483 0.67051 0.11984 0.0
H2429 H 0.67870 0.65421 0.12407 0.0
H2430 H 0.67915 0.67164 0.14866 0.0
H2431 H 0.68581 0.61929 0.14178 0.0
C2432 C 0.45154 0.27162 0.89159 0.0
C2433 C 0.46350 0.24334 0.88611 0.0
C2434 C 0.45197 0.32447 0.88918 0.0
C2435 C 0.46394 0.34862 0.88193 0.0
C2436 C 0.47626 0.32028 0.87721 0.0
C2437 C 0.47569 0.26745 0.87937 0.0
C2438 C 0.43879 0.35575 0.89490 0.0
C2439 C 0.48984 0.34545 0.86978 0.0
C2440 C 0.45930 0.47139 0.85138 0.0
C2441 C 0.46335 0.50738 0.86642 0.0
C2442 C 0.45972 0.42058 0.85610 0.0
C2443 C 0.46376 0.40459 0.87656 0.0
C2444 C 0.46753 0.44031 0.89267 0.0
C2445 C 0.46745 0.49260 0.88770 0.0
C2446 C 0.45561 0.38209 0.83848 0.0
C2447 C 0.47294 0.42397 0.91542 0.0
H2448 H 0.44341 0.25556 0.89676 0.0
H2449 H 0.48367 0.24809 0.87616 0.0
H2450 H 0.44160 0.38902 0.89984 0.0
H2451 H 0.43293 0.35908 0.88207 0.0
H2452 H 0.43357 0.33873 0.90627 0.0
H2453 H 0.49516 0.32199 0.86092 0.0
H2454 H 0.48765 0.37528 0.86126 0.0
H2455 H 0.49537 0.35518 0.88233 0.0
H2456 H 0.45622 0.48194 0.83760 0.0
H2457 H 0.47005 0.51680 0.89810 0.0
H2458 H 0.44709 0.36504 0.84270 0.0
H2459 H 0.46308 0.35754 0.83677 0.0
H2460 H 0.45414 0.39951 0.82481 0.0
H2461 H 0.46519 0.42312 0.92555 0.0
H2462 H 0.47994 0.44795 0.92043 0.0
H2463 H 0.47714 0.39071 0.91444 0.0
C2464 C 0.27407 0.26698 0.87061 0.0
C2465 C 0.28691 0.24191 0.86763 0.0
C2466 C 0.27421 0.31880 0.87570 0.0
C2467 C 0.28669 0.34479 0.87812 0.0
C2468 C 0.29973 0.31907 0.87599 0.0
C2469 C 0.29950 0.26746 0.87061 0.0
C2470 C 0.26011 0.34677 0.87871 0.0
C2471 C 0.31376 0.34587 0.87915 0.0
C2472 C 0.28665 0.48424 0.86481 0.0
C2473 C 0.28699 0.50681 0.88507 0.0
C2474 C 0.28682 0.43252 0.86248 0.0
C2475 C 0.28680 0.40184 0.88067 0.0
C2476 C 0.28667 0.42344 0.90172 0.0
C2477 C 0.28686 0.47668 0.90419 0.0
C2478 C 0.28697 0.40945 0.83954 0.0
C2479 C 0.28750 0.39052 0.92258 0.0
H2480 H 0.26553 0.24947 0.86923 0.0
H2481 H 0.30798 0.24995 0.86896 0.0
H2482 H 0.26133 0.37427 0.88894 0.0
H2483 H 0.25706 0.36024 0.86482 0.0
H2484 H 0.25312 0.32335 0.88416 0.0
H2485 H 0.32091 0.32903 0.87061 0.0
H2486 H 0.31295 0.38073 0.87443 0.0
H2487 H 0.31636 0.34504 0.89438 0.0
H2488 H 0.28632 0.50476 0.85236 0.0
H2489 H 0.28691 0.49168 0.91800 0.0
H2490 H 0.27827 0.39176 0.83699 0.0
H2491 H 0.29476 0.38602 0.83830 0.0
H2492 H 0.28806 0.43613 0.82887 0.0
H2493 H 0.27813 0.38381 0.92787 0.0
H2494 H 0.29281 0.40840 0.93362 0.0
H2495 H 0.29215 0.35890 0.91926 0.0
loop_
_geom_bond_atom_site_label_1
_geom_bond_atom_site_label_2
_geom_bond_distance
_geom_bond_site_symmetry_2
_ccdc_geom_bond_type
Co0 O1 2.216 . S
Co0 O2 2.091 . S
Co0 O4 2.004 . S
Co0 O10 2.021 . S
Co0 O12 2.137 . S
Co0 O13 2.244 . S
O1 Co0 2.216 . S
O1 C8 1.247 . S
O2 Co0 2.091 . S
O2 C8 1.261 . S
C3 O12 1.247 . S
C3 O13 1.272 . S
O4 Co0 2.004 . S
O4 C9 1.259 . S
Co5 O6 2.061 . S
Co5 O11 2.052 . S
Co5 O13 2.135 . S
O6 Co5 2.061 . S
O6 C9 1.235 . S
C7 O10 1.238 . S
C7 O11 1.241 . S
C8 O1 1.247 . S
C8 O2 1.261 . S
C9 O4 1.259 . S
C9 O6 1.235 . S
O10 Co0 2.021 . S
O10 C7 1.238 . S
O11 Co5 2.052 . S
O11 C7 1.241 . S
O12 Co0 2.137 . S
O12 C3 1.247 . S
O13 Co0 2.244 . S
O13 C3 1.272 . S
O13 Co5 2.135 . S
Co14 O15 2.216 . S
Co14 O16 2.091 . S
Co14 O18 2.004 . S
Co14 O24 2.021 . S
Co14 O26 2.137 . S
Co14 O27 2.244 . S
O15 Co14 2.216 . S
O15 C22 1.247 . S
O16 Co14 2.091 . S
O16 C22 1.261 . S
C17 O26 1.247 . S
C17 O27 1.272 . S
O18 Co14 2.004 . S
O18 C23 1.259 . S
Co19 O20 2.061 . S
Co19 O25 2.052 . S
Co19 O27 2.135 . S
O20 Co19 2.061 . S
O20 C23 1.235 . S
C21 O24 1.238 . S
C21 O25 1.241 . S
C22 O15 1.247 . S
C22 O16 1.261 . S
C23 O18 1.259 . S
C23 O20 1.235 . S
O24 Co14 2.021 . S
O24 C21 1.238 . S
O25 Co19 2.052 . S
O25 C21 1.241 . S
O26 Co14 2.137 . S
O26 C17 1.247 . S
O27 Co14 2.244 . S
O27 C17 1.272 . S
O27 Co19 2.135 . S
Co28 O29 2.216 . S
Co28 O30 2.091 . S
Co28 O32 2.004 . S
Co28 O38 2.021 . S
Co28 O40 2.137 . S
Co28 O41 2.244 . S
O29 Co28 2.216 . S
O29 C36 1.247 . S
O30 Co28 2.091 . S
O30 C36 1.261 . S
C31 O40 1.247 . S
C31 O41 1.272 . S
O32 Co28 2.004 . S
O32 C37 1.259 . S
Co33 O34 2.061 . S
Co33 O39 2.052 . S
Co33 O41 2.135 . S
O34 Co33 2.061 . S
O34 C37 1.235 . S
C35 O38 1.238 . S
C35 O39 1.241 . S
C36 O29 1.247 . S
C36 O30 1.261 . S
C37 O32 1.259 . S
C37 O34 1.235 . S
O38 Co28 2.021 . S
O38 C35 1.238 . S
O39 Co33 2.052 . S
O39 C35 1.241 . S
O40 Co28 2.137 . S
O40 C31 1.247 . S
O41 Co28 2.244 . S
O41 C31 1.272 . S
O41 Co33 2.135 . S
Co42 O43 2.216 . S
Co42 O44 2.091 . S
Co42 O46 2.004 . S
Co42 O52 2.021 . S
Co42 O54 2.137 . S
Co42 O55 2.244 . S
O43 Co42 2.216 . S
O43 C50 1.247 . S
O44 Co42 2.091 . S
O44 C50 1.261 . S
C45 O54 1.247 . S
C45 O55 1.272 . S
O46 Co42 2.004 . S
O46 C51 1.259 . S
Co47 O48 2.061 . S
Co47 O53 2.052 . S
Co47 O55 2.135 . S
O48 Co47 2.061 . S
O48 C51 1.235 . S
C49 O52 1.238 . S
C49 O53 1.241 . S
C50 O43 1.247 . S
C50 O44 1.261 . S
C51 O46 1.259 . S
C51 O48 1.235 . S
O52 Co42 2.021 . S
O52 C49 1.238 . S
O53 Co47 2.052 . S
O53 C49 1.241 . S
O54 Co42 2.137 . S
O54 C45 1.247 . S
O55 Co42 2.244 . S
O55 C45 1.272 . S
O55 Co47 2.135 . S
Co56 O57 2.216 . S
Co56 O58 2.091 . S
Co56 O60 2.004 . S
Co56 O66 2.021 . S
Co56 O68 2.137 . S
Co56 O69 2.244 . S
O57 Co56 2.216 . S
O57 C64 1.247 . S
O58 Co56 2.091 . S
O58 C64 1.261 . S
C59 O68 1.247 . S
C59 O69 1.272 . S
O60 Co56 2.004 . S
O60 C65 1.259 . S
Co61 O62 2.061 . S
Co61 O67 2.052 . S
Co61 O69 2.135 . S
O62 Co61 2.061 . S
O62 C65 1.235 . S
C63 O66 1.238 . S
C63 O67 1.241 . S
C64 O57 1.247 . S
C64 O58 1.261 . S
C65 O60 1.259 . S
C65 O62 1.235 . S
O66 Co56 2.021 . S
O66 C63 1.238 . S
O67 Co61 2.052 . S
O67 C63 1.241 . S
O68 Co56 2.137 . S
O68 C59 1.247 . S
O69 Co56 2.244 . S
O69 C59 1.272 . S
O69 Co61 2.135 . S
Co70 O71 2.216 . S
Co70 O72 2.091 . S
Co70 O74 2.004 . S
Co70 O80 2.021 . S
Co70 O82 2.137 . S
Co70 O83 2.244 . S
O71 Co70 2.216 . S
O71 C78 1.247 . S
O72 Co70 2.091 . S
O72 C78 1.261 . S
C73 O82 1.247 . S
C73 O83 1.272 . S
O74 Co70 2.004 . S
O74 C79 1.259 . S
Co75 O76 2.061 . S
Co75 O81 2.052 . S
Co75 O83 2.135 . S
O76 Co75 2.061 . S
O76 C79 1.235 . S
C77 O80 1.238 . S
C77 O81 1.241 . S
C78 O71 1.247 . S
C78 O72 1.261 . S
C79 O74 1.259 . S
C79 O76 1.235 . S
O80 Co70 2.021 . S
O80 C77 1.238 . S
O81 Co75 2.052 . S
O81 C77 1.241 . S
O82 Co70 2.137 . S
O82 C73 1.247 . S
O83 Co70 2.244 . S
O83 C73 1.272 . S
O83 Co75 2.135 . S
Co84 O85 2.216 . S
Co84 O86 2.091 . S
Co84 O88 2.004 . S
Co84 O94 2.021 . S
Co84 O96 2.137 . S
Co84 O97 2.244 . S
O85 Co84 2.216 . S
O85 C92 1.247 . S
O86 Co84 2.091 . S
O86 C92 1.261 . S
C87 O96 1.247 . S
C87 O97 1.272 . S
O88 Co84 2.004 . S
O88 C93 1.259 . S
Co89 O90 2.061 . S
Co89 O95 2.052 . S
Co89 O97 2.135 . S
O90 Co89 2.061 . S
O90 C93 1.235 . S
C91 O94 1.238 . S
C91 O95 1.241 . S
C92 O85 1.247 . S
C92 O86 1.261 . S
C93 O88 1.259 . S
C93 O90 1.235 . S
O94 Co84 2.021 . S
O94 C91 1.238 . S
O95 Co89 2.052 . S
O95 C91 1.241 . S
O96 Co84 2.137 . S
O96 C87 1.247 . S
O97 Co84 2.244 . S
O97 C87 1.272 . S
O97 Co89 2.135 . S
Co98 O99 2.216 . S
Co98 O100 2.091 . S
Co98 O102 2.004 . S
Co98 O108 2.021 . S
Co98 O110 2.137 . S
Co98 O111 2.244 . S
O99 Co98 2.216 . S
O99 C106 1.247 . S
O100 Co98 2.091 . S
O100 C106 1.261 . S
C101 O110 1.247 . S
C101 O111 1.272 . S
O102 Co98 2.004 . S
O102 C107 1.259 . S
Co103 O104 2.061 . S
Co103 O109 2.052 . S
Co103 O111 2.135 . S
O104 Co103 2.061 . S
O104 C107 1.235 . S
C105 O108 1.238 . S
C105 O109 1.241 . S
C106 O99 1.247 . S
C106 O100 1.261 . S
C107 O102 1.259 . S
C107 O104 1.235 . S
O108 Co98 2.021 . S
O108 C105 1.238 . S
O109 Co103 2.052 . S
O109 C105 1.241 . S
O110 Co98 2.137 . S
O110 C101 1.247 . S
O111 Co98 2.244 . S
O111 C101 1.272 . S
O111 Co103 2.135 . S
Co112 O113 2.216 . S
Co112 O114 2.091 . S
Co112 O116 2.004 . S
Co112 O122 2.021 . S
Co112 O124 2.137 . S
Co112 O125 2.244 . S
O113 Co112 2.216 . S
O113 C120 1.247 . S
O114 Co112 2.091 . S
O114 C120 1.261 . S
C115 O124 1.247 . S
C115 O125 1.272 . S
O116 Co112 2.004 . S
O116 C121 1.259 . S
Co117 O118 2.061 . S
Co117 O123 2.052 . S
Co117 O125 2.135 . S
O118 Co117 2.061 . S
O118 C121 1.235 . S
C119 O122 1.238 . S
C119 O123 1.241 . S
C120 O113 1.247 . S
C120 O114 1.261 . S
C121 O116 1.259 . S
C121 O118 1.235 . S
O122 Co112 2.021 . S
O122 C119 1.238 . S
O123 Co117 2.052 . S
O123 C119 1.241 . S
O124 Co112 2.137 . S
O124 C115 1.247 . S
O125 Co112 2.244 . S
O125 C115 1.272 . S
O125 Co117 2.135 . S
Co126 O127 2.216 . S
Co126 O128 2.091 . S
Co126 O130 2.004 . S
Co126 O136 2.021 . S
Co126 O138 2.137 . S
Co126 O139 2.244 . S
O127 Co126 2.216 . S
O127 C134 1.247 . S
O128 Co126 2.091 . S
O128 C134 1.261 . S
C129 O138 1.247 . S
C129 O139 1.272 . S
O130 Co126 2.004 . S
O130 C135 1.259 . S
Co131 O132 2.061 . S
Co131 O137 2.052 . S
Co131 O139 2.135 . S
O132 Co131 2.061 . S
O132 C135 1.235 . S
C133 O136 1.238 . S
C133 O137 1.241 . S
C134 O127 1.247 . S
C134 O128 1.261 . S
C135 O130 1.259 . S
C135 O132 1.235 . S
O136 Co126 2.021 . S
O136 C133 1.238 . S
O137 Co131 2.052 . S
O137 C133 1.241 . S
O138 Co126 2.137 . S
O138 C129 1.247 . S
O139 Co126 2.244 . S
O139 C129 1.272 . S
O139 Co131 2.135 . S
Co140 O141 2.216 . S
Co140 O142 2.091 . S
Co140 O144 2.004 . S
Co140 O150 2.021 . S
Co140 O152 2.137 . S
Co140 O153 2.244 . S
O141 Co140 2.216 . S
O141 C148 1.247 . S
O142 Co140 2.091 . S
O142 C148 1.261 . S
C143 O152 1.247 . S
C143 O153 1.272 . S
O144 Co140 2.004 . S
O144 C149 1.259 . S
Co145 O146 2.061 . S
Co145 O151 2.052 . S
Co145 O153 2.135 . S
O146 Co145 2.061 . S
O146 C149 1.235 . S
C147 O150 1.238 . S
C147 O151 1.241 . S
C148 O141 1.247 . S
C148 O142 1.261 . S
C149 O144 1.259 . S
C149 O146 1.235 . S
O150 Co140 2.021 . S
O150 C147 1.238 . S
O151 Co145 2.052 . S
O151 C147 1.241 . S
O152 Co140 2.137 . S
O152 C143 1.247 . S
O153 Co140 2.244 . S
O153 C143 1.272 . S
O153 Co145 2.135 . S
Co154 O155 2.216 . S
Co154 O156 2.091 . S
Co154 O158 2.004 . S
Co154 O164 2.021 . S
Co154 O166 2.137 . S
Co154 O167 2.244 . S
O155 Co154 2.216 . S
O155 C162 1.247 . S
O156 Co154 2.091 . S
O156 C162 1.261 . S
C157 O166 1.247 . S
C157 O167 1.272 . S
O158 Co154 2.004 . S
O158 C163 1.259 . S
Co159 O160 2.061 . S
Co159 O165 2.052 . S
Co159 O167 2.135 . S
O160 Co159 2.061 . S
O160 C163 1.235 . S
C161 O164 1.238 . S
C161 O165 1.241 . S
C162 O155 1.247 . S
C162 O156 1.261 . S
C163 O158 1.259 . S
C163 O160 1.235 . S
O164 Co154 2.021 . S
O164 C161 1.238 . S
O165 Co159 2.052 . S
O165 C161 1.241 . S
O166 Co154 2.137 . S
O166 C157 1.247 . S
O167 Co154 2.244 . S
O167 C157 1.272 . S
O167 Co159 2.135 . S
Co168 O169 2.216 . S
Co168 O170 2.091 . S
Co168 O172 2.004 . S
Co168 O178 2.021 . S
Co168 O180 2.137 . S
Co168 O181 2.244 . S
O169 Co168 2.216 . S
O169 C176 1.247 . S
O170 Co168 2.091 . S
O170 C176 1.261 . S
C171 O180 1.247 . S
C171 O181 1.272 . S
O172 Co168 2.004 . S
O172 C177 1.259 . S
Co173 O174 2.061 . S
Co173 O179 2.052 . S
Co173 O181 2.135 . S
O174 Co173 2.061 . S
O174 C177 1.235 . S
C175 O178 1.238 . S
C175 O179 1.241 . S
C176 O169 1.247 . S
C176 O170 1.261 . S
C177 O172 1.259 . S
C177 O174 1.235 . S
O178 Co168 2.021 . S
O178 C175 1.238 . S
O179 Co173 2.052 . S
O179 C175 1.241 . S
O180 Co168 2.137 . S
O180 C171 1.247 . S
O181 Co168 2.244 . S
O181 C171 1.272 . S
O181 Co173 2.135 . S
Co182 O183 2.216 . S
Co182 O184 2.091 . S
Co182 O186 2.004 . S
Co182 O192 2.021 . S
Co182 O194 2.137 . S
Co182 O195 2.244 . S
O183 Co182 2.216 . S
O183 C190 1.247 . S
O184 Co182 2.091 . S
O184 C190 1.261 . S
C185 O194 1.247 . S
C185 O195 1.272 . S
O186 Co182 2.004 . S
O186 C191 1.259 . S
Co187 O188 2.061 . S
Co187 O193 2.052 . S
Co187 O195 2.135 . S
O188 Co187 2.061 . S
O188 C191 1.235 . S
C189 O192 1.238 . S
C189 O193 1.241 . S
C190 O183 1.247 . S
C190 O184 1.261 . S
C191 O186 1.259 . S
C191 O188 1.235 . S
O192 Co182 2.021 . S
O192 C189 1.238 . S
O193 Co187 2.052 . S
O193 C189 1.241 . S
O194 Co182 2.137 . S
O194 C185 1.247 . S
O195 Co182 2.244 . S
O195 C185 1.272 . S
O195 Co187 2.135 . S
Co196 O197 2.216 . S
Co196 O198 2.091 . S
Co196 O200 2.004 . S
Co196 O206 2.021 . S
Co196 O208 2.137 . S
Co196 O209 2.244 . S
O197 Co196 2.216 . S
O197 C204 1.247 . S
O198 Co196 2.091 . S
O198 C204 1.261 . S
C199 O208 1.247 . S
C199 O209 1.272 . S
O200 Co196 2.004 . S
O200 C205 1.259 . S
Co201 O202 2.061 . S
Co201 O207 2.052 . S
Co201 O209 2.135 . S
O202 Co201 2.061 . S
O202 C205 1.235 . S
C203 O206 1.238 . S
C203 O207 1.241 . S
C204 O197 1.247 . S
C204 O198 1.261 . S
C205 O200 1.259 . S
C205 O202 1.235 . S
O206 Co196 2.021 . S
O206 C203 1.238 . S
O207 Co201 2.052 . S
O207 C203 1.241 . S
O208 Co196 2.137 . S
O208 C199 1.247 . S
O209 Co196 2.244 . S
O209 C199 1.272 . S
O209 Co201 2.135 . S
Co210 O211 2.216 . S
Co210 O212 2.091 . S
Co210 O214 2.004 . S
Co210 O220 2.021 . S
Co210 O222 2.137 . S
Co210 O223 2.244 . S
O211 Co210 2.216 . S
O211 C218 1.247 . S
O212 Co210 2.091 . S
O212 C218 1.261 . S
C213 O222 1.247 . S
C213 O223 1.272 . S
O214 Co210 2.004 . S
O214 C219 1.259 . S
Co215 O216 2.061 . S
Co215 O221 2.052 . S
Co215 O223 2.135 . S
O216 Co215 2.061 . S
O216 C219 1.235 . S
C217 O220 1.238 . S
C217 O221 1.241 . S
C218 O211 1.247 . S
C218 O212 1.261 . S
C219 O214 1.259 . S
C219 O216 1.235 . S
O220 Co210 2.021 . S
O220 C217 1.238 . S
O221 Co215 2.052 . S
O221 C217 1.241 . S
O222 Co210 2.137 . S
O222 C213 1.247 . S
O223 Co210 2.244 . S
O223 C213 1.272 . S
O223 Co215 2.135 . S
Co224 O225 2.216 . S
Co224 O226 2.091 . S
Co224 O228 2.004 . S
Co224 O234 2.021 . S
Co224 O236 2.137 . S
Co224 O237 2.244 . S
O225 Co224 2.216 . S
O225 C232 1.247 . S
O226 Co224 2.091 . S
O226 C232 1.261 . S
C227 O236 1.247 . S
C227 O237 1.272 . S
O228 Co224 2.004 . S
O228 C233 1.259 . S
Co229 O230 2.061 . S
Co229 O235 2.052 . S
Co229 O237 2.135 . S
O230 Co229 2.061 . S
O230 C233 1.235 . S
C231 O234 1.238 . S
C231 O235 1.241 . S
C232 O225 1.247 . S
C232 O226 1.261 . S
C233 O228 1.259 . S
C233 O230 1.235 . S
O234 Co224 2.021 . S
O234 C231 1.238 . S
O235 Co229 2.052 . S
O235 C231 1.241 . S
O236 Co224 2.137 . S
O236 C227 1.247 . S
O237 Co224 2.244 . S
O237 C227 1.272 . S
O237 Co229 2.135 . S
Co238 O239 2.216 . S
Co238 O240 2.091 . S
Co238 O242 2.004 . S
Co238 O248 2.021 . S
Co238 O250 2.137 . S
Co238 O251 2.244 . S
O239 Co238 2.216 . S
O239 C246 1.247 . S
O240 Co238 2.091 . S
O240 C246 1.261 . S
C241 O250 1.247 . S
C241 O251 1.272 . S
O242 Co238 2.004 . S
O242 C247 1.259 . S
Co243 O244 2.061 . S
Co243 O249 2.052 . S
Co243 O251 2.135 . S
O244 Co243 2.061 . S
O244 C247 1.235 . S
C245 O248 1.238 . S
C245 O249 1.241 . S
C246 O239 1.247 . S
C246 O240 1.261 . S
C247 O242 1.259 . S
C247 O244 1.235 . S
O248 Co238 2.021 . S
O248 C245 1.238 . S
O249 Co243 2.052 . S
O249 C245 1.241 . S
O250 Co238 2.137 . S
O250 C241 1.247 . S
O251 Co238 2.244 . S
O251 C241 1.272 . S
O251 Co243 2.135 . S
Co252 O253 2.216 . S
Co252 O254 2.091 . S
Co252 O256 2.004 . S
Co252 O262 2.021 . S
Co252 O264 2.137 . S
Co252 O265 2.244 . S
O253 Co252 2.216 . S
O253 C260 1.247 . S
O254 Co252 2.091 . S
O254 C260 1.261 . S
C255 O264 1.247 . S
C255 O265 1.272 . S
O256 Co252 2.004 . S
O256 C261 1.259 . S
Co257 O258 2.061 . S
Co257 O263 2.052 . S
Co257 O265 2.135 . S
O258 Co257 2.061 . S
O258 C261 1.235 . S
C259 O262 1.238 . S
C259 O263 1.241 . S
C260 O253 1.247 . S
C260 O254 1.261 . S
C261 O256 1.259 . S
C261 O258 1.235 . S
O262 Co252 2.021 . S
O262 C259 1.238 . S
O263 Co257 2.052 . S
O263 C259 1.241 . S
O264 Co252 2.137 . S
O264 C255 1.247 . S
O265 Co252 2.244 . S
O265 C255 1.272 . S
O265 Co257 2.135 . S
Co266 O267 2.216 . S
Co266 O268 2.091 . S
Co266 O270 2.004 . S
Co266 O276 2.021 . S
Co266 O278 2.137 . S
Co266 O279 2.244 . S
O267 Co266 2.216 . S
O267 C274 1.247 . S
O268 Co266 2.091 . S
O268 C274 1.261 . S
C269 O278 1.247 . S
C269 O279 1.272 . S
O270 Co266 2.004 . S
O270 C275 1.259 . S
Co271 O272 2.061 . S
Co271 O277 2.052 . S
Co271 O279 2.135 . S
O272 Co271 2.061 . S
O272 C275 1.235 . S
C273 O276 1.238 . S
C273 O277 1.241 . S
C274 O267 1.247 . S
C274 O268 1.261 . S
C275 O270 1.259 . S
C275 O272 1.235 . S
O276 Co266 2.021 . S
O276 C273 1.238 . S
O277 Co271 2.052 . S
O277 C273 1.241 . S
O278 Co266 2.137 . S
O278 C269 1.247 . S
O279 Co266 2.244 . S
O279 C269 1.272 . S
O279 Co271 2.135 . S
Co280 O281 2.216 . S
Co280 O282 2.091 . S
Co280 O284 2.004 . S
Co280 O290 2.021 . S
Co280 O292 2.137 . S
Co280 O293 2.244 . S
O281 Co280 2.216 . S
O281 C288 1.247 . S
O282 Co280 2.091 . S
O282 C288 1.261 . S
C283 O292 1.247 . S
C283 O293 1.272 . S
O284 Co280 2.004 . S
O284 C289 1.259 . S
Co285 O286 2.061 . S
Co285 O291 2.052 . S
Co285 O293 2.135 . S
O286 Co285 2.061 . S
O286 C289 1.235 . S
C287 O290 1.238 . S
C287 O291 1.241 . S
C288 O281 1.247 . S
C288 O282 1.261 . S
C289 O284 1.259 . S
C289 O286 1.235 . S
O290 Co280 2.021 . S
O290 C287 1.238 . S
O291 Co285 2.052 . S
O291 C287 1.241 . S
O292 Co280 2.137 . S
O292 C283 1.247 . S
O293 Co280 2.244 . S
O293 C283 1.272 . S
O293 Co285 2.135 . S
Co294 O295 2.216 . S
Co294 O296 2.091 . S
Co294 O298 2.004 . S
Co294 O304 2.021 . S
Co294 O306 2.137 . S
Co294 O307 2.244 . S
O295 Co294 2.216 . S
O295 C302 1.247 . S
O296 Co294 2.091 . S
O296 C302 1.261 . S
C297 O306 1.247 . S
C297 O307 1.272 . S
O298 Co294 2.004 . S
O298 C303 1.259 . S
Co299 O300 2.061 . S
Co299 O305 2.052 . S
Co299 O307 2.135 . S
O300 Co299 2.061 . S
O300 C303 1.235 . S
C301 O304 1.238 . S
C301 O305 1.241 . S
C302 O295 1.247 . S
C302 O296 1.261 . S
C303 O298 1.259 . S
C303 O300 1.235 . S
O304 Co294 2.021 . S
O304 C301 1.238 . S
O305 Co299 2.052 . S
O305 C301 1.241 . S
O306 Co294 2.137 . S
O306 C297 1.247 . S
O307 Co294 2.244 . S
O307 C297 1.272 . S
O307 Co299 2.135 . S
Co308 O309 2.216 . S
Co308 O310 2.091 . S
Co308 O312 2.004 . S
Co308 O318 2.021 . S
Co308 O320 2.137 . S
Co308 O321 2.244 . S
O309 Co308 2.216 . S
O309 C316 1.247 . S
O310 Co308 2.091 . S
O310 C316 1.261 . S
C311 O320 1.247 . S
C311 O321 1.272 . S
O312 Co308 2.004 . S
O312 C317 1.259 . S
Co313 O314 2.061 . S
Co313 O319 2.052 . S
Co313 O321 2.135 . S
O314 Co313 2.061 . S
O314 C317 1.235 . S
C315 O318 1.238 . S
C315 O319 1.241 . S
C316 O309 1.247 . S
C316 O310 1.261 . S
C317 O312 1.259 . S
C317 O314 1.235 . S
O318 Co308 2.021 . S
O318 C315 1.238 . S
O319 Co313 2.052 . S
O319 C315 1.241 . S
O320 Co308 2.137 . S
O320 C311 1.247 . S
O321 Co308 2.244 . S
O321 C311 1.272 . S
O321 Co313 2.135 . S
Co322 O323 2.216 . S
Co322 O324 2.091 . S
Co322 O326 2.004 . S
Co322 O332 2.021 . S
Co322 O334 2.137 . S
Co322 O335 2.244 . S
O323 Co322 2.216 . S
O323 C330 1.247 . S
O324 Co322 2.091 . S
O324 C330 1.261 . S
C325 O334 1.247 . S
C325 O335 1.272 . S
O326 Co322 2.004 . S
O326 C331 1.259 . S
Co327 O328 2.061 . S
Co327 O333 2.052 . S
Co327 O335 2.135 . S
O328 Co327 2.061 . S
O328 C331 1.235 . S
C329 O332 1.238 . S
C329 O333 1.241 . S
C330 O323 1.247 . S
C330 O324 1.261 . S
C331 O326 1.259 . S
C331 O328 1.235 . S
O332 Co322 2.021 . S
O332 C329 1.238 . S
O333 Co327 2.052 . S
O333 C329 1.241 . S
O334 Co322 2.137 . S
O334 C325 1.247 . S
O335 Co322 2.244 . S
O335 C325 1.272 . S
O335 Co327 2.135 . S
Co336 O337 2.216 . S
Co336 O338 2.091 . S
Co336 O340 2.004 . S
Co336 O346 2.021 . S
Co336 O348 2.137 . S
Co336 O349 2.244 . S
O337 Co336 2.216 . S
O337 C344 1.247 . S
O338 Co336 2.091 . S
O338 C344 1.261 . S
C339 O348 1.247 . S
C339 O349 1.272 . S
O340 Co336 2.004 . S
O340 C345 1.259 . S
Co341 O342 2.061 . S
Co341 O347 2.052 . S
Co341 O349 2.135 . S
O342 Co341 2.061 . S
O342 C345 1.235 . S
C343 O346 1.238 . S
C343 O347 1.241 . S
C344 O337 1.247 . S
C344 O338 1.261 . S
C345 O340 1.259 . S
C345 O342 1.235 . S
O346 Co336 2.021 . S
O346 C343 1.238 . S
O347 Co341 2.052 . S
O347 C343 1.241 . S
O348 Co336 2.137 . S
O348 C339 1.247 . S
O349 Co336 2.244 . S
O349 C339 1.272 . S
O349 Co341 2.135 . S
Co350 O351 2.216 . S
Co350 O352 2.091 . S
Co350 O354 2.004 . S
Co350 O360 2.021 . S
Co350 O362 2.137 . S
Co350 O363 2.244 . S
O351 Co350 2.216 . S
O351 C358 1.247 . S
O352 Co350 2.091 . S
O352 C358 1.261 . S
C353 O362 1.247 . S
C353 O363 1.272 . S
O354 Co350 2.004 . S
O354 C359 1.259 . S
Co355 O356 2.061 . S
Co355 O361 2.052 . S
Co355 O363 2.135 . S
O356 Co355 2.061 . S
O356 C359 1.235 . S
C357 O360 1.238 . S
C357 O361 1.241 . S
C358 O351 1.247 . S
C358 O352 1.261 . S
C359 O354 1.259 . S
C359 O356 1.235 . S
O360 Co350 2.021 . S
O360 C357 1.238 . S
O361 Co355 2.052 . S
O361 C357 1.241 . S
O362 Co350 2.137 . S
O362 C353 1.247 . S
O363 Co350 2.244 . S
O363 C353 1.272 . S
O363 Co355 2.135 . S
Co364 O365 2.216 . S
Co364 O366 2.091 . S
Co364 O368 2.004 . S
Co364 O374 2.021 . S
Co364 O376 2.137 . S
Co364 O377 2.244 . S
O365 Co364 2.216 . S
O365 C372 1.247 . S
O366 Co364 2.091 . S
O366 C372 1.261 . S
C367 O376 1.247 . S
C367 O377 1.272 . S
O368 Co364 2.004 . S
O368 C373 1.259 . S
Co369 O370 2.061 . S
Co369 O375 2.052 . S
Co369 O377 2.135 . S
O370 Co369 2.061 . S
O370 C373 1.235 . S
C371 O374 1.238 . S
C371 O375 1.241 . S
C372 O365 1.247 . S
C372 O366 1.261 . S
C373 O368 1.259 . S
C373 O370 1.235 . S
O374 Co364 2.021 . S
O374 C371 1.238 . S
O375 Co369 2.052 . S
O375 C371 1.241 . S
O376 Co364 2.137 . S
O376 C367 1.247 . S
O377 Co364 2.244 . S
O377 C367 1.272 . S
O377 Co369 2.135 . S
Co378 O379 2.216 . S
Co378 O380 2.091 . S
Co378 O382 2.004 . S
Co378 O388 2.021 . S
Co378 O390 2.137 . S
Co378 O391 2.244 . S
O379 Co378 2.216 . S
O379 C386 1.247 . S
O380 Co378 2.091 . S
O380 C386 1.261 . S
C381 O390 1.247 . S
C381 O391 1.272 . S
O382 Co378 2.004 . S
O382 C387 1.259 . S
Co383 O384 2.061 . S
Co383 O389 2.052 . S
Co383 O391 2.135 . S
O384 Co383 2.061 . S
O384 C387 1.235 . S
C385 O388 1.238 . S
C385 O389 1.241 . S
C386 O379 1.247 . S
C386 O380 1.261 . S
C387 O382 1.259 . S
C387 O384 1.235 . S
O388 Co378 2.021 . S
O388 C385 1.238 . S
O389 Co383 2.052 . S
O389 C385 1.241 . S
O390 Co378 2.137 . S
O390 C381 1.247 . S
O391 Co378 2.244 . S
O391 C381 1.272 . S
O391 Co383 2.135 . S
Co392 O393 2.216 . S
Co392 O394 2.091 . S
Co392 O396 2.004 . S
Co392 O402 2.021 . S
Co392 O404 2.137 . S
Co392 O405 2.244 . S
O393 Co392 2.216 . S
O393 C400 1.247 . S
O394 Co392 2.091 . S
O394 C400 1.261 . S
C395 O404 1.247 . S
C395 O405 1.272 . S
O396 Co392 2.004 . S
O396 C401 1.259 . S
Co397 O398 2.061 . S
Co397 O403 2.052 . S
Co397 O405 2.135 . S
O398 Co397 2.061 . S
O398 C401 1.235 . S
C399 O402 1.238 . S
C399 O403 1.241 . S
C400 O393 1.247 . S
C400 O394 1.261 . S
C401 O396 1.259 . S
C401 O398 1.235 . S
O402 Co392 2.021 . S
O402 C399 1.238 . S
O403 Co397 2.052 . S
O403 C399 1.241 . S
O404 Co392 2.137 . S
O404 C395 1.247 . S
O405 Co392 2.244 . S
O405 C395 1.272 . S
O405 Co397 2.135 . S
Co406 O407 2.216 . S
Co406 O408 2.091 . S
Co406 O410 2.004 . S
Co406 O416 2.021 . S
Co406 O418 2.137 . S
Co406 O419 2.244 . S
O407 Co406 2.216 . S
O407 C414 1.247 . S
O408 Co406 2.091 . S
O408 C414 1.261 . S
C409 O418 1.247 . S
C409 O419 1.272 . S
O410 Co406 2.004 . S
O410 C415 1.259 . S
Co411 O412 2.061 . S
Co411 O417 2.052 . S
Co411 O419 2.135 . S
O412 Co411 2.061 . S
O412 C415 1.235 . S
C413 O416 1.238 . S
C413 O417 1.241 . S
C414 O407 1.247 . S
C414 O408 1.261 . S
C415 O410 1.259 . S
C415 O412 1.235 . S
O416 Co406 2.021 . S
O416 C413 1.238 . S
O417 Co411 2.052 . S
O417 C413 1.241 . S
O418 Co406 2.137 . S
O418 C409 1.247 . S
O419 Co406 2.244 . S
O419 C409 1.272 . S
O419 Co411 2.135 . S
Co420 O421 2.216 . S
Co420 O422 2.091 . S
Co420 O424 2.004 . S
Co420 O430 2.021 . S
Co420 O432 2.137 . S
Co420 O433 2.244 . S
O421 Co420 2.216 . S
O421 C428 1.247 . S
O422 Co420 2.091 . S
O422 C428 1.261 . S
C423 O432 1.247 . S
C423 O433 1.272 . S
O424 Co420 2.004 . S
O424 C429 1.259 . S
Co425 O426 2.061 . S
Co425 O431 2.052 . S
Co425 O433 2.135 . S
O426 Co425 2.061 . S
O426 C429 1.235 . S
C427 O430 1.238 . S
C427 O431 1.241 . S
C428 O421 1.247 . S
C428 O422 1.261 . S
C429 O424 1.259 . S
C429 O426 1.235 . S
O430 Co420 2.021 . S
O430 C427 1.238 . S
O431 Co425 2.052 . S
O431 C427 1.241 . S
O432 Co420 2.137 . S
O432 C423 1.247 . S
O433 Co420 2.244 . S
O433 C423 1.272 . S
O433 Co425 2.135 . S
Co434 O435 2.216 . S
Co434 O436 2.091 . S
Co434 O438 2.004 . S
Co434 O444 2.021 . S
Co434 O446 2.137 . S
Co434 O447 2.244 . S
O435 Co434 2.216 . S
O435 C442 1.247 . S
O436 Co434 2.091 . S
O436 C442 1.261 . S
C437 O446 1.247 . S
C437 O447 1.272 . S
O438 Co434 2.004 . S
O438 C443 1.259 . S
Co439 O440 2.061 . S
Co439 O445 2.052 . S
Co439 O447 2.135 . S
O440 Co439 2.061 . S
O440 C443 1.235 . S
C441 O444 1.238 . S
C441 O445 1.241 . S
C442 O435 1.247 . S
C442 O436 1.261 . S
C443 O438 1.259 . S
C443 O440 1.235 . S
O444 Co434 2.021 . S
O444 C441 1.238 . S
O445 Co439 2.052 . S
O445 C441 1.241 . S
O446 Co434 2.137 . S
O446 C437 1.247 . S
O447 Co434 2.244 . S
O447 C437 1.272 . S
O447 Co439 2.135 . S
C448 C449 1.391 . S
C448 C450 1.394 . S
C448 H464 0.931 . S
C449 C448 1.391 . S
C449 C453 1.376 . S
C450 C448 1.394 . S
C450 C451 1.369 . S
C450 C454 1.531 . S
C451 C450 1.369 . S
C451 C452 1.410 . S
C451 C459 1.503 . S
C452 C451 1.410 . S
C452 C453 1.392 . S
C452 C455 1.511 . S
C453 C449 1.376 . S
C453 C452 1.392 . S
C453 H465 0.929 . S
C454 C450 1.531 . S
C454 H466 0.960 . S
C454 H467 0.962 . S
C454 H468 0.960 . S
C455 C452 1.511 . S
C455 H469 0.961 . S
C455 H470 0.961 . S
C455 H471 0.961 . S
C456 C457 1.370 . S
C456 C458 1.363 . S
C456 H472 0.931 . S
C457 C456 1.370 . S
C457 C461 1.408 . S
C458 C456 1.363 . S
C458 C459 1.370 . S
C458 C462 1.524 . S
C459 C451 1.503 . S
C459 C458 1.370 . S
C459 C460 1.403 . S
C460 C459 1.403 . S
C460 C461 1.404 . S
C460 C463 1.539 . S
C461 C457 1.408 . S
C461 C460 1.404 . S
C461 H473 0.930 . S
C462 C458 1.524 . S
C462 H474 0.956 . S
C462 H475 0.961 . S
C462 H476 0.961 . S
C463 C460 1.539 . S
C463 H477 0.958 . S
C463 H478 0.961 . S
C463 H479 0.960 . S
H464 C448 0.931 . S
H465 C453 0.929 . S
H466 C454 0.960 . S
H467 C454 0.962 . S
H468 C454 0.960 . S
H469 C455 0.961 . S
H470 C455 0.961 . S
H471 C455 0.961 . S
H472 C456 0.931 . S
H473 C461 0.930 . S
H474 C462 0.956 . S
H475 C462 0.961 . S
H476 C462 0.961 . S
H477 C463 0.958 . S
H478 C463 0.961 . S
H479 C463 0.960 . S
C480 C481 1.391 . S
C480 C482 1.394 . S
C480 H496 0.931 . S
C481 C480 1.391 . S
C481 C485 1.376 . S
C482 C480 1.394 . S
C482 C483 1.369 . S
C482 C486 1.531 . S
C483 C482 1.369 . S
C483 C484 1.410 . S
C483 C491 1.503 . S
C484 C483 1.410 . S
C484 C485 1.392 . S
C484 C487 1.511 . S
C485 C481 1.376 . S
C485 C484 1.392 . S
C485 H497 0.929 . S
C486 C482 1.531 . S
C486 H498 0.960 . S
C486 H499 0.962 . S
C486 H500 0.960 . S
C487 C484 1.511 . S
C487 H501 0.961 . S
C487 H502 0.961 . S
C487 H503 0.961 . S
C488 C489 1.370 . S
C488 C490 1.363 . S
C488 H504 0.931 . S
C489 C488 1.370 . S
C489 C493 1.408 . S
C490 C488 1.363 . S
C490 C491 1.370 . S
C490 C494 1.524 . S
C491 C483 1.503 . S
C491 C490 1.370 . S
C491 C492 1.403 . S
C492 C491 1.403 . S
C492 C493 1.404 . S
C492 C495 1.539 . S
C493 C489 1.408 . S
C493 C492 1.404 . S
C493 H505 0.930 . S
C494 C490 1.524 . S
C494 H506 0.956 . S
C494 H507 0.961 . S
C494 H508 0.961 . S
C495 C492 1.539 . S
C495 H509 0.958 . S
C495 H510 0.961 . S
C495 H511 0.960 . S
H496 C480 0.931 . S
H497 C485 0.929 . S
H498 C486 0.960 . S
H499 C486 0.962 . S
H500 C486 0.960 . S
H501 C487 0.961 . S
H502 C487 0.961 . S
H503 C487 0.961 . S
H504 C488 0.931 . S
H505 C493 0.930 . S
H506 C494 0.956 . S
H507 C494 0.961 . S
H508 C494 0.961 . S
H509 C495 0.958 . S
H510 C495 0.961 . S
H511 C495 0.960 . S
C512 C513 1.391 . S
C512 C514 1.394 . S
C512 H528 0.931 . S
C513 C512 1.391 . S
C513 C517 1.376 . S
C514 C512 1.394 . S
C514 C515 1.369 . S
C514 C518 1.531 . S
C515 C514 1.369 . S
C515 C516 1.410 . S
C515 C523 1.503 . S
C516 C515 1.410 . S
C516 C517 1.392 . S
C516 C519 1.511 . S
C517 C513 1.376 . S
C517 C516 1.392 . S
C517 H529 0.929 . S
C518 C514 1.531 . S
C518 H530 0.960 . S
C518 H531 0.962 . S
C518 H532 0.960 . S
C519 C516 1.511 . S
C519 H533 0.961 . S
C519 H534 0.961 . S
C519 H535 0.961 . S
C520 C521 1.370 . S
C520 C522 1.363 . S
C520 H536 0.931 . S
C521 C520 1.370 . S
C521 C525 1.408 . S
C522 C520 1.363 . S
C522 C523 1.370 . S
C522 C526 1.524 . S
C523 C515 1.503 . S
C523 C522 1.370 . S
C523 C524 1.403 . S
C524 C523 1.403 . S
C524 C525 1.404 . S
C524 C527 1.539 . S
C525 C521 1.408 . S
C525 C524 1.404 . S
C525 H537 0.930 . S
C526 C522 1.524 . S
C526 H538 0.956 . S
C526 H539 0.961 . S
C526 H540 0.961 . S
C527 C524 1.539 . S
C527 H541 0.958 . S
C527 H542 0.961 . S
C527 H543 0.960 . S
H528 C512 0.931 . S
H529 C517 0.929 . S
H530 C518 0.960 . S
H531 C518 0.962 . S
H532 C518 0.960 . S
H533 C519 0.961 . S
H534 C519 0.961 . S
H535 C519 0.961 . S
H536 C520 0.931 . S
H537 C525 0.930 . S
H538 C526 0.956 . S
H539 C526 0.961 . S
H540 C526 0.961 . S
H541 C527 0.958 . S
H542 C527 0.961 . S
H543 C527 0.960 . S
C544 C545 1.391 . S
C544 C546 1.394 . S
C544 H560 0.931 . S
C545 C544 1.391 . S
C545 C549 1.376 . S
C546 C544 1.394 . S
C546 C547 1.369 . S
C546 C550 1.531 . S
C547 C546 1.369 . S
C547 C548 1.410 . S
C547 C555 1.503 . S
C548 C547 1.410 . S
C548 C549 1.392 . S
C548 C551 1.511 . S
C549 C545 1.376 . S
C549 C548 1.392 . S
C549 H561 0.929 . S
C550 C546 1.531 . S
C550 H562 0.960 . S
C550 H563 0.962 . S
C550 H564 0.960 . S
C551 C548 1.511 . S
C551 H565 0.961 . S
C551 H566 0.961 . S
C551 H567 0.961 . S
C552 C553 1.370 . S
C552 C554 1.363 . S
C552 H568 0.931 . S
C553 C552 1.370 . S
C553 C557 1.408 . S
C554 C552 1.363 . S
C554 C555 1.370 . S
C554 C558 1.524 . S
C555 C547 1.503 . S
C555 C554 1.370 . S
C555 C556 1.403 . S
C556 C555 1.403 . S
C556 C557 1.404 . S
C556 C559 1.539 . S
C557 C553 1.408 . S
C557 C556 1.404 . S
C557 H569 0.930 . S
C558 C554 1.524 . S
C558 H570 0.956 . S
C558 H571 0.961 . S
C558 H572 0.961 . S
C559 C556 1.539 . S
C559 H573 0.958 . S
C559 H574 0.961 . S
C559 H575 0.960 . S
H560 C544 0.931 . S
H561 C549 0.929 . S
H562 C550 0.960 . S
H563 C550 0.962 . S
H564 C550 0.960 . S
H565 C551 0.961 . S
H566 C551 0.961 . S
H567 C551 0.961 . S
H568 C552 0.931 . S
H569 C557 0.930 . S
H570 C558 0.956 . S
H571 C558 0.961 . S
H572 C558 0.961 . S
H573 C559 0.958 . S
H574 C559 0.961 . S
H575 C559 0.960 . S
C576 C577 1.391 1_545 S
C576 C578 1.394 . S
C576 H592 0.931 1_545 S
C577 C576 1.391 1_565 S
C577 C581 1.376 1_565 S
C578 C576 1.394 . S
C578 C579 1.369 . S
C578 C582 1.531 . S
C579 C578 1.369 . S
C579 C580 1.410 . S
C579 C587 1.503 . S
C580 C579 1.410 . S
C580 C581 1.392 . S
C580 C583 1.511 . S
C581 C577 1.376 1_545 S
C581 C580 1.392 . S
C581 H593 0.928 1_545 S
C582 C578 1.531 . S
C582 H594 0.960 . S
C582 H595 0.962 . S
C582 H596 0.960 . S
C583 C580 1.511 . S
C583 H597 0.961 . S
C583 H598 0.961 . S
C583 H599 0.961 . S
C584 C585 1.370 . S
C584 C586 1.363 . S
C584 H600 0.931 . S
C585 C584 1.370 . S
C585 C589 1.408 . S
C586 C584 1.363 . S
C586 C587 1.370 . S
C586 C590 1.524 . S
C587 C579 1.503 . S
C587 C586 1.370 . S
C587 C588 1.403 . S
C588 C587 1.403 . S
C588 C589 1.404 . S
C588 C591 1.539 . S
C589 C585 1.408 . S
C589 C588 1.404 . S
C589 H601 0.930 . S
C590 C586 1.524 . S
C590 H602 0.956 . S
C590 H603 0.961 . S
C590 H604 0.961 . S
C591 C588 1.539 . S
C591 H605 0.958 . S
C591 H606 0.961 . S
C591 H607 0.960 . S
H592 C576 0.931 1_565 S
H593 C581 0.928 1_565 S
H594 C582 0.960 . S
H595 C582 0.962 . S
H596 C582 0.960 . S
H597 C583 0.961 . S
H598 C583 0.961 . S
H599 C583 0.961 . S
H600 C584 0.931 . S
H601 C589 0.930 . S
H602 C590 0.956 . S
H603 C590 0.961 . S
H604 C590 0.961 . S
H605 C591 0.958 . S
H606 C591 0.961 . S
H607 C591 0.960 . S
C608 C609 1.391 1_545 S
C608 C610 1.394 . S
C608 H624 0.928 1_545 S
C609 C608 1.391 1_565 S
C609 C613 1.376 1_565 S
C610 C608 1.394 . S
C610 C611 1.369 . S
C610 C614 1.531 . S
C611 C610 1.369 . S
C611 C612 1.410 . S
C611 C619 1.503 . S
C612 C611 1.410 . S
C612 C613 1.392 . S
C612 C615 1.511 . S
C613 C609 1.376 1_545 S
C613 C612 1.392 . S
C613 H625 0.929 1_545 S
C614 C610 1.531 . S
C614 H626 0.960 . S
C614 H627 0.962 . S
C614 H628 0.960 . S
C615 C612 1.511 . S
C615 H629 0.961 . S
C615 H630 0.961 . S
C615 H631 0.961 . S
C616 C617 1.370 . S
C616 C618 1.363 . S
C616 H632 0.931 . S
C617 C616 1.370 . S
C617 C621 1.408 . S
C618 C616 1.363 . S
C618 C619 1.370 . S
C618 C622 1.524 . S
C619 C611 1.503 . S
C619 C618 1.370 . S
C619 C620 1.403 . S
C620 C619 1.403 . S
C620 C621 1.404 . S
C620 C623 1.539 . S
C621 C617 1.408 . S
C621 C620 1.404 . S
C621 H633 0.930 . S
C622 C618 1.524 . S
C622 H634 0.956 . S
C622 H635 0.961 . S
C622 H636 0.961 . S
C623 C620 1.539 . S
C623 H637 0.958 . S
C623 H638 0.961 . S
C623 H639 0.960 . S
H624 C608 0.928 1_565 S
H625 C613 0.929 1_565 S
H626 C614 0.960 . S
H627 C614 0.962 . S
H628 C614 0.960 . S
H629 C615 0.961 . S
H630 C615 0.961 . S
H631 C615 0.961 . S
H632 C616 0.931 . S
H633 C621 0.930 . S
H634 C622 0.956 . S
H635 C622 0.961 . S
H636 C622 0.961 . S
H637 C623 0.958 . S
H638 C623 0.961 . S
H639 C623 0.960 . S
C640 C641 1.391 1_565 S
C640 C642 1.394 . S
C640 H656 0.931 1_565 S
C641 C640 1.391 1_545 S
C641 C645 1.376 1_545 S
C642 C640 1.394 . S
C642 C643 1.369 . S
C642 C646 1.531 . S
C643 C642 1.369 . S
C643 C644 1.410 . S
C643 C651 1.503 . S
C644 C643 1.410 . S
C644 C645 1.392 . S
C644 C647 1.511 . S
C645 C641 1.376 1_565 S
C645 C644 1.392 . S
C645 H657 0.937 . S
C646 C642 1.531 . S
C646 H658 0.960 . S
C646 H659 0.962 . S
C646 H660 0.960 . S
C647 C644 1.511 . S
C647 H661 0.961 . S
C647 H662 0.961 . S
C647 H663 0.961 . S
C648 C649 1.370 . S
C648 C650 1.363 . S
C648 H664 0.931 . S
C649 C648 1.370 . S
C649 C653 1.408 . S
C650 C648 1.363 . S
C650 C651 1.370 . S
C650 C654 1.524 . S
C651 C643 1.503 . S
C651 C650 1.370 . S
C651 C652 1.403 . S
C652 C651 1.403 . S
C652 C653 1.404 . S
C652 C655 1.539 . S
C653 C649 1.408 . S
C653 C652 1.404 . S
C653 H665 0.930 . S
C654 C650 1.524 . S
C654 H666 0.956 . S
C654 H667 0.961 . S
C654 H668 0.961 . S
C655 C652 1.539 . S
C655 H669 0.958 . S
C655 H670 0.961 . S
C655 H671 0.960 . S
H656 C640 0.931 1_545 S
H657 C645 0.937 . S
H658 C646 0.960 . S
H659 C646 0.962 . S
H660 C646 0.960 . S
H661 C647 0.961 . S
H662 C647 0.961 . S
H663 C647 0.961 . S
H664 C648 0.931 . S
H665 C653 0.930 . S
H666 C654 0.956 . S
H667 C654 0.961 . S
H668 C654 0.961 . S
H669 C655 0.958 . S
H670 C655 0.961 . S
H671 C655 0.960 . S
C672 C673 1.391 . S
C672 C674 1.394 . S
C672 H688 0.931 . S
C673 C672 1.391 . S
C673 C677 1.376 . S
C674 C672 1.394 . S
C674 C675 1.369 . S
C674 C678 1.531 . S
C675 C674 1.369 . S
C675 C676 1.410 . S
C675 C683 1.503 . S
C676 C675 1.410 . S
C676 C677 1.392 . S
C676 C679 1.511 . S
C677 C673 1.376 . S
C677 C676 1.392 . S
C677 H689 0.929 . S
C678 C674 1.531 . S
C678 H690 0.960 . S
C678 H691 0.962 . S
C678 H692 0.960 . S
C679 C676 1.511 . S
C679 H693 0.961 . S
C679 H694 0.961 . S
C679 H695 0.961 . S
C680 C681 1.370 1_565 S
C680 C682 1.363 . S
C680 H696 0.931 . S
C681 C680 1.370 1_545 S
C681 C685 1.408 1_545 S
C682 C680 1.363 . S
C682 C683 1.370 . S
C682 C686 1.524 . S
C683 C675 1.503 . S
C683 C682 1.370 . S
C683 C684 1.403 . S
C684 C683 1.403 . S
C684 C685 1.404 . S
C684 C687 1.539 . S
C685 C681 1.408 1_565 S
C685 C684 1.404 . S
C685 H697 0.930 1_565 S
C686 C682 1.524 . S
C686 H698 0.956 . S
C686 H699 0.961 . S
C686 H700 0.961 . S
C687 C684 1.539 . S
C687 H701 0.958 . S
C687 H702 0.961 . S
C687 H703 0.960 . S
H688 C672 0.931 . S
H689 C677 0.929 . S
H690 C678 0.960 . S
H691 C678 0.962 . S
H692 C678 0.960 . S
H693 C679 0.961 . S
H694 C679 0.961 . S
H695 C679 0.961 . S
H696 C680 0.931 . S
H697 C685 0.930 1_545 S
H698 C686 0.956 . S
H699 C686 0.961 . S
H700 C686 0.961 . S
H701 C687 0.958 . S
H702 C687 0.961 . S
H703 C687 0.960 . S
C704 C705 1.391 . S
C704 C706 1.394 . S
C704 H720 0.931 . S
C705 C704 1.391 . S
C705 C709 1.376 . S
C706 C704 1.394 . S
C706 C707 1.369 . S
C706 C710 1.531 . S
C707 C706 1.369 . S
C707 C708 1.410 . S
C707 C715 1.503 . S
C708 C707 1.410 . S
C708 C709 1.392 . S
C708 C711 1.511 . S
C709 C705 1.376 . S
C709 C708 1.392 . S
C709 H721 0.929 . S
C710 C706 1.531 . S
C710 H722 0.960 . S
C710 H723 0.962 . S
C710 H724 0.960 . S
C711 C708 1.511 . S
C711 H725 0.961 . S
C711 H726 0.961 . S
C711 H727 0.961 . S
C712 C713 1.370 . S
C712 C714 1.363 . S
C712 H728 0.931 . S
C713 C712 1.370 . S
C713 C717 1.408 . S
C714 C712 1.363 . S
C714 C715 1.370 . S
C714 C718 1.524 . S
C715 C707 1.503 . S
C715 C714 1.370 . S
C715 C716 1.403 . S
C716 C715 1.403 . S
C716 C717 1.404 . S
C716 C719 1.539 . S
C717 C713 1.408 . S
C717 C716 1.404 . S
C717 H729 0.930 . S
C718 C714 1.524 . S
C718 H730 0.956 . S
C718 H731 0.961 . S
C718 H732 0.961 . S
C719 C716 1.539 . S
C719 H733 0.958 . S
C719 H734 0.961 . S
C719 H735 0.960 . S
H720 C704 0.931 . S
H721 C709 0.929 . S
H722 C710 0.960 . S
H723 C710 0.962 . S
H724 C710 0.960 . S
H725 C711 0.961 . S
H726 C711 0.961 . S
H727 C711 0.961 . S
H728 C712 0.931 . S
H729 C717 0.930 . S
H730 C718 0.956 . S
H731 C718 0.961 . S
H732 C718 0.961 . S
H733 C719 0.958 . S
H734 C719 0.961 . S
H735 C719 0.960 . S
C736 C737 1.391 . S
C736 C738 1.394 . S
C736 H752 0.931 . S
C737 C736 1.391 . S
C737 C741 1.376 . S
C738 C736 1.394 . S
C738 C739 1.369 . S
C738 C742 1.531 . S
C739 C738 1.369 . S
C739 C740 1.410 . S
C739 C747 1.503 . S
C740 C739 1.410 . S
C740 C741 1.392 . S
C740 C743 1.511 . S
C741 C737 1.376 . S
C741 C740 1.392 . S
C741 H753 0.929 . S
C742 C738 1.531 . S
C742 H754 0.960 . S
C742 H755 0.962 . S
C742 H756 0.960 . S
C743 C740 1.511 . S
C743 H757 0.961 . S
C743 H758 0.961 . S
C743 H759 0.961 . S
C744 C745 1.370 . S
C744 C746 1.363 . S
C744 H760 0.931 . S
C745 C744 1.370 . S
C745 C749 1.408 . S
C746 C744 1.363 . S
C746 C747 1.370 . S
C746 C750 1.524 . S
C747 C739 1.503 . S
C747 C746 1.370 . S
C747 C748 1.403 . S
C748 C747 1.403 . S
C748 C749 1.404 . S
C748 C751 1.539 . S
C749 C745 1.408 . S
C749 C748 1.404 . S
C749 H761 0.930 . S
C750 C746 1.524 . S
C750 H762 0.956 . S
C750 H763 0.961 . S
C750 H764 0.961 . S
C751 C748 1.539 . S
C751 H765 0.958 . S
C751 H766 0.961 . S
C751 H767 0.960 . S
H752 C736 0.931 . S
H753 C741 0.929 . S
H754 C742 0.960 . S
H755 C742 0.962 . S
H756 C742 0.960 . S
H757 C743 0.961 . S
H758 C743 0.961 . S
H759 C743 0.961 . S
H760 C744 0.931 . S
H761 C749 0.930 . S
H762 C750 0.956 . S
H763 C750 0.961 . S
H764 C750 0.961 . S
H765 C751 0.958 . S
H766 C751 0.961 . S
H767 C751 0.960 . S
C768 C769 1.391 . S
C768 C770 1.394 . S
C768 H784 0.931 . S
C769 C768 1.391 . S
C769 C773 1.376 . S
C770 C768 1.394 . S
C770 C771 1.369 . S
C770 C774 1.531 . S
C771 C770 1.369 . S
C771 C772 1.410 . S
C771 C779 1.503 . S
C772 C771 1.410 . S
C772 C773 1.392 . S
C772 C775 1.511 . S
C773 C769 1.376 . S
C773 C772 1.392 . S
C773 H785 0.929 . S
C774 C770 1.531 . S
C774 H786 0.960 . S
C774 H787 0.962 . S
C774 H788 0.960 . S
C775 C772 1.511 . S
C775 H789 0.961 . S
C775 H790 0.961 . S
C775 H791 0.961 . S
C776 C777 1.370 . S
C776 C778 1.363 . S
C776 H792 0.931 . S
C777 C776 1.370 . S
C777 C781 1.408 . S
C778 C776 1.363 . S
C778 C779 1.370 . S
C778 C782 1.524 . S
C779 C771 1.503 . S
C779 C778 1.370 . S
C779 C780 1.403 . S
C780 C779 1.403 . S
C780 C781 1.404 . S
C780 C783 1.539 . S
C781 C777 1.408 . S
C781 C780 1.404 . S
C781 H793 0.930 . S
C782 C778 1.524 . S
C782 H794 0.956 . S
C782 H795 0.961 . S
C782 H796 0.961 . S
C783 C780 1.539 . S
C783 H797 0.958 . S
C783 H798 0.961 . S
C783 H799 0.960 . S
H784 C768 0.931 . S
H785 C773 0.929 . S
H786 C774 0.960 . S
H787 C774 0.962 . S
H788 C774 0.960 . S
H789 C775 0.961 . S
H790 C775 0.961 . S
H791 C775 0.961 . S
H792 C776 0.931 . S
H793 C781 0.930 . S
H794 C782 0.956 . S
H795 C782 0.961 . S
H796 C782 0.961 . S
H797 C783 0.958 . S
H798 C783 0.961 . S
H799 C783 0.960 . S
C800 C801 1.391 . S
C800 C802 1.394 . S
C800 H816 0.931 . S
C801 C800 1.391 . S
C801 C805 1.376 . S
C802 C800 1.394 . S
C802 C803 1.369 . S
C802 C806 1.531 . S
C803 C802 1.369 . S
C803 C804 1.410 . S
C803 C811 1.503 . S
C804 C803 1.410 . S
C804 C805 1.392 . S
C804 C807 1.511 . S
C805 C801 1.376 . S
C805 C804 1.392 . S
C805 H817 0.929 . S
C806 C802 1.531 . S
C806 H818 0.960 . S
C806 H819 0.962 . S
C806 H820 0.960 . S
C807 C804 1.511 . S
C807 H821 0.961 . S
C807 H822 0.961 . S
C807 H823 0.961 . S
C808 C809 1.370 . S
C808 C810 1.363 . S
C808 H824 0.931 . S
C809 C808 1.370 . S
C809 C813 1.408 . S
C810 C808 1.363 . S
C810 C811 1.370 . S
C810 C814 1.524 . S
C811 C803 1.503 . S
C811 C810 1.370 . S
C811 C812 1.403 . S
C812 C811 1.403 . S
C812 C813 1.404 . S
C812 C815 1.539 . S
C813 C809 1.408 . S
C813 C812 1.404 . S
C813 H825 0.930 . S
C814 C810 1.524 . S
C814 H826 0.956 . S
C814 H827 0.961 . S
C814 H828 0.961 . S
C815 C812 1.539 . S
C815 H829 0.958 . S
C815 H830 0.961 . S
C815 H831 0.960 . S
H816 C800 0.931 . S
H817 C805 0.929 . S
H818 C806 0.960 . S
H819 C806 0.962 . S
H820 C806 0.960 . S
H821 C807 0.961 . S
H822 C807 0.961 . S
H823 C807 0.961 . S
H824 C808 0.931 . S
H825 C813 0.930 . S
H826 C814 0.956 . S
H827 C814 0.961 . S
H828 C814 0.961 . S
H829 C815 0.958 . S
H830 C815 0.961 . S
H831 C815 0.960 . S
C832 C833 1.391 . S
C832 C834 1.394 . S
C832 H848 0.931 . S
C833 C832 1.391 . S
C833 C837 1.376 . S
C834 C832 1.394 . S
C834 C835 1.369 . S
C834 C838 1.531 . S
C835 C834 1.369 . S
C835 C836 1.410 . S
C835 C843 1.503 . S
C836 C835 1.410 . S
C836 C837 1.392 . S
C836 C839 1.511 . S
C837 C833 1.376 . S
C837 C836 1.392 . S
C837 H849 0.929 . S
C838 C834 1.531 . S
C838 H850 0.960 . S
C838 H851 0.962 . S
C838 H852 0.960 . S
C839 C836 1.511 . S
C839 H853 0.961 . S
C839 H854 0.961 . S
C839 H855 0.961 . S
C840 C841 1.370 1_545 S
C840 C842 1.363 . S
C840 H856 0.931 . S
C841 C840 1.370 1_565 S
C841 C845 1.408 1_565 S
C842 C840 1.363 . S
C842 C843 1.370 . S
C842 C846 1.524 . S
C843 C835 1.503 . S
C843 C842 1.370 . S
C843 C844 1.403 . S
C844 C843 1.403 . S
C844 C845 1.404 . S
C844 C847 1.539 . S
C845 C841 1.408 1_545 S
C845 C844 1.404 . S
C845 H857 0.930 1_545 S
C846 C842 1.524 . S
C846 H858 0.956 . S
C846 H859 0.961 . S
C846 H860 0.961 . S
C847 C844 1.539 . S
C847 H861 0.958 . S
C847 H862 0.961 . S
C847 H863 0.960 . S
H848 C832 0.931 . S
H849 C837 0.929 . S
H850 C838 0.960 . S
H851 C838 0.962 . S
H852 C838 0.960 . S
H853 C839 0.961 . S
H854 C839 0.961 . S
H855 C839 0.961 . S
H856 C840 0.931 . S
H857 C845 0.930 1_565 S
H858 C846 0.956 . S
H859 C846 0.961 . S
H860 C846 0.961 . S
H861 C847 0.958 . S
H862 C847 0.961 . S
H863 C847 0.960 . S
C864 C865 1.391 1_545 S
C864 C866 1.394 . S
C864 H880 0.932 . S
C865 C864 1.391 1_565 S
C865 C869 1.376 1_565 S
C866 C864 1.394 . S
C866 C867 1.369 . S
C866 C870 1.531 . S
C867 C866 1.369 . S
C867 C868 1.410 . S
C867 C875 1.503 . S
C868 C867 1.410 . S
C868 C869 1.392 . S
C868 C871 1.511 . S
C869 C865 1.376 1_545 S
C869 C868 1.392 . S
C869 H881 0.929 1_545 S
C870 C866 1.531 . S
C870 H882 0.960 . S
C870 H883 0.962 . S
C870 H884 0.960 . S
C871 C868 1.511 . S
C871 H885 0.961 . S
C871 H886 0.961 . S
C871 H887 0.961 . S
C872 C873 1.370 . S
C872 C874 1.363 . S
C872 H888 0.931 . S
C873 C872 1.370 . S
C873 C877 1.408 . S
C874 C872 1.363 . S
C874 C875 1.370 . S
C874 C878 1.524 . S
C875 C867 1.503 . S
C875 C874 1.370 . S
C875 C876 1.403 . S
C876 C875 1.403 . S
C876 C877 1.404 . S
C876 C879 1.539 . S
C877 C873 1.408 . S
C877 C876 1.404 . S
C877 H889 0.930 . S
C878 C874 1.524 . S
C878 H890 0.956 . S
C878 H891 0.961 . S
C878 H892 0.961 . S
C879 C876 1.539 . S
C879 H893 0.958 . S
C879 H894 0.961 . S
C879 H895 0.960 . S
H880 C864 0.932 . S
H881 C869 0.929 1_565 S
H882 C870 0.960 . S
H883 C870 0.962 . S
H884 C870 0.960 . S
H885 C871 0.961 . S
H886 C871 0.961 . S
H887 C871 0.961 . S
H888 C872 0.931 . S
H889 C877 0.930 . S
H890 C878 0.956 . S
H891 C878 0.961 . S
H892 C878 0.961 . S
H893 C879 0.958 . S
H894 C879 0.961 . S
H895 C879 0.960 . S
C896 C897 1.391 . S
C896 C898 1.394 . S
C896 H912 0.931 . S
C897 C896 1.391 . S
C897 C901 1.376 . S
C898 C896 1.394 . S
C898 C899 1.369 . S
C898 C902 1.531 . S
C899 C898 1.369 . S
C899 C900 1.410 . S
C899 C907 1.503 . S
C900 C899 1.410 . S
C900 C901 1.392 . S
C900 C903 1.511 . S
C901 C897 1.376 . S
C901 C900 1.392 . S
C901 H913 0.929 . S
C902 C898 1.531 . S
C902 H914 0.960 . S
C902 H915 0.962 . S
C902 H916 0.960 . S
C903 C900 1.511 . S
C903 H917 0.961 . S
C903 H918 0.961 . S
C903 H919 0.961 . S
C904 C905 1.370 1_565 S
C904 C906 1.363 . S
C904 H920 0.931 . S
C905 C904 1.370 1_545 S
C905 C909 1.408 1_545 S
C906 C904 1.363 . S
C906 C907 1.370 . S
C906 C910 1.524 . S
C907 C899 1.503 . S
C907 C906 1.370 . S
C907 C908 1.403 . S
C908 C907 1.403 . S
C908 C909 1.404 . S
C908 C911 1.539 . S
C909 C905 1.408 1_565 S
C909 C908 1.404 . S
C909 H921 0.930 1_565 S
C910 C906 1.524 . S
C910 H922 0.956 . S
C910 H923 0.961 . S
C910 H924 0.961 . S
C911 C908 1.539 . S
C911 H925 0.958 . S
C911 H926 0.961 . S
C911 H927 0.960 . S
H912 C896 0.931 . S
H913 C901 0.929 . S
H914 C902 0.960 . S
H915 C902 0.962 . S
H916 C902 0.960 . S
H917 C903 0.961 . S
H918 C903 0.961 . S
H919 C903 0.961 . S
H920 C904 0.931 . S
H921 C909 0.930 1_545 S
H922 C910 0.956 . S
H923 C910 0.961 . S
H924 C910 0.961 . S
H925 C911 0.958 . S
H926 C911 0.961 . S
H927 C911 0.960 . S
C928 C929 1.391 . S
C928 C930 1.394 . S
C928 H944 0.931 . S
C929 C928 1.391 . S
C929 C933 1.376 . S
C930 C928 1.394 . S
C930 C931 1.369 . S
C930 C934 1.531 . S
C931 C930 1.369 . S
C931 C932 1.410 . S
C931 C939 1.503 . S
C932 C931 1.410 . S
C932 C933 1.392 . S
C932 C935 1.511 . S
C933 C929 1.376 . S
C933 C932 1.392 . S
C933 H945 0.929 . S
C934 C930 1.531 . S
C934 H946 0.960 . S
C934 H947 0.962 . S
C934 H948 0.960 . S
C935 C932 1.511 . S
C935 H949 0.961 . S
C935 H950 0.961 . S
C935 H951 0.961 . S
C936 C937 1.370 1_565 S
C936 C938 1.363 . S
C936 H952 0.931 . S
C937 C936 1.370 1_545 S
C937 C941 1.408 1_545 S
C938 C936 1.363 . S
C938 C939 1.370 . S
C938 C942 1.524 . S
C939 C931 1.503 . S
C939 C938 1.370 . S
C939 C940 1.403 . S
C940 C939 1.403 . S
C940 C941 1.404 . S
C940 C943 1.539 . S
C941 C937 1.408 1_565 S
C941 C940 1.404 . S
C941 H953 0.930 1_565 S
C942 C938 1.524 . S
C942 H954 0.956 . S
C942 H955 0.961 . S
C942 H956 0.961 . S
C943 C940 1.539 . S
C943 H957 0.958 . S
C943 H958 0.961 . S
C943 H959 0.960 . S
H944 C928 0.931 . S
H945 C933 0.929 . S
H946 C934 0.960 . S
H947 C934 0.962 . S
H948 C934 0.960 . S
H949 C935 0.961 . S
H950 C935 0.961 . S
H951 C935 0.961 . S
H952 C936 0.931 . S
H953 C941 0.930 1_545 S
H954 C942 0.956 . S
H955 C942 0.961 . S
H956 C942 0.961 . S
H957 C943 0.958 . S
H958 C943 0.961 . S
H959 C943 0.960 . S
C960 C961 1.391 . S
C960 C962 1.394 . S
C960 H976 0.931 . S
C961 C960 1.391 . S
C961 C965 1.376 . S
C962 C960 1.394 . S
C962 C963 1.369 . S
C962 C966 1.530 1_556 S
C963 C962 1.369 . S
C963 C964 1.410 1_655 S
C963 C971 1.503 1_656 S
C964 C963 1.410 1_455 S
C964 C965 1.392 1_455 S
C964 C967 1.511 . S
C965 C961 1.376 . S
C965 C964 1.392 1_655 S
C965 H977 0.911 1_655 S
C966 C962 1.530 1_554 S
C966 H978 0.960 . S
C966 H979 0.963 . S
C966 H980 0.960 1_554 S
C967 C964 1.511 . S
C967 H981 0.961 . S
C967 H982 0.961 . S
C967 H983 0.961 . S
C968 C969 1.370 . S
C968 C970 1.363 . S
C968 H984 0.931 . S
C969 C968 1.370 . S
C969 C973 1.408 . S
C970 C968 1.363 . S
C970 C971 1.370 . S
C970 C974 1.524 1_455 S
C971 C963 1.503 1_454 S
C971 C970 1.370 . S
C971 C972 1.403 . S
C972 C971 1.403 . S
C972 C973 1.404 . S
C972 C975 1.539 1_554 S
C973 C969 1.408 . S
C973 C972 1.404 . S
C973 H985 0.930 . S
C974 C970 1.524 1_655 S
C974 H986 0.956 . S
C974 H987 0.961 1_655 S
C974 H988 0.944 1_655 S
C975 C972 1.539 1_556 S
C975 H989 0.958 . S
C975 H990 0.961 . S
C975 H991 0.960 . S
H976 C960 0.931 . S
H977 C965 0.911 1_455 S
H978 C966 0.960 . S
H979 C966 0.963 . S
H980 C966 0.960 1_556 S
H981 C967 0.961 . S
H982 C967 0.961 . S
H983 C967 0.961 . S
H984 C968 0.931 . S
H985 C973 0.930 . S
H986 C974 0.956 . S
H987 C974 0.961 1_455 S
H988 C974 0.944 1_455 S
H989 C975 0.958 . S
H990 C975 0.961 . S
H991 C975 0.960 . S
C992 C993 1.391 . S
C992 C994 1.394 . S
C992 H1008 0.931 . S
C993 C992 1.391 . S
C993 C997 1.376 . S
C994 C992 1.394 . S
C994 C995 1.369 . S
C994 C998 1.531 . S
C995 C994 1.369 . S
C995 C996 1.410 . S
C995 C1003 1.503 1_556 S
C996 C995 1.410 . S
C996 C997 1.392 . S
C996 C999 1.511 1_556 S
C997 C993 1.376 . S
C997 C996 1.392 . S
C997 H1009 0.929 . S
C998 C994 1.531 . S
C998 H1010 0.960 . S
C998 H1011 0.962 . S
C998 H1012 0.960 . S
C999 C996 1.511 1_554 S
C999 H1013 0.961 . S
C999 H1014 0.961 . S
C999 H1015 0.961 . S
C1000 C1001 1.370 . S
C1000 C1002 1.363 . S
C1000 H1016 0.931 . S
C1001 C1000 1.370 . S
C1001 C1005 1.408 . S
C1002 C1000 1.363 . S
C1002 C1003 1.370 . S
C1002 C1006 1.524 1_554 S
C1003 C995 1.503 1_554 S
C1003 C1002 1.370 . S
C1003 C1004 1.403 . S
C1004 C1003 1.403 . S
C1004 C1005 1.404 . S
C1004 C1007 1.539 . S
C1005 C1001 1.408 . S
C1005 C1004 1.404 . S
C1005 H1017 0.930 . S
C1006 C1002 1.524 1_556 S
C1006 H1018 0.956 . S
C1006 H1019 0.961 . S
C1006 H1020 0.961 . S
C1007 C1004 1.539 . S
C1007 H1021 0.958 . S
C1007 H1022 0.961 . S
C1007 H1023 0.960 . S
H1008 C992 0.931 . S
H1009 C997 0.929 . S
H1010 C998 0.960 . S
H1011 C998 0.962 . S
H1012 C998 0.960 . S
H1013 C999 0.961 . S
H1014 C999 0.961 . S
H1015 C999 0.961 . S
H1016 C1000 0.931 . S
H1017 C1005 0.930 . S
H1018 C1006 0.956 . S
H1019 C1006 0.961 . S
H1020 C1006 0.961 . S
H1021 C1007 0.958 . S
H1022 C1007 0.961 . S
H1023 C1007 0.960 . S
C1024 C1025 1.391 . S
C1024 C1026 1.381 1_455 S
C1024 H1040 0.931 . S
C1025 C1024 1.391 . S
C1025 C1029 1.376 . S
C1026 C1024 1.381 1_655 S
C1026 C1027 1.366 1_655 S
C1026 C1030 1.547 . S
C1027 C1026 1.366 1_455 S
C1027 C1028 1.410 . S
C1027 C1035 1.503 1_455 S
C1028 C1027 1.410 . S
C1028 C1029 1.392 . S
C1028 C1031 1.511 . S
C1029 C1025 1.376 . S
C1029 C1028 1.392 . S
C1029 H1041 0.929 . S
C1030 C1026 1.547 . S
C1030 H1042 0.960 . S
C1030 H1043 0.962 . S
C1030 H1044 0.960 . S
C1031 C1028 1.511 . S
C1031 H1045 0.961 . S
C1031 H1046 0.961 . S
C1031 H1047 0.961 . S
C1032 C1033 1.370 . S
C1032 C1034 1.352 1_655 S
C1032 H1048 0.931 . S
C1033 C1032 1.370 . S
C1033 C1037 1.408 . S
C1034 C1032 1.352 1_455 S
C1034 C1035 1.360 1_455 S
C1034 C1038 1.546 . S
C1035 C1027 1.503 1_655 S
C1035 C1034 1.360 1_655 S
C1035 C1036 1.403 . S
C1036 C1035 1.403 . S
C1036 C1037 1.404 . S
C1036 C1039 1.539 . S
C1037 C1033 1.408 . S
C1037 C1036 1.404 . S
C1037 H1049 0.930 . S
C1038 C1034 1.546 . S
C1038 H1050 0.956 . S
C1038 H1051 0.961 . S
C1038 H1052 0.961 . S
C1039 C1036 1.539 . S
C1039 H1053 0.958 . S
C1039 H1054 0.961 . S
C1039 H1055 0.960 . S
H1040 C1024 0.931 . S
H1041 C1029 0.929 . S
H1042 C1030 0.960 . S
H1043 C1030 0.962 . S
H1044 C1030 0.960 . S
H1045 C1031 0.961 . S
H1046 C1031 0.961 . S
H1047 C1031 0.961 . S
H1048 C1032 0.931 . S
H1049 C1037 0.930 . S
H1050 C1038 0.956 . S
H1051 C1038 0.961 . S
H1052 C1038 0.961 . S
H1053 C1039 0.958 . S
H1054 C1039 0.961 . S
H1055 C1039 0.960 . S
C1056 C1057 1.391 . S
C1056 C1058 1.394 . S
C1056 H1072 0.931 . S
C1057 C1056 1.391 . S
C1057 C1061 1.376 . S
C1058 C1056 1.394 . S
C1058 C1059 1.369 . S
C1058 C1062 1.531 . S
C1059 C1058 1.369 . S
C1059 C1060 1.410 . S
C1059 C1067 1.503 . S
C1060 C1059 1.410 . S
C1060 C1061 1.392 . S
C1060 C1063 1.511 . S
C1061 C1057 1.376 . S
C1061 C1060 1.392 . S
C1061 H1073 0.929 . S
C1062 C1058 1.531 . S
C1062 H1074 0.960 . S
C1062 H1075 0.962 . S
C1062 H1076 0.960 . S
C1063 C1060 1.511 . S
C1063 H1077 0.961 . S
C1063 H1078 0.961 . S
C1063 H1079 0.961 . S
C1064 C1065 1.370 . S
C1064 C1066 1.363 . S
C1064 H1080 0.931 . S
C1065 C1064 1.370 . S
C1065 C1069 1.408 . S
C1066 C1064 1.363 . S
C1066 C1067 1.370 . S
C1066 C1070 1.524 . S
C1067 C1059 1.503 . S
C1067 C1066 1.370 . S
C1067 C1068 1.403 . S
C1068 C1067 1.403 . S
C1068 C1069 1.404 . S
C1068 C1071 1.539 . S
C1069 C1065 1.408 . S
C1069 C1068 1.404 . S
C1069 H1081 0.930 . S
C1070 C1066 1.524 . S
C1070 H1082 0.956 . S
C1070 H1083 0.961 . S
C1070 H1084 0.961 . S
C1071 C1068 1.539 . S
C1071 H1085 0.958 . S
C1071 H1086 0.961 . S
C1071 H1087 0.960 . S
H1072 C1056 0.931 . S
H1073 C1061 0.929 . S
H1074 C1062 0.960 . S
H1075 C1062 0.962 . S
H1076 C1062 0.960 . S
H1077 C1063 0.961 . S
H1078 C1063 0.961 . S
H1079 C1063 0.961 . S
H1080 C1064 0.931 . S
H1081 C1069 0.930 . S
H1082 C1070 0.956 . S
H1083 C1070 0.961 . S
H1084 C1070 0.961 . S
H1085 C1071 0.958 . S
H1086 C1071 0.961 . S
H1087 C1071 0.960 . S
C1088 C1089 1.391 . S
C1088 C1090 1.394 . S
C1088 H1104 0.931 . S
C1089 C1088 1.391 . S
C1089 C1093 1.376 . S
C1090 C1088 1.394 . S
C1090 C1091 1.369 . S
C1090 C1094 1.531 . S
C1091 C1090 1.369 . S
C1091 C1092 1.410 . S
C1091 C1099 1.503 1_556 S
C1092 C1091 1.410 . S
C1092 C1093 1.392 . S
C1092 C1095 1.511 . S
C1093 C1089 1.376 . S
C1093 C1092 1.392 . S
C1093 H1105 0.929 . S
C1094 C1090 1.531 . S
C1094 H1106 0.960 . S
C1094 H1107 0.962 1_556 S
C1094 H1108 0.960 . S
C1095 C1092 1.511 . S
C1095 H1109 0.961 . S
C1095 H1110 0.941 1_556 S
C1095 H1111 0.961 . S
C1096 C1097 1.370 . S
C1096 C1098 1.363 . S
C1096 H1112 0.931 . S
C1097 C1096 1.370 . S
C1097 C1101 1.408 . S
C1098 C1096 1.363 . S
C1098 C1099 1.370 . S
C1098 C1102 1.524 . S
C1099 C1091 1.503 1_554 S
C1099 C1098 1.370 . S
C1099 C1100 1.403 . S
C1100 C1099 1.403 . S
C1100 C1101 1.404 . S
C1100 C1103 1.539 1_554 S
C1101 C1097 1.408 . S
C1101 C1100 1.404 . S
C1101 H1113 0.930 . S
C1102 C1098 1.524 . S
C1102 H1114 0.956 . S
C1102 H1115 0.961 . S
C1102 H1116 0.961 . S
C1103 C1100 1.539 1_556 S
C1103 H1117 0.958 . S
C1103 H1118 0.961 . S
C1103 H1119 0.960 . S
H1104 C1088 0.931 . S
H1105 C1093 0.929 . S
H1106 C1094 0.960 . S
H1107 C1094 0.962 1_554 S
H1108 C1094 0.960 . S
H1109 C1095 0.961 . S
H1110 C1095 0.941 1_554 S
H1111 C1095 0.961 . S
H1112 C1096 0.931 . S
H1113 C1101 0.930 . S
H1114 C1102 0.956 . S
H1115 C1102 0.961 . S
H1116 C1102 0.961 . S
H1117 C1103 0.958 . S
H1118 C1103 0.961 . S
H1119 C1103 0.960 . S
C1120 C1121 1.391 . S
C1120 C1122 1.394 . S
C1120 H1136 0.931 . S
C1121 C1120 1.391 . S
C1121 C1125 1.376 . S
C1122 C1120 1.394 . S
C1122 C1123 1.369 . S
C1122 C1126 1.531 1_655 S
C1123 C1122 1.369 . S
C1123 C1124 1.410 . S
C1123 C1131 1.503 1_655 S
C1124 C1123 1.410 . S
C1124 C1125 1.392 . S
C1124 C1127 1.511 . S
C1125 C1121 1.376 . S
C1125 C1124 1.392 . S
C1125 H1137 0.929 . S
C1126 C1122 1.531 1_455 S
C1126 H1138 0.960 . S
C1126 H1139 0.962 . S
C1126 H1140 0.960 1_455 S
C1127 C1124 1.511 . S
C1127 H1141 0.961 . S
C1127 H1142 0.961 . S
C1127 H1143 0.961 . S
C1128 C1129 1.370 . S
C1128 C1130 1.363 . S
C1128 H1144 0.931 . S
C1129 C1128 1.370 . S
C1129 C1133 1.408 . S
C1130 C1128 1.363 . S
C1130 C1131 1.370 . S
C1130 C1134 1.524 . S
C1131 C1123 1.503 1_455 S
C1131 C1130 1.370 . S
C1131 C1132 1.403 1_455 S
C1132 C1131 1.403 1_655 S
C1132 C1133 1.404 1_655 S
C1132 C1135 1.539 . S
C1133 C1129 1.408 . S
C1133 C1132 1.404 1_455 S
C1133 H1145 0.940 . S
C1134 C1130 1.524 . S
C1134 H1146 0.956 . S
C1134 H1147 0.961 . S
C1134 H1148 0.961 . S
C1135 C1132 1.539 . S
C1135 H1149 0.958 . S
C1135 H1150 0.961 . S
C1135 H1151 0.960 . S
H1136 C1120 0.931 . S
H1137 C1125 0.929 . S
H1138 C1126 0.960 . S
H1139 C1126 0.962 . S
H1140 C1126 0.960 1_655 S
H1141 C1127 0.961 . S
H1142 C1127 0.961 . S
H1143 C1127 0.961 . S
H1144 C1128 0.931 . S
H1145 C1133 0.940 . S
H1146 C1134 0.956 . S
H1147 C1134 0.961 . S
H1148 C1134 0.961 . S
H1149 C1135 0.958 . S
H1150 C1135 0.961 . S
H1151 C1135 0.960 . S
C1152 C1153 1.391 . S
C1152 C1154 1.394 . S
C1152 H1168 0.931 . S
C1153 C1152 1.391 . S
C1153 C1157 1.376 . S
C1154 C1152 1.394 . S
C1154 C1155 1.369 . S
C1154 C1158 1.531 . S
C1155 C1154 1.369 . S
C1155 C1156 1.410 . S
C1155 C1163 1.503 . S
C1156 C1155 1.410 . S
C1156 C1157 1.392 . S
C1156 C1159 1.511 . S
C1157 C1153 1.376 . S
C1157 C1156 1.392 . S
C1157 H1169 0.929 . S
C1158 C1154 1.531 . S
C1158 H1170 0.960 . S
C1158 H1171 0.962 . S
C1158 H1172 0.960 . S
C1159 C1156 1.511 . S
C1159 H1173 0.961 . S
C1159 H1174 0.961 . S
C1159 H1175 0.961 . S
C1160 C1161 1.370 . S
C1160 C1162 1.363 . S
C1160 H1176 0.931 . S
C1161 C1160 1.370 . S
C1161 C1165 1.408 . S
C1162 C1160 1.363 . S
C1162 C1163 1.370 . S
C1162 C1166 1.524 . S
C1163 C1155 1.503 . S
C1163 C1162 1.370 . S
C1163 C1164 1.403 . S
C1164 C1163 1.403 . S
C1164 C1165 1.404 . S
C1164 C1167 1.539 . S
C1165 C1161 1.408 . S
C1165 C1164 1.404 . S
C1165 H1177 0.930 . S
C1166 C1162 1.524 . S
C1166 H1178 0.956 . S
C1166 H1179 0.961 . S
C1166 H1180 0.961 . S
C1167 C1164 1.539 . S
C1167 H1181 0.958 . S
C1167 H1182 0.961 . S
C1167 H1183 0.960 . S
H1168 C1152 0.931 . S
H1169 C1157 0.929 . S
H1170 C1158 0.960 . S
H1171 C1158 0.962 . S
H1172 C1158 0.960 . S
H1173 C1159 0.961 . S
H1174 C1159 0.961 . S
H1175 C1159 0.961 . S
H1176 C1160 0.931 . S
H1177 C1165 0.930 . S
H1178 C1166 0.956 . S
H1179 C1166 0.961 . S
H1180 C1166 0.961 . S
H1181 C1167 0.958 . S
H1182 C1167 0.961 . S
H1183 C1167 0.960 . S
C1184 C1185 1.391 . S
C1184 C1186 1.394 1_545 S
C1184 H1200 0.931 1_545 S
C1185 C1184 1.391 . S
C1185 C1189 1.376 . S
C1186 C1184 1.394 1_565 S
C1186 C1187 1.369 1_565 S
C1186 C1190 1.549 . S
C1187 C1186 1.369 1_545 S
C1187 C1188 1.410 . S
C1187 C1195 1.503 1_645 S
C1188 C1187 1.410 . S
C1188 C1189 1.392 . S
C1188 C1191 1.514 . S
C1189 C1185 1.376 . S
C1189 C1188 1.392 . S
C1189 H1201 0.929 . S
C1190 C1186 1.549 . S
C1190 H1202 0.905 1_655 S
C1190 H1203 1.006 . S
C1190 H1204 0.957 1_655 S
C1191 C1188 1.514 . S
C1191 H1205 0.967 . S
C1191 H1206 0.960 1_655 S
C1191 H1207 0.952 1_655 S
C1192 C1193 1.370 . S
C1192 C1194 1.363 1_455 S
C1192 H1208 0.897 1_455 S
C1193 C1192 1.370 . S
C1193 C1197 1.408 . S
C1194 C1192 1.363 1_655 S
C1194 C1195 1.370 1_655 S
C1194 C1198 1.524 . S
C1195 C1187 1.503 1_465 S
C1195 C1194 1.370 1_455 S
C1195 C1196 1.403 . S
C1196 C1195 1.403 . S
C1196 C1197 1.404 . S
C1196 C1199 1.539 1_565 S
C1197 C1193 1.408 . S
C1197 C1196 1.404 . S
C1197 H1209 0.930 . S
C1198 C1194 1.524 . S
C1198 H1210 0.956 . S
C1198 H1211 0.961 1_565 S
C1198 H1212 0.961 . S
C1199 C1196 1.539 1_545 S
C1199 H1213 0.958 1_545 S
C1199 H1214 0.961 . S
C1199 H1215 0.960 . S
H1200 C1184 0.931 1_565 S
H1201 C1189 0.929 . S
H1202 C1190 0.905 1_455 S
H1203 C1190 1.006 . S
H1204 C1190 0.957 1_455 S
H1205 C1191 0.967 . S
H1206 C1191 0.960 1_455 S
H1207 C1191 0.952 1_455 S
H1208 C1192 0.897 1_655 S
H1209 C1197 0.930 . S
H1210 C1198 0.956 . S
H1211 C1198 0.961 1_545 S
H1212 C1198 0.961 . S
H1213 C1199 0.958 1_565 S
H1214 C1199 0.961 . S
H1215 C1199 0.960 . S
C1216 C1217 1.391 . S
C1216 C1218 1.394 . S
C1216 H1232 0.931 . S
C1217 C1216 1.391 . S
C1217 C1221 1.376 . S
C1218 C1216 1.394 . S
C1218 C1219 1.369 . S
C1218 C1222 1.531 . S
C1219 C1218 1.369 . S
C1219 C1220 1.410 . S
C1219 C1227 1.503 . S
C1220 C1219 1.410 . S
C1220 C1221 1.392 . S
C1220 C1223 1.511 . S
C1221 C1217 1.376 . S
C1221 C1220 1.392 . S
C1221 H1233 0.929 . S
C1222 C1218 1.531 . S
C1222 H1234 0.960 . S
C1222 H1235 0.962 . S
C1222 H1236 0.960 . S
C1223 C1220 1.511 . S
C1223 H1237 0.961 . S
C1223 H1238 0.961 . S
C1223 H1239 0.961 . S
C1224 C1225 1.370 . S
C1224 C1226 1.363 . S
C1224 H1240 0.931 . S
C1225 C1224 1.370 . S
C1225 C1229 1.408 . S
C1226 C1224 1.363 . S
C1226 C1227 1.370 . S
C1226 C1230 1.524 . S
C1227 C1219 1.503 . S
C1227 C1226 1.370 . S
C1227 C1228 1.403 . S
C1228 C1227 1.403 . S
C1228 C1229 1.404 . S
C1228 C1231 1.539 . S
C1229 C1225 1.408 . S
C1229 C1228 1.404 . S
C1229 H1241 0.930 . S
C1230 C1226 1.524 . S
C1230 H1242 0.956 . S
C1230 H1243 0.961 . S
C1230 H1244 0.961 . S
C1231 C1228 1.539 . S
C1231 H1245 0.958 . S
C1231 H1246 0.961 . S
C1231 H1247 0.960 . S
H1232 C1216 0.931 . S
H1233 C1221 0.929 . S
H1234 C1222 0.960 . S
H1235 C1222 0.962 . S
H1236 C1222 0.960 . S
H1237 C1223 0.961 . S
H1238 C1223 0.961 . S
H1239 C1223 0.961 . S
H1240 C1224 0.931 . S
H1241 C1229 0.930 . S
H1242 C1230 0.956 . S
H1243 C1230 0.961 . S
H1244 C1230 0.961 . S
H1245 C1231 0.958 . S
H1246 C1231 0.961 . S
H1247 C1231 0.960 . S
C1248 C1249 1.391 . S
C1248 C1250 1.394 . S
C1248 H1264 0.931 . S
C1249 C1248 1.391 . S
C1249 C1253 1.376 . S
C1250 C1248 1.394 . S
C1250 C1251 1.369 . S
C1250 C1254 1.531 1_565 S
C1251 C1250 1.369 . S
C1251 C1252 1.410 . S
C1251 C1259 1.503 1_565 S
C1252 C1251 1.410 . S
C1252 C1253 1.392 . S
C1252 C1255 1.511 . S
C1253 C1249 1.376 . S
C1253 C1252 1.392 . S
C1253 H1265 0.929 . S
C1254 C1250 1.531 1_545 S
C1254 H1266 0.960 . S
C1254 H1267 0.962 . S
C1254 H1268 0.960 . S
C1255 C1252 1.511 . S
C1255 H1269 0.961 . S
C1255 H1270 0.961 . S
C1255 H1271 0.961 . S
C1256 C1257 1.370 . S
C1256 C1258 1.363 1_545 S
C1256 H1272 0.925 1_545 S
C1257 C1256 1.370 . S
C1257 C1261 1.408 . S
C1258 C1256 1.363 1_565 S
C1258 C1259 1.370 1_565 S
C1258 C1262 1.524 . S
C1259 C1251 1.503 1_545 S
C1259 C1258 1.370 1_545 S
C1259 C1260 1.403 . S
C1260 C1259 1.403 . S
C1260 C1261 1.404 . S
C1260 C1263 1.539 . S
C1261 C1257 1.408 . S
C1261 C1260 1.404 . S
C1261 H1273 0.930 . S
C1262 C1258 1.524 . S
C1262 H1274 0.956 . S
C1262 H1275 0.961 . S
C1262 H1276 0.961 . S
C1263 C1260 1.539 . S
C1263 H1277 0.958 . S
C1263 H1278 0.961 . S
C1263 H1279 0.960 . S
H1264 C1248 0.931 . S
H1265 C1253 0.929 . S
H1266 C1254 0.960 . S
H1267 C1254 0.962 . S
H1268 C1254 0.960 . S
H1269 C1255 0.961 . S
H1270 C1255 0.961 . S
H1271 C1255 0.961 . S
H1272 C1256 0.925 1_565 S
H1273 C1261 0.930 . S
H1274 C1262 0.956 . S
H1275 C1262 0.961 . S
H1276 C1262 0.961 . S
H1277 C1263 0.958 . S
H1278 C1263 0.961 . S
H1279 C1263 0.960 . S
C1280 C1281 1.391 . S
C1280 C1282 1.394 . S
C1280 H1296 0.931 . S
C1281 C1280 1.391 . S
C1281 C1285 1.376 . S
C1282 C1280 1.394 . S
C1282 C1283 1.369 . S
C1282 C1286 1.531 . S
C1283 C1282 1.369 . S
C1283 C1284 1.410 . S
C1283 C1291 1.503 . S
C1284 C1283 1.410 . S
C1284 C1285 1.392 . S
C1284 C1287 1.511 . S
C1285 C1281 1.376 . S
C1285 C1284 1.392 . S
C1285 H1297 0.929 . S
C1286 C1282 1.531 . S
C1286 H1298 0.960 . S
C1286 H1299 0.962 . S
C1286 H1300 0.960 . S
C1287 C1284 1.511 . S
C1287 H1301 0.961 . S
C1287 H1302 0.961 . S
C1287 H1303 0.961 . S
C1288 C1289 1.370 . S
C1288 C1290 1.363 . S
C1288 H1304 0.931 . S
C1289 C1288 1.370 . S
C1289 C1293 1.408 . S
C1290 C1288 1.363 . S
C1290 C1291 1.370 . S
C1290 C1294 1.524 . S
C1291 C1283 1.503 . S
C1291 C1290 1.370 . S
C1291 C1292 1.403 . S
C1292 C1291 1.403 . S
C1292 C1293 1.404 . S
C1292 C1295 1.539 . S
C1293 C1289 1.408 . S
C1293 C1292 1.404 . S
C1293 H1305 0.930 . S
C1294 C1290 1.524 . S
C1294 H1306 0.956 . S
C1294 H1307 0.961 . S
C1294 H1308 0.961 . S
C1295 C1292 1.539 . S
C1295 H1309 0.958 . S
C1295 H1310 0.961 . S
C1295 H1311 0.960 . S
H1296 C1280 0.931 . S
H1297 C1285 0.929 . S
H1298 C1286 0.960 . S
H1299 C1286 0.962 . S
H1300 C1286 0.960 . S
H1301 C1287 0.961 . S
H1302 C1287 0.961 . S
H1303 C1287 0.961 . S
H1304 C1288 0.931 . S
H1305 C1293 0.930 . S
H1306 C1294 0.956 . S
H1307 C1294 0.961 . S
H1308 C1294 0.961 . S
H1309 C1295 0.958 . S
H1310 C1295 0.961 . S
H1311 C1295 0.960 . S
C1312 C1313 1.391 . S
C1312 C1314 1.394 . S
C1312 H1328 0.931 . S
C1313 C1312 1.391 . S
C1313 C1317 1.376 . S
C1314 C1312 1.394 . S
C1314 C1315 1.369 . S
C1314 C1318 1.531 . S
C1315 C1314 1.369 . S
C1315 C1316 1.410 . S
C1315 C1323 1.503 1_565 S
C1316 C1315 1.410 . S
C1316 C1317 1.392 . S
C1316 C1319 1.511 1_565 S
C1317 C1313 1.376 . S
C1317 C1316 1.392 . S
C1317 H1329 0.929 . S
C1318 C1314 1.531 . S
C1318 H1330 0.960 . S
C1318 H1331 0.962 . S
C1318 H1332 0.960 . S
C1319 C1316 1.511 1_545 S
C1319 H1333 0.961 . S
C1319 H1334 0.961 . S
C1319 H1335 0.961 . S
C1320 C1321 1.370 . S
C1320 C1322 1.363 . S
C1320 H1336 0.931 . S
C1321 C1320 1.370 . S
C1321 C1325 1.408 . S
C1322 C1320 1.363 . S
C1322 C1323 1.370 . S
C1322 C1326 1.524 . S
C1323 C1315 1.503 1_545 S
C1323 C1322 1.370 . S
C1323 C1324 1.403 1_545 S
C1324 C1323 1.403 1_565 S
C1324 C1325 1.404 1_565 S
C1324 C1327 1.539 . S
C1325 C1321 1.408 . S
C1325 C1324 1.404 1_545 S
C1325 H1337 0.930 . S
C1326 C1322 1.524 . S
C1326 H1338 0.956 . S
C1326 H1339 0.961 . S
C1326 H1340 0.961 . S
C1327 C1324 1.539 . S
C1327 H1341 0.958 . S
C1327 H1342 0.961 . S
C1327 H1343 0.960 . S
H1328 C1312 0.931 . S
H1329 C1317 0.929 . S
H1330 C1318 0.960 . S
H1331 C1318 0.962 . S
H1332 C1318 0.960 . S
H1333 C1319 0.961 . S
H1334 C1319 0.961 . S
H1335 C1319 0.961 . S
H1336 C1320 0.931 . S
H1337 C1325 0.930 . S
H1338 C1326 0.956 . S
H1339 C1326 0.961 . S
H1340 C1326 0.961 . S
H1341 C1327 0.958 . S
H1342 C1327 0.961 . S
H1343 C1327 0.960 . S
C1344 C1345 1.391 . S
C1344 C1346 1.394 . S
C1344 H1360 0.931 . S
C1345 C1344 1.391 . S
C1345 C1349 1.376 . S
C1346 C1344 1.394 . S
C1346 C1347 1.369 . S
C1346 C1350 1.531 . S
C1347 C1346 1.369 . S
C1347 C1348 1.410 . S
C1347 C1355 1.503 . S
C1348 C1347 1.410 . S
C1348 C1349 1.392 . S
C1348 C1351 1.511 . S
C1349 C1345 1.376 . S
C1349 C1348 1.392 . S
C1349 H1361 0.929 . S
C1350 C1346 1.531 . S
C1350 H1362 0.960 . S
C1350 H1363 0.962 . S
C1350 H1364 0.960 . S
C1351 C1348 1.511 . S
C1351 H1365 0.961 . S
C1351 H1366 0.961 . S
C1351 H1367 0.961 . S
C1352 C1353 1.370 . S
C1352 C1354 1.363 . S
C1352 H1368 0.931 . S
C1353 C1352 1.370 . S
C1353 C1357 1.408 . S
C1354 C1352 1.363 . S
C1354 C1355 1.370 . S
C1354 C1358 1.524 . S
C1355 C1347 1.503 . S
C1355 C1354 1.370 . S
C1355 C1356 1.403 . S
C1356 C1355 1.403 . S
C1356 C1357 1.404 . S
C1356 C1359 1.539 . S
C1357 C1353 1.408 . S
C1357 C1356 1.404 . S
C1357 H1369 0.930 . S
C1358 C1354 1.524 . S
C1358 H1370 0.956 . S
C1358 H1371 0.961 . S
C1358 H1372 0.961 . S
C1359 C1356 1.539 . S
C1359 H1373 0.958 . S
C1359 H1374 0.961 . S
C1359 H1375 0.960 . S
H1360 C1344 0.931 . S
H1361 C1349 0.929 . S
H1362 C1350 0.960 . S
H1363 C1350 0.962 . S
H1364 C1350 0.960 . S
H1365 C1351 0.961 . S
H1366 C1351 0.961 . S
H1367 C1351 0.961 . S
H1368 C1352 0.931 . S
H1369 C1357 0.930 . S
H1370 C1358 0.956 . S
H1371 C1358 0.961 . S
H1372 C1358 0.961 . S
H1373 C1359 0.958 . S
H1374 C1359 0.961 . S
H1375 C1359 0.960 . S
C1376 C1377 1.391 . S
C1376 C1378 1.394 . S
C1376 H1392 0.931 . S
C1377 C1376 1.391 . S
C1377 C1381 1.376 . S
C1378 C1376 1.394 . S
C1378 C1379 1.369 . S
C1378 C1382 1.531 . S
C1379 C1378 1.369 . S
C1379 C1380 1.410 . S
C1379 C1387 1.503 . S
C1380 C1379 1.410 . S
C1380 C1381 1.392 . S
C1380 C1383 1.511 . S
C1381 C1377 1.376 . S
C1381 C1380 1.392 . S
C1381 H1393 0.929 . S
C1382 C1378 1.531 . S
C1382 H1394 0.960 . S
C1382 H1395 0.962 . S
C1382 H1396 0.960 . S
C1383 C1380 1.511 . S
C1383 H1397 0.961 . S
C1383 H1398 0.961 . S
C1383 H1399 0.961 . S
C1384 C1385 1.370 . S
C1384 C1386 1.363 . S
C1384 H1400 0.931 . S
C1385 C1384 1.370 . S
C1385 C1389 1.408 . S
C1386 C1384 1.363 . S
C1386 C1387 1.370 . S
C1386 C1390 1.524 . S
C1387 C1379 1.503 . S
C1387 C1386 1.370 . S
C1387 C1388 1.403 . S
C1388 C1387 1.403 . S
C1388 C1389 1.404 . S
C1388 C1391 1.539 . S
C1389 C1385 1.408 . S
C1389 C1388 1.404 . S
C1389 H1401 0.930 . S
C1390 C1386 1.524 . S
C1390 H1402 0.956 . S
C1390 H1403 0.961 . S
C1390 H1404 0.961 . S
C1391 C1388 1.539 . S
C1391 H1405 0.958 . S
C1391 H1406 0.961 . S
C1391 H1407 0.960 . S
H1392 C1376 0.931 . S
H1393 C1381 0.929 . S
H1394 C1382 0.960 . S
H1395 C1382 0.962 . S
H1396 C1382 0.960 . S
H1397 C1383 0.961 . S
H1398 C1383 0.961 . S
H1399 C1383 0.961 . S
H1400 C1384 0.931 . S
H1401 C1389 0.930 . S
H1402 C1390 0.956 . S
H1403 C1390 0.961 . S
H1404 C1390 0.961 . S
H1405 C1391 0.958 . S
H1406 C1391 0.961 . S
H1407 C1391 0.960 . S
C1408 C1409 1.391 . S
C1408 C1410 1.394 . S
C1408 H1424 0.931 . S
C1409 C1408 1.391 . S
C1409 C1413 1.376 . S
C1410 C1408 1.394 . S
C1410 C1411 1.369 . S
C1410 C1414 1.531 . S
C1411 C1410 1.369 . S
C1411 C1412 1.410 . S
C1411 C1419 1.503 . S
C1412 C1411 1.410 . S
C1412 C1413 1.392 . S
C1412 C1415 1.511 . S
C1413 C1409 1.376 . S
C1413 C1412 1.392 . S
C1413 H1425 0.929 . S
C1414 C1410 1.531 . S
C1414 H1426 0.960 . S
C1414 H1427 0.962 . S
C1414 H1428 0.960 . S
C1415 C1412 1.511 . S
C1415 H1429 0.961 . S
C1415 H1430 0.961 . S
C1415 H1431 0.961 . S
C1416 C1417 1.370 . S
C1416 C1418 1.363 . S
C1416 H1432 0.931 . S
C1417 C1416 1.370 . S
C1417 C1421 1.408 . S
C1418 C1416 1.363 . S
C1418 C1419 1.370 . S
C1418 C1422 1.524 . S
C1419 C1411 1.503 . S
C1419 C1418 1.370 . S
C1419 C1420 1.403 . S
C1420 C1419 1.403 . S
C1420 C1421 1.404 . S
C1420 C1423 1.539 . S
C1421 C1417 1.408 . S
C1421 C1420 1.404 . S
C1421 H1433 0.930 . S
C1422 C1418 1.524 . S
C1422 H1434 0.956 . S
C1422 H1435 0.961 . S
C1422 H1436 0.961 . S
C1423 C1420 1.539 . S
C1423 H1437 0.958 . S
C1423 H1438 0.961 . S
C1423 H1439 0.960 . S
H1424 C1408 0.931 . S
H1425 C1413 0.929 . S
H1426 C1414 0.960 . S
H1427 C1414 0.962 . S
H1428 C1414 0.960 . S
H1429 C1415 0.961 . S
H1430 C1415 0.961 . S
H1431 C1415 0.961 . S
H1432 C1416 0.931 . S
H1433 C1421 0.930 . S
H1434 C1422 0.956 . S
H1435 C1422 0.961 . S
H1436 C1422 0.961 . S
H1437 C1423 0.958 . S
H1438 C1423 0.961 . S
H1439 C1423 0.960 . S
C1440 C1441 1.391 . S
C1440 C1442 1.394 1_545 S
C1440 H1456 0.931 . S
C1441 C1440 1.391 . S
C1441 C1445 1.376 . S
C1442 C1440 1.394 1_565 S
C1442 C1443 1.369 1_565 S
C1442 C1446 1.531 . S
C1443 C1442 1.369 1_545 S
C1443 C1444 1.410 . S
C1443 C1451 1.503 1_546 S
C1444 C1443 1.410 . S
C1444 C1445 1.392 . S
C1444 C1447 1.511 . S
C1445 C1441 1.376 . S
C1445 C1444 1.392 . S
C1445 H1457 0.929 . S
C1446 C1442 1.531 . S
C1446 H1458 0.960 . S
C1446 H1459 0.951 1_556 S
C1446 H1460 0.960 . S
C1447 C1444 1.511 . S
C1447 H1461 0.961 . S
C1447 H1462 0.961 1_556 S
C1447 H1463 0.961 . S
C1448 C1449 1.370 . S
C1448 C1450 1.363 . S
C1448 H1464 0.931 . S
C1449 C1448 1.370 . S
C1449 C1453 1.408 . S
C1450 C1448 1.363 . S
C1450 C1451 1.370 . S
C1450 C1454 1.524 1_565 S
C1451 C1443 1.503 1_564 S
C1451 C1450 1.370 . S
C1451 C1452 1.403 . S
C1452 C1451 1.403 . S
C1452 C1453 1.404 . S
C1452 C1455 1.539 1_554 S
C1453 C1449 1.408 . S
C1453 C1452 1.404 . S
C1453 H1465 0.930 . S
C1454 C1450 1.524 1_545 S
C1454 H1466 0.956 . S
C1454 H1467 0.961 . S
C1454 H1468 0.961 . S
C1455 C1452 1.539 1_556 S
C1455 H1469 0.958 . S
C1455 H1470 0.961 . S
C1455 H1471 0.960 . S
H1456 C1440 0.931 . S
H1457 C1445 0.929 . S
H1458 C1446 0.960 . S
H1459 C1446 0.951 1_554 S
H1460 C1446 0.960 . S
H1461 C1447 0.961 . S
H1462 C1447 0.961 1_554 S
H1463 C1447 0.961 . S
H1464 C1448 0.931 . S
H1465 C1453 0.930 . S
H1466 C1454 0.956 . S
H1467 C1454 0.961 . S
H1468 C1454 0.961 . S
H1469 C1455 0.958 . S
H1470 C1455 0.961 . S
H1471 C1455 0.960 . S
C1472 C1473 1.391 . S
C1472 C1474 1.394 . S
C1472 H1488 0.931 . S
C1473 C1472 1.391 . S
C1473 C1477 1.376 . S
C1474 C1472 1.394 . S
C1474 C1475 1.369 . S
C1474 C1478 1.531 . S
C1475 C1474 1.369 . S
C1475 C1476 1.410 . S
C1475 C1483 1.503 . S
C1476 C1475 1.410 . S
C1476 C1477 1.392 . S
C1476 C1479 1.511 . S
C1477 C1473 1.376 . S
C1477 C1476 1.392 . S
C1477 H1489 0.929 . S
C1478 C1474 1.531 . S
C1478 H1490 0.960 . S
C1478 H1491 0.962 . S
C1478 H1492 0.960 . S
C1479 C1476 1.511 . S
C1479 H1493 0.961 . S
C1479 H1494 0.961 . S
C1479 H1495 0.961 . S
C1480 C1481 1.370 . S
C1480 C1482 1.363 . S
C1480 H1496 0.931 . S
C1481 C1480 1.370 . S
C1481 C1485 1.408 . S
C1482 C1480 1.363 . S
C1482 C1483 1.370 . S
C1482 C1486 1.524 . S
C1483 C1475 1.503 . S
C1483 C1482 1.370 . S
C1483 C1484 1.403 . S
C1484 C1483 1.403 . S
C1484 C1485 1.404 . S
C1484 C1487 1.539 . S
C1485 C1481 1.408 . S
C1485 C1484 1.404 . S
C1485 H1497 0.930 . S
C1486 C1482 1.524 . S
C1486 H1498 0.956 . S
C1486 H1499 0.961 . S
C1486 H1500 0.961 . S
C1487 C1484 1.539 . S
C1487 H1501 0.958 . S
C1487 H1502 0.961 . S
C1487 H1503 0.960 . S
H1488 C1472 0.931 . S
H1489 C1477 0.929 . S
H1490 C1478 0.960 . S
H1491 C1478 0.962 . S
H1492 C1478 0.960 . S
H1493 C1479 0.961 . S
H1494 C1479 0.961 . S
H1495 C1479 0.961 . S
H1496 C1480 0.931 . S
H1497 C1485 0.930 . S
H1498 C1486 0.956 . S
H1499 C1486 0.961 . S
H1500 C1486 0.961 . S
H1501 C1487 0.958 . S
H1502 C1487 0.961 . S
H1503 C1487 0.960 . S
C1504 C1505 1.391 . S
C1504 C1506 1.394 . S
C1504 H1520 0.931 . S
C1505 C1504 1.391 . S
C1505 C1509 1.376 . S
C1506 C1504 1.394 . S
C1506 C1507 1.369 . S
C1506 C1510 1.531 . S
C1507 C1506 1.369 . S
C1507 C1508 1.410 . S
C1507 C1515 1.503 . S
C1508 C1507 1.410 . S
C1508 C1509 1.392 . S
C1508 C1511 1.511 . S
C1509 C1505 1.376 . S
C1509 C1508 1.392 . S
C1509 H1521 0.929 . S
C1510 C1506 1.531 . S
C1510 H1522 0.960 . S
C1510 H1523 0.962 . S
C1510 H1524 0.960 . S
C1511 C1508 1.511 . S
C1511 H1525 0.961 . S
C1511 H1526 0.961 . S
C1511 H1527 0.961 . S
C1512 C1513 1.370 . S
C1512 C1514 1.363 . S
C1512 H1528 0.931 . S
C1513 C1512 1.370 . S
C1513 C1517 1.408 . S
C1514 C1512 1.363 . S
C1514 C1515 1.370 . S
C1514 C1518 1.524 . S
C1515 C1507 1.503 . S
C1515 C1514 1.370 . S
C1515 C1516 1.403 . S
C1516 C1515 1.403 . S
C1516 C1517 1.404 . S
C1516 C1519 1.539 . S
C1517 C1513 1.408 . S
C1517 C1516 1.404 . S
C1517 H1529 0.930 . S
C1518 C1514 1.524 . S
C1518 H1530 0.956 . S
C1518 H1531 0.961 . S
C1518 H1532 0.961 . S
C1519 C1516 1.539 . S
C1519 H1533 0.958 . S
C1519 H1534 0.961 . S
C1519 H1535 0.960 . S
H1520 C1504 0.931 . S
H1521 C1509 0.929 . S
H1522 C1510 0.960 . S
H1523 C1510 0.962 . S
H1524 C1510 0.960 . S
H1525 C1511 0.961 . S
H1526 C1511 0.961 . S
H1527 C1511 0.961 . S
H1528 C1512 0.931 . S
H1529 C1517 0.930 . S
H1530 C1518 0.956 . S
H1531 C1518 0.961 . S
H1532 C1518 0.961 . S
H1533 C1519 0.958 . S
H1534 C1519 0.961 . S
H1535 C1519 0.960 . S
C1536 C1537 1.391 . S
C1536 C1538 1.394 . S
C1536 H1552 0.931 . S
C1537 C1536 1.391 . S
C1537 C1541 1.376 . S
C1538 C1536 1.394 . S
C1538 C1539 1.369 . S
C1538 C1542 1.531 . S
C1539 C1538 1.369 . S
C1539 C1540 1.410 . S
C1539 C1547 1.503 . S
C1540 C1539 1.410 . S
C1540 C1541 1.392 . S
C1540 C1543 1.511 . S
C1541 C1537 1.376 . S
C1541 C1540 1.392 . S
C1541 H1553 0.929 . S
C1542 C1538 1.531 . S
C1542 H1554 0.960 . S
C1542 H1555 0.962 . S
C1542 H1556 0.960 . S
C1543 C1540 1.511 . S
C1543 H1557 0.961 . S
C1543 H1558 0.961 . S
C1543 H1559 0.961 . S
C1544 C1545 1.370 . S
C1544 C1546 1.363 . S
C1544 H1560 0.931 . S
C1545 C1544 1.370 . S
C1545 C1549 1.408 . S
C1546 C1544 1.363 . S
C1546 C1547 1.370 . S
C1546 C1550 1.524 . S
C1547 C1539 1.503 . S
C1547 C1546 1.370 . S
C1547 C1548 1.403 . S
C1548 C1547 1.403 . S
C1548 C1549 1.404 . S
C1548 C1551 1.539 . S
C1549 C1545 1.408 . S
C1549 C1548 1.404 . S
C1549 H1561 0.930 . S
C1550 C1546 1.524 . S
C1550 H1562 0.956 . S
C1550 H1563 0.961 . S
C1550 H1564 0.961 . S
C1551 C1548 1.539 . S
C1551 H1565 0.958 . S
C1551 H1566 0.961 . S
C1551 H1567 0.960 . S
H1552 C1536 0.931 . S
H1553 C1541 0.929 . S
H1554 C1542 0.960 . S
H1555 C1542 0.962 . S
H1556 C1542 0.960 . S
H1557 C1543 0.961 . S
H1558 C1543 0.961 . S
H1559 C1543 0.961 . S
H1560 C1544 0.931 . S
H1561 C1549 0.930 . S
H1562 C1550 0.956 . S
H1563 C1550 0.961 . S
H1564 C1550 0.961 . S
H1565 C1551 0.958 . S
H1566 C1551 0.961 . S
H1567 C1551 0.960 . S
C1568 C1569 1.391 . S
C1568 C1570 1.394 . S
C1568 H1584 0.931 . S
C1569 C1568 1.391 . S
C1569 C1573 1.376 . S
C1570 C1568 1.394 . S
C1570 C1571 1.369 . S
C1570 C1574 1.531 . S
C1571 C1570 1.369 . S
C1571 C1572 1.410 . S
C1571 C1579 1.503 . S
C1572 C1571 1.410 . S
C1572 C1573 1.392 . S
C1572 C1575 1.511 . S
C1573 C1569 1.376 . S
C1573 C1572 1.392 . S
C1573 H1585 0.929 . S
C1574 C1570 1.531 . S
C1574 H1586 0.960 . S
C1574 H1587 0.962 . S
C1574 H1588 0.960 . S
C1575 C1572 1.511 . S
C1575 H1589 0.961 . S
C1575 H1590 0.961 . S
C1575 H1591 0.961 . S
C1576 C1577 1.370 . S
C1576 C1578 1.363 . S
C1576 H1592 0.931 . S
C1577 C1576 1.370 . S
C1577 C1581 1.408 . S
C1578 C1576 1.363 . S
C1578 C1579 1.370 . S
C1578 C1582 1.524 . S
C1579 C1571 1.503 . S
C1579 C1578 1.370 . S
C1579 C1580 1.403 . S
C1580 C1579 1.403 . S
C1580 C1581 1.404 . S
C1580 C1583 1.539 . S
C1581 C1577 1.408 . S
C1581 C1580 1.404 . S
C1581 H1593 0.930 . S
C1582 C1578 1.524 . S
C1582 H1594 0.956 . S
C1582 H1595 0.961 . S
C1582 H1596 0.961 . S
C1583 C1580 1.539 . S
C1583 H1597 0.958 . S
C1583 H1598 0.961 . S
C1583 H1599 0.960 . S
H1584 C1568 0.931 . S
H1585 C1573 0.929 . S
H1586 C1574 0.960 . S
H1587 C1574 0.962 . S
H1588 C1574 0.960 . S
H1589 C1575 0.961 . S
H1590 C1575 0.961 . S
H1591 C1575 0.961 . S
H1592 C1576 0.931 . S
H1593 C1581 0.930 . S
H1594 C1582 0.956 . S
H1595 C1582 0.961 . S
H1596 C1582 0.961 . S
H1597 C1583 0.958 . S
H1598 C1583 0.961 . S
H1599 C1583 0.960 . S
C1600 C1601 1.391 . S
C1600 C1602 1.394 . S
C1600 H1616 0.931 . S
C1601 C1600 1.391 . S
C1601 C1605 1.376 . S
C1602 C1600 1.394 . S
C1602 C1603 1.369 . S
C1602 C1606 1.531 . S
C1603 C1602 1.369 . S
C1603 C1604 1.410 . S
C1603 C1611 1.503 . S
C1604 C1603 1.410 . S
C1604 C1605 1.392 . S
C1604 C1607 1.511 . S
C1605 C1601 1.376 . S
C1605 C1604 1.392 . S
C1605 H1617 0.929 . S
C1606 C1602 1.531 . S
C1606 H1618 0.960 . S
C1606 H1619 0.962 . S
C1606 H1620 0.960 . S
C1607 C1604 1.511 . S
C1607 H1621 0.961 . S
C1607 H1622 0.961 . S
C1607 H1623 0.961 . S
C1608 C1609 1.370 . S
C1608 C1610 1.363 . S
C1608 H1624 0.931 . S
C1609 C1608 1.370 . S
C1609 C1613 1.408 . S
C1610 C1608 1.363 . S
C1610 C1611 1.370 . S
C1610 C1614 1.524 . S
C1611 C1603 1.503 . S
C1611 C1610 1.370 . S
C1611 C1612 1.403 . S
C1612 C1611 1.403 . S
C1612 C1613 1.404 . S
C1612 C1615 1.538 1_565 S
C1613 C1609 1.408 . S
C1613 C1612 1.404 . S
C1613 H1625 0.930 . S
C1614 C1610 1.524 . S
C1614 H1626 0.956 . S
C1614 H1627 0.961 . S
C1614 H1628 0.961 . S
C1615 C1612 1.538 1_545 S
C1615 H1629 0.958 . S
C1615 H1630 0.962 . S
C1615 H1631 0.959 1_545 S
H1616 C1600 0.931 . S
H1617 C1605 0.929 . S
H1618 C1606 0.960 . S
H1619 C1606 0.962 . S
H1620 C1606 0.960 . S
H1621 C1607 0.961 . S
H1622 C1607 0.961 . S
H1623 C1607 0.961 . S
H1624 C1608 0.931 . S
H1625 C1613 0.930 . S
H1626 C1614 0.956 . S
H1627 C1614 0.961 . S
H1628 C1614 0.961 . S
H1629 C1615 0.958 . S
H1630 C1615 0.962 . S
H1631 C1615 0.959 1_565 S
C1632 C1633 1.391 . S
C1632 C1634 1.394 . S
C1632 H1648 0.931 . S
C1633 C1632 1.391 . S
C1633 C1637 1.376 . S
C1634 C1632 1.394 . S
C1634 C1635 1.369 . S
C1634 C1638 1.531 . S
C1635 C1634 1.369 . S
C1635 C1636 1.410 . S
C1635 C1643 1.503 . S
C1636 C1635 1.410 . S
C1636 C1637 1.392 . S
C1636 C1639 1.511 . S
C1637 C1633 1.376 . S
C1637 C1636 1.392 . S
C1637 H1649 0.929 . S
C1638 C1634 1.531 . S
C1638 H1650 0.960 . S
C1638 H1651 0.962 . S
C1638 H1652 0.960 . S
C1639 C1636 1.511 . S
C1639 H1653 0.961 . S
C1639 H1654 0.961 . S
C1639 H1655 0.961 . S
C1640 C1641 1.370 . S
C1640 C1642 1.363 . S
C1640 H1656 0.931 . S
C1641 C1640 1.370 . S
C1641 C1645 1.408 . S
C1642 C1640 1.363 . S
C1642 C1643 1.370 . S
C1642 C1646 1.524 . S
C1643 C1635 1.503 . S
C1643 C1642 1.370 . S
C1643 C1644 1.403 . S
C1644 C1643 1.403 . S
C1644 C1645 1.404 . S
C1644 C1647 1.539 . S
C1645 C1641 1.408 . S
C1645 C1644 1.404 . S
C1645 H1657 0.930 . S
C1646 C1642 1.524 . S
C1646 H1658 0.956 . S
C1646 H1659 0.961 . S
C1646 H1660 0.961 . S
C1647 C1644 1.539 . S
C1647 H1661 0.958 . S
C1647 H1662 0.961 . S
C1647 H1663 0.960 . S
H1648 C1632 0.931 . S
H1649 C1637 0.929 . S
H1650 C1638 0.960 . S
H1651 C1638 0.962 . S
H1652 C1638 0.960 . S
H1653 C1639 0.961 . S
H1654 C1639 0.961 . S
H1655 C1639 0.961 . S
H1656 C1640 0.931 . S
H1657 C1645 0.930 . S
H1658 C1646 0.956 . S
H1659 C1646 0.961 . S
H1660 C1646 0.961 . S
H1661 C1647 0.958 . S
H1662 C1647 0.961 . S
H1663 C1647 0.960 . S
C1664 C1665 1.391 . S
C1664 C1666 1.394 . S
C1664 H1680 0.931 . S
C1665 C1664 1.391 . S
C1665 C1669 1.376 . S
C1666 C1664 1.394 . S
C1666 C1667 1.369 . S
C1666 C1670 1.531 . S
C1667 C1666 1.369 . S
C1667 C1668 1.410 . S
C1667 C1675 1.503 . S
C1668 C1667 1.410 . S
C1668 C1669 1.392 . S
C1668 C1671 1.511 . S
C1669 C1665 1.376 . S
C1669 C1668 1.392 . S
C1669 H1681 0.929 . S
C1670 C1666 1.531 . S
C1670 H1682 0.960 . S
C1670 H1683 0.962 . S
C1670 H1684 0.960 . S
C1671 C1668 1.511 . S
C1671 H1685 0.961 . S
C1671 H1686 0.961 . S
C1671 H1687 0.961 . S
C1672 C1673 1.370 . S
C1672 C1674 1.363 . S
C1672 H1688 0.931 . S
C1673 C1672 1.370 . S
C1673 C1677 1.408 . S
C1674 C1672 1.363 . S
C1674 C1675 1.370 . S
C1674 C1678 1.524 . S
C1675 C1667 1.503 . S
C1675 C1674 1.370 . S
C1675 C1676 1.403 . S
C1676 C1675 1.403 . S
C1676 C1677 1.404 . S
C1676 C1679 1.539 . S
C1677 C1673 1.408 . S
C1677 C1676 1.404 . S
C1677 H1689 0.930 . S
C1678 C1674 1.524 . S
C1678 H1690 0.956 . S
C1678 H1691 0.961 . S
C1678 H1692 0.961 . S
C1679 C1676 1.539 . S
C1679 H1693 0.958 1_545 S
C1679 H1694 0.961 1_545 S
C1679 H1695 0.960 . S
H1680 C1664 0.931 . S
H1681 C1669 0.929 . S
H1682 C1670 0.960 . S
H1683 C1670 0.962 . S
H1684 C1670 0.960 . S
H1685 C1671 0.961 . S
H1686 C1671 0.961 . S
H1687 C1671 0.961 . S
H1688 C1672 0.931 . S
H1689 C1677 0.930 . S
H1690 C1678 0.956 . S
H1691 C1678 0.961 . S
H1692 C1678 0.961 . S
H1693 C1679 0.958 1_565 S
H1694 C1679 0.961 1_565 S
H1695 C1679 0.960 . S
C1696 C1697 1.391 . S
C1696 C1698 1.394 . S
C1696 H1712 0.931 . S
C1697 C1696 1.391 . S
C1697 C1701 1.376 . S
C1698 C1696 1.394 . S
C1698 C1699 1.369 . S
C1698 C1702 1.531 . S
C1699 C1698 1.369 . S
C1699 C1700 1.410 . S
C1699 C1707 1.503 . S
C1700 C1699 1.410 . S
C1700 C1701 1.392 . S
C1700 C1703 1.511 . S
C1701 C1697 1.376 . S
C1701 C1700 1.392 . S
C1701 H1713 0.929 . S
C1702 C1698 1.531 . S
C1702 H1714 0.960 . S
C1702 H1715 0.962 . S
C1702 H1716 0.960 . S
C1703 C1700 1.511 . S
C1703 H1717 0.961 . S
C1703 H1718 0.961 . S
C1703 H1719 0.961 . S
C1704 C1705 1.370 . S
C1704 C1706 1.363 . S
C1704 H1720 0.931 . S
C1705 C1704 1.370 . S
C1705 C1709 1.408 . S
C1706 C1704 1.363 . S
C1706 C1707 1.370 . S
C1706 C1710 1.524 . S
C1707 C1699 1.503 . S
C1707 C1706 1.370 . S
C1707 C1708 1.403 . S
C1708 C1707 1.403 . S
C1708 C1709 1.404 . S
C1708 C1711 1.539 . S
C1709 C1705 1.408 . S
C1709 C1708 1.404 . S
C1709 H1721 0.930 . S
C1710 C1706 1.524 . S
C1710 H1722 0.956 . S
C1710 H1723 0.961 . S
C1710 H1724 0.961 . S
C1711 C1708 1.539 . S
C1711 H1725 0.958 . S
C1711 H1726 0.961 . S
C1711 H1727 0.960 . S
H1712 C1696 0.931 . S
H1713 C1701 0.929 . S
H1714 C1702 0.960 . S
H1715 C1702 0.962 . S
H1716 C1702 0.960 . S
H1717 C1703 0.961 . S
H1718 C1703 0.961 . S
H1719 C1703 0.961 . S
H1720 C1704 0.931 . S
H1721 C1709 0.930 . S
H1722 C1710 0.956 . S
H1723 C1710 0.961 . S
H1724 C1710 0.961 . S
H1725 C1711 0.958 . S
H1726 C1711 0.961 . S
H1727 C1711 0.960 . S
C1728 C1729 1.391 . S
C1728 C1730 1.394 . S
C1728 H1744 0.931 . S
C1729 C1728 1.391 . S
C1729 C1733 1.376 . S
C1730 C1728 1.394 . S
C1730 C1731 1.369 . S
C1730 C1734 1.531 . S
C1731 C1730 1.369 . S
C1731 C1732 1.410 . S
C1731 C1739 1.503 . S
C1732 C1731 1.410 . S
C1732 C1733 1.392 . S
C1732 C1735 1.511 . S
C1733 C1729 1.376 . S
C1733 C1732 1.392 . S
C1733 H1745 0.929 . S
C1734 C1730 1.531 . S
C1734 H1746 0.960 . S
C1734 H1747 0.962 . S
C1734 H1748 0.960 . S
C1735 C1732 1.511 . S
C1735 H1749 0.961 . S
C1735 H1750 0.961 . S
C1735 H1751 0.961 . S
C1736 C1737 1.370 . S
C1736 C1738 1.363 . S
C1736 H1752 0.931 . S
C1737 C1736 1.370 . S
C1737 C1741 1.408 . S
C1738 C1736 1.363 . S
C1738 C1739 1.370 . S
C1738 C1742 1.524 . S
C1739 C1731 1.503 . S
C1739 C1738 1.370 . S
C1739 C1740 1.403 . S
C1740 C1739 1.403 . S
C1740 C1741 1.404 . S
C1740 C1743 1.539 . S
C1741 C1737 1.408 . S
C1741 C1740 1.404 . S
C1741 H1753 0.930 . S
C1742 C1738 1.524 . S
C1742 H1754 0.956 . S
C1742 H1755 0.961 . S
C1742 H1756 0.961 . S
C1743 C1740 1.539 . S
C1743 H1757 0.958 . S
C1743 H1758 0.961 . S
C1743 H1759 0.960 . S
H1744 C1728 0.931 . S
H1745 C1733 0.929 . S
H1746 C1734 0.960 . S
H1747 C1734 0.962 . S
H1748 C1734 0.960 . S
H1749 C1735 0.961 . S
H1750 C1735 0.961 . S
H1751 C1735 0.961 . S
H1752 C1736 0.931 . S
H1753 C1741 0.930 . S
H1754 C1742 0.956 . S
H1755 C1742 0.961 . S
H1756 C1742 0.961 . S
H1757 C1743 0.958 . S
H1758 C1743 0.961 . S
H1759 C1743 0.960 . S
C1760 C1761 1.391 . S
C1760 C1762 1.394 . S
C1760 H1776 0.931 . S
C1761 C1760 1.391 . S
C1761 C1765 1.376 . S
C1762 C1760 1.394 . S
C1762 C1763 1.369 . S
C1762 C1766 1.531 . S
C1763 C1762 1.369 . S
C1763 C1764 1.410 . S
C1763 C1771 1.503 . S
C1764 C1763 1.410 . S
C1764 C1765 1.392 . S
C1764 C1767 1.511 . S
C1765 C1761 1.376 . S
C1765 C1764 1.392 . S
C1765 H1777 0.929 . S
C1766 C1762 1.531 . S
C1766 H1778 0.960 . S
C1766 H1779 0.962 . S
C1766 H1780 0.960 . S
C1767 C1764 1.511 . S
C1767 H1781 0.961 . S
C1767 H1782 0.961 . S
C1767 H1783 0.961 . S
C1768 C1769 1.370 . S
C1768 C1770 1.363 . S
C1768 H1784 0.931 . S
C1769 C1768 1.370 . S
C1769 C1773 1.408 . S
C1770 C1768 1.363 . S
C1770 C1771 1.370 . S
C1770 C1774 1.524 . S
C1771 C1763 1.503 . S
C1771 C1770 1.370 . S
C1771 C1772 1.403 . S
C1772 C1771 1.403 . S
C1772 C1773 1.404 . S
C1772 C1775 1.539 . S
C1773 C1769 1.408 . S
C1773 C1772 1.404 . S
C1773 H1785 0.930 . S
C1774 C1770 1.524 . S
C1774 H1786 0.956 . S
C1774 H1787 0.961 . S
C1774 H1788 0.961 . S
C1775 C1772 1.539 . S
C1775 H1789 0.958 . S
C1775 H1790 0.961 . S
C1775 H1791 0.960 . S
H1776 C1760 0.931 . S
H1777 C1765 0.929 . S
H1778 C1766 0.960 . S
H1779 C1766 0.962 . S
H1780 C1766 0.960 . S
H1781 C1767 0.961 . S
H1782 C1767 0.961 . S
H1783 C1767 0.961 . S
H1784 C1768 0.931 . S
H1785 C1773 0.930 . S
H1786 C1774 0.956 . S
H1787 C1774 0.961 . S
H1788 C1774 0.961 . S
H1789 C1775 0.958 . S
H1790 C1775 0.961 . S
H1791 C1775 0.960 . S
C1792 C1793 1.391 . S
C1792 C1794 1.394 . S
C1792 H1808 0.931 . S
C1793 C1792 1.391 . S
C1793 C1797 1.376 . S
C1794 C1792 1.394 . S
C1794 C1795 1.369 . S
C1794 C1798 1.531 . S
C1795 C1794 1.369 . S
C1795 C1796 1.410 . S
C1795 C1803 1.503 . S
C1796 C1795 1.410 . S
C1796 C1797 1.392 . S
C1796 C1799 1.511 . S
C1797 C1793 1.376 . S
C1797 C1796 1.392 . S
C1797 H1809 0.929 . S
C1798 C1794 1.531 . S
C1798 H1810 0.960 . S
C1798 H1811 0.962 . S
C1798 H1812 0.960 . S
C1799 C1796 1.511 . S
C1799 H1813 0.961 . S
C1799 H1814 0.961 . S
C1799 H1815 0.961 . S
C1800 C1801 1.370 . S
C1800 C1802 1.363 . S
C1800 H1816 0.931 . S
C1801 C1800 1.370 . S
C1801 C1805 1.408 . S
C1802 C1800 1.363 . S
C1802 C1803 1.370 . S
C1802 C1806 1.524 . S
C1803 C1795 1.503 . S
C1803 C1802 1.370 . S
C1803 C1804 1.403 . S
C1804 C1803 1.403 . S
C1804 C1805 1.404 . S
C1804 C1807 1.539 . S
C1805 C1801 1.408 . S
C1805 C1804 1.404 . S
C1805 H1817 0.930 . S
C1806 C1802 1.524 . S
C1806 H1818 0.956 . S
C1806 H1819 0.961 . S
C1806 H1820 0.961 . S
C1807 C1804 1.539 . S
C1807 H1821 0.958 . S
C1807 H1822 0.961 . S
C1807 H1823 0.960 . S
H1808 C1792 0.931 . S
H1809 C1797 0.929 . S
H1810 C1798 0.960 . S
H1811 C1798 0.962 . S
H1812 C1798 0.960 . S
H1813 C1799 0.961 . S
H1814 C1799 0.961 . S
H1815 C1799 0.961 . S
H1816 C1800 0.931 . S
H1817 C1805 0.930 . S
H1818 C1806 0.956 . S
H1819 C1806 0.961 . S
H1820 C1806 0.961 . S
H1821 C1807 0.958 . S
H1822 C1807 0.961 . S
H1823 C1807 0.960 . S
C1824 C1825 1.391 . S
C1824 C1826 1.394 . S
C1824 H1840 0.931 . S
C1825 C1824 1.391 . S
C1825 C1829 1.376 . S
C1826 C1824 1.394 . S
C1826 C1827 1.369 . S
C1826 C1830 1.531 . S
C1827 C1826 1.369 . S
C1827 C1828 1.410 . S
C1827 C1835 1.503 . S
C1828 C1827 1.410 . S
C1828 C1829 1.392 . S
C1828 C1831 1.511 . S
C1829 C1825 1.376 . S
C1829 C1828 1.392 . S
C1829 H1841 0.929 . S
C1830 C1826 1.531 . S
C1830 H1842 0.960 . S
C1830 H1843 0.962 . S
C1830 H1844 0.960 . S
C1831 C1828 1.511 . S
C1831 H1845 0.961 . S
C1831 H1846 0.961 . S
C1831 H1847 0.961 . S
C1832 C1833 1.370 . S
C1832 C1834 1.363 . S
C1832 H1848 0.931 . S
C1833 C1832 1.370 . S
C1833 C1837 1.408 . S
C1834 C1832 1.363 . S
C1834 C1835 1.370 . S
C1834 C1838 1.524 . S
C1835 C1827 1.503 . S
C1835 C1834 1.370 . S
C1835 C1836 1.403 . S
C1836 C1835 1.403 . S
C1836 C1837 1.404 . S
C1836 C1839 1.539 . S
C1837 C1833 1.408 . S
C1837 C1836 1.404 . S
C1837 H1849 0.930 . S
C1838 C1834 1.524 . S
C1838 H1850 0.956 . S
C1838 H1851 0.961 . S
C1838 H1852 0.961 . S
C1839 C1836 1.539 . S
C1839 H1853 0.958 . S
C1839 H1854 0.961 . S
C1839 H1855 0.960 . S
H1840 C1824 0.931 . S
H1841 C1829 0.929 . S
H1842 C1830 0.960 . S
H1843 C1830 0.962 . S
H1844 C1830 0.960 . S
H1845 C1831 0.961 . S
H1846 C1831 0.961 . S
H1847 C1831 0.961 . S
H1848 C1832 0.931 . S
H1849 C1837 0.930 . S
H1850 C1838 0.956 . S
H1851 C1838 0.961 . S
H1852 C1838 0.961 . S
H1853 C1839 0.958 . S
H1854 C1839 0.961 . S
H1855 C1839 0.960 . S
C1856 C1857 1.391 . S
C1856 C1858 1.394 . S
C1856 H1872 0.931 . S
C1857 C1856 1.391 . S
C1857 C1861 1.376 . S
C1858 C1856 1.394 . S
C1858 C1859 1.369 . S
C1858 C1862 1.531 . S
C1859 C1858 1.369 . S
C1859 C1860 1.410 . S
C1859 C1867 1.503 . S
C1860 C1859 1.410 . S
C1860 C1861 1.392 . S
C1860 C1863 1.511 . S
C1861 C1857 1.376 . S
C1861 C1860 1.392 . S
C1861 H1873 0.929 . S
C1862 C1858 1.531 . S
C1862 H1874 0.960 . S
C1862 H1875 0.962 . S
C1862 H1876 0.960 . S
C1863 C1860 1.511 . S
C1863 H1877 0.961 . S
C1863 H1878 0.961 . S
C1863 H1879 0.961 . S
C1864 C1865 1.370 . S
C1864 C1866 1.363 . S
C1864 H1880 0.931 . S
C1865 C1864 1.370 . S
C1865 C1869 1.408 . S
C1866 C1864 1.363 . S
C1866 C1867 1.370 . S
C1866 C1870 1.524 . S
C1867 C1859 1.503 . S
C1867 C1866 1.370 . S
C1867 C1868 1.403 . S
C1868 C1867 1.403 . S
C1868 C1869 1.404 . S
C1868 C1871 1.539 . S
C1869 C1865 1.408 . S
C1869 C1868 1.404 . S
C1869 H1881 0.930 . S
C1870 C1866 1.524 . S
C1870 H1882 0.956 . S
C1870 H1883 0.961 . S
C1870 H1884 0.961 . S
C1871 C1868 1.539 . S
C1871 H1885 0.958 . S
C1871 H1886 0.961 . S
C1871 H1887 0.960 . S
H1872 C1856 0.931 . S
H1873 C1861 0.929 . S
H1874 C1862 0.960 . S
H1875 C1862 0.962 . S
H1876 C1862 0.960 . S
H1877 C1863 0.961 . S
H1878 C1863 0.961 . S
H1879 C1863 0.961 . S
H1880 C1864 0.931 . S
H1881 C1869 0.930 . S
H1882 C1870 0.956 . S
H1883 C1870 0.961 . S
H1884 C1870 0.961 . S
H1885 C1871 0.958 . S
H1886 C1871 0.961 . S
H1887 C1871 0.960 . S
C1888 C1889 1.391 . S
C1888 C1890 1.394 . S
C1888 H1904 0.931 . S
C1889 C1888 1.391 . S
C1889 C1893 1.376 . S
C1890 C1888 1.394 . S
C1890 C1891 1.369 . S
C1890 C1894 1.531 . S
C1891 C1890 1.369 . S
C1891 C1892 1.410 . S
C1891 C1899 1.503 . S
C1892 C1891 1.410 . S
C1892 C1893 1.392 . S
C1892 C1895 1.511 . S
C1893 C1889 1.376 . S
C1893 C1892 1.392 . S
C1893 H1905 0.929 . S
C1894 C1890 1.531 . S
C1894 H1906 0.960 . S
C1894 H1907 0.962 . S
C1894 H1908 0.960 . S
C1895 C1892 1.511 . S
C1895 H1909 0.961 . S
C1895 H1910 0.961 . S
C1895 H1911 0.961 . S
C1896 C1897 1.370 . S
C1896 C1898 1.363 . S
C1896 H1912 0.931 . S
C1897 C1896 1.370 . S
C1897 C1901 1.408 . S
C1898 C1896 1.363 . S
C1898 C1899 1.370 . S
C1898 C1902 1.524 . S
C1899 C1891 1.503 . S
C1899 C1898 1.370 . S
C1899 C1900 1.403 . S
C1900 C1899 1.403 . S
C1900 C1901 1.404 . S
C1900 C1903 1.539 . S
C1901 C1897 1.408 . S
C1901 C1900 1.404 . S
C1901 H1913 0.930 . S
C1902 C1898 1.524 . S
C1902 H1914 0.956 . S
C1902 H1915 0.961 . S
C1902 H1916 0.961 . S
C1903 C1900 1.539 . S
C1903 H1917 0.958 . S
C1903 H1918 0.961 . S
C1903 H1919 0.960 . S
H1904 C1888 0.931 . S
H1905 C1893 0.929 . S
H1906 C1894 0.960 . S
H1907 C1894 0.962 . S
H1908 C1894 0.960 . S
H1909 C1895 0.961 . S
H1910 C1895 0.961 . S
H1911 C1895 0.961 . S
H1912 C1896 0.931 . S
H1913 C1901 0.930 . S
H1914 C1902 0.956 . S
H1915 C1902 0.961 . S
H1916 C1902 0.961 . S
H1917 C1903 0.958 . S
H1918 C1903 0.961 . S
H1919 C1903 0.960 . S
C1920 C1921 1.391 . S
C1920 C1922 1.394 . S
C1920 H1936 0.931 . S
C1921 C1920 1.391 . S
C1921 C1925 1.376 . S
C1922 C1920 1.394 . S
C1922 C1923 1.369 . S
C1922 C1926 1.531 . S
C1923 C1922 1.369 . S
C1923 C1924 1.410 . S
C1923 C1931 1.503 . S
C1924 C1923 1.410 . S
C1924 C1925 1.392 . S
C1924 C1927 1.511 . S
C1925 C1921 1.376 . S
C1925 C1924 1.392 . S
C1925 H1937 0.929 . S
C1926 C1922 1.531 . S
C1926 H1938 0.960 . S
C1926 H1939 0.962 . S
C1926 H1940 0.960 . S
C1927 C1924 1.511 . S
C1927 H1941 0.961 . S
C1927 H1942 0.961 . S
C1927 H1943 0.961 . S
C1928 C1929 1.370 . S
C1928 C1930 1.363 . S
C1928 H1944 0.931 . S
C1929 C1928 1.370 . S
C1929 C1933 1.408 . S
C1930 C1928 1.363 . S
C1930 C1931 1.370 . S
C1930 C1934 1.524 . S
C1931 C1923 1.503 . S
C1931 C1930 1.370 . S
C1931 C1932 1.403 . S
C1932 C1931 1.403 . S
C1932 C1933 1.404 . S
C1932 C1935 1.539 . S
C1933 C1929 1.408 . S
C1933 C1932 1.404 . S
C1933 H1945 0.930 . S
C1934 C1930 1.524 . S
C1934 H1946 0.956 . S
C1934 H1947 0.961 . S
C1934 H1948 0.961 . S
C1935 C1932 1.539 . S
C1935 H1949 0.958 . S
C1935 H1950 0.961 . S
C1935 H1951 0.960 . S
H1936 C1920 0.931 . S
H1937 C1925 0.929 . S
H1938 C1926 0.960 . S
H1939 C1926 0.962 . S
H1940 C1926 0.960 . S
H1941 C1927 0.961 . S
H1942 C1927 0.961 . S
H1943 C1927 0.961 . S
H1944 C1928 0.931 . S
H1945 C1933 0.930 . S
H1946 C1934 0.956 . S
H1947 C1934 0.961 . S
H1948 C1934 0.961 . S
H1949 C1935 0.958 . S
H1950 C1935 0.961 . S
H1951 C1935 0.960 . S
C1952 C1953 1.391 . S
C1952 C1954 1.394 . S
C1952 H1968 0.931 . S
C1953 C1952 1.391 . S
C1953 C1957 1.376 . S
C1954 C1952 1.394 . S
C1954 C1955 1.369 . S
C1954 C1958 1.531 . S
C1955 C1954 1.369 . S
C1955 C1956 1.410 . S
C1955 C1963 1.503 . S
C1956 C1955 1.410 . S
C1956 C1957 1.392 . S
C1956 C1959 1.511 . S
C1957 C1953 1.376 . S
C1957 C1956 1.392 . S
C1957 H1969 0.929 . S
C1958 C1954 1.531 . S
C1958 H1970 0.960 . S
C1958 H1971 0.962 . S
C1958 H1972 0.960 . S
C1959 C1956 1.511 . S
C1959 H1973 0.961 . S
C1959 H1974 0.961 . S
C1959 H1975 0.961 . S
C1960 C1961 1.370 . S
C1960 C1962 1.363 . S
C1960 H1976 0.931 . S
C1961 C1960 1.370 . S
C1961 C1965 1.408 . S
C1962 C1960 1.363 . S
C1962 C1963 1.370 . S
C1962 C1966 1.524 . S
C1963 C1955 1.503 . S
C1963 C1962 1.370 . S
C1963 C1964 1.403 . S
C1964 C1963 1.403 . S
C1964 C1965 1.404 . S
C1964 C1967 1.539 . S
C1965 C1961 1.408 . S
C1965 C1964 1.404 . S
C1965 H1977 0.930 . S
C1966 C1962 1.524 . S
C1966 H1978 0.956 . S
C1966 H1979 0.961 . S
C1966 H1980 0.961 . S
C1967 C1964 1.539 . S
C1967 H1981 0.958 . S
C1967 H1982 0.961 . S
C1967 H1983 0.960 . S
H1968 C1952 0.931 . S
H1969 C1957 0.929 . S
H1970 C1958 0.960 . S
H1971 C1958 0.962 . S
H1972 C1958 0.960 . S
H1973 C1959 0.961 . S
H1974 C1959 0.961 . S
H1975 C1959 0.961 . S
H1976 C1960 0.931 . S
H1977 C1965 0.930 . S
H1978 C1966 0.956 . S
H1979 C1966 0.961 . S
H1980 C1966 0.961 . S
H1981 C1967 0.958 . S
H1982 C1967 0.961 . S
H1983 C1967 0.960 . S
C1984 C1985 1.391 1_545 S
C1984 C1986 1.394 . S
C1984 H2000 0.931 . S
C1985 C1984 1.391 1_565 S
C1985 C1989 1.376 1_565 S
C1986 C1984 1.394 . S
C1986 C1987 1.369 . S
C1986 C1990 1.531 . S
C1987 C1986 1.369 . S
C1987 C1988 1.410 . S
C1987 C1995 1.503 . S
C1988 C1987 1.410 . S
C1988 C1989 1.392 . S
C1988 C1991 1.511 . S
C1989 C1985 1.376 1_545 S
C1989 C1988 1.392 . S
C1989 H2001 0.929 1_545 S
C1990 C1986 1.531 . S
C1990 H2002 0.960 . S
C1990 H2003 0.962 . S
C1990 H2004 0.960 . S
C1991 C1988 1.511 . S
C1991 H2005 0.961 . S
C1991 H2006 0.961 . S
C1991 H2007 0.961 . S
C1992 C1993 1.370 . S
C1992 C1994 1.363 . S
C1992 H2008 0.931 . S
C1993 C1992 1.370 . S
C1993 C1997 1.408 . S
C1994 C1992 1.363 . S
C1994 C1995 1.370 . S
C1994 C1998 1.524 . S
C1995 C1987 1.503 . S
C1995 C1994 1.370 . S
C1995 C1996 1.403 . S
C1996 C1995 1.403 . S
C1996 C1997 1.404 . S
C1996 C1999 1.539 . S
C1997 C1993 1.408 . S
C1997 C1996 1.404 . S
C1997 H2009 0.930 . S
C1998 C1994 1.524 . S
C1998 H2010 0.956 . S
C1998 H2011 0.961 . S
C1998 H2012 0.961 . S
C1999 C1996 1.539 . S
C1999 H2013 0.958 . S
C1999 H2014 0.961 . S
C1999 H2015 0.960 . S
H2000 C1984 0.931 . S
H2001 C1989 0.929 1_565 S
H2002 C1990 0.960 . S
H2003 C1990 0.962 . S
H2004 C1990 0.960 . S
H2005 C1991 0.961 . S
H2006 C1991 0.961 . S
H2007 C1991 0.961 . S
H2008 C1992 0.931 . S
H2009 C1997 0.930 . S
H2010 C1998 0.956 . S
H2011 C1998 0.961 . S
H2012 C1998 0.961 . S
H2013 C1999 0.958 . S
H2014 C1999 0.961 . S
H2015 C1999 0.960 . S
C2016 C2017 1.391 1_545 S
C2016 C2018 1.394 . S
C2016 H2032 0.931 . S
C2017 C2016 1.391 1_565 S
C2017 C2021 1.376 1_565 S
C2018 C2016 1.394 . S
C2018 C2019 1.369 . S
C2018 C2022 1.531 . S
C2019 C2018 1.369 . S
C2019 C2020 1.410 . S
C2019 C2027 1.503 . S
C2020 C2019 1.410 . S
C2020 C2021 1.392 . S
C2020 C2023 1.511 . S
C2021 C2017 1.376 1_545 S
C2021 C2020 1.392 . S
C2021 H2033 0.929 1_545 S
C2022 C2018 1.531 . S
C2022 H2034 0.960 . S
C2022 H2035 0.962 . S
C2022 H2036 0.960 . S
C2023 C2020 1.511 . S
C2023 H2037 0.961 . S
C2023 H2038 0.961 . S
C2023 H2039 0.961 . S
C2024 C2025 1.370 . S
C2024 C2026 1.363 . S
C2024 H2040 0.931 . S
C2025 C2024 1.370 . S
C2025 C2029 1.408 . S
C2026 C2024 1.363 . S
C2026 C2027 1.370 . S
C2026 C2030 1.524 . S
C2027 C2019 1.503 . S
C2027 C2026 1.370 . S
C2027 C2028 1.403 . S
C2028 C2027 1.403 . S
C2028 C2029 1.404 . S
C2028 C2031 1.539 . S
C2029 C2025 1.408 . S
C2029 C2028 1.404 . S
C2029 H2041 0.930 . S
C2030 C2026 1.524 . S
C2030 H2042 0.956 . S
C2030 H2043 0.961 . S
C2030 H2044 0.961 . S
C2031 C2028 1.539 . S
C2031 H2045 0.958 . S
C2031 H2046 0.961 . S
C2031 H2047 0.960 . S
H2032 C2016 0.931 . S
H2033 C2021 0.929 1_565 S
H2034 C2022 0.960 . S
H2035 C2022 0.962 . S
H2036 C2022 0.960 . S
H2037 C2023 0.961 . S
H2038 C2023 0.961 . S
H2039 C2023 0.961 . S
H2040 C2024 0.931 . S
H2041 C2029 0.930 . S
H2042 C2030 0.956 . S
H2043 C2030 0.961 . S
H2044 C2030 0.961 . S
H2045 C2031 0.958 . S
H2046 C2031 0.961 . S
H2047 C2031 0.960 . S
C2048 C2049 1.391 . S
C2048 C2050 1.394 . S
C2048 H2064 0.931 . S
C2049 C2048 1.391 . S
C2049 C2053 1.376 . S
C2050 C2048 1.394 . S
C2050 C2051 1.369 . S
C2050 C2054 1.531 . S
C2051 C2050 1.369 . S
C2051 C2052 1.410 . S
C2051 C2059 1.503 . S
C2052 C2051 1.410 . S
C2052 C2053 1.392 . S
C2052 C2055 1.511 . S
C2053 C2049 1.376 . S
C2053 C2052 1.392 . S
C2053 H2065 0.929 . S
C2054 C2050 1.531 . S
C2054 H2066 0.960 . S
C2054 H2067 0.962 . S
C2054 H2068 0.960 . S
C2055 C2052 1.511 . S
C2055 H2069 0.961 . S
C2055 H2070 0.961 . S
C2055 H2071 0.961 . S
C2056 C2057 1.370 1_565 S
C2056 C2058 1.363 . S
C2056 H2072 0.931 . S
C2057 C2056 1.370 1_545 S
C2057 C2061 1.408 1_545 S
C2058 C2056 1.363 . S
C2058 C2059 1.370 . S
C2058 C2062 1.524 . S
C2059 C2051 1.503 . S
C2059 C2058 1.370 . S
C2059 C2060 1.403 . S
C2060 C2059 1.403 . S
C2060 C2061 1.404 . S
C2060 C2063 1.539 . S
C2061 C2057 1.408 1_565 S
C2061 C2060 1.404 . S
C2061 H2073 0.930 1_565 S
C2062 C2058 1.524 . S
C2062 H2074 0.956 . S
C2062 H2075 0.961 . S
C2062 H2076 0.961 . S
C2063 C2060 1.539 . S
C2063 H2077 0.958 . S
C2063 H2078 0.961 . S
C2063 H2079 0.960 . S
H2064 C2048 0.931 . S
H2065 C2053 0.929 . S
H2066 C2054 0.960 . S
H2067 C2054 0.962 . S
H2068 C2054 0.960 . S
H2069 C2055 0.961 . S
H2070 C2055 0.961 . S
H2071 C2055 0.961 . S
H2072 C2056 0.931 . S
H2073 C2061 0.930 1_545 S
H2074 C2062 0.956 . S
H2075 C2062 0.961 . S
H2076 C2062 0.961 . S
H2077 C2063 0.958 . S
H2078 C2063 0.961 . S
H2079 C2063 0.960 . S
C2080 C2081 1.391 1_565 S
C2080 C2082 1.394 . S
C2080 H2096 0.931 . S
C2081 C2080 1.391 1_545 S
C2081 C2085 1.376 1_545 S
C2082 C2080 1.394 . S
C2082 C2083 1.369 . S
C2082 C2086 1.531 . S
C2083 C2082 1.369 . S
C2083 C2084 1.410 . S
C2083 C2091 1.503 . S
C2084 C2083 1.410 . S
C2084 C2085 1.392 . S
C2084 C2087 1.511 . S
C2085 C2081 1.376 1_565 S
C2085 C2084 1.392 . S
C2085 H2097 0.917 1_565 S
C2086 C2082 1.531 . S
C2086 H2098 0.960 . S
C2086 H2099 0.962 . S
C2086 H2100 0.960 . S
C2087 C2084 1.511 . S
C2087 H2101 0.961 . S
C2087 H2102 0.961 . S
C2087 H2103 0.961 . S
C2088 C2089 1.370 . S
C2088 C2090 1.363 . S
C2088 H2104 0.931 . S
C2089 C2088 1.370 . S
C2089 C2093 1.408 . S
C2090 C2088 1.363 . S
C2090 C2091 1.370 . S
C2090 C2094 1.524 . S
C2091 C2083 1.503 . S
C2091 C2090 1.370 . S
C2091 C2092 1.403 . S
C2092 C2091 1.403 . S
C2092 C2093 1.404 . S
C2092 C2095 1.539 . S
C2093 C2089 1.408 . S
C2093 C2092 1.404 . S
C2093 H2105 0.930 . S
C2094 C2090 1.524 . S
C2094 H2106 0.956 . S
C2094 H2107 0.961 . S
C2094 H2108 0.961 . S
C2095 C2092 1.539 . S
C2095 H2109 0.958 . S
C2095 H2110 0.961 . S
C2095 H2111 0.960 . S
H2096 C2080 0.931 . S
H2097 C2085 0.917 1_545 S
H2098 C2086 0.960 . S
H2099 C2086 0.962 . S
H2100 C2086 0.960 . S
H2101 C2087 0.961 . S
H2102 C2087 0.961 . S
H2103 C2087 0.961 . S
H2104 C2088 0.931 . S
H2105 C2093 0.930 . S
H2106 C2094 0.956 . S
H2107 C2094 0.961 . S
H2108 C2094 0.961 . S
H2109 C2095 0.958 . S
H2110 C2095 0.961 . S
H2111 C2095 0.960 . S
C2112 C2113 1.391 . S
C2112 C2114 1.394 . S
C2112 H2128 0.931 . S
C2113 C2112 1.391 . S
C2113 C2117 1.376 . S
C2114 C2112 1.394 . S
C2114 C2115 1.369 . S
C2114 C2118 1.531 . S
C2115 C2114 1.369 . S
C2115 C2116 1.410 . S
C2115 C2123 1.503 . S
C2116 C2115 1.410 . S
C2116 C2117 1.392 . S
C2116 C2119 1.511 . S
C2117 C2113 1.376 . S
C2117 C2116 1.392 . S
C2117 H2129 0.929 . S
C2118 C2114 1.531 . S
C2118 H2130 0.960 . S
C2118 H2131 0.962 . S
C2118 H2132 0.960 . S
C2119 C2116 1.511 . S
C2119 H2133 0.961 . S
C2119 H2134 0.961 . S
C2119 H2135 0.961 . S
C2120 C2121 1.370 . S
C2120 C2122 1.363 . S
C2120 H2136 0.931 . S
C2121 C2120 1.370 . S
C2121 C2125 1.408 . S
C2122 C2120 1.363 . S
C2122 C2123 1.370 . S
C2122 C2126 1.524 . S
C2123 C2115 1.503 . S
C2123 C2122 1.370 . S
C2123 C2124 1.403 . S
C2124 C2123 1.403 . S
C2124 C2125 1.404 . S
C2124 C2127 1.539 . S
C2125 C2121 1.408 . S
C2125 C2124 1.404 . S
C2125 H2137 0.930 . S
C2126 C2122 1.524 . S
C2126 H2138 0.956 . S
C2126 H2139 0.961 . S
C2126 H2140 0.961 . S
C2127 C2124 1.539 . S
C2127 H2141 0.958 . S
C2127 H2142 0.961 . S
C2127 H2143 0.960 . S
H2128 C2112 0.931 . S
H2129 C2117 0.929 . S
H2130 C2118 0.960 . S
H2131 C2118 0.962 . S
H2132 C2118 0.960 . S
H2133 C2119 0.961 . S
H2134 C2119 0.961 . S
H2135 C2119 0.961 . S
H2136 C2120 0.931 . S
H2137 C2125 0.930 . S
H2138 C2126 0.956 . S
H2139 C2126 0.961 . S
H2140 C2126 0.961 . S
H2141 C2127 0.958 . S
H2142 C2127 0.961 . S
H2143 C2127 0.960 . S
C2144 C2145 1.391 . S
C2144 C2146 1.394 . S
C2144 H2160 0.931 . S
C2145 C2144 1.391 . S
C2145 C2149 1.376 . S
C2146 C2144 1.394 . S
C2146 C2147 1.369 . S
C2146 C2150 1.531 . S
C2147 C2146 1.369 . S
C2147 C2148 1.410 . S
C2147 C2155 1.503 . S
C2148 C2147 1.410 . S
C2148 C2149 1.392 . S
C2148 C2151 1.511 . S
C2149 C2145 1.376 . S
C2149 C2148 1.392 . S
C2149 H2161 0.929 . S
C2150 C2146 1.531 . S
C2150 H2162 0.960 . S
C2150 H2163 0.962 . S
C2150 H2164 0.960 . S
C2151 C2148 1.511 . S
C2151 H2165 0.961 . S
C2151 H2166 0.961 . S
C2151 H2167 0.961 . S
C2152 C2153 1.370 . S
C2152 C2154 1.363 . S
C2152 H2168 0.931 . S
C2153 C2152 1.370 . S
C2153 C2157 1.408 . S
C2154 C2152 1.363 . S
C2154 C2155 1.370 . S
C2154 C2158 1.524 . S
C2155 C2147 1.503 . S
C2155 C2154 1.370 . S
C2155 C2156 1.403 . S
C2156 C2155 1.403 . S
C2156 C2157 1.404 . S
C2156 C2159 1.539 . S
C2157 C2153 1.408 . S
C2157 C2156 1.404 . S
C2157 H2169 0.930 . S
C2158 C2154 1.524 . S
C2158 H2170 0.956 . S
C2158 H2171 0.961 . S
C2158 H2172 0.961 . S
C2159 C2156 1.539 . S
C2159 H2173 0.958 . S
C2159 H2174 0.961 . S
C2159 H2175 0.960 . S
H2160 C2144 0.931 . S
H2161 C2149 0.929 . S
H2162 C2150 0.960 . S
H2163 C2150 0.962 . S
H2164 C2150 0.960 . S
H2165 C2151 0.961 . S
H2166 C2151 0.961 . S
H2167 C2151 0.961 . S
H2168 C2152 0.931 . S
H2169 C2157 0.930 . S
H2170 C2158 0.956 . S
H2171 C2158 0.961 . S
H2172 C2158 0.961 . S
H2173 C2159 0.958 . S
H2174 C2159 0.961 . S
H2175 C2159 0.960 . S
C2176 C2177 1.391 . S
C2176 C2178 1.394 . S
C2176 H2192 0.931 . S
C2177 C2176 1.391 . S
C2177 C2181 1.376 . S
C2178 C2176 1.394 . S
C2178 C2179 1.369 . S
C2178 C2182 1.531 . S
C2179 C2178 1.369 . S
C2179 C2180 1.410 . S
C2179 C2187 1.503 . S
C2180 C2179 1.410 . S
C2180 C2181 1.392 . S
C2180 C2183 1.511 . S
C2181 C2177 1.376 . S
C2181 C2180 1.392 . S
C2181 H2193 0.929 . S
C2182 C2178 1.531 . S
C2182 H2194 0.960 . S
C2182 H2195 0.962 . S
C2182 H2196 0.960 . S
C2183 C2180 1.511 . S
C2183 H2197 0.961 . S
C2183 H2198 0.961 . S
C2183 H2199 0.961 . S
C2184 C2185 1.370 . S
C2184 C2186 1.363 . S
C2184 H2200 0.931 . S
C2185 C2184 1.370 . S
C2185 C2189 1.408 . S
C2186 C2184 1.363 . S
C2186 C2187 1.370 . S
C2186 C2190 1.524 . S
C2187 C2179 1.503 . S
C2187 C2186 1.370 . S
C2187 C2188 1.403 . S
C2188 C2187 1.403 . S
C2188 C2189 1.404 . S
C2188 C2191 1.539 . S
C2189 C2185 1.408 . S
C2189 C2188 1.404 . S
C2189 H2201 0.930 . S
C2190 C2186 1.524 . S
C2190 H2202 0.956 . S
C2190 H2203 0.961 . S
C2190 H2204 0.961 . S
C2191 C2188 1.539 . S
C2191 H2205 0.958 . S
C2191 H2206 0.961 . S
C2191 H2207 0.960 . S
H2192 C2176 0.931 . S
H2193 C2181 0.929 . S
H2194 C2182 0.960 . S
H2195 C2182 0.962 . S
H2196 C2182 0.960 . S
H2197 C2183 0.961 . S
H2198 C2183 0.961 . S
H2199 C2183 0.961 . S
H2200 C2184 0.931 . S
H2201 C2189 0.930 . S
H2202 C2190 0.956 . S
H2203 C2190 0.961 . S
H2204 C2190 0.961 . S
H2205 C2191 0.958 . S
H2206 C2191 0.961 . S
H2207 C2191 0.960 . S
C2208 C2209 1.391 . S
C2208 C2210 1.394 . S
C2208 H2224 0.931 . S
C2209 C2208 1.391 . S
C2209 C2213 1.376 . S
C2210 C2208 1.394 . S
C2210 C2211 1.369 . S
C2210 C2214 1.531 . S
C2211 C2210 1.369 . S
C2211 C2212 1.410 . S
C2211 C2219 1.503 . S
C2212 C2211 1.410 . S
C2212 C2213 1.392 . S
C2212 C2215 1.511 . S
C2213 C2209 1.376 . S
C2213 C2212 1.392 . S
C2213 H2225 0.929 . S
C2214 C2210 1.531 . S
C2214 H2226 0.960 . S
C2214 H2227 0.962 . S
C2214 H2228 0.960 . S
C2215 C2212 1.511 . S
C2215 H2229 0.961 . S
C2215 H2230 0.961 . S
C2215 H2231 0.961 . S
C2216 C2217 1.370 . S
C2216 C2218 1.363 . S
C2216 H2232 0.931 . S
C2217 C2216 1.370 . S
C2217 C2221 1.408 . S
C2218 C2216 1.363 . S
C2218 C2219 1.370 . S
C2218 C2222 1.524 . S
C2219 C2211 1.503 . S
C2219 C2218 1.370 . S
C2219 C2220 1.403 . S
C2220 C2219 1.403 . S
C2220 C2221 1.404 . S
C2220 C2223 1.539 . S
C2221 C2217 1.408 . S
C2221 C2220 1.404 . S
C2221 H2233 0.930 . S
C2222 C2218 1.524 . S
C2222 H2234 0.956 . S
C2222 H2235 0.961 . S
C2222 H2236 0.961 . S
C2223 C2220 1.539 . S
C2223 H2237 0.958 . S
C2223 H2238 0.961 . S
C2223 H2239 0.960 . S
H2224 C2208 0.931 . S
H2225 C2213 0.929 . S
H2226 C2214 0.960 . S
H2227 C2214 0.962 . S
H2228 C2214 0.960 . S
H2229 C2215 0.961 . S
H2230 C2215 0.961 . S
H2231 C2215 0.961 . S
H2232 C2216 0.931 . S
H2233 C2221 0.930 . S
H2234 C2222 0.956 . S
H2235 C2222 0.961 . S
H2236 C2222 0.961 . S
H2237 C2223 0.958 . S
H2238 C2223 0.961 . S
H2239 C2223 0.960 . S
C2240 C2241 1.391 1_545 S
C2240 C2242 1.394 . S
C2240 H2256 0.931 1_545 S
C2241 C2240 1.391 1_565 S
C2241 C2245 1.376 1_565 S
C2242 C2240 1.394 . S
C2242 C2243 1.369 . S
C2242 C2246 1.531 . S
C2243 C2242 1.369 . S
C2243 C2244 1.410 . S
C2243 C2251 1.503 . S
C2244 C2243 1.410 . S
C2244 C2245 1.392 . S
C2244 C2247 1.511 . S
C2245 C2241 1.376 1_545 S
C2245 C2244 1.392 . S
C2245 H2257 0.929 . S
C2246 C2242 1.531 . S
C2246 H2258 0.960 . S
C2246 H2259 0.962 . S
C2246 H2260 0.960 . S
C2247 C2244 1.511 . S
C2247 H2261 0.961 . S
C2247 H2262 0.961 . S
C2247 H2263 0.961 . S
C2248 C2249 1.370 . S
C2248 C2250 1.363 . S
C2248 H2264 0.931 . S
C2249 C2248 1.370 . S
C2249 C2253 1.408 . S
C2250 C2248 1.363 . S
C2250 C2251 1.370 . S
C2250 C2254 1.524 . S
C2251 C2243 1.503 . S
C2251 C2250 1.370 . S
C2251 C2252 1.403 . S
C2252 C2251 1.403 . S
C2252 C2253 1.404 . S
C2252 C2255 1.539 . S
C2253 C2249 1.408 . S
C2253 C2252 1.404 . S
C2253 H2265 0.930 . S
C2254 C2250 1.524 . S
C2254 H2266 0.956 . S
C2254 H2267 0.961 . S
C2254 H2268 0.961 . S
C2255 C2252 1.539 . S
C2255 H2269 0.958 . S
C2255 H2270 0.961 . S
C2255 H2271 0.960 . S
H2256 C2240 0.931 1_565 S
H2257 C2245 0.929 . S
H2258 C2246 0.960 . S
H2259 C2246 0.962 . S
H2260 C2246 0.960 . S
H2261 C2247 0.961 . S
H2262 C2247 0.961 . S
H2263 C2247 0.961 . S
H2264 C2248 0.931 . S
H2265 C2253 0.930 . S
H2266 C2254 0.956 . S
H2267 C2254 0.961 . S
H2268 C2254 0.961 . S
H2269 C2255 0.958 . S
H2270 C2255 0.961 . S
H2271 C2255 0.960 . S
C2272 C2273 1.391 . S
C2272 C2274 1.394 . S
C2272 H2288 0.931 . S
C2273 C2272 1.391 . S
C2273 C2277 1.376 . S
C2274 C2272 1.394 . S
C2274 C2275 1.369 . S
C2274 C2278 1.531 . S
C2275 C2274 1.369 . S
C2275 C2276 1.410 . S
C2275 C2283 1.503 . S
C2276 C2275 1.410 . S
C2276 C2277 1.392 . S
C2276 C2279 1.511 . S
C2277 C2273 1.376 . S
C2277 C2276 1.392 . S
C2277 H2289 0.929 . S
C2278 C2274 1.531 . S
C2278 H2290 0.960 . S
C2278 H2291 0.962 . S
C2278 H2292 0.960 . S
C2279 C2276 1.511 . S
C2279 H2293 0.961 . S
C2279 H2294 0.961 . S
C2279 H2295 0.961 . S
C2280 C2281 1.370 1_545 S
C2280 C2282 1.363 . S
C2280 H2296 0.931 . S
C2281 C2280 1.370 1_565 S
C2281 C2285 1.408 1_565 S
C2282 C2280 1.363 . S
C2282 C2283 1.370 . S
C2282 C2286 1.524 . S
C2283 C2275 1.503 . S
C2283 C2282 1.370 . S
C2283 C2284 1.403 . S
C2284 C2283 1.403 . S
C2284 C2285 1.404 . S
C2284 C2287 1.539 . S
C2285 C2281 1.408 1_545 S
C2285 C2284 1.404 . S
C2285 H2297 0.930 1_545 S
C2286 C2282 1.524 . S
C2286 H2298 0.956 . S
C2286 H2299 0.961 . S
C2286 H2300 0.961 . S
C2287 C2284 1.539 . S
C2287 H2301 0.958 . S
C2287 H2302 0.961 . S
C2287 H2303 0.960 . S
H2288 C2272 0.931 . S
H2289 C2277 0.929 . S
H2290 C2278 0.960 . S
H2291 C2278 0.962 . S
H2292 C2278 0.960 . S
H2293 C2279 0.961 . S
H2294 C2279 0.961 . S
H2295 C2279 0.961 . S
H2296 C2280 0.931 . S
H2297 C2285 0.930 1_565 S
H2298 C2286 0.956 . S
H2299 C2286 0.961 . S
H2300 C2286 0.961 . S
H2301 C2287 0.958 . S
H2302 C2287 0.961 . S
H2303 C2287 0.960 . S
C2304 C2305 1.391 . S
C2304 C2306 1.394 . S
C2304 H2320 0.931 . S
C2305 C2304 1.391 . S
C2305 C2309 1.376 . S
C2306 C2304 1.394 . S
C2306 C2307 1.369 . S
C2306 C2310 1.531 . S
C2307 C2306 1.369 . S
C2307 C2308 1.410 . S
C2307 C2315 1.503 . S
C2308 C2307 1.410 . S
C2308 C2309 1.392 . S
C2308 C2311 1.511 . S
C2309 C2305 1.376 . S
C2309 C2308 1.392 . S
C2309 H2321 0.929 . S
C2310 C2306 1.531 . S
C2310 H2322 0.960 . S
C2310 H2323 0.962 . S
C2310 H2324 0.960 . S
C2311 C2308 1.511 . S
C2311 H2325 0.961 . S
C2311 H2326 0.961 . S
C2311 H2327 0.961 . S
C2312 C2313 1.370 1_565 S
C2312 C2314 1.363 . S
C2312 H2328 0.931 . S
C2313 C2312 1.370 1_545 S
C2313 C2317 1.408 1_545 S
C2314 C2312 1.363 . S
C2314 C2315 1.370 . S
C2314 C2318 1.524 . S
C2315 C2307 1.503 . S
C2315 C2314 1.370 . S
C2315 C2316 1.403 . S
C2316 C2315 1.403 . S
C2316 C2317 1.404 . S
C2316 C2319 1.539 . S
C2317 C2313 1.408 1_565 S
C2317 C2316 1.404 . S
C2317 H2329 0.930 1_565 S
C2318 C2314 1.524 . S
C2318 H2330 0.956 . S
C2318 H2331 0.961 . S
C2318 H2332 0.961 . S
C2319 C2316 1.539 . S
C2319 H2333 0.958 . S
C2319 H2334 0.961 . S
C2319 H2335 0.960 . S
H2320 C2304 0.931 . S
H2321 C2309 0.929 . S
H2322 C2310 0.960 . S
H2323 C2310 0.962 . S
H2324 C2310 0.960 . S
H2325 C2311 0.961 . S
H2326 C2311 0.961 . S
H2327 C2311 0.961 . S
H2328 C2312 0.931 . S
H2329 C2317 0.930 1_545 S
H2330 C2318 0.956 . S
H2331 C2318 0.961 . S
H2332 C2318 0.961 . S
H2333 C2319 0.958 . S
H2334 C2319 0.961 . S
H2335 C2319 0.960 . S
C2336 C2337 1.391 . S
C2336 C2338 1.394 . S
C2336 H2352 0.931 . S
C2337 C2336 1.391 . S
C2337 C2341 1.376 . S
C2338 C2336 1.394 . S
C2338 C2339 1.369 . S
C2338 C2342 1.531 . S
C2339 C2338 1.369 . S
C2339 C2340 1.410 . S
C2339 C2347 1.503 . S
C2340 C2339 1.410 . S
C2340 C2341 1.392 . S
C2340 C2343 1.511 . S
C2341 C2337 1.376 . S
C2341 C2340 1.392 . S
C2341 H2353 0.929 . S
C2342 C2338 1.531 . S
C2342 H2354 0.960 . S
C2342 H2355 0.962 . S
C2342 H2356 0.960 . S
C2343 C2340 1.511 . S
C2343 H2357 0.961 . S
C2343 H2358 0.961 . S
C2343 H2359 0.961 . S
C2344 C2345 1.370 1_565 S
C2344 C2346 1.363 . S
C2344 H2360 0.931 . S
C2345 C2344 1.370 1_545 S
C2345 C2349 1.408 1_545 S
C2346 C2344 1.363 . S
C2346 C2347 1.370 . S
C2346 C2350 1.524 . S
C2347 C2339 1.503 . S
C2347 C2346 1.370 . S
C2347 C2348 1.403 . S
C2348 C2347 1.403 . S
C2348 C2349 1.404 . S
C2348 C2351 1.539 . S
C2349 C2345 1.408 1_565 S
C2349 C2348 1.404 . S
C2349 H2361 0.930 1_565 S
C2350 C2346 1.524 . S
C2350 H2362 0.956 . S
C2350 H2363 0.961 . S
C2350 H2364 0.961 . S
C2351 C2348 1.539 . S
C2351 H2365 0.958 . S
C2351 H2366 0.961 . S
C2351 H2367 0.960 . S
H2352 C2336 0.931 . S
H2353 C2341 0.929 . S
H2354 C2342 0.960 . S
H2355 C2342 0.962 . S
H2356 C2342 0.960 . S
H2357 C2343 0.961 . S
H2358 C2343 0.961 . S
H2359 C2343 0.961 . S
H2360 C2344 0.931 . S
H2361 C2349 0.930 1_545 S
H2362 C2350 0.956 . S
H2363 C2350 0.961 . S
H2364 C2350 0.961 . S
H2365 C2351 0.958 . S
H2366 C2351 0.961 . S
H2367 C2351 0.960 . S
C2368 C2369 1.391 . S
C2368 C2370 1.394 . S
C2368 H2384 0.931 . S
C2369 C2368 1.391 . S
C2369 C2373 1.376 . S
C2370 C2368 1.394 . S
C2370 C2371 1.369 . S
C2370 C2374 1.531 . S
C2371 C2370 1.369 . S
C2371 C2372 1.410 . S
C2371 C2379 1.503 . S
C2372 C2371 1.410 . S
C2372 C2373 1.392 . S
C2372 C2375 1.511 . S
C2373 C2369 1.376 . S
C2373 C2372 1.392 . S
C2373 H2385 0.929 . S
C2374 C2370 1.531 . S
C2374 H2386 0.960 . S
C2374 H2387 0.962 . S
C2374 H2388 0.960 . S
C2375 C2372 1.511 . S
C2375 H2389 0.961 . S
C2375 H2390 0.961 . S
C2375 H2391 0.961 . S
C2376 C2377 1.370 . S
C2376 C2378 1.363 . S
C2376 H2392 0.931 . S
C2377 C2376 1.370 . S
C2377 C2381 1.408 . S
C2378 C2376 1.363 . S
C2378 C2379 1.370 . S
C2378 C2382 1.524 . S
C2379 C2371 1.503 . S
C2379 C2378 1.370 . S
C2379 C2380 1.403 . S
C2380 C2379 1.403 . S
C2380 C2381 1.404 . S
C2380 C2383 1.539 . S
C2381 C2377 1.408 . S
C2381 C2380 1.404 . S
C2381 H2393 0.930 . S
C2382 C2378 1.524 . S
C2382 H2394 0.956 . S
C2382 H2395 0.961 . S
C2382 H2396 0.961 . S
C2383 C2380 1.539 . S
C2383 H2397 0.958 . S
C2383 H2398 0.961 . S
C2383 H2399 0.960 . S
H2384 C2368 0.931 . S
H2385 C2373 0.929 . S
H2386 C2374 0.960 . S
H2387 C2374 0.962 . S
H2388 C2374 0.960 . S
H2389 C2375 0.961 . S
H2390 C2375 0.961 . S
H2391 C2375 0.961 . S
H2392 C2376 0.931 . S
H2393 C2381 0.930 . S
H2394 C2382 0.956 . S
H2395 C2382 0.961 . S
H2396 C2382 0.961 . S
H2397 C2383 0.958 . S
H2398 C2383 0.961 . S
H2399 C2383 0.960 . S
C2400 C2401 1.391 . S
C2400 C2402 1.394 . S
C2400 H2416 0.931 . S
C2401 C2400 1.391 . S
C2401 C2405 1.376 . S
C2402 C2400 1.394 . S
C2402 C2403 1.369 . S
C2402 C2406 1.531 . S
C2403 C2402 1.369 . S
C2403 C2404 1.410 . S
C2403 C2411 1.503 . S
C2404 C2403 1.410 . S
C2404 C2405 1.392 . S
C2404 C2407 1.511 . S
C2405 C2401 1.376 . S
C2405 C2404 1.392 . S
C2405 H2417 0.929 . S
C2406 C2402 1.531 . S
C2406 H2418 0.960 . S
C2406 H2419 0.962 . S
C2406 H2420 0.960 . S
C2407 C2404 1.511 . S
C2407 H2421 0.961 . S
C2407 H2422 0.961 . S
C2407 H2423 0.961 . S
C2408 C2409 1.370 . S
C2408 C2410 1.363 . S
C2408 H2424 0.931 . S
C2409 C2408 1.370 . S
C2409 C2413 1.408 . S
C2410 C2408 1.363 . S
C2410 C2411 1.370 . S
C2410 C2414 1.524 . S
C2411 C2403 1.503 . S
C2411 C2410 1.370 . S
C2411 C2412 1.403 . S
C2412 C2411 1.403 . S
C2412 C2413 1.404 . S
C2412 C2415 1.539 . S
C2413 C2409 1.408 . S
C2413 C2412 1.404 . S
C2413 H2425 0.930 . S
C2414 C2410 1.524 . S
C2414 H2426 0.956 . S
C2414 H2427 0.961 . S
C2414 H2428 0.961 . S
C2415 C2412 1.539 . S
C2415 H2429 0.958 . S
C2415 H2430 0.961 . S
C2415 H2431 0.960 . S
H2416 C2400 0.931 . S
H2417 C2405 0.929 . S
H2418 C2406 0.960 . S
H2419 C2406 0.962 . S
H2420 C2406 0.960 . S
H2421 C2407 0.961 . S
H2422 C2407 0.961 . S
H2423 C2407 0.961 . S
H2424 C2408 0.931 . S
H2425 C2413 0.930 . S
H2426 C2414 0.956 . S
H2427 C2414 0.961 . S
H2428 C2414 0.961 . S
H2429 C2415 0.958 . S
H2430 C2415 0.961 . S
H2431 C2415 0.960 . S
C2432 C2433 1.391 . S
C2432 C2434 1.394 . S
C2432 H2448 0.931 . S
C2433 C2432 1.391 . S
C2433 C2437 1.376 . S
C2434 C2432 1.394 . S
C2434 C2435 1.369 . S
C2434 C2438 1.531 . S
C2435 C2434 1.369 . S
C2435 C2436 1.410 . S
C2435 C2443 1.503 . S
C2436 C2435 1.410 . S
C2436 C2437 1.392 . S
C2436 C2439 1.511 . S
C2437 C2433 1.376 . S
C2437 C2436 1.392 . S
C2437 H2449 0.929 . S
C2438 C2434 1.531 . S
C2438 H2450 0.960 . S
C2438 H2451 0.962 . S
C2438 H2452 0.960 . S
C2439 C2436 1.511 . S
C2439 H2453 0.961 . S
C2439 H2454 0.961 . S
C2439 H2455 0.961 . S
C2440 C2441 1.370 . S
C2440 C2442 1.363 . S
C2440 H2456 0.931 . S
C2441 C2440 1.370 . S
C2441 C2445 1.408 . S
C2442 C2440 1.363 . S
C2442 C2443 1.370 . S
C2442 C2446 1.524 . S
C2443 C2435 1.503 . S
C2443 C2442 1.370 . S
C2443 C2444 1.403 . S
C2444 C2443 1.403 . S
C2444 C2445 1.404 . S
C2444 C2447 1.539 . S
C2445 C2441 1.408 . S
C2445 C2444 1.404 . S
C2445 H2457 0.930 . S
C2446 C2442 1.524 . S
C2446 H2458 0.956 . S
C2446 H2459 0.961 . S
C2446 H2460 0.961 . S
C2447 C2444 1.539 . S
C2447 H2461 0.958 . S
C2447 H2462 0.961 . S
C2447 H2463 0.960 . S
H2448 C2432 0.931 . S
H2449 C2437 0.929 . S
H2450 C2438 0.960 . S
H2451 C2438 0.962 . S
H2452 C2438 0.960 . S
H2453 C2439 0.961 . S
H2454 C2439 0.961 . S
H2455 C2439 0.961 . S
H2456 C2440 0.931 . S
H2457 C2445 0.930 . S
H2458 C2446 0.956 . S
H2459 C2446 0.961 . S
H2460 C2446 0.961 . S
H2461 C2447 0.958 . S
H2462 C2447 0.961 . S
H2463 C2447 0.960 . S
C2464 C2465 1.391 . S
C2464 C2466 1.394 . S
C2464 H2480 0.931 . S
C2465 C2464 1.391 . S
C2465 C2469 1.376 . S
C2466 C2464 1.394 . S
C2466 C2467 1.369 . S
C2466 C2470 1.531 . S
C2467 C2466 1.369 . S
C2467 C2468 1.410 . S
C2467 C2475 1.503 . S
C2468 C2467 1.410 . S
C2468 C2469 1.392 . S
C2468 C2471 1.511 . S
C2469 C2465 1.376 . S
C2469 C2468 1.392 . S
C2469 H2481 0.929 . S
C2470 C2466 1.531 . S
C2470 H2482 0.960 . S
C2470 H2483 0.962 . S
C2470 H2484 0.960 . S
C2471 C2468 1.511 . S
C2471 H2485 0.961 . S
C2471 H2486 0.961 . S
C2471 H2487 0.961 . S
C2472 C2473 1.370 . S
C2472 C2474 1.363 . S
C2472 H2488 0.931 . S
C2473 C2472 1.370 . S
C2473 C2477 1.408 . S
C2474 C2472 1.363 . S
C2474 C2475 1.370 . S
C2474 C2478 1.524 . S
C2475 C2467 1.503 . S
C2475 C2474 1.370 . S
C2475 C2476 1.403 . S
C2476 C2475 1.403 . S
C2476 C2477 1.404 . S
C2476 C2479 1.539 . S
C2477 C2473 1.408 . S
C2477 C2476 1.404 . S
C2477 H2489 0.930 . S
C2478 C2474 1.524 . S
C2478 H2490 0.956 . S
C2478 H2491 0.961 . S
C2478 H2492 0.961 . S
C2479 C2476 1.539 . S
C2479 H2493 0.958 . S
C2479 H2494 0.961 . S
C2479 H2495 0.960 . S
H2480 C2464 0.931 . S
H2481 C2469 0.929 . S
H2482 C2470 0.960 . S
H2483 C2470 0.962 . S
H2484 C2470 0.960 . S
H2485 C2471 0.961 . S
H2486 C2471 0.961 . S
H2487 C2471 0.961 . S
H2488 C2472 0.931 . S
H2489 C2477 0.930 . S
H2490 C2478 0.956 . S
H2491 C2478 0.961 . S
H2492 C2478 0.961 . S
H2493 C2479 0.958 . S
H2494 C2479 0.961 . S
H2495 C2479 0.960 . S
C449 C35 0.431 . S
C457 C7 0.415 . S
C481 C21 0.367 . S
C489 C49 0.398 . S
C513 C91 0.434 . S
C521 C63 0.388 . S
C545 C105 0.364 . S
C553 C77 0.387 . S
C577 C119 0.379 . S
C585 C147 0.355 . S
C609 C161 0.406 . S
C617 C133 0.410 . S
C641 C175 0.462 . S
C649 C203 0.415 . S
C673 C189 0.307 . S
C681 C217 0.352 . S
C705 C259 0.314 . S
C713 C231 0.352 . S
C737 C245 0.388 . S
C745 C273 0.358 . S
C769 C287 0.341 . S
C777 C315 0.377 . S
C801 C329 0.453 . S
C809 C301 0.400 . S
C833 C371 0.380 . S
C841 C343 0.403 . S
C865 C385 0.438 . S
C873 C357 0.415 . S
C897 C427 0.307 . S
C905 C399 0.353 . S
C929 C413 0.311 . S
C937 C441 0.359 . S
C961 C64 1.589 . S
C969 C8 1.611 . S
C993 C414 1.616 . S
C1001 C22 1.602 . S
C1025 C36 1.601 . S
C1033 C204 1.608 . S
C1057 C50 1.585 . S
C1065 C330 1.613 . S
C1089 C78 1.595 . S
C1097 C358 1.609 . S
C1121 C92 1.600 . S
C1129 C148 1.609 . S
C1153 C274 1.586 . S
C1161 C106 1.612 . S
C1185 C176 1.610 . S
C1193 C120 1.602 . S
C1217 C302 1.592 . S
C1225 C134 1.610 . S
C1249 C162 1.585 . S
C1257 C442 1.613 . S
C1281 C190 1.606 . S
C1289 C246 1.607 . S
C1313 C386 1.618 . S
C1321 C218 1.600 . S
C1345 C288 1.612 . S
C1353 C232 1.601 . S
C1377 C260 1.585 . S
C1385 C428 1.614 . S
C1409 C316 1.586 . S
C1417 C372 1.614 . S
C1441 C400 1.595 . S
C1449 C344 1.608 . S
C1473 C51 1.496 . S
C1481 C9 1.479 . S
C1505 C37 1.483 . S
C1513 C23 1.490 . S
C1537 C107 1.498 . S
C1545 C65 1.479 . S
C1569 C93 1.474 . S
C1577 C79 1.491 . S
C1601 C163 1.483 . S
C1609 C121 1.489 . S
C1633 C149 1.465 . S
C1641 C135 1.496 . S
C1665 C219 1.493 . S
C1673 C177 1.482 . S
C1697 C205 1.471 . S
C1705 C191 1.493 . S
C1729 C233 1.505 . S
C1737 C275 1.477 . S
C1761 C261 1.501 . S
C1769 C247 1.478 . S
C1793 C289 1.503 . S
C1801 C331 1.478 . S
C1825 C317 1.490 . S
C1833 C303 1.485 . S
C1857 C387 1.473 . S
C1865 C345 1.488 . S
C1889 C359 1.505 . S
C1897 C373 1.478 . S
C1921 C401 1.469 . S
C1929 C443 1.492 . S
C1953 C429 1.463 . S
C1961 C415 1.496 . S
C1985 C31 1.471 . S
C1993 C3 1.493 . S
C2017 C17 1.471 . S
C2025 C45 1.494 . S
C2049 C59 1.492 . S
C2057 C87 1.503 . S
C2081 C73 1.481 . S
C2089 C101 1.503 . S
C2113 C115 1.510 . S
C2121 C143 1.500 . S
C2145 C129 1.506 . S
C2153 C157 1.502 . S
C2177 C199 1.483 . S
C2185 C171 1.503 . S
C2209 C213 1.489 . S
C2217 C185 1.503 . S
C2241 C255 1.481 . S
C2249 C227 1.501 . S
C2273 C269 1.471 . S
C2281 C241 1.494 . S
C2305 C283 1.478 . S
C2313 C311 1.489 . S
C2337 C325 1.477 . S
C2345 C297 1.502 . S
C2369 C367 1.511 . S
C2377 C339 1.496 . S
C2401 C353 1.479 . S
C2409 C381 1.487 . S
C2433 C395 1.483 . S
C2441 C423 1.503 . S
C2465 C437 1.505 . S
C2473 C409 1.488 . S
