# Generated by pormake.
# Topology snz, (6)-cn, num edge types: 1
# Building blocks:
#     Node 0, Type 0, BuildingBlock: KUMBUR_clean_sbu_1, # of connection points: 6
#     Node 1, Type 0, BuildingBlock: KUMBUR_clean_sbu_1, # of connection points: 6
#     Node 2, Type 0, BuildingBlock: KUMBUR_clean_sbu_1, # of connection points: 6
#     Node 3, Type 0, BuildingBlock: KUMBUR_clean_sbu_1, # of connection points: 6
#     Node 4, Type 0, BuildingBlock: KUMBUR_clean_sbu_1, # of connection points: 6
#     Node 5, Type 0, BuildingBlock: KUMBUR_clean_sbu_1, # of connection points: 6
#     Node 6, Type 0, BuildingBlock: KUMBUR_clean_sbu_1, # of connection points: 6
#     Node 7, Type 0, BuildingBlock: KUMBUR_clean_sbu_1, # of connection points: 6
#     Node 8, Type 0, BuildingBlock: KUMBUR_clean_sbu_1, # of connection points: 6
#     Edge 9, Type (0, 0), BuildingBlock: TEMPAE_clean_linker_10, # of connection points: 2
#     Edge 10, Type (0, 0), BuildingBlock: TEMPAE_clean_linker_10, # of connection points: 2
#     Edge 11, Type (0, 0), BuildingBlock: TEMPAE_clean_linker_10, # of connection points: 2
#     Edge 12, Type (0, 0), BuildingBlock: TEMPAE_clean_linker_10, # of connection points: 2
#     Edge 13, Type (0, 0), BuildingBlock: TEMPAE_clean_linker_10, # of connection points: 2
#     Edge 14, Type (0, 0), BuildingBlock: TEMPAE_clean_linker_10, # of connection points: 2
#     Edge 15, Type (0, 0), BuildingBlock: TEMPAE_clean_linker_10, # of connection points: 2
#     Edge 16, Type (0, 0), BuildingBlock: TEMPAE_clean_linker_10, # of connection points: 2
#     Edge 17, Type (0, 0), BuildingBlock: TEMPAE_clean_linker_10, # of connection points: 2
#     Edge 18, Type (0, 0), BuildingBlock: TEMPAE_clean_linker_10, # of connection points: 2
#     Edge 19, Type (0, 0), BuildingBlock: TEMPAE_clean_linker_10, # of connection points: 2
#     Edge 20, Type (0, 0), BuildingBlock: TEMPAE_clean_linker_10, # of connection points: 2
#     Edge 21, Type (0, 0), BuildingBlock: TEMPAE_clean_linker_10, # of connection points: 2
#     Edge 22, Type (0, 0), BuildingBlock: TEMPAE_clean_linker_10, # of connection points: 2
#     Edge 23, Type (0, 0), BuildingBlock: TEMPAE_clean_linker_10, # of connection points: 2
#     Edge 24, Type (0, 0), BuildingBlock: TEMPAE_clean_linker_10, # of connection points: 2
#     Edge 25, Type (0, 0), BuildingBlock: TEMPAE_clean_linker_10, # of connection points: 2
#     Edge 26, Type (0, 0), BuildingBlock: TEMPAE_clean_linker_10, # of connection points: 2
#     Edge 27, Type (0, 0), BuildingBlock: TEMPAE_clean_linker_10, # of connection points: 2
#     Edge 28, Type (0, 0), BuildingBlock: TEMPAE_clean_linker_10, # of connection points: 2
#     Edge 29, Type (0, 0), BuildingBlock: TEMPAE_clean_linker_10, # of connection points: 2
#     Edge 30, Type (0, 0), BuildingBlock: TEMPAE_clean_linker_10, # of connection points: 2
#     Edge 31, Type (0, 0), BuildingBlock: TEMPAE_clean_linker_10, # of connection points: 2
#     Edge 32, Type (0, 0), BuildingBlock: TEMPAE_clean_linker_10, # of connection points: 2
#     Edge 33, Type (0, 0), BuildingBlock: TEMPAE_clean_linker_10, # of connection points: 2
#     Edge 34, Type (0, 0), BuildingBlock: TEMPAE_clean_linker_10, # of connection points: 2
#     Edge 35, Type (0, 0), BuildingBlock: TEMPAE_clean_linker_10, # of connection points: 2
# Relax obj value: 0.241
# Max RMSD: 0.166
# Mean RMSD: 0.113
data_MOF--net-snz--node1-KUMBUR_clean_sbu_1--edge1-TEMPAE_clean_linker_10
_symmetry_space_group_name_H-M    P1
_symmetry_Int_Tables_number       1
_symmetry_cell_setting            triclinic
loop_
_symmetry_equiv_pos_as_xyz
'x, y, z'
_cell_length_a     67.051
_cell_length_b     54.204
_cell_length_c     19.145
_cell_angle_alpha  97.405
_cell_angle_beta   97.451
_cell_angle_gamma  120.568
loop_
_atom_site_label
_atom_site_type_symbol
_atom_site_fract_x
_atom_site_fract_y
_atom_site_fract_z
_atom_type_partial_charge
Tb0 Tb 0.98911 0.47624 0.13290 0.0
C1 C 0.11142 0.53164 0.15080 0.0
N2 N 0.09152 0.50888 0.10108 0.0
C3 C 0.11128 0.52573 0.00649 0.0
C4 C 0.13144 0.55193 0.12704 0.0
C5 C 0.09183 0.50606 0.03102 0.0
C6 C 0.13072 0.54889 0.05201 0.0
C7 C 0.13150 0.55850 0.27650 0.0
C8 C 0.11136 0.53474 0.22573 0.0
C9 C 0.15161 0.57868 0.25183 0.0
C10 C 0.15159 0.57565 0.18186 0.0
Tb11 Tb 0.05358 0.47676 0.14892 0.0
N12 N 0.09169 0.51445 0.24550 0.0
C13 C 0.13032 0.56102 0.35019 0.0
C14 C 0.09182 0.51793 0.31617 0.0
C15 C 0.11111 0.54122 0.36978 0.0
H16 H 0.07860 0.49043 0.99748 0.0
H17 H 0.11045 0.54276 0.41824 0.0
H18 H 0.96410 0.46258 0.28434 0.0
H19 H 0.93224 0.41025 0.86358 0.0
H20 H 0.07851 0.50426 0.33052 0.0
H21 H 0.14306 0.57664 0.38525 0.0
H22 H 0.96418 0.44875 0.95130 0.0
H23 H 0.11079 0.52274 0.95719 0.0
H24 H 0.16494 0.59419 0.28522 0.0
H25 H 0.16497 0.58922 0.16756 0.0
H26 H 0.93191 0.43027 0.32463 0.0
H27 H 0.14331 0.56250 0.03492 0.0
H28 H 0.89964 0.37637 0.89657 0.0
N29 N 0.95118 0.44413 0.18074 0.0
C30 C 0.93128 0.42137 0.13102 0.0
C31 C 0.93141 0.42727 0.27533 0.0
C32 C 0.91126 0.40108 0.15478 0.0
C33 C 0.95086 0.44695 0.25080 0.0
C34 C 0.91197 0.40412 0.22981 0.0
N35 N 0.95100 0.43855 0.03632 0.0
C36 C 0.95087 0.43508 0.96565 0.0
C37 C 0.91119 0.39451 0.00532 0.0
C38 C 0.93134 0.41827 0.05609 0.0
C39 C 0.91238 0.39199 0.93162 0.0
C40 C 0.93159 0.41178 0.91203 0.0
H41 H 0.89939 0.39051 0.24690 0.0
H42 H 0.87773 0.36379 0.11426 0.0
H43 H 0.87776 0.35882 0.99660 0.0
O44 O 0.98032 0.50478 0.05802 0.0
O45 O 0.98459 0.42920 0.12144 0.0
O46 O 0.01806 0.43028 0.11411 0.0
O47 O 0.97326 0.50638 0.16691 0.0
O48 O 0.00823 0.47457 0.04215 0.0
O49 O 0.03990 0.47379 0.02452 0.0
O50 O 0.06238 0.44823 0.22379 0.0
O51 O 0.05810 0.52381 0.16038 0.0
O52 O 0.02463 0.52273 0.16771 0.0
O53 O 0.06944 0.44663 0.11491 0.0
O54 O 0.03446 0.47844 0.23967 0.0
O55 O 0.00280 0.47922 0.25730 0.0
C56 C 0.99607 0.41763 0.10435 0.0
C57 C 0.96407 0.53326 0.09402 0.0
C58 C 0.95553 0.56044 0.01788 0.0
C59 C 0.94528 0.56742 0.07004 0.0
C60 C 0.95392 0.54071 0.14575 0.0
C61 C 0.94467 0.55810 0.13390 0.0
C62 C 0.96504 0.54348 0.03120 0.0
C63 C 0.02355 0.47800 0.00562 0.0
C64 C 0.97295 0.51355 0.10712 0.0
C65 C 0.89110 0.37736 0.09996 0.0
C66 C 0.89109 0.37433 0.02999 0.0
C67 C 0.04662 0.53538 0.17747 0.0
C68 C 0.07863 0.41975 0.18780 0.0
C69 C 0.08717 0.39257 0.26394 0.0
C70 C 0.09741 0.38559 0.21178 0.0
C71 C 0.08878 0.41230 0.13607 0.0
C72 C 0.07766 0.40953 0.25062 0.0
C73 C 0.09803 0.39491 0.14792 0.0
C74 C 0.01915 0.47501 0.27620 0.0
C75 C 0.06974 0.43946 0.17470 0.0
H76 H 0.93874 0.57859 0.06149 0.0
H77 H 0.95332 0.53398 0.18816 0.0
H78 H 0.93816 0.56333 0.16855 0.0
H79 H 0.97217 0.53896 0.99738 0.0
H80 H 0.10395 0.37442 0.22033 0.0
H81 H 0.08938 0.41903 0.09366 0.0
H82 H 0.07053 0.41405 0.28443 0.0
H83 H 0.10454 0.38967 0.11327 0.0
Tb84 Tb 0.56198 0.49772 0.05802 0.0
C85 C 0.62874 0.43056 0.10033 0.0
N86 N 0.63144 0.45505 0.14308 0.0
C87 C 0.63824 0.43836 0.24771 0.0
C88 C 0.63058 0.40951 0.13265 0.0
C89 C 0.63637 0.45874 0.21484 0.0
C90 C 0.63489 0.41363 0.20891 0.0
C91 C 0.62027 0.40101 0.97989 0.0
C92 C 0.62365 0.42648 0.02373 0.0
C93 C 0.62232 0.38008 0.01320 0.0
C94 C 0.62712 0.38402 0.08471 0.0
Tb95 Tb 0.62226 0.48896 0.07801 0.0
N96 N 0.62226 0.44753 0.99566 0.0
C97 C 0.61466 0.39764 0.90400 0.0
C98 C 0.61715 0.44316 0.92344 0.0
C99 C 0.61327 0.41818 0.87630 0.0
H100 H 0.63861 0.47550 0.24383 0.0
H101 H 0.60981 0.41606 0.82648 0.0
H102 H 0.54563 0.51118 0.89221 0.0
H103 H 0.57443 0.57061 0.30955 0.0
H104 H 0.61612 0.45733 0.90344 0.0
H105 H 0.61190 0.38093 0.87319 0.0
H106 H 0.56812 0.52934 0.23259 0.0
H107 H 0.64192 0.44200 0.29796 0.0
H108 H 0.62027 0.36342 0.98444 0.0
H109 H 0.62830 0.36992 0.10471 0.0
H110 H 0.54232 0.54468 0.83807 0.0
H111 H 0.63536 0.39964 0.23129 0.0
H112 H 0.57234 0.60574 0.26284 0.0
N113 N 0.55280 0.53163 0.99295 0.0
C114 C 0.55550 0.55612 0.03570 0.0
C115 C 0.54600 0.54831 0.88832 0.0
C116 C 0.55366 0.57716 0.00339 0.0
C117 C 0.54787 0.52793 0.92119 0.0
C118 C 0.54935 0.57305 0.92712 0.0
N119 N 0.56198 0.53914 0.14038 0.0
C120 C 0.56709 0.54352 0.21260 0.0
C121 C 0.56397 0.58566 0.15614 0.0
C122 C 0.56059 0.56019 0.11231 0.0
C123 C 0.56958 0.58903 0.23203 0.0
C124 C 0.57097 0.56849 0.25974 0.0
H125 H 0.54888 0.58703 0.90475 0.0
H126 H 0.55594 0.61675 0.03132 0.0
H127 H 0.56397 0.62325 0.15159 0.0
O128 O 0.53074 0.47339 0.12475 0.0
O129 O 0.59953 0.54234 0.07429 0.0
O130 O 0.63060 0.53728 0.10043 0.0
O131 O 0.51929 0.47105 0.00994 0.0
O132 O 0.58440 0.49834 0.16122 0.0
O133 O 0.61570 0.49540 0.19709 0.0
O134 O 0.65350 0.51329 0.01129 0.0
O135 O 0.58471 0.44434 0.06175 0.0
O136 O 0.55364 0.44939 0.03560 0.0
O137 O 0.66495 0.51562 0.12609 0.0
O138 O 0.59984 0.48834 0.97481 0.0
O139 O 0.56854 0.49127 0.93894 0.0
C140 C 0.62117 0.55197 0.09989 0.0
C141 C 0.48909 0.44828 0.07468 0.0
C142 C 0.45934 0.42520 0.14304 0.0
C143 C 0.44185 0.41914 0.08324 0.0
C144 C 0.47129 0.44178 0.01529 0.0
C145 C 0.44753 0.42690 0.01945 0.0
C146 C 0.48292 0.43962 0.13747 0.0
C147 C 0.59704 0.49381 0.20642 0.0
C148 C 0.51451 0.46535 0.06939 0.0
C149 C 0.55711 0.60266 0.05132 0.0
C150 C 0.56192 0.60659 0.12284 0.0
C151 C 0.56307 0.43470 0.03615 0.0
C152 C 0.69515 0.53839 0.06135 0.0
C153 C 0.72490 0.56147 0.99299 0.0
C154 C 0.74239 0.56753 0.05280 0.0
C155 C 0.71295 0.54490 0.12074 0.0
C156 C 0.70132 0.54705 0.99856 0.0
C157 C 0.73671 0.55978 0.11658 0.0
C158 C 0.58720 0.49286 0.92961 0.0
C159 C 0.66973 0.52132 0.06664 0.0
H160 H 0.42604 0.40967 0.08652 0.0
H161 H 0.47536 0.44745 0.97291 0.0
H162 H 0.43566 0.42228 0.97979 0.0
H163 H 0.49472 0.44349 0.17652 0.0
H164 H 0.75820 0.57700 0.04951 0.0
H165 H 0.70888 0.53922 0.16313 0.0
H166 H 0.68952 0.54318 0.95951 0.0
H167 H 0.74858 0.56440 0.15624 0.0
Tb168 Tb 0.61032 0.12002 0.03808 0.0
C169 C 0.52845 0.96563 0.92752 0.0
N170 N 0.52946 0.98795 0.89759 0.0
C171 C 0.52079 0.95875 0.78038 0.0
C172 C 0.52379 0.93959 0.88234 0.0
C173 C 0.52539 0.98412 0.82574 0.0
C174 C 0.52050 0.93685 0.80652 0.0
C175 C 0.53218 0.94683 0.03483 0.0
C176 C 0.53259 0.96936 0.00406 0.0
C177 C 0.52731 0.92063 0.98862 0.0
C178 C 0.52340 0.91722 0.91722 0.0
Tb179 Tb 0.54360 0.03770 0.98616 0.0
N180 N 0.53682 0.99476 0.04480 0.0
C181 C 0.53699 0.95193 0.11129 0.0
C182 C 0.54099 0.99807 0.11679 0.0
C183 C 0.54114 0.97675 0.15137 0.0
H184 H 0.52565 0.99893 0.80535 0.0
H185 H 0.54408 0.97994 0.20151 0.0
H186 H 0.62828 0.15880 0.21888 0.0
H187 H 0.60985 0.17778 0.82273 0.0
H188 H 0.54392 0.01531 0.14536 0.0
H189 H 0.53728 0.93784 0.13376 0.0
H190 H 0.61001 0.14241 0.87888 0.0
H191 H 0.51783 0.95694 0.73057 0.0
H192 H 0.52685 0.90569 0.00876 0.0
H193 H 0.52032 0.89990 0.88863 0.0
H194 H 0.63609 0.20078 0.29367 0.0
H195 H 0.51822 0.92041 0.77592 0.0
H196 H 0.61665 0.21988 0.89047 0.0
N197 N 0.62446 0.16977 0.12665 0.0
C198 C 0.62547 0.19209 0.09671 0.0
C199 C 0.63314 0.19897 0.24386 0.0
C200 C 0.63014 0.21813 0.14189 0.0
C201 C 0.62854 0.17360 0.19849 0.0
C202 C 0.63343 0.22088 0.21772 0.0
N203 N 0.61711 0.16296 0.97943 0.0
C204 C 0.61294 0.15965 0.90744 0.0
C205 C 0.62175 0.21090 0.98941 0.0
C206 C 0.62133 0.18836 0.02017 0.0
C207 C 0.61693 0.20579 0.91295 0.0
C208 C 0.61278 0.18097 0.87287 0.0
H209 H 0.63571 0.23732 0.24831 0.0
H210 H 0.63360 0.25783 0.13560 0.0
H211 H 0.62708 0.25203 0.01547 0.0
O212 O 0.64159 0.12908 0.97137 0.0
O213 O 0.57595 0.12327 0.03058 0.0
O214 O 0.54167 0.07983 0.98768 0.0
O215 O 0.65250 0.14337 0.08994 0.0
O216 O 0.58709 0.09104 0.92523 0.0
O217 O 0.55295 0.04936 0.87370 0.0
O218 O 0.51234 0.02864 0.05286 0.0
O219 O 0.57798 0.03446 0.99365 0.0
O220 O 0.61226 0.07790 0.03656 0.0
O221 O 0.50143 0.01436 0.93429 0.0
O222 O 0.56684 0.06669 0.09900 0.0
O223 O 0.60098 0.10837 0.15053 0.0
C224 C 0.55403 0.10716 0.00010 0.0
C225 C 0.68285 0.15296 0.02566 0.0
C226 C 0.71270 0.16156 0.95737 0.0
C227 C 0.73024 0.17752 0.02151 0.0
C228 C 0.70068 0.16879 0.08927 0.0
C229 C 0.72448 0.18092 0.08720 0.0
C230 C 0.68900 0.14919 0.96067 0.0
C231 C 0.57315 0.06972 0.87180 0.0
C232 C 0.65753 0.14126 0.02937 0.0
C233 C 0.63053 0.24050 0.10701 0.0
C234 C 0.62662 0.23709 0.03561 0.0
C235 C 0.59990 0.05056 0.02339 0.0
C236 C 0.47108 0.00477 0.99857 0.0
C237 C 0.44123 0.99617 0.06686 0.0
C238 C 0.42368 0.98020 0.00272 0.0
C239 C 0.45325 0.98893 0.93496 0.0
C240 C 0.46492 0.00853 0.06356 0.0
C241 C 0.42944 0.97681 0.93703 0.0
C242 C 0.58077 0.08800 0.15244 0.0
C243 C 0.49640 0.01646 0.99487 0.0
H244 H 0.74615 0.18604 0.01987 0.0
H245 H 0.69660 0.17127 0.13308 0.0
H246 H 0.73633 0.19117 0.12951 0.0
H247 H 0.67712 0.13822 0.91857 0.0
H248 H 0.40778 0.97169 0.00437 0.0
H249 H 0.45732 0.98645 0.89115 0.0
H250 H 0.47681 0.01951 0.10566 0.0
H251 H 0.41760 0.96656 0.89473 0.0
Tb252 Tb 0.71264 0.85659 0.20537 0.0
C253 C 0.83494 0.91198 0.22327 0.0
N254 N 0.81504 0.88922 0.17355 0.0
C255 C 0.83481 0.90608 0.07896 0.0
C256 C 0.85496 0.93228 0.19951 0.0
C257 C 0.81536 0.88641 0.10348 0.0
C258 C 0.85425 0.92923 0.12448 0.0
C259 C 0.85503 0.93884 0.34897 0.0
C260 C 0.83488 0.91508 0.29820 0.0
C261 C 0.87513 0.95902 0.32430 0.0
C262 C 0.87512 0.95599 0.25433 0.0
Tb263 Tb 0.77711 0.85711 0.22139 0.0
N264 N 0.81522 0.89480 0.31797 0.0
C265 C 0.85384 0.94136 0.42266 0.0
C266 C 0.81535 0.89827 0.38863 0.0
C267 C 0.83463 0.92157 0.44225 0.0
H268 H 0.80212 0.87078 0.06994 0.0
H269 H 0.83398 0.92310 0.49071 0.0
H270 H 0.68762 0.84292 0.35681 0.0
H271 H 0.65577 0.79060 0.93605 0.0
H272 H 0.80204 0.88460 0.40298 0.0
H273 H 0.86658 0.95698 0.45772 0.0
H274 H 0.68771 0.82910 0.02377 0.0
H275 H 0.83431 0.90309 0.02965 0.0
H276 H 0.88846 0.97454 0.35769 0.0
H277 H 0.88849 0.96957 0.24003 0.0
H278 H 0.65543 0.81061 0.39710 0.0
H279 H 0.86684 0.94285 0.10739 0.0
H280 H 0.62316 0.75672 0.96903 0.0
N281 N 0.67470 0.82448 0.25321 0.0
C282 C 0.65480 0.80172 0.20349 0.0
C283 C 0.65494 0.80762 0.34779 0.0
C284 C 0.63478 0.78142 0.22725 0.0
C285 C 0.67439 0.82729 0.32327 0.0
C286 C 0.63550 0.78447 0.30228 0.0
N287 N 0.67453 0.81890 0.10879 0.0
C288 C 0.67440 0.81543 0.03812 0.0
C289 C 0.63472 0.77486 0.07778 0.0
C290 C 0.65486 0.79862 0.12855 0.0
C291 C 0.63590 0.77234 0.00409 0.0
C292 C 0.65511 0.79214 0.98450 0.0
H293 H 0.62291 0.77085 0.31937 0.0
H294 H 0.60125 0.74413 0.18673 0.0
H295 H 0.60128 0.73917 0.06906 0.0
O296 O 0.70384 0.88513 0.13050 0.0
O297 O 0.70812 0.80954 0.19391 0.0
O298 O 0.74158 0.81062 0.18657 0.0
O299 O 0.69679 0.88673 0.23939 0.0
O300 O 0.73176 0.85492 0.11462 0.0
O301 O 0.76342 0.85414 0.09698 0.0
O302 O 0.78590 0.82857 0.29626 0.0
O303 O 0.78163 0.90416 0.23285 0.0
O304 O 0.74816 0.90308 0.24018 0.0
O305 O 0.79296 0.82698 0.18737 0.0
O306 O 0.75799 0.85878 0.31214 0.0
O307 O 0.72632 0.85956 0.32977 0.0
C308 C 0.71960 0.79797 0.17681 0.0
C309 C 0.68759 0.91361 0.16650 0.0
C310 C 0.67906 0.94079 0.09037 0.0
C311 C 0.66881 0.94777 0.14252 0.0
C312 C 0.67745 0.92106 0.21823 0.0
C313 C 0.66820 0.93845 0.20639 0.0
C314 C 0.68857 0.92383 0.10368 0.0
C315 C 0.74707 0.85835 0.07809 0.0
C316 C 0.69648 0.89390 0.17960 0.0
C317 C 0.61463 0.75771 0.17242 0.0
C318 C 0.61461 0.75468 0.10245 0.0
C319 C 0.77015 0.91573 0.24994 0.0
C320 C 0.80215 0.80009 0.26025 0.0
C321 C 0.81069 0.77291 0.33639 0.0
C322 C 0.82093 0.76593 0.28423 0.0
C323 C 0.81230 0.79264 0.20853 0.0
C324 C 0.80118 0.78987 0.32308 0.0
C325 C 0.82155 0.77525 0.22037 0.0
C326 C 0.74267 0.85535 0.34866 0.0
C327 C 0.79326 0.81981 0.24715 0.0
H328 H 0.66227 0.95894 0.13398 0.0
H329 H 0.67685 0.91433 0.26064 0.0
H330 H 0.66169 0.94368 0.24104 0.0
H331 H 0.69569 0.91931 0.06986 0.0
H332 H 0.82747 0.75476 0.29277 0.0
H333 H 0.81290 0.79937 0.16611 0.0
H334 H 0.79405 0.79439 0.35689 0.0
H335 H 0.82806 0.77002 0.18572 0.0
Tb336 Tb 0.14394 0.84437 0.27622 0.0
C337 C 0.21070 0.77720 0.31854 0.0
N338 N 0.21340 0.80169 0.36129 0.0
C339 C 0.22020 0.78501 0.46592 0.0
C340 C 0.21254 0.75616 0.35086 0.0
C341 C 0.21833 0.80539 0.43305 0.0
C342 C 0.21685 0.76028 0.42712 0.0
C343 C 0.20223 0.74766 0.19810 0.0
C344 C 0.20562 0.77313 0.24193 0.0
C345 C 0.20428 0.72673 0.23141 0.0
C346 C 0.20909 0.73067 0.30292 0.0
Tb347 Tb 0.20423 0.83560 0.29622 0.0
N348 N 0.20422 0.79418 0.21387 0.0
C349 C 0.19662 0.74429 0.12221 0.0
C350 C 0.19911 0.78981 0.14164 0.0
C351 C 0.19524 0.76483 0.09450 0.0
H352 H 0.22057 0.82215 0.46204 0.0
H353 H 0.19178 0.76271 0.04469 0.0
H354 H 0.12759 0.85782 0.11041 0.0
H355 H 0.15639 0.91726 0.52775 0.0
H356 H 0.19808 0.80398 0.12165 0.0
H357 H 0.19387 0.72758 0.09140 0.0
H358 H 0.15008 0.87599 0.45079 0.0
H359 H 0.22388 0.78865 0.51617 0.0
H360 H 0.20224 0.71007 0.20265 0.0
H361 H 0.21026 0.71657 0.32292 0.0
H362 H 0.12428 0.89132 0.05627 0.0
H363 H 0.21732 0.74629 0.44950 0.0
H364 H 0.15429 0.95239 0.48104 0.0
N365 N 0.13476 0.87827 0.21115 0.0
C366 C 0.13746 0.90277 0.25390 0.0
C367 C 0.12796 0.89496 0.10652 0.0
C368 C 0.13562 0.92381 0.22159 0.0
C369 C 0.12983 0.87458 0.13939 0.0
C370 C 0.13131 0.91969 0.14532 0.0
N371 N 0.14394 0.88579 0.35858 0.0
C372 C 0.14905 0.89016 0.43080 0.0
C373 C 0.14593 0.93231 0.37434 0.0
C374 C 0.14255 0.90684 0.33051 0.0
C375 C 0.15154 0.93568 0.45023 0.0
C376 C 0.15293 0.91514 0.47794 0.0
H377 H 0.13084 0.93368 0.12295 0.0
H378 H 0.13790 0.96340 0.24952 0.0
H379 H 0.14592 0.96990 0.36979 0.0
O380 O 0.11270 0.82003 0.34294 0.0
O381 O 0.18149 0.88899 0.29249 0.0
O382 O 0.21256 0.88393 0.31864 0.0
O383 O 0.10125 0.81770 0.22814 0.0
O384 O 0.16636 0.84499 0.37942 0.0
O385 O 0.19766 0.84205 0.41530 0.0
O386 O 0.23546 0.85994 0.22950 0.0
O387 O 0.16667 0.79098 0.27995 0.0
O388 O 0.13560 0.79604 0.25380 0.0
O389 O 0.24691 0.86227 0.34430 0.0
O390 O 0.18180 0.83498 0.19302 0.0
O391 O 0.15050 0.83792 0.15714 0.0
C392 C 0.20313 0.89862 0.31809 0.0
C393 C 0.07105 0.79492 0.29288 0.0
C394 C 0.04130 0.77185 0.36124 0.0
C395 C 0.02381 0.76579 0.30143 0.0
C396 C 0.05325 0.78842 0.23349 0.0
C397 C 0.02949 0.77354 0.23765 0.0
C398 C 0.06488 0.78627 0.35567 0.0
C399 C 0.17900 0.84046 0.42463 0.0
C400 C 0.09647 0.81200 0.28759 0.0
C401 C 0.13907 0.94930 0.26952 0.0
C402 C 0.14388 0.95324 0.34104 0.0
C403 C 0.14503 0.78135 0.25435 0.0
C404 C 0.27712 0.88504 0.27957 0.0
C405 C 0.30687 0.90812 0.21120 0.0
C406 C 0.32435 0.91418 0.27101 0.0
C407 C 0.29491 0.89155 0.33896 0.0
C408 C 0.28328 0.89370 0.21678 0.0
C409 C 0.31867 0.90643 0.33480 0.0
C410 C 0.16917 0.83951 0.14782 0.0
C411 C 0.25169 0.86797 0.28485 0.0
H412 H 0.00800 0.75631 0.30471 0.0
H413 H 0.05732 0.79410 0.19110 0.0
H414 H 0.01762 0.76892 0.19799 0.0
H415 H 0.07668 0.79014 0.39472 0.0
H416 H 0.34016 0.92366 0.26773 0.0
H417 H 0.29085 0.88587 0.38134 0.0
H418 H 0.27149 0.88983 0.17773 0.0
H419 H 0.33054 0.91105 0.37445 0.0
Tb420 Tb 0.22260 0.29563 0.36812 0.0
C421 C 0.14073 0.14124 0.25757 0.0
N422 N 0.14174 0.16356 0.22763 0.0
C423 C 0.13307 0.13436 0.11042 0.0
C424 C 0.13607 0.11520 0.21239 0.0
C425 C 0.13767 0.15973 0.15579 0.0
C426 C 0.13277 0.11246 0.13656 0.0
C427 C 0.14445 0.12244 0.36487 0.0
C428 C 0.14487 0.14498 0.33411 0.0
C429 C 0.13959 0.09624 0.31867 0.0
C430 C 0.13568 0.09283 0.24727 0.0
Tb431 Tb 0.15588 0.21331 0.31620 0.0
N432 N 0.14910 0.17037 0.37485 0.0
C433 C 0.14927 0.12754 0.44133 0.0
C434 C 0.15327 0.17368 0.44684 0.0
C435 C 0.15342 0.15237 0.48141 0.0
H436 H 0.13792 0.17454 0.13539 0.0
H437 H 0.15636 0.15556 0.53155 0.0
H438 H 0.24056 0.33441 0.54892 0.0
H439 H 0.22213 0.35339 0.15276 0.0
H440 H 0.15620 0.19092 0.47540 0.0
H441 H 0.14956 0.11345 0.46381 0.0
H442 H 0.22229 0.31802 0.20892 0.0
H443 H 0.13011 0.13255 0.06061 0.0
H444 H 0.13913 0.08130 0.33881 0.0
H445 H 0.13260 0.07551 0.21868 0.0
H446 H 0.24838 0.37639 0.62371 0.0
H447 H 0.13050 0.09602 0.10597 0.0
H448 H 0.22893 0.39549 0.22051 0.0
N449 N 0.23674 0.34538 0.45669 0.0
C450 C 0.23776 0.36770 0.42675 0.0
C451 C 0.24542 0.37458 0.57390 0.0
C452 C 0.24242 0.39374 0.47193 0.0
C453 C 0.24082 0.34921 0.52853 0.0
C454 C 0.24571 0.39649 0.54776 0.0
N455 N 0.22939 0.33857 0.30947 0.0
C456 C 0.22522 0.33526 0.23748 0.0
C457 C 0.23403 0.38651 0.31945 0.0
C458 C 0.23362 0.36397 0.35021 0.0
C459 C 0.22921 0.38140 0.24298 0.0
C460 C 0.22506 0.35658 0.20291 0.0
H461 H 0.24799 0.41293 0.57835 0.0
H462 H 0.24589 0.43344 0.46564 0.0
H463 H 0.23936 0.42764 0.34551 0.0
O464 O 0.25387 0.30469 0.30141 0.0
O465 O 0.18823 0.29888 0.36063 0.0
O466 O 0.15395 0.25544 0.31772 0.0
O467 O 0.26478 0.31898 0.41998 0.0
O468 O 0.19937 0.26664 0.25527 0.0
O469 O 0.16523 0.22497 0.20375 0.0
O470 O 0.12462 0.20426 0.38291 0.0
O471 O 0.19026 0.21007 0.32369 0.0
O472 O 0.22454 0.25351 0.36660 0.0
O473 O 0.11371 0.18997 0.26434 0.0
O474 O 0.17912 0.24230 0.42905 0.0
O475 O 0.21326 0.28398 0.48057 0.0
C476 C 0.16631 0.28277 0.33088 0.0
C477 C 0.29513 0.32856 0.35570 0.0
C478 C 0.32498 0.33717 0.28740 0.0
C479 C 0.34252 0.35313 0.35155 0.0
C480 C 0.31296 0.34440 0.41930 0.0
C481 C 0.33676 0.35653 0.41723 0.0
C482 C 0.30128 0.32480 0.29071 0.0
C483 C 0.18543 0.24533 0.20184 0.0
C484 C 0.26981 0.31687 0.35940 0.0
C485 C 0.24281 0.41611 0.43705 0.0
C486 C 0.23890 0.41271 0.36565 0.0
C487 C 0.21218 0.22617 0.35343 0.0
C488 C 0.08336 0.18038 0.32862 0.0
C489 C 0.05351 0.17178 0.39691 0.0
C490 C 0.03597 0.15582 0.33277 0.0
C491 C 0.06553 0.16454 0.26501 0.0
C492 C 0.07720 0.18415 0.39361 0.0
C493 C 0.04172 0.15242 0.26708 0.0
C494 C 0.19305 0.26361 0.48248 0.0
C495 C 0.10868 0.19208 0.32492 0.0
H496 H 0.35843 0.36165 0.34990 0.0
H497 H 0.30888 0.34688 0.46312 0.0
H498 H 0.34861 0.36678 0.45954 0.0
H499 H 0.28940 0.31382 0.24861 0.0
H500 H 0.02006 0.14730 0.33442 0.0
H501 H 0.06960 0.16207 0.22120 0.0
H502 H 0.08909 0.19512 0.43571 0.0
H503 H 0.02988 0.14217 0.22478 0.0
Tb504 Tb 0.36401 0.15619 0.76115 0.0
C505 C 0.45805 0.19049 0.58178 0.0
N506 N 0.44803 0.20644 0.60052 0.0
C507 C 0.48691 0.24980 0.63920 0.0
C508 C 0.48308 0.20471 0.59313 0.0
C509 C 0.46230 0.23539 0.62757 0.0
C510 C 0.49768 0.23526 0.62466 0.0
C511 C 0.45329 0.14316 0.53493 0.0
C512 C 0.44299 0.15963 0.55235 0.0
C513 C 0.47853 0.15780 0.54625 0.0
C514 C 0.49250 0.18662 0.57355 0.0
Tb515 Tb 0.40220 0.17714 0.59314 0.0
N516 N 0.41905 0.14717 0.54213 0.0
C517 C 0.43757 0.11243 0.50754 0.0
C518 C 0.40516 0.11804 0.51528 0.0
C519 C 0.41413 0.10014 0.49746 0.0
H520 H 0.45557 0.24629 0.63907 0.0
H521 H 0.40383 0.08002 0.47883 0.0
H522 H 0.31064 0.08705 0.71522 0.0
H523 H 0.36238 0.25332 0.87546 0.0
H524 H 0.38876 0.10920 0.50803 0.0
H525 H 0.44365 0.10071 0.49651 0.0
H526 H 0.37744 0.22413 0.84626 0.0
H527 H 0.49615 0.27006 0.65756 0.0
H528 H 0.48532 0.14703 0.53430 0.0
H529 H 0.50889 0.19548 0.58038 0.0
H530 H 0.27006 0.06328 0.69673 0.0
H531 H 0.51418 0.24491 0.63494 0.0
H532 H 0.32255 0.23262 0.85778 0.0
N533 N 0.31818 0.12689 0.75377 0.0
C534 C 0.30816 0.14285 0.77251 0.0
C535 C 0.27929 0.08354 0.71509 0.0
C536 C 0.28313 0.12863 0.76116 0.0
C537 C 0.30390 0.09794 0.72672 0.0
C538 C 0.26853 0.09807 0.72963 0.0
N539 N 0.34716 0.18617 0.81215 0.0
C540 C 0.36105 0.21529 0.83901 0.0
C541 C 0.31292 0.19018 0.81936 0.0
C542 C 0.32322 0.17371 0.80194 0.0
C543 C 0.32864 0.22090 0.84675 0.0
C544 C 0.35208 0.23319 0.85683 0.0
H545 H 0.25203 0.08842 0.71935 0.0
H546 H 0.25732 0.13785 0.77391 0.0
H547 H 0.28089 0.18630 0.81999 0.0
O548 O 0.38436 0.17715 0.89012 0.0
O549 O 0.34721 0.16795 0.66300 0.0
O550 O 0.37068 0.18499 0.58552 0.0
O551 O 0.35698 0.12990 0.85770 0.0
O552 O 0.39522 0.20130 0.75419 0.0
O553 O 0.41910 0.22207 0.68179 0.0
O554 O 0.38185 0.15618 0.46417 0.0
O555 O 0.41899 0.16538 0.69129 0.0
O556 O 0.39553 0.14835 0.76877 0.0
O557 O 0.40922 0.20344 0.49659 0.0
O558 O 0.37099 0.13204 0.60010 0.0
O559 O 0.34711 0.11126 0.67250 0.0
C560 C 0.35425 0.18198 0.61443 0.0
C561 C 0.37608 0.15021 0.98263 0.0
C562 C 0.39639 0.17205 0.10825 0.0
C563 C 0.38103 0.14529 0.12512 0.0
C564 C 0.36103 0.12357 0.00010 0.0
C565 C 0.36367 0.12105 0.07219 0.0
C566 C 0.39375 0.17400 0.03636 0.0
C567 C 0.41411 0.22191 0.74237 0.0
C568 C 0.37213 0.15251 0.90565 0.0
C569 C 0.27371 0.14672 0.78074 0.0
C570 C 0.28768 0.17553 0.80804 0.0
C571 C 0.41196 0.15135 0.73986 0.0
C572 C 0.39013 0.18313 0.37166 0.0
C573 C 0.36981 0.16129 0.24604 0.0
C574 C 0.38518 0.18805 0.22917 0.0
C575 C 0.40518 0.20977 0.35368 0.0
C576 C 0.37245 0.15933 0.31793 0.0
C577 C 0.40254 0.21228 0.28210 0.0
C578 C 0.35210 0.11143 0.61192 0.0
C579 C 0.39408 0.18082 0.44864 0.0
H580 H 0.38254 0.14379 0.17307 0.0
H581 H 0.34919 0.10750 0.96462 0.0
H582 H 0.35386 0.10328 0.08412 0.0
H583 H 0.40403 0.19156 0.02421 0.0
H584 H 0.38367 0.18954 0.18122 0.0
H585 H 0.41702 0.22584 0.38967 0.0
H586 H 0.36218 0.14178 0.33008 0.0
H587 H 0.41235 0.23005 0.27017 0.0
Tb588 Tb 0.87481 0.18434 0.59228 0.0
C589 C 0.92803 0.12144 0.78620 0.0
N590 N 0.90435 0.11081 0.75893 0.0
C591 C 0.89788 0.06332 0.71781 0.0
C592 C 0.93663 0.10244 0.77792 0.0
C593 C 0.88982 0.08236 0.72657 0.0
C594 C 0.92083 0.07264 0.74069 0.0
C595 C 0.96804 0.16276 0.84757 0.0
C596 C 0.94367 0.15170 0.82133 0.0
C597 C 0.97644 0.14332 0.83924 0.0
C598 C 0.96176 0.11508 0.80658 0.0
Tb599 Tb 0.89141 0.14900 0.76208 0.0
N600 N 0.93439 0.16890 0.82822 0.0
C601 C 0.98296 0.19316 0.88044 0.0
C602 C 0.94943 0.19741 0.86057 0.0
C603 C 0.97396 0.21007 0.88730 0.0
H604 H 0.87376 0.07502 0.70926 0.0
H605 H 0.98374 0.22997 0.90950 0.0
H606 H 0.89246 0.25832 0.64510 0.0
H607 H 0.78248 0.10337 0.44486 0.0
H608 H 0.94336 0.20944 0.86565 0.0
H609 H 0.99990 0.20142 0.89738 0.0
H610 H 0.82286 0.12390 0.48871 0.0
H611 H 0.88705 0.04359 0.69549 0.0
H612 H 0.99243 0.15051 0.85696 0.0
H613 H 0.96781 0.10301 0.80191 0.0
H614 H 0.87917 0.28975 0.65887 0.0
H615 H 0.92621 0.05998 0.73237 0.0
H616 H 0.76701 0.13192 0.45698 0.0
N617 N 0.86186 0.22253 0.59543 0.0
C618 C 0.83819 0.21190 0.56816 0.0
C619 C 0.86834 0.27002 0.63655 0.0
C620 C 0.82959 0.23090 0.57644 0.0
C621 C 0.87640 0.25098 0.62779 0.0
C622 C 0.84539 0.26070 0.61367 0.0
N623 N 0.83183 0.16444 0.52614 0.0
C624 C 0.81679 0.13593 0.49379 0.0
C625 C 0.79817 0.17058 0.50679 0.0
C626 C 0.82254 0.18164 0.53303 0.0
C627 C 0.78325 0.14018 0.47392 0.0
C628 C 0.79226 0.12327 0.46706 0.0
H629 H 0.84001 0.27336 0.62199 0.0
H630 H 0.79841 0.23033 0.55246 0.0
H631 H 0.77378 0.18283 0.49740 0.0
O632 O 0.87138 0.16513 0.46449 0.0
O633 O 0.85084 0.17486 0.67926 0.0
O634 O 0.85683 0.15044 0.75680 0.0
O635 O 0.89138 0.21314 0.50449 0.0
O636 O 0.86072 0.13569 0.59297 0.0
O637 O 0.86355 0.10804 0.66432 0.0
O638 O 0.89484 0.16821 0.88987 0.0
O639 O 0.91538 0.15848 0.67510 0.0
O640 O 0.90939 0.18290 0.59756 0.0
O641 O 0.87483 0.12020 0.84987 0.0
O642 O 0.90550 0.19765 0.76139 0.0
O643 O 0.90267 0.22530 0.69004 0.0
C644 C 0.84482 0.15871 0.72424 0.0
C645 C 0.88751 0.19470 0.38052 0.0
C646 C 0.88328 0.17458 0.25570 0.0
C647 C 0.89420 0.20307 0.24377 0.0
C648 C 0.89858 0.22303 0.36755 0.0
C649 C 0.90212 0.22724 0.29892 0.0
C650 C 0.88027 0.17086 0.32484 0.0
C651 C 0.85844 0.11185 0.60324 0.0
C652 C 0.88310 0.19083 0.45411 0.0
C653 C 0.80446 0.21826 0.54778 0.0
C654 C 0.78978 0.19002 0.51512 0.0
C655 C 0.92140 0.17463 0.63012 0.0
C656 C 0.87871 0.13864 0.97384 0.0
C657 C 0.88293 0.15876 0.09866 0.0
C658 C 0.87201 0.13027 0.11059 0.0
C659 C 0.86764 0.11031 0.98681 0.0
C660 C 0.88595 0.16248 0.02952 0.0
C661 C 0.86410 0.10610 0.05544 0.0
C662 C 0.90778 0.22149 0.75112 0.0
C663 C 0.88312 0.14251 0.90025 0.0
H664 H 0.89618 0.20579 0.19764 0.0
H665 H 0.90355 0.23911 0.40489 0.0
H666 H 0.90970 0.24607 0.29040 0.0
H667 H 0.87329 0.15208 0.33380 0.0
H668 H 0.87004 0.12755 0.15672 0.0
H669 H 0.86266 0.09423 0.94947 0.0
H670 H 0.89293 0.18126 0.02056 0.0
H671 H 0.85652 0.08727 0.06396 0.0
Tb672 Tb 0.89837 0.70008 0.77487 0.0
C673 C 0.82004 0.56058 0.53418 0.0
N674 N 0.84440 0.57586 0.55920 0.0
C675 C 0.84115 0.53115 0.57522 0.0
C676 C 0.80613 0.53000 0.53074 0.0
C677 C 0.85446 0.56115 0.57812 0.0
C678 C 0.81738 0.51540 0.55405 0.0
C679 C 0.78411 0.56048 0.48949 0.0
C680 C 0.80912 0.57599 0.51332 0.0
C681 C 0.77033 0.52964 0.48589 0.0
C682 C 0.78061 0.51535 0.50525 0.0
Tb683 Tb 0.86782 0.63322 0.57930 0.0
N684 N 0.82338 0.60533 0.51724 0.0
C685 C 0.77408 0.57697 0.47110 0.0
C686 C 0.81278 0.61956 0.49829 0.0
C687 C 0.78797 0.60568 0.47487 0.0
H688 H 0.87092 0.57131 0.59381 0.0
H689 H 0.78136 0.61640 0.46212 0.0
H690 H 0.89527 0.76200 0.76036 0.0
H691 H 0.98483 0.71690 0.89204 0.0
H692 H 0.82228 0.63961 0.50073 0.0
H693 H 0.75764 0.56768 0.45630 0.0
H694 H 0.94391 0.69369 0.85344 0.0
H695 H 0.84896 0.52176 0.58832 0.0
H696 H 0.75389 0.51937 0.46971 0.0
H697 H 0.77111 0.49525 0.50239 0.0
H698 H 0.91723 0.81154 0.76585 0.0
H699 H 0.80857 0.49556 0.55466 0.0
H700 H 0.00856 0.76563 0.89787 0.0
N701 N 0.92180 0.75744 0.79497 0.0
C702 C 0.94615 0.77272 0.81999 0.0
C703 C 0.92504 0.80215 0.77895 0.0
C704 C 0.96006 0.80330 0.82342 0.0
C705 C 0.91173 0.77215 0.77605 0.0
C706 C 0.94881 0.81790 0.80012 0.0
N707 N 0.94281 0.72797 0.83693 0.0
C708 C 0.95342 0.71374 0.85587 0.0
C709 C 0.98208 0.77282 0.86467 0.0
C710 C 0.95708 0.75731 0.84085 0.0
C711 C 0.99212 0.75634 0.88306 0.0
C712 C 0.97823 0.72762 0.87930 0.0
H713 H 0.95762 0.83774 0.79951 0.0
H714 H 0.99509 0.83805 0.85178 0.0
H715 H 0.01230 0.81393 0.88446 0.0
O716 O 0.90038 0.68849 0.89495 0.0
O717 O 0.92086 0.71123 0.68392 0.0
O718 O 0.90670 0.67304 0.59015 0.0
O719 O 0.88874 0.71901 0.87856 0.0
O720 O 0.90241 0.66030 0.74857 0.0
O721 O 0.89112 0.62223 0.65972 0.0
O722 O 0.86582 0.64481 0.45921 0.0
O723 O 0.84534 0.62207 0.67024 0.0
O724 O 0.85950 0.66026 0.76402 0.0
O725 O 0.87746 0.61429 0.47561 0.0
O726 O 0.86379 0.67301 0.60560 0.0
O727 O 0.87507 0.71107 0.69445 0.0
C728 C 0.92272 0.69723 0.62967 0.0
C729 C 0.89133 0.70858 0.99524 0.0
C730 C 0.89393 0.69669 0.11189 0.0
C731 C 0.88885 0.71764 0.13870 0.0
C732 C 0.88607 0.72924 0.02301 0.0
C733 C 0.88463 0.73359 0.09498 0.0
C734 C 0.89490 0.69229 0.03959 0.0
C735 C 0.89903 0.63523 0.72491 0.0
C736 C 0.89371 0.70532 0.91850 0.0
C737 C 0.98558 0.81795 0.84892 0.0
C738 C 0.99587 0.80366 0.86828 0.0
C739 C 0.84348 0.63607 0.72450 0.0
C740 C 0.87487 0.62472 0.35893 0.0
C741 C 0.87226 0.63661 0.24228 0.0
C742 C 0.87734 0.61566 0.21547 0.0
C743 C 0.88012 0.60406 0.33116 0.0
C744 C 0.87130 0.64101 0.31457 0.0
C745 C 0.88157 0.59971 0.25918 0.0
C746 C 0.86716 0.69807 0.62925 0.0
C747 C 0.87249 0.62798 0.43567 0.0
H748 H 0.88831 0.72088 0.18707 0.0
H749 H 0.88357 0.74015 0.99329 0.0
H750 H 0.88088 0.74708 0.11330 0.0
H751 H 0.89798 0.67818 0.02077 0.0
H752 H 0.87789 0.61242 0.16710 0.0
H753 H 0.88263 0.59316 0.36088 0.0
H754 H 0.86822 0.65512 0.33339 0.0
H755 H 0.88531 0.58622 0.24086 0.0
C756 C 0.01801 0.45443 0.78259 0.0
C757 C 0.02011 0.47891 0.82472 0.0
C758 C 0.01611 0.45224 0.70839 0.0
C759 C 0.01592 0.47339 0.67676 0.0
C760 C 0.01708 0.49763 0.71882 0.0
C761 C 0.01929 0.49986 0.79304 0.0
C762 C 0.01411 0.42556 0.66187 0.0
C763 C 0.01622 0.52105 0.68590 0.0
C764 C 0.03978 0.48522 0.50965 0.0
C765 C 0.01961 0.47242 0.45563 0.0
C766 C 0.03873 0.48608 0.58049 0.0
C767 C 0.01710 0.47299 0.59878 0.0
C768 C 0.99601 0.45879 0.54488 0.0
C769 C 0.99703 0.45849 0.47202 0.0
C770 C 0.06176 0.50159 0.63863 0.0
C771 C 0.97141 0.44534 0.56323 0.0
H772 H 0.01786 0.43979 0.80353 0.0
H773 H 0.02028 0.51580 0.82174 0.0
H774 H 0.00509 0.42129 0.61389 0.0
H775 H 0.02978 0.42988 0.65964 0.0
H776 H 0.00631 0.40888 0.68299 0.0
H777 H 0.02458 0.53934 0.72149 0.0
H778 H 0.02364 0.52355 0.64547 0.0
H779 H 0.99990 0.51528 0.66971 0.0
H780 H 0.05453 0.49357 0.49762 0.0
H781 H 0.98324 0.44944 0.43562 0.0
H782 H 0.06285 0.48744 0.66117 0.0
H783 H 0.06187 0.51587 0.67431 0.0
H784 H 0.07510 0.51136 0.61697 0.0
H785 H 0.96481 0.42485 0.56156 0.0
H786 H 0.96105 0.44762 0.52869 0.0
H787 H 0.97302 0.45528 0.61082 0.0
C788 C 0.59486 0.47450 0.71291 0.0
C789 C 0.58963 0.49343 0.75046 0.0
C790 C 0.59349 0.47242 0.63892 0.0
C791 C 0.58676 0.48822 0.60303 0.0
C792 C 0.58052 0.50652 0.64032 0.0
C793 C 0.58225 0.50879 0.71441 0.0
C794 C 0.59953 0.45192 0.59746 0.0
C795 C 0.57232 0.52370 0.60252 0.0
C796 C 0.61088 0.50940 0.44000 0.0
C797 C 0.59171 0.49058 0.38371 0.0
C798 C 0.60928 0.50912 0.51018 0.0
C799 C 0.58839 0.48895 0.52567 0.0
C800 C 0.56860 0.46865 0.46955 0.0
C801 C 0.56998 0.46935 0.39723 0.0
C802 C 0.63090 0.53130 0.57074 0.0
C803 C 0.54439 0.44679 0.48444 0.0
H804 H 0.59920 0.46343 0.73673 0.0
H805 H 0.57839 0.52093 0.74003 0.0
H806 H 0.59055 0.44472 0.54825 0.0
H807 H 0.61625 0.46263 0.59828 0.0
H808 H 0.59568 0.43568 0.61996 0.0
H809 H 0.57623 0.54107 0.63638 0.0
H810 H 0.58017 0.52934 0.56357 0.0
H811 H 0.55542 0.51174 0.58350 0.0
H812 H 0.62530 0.52272 0.42999 0.0
H813 H 0.55697 0.45625 0.35934 0.0
H814 H 0.63650 0.52117 0.59636 0.0
H815 H 0.62653 0.54174 0.60343 0.0
H816 H 0.64326 0.54505 0.55049 0.0
H817 H 0.54315 0.42843 0.48529 0.0
H818 H 0.53182 0.44374 0.44695 0.0
H819 H 0.54309 0.45466 0.53026 0.0
C820 C 0.56980 0.09106 0.66622 0.0
C821 C 0.57905 0.07573 0.69513 0.0
C822 C 0.57120 0.09473 0.59593 0.0
C823 C 0.58177 0.08398 0.55597 0.0
C824 C 0.59201 0.06947 0.58612 0.0
C825 C 0.59026 0.06554 0.65601 0.0
C826 C 0.56077 0.11124 0.56345 0.0
C827 C 0.60447 0.05800 0.54478 0.0
C828 C 0.55981 0.06264 0.35457 0.0
C829 C 0.57758 0.08510 0.33215 0.0
C830 C 0.56125 0.06188 0.42586 0.0
C831 C 0.58040 0.08449 0.47721 0.0
C832 C 0.59858 0.10838 0.45670 0.0
C833 C 0.59746 0.10888 0.38320 0.0
C834 C 0.54140 0.03581 0.44754 0.0
C835 C 0.62107 0.13335 0.51209 0.0
H836 H 0.56282 0.09873 0.69330 0.0
H837 H 0.59673 0.05582 0.67658 0.0
H838 H 0.56950 0.12086 0.52918 0.0
H839 H 0.54436 0.09747 0.53932 0.0
H840 H 0.56184 0.12561 0.60137 0.0
H841 H 0.60335 0.04151 0.56175 0.0
H842 H 0.59703 0.05182 0.49408 0.0
H843 H 0.62092 0.07325 0.55198 0.0
H844 H 0.54647 0.04753 0.32022 0.0
H845 H 0.60946 0.12439 0.36854 0.0
H846 H 0.53319 0.04228 0.47441 0.0
H847 H 0.54809 0.02752 0.47687 0.0
H848 H 0.53045 0.02112 0.40487 0.0
H849 H 0.61894 0.14923 0.52744 0.0
H850 H 0.63450 0.14022 0.49014 0.0
H851 H 0.62384 0.12612 0.55311 0.0
C852 C 0.75788 0.88063 0.57695 0.0
C853 C 0.74257 0.85382 0.52765 0.0
C854 C 0.75700 0.88233 0.64963 0.0
C855 C 0.74119 0.85834 0.67258 0.0
C856 C 0.72499 0.83144 0.62236 0.0
C857 C 0.72620 0.82982 0.55000 0.0
C858 C 0.77401 0.91168 0.70431 0.0
C859 C 0.70677 0.80464 0.64492 0.0
C860 C 0.75867 0.85385 0.86213 0.0
C861 C 0.74505 0.86066 0.89781 0.0
C862 C 0.75719 0.85254 0.78992 0.0
C863 C 0.74246 0.85919 0.75189 0.0
C864 C 0.72881 0.86723 0.78693 0.0
C865 C 0.72984 0.86788 0.86090 0.0
C866 C 0.77209 0.84376 0.75238 0.0
C867 C 0.71099 0.87315 0.74554 0.0
H868 H 0.76850 0.89714 0.56169 0.0
H869 H 0.71581 0.81221 0.51619 0.0
H870 H 0.76674 0.91306 0.74344 0.0
H871 H 0.78851 0.91271 0.72292 0.0
H872 H 0.77750 0.92759 0.68084 0.0
H873 H 0.70301 0.78717 0.61183 0.0
H874 H 0.71313 0.80459 0.69283 0.0
H875 H 0.69259 0.80501 0.64458 0.0
H876 H 0.76914 0.84998 0.88786 0.0
H877 H 0.72074 0.87288 0.88487 0.0
H878 H 0.78375 0.86017 0.73677 0.0
H879 H 0.76194 0.82769 0.71125 0.0
H880 H 0.77988 0.83773 0.78551 0.0
H881 H 0.71851 0.89381 0.74770 0.0
H882 H 0.69749 0.86664 0.76713 0.0
H883 H 0.70577 0.86257 0.69599 0.0
C884 C 0.19576 0.85734 0.65422 0.0
C885 C 0.17440 0.84002 0.60263 0.0
C886 C 0.19524 0.85954 0.72721 0.0
C887 C 0.17419 0.84542 0.74844 0.0
C888 C 0.15244 0.82882 0.69637 0.0
C889 C 0.15313 0.82640 0.62356 0.0
C890 C 0.21871 0.87825 0.78424 0.0
C891 C 0.12875 0.81357 0.71734 0.0
C892 C 0.17530 0.82271 0.92478 0.0
C893 C 0.17341 0.84281 0.96996 0.0
C894 C 0.17511 0.82310 0.85365 0.0
C895 C 0.17389 0.84461 0.82650 0.0
C896 C 0.17274 0.86619 0.87157 0.0
C897 C 0.17233 0.86543 0.94440 0.0
C898 C 0.17635 0.79953 0.80516 0.0
C899 C 0.16992 0.88968 0.84242 0.0
H900 H 0.21014 0.86727 0.64027 0.0
H901 H 0.13900 0.81535 0.58844 0.0
H902 H 0.21602 0.88615 0.82729 0.0
H903 H 0.22477 0.86615 0.79544 0.0
H904 H 0.23004 0.89403 0.76569 0.0
H905 H 0.11731 0.79667 0.67951 0.0
H906 H 0.13045 0.80735 0.76134 0.0
H907 H 0.12336 0.82689 0.72460 0.0
H908 H 0.17670 0.80843 0.94314 0.0
H909 H 0.17133 0.87937 0.97490 0.0
H910 H 0.19109 0.80842 0.79028 0.0
H911 H 0.16336 0.79015 0.76331 0.0
H912 H 0.17528 0.78509 0.83137 0.0
H913 H 0.18527 0.90719 0.84901 0.0
H914 H 0.16031 0.89407 0.86819 0.0
H915 H 0.16231 0.88235 0.79189 0.0
C916 C 0.20968 0.27993 0.71459 0.0
C917 C 0.18863 0.26178 0.66208 0.0
C918 C 0.20925 0.27901 0.78681 0.0
C919 C 0.18855 0.26102 0.80653 0.0
C920 C 0.16701 0.24347 0.75379 0.0
C921 C 0.16764 0.24422 0.68166 0.0
C922 C 0.23241 0.29864 0.84476 0.0
C923 C 0.14363 0.22394 0.77328 0.0
C924 C 0.19321 0.23325 0.97333 0.0
C925 C 0.18916 0.24975 0.02318 0.0
C926 C 0.19259 0.23637 0.90370 0.0
C927 C 0.18873 0.25714 0.88291 0.0
C928 C 0.18531 0.27515 0.93294 0.0
C929 C 0.18533 0.27151 0.00422 0.0
C930 C 0.19632 0.21667 0.84977 0.0
C931 C 0.17951 0.29753 0.91091 0.0
H932 H 0.22378 0.29247 0.70174 0.0
H933 H 0.15366 0.23263 0.64606 0.0
H934 H 0.22887 0.30376 0.88940 0.0
H935 H 0.24027 0.28816 0.85180 0.0
H936 H 0.24258 0.31619 0.82932 0.0
H937 H 0.13316 0.20754 0.73314 0.0
H938 H 0.14637 0.21677 0.81457 0.0
H939 H 0.13643 0.23495 0.78459 0.0
H940 H 0.19640 0.21957 0.98739 0.0
H941 H 0.18286 0.28304 0.03794 0.0
H942 H 0.21092 0.22834 0.83569 0.0
H943 H 0.18334 0.20710 0.80786 0.0
H944 H 0.19694 0.20205 0.87179 0.0
H945 H 0.19390 0.31646 0.92008 0.0
H946 H 0.16892 0.29873 0.93855 0.0
H947 H 0.17198 0.29125 0.86037 0.0
C948 C 0.33352 0.14423 0.21008 0.0
C949 C 0.33629 0.13047 0.26373 0.0
C950 C 0.35292 0.16099 0.18108 0.0
C951 C 0.37450 0.16443 0.20532 0.0
C952 C 0.37764 0.15150 0.26171 0.0
C953 C 0.35808 0.13445 0.28970 0.0
C954 C 0.34991 0.17587 0.12134 0.0
C955 C 0.40132 0.15541 0.29161 0.0
C956 C 0.41371 0.17647 0.07427 0.0
C957 C 0.43084 0.20586 0.09702 0.0
C958 C 0.39593 0.16300 0.10946 0.0
C959 C 0.39440 0.17914 0.16741 0.0
C960 C 0.41112 0.20948 0.19091 0.0
C961 C 0.42981 0.22330 0.15596 0.0
C962 C 0.37786 0.13002 0.08349 0.0
C963 C 0.41092 0.22812 0.25833 0.0
H964 H 0.31898 0.14228 0.19384 0.0
H965 H 0.35975 0.12556 0.32648 0.0
H966 H 0.36481 0.19358 0.12395 0.0
H967 H 0.34489 0.16272 0.07498 0.0
H968 H 0.33811 0.18052 0.12750 0.0
H969 H 0.39871 0.13868 0.31050 0.0
H970 H 0.40971 0.15701 0.25368 0.0
H971 H 0.41065 0.17295 0.32957 0.0
H972 H 0.41428 0.16546 0.03391 0.0
H973 H 0.44120 0.24333 0.17123 0.0
H974 H 0.36255 0.12666 0.06463 0.0
H975 H 0.37711 0.12070 0.12332 0.0
H976 H 0.38262 0.12191 0.04631 0.0
H977 H 0.40221 0.23690 0.24406 0.0
H978 H 0.42700 0.24329 0.28264 0.0
H979 H 0.40353 0.21580 0.29053 0.0
C980 C 0.88998 0.15250 0.32651 0.0
C981 C 0.86841 0.14725 0.33994 0.0
C982 C 0.89466 0.15728 0.25905 0.0
C983 C 0.87833 0.15641 0.20616 0.0
C984 C 0.85607 0.14992 0.21857 0.0
C985 C 0.85166 0.14556 0.28642 0.0
C986 C 0.91849 0.16346 0.24425 0.0
C987 C 0.83725 0.14787 0.16107 0.0
C988 C 0.90148 0.20271 0.07217 0.0
C989 C 0.89649 0.18247 0.01110 0.0
C990 C 0.89532 0.19445 0.13422 0.0
C991 C 0.88468 0.16545 0.13729 0.0
C992 C 0.87999 0.14417 0.07669 0.0
C993 C 0.88575 0.15247 0.01212 0.0
C994 C 0.90049 0.21776 0.19973 0.0
C995 C 0.86679 0.11116 0.07633 0.0
H996 H 0.90107 0.15281 0.36188 0.0
H997 H 0.83717 0.14150 0.29581 0.0
H998 H 0.91649 0.15640 0.19365 0.0
H999 H 0.92994 0.18432 0.25788 0.0
H1000 H 0.92398 0.15365 0.27206 0.0
H1001 H 0.82738 0.15283 0.18374 0.0
H1002 H 0.84474 0.16139 0.13123 0.0
H1003 H 0.82762 0.12820 0.13158 0.0
H1004 H 0.90922 0.22255 0.07113 0.0
H1005 H 0.88257 0.13863 0.97119 0.0
H1006 H 0.91224 0.21952 0.23761 0.0
H1007 H 0.88614 0.21212 0.21618 0.0
H1008 H 0.90625 0.23633 0.18648 0.0
H1009 H 0.87812 0.10579 0.08930 0.0
H1010 H 0.85706 0.09990 0.02879 0.0
H1011 H 0.85686 0.10718 0.11048 0.0
C1012 C 0.85308 0.60449 0.20553 0.0
C1013 C 0.84957 0.61374 0.27148 0.0
C1014 C 0.86430 0.62515 0.16498 0.0
C1015 C 0.87147 0.65398 0.18845 0.0
C1016 C 0.86709 0.66320 0.25383 0.0
C1017 C 0.85616 0.64251 0.29450 0.0
C1018 C 0.86850 0.61519 0.09282 0.0
C1019 C 0.87406 0.69460 0.28079 0.0
C1020 C 0.92409 0.71086 0.13043 0.0
C1021 C 0.91401 0.71899 0.07861 0.0
C1022 C 0.91063 0.69051 0.16665 0.0
C1023 C 0.88636 0.67687 0.14959 0.0
C1024 C 0.87529 0.68386 0.09517 0.0
C1025 C 0.88912 0.70534 0.05901 0.0
C1026 C 0.92285 0.68310 0.22572 0.0
C1027 C 0.84823 0.67040 0.07725 0.0
H1028 H 0.84803 0.58487 0.18879 0.0
H1029 H 0.85329 0.64822 0.33803 0.0
H1030 H 0.86834 0.62733 0.06066 0.0
H1031 H 0.88371 0.61705 0.10105 0.0
H1032 H 0.85619 0.59501 0.07175 0.0
H1033 H 0.87698 0.69909 0.33267 0.0
H1034 H 0.88828 0.70774 0.26623 0.0
H1035 H 0.86146 0.69707 0.26081 0.0
H1036 H 0.94051 0.71949 0.14120 0.0
H1037 H 0.88210 0.71046 0.02329 0.0
H1038 H 0.91870 0.66323 0.21077 0.0
H1039 H 0.91780 0.68536 0.26953 0.0
H1040 H 0.93980 0.69618 0.23427 0.0
H1041 H 0.84075 0.65339 0.03808 0.0
H1042 H 0.84498 0.68469 0.06363 0.0
H1043 H 0.84210 0.66485 0.11902 0.0
C1044 C 0.16088 0.32344 0.28218 0.0
C1045 C 0.15157 0.29880 0.31179 0.0
C1046 C 0.14841 0.33747 0.27465 0.0
C1047 C 0.12718 0.32711 0.29471 0.0
C1048 C 0.11721 0.30145 0.32200 0.0
C1049 C 0.12994 0.28781 0.33029 0.0
C1050 C 0.15872 0.36484 0.24300 0.0
C1051 C 0.09349 0.28874 0.34285 0.0
C1052 C 0.11112 0.38187 0.35592 0.0
C1053 C 0.09401 0.37663 0.29821 0.0
C1054 C 0.12146 0.36576 0.35565 0.0
C1055 C 0.11542 0.34447 0.29563 0.0
C1056 C 0.09856 0.33910 0.23449 0.0
C1057 C 0.08743 0.35513 0.23523 0.0
C1058 C 0.13975 0.37177 0.42239 0.0
C1059 C 0.09020 0.31425 0.16762 0.0
H1060 H 0.17518 0.33044 0.26766 0.0
H1061 H 0.12375 0.27101 0.34874 0.0
H1062 H 0.14598 0.36610 0.21824 0.0
H1063 H 0.16879 0.38207 0.28155 0.0
H1064 H 0.16788 0.36353 0.20971 0.0
H1065 H 0.09314 0.27824 0.37989 0.0
H1066 H 0.09132 0.30440 0.36091 0.0
H1067 H 0.08090 0.27554 0.30128 0.0
H1068 H 0.11575 0.39675 0.39628 0.0
H1069 H 0.07604 0.35167 0.19548 0.0
H1070 H 0.15502 0.37965 0.41109 0.0
H1071 H 0.13520 0.35373 0.43739 0.0
H1072 H 0.14047 0.38564 0.46091 0.0
H1073 H 0.09943 0.32198 0.13279 0.0
H1074 H 0.07367 0.30604 0.14666 0.0
H1075 H 0.09220 0.29915 0.18179 0.0
C1076 C 0.66425 0.61355 0.11188 0.0
C1077 C 0.64053 0.59818 0.11618 0.0
C1078 C 0.67547 0.64349 0.11320 0.0
C1079 C 0.66345 0.65764 0.11743 0.0
C1080 C 0.63915 0.64188 0.11885 0.0
C1081 C 0.62816 0.61208 0.11851 0.0
C1082 C 0.70166 0.66062 0.10946 0.0
C1083 C 0.62500 0.65641 0.12138 0.0
C1084 C 0.69876 0.73787 0.20731 0.0
C1085 C 0.70024 0.75111 0.15023 0.0
C1086 C 0.68666 0.70801 0.19727 0.0
C1087 C 0.67638 0.69055 0.12864 0.0
C1088 C 0.67817 0.70328 0.06861 0.0
C1089 C 0.69010 0.73399 0.07880 0.0
C1090 C 0.68481 0.69441 0.26289 0.0
C1091 C 0.66570 0.68451 0.99091 0.0
H1092 H 0.67248 0.60403 0.10818 0.0
H1093 H 0.61221 0.60138 0.12002 0.0
H1094 H 0.70473 0.67652 0.08637 0.0
H1095 H 0.71151 0.66842 0.15768 0.0
H1096 H 0.70515 0.64767 0.08230 0.0
H1097 H 0.61226 0.64610 0.14484 0.0
H1098 H 0.63519 0.67650 0.14812 0.0
H1099 H 0.61855 0.65594 0.07306 0.0
H1100 H 0.70616 0.74956 0.25401 0.0
H1101 H 0.69126 0.74281 0.03969 0.0
H1102 H 0.69343 0.68478 0.26283 0.0
H1103 H 0.66838 0.68035 0.26089 0.0
H1104 H 0.69136 0.70958 0.30635 0.0
H1105 H 0.67657 0.68135 0.96931 0.0
H1106 H 0.66053 0.69459 0.96298 0.0
H1107 H 0.65215 0.66591 0.99197 0.0
C1108 C 0.42556 0.00749 0.15879 0.0
C1109 C 0.43071 0.99464 0.10195 0.0
C1110 C 0.40240 0.99302 0.16888 0.0
C1111 C 0.38480 0.96688 0.12338 0.0
C1112 C 0.38973 0.95438 0.06400 0.0
C1113 C 0.41298 0.96876 0.05487 0.0
C1114 C 0.39669 0.00685 0.23190 0.0
C1115 C 0.37071 0.92601 0.01118 0.0
C1116 C 0.33508 0.91463 0.19995 0.0
C1117 C 0.31659 0.91723 0.17140 0.0
C1118 C 0.35677 0.93002 0.18374 0.0
C1119 C 0.36073 0.94944 0.14007 0.0
C1120 C 0.34250 0.95348 0.11170 0.0
C1121 C 0.31996 0.93713 0.12678 0.0
C1122 C 0.37645 0.92545 0.21483 0.0
C1123 C 0.34572 0.97372 0.05900 0.0
H1124 H 0.43736 0.02542 0.18950 0.0
H1125 H 0.41661 0.96074 0.01640 0.0
H1126 H 0.38040 0.00132 0.21930 0.0
H1127 H 0.39915 0.99990 0.27400 0.0
H1128 H 0.40698 0.02789 0.24200 0.0
H1129 H 0.37789 0.91623 0.99058 0.0
H1130 H 0.35930 0.91343 0.03603 0.0
H1131 H 0.36280 0.93019 0.97333 0.0
H1132 H 0.33272 0.90201 0.23104 0.0
H1133 H 0.30759 0.93930 0.10788 0.0
H1134 H 0.38894 0.94309 0.24822 0.0
H1135 H 0.38261 0.92063 0.17626 0.0
H1136 H 0.37013 0.90960 0.23934 0.0
H1137 H 0.35055 0.99285 0.08548 0.0
H1138 H 0.33091 0.96555 0.02457 0.0
H1139 H 0.35764 0.97526 0.03382 0.0
C1140 C 0.50651 0.10812 0.97735 0.0
C1141 C 0.52830 0.12136 0.95777 0.0
C1142 C 0.48950 0.11379 0.94825 0.0
C1143 C 0.49407 0.13238 0.90214 0.0
C1144 C 0.51647 0.14676 0.88447 0.0
C1145 C 0.53325 0.14067 0.91298 0.0
C1146 C 0.46537 0.09898 0.96883 0.0
C1147 C 0.52254 0.16811 0.83549 0.0
C1148 C 0.44231 0.11853 0.76451 0.0
C1149 C 0.43889 0.14042 0.79148 0.0
C1150 C 0.46019 0.11618 0.79891 0.0
C1151 C 0.47467 0.13533 0.86340 0.0
C1152 C 0.47125 0.15744 0.89406 0.0
C1153 C 0.45324 0.16040 0.85790 0.0
C1154 C 0.46376 0.09209 0.76509 0.0
C1155 C 0.48796 0.18049 0.96410 0.0
H1156 H 0.50335 0.09571 0.00930 0.0
H1157 H 0.54805 0.14975 0.90148 0.0
H1158 H 0.45909 0.11141 0.96733 0.0
H1159 H 0.45456 0.08042 0.93502 0.0
H1160 H 0.46732 0.09575 0.01673 0.0
H1161 H 0.53428 0.16820 0.81141 0.0
H1162 H 0.50848 0.16216 0.79995 0.0
H1163 H 0.52871 0.18754 0.86361 0.0
H1164 H 0.43221 0.10500 0.72161 0.0
H1165 H 0.45086 0.17510 0.87704 0.0
H1166 H 0.46024 0.07822 0.79499 0.0
H1167 H 0.47997 0.10069 0.76087 0.0
H1168 H 0.45335 0.08225 0.71785 0.0
H1169 H 0.48148 0.17408 0.00472 0.0
H1170 H 0.48956 0.19899 0.96159 0.0
H1171 H 0.50331 0.18287 0.96947 0.0
C1172 C 0.94249 0.25994 0.84796 0.0
C1173 C 0.92013 0.25020 0.80653 0.0
C1174 C 0.95547 0.28797 0.89349 0.0
C1175 C 0.94674 0.30597 0.89697 0.0
C1176 C 0.92451 0.29664 0.85291 0.0
C1177 C 0.91151 0.26846 0.80831 0.0
C1178 C 0.97996 0.29867 0.93994 0.0
C1179 C 0.91448 0.31609 0.85340 0.0
C1180 C 0.96629 0.36050 0.07170 0.0
C1181 C 0.98222 0.38664 0.05665 0.0
C1182 C 0.95458 0.33475 0.02052 0.0
C1183 C 0.95929 0.33446 0.95298 0.0
C1184 C 0.97607 0.36059 0.93615 0.0
C1185 C 0.98773 0.38728 0.98812 0.0
C1186 C 0.93637 0.30648 0.03938 0.0
C1187 C 0.98087 0.36159 0.85978 0.0
H1188 H 0.94868 0.24797 0.84533 0.0
H1189 H 0.89673 0.26183 0.77931 0.0
H1190 H 0.98988 0.31968 0.94793 0.0
H1191 H 0.97816 0.29327 0.98569 0.0
H1192 H 0.98712 0.28969 0.91551 0.0
H1193 H 0.89741 0.30404 0.84039 0.0
H1194 H 0.91952 0.32839 0.90100 0.0
H1195 H 0.92009 0.32823 0.81933 0.0
H1196 H 0.96339 0.36037 0.11794 0.0
H1197 H 0.99873 0.40487 0.97771 0.0
H1198 H 0.94204 0.29347 0.03905 0.0
H1199 H 0.92154 0.29718 0.00437 0.0
H1200 H 0.93400 0.31103 0.08659 0.0
H1201 H 0.99412 0.35948 0.85729 0.0
H1202 H 0.98439 0.38010 0.84945 0.0
H1203 H 0.96704 0.34587 0.82491 0.0
C1204 C 0.81282 0.59513 0.74986 0.0
C1205 C 0.82616 0.62522 0.75360 0.0
C1206 C 0.79617 0.58465 0.79242 0.0
C1207 C 0.79312 0.60344 0.83814 0.0
C1208 C 0.80728 0.63405 0.84425 0.0
C1209 C 0.82363 0.64431 0.80082 0.0
C1210 C 0.78121 0.55152 0.78785 0.0
C1211 C 0.80500 0.65566 0.89553 0.0
C1212 C 0.73276 0.57430 0.87720 0.0
C1213 C 0.73591 0.57034 0.94609 0.0
C1214 C 0.75108 0.58538 0.84296 0.0
C1215 C 0.77304 0.59180 0.87645 0.0
C1216 C 0.77680 0.58713 0.94604 0.0
C1217 C 0.75815 0.57642 0.98221 0.0
C1218 C 0.74680 0.59039 0.76737 0.0
C1219 C 0.80150 0.59566 0.98738 0.0
H1220 H 0.81496 0.58223 0.71953 0.0
H1221 H 0.83298 0.66439 0.80365 0.0
H1222 H 0.77716 0.54821 0.83348 0.0
H1223 H 0.76688 0.54276 0.75076 0.0
H1224 H 0.79016 0.54287 0.77622 0.0
H1225 H 0.80960 0.67299 0.87702 0.0
H1226 H 0.78878 0.64684 0.89986 0.0
H1227 H 0.81512 0.66095 0.94230 0.0
H1228 H 0.71777 0.56936 0.85335 0.0
H1229 H 0.76037 0.57346 0.02863 0.0
H1230 H 0.74828 0.57720 0.73336 0.0
H1231 H 0.75832 0.61034 0.76671 0.0
H1232 H 0.73110 0.58690 0.75459 0.0
H1233 H 0.80300 0.57892 0.97966 0.0
H1234 H 0.80332 0.60227 0.03819 0.0
H1235 H 0.81358 0.61124 0.97028 0.0
C1236 C 0.88845 0.59809 0.77229 0.0
C1237 C 0.90331 0.62436 0.75341 0.0
C1238 C 0.89866 0.58574 0.81147 0.0
C1239 C 0.92283 0.59875 0.83032 0.0
C1240 C 0.93792 0.62474 0.80877 0.0
C1241 C 0.92759 0.63716 0.77050 0.0
C1242 C 0.88241 0.55703 0.83324 0.0
C1243 C 0.96465 0.63940 0.82653 0.0
C1244 C 0.94820 0.58697 0.99990 0.0
C1245 C 0.95403 0.56725 0.97402 0.0
C1246 C 0.93864 0.59753 0.95402 0.0
C1247 C 0.93383 0.58758 0.88066 0.0
C1248 C 0.93881 0.56665 0.85226 0.0
C1249 C 0.94921 0.55628 0.89903 0.0
C1250 C 0.93331 0.62028 0.98547 0.0
C1251 C 0.93503 0.55619 0.77031 0.0
H1252 H 0.87199 0.58892 0.75900 0.0
H1253 H 0.93725 0.65441 0.75634 0.0
H1254 H 0.88999 0.54608 0.83613 0.0
H1255 H 0.87951 0.56151 0.87968 0.0
H1256 H 0.86758 0.54561 0.79782 0.0
H1257 H 0.97202 0.66014 0.82946 0.0
H1258 H 0.96970 0.63638 0.87224 0.0
H1259 H 0.96932 0.63109 0.78947 0.0
H1260 H 0.95087 0.59333 0.04941 0.0
H1261 H 0.95285 0.54262 0.88117 0.0
H1262 H 0.91650 0.61184 0.97478 0.0
H1263 H 0.94081 0.63708 0.96454 0.0
H1264 H 0.93941 0.62636 0.03698 0.0
H1265 H 0.91967 0.53852 0.75199 0.0
H1266 H 0.94713 0.55242 0.76138 0.0
H1267 H 0.93606 0.57119 0.74647 0.0
C1268 C 0.54224 0.37346 0.96084 0.0
C1269 C 0.53872 0.39483 0.99433 0.0
C1270 C 0.52246 0.34549 0.92837 0.0
C1271 C 0.49992 0.33877 0.93005 0.0
C1272 C 0.49634 0.36001 0.96646 0.0
C1273 C 0.51617 0.38801 0.99791 0.0
C1274 C 0.52619 0.32199 0.89059 0.0
C1275 C 0.47184 0.35331 0.97152 0.0
C1276 C 0.45027 0.28097 0.77649 0.0
C1277 C 0.43927 0.25713 0.80653 0.0
C1278 C 0.46937 0.30726 0.81603 0.0
C1279 C 0.47854 0.30996 0.88683 0.0
C1280 C 0.46829 0.28579 0.91892 0.0
C1281 C 0.44825 0.25889 0.87892 0.0
C1282 C 0.48037 0.33338 0.78063 0.0
C1283 C 0.47710 0.28830 0.99990 0.0
H1284 H 0.55753 0.37775 0.96013 0.0
H1285 H 0.51415 0.40238 0.02163 0.0
H1286 H 0.51365 0.30288 0.89330 0.0
H1287 H 0.52597 0.32289 0.84067 0.0
H1288 H 0.54128 0.32552 0.91386 0.0
H1289 H 0.47174 0.37110 0.97596 0.0
H1290 H 0.46040 0.33931 0.92857 0.0
H1291 H 0.46771 0.34525 0.01303 0.0
H1292 H 0.44452 0.27916 0.72796 0.0
H1293 H 0.44107 0.24272 0.89950 0.0
H1294 H 0.49603 0.33843 0.77700 0.0
H1295 H 0.48120 0.34989 0.80946 0.0
H1296 H 0.47071 0.32829 0.73315 0.0
H1297 H 0.48850 0.28258 0.00426 0.0
H1298 H 0.46384 0.27562 0.01848 0.0
H1299 H 0.48437 0.30825 0.02569 0.0
C1300 C 0.80563 0.13236 0.78979 0.0
C1301 C 0.82049 0.15540 0.76022 0.0
C1302 C 0.78903 0.13444 0.82275 0.0
C1303 C 0.78745 0.15877 0.82733 0.0
C1304 C 0.80311 0.18267 0.80004 0.0
C1305 C 0.81943 0.18026 0.76631 0.0
C1306 C 0.77241 0.10900 0.85455 0.0
C1307 C 0.80248 0.21032 0.80578 0.0
C1308 C 0.72797 0.14832 0.83123 0.0
C1309 C 0.73061 0.15991 0.90221 0.0
C1310 C 0.74620 0.14839 0.80673 0.0
C1311 C 0.76750 0.15925 0.85403 0.0
C1312 C 0.77066 0.17041 0.92759 0.0
C1313 C 0.75213 0.17105 0.95272 0.0
C1314 C 0.74257 0.13623 0.72667 0.0
C1315 C 0.79470 0.18442 0.98178 0.0
H1316 H 0.80676 0.11588 0.78762 0.0
H1317 H 0.82978 0.19567 0.74746 0.0
H1318 H 0.76828 0.11649 0.89469 0.0
H1319 H 0.75820 0.09514 0.81802 0.0
H1320 H 0.78029 0.09939 0.87053 0.0
H1321 H 0.80812 0.21932 0.76664 0.0
H1322 H 0.78642 0.20542 0.80309 0.0
H1323 H 0.81243 0.22383 0.85108 0.0
H1324 H 0.71339 0.14026 0.79903 0.0
H1325 H 0.75399 0.17864 0.00116 0.0
H1326 H 0.74305 0.11876 0.72090 0.0
H1327 H 0.75497 0.15067 0.70782 0.0
H1328 H 0.72742 0.13170 0.70079 0.0
H1329 H 0.79492 0.16988 0.00497 0.0
H1330 H 0.79687 0.20027 0.01755 0.0
H1331 H 0.80733 0.19196 0.95661 0.0
C1332 C 0.63825 0.04856 0.04377 0.0
C1333 C 0.61410 0.03391 0.04295 0.0
C1334 C 0.64997 0.03365 0.05195 0.0
C1335 C 0.63823 0.00529 0.06027 0.0
C1336 C 0.61400 0.99077 0.06241 0.0
C1337 C 0.60233 0.00568 0.05320 0.0
C1338 C 0.67647 0.04952 0.05193 0.0
C1339 C 0.60050 0.95978 0.07360 0.0
C1340 C 0.66036 0.95767 0.99385 0.0
C1341 C 0.67177 0.95621 0.05648 0.0
C1342 C 0.64924 0.97285 0.99479 0.0
C1343 C 0.65007 0.98803 0.05929 0.0
C1344 C 0.66225 0.98790 0.12446 0.0
C1345 C 0.67321 0.97168 0.12387 0.0
C1346 C 0.63604 0.97283 0.92366 0.0
C1347 C 0.66243 0.00316 0.19836 0.0
H1348 H 0.64643 0.06796 0.03895 0.0
H1349 H 0.58631 0.99639 0.05386 0.0
H1350 H 0.68386 0.04198 0.08129 0.0
H1351 H 0.67825 0.04620 0.00319 0.0
H1352 H 0.68385 0.07025 0.07098 0.0
H1353 H 0.58394 0.95043 0.05110 0.0
H1354 H 0.60663 0.94878 0.05213 0.0
H1355 H 0.60229 0.96030 0.12446 0.0
H1356 H 0.66018 0.94800 0.94967 0.0
H1357 H 0.68117 0.97111 0.16658 0.0
H1358 H 0.64399 0.99221 0.91498 0.0
H1359 H 0.62002 0.96670 0.92637 0.0
H1360 H 0.63572 0.95941 0.88481 0.0
H1361 H 0.67637 0.02262 0.21326 0.0
H1362 H 0.66248 0.99201 0.23351 0.0
H1363 H 0.64850 0.00423 0.19446 0.0
C1364 C 0.12048 0.71642 0.16507 0.0
C1365 C 0.12702 0.73492 0.23248 0.0
C1366 C 0.11007 0.68634 0.16037 0.0
C1367 C 0.10662 0.67500 0.22070 0.0
C1368 C 0.11411 0.69381 0.28947 0.0
C1369 C 0.12419 0.72378 0.29360 0.0
C1370 C 0.10254 0.66583 0.08622 0.0
C1371 C 0.11129 0.68236 0.35776 0.0
C1372 C 0.05551 0.59764 0.19681 0.0
C1373 C 0.06642 0.58215 0.20220 0.0
C1374 C 0.06829 0.62737 0.20402 0.0
C1375 C 0.09256 0.64230 0.21426 0.0
C1376 C 0.10433 0.62711 0.21766 0.0
C1377 C 0.09130 0.59660 0.21209 0.0
C1378 C 0.05531 0.64366 0.20029 0.0
C1379 C 0.13164 0.64319 0.23340 0.0
H1380 H 0.12300 0.72399 0.12389 0.0
H1381 H 0.12905 0.73649 0.33837 0.0
H1382 H 0.10361 0.64918 0.09203 0.0
H1383 H 0.08639 0.65916 0.06428 0.0
H1384 H 0.11281 0.67628 0.05594 0.0
H1385 H 0.10988 0.69524 0.39339 0.0
H1386 H 0.09720 0.66298 0.34731 0.0
H1387 H 0.12491 0.68153 0.37617 0.0
H1388 H 0.03899 0.58760 0.18816 0.0
H1389 H 0.09882 0.58621 0.21493 0.0
H1390 H 0.05686 0.65144 0.15787 0.0
H1391 H 0.06211 0.65947 0.24246 0.0
H1392 H 0.03877 0.63030 0.19851 0.0
H1393 H 0.13666 0.64346 0.18871 0.0
H1394 H 0.13678 0.63312 0.26148 0.0
H1395 H 0.13853 0.66299 0.26015 0.0
C1396 C 0.44522 0.42779 0.24347 0.0
C1397 C 0.44902 0.41818 0.17850 0.0
C1398 C 0.42216 0.41366 0.25445 0.0
C1399 C 0.40341 0.39105 0.20224 0.0
C1400 C 0.40705 0.38203 0.13520 0.0
C1401 C 0.43018 0.39598 0.12502 0.0
C1402 C 0.41790 0.42388 0.32622 0.0
C1403 C 0.38678 0.35775 0.07522 0.0
C1404 C 0.35180 0.33394 0.26346 0.0
C1405 C 0.33480 0.34055 0.24714 0.0
C1406 C 0.37359 0.34965 0.24801 0.0
C1407 C 0.37921 0.37334 0.21790 0.0
C1408 C 0.36258 0.38143 0.20260 0.0
C1409 C 0.33992 0.36487 0.21674 0.0
C1410 C 0.39152 0.34065 0.26481 0.0
C1411 C 0.36761 0.40676 0.16485 0.0
H1412 H 0.45782 0.44336 0.27895 0.0
H1413 H 0.43296 0.39018 0.08142 0.0
H1414 H 0.40216 0.42042 0.31845 0.0
H1415 H 0.41944 0.41299 0.36019 0.0
H1416 H 0.42943 0.44450 0.34504 0.0
H1417 H 0.39267 0.34837 0.04564 0.0
H1418 H 0.37487 0.34345 0.09576 0.0
H1419 H 0.37986 0.36585 0.04606 0.0
H1420 H 0.34835 0.31832 0.28548 0.0
H1421 H 0.32859 0.36973 0.20630 0.0
H1422 H 0.40474 0.35565 0.30231 0.0
H1423 H 0.39696 0.33804 0.22208 0.0
H1424 H 0.38407 0.32246 0.28036 0.0
H1425 H 0.37381 0.42455 0.20051 0.0
H1426 H 0.35308 0.40209 0.13391 0.0
H1427 H 0.37899 0.40934 0.13628 0.0
C1428 C 0.86944 0.71273 0.52983 0.0
C1429 C 0.86147 0.70511 0.59189 0.0
C1430 C 0.85825 0.72243 0.48453 0.0
C1431 C 0.83950 0.72408 0.49960 0.0
C1432 C 0.83075 0.71524 0.56087 0.0
C1433 C 0.84223 0.70596 0.60638 0.0
C1434 C 0.86715 0.73123 0.41666 0.0
C1435 C 0.80966 0.71587 0.57847 0.0
C1436 C 0.83078 0.78093 0.43459 0.0
C1437 C 0.81164 0.76463 0.37684 0.0
C1438 C 0.83948 0.76804 0.47482 0.0
C1439 C 0.82960 0.73823 0.45617 0.0
C1440 C 0.81049 0.72089 0.39596 0.0
C1441 C 0.80109 0.73397 0.35548 0.0
C1442 C 0.86025 0.78710 0.54017 0.0
C1443 C 0.79793 0.68715 0.37563 0.0
H1444 H 0.88201 0.71137 0.51875 0.0
H1445 H 0.83684 0.70028 0.64734 0.0
H1446 H 0.85416 0.72754 0.37987 0.0
H1447 H 0.87932 0.75183 0.42830 0.0
H1448 H 0.87359 0.71994 0.39950 0.0
H1449 H 0.81095 0.71857 0.62981 0.0
H1450 H 0.80941 0.73188 0.56284 0.0
H1451 H 0.79520 0.69766 0.55414 0.0
H1452 H 0.83797 0.80128 0.44665 0.0
H1453 H 0.78827 0.72279 0.31583 0.0
H1454 H 0.87393 0.78705 0.53122 0.0
H1455 H 0.85610 0.77937 0.58209 0.0
H1456 H 0.86371 0.80689 0.54853 0.0
H1457 H 0.80476 0.68169 0.34041 0.0
H1458 H 0.78127 0.67855 0.35590 0.0
H1459 H 0.79987 0.68018 0.41804 0.0
C1460 C 0.33030 0.05299 0.52782 0.0
C1461 C 0.32687 0.07520 0.55572 0.0
C1462 C 0.31042 0.02509 0.49540 0.0
C1463 C 0.28786 0.01925 0.49179 0.0
C1464 C 0.28432 0.04139 0.52260 0.0
C1465 C 0.30426 0.06931 0.55401 0.0
C1466 C 0.31406 0.00010 0.46373 0.0
C1467 C 0.25976 0.03571 0.52176 0.0
C1468 C 0.23972 0.96055 0.33638 0.0
C1469 C 0.22750 0.93747 0.36777 0.0
C1470 C 0.25873 0.98690 0.37596 0.0
C1471 C 0.26658 0.99040 0.44840 0.0
C1472 C 0.25506 0.96699 0.48212 0.0
C1473 C 0.23510 0.94005 0.44193 0.0
C1474 C 0.27112 0.01220 0.33878 0.0
C1475 C 0.26236 0.97046 0.56409 0.0
H1476 H 0.34558 0.05668 0.53075 0.0
H1477 H 0.30229 0.08424 0.57407 0.0
H1478 H 0.30099 0.98196 0.46659 0.0
H1479 H 0.31480 0.00010 0.41393 0.0
H1480 H 0.32868 0.00398 0.49057 0.0
H1481 H 0.26015 0.05371 0.52255 0.0
H1482 H 0.24878 0.02138 0.47857 0.0
H1483 H 0.25464 0.02843 0.56338 0.0
H1484 H 0.23486 0.95817 0.28687 0.0
H1485 H 0.22709 0.92438 0.46351 0.0
H1486 H 0.28685 0.01660 0.33877 0.0
H1487 H 0.27193 0.02927 0.36432 0.0
H1488 H 0.26227 0.00669 0.28983 0.0
H1489 H 0.27337 0.96432 0.57343 0.0
H1490 H 0.24847 0.95853 0.58170 0.0
H1491 H 0.26972 0.99069 0.58831 0.0
C1492 C 0.96973 0.19195 0.64476 0.0
C1493 C 0.94667 0.17701 0.60241 0.0
C1494 C 0.98695 0.18927 0.61718 0.0
C1495 C 0.98142 0.17195 0.55025 0.0
C1496 C 0.95787 0.15584 0.50839 0.0
C1497 C 0.94084 0.15895 0.53590 0.0
C1498 C 0.01242 0.20596 0.66312 0.0
C1499 C 0.95081 0.13578 0.43515 0.0
C1500 C 0.02977 0.19338 0.44878 0.0
C1501 C 0.03594 0.17310 0.45504 0.0
C1502 C 0.01207 0.19279 0.47792 0.0
C1503 C 0.00010 0.17223 0.51682 0.0
C1504 C 0.00693 0.15170 0.52654 0.0
C1505 C 0.02473 0.15176 0.49508 0.0
C1506 C 0.00533 0.21519 0.46698 0.0
C1507 C 0.99357 0.12715 0.56607 0.0
H1508 H 0.97358 0.20352 0.69065 0.0
H1509 H 0.92527 0.14870 0.50885 0.0
H1510 H 0.01983 0.19523 0.65172 0.0
H1511 H 0.02129 0.22509 0.65274 0.0
H1512 H 0.01211 0.20811 0.71348 0.0
H1513 H 0.93738 0.13447 0.40594 0.0
H1514 H 0.96388 0.14362 0.41166 0.0
H1515 H 0.94668 0.11652 0.44094 0.0
H1516 H 0.03784 0.20786 0.42391 0.0
H1517 H 0.02900 0.13814 0.50035 0.0
H1518 H 0.00938 0.22819 0.51245 0.0
H1519 H 0.98851 0.20511 0.44709 0.0
H1520 H 0.01379 0.22632 0.43416 0.0
H1521 H 0.00169 0.13345 0.61599 0.0
H1522 H 0.99298 0.10974 0.54413 0.0
H1523 H 0.97766 0.12285 0.56246 0.0
C1524 C 0.33253 0.21120 0.51351 0.0
C1525 C 0.32726 0.19197 0.55963 0.0
C1526 C 0.31435 0.21361 0.47769 0.0
C1527 C 0.29158 0.19714 0.48637 0.0
C1528 C 0.28596 0.17676 0.53078 0.0
C1529 C 0.30429 0.17477 0.56714 0.0
C1530 C 0.32010 0.23502 0.42760 0.0
C1531 C 0.26095 0.15750 0.54029 0.0
C1532 C 0.25352 0.22892 0.46586 0.0
C1533 C 0.23836 0.21310 0.39959 0.0
C1534 C 0.27026 0.22355 0.49445 0.0
C1535 C 0.27279 0.20265 0.45553 0.0
C1536 C 0.25815 0.18665 0.38644 0.0
C1537 C 0.24049 0.19160 0.35757 0.0
C1538 C 0.28607 0.24105 0.56959 0.0
C1539 C 0.25940 0.16178 0.34267 0.0
H1540 H 0.34791 0.22225 0.50667 0.0
H1541 H 0.30098 0.16164 0.59712 0.0
H1542 H 0.30629 0.22779 0.38965 0.0
H1543 H 0.32464 0.25398 0.45497 0.0
H1544 H 0.33298 0.23679 0.40711 0.0
H1545 H 0.26156 0.15268 0.58676 0.0
H1546 H 0.25285 0.16786 0.53745 0.0
H1547 H 0.25247 0.13973 0.50291 0.0
H1548 H 0.25231 0.24364 0.49197 0.0
H1549 H 0.23046 0.18100 0.31216 0.0
H1550 H 0.30214 0.25338 0.56580 0.0
H1551 H 0.28521 0.22772 0.59938 0.0
H1552 H 0.28071 0.25299 0.59106 0.0
H1553 H 0.26980 0.16945 0.31060 0.0
H1554 H 0.24375 0.14658 0.31506 0.0
H1555 H 0.26534 0.15370 0.37514 0.0
C1556 C 0.80652 0.96887 0.28742 0.0
C1557 C 0.78353 0.94804 0.29122 0.0
C1558 C 0.81825 0.99666 0.33365 0.0
C1559 C 0.80742 0.00376 0.38130 0.0
C1560 C 0.78379 0.98311 0.38327 0.0
C1561 C 0.77230 0.95526 0.33762 0.0
C1562 C 0.84366 0.01955 0.33041 0.0
C1563 C 0.77089 0.99027 0.43348 0.0
C1564 C 0.84642 0.05996 0.55309 0.0
C1565 C 0.84659 0.08448 0.54153 0.0
C1566 C 0.83359 0.03397 0.50266 0.0
C1567 C 0.82117 0.03225 0.43754 0.0
C1568 C 0.82153 0.05712 0.42264 0.0
C1569 C 0.83424 0.08373 0.47512 0.0
C1570 C 0.83331 0.00708 0.51944 0.0
C1571 C 0.80672 0.05576 0.35204 0.0
H1572 H 0.81392 0.96433 0.25463 0.0
H1573 H 0.75680 0.94128 0.33855 0.0
H1574 H 0.84644 0.03892 0.34374 0.0
H1575 H 0.85474 0.01786 0.36357 0.0
H1576 H 0.84574 0.01616 0.28216 0.0
H1577 H 0.75910 0.97252 0.44484 0.0
H1578 H 0.78207 0.00377 0.47737 0.0
H1579 H 0.76330 0.99990 0.41050 0.0
H1580 H 0.85525 0.06110 0.59648 0.0
H1581 H 0.83449 0.10037 0.46648 0.0
H1582 H 0.84119 0.00173 0.48820 0.0
H1583 H 0.81714 0.99098 0.51198 0.0
H1584 H 0.84136 0.01158 0.56894 0.0
H1585 H 0.81632 0.06139 0.31715 0.0
H1586 H 0.80132 0.06895 0.36167 0.0
H1587 H 0.79322 0.03607 0.33346 0.0
C1588 C 0.96129 0.70617 0.62488 0.0
C1589 C 0.94059 0.70585 0.60201 0.0
C1590 C 0.97827 0.71531 0.58319 0.0
C1591 C 0.97468 0.72341 0.52021 0.0
C1592 C 0.95330 0.72197 0.49534 0.0
C1593 C 0.93657 0.71321 0.53780 0.0
C1594 C 0.00123 0.71609 0.60856 0.0
C1595 C 0.94827 0.72988 0.42510 0.0
C1596 C 0.02851 0.77892 0.46422 0.0
C1597 C 0.03047 0.76225 0.40859 0.0
C1598 C 0.01047 0.76673 0.49917 0.0
C1599 C 0.99428 0.73696 0.48067 0.0
C1600 C 0.99613 0.71898 0.42564 0.0
C1601 C 0.01433 0.73155 0.38828 0.0
C1602 C 0.00862 0.78647 0.55885 0.0
C1603 C 0.97755 0.68574 0.40016 0.0
H1604 H 0.96376 0.70039 0.66722 0.0
H1605 H 0.92246 0.71236 0.52261 0.0
H1606 H 0.00697 0.71261 0.56730 0.0
H1607 H 0.01303 0.73511 0.63907 0.0
H1608 H 0.99812 0.70118 0.63533 0.0
H1609 H 0.93768 0.73678 0.42803 0.0
H1610 H 0.96291 0.74515 0.41664 0.0
H1611 H 0.94106 0.71286 0.38587 0.0
H1612 H 0.03975 0.79906 0.47832 0.0
H1613 H 0.01569 0.72002 0.35118 0.0
H1614 H 0.01153 0.78193 0.60425 0.0
H1615 H 0.99296 0.78325 0.54876 0.0
H1616 H 0.02018 0.80672 0.56087 0.0
H1617 H 0.98280 0.67518 0.42543 0.0
H1618 H 0.97560 0.67965 0.34903 0.0
H1619 H 0.96261 0.68169 0.40986 0.0
loop_
_geom_bond_atom_site_label_1
_geom_bond_atom_site_label_2
_geom_bond_distance
_geom_bond_site_symmetry_2
_ccdc_geom_bond_type
Tb0 N29 2.617 . S
Tb0 N35 2.572 . S
Tb0 O44 2.465 . S
Tb0 O45 2.387 . S
Tb0 O47 2.428 . S
Tb0 O48 2.308 1_655 S
Tb0 O52 2.349 1_655 S
Tb0 O55 2.393 1_655 S
Tb0 C64 2.802 . S
C1 N2 1.379 . S
C1 C4 1.416 . S
C1 C8 1.424 . S
N2 C1 1.379 . S
N2 C5 1.334 . S
N2 Tb11 2.617 . S
C3 C5 1.390 . S
C3 C6 1.339 . S
C3 H23 0.930 1_554 S
C4 C1 1.416 . S
C4 C6 1.416 . S
C4 C10 1.448 . S
C5 N2 1.334 . S
C5 C3 1.390 . S
C5 H16 0.930 1_554 S
C6 C3 1.339 . S
C6 C4 1.416 . S
C6 H27 0.930 . S
C7 C8 1.413 . S
C7 C9 1.427 . S
C7 C13 1.416 . S
C8 C1 1.424 . S
C8 C7 1.413 . S
C8 N12 1.361 . S
C9 C7 1.427 . S
C9 C10 1.328 . S
C9 H24 0.929 . S
C10 C4 1.448 . S
C10 C9 1.328 . S
C10 H25 0.930 . S
Tb11 N2 2.617 . S
Tb11 N12 2.572 . S
Tb11 O46 2.349 . S
Tb11 O49 2.393 . S
Tb11 O50 2.465 . S
Tb11 O51 2.387 . S
Tb11 O53 2.428 . S
Tb11 O54 2.308 . S
Tb11 C75 2.802 . S
N12 C8 1.361 . S
N12 Tb11 2.572 . S
N12 C14 1.340 . S
C13 C7 1.416 . S
C13 C15 1.332 . S
C13 H21 0.931 . S
C14 N12 1.340 . S
C14 C15 1.407 . S
C14 H20 0.930 . S
C15 C13 1.332 . S
C15 C14 1.407 . S
C15 H17 0.929 . S
H16 C5 0.930 1_556 S
H17 C15 0.929 . S
H18 C33 0.930 . S
H19 C40 0.929 . S
H20 C14 0.930 . S
H21 C13 0.931 . S
H22 C36 0.930 . S
H23 C3 0.930 1_556 S
H24 C9 0.929 . S
H25 C10 0.930 . S
H26 C31 0.930 . S
H27 C6 0.930 . S
H28 C39 0.931 . S
N29 Tb0 2.617 . S
N29 C30 1.379 . S
N29 C33 1.334 . S
C30 N29 1.379 . S
C30 C32 1.416 . S
C30 C38 1.424 . S
C31 H26 0.930 . S
C31 C33 1.390 . S
C31 C34 1.339 . S
C32 C30 1.416 . S
C32 C34 1.416 . S
C32 C65 1.448 . S
C33 H18 0.930 . S
C33 N29 1.334 . S
C33 C31 1.390 . S
C34 C31 1.339 . S
C34 C32 1.416 . S
C34 H41 0.930 . S
N35 Tb0 2.572 . S
N35 C36 1.340 1_554 S
N35 C38 1.361 . S
C36 H22 0.930 . S
C36 N35 1.340 1_556 S
C36 C40 1.407 . S
C37 C38 1.413 . S
C37 C39 1.416 1_554 S
C37 C66 1.427 . S
C38 C30 1.424 . S
C38 N35 1.361 . S
C38 C37 1.413 . S
C39 H28 0.931 . S
C39 C37 1.416 1_556 S
C39 C40 1.332 . S
C40 H19 0.929 . S
C40 C36 1.407 . S
C40 C39 1.332 . S
H41 C34 0.930 . S
H42 C65 0.930 . S
H43 C66 0.929 1_556 S
O44 Tb0 2.465 . S
O44 C64 1.264 . S
O45 Tb0 2.387 . S
O45 C56 1.264 . S
O46 Tb11 2.349 . S
O46 C56 1.243 1_455 S
O47 Tb0 2.428 . S
O47 C64 1.256 . S
O48 Tb0 2.308 1_455 S
O48 C63 1.266 . S
O49 Tb11 2.393 . S
O49 C63 1.248 . S
O50 Tb11 2.465 . S
O50 C75 1.264 . S
O51 Tb11 2.387 . S
O51 C67 1.264 . S
O52 Tb0 2.349 1_455 S
O52 C67 1.243 . S
O53 Tb11 2.428 . S
O53 C75 1.256 . S
O54 Tb11 2.308 . S
O54 C74 1.266 . S
O55 Tb0 2.393 1_455 S
O55 C74 1.248 . S
C56 O45 1.264 . S
C56 O46 1.243 1_655 S
C57 C60 1.399 . S
C57 C62 1.383 . S
C57 C64 1.496 . S
C58 C59 1.399 . S
C58 C62 1.389 . S
C59 C58 1.399 . S
C59 C61 1.380 . S
C59 H76 0.929 . S
C60 C57 1.399 . S
C60 C61 1.392 . S
C60 H77 0.929 . S
C61 C59 1.380 . S
C61 C60 1.392 . S
C61 H78 0.929 . S
C62 C57 1.383 . S
C62 C58 1.389 . S
C62 H79 0.931 1_554 S
C63 O48 1.266 . S
C63 O49 1.248 . S
C64 Tb0 2.802 . S
C64 O44 1.264 . S
C64 O47 1.256 . S
C64 C57 1.496 . S
C65 C32 1.448 . S
C65 H42 0.930 . S
C65 C66 1.328 . S
C66 C37 1.427 . S
C66 H43 0.929 1_554 S
C66 C65 1.328 . S
C67 O51 1.264 . S
C67 O52 1.243 . S
C68 C71 1.399 . S
C68 C72 1.383 . S
C68 C75 1.496 . S
C69 C70 1.399 . S
C69 C72 1.389 . S
C70 C69 1.399 . S
C70 C73 1.380 . S
C70 H80 0.929 . S
C71 C68 1.399 . S
C71 C73 1.392 . S
C71 H81 0.929 . S
C72 C68 1.383 . S
C72 C69 1.389 . S
C72 H82 0.931 . S
C73 C70 1.380 . S
C73 C71 1.392 . S
C73 H83 0.929 . S
C74 O54 1.266 . S
C74 O55 1.248 . S
C75 Tb11 2.802 . S
C75 O50 1.264 . S
C75 O53 1.256 . S
C75 C68 1.496 . S
H76 C59 0.929 . S
H77 C60 0.929 . S
H78 C61 0.929 . S
H79 C62 0.931 1_556 S
H80 C70 0.929 . S
H81 C71 0.929 . S
H82 C72 0.931 . S
H83 C73 0.929 . S
Tb84 N113 2.617 1_554 S
Tb84 N119 2.572 . S
Tb84 O128 2.465 . S
Tb84 O129 2.387 . S
Tb84 O131 2.428 . S
Tb84 O132 2.308 . S
Tb84 O136 2.349 . S
Tb84 O139 2.393 1_554 S
Tb84 C148 2.802 . S
C85 N86 1.379 . S
C85 C88 1.416 . S
C85 C92 1.424 . S
N86 C85 1.379 . S
N86 C89 1.334 . S
N86 Tb95 2.617 . S
C87 C89 1.390 . S
C87 C90 1.339 . S
C87 H107 0.930 . S
C88 C85 1.416 . S
C88 C90 1.416 . S
C88 C94 1.448 . S
C89 N86 1.334 . S
C89 C87 1.390 . S
C89 H100 0.930 . S
C90 C87 1.339 . S
C90 C88 1.416 . S
C90 H111 0.930 . S
C91 C92 1.413 1_556 S
C91 C93 1.427 1_556 S
C91 C97 1.416 . S
C92 C85 1.424 . S
C92 C91 1.413 1_554 S
C92 N96 1.361 1_554 S
C93 C91 1.427 1_554 S
C93 C94 1.328 . S
C93 H108 0.929 1_554 S
C94 C88 1.448 . S
C94 C93 1.328 . S
C94 H109 0.930 . S
Tb95 N86 2.617 . S
Tb95 N96 2.572 1_554 S
Tb95 O130 2.349 . S
Tb95 O133 2.393 . S
Tb95 O134 2.465 . S
Tb95 O135 2.387 . S
Tb95 O137 2.428 . S
Tb95 O138 2.308 1_554 S
Tb95 C159 2.802 . S
N96 C92 1.361 1_556 S
N96 Tb95 2.572 1_556 S
N96 C98 1.340 . S
C97 C91 1.416 . S
C97 C99 1.332 . S
C97 H105 0.931 . S
C98 N96 1.340 . S
C98 C99 1.407 . S
C98 H104 0.930 . S
C99 C97 1.332 . S
C99 C98 1.407 . S
C99 H101 0.929 . S
H100 C89 0.930 . S
H101 C99 0.929 . S
H102 C117 0.930 . S
H103 C124 0.929 . S
H104 C98 0.930 . S
H105 C97 0.931 . S
H106 C120 0.930 . S
H107 C87 0.930 . S
H108 C93 0.929 1_556 S
H109 C94 0.930 . S
H110 C115 0.930 . S
H111 C90 0.930 . S
H112 C123 0.931 . S
N113 Tb84 2.617 1_556 S
N113 C114 1.379 1_556 S
N113 C117 1.334 . S
C114 N113 1.379 1_554 S
C114 C116 1.416 . S
C114 C122 1.424 . S
C115 H110 0.930 . S
C115 C117 1.390 . S
C115 C118 1.339 . S
C116 C114 1.416 . S
C116 C118 1.416 1_554 S
C116 C149 1.448 . S
C117 H102 0.930 . S
C117 N113 1.334 . S
C117 C115 1.390 . S
C118 C115 1.339 . S
C118 C116 1.416 1_556 S
C118 H125 0.930 . S
N119 Tb84 2.572 . S
N119 C120 1.340 . S
N119 C122 1.361 . S
C120 H106 0.930 . S
C120 N119 1.340 . S
C120 C124 1.407 . S
C121 C122 1.413 . S
C121 C123 1.416 . S
C121 C150 1.427 . S
C122 C114 1.424 . S
C122 N119 1.361 . S
C122 C121 1.413 . S
C123 H112 0.931 . S
C123 C121 1.416 . S
C123 C124 1.332 . S
C124 H103 0.929 . S
C124 C120 1.407 . S
C124 C123 1.332 . S
H125 C118 0.930 . S
H126 C149 0.930 . S
H127 C150 0.929 . S
O128 Tb84 2.465 . S
O128 C148 1.264 . S
O129 Tb84 2.387 . S
O129 C140 1.264 . S
O130 Tb95 2.349 . S
O130 C140 1.243 . S
O131 Tb84 2.428 . S
O131 C148 1.256 . S
O132 Tb84 2.308 . S
O132 C147 1.266 . S
O133 Tb95 2.393 . S
O133 C147 1.248 . S
O134 Tb95 2.465 . S
O134 C159 1.264 . S
O135 Tb95 2.387 . S
O135 C151 1.264 . S
O136 Tb84 2.349 . S
O136 C151 1.243 . S
O137 Tb95 2.428 . S
O137 C159 1.256 . S
O138 Tb95 2.308 1_556 S
O138 C158 1.266 . S
O139 Tb84 2.393 1_556 S
O139 C158 1.248 . S
C140 O129 1.264 . S
C140 O130 1.243 . S
C141 C144 1.399 . S
C141 C146 1.383 . S
C141 C148 1.496 . S
C142 C143 1.399 . S
C142 C146 1.389 . S
C143 C142 1.399 . S
C143 C145 1.380 . S
C143 H160 0.929 . S
C144 C141 1.399 . S
C144 C145 1.392 . S
C144 H161 0.929 1_554 S
C145 C143 1.380 . S
C145 C144 1.392 . S
C145 H162 0.929 1_554 S
C146 C141 1.383 . S
C146 C142 1.389 . S
C146 H163 0.931 . S
C147 O132 1.266 . S
C147 O133 1.248 . S
C148 Tb84 2.802 . S
C148 O128 1.264 . S
C148 O131 1.256 . S
C148 C141 1.496 . S
C149 C116 1.448 . S
C149 H126 0.930 . S
C149 C150 1.328 . S
C150 C121 1.427 . S
C150 H127 0.929 . S
C150 C149 1.328 . S
C151 O135 1.264 . S
C151 O136 1.243 . S
C152 C155 1.399 . S
C152 C156 1.383 1_554 S
C152 C159 1.496 . S
C153 C154 1.399 1_556 S
C153 C156 1.389 . S
C154 C153 1.399 1_554 S
C154 C157 1.380 . S
C154 H164 0.929 . S
C155 C152 1.399 . S
C155 C157 1.392 . S
C155 H165 0.929 . S
C156 C152 1.383 1_556 S
C156 C153 1.389 . S
C156 H166 0.931 . S
C157 C154 1.380 . S
C157 C155 1.392 . S
C157 H167 0.929 . S
C158 O138 1.266 . S
C158 O139 1.248 . S
C159 Tb95 2.802 . S
C159 O134 1.264 . S
C159 O137 1.256 . S
C159 C152 1.496 . S
H160 C143 0.929 . S
H161 C144 0.929 1_556 S
H162 C145 0.929 1_556 S
H163 C146 0.931 . S
H164 C154 0.929 . S
H165 C155 0.929 . S
H166 C156 0.931 . S
H167 C157 0.929 . S
Tb168 N197 2.617 . S
Tb168 N203 2.572 1_554 S
Tb168 O212 2.465 1_554 S
Tb168 O213 2.387 . S
Tb168 O215 2.428 . S
Tb168 O216 2.308 1_554 S
Tb168 O220 2.349 . S
Tb168 O223 2.393 . S
Tb168 C232 2.802 . S
C169 N170 1.379 . S
C169 C172 1.416 . S
C169 C176 1.424 1_556 S
N170 C169 1.379 . S
N170 C173 1.334 . S
N170 Tb179 2.617 1_565 S
C171 C173 1.390 . S
C171 C174 1.339 . S
C171 H191 0.930 . S
C172 C169 1.416 . S
C172 C174 1.416 . S
C172 C178 1.448 . S
C173 N170 1.334 . S
C173 C171 1.390 . S
C173 H184 0.930 . S
C174 C171 1.339 . S
C174 C172 1.416 . S
C174 H195 0.930 . S
C175 C176 1.413 . S
C175 C177 1.427 1_554 S
C175 C181 1.416 . S
C176 C169 1.424 1_554 S
C176 C175 1.413 . S
C176 N180 1.361 . S
C177 C175 1.427 1_556 S
C177 C178 1.328 . S
C177 H192 0.929 1_556 S
C178 C172 1.448 . S
C178 C177 1.328 . S
C178 H193 0.930 . S
Tb179 N170 2.617 1_545 S
Tb179 N180 2.572 1_546 S
Tb179 O214 2.349 . S
Tb179 O217 2.393 . S
Tb179 O218 2.465 1_556 S
Tb179 O219 2.387 . S
Tb179 O221 2.428 . S
Tb179 O222 2.308 1_556 S
Tb179 C243 2.802 . S
N180 C176 1.361 . S
N180 Tb179 2.572 1_564 S
N180 C182 1.340 . S
C181 C175 1.416 . S
C181 C183 1.332 . S
C181 H189 0.931 . S
C182 N180 1.340 . S
C182 C183 1.407 . S
C182 H188 0.930 1_565 S
C183 C181 1.332 . S
C183 C182 1.407 . S
C183 H185 0.929 . S
H184 C173 0.930 . S
H185 C183 0.929 . S
H186 C201 0.930 . S
H187 C208 0.929 . S
H188 C182 0.930 1_545 S
H189 C181 0.931 . S
H190 C204 0.930 . S
H191 C171 0.930 . S
H192 C177 0.929 1_554 S
H193 C178 0.930 . S
H194 C199 0.930 . S
H195 C174 0.930 . S
H196 C207 0.931 . S
N197 Tb168 2.617 . S
N197 C198 1.379 . S
N197 C201 1.334 . S
C198 N197 1.379 . S
C198 C200 1.416 . S
C198 C206 1.424 . S
C199 H194 0.930 . S
C199 C201 1.390 . S
C199 C202 1.339 . S
C200 C198 1.416 . S
C200 C202 1.416 . S
C200 C233 1.448 . S
C201 H186 0.930 . S
C201 N197 1.334 . S
C201 C199 1.390 . S
C202 C199 1.339 . S
C202 C200 1.416 . S
C202 H209 0.930 . S
N203 Tb168 2.572 1_556 S
N203 C204 1.340 . S
N203 C206 1.361 1_556 S
C204 H190 0.930 . S
C204 N203 1.340 . S
C204 C208 1.407 . S
C205 C206 1.413 1_556 S
C205 C207 1.416 . S
C205 C234 1.427 1_556 S
C206 C198 1.424 . S
C206 N203 1.361 1_554 S
C206 C205 1.413 1_554 S
C207 H196 0.931 . S
C207 C205 1.416 . S
C207 C208 1.332 . S
C208 H187 0.929 . S
C208 C204 1.407 . S
C208 C207 1.332 . S
H209 C202 0.930 . S
H210 C233 0.930 . S
H211 C234 0.929 . S
O212 Tb168 2.465 1_556 S
O212 C232 1.264 1_556 S
O213 Tb168 2.387 . S
O213 C224 1.267 . S
O214 Tb179 2.349 . S
O214 C224 1.244 1_556 S
O215 Tb168 2.428 . S
O215 C232 1.256 . S
O216 Tb168 2.308 1_556 S
O216 C231 1.266 . S
O217 Tb179 2.393 . S
O217 C231 1.248 . S
O218 Tb179 2.465 1_554 S
O218 C243 1.264 1_554 S
O219 Tb179 2.387 . S
O219 C235 1.264 1_556 S
O220 Tb168 2.349 . S
O220 C235 1.243 . S
O221 Tb179 2.428 . S
O221 C243 1.256 . S
O222 Tb179 2.308 1_554 S
O222 C242 1.266 . S
O223 Tb168 2.393 . S
O223 C242 1.248 . S
C224 O213 1.267 . S
C224 O214 1.244 1_554 S
C225 C228 1.399 . S
C225 C230 1.383 1_554 S
C225 C232 1.496 . S
C226 C227 1.399 1_556 S
C226 C230 1.389 . S
C227 C226 1.399 1_554 S
C227 C229 1.380 . S
C227 H244 0.929 . S
C228 C225 1.399 . S
C228 C229 1.392 . S
C228 H245 0.929 . S
C229 C227 1.380 . S
C229 C228 1.392 . S
C229 H246 0.929 . S
C230 C225 1.383 1_556 S
C230 C226 1.389 . S
C230 H247 0.931 . S
C231 O216 1.266 . S
C231 O217 1.248 . S
C232 Tb168 2.802 . S
C232 O212 1.264 1_554 S
C232 O215 1.256 . S
C232 C225 1.496 . S
C233 C200 1.448 . S
C233 H210 0.930 . S
C233 C234 1.328 . S
C234 C205 1.427 1_554 S
C234 H211 0.929 . S
C234 C233 1.328 . S
C235 O219 1.264 1_554 S
C235 O220 1.243 . S
C236 C239 1.399 1_545 S
C236 C240 1.383 1_556 S
C236 C243 1.496 . S
C237 C238 1.399 . S
C237 C240 1.389 1_565 S
C238 C237 1.399 . S
C238 C241 1.380 1_554 S
C238 H248 0.929 . S
C239 C236 1.399 1_565 S
C239 C241 1.392 . S
C239 H249 0.929 . S
C240 C236 1.383 1_554 S
C240 C237 1.389 1_545 S
C240 H250 0.931 . S
C241 C238 1.380 1_556 S
C241 C239 1.392 . S
C241 H251 0.929 . S
C242 O222 1.266 . S
C242 O223 1.248 . S
C243 Tb179 2.802 . S
C243 O218 1.264 1_556 S
C243 O221 1.256 . S
C243 C236 1.496 . S
H244 C227 0.929 . S
H245 C228 0.929 . S
H246 C229 0.929 . S
H247 C230 0.931 . S
H248 C238 0.929 . S
H249 C239 0.929 . S
H250 C240 0.931 . S
H251 C241 0.929 . S
Tb252 N281 2.617 . S
Tb252 N287 2.572 . S
Tb252 O296 2.465 . S
Tb252 O297 2.387 . S
Tb252 O299 2.428 . S
Tb252 O300 2.308 . S
Tb252 O304 2.349 . S
Tb252 O307 2.393 . S
Tb252 C316 2.802 . S
C253 N254 1.379 . S
C253 C256 1.416 . S
C253 C260 1.424 . S
N254 C253 1.379 . S
N254 C257 1.334 . S
N254 Tb263 2.617 . S
C255 C257 1.390 . S
C255 C258 1.339 . S
C255 H275 0.930 . S
C256 C253 1.416 . S
C256 C258 1.416 . S
C256 C262 1.448 . S
C257 N254 1.334 . S
C257 C255 1.390 . S
C257 H268 0.930 . S
C258 C255 1.339 . S
C258 C256 1.416 . S
C258 H279 0.930 . S
C259 C260 1.413 . S
C259 C261 1.427 . S
C259 C265 1.416 . S
C260 C253 1.424 . S
C260 C259 1.413 . S
C260 N264 1.361 . S
C261 C259 1.427 . S
C261 C262 1.328 . S
C261 H276 0.929 . S
C262 C256 1.448 . S
C262 C261 1.328 . S
C262 H277 0.930 . S
Tb263 N254 2.617 . S
Tb263 N264 2.572 . S
Tb263 O298 2.349 . S
Tb263 O301 2.393 . S
Tb263 O302 2.465 . S
Tb263 O303 2.387 . S
Tb263 O305 2.428 . S
Tb263 O306 2.308 . S
Tb263 C327 2.802 . S
N264 C260 1.361 . S
N264 Tb263 2.572 . S
N264 C266 1.340 . S
C265 C259 1.416 . S
C265 C267 1.332 . S
C265 H273 0.931 . S
C266 N264 1.340 . S
C266 C267 1.407 . S
C266 H272 0.930 . S
C267 C265 1.332 . S
C267 C266 1.407 . S
C267 H269 0.929 . S
H268 C257 0.930 . S
H269 C267 0.929 . S
H270 C285 0.930 . S
H271 C292 0.929 . S
H272 C266 0.930 . S
H273 C265 0.931 . S
H274 C288 0.930 . S
H275 C255 0.930 . S
H276 C261 0.929 . S
H277 C262 0.930 . S
H278 C283 0.930 . S
H279 C258 0.930 . S
H280 C291 0.931 1_556 S
N281 Tb252 2.617 . S
N281 C282 1.379 . S
N281 C285 1.334 . S
C282 N281 1.379 . S
C282 C284 1.416 . S
C282 C290 1.424 . S
C283 H278 0.930 . S
C283 C285 1.390 . S
C283 C286 1.339 . S
C284 C282 1.416 . S
C284 C286 1.416 . S
C284 C317 1.448 . S
C285 H270 0.930 . S
C285 N281 1.334 . S
C285 C283 1.390 . S
C286 C283 1.339 . S
C286 C284 1.416 . S
C286 H293 0.930 . S
N287 Tb252 2.572 . S
N287 C288 1.340 . S
N287 C290 1.361 . S
C288 H274 0.930 . S
C288 N287 1.340 . S
C288 C292 1.407 1_554 S
C289 C290 1.413 . S
C289 C291 1.416 . S
C289 C318 1.427 . S
C290 C282 1.424 . S
C290 N287 1.361 . S
C290 C289 1.413 . S
C291 H280 0.931 1_554 S
C291 C289 1.416 . S
C291 C292 1.332 1_554 S
C292 H271 0.929 . S
C292 C288 1.407 1_556 S
C292 C291 1.332 1_556 S
H293 C286 0.930 . S
H294 C317 0.930 . S
H295 C318 0.929 . S
O296 Tb252 2.465 . S
O296 C316 1.264 . S
O297 Tb252 2.387 . S
O297 C308 1.264 . S
O298 Tb263 2.349 . S
O298 C308 1.243 . S
O299 Tb252 2.428 . S
O299 C316 1.256 . S
O300 Tb252 2.308 . S
O300 C315 1.266 . S
O301 Tb263 2.393 . S
O301 C315 1.248 . S
O302 Tb263 2.465 . S
O302 C327 1.264 . S
O303 Tb263 2.387 . S
O303 C319 1.264 . S
O304 Tb252 2.349 . S
O304 C319 1.243 . S
O305 Tb263 2.428 . S
O305 C327 1.256 . S
O306 Tb263 2.308 . S
O306 C326 1.266 . S
O307 Tb252 2.393 . S
O307 C326 1.248 . S
C308 O297 1.264 . S
C308 O298 1.243 . S
C309 C312 1.399 . S
C309 C314 1.383 . S
C309 C316 1.496 . S
C310 C311 1.399 . S
C310 C314 1.389 . S
C311 C310 1.399 . S
C311 C313 1.380 . S
C311 H328 0.929 . S
C312 C309 1.399 . S
C312 C313 1.392 . S
C312 H329 0.929 . S
C313 C311 1.380 . S
C313 C312 1.392 . S
C313 H330 0.929 . S
C314 C309 1.383 . S
C314 C310 1.389 . S
C314 H331 0.931 . S
C315 O300 1.266 . S
C315 O301 1.248 . S
C316 Tb252 2.802 . S
C316 O296 1.264 . S
C316 O299 1.256 . S
C316 C309 1.496 . S
C317 C284 1.448 . S
C317 H294 0.930 . S
C317 C318 1.328 . S
C318 C289 1.427 . S
C318 H295 0.929 . S
C318 C317 1.328 . S
C319 O303 1.264 . S
C319 O304 1.243 . S
C320 C323 1.399 . S
C320 C324 1.383 . S
C320 C327 1.496 . S
C321 C322 1.399 . S
C321 C324 1.389 . S
C322 C321 1.399 . S
C322 C325 1.380 . S
C322 H332 0.929 . S
C323 C320 1.399 . S
C323 C325 1.392 . S
C323 H333 0.929 . S
C324 C320 1.383 . S
C324 C321 1.389 . S
C324 H334 0.931 . S
C325 C322 1.380 . S
C325 C323 1.392 . S
C325 H335 0.929 . S
C326 O306 1.266 . S
C326 O307 1.248 . S
C327 Tb263 2.802 . S
C327 O302 1.264 . S
C327 O305 1.256 . S
C327 C320 1.496 . S
H328 C311 0.929 . S
H329 C312 0.929 . S
H330 C313 0.929 . S
H331 C314 0.931 . S
H332 C322 0.929 . S
H333 C323 0.929 . S
H334 C324 0.931 . S
H335 C325 0.929 . S
Tb336 N365 2.617 . S
Tb336 N371 2.572 . S
Tb336 O380 2.465 . S
Tb336 O381 2.387 . S
Tb336 O383 2.428 . S
Tb336 O384 2.308 . S
Tb336 O388 2.349 . S
Tb336 O391 2.393 . S
Tb336 C400 2.802 . S
C337 N338 1.379 . S
C337 C340 1.416 . S
C337 C344 1.424 . S
N338 C337 1.379 . S
N338 C341 1.334 . S
N338 Tb347 2.617 . S
C339 C341 1.390 . S
C339 C342 1.339 . S
C339 H359 0.930 . S
C340 C337 1.416 . S
C340 C342 1.416 . S
C340 C346 1.448 . S
C341 N338 1.334 . S
C341 C339 1.390 . S
C341 H352 0.930 . S
C342 C339 1.339 . S
C342 C340 1.416 . S
C342 H363 0.930 . S
C343 C344 1.413 . S
C343 C345 1.427 . S
C343 C349 1.416 . S
C344 C337 1.424 . S
C344 C343 1.413 . S
C344 N348 1.361 . S
C345 C343 1.427 . S
C345 C346 1.328 . S
C345 H360 0.929 . S
C346 C340 1.448 . S
C346 C345 1.328 . S
C346 H361 0.930 . S
Tb347 N338 2.617 . S
Tb347 N348 2.572 . S
Tb347 O382 2.349 . S
Tb347 O385 2.393 . S
Tb347 O386 2.465 . S
Tb347 O387 2.387 . S
Tb347 O389 2.428 . S
Tb347 O390 2.308 . S
Tb347 C411 2.802 . S
N348 C344 1.361 . S
N348 Tb347 2.572 . S
N348 C350 1.340 . S
C349 C343 1.416 . S
C349 C351 1.332 . S
C349 H357 0.931 . S
C350 N348 1.340 . S
C350 C351 1.407 . S
C350 H356 0.930 . S
C351 C349 1.332 . S
C351 C350 1.407 . S
C351 H353 0.929 . S
H352 C341 0.930 . S
H353 C351 0.929 . S
H354 C369 0.930 . S
H355 C376 0.929 . S
H356 C350 0.930 . S
H357 C349 0.931 . S
H358 C372 0.930 . S
H359 C339 0.930 . S
H360 C345 0.929 . S
H361 C346 0.930 . S
H362 C367 0.930 . S
H363 C342 0.930 . S
H364 C375 0.931 . S
N365 Tb336 2.617 . S
N365 C366 1.379 . S
N365 C369 1.334 . S
C366 N365 1.379 . S
C366 C368 1.416 . S
C366 C374 1.424 . S
C367 H362 0.930 . S
C367 C369 1.390 . S
C367 C370 1.339 . S
C368 C366 1.416 . S
C368 C370 1.416 . S
C368 C401 1.448 . S
C369 H354 0.930 . S
C369 N365 1.334 . S
C369 C367 1.390 . S
C370 C367 1.339 . S
C370 C368 1.416 . S
C370 H377 0.930 . S
N371 Tb336 2.572 . S
N371 C372 1.340 . S
N371 C374 1.361 . S
C372 H358 0.930 . S
C372 N371 1.340 . S
C372 C376 1.407 . S
C373 C374 1.413 . S
C373 C375 1.416 . S
C373 C402 1.427 . S
C374 C366 1.424 . S
C374 N371 1.361 . S
C374 C373 1.413 . S
C375 H364 0.931 . S
C375 C373 1.416 . S
C375 C376 1.332 . S
C376 H355 0.929 . S
C376 C372 1.407 . S
C376 C375 1.332 . S
H377 C370 0.930 . S
H378 C401 0.930 . S
H379 C402 0.929 . S
O380 Tb336 2.465 . S
O380 C400 1.264 . S
O381 Tb336 2.387 . S
O381 C392 1.264 . S
O382 Tb347 2.349 . S
O382 C392 1.243 . S
O383 Tb336 2.428 . S
O383 C400 1.256 . S
O384 Tb336 2.308 . S
O384 C399 1.266 . S
O385 Tb347 2.393 . S
O385 C399 1.248 . S
O386 Tb347 2.465 . S
O386 C411 1.264 . S
O387 Tb347 2.387 . S
O387 C403 1.264 . S
O388 Tb336 2.349 . S
O388 C403 1.243 . S
O389 Tb347 2.428 . S
O389 C411 1.256 . S
O390 Tb347 2.308 . S
O390 C410 1.266 . S
O391 Tb336 2.393 . S
O391 C410 1.248 . S
C392 O381 1.264 . S
C392 O382 1.243 . S
C393 C396 1.399 . S
C393 C398 1.383 . S
C393 C400 1.496 . S
C394 C395 1.399 . S
C394 C398 1.389 . S
C395 C394 1.399 . S
C395 C397 1.380 . S
C395 H412 0.929 . S
C396 C393 1.399 . S
C396 C397 1.392 . S
C396 H413 0.929 . S
C397 C395 1.380 . S
C397 C396 1.392 . S
C397 H414 0.929 . S
C398 C393 1.383 . S
C398 C394 1.389 . S
C398 H415 0.931 . S
C399 O384 1.266 . S
C399 O385 1.248 . S
C400 Tb336 2.802 . S
C400 O380 1.264 . S
C400 O383 1.256 . S
C400 C393 1.496 . S
C401 C368 1.448 . S
C401 H378 0.930 . S
C401 C402 1.328 . S
C402 C373 1.427 . S
C402 H379 0.929 . S
C402 C401 1.328 . S
C403 O387 1.264 . S
C403 O388 1.243 . S
C404 C407 1.399 . S
C404 C408 1.383 . S
C404 C411 1.496 . S
C405 C406 1.399 . S
C405 C408 1.389 . S
C406 C405 1.399 . S
C406 C409 1.380 . S
C406 H416 0.929 . S
C407 C404 1.399 . S
C407 C409 1.392 . S
C407 H417 0.929 . S
C408 C404 1.383 . S
C408 C405 1.389 . S
C408 H418 0.931 . S
C409 C406 1.380 . S
C409 C407 1.392 . S
C409 H419 0.929 . S
C410 O390 1.266 . S
C410 O391 1.248 . S
C411 Tb347 2.802 . S
C411 O386 1.264 . S
C411 O389 1.256 . S
C411 C404 1.496 . S
H412 C395 0.929 . S
H413 C396 0.929 . S
H414 C397 0.929 . S
H415 C398 0.931 . S
H416 C406 0.929 . S
H417 C407 0.929 . S
H418 C408 0.931 . S
H419 C409 0.929 . S
Tb420 N449 2.617 . S
Tb420 N455 2.572 . S
Tb420 O464 2.465 . S
Tb420 O465 2.387 . S
Tb420 O467 2.428 . S
Tb420 O468 2.308 . S
Tb420 O472 2.349 . S
Tb420 O475 2.393 . S
Tb420 C484 2.802 . S
C421 N422 1.379 . S
C421 C424 1.416 . S
C421 C428 1.424 . S
N422 C421 1.379 . S
N422 C425 1.334 . S
N422 Tb431 2.617 . S
C423 C425 1.390 . S
C423 C426 1.339 . S
C423 H443 0.930 . S
C424 C421 1.416 . S
C424 C426 1.416 . S
C424 C430 1.448 . S
C425 N422 1.334 . S
C425 C423 1.390 . S
C425 H436 0.930 . S
C426 C423 1.339 . S
C426 C424 1.416 . S
C426 H447 0.930 . S
C427 C428 1.413 . S
C427 C429 1.427 . S
C427 C433 1.416 . S
C428 C421 1.424 . S
C428 C427 1.413 . S
C428 N432 1.361 . S
C429 C427 1.427 . S
C429 C430 1.328 . S
C429 H444 0.929 . S
C430 C424 1.448 . S
C430 C429 1.328 . S
C430 H445 0.930 . S
Tb431 N422 2.617 . S
Tb431 N432 2.572 . S
Tb431 O466 2.349 . S
Tb431 O469 2.393 . S
Tb431 O470 2.465 . S
Tb431 O471 2.387 . S
Tb431 O473 2.428 . S
Tb431 O474 2.308 . S
Tb431 C495 2.802 . S
N432 C428 1.361 . S
N432 Tb431 2.572 . S
N432 C434 1.340 . S
C433 C427 1.416 . S
C433 C435 1.332 . S
C433 H441 0.931 . S
C434 N432 1.340 . S
C434 C435 1.407 . S
C434 H440 0.930 . S
C435 C433 1.332 . S
C435 C434 1.407 . S
C435 H437 0.929 . S
H436 C425 0.930 . S
H437 C435 0.929 . S
H438 C453 0.930 . S
H439 C460 0.929 . S
H440 C434 0.930 . S
H441 C433 0.931 . S
H442 C456 0.930 . S
H443 C423 0.930 . S
H444 C429 0.929 . S
H445 C430 0.930 . S
H446 C451 0.930 . S
H447 C426 0.930 . S
H448 C459 0.931 . S
N449 Tb420 2.617 . S
N449 C450 1.379 . S
N449 C453 1.334 . S
C450 N449 1.379 . S
C450 C452 1.416 . S
C450 C458 1.424 . S
C451 H446 0.930 . S
C451 C453 1.390 . S
C451 C454 1.339 . S
C452 C450 1.416 . S
C452 C454 1.416 . S
C452 C485 1.448 . S
C453 H438 0.930 . S
C453 N449 1.334 . S
C453 C451 1.390 . S
C454 C451 1.339 . S
C454 C452 1.416 . S
C454 H461 0.930 . S
N455 Tb420 2.572 . S
N455 C456 1.340 . S
N455 C458 1.361 . S
C456 H442 0.930 . S
C456 N455 1.340 . S
C456 C460 1.407 . S
C457 C458 1.413 . S
C457 C459 1.416 . S
C457 C486 1.427 . S
C458 C450 1.424 . S
C458 N455 1.361 . S
C458 C457 1.413 . S
C459 H448 0.931 . S
C459 C457 1.416 . S
C459 C460 1.332 . S
C460 H439 0.929 . S
C460 C456 1.407 . S
C460 C459 1.332 . S
H461 C454 0.930 . S
H462 C485 0.930 . S
H463 C486 0.929 . S
O464 Tb420 2.465 . S
O464 C484 1.264 . S
O465 Tb420 2.387 . S
O465 C476 1.264 . S
O466 Tb431 2.349 . S
O466 C476 1.243 . S
O467 Tb420 2.428 . S
O467 C484 1.256 . S
O468 Tb420 2.308 . S
O468 C483 1.266 . S
O469 Tb431 2.393 . S
O469 C483 1.248 . S
O470 Tb431 2.465 . S
O470 C495 1.264 . S
O471 Tb431 2.387 . S
O471 C487 1.264 . S
O472 Tb420 2.349 . S
O472 C487 1.243 . S
O473 Tb431 2.428 . S
O473 C495 1.256 . S
O474 Tb431 2.308 . S
O474 C494 1.266 . S
O475 Tb420 2.393 . S
O475 C494 1.248 . S
C476 O465 1.264 . S
C476 O466 1.243 . S
C477 C480 1.399 . S
C477 C482 1.383 . S
C477 C484 1.496 . S
C478 C479 1.399 . S
C478 C482 1.389 . S
C479 C478 1.399 . S
C479 C481 1.380 . S
C479 H496 0.929 . S
C480 C477 1.399 . S
C480 C481 1.392 . S
C480 H497 0.929 . S
C481 C479 1.380 . S
C481 C480 1.392 . S
C481 H498 0.929 . S
C482 C477 1.383 . S
C482 C478 1.389 . S
C482 H499 0.931 . S
C483 O468 1.266 . S
C483 O469 1.248 . S
C484 Tb420 2.802 . S
C484 O464 1.264 . S
C484 O467 1.256 . S
C484 C477 1.496 . S
C485 C452 1.448 . S
C485 H462 0.930 . S
C485 C486 1.328 . S
C486 C457 1.427 . S
C486 H463 0.929 . S
C486 C485 1.328 . S
C487 O471 1.264 . S
C487 O472 1.243 . S
C488 C491 1.399 . S
C488 C492 1.383 . S
C488 C495 1.496 . S
C489 C490 1.399 . S
C489 C492 1.389 . S
C490 C489 1.399 . S
C490 C493 1.380 . S
C490 H500 0.929 . S
C491 C488 1.399 . S
C491 C493 1.392 . S
C491 H501 0.929 . S
C492 C488 1.383 . S
C492 C489 1.389 . S
C492 H502 0.931 . S
C493 C490 1.380 . S
C493 C491 1.392 . S
C493 H503 0.929 . S
C494 O474 1.266 . S
C494 O475 1.248 . S
C495 Tb431 2.802 . S
C495 O470 1.264 . S
C495 O473 1.256 . S
C495 C488 1.496 . S
H496 C479 0.929 . S
H497 C480 0.929 . S
H498 C481 0.929 . S
H499 C482 0.931 . S
H500 C490 0.929 . S
H501 C491 0.929 . S
H502 C492 0.931 . S
H503 C493 0.929 . S
Tb504 N533 2.617 . S
Tb504 N539 2.572 . S
Tb504 O548 2.465 . S
Tb504 O549 2.387 . S
Tb504 O551 2.428 . S
Tb504 O552 2.308 . S
Tb504 O556 2.349 . S
Tb504 O559 2.393 . S
Tb504 C568 2.802 . S
C505 N506 1.379 . S
C505 C508 1.416 . S
C505 C512 1.424 . S
N506 C505 1.379 . S
N506 C509 1.334 . S
N506 Tb515 2.617 . S
C507 C509 1.390 . S
C507 C510 1.339 . S
C507 H527 0.930 . S
C508 C505 1.416 . S
C508 C510 1.416 . S
C508 C514 1.448 . S
C509 N506 1.334 . S
C509 C507 1.390 . S
C509 H520 0.930 . S
C510 C507 1.339 . S
C510 C508 1.416 . S
C510 H531 0.930 . S
C511 C512 1.413 . S
C511 C513 1.427 . S
C511 C517 1.416 . S
C512 C505 1.424 . S
C512 C511 1.413 . S
C512 N516 1.361 . S
C513 C511 1.427 . S
C513 C514 1.328 . S
C513 H528 0.929 . S
C514 C508 1.448 . S
C514 C513 1.328 . S
C514 H529 0.930 . S
Tb515 N506 2.617 . S
Tb515 N516 2.572 . S
Tb515 O550 2.349 . S
Tb515 O553 2.393 . S
Tb515 O554 2.465 . S
Tb515 O555 2.387 . S
Tb515 O557 2.428 . S
Tb515 O558 2.308 . S
Tb515 C579 2.802 . S
N516 C512 1.361 . S
N516 Tb515 2.572 . S
N516 C518 1.340 . S
C517 C511 1.416 . S
C517 C519 1.332 . S
C517 H525 0.931 . S
C518 N516 1.340 . S
C518 C519 1.407 . S
C518 H524 0.930 . S
C519 C517 1.332 . S
C519 C518 1.407 . S
C519 H521 0.929 . S
H520 C509 0.930 . S
H521 C519 0.929 . S
H522 C537 0.930 . S
H523 C544 0.929 . S
H524 C518 0.930 . S
H525 C517 0.931 . S
H526 C540 0.930 . S
H527 C507 0.930 . S
H528 C513 0.929 . S
H529 C514 0.930 . S
H530 C535 0.930 . S
H531 C510 0.930 . S
H532 C543 0.931 . S
N533 Tb504 2.617 . S
N533 C534 1.379 . S
N533 C537 1.334 . S
C534 N533 1.379 . S
C534 C536 1.416 . S
C534 C542 1.424 . S
C535 H530 0.930 . S
C535 C537 1.390 . S
C535 C538 1.339 . S
C536 C534 1.416 . S
C536 C538 1.416 . S
C536 C569 1.448 . S
C537 H522 0.930 . S
C537 N533 1.334 . S
C537 C535 1.390 . S
C538 C535 1.339 . S
C538 C536 1.416 . S
C538 H545 0.930 . S
N539 Tb504 2.572 . S
N539 C540 1.340 . S
N539 C542 1.361 . S
C540 H526 0.930 . S
C540 N539 1.340 . S
C540 C544 1.407 . S
C541 C542 1.413 . S
C541 C543 1.416 . S
C541 C570 1.427 . S
C542 C534 1.424 . S
C542 N539 1.361 . S
C542 C541 1.413 . S
C543 H532 0.931 . S
C543 C541 1.416 . S
C543 C544 1.332 . S
C544 H523 0.929 . S
C544 C540 1.407 . S
C544 C543 1.332 . S
H545 C538 0.930 . S
H546 C569 0.930 . S
H547 C570 0.929 . S
O548 Tb504 2.465 . S
O548 C568 1.264 . S
O549 Tb504 2.387 . S
O549 C560 1.264 . S
O550 Tb515 2.349 . S
O550 C560 1.243 . S
O551 Tb504 2.428 . S
O551 C568 1.256 . S
O552 Tb504 2.308 . S
O552 C567 1.266 . S
O553 Tb515 2.393 . S
O553 C567 1.248 . S
O554 Tb515 2.465 . S
O554 C579 1.264 . S
O555 Tb515 2.387 . S
O555 C571 1.264 . S
O556 Tb504 2.349 . S
O556 C571 1.243 . S
O557 Tb515 2.428 . S
O557 C579 1.256 . S
O558 Tb515 2.308 . S
O558 C578 1.266 . S
O559 Tb504 2.393 . S
O559 C578 1.248 . S
C560 O549 1.264 . S
C560 O550 1.243 . S
C561 C564 1.395 1_556 S
C561 C566 1.383 1_556 S
C561 C568 1.496 . S
C562 C563 1.399 . S
C562 C566 1.389 . S
C563 C562 1.399 . S
C563 C565 1.380 . S
C563 H580 0.929 . S
C564 C561 1.395 1_554 S
C564 C565 1.402 . S
C564 H581 0.924 1_554 S
C565 C563 1.380 . S
C565 C564 1.402 . S
C565 H582 0.929 . S
C566 C561 1.383 1_554 S
C566 C562 1.389 . S
C566 H583 0.931 . S
C567 O552 1.266 . S
C567 O553 1.248 . S
C568 Tb504 2.802 . S
C568 O548 1.264 . S
C568 O551 1.256 . S
C568 C561 1.496 . S
C569 C536 1.448 . S
C569 H546 0.930 . S
C569 C570 1.328 . S
C570 C541 1.427 . S
C570 H547 0.929 . S
C570 C569 1.328 . S
C571 O555 1.264 . S
C571 O556 1.243 . S
C572 C575 1.399 . S
C572 C576 1.383 . S
C572 C579 1.496 . S
C573 C574 1.399 . S
C573 C576 1.389 . S
C574 C573 1.399 . S
C574 C577 1.380 . S
C574 H584 0.929 . S
C575 C572 1.399 . S
C575 C577 1.392 . S
C575 H585 0.929 . S
C576 C572 1.383 . S
C576 C573 1.389 . S
C576 H586 0.931 . S
C577 C574 1.380 . S
C577 C575 1.392 . S
C577 H587 0.929 . S
C578 O558 1.266 . S
C578 O559 1.248 . S
C579 Tb515 2.802 . S
C579 O554 1.264 . S
C579 O557 1.256 . S
C579 C572 1.496 . S
H580 C563 0.929 . S
H581 C564 0.924 1_556 S
H582 C565 0.929 . S
H583 C566 0.931 . S
H584 C574 0.929 . S
H585 C575 0.929 . S
H586 C576 0.931 . S
H587 C577 0.929 . S
Tb588 N617 2.617 . S
Tb588 N623 2.572 . S
Tb588 O632 2.465 . S
Tb588 O633 2.387 . S
Tb588 O635 2.428 . S
Tb588 O636 2.308 . S
Tb588 O640 2.349 . S
Tb588 O643 2.393 . S
Tb588 C652 2.802 . S
C589 N590 1.379 . S
C589 C592 1.416 . S
C589 C596 1.424 . S
N590 C589 1.379 . S
N590 C593 1.334 . S
N590 Tb599 2.617 . S
C591 C593 1.390 . S
C591 C594 1.339 . S
C591 H611 0.930 . S
C592 C589 1.416 . S
C592 C594 1.416 . S
C592 C598 1.448 . S
C593 N590 1.334 . S
C593 C591 1.390 . S
C593 H604 0.930 . S
C594 C591 1.339 . S
C594 C592 1.416 . S
C594 H615 0.930 . S
C595 C596 1.413 . S
C595 C597 1.427 . S
C595 C601 1.416 . S
C596 C589 1.424 . S
C596 C595 1.413 . S
C596 N600 1.361 . S
C597 C595 1.427 . S
C597 C598 1.328 . S
C597 H612 0.929 . S
C598 C592 1.448 . S
C598 C597 1.328 . S
C598 H613 0.930 . S
Tb599 N590 2.617 . S
Tb599 N600 2.572 . S
Tb599 O634 2.349 . S
Tb599 O637 2.393 . S
Tb599 O638 2.465 . S
Tb599 O639 2.387 . S
Tb599 O641 2.428 . S
Tb599 O642 2.308 . S
Tb599 C663 2.802 . S
N600 C596 1.361 . S
N600 Tb599 2.572 . S
N600 C602 1.340 . S
C601 C595 1.416 . S
C601 C603 1.332 . S
C601 H609 0.972 . S
C602 N600 1.340 . S
C602 C603 1.407 . S
C602 H608 0.930 . S
C603 C601 1.332 . S
C603 C602 1.407 . S
C603 H605 0.929 . S
H604 C593 0.930 . S
H605 C603 0.929 . S
H606 C621 0.930 . S
H607 C628 0.929 . S
H608 C602 0.930 . S
H609 C601 0.972 . S
H610 C624 0.930 . S
H611 C591 0.930 . S
H612 C597 0.929 . S
H613 C598 0.930 . S
H614 C619 0.930 . S
H615 C594 0.930 . S
H616 C627 0.931 . S
N617 Tb588 2.617 . S
N617 C618 1.379 . S
N617 C621 1.334 . S
C618 N617 1.379 . S
C618 C620 1.416 . S
C618 C626 1.424 . S
C619 H614 0.930 . S
C619 C621 1.390 . S
C619 C622 1.339 . S
C620 C618 1.416 . S
C620 C622 1.416 . S
C620 C653 1.448 . S
C621 H606 0.930 . S
C621 N617 1.334 . S
C621 C619 1.390 . S
C622 C619 1.339 . S
C622 C620 1.416 . S
C622 H629 0.930 . S
N623 Tb588 2.572 . S
N623 C624 1.340 . S
N623 C626 1.361 . S
C624 H610 0.930 . S
C624 N623 1.340 . S
C624 C628 1.407 . S
C625 C626 1.413 . S
C625 C627 1.416 . S
C625 C654 1.427 . S
C626 C618 1.424 . S
C626 N623 1.361 . S
C626 C625 1.413 . S
C627 H616 0.931 . S
C627 C625 1.416 . S
C627 C628 1.332 . S
C628 H607 0.929 . S
C628 C624 1.407 . S
C628 C627 1.332 . S
H629 C622 0.930 . S
H630 C653 0.930 . S
H631 C654 0.929 . S
O632 Tb588 2.465 . S
O632 C652 1.264 . S
O633 Tb588 2.387 . S
O633 C644 1.264 . S
O634 Tb599 2.349 . S
O634 C644 1.243 . S
O635 Tb588 2.428 . S
O635 C652 1.256 . S
O636 Tb588 2.308 . S
O636 C651 1.266 . S
O637 Tb599 2.393 . S
O637 C651 1.248 . S
O638 Tb599 2.465 . S
O638 C663 1.264 . S
O639 Tb599 2.387 . S
O639 C655 1.264 . S
O640 Tb588 2.349 . S
O640 C655 1.243 . S
O641 Tb599 2.428 . S
O641 C663 1.256 . S
O642 Tb599 2.308 . S
O642 C662 1.266 . S
O643 Tb588 2.393 . S
O643 C662 1.248 . S
C644 O633 1.264 . S
C644 O634 1.243 . S
C645 C648 1.399 . S
C645 C650 1.383 . S
C645 C652 1.496 . S
C646 C647 1.399 . S
C646 C650 1.389 . S
C647 C646 1.399 . S
C647 C649 1.380 . S
C647 H664 0.929 . S
C648 C645 1.399 . S
C648 C649 1.392 . S
C648 H665 0.929 . S
C649 C647 1.380 . S
C649 C648 1.392 . S
C649 H666 0.929 . S
C650 C645 1.383 . S
C650 C646 1.389 . S
C650 H667 0.931 . S
C651 O636 1.266 . S
C651 O637 1.248 . S
C652 Tb588 2.802 . S
C652 O632 1.264 . S
C652 O635 1.256 . S
C652 C645 1.496 . S
C653 C620 1.448 . S
C653 H630 0.930 . S
C653 C654 1.328 . S
C654 C625 1.427 . S
C654 H631 0.929 . S
C654 C653 1.328 . S
C655 O639 1.264 . S
C655 O640 1.243 . S
C656 C659 1.399 . S
C656 C660 1.383 1_556 S
C656 C663 1.496 . S
C657 C658 1.399 . S
C657 C660 1.389 . S
C658 C657 1.399 . S
C658 C661 1.380 . S
C658 H668 0.929 . S
C659 C656 1.399 . S
C659 C661 1.392 1_556 S
C659 H669 0.929 . S
C660 C656 1.383 1_554 S
C660 C657 1.389 . S
C660 H670 0.931 . S
C661 C658 1.380 . S
C661 C659 1.392 1_554 S
C661 H671 0.929 . S
C662 O642 1.266 . S
C662 O643 1.248 . S
C663 Tb599 2.802 . S
C663 O638 1.264 . S
C663 O641 1.256 . S
C663 C656 1.496 . S
H664 C647 0.929 . S
H665 C648 0.929 . S
H666 C649 0.929 . S
H667 C650 0.931 . S
H668 C658 0.929 . S
H669 C659 0.929 . S
H670 C660 0.931 . S
H671 C661 0.929 . S
Tb672 N701 2.617 . S
Tb672 N707 2.572 . S
Tb672 O716 2.465 . S
Tb672 O717 2.387 . S
Tb672 O719 2.428 . S
Tb672 O720 2.308 . S
Tb672 O724 2.349 . S
Tb672 O727 2.393 . S
Tb672 C736 2.802 . S
C673 N674 1.379 . S
C673 C676 1.416 . S
C673 C680 1.424 . S
N674 C673 1.379 . S
N674 C677 1.334 . S
N674 Tb683 2.617 . S
C675 C677 1.390 . S
C675 C678 1.339 . S
C675 H695 0.930 . S
C676 C673 1.416 . S
C676 C678 1.416 . S
C676 C682 1.448 . S
C677 N674 1.334 . S
C677 C675 1.390 . S
C677 H688 0.930 . S
C678 C675 1.339 . S
C678 C676 1.416 . S
C678 H699 0.930 . S
C679 C680 1.413 . S
C679 C681 1.427 . S
C679 C685 1.416 . S
C680 C673 1.424 . S
C680 C679 1.413 . S
C680 N684 1.361 . S
C681 C679 1.427 . S
C681 C682 1.328 . S
C681 H696 0.929 . S
C682 C676 1.448 . S
C682 C681 1.328 . S
C682 H697 0.930 . S
Tb683 N674 2.617 . S
Tb683 N684 2.572 . S
Tb683 O718 2.349 . S
Tb683 O721 2.393 . S
Tb683 O722 2.465 . S
Tb683 O723 2.387 . S
Tb683 O725 2.428 . S
Tb683 O726 2.308 . S
Tb683 C747 2.802 . S
N684 C680 1.361 . S
N684 Tb683 2.572 . S
N684 C686 1.340 . S
C685 C679 1.416 . S
C685 C687 1.332 . S
C685 H693 0.931 . S
C686 N684 1.340 . S
C686 C687 1.407 . S
C686 H692 0.930 . S
C687 C685 1.332 . S
C687 C686 1.407 . S
C687 H689 0.929 . S
H688 C677 0.930 . S
H689 C687 0.929 . S
H690 C705 0.930 . S
H691 C712 0.929 . S
H692 C686 0.930 . S
H693 C685 0.931 . S
H694 C708 0.930 . S
H695 C675 0.930 . S
H696 C681 0.929 . S
H697 C682 0.930 . S
H698 C703 0.930 . S
H699 C678 0.930 . S
H700 C711 0.931 1_455 S
N701 Tb672 2.617 . S
N701 C702 1.379 . S
N701 C705 1.334 . S
C702 N701 1.379 . S
C702 C704 1.416 . S
C702 C710 1.424 . S
C703 H698 0.930 . S
C703 C705 1.390 . S
C703 C706 1.339 . S
C704 C702 1.416 . S
C704 C706 1.416 . S
C704 C737 1.448 . S
C705 H690 0.930 . S
C705 N701 1.334 . S
C705 C703 1.390 . S
C706 C703 1.339 . S
C706 C704 1.416 . S
C706 H713 0.930 . S
N707 Tb672 2.572 . S
N707 C708 1.340 . S
N707 C710 1.361 . S
C708 H694 0.930 . S
C708 N707 1.340 . S
C708 C712 1.407 . S
C709 C710 1.413 . S
C709 C711 1.416 . S
C709 C738 1.427 . S
C710 C702 1.424 . S
C710 N707 1.361 . S
C710 C709 1.413 . S
C711 H700 0.931 1_655 S
C711 C709 1.416 . S
C711 C712 1.332 . S
C712 H691 0.929 . S
C712 C708 1.407 . S
C712 C711 1.332 . S
H713 C706 0.930 . S
H714 C737 0.930 . S
H715 C738 0.929 1_455 S
O716 Tb672 2.465 . S
O716 C736 1.264 . S
O717 Tb672 2.387 . S
O717 C728 1.264 . S
O718 Tb683 2.349 . S
O718 C728 1.243 . S
O719 Tb672 2.428 . S
O719 C736 1.256 . S
O720 Tb672 2.308 . S
O720 C735 1.266 . S
O721 Tb683 2.393 . S
O721 C735 1.248 . S
O722 Tb683 2.465 . S
O722 C747 1.264 . S
O723 Tb683 2.387 . S
O723 C739 1.264 . S
O724 Tb672 2.349 . S
O724 C739 1.243 . S
O725 Tb683 2.428 . S
O725 C747 1.256 . S
O726 Tb683 2.308 . S
O726 C746 1.266 . S
O727 Tb672 2.393 . S
O727 C746 1.248 . S
C728 O717 1.264 . S
C728 O718 1.243 . S
C729 C732 1.399 1_556 S
C729 C734 1.383 1_556 S
C729 C736 1.496 . S
C730 C731 1.399 . S
C730 C734 1.389 . S
C731 C730 1.399 . S
C731 C733 1.380 . S
C731 H748 0.929 . S
C732 C729 1.399 1_554 S
C732 C733 1.392 . S
C732 H749 0.929 1_554 S
C733 C731 1.380 . S
C733 C732 1.392 . S
C733 H750 0.929 . S
C734 C729 1.383 1_554 S
C734 C730 1.389 . S
C734 H751 0.931 . S
C735 O720 1.266 . S
C735 O721 1.248 . S
C736 Tb672 2.802 . S
C736 O716 1.264 . S
C736 O719 1.256 . S
C736 C729 1.496 . S
C737 C704 1.448 . S
C737 H714 0.930 . S
C737 C738 1.328 . S
C738 C709 1.427 . S
C738 H715 0.929 1_655 S
C738 C737 1.328 . S
C739 O723 1.264 . S
C739 O724 1.243 . S
C740 C743 1.399 . S
C740 C744 1.383 . S
C740 C747 1.496 . S
C741 C742 1.399 . S
C741 C744 1.389 . S
C742 C741 1.399 . S
C742 C745 1.380 . S
C742 H752 0.929 . S
C743 C740 1.399 . S
C743 C745 1.392 . S
C743 H753 0.929 . S
C744 C740 1.383 . S
C744 C741 1.389 . S
C744 H754 0.931 . S
C745 C742 1.380 . S
C745 C743 1.392 . S
C745 H755 0.929 . S
C746 O726 1.266 . S
C746 O727 1.248 . S
C747 Tb683 2.802 . S
C747 O722 1.264 . S
C747 O725 1.256 . S
C747 C740 1.496 . S
H748 C731 0.929 . S
H749 C732 0.929 1_556 S
H750 C733 0.929 . S
H751 C734 0.931 . S
H752 C742 0.929 . S
H753 C743 0.929 . S
H754 C744 0.931 . S
H755 C745 0.929 . S
C756 C757 1.391 . S
C756 C758 1.394 . S
C756 H772 0.931 . S
C757 C756 1.391 . S
C757 C761 1.376 . S
C758 C756 1.394 . S
C758 C759 1.369 . S
C758 C762 1.531 . S
C759 C758 1.369 . S
C759 C760 1.410 . S
C759 C767 1.503 . S
C760 C759 1.410 . S
C760 C761 1.392 . S
C760 C763 1.511 . S
C761 C757 1.376 . S
C761 C760 1.392 . S
C761 H773 0.929 . S
C762 C758 1.531 . S
C762 H774 0.960 . S
C762 H775 0.962 . S
C762 H776 0.960 . S
C763 C760 1.511 . S
C763 H777 0.961 . S
C763 H778 0.961 . S
C763 H779 0.964 1_455 S
C764 C765 1.370 . S
C764 C766 1.363 . S
C764 H780 0.931 . S
C765 C764 1.370 . S
C765 C769 1.408 1_455 S
C766 C764 1.363 . S
C766 C767 1.370 . S
C766 C770 1.524 . S
C767 C759 1.503 . S
C767 C766 1.370 . S
C767 C768 1.403 1_455 S
C768 C767 1.403 1_655 S
C768 C769 1.404 . S
C768 C771 1.539 . S
C769 C765 1.408 1_655 S
C769 C768 1.404 . S
C769 H781 0.930 . S
C770 C766 1.524 . S
C770 H782 0.956 . S
C770 H783 0.961 . S
C770 H784 0.961 . S
C771 C768 1.539 . S
C771 H785 0.958 . S
C771 H786 0.961 . S
C771 H787 0.960 . S
H772 C756 0.931 . S
H773 C761 0.929 . S
H774 C762 0.960 . S
H775 C762 0.962 . S
H776 C762 0.960 . S
H777 C763 0.961 . S
H778 C763 0.961 . S
H779 C763 0.964 1_655 S
H780 C764 0.931 . S
H781 C769 0.930 . S
H782 C770 0.956 . S
H783 C770 0.961 . S
H784 C770 0.961 . S
H785 C771 0.958 . S
H786 C771 0.961 . S
H787 C771 0.960 . S
C788 C789 1.391 . S
C788 C790 1.394 . S
C788 H804 0.931 . S
C789 C788 1.391 . S
C789 C793 1.376 . S
C790 C788 1.394 . S
C790 C791 1.369 . S
C790 C794 1.531 . S
C791 C790 1.369 . S
C791 C792 1.410 . S
C791 C799 1.503 . S
C792 C791 1.410 . S
C792 C793 1.392 . S
C792 C795 1.511 . S
C793 C789 1.376 . S
C793 C792 1.392 . S
C793 H805 0.929 . S
C794 C790 1.531 . S
C794 H806 0.960 . S
C794 H807 0.962 . S
C794 H808 0.960 . S
C795 C792 1.511 . S
C795 H809 0.961 . S
C795 H810 0.961 . S
C795 H811 0.961 . S
C796 C797 1.370 . S
C796 C798 1.363 . S
C796 H812 0.931 . S
C797 C796 1.370 . S
C797 C801 1.408 . S
C798 C796 1.363 . S
C798 C799 1.370 . S
C798 C802 1.524 . S
C799 C791 1.503 . S
C799 C798 1.370 . S
C799 C800 1.403 . S
C800 C799 1.403 . S
C800 C801 1.404 . S
C800 C803 1.539 . S
C801 C797 1.408 . S
C801 C800 1.404 . S
C801 H813 0.930 . S
C802 C798 1.524 . S
C802 H814 0.956 . S
C802 H815 0.961 . S
C802 H816 0.961 . S
C803 C800 1.539 . S
C803 H817 0.958 . S
C803 H818 0.961 . S
C803 H819 0.960 . S
H804 C788 0.931 . S
H805 C793 0.929 . S
H806 C794 0.960 . S
H807 C794 0.962 . S
H808 C794 0.960 . S
H809 C795 0.961 . S
H810 C795 0.961 . S
H811 C795 0.961 . S
H812 C796 0.931 . S
H813 C801 0.930 . S
H814 C802 0.956 . S
H815 C802 0.961 . S
H816 C802 0.961 . S
H817 C803 0.958 . S
H818 C803 0.961 . S
H819 C803 0.960 . S
C820 C821 1.391 . S
C820 C822 1.394 . S
C820 H836 0.931 . S
C821 C820 1.391 . S
C821 C825 1.376 . S
C822 C820 1.394 . S
C822 C823 1.369 . S
C822 C826 1.531 . S
C823 C822 1.369 . S
C823 C824 1.410 . S
C823 C831 1.503 . S
C824 C823 1.410 . S
C824 C825 1.392 . S
C824 C827 1.511 . S
C825 C821 1.376 . S
C825 C824 1.392 . S
C825 H837 0.929 . S
C826 C822 1.531 . S
C826 H838 0.960 . S
C826 H839 0.962 . S
C826 H840 0.960 . S
C827 C824 1.511 . S
C827 H841 0.961 . S
C827 H842 0.961 . S
C827 H843 0.961 . S
C828 C829 1.370 . S
C828 C830 1.363 . S
C828 H844 0.931 . S
C829 C828 1.370 . S
C829 C833 1.408 . S
C830 C828 1.363 . S
C830 C831 1.370 . S
C830 C834 1.524 . S
C831 C823 1.503 . S
C831 C830 1.370 . S
C831 C832 1.403 . S
C832 C831 1.403 . S
C832 C833 1.404 . S
C832 C835 1.539 . S
C833 C829 1.408 . S
C833 C832 1.404 . S
C833 H845 0.930 . S
C834 C830 1.524 . S
C834 H846 0.956 . S
C834 H847 0.961 . S
C834 H848 0.961 . S
C835 C832 1.539 . S
C835 H849 0.958 . S
C835 H850 0.961 . S
C835 H851 0.960 . S
H836 C820 0.931 . S
H837 C825 0.929 . S
H838 C826 0.960 . S
H839 C826 0.962 . S
H840 C826 0.960 . S
H841 C827 0.961 . S
H842 C827 0.961 . S
H843 C827 0.961 . S
H844 C828 0.931 . S
H845 C833 0.930 . S
H846 C834 0.956 . S
H847 C834 0.961 . S
H848 C834 0.961 . S
H849 C835 0.958 . S
H850 C835 0.961 . S
H851 C835 0.960 . S
C852 C853 1.391 . S
C852 C854 1.394 . S
C852 H868 0.931 . S
C853 C852 1.391 . S
C853 C857 1.376 . S
C854 C852 1.394 . S
C854 C855 1.369 . S
C854 C858 1.531 . S
C855 C854 1.369 . S
C855 C856 1.410 . S
C855 C863 1.503 . S
C856 C855 1.410 . S
C856 C857 1.392 . S
C856 C859 1.511 . S
C857 C853 1.376 . S
C857 C856 1.392 . S
C857 H869 0.929 . S
C858 C854 1.531 . S
C858 H870 0.960 . S
C858 H871 0.962 . S
C858 H872 0.960 . S
C859 C856 1.511 . S
C859 H873 0.961 . S
C859 H874 0.961 . S
C859 H875 0.961 . S
C860 C861 1.370 . S
C860 C862 1.363 . S
C860 H876 0.931 . S
C861 C860 1.370 . S
C861 C865 1.408 . S
C862 C860 1.363 . S
C862 C863 1.370 . S
C862 C866 1.524 . S
C863 C855 1.503 . S
C863 C862 1.370 . S
C863 C864 1.403 . S
C864 C863 1.403 . S
C864 C865 1.404 . S
C864 C867 1.539 . S
C865 C861 1.408 . S
C865 C864 1.404 . S
C865 H877 0.930 . S
C866 C862 1.524 . S
C866 H878 0.956 . S
C866 H879 0.961 . S
C866 H880 0.961 . S
C867 C864 1.539 . S
C867 H881 0.958 . S
C867 H882 0.961 . S
C867 H883 0.960 . S
H868 C852 0.931 . S
H869 C857 0.929 . S
H870 C858 0.960 . S
H871 C858 0.962 . S
H872 C858 0.960 . S
H873 C859 0.961 . S
H874 C859 0.961 . S
H875 C859 0.961 . S
H876 C860 0.931 . S
H877 C865 0.930 . S
H878 C866 0.956 . S
H879 C866 0.961 . S
H880 C866 0.961 . S
H881 C867 0.958 . S
H882 C867 0.961 . S
H883 C867 0.960 . S
C884 C885 1.391 . S
C884 C886 1.394 . S
C884 H900 0.931 . S
C885 C884 1.391 . S
C885 C889 1.376 . S
C886 C884 1.394 . S
C886 C887 1.369 . S
C886 C890 1.531 . S
C887 C886 1.369 . S
C887 C888 1.410 . S
C887 C895 1.503 . S
C888 C887 1.410 . S
C888 C889 1.392 . S
C888 C891 1.511 . S
C889 C885 1.376 . S
C889 C888 1.392 . S
C889 H901 0.929 . S
C890 C886 1.531 . S
C890 H902 0.960 . S
C890 H903 0.962 . S
C890 H904 0.960 . S
C891 C888 1.511 . S
C891 H905 0.961 . S
C891 H906 0.961 . S
C891 H907 0.961 . S
C892 C893 1.370 . S
C892 C894 1.363 . S
C892 H908 0.931 . S
C893 C892 1.370 . S
C893 C897 1.408 . S
C894 C892 1.363 . S
C894 C895 1.370 . S
C894 C898 1.524 . S
C895 C887 1.503 . S
C895 C894 1.370 . S
C895 C896 1.403 . S
C896 C895 1.403 . S
C896 C897 1.404 . S
C896 C899 1.539 . S
C897 C893 1.408 . S
C897 C896 1.404 . S
C897 H909 0.930 . S
C898 C894 1.524 . S
C898 H910 0.956 . S
C898 H911 0.961 . S
C898 H912 0.961 . S
C899 C896 1.539 . S
C899 H913 0.958 . S
C899 H914 0.961 . S
C899 H915 0.960 . S
H900 C884 0.931 . S
H901 C889 0.929 . S
H902 C890 0.960 . S
H903 C890 0.962 . S
H904 C890 0.960 . S
H905 C891 0.961 . S
H906 C891 0.961 . S
H907 C891 0.961 . S
H908 C892 0.931 . S
H909 C897 0.930 . S
H910 C898 0.956 . S
H911 C898 0.961 . S
H912 C898 0.961 . S
H913 C899 0.958 . S
H914 C899 0.961 . S
H915 C899 0.960 . S
C916 C917 1.391 . S
C916 C918 1.394 . S
C916 H932 0.931 . S
C917 C916 1.391 . S
C917 C921 1.376 . S
C918 C916 1.394 . S
C918 C919 1.369 . S
C918 C922 1.531 . S
C919 C918 1.369 . S
C919 C920 1.410 . S
C919 C927 1.503 . S
C920 C919 1.410 . S
C920 C921 1.392 . S
C920 C923 1.511 . S
C921 C917 1.376 . S
C921 C920 1.392 . S
C921 H933 0.929 . S
C922 C918 1.531 . S
C922 H934 0.960 . S
C922 H935 0.962 . S
C922 H936 0.960 . S
C923 C920 1.511 . S
C923 H937 0.961 . S
C923 H938 0.961 . S
C923 H939 0.961 . S
C924 C925 1.370 1_556 S
C924 C926 1.363 . S
C924 H940 0.931 . S
C925 C924 1.370 1_554 S
C925 C929 1.408 . S
C926 C924 1.363 . S
C926 C927 1.370 . S
C926 C930 1.524 . S
C927 C919 1.503 . S
C927 C926 1.370 . S
C927 C928 1.403 . S
C928 C927 1.403 . S
C928 C929 1.404 1_556 S
C928 C931 1.539 . S
C929 C925 1.408 . S
C929 C928 1.404 1_554 S
C929 H941 0.930 . S
C930 C926 1.524 . S
C930 H942 0.956 . S
C930 H943 0.961 . S
C930 H944 0.961 . S
C931 C928 1.539 . S
C931 H945 0.958 . S
C931 H946 0.961 . S
C931 H947 0.960 . S
H932 C916 0.931 . S
H933 C921 0.929 . S
H934 C922 0.960 . S
H935 C922 0.962 . S
H936 C922 0.960 . S
H937 C923 0.961 . S
H938 C923 0.961 . S
H939 C923 0.961 . S
H940 C924 0.931 . S
H941 C929 0.930 . S
H942 C930 0.956 . S
H943 C930 0.961 . S
H944 C930 0.961 . S
H945 C931 0.958 . S
H946 C931 0.961 . S
H947 C931 0.960 . S
C948 C949 1.391 . S
C948 C950 1.394 . S
C948 H964 0.931 . S
C949 C948 1.391 . S
C949 C953 1.376 . S
C950 C948 1.394 . S
C950 C951 1.369 . S
C950 C954 1.531 . S
C951 C950 1.369 . S
C951 C952 1.410 . S
C951 C959 1.503 . S
C952 C951 1.410 . S
C952 C953 1.392 . S
C952 C955 1.511 . S
C953 C949 1.376 . S
C953 C952 1.392 . S
C953 H965 0.929 . S
C954 C950 1.531 . S
C954 H966 0.960 . S
C954 H967 0.962 . S
C954 H968 0.960 . S
C955 C952 1.511 . S
C955 H969 0.961 . S
C955 H970 0.961 . S
C955 H971 0.961 . S
C956 C957 1.370 . S
C956 C958 1.363 . S
C956 H972 0.931 . S
C957 C956 1.370 . S
C957 C961 1.408 . S
C958 C956 1.363 . S
C958 C959 1.370 . S
C958 C962 1.524 . S
C959 C951 1.503 . S
C959 C958 1.370 . S
C959 C960 1.403 . S
C960 C959 1.403 . S
C960 C961 1.404 . S
C960 C963 1.539 . S
C961 C957 1.408 . S
C961 C960 1.404 . S
C961 H973 0.930 . S
C962 C958 1.524 . S
C962 H974 0.956 . S
C962 H975 0.961 . S
C962 H976 0.961 . S
C963 C960 1.539 . S
C963 H977 0.958 . S
C963 H978 0.961 . S
C963 H979 0.960 . S
H964 C948 0.931 . S
H965 C953 0.929 . S
H966 C954 0.960 . S
H967 C954 0.962 . S
H968 C954 0.960 . S
H969 C955 0.961 . S
H970 C955 0.961 . S
H971 C955 0.961 . S
H972 C956 0.931 . S
H973 C961 0.930 . S
H974 C962 0.956 . S
H975 C962 0.961 . S
H976 C962 0.961 . S
H977 C963 0.958 . S
H978 C963 0.961 . S
H979 C963 0.960 . S
C980 C981 1.391 . S
C980 C982 1.394 . S
C980 H996 0.931 . S
C981 C980 1.391 . S
C981 C985 1.376 . S
C982 C980 1.394 . S
C982 C983 1.369 . S
C982 C986 1.531 . S
C983 C982 1.369 . S
C983 C984 1.410 . S
C983 C991 1.503 . S
C984 C983 1.410 . S
C984 C985 1.392 . S
C984 C987 1.511 . S
C985 C981 1.376 . S
C985 C984 1.392 . S
C985 H997 0.929 . S
C986 C982 1.531 . S
C986 H998 0.960 . S
C986 H999 0.962 . S
C986 H1000 0.960 . S
C987 C984 1.511 . S
C987 H1001 0.961 . S
C987 H1002 0.961 . S
C987 H1003 0.961 . S
C988 C989 1.370 . S
C988 C990 1.363 . S
C988 H1004 0.931 . S
C989 C988 1.370 . S
C989 C993 1.408 . S
C990 C988 1.363 . S
C990 C991 1.370 . S
C990 C994 1.524 . S
C991 C983 1.503 . S
C991 C990 1.370 . S
C991 C992 1.403 . S
C992 C991 1.403 . S
C992 C993 1.404 . S
C992 C995 1.539 . S
C993 C989 1.408 . S
C993 C992 1.404 . S
C993 H1005 0.930 1_554 S
C994 C990 1.524 . S
C994 H1006 0.956 . S
C994 H1007 0.961 . S
C994 H1008 0.961 . S
C995 C992 1.539 . S
C995 H1009 0.958 . S
C995 H1010 0.961 . S
C995 H1011 0.960 . S
H996 C980 0.931 . S
H997 C985 0.929 . S
H998 C986 0.960 . S
H999 C986 0.962 . S
H1000 C986 0.960 . S
H1001 C987 0.961 . S
H1002 C987 0.961 . S
H1003 C987 0.961 . S
H1004 C988 0.931 . S
H1005 C993 0.930 1_556 S
H1006 C994 0.956 . S
H1007 C994 0.961 . S
H1008 C994 0.961 . S
H1009 C995 0.958 . S
H1010 C995 0.961 . S
H1011 C995 0.960 . S
C1012 C1013 1.391 . S
C1012 C1014 1.394 . S
C1012 H1028 0.931 . S
C1013 C1012 1.391 . S
C1013 C1017 1.376 . S
C1014 C1012 1.394 . S
C1014 C1015 1.369 . S
C1014 C1018 1.531 . S
C1015 C1014 1.369 . S
C1015 C1016 1.410 . S
C1015 C1023 1.503 . S
C1016 C1015 1.410 . S
C1016 C1017 1.392 . S
C1016 C1019 1.511 . S
C1017 C1013 1.376 . S
C1017 C1016 1.392 . S
C1017 H1029 0.929 . S
C1018 C1014 1.531 . S
C1018 H1030 0.960 . S
C1018 H1031 0.962 . S
C1018 H1032 0.960 . S
C1019 C1016 1.511 . S
C1019 H1033 0.961 . S
C1019 H1034 0.961 . S
C1019 H1035 0.961 . S
C1020 C1021 1.370 . S
C1020 C1022 1.363 . S
C1020 H1036 0.931 . S
C1021 C1020 1.370 . S
C1021 C1025 1.408 . S
C1022 C1020 1.363 . S
C1022 C1023 1.370 . S
C1022 C1026 1.524 . S
C1023 C1015 1.503 . S
C1023 C1022 1.370 . S
C1023 C1024 1.403 . S
C1024 C1023 1.403 . S
C1024 C1025 1.404 . S
C1024 C1027 1.539 . S
C1025 C1021 1.408 . S
C1025 C1024 1.404 . S
C1025 H1037 0.930 . S
C1026 C1022 1.524 . S
C1026 H1038 0.956 . S
C1026 H1039 0.961 . S
C1026 H1040 0.961 . S
C1027 C1024 1.539 . S
C1027 H1041 0.958 . S
C1027 H1042 0.961 . S
C1027 H1043 0.960 . S
H1028 C1012 0.931 . S
H1029 C1017 0.929 . S
H1030 C1018 0.960 . S
H1031 C1018 0.962 . S
H1032 C1018 0.960 . S
H1033 C1019 0.961 . S
H1034 C1019 0.961 . S
H1035 C1019 0.961 . S
H1036 C1020 0.931 . S
H1037 C1025 0.930 . S
H1038 C1026 0.956 . S
H1039 C1026 0.961 . S
H1040 C1026 0.961 . S
H1041 C1027 0.958 . S
H1042 C1027 0.961 . S
H1043 C1027 0.960 . S
C1044 C1045 1.391 . S
C1044 C1046 1.394 . S
C1044 H1060 0.931 . S
C1045 C1044 1.391 . S
C1045 C1049 1.376 . S
C1046 C1044 1.394 . S
C1046 C1047 1.369 . S
C1046 C1050 1.531 . S
C1047 C1046 1.369 . S
C1047 C1048 1.410 . S
C1047 C1055 1.503 . S
C1048 C1047 1.410 . S
C1048 C1049 1.392 . S
C1048 C1051 1.511 . S
C1049 C1045 1.376 . S
C1049 C1048 1.392 . S
C1049 H1061 0.929 . S
C1050 C1046 1.531 . S
C1050 H1062 0.960 . S
C1050 H1063 0.962 . S
C1050 H1064 0.960 . S
C1051 C1048 1.511 . S
C1051 H1065 0.961 . S
C1051 H1066 0.961 . S
C1051 H1067 0.961 . S
C1052 C1053 1.370 . S
C1052 C1054 1.363 . S
C1052 H1068 0.931 . S
C1053 C1052 1.370 . S
C1053 C1057 1.408 . S
C1054 C1052 1.363 . S
C1054 C1055 1.370 . S
C1054 C1058 1.524 . S
C1055 C1047 1.503 . S
C1055 C1054 1.370 . S
C1055 C1056 1.403 . S
C1056 C1055 1.403 . S
C1056 C1057 1.404 . S
C1056 C1059 1.539 . S
C1057 C1053 1.408 . S
C1057 C1056 1.404 . S
C1057 H1069 0.930 . S
C1058 C1054 1.524 . S
C1058 H1070 0.956 . S
C1058 H1071 0.961 . S
C1058 H1072 0.961 . S
C1059 C1056 1.539 . S
C1059 H1073 0.958 . S
C1059 H1074 0.961 . S
C1059 H1075 0.960 . S
H1060 C1044 0.931 . S
H1061 C1049 0.929 . S
H1062 C1050 0.960 . S
H1063 C1050 0.962 . S
H1064 C1050 0.960 . S
H1065 C1051 0.961 . S
H1066 C1051 0.961 . S
H1067 C1051 0.961 . S
H1068 C1052 0.931 . S
H1069 C1057 0.930 . S
H1070 C1058 0.956 . S
H1071 C1058 0.961 . S
H1072 C1058 0.961 . S
H1073 C1059 0.958 . S
H1074 C1059 0.961 . S
H1075 C1059 0.960 . S
C1076 C1077 1.391 . S
C1076 C1078 1.394 . S
C1076 H1092 0.931 . S
C1077 C1076 1.391 . S
C1077 C1081 1.376 . S
C1078 C1076 1.394 . S
C1078 C1079 1.369 . S
C1078 C1082 1.531 . S
C1079 C1078 1.369 . S
C1079 C1080 1.410 . S
C1079 C1087 1.503 . S
C1080 C1079 1.410 . S
C1080 C1081 1.392 . S
C1080 C1083 1.511 . S
C1081 C1077 1.376 . S
C1081 C1080 1.392 . S
C1081 H1093 0.929 . S
C1082 C1078 1.531 . S
C1082 H1094 0.960 . S
C1082 H1095 0.962 . S
C1082 H1096 0.960 . S
C1083 C1080 1.511 . S
C1083 H1097 0.961 . S
C1083 H1098 0.961 . S
C1083 H1099 0.961 . S
C1084 C1085 1.370 . S
C1084 C1086 1.363 . S
C1084 H1100 0.931 . S
C1085 C1084 1.370 . S
C1085 C1089 1.408 . S
C1086 C1084 1.363 . S
C1086 C1087 1.370 . S
C1086 C1090 1.524 . S
C1087 C1079 1.503 . S
C1087 C1086 1.370 . S
C1087 C1088 1.403 . S
C1088 C1087 1.403 . S
C1088 C1089 1.404 . S
C1088 C1091 1.539 1_554 S
C1089 C1085 1.408 . S
C1089 C1088 1.404 . S
C1089 H1101 0.930 . S
C1090 C1086 1.524 . S
C1090 H1102 0.956 . S
C1090 H1103 0.961 . S
C1090 H1104 0.961 . S
C1091 C1088 1.539 1_556 S
C1091 H1105 0.958 . S
C1091 H1106 0.961 . S
C1091 H1107 0.960 . S
H1092 C1076 0.931 . S
H1093 C1081 0.929 . S
H1094 C1082 0.960 . S
H1095 C1082 0.962 . S
H1096 C1082 0.960 . S
H1097 C1083 0.961 . S
H1098 C1083 0.961 . S
H1099 C1083 0.961 . S
H1100 C1084 0.931 . S
H1101 C1089 0.930 . S
H1102 C1090 0.956 . S
H1103 C1090 0.961 . S
H1104 C1090 0.961 . S
H1105 C1091 0.958 . S
H1106 C1091 0.961 . S
H1107 C1091 0.960 . S
C1108 C1109 1.391 1_545 S
C1108 C1110 1.394 1_545 S
C1108 H1124 0.931 . S
C1109 C1108 1.391 1_565 S
C1109 C1113 1.376 . S
C1110 C1108 1.394 1_565 S
C1110 C1111 1.369 . S
C1110 C1114 1.531 1_565 S
C1111 C1110 1.369 . S
C1111 C1112 1.410 . S
C1111 C1119 1.503 . S
C1112 C1111 1.410 . S
C1112 C1113 1.392 . S
C1112 C1115 1.511 . S
C1113 C1109 1.376 . S
C1113 C1112 1.392 . S
C1113 H1125 0.929 . S
C1114 C1110 1.531 1_545 S
C1114 H1126 0.960 . S
C1114 H1127 0.962 1_545 S
C1114 H1128 0.960 . S
C1115 C1112 1.511 . S
C1115 H1129 0.961 1_554 S
C1115 H1130 0.961 . S
C1115 H1131 0.961 1_554 S
C1116 C1117 1.370 . S
C1116 C1118 1.363 . S
C1116 H1132 0.931 . S
C1117 C1116 1.370 . S
C1117 C1121 1.408 . S
C1118 C1116 1.363 . S
C1118 C1119 1.370 . S
C1118 C1122 1.524 . S
C1119 C1111 1.503 . S
C1119 C1118 1.370 . S
C1119 C1120 1.403 . S
C1120 C1119 1.403 . S
C1120 C1121 1.404 . S
C1120 C1123 1.539 . S
C1121 C1117 1.408 . S
C1121 C1120 1.404 . S
C1121 H1133 0.930 . S
C1122 C1118 1.524 . S
C1122 H1134 0.956 . S
C1122 H1135 0.961 . S
C1122 H1136 0.961 . S
C1123 C1120 1.539 . S
C1123 H1137 0.958 . S
C1123 H1138 0.961 . S
C1123 H1139 0.960 . S
H1124 C1108 0.931 . S
H1125 C1113 0.929 . S
H1126 C1114 0.960 . S
H1127 C1114 0.962 1_565 S
H1128 C1114 0.960 . S
H1129 C1115 0.961 1_556 S
H1130 C1115 0.961 . S
H1131 C1115 0.961 1_556 S
H1132 C1116 0.931 . S
H1133 C1121 0.930 . S
H1134 C1122 0.956 . S
H1135 C1122 0.961 . S
H1136 C1122 0.961 . S
H1137 C1123 0.958 . S
H1138 C1123 0.961 . S
H1139 C1123 0.960 . S
C1140 C1141 1.391 . S
C1140 C1142 1.394 . S
C1140 H1156 0.931 1_556 S
C1141 C1140 1.391 . S
C1141 C1145 1.376 . S
C1142 C1140 1.394 . S
C1142 C1143 1.369 . S
C1142 C1146 1.531 . S
C1143 C1142 1.369 . S
C1143 C1144 1.410 . S
C1143 C1151 1.503 . S
C1144 C1143 1.410 . S
C1144 C1145 1.392 . S
C1144 C1147 1.511 . S
C1145 C1141 1.376 . S
C1145 C1144 1.392 . S
C1145 H1157 0.929 . S
C1146 C1142 1.531 . S
C1146 H1158 0.960 . S
C1146 H1159 0.962 . S
C1146 H1160 0.960 1_556 S
C1147 C1144 1.511 . S
C1147 H1161 0.961 . S
C1147 H1162 0.961 . S
C1147 H1163 0.961 . S
C1148 C1149 1.370 . S
C1148 C1150 1.363 . S
C1148 H1164 0.931 . S
C1149 C1148 1.370 . S
C1149 C1153 1.408 . S
C1150 C1148 1.363 . S
C1150 C1151 1.370 . S
C1150 C1154 1.524 . S
C1151 C1143 1.503 . S
C1151 C1150 1.370 . S
C1151 C1152 1.403 . S
C1152 C1151 1.403 . S
C1152 C1153 1.404 . S
C1152 C1155 1.539 . S
C1153 C1149 1.408 . S
C1153 C1152 1.404 . S
C1153 H1165 0.930 . S
C1154 C1150 1.524 . S
C1154 H1166 0.956 . S
C1154 H1167 0.961 . S
C1154 H1168 0.961 . S
C1155 C1152 1.539 . S
C1155 H1169 0.958 1_556 S
C1155 H1170 0.961 . S
C1155 H1171 0.960 . S
H1156 C1140 0.931 1_554 S
H1157 C1145 0.929 . S
H1158 C1146 0.960 . S
H1159 C1146 0.962 . S
H1160 C1146 0.960 1_554 S
H1161 C1147 0.961 . S
H1162 C1147 0.961 . S
H1163 C1147 0.961 . S
H1164 C1148 0.931 . S
H1165 C1153 0.930 . S
H1166 C1154 0.956 . S
H1167 C1154 0.961 . S
H1168 C1154 0.961 . S
H1169 C1155 0.958 1_554 S
H1170 C1155 0.961 . S
H1171 C1155 0.960 . S
C1172 C1173 1.391 . S
C1172 C1174 1.394 . S
C1172 H1188 0.931 . S
C1173 C1172 1.391 . S
C1173 C1177 1.376 . S
C1174 C1172 1.394 . S
C1174 C1175 1.369 . S
C1174 C1178 1.531 . S
C1175 C1174 1.369 . S
C1175 C1176 1.410 . S
C1175 C1183 1.503 . S
C1176 C1175 1.410 . S
C1176 C1177 1.392 . S
C1176 C1179 1.511 . S
C1177 C1173 1.376 . S
C1177 C1176 1.392 . S
C1177 H1189 0.929 . S
C1178 C1174 1.531 . S
C1178 H1190 0.960 . S
C1178 H1191 0.962 . S
C1178 H1192 0.960 . S
C1179 C1176 1.511 . S
C1179 H1193 0.961 . S
C1179 H1194 0.961 . S
C1179 H1195 0.961 . S
C1180 C1181 1.370 . S
C1180 C1182 1.363 . S
C1180 H1196 0.931 . S
C1181 C1180 1.370 . S
C1181 C1185 1.408 1_554 S
C1182 C1180 1.363 . S
C1182 C1183 1.370 1_554 S
C1182 C1186 1.524 . S
C1183 C1175 1.503 . S
C1183 C1182 1.370 1_556 S
C1183 C1184 1.403 . S
C1184 C1183 1.403 . S
C1184 C1185 1.404 . S
C1184 C1187 1.539 . S
C1185 C1181 1.408 1_556 S
C1185 C1184 1.404 . S
C1185 H1197 0.930 . S
C1186 C1182 1.524 . S
C1186 H1198 0.956 . S
C1186 H1199 0.961 . S
C1186 H1200 0.961 . S
C1187 C1184 1.539 . S
C1187 H1201 0.958 . S
C1187 H1202 0.961 . S
C1187 H1203 0.960 . S
H1188 C1172 0.931 . S
H1189 C1177 0.929 . S
H1190 C1178 0.960 . S
H1191 C1178 0.962 . S
H1192 C1178 0.960 . S
H1193 C1179 0.961 . S
H1194 C1179 0.961 . S
H1195 C1179 0.961 . S
H1196 C1180 0.931 . S
H1197 C1185 0.930 . S
H1198 C1186 0.956 . S
H1199 C1186 0.961 . S
H1200 C1186 0.961 . S
H1201 C1187 0.958 . S
H1202 C1187 0.961 . S
H1203 C1187 0.960 . S
C1204 C1205 1.391 . S
C1204 C1206 1.394 . S
C1204 H1220 0.931 . S
C1205 C1204 1.391 . S
C1205 C1209 1.376 . S
C1206 C1204 1.394 . S
C1206 C1207 1.369 . S
C1206 C1210 1.531 . S
C1207 C1206 1.369 . S
C1207 C1208 1.410 . S
C1207 C1215 1.503 . S
C1208 C1207 1.410 . S
C1208 C1209 1.392 . S
C1208 C1211 1.511 . S
C1209 C1205 1.376 . S
C1209 C1208 1.392 . S
C1209 H1221 0.929 . S
C1210 C1206 1.531 . S
C1210 H1222 0.960 . S
C1210 H1223 0.962 . S
C1210 H1224 0.960 . S
C1211 C1208 1.511 . S
C1211 H1225 0.961 . S
C1211 H1226 0.961 . S
C1211 H1227 0.961 . S
C1212 C1213 1.370 . S
C1212 C1214 1.363 . S
C1212 H1228 0.931 . S
C1213 C1212 1.370 . S
C1213 C1217 1.408 . S
C1214 C1212 1.363 . S
C1214 C1215 1.370 . S
C1214 C1218 1.524 . S
C1215 C1207 1.503 . S
C1215 C1214 1.370 . S
C1215 C1216 1.403 . S
C1216 C1215 1.403 . S
C1216 C1217 1.404 . S
C1216 C1219 1.539 . S
C1217 C1213 1.408 . S
C1217 C1216 1.404 . S
C1217 H1229 0.930 1_556 S
C1218 C1214 1.524 . S
C1218 H1230 0.956 . S
C1218 H1231 0.961 . S
C1218 H1232 0.961 . S
C1219 C1216 1.539 . S
C1219 H1233 0.958 . S
C1219 H1234 0.961 1_556 S
C1219 H1235 0.960 . S
H1220 C1204 0.931 . S
H1221 C1209 0.929 . S
H1222 C1210 0.960 . S
H1223 C1210 0.962 . S
H1224 C1210 0.960 . S
H1225 C1211 0.961 . S
H1226 C1211 0.961 . S
H1227 C1211 0.961 . S
H1228 C1212 0.931 . S
H1229 C1217 0.930 1_554 S
H1230 C1218 0.956 . S
H1231 C1218 0.961 . S
H1232 C1218 0.961 . S
H1233 C1219 0.958 . S
H1234 C1219 0.961 1_554 S
H1235 C1219 0.960 . S
C1236 C1237 1.391 . S
C1236 C1238 1.394 . S
C1236 H1252 0.931 . S
C1237 C1236 1.391 . S
C1237 C1241 1.376 . S
C1238 C1236 1.394 . S
C1238 C1239 1.369 . S
C1238 C1242 1.531 . S
C1239 C1238 1.369 . S
C1239 C1240 1.410 . S
C1239 C1247 1.503 . S
C1240 C1239 1.410 . S
C1240 C1241 1.392 . S
C1240 C1243 1.511 . S
C1241 C1237 1.376 . S
C1241 C1240 1.392 . S
C1241 H1253 0.929 . S
C1242 C1238 1.531 . S
C1242 H1254 0.960 . S
C1242 H1255 0.962 . S
C1242 H1256 0.960 . S
C1243 C1240 1.511 . S
C1243 H1257 0.961 . S
C1243 H1258 0.961 . S
C1243 H1259 0.961 . S
C1244 C1245 1.372 . S
C1244 C1246 1.366 . S
C1244 H1260 0.926 1_556 S
C1245 C1244 1.372 . S
C1245 C1249 1.408 . S
C1246 C1244 1.366 . S
C1246 C1247 1.370 . S
C1246 C1250 1.524 . S
C1247 C1239 1.503 . S
C1247 C1246 1.370 . S
C1247 C1248 1.403 . S
C1248 C1247 1.403 . S
C1248 C1249 1.404 . S
C1248 C1251 1.539 . S
C1249 C1245 1.408 . S
C1249 C1248 1.404 . S
C1249 H1261 0.930 . S
C1250 C1246 1.524 . S
C1250 H1262 0.956 . S
C1250 H1263 0.961 . S
C1250 H1264 0.961 1_556 S
C1251 C1248 1.539 . S
C1251 H1265 0.958 . S
C1251 H1266 0.961 . S
C1251 H1267 0.960 . S
H1252 C1236 0.931 . S
H1253 C1241 0.929 . S
H1254 C1242 0.960 . S
H1255 C1242 0.962 . S
H1256 C1242 0.960 . S
H1257 C1243 0.961 . S
H1258 C1243 0.961 . S
H1259 C1243 0.961 . S
H1260 C1244 0.926 1_554 S
H1261 C1249 0.930 . S
H1262 C1250 0.956 . S
H1263 C1250 0.961 . S
H1264 C1250 0.961 1_554 S
H1265 C1251 0.958 . S
H1266 C1251 0.961 . S
H1267 C1251 0.960 . S
C1268 C1269 1.391 . S
C1268 C1270 1.394 . S
C1268 H1284 0.931 . S
C1269 C1268 1.391 . S
C1269 C1273 1.376 . S
C1270 C1268 1.394 . S
C1270 C1271 1.369 . S
C1270 C1274 1.531 . S
C1271 C1270 1.369 . S
C1271 C1272 1.410 . S
C1271 C1279 1.503 . S
C1272 C1271 1.410 . S
C1272 C1273 1.392 . S
C1272 C1275 1.511 . S
C1273 C1269 1.376 . S
C1273 C1272 1.392 . S
C1273 H1285 0.929 1_556 S
C1274 C1270 1.531 . S
C1274 H1286 0.960 . S
C1274 H1287 0.962 . S
C1274 H1288 0.960 . S
C1275 C1272 1.511 . S
C1275 H1289 0.961 . S
C1275 H1290 0.961 . S
C1275 H1291 0.961 1_556 S
C1276 C1277 1.370 . S
C1276 C1278 1.363 . S
C1276 H1292 0.931 . S
C1277 C1276 1.370 . S
C1277 C1281 1.408 . S
C1278 C1276 1.363 . S
C1278 C1279 1.370 . S
C1278 C1282 1.524 . S
C1279 C1271 1.503 . S
C1279 C1278 1.370 . S
C1279 C1280 1.403 . S
C1280 C1279 1.403 . S
C1280 C1281 1.404 . S
C1280 C1283 1.548 . S
C1281 C1277 1.408 . S
C1281 C1280 1.404 . S
C1281 H1293 0.930 . S
C1282 C1278 1.524 . S
C1282 H1294 0.956 . S
C1282 H1295 0.961 . S
C1282 H1296 0.961 . S
C1283 C1280 1.548 . S
C1283 H1297 0.958 1_556 S
C1283 H1298 0.956 1_556 S
C1283 H1299 0.956 1_556 S
H1284 C1268 0.931 . S
H1285 C1273 0.929 1_554 S
H1286 C1274 0.960 . S
H1287 C1274 0.962 . S
H1288 C1274 0.960 . S
H1289 C1275 0.961 . S
H1290 C1275 0.961 . S
H1291 C1275 0.961 1_554 S
H1292 C1276 0.931 . S
H1293 C1281 0.930 . S
H1294 C1282 0.956 . S
H1295 C1282 0.961 . S
H1296 C1282 0.961 . S
H1297 C1283 0.958 1_554 S
H1298 C1283 0.956 1_554 S
H1299 C1283 0.956 1_554 S
C1300 C1301 1.391 . S
C1300 C1302 1.394 . S
C1300 H1316 0.931 . S
C1301 C1300 1.391 . S
C1301 C1305 1.376 . S
C1302 C1300 1.394 . S
C1302 C1303 1.369 . S
C1302 C1306 1.531 . S
C1303 C1302 1.369 . S
C1303 C1304 1.410 . S
C1303 C1311 1.503 . S
C1304 C1303 1.410 . S
C1304 C1305 1.392 . S
C1304 C1307 1.511 . S
C1305 C1301 1.376 . S
C1305 C1304 1.392 . S
C1305 H1317 0.929 . S
C1306 C1302 1.531 . S
C1306 H1318 0.960 . S
C1306 H1319 0.962 . S
C1306 H1320 0.960 . S
C1307 C1304 1.511 . S
C1307 H1321 0.961 . S
C1307 H1322 0.961 . S
C1307 H1323 0.961 . S
C1308 C1309 1.370 . S
C1308 C1310 1.363 . S
C1308 H1324 0.931 . S
C1309 C1308 1.370 . S
C1309 C1313 1.408 . S
C1310 C1308 1.363 . S
C1310 C1311 1.370 . S
C1310 C1314 1.524 . S
C1311 C1303 1.503 . S
C1311 C1310 1.370 . S
C1311 C1312 1.403 . S
C1312 C1311 1.403 . S
C1312 C1313 1.404 . S
C1312 C1315 1.539 . S
C1313 C1309 1.408 . S
C1313 C1312 1.404 . S
C1313 H1325 0.930 1_556 S
C1314 C1310 1.524 . S
C1314 H1326 0.956 . S
C1314 H1327 0.961 . S
C1314 H1328 0.961 . S
C1315 C1312 1.539 . S
C1315 H1329 0.958 1_556 S
C1315 H1330 0.961 1_556 S
C1315 H1331 0.960 . S
H1316 C1300 0.931 . S
H1317 C1305 0.929 . S
H1318 C1306 0.960 . S
H1319 C1306 0.962 . S
H1320 C1306 0.960 . S
H1321 C1307 0.961 . S
H1322 C1307 0.961 . S
H1323 C1307 0.961 . S
H1324 C1308 0.931 . S
H1325 C1313 0.930 1_554 S
H1326 C1314 0.956 . S
H1327 C1314 0.961 . S
H1328 C1314 0.961 . S
H1329 C1315 0.958 1_554 S
H1330 C1315 0.961 1_554 S
H1331 C1315 0.960 . S
C1332 C1333 1.391 . S
C1332 C1334 1.394 . S
C1332 H1348 0.931 . S
C1333 C1332 1.391 . S
C1333 C1337 1.376 . S
C1334 C1332 1.394 . S
C1334 C1335 1.369 . S
C1334 C1338 1.531 . S
C1335 C1334 1.369 . S
C1335 C1336 1.410 1_545 S
C1335 C1343 1.503 1_545 S
C1336 C1335 1.410 1_565 S
C1336 C1337 1.392 1_565 S
C1336 C1339 1.511 . S
C1337 C1333 1.376 . S
C1337 C1336 1.392 1_545 S
C1337 H1349 0.929 1_545 S
C1338 C1334 1.531 . S
C1338 H1350 0.960 . S
C1338 H1351 0.962 . S
C1338 H1352 0.960 . S
C1339 C1336 1.511 . S
C1339 H1353 0.961 . S
C1339 H1354 0.961 . S
C1339 H1355 0.961 . S
C1340 C1341 1.370 1_556 S
C1340 C1342 1.363 . S
C1340 H1356 0.931 . S
C1341 C1340 1.370 1_554 S
C1341 C1345 1.408 . S
C1342 C1340 1.363 . S
C1342 C1343 1.370 1_556 S
C1342 C1346 1.524 . S
C1343 C1335 1.503 1_565 S
C1343 C1342 1.370 1_554 S
C1343 C1344 1.403 . S
C1344 C1343 1.403 . S
C1344 C1345 1.404 . S
C1344 C1347 1.539 1_565 S
C1345 C1341 1.408 . S
C1345 C1344 1.404 . S
C1345 H1357 0.930 . S
C1346 C1342 1.524 . S
C1346 H1358 0.956 . S
C1346 H1359 0.961 . S
C1346 H1360 0.961 . S
C1347 C1344 1.539 1_545 S
C1347 H1361 0.958 . S
C1347 H1362 0.961 1_545 S
C1347 H1363 0.960 . S
H1348 C1332 0.931 . S
H1349 C1337 0.929 1_565 S
H1350 C1338 0.960 . S
H1351 C1338 0.962 . S
H1352 C1338 0.960 . S
H1353 C1339 0.961 . S
H1354 C1339 0.961 . S
H1355 C1339 0.961 . S
H1356 C1340 0.931 . S
H1357 C1345 0.930 . S
H1358 C1346 0.956 . S
H1359 C1346 0.961 . S
H1360 C1346 0.961 . S
H1361 C1347 0.958 . S
H1362 C1347 0.961 1_565 S
H1363 C1347 0.960 . S
C1364 C1365 1.391 . S
C1364 C1366 1.394 . S
C1364 H1380 0.931 . S
C1365 C1364 1.391 . S
C1365 C1369 1.376 . S
C1366 C1364 1.394 . S
C1366 C1367 1.369 . S
C1366 C1370 1.531 . S
C1367 C1366 1.369 . S
C1367 C1368 1.410 . S
C1367 C1375 1.503 . S
C1368 C1367 1.410 . S
C1368 C1369 1.392 . S
C1368 C1371 1.511 . S
C1369 C1365 1.376 . S
C1369 C1368 1.392 . S
C1369 H1381 0.929 . S
C1370 C1366 1.531 . S
C1370 H1382 0.960 . S
C1370 H1383 0.962 . S
C1370 H1384 0.960 . S
C1371 C1368 1.511 . S
C1371 H1385 0.961 . S
C1371 H1386 0.961 . S
C1371 H1387 0.961 . S
C1372 C1373 1.370 . S
C1372 C1374 1.363 . S
C1372 H1388 0.931 . S
C1373 C1372 1.370 . S
C1373 C1377 1.408 . S
C1374 C1372 1.363 . S
C1374 C1375 1.370 . S
C1374 C1378 1.524 . S
C1375 C1367 1.503 . S
C1375 C1374 1.370 . S
C1375 C1376 1.403 . S
C1376 C1375 1.403 . S
C1376 C1377 1.404 . S
C1376 C1379 1.539 . S
C1377 C1373 1.408 . S
C1377 C1376 1.404 . S
C1377 H1389 0.930 . S
C1378 C1374 1.524 . S
C1378 H1390 0.956 . S
C1378 H1391 0.961 . S
C1378 H1392 0.961 . S
C1379 C1376 1.539 . S
C1379 H1393 0.958 . S
C1379 H1394 0.961 . S
C1379 H1395 0.960 . S
H1380 C1364 0.931 . S
H1381 C1369 0.929 . S
H1382 C1370 0.960 . S
H1383 C1370 0.962 . S
H1384 C1370 0.960 . S
H1385 C1371 0.961 . S
H1386 C1371 0.961 . S
H1387 C1371 0.961 . S
H1388 C1372 0.931 . S
H1389 C1377 0.930 . S
H1390 C1378 0.956 . S
H1391 C1378 0.961 . S
H1392 C1378 0.961 . S
H1393 C1379 0.958 . S
H1394 C1379 0.961 . S
H1395 C1379 0.960 . S
C1396 C1397 1.391 . S
C1396 C1398 1.394 . S
C1396 H1412 0.931 . S
C1397 C1396 1.391 . S
C1397 C1401 1.376 . S
C1398 C1396 1.394 . S
C1398 C1399 1.369 . S
C1398 C1402 1.531 . S
C1399 C1398 1.369 . S
C1399 C1400 1.410 . S
C1399 C1407 1.503 . S
C1400 C1399 1.410 . S
C1400 C1401 1.392 . S
C1400 C1403 1.511 . S
C1401 C1397 1.376 . S
C1401 C1400 1.392 . S
C1401 H1413 0.929 . S
C1402 C1398 1.531 . S
C1402 H1414 0.960 . S
C1402 H1415 0.962 . S
C1402 H1416 0.960 . S
C1403 C1400 1.511 . S
C1403 H1417 0.961 . S
C1403 H1418 0.961 . S
C1403 H1419 0.961 . S
C1404 C1405 1.370 . S
C1404 C1406 1.363 . S
C1404 H1420 0.931 . S
C1405 C1404 1.370 . S
C1405 C1409 1.408 . S
C1406 C1404 1.363 . S
C1406 C1407 1.370 . S
C1406 C1410 1.524 . S
C1407 C1399 1.503 . S
C1407 C1406 1.370 . S
C1407 C1408 1.403 . S
C1408 C1407 1.403 . S
C1408 C1409 1.404 . S
C1408 C1411 1.539 . S
C1409 C1405 1.408 . S
C1409 C1408 1.404 . S
C1409 H1421 0.930 . S
C1410 C1406 1.524 . S
C1410 H1422 0.956 . S
C1410 H1423 0.961 . S
C1410 H1424 0.961 . S
C1411 C1408 1.539 . S
C1411 H1425 0.958 . S
C1411 H1426 0.961 . S
C1411 H1427 0.960 . S
H1412 C1396 0.931 . S
H1413 C1401 0.929 . S
H1414 C1402 0.960 . S
H1415 C1402 0.962 . S
H1416 C1402 0.960 . S
H1417 C1403 0.961 . S
H1418 C1403 0.961 . S
H1419 C1403 0.961 . S
H1420 C1404 0.931 . S
H1421 C1409 0.930 . S
H1422 C1410 0.956 . S
H1423 C1410 0.961 . S
H1424 C1410 0.961 . S
H1425 C1411 0.958 . S
H1426 C1411 0.961 . S
H1427 C1411 0.960 . S
C1428 C1429 1.391 . S
C1428 C1430 1.394 . S
C1428 H1444 0.931 . S
C1429 C1428 1.391 . S
C1429 C1433 1.376 . S
C1430 C1428 1.394 . S
C1430 C1431 1.369 . S
C1430 C1434 1.531 . S
C1431 C1430 1.369 . S
C1431 C1432 1.410 . S
C1431 C1439 1.503 . S
C1432 C1431 1.410 . S
C1432 C1433 1.392 . S
C1432 C1435 1.511 . S
C1433 C1429 1.376 . S
C1433 C1432 1.392 . S
C1433 H1445 0.929 . S
C1434 C1430 1.531 . S
C1434 H1446 0.960 . S
C1434 H1447 0.962 . S
C1434 H1448 0.960 . S
C1435 C1432 1.511 . S
C1435 H1449 0.961 . S
C1435 H1450 0.961 . S
C1435 H1451 0.961 . S
C1436 C1437 1.370 . S
C1436 C1438 1.363 . S
C1436 H1452 0.931 . S
C1437 C1436 1.370 . S
C1437 C1441 1.408 . S
C1438 C1436 1.363 . S
C1438 C1439 1.370 . S
C1438 C1442 1.524 . S
C1439 C1431 1.503 . S
C1439 C1438 1.370 . S
C1439 C1440 1.403 . S
C1440 C1439 1.403 . S
C1440 C1441 1.404 . S
C1440 C1443 1.539 . S
C1441 C1437 1.408 . S
C1441 C1440 1.404 . S
C1441 H1453 0.930 . S
C1442 C1438 1.524 . S
C1442 H1454 0.956 . S
C1442 H1455 0.961 . S
C1442 H1456 0.961 . S
C1443 C1440 1.539 . S
C1443 H1457 0.958 . S
C1443 H1458 0.961 . S
C1443 H1459 0.960 . S
H1444 C1428 0.931 . S
H1445 C1433 0.929 . S
H1446 C1434 0.960 . S
H1447 C1434 0.962 . S
H1448 C1434 0.960 . S
H1449 C1435 0.961 . S
H1450 C1435 0.961 . S
H1451 C1435 0.961 . S
H1452 C1436 0.931 . S
H1453 C1441 0.930 . S
H1454 C1442 0.956 . S
H1455 C1442 0.961 . S
H1456 C1442 0.961 . S
H1457 C1443 0.958 . S
H1458 C1443 0.961 . S
H1459 C1443 0.960 . S
C1460 C1461 1.391 . S
C1460 C1462 1.394 . S
C1460 H1476 0.931 . S
C1461 C1460 1.391 . S
C1461 C1465 1.376 . S
C1462 C1460 1.394 . S
C1462 C1463 1.369 . S
C1462 C1466 1.558 . S
C1463 C1462 1.369 . S
C1463 C1464 1.410 . S
C1463 C1471 1.503 1_545 S
C1464 C1463 1.410 . S
C1464 C1465 1.392 . S
C1464 C1467 1.511 . S
C1465 C1461 1.376 . S
C1465 C1464 1.392 . S
C1465 H1477 0.929 . S
C1466 C1462 1.558 . S
C1466 H1478 0.942 1_545 S
C1466 H1479 0.961 . S
C1466 H1480 0.949 . S
C1467 C1464 1.511 . S
C1467 H1481 0.961 . S
C1467 H1482 0.961 . S
C1467 H1483 0.961 . S
C1468 C1469 1.370 . S
C1468 C1470 1.363 . S
C1468 H1484 0.931 . S
C1469 C1468 1.370 . S
C1469 C1473 1.408 . S
C1470 C1468 1.363 . S
C1470 C1471 1.370 . S
C1470 C1474 1.524 1_565 S
C1471 C1463 1.503 1_565 S
C1471 C1470 1.370 . S
C1471 C1472 1.403 . S
C1472 C1471 1.403 . S
C1472 C1473 1.404 . S
C1472 C1475 1.539 . S
C1473 C1469 1.408 . S
C1473 C1472 1.404 . S
C1473 H1485 0.930 . S
C1474 C1470 1.524 1_545 S
C1474 H1486 0.956 . S
C1474 H1487 0.961 . S
C1474 H1488 0.961 . S
C1475 C1472 1.539 . S
C1475 H1489 0.958 . S
C1475 H1490 0.961 . S
C1475 H1491 0.960 . S
H1476 C1460 0.931 . S
H1477 C1465 0.929 . S
H1478 C1466 0.942 1_565 S
H1479 C1466 0.961 . S
H1480 C1466 0.949 . S
H1481 C1467 0.961 . S
H1482 C1467 0.961 . S
H1483 C1467 0.961 . S
H1484 C1468 0.931 . S
H1485 C1473 0.930 . S
H1486 C1474 0.956 . S
H1487 C1474 0.961 . S
H1488 C1474 0.961 . S
H1489 C1475 0.958 . S
H1490 C1475 0.961 . S
H1491 C1475 0.960 . S
C1492 C1493 1.391 . S
C1492 C1494 1.394 . S
C1492 H1508 0.931 . S
C1493 C1492 1.391 . S
C1493 C1497 1.376 . S
C1494 C1492 1.394 . S
C1494 C1495 1.369 . S
C1494 C1498 1.531 1_655 S
C1495 C1494 1.369 . S
C1495 C1496 1.410 . S
C1495 C1503 1.473 1_655 S
C1496 C1495 1.410 . S
C1496 C1497 1.392 . S
C1496 C1499 1.511 . S
C1497 C1493 1.376 . S
C1497 C1496 1.392 . S
C1497 H1509 0.929 . S
C1498 C1494 1.531 1_455 S
C1498 H1510 0.960 . S
C1498 H1511 0.962 . S
C1498 H1512 0.960 . S
C1499 C1496 1.511 . S
C1499 H1513 0.961 . S
C1499 H1514 0.961 . S
C1499 H1515 0.961 . S
C1500 C1501 1.370 . S
C1500 C1502 1.363 . S
C1500 H1516 0.931 . S
C1501 C1500 1.370 . S
C1501 C1505 1.408 . S
C1502 C1500 1.363 . S
C1502 C1503 1.378 . S
C1502 C1506 1.524 . S
C1503 C1495 1.473 1_455 S
C1503 C1502 1.378 . S
C1503 C1504 1.426 . S
C1504 C1503 1.426 . S
C1504 C1505 1.404 . S
C1504 C1507 1.539 1_455 S
C1505 C1501 1.408 . S
C1505 C1504 1.404 . S
C1505 H1517 0.930 . S
C1506 C1502 1.524 . S
C1506 H1518 0.956 . S
C1506 H1519 0.961 1_455 S
C1506 H1520 0.961 . S
C1507 C1504 1.539 1_655 S
C1507 H1521 0.958 1_655 S
C1507 H1522 0.961 . S
C1507 H1523 0.960 . S
H1508 C1492 0.931 . S
H1509 C1497 0.929 . S
H1510 C1498 0.960 . S
H1511 C1498 0.962 . S
H1512 C1498 0.960 . S
H1513 C1499 0.961 . S
H1514 C1499 0.961 . S
H1515 C1499 0.961 . S
H1516 C1500 0.931 . S
H1517 C1505 0.930 . S
H1518 C1506 0.956 . S
H1519 C1506 0.961 1_655 S
H1520 C1506 0.961 . S
H1521 C1507 0.958 1_455 S
H1522 C1507 0.961 . S
H1523 C1507 0.960 . S
C1524 C1525 1.391 . S
C1524 C1526 1.394 . S
C1524 H1540 0.931 . S
C1525 C1524 1.391 . S
C1525 C1529 1.376 . S
C1526 C1524 1.394 . S
C1526 C1527 1.369 . S
C1526 C1530 1.531 . S
C1527 C1526 1.369 . S
C1527 C1528 1.410 . S
C1527 C1535 1.503 . S
C1528 C1527 1.410 . S
C1528 C1529 1.392 . S
C1528 C1531 1.511 . S
C1529 C1525 1.376 . S
C1529 C1528 1.392 . S
C1529 H1541 0.929 . S
C1530 C1526 1.531 . S
C1530 H1542 0.960 . S
C1530 H1543 0.962 . S
C1530 H1544 0.960 . S
C1531 C1528 1.511 . S
C1531 H1545 0.961 . S
C1531 H1546 0.961 . S
C1531 H1547 0.961 . S
C1532 C1533 1.370 . S
C1532 C1534 1.363 . S
C1532 H1548 0.931 . S
C1533 C1532 1.370 . S
C1533 C1537 1.408 . S
C1534 C1532 1.363 . S
C1534 C1535 1.370 . S
C1534 C1538 1.524 . S
C1535 C1527 1.503 . S
C1535 C1534 1.370 . S
C1535 C1536 1.403 . S
C1536 C1535 1.403 . S
C1536 C1537 1.404 . S
C1536 C1539 1.539 . S
C1537 C1533 1.408 . S
C1537 C1536 1.404 . S
C1537 H1549 0.930 . S
C1538 C1534 1.524 . S
C1538 H1550 0.956 . S
C1538 H1551 0.961 . S
C1538 H1552 0.961 . S
C1539 C1536 1.539 . S
C1539 H1553 0.958 . S
C1539 H1554 0.961 . S
C1539 H1555 0.960 . S
H1540 C1524 0.931 . S
H1541 C1529 0.929 . S
H1542 C1530 0.960 . S
H1543 C1530 0.962 . S
H1544 C1530 0.960 . S
H1545 C1531 0.961 . S
H1546 C1531 0.961 . S
H1547 C1531 0.961 . S
H1548 C1532 0.931 . S
H1549 C1537 0.930 . S
H1550 C1538 0.956 . S
H1551 C1538 0.961 . S
H1552 C1538 0.961 . S
H1553 C1539 0.958 . S
H1554 C1539 0.961 . S
H1555 C1539 0.960 . S
C1556 C1557 1.391 . S
C1556 C1558 1.394 . S
C1556 H1572 0.931 . S
C1557 C1556 1.391 . S
C1557 C1561 1.376 . S
C1558 C1556 1.394 . S
C1558 C1559 1.369 1_565 S
C1558 C1562 1.531 1_565 S
C1559 C1558 1.369 1_545 S
C1559 C1560 1.410 1_545 S
C1559 C1567 1.503 . S
C1560 C1559 1.410 1_565 S
C1560 C1561 1.392 . S
C1560 C1563 1.511 . S
C1561 C1557 1.376 . S
C1561 C1560 1.392 . S
C1561 H1573 0.929 . S
C1562 C1558 1.531 1_545 S
C1562 H1574 0.960 . S
C1562 H1575 0.962 . S
C1562 H1576 0.960 . S
C1563 C1560 1.511 . S
C1563 H1577 0.961 . S
C1563 H1578 0.961 1_565 S
C1563 H1579 0.998 . S
C1564 C1565 1.370 . S
C1564 C1566 1.363 . S
C1564 H1580 0.931 . S
C1565 C1564 1.370 . S
C1565 C1569 1.408 . S
C1566 C1564 1.363 . S
C1566 C1567 1.370 . S
C1566 C1570 1.524 . S
C1567 C1559 1.503 . S
C1567 C1566 1.370 . S
C1567 C1568 1.403 . S
C1568 C1567 1.403 . S
C1568 C1569 1.404 . S
C1568 C1571 1.539 . S
C1569 C1565 1.408 . S
C1569 C1568 1.404 . S
C1569 H1581 0.930 . S
C1570 C1566 1.524 . S
C1570 H1582 0.956 . S
C1570 H1583 0.961 1_545 S
C1570 H1584 0.961 . S
C1571 C1568 1.539 . S
C1571 H1585 0.958 . S
C1571 H1586 0.961 . S
C1571 H1587 0.960 . S
H1572 C1556 0.931 . S
H1573 C1561 0.929 . S
H1574 C1562 0.960 . S
H1575 C1562 0.962 . S
H1576 C1562 0.960 . S
H1577 C1563 0.961 . S
H1578 C1563 0.961 1_545 S
H1579 C1563 0.998 . S
H1580 C1564 0.931 . S
H1581 C1569 0.930 . S
H1582 C1570 0.956 . S
H1583 C1570 0.961 1_565 S
H1584 C1570 0.961 . S
H1585 C1571 0.958 . S
H1586 C1571 0.961 . S
H1587 C1571 0.960 . S
C1588 C1589 1.391 . S
C1588 C1590 1.394 . S
C1588 H1604 0.931 . S
C1589 C1588 1.391 . S
C1589 C1593 1.376 . S
C1590 C1588 1.394 . S
C1590 C1591 1.369 . S
C1590 C1594 1.531 1_655 S
C1591 C1590 1.369 . S
C1591 C1592 1.410 . S
C1591 C1599 1.503 . S
C1592 C1591 1.410 . S
C1592 C1593 1.392 . S
C1592 C1595 1.511 . S
C1593 C1589 1.376 . S
C1593 C1592 1.392 . S
C1593 H1605 0.929 . S
C1594 C1590 1.531 1_455 S
C1594 H1606 0.960 . S
C1594 H1607 0.962 . S
C1594 H1608 0.960 1_455 S
C1595 C1592 1.511 . S
C1595 H1609 0.961 . S
C1595 H1610 0.961 . S
C1595 H1611 0.961 . S
C1596 C1597 1.370 . S
C1596 C1598 1.363 . S
C1596 H1612 0.931 . S
C1597 C1596 1.370 . S
C1597 C1601 1.408 . S
C1598 C1596 1.363 . S
C1598 C1599 1.370 1_455 S
C1598 C1602 1.524 . S
C1599 C1591 1.503 . S
C1599 C1598 1.370 1_655 S
C1599 C1600 1.403 . S
C1600 C1599 1.403 . S
C1600 C1601 1.404 1_655 S
C1600 C1603 1.539 . S
C1601 C1597 1.408 . S
C1601 C1600 1.404 1_455 S
C1601 H1613 0.930 . S
C1602 C1598 1.524 . S
C1602 H1614 0.956 . S
C1602 H1615 0.961 1_455 S
C1602 H1616 0.961 . S
C1603 C1600 1.539 . S
C1603 H1617 0.958 . S
C1603 H1618 0.961 . S
C1603 H1619 0.960 . S
H1604 C1588 0.931 . S
H1605 C1593 0.929 . S
H1606 C1594 0.960 . S
H1607 C1594 0.962 . S
H1608 C1594 0.960 1_655 S
H1609 C1595 0.961 . S
H1610 C1595 0.961 . S
H1611 C1595 0.961 . S
H1612 C1596 0.931 . S
H1613 C1601 0.930 . S
H1614 C1602 0.956 . S
H1615 C1602 0.961 1_655 S
H1616 C1602 0.961 . S
H1617 C1603 0.958 . S
H1618 C1603 0.961 . S
H1619 C1603 0.960 . S
C757 C63 3.450 1_556 S
C765 C74 3.453 . S
C789 C158 3.458 . S
C797 C147 3.476 . S
C821 C231 3.493 . S
C829 C242 3.494 . S
C853 C326 3.439 . S
C861 C315 3.458 1_556 S
C885 C399 3.463 . S
C893 C410 3.473 1_556 S
C917 C494 3.499 . S
C925 C483 3.492 . S
C949 C573 2.117 . S
C957 C562 2.160 . S
C981 C646 2.307 . S
C989 C657 2.247 . S
C1013 C741 1.626 . S
C1021 C730 1.564 . S
C1045 C476 1.651 . S
C1053 C69 1.364 . S
C1077 C140 2.108 . S
C1085 C308 2.130 . S
C1109 C237 1.017 . S
C1117 C405 1.071 . S
C1141 C224 2.318 1_556 S
C1149 C571 2.316 . S
C1173 C662 1.506 . S
C1181 C56 1.521 . S
C1205 C739 1.250 . S
C1213 C153 1.227 . S
C1237 C735 0.971 . S
C1245 C58 0.973 1_556 S
C1269 C151 1.898 1_556 S
C1277 C567 1.893 . S
C1301 C644 1.787 . S
C1309 C226 1.726 . S
C1333 C235 1.653 . S
C1341 C310 1.353 . S
C1365 C403 2.115 . S
C1373 C67 2.125 . S
C1397 C142 1.002 . S
C1405 C478 1.052 . S
C1429 C746 0.975 . S
C1437 C321 0.955 . S
C1461 C578 1.865 . S
C1469 C392 1.895 . S
C1493 C655 1.788 . S
C1501 C489 1.743 . S
C1525 C560 2.306 . S
C1533 C487 2.321 . S
C1557 C319 1.536 . S
C1565 C651 1.528 . S
C1589 C728 1.263 . S
C1597 C394 1.236 . S
