# Generated by pormake.
# Topology cha, (4)-cn, num edge types: 1
# Building blocks:
#     Node 0, Type 0, BuildingBlock: ICAMEG_clean_sbu_1, # of connection points: 4
#     Node 1, Type 0, BuildingBlock: ICAMEG_clean_sbu_1, # of connection points: 4
#     Node 2, Type 0, BuildingBlock: ICAMEG_clean_sbu_1, # of connection points: 4
#     Node 3, Type 0, BuildingBlock: ICAMEG_clean_sbu_1, # of connection points: 4
#     Node 4, Type 0, BuildingBlock: ICAMEG_clean_sbu_1, # of connection points: 4
#     Node 5, Type 0, BuildingBlock: ICAMEG_clean_sbu_1, # of connection points: 4
#     Node 6, Type 0, BuildingBlock: ICAMEG_clean_sbu_1, # of connection points: 4
#     Node 7, Type 0, BuildingBlock: ICAMEG_clean_sbu_1, # of connection points: 4
#     Node 8, Type 0, BuildingBlock: ICAMEG_clean_sbu_1, # of connection points: 4
#     Node 9, Type 0, BuildingBlock: ICAMEG_clean_sbu_1, # of connection points: 4
#     Node 10, Type 0, BuildingBlock: ICAMEG_clean_sbu_1, # of connection points: 4
#     Node 11, Type 0, BuildingBlock: ICAMEG_clean_sbu_1, # of connection points: 4
#     Node 12, Type 0, BuildingBlock: ICAMEG_clean_sbu_1, # of connection points: 4
#     Node 13, Type 0, BuildingBlock: ICAMEG_clean_sbu_1, # of connection points: 4
#     Node 14, Type 0, BuildingBlock: ICAMEG_clean_sbu_1, # of connection points: 4
#     Node 15, Type 0, BuildingBlock: ICAMEG_clean_sbu_1, # of connection points: 4
#     Node 16, Type 0, BuildingBlock: ICAMEG_clean_sbu_1, # of connection points: 4
#     Node 17, Type 0, BuildingBlock: ICAMEG_clean_sbu_1, # of connection points: 4
#     Node 18, Type 0, BuildingBlock: ICAMEG_clean_sbu_1, # of connection points: 4
#     Node 19, Type 0, BuildingBlock: ICAMEG_clean_sbu_1, # of connection points: 4
#     Node 20, Type 0, BuildingBlock: ICAMEG_clean_sbu_1, # of connection points: 4
#     Node 21, Type 0, BuildingBlock: ICAMEG_clean_sbu_1, # of connection points: 4
#     Node 22, Type 0, BuildingBlock: ICAMEG_clean_sbu_1, # of connection points: 4
#     Node 23, Type 0, BuildingBlock: ICAMEG_clean_sbu_1, # of connection points: 4
#     Node 24, Type 0, BuildingBlock: ICAMEG_clean_sbu_1, # of connection points: 4
#     Node 25, Type 0, BuildingBlock: ICAMEG_clean_sbu_1, # of connection points: 4
#     Node 26, Type 0, BuildingBlock: ICAMEG_clean_sbu_1, # of connection points: 4
#     Node 27, Type 0, BuildingBlock: ICAMEG_clean_sbu_1, # of connection points: 4
#     Node 28, Type 0, BuildingBlock: ICAMEG_clean_sbu_1, # of connection points: 4
#     Node 29, Type 0, BuildingBlock: ICAMEG_clean_sbu_1, # of connection points: 4
#     Node 30, Type 0, BuildingBlock: ICAMEG_clean_sbu_1, # of connection points: 4
#     Node 31, Type 0, BuildingBlock: ICAMEG_clean_sbu_1, # of connection points: 4
#     Node 32, Type 0, BuildingBlock: ICAMEG_clean_sbu_1, # of connection points: 4
#     Node 33, Type 0, BuildingBlock: ICAMEG_clean_sbu_1, # of connection points: 4
#     Node 34, Type 0, BuildingBlock: ICAMEG_clean_sbu_1, # of connection points: 4
#     Node 35, Type 0, BuildingBlock: ICAMEG_clean_sbu_1, # of connection points: 4
#     Edge 36, Type (0, 0), BuildingBlock: XIVTED_clean_linker_0, # of connection points: 2
#     Edge 37, Type (0, 0), BuildingBlock: XIVTED_clean_linker_0, # of connection points: 2
#     Edge 38, Type (0, 0), BuildingBlock: XIVTED_clean_linker_0, # of connection points: 2
#     Edge 39, Type (0, 0), BuildingBlock: XIVTED_clean_linker_0, # of connection points: 2
#     Edge 40, Type (0, 0), BuildingBlock: XIVTED_clean_linker_0, # of connection points: 2
#     Edge 41, Type (0, 0), BuildingBlock: XIVTED_clean_linker_0, # of connection points: 2
#     Edge 42, Type (0, 0), BuildingBlock: XIVTED_clean_linker_0, # of connection points: 2
#     Edge 43, Type (0, 0), BuildingBlock: XIVTED_clean_linker_0, # of connection points: 2
#     Edge 44, Type (0, 0), BuildingBlock: XIVTED_clean_linker_0, # of connection points: 2
#     Edge 45, Type (0, 0), BuildingBlock: XIVTED_clean_linker_0, # of connection points: 2
#     Edge 46, Type (0, 0), BuildingBlock: XIVTED_clean_linker_0, # of connection points: 2
#     Edge 47, Type (0, 0), BuildingBlock: XIVTED_clean_linker_0, # of connection points: 2
#     Edge 48, Type (0, 0), BuildingBlock: XIVTED_clean_linker_0, # of connection points: 2
#     Edge 49, Type (0, 0), BuildingBlock: XIVTED_clean_linker_0, # of connection points: 2
#     Edge 50, Type (0, 0), BuildingBlock: XIVTED_clean_linker_0, # of connection points: 2
#     Edge 51, Type (0, 0), BuildingBlock: XIVTED_clean_linker_0, # of connection points: 2
#     Edge 52, Type (0, 0), BuildingBlock: XIVTED_clean_linker_0, # of connection points: 2
#     Edge 53, Type (0, 0), BuildingBlock: XIVTED_clean_linker_0, # of connection points: 2
#     Edge 54, Type (0, 0), BuildingBlock: XIVTED_clean_linker_0, # of connection points: 2
#     Edge 55, Type (0, 0), BuildingBlock: XIVTED_clean_linker_0, # of connection points: 2
#     Edge 56, Type (0, 0), BuildingBlock: XIVTED_clean_linker_0, # of connection points: 2
#     Edge 57, Type (0, 0), BuildingBlock: XIVTED_clean_linker_0, # of connection points: 2
#     Edge 58, Type (0, 0), BuildingBlock: XIVTED_clean_linker_0, # of connection points: 2
#     Edge 59, Type (0, 0), BuildingBlock: XIVTED_clean_linker_0, # of connection points: 2
#     Edge 60, Type (0, 0), BuildingBlock: XIVTED_clean_linker_0, # of connection points: 2
#     Edge 61, Type (0, 0), BuildingBlock: XIVTED_clean_linker_0, # of connection points: 2
#     Edge 62, Type (0, 0), BuildingBlock: XIVTED_clean_linker_0, # of connection points: 2
#     Edge 63, Type (0, 0), BuildingBlock: XIVTED_clean_linker_0, # of connection points: 2
#     Edge 64, Type (0, 0), BuildingBlock: XIVTED_clean_linker_0, # of connection points: 2
#     Edge 65, Type (0, 0), BuildingBlock: XIVTED_clean_linker_0, # of connection points: 2
#     Edge 66, Type (0, 0), BuildingBlock: XIVTED_clean_linker_0, # of connection points: 2
#     Edge 67, Type (0, 0), BuildingBlock: XIVTED_clean_linker_0, # of connection points: 2
#     Edge 68, Type (0, 0), BuildingBlock: XIVTED_clean_linker_0, # of connection points: 2
#     Edge 69, Type (0, 0), BuildingBlock: XIVTED_clean_linker_0, # of connection points: 2
#     Edge 70, Type (0, 0), BuildingBlock: XIVTED_clean_linker_0, # of connection points: 2
#     Edge 71, Type (0, 0), BuildingBlock: XIVTED_clean_linker_0, # of connection points: 2
#     Edge 72, Type (0, 0), BuildingBlock: XIVTED_clean_linker_0, # of connection points: 2
#     Edge 73, Type (0, 0), BuildingBlock: XIVTED_clean_linker_0, # of connection points: 2
#     Edge 74, Type (0, 0), BuildingBlock: XIVTED_clean_linker_0, # of connection points: 2
#     Edge 75, Type (0, 0), BuildingBlock: XIVTED_clean_linker_0, # of connection points: 2
#     Edge 76, Type (0, 0), BuildingBlock: XIVTED_clean_linker_0, # of connection points: 2
#     Edge 77, Type (0, 0), BuildingBlock: XIVTED_clean_linker_0, # of connection points: 2
#     Edge 78, Type (0, 0), BuildingBlock: XIVTED_clean_linker_0, # of connection points: 2
#     Edge 79, Type (0, 0), BuildingBlock: XIVTED_clean_linker_0, # of connection points: 2
#     Edge 80, Type (0, 0), BuildingBlock: XIVTED_clean_linker_0, # of connection points: 2
#     Edge 81, Type (0, 0), BuildingBlock: XIVTED_clean_linker_0, # of connection points: 2
#     Edge 82, Type (0, 0), BuildingBlock: XIVTED_clean_linker_0, # of connection points: 2
#     Edge 83, Type (0, 0), BuildingBlock: XIVTED_clean_linker_0, # of connection points: 2
#     Edge 84, Type (0, 0), BuildingBlock: XIVTED_clean_linker_0, # of connection points: 2
#     Edge 85, Type (0, 0), BuildingBlock: XIVTED_clean_linker_0, # of connection points: 2
#     Edge 86, Type (0, 0), BuildingBlock: XIVTED_clean_linker_0, # of connection points: 2
#     Edge 87, Type (0, 0), BuildingBlock: XIVTED_clean_linker_0, # of connection points: 2
#     Edge 88, Type (0, 0), BuildingBlock: XIVTED_clean_linker_0, # of connection points: 2
#     Edge 89, Type (0, 0), BuildingBlock: XIVTED_clean_linker_0, # of connection points: 2
#     Edge 90, Type (0, 0), BuildingBlock: XIVTED_clean_linker_0, # of connection points: 2
#     Edge 91, Type (0, 0), BuildingBlock: XIVTED_clean_linker_0, # of connection points: 2
#     Edge 92, Type (0, 0), BuildingBlock: XIVTED_clean_linker_0, # of connection points: 2
#     Edge 93, Type (0, 0), BuildingBlock: XIVTED_clean_linker_0, # of connection points: 2
#     Edge 94, Type (0, 0), BuildingBlock: XIVTED_clean_linker_0, # of connection points: 2
#     Edge 95, Type (0, 0), BuildingBlock: XIVTED_clean_linker_0, # of connection points: 2
#     Edge 96, Type (0, 0), BuildingBlock: XIVTED_clean_linker_0, # of connection points: 2
#     Edge 97, Type (0, 0), BuildingBlock: XIVTED_clean_linker_0, # of connection points: 2
#     Edge 98, Type (0, 0), BuildingBlock: XIVTED_clean_linker_0, # of connection points: 2
#     Edge 99, Type (0, 0), BuildingBlock: XIVTED_clean_linker_0, # of connection points: 2
#     Edge 100, Type (0, 0), BuildingBlock: XIVTED_clean_linker_0, # of connection points: 2
#     Edge 101, Type (0, 0), BuildingBlock: XIVTED_clean_linker_0, # of connection points: 2
#     Edge 102, Type (0, 0), BuildingBlock: XIVTED_clean_linker_0, # of connection points: 2
#     Edge 103, Type (0, 0), BuildingBlock: XIVTED_clean_linker_0, # of connection points: 2
#     Edge 104, Type (0, 0), BuildingBlock: XIVTED_clean_linker_0, # of connection points: 2
#     Edge 105, Type (0, 0), BuildingBlock: XIVTED_clean_linker_0, # of connection points: 2
#     Edge 106, Type (0, 0), BuildingBlock: XIVTED_clean_linker_0, # of connection points: 2
#     Edge 107, Type (0, 0), BuildingBlock: XIVTED_clean_linker_0, # of connection points: 2
# Relax obj value: 0.067
# Max RMSD: 0.073
# Mean RMSD: 0.073
data_MOF--net-cha--node1-ICAMEG_clean_sbu_1--edge1-XIVTED_clean_linker_0
_symmetry_space_group_name_H-M    P1
_symmetry_Int_Tables_number       1
_symmetry_cell_setting            triclinic
loop_
_symmetry_equiv_pos_as_xyz
'x, y, z'
_cell_length_a     58.914
_cell_length_b     58.914
_cell_length_c     90.883
_cell_angle_alpha  90.001
_cell_angle_beta   89.999
_cell_angle_gamma  120.003
loop_
_atom_site_label
_atom_site_type_symbol
_atom_site_fract_x
_atom_site_fract_y
_atom_site_fract_z
_atom_type_partial_charge
Co0 Co 0.03105 0.27892 0.07324 0.0
Co1 Co 0.00547 0.32186 0.08256 0.0
O2 O 0.03252 0.30832 0.08772 0.0
C3 C 0.08685 0.31657 0.08072 0.0
O4 O 0.08181 0.33449 0.08447 0.0
C5 C 0.01468 0.32636 0.11531 0.0
O6 O 0.02357 0.31113 0.11534 0.0
O7 O 0.97525 0.28389 0.08489 0.0
O8 O 0.99055 0.26130 0.07241 0.0
H9 H 0.93847 0.33533 0.05448 0.0
H10 H 0.05988 0.27833 0.10153 0.0
O11 O 0.07183 0.29602 0.07448 0.0
H12 H 0.99748 0.19298 0.09988 0.0
H13 H 0.04565 0.20845 0.04811 0.0
H14 H 0.00290 0.25230 0.04529 0.0
H15 H 0.99896 0.21873 0.08279 0.0
H16 H 0.05288 0.24069 0.06520 0.0
O17 O 0.00677 0.33239 0.10426 0.0
H18 H 0.96750 0.32004 0.05892 0.0
H19 H 0.98643 0.35670 0.09739 0.0
H20 H 0.99378 0.21981 0.02872 0.0
H21 H 0.05690 0.24853 0.12045 0.0
H22 H 0.01762 0.19943 0.03032 0.0
H23 H 0.02735 0.20544 0.11667 0.0
O24 O 0.03424 0.30236 0.05511 0.0
H25 H 0.09496 0.40524 0.09459 0.0
H26 H 0.02772 0.36976 0.06025 0.0
H27 H 0.06434 0.41051 0.05609 0.0
H28 H 0.09798 0.42827 0.07327 0.0
H29 H 0.05835 0.36448 0.09873 0.0
H30 H 0.95598 0.37050 0.09379 0.0
H31 H 0.94020 0.36802 0.07030 0.0
O32 O 0.00951 0.31958 0.06043 0.0
C33 C 0.97256 0.26361 0.07839 0.0
C34 C 0.94904 0.34057 0.06282 0.0
C35 C 0.95967 0.36206 0.08630 0.0
N36 N 0.98031 0.33783 0.07872 0.0
C37 C 0.96585 0.33099 0.06567 0.0
C38 C 0.97699 0.35257 0.08866 0.0
C39 C 0.94839 0.35859 0.07290 0.0
C40 C 0.04650 0.26093 0.10128 0.0
N41 N 0.02858 0.25310 0.09068 0.0
C42 C 0.04564 0.24298 0.11241 0.0
C43 C 0.02755 0.21796 0.11034 0.0
C44 C 0.01061 0.21047 0.10017 0.0
C45 C 0.01090 0.22570 0.09048 0.0
C46 C 0.03642 0.21740 0.04742 0.0
C47 C 0.01167 0.24293 0.04619 0.0
C48 C 0.04066 0.23685 0.05778 0.0
N49 N 0.02832 0.24922 0.05731 0.0
C50 C 0.00633 0.22403 0.03603 0.0
C51 C 0.02004 0.21213 0.03721 0.0
C52 C 0.02074 0.31191 0.05205 0.0
C53 C 0.08150 0.39813 0.08771 0.0
C54 C 0.04118 0.37687 0.06712 0.0
C55 C 0.06313 0.40128 0.06464 0.0
C56 C 0.08331 0.41194 0.07494 0.0
N57 N 0.03941 0.36306 0.07990 0.0
C58 C 0.05952 0.37370 0.09018 0.0
Co59 Co 0.77007 0.77662 0.07324 0.0
Co60 Co 0.72713 0.70810 0.08256 0.0
O61 O 0.74066 0.74868 0.08772 0.0
C62 C 0.73241 0.79477 0.08073 0.0
O63 O 0.71450 0.77180 0.08447 0.0
C64 C 0.72263 0.71281 0.11531 0.0
O65 O 0.73786 0.73693 0.11534 0.0
O66 O 0.76510 0.71585 0.08489 0.0
O67 O 0.78768 0.75373 0.07241 0.0
H68 H 0.71365 0.62762 0.05448 0.0
H69 H 0.77066 0.80604 0.10153 0.0
O70 O 0.75296 0.80029 0.07448 0.0
H71 H 0.85601 0.82899 0.09988 0.0
H72 H 0.84053 0.86168 0.04810 0.0
H73 H 0.79668 0.77507 0.04529 0.0
H74 H 0.83025 0.80472 0.08279 0.0
H75 H 0.80829 0.83668 0.06520 0.0
O76 O 0.71660 0.69887 0.10426 0.0
H77 H 0.72894 0.67194 0.05893 0.0
H78 H 0.69228 0.65422 0.09740 0.0
H79 H 0.82917 0.79845 0.02872 0.0
H80 H 0.80046 0.83287 0.12045 0.0
H81 H 0.84954 0.84267 0.03032 0.0
H82 H 0.84356 0.84641 0.11667 0.0
O83 O 0.74662 0.75636 0.05511 0.0
H84 H 0.64375 0.71420 0.09460 0.0
H85 H 0.67922 0.68243 0.06025 0.0
H86 H 0.63847 0.67830 0.05610 0.0
H87 H 0.62071 0.69418 0.07328 0.0
H88 H 0.68451 0.71836 0.09873 0.0
H89 H 0.67848 0.60997 0.09380 0.0
H90 H 0.68095 0.59665 0.07031 0.0
O91 O 0.72940 0.71440 0.06044 0.0
C92 C 0.78538 0.73344 0.07840 0.0
C93 C 0.70841 0.63295 0.06282 0.0
C94 C 0.68692 0.62209 0.08631 0.0
N95 N 0.71115 0.66697 0.07872 0.0
C96 C 0.71799 0.65934 0.06567 0.0
C97 C 0.69641 0.64890 0.08867 0.0
C98 C 0.69039 0.61428 0.07291 0.0
C99 C 0.78806 0.81006 0.10128 0.0
N100 N 0.79589 0.79997 0.09068 0.0
C101 C 0.80601 0.82715 0.11241 0.0
C102 C 0.83104 0.83409 0.11034 0.0
C103 C 0.83852 0.82464 0.10017 0.0
C104 C 0.82329 0.80970 0.09048 0.0
C105 C 0.83158 0.84350 0.04742 0.0
C106 C 0.80605 0.79322 0.04619 0.0
C107 C 0.81213 0.82829 0.05778 0.0
N108 N 0.79976 0.80359 0.05731 0.0
C109 C 0.82495 0.80677 0.03603 0.0
C110 C 0.83685 0.83239 0.03721 0.0
C111 C 0.73707 0.73331 0.05206 0.0
C112 C 0.65085 0.70784 0.08772 0.0
C113 C 0.67212 0.68879 0.06713 0.0
C114 C 0.64770 0.68632 0.06465 0.0
C115 C 0.63704 0.69584 0.07495 0.0
N116 N 0.68592 0.70083 0.07991 0.0
C117 C 0.67529 0.71031 0.09019 0.0
Co118 Co 0.27235 0.01795 0.07324 0.0
Co119 Co 0.34087 0.04354 0.08256 0.0
O120 O 0.30029 0.01649 0.08772 0.0
C121 C 0.25420 0.96215 0.08073 0.0
O122 O 0.27717 0.96720 0.08448 0.0
C123 C 0.33616 0.03433 0.11531 0.0
O124 O 0.31205 0.02544 0.11535 0.0
O125 O 0.33313 0.07376 0.08489 0.0
O126 O 0.29524 0.05845 0.07241 0.0
H127 H 0.42136 0.11055 0.05448 0.0
H128 H 0.24294 0.98912 0.10153 0.0
O129 O 0.24868 0.97717 0.07448 0.0
H130 H 0.21999 0.05152 0.09988 0.0
H131 H 0.18729 0.00335 0.04811 0.0
H132 H 0.27390 0.04611 0.04529 0.0
H133 H 0.24426 0.05004 0.08280 0.0
H134 H 0.21230 0.99612 0.06520 0.0
O135 O 0.35010 0.04224 0.10426 0.0
H136 H 0.37703 0.08151 0.05893 0.0
H137 H 0.39476 0.06258 0.09740 0.0
H138 H 0.25052 0.05522 0.02872 0.0
H139 H 0.21611 0.99210 0.12045 0.0
H140 H 0.20631 0.03138 0.03032 0.0
H141 H 0.20257 0.02165 0.11668 0.0
O142 O 0.29261 0.01477 0.05511 0.0
H143 H 0.33477 0.95405 0.09460 0.0
H144 H 0.36654 0.02130 0.06025 0.0
H145 H 0.37066 0.98468 0.05610 0.0
H146 H 0.35478 0.95104 0.07328 0.0
H147 H 0.33062 0.99066 0.09873 0.0
H148 H 0.43901 0.09303 0.09379 0.0
H149 H 0.45232 0.10881 0.07031 0.0
O150 O 0.33457 0.03950 0.06044 0.0
C151 C 0.31553 0.07644 0.07840 0.0
C152 C 0.41602 0.09997 0.06282 0.0
C153 C 0.42689 0.08935 0.08631 0.0
N154 N 0.38201 0.06870 0.07872 0.0
C155 C 0.38963 0.08316 0.06567 0.0
C156 C 0.40008 0.07203 0.08867 0.0
C157 C 0.43470 0.10062 0.07291 0.0
C158 C 0.23892 0.00251 0.10128 0.0
N159 N 0.24900 0.02042 0.09068 0.0
C160 C 0.22182 0.00336 0.11241 0.0
C161 C 0.21489 0.02145 0.11035 0.0
C162 C 0.22434 0.03839 0.10017 0.0
C163 C 0.23928 0.03810 0.09049 0.0
C164 C 0.20547 0.01258 0.04742 0.0
C165 C 0.25575 0.03733 0.04620 0.0
C166 C 0.22068 0.00834 0.05779 0.0
N167 N 0.24539 0.02068 0.05731 0.0
C168 C 0.24220 0.04267 0.03603 0.0
C169 C 0.21658 0.02896 0.03721 0.0
C170 C 0.31566 0.02827 0.05206 0.0
C171 C 0.34113 0.96752 0.08772 0.0
C172 C 0.36018 0.00783 0.06713 0.0
C173 C 0.36265 0.98589 0.06465 0.0
C174 C 0.35313 0.96571 0.07494 0.0
N175 N 0.34815 0.00961 0.07991 0.0
C176 C 0.33867 0.98949 0.09019 0.0
Co177 Co 0.27892 0.03105 0.92676 0.0
Co178 Co 0.32186 0.00547 0.91744 0.0
O179 O 0.30832 0.03252 0.91228 0.0
C180 C 0.31657 0.08685 0.91928 0.0
O181 O 0.33449 0.08181 0.91553 0.0
C182 C 0.32636 0.01468 0.88469 0.0
O183 O 0.31113 0.02357 0.88466 0.0
O184 O 0.28389 0.97525 0.91511 0.0
O185 O 0.26130 0.99055 0.92759 0.0
H186 H 0.33533 0.93847 0.94552 0.0
H187 H 0.27833 0.05988 0.89847 0.0
O188 O 0.29602 0.07183 0.92552 0.0
H189 H 0.19298 0.99748 0.90012 0.0
H190 H 0.20845 0.04565 0.95189 0.0
H191 H 0.25230 0.00290 0.95471 0.0
H192 H 0.21873 0.99896 0.91721 0.0
H193 H 0.24069 0.05288 0.93480 0.0
O194 O 0.33239 0.00677 0.89574 0.0
H195 H 0.32004 0.96750 0.94108 0.0
H196 H 0.35670 0.98643 0.90261 0.0
H197 H 0.21981 0.99378 0.97128 0.0
H198 H 0.24853 0.05690 0.87955 0.0
H199 H 0.19943 0.01762 0.96968 0.0
H200 H 0.20544 0.02735 0.88333 0.0
O201 O 0.30236 0.03424 0.94489 0.0
H202 H 0.40524 0.09496 0.90541 0.0
H203 H 0.36976 0.02772 0.93975 0.0
H204 H 0.41051 0.06434 0.94391 0.0
H205 H 0.42827 0.09798 0.92673 0.0
H206 H 0.36448 0.05835 0.90127 0.0
H207 H 0.37050 0.95598 0.90621 0.0
H208 H 0.36802 0.94020 0.92970 0.0
O209 O 0.31958 0.00951 0.93956 0.0
C210 C 0.26361 0.97256 0.92161 0.0
C211 C 0.34057 0.94904 0.93718 0.0
C212 C 0.36206 0.95967 0.91370 0.0
N213 N 0.33783 0.98031 0.92128 0.0
C214 C 0.33099 0.96585 0.93433 0.0
C215 C 0.35257 0.97699 0.91134 0.0
C216 C 0.35859 0.94839 0.92710 0.0
C217 C 0.26093 0.04650 0.89872 0.0
N218 N 0.25310 0.02858 0.90932 0.0
C219 C 0.24298 0.04564 0.88759 0.0
C220 C 0.21796 0.02755 0.88966 0.0
C221 C 0.21047 0.01061 0.89983 0.0
C222 C 0.22570 0.01090 0.90952 0.0
C223 C 0.21740 0.03642 0.95258 0.0
C224 C 0.24293 0.01167 0.95381 0.0
C225 C 0.23685 0.04066 0.94222 0.0
N226 N 0.24922 0.02832 0.94269 0.0
C227 C 0.22403 0.00633 0.96397 0.0
C228 C 0.21213 0.02004 0.96279 0.0
C229 C 0.31191 0.02074 0.94795 0.0
C230 C 0.39813 0.08150 0.91229 0.0
C231 C 0.37687 0.04118 0.93288 0.0
C232 C 0.40128 0.06313 0.93536 0.0
C233 C 0.41194 0.08331 0.92506 0.0
N234 N 0.36306 0.03941 0.92010 0.0
C235 C 0.37370 0.05952 0.90982 0.0
Co236 Co 0.01795 0.27235 0.92676 0.0
Co237 Co 0.04354 0.34087 0.91744 0.0
O238 O 0.01649 0.30029 0.91228 0.0
C239 C 0.96215 0.25420 0.91927 0.0
O240 O 0.96720 0.27717 0.91552 0.0
C241 C 0.03433 0.33616 0.88469 0.0
O242 O 0.02544 0.31205 0.88465 0.0
O243 O 0.07376 0.33313 0.91511 0.0
O244 O 0.05845 0.29524 0.92759 0.0
H245 H 0.11055 0.42136 0.94552 0.0
H246 H 0.98912 0.24294 0.89847 0.0
O247 O 0.97717 0.24868 0.92552 0.0
H248 H 0.05152 0.21999 0.90012 0.0
H249 H 0.00335 0.18729 0.95189 0.0
H250 H 0.04611 0.27390 0.95471 0.0
H251 H 0.05004 0.24426 0.91720 0.0
H252 H 0.99612 0.21230 0.93480 0.0
O253 O 0.04224 0.35010 0.89574 0.0
H254 H 0.08151 0.37703 0.94107 0.0
H255 H 0.06258 0.39476 0.90260 0.0
H256 H 0.05522 0.25052 0.97128 0.0
H257 H 0.99210 0.21611 0.87955 0.0
H258 H 0.03138 0.20631 0.96968 0.0
H259 H 0.02165 0.20257 0.88332 0.0
O260 O 0.01477 0.29261 0.94489 0.0
H261 H 0.95405 0.33477 0.90540 0.0
H262 H 0.02130 0.36654 0.93975 0.0
H263 H 0.98468 0.37066 0.94390 0.0
H264 H 0.95104 0.35478 0.92672 0.0
H265 H 0.99066 0.33062 0.90127 0.0
H266 H 0.09303 0.43901 0.90621 0.0
H267 H 0.10881 0.45232 0.92969 0.0
O268 O 0.03950 0.33457 0.93956 0.0
C269 C 0.07644 0.31553 0.92160 0.0
C270 C 0.09997 0.41602 0.93718 0.0
C271 C 0.08935 0.42689 0.91369 0.0
N272 N 0.06870 0.38201 0.92128 0.0
C273 C 0.08316 0.38963 0.93433 0.0
C274 C 0.07203 0.40008 0.91133 0.0
C275 C 0.10062 0.43470 0.92709 0.0
C276 C 0.00251 0.23892 0.89872 0.0
N277 N 0.02042 0.24900 0.90932 0.0
C278 C 0.00336 0.22182 0.88759 0.0
C279 C 0.02145 0.21489 0.88965 0.0
C280 C 0.03839 0.22434 0.89983 0.0
C281 C 0.03810 0.23928 0.90951 0.0
C282 C 0.01258 0.20547 0.95258 0.0
C283 C 0.03733 0.25575 0.95380 0.0
C284 C 0.00834 0.22068 0.94221 0.0
N285 N 0.02068 0.24539 0.94269 0.0
C286 C 0.04267 0.24220 0.96397 0.0
C287 C 0.02896 0.21658 0.96279 0.0
C288 C 0.02827 0.31566 0.94794 0.0
C289 C 0.96752 0.34113 0.91228 0.0
C290 C 0.00783 0.36018 0.93287 0.0
C291 C 0.98589 0.36265 0.93535 0.0
C292 C 0.96571 0.35313 0.92506 0.0
N293 N 0.00961 0.34815 0.92009 0.0
C294 C 0.98949 0.33867 0.90981 0.0
Co295 Co 0.77662 0.77007 0.92676 0.0
Co296 Co 0.70810 0.72713 0.91744 0.0
O297 O 0.74868 0.74066 0.91228 0.0
C298 C 0.79477 0.73241 0.91927 0.0
O299 O 0.77180 0.71450 0.91553 0.0
C300 C 0.71281 0.72263 0.88469 0.0
O301 O 0.73693 0.73786 0.88466 0.0
O302 O 0.71585 0.76510 0.91511 0.0
O303 O 0.75373 0.78768 0.92759 0.0
H304 H 0.62762 0.71365 0.94552 0.0
H305 H 0.80604 0.77066 0.89847 0.0
O306 O 0.80029 0.75296 0.92552 0.0
H307 H 0.82899 0.85601 0.90012 0.0
H308 H 0.86168 0.84053 0.95190 0.0
H309 H 0.77507 0.79668 0.95471 0.0
H310 H 0.80472 0.83025 0.91721 0.0
H311 H 0.83668 0.80829 0.93480 0.0
O312 O 0.69887 0.71660 0.89574 0.0
H313 H 0.67194 0.72894 0.94107 0.0
H314 H 0.65422 0.69228 0.90260 0.0
H315 H 0.79845 0.82917 0.97129 0.0
H316 H 0.83287 0.80046 0.87955 0.0
H317 H 0.84267 0.84954 0.96968 0.0
H318 H 0.84641 0.84356 0.88333 0.0
O319 O 0.75636 0.74662 0.94489 0.0
H320 H 0.71420 0.64375 0.90540 0.0
H321 H 0.68243 0.67922 0.93975 0.0
H322 H 0.67830 0.63847 0.94390 0.0
H323 H 0.69418 0.62071 0.92672 0.0
H324 H 0.71836 0.68451 0.90127 0.0
H325 H 0.60997 0.67848 0.90620 0.0
H326 H 0.59665 0.68095 0.92969 0.0
O327 O 0.71440 0.72940 0.93956 0.0
C328 C 0.73344 0.78538 0.92160 0.0
C329 C 0.63295 0.70841 0.93718 0.0
C330 C 0.62209 0.68692 0.91369 0.0
N331 N 0.66697 0.71115 0.92128 0.0
C332 C 0.65934 0.71799 0.93433 0.0
C333 C 0.64890 0.69641 0.91133 0.0
C334 C 0.61428 0.69039 0.92709 0.0
C335 C 0.81006 0.78806 0.89872 0.0
N336 N 0.79997 0.79589 0.90932 0.0
C337 C 0.82715 0.80601 0.88759 0.0
C338 C 0.83409 0.83104 0.88966 0.0
C339 C 0.82464 0.83852 0.89983 0.0
C340 C 0.80970 0.82329 0.90952 0.0
C341 C 0.84350 0.83158 0.95258 0.0
C342 C 0.79322 0.80605 0.95381 0.0
C343 C 0.82829 0.81213 0.94222 0.0
N344 N 0.80359 0.79976 0.94269 0.0
C345 C 0.80677 0.82495 0.96397 0.0
C346 C 0.83239 0.83685 0.96279 0.0
C347 C 0.73331 0.73707 0.94794 0.0
C348 C 0.70784 0.65085 0.91228 0.0
C349 C 0.68879 0.67212 0.93287 0.0
C350 C 0.68632 0.64770 0.93535 0.0
C351 C 0.69584 0.63704 0.92505 0.0
N352 N 0.70083 0.68592 0.92009 0.0
C353 C 0.71031 0.67529 0.90981 0.0
Co354 Co 0.01795 0.77008 0.92676 0.0
Co355 Co 0.04353 0.72714 0.91744 0.0
O356 O 0.01649 0.74068 0.91228 0.0
C357 C 0.96215 0.73242 0.91927 0.0
O358 O 0.96719 0.71451 0.91552 0.0
C359 C 0.03432 0.72264 0.88469 0.0
O360 O 0.02544 0.73787 0.88465 0.0
O361 O 0.07376 0.76512 0.91511 0.0
O362 O 0.05845 0.78770 0.92759 0.0
H363 H 0.11054 0.71367 0.94552 0.0
H364 H 0.98912 0.77067 0.89847 0.0
O365 O 0.97717 0.75297 0.92552 0.0
H366 H 0.05152 0.85602 0.90012 0.0
H367 H 0.00335 0.84054 0.95189 0.0
H368 H 0.04610 0.79669 0.95471 0.0
H369 H 0.05004 0.83027 0.91720 0.0
H370 H 0.99612 0.80830 0.93480 0.0
O371 O 0.04223 0.71662 0.89574 0.0
H372 H 0.08151 0.72896 0.94107 0.0
H373 H 0.06257 0.69230 0.90260 0.0
H374 H 0.05522 0.82919 0.97128 0.0
H375 H 0.99210 0.80047 0.87955 0.0
H376 H 0.03138 0.84956 0.96968 0.0
H377 H 0.02165 0.84356 0.88332 0.0
O378 O 0.01476 0.74664 0.94489 0.0
H379 H 0.95405 0.64376 0.90540 0.0
H380 H 0.02129 0.67924 0.93975 0.0
H381 H 0.98467 0.63849 0.94390 0.0
H382 H 0.95103 0.62073 0.92672 0.0
H383 H 0.99065 0.68452 0.90127 0.0
H384 H 0.09302 0.67851 0.90621 0.0
H385 H 0.10880 0.68098 0.92969 0.0
O386 O 0.03950 0.72942 0.93956 0.0
C387 C 0.07644 0.78539 0.92160 0.0
C388 C 0.09996 0.70844 0.93718 0.0
C389 C 0.08934 0.68694 0.91369 0.0
N390 N 0.06869 0.71118 0.92128 0.0
C391 C 0.08315 0.71801 0.93433 0.0
C392 C 0.07202 0.69643 0.91133 0.0
C393 C 0.10061 0.69041 0.92709 0.0
C394 C 0.00251 0.78807 0.89872 0.0
N395 N 0.02042 0.79590 0.90932 0.0
C396 C 0.00336 0.80602 0.88759 0.0
C397 C 0.02145 0.83104 0.88965 0.0
C398 C 0.03839 0.83853 0.89983 0.0
C399 C 0.03810 0.82330 0.90951 0.0
C400 C 0.01258 0.83159 0.95258 0.0
C401 C 0.03733 0.80606 0.95380 0.0
C402 C 0.00834 0.81215 0.94222 0.0
N403 N 0.02068 0.79978 0.94269 0.0
C404 C 0.04267 0.82496 0.96397 0.0
C405 C 0.02896 0.83687 0.96279 0.0
C406 C 0.02826 0.73709 0.94794 0.0
C407 C 0.96751 0.65087 0.91228 0.0
C408 C 0.00782 0.67213 0.93287 0.0
C409 C 0.98587 0.64772 0.93535 0.0
C410 C 0.96570 0.63706 0.92506 0.0
N411 N 0.00960 0.68594 0.92009 0.0
C412 C 0.98948 0.67530 0.90981 0.0
Co413 Co 0.27892 0.27237 0.92676 0.0
Co414 Co 0.32186 0.34089 0.91744 0.0
O415 O 0.30833 0.30031 0.91228 0.0
C416 C 0.31658 0.25423 0.91927 0.0
O417 O 0.33450 0.27719 0.91552 0.0
C418 C 0.32636 0.33618 0.88469 0.0
O419 O 0.31113 0.31207 0.88465 0.0
O420 O 0.28389 0.33315 0.91511 0.0
O421 O 0.26131 0.29526 0.92759 0.0
H422 H 0.33534 0.42137 0.94552 0.0
H423 H 0.27834 0.24296 0.89847 0.0
O424 O 0.29603 0.24870 0.92552 0.0
H425 H 0.19299 0.22000 0.90012 0.0
H426 H 0.20846 0.18731 0.95189 0.0
H427 H 0.25231 0.27392 0.95471 0.0
H428 H 0.21874 0.24427 0.91720 0.0
H429 H 0.24070 0.21231 0.93480 0.0
O430 O 0.33239 0.35012 0.89574 0.0
H431 H 0.32004 0.37705 0.94107 0.0
H432 H 0.35671 0.39478 0.90260 0.0
H433 H 0.21982 0.25054 0.97128 0.0
H434 H 0.24853 0.21613 0.87955 0.0
H435 H 0.19944 0.20632 0.96968 0.0
H436 H 0.20544 0.20259 0.88332 0.0
O437 O 0.30237 0.29263 0.94489 0.0
H438 H 0.40524 0.33479 0.90540 0.0
H439 H 0.36977 0.36656 0.93975 0.0
H440 H 0.41051 0.37069 0.94390 0.0
H441 H 0.42828 0.35481 0.92672 0.0
H442 H 0.36448 0.33064 0.90127 0.0
H443 H 0.37051 0.43903 0.90621 0.0
H444 H 0.36803 0.45234 0.92969 0.0
O445 O 0.31959 0.33459 0.93956 0.0
C446 C 0.26361 0.31555 0.92160 0.0
C447 C 0.34058 0.41604 0.93718 0.0
C448 C 0.36207 0.42690 0.91369 0.0
N449 N 0.33783 0.38203 0.92128 0.0
C450 C 0.33100 0.38965 0.93433 0.0
C451 C 0.35258 0.40010 0.91133 0.0
C452 C 0.35860 0.43471 0.92709 0.0
C453 C 0.26093 0.23894 0.89872 0.0
N454 N 0.25310 0.24902 0.90932 0.0
C455 C 0.24299 0.22184 0.88759 0.0
C456 C 0.21796 0.21490 0.88965 0.0
C457 C 0.21047 0.22435 0.89983 0.0
C458 C 0.22570 0.23930 0.90951 0.0
C459 C 0.21741 0.20549 0.95258 0.0
C460 C 0.24294 0.25577 0.95380 0.0
C461 C 0.23686 0.22070 0.94222 0.0
N462 N 0.24923 0.24540 0.94269 0.0
C463 C 0.22404 0.24221 0.96397 0.0
C464 C 0.21214 0.21659 0.96279 0.0
C465 C 0.31192 0.31568 0.94794 0.0
C466 C 0.39814 0.34115 0.91228 0.0
C467 C 0.37687 0.36020 0.93287 0.0
C468 C 0.40129 0.36267 0.93535 0.0
C469 C 0.41195 0.35315 0.92506 0.0
N470 N 0.36307 0.34817 0.92009 0.0
C471 C 0.37370 0.33869 0.90981 0.0
Co472 Co 0.77663 0.03103 0.92676 0.0
Co473 Co 0.70810 0.00545 0.91744 0.0
O474 O 0.74868 0.03249 0.91229 0.0
C475 C 0.79477 0.08683 0.91928 0.0
O476 O 0.77181 0.08179 0.91553 0.0
C477 C 0.71281 0.01466 0.88469 0.0
O478 O 0.73693 0.02355 0.88466 0.0
O479 O 0.71585 0.97522 0.91512 0.0
O480 O 0.75373 0.99053 0.92759 0.0
H481 H 0.62762 0.93844 0.94552 0.0
H482 H 0.80604 0.05986 0.89847 0.0
O483 O 0.80030 0.07181 0.92552 0.0
H484 H 0.82899 0.99746 0.90012 0.0
H485 H 0.86168 0.04563 0.95190 0.0
H486 H 0.77508 0.00288 0.95472 0.0
H487 H 0.80472 0.99894 0.91721 0.0
H488 H 0.83668 0.05286 0.93480 0.0
O489 O 0.69888 0.00675 0.89574 0.0
H490 H 0.67194 0.96747 0.94108 0.0
H491 H 0.65422 0.98641 0.90261 0.0
H492 H 0.79845 0.99376 0.97128 0.0
H493 H 0.83287 0.05688 0.87955 0.0
H494 H 0.84267 0.01760 0.96968 0.0
H495 H 0.84640 0.02733 0.88333 0.0
O496 O 0.75636 0.03422 0.94489 0.0
H497 H 0.71421 0.09493 0.90541 0.0
H498 H 0.68244 0.02769 0.93975 0.0
H499 H 0.67832 0.06431 0.94390 0.0
H500 H 0.69420 0.09795 0.92673 0.0
H501 H 0.71836 0.05833 0.90127 0.0
H502 H 0.60997 0.95596 0.90621 0.0
H503 H 0.59666 0.94018 0.92969 0.0
O504 O 0.71441 0.00948 0.93957 0.0
C505 C 0.73344 0.97254 0.92161 0.0
C506 C 0.63295 0.94902 0.93718 0.0
C507 C 0.62209 0.95964 0.91370 0.0
N508 N 0.66697 0.98029 0.92128 0.0
C509 C 0.65934 0.96583 0.93433 0.0
C510 C 0.64890 0.97696 0.91134 0.0
C511 C 0.61428 0.94837 0.92710 0.0
C512 C 0.81006 0.04648 0.89872 0.0
N513 N 0.79997 0.02856 0.90932 0.0
C514 C 0.82715 0.04563 0.88759 0.0
C515 C 0.83409 0.02753 0.88966 0.0
C516 C 0.82463 0.01060 0.89983 0.0
C517 C 0.80970 0.01088 0.90952 0.0
C518 C 0.84350 0.03640 0.95258 0.0
C519 C 0.79323 0.01165 0.95381 0.0
C520 C 0.82830 0.04064 0.94222 0.0
N521 N 0.80359 0.02830 0.94269 0.0
C522 C 0.80678 0.00631 0.96397 0.0
C523 C 0.83240 0.02002 0.96279 0.0
C524 C 0.73331 0.02072 0.94795 0.0
C525 C 0.70785 0.08147 0.91229 0.0
C526 C 0.68880 0.04116 0.93288 0.0
C527 C 0.68633 0.06310 0.93536 0.0
C528 C 0.69585 0.08328 0.92506 0.0
N529 N 0.70083 0.03938 0.92010 0.0
C530 C 0.71031 0.05950 0.90982 0.0
Co531 Co 0.77008 0.01795 0.07324 0.0
Co532 Co 0.72714 0.04353 0.08256 0.0
O533 O 0.74068 0.01649 0.08772 0.0
C534 C 0.73242 0.96215 0.08073 0.0
O535 O 0.71451 0.96719 0.08448 0.0
C536 C 0.72264 0.03432 0.11531 0.0
O537 O 0.73787 0.02544 0.11535 0.0
O538 O 0.76512 0.07376 0.08489 0.0
O539 O 0.78770 0.05845 0.07241 0.0
H540 H 0.71367 0.11054 0.05448 0.0
H541 H 0.77067 0.98912 0.10153 0.0
O542 O 0.75297 0.97717 0.07448 0.0
H543 H 0.85602 0.05152 0.09988 0.0
H544 H 0.84054 0.00335 0.04811 0.0
H545 H 0.79669 0.04610 0.04529 0.0
H546 H 0.83027 0.05004 0.08280 0.0
H547 H 0.80830 0.99612 0.06520 0.0
O548 O 0.71662 0.04223 0.10426 0.0
H549 H 0.72896 0.08151 0.05893 0.0
H550 H 0.69230 0.06257 0.09740 0.0
H551 H 0.82919 0.05522 0.02872 0.0
H552 H 0.80047 0.99210 0.12045 0.0
H553 H 0.84956 0.03138 0.03032 0.0
H554 H 0.84356 0.02165 0.11668 0.0
O555 O 0.74664 0.01476 0.05511 0.0
H556 H 0.64376 0.95405 0.09460 0.0
H557 H 0.67924 0.02129 0.06025 0.0
H558 H 0.63849 0.98467 0.05610 0.0
H559 H 0.62073 0.95103 0.07328 0.0
H560 H 0.68452 0.99065 0.09873 0.0
H561 H 0.67851 0.09302 0.09379 0.0
H562 H 0.68098 0.10880 0.07031 0.0
O563 O 0.72942 0.03950 0.06044 0.0
C564 C 0.78539 0.07644 0.07840 0.0
C565 C 0.70844 0.09996 0.06282 0.0
C566 C 0.68694 0.08934 0.08631 0.0
N567 N 0.71118 0.06869 0.07872 0.0
C568 C 0.71801 0.08315 0.06567 0.0
C569 C 0.69643 0.07202 0.08867 0.0
C570 C 0.69041 0.10061 0.07291 0.0
C571 C 0.78807 0.00251 0.10128 0.0
N572 N 0.79590 0.02042 0.09068 0.0
C573 C 0.80602 0.00336 0.11241 0.0
C574 C 0.83104 0.02145 0.11035 0.0
C575 C 0.83853 0.03839 0.10017 0.0
C576 C 0.82330 0.03810 0.09049 0.0
C577 C 0.83159 0.01258 0.04742 0.0
C578 C 0.80606 0.03733 0.04620 0.0
C579 C 0.81215 0.00834 0.05778 0.0
N580 N 0.79978 0.02068 0.05731 0.0
C581 C 0.82496 0.04267 0.03603 0.0
C582 C 0.83687 0.02896 0.03721 0.0
C583 C 0.73709 0.02826 0.05206 0.0
C584 C 0.65087 0.96751 0.08772 0.0
C585 C 0.67213 0.00782 0.06713 0.0
C586 C 0.64772 0.98587 0.06465 0.0
C587 C 0.63706 0.96570 0.07494 0.0
N588 N 0.68594 0.00960 0.07991 0.0
C589 C 0.67530 0.98948 0.09019 0.0
Co590 Co 0.03103 0.77663 0.07324 0.0
Co591 Co 0.00545 0.70810 0.08256 0.0
O592 O 0.03249 0.74868 0.08771 0.0
C593 C 0.08683 0.79477 0.08072 0.0
O594 O 0.08179 0.77181 0.08447 0.0
C595 C 0.01466 0.71281 0.11531 0.0
O596 O 0.02355 0.73693 0.11534 0.0
O597 O 0.97522 0.71585 0.08488 0.0
O598 O 0.99053 0.75373 0.07241 0.0
H599 H 0.93844 0.62762 0.05448 0.0
H600 H 0.05986 0.80604 0.10153 0.0
O601 O 0.07181 0.80030 0.07448 0.0
H602 H 0.99746 0.82899 0.09988 0.0
H603 H 0.04563 0.86168 0.04810 0.0
H604 H 0.00288 0.77508 0.04528 0.0
H605 H 0.99894 0.80472 0.08279 0.0
H606 H 0.05286 0.83668 0.06520 0.0
O607 O 0.00675 0.69888 0.10426 0.0
H608 H 0.96747 0.67194 0.05892 0.0
H609 H 0.98641 0.65422 0.09739 0.0
H610 H 0.99376 0.79845 0.02872 0.0
H611 H 0.05688 0.83287 0.12044 0.0
H612 H 0.01760 0.84267 0.03032 0.0
H613 H 0.02733 0.84640 0.11667 0.0
O614 O 0.03422 0.75636 0.05511 0.0
H615 H 0.09493 0.71421 0.09459 0.0
H616 H 0.02769 0.68244 0.06025 0.0
H617 H 0.06431 0.67832 0.05610 0.0
H618 H 0.09795 0.69420 0.07327 0.0
H619 H 0.05833 0.71836 0.09873 0.0
H620 H 0.95596 0.60997 0.09379 0.0
H621 H 0.94018 0.59666 0.07031 0.0
O622 O 0.00948 0.71441 0.06043 0.0
C623 C 0.97254 0.73344 0.07839 0.0
C624 C 0.94902 0.63295 0.06282 0.0
C625 C 0.95964 0.62209 0.08630 0.0
N626 N 0.98029 0.66697 0.07872 0.0
C627 C 0.96583 0.65934 0.06567 0.0
C628 C 0.97696 0.64890 0.08866 0.0
C629 C 0.94837 0.61428 0.07290 0.0
C630 C 0.04648 0.81006 0.10128 0.0
N631 N 0.02856 0.79997 0.09068 0.0
C632 C 0.04563 0.82715 0.11241 0.0
C633 C 0.02753 0.83409 0.11034 0.0
C634 C 0.01060 0.82463 0.10017 0.0
C635 C 0.01088 0.80970 0.09048 0.0
C636 C 0.03640 0.84350 0.04742 0.0
C637 C 0.01165 0.79323 0.04619 0.0
C638 C 0.04064 0.82830 0.05778 0.0
N639 N 0.02830 0.80359 0.05731 0.0
C640 C 0.00631 0.80678 0.03603 0.0
C641 C 0.02002 0.83240 0.03721 0.0
C642 C 0.02072 0.73331 0.05205 0.0
C643 C 0.08147 0.70785 0.08771 0.0
C644 C 0.04116 0.68880 0.06712 0.0
C645 C 0.06310 0.68633 0.06464 0.0
C646 C 0.08328 0.69585 0.07494 0.0
N647 N 0.03938 0.70083 0.07990 0.0
C648 C 0.05950 0.71031 0.09018 0.0
Co649 Co 0.27237 0.27892 0.07324 0.0
Co650 Co 0.34089 0.32186 0.08256 0.0
O651 O 0.30031 0.30833 0.08772 0.0
C652 C 0.25423 0.31658 0.08073 0.0
O653 O 0.27719 0.33450 0.08448 0.0
C654 C 0.33618 0.32636 0.11531 0.0
O655 O 0.31207 0.31113 0.11535 0.0
O656 O 0.33315 0.28389 0.08489 0.0
O657 O 0.29526 0.26131 0.07241 0.0
H658 H 0.42137 0.33534 0.05448 0.0
H659 H 0.24296 0.27834 0.10153 0.0
O660 O 0.24870 0.29603 0.07448 0.0
H661 H 0.22000 0.19299 0.09988 0.0
H662 H 0.18731 0.20846 0.04811 0.0
H663 H 0.27392 0.25231 0.04529 0.0
H664 H 0.24427 0.21874 0.08280 0.0
H665 H 0.21231 0.24070 0.06520 0.0
O666 O 0.35012 0.33239 0.10426 0.0
H667 H 0.37705 0.32004 0.05893 0.0
H668 H 0.39478 0.35671 0.09740 0.0
H669 H 0.25054 0.21982 0.02872 0.0
H670 H 0.21613 0.24853 0.12045 0.0
H671 H 0.20632 0.19944 0.03032 0.0
H672 H 0.20259 0.20544 0.11668 0.0
O673 O 0.29263 0.30237 0.05511 0.0
H674 H 0.33479 0.40524 0.09460 0.0
H675 H 0.36656 0.36977 0.06025 0.0
H676 H 0.37069 0.41051 0.05610 0.0
H677 H 0.35481 0.42828 0.07328 0.0
H678 H 0.33064 0.36448 0.09873 0.0
H679 H 0.43903 0.37051 0.09379 0.0
H680 H 0.45234 0.36803 0.07031 0.0
O681 O 0.33459 0.31959 0.06044 0.0
C682 C 0.31555 0.26361 0.07840 0.0
C683 C 0.41604 0.34058 0.06282 0.0
C684 C 0.42690 0.36207 0.08631 0.0
N685 N 0.38203 0.33783 0.07872 0.0
C686 C 0.38965 0.33100 0.06567 0.0
C687 C 0.40010 0.35258 0.08867 0.0
C688 C 0.43471 0.35860 0.07291 0.0
C689 C 0.23894 0.26093 0.10128 0.0
N690 N 0.24902 0.25310 0.09068 0.0
C691 C 0.22184 0.24299 0.11241 0.0
C692 C 0.21490 0.21796 0.11035 0.0
C693 C 0.22435 0.21047 0.10017 0.0
C694 C 0.23930 0.22570 0.09049 0.0
C695 C 0.20549 0.21741 0.04742 0.0
C696 C 0.25577 0.24294 0.04620 0.0
C697 C 0.22070 0.23686 0.05778 0.0
N698 N 0.24540 0.24923 0.05731 0.0
C699 C 0.24221 0.22404 0.03603 0.0
C700 C 0.21659 0.21214 0.03721 0.0
C701 C 0.31568 0.31192 0.05206 0.0
C702 C 0.34115 0.39814 0.08772 0.0
C703 C 0.36020 0.37687 0.06713 0.0
C704 C 0.36267 0.40129 0.06465 0.0
C705 C 0.35315 0.41195 0.07494 0.0
N706 N 0.34817 0.36307 0.07991 0.0
C707 C 0.33869 0.37370 0.09019 0.0
Co708 Co 0.69775 0.61228 0.40657 0.0
Co709 Co 0.67217 0.65522 0.41590 0.0
O710 O 0.69922 0.64169 0.42105 0.0
C711 C 0.75355 0.64994 0.41406 0.0
O712 O 0.74851 0.66786 0.41781 0.0
C713 C 0.68138 0.65972 0.44865 0.0
O714 O 0.69027 0.64449 0.44868 0.0
O715 O 0.64195 0.61725 0.41822 0.0
O716 O 0.65725 0.59467 0.40575 0.0
H717 H 0.60517 0.66869 0.38782 0.0
H718 H 0.72658 0.61169 0.43486 0.0
O719 O 0.73853 0.62939 0.40782 0.0
H720 H 0.66418 0.52635 0.43322 0.0
H721 H 0.71235 0.54182 0.38144 0.0
H722 H 0.66959 0.58567 0.37862 0.0
H723 H 0.66566 0.55210 0.41613 0.0
H724 H 0.71958 0.57406 0.39854 0.0
O725 O 0.67347 0.66575 0.43760 0.0
H726 H 0.63420 0.65340 0.39226 0.0
H727 H 0.65313 0.69006 0.43073 0.0
H728 H 0.66048 0.55317 0.36205 0.0
H729 H 0.72360 0.58189 0.45378 0.0
H730 H 0.68432 0.53280 0.36366 0.0
H731 H 0.69405 0.53880 0.45001 0.0
O732 O 0.70094 0.63572 0.38845 0.0
H733 H 0.76166 0.73860 0.42793 0.0
H734 H 0.69442 0.70312 0.39358 0.0
H735 H 0.73103 0.74387 0.38943 0.0
H736 H 0.76468 0.76163 0.40661 0.0
H737 H 0.72505 0.69784 0.43206 0.0
H738 H 0.62268 0.70386 0.42713 0.0
H739 H 0.60690 0.70139 0.40365 0.0
O740 O 0.67620 0.65295 0.39377 0.0
C741 C 0.63926 0.59697 0.41173 0.0
C742 C 0.61574 0.67393 0.39616 0.0
C743 C 0.62637 0.69542 0.41964 0.0
N744 N 0.64701 0.67119 0.41205 0.0
C745 C 0.63255 0.66435 0.39901 0.0
C746 C 0.64369 0.68593 0.42200 0.0
C747 C 0.61509 0.69195 0.40624 0.0
C748 C 0.71320 0.59429 0.43461 0.0
N749 N 0.69528 0.58646 0.42402 0.0
C750 C 0.71234 0.57635 0.44575 0.0
C751 C 0.69425 0.55132 0.44368 0.0
C752 C 0.67731 0.54383 0.43351 0.0
C753 C 0.67760 0.55906 0.42382 0.0
C754 C 0.70312 0.55077 0.38076 0.0
C755 C 0.67837 0.57630 0.37953 0.0
C756 C 0.70736 0.57022 0.39112 0.0
N757 N 0.69502 0.58258 0.39064 0.0
C758 C 0.67303 0.55740 0.36937 0.0
C759 C 0.68674 0.54549 0.37055 0.0
C760 C 0.68744 0.64528 0.38539 0.0
C761 C 0.74819 0.73150 0.42105 0.0
C762 C 0.70788 0.71023 0.40046 0.0
C763 C 0.72983 0.73465 0.39798 0.0
C764 C 0.75000 0.74530 0.40828 0.0
N765 N 0.70611 0.69642 0.41324 0.0
C766 C 0.72622 0.70706 0.42352 0.0
Co767 Co 0.43678 0.11000 0.40658 0.0
Co768 Co 0.39384 0.04148 0.41590 0.0
O769 O 0.40737 0.08206 0.42106 0.0
C770 C 0.39913 0.12815 0.41406 0.0
O771 O 0.38121 0.10519 0.41781 0.0
C772 C 0.38934 0.04619 0.44865 0.0
O773 O 0.40457 0.07031 0.44868 0.0
O774 O 0.43181 0.04923 0.41823 0.0
O775 O 0.45439 0.08711 0.40575 0.0
H776 H 0.38036 0.96100 0.38782 0.0
H777 H 0.43737 0.13942 0.43487 0.0
O778 O 0.41967 0.13368 0.40782 0.0
H779 H 0.52272 0.16237 0.43322 0.0
H780 H 0.50724 0.19506 0.38144 0.0
H781 H 0.46339 0.10845 0.37862 0.0
H782 H 0.49696 0.13810 0.41613 0.0
H783 H 0.47500 0.17006 0.39854 0.0
O784 O 0.38331 0.03225 0.43760 0.0
H785 H 0.39565 0.00532 0.39227 0.0
H786 H 0.35900 0.98760 0.43074 0.0
H787 H 0.49588 0.13183 0.36205 0.0
H788 H 0.46718 0.16625 0.45378 0.0
H789 H 0.51626 0.17605 0.36365 0.0
H790 H 0.51027 0.17979 0.45001 0.0
O791 O 0.41333 0.08974 0.38845 0.0
H792 H 0.31046 0.04758 0.42794 0.0
H793 H 0.34593 0.01581 0.39359 0.0
H794 H 0.30518 0.01168 0.38944 0.0
H795 H 0.28743 0.02756 0.40662 0.0
H796 H 0.35122 0.05174 0.43207 0.0
H797 H 0.34520 0.94335 0.42713 0.0
H798 H 0.34766 0.93004 0.40365 0.0
O799 O 0.39611 0.04778 0.39378 0.0
C800 C 0.45209 0.06682 0.41173 0.0
C801 C 0.37512 0.96633 0.39616 0.0
C802 C 0.35363 0.95547 0.41965 0.0
N803 N 0.37787 0.00010 0.41206 0.0
C804 C 0.38470 0.99272 0.39901 0.0
C805 C 0.36312 0.98228 0.42201 0.0
C806 C 0.35710 0.94766 0.40625 0.0
C807 C 0.45477 0.14344 0.43462 0.0
N808 N 0.46260 0.13335 0.42402 0.0
C809 C 0.47272 0.16054 0.44575 0.0
C810 C 0.49775 0.16747 0.44368 0.0
C811 C 0.50523 0.15802 0.43351 0.0
C812 C 0.49000 0.14308 0.42382 0.0
C813 C 0.49829 0.17688 0.38076 0.0
C814 C 0.47276 0.12660 0.37953 0.0
C815 C 0.47884 0.16167 0.39112 0.0
N816 N 0.46647 0.13697 0.39065 0.0
C817 C 0.49166 0.14016 0.36937 0.0
C818 C 0.50356 0.16577 0.37055 0.0
C819 C 0.40378 0.06669 0.38540 0.0
C820 C 0.31757 0.04122 0.42106 0.0
C821 C 0.33883 0.02217 0.40047 0.0
C822 C 0.31441 0.01970 0.39799 0.0
C823 C 0.30375 0.02922 0.40828 0.0
N824 N 0.35264 0.03421 0.41325 0.0
C825 C 0.34200 0.04369 0.42353 0.0
Co826 Co 0.93907 0.35132 0.40657 0.0
Co827 Co 0.00759 0.37690 0.41589 0.0
O828 O 0.96701 0.34986 0.42104 0.0
C829 C 0.92092 0.29552 0.41405 0.0
O830 O 0.94388 0.30056 0.41780 0.0
C831 C 0.00289 0.36770 0.44864 0.0
O832 O 0.97877 0.35881 0.44867 0.0
O833 O 0.99990 0.40713 0.41821 0.0
O834 O 0.96196 0.39182 0.40574 0.0
H835 H 0.08807 0.44391 0.38780 0.0
H836 H 0.90966 0.32249 0.43486 0.0
O837 O 0.91540 0.31054 0.40781 0.0
H838 H 0.88671 0.38489 0.43321 0.0
H839 H 0.85401 0.33672 0.38144 0.0
H840 H 0.94062 0.37948 0.37861 0.0
H841 H 0.91098 0.38341 0.41612 0.0
H842 H 0.87902 0.32949 0.39853 0.0
O843 O 0.01682 0.37561 0.43759 0.0
H844 H 0.04375 0.41488 0.39225 0.0
H845 H 0.06148 0.39594 0.43072 0.0
H846 H 0.91724 0.38859 0.36205 0.0
H847 H 0.88283 0.32547 0.45378 0.0
H848 H 0.87302 0.36475 0.36365 0.0
H849 H 0.86930 0.35502 0.45000 0.0
O850 O 0.95933 0.34814 0.38844 0.0
H851 H 0.00148 0.28742 0.42792 0.0
H852 H 0.03325 0.35466 0.39357 0.0
H853 H 0.03738 0.31804 0.38942 0.0
H854 H 0.02150 0.28440 0.40660 0.0
H855 H 0.99734 0.32403 0.43205 0.0
H856 H 0.10573 0.42640 0.42711 0.0
H857 H 0.11904 0.44218 0.40363 0.0
O858 O 0.00129 0.37287 0.39376 0.0
C859 C 0.98225 0.40981 0.41172 0.0
C860 C 0.08274 0.43334 0.39614 0.0
C861 C 0.09361 0.42271 0.41963 0.0
N862 N 0.04873 0.40207 0.41204 0.0
C863 C 0.05635 0.41653 0.39899 0.0
C864 C 0.06680 0.40539 0.42199 0.0
C865 C 0.10141 0.43399 0.40623 0.0
C866 C 0.90564 0.33588 0.43461 0.0
N867 N 0.91573 0.35379 0.42401 0.0
C868 C 0.88855 0.33673 0.44574 0.0
C869 C 0.88161 0.35482 0.44367 0.0
C870 C 0.89106 0.37176 0.43350 0.0
C871 C 0.90600 0.37147 0.42381 0.0
C872 C 0.87219 0.34595 0.38075 0.0
C873 C 0.92247 0.37070 0.37952 0.0
C874 C 0.88740 0.34171 0.39111 0.0
N875 N 0.91210 0.35405 0.39064 0.0
C876 C 0.90891 0.37604 0.36936 0.0
C877 C 0.88330 0.36233 0.37054 0.0
C878 C 0.98238 0.36163 0.38538 0.0
C879 C 0.00784 0.30088 0.42104 0.0
C880 C 0.02689 0.34120 0.40045 0.0
C881 C 0.02936 0.31925 0.39797 0.0
C882 C 0.01984 0.29907 0.40826 0.0
N883 N 0.01486 0.34297 0.41323 0.0
C884 C 0.00538 0.32286 0.42351 0.0
Co885 Co 0.94559 0.36440 0.26009 0.0
Co886 Co 0.98853 0.33882 0.25077 0.0
O887 O 0.97499 0.36586 0.24561 0.0
C888 C 0.98324 0.42020 0.25260 0.0
O889 O 0.00116 0.41516 0.24885 0.0
C890 C 0.99302 0.34802 0.21802 0.0
O891 O 0.97779 0.35691 0.21798 0.0
O892 O 0.95055 0.30859 0.24844 0.0
O893 O 0.92798 0.32390 0.26092 0.0
H894 H 0.00200 0.27181 0.27885 0.0
H895 H 0.94500 0.39322 0.23180 0.0
O896 O 0.96270 0.40518 0.25885 0.0
H897 H 0.85965 0.33082 0.23345 0.0
H898 H 0.87513 0.37900 0.28522 0.0
H899 H 0.91898 0.33624 0.28804 0.0
H900 H 0.88540 0.33231 0.25054 0.0
H901 H 0.90737 0.38623 0.26813 0.0
O902 O 0.99990 0.34012 0.22907 0.0
H903 H 0.98671 0.30084 0.27440 0.0
H904 H 0.02337 0.31978 0.23593 0.0
H905 H 0.88649 0.32713 0.30461 0.0
H906 H 0.91520 0.39024 0.21288 0.0
H907 H 0.86611 0.35097 0.30301 0.0
H908 H 0.87210 0.36069 0.21666 0.0
O909 O 0.96903 0.36759 0.27822 0.0
H910 H 0.07191 0.42830 0.23873 0.0
H911 H 0.03643 0.36106 0.27308 0.0
H912 H 0.07718 0.39768 0.27723 0.0
H913 H 0.09494 0.43132 0.26005 0.0
H914 H 0.03115 0.39169 0.23460 0.0
H915 H 0.03716 0.28932 0.23953 0.0
H916 H 0.03469 0.27355 0.26302 0.0
O917 O 0.98626 0.34285 0.27289 0.0
C918 C 0.93028 0.30591 0.25493 0.0
C919 C 0.00724 0.28239 0.27051 0.0
C920 C 0.02873 0.29301 0.24702 0.0
N921 N 0.00450 0.31366 0.25461 0.0
C922 C 0.99766 0.29920 0.26766 0.0
C923 C 0.01924 0.31033 0.24466 0.0
C924 C 0.02526 0.28174 0.26042 0.0
C925 C 0.92760 0.37984 0.23205 0.0
N926 N 0.91977 0.36192 0.24265 0.0
C927 C 0.90965 0.37899 0.22092 0.0
C928 C 0.88462 0.36090 0.22299 0.0
C929 C 0.87714 0.34396 0.23316 0.0
C930 C 0.89237 0.34425 0.24285 0.0
C931 C 0.88408 0.36977 0.28591 0.0
C932 C 0.90961 0.34502 0.28714 0.0
C933 C 0.90353 0.37401 0.27555 0.0
N934 N 0.91589 0.36167 0.27602 0.0
C935 C 0.89071 0.33968 0.29730 0.0
C936 C 0.87881 0.35339 0.29612 0.0
C937 C 0.97859 0.35409 0.28127 0.0
C938 C 0.06480 0.41484 0.24561 0.0
C939 C 0.04354 0.37453 0.26620 0.0
C940 C 0.06795 0.39647 0.26868 0.0
C941 C 0.07861 0.41665 0.25838 0.0
N942 N 0.02973 0.37275 0.25342 0.0
C943 C 0.04037 0.39287 0.24314 0.0
Co944 Co 0.68464 0.60572 0.26010 0.0
Co945 Co 0.71022 0.67424 0.25077 0.0
O946 O 0.68318 0.63366 0.24562 0.0
C947 C 0.62884 0.58757 0.25261 0.0
O948 O 0.63388 0.61053 0.24886 0.0
C949 C 0.70101 0.66953 0.21803 0.0
O950 O 0.69212 0.64541 0.21799 0.0
O951 O 0.74045 0.66650 0.24845 0.0
O952 O 0.72514 0.62861 0.26093 0.0
H953 H 0.77723 0.75473 0.27885 0.0
H954 H 0.65581 0.57630 0.23181 0.0
O955 O 0.64386 0.58205 0.25886 0.0
H956 H 0.71820 0.55335 0.23345 0.0
H957 H 0.67004 0.52066 0.28523 0.0
H958 H 0.71280 0.60727 0.28805 0.0
H959 H 0.71672 0.57763 0.25054 0.0
H960 H 0.66280 0.54567 0.26813 0.0
O961 O 0.70892 0.68347 0.22907 0.0
H962 H 0.74820 0.71040 0.27441 0.0
H963 H 0.72926 0.72812 0.23594 0.0
H964 H 0.72191 0.58389 0.30462 0.0
H965 H 0.65878 0.54948 0.21289 0.0
H966 H 0.69807 0.53968 0.30302 0.0
H967 H 0.68833 0.53594 0.21666 0.0
O968 O 0.68146 0.62598 0.27822 0.0
H969 H 0.62074 0.66813 0.23874 0.0
H970 H 0.68798 0.69991 0.27309 0.0
H971 H 0.65137 0.70403 0.27724 0.0
H972 H 0.61773 0.68815 0.26006 0.0
H973 H 0.65734 0.66398 0.23461 0.0
H974 H 0.75972 0.77238 0.23954 0.0
H975 H 0.77550 0.78569 0.26302 0.0
O976 O 0.70619 0.66794 0.27290 0.0
C977 C 0.74313 0.64890 0.25494 0.0
C978 C 0.76666 0.74939 0.27051 0.0
C979 C 0.75603 0.76025 0.24703 0.0
N980 N 0.73539 0.71538 0.25462 0.0
C981 C 0.74985 0.72300 0.26766 0.0
C982 C 0.73871 0.73344 0.24467 0.0
C983 C 0.76731 0.76806 0.26043 0.0
C984 C 0.66919 0.57228 0.23206 0.0
N985 N 0.68711 0.58237 0.24266 0.0
C986 C 0.67004 0.55519 0.22093 0.0
C987 C 0.68813 0.54825 0.22299 0.0
C988 C 0.70507 0.55771 0.23316 0.0
C989 C 0.70478 0.57265 0.24285 0.0
C990 C 0.67927 0.53884 0.28591 0.0
C991 C 0.70402 0.58912 0.28714 0.0
C992 C 0.67503 0.55405 0.27555 0.0
N993 N 0.68737 0.57876 0.27603 0.0
C994 C 0.70936 0.57557 0.29731 0.0
C995 C 0.69565 0.54995 0.29612 0.0
C996 C 0.69496 0.64903 0.28128 0.0
C997 C 0.63420 0.67449 0.24562 0.0
C998 C 0.67452 0.69355 0.26621 0.0
C999 C 0.65257 0.69602 0.26869 0.0
C1000 C 0.63239 0.68650 0.25840 0.0
N1001 N 0.67629 0.68151 0.25343 0.0
C1002 C 0.65617 0.67203 0.24315 0.0
Co1003 Co 0.44330 0.10343 0.26010 0.0
Co1004 Co 0.37478 0.06049 0.25078 0.0
O1005 O 0.41535 0.07402 0.24562 0.0
C1006 C 0.46144 0.06578 0.25261 0.0
O1007 O 0.43848 0.04786 0.24886 0.0
C1008 C 0.37948 0.05599 0.21803 0.0
O1009 O 0.40360 0.07122 0.21799 0.0
O1010 O 0.38252 0.09846 0.24845 0.0
O1011 O 0.42041 0.12104 0.26093 0.0
H1012 H 0.29430 0.04702 0.27886 0.0
H1013 H 0.47271 0.10402 0.23181 0.0
O1014 O 0.46697 0.08633 0.25885 0.0
H1015 H 0.49566 0.18937 0.23345 0.0
H1016 H 0.52837 0.17390 0.28523 0.0
H1017 H 0.44176 0.13004 0.28805 0.0
H1018 H 0.47140 0.16361 0.25054 0.0
H1019 H 0.50336 0.14166 0.26813 0.0
O1020 O 0.36555 0.04996 0.22908 0.0
H1021 H 0.33862 0.06231 0.27441 0.0
H1022 H 0.32089 0.02564 0.23594 0.0
H1023 H 0.46514 0.16254 0.30462 0.0
H1024 H 0.49954 0.13382 0.21289 0.0
H1025 H 0.50935 0.18292 0.30301 0.0
H1026 H 0.51308 0.17691 0.21666 0.0
O1027 O 0.42304 0.07999 0.27823 0.0
H1028 H 0.38088 0.97711 0.23874 0.0
H1029 H 0.34911 0.01259 0.27309 0.0
H1030 H 0.34498 0.97184 0.27724 0.0
H1031 H 0.36086 0.95408 0.26006 0.0
H1032 H 0.38503 0.01787 0.23461 0.0
H1033 H 0.27664 0.01185 0.23955 0.0
H1034 H 0.26333 0.01432 0.26303 0.0
O1035 O 0.38108 0.06276 0.27290 0.0
C1036 C 0.40012 0.11874 0.25494 0.0
C1037 C 0.29963 0.04178 0.27052 0.0
C1038 C 0.28876 0.02028 0.24704 0.0
N1039 N 0.33364 0.04452 0.25462 0.0
C1040 C 0.32602 0.05136 0.26767 0.0
C1041 C 0.31557 0.02977 0.24468 0.0
C1042 C 0.28096 0.02375 0.26044 0.0
C1043 C 0.47673 0.12142 0.23206 0.0
N1044 N 0.46665 0.12925 0.24266 0.0
C1045 C 0.49383 0.13937 0.22092 0.0
C1046 C 0.50076 0.16439 0.22299 0.0
C1047 C 0.49131 0.17188 0.23316 0.0
C1048 C 0.47637 0.15665 0.24285 0.0
C1049 C 0.51019 0.16495 0.28591 0.0
C1050 C 0.45991 0.13942 0.28714 0.0
C1051 C 0.49498 0.14550 0.27555 0.0
N1052 N 0.47027 0.13313 0.27603 0.0
C1053 C 0.47346 0.15832 0.29731 0.0
C1054 C 0.49908 0.17022 0.29612 0.0
C1055 C 0.39999 0.07043 0.28128 0.0
C1056 C 0.37452 0.98422 0.24562 0.0
C1057 C 0.35547 0.00548 0.26621 0.0
C1058 C 0.35300 0.98106 0.26870 0.0
C1059 C 0.36252 0.97041 0.25840 0.0
N1060 N 0.36750 0.01929 0.25344 0.0
C1061 C 0.37698 0.00865 0.24315 0.0
Co1062 Co 0.68462 0.10344 0.26009 0.0
Co1063 Co 0.71020 0.06049 0.25077 0.0
O1064 O 0.68315 0.07403 0.24562 0.0
C1065 C 0.62882 0.06578 0.25261 0.0
O1066 O 0.63386 0.04786 0.24886 0.0
C1067 C 0.70099 0.05599 0.21802 0.0
O1068 O 0.69210 0.07122 0.21799 0.0
O1069 O 0.74042 0.09847 0.24844 0.0
O1070 O 0.72512 0.12105 0.26092 0.0
H1071 H 0.77720 0.04703 0.27885 0.0
H1072 H 0.65579 0.10402 0.23180 0.0
O1073 O 0.64384 0.08633 0.25885 0.0
H1074 H 0.71819 0.18937 0.23345 0.0
H1075 H 0.67002 0.17390 0.28523 0.0
H1076 H 0.71278 0.13005 0.28804 0.0
H1077 H 0.71671 0.16362 0.25054 0.0
H1078 H 0.66279 0.14166 0.26813 0.0
O1079 O 0.70890 0.04996 0.22907 0.0
H1080 H 0.74818 0.06232 0.27441 0.0
H1081 H 0.72924 0.02565 0.23594 0.0
H1082 H 0.72189 0.16254 0.30461 0.0
H1083 H 0.65877 0.13382 0.21288 0.0
H1084 H 0.69805 0.18292 0.30301 0.0
H1085 H 0.68832 0.17691 0.21666 0.0
O1086 O 0.68143 0.07999 0.27822 0.0
H1087 H 0.62071 0.97711 0.23874 0.0
H1088 H 0.68795 0.01259 0.27308 0.0
H1089 H 0.65134 0.97184 0.27724 0.0
H1090 H 0.61769 0.95408 0.26006 0.0
H1091 H 0.65732 0.01787 0.23460 0.0
H1092 H 0.75969 0.01185 0.23954 0.0
H1093 H 0.77547 0.01433 0.26302 0.0
O1094 O 0.70617 0.06277 0.27290 0.0
C1095 C 0.74311 0.11874 0.25494 0.0
C1096 C 0.76663 0.04179 0.27051 0.0
C1097 C 0.75600 0.02029 0.24703 0.0
N1098 N 0.73536 0.04452 0.25461 0.0
C1099 C 0.74982 0.05136 0.26766 0.0
C1100 C 0.73868 0.02978 0.24467 0.0
C1101 C 0.76728 0.02376 0.26043 0.0
C1102 C 0.66917 0.12142 0.23205 0.0
N1103 N 0.68709 0.12925 0.24265 0.0
C1104 C 0.67002 0.13937 0.22092 0.0
C1105 C 0.68812 0.16439 0.22299 0.0
C1106 C 0.70506 0.17188 0.23316 0.0
C1107 C 0.70477 0.15665 0.24285 0.0
C1108 C 0.67925 0.16495 0.28591 0.0
C1109 C 0.70400 0.13942 0.28714 0.0
C1110 C 0.67501 0.14550 0.27555 0.0
N1111 N 0.68735 0.13313 0.27602 0.0
C1112 C 0.70935 0.15832 0.29730 0.0
C1113 C 0.69563 0.17022 0.29612 0.0
C1114 C 0.69493 0.07044 0.28128 0.0
C1115 C 0.63417 0.98422 0.24562 0.0
C1116 C 0.67449 0.00549 0.26621 0.0
C1117 C 0.65254 0.98107 0.26869 0.0
C1118 C 0.63237 0.97041 0.25839 0.0
N1119 N 0.67626 0.01929 0.25343 0.0
C1120 C 0.65615 0.00865 0.24315 0.0
Co1121 Co 0.94559 0.60571 0.26009 0.0
Co1122 Co 0.98854 0.67424 0.25077 0.0
O1123 O 0.97500 0.63366 0.24561 0.0
C1124 C 0.98325 0.58757 0.25260 0.0
O1125 O 0.00117 0.61053 0.24885 0.0
C1126 C 0.99303 0.66952 0.21802 0.0
O1127 O 0.97780 0.64541 0.21799 0.0
O1128 O 0.95057 0.66649 0.24844 0.0
O1129 O 0.92799 0.62861 0.26092 0.0
H1130 H 0.00202 0.75472 0.27885 0.0
H1131 H 0.94500 0.57630 0.23180 0.0
O1132 O 0.96270 0.58204 0.25885 0.0
H1133 H 0.85966 0.55335 0.23345 0.0
H1134 H 0.87513 0.52066 0.28523 0.0
H1135 H 0.91899 0.60727 0.28804 0.0
H1136 H 0.88541 0.57762 0.25054 0.0
H1137 H 0.90737 0.54566 0.26813 0.0
O1138 O 0.99990 0.68346 0.22907 0.0
H1139 H 0.98672 0.71040 0.27440 0.0
H1140 H 0.02338 0.72812 0.23593 0.0
H1141 H 0.88650 0.58389 0.30462 0.0
H1142 H 0.91520 0.54947 0.21288 0.0
H1143 H 0.86612 0.53967 0.30301 0.0
H1144 H 0.87211 0.53593 0.21666 0.0
O1145 O 0.96904 0.62598 0.27822 0.0
H1146 H 0.07191 0.66813 0.23873 0.0
H1147 H 0.03645 0.69990 0.27308 0.0
H1148 H 0.07719 0.70403 0.27722 0.0
H1149 H 0.09495 0.68815 0.26005 0.0
H1150 H 0.03115 0.66398 0.23460 0.0
H1151 H 0.03718 0.77237 0.23953 0.0
H1152 H 0.03471 0.78568 0.26302 0.0
O1153 O 0.98627 0.66794 0.27289 0.0
C1154 C 0.93029 0.64889 0.25493 0.0
C1155 C 0.00725 0.74939 0.27051 0.0
C1156 C 0.02874 0.76025 0.24702 0.0
N1157 N 0.00451 0.71537 0.25461 0.0
C1158 C 0.99768 0.72300 0.26766 0.0
C1159 C 0.01925 0.73344 0.24466 0.0
C1160 C 0.02528 0.76806 0.26042 0.0
C1161 C 0.92760 0.57228 0.23205 0.0
N1162 N 0.91977 0.58237 0.24265 0.0
C1163 C 0.90965 0.55518 0.22092 0.0
C1164 C 0.88462 0.54825 0.22299 0.0
C1165 C 0.87714 0.55770 0.23316 0.0
C1166 C 0.89237 0.57264 0.24285 0.0
C1167 C 0.88409 0.53884 0.28591 0.0
C1168 C 0.90962 0.58912 0.28714 0.0
C1169 C 0.90353 0.55404 0.27555 0.0
N1170 N 0.91590 0.57875 0.27602 0.0
C1171 C 0.89072 0.57556 0.29730 0.0
C1172 C 0.87881 0.54995 0.29612 0.0
C1173 C 0.97860 0.64903 0.28127 0.0
C1174 C 0.06481 0.67449 0.24561 0.0
C1175 C 0.04355 0.69354 0.26620 0.0
C1176 C 0.06797 0.69601 0.26868 0.0
C1177 C 0.07862 0.68649 0.25838 0.0
N1178 N 0.02974 0.68151 0.25342 0.0
C1179 C 0.04038 0.67203 0.24314 0.0
Co1180 Co 0.44331 0.36440 0.26010 0.0
Co1181 Co 0.37478 0.33881 0.25078 0.0
O1182 O 0.41536 0.36586 0.24562 0.0
C1183 C 0.46146 0.42020 0.25261 0.0
O1184 O 0.43849 0.41515 0.24886 0.0
C1185 C 0.37949 0.34802 0.21803 0.0
O1186 O 0.40361 0.35691 0.21799 0.0
O1187 O 0.38253 0.30859 0.24845 0.0
O1188 O 0.42042 0.32389 0.26093 0.0
H1189 H 0.29430 0.27181 0.27886 0.0
H1190 H 0.47272 0.39322 0.23181 0.0
O1191 O 0.46698 0.40518 0.25885 0.0
H1192 H 0.49567 0.33082 0.23345 0.0
H1193 H 0.52837 0.37900 0.28523 0.0
H1194 H 0.44176 0.33624 0.28805 0.0
H1195 H 0.47140 0.33231 0.25054 0.0
H1196 H 0.50336 0.38623 0.26813 0.0
O1197 O 0.36556 0.34011 0.22908 0.0
H1198 H 0.33863 0.30084 0.27441 0.0
H1199 H 0.32090 0.31977 0.23594 0.0
H1200 H 0.46514 0.32713 0.30462 0.0
H1201 H 0.49955 0.39024 0.21289 0.0
H1202 H 0.50936 0.35097 0.30301 0.0
H1203 H 0.51308 0.36069 0.21666 0.0
O1204 O 0.42305 0.36758 0.27822 0.0
H1205 H 0.38089 0.42830 0.23874 0.0
H1206 H 0.34913 0.36106 0.27309 0.0
H1207 H 0.34500 0.39767 0.27724 0.0
H1208 H 0.36088 0.43131 0.26006 0.0
H1209 H 0.38504 0.39169 0.23461 0.0
H1210 H 0.27665 0.28932 0.23955 0.0
H1211 H 0.26334 0.27354 0.26303 0.0
O1212 O 0.38109 0.34285 0.27290 0.0
C1213 C 0.40013 0.30591 0.25494 0.0
C1214 C 0.29964 0.28238 0.27052 0.0
C1215 C 0.28877 0.29300 0.24703 0.0
N1216 N 0.33365 0.31365 0.25462 0.0
C1217 C 0.32603 0.29919 0.26767 0.0
C1218 C 0.31558 0.31032 0.24468 0.0
C1219 C 0.28096 0.28173 0.26043 0.0
C1220 C 0.47674 0.37984 0.23206 0.0
N1221 N 0.46665 0.36192 0.24266 0.0
C1222 C 0.49383 0.37899 0.22093 0.0
C1223 C 0.50077 0.36090 0.22299 0.0
C1224 C 0.49132 0.34396 0.23316 0.0
C1225 C 0.47638 0.34425 0.24285 0.0
C1226 C 0.51019 0.36977 0.28591 0.0
C1227 C 0.45991 0.34502 0.28714 0.0
C1228 C 0.49498 0.37401 0.27555 0.0
N1229 N 0.47027 0.36167 0.27603 0.0
C1230 C 0.47346 0.33967 0.29731 0.0
C1231 C 0.49908 0.35339 0.29612 0.0
C1232 C 0.40000 0.35408 0.28128 0.0
C1233 C 0.37453 0.41483 0.24562 0.0
C1234 C 0.35548 0.37452 0.26621 0.0
C1235 C 0.35302 0.39647 0.26870 0.0
C1236 C 0.36254 0.41664 0.25840 0.0
N1237 N 0.36752 0.37274 0.25343 0.0
C1238 C 0.37699 0.39286 0.24315 0.0
Co1239 Co 0.43679 0.35132 0.40657 0.0
Co1240 Co 0.39385 0.37690 0.41590 0.0
O1241 O 0.40738 0.34985 0.42105 0.0
C1242 C 0.39913 0.29551 0.41406 0.0
O1243 O 0.38121 0.30056 0.41781 0.0
C1244 C 0.38935 0.36769 0.44865 0.0
O1245 O 0.40458 0.35880 0.44868 0.0
O1246 O 0.43182 0.40712 0.41822 0.0
O1247 O 0.45440 0.39182 0.40574 0.0
H1248 H 0.38037 0.44390 0.38782 0.0
H1249 H 0.43737 0.32249 0.43486 0.0
O1250 O 0.41968 0.31054 0.40782 0.0
H1251 H 0.52272 0.38489 0.43321 0.0
H1252 H 0.50724 0.33672 0.38144 0.0
H1253 H 0.46339 0.37947 0.37862 0.0
H1254 H 0.49697 0.38341 0.41613 0.0
H1255 H 0.47501 0.32949 0.39854 0.0
O1256 O 0.38332 0.37560 0.43760 0.0
H1257 H 0.39566 0.41487 0.39226 0.0
H1258 H 0.35900 0.39594 0.43073 0.0
H1259 H 0.49589 0.38859 0.36205 0.0
H1260 H 0.46718 0.32547 0.45378 0.0
H1261 H 0.51626 0.36475 0.36365 0.0
H1262 H 0.51027 0.35502 0.45001 0.0
O1263 O 0.41334 0.34813 0.38845 0.0
H1264 H 0.31047 0.28741 0.42793 0.0
H1265 H 0.34594 0.35465 0.39359 0.0
H1266 H 0.30519 0.31803 0.38944 0.0
H1267 H 0.28743 0.28439 0.40661 0.0
H1268 H 0.35123 0.32402 0.43207 0.0
H1269 H 0.34521 0.42639 0.42713 0.0
H1270 H 0.34768 0.44217 0.40365 0.0
O1271 O 0.39612 0.37286 0.39377 0.0
C1272 C 0.45210 0.40981 0.41173 0.0
C1273 C 0.37513 0.43333 0.39616 0.0
C1274 C 0.35364 0.42270 0.41964 0.0
N1275 N 0.37788 0.40206 0.41205 0.0
C1276 C 0.38471 0.41652 0.39900 0.0
C1277 C 0.36313 0.40538 0.42200 0.0
C1278 C 0.35711 0.43398 0.40624 0.0
C1279 C 0.45477 0.33587 0.43461 0.0
N1280 N 0.46261 0.35379 0.42401 0.0
C1281 C 0.47272 0.33673 0.44574 0.0
C1282 C 0.49775 0.35482 0.44368 0.0
C1283 C 0.50523 0.37176 0.43351 0.0
C1284 C 0.49001 0.37147 0.42382 0.0
C1285 C 0.49829 0.34595 0.38076 0.0
C1286 C 0.47277 0.37069 0.37953 0.0
C1287 C 0.47885 0.34171 0.39112 0.0
N1288 N 0.46648 0.35405 0.39064 0.0
C1289 C 0.49166 0.37604 0.36936 0.0
C1290 C 0.50357 0.36233 0.37055 0.0
C1291 C 0.40379 0.36163 0.38539 0.0
C1292 C 0.31757 0.30087 0.42105 0.0
C1293 C 0.33884 0.34119 0.40047 0.0
C1294 C 0.31442 0.31924 0.39798 0.0
C1295 C 0.30376 0.29906 0.40828 0.0
N1296 N 0.35264 0.34296 0.41324 0.0
C1297 C 0.34200 0.32285 0.42352 0.0
Co1298 Co 0.69774 0.11000 0.40657 0.0
Co1299 Co 0.67215 0.04148 0.41590 0.0
O1300 O 0.69920 0.08206 0.42105 0.0
C1301 C 0.75354 0.12815 0.41406 0.0
O1302 O 0.74850 0.10519 0.41781 0.0
C1303 C 0.68137 0.04619 0.44864 0.0
O1304 O 0.69026 0.07031 0.44868 0.0
O1305 O 0.64193 0.04923 0.41822 0.0
O1306 O 0.65724 0.08711 0.40575 0.0
H1307 H 0.60514 0.96100 0.38782 0.0
H1308 H 0.72657 0.13942 0.43486 0.0
O1309 O 0.73852 0.13368 0.40781 0.0
H1310 H 0.66418 0.16237 0.43322 0.0
H1311 H 0.71234 0.19506 0.38144 0.0
H1312 H 0.66958 0.10845 0.37862 0.0
H1313 H 0.66565 0.13810 0.41613 0.0
H1314 H 0.71957 0.17006 0.39854 0.0
O1315 O 0.67345 0.03225 0.43760 0.0
H1316 H 0.63417 0.00532 0.39226 0.0
H1317 H 0.65311 0.98760 0.43073 0.0
H1318 H 0.66047 0.13183 0.36205 0.0
H1319 H 0.72360 0.16625 0.45378 0.0
H1320 H 0.68431 0.17605 0.36366 0.0
H1321 H 0.69405 0.17979 0.45001 0.0
O1322 O 0.70092 0.08974 0.38845 0.0
H1323 H 0.76164 0.04758 0.42793 0.0
H1324 H 0.69439 0.01581 0.39358 0.0
H1325 H 0.73101 0.01169 0.38943 0.0
H1326 H 0.76465 0.02757 0.40661 0.0
H1327 H 0.72503 0.05174 0.43206 0.0
H1328 H 0.62266 0.94335 0.42713 0.0
H1329 H 0.60687 0.93003 0.40365 0.0
O1330 O 0.67618 0.04778 0.39377 0.0
C1331 C 0.63925 0.06682 0.41173 0.0
C1332 C 0.61571 0.96633 0.39616 0.0
C1333 C 0.62634 0.95547 0.41964 0.0
N1334 N 0.64699 0.00010 0.41205 0.0
C1335 C 0.63253 0.99272 0.39901 0.0
C1336 C 0.64366 0.98228 0.42200 0.0
C1337 C 0.61506 0.94766 0.40624 0.0
C1338 C 0.71319 0.14344 0.43461 0.0
N1339 N 0.69527 0.13335 0.42401 0.0
C1340 C 0.71234 0.16053 0.44574 0.0
C1341 C 0.69425 0.16747 0.44368 0.0
C1342 C 0.67731 0.15802 0.43351 0.0
C1343 C 0.67760 0.14308 0.42382 0.0
C1344 C 0.70311 0.17688 0.38076 0.0
C1345 C 0.67836 0.12660 0.37953 0.0
C1346 C 0.70735 0.16167 0.39112 0.0
N1347 N 0.69501 0.13697 0.39064 0.0
C1348 C 0.67302 0.14016 0.36937 0.0
C1349 C 0.68673 0.16577 0.37055 0.0
C1350 C 0.68742 0.06669 0.38539 0.0
C1351 C 0.74817 0.04123 0.42105 0.0
C1352 C 0.70786 0.02217 0.40046 0.0
C1353 C 0.72980 0.01970 0.39798 0.0
C1354 C 0.74998 0.02922 0.40827 0.0
N1355 N 0.70608 0.03421 0.41324 0.0
C1356 C 0.72620 0.04369 0.42352 0.0
Co1357 Co 0.93907 0.61228 0.40657 0.0
Co1358 Co 0.00760 0.65522 0.41589 0.0
O1359 O 0.96702 0.64169 0.42105 0.0
C1360 C 0.92093 0.64994 0.41406 0.0
O1361 O 0.94389 0.66786 0.41781 0.0
C1362 C 0.00289 0.65972 0.44864 0.0
O1363 O 0.97877 0.64449 0.44867 0.0
O1364 O 0.99990 0.61725 0.41822 0.0
O1365 O 0.96196 0.59467 0.40574 0.0
H1366 H 0.08807 0.66870 0.38781 0.0
H1367 H 0.90966 0.61169 0.43486 0.0
O1368 O 0.91540 0.62939 0.40781 0.0
H1369 H 0.88671 0.52635 0.43321 0.0
H1370 H 0.85401 0.54182 0.38144 0.0
H1371 H 0.94062 0.58567 0.37862 0.0
H1372 H 0.91098 0.55210 0.41613 0.0
H1373 H 0.87902 0.57406 0.39853 0.0
O1374 O 0.01683 0.66575 0.43759 0.0
H1375 H 0.04375 0.65341 0.39226 0.0
H1376 H 0.06148 0.69007 0.43073 0.0
H1377 H 0.91724 0.55318 0.36205 0.0
H1378 H 0.88283 0.58189 0.45378 0.0
H1379 H 0.87302 0.53280 0.36365 0.0
H1380 H 0.86929 0.53880 0.45001 0.0
O1381 O 0.95933 0.63573 0.38844 0.0
H1382 H 0.00149 0.73860 0.42793 0.0
H1383 H 0.03326 0.70313 0.39358 0.0
H1384 H 0.03739 0.74387 0.38943 0.0
H1385 H 0.02151 0.76164 0.40661 0.0
H1386 H 0.99734 0.69784 0.43206 0.0
H1387 H 0.10573 0.70387 0.42712 0.0
H1388 H 0.11904 0.70140 0.40364 0.0
O1389 O 0.00129 0.65295 0.39377 0.0
C1390 C 0.98225 0.59697 0.41173 0.0
C1391 C 0.08274 0.67394 0.39615 0.0
C1392 C 0.09361 0.69543 0.41964 0.0
N1393 N 0.04873 0.67120 0.41205 0.0
C1394 C 0.05635 0.66436 0.39900 0.0
C1395 C 0.06680 0.68594 0.42199 0.0
C1396 C 0.10142 0.69196 0.40624 0.0
C1397 C 0.90564 0.59429 0.43461 0.0
N1398 N 0.91572 0.58646 0.42401 0.0
C1399 C 0.88854 0.57635 0.44574 0.0
C1400 C 0.88161 0.55132 0.44368 0.0
C1401 C 0.89106 0.54383 0.43350 0.0
C1402 C 0.90600 0.55906 0.42382 0.0
C1403 C 0.87219 0.55077 0.38075 0.0
C1404 C 0.92247 0.57630 0.37953 0.0
C1405 C 0.88740 0.57022 0.39112 0.0
N1406 N 0.91210 0.58259 0.39064 0.0
C1407 C 0.90891 0.55740 0.36936 0.0
C1408 C 0.88330 0.54550 0.37054 0.0
C1409 C 0.98238 0.64528 0.38539 0.0
C1410 C 0.00785 0.73150 0.42105 0.0
C1411 C 0.02690 0.71023 0.40046 0.0
C1412 C 0.02937 0.73465 0.39797 0.0
C1413 C 0.01985 0.74531 0.40827 0.0
N1414 N 0.01487 0.69643 0.41323 0.0
C1415 C 0.00539 0.70706 0.42352 0.0
Co1416 Co 0.36440 0.94559 0.73991 0.0
Co1417 Co 0.33882 0.98853 0.74923 0.0
O1418 O 0.36586 0.97499 0.75439 0.0
C1419 C 0.42020 0.98324 0.74740 0.0
O1420 O 0.41516 0.00116 0.75115 0.0
C1421 C 0.34802 0.99302 0.78198 0.0
O1422 O 0.35691 0.97779 0.78202 0.0
O1423 O 0.30859 0.95055 0.75156 0.0
O1424 O 0.32390 0.92798 0.73908 0.0
H1425 H 0.27181 0.00200 0.72115 0.0
H1426 H 0.39322 0.94500 0.76820 0.0
O1427 O 0.40518 0.96270 0.74115 0.0
H1428 H 0.33082 0.85965 0.76655 0.0
H1429 H 0.37900 0.87513 0.71478 0.0
H1430 H 0.33624 0.91898 0.71196 0.0
H1431 H 0.33231 0.88540 0.74946 0.0
H1432 H 0.38623 0.90737 0.73187 0.0
O1433 O 0.34012 0.99990 0.77093 0.0
H1434 H 0.30084 0.98671 0.72560 0.0
H1435 H 0.31978 0.02337 0.76407 0.0
H1436 H 0.32713 0.88649 0.69539 0.0
H1437 H 0.39024 0.91520 0.78712 0.0
H1438 H 0.35097 0.86611 0.69699 0.0
H1439 H 0.36069 0.87210 0.78334 0.0
O1440 O 0.36759 0.96903 0.72178 0.0
H1441 H 0.42830 0.07191 0.76127 0.0
H1442 H 0.36106 0.03643 0.72692 0.0
H1443 H 0.39768 0.07718 0.72277 0.0
H1444 H 0.43132 0.09494 0.73995 0.0
H1445 H 0.39169 0.03115 0.76540 0.0
H1446 H 0.28932 0.03716 0.76047 0.0
H1447 H 0.27355 0.03469 0.73698 0.0
O1448 O 0.34285 0.98626 0.72711 0.0
C1449 C 0.30591 0.93028 0.74507 0.0
C1450 C 0.28239 0.00724 0.72949 0.0
C1451 C 0.29301 0.02873 0.75298 0.0
N1452 N 0.31366 0.00450 0.74539 0.0
C1453 C 0.29920 0.99766 0.73234 0.0
C1454 C 0.31033 0.01924 0.75534 0.0
C1455 C 0.28173 0.02526 0.73958 0.0
C1456 C 0.37984 0.92760 0.76795 0.0
N1457 N 0.36192 0.91977 0.75735 0.0
C1458 C 0.37899 0.90965 0.77908 0.0
C1459 C 0.36090 0.88462 0.77701 0.0
C1460 C 0.34396 0.87714 0.76684 0.0
C1461 C 0.34425 0.89237 0.75715 0.0
C1462 C 0.36977 0.88408 0.71409 0.0
C1463 C 0.34502 0.90961 0.71287 0.0
C1464 C 0.37401 0.90353 0.72445 0.0
N1465 N 0.36167 0.91589 0.72398 0.0
C1466 C 0.33968 0.89071 0.70270 0.0
C1467 C 0.35339 0.87881 0.70388 0.0
C1468 C 0.35409 0.97859 0.71873 0.0
C1469 C 0.41484 0.06480 0.75439 0.0
C1470 C 0.37453 0.04354 0.73380 0.0
C1471 C 0.39647 0.06795 0.73132 0.0
C1472 C 0.41665 0.07861 0.74162 0.0
N1473 N 0.37275 0.02973 0.74658 0.0
C1474 C 0.39287 0.04037 0.75686 0.0
Co1475 Co 0.10343 0.44330 0.73990 0.0
Co1476 Co 0.06049 0.37478 0.74922 0.0
O1477 O 0.07402 0.41535 0.75438 0.0
C1478 C 0.06578 0.46144 0.74739 0.0
O1479 O 0.04786 0.43848 0.75114 0.0
C1480 C 0.05599 0.37948 0.78197 0.0
O1481 O 0.07122 0.40360 0.78201 0.0
O1482 O 0.09846 0.38252 0.75155 0.0
O1483 O 0.12104 0.42041 0.73907 0.0
H1484 H 0.04702 0.29430 0.72114 0.0
H1485 H 0.10402 0.47271 0.76819 0.0
O1486 O 0.08633 0.46697 0.74115 0.0
H1487 H 0.18937 0.49566 0.76655 0.0
H1488 H 0.17390 0.52837 0.71477 0.0
H1489 H 0.13004 0.44176 0.71195 0.0
H1490 H 0.16361 0.47140 0.74946 0.0
H1491 H 0.14166 0.50336 0.73187 0.0
O1492 O 0.04996 0.36555 0.77092 0.0
H1493 H 0.06231 0.33862 0.72559 0.0
H1494 H 0.02564 0.32089 0.76406 0.0
H1495 H 0.16254 0.46514 0.69538 0.0
H1496 H 0.13382 0.49954 0.78711 0.0
H1497 H 0.18292 0.50935 0.69699 0.0
H1498 H 0.17691 0.51308 0.78334 0.0
O1499 O 0.07999 0.42304 0.72177 0.0
H1500 H 0.97711 0.38088 0.76126 0.0
H1501 H 0.01259 0.34911 0.72691 0.0
H1502 H 0.97184 0.34498 0.72276 0.0
H1503 H 0.95408 0.36086 0.73994 0.0
H1504 H 0.01787 0.38503 0.76539 0.0
H1505 H 0.01185 0.27664 0.76045 0.0
H1506 H 0.01432 0.26333 0.73697 0.0
O1507 O 0.06276 0.38108 0.72710 0.0
C1508 C 0.11874 0.40012 0.74506 0.0
C1509 C 0.04178 0.29963 0.72948 0.0
C1510 C 0.02028 0.28876 0.75296 0.0
N1511 N 0.04452 0.33364 0.74538 0.0
C1512 C 0.05136 0.32602 0.73233 0.0
C1513 C 0.02977 0.31557 0.75532 0.0
C1514 C 0.02375 0.28096 0.73956 0.0
C1515 C 0.12142 0.47673 0.76794 0.0
N1516 N 0.12925 0.46665 0.75734 0.0
C1517 C 0.13937 0.49383 0.77908 0.0
C1518 C 0.16439 0.50076 0.77701 0.0
C1519 C 0.17188 0.49131 0.76684 0.0
C1520 C 0.15665 0.47637 0.75715 0.0
C1521 C 0.16495 0.51019 0.71409 0.0
C1522 C 0.13942 0.45991 0.71286 0.0
C1523 C 0.14550 0.49498 0.72445 0.0
N1524 N 0.13313 0.47027 0.72397 0.0
C1525 C 0.15832 0.47346 0.70269 0.0
C1526 C 0.17022 0.49908 0.70388 0.0
C1527 C 0.07043 0.39999 0.71872 0.0
C1528 C 0.98422 0.37452 0.75438 0.0
C1529 C 0.00548 0.35547 0.73379 0.0
C1530 C 0.98106 0.35300 0.73130 0.0
C1531 C 0.97041 0.36252 0.74160 0.0
N1532 N 0.01929 0.36750 0.74656 0.0
C1533 C 0.00865 0.37698 0.75685 0.0
Co1534 Co 0.60572 0.68464 0.73990 0.0
Co1535 Co 0.67424 0.71022 0.74923 0.0
O1536 O 0.63366 0.68318 0.75438 0.0
C1537 C 0.58757 0.62884 0.74739 0.0
O1538 O 0.61053 0.63388 0.75114 0.0
C1539 C 0.66953 0.70101 0.78197 0.0
O1540 O 0.64541 0.69212 0.78201 0.0
O1541 O 0.66650 0.74045 0.75155 0.0
O1542 O 0.62861 0.72514 0.73907 0.0
H1543 H 0.75473 0.77723 0.72115 0.0
H1544 H 0.57630 0.65581 0.76819 0.0
O1545 O 0.58205 0.64386 0.74114 0.0
H1546 H 0.55335 0.71820 0.76655 0.0
H1547 H 0.52066 0.67004 0.71477 0.0
H1548 H 0.60727 0.71280 0.71195 0.0
H1549 H 0.57763 0.71672 0.74946 0.0
H1550 H 0.54567 0.66280 0.73187 0.0
O1551 O 0.68347 0.70892 0.77093 0.0
H1552 H 0.71040 0.74820 0.72559 0.0
H1553 H 0.72812 0.72926 0.76406 0.0
H1554 H 0.58389 0.72191 0.69538 0.0
H1555 H 0.54948 0.65878 0.78711 0.0
H1556 H 0.53968 0.69807 0.69698 0.0
H1557 H 0.53594 0.68833 0.78334 0.0
O1558 O 0.62598 0.68146 0.72178 0.0
H1559 H 0.66813 0.62074 0.76126 0.0
H1560 H 0.69991 0.68798 0.72691 0.0
H1561 H 0.70403 0.65137 0.72276 0.0
H1562 H 0.68815 0.61773 0.73994 0.0
H1563 H 0.66398 0.65734 0.76539 0.0
H1564 H 0.77238 0.75972 0.76046 0.0
H1565 H 0.78569 0.77550 0.73698 0.0
O1566 O 0.66794 0.70619 0.72710 0.0
C1567 C 0.64890 0.74313 0.74506 0.0
C1568 C 0.74939 0.76666 0.72949 0.0
C1569 C 0.76025 0.75603 0.75297 0.0
N1570 N 0.71538 0.73539 0.74538 0.0
C1571 C 0.72300 0.74985 0.73234 0.0
C1572 C 0.73344 0.73871 0.75533 0.0
C1573 C 0.76806 0.76731 0.73957 0.0
C1574 C 0.57228 0.66919 0.76794 0.0
N1575 N 0.58237 0.68711 0.75734 0.0
C1576 C 0.55519 0.67004 0.77907 0.0
C1577 C 0.54825 0.68813 0.77701 0.0
C1578 C 0.55771 0.70507 0.76684 0.0
C1579 C 0.57265 0.70478 0.75715 0.0
C1580 C 0.53884 0.67927 0.71409 0.0
C1581 C 0.58912 0.70402 0.71286 0.0
C1582 C 0.55405 0.67503 0.72445 0.0
N1583 N 0.57876 0.68737 0.72397 0.0
C1584 C 0.57557 0.70936 0.70269 0.0
C1585 C 0.54995 0.69565 0.70388 0.0
C1586 C 0.64903 0.69496 0.71872 0.0
C1587 C 0.67449 0.63420 0.75438 0.0
C1588 C 0.69355 0.67452 0.73379 0.0
C1589 C 0.69602 0.65257 0.73131 0.0
C1590 C 0.68650 0.63239 0.74160 0.0
N1591 N 0.68151 0.67629 0.74657 0.0
C1592 C 0.67203 0.65617 0.75685 0.0
Co1593 Co 0.61228 0.69775 0.59343 0.0
Co1594 Co 0.65522 0.67217 0.58410 0.0
O1595 O 0.64169 0.69922 0.57895 0.0
C1596 C 0.64994 0.75355 0.58594 0.0
O1597 O 0.66786 0.74851 0.58219 0.0
C1598 C 0.65972 0.68138 0.55135 0.0
O1599 O 0.64449 0.69027 0.55132 0.0
O1600 O 0.61725 0.64195 0.58178 0.0
O1601 O 0.59467 0.65725 0.59425 0.0
H1602 H 0.66869 0.60517 0.61218 0.0
H1603 H 0.61169 0.72658 0.56514 0.0
O1604 O 0.62939 0.73853 0.59218 0.0
H1605 H 0.52635 0.66418 0.56678 0.0
H1606 H 0.54182 0.71235 0.61856 0.0
H1607 H 0.58567 0.66959 0.62138 0.0
H1608 H 0.55210 0.66566 0.58387 0.0
H1609 H 0.57406 0.71958 0.60146 0.0
O1610 O 0.66575 0.67347 0.56240 0.0
H1611 H 0.65340 0.63420 0.60774 0.0
H1612 H 0.69006 0.65313 0.56927 0.0
H1613 H 0.55317 0.66048 0.63795 0.0
H1614 H 0.58189 0.72360 0.54622 0.0
H1615 H 0.53280 0.68432 0.63634 0.0
H1616 H 0.53880 0.69405 0.54999 0.0
O1617 O 0.63572 0.70094 0.61155 0.0
H1618 H 0.73860 0.76166 0.57207 0.0
H1619 H 0.70312 0.69442 0.60642 0.0
H1620 H 0.74387 0.73103 0.61057 0.0
H1621 H 0.76163 0.76468 0.59339 0.0
H1622 H 0.69784 0.72505 0.56794 0.0
H1623 H 0.70386 0.62268 0.57287 0.0
H1624 H 0.70139 0.60690 0.59635 0.0
O1625 O 0.65295 0.67620 0.60623 0.0
C1626 C 0.59697 0.63926 0.58827 0.0
C1627 C 0.67393 0.61574 0.60384 0.0
C1628 C 0.69542 0.62637 0.58036 0.0
N1629 N 0.67119 0.64701 0.58795 0.0
C1630 C 0.66435 0.63255 0.60099 0.0
C1631 C 0.68593 0.64369 0.57800 0.0
C1632 C 0.69195 0.61509 0.59376 0.0
C1633 C 0.59429 0.71320 0.56539 0.0
N1634 N 0.58646 0.69528 0.57598 0.0
C1635 C 0.57635 0.71234 0.55425 0.0
C1636 C 0.55132 0.69425 0.55632 0.0
C1637 C 0.54383 0.67731 0.56649 0.0
C1638 C 0.55906 0.67760 0.57618 0.0
C1639 C 0.55077 0.70312 0.61924 0.0
C1640 C 0.57630 0.67837 0.62047 0.0
C1641 C 0.57022 0.70736 0.60888 0.0
N1642 N 0.58258 0.69502 0.60936 0.0
C1643 C 0.55740 0.67303 0.63063 0.0
C1644 C 0.54549 0.68674 0.62945 0.0
C1645 C 0.64528 0.68744 0.61461 0.0
C1646 C 0.73150 0.74819 0.57895 0.0
C1647 C 0.71023 0.70788 0.59954 0.0
C1648 C 0.73465 0.72983 0.60202 0.0
C1649 C 0.74530 0.75000 0.59172 0.0
N1650 N 0.69642 0.70611 0.58676 0.0
C1651 C 0.70706 0.72622 0.57648 0.0
Co1652 Co 0.35132 0.93907 0.59343 0.0
Co1653 Co 0.37690 0.00759 0.58411 0.0
O1654 O 0.34986 0.96701 0.57896 0.0
C1655 C 0.29552 0.92092 0.58595 0.0
O1656 O 0.30056 0.94388 0.58220 0.0
C1657 C 0.36770 0.00289 0.55136 0.0
O1658 O 0.35881 0.97877 0.55133 0.0
O1659 O 0.40713 0.99990 0.58179 0.0
O1660 O 0.39182 0.96196 0.59426 0.0
H1661 H 0.44391 0.08807 0.61220 0.0
H1662 H 0.32249 0.90966 0.56514 0.0
O1663 O 0.31054 0.91540 0.59219 0.0
H1664 H 0.38489 0.88671 0.56679 0.0
H1665 H 0.33672 0.85401 0.61856 0.0
H1666 H 0.37948 0.94062 0.62139 0.0
H1667 H 0.38341 0.91098 0.58388 0.0
H1668 H 0.32949 0.87902 0.60147 0.0
O1669 O 0.37561 0.01682 0.56241 0.0
H1670 H 0.41488 0.04375 0.60775 0.0
H1671 H 0.39594 0.06148 0.56928 0.0
H1672 H 0.38859 0.91724 0.63795 0.0
H1673 H 0.32547 0.88283 0.54622 0.0
H1674 H 0.36475 0.87302 0.63635 0.0
H1675 H 0.35502 0.86930 0.55000 0.0
O1676 O 0.34814 0.95933 0.61156 0.0
H1677 H 0.28742 0.00148 0.57208 0.0
H1678 H 0.35466 0.03325 0.60643 0.0
H1679 H 0.31804 0.03738 0.61058 0.0
H1680 H 0.28440 0.02150 0.59340 0.0
H1681 H 0.32403 0.99734 0.56795 0.0
H1682 H 0.42640 0.10573 0.57289 0.0
H1683 H 0.44218 0.11904 0.59637 0.0
O1684 O 0.37287 0.00129 0.60624 0.0
C1685 C 0.40981 0.98225 0.58828 0.0
C1686 C 0.43334 0.08274 0.60386 0.0
C1687 C 0.42271 0.09361 0.58037 0.0
N1688 N 0.40207 0.04873 0.58796 0.0
C1689 C 0.41653 0.05635 0.60101 0.0
C1690 C 0.40539 0.06680 0.57801 0.0
C1691 C 0.43399 0.10141 0.59377 0.0
C1692 C 0.33588 0.90564 0.56539 0.0
N1693 N 0.35379 0.91573 0.57599 0.0
C1694 C 0.33673 0.88855 0.55426 0.0
C1695 C 0.35482 0.88161 0.55633 0.0
C1696 C 0.37176 0.89106 0.56650 0.0
C1697 C 0.37147 0.90600 0.57619 0.0
C1698 C 0.34595 0.87219 0.61925 0.0
C1699 C 0.37070 0.92247 0.62048 0.0
C1700 C 0.34171 0.88740 0.60889 0.0
N1701 N 0.35405 0.91210 0.60936 0.0
C1702 C 0.37604 0.90891 0.63064 0.0
C1703 C 0.36233 0.88330 0.62946 0.0
C1704 C 0.36163 0.98238 0.61462 0.0
C1705 C 0.30088 0.00784 0.57896 0.0
C1706 C 0.34120 0.02689 0.59955 0.0
C1707 C 0.31925 0.02936 0.60203 0.0
C1708 C 0.29907 0.01984 0.59174 0.0
N1709 N 0.34297 0.01486 0.58677 0.0
C1710 C 0.32286 0.00538 0.57649 0.0
Co1711 Co 0.11000 0.43678 0.59342 0.0
Co1712 Co 0.04148 0.39384 0.58410 0.0
O1713 O 0.08206 0.40737 0.57894 0.0
C1714 C 0.12815 0.39913 0.58594 0.0
O1715 O 0.10519 0.38121 0.58219 0.0
C1716 C 0.04619 0.38934 0.55135 0.0
O1717 O 0.07031 0.40457 0.55132 0.0
O1718 O 0.04923 0.43181 0.58177 0.0
O1719 O 0.08711 0.45439 0.59425 0.0
H1720 H 0.96100 0.38036 0.61218 0.0
H1721 H 0.13942 0.43737 0.56513 0.0
O1722 O 0.13368 0.41967 0.59218 0.0
H1723 H 0.16237 0.52272 0.56678 0.0
H1724 H 0.19506 0.50724 0.61856 0.0
H1725 H 0.10845 0.46339 0.62138 0.0
H1726 H 0.13810 0.49696 0.58387 0.0
H1727 H 0.17006 0.47500 0.60146 0.0
O1728 O 0.03225 0.38331 0.56240 0.0
H1729 H 0.00532 0.39565 0.60773 0.0
H1730 H 0.98760 0.35900 0.56926 0.0
H1731 H 0.13183 0.49588 0.63795 0.0
H1732 H 0.16625 0.46718 0.54622 0.0
H1733 H 0.17605 0.51626 0.63635 0.0
H1734 H 0.17979 0.51027 0.54999 0.0
O1735 O 0.08974 0.41333 0.61155 0.0
H1736 H 0.04758 0.31046 0.57206 0.0
H1737 H 0.01581 0.34593 0.60641 0.0
H1738 H 0.01168 0.30518 0.61056 0.0
H1739 H 0.02756 0.28743 0.59338 0.0
H1740 H 0.05174 0.35122 0.56793 0.0
H1741 H 0.94335 0.34520 0.57287 0.0
H1742 H 0.93004 0.34766 0.59635 0.0
O1743 O 0.04778 0.39611 0.60622 0.0
C1744 C 0.06682 0.45209 0.58827 0.0
C1745 C 0.96633 0.37512 0.60384 0.0
C1746 C 0.95547 0.35363 0.58035 0.0
N1747 N 0.00010 0.37787 0.58794 0.0
C1748 C 0.99272 0.38470 0.60099 0.0
C1749 C 0.98228 0.36312 0.57799 0.0
C1750 C 0.94766 0.35710 0.59375 0.0
C1751 C 0.14344 0.45477 0.56538 0.0
N1752 N 0.13335 0.46260 0.57598 0.0
C1753 C 0.16054 0.47272 0.55425 0.0
C1754 C 0.16747 0.49775 0.55632 0.0
C1755 C 0.15802 0.50523 0.56649 0.0
C1756 C 0.14308 0.49000 0.57618 0.0
C1757 C 0.17688 0.49829 0.61924 0.0
C1758 C 0.12660 0.47276 0.62047 0.0
C1759 C 0.16167 0.47884 0.60888 0.0
N1760 N 0.13697 0.46647 0.60935 0.0
C1761 C 0.14016 0.49166 0.63063 0.0
C1762 C 0.16577 0.50356 0.62945 0.0
C1763 C 0.06669 0.40378 0.61460 0.0
C1764 C 0.04122 0.31757 0.57894 0.0
C1765 C 0.02217 0.33883 0.59953 0.0
C1766 C 0.01970 0.31441 0.60201 0.0
C1767 C 0.02922 0.30375 0.59172 0.0
N1768 N 0.03421 0.35264 0.58675 0.0
C1769 C 0.04369 0.34200 0.57647 0.0
Co1770 Co 0.35132 0.43679 0.59343 0.0
Co1771 Co 0.37690 0.39385 0.58410 0.0
O1772 O 0.34985 0.40738 0.57895 0.0
C1773 C 0.29551 0.39913 0.58594 0.0
O1774 O 0.30056 0.38121 0.58219 0.0
C1775 C 0.36769 0.38935 0.55135 0.0
O1776 O 0.35880 0.40458 0.55132 0.0
O1777 O 0.40712 0.43182 0.58178 0.0
O1778 O 0.39182 0.45440 0.59426 0.0
H1779 H 0.44390 0.38037 0.61218 0.0
H1780 H 0.32249 0.43737 0.56514 0.0
O1781 O 0.31054 0.41968 0.59218 0.0
H1782 H 0.38489 0.52272 0.56679 0.0
H1783 H 0.33672 0.50724 0.61856 0.0
H1784 H 0.37947 0.46339 0.62138 0.0
H1785 H 0.38341 0.49697 0.58387 0.0
H1786 H 0.32949 0.47501 0.60146 0.0
O1787 O 0.37560 0.38332 0.56240 0.0
H1788 H 0.41487 0.39566 0.60774 0.0
H1789 H 0.39594 0.35900 0.56927 0.0
H1790 H 0.38859 0.49589 0.63795 0.0
H1791 H 0.32547 0.46718 0.54622 0.0
H1792 H 0.36475 0.51626 0.63635 0.0
H1793 H 0.35502 0.51027 0.54999 0.0
O1794 O 0.34813 0.41334 0.61155 0.0
H1795 H 0.28741 0.31047 0.57207 0.0
H1796 H 0.35465 0.34594 0.60641 0.0
H1797 H 0.31803 0.30519 0.61056 0.0
H1798 H 0.28439 0.28743 0.59339 0.0
H1799 H 0.32402 0.35123 0.56793 0.0
H1800 H 0.42639 0.34521 0.57287 0.0
H1801 H 0.44217 0.34768 0.59635 0.0
O1802 O 0.37286 0.39612 0.60623 0.0
C1803 C 0.40981 0.45210 0.58827 0.0
C1804 C 0.43333 0.37513 0.60384 0.0
C1805 C 0.42270 0.35364 0.58036 0.0
N1806 N 0.40206 0.37788 0.58795 0.0
C1807 C 0.41652 0.38471 0.60100 0.0
C1808 C 0.40538 0.36313 0.57800 0.0
C1809 C 0.43398 0.35711 0.59376 0.0
C1810 C 0.33587 0.45477 0.56539 0.0
N1811 N 0.35379 0.46261 0.57599 0.0
C1812 C 0.33673 0.47272 0.55426 0.0
C1813 C 0.35482 0.49775 0.55632 0.0
C1814 C 0.37176 0.50523 0.56649 0.0
C1815 C 0.37147 0.49001 0.57618 0.0
C1816 C 0.34595 0.49829 0.61924 0.0
C1817 C 0.37069 0.47277 0.62047 0.0
C1818 C 0.34171 0.47885 0.60888 0.0
N1819 N 0.35405 0.46648 0.60936 0.0
C1820 C 0.37604 0.49166 0.63064 0.0
C1821 C 0.36233 0.50357 0.62945 0.0
C1822 C 0.36163 0.40379 0.61461 0.0
C1823 C 0.30087 0.31757 0.57895 0.0
C1824 C 0.34119 0.33884 0.59953 0.0
C1825 C 0.31924 0.31442 0.60202 0.0
C1826 C 0.29906 0.30376 0.59172 0.0
N1827 N 0.34296 0.35264 0.58676 0.0
C1828 C 0.32285 0.34200 0.57648 0.0
Co1829 Co 0.61228 0.93907 0.59343 0.0
Co1830 Co 0.65522 0.00760 0.58411 0.0
O1831 O 0.64169 0.96702 0.57895 0.0
C1832 C 0.64994 0.92093 0.58594 0.0
O1833 O 0.66786 0.94389 0.58219 0.0
C1834 C 0.65972 0.00289 0.55136 0.0
O1835 O 0.64449 0.97877 0.55133 0.0
O1836 O 0.61725 0.99990 0.58178 0.0
O1837 O 0.59467 0.96196 0.59426 0.0
H1838 H 0.66870 0.08807 0.61219 0.0
H1839 H 0.61169 0.90966 0.56514 0.0
O1840 O 0.62939 0.91540 0.59219 0.0
H1841 H 0.52635 0.88671 0.56679 0.0
H1842 H 0.54182 0.85401 0.61856 0.0
H1843 H 0.58567 0.94062 0.62138 0.0
H1844 H 0.55210 0.91098 0.58387 0.0
H1845 H 0.57406 0.87902 0.60147 0.0
O1846 O 0.66575 0.01683 0.56241 0.0
H1847 H 0.65341 0.04375 0.60774 0.0
H1848 H 0.69007 0.06148 0.56927 0.0
H1849 H 0.55318 0.91724 0.63795 0.0
H1850 H 0.58189 0.88283 0.54622 0.0
H1851 H 0.53280 0.87302 0.63635 0.0
H1852 H 0.53880 0.86929 0.54999 0.0
O1853 O 0.63573 0.95933 0.61156 0.0
H1854 H 0.73860 0.00149 0.57207 0.0
H1855 H 0.70313 0.03326 0.60642 0.0
H1856 H 0.74387 0.03739 0.61057 0.0
H1857 H 0.76164 0.02151 0.59339 0.0
H1858 H 0.69784 0.99734 0.56794 0.0
H1859 H 0.70387 0.10573 0.57288 0.0
H1860 H 0.70140 0.11904 0.59636 0.0
O1861 O 0.65295 0.00129 0.60623 0.0
C1862 C 0.59697 0.98225 0.58827 0.0
C1863 C 0.67394 0.08274 0.60385 0.0
C1864 C 0.69543 0.09361 0.58036 0.0
N1865 N 0.67120 0.04873 0.58795 0.0
C1866 C 0.66436 0.05635 0.60100 0.0
C1867 C 0.68594 0.06680 0.57801 0.0
C1868 C 0.69196 0.10142 0.59376 0.0
C1869 C 0.59429 0.90564 0.56539 0.0
N1870 N 0.58646 0.91572 0.57599 0.0
C1871 C 0.57635 0.88854 0.55426 0.0
C1872 C 0.55132 0.88161 0.55632 0.0
C1873 C 0.54383 0.89106 0.56650 0.0
C1874 C 0.55906 0.90600 0.57618 0.0
C1875 C 0.55077 0.87219 0.61925 0.0
C1876 C 0.57630 0.92247 0.62047 0.0
C1877 C 0.57022 0.88740 0.60888 0.0
N1878 N 0.58259 0.91210 0.60936 0.0
C1879 C 0.55740 0.90891 0.63064 0.0
C1880 C 0.54550 0.88330 0.62946 0.0
C1881 C 0.64528 0.98238 0.61461 0.0
C1882 C 0.73150 0.00785 0.57895 0.0
C1883 C 0.71023 0.02690 0.59954 0.0
C1884 C 0.73465 0.02937 0.60203 0.0
C1885 C 0.74531 0.01985 0.59173 0.0
N1886 N 0.69643 0.01487 0.58677 0.0
C1887 C 0.70706 0.00539 0.57648 0.0
Co1888 Co 0.11000 0.69774 0.59343 0.0
Co1889 Co 0.04148 0.67215 0.58410 0.0
O1890 O 0.08206 0.69920 0.57895 0.0
C1891 C 0.12815 0.75354 0.58594 0.0
O1892 O 0.10519 0.74850 0.58219 0.0
C1893 C 0.04619 0.68137 0.55136 0.0
O1894 O 0.07031 0.69026 0.55132 0.0
O1895 O 0.04923 0.64193 0.58178 0.0
O1896 O 0.08711 0.65724 0.59425 0.0
H1897 H 0.96100 0.60514 0.61218 0.0
H1898 H 0.13942 0.72657 0.56514 0.0
O1899 O 0.13368 0.73852 0.59219 0.0
H1900 H 0.16237 0.66418 0.56678 0.0
H1901 H 0.19506 0.71234 0.61856 0.0
H1902 H 0.10845 0.66958 0.62138 0.0
H1903 H 0.13810 0.66565 0.58387 0.0
H1904 H 0.17006 0.71957 0.60146 0.0
O1905 O 0.03225 0.67345 0.56240 0.0
H1906 H 0.00532 0.63417 0.60774 0.0
H1907 H 0.98760 0.65311 0.56927 0.0
H1908 H 0.13183 0.66047 0.63795 0.0
H1909 H 0.16625 0.72360 0.54622 0.0
H1910 H 0.17605 0.68431 0.63634 0.0
H1911 H 0.17979 0.69405 0.54999 0.0
O1912 O 0.08974 0.70092 0.61155 0.0
H1913 H 0.04758 0.76164 0.57207 0.0
H1914 H 0.01581 0.69439 0.60642 0.0
H1915 H 0.01169 0.73101 0.61057 0.0
H1916 H 0.02757 0.76465 0.59339 0.0
H1917 H 0.05174 0.72503 0.56794 0.0
H1918 H 0.94335 0.62266 0.57287 0.0
H1919 H 0.93003 0.60687 0.59635 0.0
O1920 O 0.04778 0.67618 0.60623 0.0
C1921 C 0.06682 0.63925 0.58827 0.0
C1922 C 0.96633 0.61571 0.60384 0.0
C1923 C 0.95547 0.62634 0.58036 0.0
N1924 N 0.00010 0.64699 0.58795 0.0
C1925 C 0.99272 0.63253 0.60099 0.0
C1926 C 0.98228 0.64366 0.57800 0.0
C1927 C 0.94766 0.61506 0.59376 0.0
C1928 C 0.14344 0.71319 0.56539 0.0
N1929 N 0.13335 0.69527 0.57599 0.0
C1930 C 0.16053 0.71234 0.55426 0.0
C1931 C 0.16747 0.69425 0.55632 0.0
C1932 C 0.15802 0.67731 0.56649 0.0
C1933 C 0.14308 0.67760 0.57618 0.0
C1934 C 0.17688 0.70311 0.61924 0.0
C1935 C 0.12660 0.67836 0.62047 0.0
C1936 C 0.16167 0.70735 0.60888 0.0
N1937 N 0.13697 0.69501 0.60936 0.0
C1938 C 0.14016 0.67302 0.63063 0.0
C1939 C 0.16577 0.68673 0.62945 0.0
C1940 C 0.06669 0.68742 0.61461 0.0
C1941 C 0.04123 0.74817 0.57895 0.0
C1942 C 0.02217 0.70786 0.59954 0.0
C1943 C 0.01970 0.72980 0.60202 0.0
C1944 C 0.02922 0.74998 0.59173 0.0
N1945 N 0.03421 0.70608 0.58676 0.0
C1946 C 0.04369 0.72620 0.57648 0.0
Co1947 Co 0.10344 0.68462 0.73991 0.0
Co1948 Co 0.06049 0.71020 0.74923 0.0
O1949 O 0.07403 0.68315 0.75438 0.0
C1950 C 0.06578 0.62882 0.74739 0.0
O1951 O 0.04786 0.63386 0.75114 0.0
C1952 C 0.05599 0.70099 0.78198 0.0
O1953 O 0.07122 0.69210 0.78201 0.0
O1954 O 0.09847 0.74042 0.75156 0.0
O1955 O 0.12105 0.72512 0.73908 0.0
H1956 H 0.04703 0.77720 0.72115 0.0
H1957 H 0.10402 0.65579 0.76820 0.0
O1958 O 0.08633 0.64384 0.74115 0.0
H1959 H 0.18937 0.71819 0.76655 0.0
H1960 H 0.17390 0.67002 0.71477 0.0
H1961 H 0.13005 0.71278 0.71195 0.0
H1962 H 0.16362 0.71671 0.74946 0.0
H1963 H 0.14166 0.66279 0.73187 0.0
O1964 O 0.04996 0.70890 0.77093 0.0
H1965 H 0.06232 0.74818 0.72559 0.0
H1966 H 0.02565 0.72924 0.76406 0.0
H1967 H 0.16254 0.72189 0.69539 0.0
H1968 H 0.13382 0.65877 0.78712 0.0
H1969 H 0.18292 0.69805 0.69699 0.0
H1970 H 0.17691 0.68832 0.78334 0.0
O1971 O 0.07999 0.68143 0.72178 0.0
H1972 H 0.97711 0.62071 0.76126 0.0
H1973 H 0.01259 0.68795 0.72692 0.0
H1974 H 0.97184 0.65134 0.72276 0.0
H1975 H 0.95408 0.61769 0.73994 0.0
H1976 H 0.01787 0.65732 0.76539 0.0
H1977 H 0.01185 0.75969 0.76046 0.0
H1978 H 0.01433 0.77547 0.73698 0.0
O1979 O 0.06277 0.70617 0.72710 0.0
C1980 C 0.11874 0.74311 0.74506 0.0
C1981 C 0.04179 0.76663 0.72949 0.0
C1982 C 0.02029 0.75600 0.75297 0.0
N1983 N 0.04452 0.73536 0.74539 0.0
C1984 C 0.05136 0.74982 0.73234 0.0
C1985 C 0.02978 0.73868 0.75533 0.0
C1986 C 0.02376 0.76728 0.73957 0.0
C1987 C 0.12142 0.66917 0.76795 0.0
N1988 N 0.12925 0.68709 0.75735 0.0
C1989 C 0.13937 0.67002 0.77908 0.0
C1990 C 0.16439 0.68812 0.77701 0.0
C1991 C 0.17188 0.70506 0.76684 0.0
C1992 C 0.15665 0.70477 0.75715 0.0
C1993 C 0.16495 0.67925 0.71409 0.0
C1994 C 0.13942 0.70400 0.71286 0.0
C1995 C 0.14550 0.67501 0.72445 0.0
N1996 N 0.13313 0.68735 0.72398 0.0
C1997 C 0.15832 0.70935 0.70270 0.0
C1998 C 0.17022 0.69563 0.70388 0.0
C1999 C 0.07044 0.69493 0.71872 0.0
C2000 C 0.98422 0.63417 0.75438 0.0
C2001 C 0.00549 0.67449 0.73379 0.0
C2002 C 0.98107 0.65254 0.73131 0.0
C2003 C 0.97041 0.63237 0.74161 0.0
N2004 N 0.01929 0.67626 0.74657 0.0
C2005 C 0.00865 0.65615 0.75685 0.0
Co2006 Co 0.36440 0.44331 0.73990 0.0
Co2007 Co 0.33881 0.37478 0.74922 0.0
O2008 O 0.36586 0.41536 0.75438 0.0
C2009 C 0.42020 0.46146 0.74739 0.0
O2010 O 0.41515 0.43849 0.75114 0.0
C2011 C 0.34802 0.37949 0.78197 0.0
O2012 O 0.35691 0.40361 0.78201 0.0
O2013 O 0.30859 0.38253 0.75155 0.0
O2014 O 0.32389 0.42042 0.73907 0.0
H2015 H 0.27181 0.29430 0.72114 0.0
H2016 H 0.39322 0.47272 0.76819 0.0
O2017 O 0.40518 0.46698 0.74115 0.0
H2018 H 0.33082 0.49567 0.76655 0.0
H2019 H 0.37900 0.52837 0.71477 0.0
H2020 H 0.33624 0.44176 0.71195 0.0
H2021 H 0.33231 0.47140 0.74946 0.0
H2022 H 0.38623 0.50336 0.73187 0.0
O2023 O 0.34011 0.36556 0.77092 0.0
H2024 H 0.30084 0.33863 0.72559 0.0
H2025 H 0.31977 0.32090 0.76406 0.0
H2026 H 0.32713 0.46514 0.69538 0.0
H2027 H 0.39024 0.49955 0.78711 0.0
H2028 H 0.35097 0.50936 0.69699 0.0
H2029 H 0.36069 0.51308 0.78334 0.0
O2030 O 0.36758 0.42305 0.72178 0.0
H2031 H 0.42830 0.38089 0.76126 0.0
H2032 H 0.36106 0.34913 0.72691 0.0
H2033 H 0.39767 0.34500 0.72276 0.0
H2034 H 0.43131 0.36088 0.73994 0.0
H2035 H 0.39169 0.38504 0.76539 0.0
H2036 H 0.28932 0.27665 0.76045 0.0
H2037 H 0.27354 0.26334 0.73697 0.0
O2038 O 0.34285 0.38109 0.72710 0.0
C2039 C 0.30591 0.40013 0.74506 0.0
C2040 C 0.28238 0.29964 0.72948 0.0
C2041 C 0.29300 0.28877 0.75297 0.0
N2042 N 0.31365 0.33365 0.74538 0.0
C2043 C 0.29919 0.32603 0.73233 0.0
C2044 C 0.31032 0.31558 0.75532 0.0
C2045 C 0.28173 0.28096 0.73957 0.0
C2046 C 0.37984 0.47674 0.76794 0.0
N2047 N 0.36192 0.46665 0.75734 0.0
C2048 C 0.37899 0.49383 0.77907 0.0
C2049 C 0.36090 0.50077 0.77701 0.0
C2050 C 0.34396 0.49132 0.76684 0.0
C2051 C 0.34425 0.47638 0.75715 0.0
C2052 C 0.36977 0.51019 0.71409 0.0
C2053 C 0.34502 0.45991 0.71286 0.0
C2054 C 0.37401 0.49498 0.72445 0.0
N2055 N 0.36167 0.47027 0.72397 0.0
C2056 C 0.33967 0.47346 0.70269 0.0
C2057 C 0.35339 0.49908 0.70388 0.0
C2058 C 0.35408 0.40000 0.71872 0.0
C2059 C 0.41483 0.37453 0.75438 0.0
C2060 C 0.37452 0.35548 0.73379 0.0
C2061 C 0.39647 0.35302 0.73130 0.0
C2062 C 0.41664 0.36254 0.74160 0.0
N2063 N 0.37274 0.36752 0.74657 0.0
C2064 C 0.39286 0.37699 0.75685 0.0
Co2065 Co 0.60571 0.94559 0.73991 0.0
Co2066 Co 0.67424 0.98854 0.74923 0.0
O2067 O 0.63366 0.97500 0.75439 0.0
C2068 C 0.58757 0.98325 0.74740 0.0
O2069 O 0.61053 0.00117 0.75115 0.0
C2070 C 0.66952 0.99303 0.78198 0.0
O2071 O 0.64541 0.97780 0.78201 0.0
O2072 O 0.66649 0.95057 0.75156 0.0
O2073 O 0.62861 0.92799 0.73908 0.0
H2074 H 0.75472 0.00202 0.72115 0.0
H2075 H 0.57630 0.94500 0.76820 0.0
O2076 O 0.58204 0.96270 0.74115 0.0
H2077 H 0.55335 0.85966 0.76655 0.0
H2078 H 0.52066 0.87513 0.71477 0.0
H2079 H 0.60727 0.91899 0.71196 0.0
H2080 H 0.57762 0.88541 0.74946 0.0
H2081 H 0.54566 0.90737 0.73187 0.0
O2082 O 0.68346 0.99990 0.77093 0.0
H2083 H 0.71040 0.98672 0.72560 0.0
H2084 H 0.72812 0.02338 0.76407 0.0
H2085 H 0.58389 0.88650 0.69538 0.0
H2086 H 0.54947 0.91520 0.78712 0.0
H2087 H 0.53967 0.86612 0.69699 0.0
H2088 H 0.53593 0.87211 0.78334 0.0
O2089 O 0.62598 0.96904 0.72178 0.0
H2090 H 0.66813 0.07191 0.76127 0.0
H2091 H 0.69990 0.03645 0.72692 0.0
H2092 H 0.70403 0.07719 0.72278 0.0
H2093 H 0.68815 0.09495 0.73995 0.0
H2094 H 0.66398 0.03115 0.76540 0.0
H2095 H 0.77237 0.03718 0.76047 0.0
H2096 H 0.78568 0.03471 0.73698 0.0
O2097 O 0.66794 0.98627 0.72711 0.0
C2098 C 0.64889 0.93029 0.74507 0.0
C2099 C 0.74939 0.00725 0.72949 0.0
C2100 C 0.76025 0.02874 0.75298 0.0
N2101 N 0.71537 0.00451 0.74539 0.0
C2102 C 0.72300 0.99768 0.73234 0.0
C2103 C 0.73344 0.01925 0.75534 0.0
C2104 C 0.76806 0.02528 0.73958 0.0
C2105 C 0.57228 0.92760 0.76795 0.0
N2106 N 0.58237 0.91977 0.75735 0.0
C2107 C 0.55518 0.90965 0.77908 0.0
C2108 C 0.54825 0.88462 0.77701 0.0
C2109 C 0.55770 0.87714 0.76684 0.0
C2110 C 0.57264 0.89237 0.75715 0.0
C2111 C 0.53884 0.88409 0.71409 0.0
C2112 C 0.58912 0.90962 0.71286 0.0
C2113 C 0.55404 0.90353 0.72445 0.0
N2114 N 0.57875 0.91590 0.72398 0.0
C2115 C 0.57556 0.89072 0.70270 0.0
C2116 C 0.54995 0.87881 0.70388 0.0
C2117 C 0.64903 0.97860 0.71873 0.0
C2118 C 0.67449 0.06481 0.75439 0.0
C2119 C 0.69354 0.04355 0.73380 0.0
C2120 C 0.69601 0.06797 0.73132 0.0
C2121 C 0.68649 0.07862 0.74162 0.0
N2122 N 0.68151 0.02974 0.74658 0.0
C2123 C 0.67203 0.04038 0.75686 0.0
H2124 H 0.13015 0.34569 0.09939 0.0
H2125 H 0.21351 0.29262 0.06636 0.0
H2126 H 0.10325 0.29238 0.06622 0.0
H2127 H 0.24041 0.34592 0.09954 0.0
H2128 H 0.17427 0.29263 0.06637 0.0
H2129 H 0.16939 0.34567 0.09938 0.0
C2130 C 0.13280 0.33513 0.09282 0.0
C2131 C 0.11355 0.31952 0.08311 0.0
C2132 C 0.18747 0.30317 0.07293 0.0
C2133 C 0.15971 0.31969 0.08321 0.0
C2134 C 0.21086 0.30318 0.07294 0.0
C2135 C 0.23011 0.31878 0.08265 0.0
C2136 C 0.18395 0.31861 0.08254 0.0
C2137 C 0.22711 0.33544 0.09301 0.0
C2138 C 0.15619 0.33514 0.09282 0.0
C2139 C 0.11655 0.30287 0.07274 0.0
N2140 N 0.20351 0.33520 0.09287 0.0
N2141 N 0.14015 0.30310 0.07289 0.0
H2142 H 0.75023 0.94231 0.06381 0.0
H2143 H 0.70946 0.81203 0.10195 0.0
H2144 H 0.70929 0.92209 0.10212 0.0
H2145 H 0.75040 0.83225 0.06364 0.0
H2146 H 0.70948 0.85129 0.10194 0.0
H2147 H 0.75021 0.90305 0.06382 0.0
C2148 C 0.74212 0.93032 0.07140 0.0
C2149 C 0.73013 0.93578 0.08261 0.0
C2150 C 0.71757 0.84740 0.09437 0.0
C2151 C 0.73026 0.88977 0.08249 0.0
C2152 C 0.71757 0.82402 0.09436 0.0
C2153 C 0.72956 0.81856 0.08314 0.0
C2154 C 0.72943 0.86457 0.08327 0.0
C2155 C 0.74235 0.83628 0.07117 0.0
C2156 C 0.74212 0.90694 0.07139 0.0
C2157 C 0.71734 0.91806 0.09458 0.0
N2158 N 0.74217 0.85968 0.07134 0.0
N2159 N 0.71752 0.89466 0.09442 0.0
H2160 H 0.13463 0.80445 0.09269 0.0
H2161 H 0.20899 0.94990 0.07306 0.0
H2162 H 0.09868 0.83990 0.07297 0.0
H2163 H 0.24493 0.91445 0.09278 0.0
H2164 H 0.16974 0.91063 0.07307 0.0
H2165 H 0.17387 0.84372 0.09269 0.0
C2166 C 0.13549 0.81946 0.08878 0.0
C2167 C 0.11359 0.81846 0.08301 0.0
C2168 C 0.18473 0.91151 0.07696 0.0
C2169 C 0.15977 0.86442 0.08307 0.0
C2170 C 0.20812 0.93489 0.07697 0.0
C2171 C 0.23003 0.93589 0.08274 0.0
C2172 C 0.18384 0.88993 0.08268 0.0
C2173 C 0.22985 0.91341 0.08890 0.0
C2174 C 0.15888 0.84284 0.08879 0.0
C2175 C 0.11376 0.84094 0.07685 0.0
N2176 N 0.20621 0.89008 0.08882 0.0
N2177 N 0.13740 0.86427 0.07694 0.0
H2178 H 0.35709 0.13585 0.91073 0.0
H2179 H 0.28121 0.20781 0.92352 0.0
H2180 H 0.28088 0.09749 0.92358 0.0
H2181 H 0.35743 0.24616 0.91067 0.0
H2182 H 0.28123 0.16857 0.92352 0.0
H2183 H 0.35707 0.17509 0.91073 0.0
C2184 C 0.34199 0.13623 0.91327 0.0
C2185 C 0.31968 0.11363 0.91704 0.0
C2186 C 0.29630 0.18403 0.92098 0.0
C2187 C 0.31992 0.15982 0.91699 0.0
C2188 C 0.29631 0.20742 0.92097 0.0
C2189 C 0.31862 0.23003 0.91721 0.0
C2190 C 0.31838 0.18384 0.91725 0.0
C2191 C 0.34244 0.23061 0.91320 0.0
C2192 C 0.34201 0.15963 0.91327 0.0
C2193 C 0.29587 0.11305 0.92105 0.0
N2194 N 0.34211 0.20696 0.91325 0.0
N2195 N 0.29620 0.13670 0.92099 0.0
H2196 H 0.93018 0.22870 0.89499 0.0
H2197 H 0.82417 0.11491 0.93926 0.0
H2198 H 0.93434 0.22505 0.93945 0.0
H2199 H 0.82001 0.11857 0.89480 0.0
H2200 H 0.86342 0.15417 0.93924 0.0
H2201 H 0.89093 0.18944 0.89501 0.0
C2202 C 0.92302 0.21999 0.90380 0.0
C2203 C 0.93562 0.23030 0.91681 0.0
C2204 C 0.85472 0.14701 0.93046 0.0
C2205 C 0.88953 0.18424 0.91667 0.0
C2206 C 0.83133 0.12362 0.93045 0.0
C2207 C 0.81873 0.11331 0.91743 0.0
C2208 C 0.86482 0.15937 0.91757 0.0
C2209 C 0.82884 0.12586 0.90354 0.0
C2210 C 0.89963 0.19660 0.90379 0.0
C2211 C 0.92551 0.21775 0.93070 0.0
N2212 N 0.85234 0.14933 0.90374 0.0
N2213 N 0.90201 0.19429 0.93051 0.0
H2214 H 0.83206 0.74952 0.89782 0.0
H2215 H 0.92228 0.71017 0.93642 0.0
H2216 H 0.81205 0.70999 0.93659 0.0
H2217 H 0.94229 0.74970 0.89765 0.0
H2218 H 0.88303 0.71018 0.93641 0.0
H2219 H 0.87130 0.74951 0.89783 0.0
C2220 C 0.83608 0.74169 0.90550 0.0
C2221 C 0.81884 0.73012 0.91685 0.0
C2222 C 0.89487 0.71799 0.92875 0.0
C2223 C 0.86498 0.73024 0.91673 0.0
C2224 C 0.91826 0.71800 0.92874 0.0
C2225 C 0.93550 0.72957 0.91739 0.0
C2226 C 0.88936 0.72945 0.91751 0.0
C2227 C 0.93035 0.74192 0.90528 0.0
C2228 C 0.85947 0.74170 0.90549 0.0
C2229 C 0.82399 0.71777 0.92897 0.0
N2230 N 0.90678 0.74175 0.90544 0.0
N2231 N 0.84756 0.71794 0.92880 0.0
H2232 H 0.78682 0.65900 0.43815 0.0
H2233 H 0.89024 0.64603 0.39427 0.0
H2234 H 0.78006 0.64597 0.39408 0.0
H2235 H 0.89700 0.65905 0.43834 0.0
H2236 H 0.85099 0.64603 0.39429 0.0
H2237 H 0.82607 0.65899 0.43814 0.0
C2238 C 0.79347 0.65642 0.42942 0.0
C2239 C 0.78011 0.65260 0.41652 0.0
C2240 C 0.86020 0.64861 0.40299 0.0
C2241 C 0.82620 0.65264 0.41666 0.0
C2242 C 0.88359 0.64861 0.40300 0.0
C2243 C 0.89695 0.65242 0.41590 0.0
C2244 C 0.85086 0.65238 0.41577 0.0
C2245 C 0.88766 0.65649 0.42967 0.0
C2246 C 0.81685 0.65642 0.42943 0.0
C2247 C 0.78940 0.64853 0.40275 0.0
N2248 N 0.86415 0.65643 0.42948 0.0
N2249 N 0.81291 0.64859 0.40294 0.0
H2250 H 0.41843 0.27643 0.39767 0.0
H2251 H 0.37468 0.14466 0.43476 0.0
H2252 H 0.37449 0.25471 0.43492 0.0
H2253 H 0.41862 0.16638 0.39751 0.0
H2254 H 0.37469 0.18392 0.43474 0.0
H2255 H 0.41841 0.23717 0.39768 0.0
C2256 C 0.40972 0.26414 0.40505 0.0
C2257 C 0.39686 0.26916 0.41595 0.0
C2258 C 0.38337 0.18033 0.42738 0.0
C2259 C 0.39700 0.22316 0.41584 0.0
C2260 C 0.38338 0.15694 0.42738 0.0
C2261 C 0.39625 0.15193 0.41647 0.0
C2262 C 0.39611 0.19793 0.41659 0.0
C2263 C 0.40998 0.17012 0.40484 0.0
C2264 C 0.40973 0.24076 0.40504 0.0
C2265 C 0.38313 0.25097 0.42759 0.0
N2266 N 0.40979 0.19350 0.40500 0.0
N2267 N 0.38332 0.22758 0.42743 0.0
H2268 H 0.90167 0.25730 0.39596 0.0
H2269 H 0.77537 0.16379 0.43645 0.0
H2270 H 0.88545 0.27401 0.43663 0.0
H2271 H 0.79159 0.14708 0.39578 0.0
H2272 H 0.81463 0.20304 0.43644 0.0
H2273 H 0.86241 0.21805 0.39597 0.0
C2274 C 0.89047 0.25263 0.40402 0.0
C2275 C 0.89710 0.26890 0.41592 0.0
C2276 C 0.80995 0.19186 0.42840 0.0
C2277 C 0.85108 0.22277 0.41580 0.0
C2278 C 0.78657 0.16847 0.42840 0.0
C2279 C 0.77994 0.15219 0.41649 0.0
C2280 C 0.82596 0.19832 0.41662 0.0
C2281 C 0.79641 0.15838 0.40378 0.0
C2282 C 0.86709 0.22924 0.40401 0.0
C2283 C 0.88063 0.26272 0.42863 0.0
N2284 N 0.81982 0.18193 0.40396 0.0
N2285 N 0.85722 0.23916 0.42845 0.0
H2286 H 0.94899 0.43181 0.24225 0.0
H2287 H 0.02265 0.57854 0.25865 0.0
H2288 H 0.02297 0.46855 0.25872 0.0
H2289 H 0.94867 0.54179 0.24218 0.0
H2290 H 0.02262 0.53927 0.25864 0.0
H2291 H 0.94902 0.47107 0.24226 0.0
C2292 C 0.96365 0.44707 0.24552 0.0
C2293 C 0.98531 0.44645 0.25034 0.0
C2294 C 0.00801 0.53989 0.25539 0.0
C2295 C 0.98507 0.49241 0.25028 0.0
C2296 C 0.00799 0.56327 0.25539 0.0
C2297 C 0.98634 0.56389 0.25057 0.0
C2298 C 0.98657 0.51794 0.25062 0.0
C2299 C 0.96322 0.54101 0.24542 0.0
C2300 C 0.96364 0.47045 0.24551 0.0
C2301 C 0.00842 0.46933 0.25548 0.0
N2302 N 0.96354 0.51769 0.24549 0.0
N2303 N 0.00810 0.49266 0.25541 0.0
H2304 H 0.61029 0.54865 0.23233 0.0
H2305 H 0.47743 0.46169 0.26859 0.0
H2306 H 0.58748 0.57194 0.26875 0.0
H2307 H 0.50023 0.43840 0.23217 0.0
H2308 H 0.51669 0.50094 0.26858 0.0
H2309 H 0.57102 0.50940 0.23234 0.0
C2310 C 0.59778 0.54528 0.23955 0.0
C2311 C 0.60249 0.56348 0.25021 0.0
C2312 C 0.51332 0.48845 0.26138 0.0
C2313 C 0.55648 0.51733 0.25009 0.0
C2314 C 0.48993 0.46506 0.26137 0.0
C2315 C 0.48523 0.44687 0.25071 0.0
C2316 C 0.53123 0.49301 0.25083 0.0
C2317 C 0.50376 0.45099 0.23933 0.0
C2318 C 0.57440 0.52189 0.23954 0.0
C2319 C 0.58396 0.55935 0.26159 0.0
N2320 N 0.52714 0.47458 0.23949 0.0
N2321 N 0.56057 0.53577 0.26143 0.0
H2322 H 0.48873 0.06287 0.22822 0.0
H2323 H 0.59896 0.06353 0.27270 0.0
H2324 H 0.48881 0.06353 0.27289 0.0
H2325 H 0.59887 0.06287 0.22802 0.0
H2326 H 0.55970 0.06353 0.27268 0.0
H2327 H 0.52798 0.06287 0.22823 0.0
C2328 C 0.49673 0.06300 0.23707 0.0
C2329 C 0.48537 0.06320 0.25015 0.0
C2330 C 0.56757 0.06340 0.26385 0.0
C2331 C 0.53145 0.06319 0.25001 0.0
C2332 C 0.59095 0.06340 0.26385 0.0
C2333 C 0.60231 0.06321 0.25077 0.0
C2334 C 0.55624 0.06321 0.25091 0.0
C2335 C 0.59088 0.06300 0.23681 0.0
C2336 C 0.52012 0.06300 0.23706 0.0
C2337 C 0.49680 0.06340 0.26411 0.0
N2338 N 0.56740 0.06300 0.23700 0.0
N2339 N 0.52029 0.06340 0.26391 0.0
H2340 H 0.43907 0.96351 0.73117 0.0
H2341 H 0.57128 0.00813 0.76793 0.0
H2342 H 0.46123 0.00833 0.76809 0.0
H2343 H 0.54912 0.96331 0.73101 0.0
H2344 H 0.53202 0.00812 0.76791 0.0
H2345 H 0.47833 0.96352 0.73118 0.0
C2346 C 0.45144 0.97239 0.73849 0.0
C2347 C 0.44655 0.98551 0.74929 0.0
C2348 C 0.53552 0.99990 0.76062 0.0
C2349 C 0.49255 0.98537 0.74918 0.0
C2350 C 0.55890 0.99990 0.76061 0.0
C2351 C 0.56379 0.98613 0.74981 0.0
C2352 C 0.51779 0.98627 0.74992 0.0
C2353 C 0.54546 0.97213 0.73827 0.0
C2354 C 0.47482 0.97238 0.73848 0.0
C2355 C 0.46488 0.99990 0.76083 0.0
N2356 N 0.52208 0.97232 0.73843 0.0
N2357 N 0.48827 0.99990 0.76067 0.0
H2358 H 0.08110 0.49784 0.76938 0.0
H2359 H 0.04531 0.58984 0.72970 0.0
H2360 H 0.04515 0.47962 0.72953 0.0
H2361 H 0.08125 0.60807 0.76956 0.0
H2362 H 0.04532 0.55059 0.72971 0.0
H2363 H 0.08109 0.53709 0.76937 0.0
C2364 C 0.07397 0.50221 0.76149 0.0
C2365 C 0.06345 0.48550 0.74982 0.0
C2366 C 0.05242 0.56208 0.73759 0.0
C2367 C 0.06356 0.53163 0.74994 0.0
C2368 C 0.05243 0.58547 0.73760 0.0
C2369 C 0.06295 0.60218 0.74927 0.0
C2370 C 0.06284 0.55605 0.74914 0.0
C2371 C 0.07418 0.59647 0.76172 0.0
C2372 C 0.07398 0.52560 0.76149 0.0
C2373 C 0.05222 0.49121 0.73737 0.0
N2374 N 0.07403 0.57291 0.76154 0.0
N2375 N 0.05238 0.51477 0.73754 0.0
H2376 H 0.43129 0.50784 0.75607 0.0
H2377 H 0.57906 0.57988 0.74301 0.0
H2378 H 0.46907 0.46956 0.74295 0.0
H2379 H 0.54127 0.61816 0.75613 0.0
H2380 H 0.53979 0.54063 0.74301 0.0
H2381 H 0.47055 0.54708 0.75607 0.0
C2382 C 0.44676 0.50824 0.75347 0.0
C2383 C 0.44644 0.48565 0.74963 0.0
C2384 C 0.54021 0.55608 0.74560 0.0
C2385 C 0.49240 0.53185 0.74967 0.0
C2386 C 0.56359 0.57948 0.74561 0.0
C2387 C 0.56390 0.60206 0.74945 0.0
C2388 C 0.51795 0.55587 0.74941 0.0
C2389 C 0.54069 0.60262 0.75355 0.0
C2390 C 0.47014 0.53163 0.75348 0.0
C2391 C 0.46965 0.48510 0.74553 0.0
N2392 N 0.51737 0.57897 0.75349 0.0
N2393 N 0.49297 0.50875 0.74559 0.0
H2394 H 0.62331 0.76898 0.56876 0.0
H2395 H 0.68172 0.90808 0.59882 0.0
H2396 H 0.68197 0.79806 0.59895 0.0
H2397 H 0.62305 0.87899 0.56863 0.0
H2398 H 0.68170 0.86882 0.59881 0.0
H2399 H 0.62333 0.80824 0.56877 0.0
C2400 C 0.63493 0.78272 0.57474 0.0
C2401 C 0.65211 0.77986 0.58358 0.0
C2402 C 0.67010 0.87095 0.59284 0.0
C2403 C 0.65192 0.82584 0.58348 0.0
C2404 C 0.67009 0.89433 0.59284 0.0
C2405 C 0.65292 0.89720 0.58400 0.0
C2406 C 0.65310 0.85122 0.58409 0.0
C2407 C 0.63459 0.87671 0.57457 0.0
C2408 C 0.63492 0.80610 0.57474 0.0
C2409 C 0.67043 0.80035 0.59301 0.0
N2410 N 0.63485 0.85335 0.57470 0.0
N2411 N 0.67018 0.82371 0.59288 0.0
H2412 H 0.14616 0.79299 0.60335 0.0
H2413 H 0.27493 0.88405 0.56424 0.0
H2414 H 0.16486 0.77381 0.56406 0.0
H2415 H 0.25623 0.90323 0.60352 0.0
H2416 H 0.23567 0.84480 0.56425 0.0
H2417 H 0.18542 0.83224 0.60334 0.0
C2418 C 0.15785 0.79718 0.59557 0.0
C2419 C 0.15195 0.78018 0.58406 0.0
C2420 C 0.23986 0.85647 0.57201 0.0
C2421 C 0.19796 0.82632 0.58419 0.0
C2422 C 0.26324 0.87986 0.57202 0.0
C2423 C 0.26914 0.89686 0.58352 0.0
C2424 C 0.22313 0.85072 0.58340 0.0
C2425 C 0.25190 0.89145 0.59580 0.0
C2426 C 0.18124 0.82057 0.59557 0.0
C2427 C 0.16919 0.78559 0.57179 0.0
N2428 N 0.22850 0.86788 0.59563 0.0
N2429 N 0.19260 0.80916 0.57196 0.0
H2430 H 0.28256 0.43068 0.57250 0.0
H2431 H 0.13853 0.36242 0.59508 0.0
H2432 H 0.24852 0.36212 0.59518 0.0
H2433 H 0.17256 0.43098 0.57239 0.0
H2434 H 0.17779 0.36244 0.59507 0.0
H2435 H 0.24330 0.43066 0.57250 0.0
C2436 C 0.26783 0.41710 0.57699 0.0
C2437 C 0.26925 0.39703 0.58363 0.0
C2438 C 0.17663 0.37599 0.59059 0.0
C2439 C 0.22328 0.39725 0.58356 0.0
C2440 C 0.15325 0.37601 0.59058 0.0
C2441 C 0.15184 0.39608 0.58394 0.0
C2442 C 0.19780 0.39586 0.58401 0.0
C2443 C 0.17388 0.41750 0.57686 0.0
C2444 C 0.24445 0.41711 0.57698 0.0
C2445 C 0.24721 0.37561 0.59072 0.0
N2446 N 0.19721 0.41720 0.57695 0.0
N2447 N 0.22387 0.37591 0.59062 0.0
H2448 H 0.98430 0.34291 0.12765 0.0
H2449 H 0.02920 0.33726 0.20567 0.0
H2450 H 0.04147 0.32516 0.13559 0.0
H2451 H 0.97202 0.35502 0.19773 0.0
H2452 H 0.03347 0.33298 0.18068 0.0
H2453 H 0.98003 0.34719 0.15264 0.0
C2454 C 0.99475 0.34027 0.13431 0.0
C2455 C 0.01273 0.33383 0.12939 0.0
C2456 C 0.02131 0.33735 0.18413 0.0
C2457 C 0.00752 0.33891 0.15869 0.0
C2458 C 0.01874 0.33991 0.19901 0.0
C2459 C 0.00010 0.34635 0.20393 0.0
C2460 C 0.00597 0.34126 0.17463 0.0
C2461 C 0.98415 0.35065 0.19420 0.0
C2462 C 0.99219 0.34282 0.14919 0.0
C2463 C 0.02935 0.32953 0.13913 0.0
N2464 N 0.98696 0.34801 0.17928 0.0
N2465 N 0.02654 0.33217 0.15404 0.0
H2466 H 0.70899 0.73373 0.13499 0.0
H2467 H 0.70885 0.64861 0.19834 0.0
H2468 H 0.72090 0.67236 0.12820 0.0
H2469 H 0.69695 0.70999 0.20514 0.0
H2470 H 0.71312 0.65719 0.17336 0.0
H2471 H 0.70472 0.72515 0.15998 0.0
C2472 C 0.71048 0.71983 0.13873 0.0
C2473 C 0.71521 0.70434 0.12950 0.0
C2474 C 0.70991 0.66760 0.17972 0.0
C2475 C 0.71015 0.69449 0.15885 0.0
C2476 C 0.70737 0.66251 0.19461 0.0
C2477 C 0.70264 0.67800 0.20384 0.0
C2478 C 0.70769 0.68785 0.17449 0.0
C2479 C 0.70016 0.69966 0.19870 0.0
C2480 C 0.70793 0.71474 0.15362 0.0
C2481 C 0.71768 0.68268 0.13463 0.0
N2482 N 0.70277 0.70451 0.18373 0.0
N2483 N 0.71508 0.67783 0.14961 0.0
H2484 H 0.33541 0.06411 0.13282 0.0
H2485 H 0.38023 0.02041 0.20052 0.0
H2486 H 0.35628 0.00815 0.13040 0.0
H2487 H 0.35936 0.07638 0.20294 0.0
H2488 H 0.37166 0.01615 0.17554 0.0
H2489 H 0.34399 0.06838 0.15781 0.0
C2490 C 0.34129 0.05389 0.13742 0.0
C2491 C 0.34492 0.03627 0.12947 0.0
C2492 C 0.36925 0.02807 0.18103 0.0
C2493 C 0.35491 0.04147 0.15881 0.0
C2494 C 0.37436 0.03063 0.19592 0.0
C2495 C 0.37073 0.04825 0.20387 0.0
C2496 C 0.36074 0.04305 0.17454 0.0
C2497 C 0.36172 0.06449 0.19737 0.0
C2498 C 0.34639 0.05646 0.15231 0.0
C2499 C 0.35393 0.02003 0.13597 0.0
N2500 N 0.35668 0.06169 0.18241 0.0
N2501 N 0.35896 0.02283 0.15093 0.0
H2502 H 0.29478 0.99527 0.86596 0.0
H2503 H 0.38540 0.01823 0.80072 0.0
H2504 H 0.37372 0.03040 0.87085 0.0
H2505 H 0.30646 0.98309 0.79582 0.0
H2506 H 0.38109 0.02250 0.82570 0.0
H2507 H 0.29909 0.99099 0.84097 0.0
C2508 C 0.31129 0.00136 0.86184 0.0
C2509 C 0.33316 0.01289 0.87052 0.0
C2510 C 0.36635 0.01470 0.81972 0.0
C2511 C 0.33794 0.00775 0.84118 0.0
C2512 C 0.36889 0.01214 0.80483 0.0
C2513 C 0.34702 0.00010 0.79615 0.0
C2514 C 0.34224 0.00575 0.82550 0.0
C2515 C 0.32111 0.99088 0.80188 0.0
C2516 C 0.31383 0.99880 0.84696 0.0
C2517 C 0.35907 0.02262 0.86479 0.0
N2518 N 0.31889 0.99359 0.81685 0.0
N2519 N 0.36129 0.01990 0.84982 0.0
H2520 H 0.05636 0.40688 0.80236 0.0
H2521 H 0.02817 0.30877 0.86430 0.0
H2522 H 0.04012 0.33249 0.79415 0.0
H2523 H 0.04441 0.38316 0.87251 0.0
H2524 H 0.03245 0.31736 0.83932 0.0
H2525 H 0.05207 0.39828 0.82734 0.0
C2526 C 0.05227 0.39040 0.80581 0.0
C2527 C 0.04875 0.37110 0.79617 0.0
C2528 C 0.03480 0.33034 0.84596 0.0
C2529 C 0.04378 0.36128 0.82552 0.0
C2530 C 0.03226 0.32525 0.86085 0.0
C2531 C 0.03577 0.34454 0.87049 0.0
C2532 C 0.04074 0.35437 0.84114 0.0
C2533 C 0.04209 0.37027 0.86579 0.0
C2534 C 0.04972 0.38530 0.82070 0.0
C2535 C 0.04244 0.34537 0.80087 0.0
N2536 N 0.04458 0.37508 0.85081 0.0
N2537 N 0.03994 0.34057 0.81585 0.0
H2538 H 0.71642 0.71159 0.79433 0.0
H2539 H 0.66593 0.70626 0.87233 0.0
H2540 H 0.64158 0.69419 0.80225 0.0
H2541 H 0.74076 0.72366 0.86441 0.0
H2542 H 0.65739 0.70199 0.84734 0.0
H2543 H 0.72495 0.71586 0.81932 0.0
C2544 C 0.70333 0.70901 0.80098 0.0
C2545 C 0.67894 0.70268 0.79606 0.0
C2546 C 0.67390 0.70629 0.85079 0.0
C2547 C 0.68922 0.70775 0.82536 0.0
C2548 C 0.67901 0.70884 0.86568 0.0
C2549 C 0.70340 0.71517 0.87061 0.0
C2550 C 0.69312 0.71010 0.84130 0.0
C2551 C 0.72429 0.71936 0.86087 0.0
C2552 C 0.70844 0.71156 0.81587 0.0
C2553 C 0.65805 0.69848 0.80579 0.0
N2554 N 0.71885 0.71673 0.84596 0.0
N2555 N 0.66349 0.70112 0.82070 0.0
H2556 H 0.06354 0.75337 0.86710 0.0
H2557 H 0.02098 0.66447 0.79956 0.0
H2558 H 0.00871 0.67616 0.86968 0.0
H2559 H 0.07581 0.74168 0.79698 0.0
H2560 H 0.01671 0.66878 0.82455 0.0
H2561 H 0.06781 0.74906 0.84212 0.0
C2562 C 0.05355 0.73720 0.86253 0.0
C2563 C 0.03626 0.71584 0.87053 0.0
C2564 C 0.02841 0.68318 0.81902 0.0
C2565 C 0.04146 0.71105 0.84120 0.0
C2566 C 0.03097 0.68064 0.80413 0.0
C2567 C 0.04826 0.70200 0.79613 0.0
C2568 C 0.04306 0.70679 0.82547 0.0
C2569 C 0.06415 0.72737 0.80259 0.0
C2570 C 0.05611 0.73466 0.84765 0.0
C2571 C 0.02037 0.69047 0.86408 0.0
N2572 N 0.06135 0.72960 0.81754 0.0
N2573 N 0.02318 0.68824 0.84912 0.0
H2574 H 0.36567 0.34998 0.79621 0.0
H2575 H 0.31451 0.36569 0.87045 0.0
H2576 H 0.32635 0.38990 0.80036 0.0
H2577 H 0.35382 0.32578 0.86630 0.0
H2578 H 0.31880 0.37424 0.84546 0.0
H2579 H 0.36137 0.34143 0.82119 0.0
C2580 C 0.35701 0.35615 0.80211 0.0
C2581 C 0.34674 0.37032 0.79608 0.0
C2582 C 0.32571 0.36464 0.84966 0.0
C2583 C 0.34184 0.36014 0.82540 0.0
C2584 C 0.32317 0.35953 0.86455 0.0
C2585 C 0.33344 0.34536 0.87058 0.0
C2586 C 0.33834 0.35554 0.84126 0.0
C2587 C 0.34696 0.33537 0.86202 0.0
C2588 C 0.35446 0.35104 0.81700 0.0
C2589 C 0.33321 0.38030 0.80464 0.0
N2590 N 0.34935 0.34067 0.84709 0.0
N2591 N 0.33082 0.37500 0.81957 0.0
H2592 H 0.67379 0.02055 0.87149 0.0
H2593 H 0.70855 0.99293 0.79519 0.0
H2594 H 0.73283 0.00486 0.86527 0.0
H2595 H 0.64951 0.00862 0.80140 0.0
H2596 H 0.71709 0.99721 0.82018 0.0
H2597 H 0.66525 0.01627 0.84650 0.0
C2598 C 0.68375 0.01657 0.86518 0.0
C2599 C 0.70351 0.01322 0.87060 0.0
C2600 C 0.70370 0.99990 0.81639 0.0
C2601 C 0.69328 0.00825 0.84129 0.0
C2602 C 0.69859 0.99691 0.80150 0.0
C2603 C 0.67883 0.00010 0.79608 0.0
C2604 C 0.68906 0.00523 0.82538 0.0
C2605 C 0.66287 0.00641 0.80528 0.0
C2606 C 0.67864 0.01403 0.85029 0.0
C2607 C 0.71947 0.00707 0.86140 0.0
N2608 N 0.66825 0.00890 0.82020 0.0
N2609 N 0.71409 0.00458 0.84648 0.0
H2610 H 0.71082 0.00010 0.13511 0.0
H2611 H 0.70702 0.08402 0.19822 0.0
H2612 H 0.71907 0.07231 0.12808 0.0
H2613 H 0.69876 0.01221 0.20526 0.0
H2614 H 0.71130 0.07971 0.17324 0.0
H2615 H 0.70654 0.00481 0.16010 0.0
C2616 C 0.71158 0.01560 0.13880 0.0
C2617 C 0.71524 0.03538 0.12950 0.0
C2618 C 0.70881 0.06638 0.17965 0.0
C2619 C 0.71019 0.04018 0.15885 0.0
C2620 C 0.70625 0.06892 0.19453 0.0
C2621 C 0.70260 0.04914 0.20384 0.0
C2622 C 0.70765 0.04434 0.17449 0.0
C2623 C 0.70126 0.02546 0.19877 0.0
C2624 C 0.70903 0.01814 0.15369 0.0
C2625 C 0.71658 0.05906 0.13456 0.0
N2626 N 0.70386 0.02321 0.18380 0.0
N2627 N 0.71398 0.06131 0.14954 0.0
H2628 H 0.00723 0.66697 0.12777 0.0
H2629 H 0.00626 0.71537 0.20555 0.0
H2630 H 0.01830 0.73971 0.13547 0.0
H2631 H 0.99518 0.64263 0.19786 0.0
H2632 H 0.01053 0.72391 0.18056 0.0
H2633 H 0.00295 0.65843 0.15276 0.0
C2634 C 0.00855 0.67964 0.13438 0.0
C2635 C 0.01303 0.70342 0.12939 0.0
C2636 C 0.00748 0.70781 0.18406 0.0
C2637 C 0.00798 0.69314 0.15869 0.0
C2638 C 0.00493 0.70270 0.19894 0.0
C2639 C 0.00010 0.67892 0.20393 0.0
C2640 C 0.00550 0.68920 0.17463 0.0
C2641 C 0.99823 0.65868 0.19427 0.0
C2642 C 0.00600 0.67452 0.14927 0.0
C2643 C 0.01525 0.72366 0.13905 0.0
N2644 N 0.00010 0.66412 0.17936 0.0
N2645 N 0.01265 0.71822 0.15397 0.0
H2646 H 0.36379 0.37351 0.12975 0.0
H2647 H 0.35189 0.30667 0.20359 0.0
H2648 H 0.32769 0.29431 0.13349 0.0
H2649 H 0.38798 0.38587 0.19985 0.0
H2650 H 0.34333 0.30241 0.17860 0.0
H2651 H 0.37234 0.37776 0.15474 0.0
C2652 C 0.35838 0.35869 0.13558 0.0
C2653 C 0.34533 0.33426 0.12943 0.0
C2654 C 0.35219 0.31892 0.18288 0.0
C2655 C 0.35550 0.33954 0.15874 0.0
C2656 C 0.35730 0.32149 0.19776 0.0
C2657 C 0.37035 0.34592 0.20391 0.0
C2658 C 0.36018 0.34064 0.17460 0.0
C2659 C 0.37914 0.36942 0.19549 0.0
C2660 C 0.36349 0.36125 0.15046 0.0
C2661 C 0.33654 0.31076 0.13785 0.0
N2662 N 0.37385 0.36651 0.18056 0.0
N2663 N 0.34182 0.31366 0.15278 0.0
H2664 H 0.70552 0.70783 0.53603 0.0
H2665 H 0.64137 0.63907 0.46397 0.0
H2666 H 0.62901 0.65084 0.53408 0.0
H2667 H 0.71788 0.69605 0.46592 0.0
H2668 H 0.63711 0.64337 0.48896 0.0
H2669 H 0.70978 0.70352 0.51104 0.0
C2670 C 0.69124 0.69567 0.53056 0.0
C2671 C 0.66760 0.68023 0.53723 0.0
C2672 C 0.65309 0.65377 0.48433 0.0
C2673 C 0.67287 0.67538 0.50791 0.0
C2674 C 0.65566 0.65123 0.46944 0.0
C2675 C 0.67930 0.66667 0.46277 0.0
C2676 C 0.67403 0.67152 0.49209 0.0
C2677 C 0.70196 0.68572 0.47064 0.0
C2678 C 0.69380 0.69312 0.51567 0.0
C2679 C 0.64494 0.66118 0.52936 0.0
N2680 N 0.69906 0.68803 0.48558 0.0
N2681 N 0.64783 0.65886 0.51442 0.0
H2682 H 0.40972 0.02646 0.46394 0.0
H2683 H 0.34153 0.02262 0.53608 0.0
H2684 H 0.35329 0.04674 0.46597 0.0
H2685 H 0.39795 0.00234 0.53404 0.0
H2686 H 0.34583 0.03118 0.51109 0.0
H2687 H 0.40542 0.01790 0.48893 0.0
C2688 C 0.39767 0.02874 0.46942 0.0
C2689 C 0.38239 0.03716 0.46278 0.0
C2690 C 0.35612 0.02545 0.51570 0.0
C2691 C 0.37755 0.02704 0.49210 0.0
C2692 C 0.35358 0.02034 0.53059 0.0
C2693 C 0.36886 0.01192 0.53724 0.0
C2694 C 0.37370 0.02204 0.50792 0.0
C2695 C 0.38773 0.00807 0.52934 0.0
C2696 C 0.39513 0.02363 0.48431 0.0
C2697 C 0.36352 0.04101 0.47067 0.0
N2698 N 0.39004 0.01329 0.51441 0.0
N2699 N 0.36120 0.03579 0.48561 0.0
H2700 H 0.00573 0.40000 0.46575 0.0
H2701 H 0.04335 0.35125 0.53423 0.0
H2702 H 0.01937 0.33897 0.46411 0.0
H2703 H 0.02971 0.41228 0.53587 0.0
H2704 H 0.03478 0.34699 0.50925 0.0
H2705 H 0.01430 0.40426 0.49074 0.0
C2706 C 0.01018 0.38878 0.47051 0.0
C2707 C 0.01169 0.36967 0.46279 0.0
C2708 C 0.03380 0.35991 0.51459 0.0
C2709 C 0.02170 0.37489 0.49212 0.0
C2710 C 0.03890 0.36247 0.52948 0.0
C2711 C 0.03739 0.38158 0.53720 0.0
C2712 C 0.02738 0.37636 0.50787 0.0
C2713 C 0.03064 0.39940 0.53045 0.0
C2714 C 0.01528 0.39134 0.48540 0.0
C2715 C 0.01844 0.35185 0.46953 0.0
N2716 N 0.02558 0.39657 0.51550 0.0
N2717 N 0.02350 0.35467 0.48449 0.0
H2718 H 0.40862 0.40672 0.53648 0.0
H2719 H 0.34263 0.34453 0.46352 0.0
H2720 H 0.33026 0.35633 0.53362 0.0
H2721 H 0.42098 0.39492 0.46638 0.0
H2722 H 0.33837 0.34883 0.48851 0.0
H2723 H 0.41288 0.40242 0.51149 0.0
C2724 C 0.39397 0.39586 0.53083 0.0
C2725 C 0.36979 0.38235 0.53724 0.0
C2726 C 0.35471 0.35793 0.48405 0.0
C2727 C 0.37506 0.37748 0.50792 0.0
C2728 C 0.35728 0.35538 0.46917 0.0
C2729 C 0.38146 0.36889 0.46276 0.0
C2730 C 0.37618 0.37376 0.49208 0.0
C2731 C 0.40470 0.38588 0.47092 0.0
C2732 C 0.39653 0.39332 0.51594 0.0
C2733 C 0.34655 0.36537 0.52908 0.0
N2734 N 0.40179 0.38822 0.48585 0.0
N2735 N 0.34945 0.36302 0.51415 0.0
H2736 H 0.69579 0.04987 0.53901 0.0
H2737 H 0.65109 0.99990 0.46099 0.0
H2738 H 0.63883 0.97485 0.53107 0.0
H2739 H 0.70805 0.07423 0.46893 0.0
H2740 H 0.64683 0.99067 0.48598 0.0
H2741 H 0.70005 0.05841 0.51402 0.0
C2742 C 0.68538 0.03675 0.53236 0.0
C2743 C 0.66746 0.01230 0.53728 0.0
C2744 C 0.65894 0.00721 0.48253 0.0
C2745 C 0.67267 0.02259 0.50797 0.0
C2746 C 0.66150 0.01233 0.46765 0.0
C2747 C 0.67942 0.03677 0.46273 0.0
C2748 C 0.67422 0.02649 0.49203 0.0
C2749 C 0.69597 0.05773 0.47247 0.0
C2750 C 0.68794 0.04187 0.51747 0.0
C2751 C 0.65091 0.99135 0.52753 0.0
N2752 N 0.69317 0.05228 0.48738 0.0
N2753 N 0.65372 0.99680 0.51262 0.0
H2754 H 0.01303 0.70200 0.46497 0.0
H2755 H 0.03605 0.64489 0.53503 0.0
H2756 H 0.01201 0.63257 0.46491 0.0
H2757 H 0.03707 0.71431 0.53508 0.0
H2758 H 0.02748 0.64063 0.51004 0.0
H2759 H 0.02160 0.70625 0.48996 0.0
C2760 C 0.01457 0.68911 0.47004 0.0
C2761 C 0.01179 0.66755 0.46278 0.0
C2762 C 0.02940 0.65521 0.51507 0.0
C2763 C 0.02185 0.67279 0.49211 0.0
C2764 C 0.03451 0.65777 0.52996 0.0
C2765 C 0.03729 0.67933 0.53722 0.0
C2766 C 0.02723 0.67409 0.50789 0.0
C2767 C 0.03512 0.69978 0.52997 0.0
C2768 C 0.01968 0.69168 0.48493 0.0
C2769 C 0.01396 0.64710 0.47002 0.0
N2770 N 0.02999 0.69692 0.51503 0.0
N2771 N 0.01909 0.64996 0.48497 0.0
H2772 H 0.98975 0.27703 0.03437 0.0
H2773 H 0.05926 0.35556 0.96562 0.0
H2774 H 0.05086 0.35156 0.03687 0.0
H2775 H 0.99815 0.28102 0.96312 0.0
H2776 H 0.05615 0.35399 0.99101 0.0
H2777 H 0.99286 0.27859 0.00898 0.0
C2778 C 0.00249 0.29211 0.02970 0.0
C2779 C 0.01948 0.31348 0.03779 0.0
C2780 C 0.04469 0.33957 0.98542 0.0
C2781 C 0.02291 0.31505 0.00799 0.0
C2782 C 0.04652 0.34048 0.97029 0.0
C2783 C 0.02953 0.31911 0.96220 0.0
C2784 C 0.02610 0.31753 0.99201 0.0
C2785 C 0.00954 0.29537 0.96880 0.0
C2786 C 0.00431 0.29301 0.01458 0.0
C2787 C 0.03947 0.33721 0.03120 0.0
N2788 N 0.00796 0.29477 0.98399 0.0
N2789 N 0.04105 0.33781 0.01600 0.0
H2790 H 0.73958 0.70605 0.96301 0.0
H2791 H 0.72578 0.75931 0.03699 0.0
H2792 H 0.72137 0.76390 0.96577 0.0
H2793 H 0.74399 0.70147 0.03423 0.0
H2794 H 0.72424 0.76084 0.01160 0.0
H2795 H 0.74112 0.70452 0.98840 0.0
C2796 C 0.73629 0.71720 0.96872 0.0
C2797 C 0.73051 0.73458 0.96217 0.0
C2798 C 0.72815 0.74910 0.01616 0.0
C2799 C 0.73238 0.73258 0.99196 0.0
C2800 C 0.72907 0.74817 0.03128 0.0
C2801 C 0.73485 0.73078 0.03783 0.0
C2802 C 0.73298 0.73278 0.00804 0.0
C2803 C 0.74009 0.71316 0.02960 0.0
C2804 C 0.73721 0.71627 0.98384 0.0
C2805 C 0.72527 0.75220 0.97041 0.0
N2806 N 0.73909 0.71433 0.01442 0.0
N2807 N 0.72627 0.75103 0.98558 0.0
H2808 H 0.32132 0.05744 0.96304 0.0
H2809 H 0.31127 0.99157 0.03697 0.0
H2810 H 0.30688 0.98258 0.96575 0.0
H2811 H 0.32571 0.06643 0.03426 0.0
H2812 H 0.30973 0.98850 0.01158 0.0
H2813 H 0.32286 0.06051 0.98842 0.0
C2814 C 0.31877 0.04324 0.96874 0.0
C2815 C 0.31410 0.02043 0.96217 0.0
C2816 C 0.31289 0.00392 0.01614 0.0
C2817 C 0.31595 0.02429 0.99196 0.0
C2818 C 0.31381 0.00577 0.03127 0.0
C2819 C 0.31849 0.02858 0.03783 0.0
C2820 C 0.31663 0.02472 0.00805 0.0
C2821 C 0.32255 0.05108 0.02961 0.0
C2822 C 0.31969 0.04509 0.98386 0.0
C2823 C 0.31003 0.99793 0.97039 0.0
N2824 N 0.32157 0.04890 0.01444 0.0
N2825 N 0.31102 0.00010 0.98557 0.0
H2826 H 0.03802 0.77282 0.96481 0.0
H2827 H 0.01096 0.69256 0.03518 0.0
H2828 H 0.01956 0.69657 0.96394 0.0
H2829 H 0.02942 0.76882 0.03605 0.0
H2830 H 0.01406 0.69414 0.00980 0.0
H2831 H 0.03492 0.77125 0.99020 0.0
C2832 C 0.03373 0.75740 0.96980 0.0
C2833 C 0.02922 0.73553 0.96219 0.0
C2834 C 0.01709 0.70889 0.01507 0.0
C2835 C 0.02565 0.73395 0.99199 0.0
C2836 C 0.01525 0.70799 0.03019 0.0
C2837 C 0.01976 0.72986 0.03780 0.0
C2838 C 0.02333 0.73144 0.00800 0.0
C2839 C 0.02642 0.75413 0.03070 0.0
C2840 C 0.03189 0.75649 0.98493 0.0
C2841 C 0.02256 0.71125 0.96929 0.0
N2842 N 0.02819 0.75473 0.01551 0.0
N2843 N 0.02079 0.71066 0.98448 0.0
H2844 H 0.35425 0.34676 0.03542 0.0
H2845 H 0.27836 0.28585 0.96458 0.0
H2846 H 0.28238 0.28123 0.03582 0.0
H2847 H 0.35023 0.35138 0.96418 0.0
H2848 H 0.27993 0.28433 0.98997 0.0
H2849 H 0.35268 0.34829 0.01003 0.0
C2850 C 0.33970 0.33409 0.03033 0.0
C2851 C 0.31911 0.31446 0.03781 0.0
C2852 C 0.29382 0.29759 0.98479 0.0
C2853 C 0.31752 0.31648 0.00801 0.0
C2854 C 0.29292 0.29852 0.96967 0.0
C2855 C 0.31351 0.31815 0.96219 0.0
C2856 C 0.31509 0.31613 0.99199 0.0
C2857 C 0.33641 0.33818 0.96944 0.0
C2858 C 0.33879 0.33503 0.01521 0.0
C2859 C 0.29620 0.29444 0.03056 0.0
N2860 N 0.33702 0.33697 0.98463 0.0
N2861 N 0.29559 0.29565 0.01537 0.0
H2862 H 0.72928 0.98531 0.96580 0.0
H2863 H 0.73611 0.06367 0.03420 0.0
H2864 H 0.73178 0.05530 0.96296 0.0
H2865 H 0.73361 0.99368 0.03705 0.0
H2866 H 0.73456 0.06056 0.00882 0.0
H2867 H 0.73083 0.98842 0.99119 0.0
C2868 C 0.73009 0.99990 0.97040 0.0
C2869 C 0.73037 0.01940 0.96221 0.0
C2870 C 0.73438 0.04734 0.01448 0.0
C2871 C 0.73218 0.02281 0.99202 0.0
C2872 C 0.73530 0.04917 0.02960 0.0
C2873 C 0.73502 0.02958 0.03780 0.0
C2874 C 0.73321 0.02617 0.00799 0.0
C2875 C 0.73379 0.00682 0.03131 0.0
C2876 C 0.73101 0.00163 0.98553 0.0
C2877 C 0.73160 0.04216 0.96870 0.0
N2878 N 0.73287 0.00527 0.01611 0.0
N2879 N 0.73252 0.04371 0.98390 0.0
H2880 H 0.70041 0.68831 0.29799 0.0
H2881 H 0.68199 0.61101 0.36869 0.0
H2882 H 0.69060 0.61502 0.29745 0.0
H2883 H 0.69180 0.68430 0.36922 0.0
H2884 H 0.68508 0.61258 0.34330 0.0
H2885 H 0.69732 0.68674 0.32337 0.0
C2886 C 0.69784 0.67348 0.30304 0.0
C2887 C 0.69586 0.65247 0.29553 0.0
C2888 C 0.68639 0.62675 0.34850 0.0
C2889 C 0.69227 0.65089 0.32532 0.0
C2890 C 0.68456 0.62584 0.36363 0.0
C2891 C 0.68654 0.64685 0.37114 0.0
C2892 C 0.69012 0.64843 0.34135 0.0
C2893 C 0.69050 0.67020 0.36394 0.0
C2894 C 0.69600 0.67257 0.31817 0.0
C2895 C 0.69190 0.62912 0.30273 0.0
N2896 N 0.69230 0.67080 0.34875 0.0
N2897 N 0.69010 0.62852 0.31792 0.0
H2898 H 0.43090 0.05564 0.36743 0.0
H2899 H 0.36786 0.07648 0.29925 0.0
H2900 H 0.37196 0.07223 0.37049 0.0
H2901 H 0.42680 0.05989 0.29618 0.0
H2902 H 0.36943 0.07493 0.32463 0.0
H2903 H 0.42933 0.05718 0.34205 0.0
C2904 C 0.41890 0.05924 0.36287 0.0
C2905 C 0.40210 0.06365 0.37113 0.0
C2906 C 0.38077 0.07196 0.31893 0.0
C2907 C 0.40046 0.06540 0.34132 0.0
C2908 C 0.37985 0.07288 0.30380 0.0
C2909 C 0.39666 0.06847 0.29555 0.0
C2910 C 0.39829 0.06671 0.32535 0.0
C2911 C 0.41553 0.06283 0.30197 0.0
C2912 C 0.41799 0.06015 0.34775 0.0
C2913 C 0.38323 0.06928 0.36471 0.0
N2914 N 0.41620 0.06199 0.31717 0.0
N2915 N 0.38256 0.07013 0.34951 0.0
H2916 H 0.02010 0.39571 0.36758 0.0
H2917 H 0.94588 0.32001 0.29908 0.0
H2918 H 0.94993 0.32840 0.37032 0.0
H2919 H 0.01605 0.38733 0.29633 0.0
H2920 H 0.94745 0.32313 0.32446 0.0
H2921 H 0.01853 0.39260 0.34219 0.0
C2922 C 0.00588 0.38175 0.36296 0.0
C2923 C 0.98579 0.36294 0.37112 0.0
C2924 C 0.96101 0.33581 0.31882 0.0
C2925 C 0.98419 0.35952 0.34132 0.0
C2926 C 0.96010 0.33398 0.30370 0.0
C2927 C 0.98019 0.35279 0.29553 0.0
C2928 C 0.98179 0.35620 0.32534 0.0
C2929 C 0.00256 0.37472 0.30205 0.0
C2930 C 0.00497 0.37992 0.34783 0.0
C2931 C 0.96341 0.34101 0.36460 0.0
N2932 N 0.00319 0.37628 0.31725 0.0
N2933 N 0.96279 0.33945 0.34940 0.0
H2934 H 0.72337 0.06902 0.37027 0.0
H2935 H 0.65898 0.06309 0.29640 0.0
H2936 H 0.65001 0.05873 0.36762 0.0
H2937 H 0.73234 0.07339 0.29905 0.0
H2938 H 0.65592 0.06156 0.32179 0.0
H2939 H 0.72643 0.07056 0.34488 0.0
C2940 C 0.70946 0.06730 0.36458 0.0
C2941 C 0.68709 0.06384 0.37117 0.0
C2942 C 0.67104 0.06390 0.31721 0.0
C2943 C 0.69094 0.06568 0.34138 0.0
C2944 C 0.67289 0.06482 0.30209 0.0
C2945 C 0.69526 0.06828 0.29550 0.0
C2946 C 0.69141 0.06644 0.32529 0.0
C2947 C 0.71728 0.07105 0.30371 0.0
C2948 C 0.71131 0.06822 0.34946 0.0
C2949 C 0.66507 0.06107 0.36296 0.0
N2950 N 0.71512 0.07008 0.31888 0.0
N2951 N 0.66723 0.06203 0.34779 0.0
H2952 H 0.95080 0.61325 0.36887 0.0
H2953 H 0.01519 0.68607 0.29778 0.0
H2954 H 0.01984 0.68205 0.36902 0.0
H2955 H 0.94615 0.61728 0.29764 0.0
H2956 H 0.01672 0.68451 0.32317 0.0
H2957 H 0.94927 0.61482 0.34349 0.0
C2958 C 0.96416 0.62720 0.36374 0.0
C2959 C 0.98483 0.64689 0.37114 0.0
C2960 C 0.00277 0.67122 0.31804 0.0
C2961 C 0.98279 0.64848 0.34134 0.0
C2962 C 0.00183 0.67213 0.30292 0.0
C2963 C 0.98117 0.65243 0.29552 0.0
C2964 C 0.98320 0.65084 0.32531 0.0
C2965 C 0.96005 0.63049 0.30285 0.0
C2966 C 0.96323 0.62810 0.34861 0.0
C2967 C 0.00595 0.66883 0.36381 0.0
N2968 N 0.96127 0.62987 0.31804 0.0
N2969 N 0.00472 0.66945 0.34862 0.0
H2970 H 0.40567 0.39830 0.36749 0.0
H2971 H 0.39311 0.31741 0.29918 0.0
H2972 H 0.39742 0.32578 0.37043 0.0
H2973 H 0.40135 0.38993 0.29624 0.0
H2974 H 0.39466 0.32053 0.32457 0.0
H2975 H 0.40412 0.39518 0.34210 0.0
C2976 C 0.40372 0.38330 0.36291 0.0
C2977 C 0.40175 0.36296 0.37113 0.0
C2978 C 0.39598 0.33424 0.31889 0.0
C2979 C 0.39996 0.35956 0.34132 0.0
C2980 C 0.39505 0.33241 0.30376 0.0
C2981 C 0.39702 0.35274 0.29554 0.0
C2982 C 0.39881 0.35615 0.32535 0.0
C2983 C 0.40005 0.37630 0.30200 0.0
C2984 C 0.40280 0.38147 0.34778 0.0
C2985 C 0.39873 0.33941 0.36467 0.0
N2986 N 0.40094 0.37784 0.31720 0.0
N2987 N 0.39784 0.33787 0.34947 0.0
H2988 H 0.31620 0.95088 0.70078 0.0
H2989 H 0.39953 0.01509 0.63257 0.0
H2990 H 0.39117 0.01100 0.70382 0.0
H2991 H 0.32455 0.95498 0.62953 0.0
H2992 H 0.39641 0.01352 0.65796 0.0
H2993 H 0.31931 0.95246 0.67539 0.0
C2994 C 0.33168 0.96311 0.69622 0.0
C2995 C 0.35273 0.98026 0.70446 0.0
C2996 C 0.38221 0.00195 0.65226 0.0
C2997 C 0.35613 0.98189 0.67466 0.0
C2998 C 0.38404 0.00287 0.63713 0.0
C2999 C 0.36299 0.98572 0.62888 0.0
C3000 C 0.35960 0.98409 0.65869 0.0
C3001 C 0.33867 0.96649 0.63531 0.0
C3002 C 0.33351 0.96402 0.68109 0.0
C3003 C 0.37706 0.99990 0.69804 0.0
N3004 N 0.33714 0.96582 0.65051 0.0
N3005 N 0.37858 0.00010 0.68284 0.0
H3006 H 0.04268 0.35822 0.70168 0.0
H3007 H 0.08944 0.44054 0.63164 0.0
H3008 H 0.09398 0.43653 0.70288 0.0
H3009 H 0.03813 0.36223 0.63044 0.0
H3010 H 0.09096 0.43896 0.65703 0.0
H3011 H 0.04115 0.35980 0.67629 0.0
C3012 C 0.05253 0.37405 0.69675 0.0
C3013 C 0.06799 0.39653 0.70447 0.0
C3014 C 0.08051 0.42380 0.65169 0.0
C3015 C 0.06602 0.39810 0.67467 0.0
C3016 C 0.07959 0.42471 0.63657 0.0
C3017 C 0.06412 0.40223 0.62886 0.0
C3018 C 0.06609 0.40066 0.65866 0.0
C3019 C 0.04854 0.37732 0.63586 0.0
C3020 C 0.05160 0.37496 0.68163 0.0
C3021 C 0.08358 0.42144 0.69747 0.0
N3022 N 0.04968 0.37673 0.65105 0.0
N3023 N 0.08243 0.42203 0.68227 0.0
H3024 H 0.68834 0.72694 0.70100 0.0
H3025 H 0.61098 0.65546 0.63233 0.0
H3026 H 0.61499 0.66384 0.70358 0.0
H3027 H 0.68433 0.71856 0.62975 0.0
H3028 H 0.61254 0.65856 0.65772 0.0
H3029 H 0.68678 0.72384 0.67561 0.0
C3030 C 0.67349 0.71381 0.69635 0.0
C3031 C 0.65247 0.69623 0.70446 0.0
C3032 C 0.62673 0.67041 0.65211 0.0
C3033 C 0.65089 0.69281 0.67465 0.0
C3034 C 0.62583 0.66859 0.63698 0.0
C3035 C 0.64685 0.68617 0.62887 0.0
C3036 C 0.64843 0.68959 0.65867 0.0
C3037 C 0.67022 0.70678 0.63544 0.0
C3038 C 0.67259 0.71198 0.68122 0.0
C3039 C 0.62910 0.67562 0.69789 0.0
N3040 N 0.67082 0.70835 0.65064 0.0
N3041 N 0.62850 0.67405 0.68269 0.0
H3042 H 0.39115 0.40552 0.70364 0.0
H3043 H 0.32456 0.39326 0.62968 0.0
H3044 H 0.31555 0.38883 0.70090 0.0
H3045 H 0.40016 0.40994 0.63242 0.0
H3046 H 0.32149 0.39171 0.65507 0.0
H3047 H 0.39422 0.40706 0.67826 0.0
C3048 C 0.37680 0.40253 0.69794 0.0
C3049 C 0.35377 0.39719 0.70449 0.0
C3050 C 0.33705 0.39532 0.65051 0.0
C3051 C 0.35764 0.39907 0.67471 0.0
C3052 C 0.33891 0.39625 0.63539 0.0
C3053 C 0.36194 0.40158 0.62883 0.0
C3054 C 0.35807 0.39971 0.65862 0.0
C3055 C 0.38466 0.40634 0.63706 0.0
C3056 C 0.37866 0.40345 0.68281 0.0
C3057 C 0.33105 0.39243 0.69626 0.0
N3058 N 0.38248 0.40534 0.65224 0.0
N3059 N 0.33323 0.39343 0.68109 0.0
H3060 H 0.67048 0.02040 0.70301 0.0
H3061 H 0.62884 0.94560 0.63033 0.0
H3062 H 0.63300 0.94090 0.70156 0.0
H3063 H 0.66633 0.02509 0.63178 0.0
H3064 H 0.63039 0.94407 0.65571 0.0
H3065 H 0.66893 0.02192 0.67763 0.0
C3066 C 0.66274 0.00496 0.69756 0.0
C3067 C 0.65222 0.98124 0.70449 0.0
C3068 C 0.63749 0.96009 0.65090 0.0
C3069 C 0.65053 0.98331 0.67470 0.0
C3070 C 0.63658 0.96103 0.63578 0.0
C3071 C 0.64711 0.98475 0.62885 0.0
C3072 C 0.64880 0.98268 0.65864 0.0
C3073 C 0.65927 0.00914 0.63668 0.0
C3074 C 0.66183 0.00590 0.68244 0.0
C3075 C 0.64006 0.95685 0.69666 0.0
N3076 N 0.66003 0.00787 0.65186 0.0
N3077 N 0.63930 0.95813 0.68148 0.0
H3078 H 0.10330 0.72885 0.70093 0.0
H3079 H 0.02882 0.65350 0.63240 0.0
H3080 H 0.03283 0.66186 0.70365 0.0
H3081 H 0.09928 0.72049 0.62968 0.0
H3082 H 0.03038 0.65661 0.65779 0.0
H3083 H 0.10174 0.72574 0.67554 0.0
C3084 C 0.08903 0.71495 0.69630 0.0
C3085 C 0.06884 0.69623 0.70446 0.0
C3086 C 0.04400 0.66923 0.65215 0.0
C3087 C 0.06726 0.69283 0.67465 0.0
C3088 C 0.04309 0.66740 0.63703 0.0
C3089 C 0.06327 0.68612 0.62887 0.0
C3090 C 0.06486 0.68953 0.65868 0.0
C3091 C 0.08574 0.70794 0.63540 0.0
C3092 C 0.08812 0.71312 0.68118 0.0
C3093 C 0.04638 0.67441 0.69794 0.0
N3094 N 0.08635 0.70950 0.65060 0.0
N3095 N 0.04576 0.67286 0.68274 0.0
H3096 H 0.83567 0.10343 0.09524 0.0
H3097 H 0.92060 0.23831 0.06071 0.0
H3098 H 0.81034 0.12826 0.06056 0.0
H3099 H 0.94593 0.21347 0.09539 0.0
H3100 H 0.88135 0.19904 0.06072 0.0
H3101 H 0.87491 0.14269 0.09523 0.0
C3102 C 0.83863 0.11634 0.08837 0.0
C3103 C 0.81984 0.11223 0.07822 0.0
C3104 C 0.89424 0.20202 0.06757 0.0
C3105 C 0.86599 0.15822 0.07833 0.0
C3106 C 0.91763 0.22540 0.06758 0.0
C3107 C 0.93643 0.22951 0.07773 0.0
C3108 C 0.89027 0.18352 0.07762 0.0
C3109 C 0.93294 0.21035 0.08857 0.0
C3110 C 0.86203 0.13972 0.08837 0.0
C3111 C 0.82333 0.13139 0.06738 0.0
N3112 N 0.90934 0.18697 0.08842 0.0
N3113 N 0.84692 0.15477 0.06753 0.0
H3114 H 0.93709 0.73981 0.09975 0.0
H3115 H 0.81913 0.72369 0.05620 0.0
H3116 H 0.92924 0.72362 0.05601 0.0
H3117 H 0.82698 0.73988 0.09994 0.0
H3118 H 0.85839 0.72369 0.05621 0.0
H3119 H 0.89784 0.73981 0.09973 0.0
C3120 C 0.92755 0.73660 0.09108 0.0
C3121 C 0.93663 0.73186 0.07828 0.0
C3122 C 0.85206 0.72689 0.06486 0.0
C3123 C 0.89059 0.73191 0.07841 0.0
C3124 C 0.82867 0.72690 0.06486 0.0
C3125 C 0.81959 0.73164 0.07767 0.0
C3126 C 0.86564 0.73159 0.07753 0.0
C3127 C 0.83345 0.73670 0.09133 0.0
C3128 C 0.90417 0.73661 0.09109 0.0
C3129 C 0.92278 0.72680 0.06461 0.0
N3130 N 0.85690 0.73663 0.09114 0.0
N3131 N 0.89933 0.72687 0.06480 0.0
H3132 H 0.35053 0.13257 0.09002 0.0
H3133 H 0.28393 0.20917 0.06593 0.0
H3134 H 0.28363 0.09888 0.06583 0.0
H3135 H 0.35083 0.24287 0.09013 0.0
H3136 H 0.28395 0.16993 0.06594 0.0
H3137 H 0.35052 0.17182 0.09001 0.0
C3138 C 0.33728 0.13388 0.08523 0.0
C3139 C 0.31769 0.11264 0.07815 0.0
C3140 C 0.29717 0.18447 0.07072 0.0
C3141 C 0.31791 0.15882 0.07822 0.0
C3142 C 0.29719 0.20787 0.07073 0.0
C3143 C 0.31677 0.22911 0.07781 0.0
C3144 C 0.31656 0.18293 0.07773 0.0
C3145 C 0.33767 0.22823 0.08537 0.0
C3146 C 0.33729 0.15728 0.08523 0.0
C3147 C 0.29679 0.11352 0.07059 0.0
N3148 N 0.33738 0.20460 0.08526 0.0
N3149 N 0.29708 0.13714 0.07069 0.0
H3150 H 0.23723 0.92167 0.94020 0.0
H3151 H 0.10450 0.83459 0.90385 0.0
H3152 H 0.21456 0.94485 0.90369 0.0
H3153 H 0.12718 0.81142 0.94036 0.0
H3154 H 0.14377 0.87384 0.90386 0.0
H3155 H 0.19797 0.88242 0.94019 0.0
C3156 C 0.22476 0.91828 0.93297 0.0
C3157 C 0.22950 0.93644 0.92228 0.0
C3158 C 0.14037 0.86138 0.91108 0.0
C3159 C 0.18349 0.89029 0.92239 0.0
C3160 C 0.11698 0.83799 0.91108 0.0
C3161 C 0.11224 0.81982 0.92177 0.0
C3162 C 0.15824 0.86597 0.92166 0.0
C3163 C 0.13073 0.82399 0.93318 0.0
C3164 C 0.20137 0.89489 0.93298 0.0
C3165 C 0.21101 0.93228 0.91087 0.0
N3166 N 0.15412 0.84757 0.93302 0.0
N3167 N 0.18762 0.90869 0.91103 0.0
H3168 H 0.23633 0.33824 0.90317 0.0
H3169 H 0.10542 0.29622 0.94088 0.0
H3170 H 0.21548 0.29605 0.94104 0.0
H3171 H 0.12627 0.33842 0.90300 0.0
H3172 H 0.14468 0.29624 0.94087 0.0
H3173 H 0.19707 0.33823 0.90318 0.0
C3174 C 0.22421 0.32988 0.91067 0.0
C3175 C 0.22949 0.31753 0.92176 0.0
C3176 C 0.14092 0.30458 0.93338 0.0
C3177 C 0.18348 0.31766 0.92164 0.0
C3178 C 0.11753 0.30458 0.93337 0.0
C3179 C 0.11226 0.31693 0.92229 0.0
C3180 C 0.15827 0.31681 0.92241 0.0
C3181 C 0.13018 0.33012 0.91045 0.0
C3182 C 0.20083 0.32989 0.91066 0.0
C3183 C 0.21157 0.30435 0.93359 0.0
N3184 N 0.15357 0.32994 0.91062 0.0
N3185 N 0.18818 0.30453 0.93343 0.0
H3186 H 0.75291 0.83374 0.94083 0.0
H3187 H 0.71059 0.92248 0.90323 0.0
H3188 H 0.71040 0.81224 0.90306 0.0
H3189 H 0.75309 0.94398 0.94099 0.0
H3190 H 0.71060 0.88324 0.90324 0.0
H3191 H 0.75290 0.87299 0.94082 0.0
C3192 C 0.74449 0.83747 0.93335 0.0
C3193 C 0.73204 0.81980 0.92229 0.0
C3194 C 0.71900 0.89537 0.91070 0.0
C3195 C 0.73218 0.86594 0.92241 0.0
C3196 C 0.71901 0.91876 0.91071 0.0
C3197 C 0.73145 0.93643 0.92177 0.0
C3198 C 0.73132 0.89029 0.92165 0.0
C3199 C 0.74473 0.93174 0.93357 0.0
C3200 C 0.74450 0.86086 0.93335 0.0
C3201 C 0.71876 0.82448 0.91049 0.0
N3202 N 0.74455 0.90817 0.93340 0.0
N3203 N 0.71895 0.84806 0.91065 0.0
H3204 H 0.49052 0.44864 0.38908 0.0
H3205 H 0.59914 0.55983 0.43354 0.0
H3206 H 0.48898 0.44968 0.43373 0.0
H3207 H 0.60068 0.55878 0.38889 0.0
H3208 H 0.55989 0.52057 0.43352 0.0
H3209 H 0.52978 0.48790 0.38910 0.0
C3210 C 0.49820 0.45683 0.39793 0.0
C3211 C 0.48637 0.44576 0.41100 0.0
C3212 C 0.56808 0.52825 0.42470 0.0
C3213 C 0.53245 0.49183 0.41086 0.0
C3214 C 0.59146 0.55164 0.42469 0.0
C3215 C 0.60329 0.56271 0.41162 0.0
C3216 C 0.55721 0.51664 0.41176 0.0
C3217 C 0.59237 0.55098 0.39767 0.0
C3218 C 0.52159 0.48022 0.39792 0.0
C3219 C 0.49730 0.45749 0.42495 0.0
N3220 N 0.56888 0.52750 0.39786 0.0
N3221 N 0.52079 0.48097 0.42476 0.0
H3222 H 0.58015 0.02588 0.41435 0.0
H3223 H 0.50950 0.10438 0.40827 0.0
H3224 H 0.61982 0.10472 0.40825 0.0
H3225 H 0.46983 0.02554 0.41438 0.0
H3226 H 0.54874 0.10435 0.40828 0.0
H3227 H 0.54091 0.02591 0.41435 0.0
C3228 C 0.58002 0.04150 0.41314 0.0
C3229 C 0.60301 0.06458 0.41135 0.0
C3230 C 0.53302 0.08877 0.40948 0.0
C3231 C 0.55682 0.06433 0.41137 0.0
C3232 C 0.50962 0.08876 0.40948 0.0
C3233 C 0.48663 0.06568 0.41127 0.0
C3234 C 0.53283 0.06593 0.41125 0.0
C3235 C 0.48564 0.04105 0.41318 0.0
C3236 C 0.55663 0.04149 0.41314 0.0
C3237 C 0.60400 0.08921 0.40945 0.0
N3238 N 0.50930 0.04139 0.41315 0.0
N3239 N 0.58035 0.08887 0.40947 0.0
H3240 H 0.99990 0.45722 0.43168 0.0
H3241 H 0.96809 0.55126 0.39092 0.0
H3242 H 0.96796 0.44105 0.39074 0.0
H3243 H 0.99990 0.56743 0.43186 0.0
H3244 H 0.96810 0.51201 0.39093 0.0
H3245 H 0.99990 0.49646 0.43167 0.0
C3246 C 0.99349 0.46200 0.42357 0.0
C3247 C 0.98417 0.44589 0.41159 0.0
C3248 C 0.97440 0.52309 0.39903 0.0
C3249 C 0.98427 0.49201 0.41172 0.0
C3250 C 0.97440 0.54648 0.39903 0.0
C3251 C 0.98372 0.56259 0.41102 0.0
C3252 C 0.98362 0.51647 0.41089 0.0
C3253 C 0.99367 0.55624 0.42381 0.0
C3254 C 0.99349 0.48539 0.42358 0.0
C3255 C 0.97422 0.45224 0.39879 0.0
N3256 N 0.99353 0.53269 0.42363 0.0
N3257 N 0.97436 0.47579 0.39897 0.0
H3258 H 0.78912 0.14999 0.23436 0.0
H3259 H 0.88595 0.27297 0.27635 0.0
H3260 H 0.77574 0.16288 0.27653 0.0
H3261 H 0.89933 0.26008 0.23418 0.0
H3262 H 0.84670 0.23371 0.27633 0.0
H3263 H 0.82837 0.18925 0.23438 0.0
C3264 C 0.79446 0.16053 0.24272 0.0
C3265 C 0.77916 0.15292 0.25506 0.0
C3266 C 0.85723 0.23905 0.26800 0.0
C3267 C 0.82528 0.19895 0.25493 0.0
C3268 C 0.88062 0.26243 0.26799 0.0
C3269 C 0.89592 0.27004 0.25565 0.0
C3270 C 0.84980 0.22401 0.25578 0.0
C3271 C 0.88869 0.25461 0.24247 0.0
C3272 C 0.81785 0.18391 0.24271 0.0
C3273 C 0.78638 0.16835 0.26824 0.0
N3274 N 0.86515 0.23118 0.24266 0.0
N3275 N 0.80993 0.19178 0.26806 0.0
H3276 H 0.89160 0.64878 0.27757 0.0
H3277 H 0.78351 0.65240 0.23314 0.0
H3278 H 0.89366 0.65241 0.23295 0.0
H3279 H 0.78145 0.64877 0.27777 0.0
H3280 H 0.82276 0.65240 0.23316 0.0
H3281 H 0.85235 0.64878 0.27756 0.0
C3282 C 0.88402 0.64950 0.26873 0.0
C3283 C 0.89601 0.65056 0.25567 0.0
C3284 C 0.81447 0.65168 0.24198 0.0
C3285 C 0.84993 0.65055 0.25581 0.0
C3286 C 0.79108 0.65168 0.24198 0.0
C3287 C 0.77910 0.65062 0.25505 0.0
C3288 C 0.82518 0.65063 0.25491 0.0
C3289 C 0.78986 0.64948 0.26899 0.0
C3290 C 0.86064 0.64950 0.26874 0.0
C3291 C 0.88525 0.65170 0.24172 0.0
N3292 N 0.81335 0.64950 0.26880 0.0
N3293 N 0.86176 0.65168 0.24192 0.0
H3294 H 0.42407 0.27924 0.23841 0.0
H3295 H 0.37280 0.14371 0.27232 0.0
H3296 H 0.37257 0.25374 0.27247 0.0
H3297 H 0.42429 0.16921 0.23826 0.0
H3298 H 0.37281 0.18297 0.27231 0.0
H3299 H 0.42405 0.23998 0.23842 0.0
C3300 C 0.41386 0.26621 0.24515 0.0
C3301 C 0.39879 0.27012 0.25513 0.0
C3302 C 0.38299 0.18013 0.26558 0.0
C3303 C 0.39895 0.22413 0.25502 0.0
C3304 C 0.38300 0.15675 0.26557 0.0
C3305 C 0.39807 0.15283 0.25560 0.0
C3306 C 0.39791 0.19882 0.25571 0.0
C3307 C 0.41416 0.17220 0.24496 0.0
C3308 C 0.41387 0.24283 0.24515 0.0
C3309 C 0.38270 0.25075 0.26577 0.0
N3310 N 0.41394 0.19558 0.24511 0.0
N3311 N 0.38292 0.22738 0.26562 0.0
H3312 H 0.28587 0.87305 0.74037 0.0
H3313 H 0.13709 0.80202 0.74892 0.0
H3314 H 0.24707 0.91234 0.74896 0.0
H3315 H 0.17589 0.76273 0.74033 0.0
H3316 H 0.17636 0.84126 0.74892 0.0
H3317 H 0.24660 0.83381 0.74037 0.0
C3318 C 0.27020 0.87285 0.74207 0.0
C3319 C 0.27022 0.89574 0.74459 0.0
C3320 C 0.17614 0.82562 0.74722 0.0
C3321 C 0.22427 0.84954 0.74456 0.0
C3322 C 0.15276 0.80222 0.74722 0.0
C3323 C 0.15274 0.77934 0.74470 0.0
C3324 C 0.19869 0.82554 0.74473 0.0
C3325 C 0.17627 0.77847 0.74202 0.0
C3326 C 0.24682 0.84946 0.74207 0.0
C3327 C 0.24669 0.89661 0.74727 0.0
N3328 N 0.19958 0.80212 0.74206 0.0
N3329 N 0.22338 0.87295 0.74723 0.0
H3330 H 0.28574 0.43705 0.73968 0.0
H3331 H 0.13722 0.35981 0.74960 0.0
H3332 H 0.24719 0.35947 0.74964 0.0
H3333 H 0.17576 0.43739 0.73963 0.0
H3334 H 0.17648 0.35984 0.74959 0.0
H3335 H 0.24647 0.43702 0.73968 0.0
C3336 C 0.27012 0.42168 0.74165 0.0
C3337 C 0.27021 0.39897 0.74457 0.0
C3338 C 0.17622 0.37517 0.74762 0.0
C3339 C 0.22426 0.39921 0.74454 0.0
C3340 C 0.15284 0.37518 0.74762 0.0
C3341 C 0.15274 0.39789 0.74471 0.0
C3342 C 0.19869 0.39765 0.74474 0.0
C3343 C 0.17619 0.42213 0.74159 0.0
C3344 C 0.24674 0.42169 0.74165 0.0
C3345 C 0.24676 0.37473 0.74768 0.0
N3346 N 0.19950 0.42179 0.74164 0.0
N3347 N 0.22345 0.37507 0.74764 0.0
H3348 H 0.61895 0.76678 0.73126 0.0
H3349 H 0.68223 0.90833 0.75803 0.0
H3350 H 0.68251 0.79832 0.75814 0.0
H3351 H 0.61867 0.87679 0.73114 0.0
H3352 H 0.68221 0.86906 0.75802 0.0
H3353 H 0.61897 0.80605 0.73127 0.0
C3354 C 0.63154 0.78102 0.73658 0.0
C3355 C 0.65015 0.77887 0.74445 0.0
C3356 C 0.66965 0.87071 0.75270 0.0
C3357 C 0.64995 0.82484 0.74437 0.0
C3358 C 0.66964 0.89409 0.75270 0.0
C3359 C 0.65103 0.89624 0.74483 0.0
C3360 C 0.65123 0.85027 0.74491 0.0
C3361 C 0.63117 0.87498 0.73643 0.0
C3362 C 0.63153 0.80440 0.73658 0.0
C3363 C 0.67001 0.80013 0.75285 0.0
N3364 N 0.63145 0.85164 0.73655 0.0
N3365 N 0.66973 0.82347 0.75274 0.0
H3366 H 0.54975 0.60922 0.60825 0.0
H3367 H 0.45871 0.48045 0.56914 0.0
H3368 H 0.56895 0.59052 0.56896 0.0
H3369 H 0.43952 0.49915 0.60842 0.0
H3370 H 0.49796 0.51971 0.56915 0.0
H3371 H 0.51050 0.56996 0.60823 0.0
C3372 C 0.54557 0.59753 0.60046 0.0
C3373 C 0.56257 0.60343 0.58896 0.0
C3374 C 0.48629 0.51552 0.57691 0.0
C3375 C 0.51644 0.55742 0.58909 0.0
C3376 C 0.46290 0.49214 0.57692 0.0
C3377 C 0.44590 0.48623 0.58842 0.0
C3378 C 0.49203 0.53225 0.58829 0.0
C3379 C 0.45131 0.50348 0.60069 0.0
C3380 C 0.52218 0.57415 0.60047 0.0
C3381 C 0.55716 0.58618 0.57669 0.0
N3382 N 0.47487 0.52688 0.60052 0.0
N3383 N 0.53360 0.56278 0.57686 0.0
H3384 H 0.43177 0.94891 0.57831 0.0
H3385 H 0.57671 0.01898 0.59908 0.0
H3386 H 0.46672 0.01929 0.59917 0.0
H3387 H 0.54176 0.94861 0.57822 0.0
H3388 H 0.53744 0.01895 0.59908 0.0
H3389 H 0.47104 0.94894 0.57832 0.0
C3390 C 0.44668 0.96286 0.58245 0.0
C3391 C 0.44553 0.98346 0.58855 0.0
C3392 C 0.53842 0.00505 0.59495 0.0
C3393 C 0.49149 0.98323 0.58849 0.0
C3394 C 0.56180 0.00503 0.59495 0.0
C3395 C 0.56295 0.98443 0.58884 0.0
C3396 C 0.51699 0.98466 0.58891 0.0
C3397 C 0.54063 0.96245 0.58232 0.0
C3398 C 0.47006 0.96284 0.58244 0.0
C3399 C 0.46785 0.00544 0.59507 0.0
N3400 N 0.51730 0.96275 0.58241 0.0
N3401 N 0.49118 0.00514 0.59498 0.0
H3402 H 0.10256 0.61849 0.58140 0.0
H3403 H 0.02770 0.47115 0.59597 0.0
H3404 H 0.02737 0.58114 0.59604 0.0
H3405 H 0.10289 0.50851 0.58134 0.0
H3406 H 0.02772 0.51042 0.59597 0.0
H3407 H 0.10254 0.57922 0.58141 0.0
C3408 C 0.08766 0.60310 0.58430 0.0
C3409 C 0.06565 0.60355 0.58859 0.0
C3410 C 0.04258 0.50992 0.59308 0.0
C3411 C 0.06589 0.55759 0.58854 0.0
C3412 C 0.04260 0.48654 0.59307 0.0
C3413 C 0.06461 0.48610 0.58879 0.0
C3414 C 0.06437 0.53205 0.58884 0.0
C3415 C 0.08810 0.50917 0.58422 0.0
C3416 C 0.08768 0.57973 0.58430 0.0
C3417 C 0.04216 0.58047 0.59316 0.0
N3418 N 0.08777 0.53249 0.58428 0.0
N3419 N 0.04249 0.55715 0.59309 0.0
loop_
_geom_bond_atom_site_label_1
_geom_bond_atom_site_label_2
_geom_bond_distance
_geom_bond_site_symmetry_2
_ccdc_geom_bond_type
Co0 O2 2.143 . S
Co0 O8 2.074 1_455 S
Co0 O11 2.093 . S
Co0 O24 2.097 . S
Co0 N41 2.151 . S
Co0 N49 2.214 . S
Co1 O2 2.160 . S
Co1 O7 2.058 1_455 S
Co1 O17 2.057 . S
Co1 O32 2.037 . S
Co1 N36 2.145 1_455 S
Co1 N57 2.257 . S
O2 Co0 2.143 . S
O2 Co1 2.160 . S
C3 O4 1.278 . S
C3 O11 1.224 . S
O4 C3 1.278 . S
C5 O6 1.245 . S
C5 O17 1.232 . S
O6 C5 1.245 . S
O7 Co1 2.058 1_655 S
O7 C33 1.269 . S
O8 Co0 2.074 1_655 S
O8 C33 1.257 . S
H9 C34 0.930 . S
H10 C40 0.930 . S
O11 Co0 2.093 . S
O11 C3 1.224 . S
H12 C44 0.929 1_655 S
H13 C46 0.930 . S
H14 C47 0.930 . S
H15 C45 0.929 1_655 S
H16 C48 0.928 . S
O17 Co1 2.057 . S
O17 C5 1.232 . S
H18 C37 0.929 . S
H19 C38 0.929 . S
H20 C50 0.931 1_655 S
H21 C42 0.929 . S
H22 C51 0.930 . S
H23 C43 0.931 . S
O24 Co0 2.097 . S
O24 C52 1.214 . S
H25 C53 0.929 . S
H26 C54 0.929 . S
H27 C55 0.930 . S
H28 C56 0.929 . S
H29 C58 0.930 . S
H30 C35 0.930 . S
H31 C39 0.930 . S
O32 Co1 2.037 . S
O32 C52 1.234 . S
C33 O7 1.269 . S
C33 O8 1.257 . S
C34 H9 0.930 . S
C34 C37 1.388 . S
C34 C39 1.418 . S
C35 H30 0.930 . S
C35 C38 1.404 . S
C35 C39 1.353 . S
N36 Co1 2.145 1_655 S
N36 C37 1.397 . S
N36 C38 1.334 . S
C37 H18 0.929 . S
C37 C34 1.388 . S
C37 N36 1.397 . S
C38 H19 0.929 . S
C38 C35 1.404 . S
C38 N36 1.334 . S
C39 H31 0.930 . S
C39 C34 1.418 . S
C39 C35 1.353 . S
C40 H10 0.930 . S
C40 N41 1.330 . S
C40 C42 1.446 . S
N41 Co0 2.151 . S
N41 C40 1.330 . S
N41 C45 1.418 . S
C42 H21 0.929 . S
C42 C40 1.446 . S
C42 C43 1.332 . S
C43 H23 0.931 . S
C43 C42 1.332 . S
C43 C44 1.267 . S
C44 H12 0.929 1_455 S
C44 C43 1.267 . S
C44 C45 1.251 . S
C45 H15 0.929 1_455 S
C45 N41 1.418 . S
C45 C44 1.251 . S
C46 H13 0.930 . S
C46 C48 1.406 . S
C46 C51 1.261 . S
C47 H14 0.930 . S
C47 N49 1.325 . S
C47 C50 1.357 . S
C48 H16 0.928 . S
C48 C46 1.406 . S
C48 N49 1.261 . S
N49 Co0 2.214 . S
N49 C47 1.325 . S
N49 C48 1.261 . S
C50 H20 0.931 1_455 S
C50 C47 1.357 . S
C50 C51 1.312 . S
C51 H22 0.930 . S
C51 C46 1.261 . S
C51 C50 1.312 . S
C52 O24 1.214 . S
C52 O32 1.234 . S
C53 H25 0.929 . S
C53 C56 1.391 . S
C53 C58 1.391 . S
C54 H26 0.929 . S
C54 C55 1.390 . S
C54 N57 1.391 . S
C55 H27 0.930 . S
C55 C54 1.390 . S
C55 C56 1.392 . S
C56 H28 0.929 . S
C56 C53 1.391 . S
C56 C55 1.392 . S
N57 Co1 2.257 . S
N57 C54 1.391 . S
N57 C58 1.388 . S
C58 H29 0.930 . S
C58 C53 1.391 . S
C58 N57 1.388 . S
Co59 O61 2.143 . S
Co59 O67 2.074 . S
Co59 O70 2.093 . S
Co59 O83 2.097 . S
Co59 N100 2.151 . S
Co59 N108 2.214 . S
Co60 O61 2.160 . S
Co60 O66 2.058 . S
Co60 O76 2.057 . S
Co60 O91 2.037 . S
Co60 N95 2.145 . S
Co60 N116 2.257 . S
O61 Co59 2.143 . S
O61 Co60 2.160 . S
C62 O63 1.278 . S
C62 O70 1.224 . S
O63 C62 1.278 . S
C64 O65 1.245 . S
C64 O76 1.232 . S
O65 C64 1.245 . S
O66 Co60 2.058 . S
O66 C92 1.269 . S
O67 Co59 2.074 . S
O67 C92 1.257 . S
H68 C93 0.930 . S
H69 C99 0.930 . S
O70 Co59 2.093 . S
O70 C62 1.224 . S
H71 C103 0.929 . S
H72 C105 0.930 . S
H73 C106 0.930 . S
H74 C104 0.929 . S
H75 C107 0.928 . S
O76 Co60 2.057 . S
O76 C64 1.232 . S
H77 C96 0.929 . S
H78 C97 0.929 . S
H79 C109 0.931 . S
H80 C101 0.929 . S
H81 C110 0.930 . S
H82 C102 0.931 . S
O83 Co59 2.097 . S
O83 C111 1.214 . S
H84 C112 0.929 . S
H85 C113 0.929 . S
H86 C114 0.930 . S
H87 C115 0.929 . S
H88 C117 0.930 . S
H89 C94 0.930 . S
H90 C98 0.930 . S
O91 Co60 2.037 . S
O91 C111 1.234 . S
C92 O66 1.269 . S
C92 O67 1.257 . S
C93 H68 0.930 . S
C93 C96 1.388 . S
C93 C98 1.418 . S
C94 H89 0.930 . S
C94 C97 1.404 . S
C94 C98 1.353 . S
N95 Co60 2.145 . S
N95 C96 1.397 . S
N95 C97 1.334 . S
C96 H77 0.929 . S
C96 C93 1.388 . S
C96 N95 1.397 . S
C97 H78 0.929 . S
C97 C94 1.404 . S
C97 N95 1.334 . S
C98 H90 0.930 . S
C98 C93 1.418 . S
C98 C94 1.353 . S
C99 H69 0.930 . S
C99 N100 1.330 . S
C99 C101 1.446 . S
N100 Co59 2.151 . S
N100 C99 1.330 . S
N100 C104 1.418 . S
C101 H80 0.929 . S
C101 C99 1.446 . S
C101 C102 1.332 . S
C102 H82 0.931 . S
C102 C101 1.332 . S
C102 C103 1.267 . S
C103 H71 0.929 . S
C103 C102 1.267 . S
C103 C104 1.251 . S
C104 H74 0.929 . S
C104 N100 1.418 . S
C104 C103 1.251 . S
C105 H72 0.930 . S
C105 C107 1.406 . S
C105 C110 1.261 . S
C106 H73 0.930 . S
C106 N108 1.325 . S
C106 C109 1.357 . S
C107 H75 0.928 . S
C107 C105 1.406 . S
C107 N108 1.261 . S
N108 Co59 2.214 . S
N108 C106 1.325 . S
N108 C107 1.261 . S
C109 H79 0.931 . S
C109 C106 1.357 . S
C109 C110 1.312 . S
C110 H81 0.930 . S
C110 C105 1.261 . S
C110 C109 1.312 . S
C111 O83 1.214 . S
C111 O91 1.234 . S
C112 H84 0.929 . S
C112 C115 1.391 . S
C112 C117 1.391 . S
C113 H85 0.929 . S
C113 C114 1.390 . S
C113 N116 1.391 . S
C114 H86 0.930 . S
C114 C113 1.390 . S
C114 C115 1.392 . S
C115 H87 0.929 . S
C115 C112 1.391 . S
C115 C114 1.392 . S
N116 Co60 2.257 . S
N116 C113 1.391 . S
N116 C117 1.388 . S
C117 H88 0.930 . S
C117 C112 1.391 . S
C117 N116 1.388 . S
Co118 O120 2.143 . S
Co118 O126 2.074 . S
Co118 O129 2.093 1_545 S
Co118 O142 2.097 . S
Co118 N159 2.151 . S
Co118 N167 2.214 . S
Co119 O120 2.160 . S
Co119 O125 2.058 . S
Co119 O135 2.057 . S
Co119 O150 2.037 . S
Co119 N154 2.145 . S
Co119 N175 2.257 . S
O120 Co118 2.143 . S
O120 Co119 2.160 . S
C121 O122 1.278 . S
C121 O129 1.224 . S
O122 C121 1.278 . S
C123 O124 1.245 . S
C123 O135 1.232 . S
O124 C123 1.245 . S
O125 Co119 2.058 . S
O125 C151 1.269 . S
O126 Co118 2.074 . S
O126 C151 1.257 . S
H127 C152 0.930 . S
H128 C158 0.930 1_565 S
O129 Co118 2.093 1_565 S
O129 C121 1.224 . S
H130 C162 0.929 . S
H131 C164 0.930 . S
H132 C165 0.930 . S
H133 C163 0.929 . S
H134 C166 0.928 1_565 S
O135 Co119 2.057 . S
O135 C123 1.232 . S
H136 C155 0.929 . S
H137 C156 0.929 . S
H138 C168 0.931 . S
H139 C160 0.929 1_565 S
H140 C169 0.930 . S
H141 C161 0.931 . S
O142 Co118 2.097 . S
O142 C170 1.214 . S
H143 C171 0.929 . S
H144 C172 0.929 . S
H145 C173 0.930 . S
H146 C174 0.929 . S
H147 C176 0.930 . S
H148 C153 0.930 . S
H149 C157 0.930 . S
O150 Co119 2.037 . S
O150 C170 1.234 . S
C151 O125 1.269 . S
C151 O126 1.257 . S
C152 H127 0.930 . S
C152 C155 1.388 . S
C152 C157 1.418 . S
C153 H148 0.930 . S
C153 C156 1.404 . S
C153 C157 1.353 . S
N154 Co119 2.145 . S
N154 C155 1.397 . S
N154 C156 1.334 . S
C155 H136 0.929 . S
C155 C152 1.388 . S
C155 N154 1.397 . S
C156 H137 0.929 . S
C156 C153 1.404 . S
C156 N154 1.334 . S
C157 H149 0.930 . S
C157 C152 1.418 . S
C157 C153 1.353 . S
C158 H128 0.930 1_545 S
C158 N159 1.330 . S
C158 C160 1.446 . S
N159 Co118 2.151 . S
N159 C158 1.330 . S
N159 C163 1.418 . S
C160 H139 0.929 1_545 S
C160 C158 1.446 . S
C160 C161 1.332 . S
C161 H141 0.931 . S
C161 C160 1.332 . S
C161 C162 1.267 . S
C162 H130 0.929 . S
C162 C161 1.267 . S
C162 C163 1.251 . S
C163 H133 0.929 . S
C163 N159 1.418 . S
C163 C162 1.251 . S
C164 H131 0.930 . S
C164 C166 1.406 . S
C164 C169 1.261 . S
C165 H132 0.930 . S
C165 N167 1.325 . S
C165 C168 1.357 . S
C166 H134 0.928 1_545 S
C166 C164 1.406 . S
C166 N167 1.261 . S
N167 Co118 2.214 . S
N167 C165 1.325 . S
N167 C166 1.261 . S
C168 H138 0.931 . S
C168 C165 1.357 . S
C168 C169 1.312 . S
C169 H140 0.930 . S
C169 C164 1.261 . S
C169 C168 1.312 . S
C170 O142 1.214 . S
C170 O150 1.234 . S
C171 H143 0.929 . S
C171 C174 1.391 . S
C171 C176 1.391 . S
C172 H144 0.929 . S
C172 C173 1.390 1_545 S
C172 N175 1.391 . S
C173 H145 0.930 . S
C173 C172 1.390 1_565 S
C173 C174 1.392 . S
C174 H146 0.929 . S
C174 C171 1.391 . S
C174 C173 1.392 . S
N175 Co119 2.257 . S
N175 C172 1.391 . S
N175 C176 1.388 1_545 S
C176 H147 0.930 . S
C176 C171 1.391 . S
C176 N175 1.388 1_565 S
Co177 O179 2.143 . S
Co177 O185 2.074 1_545 S
Co177 O188 2.093 . S
Co177 O201 2.097 . S
Co177 N218 2.151 . S
Co177 N226 2.214 . S
Co178 O179 2.160 . S
Co178 O184 2.058 1_545 S
Co178 O194 2.057 . S
Co178 O209 2.037 . S
Co178 N213 2.145 1_545 S
Co178 N234 2.257 . S
O179 Co177 2.143 . S
O179 Co178 2.160 . S
C180 O181 1.278 . S
C180 O188 1.224 . S
O181 C180 1.278 . S
C182 O183 1.245 . S
C182 O194 1.232 . S
O183 C182 1.245 . S
O184 Co178 2.058 1_565 S
O184 C210 1.269 . S
O185 Co177 2.074 1_565 S
O185 C210 1.257 . S
H186 C211 0.930 . S
H187 C217 0.930 . S
O188 Co177 2.093 . S
O188 C180 1.224 . S
H189 C221 0.929 1_565 S
H190 C223 0.930 . S
H191 C224 0.930 . S
H192 C222 0.929 1_565 S
H193 C225 0.928 . S
O194 Co178 2.057 . S
O194 C182 1.232 . S
H195 C214 0.929 . S
H196 C215 0.929 . S
H197 C227 0.931 1_565 S
H198 C219 0.929 . S
H199 C228 0.930 . S
H200 C220 0.931 . S
O201 Co177 2.097 . S
O201 C229 1.214 . S
H202 C230 0.929 . S
H203 C231 0.929 . S
H204 C232 0.930 . S
H205 C233 0.929 . S
H206 C235 0.930 . S
H207 C212 0.930 . S
H208 C216 0.930 . S
O209 Co178 2.037 . S
O209 C229 1.234 . S
C210 O184 1.269 . S
C210 O185 1.257 . S
C211 H186 0.930 . S
C211 C214 1.388 . S
C211 C216 1.418 . S
C212 H207 0.930 . S
C212 C215 1.404 . S
C212 C216 1.353 . S
N213 Co178 2.145 1_565 S
N213 C214 1.397 . S
N213 C215 1.334 . S
C214 H195 0.929 . S
C214 C211 1.388 . S
C214 N213 1.397 . S
C215 H196 0.929 . S
C215 C212 1.404 . S
C215 N213 1.334 . S
C216 H208 0.930 . S
C216 C211 1.418 . S
C216 C212 1.353 . S
C217 H187 0.930 . S
C217 N218 1.330 . S
C217 C219 1.446 . S
N218 Co177 2.151 . S
N218 C217 1.330 . S
N218 C222 1.418 . S
C219 H198 0.929 . S
C219 C217 1.446 . S
C219 C220 1.332 . S
C220 H200 0.931 . S
C220 C219 1.332 . S
C220 C221 1.267 . S
C221 H189 0.929 1_545 S
C221 C220 1.267 . S
C221 C222 1.251 . S
C222 H192 0.929 1_545 S
C222 N218 1.418 . S
C222 C221 1.251 . S
C223 H190 0.930 . S
C223 C225 1.406 . S
C223 C228 1.261 . S
C224 H191 0.930 . S
C224 N226 1.325 . S
C224 C227 1.357 . S
C225 H193 0.928 . S
C225 C223 1.406 . S
C225 N226 1.261 . S
N226 Co177 2.214 . S
N226 C224 1.325 . S
N226 C225 1.261 . S
C227 H197 0.931 1_545 S
C227 C224 1.357 . S
C227 C228 1.312 . S
C228 H199 0.930 . S
C228 C223 1.261 . S
C228 C227 1.312 . S
C229 O201 1.214 . S
C229 O209 1.234 . S
C230 H202 0.929 . S
C230 C233 1.391 . S
C230 C235 1.391 . S
C231 H203 0.929 . S
C231 C232 1.390 . S
C231 N234 1.391 . S
C232 H204 0.930 . S
C232 C231 1.390 . S
C232 C233 1.392 . S
C233 H205 0.929 . S
C233 C230 1.391 . S
C233 C232 1.392 . S
N234 Co178 2.257 . S
N234 C231 1.391 . S
N234 C235 1.388 . S
C235 H206 0.930 . S
C235 C230 1.391 . S
C235 N234 1.388 . S
Co236 O238 2.143 . S
Co236 O244 2.074 . S
Co236 O247 2.093 1_455 S
Co236 O260 2.097 . S
Co236 N277 2.151 . S
Co236 N285 2.214 . S
Co237 O238 2.160 . S
Co237 O243 2.058 . S
Co237 O253 2.057 . S
Co237 O268 2.037 . S
Co237 N272 2.145 . S
Co237 N293 2.257 . S
O238 Co236 2.143 . S
O238 Co237 2.160 . S
C239 O240 1.278 . S
C239 O247 1.224 . S
O240 C239 1.278 . S
C241 O242 1.245 . S
C241 O253 1.232 . S
O242 C241 1.245 . S
O243 Co237 2.058 . S
O243 C269 1.269 . S
O244 Co236 2.074 . S
O244 C269 1.257 . S
H245 C270 0.930 . S
H246 C276 0.930 1_655 S
O247 Co236 2.093 1_655 S
O247 C239 1.224 . S
H248 C280 0.929 . S
H249 C282 0.930 . S
H250 C283 0.930 . S
H251 C281 0.929 . S
H252 C284 0.928 1_655 S
O253 Co237 2.057 . S
O253 C241 1.232 . S
H254 C273 0.929 . S
H255 C274 0.929 . S
H256 C286 0.931 . S
H257 C278 0.929 1_655 S
H258 C287 0.930 . S
H259 C279 0.931 . S
O260 Co236 2.097 . S
O260 C288 1.214 . S
H261 C289 0.929 . S
H262 C290 0.929 . S
H263 C291 0.930 . S
H264 C292 0.929 . S
H265 C294 0.930 . S
H266 C271 0.930 . S
H267 C275 0.930 . S
O268 Co237 2.037 . S
O268 C288 1.234 . S
C269 O243 1.269 . S
C269 O244 1.257 . S
C270 H245 0.930 . S
C270 C273 1.388 . S
C270 C275 1.418 . S
C271 H266 0.930 . S
C271 C274 1.404 . S
C271 C275 1.353 . S
N272 Co237 2.145 . S
N272 C273 1.397 . S
N272 C274 1.334 . S
C273 H254 0.929 . S
C273 C270 1.388 . S
C273 N272 1.397 . S
C274 H255 0.929 . S
C274 C271 1.404 . S
C274 N272 1.334 . S
C275 H267 0.930 . S
C275 C270 1.418 . S
C275 C271 1.353 . S
C276 H246 0.930 1_455 S
C276 N277 1.330 . S
C276 C278 1.446 . S
N277 Co236 2.151 . S
N277 C276 1.330 . S
N277 C281 1.418 . S
C278 H257 0.929 1_455 S
C278 C276 1.446 . S
C278 C279 1.332 . S
C279 H259 0.931 . S
C279 C278 1.332 . S
C279 C280 1.267 . S
C280 H248 0.929 . S
C280 C279 1.267 . S
C280 C281 1.251 . S
C281 H251 0.929 . S
C281 N277 1.418 . S
C281 C280 1.251 . S
C282 H249 0.930 . S
C282 C284 1.406 . S
C282 C287 1.261 . S
C283 H250 0.930 . S
C283 N285 1.325 . S
C283 C286 1.357 . S
C284 H252 0.928 1_455 S
C284 C282 1.406 . S
C284 N285 1.261 . S
N285 Co236 2.214 . S
N285 C283 1.325 . S
N285 C284 1.261 . S
C286 H256 0.931 . S
C286 C283 1.357 . S
C286 C287 1.312 . S
C287 H258 0.930 . S
C287 C282 1.261 . S
C287 C286 1.312 . S
C288 O260 1.214 . S
C288 O268 1.234 . S
C289 H261 0.929 . S
C289 C292 1.391 . S
C289 C294 1.391 . S
C290 H262 0.929 . S
C290 C291 1.390 1_455 S
C290 N293 1.391 . S
C291 H263 0.930 . S
C291 C290 1.390 1_655 S
C291 C292 1.392 . S
C292 H264 0.929 . S
C292 C289 1.391 . S
C292 C291 1.392 . S
N293 Co237 2.257 . S
N293 C290 1.391 . S
N293 C294 1.388 1_455 S
C294 H265 0.930 . S
C294 C289 1.391 . S
C294 N293 1.388 1_655 S
Co295 O297 2.143 . S
Co295 O303 2.074 . S
Co295 O306 2.093 . S
Co295 O319 2.097 . S
Co295 N336 2.151 . S
Co295 N344 2.214 . S
Co296 O297 2.160 . S
Co296 O302 2.058 . S
Co296 O312 2.057 . S
Co296 O327 2.037 . S
Co296 N331 2.145 . S
Co296 N352 2.257 . S
O297 Co295 2.143 . S
O297 Co296 2.160 . S
C298 O299 1.278 . S
C298 O306 1.224 . S
O299 C298 1.278 . S
C300 O301 1.245 . S
C300 O312 1.232 . S
O301 C300 1.245 . S
O302 Co296 2.058 . S
O302 C328 1.269 . S
O303 Co295 2.074 . S
O303 C328 1.257 . S
H304 C329 0.930 . S
H305 C335 0.930 . S
O306 Co295 2.093 . S
O306 C298 1.224 . S
H307 C339 0.929 . S
H308 C341 0.930 . S
H309 C342 0.930 . S
H310 C340 0.929 . S
H311 C343 0.928 . S
O312 Co296 2.057 . S
O312 C300 1.232 . S
H313 C332 0.929 . S
H314 C333 0.929 . S
H315 C345 0.931 . S
H316 C337 0.929 . S
H317 C346 0.930 . S
H318 C338 0.931 . S
O319 Co295 2.097 . S
O319 C347 1.214 . S
H320 C348 0.929 . S
H321 C349 0.929 . S
H322 C350 0.930 . S
H323 C351 0.929 . S
H324 C353 0.930 . S
H325 C330 0.930 . S
H326 C334 0.930 . S
O327 Co296 2.037 . S
O327 C347 1.234 . S
C328 O302 1.269 . S
C328 O303 1.257 . S
C329 H304 0.930 . S
C329 C332 1.388 . S
C329 C334 1.418 . S
C330 H325 0.930 . S
C330 C333 1.404 . S
C330 C334 1.353 . S
N331 Co296 2.145 . S
N331 C332 1.397 . S
N331 C333 1.334 . S
C332 H313 0.929 . S
C332 C329 1.388 . S
C332 N331 1.397 . S
C333 H314 0.929 . S
C333 C330 1.404 . S
C333 N331 1.334 . S
C334 H326 0.930 . S
C334 C329 1.418 . S
C334 C330 1.353 . S
C335 H305 0.930 . S
C335 N336 1.330 . S
C335 C337 1.446 . S
N336 Co295 2.151 . S
N336 C335 1.330 . S
N336 C340 1.418 . S
C337 H316 0.929 . S
C337 C335 1.446 . S
C337 C338 1.332 . S
C338 H318 0.931 . S
C338 C337 1.332 . S
C338 C339 1.267 . S
C339 H307 0.929 . S
C339 C338 1.267 . S
C339 C340 1.251 . S
C340 H310 0.929 . S
C340 N336 1.418 . S
C340 C339 1.251 . S
C341 H308 0.930 . S
C341 C343 1.406 . S
C341 C346 1.261 . S
C342 H309 0.930 . S
C342 N344 1.325 . S
C342 C345 1.357 . S
C343 H311 0.928 . S
C343 C341 1.406 . S
C343 N344 1.261 . S
N344 Co295 2.214 . S
N344 C342 1.325 . S
N344 C343 1.261 . S
C345 H315 0.931 . S
C345 C342 1.357 . S
C345 C346 1.312 . S
C346 H317 0.930 . S
C346 C341 1.261 . S
C346 C345 1.312 . S
C347 O319 1.214 . S
C347 O327 1.234 . S
C348 H320 0.929 . S
C348 C351 1.391 . S
C348 C353 1.391 . S
C349 H321 0.929 . S
C349 C350 1.390 . S
C349 N352 1.391 . S
C350 H322 0.930 . S
C350 C349 1.390 . S
C350 C351 1.392 . S
C351 H323 0.929 . S
C351 C348 1.391 . S
C351 C350 1.392 . S
N352 Co296 2.257 . S
N352 C349 1.391 . S
N352 C353 1.388 . S
C353 H324 0.930 . S
C353 C348 1.391 . S
C353 N352 1.388 . S
Co354 O356 2.143 . S
Co354 O362 2.074 . S
Co354 O365 2.093 1_455 S
Co354 O378 2.097 . S
Co354 N395 2.151 . S
Co354 N403 2.214 . S
Co355 O356 2.160 . S
Co355 O361 2.058 . S
Co355 O371 2.057 . S
Co355 O386 2.037 . S
Co355 N390 2.145 . S
Co355 N411 2.257 . S
O356 Co354 2.143 . S
O356 Co355 2.160 . S
C357 O358 1.278 . S
C357 O365 1.224 . S
O358 C357 1.278 . S
C359 O360 1.245 . S
C359 O371 1.232 . S
O360 C359 1.245 . S
O361 Co355 2.058 . S
O361 C387 1.269 . S
O362 Co354 2.074 . S
O362 C387 1.257 . S
H363 C388 0.930 . S
H364 C394 0.930 1_655 S
O365 Co354 2.093 1_655 S
O365 C357 1.224 . S
H366 C398 0.929 . S
H367 C400 0.930 . S
H368 C401 0.930 . S
H369 C399 0.929 . S
H370 C402 0.928 1_655 S
O371 Co355 2.057 . S
O371 C359 1.232 . S
H372 C391 0.929 . S
H373 C392 0.929 . S
H374 C404 0.931 . S
H375 C396 0.929 1_655 S
H376 C405 0.930 . S
H377 C397 0.931 . S
O378 Co354 2.097 . S
O378 C406 1.214 . S
H379 C407 0.929 . S
H380 C408 0.929 . S
H381 C409 0.930 . S
H382 C410 0.929 . S
H383 C412 0.930 . S
H384 C389 0.930 . S
H385 C393 0.930 . S
O386 Co355 2.037 . S
O386 C406 1.234 . S
C387 O361 1.269 . S
C387 O362 1.257 . S
C388 H363 0.930 . S
C388 C391 1.388 . S
C388 C393 1.418 . S
C389 H384 0.930 . S
C389 C392 1.404 . S
C389 C393 1.353 . S
N390 Co355 2.145 . S
N390 C391 1.397 . S
N390 C392 1.334 . S
C391 H372 0.929 . S
C391 C388 1.388 . S
C391 N390 1.397 . S
C392 H373 0.929 . S
C392 C389 1.404 . S
C392 N390 1.334 . S
C393 H385 0.930 . S
C393 C388 1.418 . S
C393 C389 1.353 . S
C394 H364 0.930 1_455 S
C394 N395 1.330 . S
C394 C396 1.446 . S
N395 Co354 2.151 . S
N395 C394 1.330 . S
N395 C399 1.418 . S
C396 H375 0.929 1_455 S
C396 C394 1.446 . S
C396 C397 1.332 . S
C397 H377 0.931 . S
C397 C396 1.332 . S
C397 C398 1.267 . S
C398 H366 0.929 . S
C398 C397 1.267 . S
C398 C399 1.251 . S
C399 H369 0.929 . S
C399 N395 1.418 . S
C399 C398 1.251 . S
C400 H367 0.930 . S
C400 C402 1.406 . S
C400 C405 1.261 . S
C401 H368 0.930 . S
C401 N403 1.325 . S
C401 C404 1.357 . S
C402 H370 0.928 1_455 S
C402 C400 1.406 . S
C402 N403 1.261 . S
N403 Co354 2.214 . S
N403 C401 1.325 . S
N403 C402 1.261 . S
C404 H374 0.931 . S
C404 C401 1.357 . S
C404 C405 1.312 . S
C405 H376 0.930 . S
C405 C400 1.261 . S
C405 C404 1.312 . S
C406 O378 1.214 . S
C406 O386 1.234 . S
C407 H379 0.929 . S
C407 C410 1.391 . S
C407 C412 1.391 . S
C408 H380 0.929 . S
C408 C409 1.390 1_455 S
C408 N411 1.391 . S
C409 H381 0.930 . S
C409 C408 1.390 1_655 S
C409 C410 1.392 . S
C410 H382 0.929 . S
C410 C407 1.391 . S
C410 C409 1.392 . S
N411 Co355 2.257 . S
N411 C408 1.391 . S
N411 C412 1.388 1_455 S
C412 H383 0.930 . S
C412 C407 1.391 . S
C412 N411 1.388 1_655 S
Co413 O415 2.143 . S
Co413 O421 2.074 . S
Co413 O424 2.093 . S
Co413 O437 2.097 . S
Co413 N454 2.151 . S
Co413 N462 2.214 . S
Co414 O415 2.160 . S
Co414 O420 2.058 . S
Co414 O430 2.057 . S
Co414 O445 2.037 . S
Co414 N449 2.145 . S
Co414 N470 2.257 . S
O415 Co413 2.143 . S
O415 Co414 2.160 . S
C416 O417 1.278 . S
C416 O424 1.224 . S
O417 C416 1.278 . S
C418 O419 1.245 . S
C418 O430 1.232 . S
O419 C418 1.245 . S
O420 Co414 2.058 . S
O420 C446 1.269 . S
O421 Co413 2.074 . S
O421 C446 1.257 . S
H422 C447 0.930 . S
H423 C453 0.930 . S
O424 Co413 2.093 . S
O424 C416 1.224 . S
H425 C457 0.929 . S
H426 C459 0.930 . S
H427 C460 0.930 . S
H428 C458 0.929 . S
H429 C461 0.928 . S
O430 Co414 2.057 . S
O430 C418 1.232 . S
H431 C450 0.929 . S
H432 C451 0.929 . S
H433 C463 0.931 . S
H434 C455 0.929 . S
H435 C464 0.930 . S
H436 C456 0.931 . S
O437 Co413 2.097 . S
O437 C465 1.214 . S
H438 C466 0.929 . S
H439 C467 0.929 . S
H440 C468 0.930 . S
H441 C469 0.929 . S
H442 C471 0.930 . S
H443 C448 0.930 . S
H444 C452 0.930 . S
O445 Co414 2.037 . S
O445 C465 1.234 . S
C446 O420 1.269 . S
C446 O421 1.257 . S
C447 H422 0.930 . S
C447 C450 1.388 . S
C447 C452 1.418 . S
C448 H443 0.930 . S
C448 C451 1.404 . S
C448 C452 1.353 . S
N449 Co414 2.145 . S
N449 C450 1.397 . S
N449 C451 1.334 . S
C450 H431 0.929 . S
C450 C447 1.388 . S
C450 N449 1.397 . S
C451 H432 0.929 . S
C451 C448 1.404 . S
C451 N449 1.334 . S
C452 H444 0.930 . S
C452 C447 1.418 . S
C452 C448 1.353 . S
C453 H423 0.930 . S
C453 N454 1.330 . S
C453 C455 1.446 . S
N454 Co413 2.151 . S
N454 C453 1.330 . S
N454 C458 1.418 . S
C455 H434 0.929 . S
C455 C453 1.446 . S
C455 C456 1.332 . S
C456 H436 0.931 . S
C456 C455 1.332 . S
C456 C457 1.267 . S
C457 H425 0.929 . S
C457 C456 1.267 . S
C457 C458 1.251 . S
C458 H428 0.929 . S
C458 N454 1.418 . S
C458 C457 1.251 . S
C459 H426 0.930 . S
C459 C461 1.406 . S
C459 C464 1.261 . S
C460 H427 0.930 . S
C460 N462 1.325 . S
C460 C463 1.357 . S
C461 H429 0.928 . S
C461 C459 1.406 . S
C461 N462 1.261 . S
N462 Co413 2.214 . S
N462 C460 1.325 . S
N462 C461 1.261 . S
C463 H433 0.931 . S
C463 C460 1.357 . S
C463 C464 1.312 . S
C464 H435 0.930 . S
C464 C459 1.261 . S
C464 C463 1.312 . S
C465 O437 1.214 . S
C465 O445 1.234 . S
C466 H438 0.929 . S
C466 C469 1.391 . S
C466 C471 1.391 . S
C467 H439 0.929 . S
C467 C468 1.390 . S
C467 N470 1.391 . S
C468 H440 0.930 . S
C468 C467 1.390 . S
C468 C469 1.392 . S
C469 H441 0.929 . S
C469 C466 1.391 . S
C469 C468 1.392 . S
N470 Co414 2.257 . S
N470 C467 1.391 . S
N470 C471 1.388 . S
C471 H442 0.930 . S
C471 C466 1.391 . S
C471 N470 1.388 . S
Co472 O474 2.143 . S
Co472 O480 2.074 1_545 S
Co472 O483 2.093 . S
Co472 O496 2.097 . S
Co472 N513 2.151 . S
Co472 N521 2.214 . S
Co473 O474 2.160 . S
Co473 O479 2.058 1_545 S
Co473 O489 2.057 . S
Co473 O504 2.037 . S
Co473 N508 2.145 1_545 S
Co473 N529 2.257 . S
O474 Co472 2.143 . S
O474 Co473 2.160 . S
C475 O476 1.278 . S
C475 O483 1.224 . S
O476 C475 1.278 . S
C477 O478 1.245 . S
C477 O489 1.232 . S
O478 C477 1.245 . S
O479 Co473 2.058 1_565 S
O479 C505 1.269 . S
O480 Co472 2.074 1_565 S
O480 C505 1.257 . S
H481 C506 0.930 . S
H482 C512 0.930 . S
O483 Co472 2.093 . S
O483 C475 1.224 . S
H484 C516 0.929 1_565 S
H485 C518 0.930 . S
H486 C519 0.930 . S
H487 C517 0.929 1_565 S
H488 C520 0.928 . S
O489 Co473 2.057 . S
O489 C477 1.232 . S
H490 C509 0.929 . S
H491 C510 0.929 . S
H492 C522 0.931 1_565 S
H493 C514 0.929 . S
H494 C523 0.930 . S
H495 C515 0.931 . S
O496 Co472 2.097 . S
O496 C524 1.214 . S
H497 C525 0.929 . S
H498 C526 0.929 . S
H499 C527 0.930 . S
H500 C528 0.929 . S
H501 C530 0.930 . S
H502 C507 0.930 . S
H503 C511 0.930 . S
O504 Co473 2.037 . S
O504 C524 1.234 . S
C505 O479 1.269 . S
C505 O480 1.257 . S
C506 H481 0.930 . S
C506 C509 1.388 . S
C506 C511 1.418 . S
C507 H502 0.930 . S
C507 C510 1.404 . S
C507 C511 1.353 . S
N508 Co473 2.145 1_565 S
N508 C509 1.397 . S
N508 C510 1.334 . S
C509 H490 0.929 . S
C509 C506 1.388 . S
C509 N508 1.397 . S
C510 H491 0.929 . S
C510 C507 1.404 . S
C510 N508 1.334 . S
C511 H503 0.930 . S
C511 C506 1.418 . S
C511 C507 1.353 . S
C512 H482 0.930 . S
C512 N513 1.330 . S
C512 C514 1.446 . S
N513 Co472 2.151 . S
N513 C512 1.330 . S
N513 C517 1.418 . S
C514 H493 0.929 . S
C514 C512 1.446 . S
C514 C515 1.332 . S
C515 H495 0.931 . S
C515 C514 1.332 . S
C515 C516 1.267 . S
C516 H484 0.929 1_545 S
C516 C515 1.267 . S
C516 C517 1.251 . S
C517 H487 0.929 1_545 S
C517 N513 1.418 . S
C517 C516 1.251 . S
C518 H485 0.930 . S
C518 C520 1.406 . S
C518 C523 1.261 . S
C519 H486 0.930 . S
C519 N521 1.325 . S
C519 C522 1.357 . S
C520 H488 0.928 . S
C520 C518 1.406 . S
C520 N521 1.261 . S
N521 Co472 2.214 . S
N521 C519 1.325 . S
N521 C520 1.261 . S
C522 H492 0.931 1_545 S
C522 C519 1.357 . S
C522 C523 1.312 . S
C523 H494 0.930 . S
C523 C518 1.261 . S
C523 C522 1.312 . S
C524 O496 1.214 . S
C524 O504 1.234 . S
C525 H497 0.929 . S
C525 C528 1.391 . S
C525 C530 1.391 . S
C526 H498 0.929 . S
C526 C527 1.390 . S
C526 N529 1.391 . S
C527 H499 0.930 . S
C527 C526 1.390 . S
C527 C528 1.392 . S
C528 H500 0.929 . S
C528 C525 1.391 . S
C528 C527 1.392 . S
N529 Co473 2.257 . S
N529 C526 1.391 . S
N529 C530 1.388 . S
C530 H501 0.930 . S
C530 C525 1.391 . S
C530 N529 1.388 . S
Co531 O533 2.143 . S
Co531 O539 2.074 . S
Co531 O542 2.093 1_545 S
Co531 O555 2.097 . S
Co531 N572 2.151 . S
Co531 N580 2.214 . S
Co532 O533 2.160 . S
Co532 O538 2.058 . S
Co532 O548 2.057 . S
Co532 O563 2.037 . S
Co532 N567 2.145 . S
Co532 N588 2.257 . S
O533 Co531 2.143 . S
O533 Co532 2.160 . S
C534 O535 1.278 . S
C534 O542 1.224 . S
O535 C534 1.278 . S
C536 O537 1.245 . S
C536 O548 1.232 . S
O537 C536 1.245 . S
O538 Co532 2.058 . S
O538 C564 1.269 . S
O539 Co531 2.074 . S
O539 C564 1.257 . S
H540 C565 0.930 . S
H541 C571 0.930 1_565 S
O542 Co531 2.093 1_565 S
O542 C534 1.224 . S
H543 C575 0.929 . S
H544 C577 0.930 . S
H545 C578 0.930 . S
H546 C576 0.929 . S
H547 C579 0.928 1_565 S
O548 Co532 2.057 . S
O548 C536 1.232 . S
H549 C568 0.929 . S
H550 C569 0.929 . S
H551 C581 0.931 . S
H552 C573 0.929 1_565 S
H553 C582 0.930 . S
H554 C574 0.931 . S
O555 Co531 2.097 . S
O555 C583 1.214 . S
H556 C584 0.929 . S
H557 C585 0.929 . S
H558 C586 0.930 . S
H559 C587 0.929 . S
H560 C589 0.930 . S
H561 C566 0.930 . S
H562 C570 0.930 . S
O563 Co532 2.037 . S
O563 C583 1.234 . S
C564 O538 1.269 . S
C564 O539 1.257 . S
C565 H540 0.930 . S
C565 C568 1.388 . S
C565 C570 1.418 . S
C566 H561 0.930 . S
C566 C569 1.404 . S
C566 C570 1.353 . S
N567 Co532 2.145 . S
N567 C568 1.397 . S
N567 C569 1.334 . S
C568 H549 0.929 . S
C568 C565 1.388 . S
C568 N567 1.397 . S
C569 H550 0.929 . S
C569 C566 1.404 . S
C569 N567 1.334 . S
C570 H562 0.930 . S
C570 C565 1.418 . S
C570 C566 1.353 . S
C571 H541 0.930 1_545 S
C571 N572 1.330 . S
C571 C573 1.446 . S
N572 Co531 2.151 . S
N572 C571 1.330 . S
N572 C576 1.418 . S
C573 H552 0.929 1_545 S
C573 C571 1.446 . S
C573 C574 1.332 . S
C574 H554 0.931 . S
C574 C573 1.332 . S
C574 C575 1.267 . S
C575 H543 0.929 . S
C575 C574 1.267 . S
C575 C576 1.251 . S
C576 H546 0.929 . S
C576 N572 1.418 . S
C576 C575 1.251 . S
C577 H544 0.930 . S
C577 C579 1.406 . S
C577 C582 1.261 . S
C578 H545 0.930 . S
C578 N580 1.325 . S
C578 C581 1.357 . S
C579 H547 0.928 1_545 S
C579 C577 1.406 . S
C579 N580 1.261 . S
N580 Co531 2.214 . S
N580 C578 1.325 . S
N580 C579 1.261 . S
C581 H551 0.931 . S
C581 C578 1.357 . S
C581 C582 1.312 . S
C582 H553 0.930 . S
C582 C577 1.261 . S
C582 C581 1.312 . S
C583 O555 1.214 . S
C583 O563 1.234 . S
C584 H556 0.929 . S
C584 C587 1.391 . S
C584 C589 1.391 . S
C585 H557 0.929 . S
C585 C586 1.390 1_545 S
C585 N588 1.391 . S
C586 H558 0.930 . S
C586 C585 1.390 1_565 S
C586 C587 1.392 . S
C587 H559 0.929 . S
C587 C584 1.391 . S
C587 C586 1.392 . S
N588 Co532 2.257 . S
N588 C585 1.391 . S
N588 C589 1.388 1_545 S
C589 H560 0.930 . S
C589 C584 1.391 . S
C589 N588 1.388 1_565 S
Co590 O592 2.143 . S
Co590 O598 2.074 1_455 S
Co590 O601 2.093 . S
Co590 O614 2.097 . S
Co590 N631 2.151 . S
Co590 N639 2.214 . S
Co591 O592 2.160 . S
Co591 O597 2.058 1_455 S
Co591 O607 2.057 . S
Co591 O622 2.037 . S
Co591 N626 2.145 1_455 S
Co591 N647 2.257 . S
O592 Co590 2.143 . S
O592 Co591 2.160 . S
C593 O594 1.278 . S
C593 O601 1.224 . S
O594 C593 1.278 . S
C595 O596 1.245 . S
C595 O607 1.232 . S
O596 C595 1.245 . S
O597 Co591 2.058 1_655 S
O597 C623 1.269 . S
O598 Co590 2.074 1_655 S
O598 C623 1.257 . S
H599 C624 0.930 . S
H600 C630 0.930 . S
O601 Co590 2.093 . S
O601 C593 1.224 . S
H602 C634 0.929 1_655 S
H603 C636 0.930 . S
H604 C637 0.930 . S
H605 C635 0.929 1_655 S
H606 C638 0.928 . S
O607 Co591 2.057 . S
O607 C595 1.232 . S
H608 C627 0.929 . S
H609 C628 0.929 . S
H610 C640 0.931 1_655 S
H611 C632 0.929 . S
H612 C641 0.930 . S
H613 C633 0.931 . S
O614 Co590 2.097 . S
O614 C642 1.214 . S
H615 C643 0.929 . S
H616 C644 0.929 . S
H617 C645 0.930 . S
H618 C646 0.929 . S
H619 C648 0.930 . S
H620 C625 0.930 . S
H621 C629 0.930 . S
O622 Co591 2.037 . S
O622 C642 1.234 . S
C623 O597 1.269 . S
C623 O598 1.257 . S
C624 H599 0.930 . S
C624 C627 1.388 . S
C624 C629 1.418 . S
C625 H620 0.930 . S
C625 C628 1.404 . S
C625 C629 1.353 . S
N626 Co591 2.145 1_655 S
N626 C627 1.397 . S
N626 C628 1.334 . S
C627 H608 0.929 . S
C627 C624 1.388 . S
C627 N626 1.397 . S
C628 H609 0.929 . S
C628 C625 1.404 . S
C628 N626 1.334 . S
C629 H621 0.930 . S
C629 C624 1.418 . S
C629 C625 1.353 . S
C630 H600 0.930 . S
C630 N631 1.330 . S
C630 C632 1.446 . S
N631 Co590 2.151 . S
N631 C630 1.330 . S
N631 C635 1.418 . S
C632 H611 0.929 . S
C632 C630 1.446 . S
C632 C633 1.332 . S
C633 H613 0.931 . S
C633 C632 1.332 . S
C633 C634 1.267 . S
C634 H602 0.929 1_455 S
C634 C633 1.267 . S
C634 C635 1.251 . S
C635 H605 0.929 1_455 S
C635 N631 1.418 . S
C635 C634 1.251 . S
C636 H603 0.930 . S
C636 C638 1.406 . S
C636 C641 1.261 . S
C637 H604 0.930 . S
C637 N639 1.325 . S
C637 C640 1.357 . S
C638 H606 0.928 . S
C638 C636 1.406 . S
C638 N639 1.261 . S
N639 Co590 2.214 . S
N639 C637 1.325 . S
N639 C638 1.261 . S
C640 H610 0.931 1_455 S
C640 C637 1.357 . S
C640 C641 1.312 . S
C641 H612 0.930 . S
C641 C636 1.261 . S
C641 C640 1.312 . S
C642 O614 1.214 . S
C642 O622 1.234 . S
C643 H615 0.929 . S
C643 C646 1.391 . S
C643 C648 1.391 . S
C644 H616 0.929 . S
C644 C645 1.390 . S
C644 N647 1.391 . S
C645 H617 0.930 . S
C645 C644 1.390 . S
C645 C646 1.392 . S
C646 H618 0.929 . S
C646 C643 1.391 . S
C646 C645 1.392 . S
N647 Co591 2.257 . S
N647 C644 1.391 . S
N647 C648 1.388 . S
C648 H619 0.930 . S
C648 C643 1.391 . S
C648 N647 1.388 . S
Co649 O651 2.143 . S
Co649 O657 2.074 . S
Co649 O660 2.093 . S
Co649 O673 2.097 . S
Co649 N690 2.151 . S
Co649 N698 2.214 . S
Co650 O651 2.160 . S
Co650 O656 2.058 . S
Co650 O666 2.057 . S
Co650 O681 2.037 . S
Co650 N685 2.145 . S
Co650 N706 2.257 . S
O651 Co649 2.143 . S
O651 Co650 2.160 . S
C652 O653 1.278 . S
C652 O660 1.224 . S
O653 C652 1.278 . S
C654 O655 1.245 . S
C654 O666 1.232 . S
O655 C654 1.245 . S
O656 Co650 2.058 . S
O656 C682 1.269 . S
O657 Co649 2.074 . S
O657 C682 1.257 . S
H658 C683 0.930 . S
H659 C689 0.930 . S
O660 Co649 2.093 . S
O660 C652 1.224 . S
H661 C693 0.929 . S
H662 C695 0.930 . S
H663 C696 0.930 . S
H664 C694 0.929 . S
H665 C697 0.928 . S
O666 Co650 2.057 . S
O666 C654 1.232 . S
H667 C686 0.929 . S
H668 C687 0.929 . S
H669 C699 0.931 . S
H670 C691 0.929 . S
H671 C700 0.930 . S
H672 C692 0.931 . S
O673 Co649 2.097 . S
O673 C701 1.214 . S
H674 C702 0.929 . S
H675 C703 0.929 . S
H676 C704 0.930 . S
H677 C705 0.929 . S
H678 C707 0.930 . S
H679 C684 0.930 . S
H680 C688 0.930 . S
O681 Co650 2.037 . S
O681 C701 1.234 . S
C682 O656 1.269 . S
C682 O657 1.257 . S
C683 H658 0.930 . S
C683 C686 1.388 . S
C683 C688 1.418 . S
C684 H679 0.930 . S
C684 C687 1.404 . S
C684 C688 1.353 . S
N685 Co650 2.145 . S
N685 C686 1.397 . S
N685 C687 1.334 . S
C686 H667 0.929 . S
C686 C683 1.388 . S
C686 N685 1.397 . S
C687 H668 0.929 . S
C687 C684 1.404 . S
C687 N685 1.334 . S
C688 H680 0.930 . S
C688 C683 1.418 . S
C688 C684 1.353 . S
C689 H659 0.930 . S
C689 N690 1.330 . S
C689 C691 1.446 . S
N690 Co649 2.151 . S
N690 C689 1.330 . S
N690 C694 1.418 . S
C691 H670 0.929 . S
C691 C689 1.446 . S
C691 C692 1.332 . S
C692 H672 0.931 . S
C692 C691 1.332 . S
C692 C693 1.267 . S
C693 H661 0.929 . S
C693 C692 1.267 . S
C693 C694 1.251 . S
C694 H664 0.929 . S
C694 N690 1.418 . S
C694 C693 1.251 . S
C695 H662 0.930 . S
C695 C697 1.406 . S
C695 C700 1.261 . S
C696 H663 0.930 . S
C696 N698 1.325 . S
C696 C699 1.357 . S
C697 H665 0.928 . S
C697 C695 1.406 . S
C697 N698 1.261 . S
N698 Co649 2.214 . S
N698 C696 1.325 . S
N698 C697 1.261 . S
C699 H669 0.931 . S
C699 C696 1.357 . S
C699 C700 1.312 . S
C700 H671 0.930 . S
C700 C695 1.261 . S
C700 C699 1.312 . S
C701 O673 1.214 . S
C701 O681 1.234 . S
C702 H674 0.929 . S
C702 C705 1.391 . S
C702 C707 1.391 . S
C703 H675 0.929 . S
C703 C704 1.390 . S
C703 N706 1.391 . S
C704 H676 0.930 . S
C704 C703 1.390 . S
C704 C705 1.392 . S
C705 H677 0.929 . S
C705 C702 1.391 . S
C705 C704 1.392 . S
N706 Co650 2.257 . S
N706 C703 1.391 . S
N706 C707 1.388 . S
C707 H678 0.930 . S
C707 C702 1.391 . S
C707 N706 1.388 . S
Co708 O710 2.143 . S
Co708 O716 2.074 . S
Co708 O719 2.093 . S
Co708 O732 2.097 . S
Co708 N749 2.151 . S
Co708 N757 2.214 . S
Co709 O710 2.160 . S
Co709 O715 2.058 . S
Co709 O725 2.057 . S
Co709 O740 2.037 . S
Co709 N744 2.145 . S
Co709 N765 2.257 . S
O710 Co708 2.143 . S
O710 Co709 2.160 . S
C711 O712 1.278 . S
C711 O719 1.224 . S
O712 C711 1.278 . S
C713 O714 1.245 . S
C713 O725 1.232 . S
O714 C713 1.245 . S
O715 Co709 2.058 . S
O715 C741 1.269 . S
O716 Co708 2.074 . S
O716 C741 1.257 . S
H717 C742 0.930 . S
H718 C748 0.930 . S
O719 Co708 2.093 . S
O719 C711 1.224 . S
H720 C752 0.929 . S
H721 C754 0.930 . S
H722 C755 0.930 . S
H723 C753 0.929 . S
H724 C756 0.928 . S
O725 Co709 2.057 . S
O725 C713 1.232 . S
H726 C745 0.929 . S
H727 C746 0.929 . S
H728 C758 0.931 . S
H729 C750 0.929 . S
H730 C759 0.930 . S
H731 C751 0.931 . S
O732 Co708 2.097 . S
O732 C760 1.214 . S
H733 C761 0.929 . S
H734 C762 0.929 . S
H735 C763 0.930 . S
H736 C764 0.929 . S
H737 C766 0.930 . S
H738 C743 0.930 . S
H739 C747 0.930 . S
O740 Co709 2.037 . S
O740 C760 1.234 . S
C741 O715 1.269 . S
C741 O716 1.257 . S
C742 H717 0.930 . S
C742 C745 1.388 . S
C742 C747 1.418 . S
C743 H738 0.930 . S
C743 C746 1.404 . S
C743 C747 1.353 . S
N744 Co709 2.145 . S
N744 C745 1.397 . S
N744 C746 1.334 . S
C745 H726 0.929 . S
C745 C742 1.388 . S
C745 N744 1.397 . S
C746 H727 0.929 . S
C746 C743 1.404 . S
C746 N744 1.334 . S
C747 H739 0.930 . S
C747 C742 1.418 . S
C747 C743 1.353 . S
C748 H718 0.930 . S
C748 N749 1.330 . S
C748 C750 1.446 . S
N749 Co708 2.151 . S
N749 C748 1.330 . S
N749 C753 1.418 . S
C750 H729 0.929 . S
C750 C748 1.446 . S
C750 C751 1.332 . S
C751 H731 0.931 . S
C751 C750 1.332 . S
C751 C752 1.267 . S
C752 H720 0.929 . S
C752 C751 1.267 . S
C752 C753 1.251 . S
C753 H723 0.929 . S
C753 N749 1.418 . S
C753 C752 1.251 . S
C754 H721 0.930 . S
C754 C756 1.406 . S
C754 C759 1.261 . S
C755 H722 0.930 . S
C755 N757 1.325 . S
C755 C758 1.357 . S
C756 H724 0.928 . S
C756 C754 1.406 . S
C756 N757 1.261 . S
N757 Co708 2.214 . S
N757 C755 1.325 . S
N757 C756 1.261 . S
C758 H728 0.931 . S
C758 C755 1.357 . S
C758 C759 1.312 . S
C759 H730 0.930 . S
C759 C754 1.261 . S
C759 C758 1.312 . S
C760 O732 1.214 . S
C760 O740 1.234 . S
C761 H733 0.929 . S
C761 C764 1.391 . S
C761 C766 1.391 . S
C762 H734 0.929 . S
C762 C763 1.390 . S
C762 N765 1.391 . S
C763 H735 0.930 . S
C763 C762 1.390 . S
C763 C764 1.392 . S
C764 H736 0.929 . S
C764 C761 1.391 . S
C764 C763 1.392 . S
N765 Co709 2.257 . S
N765 C762 1.391 . S
N765 C766 1.388 . S
C766 H737 0.930 . S
C766 C761 1.391 . S
C766 N765 1.388 . S
Co767 O769 2.143 . S
Co767 O775 2.074 . S
Co767 O778 2.093 . S
Co767 O791 2.097 . S
Co767 N808 2.151 . S
Co767 N816 2.214 . S
Co768 O769 2.160 . S
Co768 O774 2.058 . S
Co768 O784 2.057 . S
Co768 O799 2.037 . S
Co768 N803 2.158 . S
Co768 N824 2.257 . S
O769 Co767 2.143 . S
O769 Co768 2.160 . S
C770 O771 1.278 . S
C770 O778 1.224 . S
O771 C770 1.278 . S
C772 O773 1.245 . S
C772 O784 1.232 . S
O773 C772 1.245 . S
O774 Co768 2.058 . S
O774 C800 1.269 . S
O775 Co767 2.074 . S
O775 C800 1.257 . S
H776 C801 0.930 . S
H777 C807 0.930 . S
O778 Co767 2.093 . S
O778 C770 1.224 . S
H779 C811 0.929 . S
H780 C813 0.930 . S
H781 C814 0.930 . S
H782 C812 0.929 . S
H783 C815 0.928 . S
O784 Co768 2.057 . S
O784 C772 1.232 . S
H785 C804 0.929 1_545 S
H786 C805 0.929 . S
H787 C817 0.931 . S
H788 C809 0.929 . S
H789 C818 0.930 . S
H790 C810 0.931 . S
O791 Co767 2.097 . S
O791 C819 1.214 . S
H792 C820 0.929 . S
H793 C821 0.929 . S
H794 C822 0.930 . S
H795 C823 0.929 . S
H796 C825 0.930 . S
H797 C802 0.930 . S
H798 C806 0.930 . S
O799 Co768 2.037 . S
O799 C819 1.234 . S
C800 O774 1.269 . S
C800 O775 1.257 . S
C801 H776 0.930 . S
C801 C804 1.388 . S
C801 C806 1.418 . S
C802 H797 0.930 . S
C802 C805 1.404 . S
C802 C806 1.353 . S
N803 Co768 2.158 . S
N803 C804 1.390 1_545 S
N803 C805 1.327 1_545 S
C804 H785 0.929 1_565 S
C804 C801 1.388 . S
C804 N803 1.390 1_565 S
C805 H786 0.929 . S
C805 C802 1.404 . S
C805 N803 1.327 1_565 S
C806 H798 0.930 . S
C806 C801 1.418 . S
C806 C802 1.353 . S
C807 H777 0.930 . S
C807 N808 1.330 . S
C807 C809 1.446 . S
N808 Co767 2.151 . S
N808 C807 1.330 . S
N808 C812 1.418 . S
C809 H788 0.929 . S
C809 C807 1.446 . S
C809 C810 1.332 . S
C810 H790 0.931 . S
C810 C809 1.332 . S
C810 C811 1.267 . S
C811 H779 0.929 . S
C811 C810 1.267 . S
C811 C812 1.251 . S
C812 H782 0.929 . S
C812 N808 1.418 . S
C812 C811 1.251 . S
C813 H780 0.930 . S
C813 C815 1.406 . S
C813 C818 1.261 . S
C814 H781 0.930 . S
C814 N816 1.325 . S
C814 C817 1.357 . S
C815 H783 0.928 . S
C815 C813 1.406 . S
C815 N816 1.261 . S
N816 Co767 2.214 . S
N816 C814 1.325 . S
N816 C815 1.261 . S
C817 H787 0.931 . S
C817 C814 1.357 . S
C817 C818 1.312 . S
C818 H789 0.930 . S
C818 C813 1.261 . S
C818 C817 1.312 . S
C819 O791 1.214 . S
C819 O799 1.234 . S
C820 H792 0.929 . S
C820 C823 1.391 . S
C820 C825 1.391 . S
C821 H793 0.929 . S
C821 C822 1.390 . S
C821 N824 1.391 . S
C822 H794 0.930 . S
C822 C821 1.390 . S
C822 C823 1.392 . S
C823 H795 0.929 . S
C823 C820 1.391 . S
C823 C822 1.392 . S
N824 Co768 2.257 . S
N824 C821 1.391 . S
N824 C825 1.388 . S
C825 H796 0.930 . S
C825 C820 1.391 . S
C825 N824 1.388 . S
Co826 O828 2.143 . S
Co826 O834 2.074 . S
Co826 O837 2.093 . S
Co826 O850 2.097 . S
Co826 N867 2.151 . S
Co826 N875 2.214 . S
Co827 O828 2.160 1_455 S
Co827 O833 2.056 1_455 S
Co827 O843 2.057 . S
Co827 O858 2.037 . S
Co827 N862 2.145 . S
Co827 N883 2.257 . S
O828 Co826 2.143 . S
O828 Co827 2.160 1_655 S
C829 O830 1.278 . S
C829 O837 1.224 . S
O830 C829 1.278 . S
C831 O832 1.245 1_455 S
C831 O843 1.232 . S
O832 C831 1.245 1_655 S
O833 Co827 2.056 1_655 S
O833 C859 1.272 . S
O834 Co826 2.074 . S
O834 C859 1.257 . S
H835 C860 0.930 . S
H836 C866 0.930 . S
O837 Co826 2.093 . S
O837 C829 1.224 . S
H838 C870 0.929 . S
H839 C872 0.930 . S
H840 C873 0.930 . S
H841 C871 0.929 . S
H842 C874 0.928 . S
O843 Co827 2.057 . S
O843 C831 1.232 . S
H844 C863 0.929 . S
H845 C864 0.929 . S
H846 C876 0.931 . S
H847 C868 0.929 . S
H848 C877 0.930 . S
H849 C869 0.931 . S
O850 Co826 2.097 . S
O850 C878 1.214 . S
H851 C879 0.929 . S
H852 C880 0.929 . S
H853 C881 0.930 . S
H854 C882 0.929 . S
H855 C884 0.930 1_655 S
H856 C861 0.930 . S
H857 C865 0.930 . S
O858 Co827 2.037 . S
O858 C878 1.234 1_455 S
C859 O833 1.272 . S
C859 O834 1.257 . S
C860 H835 0.930 . S
C860 C863 1.388 . S
C860 C865 1.418 . S
C861 H856 0.930 . S
C861 C864 1.404 . S
C861 C865 1.353 . S
N862 Co827 2.145 . S
N862 C863 1.397 . S
N862 C864 1.334 . S
C863 H844 0.929 . S
C863 C860 1.388 . S
C863 N862 1.397 . S
C864 H845 0.929 . S
C864 C861 1.404 . S
C864 N862 1.334 . S
C865 H857 0.930 . S
C865 C860 1.418 . S
C865 C861 1.353 . S
C866 H836 0.930 . S
C866 N867 1.330 . S
C866 C868 1.446 . S
N867 Co826 2.151 . S
N867 C866 1.330 . S
N867 C871 1.418 . S
C868 H847 0.929 . S
C868 C866 1.446 . S
C868 C869 1.332 . S
C869 H849 0.931 . S
C869 C868 1.332 . S
C869 C870 1.267 . S
C870 H838 0.929 . S
C870 C869 1.267 . S
C870 C871 1.251 . S
C871 H841 0.929 . S
C871 N867 1.418 . S
C871 C870 1.251 . S
C872 H839 0.930 . S
C872 C874 1.406 . S
C872 C877 1.261 . S
C873 H840 0.930 . S
C873 N875 1.325 . S
C873 C876 1.357 . S
C874 H842 0.928 . S
C874 C872 1.406 . S
C874 N875 1.261 . S
N875 Co826 2.214 . S
N875 C873 1.325 . S
N875 C874 1.261 . S
C876 H846 0.931 . S
C876 C873 1.357 . S
C876 C877 1.312 . S
C877 H848 0.930 . S
C877 C872 1.261 . S
C877 C876 1.312 . S
C878 O850 1.214 . S
C878 O858 1.234 1_655 S
C879 H851 0.929 . S
C879 C882 1.391 . S
C879 C884 1.391 . S
C880 H852 0.929 . S
C880 C881 1.390 . S
C880 N883 1.391 . S
C881 H853 0.930 . S
C881 C880 1.390 . S
C881 C882 1.392 . S
C882 H854 0.929 . S
C882 C879 1.391 . S
C882 C881 1.392 . S
N883 Co827 2.257 . S
N883 C880 1.391 . S
N883 C884 1.388 . S
C884 H855 0.930 1_455 S
C884 C879 1.391 . S
C884 N883 1.388 . S
Co885 O887 2.143 . S
Co885 O893 2.074 . S
Co885 O896 2.093 . S
Co885 O909 2.097 . S
Co885 N926 2.151 . S
Co885 N934 2.214 . S
Co886 O887 2.160 . S
Co886 O892 2.058 . S
Co886 O902 2.072 . S
Co886 O917 2.037 . S
Co886 N921 2.145 1_655 S
Co886 N942 2.257 1_655 S
O887 Co885 2.143 . S
O887 Co886 2.160 . S
C888 O889 1.278 1_655 S
C888 O896 1.224 . S
O889 C888 1.278 1_455 S
C890 O891 1.245 . S
C890 O902 1.256 . S
O891 C890 1.245 . S
O892 Co886 2.058 . S
O892 C918 1.269 . S
O893 Co885 2.074 . S
O893 C918 1.257 . S
H894 C919 0.930 . S
H895 C925 0.930 . S
O896 Co885 2.093 . S
O896 C888 1.224 . S
H897 C929 0.929 . S
H898 C931 0.930 . S
H899 C932 0.930 . S
H900 C930 0.929 . S
H901 C933 0.928 . S
O902 Co886 2.072 . S
O902 C890 1.256 . S
H903 C922 0.929 . S
H904 C923 0.929 . S
H905 C935 0.931 . S
H906 C927 0.929 . S
H907 C936 0.930 . S
H908 C928 0.931 . S
O909 Co885 2.097 . S
O909 C937 1.214 . S
H910 C938 0.929 . S
H911 C939 0.929 . S
H912 C940 0.930 . S
H913 C941 0.929 . S
H914 C943 0.930 . S
H915 C920 0.930 . S
H916 C924 0.930 . S
O917 Co886 2.037 . S
O917 C937 1.234 . S
C918 O892 1.269 . S
C918 O893 1.257 . S
C919 H894 0.930 . S
C919 C922 1.388 1_455 S
C919 C924 1.418 . S
C920 H915 0.930 . S
C920 C923 1.404 . S
C920 C924 1.353 . S
N921 Co886 2.145 1_455 S
N921 C922 1.397 1_455 S
N921 C923 1.334 . S
C922 H903 0.929 . S
C922 C919 1.388 1_655 S
C922 N921 1.397 1_655 S
C923 H904 0.929 . S
C923 C920 1.404 . S
C923 N921 1.334 . S
C924 H916 0.930 . S
C924 C919 1.418 . S
C924 C920 1.353 . S
C925 H895 0.930 . S
C925 N926 1.330 . S
C925 C927 1.446 . S
N926 Co885 2.151 . S
N926 C925 1.330 . S
N926 C930 1.418 . S
C927 H906 0.929 . S
C927 C925 1.446 . S
C927 C928 1.332 . S
C928 H908 0.931 . S
C928 C927 1.332 . S
C928 C929 1.267 . S
C929 H897 0.929 . S
C929 C928 1.267 . S
C929 C930 1.251 . S
C930 H900 0.929 . S
C930 N926 1.418 . S
C930 C929 1.251 . S
C931 H898 0.930 . S
C931 C933 1.406 . S
C931 C936 1.261 . S
C932 H899 0.930 . S
C932 N934 1.325 . S
C932 C935 1.357 . S
C933 H901 0.928 . S
C933 C931 1.406 . S
C933 N934 1.261 . S
N934 Co885 2.214 . S
N934 C932 1.325 . S
N934 C933 1.261 . S
C935 H905 0.931 . S
C935 C932 1.357 . S
C935 C936 1.312 . S
C936 H907 0.930 . S
C936 C931 1.261 . S
C936 C935 1.312 . S
C937 O909 1.214 . S
C937 O917 1.234 . S
C938 H910 0.929 . S
C938 C941 1.391 . S
C938 C943 1.391 . S
C939 H911 0.929 . S
C939 C940 1.390 . S
C939 N942 1.391 . S
C940 H912 0.930 . S
C940 C939 1.390 . S
C940 C941 1.392 . S
C941 H913 0.929 . S
C941 C938 1.391 . S
C941 C940 1.392 . S
N942 Co886 2.257 1_455 S
N942 C939 1.391 . S
N942 C943 1.388 . S
C943 H914 0.930 . S
C943 C938 1.391 . S
C943 N942 1.388 . S
Co944 O946 2.143 . S
Co944 O952 2.074 . S
Co944 O955 2.093 . S
Co944 O968 2.097 . S
Co944 N985 2.151 . S
Co944 N993 2.214 . S
Co945 O946 2.160 . S
Co945 O951 2.058 . S
Co945 O961 2.057 . S
Co945 O976 2.037 . S
Co945 N980 2.145 . S
Co945 N1001 2.257 . S
O946 Co944 2.143 . S
O946 Co945 2.160 . S
C947 O948 1.278 . S
C947 O955 1.224 . S
O948 C947 1.278 . S
C949 O950 1.245 . S
C949 O961 1.232 . S
O950 C949 1.245 . S
O951 Co945 2.058 . S
O951 C977 1.269 . S
O952 Co944 2.074 . S
O952 C977 1.257 . S
H953 C978 0.930 . S
H954 C984 0.930 . S
O955 Co944 2.093 . S
O955 C947 1.224 . S
H956 C988 0.929 . S
H957 C990 0.930 . S
H958 C991 0.930 . S
H959 C989 0.929 . S
H960 C992 0.928 . S
O961 Co945 2.057 . S
O961 C949 1.232 . S
H962 C981 0.929 . S
H963 C982 0.929 . S
H964 C994 0.931 . S
H965 C986 0.929 . S
H966 C995 0.930 . S
H967 C987 0.931 . S
O968 Co944 2.097 . S
O968 C996 1.214 . S
H969 C997 0.929 . S
H970 C998 0.929 . S
H971 C999 0.930 . S
H972 C1000 0.929 . S
H973 C1002 0.930 . S
H974 C979 0.930 . S
H975 C983 0.930 . S
O976 Co945 2.037 . S
O976 C996 1.234 . S
C977 O951 1.269 . S
C977 O952 1.257 . S
C978 H953 0.930 . S
C978 C981 1.388 . S
C978 C983 1.418 . S
C979 H974 0.930 . S
C979 C982 1.404 . S
C979 C983 1.353 . S
N980 Co945 2.145 . S
N980 C981 1.397 . S
N980 C982 1.334 . S
C981 H962 0.929 . S
C981 C978 1.388 . S
C981 N980 1.397 . S
C982 H963 0.929 . S
C982 C979 1.404 . S
C982 N980 1.334 . S
C983 H975 0.930 . S
C983 C978 1.418 . S
C983 C979 1.353 . S
C984 H954 0.930 . S
C984 N985 1.330 . S
C984 C986 1.446 . S
N985 Co944 2.151 . S
N985 C984 1.330 . S
N985 C989 1.418 . S
C986 H965 0.929 . S
C986 C984 1.446 . S
C986 C987 1.332 . S
C987 H967 0.931 . S
C987 C986 1.332 . S
C987 C988 1.267 . S
C988 H956 0.929 . S
C988 C987 1.267 . S
C988 C989 1.251 . S
C989 H959 0.929 . S
C989 N985 1.418 . S
C989 C988 1.251 . S
C990 H957 0.930 . S
C990 C992 1.406 . S
C990 C995 1.261 . S
C991 H958 0.930 . S
C991 N993 1.325 . S
C991 C994 1.357 . S
C992 H960 0.928 . S
C992 C990 1.406 . S
C992 N993 1.261 . S
N993 Co944 2.214 . S
N993 C991 1.325 . S
N993 C992 1.261 . S
C994 H964 0.931 . S
C994 C991 1.357 . S
C994 C995 1.312 . S
C995 H966 0.930 . S
C995 C990 1.261 . S
C995 C994 1.312 . S
C996 O968 1.214 . S
C996 O976 1.234 . S
C997 H969 0.929 . S
C997 C1000 1.391 . S
C997 C1002 1.391 . S
C998 H970 0.929 . S
C998 C999 1.390 . S
C998 N1001 1.391 . S
C999 H971 0.930 . S
C999 C998 1.390 . S
C999 C1000 1.392 . S
C1000 H972 0.929 . S
C1000 C997 1.391 . S
C1000 C999 1.392 . S
N1001 Co945 2.257 . S
N1001 C998 1.391 . S
N1001 C1002 1.388 . S
C1002 H973 0.930 . S
C1002 C997 1.391 . S
C1002 N1001 1.388 . S
Co1003 O1005 2.143 . S
Co1003 O1011 2.074 . S
Co1003 O1014 2.093 . S
Co1003 O1027 2.097 . S
Co1003 N1044 2.151 . S
Co1003 N1052 2.214 . S
Co1004 O1005 2.160 . S
Co1004 O1010 2.058 . S
Co1004 O1020 2.057 . S
Co1004 O1035 2.037 . S
Co1004 N1039 2.145 . S
Co1004 N1060 2.257 . S
O1005 Co1003 2.143 . S
O1005 Co1004 2.160 . S
C1006 O1007 1.278 . S
C1006 O1014 1.224 . S
O1007 C1006 1.278 . S
C1008 O1009 1.245 . S
C1008 O1020 1.232 . S
O1009 C1008 1.245 . S
O1010 Co1004 2.058 . S
O1010 C1036 1.269 . S
O1011 Co1003 2.074 . S
O1011 C1036 1.257 . S
H1012 C1037 0.930 . S
H1013 C1043 0.930 . S
O1014 Co1003 2.093 . S
O1014 C1006 1.224 . S
H1015 C1047 0.929 . S
H1016 C1049 0.930 . S
H1017 C1050 0.930 . S
H1018 C1048 0.929 . S
H1019 C1051 0.928 . S
O1020 Co1004 2.057 . S
O1020 C1008 1.232 . S
H1021 C1040 0.929 . S
H1022 C1041 0.929 . S
H1023 C1053 0.931 . S
H1024 C1045 0.929 . S
H1025 C1054 0.930 . S
H1026 C1046 0.931 . S
O1027 Co1003 2.097 . S
O1027 C1055 1.214 . S
H1028 C1056 0.929 . S
H1029 C1057 0.929 . S
H1030 C1058 0.930 . S
H1031 C1059 0.929 . S
H1032 C1061 0.930 . S
H1033 C1038 0.930 . S
H1034 C1042 0.930 . S
O1035 Co1004 2.037 . S
O1035 C1055 1.234 . S
C1036 O1010 1.269 . S
C1036 O1011 1.257 . S
C1037 H1012 0.930 . S
C1037 C1040 1.388 . S
C1037 C1042 1.418 . S
C1038 H1033 0.930 . S
C1038 C1041 1.404 . S
C1038 C1042 1.353 . S
N1039 Co1004 2.145 . S
N1039 C1040 1.397 . S
N1039 C1041 1.334 . S
C1040 H1021 0.929 . S
C1040 C1037 1.388 . S
C1040 N1039 1.397 . S
C1041 H1022 0.929 . S
C1041 C1038 1.404 . S
C1041 N1039 1.334 . S
C1042 H1034 0.930 . S
C1042 C1037 1.418 . S
C1042 C1038 1.353 . S
C1043 H1013 0.930 . S
C1043 N1044 1.330 . S
C1043 C1045 1.446 . S
N1044 Co1003 2.151 . S
N1044 C1043 1.330 . S
N1044 C1048 1.418 . S
C1045 H1024 0.929 . S
C1045 C1043 1.446 . S
C1045 C1046 1.332 . S
C1046 H1026 0.931 . S
C1046 C1045 1.332 . S
C1046 C1047 1.267 . S
C1047 H1015 0.929 . S
C1047 C1046 1.267 . S
C1047 C1048 1.251 . S
C1048 H1018 0.929 . S
C1048 N1044 1.418 . S
C1048 C1047 1.251 . S
C1049 H1016 0.930 . S
C1049 C1051 1.406 . S
C1049 C1054 1.261 . S
C1050 H1017 0.930 . S
C1050 N1052 1.325 . S
C1050 C1053 1.357 . S
C1051 H1019 0.928 . S
C1051 C1049 1.406 . S
C1051 N1052 1.261 . S
N1052 Co1003 2.214 . S
N1052 C1050 1.325 . S
N1052 C1051 1.261 . S
C1053 H1023 0.931 . S
C1053 C1050 1.357 . S
C1053 C1054 1.312 . S
C1054 H1025 0.930 . S
C1054 C1049 1.261 . S
C1054 C1053 1.312 . S
C1055 O1027 1.214 . S
C1055 O1035 1.234 . S
C1056 H1028 0.929 . S
C1056 C1059 1.391 . S
C1056 C1061 1.391 1_565 S
C1057 H1029 0.929 . S
C1057 C1058 1.390 1_545 S
C1057 N1060 1.391 . S
C1058 H1030 0.930 . S
C1058 C1057 1.390 1_565 S
C1058 C1059 1.392 . S
C1059 H1031 0.929 . S
C1059 C1056 1.391 . S
C1059 C1058 1.392 . S
N1060 Co1004 2.257 . S
N1060 C1057 1.391 . S
N1060 C1061 1.388 . S
C1061 H1032 0.930 . S
C1061 C1056 1.391 1_545 S
C1061 N1060 1.388 . S
Co1062 O1064 2.143 . S
Co1062 O1070 2.074 . S
Co1062 O1073 2.093 . S
Co1062 O1086 2.097 . S
Co1062 N1103 2.151 . S
Co1062 N1111 2.214 . S
Co1063 O1064 2.160 . S
Co1063 O1069 2.058 . S
Co1063 O1079 2.057 . S
Co1063 O1094 2.037 . S
Co1063 N1098 2.145 . S
Co1063 N1119 2.257 . S
O1064 Co1062 2.143 . S
O1064 Co1063 2.160 . S
C1065 O1066 1.278 . S
C1065 O1073 1.224 . S
O1066 C1065 1.278 . S
C1067 O1068 1.245 . S
C1067 O1079 1.232 . S
O1068 C1067 1.245 . S
O1069 Co1063 2.058 . S
O1069 C1095 1.269 . S
O1070 Co1062 2.074 . S
O1070 C1095 1.257 . S
H1071 C1096 0.930 . S
H1072 C1102 0.930 . S
O1073 Co1062 2.093 . S
O1073 C1065 1.224 . S
H1074 C1106 0.929 . S
H1075 C1108 0.930 . S
H1076 C1109 0.930 . S
H1077 C1107 0.929 . S
H1078 C1110 0.928 . S
O1079 Co1063 2.057 . S
O1079 C1067 1.232 . S
H1080 C1099 0.929 . S
H1081 C1100 0.929 . S
H1082 C1112 0.931 . S
H1083 C1104 0.929 . S
H1084 C1113 0.930 . S
H1085 C1105 0.931 . S
O1086 Co1062 2.097 . S
O1086 C1114 1.214 . S
H1087 C1115 0.929 . S
H1088 C1116 0.929 . S
H1089 C1117 0.930 . S
H1090 C1118 0.929 . S
H1091 C1120 0.930 . S
H1092 C1097 0.930 . S
H1093 C1101 0.930 . S
O1094 Co1063 2.037 . S
O1094 C1114 1.234 . S
C1095 O1069 1.269 . S
C1095 O1070 1.257 . S
C1096 H1071 0.930 . S
C1096 C1099 1.388 . S
C1096 C1101 1.418 . S
C1097 H1092 0.930 . S
C1097 C1100 1.404 . S
C1097 C1101 1.353 . S
N1098 Co1063 2.145 . S
N1098 C1099 1.397 . S
N1098 C1100 1.334 . S
C1099 H1080 0.929 . S
C1099 C1096 1.388 . S
C1099 N1098 1.397 . S
C1100 H1081 0.929 . S
C1100 C1097 1.404 . S
C1100 N1098 1.334 . S
C1101 H1093 0.930 . S
C1101 C1096 1.418 . S
C1101 C1097 1.353 . S
C1102 H1072 0.930 . S
C1102 N1103 1.330 . S
C1102 C1104 1.446 . S
N1103 Co1062 2.151 . S
N1103 C1102 1.330 . S
N1103 C1107 1.418 . S
C1104 H1083 0.929 . S
C1104 C1102 1.446 . S
C1104 C1105 1.332 . S
C1105 H1085 0.931 . S
C1105 C1104 1.332 . S
C1105 C1106 1.267 . S
C1106 H1074 0.929 . S
C1106 C1105 1.267 . S
C1106 C1107 1.251 . S
C1107 H1077 0.929 . S
C1107 N1103 1.418 . S
C1107 C1106 1.251 . S
C1108 H1075 0.930 . S
C1108 C1110 1.406 . S
C1108 C1113 1.261 . S
C1109 H1076 0.930 . S
C1109 N1111 1.325 . S
C1109 C1112 1.357 . S
C1110 H1078 0.928 . S
C1110 C1108 1.406 . S
C1110 N1111 1.261 . S
N1111 Co1062 2.214 . S
N1111 C1109 1.325 . S
N1111 C1110 1.261 . S
C1112 H1082 0.931 . S
C1112 C1109 1.357 . S
C1112 C1113 1.312 . S
C1113 H1084 0.930 . S
C1113 C1108 1.261 . S
C1113 C1112 1.312 . S
C1114 O1086 1.214 . S
C1114 O1094 1.234 . S
C1115 H1087 0.929 . S
C1115 C1118 1.391 . S
C1115 C1120 1.391 1_565 S
C1116 H1088 0.929 . S
C1116 C1117 1.390 1_545 S
C1116 N1119 1.391 . S
C1117 H1089 0.930 . S
C1117 C1116 1.390 1_565 S
C1117 C1118 1.392 . S
C1118 H1090 0.929 . S
C1118 C1115 1.391 . S
C1118 C1117 1.392 . S
N1119 Co1063 2.257 . S
N1119 C1116 1.391 . S
N1119 C1120 1.388 . S
C1120 H1091 0.930 . S
C1120 C1115 1.391 1_545 S
C1120 N1119 1.388 . S
Co1121 O1123 2.143 . S
Co1121 O1129 2.074 . S
Co1121 O1132 2.093 . S
Co1121 O1145 2.097 . S
Co1121 N1162 2.151 . S
Co1121 N1170 2.214 . S
Co1122 O1123 2.160 . S
Co1122 O1128 2.058 . S
Co1122 O1138 2.066 . S
Co1122 O1153 2.037 . S
Co1122 N1157 2.145 1_655 S
Co1122 N1178 2.257 1_655 S
O1123 Co1121 2.143 . S
O1123 Co1122 2.160 . S
C1124 O1125 1.278 1_655 S
C1124 O1132 1.224 . S
O1125 C1124 1.278 1_455 S
C1126 O1127 1.245 . S
C1126 O1138 1.231 . S
O1127 C1126 1.245 . S
O1128 Co1122 2.058 . S
O1128 C1154 1.269 . S
O1129 Co1121 2.074 . S
O1129 C1154 1.257 . S
H1130 C1155 0.930 . S
H1131 C1161 0.930 . S
O1132 Co1121 2.093 . S
O1132 C1124 1.224 . S
H1133 C1165 0.929 . S
H1134 C1167 0.930 . S
H1135 C1168 0.930 . S
H1136 C1166 0.929 . S
H1137 C1169 0.928 . S
O1138 Co1122 2.066 . S
O1138 C1126 1.231 . S
H1139 C1158 0.929 . S
H1140 C1159 0.929 . S
H1141 C1171 0.931 . S
H1142 C1163 0.929 . S
H1143 C1172 0.930 . S
H1144 C1164 0.931 . S
O1145 Co1121 2.097 . S
O1145 C1173 1.214 . S
H1146 C1174 0.929 . S
H1147 C1175 0.929 . S
H1148 C1176 0.930 . S
H1149 C1177 0.929 . S
H1150 C1179 0.930 . S
H1151 C1156 0.930 . S
H1152 C1160 0.930 . S
O1153 Co1122 2.037 . S
O1153 C1173 1.234 . S
C1154 O1128 1.269 . S
C1154 O1129 1.257 . S
C1155 H1130 0.930 . S
C1155 C1158 1.388 1_455 S
C1155 C1160 1.418 . S
C1156 H1151 0.930 . S
C1156 C1159 1.404 . S
C1156 C1160 1.353 . S
N1157 Co1122 2.145 1_455 S
N1157 C1158 1.397 1_455 S
N1157 C1159 1.334 . S
C1158 H1139 0.929 . S
C1158 C1155 1.388 1_655 S
C1158 N1157 1.397 1_655 S
C1159 H1140 0.929 . S
C1159 C1156 1.404 . S
C1159 N1157 1.334 . S
C1160 H1152 0.930 . S
C1160 C1155 1.418 . S
C1160 C1156 1.353 . S
C1161 H1131 0.930 . S
C1161 N1162 1.330 . S
C1161 C1163 1.446 . S
N1162 Co1121 2.151 . S
N1162 C1161 1.330 . S
N1162 C1166 1.418 . S
C1163 H1142 0.929 . S
C1163 C1161 1.446 . S
C1163 C1164 1.332 . S
C1164 H1144 0.931 . S
C1164 C1163 1.332 . S
C1164 C1165 1.267 . S
C1165 H1133 0.929 . S
C1165 C1164 1.267 . S
C1165 C1166 1.251 . S
C1166 H1136 0.929 . S
C1166 N1162 1.418 . S
C1166 C1165 1.251 . S
C1167 H1134 0.930 . S
C1167 C1169 1.406 . S
C1167 C1172 1.261 . S
C1168 H1135 0.930 . S
C1168 N1170 1.325 . S
C1168 C1171 1.357 . S
C1169 H1137 0.928 . S
C1169 C1167 1.406 . S
C1169 N1170 1.261 . S
N1170 Co1121 2.214 . S
N1170 C1168 1.325 . S
N1170 C1169 1.261 . S
C1171 H1141 0.931 . S
C1171 C1168 1.357 . S
C1171 C1172 1.312 . S
C1172 H1143 0.930 . S
C1172 C1167 1.261 . S
C1172 C1171 1.312 . S
C1173 O1145 1.214 . S
C1173 O1153 1.234 . S
C1174 H1146 0.929 . S
C1174 C1177 1.391 . S
C1174 C1179 1.391 . S
C1175 H1147 0.929 . S
C1175 C1176 1.390 . S
C1175 N1178 1.391 . S
C1176 H1148 0.930 . S
C1176 C1175 1.390 . S
C1176 C1177 1.392 . S
C1177 H1149 0.929 . S
C1177 C1174 1.391 . S
C1177 C1176 1.392 . S
N1178 Co1122 2.257 1_455 S
N1178 C1175 1.391 . S
N1178 C1179 1.388 . S
C1179 H1150 0.930 . S
C1179 C1174 1.391 . S
C1179 N1178 1.388 . S
Co1180 O1182 2.143 . S
Co1180 O1188 2.074 . S
Co1180 O1191 2.093 . S
Co1180 O1204 2.097 . S
Co1180 N1221 2.151 . S
Co1180 N1229 2.214 . S
Co1181 O1182 2.160 . S
Co1181 O1187 2.058 . S
Co1181 O1197 2.057 . S
Co1181 O1212 2.037 . S
Co1181 N1216 2.145 . S
Co1181 N1237 2.257 . S
O1182 Co1180 2.143 . S
O1182 Co1181 2.160 . S
C1183 O1184 1.278 . S
C1183 O1191 1.224 . S
O1184 C1183 1.278 . S
C1185 O1186 1.245 . S
C1185 O1197 1.232 . S
O1186 C1185 1.245 . S
O1187 Co1181 2.058 . S
O1187 C1213 1.269 . S
O1188 Co1180 2.074 . S
O1188 C1213 1.257 . S
H1189 C1214 0.930 . S
H1190 C1220 0.930 . S
O1191 Co1180 2.093 . S
O1191 C1183 1.224 . S
H1192 C1224 0.929 . S
H1193 C1226 0.930 . S
H1194 C1227 0.930 . S
H1195 C1225 0.929 . S
H1196 C1228 0.928 . S
O1197 Co1181 2.057 . S
O1197 C1185 1.232 . S
H1198 C1217 0.929 . S
H1199 C1218 0.929 . S
H1200 C1230 0.931 . S
H1201 C1222 0.929 . S
H1202 C1231 0.930 . S
H1203 C1223 0.931 . S
O1204 Co1180 2.097 . S
O1204 C1232 1.214 . S
H1205 C1233 0.929 . S
H1206 C1234 0.929 . S
H1207 C1235 0.930 . S
H1208 C1236 0.929 . S
H1209 C1238 0.930 . S
H1210 C1215 0.930 . S
H1211 C1219 0.930 . S
O1212 Co1181 2.037 . S
O1212 C1232 1.234 . S
C1213 O1187 1.269 . S
C1213 O1188 1.257 . S
C1214 H1189 0.930 . S
C1214 C1217 1.388 . S
C1214 C1219 1.418 . S
C1215 H1210 0.930 . S
C1215 C1218 1.404 . S
C1215 C1219 1.353 . S
N1216 Co1181 2.145 . S
N1216 C1217 1.397 . S
N1216 C1218 1.334 . S
C1217 H1198 0.929 . S
C1217 C1214 1.388 . S
C1217 N1216 1.397 . S
C1218 H1199 0.929 . S
C1218 C1215 1.404 . S
C1218 N1216 1.334 . S
C1219 H1211 0.930 . S
C1219 C1214 1.418 . S
C1219 C1215 1.353 . S
C1220 H1190 0.930 . S
C1220 N1221 1.330 . S
C1220 C1222 1.446 . S
N1221 Co1180 2.151 . S
N1221 C1220 1.330 . S
N1221 C1225 1.418 . S
C1222 H1201 0.929 . S
C1222 C1220 1.446 . S
C1222 C1223 1.332 . S
C1223 H1203 0.931 . S
C1223 C1222 1.332 . S
C1223 C1224 1.267 . S
C1224 H1192 0.929 . S
C1224 C1223 1.267 . S
C1224 C1225 1.251 . S
C1225 H1195 0.929 . S
C1225 N1221 1.418 . S
C1225 C1224 1.251 . S
C1226 H1193 0.930 . S
C1226 C1228 1.406 . S
C1226 C1231 1.261 . S
C1227 H1194 0.930 . S
C1227 N1229 1.325 . S
C1227 C1230 1.357 . S
C1228 H1196 0.928 . S
C1228 C1226 1.406 . S
C1228 N1229 1.261 . S
N1229 Co1180 2.214 . S
N1229 C1227 1.325 . S
N1229 C1228 1.261 . S
C1230 H1200 0.931 . S
C1230 C1227 1.357 . S
C1230 C1231 1.312 . S
C1231 H1202 0.930 . S
C1231 C1226 1.261 . S
C1231 C1230 1.312 . S
C1232 O1204 1.214 . S
C1232 O1212 1.234 . S
C1233 H1205 0.929 . S
C1233 C1236 1.391 . S
C1233 C1238 1.391 . S
C1234 H1206 0.929 . S
C1234 C1235 1.390 . S
C1234 N1237 1.391 . S
C1235 H1207 0.930 . S
C1235 C1234 1.390 . S
C1235 C1236 1.392 . S
C1236 H1208 0.929 . S
C1236 C1233 1.391 . S
C1236 C1235 1.392 . S
N1237 Co1181 2.257 . S
N1237 C1234 1.391 . S
N1237 C1238 1.388 . S
C1238 H1209 0.930 . S
C1238 C1233 1.391 . S
C1238 N1237 1.388 . S
Co1239 O1241 2.143 . S
Co1239 O1247 2.074 . S
Co1239 O1250 2.093 . S
Co1239 O1263 2.097 . S
Co1239 N1280 2.151 . S
Co1239 N1288 2.214 . S
Co1240 O1241 2.160 . S
Co1240 O1246 2.058 . S
Co1240 O1256 2.057 . S
Co1240 O1271 2.037 . S
Co1240 N1275 2.145 . S
Co1240 N1296 2.257 . S
O1241 Co1239 2.143 . S
O1241 Co1240 2.160 . S
C1242 O1243 1.278 . S
C1242 O1250 1.224 . S
O1243 C1242 1.278 . S
C1244 O1245 1.245 . S
C1244 O1256 1.232 . S
O1245 C1244 1.245 . S
O1246 Co1240 2.058 . S
O1246 C1272 1.269 . S
O1247 Co1239 2.074 . S
O1247 C1272 1.257 . S
H1248 C1273 0.930 . S
H1249 C1279 0.930 . S
O1250 Co1239 2.093 . S
O1250 C1242 1.224 . S
H1251 C1283 0.929 . S
H1252 C1285 0.930 . S
H1253 C1286 0.930 . S
H1254 C1284 0.929 . S
H1255 C1287 0.928 . S
O1256 Co1240 2.057 . S
O1256 C1244 1.232 . S
H1257 C1276 0.929 . S
H1258 C1277 0.929 . S
H1259 C1289 0.931 . S
H1260 C1281 0.929 . S
H1261 C1290 0.930 . S
H1262 C1282 0.931 . S
O1263 Co1239 2.097 . S
O1263 C1291 1.214 . S
H1264 C1292 0.929 . S
H1265 C1293 0.929 . S
H1266 C1294 0.930 . S
H1267 C1295 0.929 . S
H1268 C1297 0.930 . S
H1269 C1274 0.930 . S
H1270 C1278 0.930 . S
O1271 Co1240 2.037 . S
O1271 C1291 1.234 . S
C1272 O1246 1.269 . S
C1272 O1247 1.257 . S
C1273 H1248 0.930 . S
C1273 C1276 1.388 . S
C1273 C1278 1.418 . S
C1274 H1269 0.930 . S
C1274 C1277 1.404 . S
C1274 C1278 1.353 . S
N1275 Co1240 2.145 . S
N1275 C1276 1.397 . S
N1275 C1277 1.334 . S
C1276 H1257 0.929 . S
C1276 C1273 1.388 . S
C1276 N1275 1.397 . S
C1277 H1258 0.929 . S
C1277 C1274 1.404 . S
C1277 N1275 1.334 . S
C1278 H1270 0.930 . S
C1278 C1273 1.418 . S
C1278 C1274 1.353 . S
C1279 H1249 0.930 . S
C1279 N1280 1.330 . S
C1279 C1281 1.446 . S
N1280 Co1239 2.151 . S
N1280 C1279 1.330 . S
N1280 C1284 1.418 . S
C1281 H1260 0.929 . S
C1281 C1279 1.446 . S
C1281 C1282 1.332 . S
C1282 H1262 0.931 . S
C1282 C1281 1.332 . S
C1282 C1283 1.267 . S
C1283 H1251 0.929 . S
C1283 C1282 1.267 . S
C1283 C1284 1.251 . S
C1284 H1254 0.929 . S
C1284 N1280 1.418 . S
C1284 C1283 1.251 . S
C1285 H1252 0.930 . S
C1285 C1287 1.406 . S
C1285 C1290 1.261 . S
C1286 H1253 0.930 . S
C1286 N1288 1.325 . S
C1286 C1289 1.357 . S
C1287 H1255 0.928 . S
C1287 C1285 1.406 . S
C1287 N1288 1.261 . S
N1288 Co1239 2.214 . S
N1288 C1286 1.325 . S
N1288 C1287 1.261 . S
C1289 H1259 0.931 . S
C1289 C1286 1.357 . S
C1289 C1290 1.312 . S
C1290 H1261 0.930 . S
C1290 C1285 1.261 . S
C1290 C1289 1.312 . S
C1291 O1263 1.214 . S
C1291 O1271 1.234 . S
C1292 H1264 0.929 . S
C1292 C1295 1.391 . S
C1292 C1297 1.391 . S
C1293 H1265 0.929 . S
C1293 C1294 1.390 . S
C1293 N1296 1.391 . S
C1294 H1266 0.930 . S
C1294 C1293 1.390 . S
C1294 C1295 1.392 . S
C1295 H1267 0.929 . S
C1295 C1292 1.391 . S
C1295 C1294 1.392 . S
N1296 Co1240 2.257 . S
N1296 C1293 1.391 . S
N1296 C1297 1.388 . S
C1297 H1268 0.930 . S
C1297 C1292 1.391 . S
C1297 N1296 1.388 . S
Co1298 O1300 2.143 . S
Co1298 O1306 2.074 . S
Co1298 O1309 2.093 . S
Co1298 O1322 2.097 . S
Co1298 N1339 2.151 . S
Co1298 N1347 2.214 . S
Co1299 O1300 2.160 . S
Co1299 O1305 2.058 . S
Co1299 O1315 2.057 . S
Co1299 O1330 2.037 . S
Co1299 N1334 2.156 . S
Co1299 N1355 2.257 . S
O1300 Co1298 2.143 . S
O1300 Co1299 2.160 . S
C1301 O1302 1.278 . S
C1301 O1309 1.224 . S
O1302 C1301 1.278 . S
C1303 O1304 1.245 . S
C1303 O1315 1.232 . S
O1304 C1303 1.245 . S
O1305 Co1299 2.058 . S
O1305 C1331 1.269 . S
O1306 Co1298 2.074 . S
O1306 C1331 1.257 . S
H1307 C1332 0.930 . S
H1308 C1338 0.930 . S
O1309 Co1298 2.093 . S
O1309 C1301 1.224 . S
H1310 C1342 0.929 . S
H1311 C1344 0.930 . S
H1312 C1345 0.930 . S
H1313 C1343 0.929 . S
H1314 C1346 0.928 . S
O1315 Co1299 2.057 . S
O1315 C1303 1.232 . S
H1316 C1335 0.929 1_545 S
H1317 C1336 0.929 . S
H1318 C1348 0.931 . S
H1319 C1340 0.929 . S
H1320 C1349 0.930 . S
H1321 C1341 0.931 . S
O1322 Co1298 2.097 . S
O1322 C1350 1.214 . S
H1323 C1351 0.929 . S
H1324 C1352 0.929 . S
H1325 C1353 0.930 . S
H1326 C1354 0.929 . S
H1327 C1356 0.930 . S
H1328 C1333 0.930 . S
H1329 C1337 0.930 . S
O1330 Co1299 2.037 . S
O1330 C1350 1.234 . S
C1331 O1305 1.269 . S
C1331 O1306 1.257 . S
C1332 H1307 0.930 . S
C1332 C1335 1.388 . S
C1332 C1337 1.418 . S
C1333 H1328 0.930 . S
C1333 C1336 1.404 . S
C1333 C1337 1.353 . S
N1334 Co1299 2.156 . S
N1334 C1335 1.397 1_545 S
N1334 C1336 1.324 1_545 S
C1335 H1316 0.929 1_565 S
C1335 C1332 1.388 . S
C1335 N1334 1.397 1_565 S
C1336 H1317 0.929 . S
C1336 C1333 1.404 . S
C1336 N1334 1.324 1_565 S
C1337 H1329 0.930 . S
C1337 C1332 1.418 . S
C1337 C1333 1.353 . S
C1338 H1308 0.930 . S
C1338 N1339 1.330 . S
C1338 C1340 1.446 . S
N1339 Co1298 2.151 . S
N1339 C1338 1.330 . S
N1339 C1343 1.418 . S
C1340 H1319 0.929 . S
C1340 C1338 1.446 . S
C1340 C1341 1.332 . S
C1341 H1321 0.931 . S
C1341 C1340 1.332 . S
C1341 C1342 1.267 . S
C1342 H1310 0.929 . S
C1342 C1341 1.267 . S
C1342 C1343 1.251 . S
C1343 H1313 0.929 . S
C1343 N1339 1.418 . S
C1343 C1342 1.251 . S
C1344 H1311 0.930 . S
C1344 C1346 1.406 . S
C1344 C1349 1.261 . S
C1345 H1312 0.930 . S
C1345 N1347 1.325 . S
C1345 C1348 1.357 . S
C1346 H1314 0.928 . S
C1346 C1344 1.406 . S
C1346 N1347 1.261 . S
N1347 Co1298 2.214 . S
N1347 C1345 1.325 . S
N1347 C1346 1.261 . S
C1348 H1318 0.931 . S
C1348 C1345 1.357 . S
C1348 C1349 1.312 . S
C1349 H1320 0.930 . S
C1349 C1344 1.261 . S
C1349 C1348 1.312 . S
C1350 O1322 1.214 . S
C1350 O1330 1.234 . S
C1351 H1323 0.929 . S
C1351 C1354 1.391 . S
C1351 C1356 1.391 . S
C1352 H1324 0.929 . S
C1352 C1353 1.390 . S
C1352 N1355 1.391 . S
C1353 H1325 0.930 . S
C1353 C1352 1.390 . S
C1353 C1354 1.392 . S
C1354 H1326 0.929 . S
C1354 C1351 1.391 . S
C1354 C1353 1.392 . S
N1355 Co1299 2.257 . S
N1355 C1352 1.391 . S
N1355 C1356 1.388 . S
C1356 H1327 0.930 . S
C1356 C1351 1.391 . S
C1356 N1355 1.388 . S
Co1357 O1359 2.143 . S
Co1357 O1365 2.074 . S
Co1357 O1368 2.093 . S
Co1357 O1381 2.097 . S
Co1357 N1398 2.151 . S
Co1357 N1406 2.214 . S
Co1358 O1359 2.160 1_455 S
Co1358 O1364 2.059 1_455 S
Co1358 O1374 2.057 . S
Co1358 O1389 2.037 . S
Co1358 N1393 2.145 . S
Co1358 N1414 2.257 . S
O1359 Co1357 2.143 . S
O1359 Co1358 2.160 1_655 S
C1360 O1361 1.278 . S
C1360 O1368 1.224 . S
O1361 C1360 1.278 . S
C1362 O1363 1.245 1_455 S
C1362 O1374 1.232 . S
O1363 C1362 1.245 1_655 S
O1364 Co1358 2.059 1_655 S
O1364 C1390 1.270 . S
O1365 Co1357 2.074 . S
O1365 C1390 1.257 . S
H1366 C1391 0.930 . S
H1367 C1397 0.930 . S
O1368 Co1357 2.093 . S
O1368 C1360 1.224 . S
H1369 C1401 0.929 . S
H1370 C1403 0.930 . S
H1371 C1404 0.930 . S
H1372 C1402 0.929 . S
H1373 C1405 0.928 . S
O1374 Co1358 2.057 . S
O1374 C1362 1.232 . S
H1375 C1394 0.929 . S
H1376 C1395 0.929 . S
H1377 C1407 0.931 . S
H1378 C1399 0.929 . S
H1379 C1408 0.930 . S
H1380 C1400 0.931 . S
O1381 Co1357 2.097 . S
O1381 C1409 1.214 . S
H1382 C1410 0.929 . S
H1383 C1411 0.929 . S
H1384 C1412 0.930 . S
H1385 C1413 0.929 . S
H1386 C1415 0.930 1_655 S
H1387 C1392 0.930 . S
H1388 C1396 0.930 . S
O1389 Co1358 2.037 . S
O1389 C1409 1.234 1_455 S
C1390 O1364 1.270 . S
C1390 O1365 1.257 . S
C1391 H1366 0.930 . S
C1391 C1394 1.388 . S
C1391 C1396 1.418 . S
C1392 H1387 0.930 . S
C1392 C1395 1.404 . S
C1392 C1396 1.353 . S
N1393 Co1358 2.145 . S
N1393 C1394 1.397 . S
N1393 C1395 1.334 . S
C1394 H1375 0.929 . S
C1394 C1391 1.388 . S
C1394 N1393 1.397 . S
C1395 H1376 0.929 . S
C1395 C1392 1.404 . S
C1395 N1393 1.334 . S
C1396 H1388 0.930 . S
C1396 C1391 1.418 . S
C1396 C1392 1.353 . S
C1397 H1367 0.930 . S
C1397 N1398 1.330 . S
C1397 C1399 1.446 . S
N1398 Co1357 2.151 . S
N1398 C1397 1.330 . S
N1398 C1402 1.418 . S
C1399 H1378 0.929 . S
C1399 C1397 1.446 . S
C1399 C1400 1.332 . S
C1400 H1380 0.931 . S
C1400 C1399 1.332 . S
C1400 C1401 1.267 . S
C1401 H1369 0.929 . S
C1401 C1400 1.267 . S
C1401 C1402 1.251 . S
C1402 H1372 0.929 . S
C1402 N1398 1.418 . S
C1402 C1401 1.251 . S
C1403 H1370 0.930 . S
C1403 C1405 1.406 . S
C1403 C1408 1.261 . S
C1404 H1371 0.930 . S
C1404 N1406 1.325 . S
C1404 C1407 1.357 . S
C1405 H1373 0.928 . S
C1405 C1403 1.406 . S
C1405 N1406 1.261 . S
N1406 Co1357 2.214 . S
N1406 C1404 1.325 . S
N1406 C1405 1.261 . S
C1407 H1377 0.931 . S
C1407 C1404 1.357 . S
C1407 C1408 1.312 . S
C1408 H1379 0.930 . S
C1408 C1403 1.261 . S
C1408 C1407 1.312 . S
C1409 O1381 1.214 . S
C1409 O1389 1.234 1_655 S
C1410 H1382 0.929 . S
C1410 C1413 1.391 . S
C1410 C1415 1.391 . S
C1411 H1383 0.929 . S
C1411 C1412 1.390 . S
C1411 N1414 1.391 . S
C1412 H1384 0.930 . S
C1412 C1411 1.390 . S
C1412 C1413 1.392 . S
C1413 H1385 0.929 . S
C1413 C1410 1.391 . S
C1413 C1412 1.392 . S
N1414 Co1358 2.257 . S
N1414 C1411 1.391 . S
N1414 C1415 1.388 . S
C1415 H1386 0.930 1_455 S
C1415 C1410 1.391 . S
C1415 N1414 1.388 . S
Co1416 O1418 2.143 . S
Co1416 O1424 2.074 . S
Co1416 O1427 2.093 . S
Co1416 O1440 2.097 . S
Co1416 N1457 2.151 . S
Co1416 N1465 2.214 . S
Co1417 O1418 2.160 . S
Co1417 O1423 2.058 . S
Co1417 O1433 2.072 . S
Co1417 O1448 2.037 . S
Co1417 N1452 2.145 1_565 S
Co1417 N1473 2.257 1_565 S
O1418 Co1416 2.143 . S
O1418 Co1417 2.160 . S
C1419 O1420 1.278 1_565 S
C1419 O1427 1.224 . S
O1420 C1419 1.278 1_545 S
C1421 O1422 1.245 . S
C1421 O1433 1.256 . S
O1422 C1421 1.245 . S
O1423 Co1417 2.058 . S
O1423 C1449 1.269 . S
O1424 Co1416 2.074 . S
O1424 C1449 1.257 . S
H1425 C1450 0.930 . S
H1426 C1456 0.930 . S
O1427 Co1416 2.093 . S
O1427 C1419 1.224 . S
H1428 C1460 0.929 . S
H1429 C1462 0.930 . S
H1430 C1463 0.930 . S
H1431 C1461 0.929 . S
H1432 C1464 0.928 . S
O1433 Co1417 2.072 . S
O1433 C1421 1.256 . S
H1434 C1453 0.929 . S
H1435 C1454 0.929 . S
H1436 C1466 0.931 . S
H1437 C1458 0.929 . S
H1438 C1467 0.930 . S
H1439 C1459 0.931 . S
O1440 Co1416 2.097 . S
O1440 C1468 1.214 . S
H1441 C1469 0.929 . S
H1442 C1470 0.929 . S
H1443 C1471 0.930 . S
H1444 C1472 0.929 . S
H1445 C1474 0.930 . S
H1446 C1451 0.930 . S
H1447 C1455 0.930 . S
O1448 Co1417 2.037 . S
O1448 C1468 1.234 . S
C1449 O1423 1.269 . S
C1449 O1424 1.257 . S
C1450 H1425 0.930 . S
C1450 C1453 1.388 1_545 S
C1450 C1455 1.418 . S
C1451 H1446 0.930 . S
C1451 C1454 1.404 . S
C1451 C1455 1.353 . S
N1452 Co1417 2.145 1_545 S
N1452 C1453 1.397 1_545 S
N1452 C1454 1.334 . S
C1453 H1434 0.929 . S
C1453 C1450 1.388 1_565 S
C1453 N1452 1.397 1_565 S
C1454 H1435 0.929 . S
C1454 C1451 1.404 . S
C1454 N1452 1.334 . S
C1455 H1447 0.930 . S
C1455 C1450 1.418 . S
C1455 C1451 1.353 . S
C1456 H1426 0.930 . S
C1456 N1457 1.330 . S
C1456 C1458 1.446 . S
N1457 Co1416 2.151 . S
N1457 C1456 1.330 . S
N1457 C1461 1.418 . S
C1458 H1437 0.929 . S
C1458 C1456 1.446 . S
C1458 C1459 1.332 . S
C1459 H1439 0.931 . S
C1459 C1458 1.332 . S
C1459 C1460 1.267 . S
C1460 H1428 0.929 . S
C1460 C1459 1.267 . S
C1460 C1461 1.251 . S
C1461 H1431 0.929 . S
C1461 N1457 1.418 . S
C1461 C1460 1.251 . S
C1462 H1429 0.930 . S
C1462 C1464 1.406 . S
C1462 C1467 1.261 . S
C1463 H1430 0.930 . S
C1463 N1465 1.325 . S
C1463 C1466 1.357 . S
C1464 H1432 0.928 . S
C1464 C1462 1.406 . S
C1464 N1465 1.261 . S
N1465 Co1416 2.214 . S
N1465 C1463 1.325 . S
N1465 C1464 1.261 . S
C1466 H1436 0.931 . S
C1466 C1463 1.357 . S
C1466 C1467 1.312 . S
C1467 H1438 0.930 . S
C1467 C1462 1.261 . S
C1467 C1466 1.312 . S
C1468 O1440 1.214 . S
C1468 O1448 1.234 . S
C1469 H1441 0.929 . S
C1469 C1472 1.391 . S
C1469 C1474 1.391 . S
C1470 H1442 0.929 . S
C1470 C1471 1.390 . S
C1470 N1473 1.391 . S
C1471 H1443 0.930 . S
C1471 C1470 1.390 . S
C1471 C1472 1.392 . S
C1472 H1444 0.929 . S
C1472 C1469 1.391 . S
C1472 C1471 1.392 . S
N1473 Co1417 2.257 1_545 S
N1473 C1470 1.391 . S
N1473 C1474 1.388 . S
C1474 H1445 0.930 . S
C1474 C1469 1.391 . S
C1474 N1473 1.388 . S
Co1475 O1477 2.143 . S
Co1475 O1483 2.074 . S
Co1475 O1486 2.093 . S
Co1475 O1499 2.097 . S
Co1475 N1516 2.151 . S
Co1475 N1524 2.214 . S
Co1476 O1477 2.160 . S
Co1476 O1482 2.058 . S
Co1476 O1492 2.057 . S
Co1476 O1507 2.037 . S
Co1476 N1511 2.145 . S
Co1476 N1532 2.257 . S
O1477 Co1475 2.143 . S
O1477 Co1476 2.160 . S
C1478 O1479 1.278 . S
C1478 O1486 1.224 . S
O1479 C1478 1.278 . S
C1480 O1481 1.245 . S
C1480 O1492 1.232 . S
O1481 C1480 1.245 . S
O1482 Co1476 2.058 . S
O1482 C1508 1.269 . S
O1483 Co1475 2.074 . S
O1483 C1508 1.257 . S
H1484 C1509 0.930 . S
H1485 C1515 0.930 . S
O1486 Co1475 2.093 . S
O1486 C1478 1.224 . S
H1487 C1519 0.929 . S
H1488 C1521 0.930 . S
H1489 C1522 0.930 . S
H1490 C1520 0.929 . S
H1491 C1523 0.928 . S
O1492 Co1476 2.057 . S
O1492 C1480 1.232 . S
H1493 C1512 0.929 . S
H1494 C1513 0.929 . S
H1495 C1525 0.931 . S
H1496 C1517 0.929 . S
H1497 C1526 0.930 . S
H1498 C1518 0.931 . S
O1499 Co1475 2.097 . S
O1499 C1527 1.214 . S
H1500 C1528 0.929 . S
H1501 C1529 0.929 . S
H1502 C1530 0.930 . S
H1503 C1531 0.929 . S
H1504 C1533 0.930 . S
H1505 C1510 0.930 . S
H1506 C1514 0.930 . S
O1507 Co1476 2.037 . S
O1507 C1527 1.234 . S
C1508 O1482 1.269 . S
C1508 O1483 1.257 . S
C1509 H1484 0.930 . S
C1509 C1512 1.388 . S
C1509 C1514 1.418 . S
C1510 H1505 0.930 . S
C1510 C1513 1.404 . S
C1510 C1514 1.353 . S
N1511 Co1476 2.145 . S
N1511 C1512 1.397 . S
N1511 C1513 1.334 . S
C1512 H1493 0.929 . S
C1512 C1509 1.388 . S
C1512 N1511 1.397 . S
C1513 H1494 0.929 . S
C1513 C1510 1.404 . S
C1513 N1511 1.334 . S
C1514 H1506 0.930 . S
C1514 C1509 1.418 . S
C1514 C1510 1.353 . S
C1515 H1485 0.930 . S
C1515 N1516 1.330 . S
C1515 C1517 1.446 . S
N1516 Co1475 2.151 . S
N1516 C1515 1.330 . S
N1516 C1520 1.418 . S
C1517 H1496 0.929 . S
C1517 C1515 1.446 . S
C1517 C1518 1.332 . S
C1518 H1498 0.931 . S
C1518 C1517 1.332 . S
C1518 C1519 1.267 . S
C1519 H1487 0.929 . S
C1519 C1518 1.267 . S
C1519 C1520 1.251 . S
C1520 H1490 0.929 . S
C1520 N1516 1.418 . S
C1520 C1519 1.251 . S
C1521 H1488 0.930 . S
C1521 C1523 1.406 . S
C1521 C1526 1.261 . S
C1522 H1489 0.930 . S
C1522 N1524 1.325 . S
C1522 C1525 1.357 . S
C1523 H1491 0.928 . S
C1523 C1521 1.406 . S
C1523 N1524 1.261 . S
N1524 Co1475 2.214 . S
N1524 C1522 1.325 . S
N1524 C1523 1.261 . S
C1525 H1495 0.931 . S
C1525 C1522 1.357 . S
C1525 C1526 1.312 . S
C1526 H1497 0.930 . S
C1526 C1521 1.261 . S
C1526 C1525 1.312 . S
C1527 O1499 1.214 . S
C1527 O1507 1.234 . S
C1528 H1500 0.929 . S
C1528 C1531 1.391 . S
C1528 C1533 1.391 1_655 S
C1529 H1501 0.929 . S
C1529 C1530 1.390 1_455 S
C1529 N1532 1.391 . S
C1530 H1502 0.930 . S
C1530 C1529 1.390 1_655 S
C1530 C1531 1.392 . S
C1531 H1503 0.929 . S
C1531 C1528 1.391 . S
C1531 C1530 1.392 . S
N1532 Co1476 2.257 . S
N1532 C1529 1.391 . S
N1532 C1533 1.388 . S
C1533 H1504 0.930 . S
C1533 C1528 1.391 1_455 S
C1533 N1532 1.388 . S
Co1534 O1536 2.143 . S
Co1534 O1542 2.074 . S
Co1534 O1545 2.093 . S
Co1534 O1558 2.097 . S
Co1534 N1575 2.151 . S
Co1534 N1583 2.214 . S
Co1535 O1536 2.160 . S
Co1535 O1541 2.058 . S
Co1535 O1551 2.057 . S
Co1535 O1566 2.037 . S
Co1535 N1570 2.145 . S
Co1535 N1591 2.257 . S
O1536 Co1534 2.143 . S
O1536 Co1535 2.160 . S
C1537 O1538 1.278 . S
C1537 O1545 1.224 . S
O1538 C1537 1.278 . S
C1539 O1540 1.245 . S
C1539 O1551 1.232 . S
O1540 C1539 1.245 . S
O1541 Co1535 2.058 . S
O1541 C1567 1.269 . S
O1542 Co1534 2.074 . S
O1542 C1567 1.257 . S
H1543 C1568 0.930 . S
H1544 C1574 0.930 . S
O1545 Co1534 2.093 . S
O1545 C1537 1.224 . S
H1546 C1578 0.929 . S
H1547 C1580 0.930 . S
H1548 C1581 0.930 . S
H1549 C1579 0.929 . S
H1550 C1582 0.928 . S
O1551 Co1535 2.057 . S
O1551 C1539 1.232 . S
H1552 C1571 0.929 . S
H1553 C1572 0.929 . S
H1554 C1584 0.931 . S
H1555 C1576 0.929 . S
H1556 C1585 0.930 . S
H1557 C1577 0.931 . S
O1558 Co1534 2.097 . S
O1558 C1586 1.214 . S
H1559 C1587 0.929 . S
H1560 C1588 0.929 . S
H1561 C1589 0.930 . S
H1562 C1590 0.929 . S
H1563 C1592 0.930 . S
H1564 C1569 0.930 . S
H1565 C1573 0.930 . S
O1566 Co1535 2.037 . S
O1566 C1586 1.234 . S
C1567 O1541 1.269 . S
C1567 O1542 1.257 . S
C1568 H1543 0.930 . S
C1568 C1571 1.388 . S
C1568 C1573 1.418 . S
C1569 H1564 0.930 . S
C1569 C1572 1.404 . S
C1569 C1573 1.353 . S
N1570 Co1535 2.145 . S
N1570 C1571 1.397 . S
N1570 C1572 1.334 . S
C1571 H1552 0.929 . S
C1571 C1568 1.388 . S
C1571 N1570 1.397 . S
C1572 H1553 0.929 . S
C1572 C1569 1.404 . S
C1572 N1570 1.334 . S
C1573 H1565 0.930 . S
C1573 C1568 1.418 . S
C1573 C1569 1.353 . S
C1574 H1544 0.930 . S
C1574 N1575 1.330 . S
C1574 C1576 1.446 . S
N1575 Co1534 2.151 . S
N1575 C1574 1.330 . S
N1575 C1579 1.418 . S
C1576 H1555 0.929 . S
C1576 C1574 1.446 . S
C1576 C1577 1.332 . S
C1577 H1557 0.931 . S
C1577 C1576 1.332 . S
C1577 C1578 1.267 . S
C1578 H1546 0.929 . S
C1578 C1577 1.267 . S
C1578 C1579 1.251 . S
C1579 H1549 0.929 . S
C1579 N1575 1.418 . S
C1579 C1578 1.251 . S
C1580 H1547 0.930 . S
C1580 C1582 1.406 . S
C1580 C1585 1.261 . S
C1581 H1548 0.930 . S
C1581 N1583 1.325 . S
C1581 C1584 1.357 . S
C1582 H1550 0.928 . S
C1582 C1580 1.406 . S
C1582 N1583 1.261 . S
N1583 Co1534 2.214 . S
N1583 C1581 1.325 . S
N1583 C1582 1.261 . S
C1584 H1554 0.931 . S
C1584 C1581 1.357 . S
C1584 C1585 1.312 . S
C1585 H1556 0.930 . S
C1585 C1580 1.261 . S
C1585 C1584 1.312 . S
C1586 O1558 1.214 . S
C1586 O1566 1.234 . S
C1587 H1559 0.929 . S
C1587 C1590 1.391 . S
C1587 C1592 1.391 . S
C1588 H1560 0.929 . S
C1588 C1589 1.390 . S
C1588 N1591 1.391 . S
C1589 H1561 0.930 . S
C1589 C1588 1.390 . S
C1589 C1590 1.392 . S
C1590 H1562 0.929 . S
C1590 C1587 1.391 . S
C1590 C1589 1.392 . S
N1591 Co1535 2.257 . S
N1591 C1588 1.391 . S
N1591 C1592 1.388 . S
C1592 H1563 0.930 . S
C1592 C1587 1.391 . S
C1592 N1591 1.388 . S
Co1593 O1595 2.143 . S
Co1593 O1601 2.074 . S
Co1593 O1604 2.093 . S
Co1593 O1617 2.097 . S
Co1593 N1634 2.151 . S
Co1593 N1642 2.214 . S
Co1594 O1595 2.160 . S
Co1594 O1600 2.058 . S
Co1594 O1610 2.057 . S
Co1594 O1625 2.037 . S
Co1594 N1629 2.145 . S
Co1594 N1650 2.257 . S
O1595 Co1593 2.143 . S
O1595 Co1594 2.160 . S
C1596 O1597 1.278 . S
C1596 O1604 1.224 . S
O1597 C1596 1.278 . S
C1598 O1599 1.245 . S
C1598 O1610 1.232 . S
O1599 C1598 1.245 . S
O1600 Co1594 2.058 . S
O1600 C1626 1.269 . S
O1601 Co1593 2.074 . S
O1601 C1626 1.257 . S
H1602 C1627 0.930 . S
H1603 C1633 0.930 . S
O1604 Co1593 2.093 . S
O1604 C1596 1.224 . S
H1605 C1637 0.929 . S
H1606 C1639 0.930 . S
H1607 C1640 0.930 . S
H1608 C1638 0.929 . S
H1609 C1641 0.928 . S
O1610 Co1594 2.057 . S
O1610 C1598 1.232 . S
H1611 C1630 0.929 . S
H1612 C1631 0.929 . S
H1613 C1643 0.931 . S
H1614 C1635 0.929 . S
H1615 C1644 0.930 . S
H1616 C1636 0.931 . S
O1617 Co1593 2.097 . S
O1617 C1645 1.214 . S
H1618 C1646 0.929 . S
H1619 C1647 0.929 . S
H1620 C1648 0.930 . S
H1621 C1649 0.929 . S
H1622 C1651 0.930 . S
H1623 C1628 0.930 . S
H1624 C1632 0.930 . S
O1625 Co1594 2.037 . S
O1625 C1645 1.234 . S
C1626 O1600 1.269 . S
C1626 O1601 1.257 . S
C1627 H1602 0.930 . S
C1627 C1630 1.388 . S
C1627 C1632 1.418 . S
C1628 H1623 0.930 . S
C1628 C1631 1.404 . S
C1628 C1632 1.353 . S
N1629 Co1594 2.145 . S
N1629 C1630 1.397 . S
N1629 C1631 1.334 . S
C1630 H1611 0.929 . S
C1630 C1627 1.388 . S
C1630 N1629 1.397 . S
C1631 H1612 0.929 . S
C1631 C1628 1.404 . S
C1631 N1629 1.334 . S
C1632 H1624 0.930 . S
C1632 C1627 1.418 . S
C1632 C1628 1.353 . S
C1633 H1603 0.930 . S
C1633 N1634 1.330 . S
C1633 C1635 1.446 . S
N1634 Co1593 2.151 . S
N1634 C1633 1.330 . S
N1634 C1638 1.418 . S
C1635 H1614 0.929 . S
C1635 C1633 1.446 . S
C1635 C1636 1.332 . S
C1636 H1616 0.931 . S
C1636 C1635 1.332 . S
C1636 C1637 1.267 . S
C1637 H1605 0.929 . S
C1637 C1636 1.267 . S
C1637 C1638 1.251 . S
C1638 H1608 0.929 . S
C1638 N1634 1.418 . S
C1638 C1637 1.251 . S
C1639 H1606 0.930 . S
C1639 C1641 1.406 . S
C1639 C1644 1.261 . S
C1640 H1607 0.930 . S
C1640 N1642 1.325 . S
C1640 C1643 1.357 . S
C1641 H1609 0.928 . S
C1641 C1639 1.406 . S
C1641 N1642 1.261 . S
N1642 Co1593 2.214 . S
N1642 C1640 1.325 . S
N1642 C1641 1.261 . S
C1643 H1613 0.931 . S
C1643 C1640 1.357 . S
C1643 C1644 1.312 . S
C1644 H1615 0.930 . S
C1644 C1639 1.261 . S
C1644 C1643 1.312 . S
C1645 O1617 1.214 . S
C1645 O1625 1.234 . S
C1646 H1618 0.929 . S
C1646 C1649 1.391 . S
C1646 C1651 1.391 . S
C1647 H1619 0.929 . S
C1647 C1648 1.390 . S
C1647 N1650 1.391 . S
C1648 H1620 0.930 . S
C1648 C1647 1.390 . S
C1648 C1649 1.392 . S
C1649 H1621 0.929 . S
C1649 C1646 1.391 . S
C1649 C1648 1.392 . S
N1650 Co1594 2.257 . S
N1650 C1647 1.391 . S
N1650 C1651 1.388 . S
C1651 H1622 0.930 . S
C1651 C1646 1.391 . S
C1651 N1650 1.388 . S
Co1652 O1654 2.143 . S
Co1652 O1660 2.074 . S
Co1652 O1663 2.093 . S
Co1652 O1676 2.097 . S
Co1652 N1693 2.151 . S
Co1652 N1701 2.214 . S
Co1653 O1654 2.160 1_545 S
Co1653 O1659 2.056 1_545 S
Co1653 O1669 2.057 . S
Co1653 O1684 2.037 . S
Co1653 N1688 2.145 . S
Co1653 N1709 2.257 . S
O1654 Co1652 2.143 . S
O1654 Co1653 2.160 1_565 S
C1655 O1656 1.278 . S
C1655 O1663 1.224 . S
O1656 C1655 1.278 . S
C1657 O1658 1.245 1_545 S
C1657 O1669 1.232 . S
O1658 C1657 1.245 1_565 S
O1659 Co1653 2.056 1_565 S
O1659 C1685 1.272 . S
O1660 Co1652 2.074 . S
O1660 C1685 1.257 . S
H1661 C1686 0.930 . S
H1662 C1692 0.930 . S
O1663 Co1652 2.093 . S
O1663 C1655 1.224 . S
H1664 C1696 0.929 . S
H1665 C1698 0.930 . S
H1666 C1699 0.930 . S
H1667 C1697 0.929 . S
H1668 C1700 0.928 . S
O1669 Co1653 2.057 . S
O1669 C1657 1.232 . S
H1670 C1689 0.929 . S
H1671 C1690 0.929 . S
H1672 C1702 0.931 . S
H1673 C1694 0.929 . S
H1674 C1703 0.930 . S
H1675 C1695 0.931 . S
O1676 Co1652 2.097 . S
O1676 C1704 1.214 . S
H1677 C1705 0.929 . S
H1678 C1706 0.929 . S
H1679 C1707 0.930 . S
H1680 C1708 0.929 . S
H1681 C1710 0.930 1_565 S
H1682 C1687 0.930 . S
H1683 C1691 0.930 . S
O1684 Co1653 2.037 . S
O1684 C1704 1.234 1_545 S
C1685 O1659 1.272 . S
C1685 O1660 1.257 . S
C1686 H1661 0.930 . S
C1686 C1689 1.388 . S
C1686 C1691 1.418 . S
C1687 H1682 0.930 . S
C1687 C1690 1.404 . S
C1687 C1691 1.353 . S
N1688 Co1653 2.145 . S
N1688 C1689 1.397 . S
N1688 C1690 1.334 . S
C1689 H1670 0.929 . S
C1689 C1686 1.388 . S
C1689 N1688 1.397 . S
C1690 H1671 0.929 . S
C1690 C1687 1.404 . S
C1690 N1688 1.334 . S
C1691 H1683 0.930 . S
C1691 C1686 1.418 . S
C1691 C1687 1.353 . S
C1692 H1662 0.930 . S
C1692 N1693 1.330 . S
C1692 C1694 1.446 . S
N1693 Co1652 2.151 . S
N1693 C1692 1.330 . S
N1693 C1697 1.418 . S
C1694 H1673 0.929 . S
C1694 C1692 1.446 . S
C1694 C1695 1.332 . S
C1695 H1675 0.931 . S
C1695 C1694 1.332 . S
C1695 C1696 1.267 . S
C1696 H1664 0.929 . S
C1696 C1695 1.267 . S
C1696 C1697 1.251 . S
C1697 H1667 0.929 . S
C1697 N1693 1.418 . S
C1697 C1696 1.251 . S
C1698 H1665 0.930 . S
C1698 C1700 1.406 . S
C1698 C1703 1.261 . S
C1699 H1666 0.930 . S
C1699 N1701 1.325 . S
C1699 C1702 1.357 . S
C1700 H1668 0.928 . S
C1700 C1698 1.406 . S
C1700 N1701 1.261 . S
N1701 Co1652 2.214 . S
N1701 C1699 1.325 . S
N1701 C1700 1.261 . S
C1702 H1672 0.931 . S
C1702 C1699 1.357 . S
C1702 C1703 1.312 . S
C1703 H1674 0.930 . S
C1703 C1698 1.261 . S
C1703 C1702 1.312 . S
C1704 O1676 1.214 . S
C1704 O1684 1.234 1_565 S
C1705 H1677 0.929 . S
C1705 C1708 1.391 . S
C1705 C1710 1.391 . S
C1706 H1678 0.929 . S
C1706 C1707 1.390 . S
C1706 N1709 1.391 . S
C1707 H1679 0.930 . S
C1707 C1706 1.390 . S
C1707 C1708 1.392 . S
C1708 H1680 0.929 . S
C1708 C1705 1.391 . S
C1708 C1707 1.392 . S
N1709 Co1653 2.257 . S
N1709 C1706 1.391 . S
N1709 C1710 1.388 . S
C1710 H1681 0.930 1_545 S
C1710 C1705 1.391 . S
C1710 N1709 1.388 . S
Co1711 O1713 2.143 . S
Co1711 O1719 2.074 . S
Co1711 O1722 2.093 . S
Co1711 O1735 2.097 . S
Co1711 N1752 2.151 . S
Co1711 N1760 2.214 . S
Co1712 O1713 2.160 . S
Co1712 O1718 2.058 . S
Co1712 O1728 2.057 . S
Co1712 O1743 2.037 . S
Co1712 N1747 2.158 . S
Co1712 N1768 2.257 . S
O1713 Co1711 2.143 . S
O1713 Co1712 2.160 . S
C1714 O1715 1.278 . S
C1714 O1722 1.224 . S
O1715 C1714 1.278 . S
C1716 O1717 1.245 . S
C1716 O1728 1.232 . S
O1717 C1716 1.245 . S
O1718 Co1712 2.058 . S
O1718 C1744 1.269 . S
O1719 Co1711 2.074 . S
O1719 C1744 1.257 . S
H1720 C1745 0.930 . S
H1721 C1751 0.930 . S
O1722 Co1711 2.093 . S
O1722 C1714 1.224 . S
H1723 C1755 0.929 . S
H1724 C1757 0.930 . S
H1725 C1758 0.930 . S
H1726 C1756 0.929 . S
H1727 C1759 0.928 . S
O1728 Co1712 2.057 . S
O1728 C1716 1.232 . S
H1729 C1748 0.929 1_455 S
H1730 C1749 0.929 . S
H1731 C1761 0.931 . S
H1732 C1753 0.929 . S
H1733 C1762 0.930 . S
H1734 C1754 0.931 . S
O1735 Co1711 2.097 . S
O1735 C1763 1.214 . S
H1736 C1764 0.929 . S
H1737 C1765 0.929 . S
H1738 C1766 0.930 . S
H1739 C1767 0.929 . S
H1740 C1769 0.930 . S
H1741 C1746 0.930 . S
H1742 C1750 0.930 . S
O1743 Co1712 2.037 . S
O1743 C1763 1.234 . S
C1744 O1718 1.269 . S
C1744 O1719 1.257 . S
C1745 H1720 0.930 . S
C1745 C1748 1.388 . S
C1745 C1750 1.418 . S
C1746 H1741 0.930 . S
C1746 C1749 1.404 . S
C1746 C1750 1.353 . S
N1747 Co1712 2.158 . S
N1747 C1748 1.390 1_455 S
N1747 C1749 1.327 1_455 S
C1748 H1729 0.929 1_655 S
C1748 C1745 1.388 . S
C1748 N1747 1.390 1_655 S
C1749 H1730 0.929 . S
C1749 C1746 1.404 . S
C1749 N1747 1.327 1_655 S
C1750 H1742 0.930 . S
C1750 C1745 1.418 . S
C1750 C1746 1.353 . S
C1751 H1721 0.930 . S
C1751 N1752 1.330 . S
C1751 C1753 1.446 . S
N1752 Co1711 2.151 . S
N1752 C1751 1.330 . S
N1752 C1756 1.418 . S
C1753 H1732 0.929 . S
C1753 C1751 1.446 . S
C1753 C1754 1.332 . S
C1754 H1734 0.931 . S
C1754 C1753 1.332 . S
C1754 C1755 1.267 . S
C1755 H1723 0.929 . S
C1755 C1754 1.267 . S
C1755 C1756 1.251 . S
C1756 H1726 0.929 . S
C1756 N1752 1.418 . S
C1756 C1755 1.251 . S
C1757 H1724 0.930 . S
C1757 C1759 1.406 . S
C1757 C1762 1.261 . S
C1758 H1725 0.930 . S
C1758 N1760 1.325 . S
C1758 C1761 1.357 . S
C1759 H1727 0.928 . S
C1759 C1757 1.406 . S
C1759 N1760 1.261 . S
N1760 Co1711 2.214 . S
N1760 C1758 1.325 . S
N1760 C1759 1.261 . S
C1761 H1731 0.931 . S
C1761 C1758 1.357 . S
C1761 C1762 1.312 . S
C1762 H1733 0.930 . S
C1762 C1757 1.261 . S
C1762 C1761 1.312 . S
C1763 O1735 1.214 . S
C1763 O1743 1.234 . S
C1764 H1736 0.929 . S
C1764 C1767 1.391 . S
C1764 C1769 1.391 . S
C1765 H1737 0.929 . S
C1765 C1766 1.390 . S
C1765 N1768 1.391 . S
C1766 H1738 0.930 . S
C1766 C1765 1.390 . S
C1766 C1767 1.392 . S
C1767 H1739 0.929 . S
C1767 C1764 1.391 . S
C1767 C1766 1.392 . S
N1768 Co1712 2.257 . S
N1768 C1765 1.391 . S
N1768 C1769 1.388 . S
C1769 H1740 0.930 . S
C1769 C1764 1.391 . S
C1769 N1768 1.388 . S
Co1770 O1772 2.143 . S
Co1770 O1778 2.074 . S
Co1770 O1781 2.093 . S
Co1770 O1794 2.097 . S
Co1770 N1811 2.151 . S
Co1770 N1819 2.214 . S
Co1771 O1772 2.160 . S
Co1771 O1777 2.058 . S
Co1771 O1787 2.057 . S
Co1771 O1802 2.037 . S
Co1771 N1806 2.145 . S
Co1771 N1827 2.257 . S
O1772 Co1770 2.143 . S
O1772 Co1771 2.160 . S
C1773 O1774 1.278 . S
C1773 O1781 1.224 . S
O1774 C1773 1.278 . S
C1775 O1776 1.245 . S
C1775 O1787 1.232 . S
O1776 C1775 1.245 . S
O1777 Co1771 2.058 . S
O1777 C1803 1.269 . S
O1778 Co1770 2.074 . S
O1778 C1803 1.257 . S
H1779 C1804 0.930 . S
H1780 C1810 0.930 . S
O1781 Co1770 2.093 . S
O1781 C1773 1.224 . S
H1782 C1814 0.929 . S
H1783 C1816 0.930 . S
H1784 C1817 0.930 . S
H1785 C1815 0.929 . S
H1786 C1818 0.928 . S
O1787 Co1771 2.057 . S
O1787 C1775 1.232 . S
H1788 C1807 0.929 . S
H1789 C1808 0.929 . S
H1790 C1820 0.931 . S
H1791 C1812 0.929 . S
H1792 C1821 0.930 . S
H1793 C1813 0.931 . S
O1794 Co1770 2.097 . S
O1794 C1822 1.214 . S
H1795 C1823 0.929 . S
H1796 C1824 0.929 . S
H1797 C1825 0.930 . S
H1798 C1826 0.929 . S
H1799 C1828 0.930 . S
H1800 C1805 0.930 . S
H1801 C1809 0.930 . S
O1802 Co1771 2.037 . S
O1802 C1822 1.234 . S
C1803 O1777 1.269 . S
C1803 O1778 1.257 . S
C1804 H1779 0.930 . S
C1804 C1807 1.388 . S
C1804 C1809 1.418 . S
C1805 H1800 0.930 . S
C1805 C1808 1.404 . S
C1805 C1809 1.353 . S
N1806 Co1771 2.145 . S
N1806 C1807 1.397 . S
N1806 C1808 1.334 . S
C1807 H1788 0.929 . S
C1807 C1804 1.388 . S
C1807 N1806 1.397 . S
C1808 H1789 0.929 . S
C1808 C1805 1.404 . S
C1808 N1806 1.334 . S
C1809 H1801 0.930 . S
C1809 C1804 1.418 . S
C1809 C1805 1.353 . S
C1810 H1780 0.930 . S
C1810 N1811 1.330 . S
C1810 C1812 1.446 . S
N1811 Co1770 2.151 . S
N1811 C1810 1.330 . S
N1811 C1815 1.418 . S
C1812 H1791 0.929 . S
C1812 C1810 1.446 . S
C1812 C1813 1.332 . S
C1813 H1793 0.931 . S
C1813 C1812 1.332 . S
C1813 C1814 1.267 . S
C1814 H1782 0.929 . S
C1814 C1813 1.267 . S
C1814 C1815 1.251 . S
C1815 H1785 0.929 . S
C1815 N1811 1.418 . S
C1815 C1814 1.251 . S
C1816 H1783 0.930 . S
C1816 C1818 1.406 . S
C1816 C1821 1.261 . S
C1817 H1784 0.930 . S
C1817 N1819 1.325 . S
C1817 C1820 1.357 . S
C1818 H1786 0.928 . S
C1818 C1816 1.406 . S
C1818 N1819 1.261 . S
N1819 Co1770 2.214 . S
N1819 C1817 1.325 . S
N1819 C1818 1.261 . S
C1820 H1790 0.931 . S
C1820 C1817 1.357 . S
C1820 C1821 1.312 . S
C1821 H1792 0.930 . S
C1821 C1816 1.261 . S
C1821 C1820 1.312 . S
C1822 O1794 1.214 . S
C1822 O1802 1.234 . S
C1823 H1795 0.929 . S
C1823 C1826 1.391 . S
C1823 C1828 1.391 . S
C1824 H1796 0.929 . S
C1824 C1825 1.390 . S
C1824 N1827 1.391 . S
C1825 H1797 0.930 . S
C1825 C1824 1.390 . S
C1825 C1826 1.392 . S
C1826 H1798 0.929 . S
C1826 C1823 1.391 . S
C1826 C1825 1.392 . S
N1827 Co1771 2.257 . S
N1827 C1824 1.391 . S
N1827 C1828 1.388 . S
C1828 H1799 0.930 . S
C1828 C1823 1.391 . S
C1828 N1827 1.388 . S
Co1829 O1831 2.143 . S
Co1829 O1837 2.074 . S
Co1829 O1840 2.093 . S
Co1829 O1853 2.097 . S
Co1829 N1870 2.151 . S
Co1829 N1878 2.214 . S
Co1830 O1831 2.160 1_545 S
Co1830 O1836 2.059 1_545 S
Co1830 O1846 2.057 . S
Co1830 O1861 2.037 . S
Co1830 N1865 2.145 . S
Co1830 N1886 2.257 . S
O1831 Co1829 2.143 . S
O1831 Co1830 2.160 1_565 S
C1832 O1833 1.278 . S
C1832 O1840 1.224 . S
O1833 C1832 1.278 . S
C1834 O1835 1.245 1_545 S
C1834 O1846 1.232 . S
O1835 C1834 1.245 1_565 S
O1836 Co1830 2.059 1_565 S
O1836 C1862 1.270 . S
O1837 Co1829 2.074 . S
O1837 C1862 1.257 . S
H1838 C1863 0.930 . S
H1839 C1869 0.930 . S
O1840 Co1829 2.093 . S
O1840 C1832 1.224 . S
H1841 C1873 0.929 . S
H1842 C1875 0.930 . S
H1843 C1876 0.930 . S
H1844 C1874 0.929 . S
H1845 C1877 0.928 . S
O1846 Co1830 2.057 . S
O1846 C1834 1.232 . S
H1847 C1866 0.929 . S
H1848 C1867 0.929 . S
H1849 C1879 0.931 . S
H1850 C1871 0.929 . S
H1851 C1880 0.930 . S
H1852 C1872 0.931 . S
O1853 Co1829 2.097 . S
O1853 C1881 1.214 . S
H1854 C1882 0.929 . S
H1855 C1883 0.929 . S
H1856 C1884 0.930 . S
H1857 C1885 0.929 . S
H1858 C1887 0.930 1_565 S
H1859 C1864 0.930 . S
H1860 C1868 0.930 . S
O1861 Co1830 2.037 . S
O1861 C1881 1.234 1_545 S
C1862 O1836 1.270 . S
C1862 O1837 1.257 . S
C1863 H1838 0.930 . S
C1863 C1866 1.388 . S
C1863 C1868 1.418 . S
C1864 H1859 0.930 . S
C1864 C1867 1.404 . S
C1864 C1868 1.353 . S
N1865 Co1830 2.145 . S
N1865 C1866 1.397 . S
N1865 C1867 1.334 . S
C1866 H1847 0.929 . S
C1866 C1863 1.388 . S
C1866 N1865 1.397 . S
C1867 H1848 0.929 . S
C1867 C1864 1.404 . S
C1867 N1865 1.334 . S
C1868 H1860 0.930 . S
C1868 C1863 1.418 . S
C1868 C1864 1.353 . S
C1869 H1839 0.930 . S
C1869 N1870 1.330 . S
C1869 C1871 1.446 . S
N1870 Co1829 2.151 . S
N1870 C1869 1.330 . S
N1870 C1874 1.418 . S
C1871 H1850 0.929 . S
C1871 C1869 1.446 . S
C1871 C1872 1.332 . S
C1872 H1852 0.931 . S
C1872 C1871 1.332 . S
C1872 C1873 1.267 . S
C1873 H1841 0.929 . S
C1873 C1872 1.267 . S
C1873 C1874 1.251 . S
C1874 H1844 0.929 . S
C1874 N1870 1.418 . S
C1874 C1873 1.251 . S
C1875 H1842 0.930 . S
C1875 C1877 1.406 . S
C1875 C1880 1.261 . S
C1876 H1843 0.930 . S
C1876 N1878 1.325 . S
C1876 C1879 1.357 . S
C1877 H1845 0.928 . S
C1877 C1875 1.406 . S
C1877 N1878 1.261 . S
N1878 Co1829 2.214 . S
N1878 C1876 1.325 . S
N1878 C1877 1.261 . S
C1879 H1849 0.931 . S
C1879 C1876 1.357 . S
C1879 C1880 1.312 . S
C1880 H1851 0.930 . S
C1880 C1875 1.261 . S
C1880 C1879 1.312 . S
C1881 O1853 1.214 . S
C1881 O1861 1.234 1_565 S
C1882 H1854 0.929 . S
C1882 C1885 1.391 . S
C1882 C1887 1.391 . S
C1883 H1855 0.929 . S
C1883 C1884 1.390 . S
C1883 N1886 1.391 . S
C1884 H1856 0.930 . S
C1884 C1883 1.390 . S
C1884 C1885 1.392 . S
C1885 H1857 0.929 . S
C1885 C1882 1.391 . S
C1885 C1884 1.392 . S
N1886 Co1830 2.257 . S
N1886 C1883 1.391 . S
N1886 C1887 1.388 . S
C1887 H1858 0.930 1_545 S
C1887 C1882 1.391 . S
C1887 N1886 1.388 . S
Co1888 O1890 2.143 . S
Co1888 O1896 2.074 . S
Co1888 O1899 2.093 . S
Co1888 O1912 2.097 . S
Co1888 N1929 2.151 . S
Co1888 N1937 2.214 . S
Co1889 O1890 2.160 . S
Co1889 O1895 2.058 . S
Co1889 O1905 2.057 . S
Co1889 O1920 2.037 . S
Co1889 N1924 2.156 . S
Co1889 N1945 2.257 . S
O1890 Co1888 2.143 . S
O1890 Co1889 2.160 . S
C1891 O1892 1.278 . S
C1891 O1899 1.224 . S
O1892 C1891 1.278 . S
C1893 O1894 1.245 . S
C1893 O1905 1.232 . S
O1894 C1893 1.245 . S
O1895 Co1889 2.058 . S
O1895 C1921 1.269 . S
O1896 Co1888 2.074 . S
O1896 C1921 1.257 . S
H1897 C1922 0.930 . S
H1898 C1928 0.930 . S
O1899 Co1888 2.093 . S
O1899 C1891 1.224 . S
H1900 C1932 0.929 . S
H1901 C1934 0.930 . S
H1902 C1935 0.930 . S
H1903 C1933 0.929 . S
H1904 C1936 0.928 . S
O1905 Co1889 2.057 . S
O1905 C1893 1.232 . S
H1906 C1925 0.929 1_455 S
H1907 C1926 0.929 . S
H1908 C1938 0.931 . S
H1909 C1930 0.929 . S
H1910 C1939 0.930 . S
H1911 C1931 0.931 . S
O1912 Co1888 2.097 . S
O1912 C1940 1.214 . S
H1913 C1941 0.929 . S
H1914 C1942 0.929 . S
H1915 C1943 0.930 . S
H1916 C1944 0.929 . S
H1917 C1946 0.930 . S
H1918 C1923 0.930 . S
H1919 C1927 0.930 . S
O1920 Co1889 2.037 . S
O1920 C1940 1.234 . S
C1921 O1895 1.269 . S
C1921 O1896 1.257 . S
C1922 H1897 0.930 . S
C1922 C1925 1.388 . S
C1922 C1927 1.418 . S
C1923 H1918 0.930 . S
C1923 C1926 1.404 . S
C1923 C1927 1.353 . S
N1924 Co1889 2.156 . S
N1924 C1925 1.397 1_455 S
N1924 C1926 1.324 1_455 S
C1925 H1906 0.929 1_655 S
C1925 C1922 1.388 . S
C1925 N1924 1.397 1_655 S
C1926 H1907 0.929 . S
C1926 C1923 1.404 . S
C1926 N1924 1.324 1_655 S
C1927 H1919 0.930 . S
C1927 C1922 1.418 . S
C1927 C1923 1.353 . S
C1928 H1898 0.930 . S
C1928 N1929 1.330 . S
C1928 C1930 1.446 . S
N1929 Co1888 2.151 . S
N1929 C1928 1.330 . S
N1929 C1933 1.418 . S
C1930 H1909 0.929 . S
C1930 C1928 1.446 . S
C1930 C1931 1.332 . S
C1931 H1911 0.931 . S
C1931 C1930 1.332 . S
C1931 C1932 1.267 . S
C1932 H1900 0.929 . S
C1932 C1931 1.267 . S
C1932 C1933 1.251 . S
C1933 H1903 0.929 . S
C1933 N1929 1.418 . S
C1933 C1932 1.251 . S
C1934 H1901 0.930 . S
C1934 C1936 1.406 . S
C1934 C1939 1.261 . S
C1935 H1902 0.930 . S
C1935 N1937 1.325 . S
C1935 C1938 1.357 . S
C1936 H1904 0.928 . S
C1936 C1934 1.406 . S
C1936 N1937 1.261 . S
N1937 Co1888 2.214 . S
N1937 C1935 1.325 . S
N1937 C1936 1.261 . S
C1938 H1908 0.931 . S
C1938 C1935 1.357 . S
C1938 C1939 1.312 . S
C1939 H1910 0.930 . S
C1939 C1934 1.261 . S
C1939 C1938 1.312 . S
C1940 O1912 1.214 . S
C1940 O1920 1.234 . S
C1941 H1913 0.929 . S
C1941 C1944 1.391 . S
C1941 C1946 1.391 . S
C1942 H1914 0.929 . S
C1942 C1943 1.390 . S
C1942 N1945 1.391 . S
C1943 H1915 0.930 . S
C1943 C1942 1.390 . S
C1943 C1944 1.392 . S
C1944 H1916 0.929 . S
C1944 C1941 1.391 . S
C1944 C1943 1.392 . S
N1945 Co1889 2.257 . S
N1945 C1942 1.391 . S
N1945 C1946 1.388 . S
C1946 H1917 0.930 . S
C1946 C1941 1.391 . S
C1946 N1945 1.388 . S
Co1947 O1949 2.143 . S
Co1947 O1955 2.074 . S
Co1947 O1958 2.093 . S
Co1947 O1971 2.097 . S
Co1947 N1988 2.151 . S
Co1947 N1996 2.214 . S
Co1948 O1949 2.160 . S
Co1948 O1954 2.058 . S
Co1948 O1964 2.057 . S
Co1948 O1979 2.037 . S
Co1948 N1983 2.145 . S
Co1948 N2004 2.257 . S
O1949 Co1947 2.143 . S
O1949 Co1948 2.160 . S
C1950 O1951 1.278 . S
C1950 O1958 1.224 . S
O1951 C1950 1.278 . S
C1952 O1953 1.245 . S
C1952 O1964 1.232 . S
O1953 C1952 1.245 . S
O1954 Co1948 2.058 . S
O1954 C1980 1.269 . S
O1955 Co1947 2.074 . S
O1955 C1980 1.257 . S
H1956 C1981 0.930 . S
H1957 C1987 0.930 . S
O1958 Co1947 2.093 . S
O1958 C1950 1.224 . S
H1959 C1991 0.929 . S
H1960 C1993 0.930 . S
H1961 C1994 0.930 . S
H1962 C1992 0.929 . S
H1963 C1995 0.928 . S
O1964 Co1948 2.057 . S
O1964 C1952 1.232 . S
H1965 C1984 0.929 . S
H1966 C1985 0.929 . S
H1967 C1997 0.931 . S
H1968 C1989 0.929 . S
H1969 C1998 0.930 . S
H1970 C1990 0.931 . S
O1971 Co1947 2.097 . S
O1971 C1999 1.214 . S
H1972 C2000 0.929 . S
H1973 C2001 0.929 . S
H1974 C2002 0.930 . S
H1975 C2003 0.929 . S
H1976 C2005 0.930 . S
H1977 C1982 0.930 . S
H1978 C1986 0.930 . S
O1979 Co1948 2.037 . S
O1979 C1999 1.234 . S
C1980 O1954 1.269 . S
C1980 O1955 1.257 . S
C1981 H1956 0.930 . S
C1981 C1984 1.388 . S
C1981 C1986 1.418 . S
C1982 H1977 0.930 . S
C1982 C1985 1.404 . S
C1982 C1986 1.353 . S
N1983 Co1948 2.145 . S
N1983 C1984 1.397 . S
N1983 C1985 1.334 . S
C1984 H1965 0.929 . S
C1984 C1981 1.388 . S
C1984 N1983 1.397 . S
C1985 H1966 0.929 . S
C1985 C1982 1.404 . S
C1985 N1983 1.334 . S
C1986 H1978 0.930 . S
C1986 C1981 1.418 . S
C1986 C1982 1.353 . S
C1987 H1957 0.930 . S
C1987 N1988 1.330 . S
C1987 C1989 1.446 . S
N1988 Co1947 2.151 . S
N1988 C1987 1.330 . S
N1988 C1992 1.418 . S
C1989 H1968 0.929 . S
C1989 C1987 1.446 . S
C1989 C1990 1.332 . S
C1990 H1970 0.931 . S
C1990 C1989 1.332 . S
C1990 C1991 1.267 . S
C1991 H1959 0.929 . S
C1991 C1990 1.267 . S
C1991 C1992 1.251 . S
C1992 H1962 0.929 . S
C1992 N1988 1.418 . S
C1992 C1991 1.251 . S
C1993 H1960 0.930 . S
C1993 C1995 1.406 . S
C1993 C1998 1.261 . S
C1994 H1961 0.930 . S
C1994 N1996 1.325 . S
C1994 C1997 1.357 . S
C1995 H1963 0.928 . S
C1995 C1993 1.406 . S
C1995 N1996 1.261 . S
N1996 Co1947 2.214 . S
N1996 C1994 1.325 . S
N1996 C1995 1.261 . S
C1997 H1967 0.931 . S
C1997 C1994 1.357 . S
C1997 C1998 1.312 . S
C1998 H1969 0.930 . S
C1998 C1993 1.261 . S
C1998 C1997 1.312 . S
C1999 O1971 1.214 . S
C1999 O1979 1.234 . S
C2000 H1972 0.929 . S
C2000 C2003 1.391 . S
C2000 C2005 1.391 1_655 S
C2001 H1973 0.929 . S
C2001 C2002 1.390 1_455 S
C2001 N2004 1.391 . S
C2002 H1974 0.930 . S
C2002 C2001 1.390 1_655 S
C2002 C2003 1.392 . S
C2003 H1975 0.929 . S
C2003 C2000 1.391 . S
C2003 C2002 1.392 . S
N2004 Co1948 2.257 . S
N2004 C2001 1.391 . S
N2004 C2005 1.388 . S
C2005 H1976 0.930 . S
C2005 C2000 1.391 1_455 S
C2005 N2004 1.388 . S
Co2006 O2008 2.143 . S
Co2006 O2014 2.074 . S
Co2006 O2017 2.093 . S
Co2006 O2030 2.097 . S
Co2006 N2047 2.151 . S
Co2006 N2055 2.214 . S
Co2007 O2008 2.160 . S
Co2007 O2013 2.058 . S
Co2007 O2023 2.057 . S
Co2007 O2038 2.037 . S
Co2007 N2042 2.145 . S
Co2007 N2063 2.257 . S
O2008 Co2006 2.143 . S
O2008 Co2007 2.160 . S
C2009 O2010 1.278 . S
C2009 O2017 1.224 . S
O2010 C2009 1.278 . S
C2011 O2012 1.245 . S
C2011 O2023 1.232 . S
O2012 C2011 1.245 . S
O2013 Co2007 2.058 . S
O2013 C2039 1.269 . S
O2014 Co2006 2.074 . S
O2014 C2039 1.257 . S
H2015 C2040 0.930 . S
H2016 C2046 0.930 . S
O2017 Co2006 2.093 . S
O2017 C2009 1.224 . S
H2018 C2050 0.929 . S
H2019 C2052 0.930 . S
H2020 C2053 0.930 . S
H2021 C2051 0.929 . S
H2022 C2054 0.928 . S
O2023 Co2007 2.057 . S
O2023 C2011 1.232 . S
H2024 C2043 0.929 . S
H2025 C2044 0.929 . S
H2026 C2056 0.931 . S
H2027 C2048 0.929 . S
H2028 C2057 0.930 . S
H2029 C2049 0.931 . S
O2030 Co2006 2.097 . S
O2030 C2058 1.214 . S
H2031 C2059 0.929 . S
H2032 C2060 0.929 . S
H2033 C2061 0.930 . S
H2034 C2062 0.929 . S
H2035 C2064 0.930 . S
H2036 C2041 0.930 . S
H2037 C2045 0.930 . S
O2038 Co2007 2.037 . S
O2038 C2058 1.234 . S
C2039 O2013 1.269 . S
C2039 O2014 1.257 . S
C2040 H2015 0.930 . S
C2040 C2043 1.388 . S
C2040 C2045 1.418 . S
C2041 H2036 0.930 . S
C2041 C2044 1.404 . S
C2041 C2045 1.353 . S
N2042 Co2007 2.145 . S
N2042 C2043 1.397 . S
N2042 C2044 1.334 . S
C2043 H2024 0.929 . S
C2043 C2040 1.388 . S
C2043 N2042 1.397 . S
C2044 H2025 0.929 . S
C2044 C2041 1.404 . S
C2044 N2042 1.334 . S
C2045 H2037 0.930 . S
C2045 C2040 1.418 . S
C2045 C2041 1.353 . S
C2046 H2016 0.930 . S
C2046 N2047 1.330 . S
C2046 C2048 1.446 . S
N2047 Co2006 2.151 . S
N2047 C2046 1.330 . S
N2047 C2051 1.418 . S
C2048 H2027 0.929 . S
C2048 C2046 1.446 . S
C2048 C2049 1.332 . S
C2049 H2029 0.931 . S
C2049 C2048 1.332 . S
C2049 C2050 1.267 . S
C2050 H2018 0.929 . S
C2050 C2049 1.267 . S
C2050 C2051 1.251 . S
C2051 H2021 0.929 . S
C2051 N2047 1.418 . S
C2051 C2050 1.251 . S
C2052 H2019 0.930 . S
C2052 C2054 1.406 . S
C2052 C2057 1.261 . S
C2053 H2020 0.930 . S
C2053 N2055 1.325 . S
C2053 C2056 1.357 . S
C2054 H2022 0.928 . S
C2054 C2052 1.406 . S
C2054 N2055 1.261 . S
N2055 Co2006 2.214 . S
N2055 C2053 1.325 . S
N2055 C2054 1.261 . S
C2056 H2026 0.931 . S
C2056 C2053 1.357 . S
C2056 C2057 1.312 . S
C2057 H2028 0.930 . S
C2057 C2052 1.261 . S
C2057 C2056 1.312 . S
C2058 O2030 1.214 . S
C2058 O2038 1.234 . S
C2059 H2031 0.929 . S
C2059 C2062 1.391 . S
C2059 C2064 1.391 . S
C2060 H2032 0.929 . S
C2060 C2061 1.390 . S
C2060 N2063 1.391 . S
C2061 H2033 0.930 . S
C2061 C2060 1.390 . S
C2061 C2062 1.392 . S
C2062 H2034 0.929 . S
C2062 C2059 1.391 . S
C2062 C2061 1.392 . S
N2063 Co2007 2.257 . S
N2063 C2060 1.391 . S
N2063 C2064 1.388 . S
C2064 H2035 0.930 . S
C2064 C2059 1.391 . S
C2064 N2063 1.388 . S
Co2065 O2067 2.143 . S
Co2065 O2073 2.074 . S
Co2065 O2076 2.093 . S
Co2065 O2089 2.097 . S
Co2065 N2106 2.151 . S
Co2065 N2114 2.214 . S
Co2066 O2067 2.160 . S
Co2066 O2072 2.058 . S
Co2066 O2082 2.066 . S
Co2066 O2097 2.037 . S
Co2066 N2101 2.145 1_565 S
Co2066 N2122 2.257 1_565 S
O2067 Co2065 2.143 . S
O2067 Co2066 2.160 . S
C2068 O2069 1.278 1_565 S
C2068 O2076 1.224 . S
O2069 C2068 1.278 1_545 S
C2070 O2071 1.245 . S
C2070 O2082 1.231 . S
O2071 C2070 1.245 . S
O2072 Co2066 2.058 . S
O2072 C2098 1.269 . S
O2073 Co2065 2.074 . S
O2073 C2098 1.257 . S
H2074 C2099 0.930 . S
H2075 C2105 0.930 . S
O2076 Co2065 2.093 . S
O2076 C2068 1.224 . S
H2077 C2109 0.929 . S
H2078 C2111 0.930 . S
H2079 C2112 0.930 . S
H2080 C2110 0.929 . S
H2081 C2113 0.928 . S
O2082 Co2066 2.066 . S
O2082 C2070 1.231 . S
H2083 C2102 0.929 . S
H2084 C2103 0.929 . S
H2085 C2115 0.931 . S
H2086 C2107 0.929 . S
H2087 C2116 0.930 . S
H2088 C2108 0.931 . S
O2089 Co2065 2.097 . S
O2089 C2117 1.214 . S
H2090 C2118 0.929 . S
H2091 C2119 0.929 . S
H2092 C2120 0.930 . S
H2093 C2121 0.929 . S
H2094 C2123 0.930 . S
H2095 C2100 0.930 . S
H2096 C2104 0.930 . S
O2097 Co2066 2.037 . S
O2097 C2117 1.234 . S
C2098 O2072 1.269 . S
C2098 O2073 1.257 . S
C2099 H2074 0.930 . S
C2099 C2102 1.388 1_545 S
C2099 C2104 1.418 . S
C2100 H2095 0.930 . S
C2100 C2103 1.404 . S
C2100 C2104 1.353 . S
N2101 Co2066 2.145 1_545 S
N2101 C2102 1.397 1_545 S
N2101 C2103 1.334 . S
C2102 H2083 0.929 . S
C2102 C2099 1.388 1_565 S
C2102 N2101 1.397 1_565 S
C2103 H2084 0.929 . S
C2103 C2100 1.404 . S
C2103 N2101 1.334 . S
C2104 H2096 0.930 . S
C2104 C2099 1.418 . S
C2104 C2100 1.353 . S
C2105 H2075 0.930 . S
C2105 N2106 1.330 . S
C2105 C2107 1.446 . S
N2106 Co2065 2.151 . S
N2106 C2105 1.330 . S
N2106 C2110 1.418 . S
C2107 H2086 0.929 . S
C2107 C2105 1.446 . S
C2107 C2108 1.332 . S
C2108 H2088 0.931 . S
C2108 C2107 1.332 . S
C2108 C2109 1.267 . S
C2109 H2077 0.929 . S
C2109 C2108 1.267 . S
C2109 C2110 1.251 . S
C2110 H2080 0.929 . S
C2110 N2106 1.418 . S
C2110 C2109 1.251 . S
C2111 H2078 0.930 . S
C2111 C2113 1.406 . S
C2111 C2116 1.261 . S
C2112 H2079 0.930 . S
C2112 N2114 1.325 . S
C2112 C2115 1.357 . S
C2113 H2081 0.928 . S
C2113 C2111 1.406 . S
C2113 N2114 1.261 . S
N2114 Co2065 2.214 . S
N2114 C2112 1.325 . S
N2114 C2113 1.261 . S
C2115 H2085 0.931 . S
C2115 C2112 1.357 . S
C2115 C2116 1.312 . S
C2116 H2087 0.930 . S
C2116 C2111 1.261 . S
C2116 C2115 1.312 . S
C2117 O2089 1.214 . S
C2117 O2097 1.234 . S
C2118 H2090 0.929 . S
C2118 C2121 1.391 . S
C2118 C2123 1.391 . S
C2119 H2091 0.929 . S
C2119 C2120 1.390 . S
C2119 N2122 1.391 . S
C2120 H2092 0.930 . S
C2120 C2119 1.390 . S
C2120 C2121 1.392 . S
C2121 H2093 0.929 . S
C2121 C2118 1.391 . S
C2121 C2120 1.392 . S
N2122 Co2066 2.257 1_545 S
N2122 C2119 1.391 . S
N2122 C2123 1.388 . S
C2123 H2094 0.930 . S
C2123 C2118 1.391 . S
C2123 N2122 1.388 . S
H2124 C2130 0.930 . S
H2125 C2134 0.930 . S
H2126 C2139 0.929 . S
H2127 C2137 0.929 . S
H2128 C2132 0.929 . S
H2129 C2138 0.929 . S
C2130 H2124 0.930 . S
C2130 C2131 1.367 . S
C2130 C2138 1.378 . S
C2131 C2130 1.367 . S
C2131 C2139 1.433 . S
C2132 H2128 0.929 . S
C2132 C2134 1.378 . S
C2132 C2136 1.350 . S
C2133 C2136 1.463 . S
C2133 C2138 1.350 . S
C2133 N2141 1.427 . S
C2134 H2125 0.930 . S
C2134 C2132 1.378 . S
C2134 C2135 1.367 . S
C2135 C2134 1.367 . S
C2135 C2137 1.433 . S
C2136 C2132 1.350 . S
C2136 C2133 1.463 . S
C2136 N2140 1.427 . S
C2137 H2127 0.929 . S
C2137 C2135 1.433 . S
C2137 N2140 1.384 . S
C2138 H2129 0.929 . S
C2138 C2130 1.378 . S
C2138 C2133 1.350 . S
C2139 H2126 0.929 . S
C2139 C2131 1.433 . S
C2139 N2141 1.384 . S
N2140 C2136 1.427 . S
N2140 C2137 1.384 . S
N2141 C2133 1.427 . S
N2141 C2139 1.384 . S
H2142 C2148 0.930 . S
H2143 C2152 0.930 . S
H2144 C2157 0.929 . S
H2145 C2155 0.929 . S
H2146 C2150 0.929 . S
H2147 C2156 0.929 . S
C2148 H2142 0.930 . S
C2148 C2149 1.367 . S
C2148 C2156 1.378 . S
C2149 C2148 1.367 . S
C2149 C2157 1.433 . S
C2150 H2146 0.929 . S
C2150 C2152 1.378 . S
C2150 C2154 1.350 . S
C2151 C2154 1.463 . S
C2151 C2156 1.350 . S
C2151 N2159 1.427 . S
C2152 H2143 0.930 . S
C2152 C2150 1.378 . S
C2152 C2153 1.367 . S
C2153 C2152 1.367 . S
C2153 C2155 1.433 . S
C2154 C2150 1.350 . S
C2154 C2151 1.463 . S
C2154 N2158 1.427 . S
C2155 H2145 0.929 . S
C2155 C2153 1.433 . S
C2155 N2158 1.384 . S
C2156 H2147 0.929 . S
C2156 C2148 1.378 . S
C2156 C2151 1.350 . S
C2157 H2144 0.929 . S
C2157 C2149 1.433 . S
C2157 N2159 1.384 . S
N2158 C2154 1.427 . S
N2158 C2155 1.384 . S
N2159 C2151 1.427 . S
N2159 C2157 1.384 . S
H2160 C2166 0.930 . S
H2161 C2170 0.930 . S
H2162 C2175 0.929 . S
H2163 C2173 0.929 . S
H2164 C2168 0.929 . S
H2165 C2174 0.929 . S
C2166 H2160 0.930 . S
C2166 C2167 1.367 . S
C2166 C2174 1.378 . S
C2167 C2166 1.367 . S
C2167 C2175 1.433 . S
C2168 H2164 0.929 . S
C2168 C2170 1.378 . S
C2168 C2172 1.350 . S
C2169 C2172 1.463 . S
C2169 C2174 1.350 . S
C2169 N2177 1.427 . S
C2170 H2161 0.930 . S
C2170 C2168 1.378 . S
C2170 C2171 1.367 . S
C2171 C2170 1.367 . S
C2171 C2173 1.433 . S
C2172 C2168 1.350 . S
C2172 C2169 1.463 . S
C2172 N2176 1.427 . S
C2173 H2163 0.929 . S
C2173 C2171 1.433 . S
C2173 N2176 1.384 . S
C2174 H2165 0.929 . S
C2174 C2166 1.378 . S
C2174 C2169 1.350 . S
C2175 H2162 0.929 . S
C2175 C2167 1.433 . S
C2175 N2177 1.384 . S
N2176 C2172 1.427 . S
N2176 C2173 1.384 . S
N2177 C2169 1.427 . S
N2177 C2175 1.384 . S
H2178 C2184 0.930 . S
H2179 C2188 0.930 . S
H2180 C2193 0.929 . S
H2181 C2191 0.929 . S
H2182 C2186 0.929 . S
H2183 C2192 0.929 . S
C2184 H2178 0.930 . S
C2184 C2185 1.367 . S
C2184 C2192 1.378 . S
C2185 C2184 1.367 . S
C2185 C2193 1.433 . S
C2186 H2182 0.929 . S
C2186 C2188 1.378 . S
C2186 C2190 1.350 . S
C2187 C2190 1.463 . S
C2187 C2192 1.350 . S
C2187 N2195 1.427 . S
C2188 H2179 0.930 . S
C2188 C2186 1.378 . S
C2188 C2189 1.367 . S
C2189 C2188 1.367 . S
C2189 C2191 1.433 . S
C2190 C2186 1.350 . S
C2190 C2187 1.463 . S
C2190 N2194 1.427 . S
C2191 H2181 0.929 . S
C2191 C2189 1.433 . S
C2191 N2194 1.384 . S
C2192 H2183 0.929 . S
C2192 C2184 1.378 . S
C2192 C2187 1.350 . S
C2193 H2180 0.929 . S
C2193 C2185 1.433 . S
C2193 N2195 1.384 . S
N2194 C2190 1.427 . S
N2194 C2191 1.384 . S
N2195 C2187 1.427 . S
N2195 C2193 1.384 . S
H2196 C2202 0.930 . S
H2197 C2206 0.930 . S
H2198 C2211 0.929 . S
H2199 C2209 0.929 . S
H2200 C2204 0.929 . S
H2201 C2210 0.929 . S
C2202 H2196 0.930 . S
C2202 C2203 1.367 . S
C2202 C2210 1.378 . S
C2203 C2202 1.367 . S
C2203 C2211 1.433 . S
C2204 H2200 0.929 . S
C2204 C2206 1.378 . S
C2204 C2208 1.350 . S
C2205 C2208 1.463 . S
C2205 C2210 1.350 . S
C2205 N2213 1.427 . S
C2206 H2197 0.930 . S
C2206 C2204 1.378 . S
C2206 C2207 1.367 . S
C2207 C2206 1.367 . S
C2207 C2209 1.433 . S
C2208 C2204 1.350 . S
C2208 C2205 1.463 . S
C2208 N2212 1.427 . S
C2209 H2199 0.929 . S
C2209 C2207 1.433 . S
C2209 N2212 1.384 . S
C2210 H2201 0.929 . S
C2210 C2202 1.378 . S
C2210 C2205 1.350 . S
C2211 H2198 0.929 . S
C2211 C2203 1.433 . S
C2211 N2213 1.384 . S
N2212 C2208 1.427 . S
N2212 C2209 1.384 . S
N2213 C2205 1.427 . S
N2213 C2211 1.384 . S
H2214 C2220 0.930 . S
H2215 C2224 0.930 . S
H2216 C2229 0.929 . S
H2217 C2227 0.929 . S
H2218 C2222 0.929 . S
H2219 C2228 0.929 . S
C2220 H2214 0.930 . S
C2220 C2221 1.367 . S
C2220 C2228 1.378 . S
C2221 C2220 1.367 . S
C2221 C2229 1.433 . S
C2222 H2218 0.929 . S
C2222 C2224 1.378 . S
C2222 C2226 1.350 . S
C2223 C2226 1.463 . S
C2223 C2228 1.350 . S
C2223 N2231 1.427 . S
C2224 H2215 0.930 . S
C2224 C2222 1.378 . S
C2224 C2225 1.367 . S
C2225 C2224 1.367 . S
C2225 C2227 1.433 . S
C2226 C2222 1.350 . S
C2226 C2223 1.463 . S
C2226 N2230 1.427 . S
C2227 H2217 0.929 . S
C2227 C2225 1.433 . S
C2227 N2230 1.384 . S
C2228 H2219 0.929 . S
C2228 C2220 1.378 . S
C2228 C2223 1.350 . S
C2229 H2216 0.929 . S
C2229 C2221 1.433 . S
C2229 N2231 1.384 . S
N2230 C2226 1.427 . S
N2230 C2227 1.384 . S
N2231 C2223 1.427 . S
N2231 C2229 1.384 . S
H2232 C2238 0.930 . S
H2233 C2242 0.930 . S
H2234 C2247 0.929 . S
H2235 C2245 0.929 . S
H2236 C2240 0.929 . S
H2237 C2246 0.929 . S
C2238 H2232 0.930 . S
C2238 C2239 1.367 . S
C2238 C2246 1.378 . S
C2239 C2238 1.367 . S
C2239 C2247 1.433 . S
C2240 H2236 0.929 . S
C2240 C2242 1.378 . S
C2240 C2244 1.350 . S
C2241 C2244 1.463 . S
C2241 C2246 1.350 . S
C2241 N2249 1.427 . S
C2242 H2233 0.930 . S
C2242 C2240 1.378 . S
C2242 C2243 1.367 . S
C2243 C2242 1.367 . S
C2243 C2245 1.433 . S
C2244 C2240 1.350 . S
C2244 C2241 1.463 . S
C2244 N2248 1.427 . S
C2245 H2235 0.929 . S
C2245 C2243 1.433 . S
C2245 N2248 1.384 . S
C2246 H2237 0.929 . S
C2246 C2238 1.378 . S
C2246 C2241 1.350 . S
C2247 H2234 0.929 . S
C2247 C2239 1.433 . S
C2247 N2249 1.384 . S
N2248 C2244 1.427 . S
N2248 C2245 1.384 . S
N2249 C2241 1.427 . S
N2249 C2247 1.384 . S
H2250 C2256 0.930 . S
H2251 C2260 0.930 . S
H2252 C2265 0.929 . S
H2253 C2263 0.929 . S
H2254 C2258 0.929 . S
H2255 C2264 0.929 . S
C2256 H2250 0.930 . S
C2256 C2257 1.367 . S
C2256 C2264 1.378 . S
C2257 C2256 1.367 . S
C2257 C2265 1.433 . S
C2258 H2254 0.929 . S
C2258 C2260 1.378 . S
C2258 C2262 1.350 . S
C2259 C2262 1.463 . S
C2259 C2264 1.350 . S
C2259 N2267 1.427 . S
C2260 H2251 0.930 . S
C2260 C2258 1.378 . S
C2260 C2261 1.367 . S
C2261 C2260 1.367 . S
C2261 C2263 1.433 . S
C2262 C2258 1.350 . S
C2262 C2259 1.463 . S
C2262 N2266 1.427 . S
C2263 H2253 0.929 . S
C2263 C2261 1.433 . S
C2263 N2266 1.384 . S
C2264 H2255 0.929 . S
C2264 C2256 1.378 . S
C2264 C2259 1.350 . S
C2265 H2252 0.929 . S
C2265 C2257 1.433 . S
C2265 N2267 1.384 . S
N2266 C2262 1.427 . S
N2266 C2263 1.384 . S
N2267 C2259 1.427 . S
N2267 C2265 1.384 . S
H2268 C2274 0.930 . S
H2269 C2278 0.930 . S
H2270 C2283 0.929 . S
H2271 C2281 0.929 . S
H2272 C2276 0.929 . S
H2273 C2282 0.929 . S
C2274 H2268 0.930 . S
C2274 C2275 1.367 . S
C2274 C2282 1.378 . S
C2275 C2274 1.367 . S
C2275 C2283 1.433 . S
C2276 H2272 0.929 . S
C2276 C2278 1.378 . S
C2276 C2280 1.350 . S
C2277 C2280 1.463 . S
C2277 C2282 1.350 . S
C2277 N2285 1.427 . S
C2278 H2269 0.930 . S
C2278 C2276 1.378 . S
C2278 C2279 1.367 . S
C2279 C2278 1.367 . S
C2279 C2281 1.433 . S
C2280 C2276 1.350 . S
C2280 C2277 1.463 . S
C2280 N2284 1.427 . S
C2281 H2271 0.929 . S
C2281 C2279 1.433 . S
C2281 N2284 1.384 . S
C2282 H2273 0.929 . S
C2282 C2274 1.378 . S
C2282 C2277 1.350 . S
C2283 H2270 0.929 . S
C2283 C2275 1.433 . S
C2283 N2285 1.384 . S
N2284 C2280 1.427 . S
N2284 C2281 1.384 . S
N2285 C2277 1.427 . S
N2285 C2283 1.384 . S
H2286 C2292 0.930 . S
H2287 C2296 0.930 . S
H2288 C2301 0.929 . S
H2289 C2299 0.929 . S
H2290 C2294 0.929 . S
H2291 C2300 0.929 . S
C2292 H2286 0.930 . S
C2292 C2293 1.367 . S
C2292 C2300 1.378 . S
C2293 C2292 1.367 . S
C2293 C2301 1.433 1_655 S
C2294 H2290 0.929 . S
C2294 C2296 1.378 . S
C2294 C2298 1.350 1_455 S
C2295 C2298 1.463 . S
C2295 C2300 1.350 . S
C2295 N2303 1.427 1_655 S
C2296 H2287 0.930 . S
C2296 C2294 1.378 . S
C2296 C2297 1.367 1_455 S
C2297 C2296 1.367 1_655 S
C2297 C2299 1.433 . S
C2298 C2294 1.350 1_655 S
C2298 C2295 1.463 . S
C2298 N2302 1.427 . S
C2299 H2289 0.929 . S
C2299 C2297 1.433 . S
C2299 N2302 1.384 . S
C2300 H2291 0.929 . S
C2300 C2292 1.378 . S
C2300 C2295 1.350 . S
C2301 H2288 0.929 . S
C2301 C2293 1.433 1_455 S
C2301 N2303 1.384 . S
N2302 C2298 1.427 . S
N2302 C2299 1.384 . S
N2303 C2295 1.427 1_455 S
N2303 C2301 1.384 . S
H2304 C2310 0.930 . S
H2305 C2314 0.930 . S
H2306 C2319 0.929 . S
H2307 C2317 0.929 . S
H2308 C2312 0.929 . S
H2309 C2318 0.929 . S
C2310 H2304 0.930 . S
C2310 C2311 1.367 . S
C2310 C2318 1.378 . S
C2311 C2310 1.367 . S
C2311 C2319 1.433 . S
C2312 H2308 0.929 . S
C2312 C2314 1.378 . S
C2312 C2316 1.350 . S
C2313 C2316 1.463 . S
C2313 C2318 1.350 . S
C2313 N2321 1.427 . S
C2314 H2305 0.930 . S
C2314 C2312 1.378 . S
C2314 C2315 1.367 . S
C2315 C2314 1.367 . S
C2315 C2317 1.433 . S
C2316 C2312 1.350 . S
C2316 C2313 1.463 . S
C2316 N2320 1.427 . S
C2317 H2307 0.929 . S
C2317 C2315 1.433 . S
C2317 N2320 1.384 . S
C2318 H2309 0.929 . S
C2318 C2310 1.378 . S
C2318 C2313 1.350 . S
C2319 H2306 0.929 . S
C2319 C2311 1.433 . S
C2319 N2321 1.384 . S
N2320 C2316 1.427 . S
N2320 C2317 1.384 . S
N2321 C2313 1.427 . S
N2321 C2319 1.384 . S
H2322 C2328 0.930 . S
H2323 C2332 0.930 . S
H2324 C2337 0.929 . S
H2325 C2335 0.929 . S
H2326 C2330 0.929 . S
H2327 C2336 0.929 . S
C2328 H2322 0.930 . S
C2328 C2329 1.367 . S
C2328 C2336 1.378 . S
C2329 C2328 1.367 . S
C2329 C2337 1.433 . S
C2330 H2326 0.929 . S
C2330 C2332 1.378 . S
C2330 C2334 1.350 . S
C2331 C2334 1.463 . S
C2331 C2336 1.350 . S
C2331 N2339 1.427 . S
C2332 H2323 0.930 . S
C2332 C2330 1.378 . S
C2332 C2333 1.367 . S
C2333 C2332 1.367 . S
C2333 C2335 1.433 . S
C2334 C2330 1.350 . S
C2334 C2331 1.463 . S
C2334 N2338 1.427 . S
C2335 H2325 0.929 . S
C2335 C2333 1.433 . S
C2335 N2338 1.384 . S
C2336 H2327 0.929 . S
C2336 C2328 1.378 . S
C2336 C2331 1.350 . S
C2337 H2324 0.929 . S
C2337 C2329 1.433 . S
C2337 N2339 1.384 . S
N2338 C2334 1.427 . S
N2338 C2335 1.384 . S
N2339 C2331 1.427 . S
N2339 C2337 1.384 . S
H2340 C2346 0.930 . S
H2341 C2350 0.925 1_545 S
H2342 C2355 0.914 1_545 S
H2343 C2353 0.929 . S
H2344 C2348 0.904 1_545 S
H2345 C2354 0.929 . S
C2346 H2340 0.930 . S
C2346 C2347 1.367 . S
C2346 C2354 1.378 . S
C2347 C2346 1.367 . S
C2347 C2355 1.438 . S
C2348 H2344 0.904 1_565 S
C2348 C2350 1.378 . S
C2348 C2352 1.357 . S
C2349 C2352 1.463 . S
C2349 C2354 1.350 . S
C2349 N2357 1.450 . S
C2350 H2341 0.925 1_565 S
C2350 C2348 1.378 . S
C2350 C2351 1.393 . S
C2351 C2350 1.393 . S
C2351 C2353 1.433 . S
C2352 C2348 1.357 . S
C2352 C2349 1.463 . S
C2352 N2356 1.427 . S
C2353 H2343 0.929 . S
C2353 C2351 1.433 . S
C2353 N2356 1.384 . S
C2354 H2345 0.929 . S
C2354 C2346 1.378 . S
C2354 C2349 1.350 . S
C2355 H2342 0.914 1_565 S
C2355 C2347 1.438 . S
C2355 N2357 1.378 . S
N2356 C2352 1.427 . S
N2356 C2353 1.384 . S
N2357 C2349 1.450 . S
N2357 C2355 1.378 . S
H2358 C2364 0.930 . S
H2359 C2368 0.930 . S
H2360 C2373 0.929 . S
H2361 C2371 0.929 . S
H2362 C2366 0.929 . S
H2363 C2372 0.929 . S
C2364 H2358 0.930 . S
C2364 C2365 1.367 . S
C2364 C2372 1.378 . S
C2365 C2364 1.367 . S
C2365 C2373 1.433 . S
C2366 H2362 0.929 . S
C2366 C2368 1.378 . S
C2366 C2370 1.350 . S
C2367 C2370 1.463 . S
C2367 C2372 1.350 . S
C2367 N2375 1.427 . S
C2368 H2359 0.930 . S
C2368 C2366 1.378 . S
C2368 C2369 1.367 . S
C2369 C2368 1.367 . S
C2369 C2371 1.433 . S
C2370 C2366 1.350 . S
C2370 C2367 1.463 . S
C2370 N2374 1.427 . S
C2371 H2361 0.929 . S
C2371 C2369 1.433 . S
C2371 N2374 1.384 . S
C2372 H2363 0.929 . S
C2372 C2364 1.378 . S
C2372 C2367 1.350 . S
C2373 H2360 0.929 . S
C2373 C2365 1.433 . S
C2373 N2375 1.384 . S
N2374 C2370 1.427 . S
N2374 C2371 1.384 . S
N2375 C2367 1.427 . S
N2375 C2373 1.384 . S
H2376 C2382 0.930 . S
H2377 C2386 0.930 . S
H2378 C2391 0.929 . S
H2379 C2389 0.929 . S
H2380 C2384 0.929 . S
H2381 C2390 0.929 . S
C2382 H2376 0.930 . S
C2382 C2383 1.367 . S
C2382 C2390 1.378 . S
C2383 C2382 1.367 . S
C2383 C2391 1.433 . S
C2384 H2380 0.929 . S
C2384 C2386 1.378 . S
C2384 C2388 1.350 . S
C2385 C2388 1.463 . S
C2385 C2390 1.350 . S
C2385 N2393 1.427 . S
C2386 H2377 0.930 . S
C2386 C2384 1.378 . S
C2386 C2387 1.367 . S
C2387 C2386 1.367 . S
C2387 C2389 1.433 . S
C2388 C2384 1.350 . S
C2388 C2385 1.463 . S
C2388 N2392 1.427 . S
C2389 H2379 0.929 . S
C2389 C2387 1.433 . S
C2389 N2392 1.384 . S
C2390 H2381 0.929 . S
C2390 C2382 1.378 . S
C2390 C2385 1.350 . S
C2391 H2378 0.929 . S
C2391 C2383 1.433 . S
C2391 N2393 1.384 . S
N2392 C2388 1.427 . S
N2392 C2389 1.384 . S
N2393 C2385 1.427 . S
N2393 C2391 1.384 . S
H2394 C2400 0.930 . S
H2395 C2404 0.930 . S
H2396 C2409 0.929 . S
H2397 C2407 0.929 . S
H2398 C2402 0.929 . S
H2399 C2408 0.929 . S
C2400 H2394 0.930 . S
C2400 C2401 1.367 . S
C2400 C2408 1.378 . S
C2401 C2400 1.367 . S
C2401 C2409 1.433 . S
C2402 H2398 0.929 . S
C2402 C2404 1.378 . S
C2402 C2406 1.350 . S
C2403 C2406 1.463 . S
C2403 C2408 1.350 . S
C2403 N2411 1.427 . S
C2404 H2395 0.930 . S
C2404 C2402 1.378 . S
C2404 C2405 1.367 . S
C2405 C2404 1.367 . S
C2405 C2407 1.433 . S
C2406 C2402 1.350 . S
C2406 C2403 1.463 . S
C2406 N2410 1.427 . S
C2407 H2397 0.929 . S
C2407 C2405 1.433 . S
C2407 N2410 1.384 . S
C2408 H2399 0.929 . S
C2408 C2400 1.378 . S
C2408 C2403 1.350 . S
C2409 H2396 0.929 . S
C2409 C2401 1.433 . S
C2409 N2411 1.384 . S
N2410 C2406 1.427 . S
N2410 C2407 1.384 . S
N2411 C2403 1.427 . S
N2411 C2409 1.384 . S
H2412 C2418 0.930 . S
H2413 C2422 0.930 . S
H2414 C2427 0.929 . S
H2415 C2425 0.929 . S
H2416 C2420 0.929 . S
H2417 C2426 0.929 . S
C2418 H2412 0.930 . S
C2418 C2419 1.367 . S
C2418 C2426 1.378 . S
C2419 C2418 1.367 . S
C2419 C2427 1.433 . S
C2420 H2416 0.929 . S
C2420 C2422 1.378 . S
C2420 C2424 1.350 . S
C2421 C2424 1.463 . S
C2421 C2426 1.350 . S
C2421 N2429 1.427 . S
C2422 H2413 0.930 . S
C2422 C2420 1.378 . S
C2422 C2423 1.367 . S
C2423 C2422 1.367 . S
C2423 C2425 1.433 . S
C2424 C2420 1.350 . S
C2424 C2421 1.463 . S
C2424 N2428 1.427 . S
C2425 H2415 0.929 . S
C2425 C2423 1.433 . S
C2425 N2428 1.384 . S
C2426 H2417 0.929 . S
C2426 C2418 1.378 . S
C2426 C2421 1.350 . S
C2427 H2414 0.929 . S
C2427 C2419 1.433 . S
C2427 N2429 1.384 . S
N2428 C2424 1.427 . S
N2428 C2425 1.384 . S
N2429 C2421 1.427 . S
N2429 C2427 1.384 . S
H2430 C2436 0.930 . S
H2431 C2440 0.930 . S
H2432 C2445 0.929 . S
H2433 C2443 0.929 . S
H2434 C2438 0.929 . S
H2435 C2444 0.929 . S
C2436 H2430 0.930 . S
C2436 C2437 1.367 . S
C2436 C2444 1.378 . S
C2437 C2436 1.367 . S
C2437 C2445 1.433 . S
C2438 H2434 0.929 . S
C2438 C2440 1.378 . S
C2438 C2442 1.350 . S
C2439 C2442 1.463 . S
C2439 C2444 1.350 . S
C2439 N2447 1.427 . S
C2440 H2431 0.930 . S
C2440 C2438 1.378 . S
C2440 C2441 1.367 . S
C2441 C2440 1.367 . S
C2441 C2443 1.433 . S
C2442 C2438 1.350 . S
C2442 C2439 1.463 . S
C2442 N2446 1.427 . S
C2443 H2433 0.929 . S
C2443 C2441 1.433 . S
C2443 N2446 1.384 . S
C2444 H2435 0.929 . S
C2444 C2436 1.378 . S
C2444 C2439 1.350 . S
C2445 H2432 0.929 . S
C2445 C2437 1.433 . S
C2445 N2447 1.384 . S
N2446 C2442 1.427 . S
N2446 C2443 1.384 . S
N2447 C2439 1.427 . S
N2447 C2445 1.384 . S
H2448 C2454 0.930 . S
H2449 C2458 0.930 . S
H2450 C2463 0.929 . S
H2451 C2461 0.929 . S
H2452 C2456 0.929 . S
H2453 C2462 0.929 . S
C2454 H2448 0.930 . S
C2454 C2455 1.367 1_655 S
C2454 C2462 1.378 . S
C2455 C2454 1.367 1_455 S
C2455 C2463 1.433 . S
C2456 H2452 0.929 . S
C2456 C2458 1.378 . S
C2456 C2460 1.350 . S
C2457 C2460 1.463 . S
C2457 C2462 1.350 1_455 S
C2457 N2465 1.427 . S
C2458 H2449 0.930 . S
C2458 C2456 1.378 . S
C2458 C2459 1.403 . S
C2459 C2458 1.403 . S
C2459 C2461 1.403 1_455 S
C2460 C2456 1.350 . S
C2460 C2457 1.463 . S
C2460 N2464 1.427 1_455 S
C2461 H2451 0.929 . S
C2461 C2459 1.403 1_655 S
C2461 N2464 1.384 . S
C2462 H2453 0.929 . S
C2462 C2454 1.378 . S
C2462 C2457 1.350 1_655 S
C2463 H2450 0.929 . S
C2463 C2455 1.433 . S
C2463 N2465 1.384 . S
N2464 C2460 1.427 1_655 S
N2464 C2461 1.384 . S
N2465 C2457 1.427 . S
N2465 C2463 1.384 . S
H2466 C2472 0.930 . S
H2467 C2476 0.930 . S
H2468 C2481 0.929 . S
H2469 C2479 0.929 . S
H2470 C2474 0.929 . S
H2471 C2480 0.929 . S
C2472 H2466 0.930 . S
C2472 C2473 1.367 . S
C2472 C2480 1.378 . S
C2473 C2472 1.367 . S
C2473 C2481 1.433 . S
C2474 H2470 0.929 . S
C2474 C2476 1.378 . S
C2474 C2478 1.350 . S
C2475 C2478 1.463 . S
C2475 C2480 1.350 . S
C2475 N2483 1.427 . S
C2476 H2467 0.930 . S
C2476 C2474 1.378 . S
C2476 C2477 1.367 . S
C2477 C2476 1.367 . S
C2477 C2479 1.433 . S
C2478 C2474 1.350 . S
C2478 C2475 1.463 . S
C2478 N2482 1.427 . S
C2479 H2469 0.929 . S
C2479 C2477 1.433 . S
C2479 N2482 1.384 . S
C2480 H2471 0.929 . S
C2480 C2472 1.378 . S
C2480 C2475 1.350 . S
C2481 H2468 0.929 . S
C2481 C2473 1.433 . S
C2481 N2483 1.384 . S
N2482 C2478 1.427 . S
N2482 C2479 1.384 . S
N2483 C2475 1.427 . S
N2483 C2481 1.384 . S
H2484 C2490 0.930 . S
H2485 C2494 0.930 . S
H2486 C2499 0.929 . S
H2487 C2497 0.929 . S
H2488 C2492 0.929 . S
H2489 C2498 0.929 . S
C2490 H2484 0.930 . S
C2490 C2491 1.367 . S
C2490 C2498 1.378 . S
C2491 C2490 1.367 . S
C2491 C2499 1.433 . S
C2492 H2488 0.929 . S
C2492 C2494 1.378 . S
C2492 C2496 1.350 . S
C2493 C2496 1.463 . S
C2493 C2498 1.350 . S
C2493 N2501 1.427 . S
C2494 H2485 0.930 . S
C2494 C2492 1.378 . S
C2494 C2495 1.367 . S
C2495 C2494 1.367 . S
C2495 C2497 1.433 . S
C2496 C2492 1.350 . S
C2496 C2493 1.463 . S
C2496 N2500 1.427 . S
C2497 H2487 0.929 . S
C2497 C2495 1.433 . S
C2497 N2500 1.384 . S
C2498 H2489 0.929 . S
C2498 C2490 1.378 . S
C2498 C2493 1.350 . S
C2499 H2486 0.929 . S
C2499 C2491 1.433 . S
C2499 N2501 1.384 . S
N2500 C2496 1.427 . S
N2500 C2497 1.384 . S
N2501 C2493 1.427 . S
N2501 C2499 1.384 . S
H2502 C2508 0.930 1_565 S
H2503 C2512 0.930 . S
H2504 C2517 0.929 . S
H2505 C2515 0.929 . S
H2506 C2510 0.929 . S
H2507 C2516 0.929 . S
C2508 H2502 0.930 1_545 S
C2508 C2509 1.367 . S
C2508 C2516 1.378 1_545 S
C2509 C2508 1.367 . S
C2509 C2517 1.433 . S
C2510 H2506 0.929 . S
C2510 C2512 1.378 . S
C2510 C2514 1.350 . S
C2511 C2514 1.463 . S
C2511 C2516 1.350 1_545 S
C2511 N2519 1.427 . S
C2512 H2503 0.930 . S
C2512 C2510 1.378 . S
C2512 C2513 1.368 . S
C2513 C2512 1.368 . S
C2513 C2515 1.438 1_545 S
C2514 C2510 1.350 . S
C2514 C2511 1.463 . S
C2514 N2518 1.427 1_545 S
C2515 H2505 0.929 . S
C2515 C2513 1.438 1_565 S
C2515 N2518 1.384 . S
C2516 H2507 0.929 . S
C2516 C2508 1.378 1_565 S
C2516 C2511 1.350 1_565 S
C2517 H2504 0.929 . S
C2517 C2509 1.433 . S
C2517 N2519 1.384 . S
N2518 C2514 1.427 1_565 S
N2518 C2515 1.384 . S
N2519 C2511 1.427 . S
N2519 C2517 1.384 . S
H2520 C2526 0.930 . S
H2521 C2530 0.930 . S
H2522 C2535 0.929 . S
H2523 C2533 0.929 . S
H2524 C2528 0.929 . S
H2525 C2534 0.929 . S
C2526 H2520 0.930 . S
C2526 C2527 1.367 . S
C2526 C2534 1.378 . S
C2527 C2526 1.367 . S
C2527 C2535 1.433 . S
C2528 H2524 0.929 . S
C2528 C2530 1.378 . S
C2528 C2532 1.350 . S
C2529 C2532 1.463 . S
C2529 C2534 1.350 . S
C2529 N2537 1.427 . S
C2530 H2521 0.930 . S
C2530 C2528 1.378 . S
C2530 C2531 1.367 . S
C2531 C2530 1.367 . S
C2531 C2533 1.433 . S
C2532 C2528 1.350 . S
C2532 C2529 1.463 . S
C2532 N2536 1.427 . S
C2533 H2523 0.929 . S
C2533 C2531 1.433 . S
C2533 N2536 1.384 . S
C2534 H2525 0.929 . S
C2534 C2526 1.378 . S
C2534 C2529 1.350 . S
C2535 H2522 0.929 . S
C2535 C2527 1.433 . S
C2535 N2537 1.384 . S
N2536 C2532 1.427 . S
N2536 C2533 1.384 . S
N2537 C2529 1.427 . S
N2537 C2535 1.384 . S
H2538 C2544 0.930 . S
H2539 C2548 0.930 . S
H2540 C2553 0.929 . S
H2541 C2551 0.929 . S
H2542 C2546 0.929 . S
H2543 C2552 0.929 . S
C2544 H2538 0.930 . S
C2544 C2545 1.367 . S
C2544 C2552 1.378 . S
C2545 C2544 1.367 . S
C2545 C2553 1.433 . S
C2546 H2542 0.929 . S
C2546 C2548 1.378 . S
C2546 C2550 1.350 . S
C2547 C2550 1.463 . S
C2547 C2552 1.350 . S
C2547 N2555 1.427 . S
C2548 H2539 0.930 . S
C2548 C2546 1.378 . S
C2548 C2549 1.367 . S
C2549 C2548 1.367 . S
C2549 C2551 1.433 . S
C2550 C2546 1.350 . S
C2550 C2547 1.463 . S
C2550 N2554 1.427 . S
C2551 H2541 0.929 . S
C2551 C2549 1.433 . S
C2551 N2554 1.384 . S
C2552 H2543 0.929 . S
C2552 C2544 1.378 . S
C2552 C2547 1.350 . S
C2553 H2540 0.929 . S
C2553 C2545 1.433 . S
C2553 N2555 1.384 . S
N2554 C2550 1.427 . S
N2554 C2551 1.384 . S
N2555 C2547 1.427 . S
N2555 C2553 1.384 . S
H2556 C2562 0.930 . S
H2557 C2566 0.930 . S
H2558 C2571 0.929 . S
H2559 C2569 0.929 . S
H2560 C2564 0.929 . S
H2561 C2570 0.929 . S
C2562 H2556 0.930 . S
C2562 C2563 1.367 . S
C2562 C2570 1.378 . S
C2563 C2562 1.367 . S
C2563 C2571 1.433 . S
C2564 H2560 0.929 . S
C2564 C2566 1.378 . S
C2564 C2568 1.350 . S
C2565 C2568 1.463 . S
C2565 C2570 1.350 . S
C2565 N2573 1.427 . S
C2566 H2557 0.930 . S
C2566 C2564 1.378 . S
C2566 C2567 1.367 . S
C2567 C2566 1.367 . S
C2567 C2569 1.433 . S
C2568 C2564 1.350 . S
C2568 C2565 1.463 . S
C2568 N2572 1.427 . S
C2569 H2559 0.929 . S
C2569 C2567 1.433 . S
C2569 N2572 1.384 . S
C2570 H2561 0.929 . S
C2570 C2562 1.378 . S
C2570 C2565 1.350 . S
C2571 H2558 0.929 . S
C2571 C2563 1.433 . S
C2571 N2573 1.384 . S
N2572 C2568 1.427 . S
N2572 C2569 1.384 . S
N2573 C2565 1.427 . S
N2573 C2571 1.384 . S
H2574 C2580 0.930 . S
H2575 C2584 0.930 . S
H2576 C2589 0.929 . S
H2577 C2587 0.929 . S
H2578 C2582 0.929 . S
H2579 C2588 0.929 . S
C2580 H2574 0.930 . S
C2580 C2581 1.367 . S
C2580 C2588 1.378 . S
C2581 C2580 1.367 . S
C2581 C2589 1.433 . S
C2582 H2578 0.929 . S
C2582 C2584 1.378 . S
C2582 C2586 1.350 . S
C2583 C2586 1.463 . S
C2583 C2588 1.350 . S
C2583 N2591 1.427 . S
C2584 H2575 0.930 . S
C2584 C2582 1.378 . S
C2584 C2585 1.367 . S
C2585 C2584 1.367 . S
C2585 C2587 1.433 . S
C2586 C2582 1.350 . S
C2586 C2583 1.463 . S
C2586 N2590 1.427 . S
C2587 H2577 0.929 . S
C2587 C2585 1.433 . S
C2587 N2590 1.384 . S
C2588 H2579 0.929 . S
C2588 C2580 1.378 . S
C2588 C2583 1.350 . S
C2589 H2576 0.929 . S
C2589 C2581 1.433 . S
C2589 N2591 1.384 . S
N2590 C2586 1.427 . S
N2590 C2587 1.384 . S
N2591 C2583 1.427 . S
N2591 C2589 1.384 . S
H2592 C2598 0.930 . S
H2593 C2602 0.930 . S
H2594 C2607 0.929 . S
H2595 C2605 0.929 . S
H2596 C2600 0.944 . S
H2597 C2606 0.929 . S
C2598 H2592 0.930 . S
C2598 C2599 1.367 . S
C2598 C2606 1.378 . S
C2599 C2598 1.367 . S
C2599 C2607 1.433 . S
C2600 H2596 0.944 . S
C2600 C2602 1.378 . S
C2600 C2604 1.335 1_565 S
C2601 C2604 1.463 . S
C2601 C2606 1.350 . S
C2601 N2609 1.427 . S
C2602 H2593 0.930 . S
C2602 C2600 1.378 . S
C2602 C2603 1.361 1_565 S
C2603 C2602 1.361 1_545 S
C2603 C2605 1.439 . S
C2604 C2600 1.335 1_545 S
C2604 C2601 1.463 . S
C2604 N2608 1.427 . S
C2605 H2595 0.929 . S
C2605 C2603 1.439 . S
C2605 N2608 1.384 . S
C2606 H2597 0.929 . S
C2606 C2598 1.378 . S
C2606 C2601 1.350 . S
C2607 H2594 0.929 . S
C2607 C2599 1.433 . S
C2607 N2609 1.384 . S
N2608 C2604 1.427 . S
N2608 C2605 1.384 . S
N2609 C2601 1.427 . S
N2609 C2607 1.384 . S
H2610 C2616 0.952 . S
H2611 C2620 0.930 . S
H2612 C2625 0.929 . S
H2613 C2623 0.929 . S
H2614 C2618 0.929 . S
H2615 C2624 0.929 . S
C2616 H2610 0.952 . S
C2616 C2617 1.367 . S
C2616 C2624 1.378 . S
C2617 C2616 1.367 . S
C2617 C2625 1.433 . S
C2618 H2614 0.929 . S
C2618 C2620 1.378 . S
C2618 C2622 1.350 . S
C2619 C2622 1.463 . S
C2619 C2624 1.350 . S
C2619 N2627 1.427 . S
C2620 H2611 0.930 . S
C2620 C2618 1.378 . S
C2620 C2621 1.367 . S
C2621 C2620 1.367 . S
C2621 C2623 1.433 . S
C2622 C2618 1.350 . S
C2622 C2619 1.463 . S
C2622 N2626 1.427 . S
C2623 H2613 0.929 . S
C2623 C2621 1.433 . S
C2623 N2626 1.384 . S
C2624 H2615 0.929 . S
C2624 C2616 1.378 . S
C2624 C2619 1.350 . S
C2625 H2612 0.929 . S
C2625 C2617 1.433 . S
C2625 N2627 1.384 . S
N2626 C2622 1.427 . S
N2626 C2623 1.384 . S
N2627 C2619 1.427 . S
N2627 C2625 1.384 . S
H2628 C2634 0.930 . S
H2629 C2638 0.930 . S
H2630 C2643 0.929 . S
H2631 C2641 0.929 . S
H2632 C2636 0.929 . S
H2633 C2642 0.929 . S
C2634 H2628 0.930 . S
C2634 C2635 1.367 . S
C2634 C2642 1.378 . S
C2635 C2634 1.367 . S
C2635 C2643 1.433 . S
C2636 H2632 0.929 . S
C2636 C2638 1.378 . S
C2636 C2640 1.350 . S
C2637 C2640 1.463 . S
C2637 C2642 1.350 . S
C2637 N2645 1.427 . S
C2638 H2629 0.930 . S
C2638 C2636 1.378 . S
C2638 C2639 1.360 . S
C2639 C2638 1.360 . S
C2639 C2641 1.440 1_455 S
C2640 C2636 1.350 . S
C2640 C2637 1.463 . S
C2640 N2644 1.414 . S
C2641 H2631 0.929 . S
C2641 C2639 1.440 1_655 S
C2641 N2644 1.384 1_655 S
C2642 H2633 0.929 . S
C2642 C2634 1.378 . S
C2642 C2637 1.350 . S
C2643 H2630 0.929 . S
C2643 C2635 1.433 . S
C2643 N2645 1.384 . S
N2644 C2640 1.414 . S
N2644 C2641 1.384 1_455 S
N2645 C2637 1.427 . S
N2645 C2643 1.384 . S
H2646 C2652 0.930 . S
H2647 C2656 0.930 . S
H2648 C2661 0.929 . S
H2649 C2659 0.929 . S
H2650 C2654 0.929 . S
H2651 C2660 0.929 . S
C2652 H2646 0.930 . S
C2652 C2653 1.367 . S
C2652 C2660 1.378 . S
C2653 C2652 1.367 . S
C2653 C2661 1.433 . S
C2654 H2650 0.929 . S
C2654 C2656 1.378 . S
C2654 C2658 1.350 . S
C2655 C2658 1.463 . S
C2655 C2660 1.350 . S
C2655 N2663 1.427 . S
C2656 H2647 0.930 . S
C2656 C2654 1.378 . S
C2656 C2657 1.367 . S
C2657 C2656 1.367 . S
C2657 C2659 1.433 . S
C2658 C2654 1.350 . S
C2658 C2655 1.463 . S
C2658 N2662 1.427 . S
C2659 H2649 0.929 . S
C2659 C2657 1.433 . S
C2659 N2662 1.384 . S
C2660 H2651 0.929 . S
C2660 C2652 1.378 . S
C2660 C2655 1.350 . S
C2661 H2648 0.929 . S
C2661 C2653 1.433 . S
C2661 N2663 1.384 . S
N2662 C2658 1.427 . S
N2662 C2659 1.384 . S
N2663 C2655 1.427 . S
N2663 C2661 1.384 . S
H2664 C2670 0.930 . S
H2665 C2674 0.930 . S
H2666 C2679 0.929 . S
H2667 C2677 0.929 . S
H2668 C2672 0.929 . S
H2669 C2678 0.929 . S
C2670 H2664 0.930 . S
C2670 C2671 1.367 . S
C2670 C2678 1.378 . S
C2671 C2670 1.367 . S
C2671 C2679 1.433 . S
C2672 H2668 0.929 . S
C2672 C2674 1.378 . S
C2672 C2676 1.350 . S
C2673 C2676 1.463 . S
C2673 C2678 1.350 . S
C2673 N2681 1.427 . S
C2674 H2665 0.930 . S
C2674 C2672 1.378 . S
C2674 C2675 1.367 . S
C2675 C2674 1.367 . S
C2675 C2677 1.433 . S
C2676 C2672 1.350 . S
C2676 C2673 1.463 . S
C2676 N2680 1.427 . S
C2677 H2667 0.929 . S
C2677 C2675 1.433 . S
C2677 N2680 1.384 . S
C2678 H2669 0.929 . S
C2678 C2670 1.378 . S
C2678 C2673 1.350 . S
C2679 H2666 0.929 . S
C2679 C2671 1.433 . S
C2679 N2681 1.384 . S
N2680 C2676 1.427 . S
N2680 C2677 1.384 . S
N2681 C2673 1.427 . S
N2681 C2679 1.384 . S
H2682 C2688 0.930 . S
H2683 C2692 0.930 . S
H2684 C2697 0.929 . S
H2685 C2695 0.929 . S
H2686 C2690 0.929 . S
H2687 C2696 0.929 . S
C2688 H2682 0.930 . S
C2688 C2689 1.367 . S
C2688 C2696 1.378 . S
C2689 C2688 1.367 . S
C2689 C2697 1.433 . S
C2690 H2686 0.929 . S
C2690 C2692 1.378 . S
C2690 C2694 1.350 . S
C2691 C2694 1.463 . S
C2691 C2696 1.350 . S
C2691 N2699 1.427 . S
C2692 H2683 0.930 . S
C2692 C2690 1.378 . S
C2692 C2693 1.367 . S
C2693 C2692 1.367 . S
C2693 C2695 1.433 . S
C2694 C2690 1.350 . S
C2694 C2691 1.463 . S
C2694 N2698 1.427 . S
C2695 H2685 0.929 . S
C2695 C2693 1.433 . S
C2695 N2698 1.384 . S
C2696 H2687 0.929 . S
C2696 C2688 1.378 . S
C2696 C2691 1.350 . S
C2697 H2684 0.929 . S
C2697 C2689 1.433 . S
C2697 N2699 1.384 . S
N2698 C2694 1.427 . S
N2698 C2695 1.384 . S
N2699 C2691 1.427 . S
N2699 C2697 1.384 . S
H2700 C2706 0.930 . S
H2701 C2710 0.930 . S
H2702 C2715 0.929 . S
H2703 C2713 0.929 . S
H2704 C2708 0.929 . S
H2705 C2714 0.929 . S
C2706 H2700 0.930 . S
C2706 C2707 1.367 . S
C2706 C2714 1.378 . S
C2707 C2706 1.367 . S
C2707 C2715 1.433 . S
C2708 H2704 0.929 . S
C2708 C2710 1.378 . S
C2708 C2712 1.350 . S
C2709 C2712 1.463 . S
C2709 C2714 1.350 . S
C2709 N2717 1.427 . S
C2710 H2701 0.930 . S
C2710 C2708 1.378 . S
C2710 C2711 1.367 . S
C2711 C2710 1.367 . S
C2711 C2713 1.433 . S
C2712 C2708 1.350 . S
C2712 C2709 1.463 . S
C2712 N2716 1.427 . S
C2713 H2703 0.929 . S
C2713 C2711 1.433 . S
C2713 N2716 1.384 . S
C2714 H2705 0.929 . S
C2714 C2706 1.378 . S
C2714 C2709 1.350 . S
C2715 H2702 0.929 . S
C2715 C2707 1.433 . S
C2715 N2717 1.384 . S
N2716 C2712 1.427 . S
N2716 C2713 1.384 . S
N2717 C2709 1.427 . S
N2717 C2715 1.384 . S
H2718 C2724 0.930 . S
H2719 C2728 0.930 . S
H2720 C2733 0.929 . S
H2721 C2731 0.929 . S
H2722 C2726 0.929 . S
H2723 C2732 0.929 . S
C2724 H2718 0.930 . S
C2724 C2725 1.367 . S
C2724 C2732 1.378 . S
C2725 C2724 1.367 . S
C2725 C2733 1.433 . S
C2726 H2722 0.929 . S
C2726 C2728 1.378 . S
C2726 C2730 1.350 . S
C2727 C2730 1.463 . S
C2727 C2732 1.350 . S
C2727 N2735 1.427 . S
C2728 H2719 0.930 . S
C2728 C2726 1.378 . S
C2728 C2729 1.367 . S
C2729 C2728 1.367 . S
C2729 C2731 1.433 . S
C2730 C2726 1.350 . S
C2730 C2727 1.463 . S
C2730 N2734 1.427 . S
C2731 H2721 0.929 . S
C2731 C2729 1.433 . S
C2731 N2734 1.384 . S
C2732 H2723 0.929 . S
C2732 C2724 1.378 . S
C2732 C2727 1.350 . S
C2733 H2720 0.929 . S
C2733 C2725 1.433 . S
C2733 N2735 1.384 . S
N2734 C2730 1.427 . S
N2734 C2731 1.384 . S
N2735 C2727 1.427 . S
N2735 C2733 1.384 . S
H2736 C2742 0.930 . S
H2737 C2746 0.911 1_565 S
H2738 C2751 0.929 . S
H2739 C2749 0.929 . S
H2740 C2744 0.929 1_565 S
H2741 C2750 0.929 . S
C2742 H2736 0.930 . S
C2742 C2743 1.367 . S
C2742 C2750 1.378 . S
C2743 C2742 1.367 . S
C2743 C2751 1.433 1_545 S
C2744 H2740 0.929 1_545 S
C2744 C2746 1.378 . S
C2744 C2748 1.350 . S
C2745 C2748 1.463 . S
C2745 C2750 1.350 . S
C2745 N2753 1.427 1_545 S
C2746 H2737 0.911 1_545 S
C2746 C2744 1.378 . S
C2746 C2747 1.367 . S
C2747 C2746 1.367 . S
C2747 C2749 1.433 . S
C2748 C2744 1.350 . S
C2748 C2745 1.463 . S
C2748 N2752 1.427 . S
C2749 H2739 0.929 . S
C2749 C2747 1.433 . S
C2749 N2752 1.384 . S
C2750 H2741 0.929 . S
C2750 C2742 1.378 . S
C2750 C2745 1.350 . S
C2751 H2738 0.929 . S
C2751 C2743 1.433 1_565 S
C2751 N2753 1.384 . S
N2752 C2748 1.427 . S
N2752 C2749 1.384 . S
N2753 C2745 1.427 1_565 S
N2753 C2751 1.384 . S
H2754 C2760 0.930 . S
H2755 C2764 0.930 . S
H2756 C2769 0.929 . S
H2757 C2767 0.929 . S
H2758 C2762 0.929 . S
H2759 C2768 0.929 . S
C2760 H2754 0.930 . S
C2760 C2761 1.367 . S
C2760 C2768 1.378 . S
C2761 C2760 1.367 . S
C2761 C2769 1.433 . S
C2762 H2758 0.929 . S
C2762 C2764 1.378 . S
C2762 C2766 1.350 . S
C2763 C2766 1.463 . S
C2763 C2768 1.350 . S
C2763 N2771 1.427 . S
C2764 H2755 0.930 . S
C2764 C2762 1.378 . S
C2764 C2765 1.367 . S
C2765 C2764 1.367 . S
C2765 C2767 1.433 . S
C2766 C2762 1.350 . S
C2766 C2763 1.463 . S
C2766 N2770 1.427 . S
C2767 H2757 0.929 . S
C2767 C2765 1.433 . S
C2767 N2770 1.384 . S
C2768 H2759 0.929 . S
C2768 C2760 1.378 . S
C2768 C2763 1.350 . S
C2769 H2756 0.929 . S
C2769 C2761 1.433 . S
C2769 N2771 1.384 . S
N2770 C2766 1.427 . S
N2770 C2767 1.384 . S
N2771 C2763 1.427 . S
N2771 C2769 1.384 . S
H2772 C2778 0.930 1_655 S
H2773 C2782 0.930 . S
H2774 C2787 0.929 . S
H2775 C2785 0.929 1_655 S
H2776 C2780 0.929 . S
H2777 C2786 0.929 1_655 S
C2778 H2772 0.930 1_455 S
C2778 C2779 1.367 . S
C2778 C2786 1.378 . S
C2779 C2778 1.367 . S
C2779 C2787 1.433 . S
C2780 H2776 0.929 . S
C2780 C2782 1.378 . S
C2780 C2784 1.350 . S
C2781 C2784 1.463 1_554 S
C2781 C2786 1.350 . S
C2781 N2789 1.427 . S
C2782 H2773 0.930 . S
C2782 C2780 1.378 . S
C2782 C2783 1.367 . S
C2783 C2782 1.367 . S
C2783 C2785 1.433 . S
C2784 C2780 1.350 . S
C2784 C2781 1.463 1_556 S
C2784 N2788 1.427 . S
C2785 H2775 0.929 1_455 S
C2785 C2783 1.433 . S
C2785 N2788 1.384 . S
C2786 H2777 0.929 1_455 S
C2786 C2778 1.378 . S
C2786 C2781 1.350 . S
C2787 H2774 0.929 . S
C2787 C2779 1.433 . S
C2787 N2789 1.384 . S
N2788 C2784 1.427 . S
N2788 C2785 1.384 . S
N2789 C2781 1.427 . S
N2789 C2787 1.384 . S
H2790 C2796 0.930 . S
H2791 C2800 0.930 . S
H2792 C2805 0.929 . S
H2793 C2803 0.929 . S
H2794 C2798 0.929 . S
H2795 C2804 0.929 . S
C2796 H2790 0.930 . S
C2796 C2797 1.367 . S
C2796 C2804 1.378 . S
C2797 C2796 1.367 . S
C2797 C2805 1.433 . S
C2798 H2794 0.929 . S
C2798 C2800 1.378 . S
C2798 C2802 1.350 . S
C2799 C2802 1.463 1_556 S
C2799 C2804 1.350 . S
C2799 N2807 1.427 . S
C2800 H2791 0.930 . S
C2800 C2798 1.378 . S
C2800 C2801 1.367 . S
C2801 C2800 1.367 . S
C2801 C2803 1.433 . S
C2802 C2798 1.350 . S
C2802 C2799 1.463 1_554 S
C2802 N2806 1.427 . S
C2803 H2793 0.929 . S
C2803 C2801 1.433 . S
C2803 N2806 1.384 . S
C2804 H2795 0.929 . S
C2804 C2796 1.378 . S
C2804 C2799 1.350 . S
C2805 H2792 0.929 . S
C2805 C2797 1.433 . S
C2805 N2807 1.384 . S
N2806 C2802 1.427 . S
N2806 C2803 1.384 . S
N2807 C2799 1.427 . S
N2807 C2805 1.384 . S
H2808 C2814 0.930 . S
H2809 C2818 0.930 1_565 S
H2810 C2823 0.929 . S
H2811 C2821 0.929 . S
H2812 C2816 0.929 1_565 S
H2813 C2822 0.929 . S
C2814 H2808 0.930 . S
C2814 C2815 1.367 . S
C2814 C2822 1.378 . S
C2815 C2814 1.367 . S
C2815 C2823 1.433 1_545 S
C2816 H2812 0.929 1_545 S
C2816 C2818 1.378 . S
C2816 C2820 1.350 . S
C2817 C2820 1.463 1_556 S
C2817 C2822 1.350 . S
C2817 N2825 1.428 . S
C2818 H2809 0.930 1_545 S
C2818 C2816 1.378 . S
C2818 C2819 1.367 . S
C2819 C2818 1.367 . S
C2819 C2821 1.433 . S
C2820 C2816 1.350 . S
C2820 C2817 1.463 1_554 S
C2820 N2824 1.427 . S
C2821 H2811 0.929 . S
C2821 C2819 1.433 . S
C2821 N2824 1.384 . S
C2822 H2813 0.929 . S
C2822 C2814 1.378 . S
C2822 C2817 1.350 . S
C2823 H2810 0.929 . S
C2823 C2815 1.433 1_565 S
C2823 N2825 1.384 1_565 S
N2824 C2820 1.427 . S
N2824 C2821 1.384 . S
N2825 C2817 1.428 . S
N2825 C2823 1.384 1_545 S
H2826 C2832 0.930 . S
H2827 C2836 0.930 . S
H2828 C2841 0.929 . S
H2829 C2839 0.929 . S
H2830 C2834 0.929 . S
H2831 C2840 0.929 . S
C2832 H2826 0.930 . S
C2832 C2833 1.367 . S
C2832 C2840 1.378 . S
C2833 C2832 1.367 . S
C2833 C2841 1.433 . S
C2834 H2830 0.929 . S
C2834 C2836 1.378 . S
C2834 C2838 1.350 . S
C2835 C2838 1.463 1_556 S
C2835 C2840 1.350 . S
C2835 N2843 1.427 . S
C2836 H2827 0.930 . S
C2836 C2834 1.378 . S
C2836 C2837 1.367 . S
C2837 C2836 1.367 . S
C2837 C2839 1.433 . S
C2838 C2834 1.350 . S
C2838 C2835 1.463 1_554 S
C2838 N2842 1.427 . S
C2839 H2829 0.929 . S
C2839 C2837 1.433 . S
C2839 N2842 1.384 . S
C2840 H2831 0.929 . S
C2840 C2832 1.378 . S
C2840 C2835 1.350 . S
C2841 H2828 0.929 . S
C2841 C2833 1.433 . S
C2841 N2843 1.384 . S
N2842 C2838 1.427 . S
N2842 C2839 1.384 . S
N2843 C2835 1.427 . S
N2843 C2841 1.384 . S
H2844 C2850 0.930 . S
H2845 C2854 0.930 . S
H2846 C2859 0.929 . S
H2847 C2857 0.929 . S
H2848 C2852 0.929 . S
H2849 C2858 0.929 . S
C2850 H2844 0.930 . S
C2850 C2851 1.367 . S
C2850 C2858 1.378 . S
C2851 C2850 1.367 . S
C2851 C2859 1.433 . S
C2852 H2848 0.929 . S
C2852 C2854 1.378 . S
C2852 C2856 1.350 . S
C2853 C2856 1.463 1_554 S
C2853 C2858 1.350 . S
C2853 N2861 1.427 . S
C2854 H2845 0.930 . S
C2854 C2852 1.378 . S
C2854 C2855 1.367 . S
C2855 C2854 1.367 . S
C2855 C2857 1.433 . S
C2856 C2852 1.350 . S
C2856 C2853 1.463 1_556 S
C2856 N2860 1.427 . S
C2857 H2847 0.929 . S
C2857 C2855 1.433 . S
C2857 N2860 1.384 . S
C2858 H2849 0.929 . S
C2858 C2850 1.378 . S
C2858 C2853 1.350 . S
C2859 H2846 0.929 . S
C2859 C2851 1.433 . S
C2859 N2861 1.384 . S
N2860 C2856 1.427 . S
N2860 C2857 1.384 . S
N2861 C2853 1.427 . S
N2861 C2859 1.384 . S
H2862 C2868 0.935 . S
H2863 C2872 0.930 . S
H2864 C2877 0.929 . S
H2865 C2875 0.929 1_565 S
H2866 C2870 0.929 . S
H2867 C2876 0.929 1_565 S
C2868 H2862 0.935 . S
C2868 C2869 1.362 1_565 S
C2868 C2876 1.377 1_565 S
C2869 C2868 1.362 1_545 S
C2869 C2877 1.433 . S
C2870 H2866 0.929 . S
C2870 C2872 1.378 . S
C2870 C2874 1.350 . S
C2871 C2874 1.463 1_556 S
C2871 C2876 1.350 . S
C2871 N2879 1.427 . S
C2872 H2863 0.930 . S
C2872 C2870 1.378 . S
C2872 C2873 1.367 . S
C2873 C2872 1.367 . S
C2873 C2875 1.433 . S
C2874 C2870 1.350 . S
C2874 C2871 1.463 1_554 S
C2874 N2878 1.427 . S
C2875 H2865 0.929 1_545 S
C2875 C2873 1.433 . S
C2875 N2878 1.384 . S
C2876 H2867 0.929 1_545 S
C2876 C2868 1.377 1_545 S
C2876 C2871 1.350 . S
C2877 H2864 0.929 . S
C2877 C2869 1.433 . S
C2877 N2879 1.384 . S
N2878 C2874 1.427 . S
N2878 C2875 1.384 . S
N2879 C2871 1.427 . S
N2879 C2877 1.384 . S
H2880 C2886 0.930 . S
H2881 C2890 0.930 . S
H2882 C2895 0.929 . S
H2883 C2893 0.929 . S
H2884 C2888 0.929 . S
H2885 C2894 0.929 . S
C2886 H2880 0.930 . S
C2886 C2887 1.367 . S
C2886 C2894 1.378 . S
C2887 C2886 1.367 . S
C2887 C2895 1.433 . S
C2888 H2884 0.929 . S
C2888 C2890 1.378 . S
C2888 C2892 1.350 . S
C2889 C2892 1.463 . S
C2889 C2894 1.350 . S
C2889 N2897 1.427 . S
C2890 H2881 0.930 . S
C2890 C2888 1.378 . S
C2890 C2891 1.367 . S
C2891 C2890 1.367 . S
C2891 C2893 1.433 . S
C2892 C2888 1.350 . S
C2892 C2889 1.463 . S
C2892 N2896 1.427 . S
C2893 H2883 0.929 . S
C2893 C2891 1.433 . S
C2893 N2896 1.384 . S
C2894 H2885 0.929 . S
C2894 C2886 1.378 . S
C2894 C2889 1.350 . S
C2895 H2882 0.929 . S
C2895 C2887 1.433 . S
C2895 N2897 1.384 . S
N2896 C2892 1.427 . S
N2896 C2893 1.384 . S
N2897 C2889 1.427 . S
N2897 C2895 1.384 . S
H2898 C2904 0.930 . S
H2899 C2908 0.930 . S
H2900 C2913 0.929 . S
H2901 C2911 0.929 . S
H2902 C2906 0.929 . S
H2903 C2912 0.929 . S
C2904 H2898 0.930 . S
C2904 C2905 1.367 . S
C2904 C2912 1.378 . S
C2905 C2904 1.367 . S
C2905 C2913 1.433 . S
C2906 H2902 0.929 . S
C2906 C2908 1.378 . S
C2906 C2910 1.350 . S
C2907 C2910 1.463 . S
C2907 C2912 1.350 . S
C2907 N2915 1.427 . S
C2908 H2899 0.930 . S
C2908 C2906 1.378 . S
C2908 C2909 1.367 . S
C2909 C2908 1.367 . S
C2909 C2911 1.433 . S
C2910 C2906 1.350 . S
C2910 C2907 1.463 . S
C2910 N2914 1.427 . S
C2911 H2901 0.929 . S
C2911 C2909 1.433 . S
C2911 N2914 1.384 . S
C2912 H2903 0.929 . S
C2912 C2904 1.378 . S
C2912 C2907 1.350 . S
C2913 H2900 0.929 . S
C2913 C2905 1.433 . S
C2913 N2915 1.384 . S
N2914 C2910 1.427 . S
N2914 C2911 1.384 . S
N2915 C2907 1.427 . S
N2915 C2913 1.384 . S
H2916 C2922 0.930 . S
H2917 C2926 0.930 . S
H2918 C2931 0.929 . S
H2919 C2929 0.929 . S
H2920 C2924 0.929 . S
H2921 C2930 0.929 . S
C2922 H2916 0.930 . S
C2922 C2923 1.367 1_455 S
C2922 C2930 1.378 . S
C2923 C2922 1.367 1_655 S
C2923 C2931 1.433 . S
C2924 H2920 0.929 . S
C2924 C2926 1.378 . S
C2924 C2928 1.350 . S
C2925 C2928 1.463 . S
C2925 C2930 1.350 1_655 S
C2925 N2933 1.427 . S
C2926 H2917 0.930 . S
C2926 C2924 1.378 . S
C2926 C2927 1.367 . S
C2927 C2926 1.367 . S
C2927 C2929 1.433 1_655 S
C2928 C2924 1.350 . S
C2928 C2925 1.463 . S
C2928 N2932 1.427 1_655 S
C2929 H2919 0.929 . S
C2929 C2927 1.433 1_455 S
C2929 N2932 1.384 . S
C2930 H2921 0.929 . S
C2930 C2922 1.378 . S
C2930 C2925 1.350 1_455 S
C2931 H2918 0.929 . S
C2931 C2923 1.433 . S
C2931 N2933 1.384 . S
N2932 C2928 1.427 1_455 S
N2932 C2929 1.384 . S
N2933 C2925 1.427 . S
N2933 C2931 1.384 . S
H2934 C2940 0.930 . S
H2935 C2944 0.930 . S
H2936 C2949 0.929 . S
H2937 C2947 0.929 . S
H2938 C2942 0.929 . S
H2939 C2948 0.929 . S
C2940 H2934 0.930 . S
C2940 C2941 1.367 . S
C2940 C2948 1.378 . S
C2941 C2940 1.367 . S
C2941 C2949 1.433 . S
C2942 H2938 0.929 . S
C2942 C2944 1.378 . S
C2942 C2946 1.350 . S
C2943 C2946 1.463 . S
C2943 C2948 1.350 . S
C2943 N2951 1.427 . S
C2944 H2935 0.930 . S
C2944 C2942 1.378 . S
C2944 C2945 1.367 . S
C2945 C2944 1.367 . S
C2945 C2947 1.433 . S
C2946 C2942 1.350 . S
C2946 C2943 1.463 . S
C2946 N2950 1.427 . S
C2947 H2937 0.929 . S
C2947 C2945 1.433 . S
C2947 N2950 1.384 . S
C2948 H2939 0.929 . S
C2948 C2940 1.378 . S
C2948 C2943 1.350 . S
C2949 H2936 0.929 . S
C2949 C2941 1.433 . S
C2949 N2951 1.384 . S
N2950 C2946 1.427 . S
N2950 C2947 1.384 . S
N2951 C2943 1.427 . S
N2951 C2949 1.384 . S
H2952 C2958 0.930 . S
H2953 C2962 0.930 . S
H2954 C2967 0.929 . S
H2955 C2965 0.929 . S
H2956 C2960 0.929 . S
H2957 C2966 0.929 . S
C2958 H2952 0.930 . S
C2958 C2959 1.367 . S
C2958 C2966 1.378 . S
C2959 C2958 1.367 . S
C2959 C2967 1.433 1_655 S
C2960 H2956 0.929 . S
C2960 C2962 1.378 . S
C2960 C2964 1.350 1_455 S
C2961 C2964 1.463 . S
C2961 C2966 1.350 . S
C2961 N2969 1.427 1_655 S
C2962 H2953 0.930 . S
C2962 C2960 1.378 . S
C2962 C2963 1.367 1_455 S
C2963 C2962 1.367 1_655 S
C2963 C2965 1.433 . S
C2964 C2960 1.350 1_655 S
C2964 C2961 1.463 . S
C2964 N2968 1.427 . S
C2965 H2955 0.929 . S
C2965 C2963 1.433 . S
C2965 N2968 1.384 . S
C2966 H2957 0.929 . S
C2966 C2958 1.378 . S
C2966 C2961 1.350 . S
C2967 H2954 0.929 . S
C2967 C2959 1.433 1_455 S
C2967 N2969 1.384 . S
N2968 C2964 1.427 . S
N2968 C2965 1.384 . S
N2969 C2961 1.427 1_455 S
N2969 C2967 1.384 . S
H2970 C2976 0.930 . S
H2971 C2980 0.930 . S
H2972 C2985 0.929 . S
H2973 C2983 0.929 . S
H2974 C2978 0.929 . S
H2975 C2984 0.929 . S
C2976 H2970 0.930 . S
C2976 C2977 1.367 . S
C2976 C2984 1.378 . S
C2977 C2976 1.367 . S
C2977 C2985 1.433 . S
C2978 H2974 0.929 . S
C2978 C2980 1.378 . S
C2978 C2982 1.350 . S
C2979 C2982 1.463 . S
C2979 C2984 1.350 . S
C2979 N2987 1.427 . S
C2980 H2971 0.930 . S
C2980 C2978 1.378 . S
C2980 C2981 1.367 . S
C2981 C2980 1.367 . S
C2981 C2983 1.433 . S
C2982 C2978 1.350 . S
C2982 C2979 1.463 . S
C2982 N2986 1.427 . S
C2983 H2973 0.929 . S
C2983 C2981 1.433 . S
C2983 N2986 1.384 . S
C2984 H2975 0.929 . S
C2984 C2976 1.378 . S
C2984 C2979 1.350 . S
C2985 H2972 0.929 . S
C2985 C2977 1.433 . S
C2985 N2987 1.384 . S
N2986 C2982 1.427 . S
N2986 C2983 1.384 . S
N2987 C2979 1.427 . S
N2987 C2985 1.384 . S
H2988 C2994 0.930 . S
H2989 C2998 0.930 . S
H2990 C3003 0.923 1_545 S
H2991 C3001 0.929 . S
H2992 C2996 0.929 . S
H2993 C3002 0.929 . S
C2994 H2988 0.930 . S
C2994 C2995 1.367 . S
C2994 C3002 1.378 . S
C2995 C2994 1.367 . S
C2995 C3003 1.441 . S
C2996 H2992 0.929 . S
C2996 C2998 1.378 . S
C2996 C3000 1.350 1_545 S
C2997 C3000 1.463 . S
C2997 C3002 1.350 . S
C2997 N3005 1.426 1_565 S
C2998 H2989 0.930 . S
C2998 C2996 1.378 . S
C2998 C2999 1.367 1_545 S
C2999 C2998 1.367 1_565 S
C2999 C3001 1.433 . S
C3000 C2996 1.350 1_565 S
C3000 C2997 1.463 . S
C3000 N3004 1.427 . S
C3001 H2991 0.929 . S
C3001 C2999 1.433 . S
C3001 N3004 1.384 . S
C3002 H2993 0.929 . S
C3002 C2994 1.378 . S
C3002 C2997 1.350 . S
C3003 H2990 0.923 1_565 S
C3003 C2995 1.441 . S
C3003 N3005 1.384 1_565 S
N3004 C3000 1.427 . S
N3004 C3001 1.384 . S
N3005 C2997 1.426 1_545 S
N3005 C3003 1.384 1_545 S
H3006 C3012 0.930 . S
H3007 C3016 0.930 . S
H3008 C3021 0.929 . S
H3009 C3019 0.929 . S
H3010 C3014 0.929 . S
H3011 C3020 0.929 . S
C3012 H3006 0.930 . S
C3012 C3013 1.367 . S
C3012 C3020 1.378 . S
C3013 C3012 1.367 . S
C3013 C3021 1.433 . S
C3014 H3010 0.929 . S
C3014 C3016 1.378 . S
C3014 C3018 1.350 . S
C3015 C3018 1.463 . S
C3015 C3020 1.350 . S
C3015 N3023 1.427 . S
C3016 H3007 0.930 . S
C3016 C3014 1.378 . S
C3016 C3017 1.367 . S
C3017 C3016 1.367 . S
C3017 C3019 1.433 . S
C3018 C3014 1.350 . S
C3018 C3015 1.463 . S
C3018 N3022 1.427 . S
C3019 H3009 0.929 . S
C3019 C3017 1.433 . S
C3019 N3022 1.384 . S
C3020 H3011 0.929 . S
C3020 C3012 1.378 . S
C3020 C3015 1.350 . S
C3021 H3008 0.929 . S
C3021 C3013 1.433 . S
C3021 N3023 1.384 . S
N3022 C3018 1.427 . S
N3022 C3019 1.384 . S
N3023 C3015 1.427 . S
N3023 C3021 1.384 . S
H3024 C3030 0.930 . S
H3025 C3034 0.930 . S
H3026 C3039 0.929 . S
H3027 C3037 0.929 . S
H3028 C3032 0.929 . S
H3029 C3038 0.929 . S
C3030 H3024 0.930 . S
C3030 C3031 1.367 . S
C3030 C3038 1.378 . S
C3031 C3030 1.367 . S
C3031 C3039 1.433 . S
C3032 H3028 0.929 . S
C3032 C3034 1.378 . S
C3032 C3036 1.350 . S
C3033 C3036 1.463 . S
C3033 C3038 1.350 . S
C3033 N3041 1.427 . S
C3034 H3025 0.930 . S
C3034 C3032 1.378 . S
C3034 C3035 1.367 . S
C3035 C3034 1.367 . S
C3035 C3037 1.433 . S
C3036 C3032 1.350 . S
C3036 C3033 1.463 . S
C3036 N3040 1.427 . S
C3037 H3027 0.929 . S
C3037 C3035 1.433 . S
C3037 N3040 1.384 . S
C3038 H3029 0.929 . S
C3038 C3030 1.378 . S
C3038 C3033 1.350 . S
C3039 H3026 0.929 . S
C3039 C3031 1.433 . S
C3039 N3041 1.384 . S
N3040 C3036 1.427 . S
N3040 C3037 1.384 . S
N3041 C3033 1.427 . S
N3041 C3039 1.384 . S
H3042 C3048 0.930 . S
H3043 C3052 0.930 . S
H3044 C3057 0.929 . S
H3045 C3055 0.929 . S
H3046 C3050 0.929 . S
H3047 C3056 0.929 . S
C3048 H3042 0.930 . S
C3048 C3049 1.367 . S
C3048 C3056 1.378 . S
C3049 C3048 1.367 . S
C3049 C3057 1.433 . S
C3050 H3046 0.929 . S
C3050 C3052 1.378 . S
C3050 C3054 1.350 . S
C3051 C3054 1.463 . S
C3051 C3056 1.350 . S
C3051 N3059 1.427 . S
C3052 H3043 0.930 . S
C3052 C3050 1.378 . S
C3052 C3053 1.367 . S
C3053 C3052 1.367 . S
C3053 C3055 1.433 . S
C3054 C3050 1.350 . S
C3054 C3051 1.463 . S
C3054 N3058 1.427 . S
C3055 H3045 0.929 . S
C3055 C3053 1.433 . S
C3055 N3058 1.384 . S
C3056 H3047 0.929 . S
C3056 C3048 1.378 . S
C3056 C3051 1.350 . S
C3057 H3044 0.929 . S
C3057 C3049 1.433 . S
C3057 N3059 1.384 . S
N3058 C3054 1.427 . S
N3058 C3055 1.384 . S
N3059 C3051 1.427 . S
N3059 C3057 1.384 . S
H3060 C3066 0.930 . S
H3061 C3070 0.930 . S
H3062 C3075 0.929 . S
H3063 C3073 0.929 . S
H3064 C3068 0.929 . S
H3065 C3074 0.929 . S
C3066 H3060 0.930 . S
C3066 C3067 1.367 1_545 S
C3066 C3074 1.378 . S
C3067 C3066 1.367 1_565 S
C3067 C3075 1.433 . S
C3068 H3064 0.929 . S
C3068 C3070 1.378 . S
C3068 C3072 1.350 . S
C3069 C3072 1.463 . S
C3069 C3074 1.350 1_565 S
C3069 N3077 1.427 . S
C3070 H3061 0.930 . S
C3070 C3068 1.378 . S
C3070 C3071 1.367 . S
C3071 C3070 1.367 . S
C3071 C3073 1.433 1_565 S
C3072 C3068 1.350 . S
C3072 C3069 1.463 . S
C3072 N3076 1.427 1_565 S
C3073 H3063 0.929 . S
C3073 C3071 1.433 1_545 S
C3073 N3076 1.384 . S
C3074 H3065 0.929 . S
C3074 C3066 1.378 . S
C3074 C3069 1.350 1_545 S
C3075 H3062 0.929 . S
C3075 C3067 1.433 . S
C3075 N3077 1.384 . S
N3076 C3072 1.427 1_545 S
N3076 C3073 1.384 . S
N3077 C3069 1.427 . S
N3077 C3075 1.384 . S
H3078 C3084 0.930 . S
H3079 C3088 0.930 . S
H3080 C3093 0.929 . S
H3081 C3091 0.929 . S
H3082 C3086 0.929 . S
H3083 C3092 0.929 . S
C3084 H3078 0.930 . S
C3084 C3085 1.367 . S
C3084 C3092 1.378 . S
C3085 C3084 1.367 . S
C3085 C3093 1.433 . S
C3086 H3082 0.929 . S
C3086 C3088 1.378 . S
C3086 C3090 1.350 . S
C3087 C3090 1.463 . S
C3087 C3092 1.350 . S
C3087 N3095 1.427 . S
C3088 H3079 0.930 . S
C3088 C3086 1.378 . S
C3088 C3089 1.367 . S
C3089 C3088 1.367 . S
C3089 C3091 1.433 . S
C3090 C3086 1.350 . S
C3090 C3087 1.463 . S
C3090 N3094 1.427 . S
C3091 H3081 0.929 . S
C3091 C3089 1.433 . S
C3091 N3094 1.384 . S
C3092 H3083 0.929 . S
C3092 C3084 1.378 . S
C3092 C3087 1.350 . S
C3093 H3080 0.929 . S
C3093 C3085 1.433 . S
C3093 N3095 1.384 . S
N3094 C3090 1.427 . S
N3094 C3091 1.384 . S
N3095 C3087 1.427 . S
N3095 C3093 1.384 . S
H3096 C3102 0.930 . S
H3097 C3106 0.930 . S
H3098 C3111 0.929 . S
H3099 C3109 0.929 . S
H3100 C3104 0.929 . S
H3101 C3110 0.929 . S
C3102 H3096 0.930 . S
C3102 C3103 1.367 . S
C3102 C3110 1.378 . S
C3103 C3102 1.367 . S
C3103 C3111 1.433 . S
C3104 H3100 0.929 . S
C3104 C3106 1.378 . S
C3104 C3108 1.350 . S
C3105 C3108 1.463 . S
C3105 C3110 1.350 . S
C3105 N3113 1.427 . S
C3106 H3097 0.930 . S
C3106 C3104 1.378 . S
C3106 C3107 1.367 . S
C3107 C3106 1.367 . S
C3107 C3109 1.433 . S
C3108 C3104 1.350 . S
C3108 C3105 1.463 . S
C3108 N3112 1.427 . S
C3109 H3099 0.929 . S
C3109 C3107 1.433 . S
C3109 N3112 1.384 . S
C3110 H3101 0.929 . S
C3110 C3102 1.378 . S
C3110 C3105 1.350 . S
C3111 H3098 0.929 . S
C3111 C3103 1.433 . S
C3111 N3113 1.384 . S
N3112 C3108 1.427 . S
N3112 C3109 1.384 . S
N3113 C3105 1.427 . S
N3113 C3111 1.384 . S
H3114 C3120 0.930 . S
H3115 C3124 0.930 . S
H3116 C3129 0.929 . S
H3117 C3127 0.929 . S
H3118 C3122 0.929 . S
H3119 C3128 0.929 . S
C3120 H3114 0.930 . S
C3120 C3121 1.367 . S
C3120 C3128 1.378 . S
C3121 C3120 1.367 . S
C3121 C3129 1.433 . S
C3122 H3118 0.929 . S
C3122 C3124 1.378 . S
C3122 C3126 1.350 . S
C3123 C3126 1.463 . S
C3123 C3128 1.350 . S
C3123 N3131 1.427 . S
C3124 H3115 0.930 . S
C3124 C3122 1.378 . S
C3124 C3125 1.367 . S
C3125 C3124 1.367 . S
C3125 C3127 1.433 . S
C3126 C3122 1.350 . S
C3126 C3123 1.463 . S
C3126 N3130 1.427 . S
C3127 H3117 0.929 . S
C3127 C3125 1.433 . S
C3127 N3130 1.384 . S
C3128 H3119 0.929 . S
C3128 C3120 1.378 . S
C3128 C3123 1.350 . S
C3129 H3116 0.929 . S
C3129 C3121 1.433 . S
C3129 N3131 1.384 . S
N3130 C3126 1.427 . S
N3130 C3127 1.384 . S
N3131 C3123 1.427 . S
N3131 C3129 1.384 . S
H3132 C3138 0.930 . S
H3133 C3142 0.930 . S
H3134 C3147 0.929 . S
H3135 C3145 0.929 . S
H3136 C3140 0.929 . S
H3137 C3146 0.929 . S
C3138 H3132 0.930 . S
C3138 C3139 1.367 . S
C3138 C3146 1.378 . S
C3139 C3138 1.367 . S
C3139 C3147 1.433 . S
C3140 H3136 0.929 . S
C3140 C3142 1.378 . S
C3140 C3144 1.350 . S
C3141 C3144 1.463 . S
C3141 C3146 1.350 . S
C3141 N3149 1.427 . S
C3142 H3133 0.930 . S
C3142 C3140 1.378 . S
C3142 C3143 1.367 . S
C3143 C3142 1.367 . S
C3143 C3145 1.433 . S
C3144 C3140 1.350 . S
C3144 C3141 1.463 . S
C3144 N3148 1.427 . S
C3145 H3135 0.929 . S
C3145 C3143 1.433 . S
C3145 N3148 1.384 . S
C3146 H3137 0.929 . S
C3146 C3138 1.378 . S
C3146 C3141 1.350 . S
C3147 H3134 0.929 . S
C3147 C3139 1.433 . S
C3147 N3149 1.384 . S
N3148 C3144 1.427 . S
N3148 C3145 1.384 . S
N3149 C3141 1.427 . S
N3149 C3147 1.384 . S
H3150 C3156 0.930 . S
H3151 C3160 0.930 . S
H3152 C3165 0.929 . S
H3153 C3163 0.929 . S
H3154 C3158 0.929 . S
H3155 C3164 0.929 . S
C3156 H3150 0.930 . S
C3156 C3157 1.367 . S
C3156 C3164 1.378 . S
C3157 C3156 1.367 . S
C3157 C3165 1.433 . S
C3158 H3154 0.929 . S
C3158 C3160 1.378 . S
C3158 C3162 1.350 . S
C3159 C3162 1.463 . S
C3159 C3164 1.350 . S
C3159 N3167 1.427 . S
C3160 H3151 0.930 . S
C3160 C3158 1.378 . S
C3160 C3161 1.367 . S
C3161 C3160 1.367 . S
C3161 C3163 1.433 . S
C3162 C3158 1.350 . S
C3162 C3159 1.463 . S
C3162 N3166 1.427 . S
C3163 H3153 0.929 . S
C3163 C3161 1.433 . S
C3163 N3166 1.384 . S
C3164 H3155 0.929 . S
C3164 C3156 1.378 . S
C3164 C3159 1.350 . S
C3165 H3152 0.929 . S
C3165 C3157 1.433 . S
C3165 N3167 1.384 . S
N3166 C3162 1.427 . S
N3166 C3163 1.384 . S
N3167 C3159 1.427 . S
N3167 C3165 1.384 . S
H3168 C3174 0.930 . S
H3169 C3178 0.930 . S
H3170 C3183 0.929 . S
H3171 C3181 0.929 . S
H3172 C3176 0.929 . S
H3173 C3182 0.929 . S
C3174 H3168 0.930 . S
C3174 C3175 1.367 . S
C3174 C3182 1.378 . S
C3175 C3174 1.367 . S
C3175 C3183 1.433 . S
C3176 H3172 0.929 . S
C3176 C3178 1.378 . S
C3176 C3180 1.350 . S
C3177 C3180 1.463 . S
C3177 C3182 1.350 . S
C3177 N3185 1.427 . S
C3178 H3169 0.930 . S
C3178 C3176 1.378 . S
C3178 C3179 1.367 . S
C3179 C3178 1.367 . S
C3179 C3181 1.433 . S
C3180 C3176 1.350 . S
C3180 C3177 1.463 . S
C3180 N3184 1.427 . S
C3181 H3171 0.929 . S
C3181 C3179 1.433 . S
C3181 N3184 1.384 . S
C3182 H3173 0.929 . S
C3182 C3174 1.378 . S
C3182 C3177 1.350 . S
C3183 H3170 0.929 . S
C3183 C3175 1.433 . S
C3183 N3185 1.384 . S
N3184 C3180 1.427 . S
N3184 C3181 1.384 . S
N3185 C3177 1.427 . S
N3185 C3183 1.384 . S
H3186 C3192 0.930 . S
H3187 C3196 0.930 . S
H3188 C3201 0.929 . S
H3189 C3199 0.929 . S
H3190 C3194 0.929 . S
H3191 C3200 0.929 . S
C3192 H3186 0.930 . S
C3192 C3193 1.367 . S
C3192 C3200 1.378 . S
C3193 C3192 1.367 . S
C3193 C3201 1.433 . S
C3194 H3190 0.929 . S
C3194 C3196 1.378 . S
C3194 C3198 1.350 . S
C3195 C3198 1.463 . S
C3195 C3200 1.350 . S
C3195 N3203 1.427 . S
C3196 H3187 0.930 . S
C3196 C3194 1.378 . S
C3196 C3197 1.367 . S
C3197 C3196 1.367 . S
C3197 C3199 1.433 . S
C3198 C3194 1.350 . S
C3198 C3195 1.463 . S
C3198 N3202 1.427 . S
C3199 H3189 0.929 . S
C3199 C3197 1.433 . S
C3199 N3202 1.384 . S
C3200 H3191 0.929 . S
C3200 C3192 1.378 . S
C3200 C3195 1.350 . S
C3201 H3188 0.929 . S
C3201 C3193 1.433 . S
C3201 N3203 1.384 . S
N3202 C3198 1.427 . S
N3202 C3199 1.384 . S
N3203 C3195 1.427 . S
N3203 C3201 1.384 . S
H3204 C3210 0.930 . S
H3205 C3214 0.930 . S
H3206 C3219 0.929 . S
H3207 C3217 0.929 . S
H3208 C3212 0.929 . S
H3209 C3218 0.929 . S
C3210 H3204 0.930 . S
C3210 C3211 1.367 . S
C3210 C3218 1.378 . S
C3211 C3210 1.367 . S
C3211 C3219 1.433 . S
C3212 H3208 0.929 . S
C3212 C3214 1.378 . S
C3212 C3216 1.350 . S
C3213 C3216 1.463 . S
C3213 C3218 1.350 . S
C3213 N3221 1.427 . S
C3214 H3205 0.930 . S
C3214 C3212 1.378 . S
C3214 C3215 1.367 . S
C3215 C3214 1.367 . S
C3215 C3217 1.433 . S
C3216 C3212 1.350 . S
C3216 C3213 1.463 . S
C3216 N3220 1.427 . S
C3217 H3207 0.929 . S
C3217 C3215 1.433 . S
C3217 N3220 1.384 . S
C3218 H3209 0.929 . S
C3218 C3210 1.378 . S
C3218 C3213 1.350 . S
C3219 H3206 0.929 . S
C3219 C3211 1.433 . S
C3219 N3221 1.384 . S
N3220 C3216 1.427 . S
N3220 C3217 1.384 . S
N3221 C3213 1.427 . S
N3221 C3219 1.384 . S
H3222 C3228 0.930 . S
H3223 C3232 0.930 . S
H3224 C3237 0.929 . S
H3225 C3235 0.929 . S
H3226 C3230 0.929 . S
H3227 C3236 0.929 . S
C3228 H3222 0.930 . S
C3228 C3229 1.367 . S
C3228 C3236 1.378 . S
C3229 C3228 1.367 . S
C3229 C3237 1.433 . S
C3230 H3226 0.929 . S
C3230 C3232 1.378 . S
C3230 C3234 1.350 . S
C3231 C3234 1.463 . S
C3231 C3236 1.350 . S
C3231 N3239 1.427 . S
C3232 H3223 0.930 . S
C3232 C3230 1.378 . S
C3232 C3233 1.367 . S
C3233 C3232 1.367 . S
C3233 C3235 1.433 . S
C3234 C3230 1.350 . S
C3234 C3231 1.463 . S
C3234 N3238 1.427 . S
C3235 H3225 0.929 . S
C3235 C3233 1.433 . S
C3235 N3238 1.384 . S
C3236 H3227 0.929 . S
C3236 C3228 1.378 . S
C3236 C3231 1.350 . S
C3237 H3224 0.929 . S
C3237 C3229 1.433 . S
C3237 N3239 1.384 . S
N3238 C3234 1.427 . S
N3238 C3235 1.384 . S
N3239 C3231 1.427 . S
N3239 C3237 1.384 . S
H3240 C3246 0.934 . S
H3241 C3250 0.930 . S
H3242 C3255 0.929 . S
H3243 C3253 0.929 . S
H3244 C3248 0.929 . S
H3245 C3254 0.929 . S
C3246 H3240 0.934 . S
C3246 C3247 1.367 . S
C3246 C3254 1.378 . S
C3247 C3246 1.367 . S
C3247 C3255 1.433 . S
C3248 H3244 0.929 . S
C3248 C3250 1.378 . S
C3248 C3252 1.350 . S
C3249 C3252 1.463 . S
C3249 C3254 1.350 . S
C3249 N3257 1.427 . S
C3250 H3241 0.930 . S
C3250 C3248 1.378 . S
C3250 C3251 1.367 . S
C3251 C3250 1.367 . S
C3251 C3253 1.433 . S
C3252 C3248 1.350 . S
C3252 C3249 1.463 . S
C3252 N3256 1.427 . S
C3253 H3243 0.929 . S
C3253 C3251 1.433 . S
C3253 N3256 1.384 . S
C3254 H3245 0.929 . S
C3254 C3246 1.378 . S
C3254 C3249 1.350 . S
C3255 H3242 0.929 . S
C3255 C3247 1.433 . S
C3255 N3257 1.384 . S
N3256 C3252 1.427 . S
N3256 C3253 1.384 . S
N3257 C3249 1.427 . S
N3257 C3255 1.384 . S
H3258 C3264 0.930 . S
H3259 C3268 0.930 . S
H3260 C3273 0.929 . S
H3261 C3271 0.929 . S
H3262 C3266 0.929 . S
H3263 C3272 0.929 . S
C3264 H3258 0.930 . S
C3264 C3265 1.367 . S
C3264 C3272 1.378 . S
C3265 C3264 1.367 . S
C3265 C3273 1.433 . S
C3266 H3262 0.929 . S
C3266 C3268 1.378 . S
C3266 C3270 1.350 . S
C3267 C3270 1.463 . S
C3267 C3272 1.350 . S
C3267 N3275 1.427 . S
C3268 H3259 0.930 . S
C3268 C3266 1.378 . S
C3268 C3269 1.367 . S
C3269 C3268 1.367 . S
C3269 C3271 1.433 . S
C3270 C3266 1.350 . S
C3270 C3267 1.463 . S
C3270 N3274 1.427 . S
C3271 H3261 0.929 . S
C3271 C3269 1.433 . S
C3271 N3274 1.384 . S
C3272 H3263 0.929 . S
C3272 C3264 1.378 . S
C3272 C3267 1.350 . S
C3273 H3260 0.929 . S
C3273 C3265 1.433 . S
C3273 N3275 1.384 . S
N3274 C3270 1.427 . S
N3274 C3271 1.384 . S
N3275 C3267 1.427 . S
N3275 C3273 1.384 . S
H3276 C3282 0.930 . S
H3277 C3286 0.930 . S
H3278 C3291 0.929 . S
H3279 C3289 0.929 . S
H3280 C3284 0.929 . S
H3281 C3290 0.929 . S
C3282 H3276 0.930 . S
C3282 C3283 1.367 . S
C3282 C3290 1.378 . S
C3283 C3282 1.367 . S
C3283 C3291 1.433 . S
C3284 H3280 0.929 . S
C3284 C3286 1.378 . S
C3284 C3288 1.350 . S
C3285 C3288 1.463 . S
C3285 C3290 1.350 . S
C3285 N3293 1.427 . S
C3286 H3277 0.930 . S
C3286 C3284 1.378 . S
C3286 C3287 1.367 . S
C3287 C3286 1.367 . S
C3287 C3289 1.433 . S
C3288 C3284 1.350 . S
C3288 C3285 1.463 . S
C3288 N3292 1.427 . S
C3289 H3279 0.929 . S
C3289 C3287 1.433 . S
C3289 N3292 1.384 . S
C3290 H3281 0.929 . S
C3290 C3282 1.378 . S
C3290 C3285 1.350 . S
C3291 H3278 0.929 . S
C3291 C3283 1.433 . S
C3291 N3293 1.384 . S
N3292 C3288 1.427 . S
N3292 C3289 1.384 . S
N3293 C3285 1.427 . S
N3293 C3291 1.384 . S
H3294 C3300 0.930 . S
H3295 C3304 0.930 . S
H3296 C3309 0.929 . S
H3297 C3307 0.929 . S
H3298 C3302 0.929 . S
H3299 C3308 0.929 . S
C3300 H3294 0.930 . S
C3300 C3301 1.367 . S
C3300 C3308 1.378 . S
C3301 C3300 1.367 . S
C3301 C3309 1.433 . S
C3302 H3298 0.929 . S
C3302 C3304 1.378 . S
C3302 C3306 1.350 . S
C3303 C3306 1.463 . S
C3303 C3308 1.350 . S
C3303 N3311 1.427 . S
C3304 H3295 0.930 . S
C3304 C3302 1.378 . S
C3304 C3305 1.367 . S
C3305 C3304 1.367 . S
C3305 C3307 1.433 . S
C3306 C3302 1.350 . S
C3306 C3303 1.463 . S
C3306 N3310 1.427 . S
C3307 H3297 0.929 . S
C3307 C3305 1.433 . S
C3307 N3310 1.384 . S
C3308 H3299 0.929 . S
C3308 C3300 1.378 . S
C3308 C3303 1.350 . S
C3309 H3296 0.929 . S
C3309 C3301 1.433 . S
C3309 N3311 1.384 . S
N3310 C3306 1.427 . S
N3310 C3307 1.384 . S
N3311 C3303 1.427 . S
N3311 C3309 1.384 . S
H3312 C3318 0.930 . S
H3313 C3322 0.930 . S
H3314 C3327 0.929 . S
H3315 C3325 0.929 . S
H3316 C3320 0.929 . S
H3317 C3326 0.929 . S
C3318 H3312 0.930 . S
C3318 C3319 1.367 . S
C3318 C3326 1.378 . S
C3319 C3318 1.367 . S
C3319 C3327 1.433 . S
C3320 H3316 0.929 . S
C3320 C3322 1.378 . S
C3320 C3324 1.350 . S
C3321 C3324 1.463 . S
C3321 C3326 1.350 . S
C3321 N3329 1.427 . S
C3322 H3313 0.930 . S
C3322 C3320 1.378 . S
C3322 C3323 1.367 . S
C3323 C3322 1.367 . S
C3323 C3325 1.433 . S
C3324 C3320 1.350 . S
C3324 C3321 1.463 . S
C3324 N3328 1.427 . S
C3325 H3315 0.929 . S
C3325 C3323 1.433 . S
C3325 N3328 1.384 . S
C3326 H3317 0.929 . S
C3326 C3318 1.378 . S
C3326 C3321 1.350 . S
C3327 H3314 0.929 . S
C3327 C3319 1.433 . S
C3327 N3329 1.384 . S
N3328 C3324 1.427 . S
N3328 C3325 1.384 . S
N3329 C3321 1.427 . S
N3329 C3327 1.384 . S
H3330 C3336 0.930 . S
H3331 C3340 0.930 . S
H3332 C3345 0.929 . S
H3333 C3343 0.929 . S
H3334 C3338 0.929 . S
H3335 C3344 0.929 . S
C3336 H3330 0.930 . S
C3336 C3337 1.367 . S
C3336 C3344 1.378 . S
C3337 C3336 1.367 . S
C3337 C3345 1.433 . S
C3338 H3334 0.929 . S
C3338 C3340 1.378 . S
C3338 C3342 1.350 . S
C3339 C3342 1.463 . S
C3339 C3344 1.350 . S
C3339 N3347 1.427 . S
C3340 H3331 0.930 . S
C3340 C3338 1.378 . S
C3340 C3341 1.367 . S
C3341 C3340 1.367 . S
C3341 C3343 1.433 . S
C3342 C3338 1.350 . S
C3342 C3339 1.463 . S
C3342 N3346 1.427 . S
C3343 H3333 0.929 . S
C3343 C3341 1.433 . S
C3343 N3346 1.384 . S
C3344 H3335 0.929 . S
C3344 C3336 1.378 . S
C3344 C3339 1.350 . S
C3345 H3332 0.929 . S
C3345 C3337 1.433 . S
C3345 N3347 1.384 . S
N3346 C3342 1.427 . S
N3346 C3343 1.384 . S
N3347 C3339 1.427 . S
N3347 C3345 1.384 . S
H3348 C3354 0.930 . S
H3349 C3358 0.930 . S
H3350 C3363 0.929 . S
H3351 C3361 0.929 . S
H3352 C3356 0.929 . S
H3353 C3362 0.929 . S
C3354 H3348 0.930 . S
C3354 C3355 1.367 . S
C3354 C3362 1.378 . S
C3355 C3354 1.367 . S
C3355 C3363 1.433 . S
C3356 H3352 0.929 . S
C3356 C3358 1.378 . S
C3356 C3360 1.350 . S
C3357 C3360 1.463 . S
C3357 C3362 1.350 . S
C3357 N3365 1.427 . S
C3358 H3349 0.930 . S
C3358 C3356 1.378 . S
C3358 C3359 1.367 . S
C3359 C3358 1.367 . S
C3359 C3361 1.433 . S
C3360 C3356 1.350 . S
C3360 C3357 1.463 . S
C3360 N3364 1.427 . S
C3361 H3351 0.929 . S
C3361 C3359 1.433 . S
C3361 N3364 1.384 . S
C3362 H3353 0.929 . S
C3362 C3354 1.378 . S
C3362 C3357 1.350 . S
C3363 H3350 0.929 . S
C3363 C3355 1.433 . S
C3363 N3365 1.384 . S
N3364 C3360 1.427 . S
N3364 C3361 1.384 . S
N3365 C3357 1.427 . S
N3365 C3363 1.384 . S
H3366 C3372 0.930 . S
H3367 C3376 0.930 . S
H3368 C3381 0.929 . S
H3369 C3379 0.929 . S
H3370 C3374 0.929 . S
H3371 C3380 0.929 . S
C3372 H3366 0.930 . S
C3372 C3373 1.367 . S
C3372 C3380 1.378 . S
C3373 C3372 1.367 . S
C3373 C3381 1.433 . S
C3374 H3370 0.929 . S
C3374 C3376 1.378 . S
C3374 C3378 1.350 . S
C3375 C3378 1.463 . S
C3375 C3380 1.350 . S
C3375 N3383 1.427 . S
C3376 H3367 0.930 . S
C3376 C3374 1.378 . S
C3376 C3377 1.367 . S
C3377 C3376 1.367 . S
C3377 C3379 1.433 . S
C3378 C3374 1.350 . S
C3378 C3375 1.463 . S
C3378 N3382 1.427 . S
C3379 H3369 0.929 . S
C3379 C3377 1.433 . S
C3379 N3382 1.384 . S
C3380 H3371 0.929 . S
C3380 C3372 1.378 . S
C3380 C3375 1.350 . S
C3381 H3368 0.929 . S
C3381 C3373 1.433 . S
C3381 N3383 1.384 . S
N3382 C3378 1.427 . S
N3382 C3379 1.384 . S
N3383 C3375 1.427 . S
N3383 C3381 1.384 . S
H3384 C3390 0.930 . S
H3385 C3394 0.930 . S
H3386 C3399 0.929 . S
H3387 C3397 0.929 . S
H3388 C3392 0.929 . S
H3389 C3398 0.929 . S
C3390 H3384 0.930 . S
C3390 C3391 1.367 . S
C3390 C3398 1.378 . S
C3391 C3390 1.367 . S
C3391 C3399 1.433 1_565 S
C3392 H3388 0.929 . S
C3392 C3394 1.378 . S
C3392 C3396 1.350 1_545 S
C3393 C3396 1.463 . S
C3393 C3398 1.350 . S
C3393 N3401 1.427 1_565 S
C3394 H3385 0.930 . S
C3394 C3392 1.378 . S
C3394 C3395 1.367 1_545 S
C3395 C3394 1.367 1_565 S
C3395 C3397 1.433 . S
C3396 C3392 1.350 1_565 S
C3396 C3393 1.463 . S
C3396 N3400 1.427 . S
C3397 H3387 0.929 . S
C3397 C3395 1.433 . S
C3397 N3400 1.384 . S
C3398 H3389 0.929 . S
C3398 C3390 1.378 . S
C3398 C3393 1.350 . S
C3399 H3386 0.929 . S
C3399 C3391 1.433 1_545 S
C3399 N3401 1.384 . S
N3400 C3396 1.427 . S
N3400 C3397 1.384 . S
N3401 C3393 1.427 1_545 S
N3401 C3399 1.384 . S
H3402 C3408 0.930 . S
H3403 C3412 0.930 . S
H3404 C3417 0.929 . S
H3405 C3415 0.929 . S
H3406 C3410 0.929 . S
H3407 C3416 0.929 . S
C3408 H3402 0.930 . S
C3408 C3409 1.367 . S
C3408 C3416 1.378 . S
C3409 C3408 1.367 . S
C3409 C3417 1.433 . S
C3410 H3406 0.929 . S
C3410 C3412 1.378 . S
C3410 C3414 1.350 . S
C3411 C3414 1.463 . S
C3411 C3416 1.350 . S
C3411 N3419 1.427 . S
C3412 H3403 0.930 . S
C3412 C3410 1.378 . S
C3412 C3413 1.367 . S
C3413 C3412 1.367 . S
C3413 C3415 1.433 . S
C3414 C3410 1.350 . S
C3414 C3411 1.463 . S
C3414 N3418 1.427 . S
C3415 H3405 0.929 . S
C3415 C3413 1.433 . S
C3415 N3418 1.384 . S
C3416 H3407 0.929 . S
C3416 C3408 1.378 . S
C3416 C3411 1.350 . S
C3417 H3404 0.929 . S
C3417 C3409 1.433 . S
C3417 N3419 1.384 . S
N3418 C3414 1.427 . S
N3418 C3415 1.384 . S
N3419 C3411 1.427 . S
N3419 C3417 1.384 . S
C2131 C3 1.509 . S
C2135 C652 1.500 . S
C2149 C534 1.500 . S
C2153 C62 1.509 . S
C2167 C593 1.508 . S
C2171 C121 1.501 . S
C2185 C180 1.508 . S
C2189 C416 1.501 . S
C2203 C239 1.508 . S
C2207 C475 1.501 . S
C2221 C298 1.507 . S
C2225 C357 1.503 . S
C2239 C711 1.509 . S
C2243 C1360 1.501 . S
C2257 C1242 1.500 . S
C2261 C770 1.509 . S
C2275 C829 1.502 . S
C2279 C1301 1.507 . S
C2293 C888 1.504 . S
C2297 C1124 1.506 . S
C2311 C947 1.506 . S
C2315 C1183 1.503 . S
C2329 C1006 1.508 . S
C2333 C1065 1.501 . S
C2347 C1419 1.500 . S
C2351 C2068 1.509 . S
C2365 C1478 1.507 . S
C2369 C1950 1.503 . S
C2383 C2009 1.503 . S
C2387 C1537 1.506 . S
C2401 C1596 1.505 . S
C2405 C1832 1.504 . S
C2419 C1891 1.503 . S
C2423 C1655 1.507 . S
C2437 C1773 1.504 . S
C2441 C1714 1.505 . S
C2455 C5 1.377 . S
C2459 C890 1.365 1_455 S
C2473 C64 1.373 . S
C2477 C949 1.368 . S
C2491 C123 1.370 . S
C2495 C1008 1.376 . S
C2509 C182 1.368 . S
C2513 C1421 1.364 1_545 S
C2527 C1480 1.371 . S
C2531 C241 1.369 . S
C2545 C1539 1.379 . S
C2549 C300 1.377 . S
C2563 C359 1.369 . S
C2567 C1952 1.376 . S
C2581 C2011 1.379 . S
C2585 C418 1.373 . S
C2599 C477 1.379 . S
C2603 C2070 1.373 1_545 S
C2617 C536 1.372 . S
C2621 C1067 1.368 . S
C2635 C595 1.379 . S
C2639 C1126 1.374 1_455 S
C2653 C654 1.379 . S
C2657 C1185 1.373 . S
C2671 C1598 1.378 . S
C2675 C713 1.371 . S
C2689 C772 1.372 . S
C2693 C1657 1.378 . S
C2707 C831 1.370 . S
C2711 C1716 1.377 . S
C2725 C1775 1.372 . S
C2729 C1244 1.378 . S
C2743 C1834 1.379 . S
C2747 C1303 1.377 . S
C2761 C1362 1.377 . S
C2765 C1893 1.370 . S
C2779 C52 1.304 . S
C2783 C288 1.308 . S
C2797 C347 1.302 . S
C2801 C111 1.300 . S
C2815 C229 1.300 . S
C2819 C170 1.302 . S
C2833 C406 1.301 . S
C2837 C642 1.308 . S
C2851 C701 1.308 . S
C2855 C465 1.301 . S
C2869 C524 1.305 . S
C2873 C583 1.308 . S
C2887 C996 1.307 . S
C2891 C760 1.301 . S
C2905 C819 1.306 . S
C2909 C1055 1.308 . S
C2923 C878 1.308 . S
C2927 C937 1.305 . S
C2941 C1350 1.303 . S
C2945 C1114 1.300 . S
C2959 C1409 1.301 . S
C2963 C1173 1.307 . S
C2977 C1291 1.308 . S
C2981 C1232 1.305 . S
C2995 C1468 1.306 . S
C2999 C1704 1.308 . S
C3013 C1527 1.308 . S
C3017 C1763 1.302 . S
C3031 C1586 1.308 . S
C3035 C1645 1.304 . S
C3049 C2058 1.302 . S
C3053 C1822 1.300 . S
C3067 C2117 1.305 . S
C3071 C1881 1.300 . S
C3085 C1999 1.305 . S
C3089 C1940 1.308 . S
C3103 C564 2.070 . S
C3107 C33 2.072 . S
C3121 C623 2.071 . S
C3125 C92 2.072 . S
C3139 C151 2.072 . S
C3143 C682 2.070 . S
C3157 C210 2.072 . S
C3161 C387 2.070 . S
C3175 C446 2.071 . S
C3179 C269 2.071 . S
C3193 C328 2.071 . S
C3197 C505 2.071 . S
C3211 C1272 2.071 . S
C3215 C741 2.071 . S
C3229 C1331 2.072 . S
C3233 C800 2.070 . S
C3247 C859 2.071 . S
C3251 C1390 2.071 . S
C3265 C1095 2.071 . S
C3269 C918 2.071 . S
C3283 C1154 2.072 . S
C3287 C977 2.071 . S
C3301 C1213 2.070 . S
C3305 C1036 2.072 . S
C3319 C1449 2.070 . S
C3323 C1980 2.072 . S
C3337 C2039 2.070 . S
C3341 C1508 2.072 . S
C3355 C1567 2.071 . S
C3359 C2098 2.072 . S
C3373 C1626 2.071 . S
C3377 C1803 2.071 . S
C3391 C1685 2.070 . S
C3395 C1862 2.073 . S
C3409 C1921 2.070 . S
C3413 C1744 2.072 . S
