12c_Ti_1
_audit_creation_date              2020-06-09
_audit_creation_method            'assign_MBBB_charges.py'
_symmetry_space_group_name_H-M    'P1'
_symmetry_Int_Tables_number       1
_symmetry_cell_setting            triclinic
loop_
_symmetry_equiv_pos_as_xyz
  x,y,z
_cell_length_a                    50.0000
_cell_length_b                    50.0000
_cell_length_c                    50.0000
_cell_angle_alpha                 90.0000
_cell_angle_beta                  90.0000
_cell_angle_gamma                 90.0000
loop_
_atom_site_label
_atom_site_type_symbol
_atom_site_fract_x
_atom_site_fract_y
_atom_site_fract_z
_atom_site_U_iso_or_equiv
_atom_site_adp_type
_atom_site_occupancy
_atom_site_charge
O1      O         0.54017      0.54017      0.50000      0.00000   Uiso   1.00     -0.55116
O2      O         0.58450      0.44606      0.52665      0.00000   Uiso   1.00     -0.63023
X3      C         0.57257      0.42743      0.53557      0.00000   Uiso   1.00      0.97803
O4      O         0.47830      0.61637      0.50000      0.00000   Uiso   1.00     -0.68216
O5      O         0.50000      0.56804      0.47324      0.00000   Uiso   1.00     -0.66152
X6      C         0.50000      0.36882      0.50000      0.00000   Uiso   1.00      0.89872
O7      O         0.61637      0.47830      0.50000      0.00000   Uiso   1.00     -0.68299
X8      C         0.57257      0.42743      0.46443      0.00000   Uiso   1.00      0.97439
X9      C         0.63118      0.50000      0.50000      0.00000   Uiso   1.00      0.90391
Ti10    Ti        0.57792      0.47232      0.50000      0.00000   Uiso   1.00      1.51161
Ti11    Ti        0.42208      0.52768      0.50000      0.00000   Uiso   1.00      1.51269
O12     O         0.56804      0.50000      0.47324      0.00000   Uiso   1.00     -0.62179
O13     O         0.50000      0.43196      0.52676      0.00000   Uiso   1.00     -0.66180
X14     C         0.42743      0.57257      0.46443      0.00000   Uiso   1.00      0.97834
O15     O         0.45983      0.45983      0.50000      0.00000   Uiso   1.00     -0.55204
X16     C         0.42743      0.42743      0.53557      0.00000   Uiso   1.00      0.97587
Ti17    Ti        0.52768      0.42208      0.50000      0.00000   Uiso   1.00      1.51017
Ti18    Ti        0.57792      0.52768      0.50000      0.00000   Uiso   1.00      1.52978
Ti19    Ti        0.52768      0.57792      0.50000      0.00000   Uiso   1.00      1.49251
O20     O         0.44606      0.41550      0.47335      0.00000   Uiso   1.00     -0.61888
O21     O         0.47830      0.38363      0.50000      0.00000   Uiso   1.00     -0.68246
O22     O         0.61637      0.52170      0.50000      0.00000   Uiso   1.00     -0.68351
O23     O         0.54017      0.45983      0.50000      0.00000   Uiso   1.00     -0.55119
O24     O         0.50000      0.56804      0.52676      0.00000   Uiso   1.00     -0.66107
O25     O         0.41550      0.55394      0.52665      0.00000   Uiso   1.00     -0.62984
O26     O         0.56804      0.50000      0.52676      0.00000   Uiso   1.00     -0.62199
O27     O         0.41550      0.44606      0.47335      0.00000   Uiso   1.00     -0.63516
O28     O         0.38363      0.52170      0.50000      0.00000   Uiso   1.00     -0.68315
O29     O         0.58450      0.44606      0.47335      0.00000   Uiso   1.00     -0.62993
O30     O         0.45983      0.54017      0.50000      0.00000   Uiso   1.00     -0.55123
X31     C         0.36882      0.50000      0.50000      0.00000   Uiso   1.00      0.90385
O32     O         0.50000      0.43196      0.47324      0.00000   Uiso   1.00     -0.66131
O33     O         0.58450      0.55394      0.47335      0.00000   Uiso   1.00     -0.63589
O34     O         0.41550      0.55394      0.47335      0.00000   Uiso   1.00     -0.62985
X35     C         0.57257      0.57257      0.46443      0.00000   Uiso   1.00      0.97714
X36     C         0.42743      0.42743      0.46443      0.00000   Uiso   1.00      0.97650
X37     C         0.50000      0.63118      0.50000      0.00000   Uiso   1.00      0.89723
O38     O         0.44606      0.58450      0.47335      0.00000   Uiso   1.00     -0.62332
O39     O         0.55394      0.41550      0.52665      0.00000   Uiso   1.00     -0.62303
X40     C         0.42743      0.57257      0.53557      0.00000   Uiso   1.00      0.97378
Ti41    Ti        0.47232      0.57792      0.50000      0.00000   Uiso   1.00      1.51017
O42     O         0.41550      0.44606      0.52665      0.00000   Uiso   1.00     -0.63584
O43     O         0.55394      0.41550      0.47335      0.00000   Uiso   1.00     -0.62337
O44     O         0.55394      0.58450      0.52665      0.00000   Uiso   1.00     -0.61912
O45     O         0.38363      0.47830      0.50000      0.00000   Uiso   1.00     -0.68471
O46     O         0.58450      0.55394      0.52665      0.00000   Uiso   1.00     -0.63518
O47     O         0.52170      0.61637      0.50000      0.00000   Uiso   1.00     -0.68045
O48     O         0.44606      0.41550      0.52665      0.00000   Uiso   1.00     -0.61827
Ti49    Ti        0.42208      0.47232      0.50000      0.00000   Uiso   1.00      1.53190
O50     O         0.55394      0.58450      0.47335      0.00000   Uiso   1.00     -0.61876
O51     O         0.43196      0.50000      0.52676      0.00000   Uiso   1.00     -0.62226
O52     O         0.44606      0.58450      0.52665      0.00000   Uiso   1.00     -0.62343
X53     C         0.57257      0.57257      0.53557      0.00000   Uiso   1.00      0.97732
O54     O         0.52170      0.38363      0.50000      0.00000   Uiso   1.00     -0.68302
Ti55    Ti        0.47232      0.42208      0.50000      0.00000   Uiso   1.00      1.49455
O56     O         0.43196      0.50000      0.47324      0.00000   Uiso   1.00     -0.62266
loop_
_geom_bond_atom_site_label_1
_geom_bond_atom_site_label_2
_geom_bond_distance
_geom_bond_site_symmetry_2
_ccdc_geom_bond_type
O1      Ti19       1.988 .   S  
O1      Ti18       1.988 .   S  
O2      X3         1.193 .   A  
O2      Ti10       1.899 .   S  
X3      O39        1.193 .   A  
O4      Ti41       1.946 .   S  
O4      X37        1.313 .   A  
O5      Ti41       1.987 .   S  
O5      Ti19       1.987 .   S  
X6      O21        1.313 .   A  
X6      O54        1.313 .   A  
O7      Ti10       1.946 .   S  
O7      X9         1.313 .   A  
X8      O43        1.193 .   A  
X8      O29        1.193 .   A  
X9      O22        1.313 .   A  
Ti10    O23        1.988 .   S  
Ti10    O29        1.899 .   S  
Ti10    O26        1.987 .   S  
Ti10    O12        1.987 .   S  
Ti11    O56        1.987 .   S  
Ti11    O51        1.987 .   S  
Ti11    O28        1.946 .   S  
Ti11    O30        1.988 .   S  
Ti11    O25        1.899 .   S  
Ti11    O34        1.899 .   S  
O12     Ti18       1.987 .   S  
O13     Ti55       1.987 .   S  
O13     Ti17       1.987 .   S  
X14     O34        1.193 .   A  
X14     O38        1.193 .   A  
O15     Ti49       1.988 .   S  
O15     Ti55       1.988 .   S  
X16     O42        1.193 .   A  
X16     O48        1.193 .   A  
Ti17    O32        1.987 .   S  
Ti17    O54        1.946 .   S  
Ti17    O23        1.988 .   S  
Ti17    O43        1.899 .   S  
Ti17    O39        1.899 .   S  
Ti18    O26        1.987 .   S  
Ti18    O46        1.899 .   S  
Ti18    O22        1.946 .   S  
Ti18    O33        1.899 .   S  
Ti19    O50        1.899 .   S  
Ti19    O44        1.899 .   S  
Ti19    O47        1.946 .   S  
Ti19    O24        1.987 .   S  
O20     X36        1.193 .   A  
O20     Ti55       1.899 .   S  
O21     Ti55       1.946 .   S  
O24     Ti41       1.987 .   S  
O25     X40        1.193 .   A  
O27     Ti49       1.899 .   S  
O27     X36        1.193 .   A  
O28     X31        1.313 .   A  
O30     Ti41       1.988 .   S  
X31     O45        1.313 .   A  
O32     Ti55       1.987 .   S  
O33     X35        1.193 .   A  
X35     O50        1.193 .   A  
X37     O47        1.313 .   A  
O38     Ti41       1.899 .   S  
X40     O52        1.193 .   A  
Ti41    O52        1.899 .   S  
O42     Ti49       1.899 .   S  
O44     X53        1.193 .   A  
O45     Ti49       1.946 .   S  
O46     X53        1.193 .   A  
O48     Ti55       1.899 .   S  
Ti49    O56        1.987 .   S  
Ti49    O51        1.987 .   S  
