6c_Mg_1
_audit_creation_date              2020-06-09
_audit_creation_method            'assign_MBBB_charges.py'
_symmetry_space_group_name_H-M    'P1'
_symmetry_Int_Tables_number       1
_symmetry_cell_setting            triclinic
loop_
_symmetry_equiv_pos_as_xyz
  x,y,z
_cell_length_a                    50.0000
_cell_length_b                    50.0000
_cell_length_c                    50.0000
_cell_angle_alpha                 90.0000
_cell_angle_beta                  90.0000
_cell_angle_gamma                 90.0000
loop_
_atom_site_label
_atom_site_type_symbol
_atom_site_fract_x
_atom_site_fract_y
_atom_site_fract_z
_atom_site_U_iso_or_equiv
_atom_site_adp_type
_atom_site_occupancy
_atom_site_charge
O1      O         0.54602      0.48893      0.51894      0.00000   Uiso   1.00     -0.88048
C2      C         0.51839      0.53665      0.46052      0.00000   Uiso   1.00      0.87981
Mg3     Mg        0.53686      0.44761      0.51557      0.00000   Uiso   1.00      1.58147
O4      O         0.48658      0.54539      0.51894      0.00000   Uiso   1.00     -0.87779
O5      O         0.53712      0.52676      0.54047      0.00000   Uiso   1.00     -0.75109
X6      C         0.41299      0.44461      0.48706      0.00000   Uiso   1.00      0.93032
O7      O         0.54174      0.48123      0.45953      0.00000   Uiso   1.00     -0.74923
O8      O         0.43369      0.43037      0.48560      0.00000   Uiso   1.00     -0.82430
Mg9     Mg        0.56380      0.50572      0.48443      0.00000   Uiso   1.00      1.57964
X10     C         0.40852      0.54765      0.51294      0.00000   Uiso   1.00      0.92954
O11     O         0.58749      0.53140      0.50512      0.00000   Uiso   1.00     -0.80691
H12     H         0.48601      0.53799      0.55558      0.00000   Uiso   1.00     -0.06035
C13     C         0.45907      0.49760      0.46052      0.00000   Uiso   1.00      0.87893
O14     O         0.50461      0.45447      0.54047      0.00000   Uiso   1.00     -0.75202
O15     O         0.53260      0.53432      0.48106      0.00000   Uiso   1.00     -0.87965
O16     O         0.42906      0.56007      0.50512      0.00000   Uiso   1.00     -0.80775
X17     C         0.49553      0.60305      0.48706      0.00000   Uiso   1.00      0.93070
X18     C         0.58701      0.55539      0.51294      0.00000   Uiso   1.00      0.92922
Mg19    Mg        0.43620      0.49428      0.51557      0.00000   Uiso   1.00      1.57953
O20     O         0.41251      0.46860      0.49488      0.00000   Uiso   1.00     -0.80698
O21     O         0.45826      0.51877      0.54047      0.00000   Uiso   1.00     -0.74939
O22     O         0.51655      0.59147      0.49488      0.00000   Uiso   1.00     -0.80779
O23     O         0.59346      0.47740      0.48560      0.00000   Uiso   1.00     -0.82490
O24     O         0.48345      0.40853      0.50512      0.00000   Uiso   1.00     -0.80809
C25     C         0.47746      0.53424      0.53948      0.00000   Uiso   1.00      0.87359
O26     O         0.46740      0.46568      0.51894      0.00000   Uiso   1.00     -0.87951
O27     O         0.45398      0.51107      0.48106      0.00000   Uiso   1.00     -0.88057
O28     O         0.46288      0.47324      0.45953      0.00000   Uiso   1.00     -0.75112
Mg29    Mg        0.52694      0.55812      0.51557      0.00000   Uiso   1.00      1.57974
O30     O         0.47285      0.59224      0.48560      0.00000   Uiso   1.00     -0.82488
H31     H         0.53990      0.49312      0.55558      0.00000   Uiso   1.00     -0.06212
O32     O         0.51342      0.45461      0.48106      0.00000   Uiso   1.00     -0.87757
H33     H         0.51399      0.46201      0.44442      0.00000   Uiso   1.00     -0.06037
H34     H         0.47409      0.46889      0.55558      0.00000   Uiso   1.00     -0.06214
C35     C         0.52254      0.46575      0.46052      0.00000   Uiso   1.00      0.87335
C36     C         0.54093      0.50240      0.53948      0.00000   Uiso   1.00      0.87922
C37     C         0.48161      0.46336      0.53948      0.00000   Uiso   1.00      0.87968
H38     H         0.46010      0.50688      0.44442      0.00000   Uiso   1.00     -0.06193
O39     O         0.49539      0.54553      0.45953      0.00000   Uiso   1.00     -0.75220
Mg40    Mg        0.47306      0.44188      0.48443      0.00000   Uiso   1.00      1.57997
H41     H         0.52590      0.53111      0.44442      0.00000   Uiso   1.00     -0.06210
X42     C         0.59148      0.45235      0.48706      0.00000   Uiso   1.00      0.92955
O43     O         0.52715      0.40776      0.51440      0.00000   Uiso   1.00     -0.82449
X44     C         0.50447      0.39695      0.51294      0.00000   Uiso   1.00      0.93015
O45     O         0.56630      0.56963      0.51440      0.00000   Uiso   1.00     -0.82434
Mg46    Mg        0.46314      0.55239      0.48443      0.00000   Uiso   1.00      1.58183
O47     O         0.57094      0.43993      0.49488      0.00000   Uiso   1.00     -0.80768
O48     O         0.40654      0.52260      0.51440      0.00000   Uiso   1.00     -0.82461
loop_
_geom_bond_atom_site_label_1
_geom_bond_atom_site_label_2
_geom_bond_distance
_geom_bond_site_symmetry_2
_ccdc_geom_bond_type
O1      Mg3        2.123 .   S  
O1      C36        1.254 .   A  
O1      Mg9        2.115 .   S  
C2      O39        1.234 .   A  
C2      H41        0.930 .   S  
C2      O15        1.254 .   A  
Mg3     O47        2.030 .   S  
Mg3     O43        2.051 .   S  
Mg3     O32        2.115 .   S  
Mg3     O14        2.066 .   S  
O4      C25        1.254 .   A  
O4      Mg46       2.115 .   S  
O4      Mg29       2.123 .   S  
O5      C36        1.234 .   A  
O5      Mg29       2.066 .   S  
X6      O8         1.258 .   A  
X6      O20        1.262 .   A  
O7      C35        1.234 .   A  
O7      Mg9        2.066 .   S  
O8      Mg40       2.051 .   S  
Mg9     O23        2.051 .   S  
Mg9     O11        2.030 .   S  
Mg9     O15        2.123 .   S  
X10     O48        1.258 .   A  
X10     O16        1.262 .   A  
O11     X18        1.262 .   A  
H12     C25        0.930 .   S  
C13     O28        1.234 .   A  
C13     H38        0.930 .   S  
C13     O27        1.254 .   A  
O14     C37        1.234 .   A  
O15     Mg29       2.115 .   S  
O16     Mg46       2.030 .   S  
X17     O30        1.258 .   A  
X17     O22        1.262 .   A  
X18     O45        1.258 .   A  
Mg19    O26        2.123 .   S  
Mg19    O20        2.030 .   S  
Mg19    O27        2.115 .   S  
Mg19    O21        2.066 .   S  
Mg19    O48        2.051 .   S  
O21     C25        1.234 .   A  
O22     Mg29       2.030 .   S  
O23     X42        1.258 .   A  
O24     Mg40       2.030 .   S  
O24     X44        1.262 .   A  
O26     Mg40       2.115 .   S  
O26     C37        1.254 .   A  
O27     Mg46       2.123 .   S  
O28     Mg40       2.066 .   S  
Mg29    O45        2.051 .   S  
O30     Mg46       2.051 .   S  
H31     C36        0.930 .   S  
O32     Mg40       2.123 .   S  
O32     C35        1.254 .   A  
H33     C35        0.930 .   S  
H34     C37        0.930 .   S  
O39     Mg46       2.066 .   S  
X42     O47        1.262 .   A  
O43     X44        1.258 .   A  
