# generated using pymatgen
data_Cu6H33(C35O13)2
_symmetry_space_group_name_H-M   'P 1'
_cell_length_a   26.58200000
_cell_length_b   26.58200000
_cell_length_c   39.19000000
_cell_angle_alpha   90.00000000
_cell_angle_beta   90.00000000
_cell_angle_gamma   90.00000000
_symmetry_Int_Tables_number   1
_chemical_formula_structural   Cu6H33(C35O13)2
_chemical_formula_sum   'Cu48 H264 C560 O208'
_cell_volume   27691.76075356
_cell_formula_units_Z   8
loop_
 _symmetry_equiv_pos_site_id
 _symmetry_equiv_pos_as_xyz
  1  'x, y, z'
loop_
 _atom_site_type_symbol
 _atom_site_label
 _atom_site_symmetry_multiplicity
 _atom_site_fract_x
 _atom_site_fract_y
 _atom_site_fract_z
 _atom_site_occupancy
  Cu  Cu0  1  0.11039000  0.18234000  0.14508000  1
  Cu  Cu1  1  0.14412000  0.24254000  0.19383000  1
  Cu  Cu2  1  0.88961000  0.81766000  0.14508000  1
  Cu  Cu3  1  0.85588000  0.75746000  0.19383000  1
  Cu  Cu4  1  0.81766000  0.11039000  0.14508000  1
  Cu  Cu5  1  0.75746000  0.14412000  0.19383000  1
  Cu  Cu6  1  0.18234000  0.88961000  0.14508000  1
  Cu  Cu7  1  0.24254000  0.85588000  0.19383000  1
  Cu  Cu8  1  0.38961000  0.68234000  0.35492000  1
  Cu  Cu9  1  0.35588000  0.74254000  0.30617000  1
  Cu  Cu10  1  0.61039000  0.31766000  0.35492000  1
  Cu  Cu11  1  0.64412000  0.25746000  0.30617000  1
  Cu  Cu12  1  0.68234000  0.61039000  0.35492000  1
  Cu  Cu13  1  0.74254000  0.64412000  0.30617000  1
  Cu  Cu14  1  0.31766000  0.38961000  0.35492000  1
  Cu  Cu15  1  0.25746000  0.35588000  0.30617000  1
  Cu  Cu16  1  0.88961000  0.81766000  0.85492000  1
  Cu  Cu17  1  0.85588000  0.75746000  0.80617000  1
  Cu  Cu18  1  0.11039000  0.18234000  0.85492000  1
  Cu  Cu19  1  0.14412000  0.24254000  0.80617000  1
  Cu  Cu20  1  0.18234000  0.88961000  0.85492000  1
  Cu  Cu21  1  0.24254000  0.85588000  0.80617000  1
  Cu  Cu22  1  0.81766000  0.11039000  0.85492000  1
  Cu  Cu23  1  0.75746000  0.14412000  0.80617000  1
  Cu  Cu24  1  0.61039000  0.31766000  0.64508000  1
  Cu  Cu25  1  0.64412000  0.25746000  0.69383000  1
  Cu  Cu26  1  0.38961000  0.68234000  0.64508000  1
  Cu  Cu27  1  0.35588000  0.74254000  0.69383000  1
  Cu  Cu28  1  0.31766000  0.38961000  0.64508000  1
  Cu  Cu29  1  0.25746000  0.35588000  0.69383000  1
  Cu  Cu30  1  0.68234000  0.61039000  0.64508000  1
  Cu  Cu31  1  0.74254000  0.64412000  0.69383000  1
  Cu  Cu32  1  0.41741000  0.21393000  0.50000000  1
  Cu  Cu33  1  0.39525000  0.11686000  0.50000000  1
  Cu  Cu34  1  0.58259000  0.78607000  0.50000000  1
  Cu  Cu35  1  0.60475000  0.88314000  0.50000000  1
  Cu  Cu36  1  0.78607000  0.41741000  0.50000000  1
  Cu  Cu37  1  0.88314000  0.39525000  0.50000000  1
  Cu  Cu38  1  0.21393000  0.58259000  0.50000000  1
  Cu  Cu39  1  0.11686000  0.60475000  0.50000000  1
  Cu  Cu40  1  0.08259000  0.71393000  0.00000000  1
  Cu  Cu41  1  0.10475000  0.61686000  0.00000000  1
  Cu  Cu42  1  0.91741000  0.28607000  0.00000000  1
  Cu  Cu43  1  0.89525000  0.38314000  0.00000000  1
  Cu  Cu44  1  0.71393000  0.91741000  0.00000000  1
  Cu  Cu45  1  0.61686000  0.89525000  0.00000000  1
  Cu  Cu46  1  0.28607000  0.08259000  0.00000000  1
  Cu  Cu47  1  0.38314000  0.10475000  0.00000000  1
  H  H48  1  0.24310000  0.12520000  0.31110000  1
  H  H49  1  0.22620000  0.06490000  0.40430000  1
  H  H50  1  0.19340000  0.99340000  0.37950000  1
  H  H51  1  0.18550000  0.98710000  0.32160000  1
  H  H52  1  0.18890000  0.12540000  0.26540000  1
  H  H53  1  0.17230000  0.04340000  0.18070000  1
  H  H54  1  0.22150000  0.97890000  0.26680000  1
  H  H55  1  0.29290000  0.11260000  0.41640000  1
  H  H56  1  0.32270000  0.25970000  0.41690000  1
  H  H57  1  0.23870000  0.20050000  0.34200000  1
  H  H58  1  0.05520000  0.44400000  0.19020000  1
  H  H59  1  0.06770000  0.37520000  0.16010000  1
  H  H60  1  0.03370000  0.28780000  0.08030000  1
  H  H61  1  0.97350000  0.42500000  0.08830000  1
  H  H62  1  0.01200000  0.42590000  0.19620000  1
  H  H63  1  0.75690000  0.87480000  0.31110000  1
  H  H64  1  0.77380000  0.93510000  0.40430000  1
  H  H65  1  0.80660000  0.00660000  0.37950000  1
  H  H66  1  0.81450000  0.01290000  0.32160000  1
  H  H67  1  0.81110000  0.87460000  0.26540000  1
  H  H68  1  0.82770000  0.95660000  0.18070000  1
  H  H69  1  0.77850000  0.02110000  0.26680000  1
  H  H70  1  0.70710000  0.88740000  0.41640000  1
  H  H71  1  0.67730000  0.74030000  0.41690000  1
  H  H72  1  0.76130000  0.79950000  0.34200000  1
  H  H73  1  0.94480000  0.55600000  0.19020000  1
  H  H74  1  0.93230000  0.62480000  0.16010000  1
  H  H75  1  0.96630000  0.71220000  0.08030000  1
  H  H76  1  0.02650000  0.57500000  0.08830000  1
  H  H77  1  0.98800000  0.57410000  0.19620000  1
  H  H78  1  0.87480000  0.24310000  0.31110000  1
  H  H79  1  0.93510000  0.22620000  0.40430000  1
  H  H80  1  0.00660000  0.19340000  0.37950000  1
  H  H81  1  0.01290000  0.18550000  0.32160000  1
  H  H82  1  0.87460000  0.18890000  0.26540000  1
  H  H83  1  0.95660000  0.17230000  0.18070000  1
  H  H84  1  0.02110000  0.22150000  0.26680000  1
  H  H85  1  0.88740000  0.29290000  0.41640000  1
  H  H86  1  0.74030000  0.32270000  0.41690000  1
  H  H87  1  0.79950000  0.23870000  0.34200000  1
  H  H88  1  0.55600000  0.05520000  0.19020000  1
  H  H89  1  0.62480000  0.06770000  0.16010000  1
  H  H90  1  0.71220000  0.03370000  0.08030000  1
  H  H91  1  0.57500000  0.97350000  0.08830000  1
  H  H92  1  0.57410000  0.01200000  0.19620000  1
  H  H93  1  0.12520000  0.75690000  0.31110000  1
  H  H94  1  0.06490000  0.77380000  0.40430000  1
  H  H95  1  0.99340000  0.80660000  0.37950000  1
  H  H96  1  0.98710000  0.81450000  0.32160000  1
  H  H97  1  0.12540000  0.81110000  0.26540000  1
  H  H98  1  0.04340000  0.82770000  0.18070000  1
  H  H99  1  0.97890000  0.77850000  0.26680000  1
  H  H100  1  0.11260000  0.70710000  0.41640000  1
  H  H101  1  0.25970000  0.67730000  0.41690000  1
  H  H102  1  0.20050000  0.76130000  0.34200000  1
  H  H103  1  0.44400000  0.94480000  0.19020000  1
  H  H104  1  0.37520000  0.93230000  0.16010000  1
  H  H105  1  0.28780000  0.96630000  0.08030000  1
  H  H106  1  0.42500000  0.02650000  0.08830000  1
  H  H107  1  0.42590000  0.98800000  0.19620000  1
  H  H108  1  0.25690000  0.62520000  0.18890000  1
  H  H109  1  0.27380000  0.56490000  0.09570000  1
  H  H110  1  0.30660000  0.49340000  0.12050000  1
  H  H111  1  0.31450000  0.48710000  0.17840000  1
  H  H112  1  0.31110000  0.62540000  0.23460000  1
  H  H113  1  0.32770000  0.54340000  0.31930000  1
  H  H114  1  0.27850000  0.47890000  0.23320000  1
  H  H115  1  0.20710000  0.61260000  0.08360000  1
  H  H116  1  0.17730000  0.75970000  0.08310000  1
  H  H117  1  0.26130000  0.70050000  0.15800000  1
  H  H118  1  0.44480000  0.94400000  0.30980000  1
  H  H119  1  0.43230000  0.87520000  0.33990000  1
  H  H120  1  0.46630000  0.78780000  0.41970000  1
  H  H121  1  0.52650000  0.92500000  0.41170000  1
  H  H122  1  0.48800000  0.92590000  0.30380000  1
  H  H123  1  0.74310000  0.37480000  0.18890000  1
  H  H124  1  0.72620000  0.43510000  0.09570000  1
  H  H125  1  0.69340000  0.50660000  0.12050000  1
  H  H126  1  0.68550000  0.51290000  0.17840000  1
  H  H127  1  0.68890000  0.37460000  0.23460000  1
  H  H128  1  0.67230000  0.45660000  0.31930000  1
  H  H129  1  0.72150000  0.52110000  0.23320000  1
  H  H130  1  0.79290000  0.38740000  0.08360000  1
  H  H131  1  0.82270000  0.24030000  0.08310000  1
  H  H132  1  0.73870000  0.29950000  0.15800000  1
  H  H133  1  0.55520000  0.05600000  0.30980000  1
  H  H134  1  0.56770000  0.12480000  0.33990000  1
  H  H135  1  0.53370000  0.21220000  0.41970000  1
  H  H136  1  0.47350000  0.07500000  0.41170000  1
  H  H137  1  0.51200000  0.07410000  0.30380000  1
  H  H138  1  0.62520000  0.74310000  0.18890000  1
  H  H139  1  0.56490000  0.72620000  0.09570000  1
  H  H140  1  0.49340000  0.69340000  0.12050000  1
  H  H141  1  0.48710000  0.68550000  0.17840000  1
  H  H142  1  0.62540000  0.68890000  0.23460000  1
  H  H143  1  0.54340000  0.67230000  0.31930000  1
  H  H144  1  0.47890000  0.72150000  0.23320000  1
  H  H145  1  0.61260000  0.79290000  0.08360000  1
  H  H146  1  0.75970000  0.82270000  0.08310000  1
  H  H147  1  0.70050000  0.73870000  0.15800000  1
  H  H148  1  0.94400000  0.55520000  0.30980000  1
  H  H149  1  0.87520000  0.56770000  0.33990000  1
  H  H150  1  0.78780000  0.53370000  0.41970000  1
  H  H151  1  0.92500000  0.47350000  0.41170000  1
  H  H152  1  0.92590000  0.51200000  0.30380000  1
  H  H153  1  0.37480000  0.25690000  0.18890000  1
  H  H154  1  0.43510000  0.27380000  0.09570000  1
  H  H155  1  0.50660000  0.30660000  0.12050000  1
  H  H156  1  0.51290000  0.31450000  0.17840000  1
  H  H157  1  0.37460000  0.31110000  0.23460000  1
  H  H158  1  0.45660000  0.32770000  0.31930000  1
  H  H159  1  0.52110000  0.27850000  0.23320000  1
  H  H160  1  0.38740000  0.20710000  0.08360000  1
  H  H161  1  0.24030000  0.17730000  0.08310000  1
  H  H162  1  0.29950000  0.26130000  0.15800000  1
  H  H163  1  0.05600000  0.44480000  0.30980000  1
  H  H164  1  0.12480000  0.43230000  0.33990000  1
  H  H165  1  0.21220000  0.46630000  0.41970000  1
  H  H166  1  0.07500000  0.52650000  0.41170000  1
  H  H167  1  0.07410000  0.48800000  0.30380000  1
  H  H168  1  0.75690000  0.87480000  0.68890000  1
  H  H169  1  0.77380000  0.93510000  0.59570000  1
  H  H170  1  0.80660000  0.00660000  0.62050000  1
  H  H171  1  0.81450000  0.01290000  0.67840000  1
  H  H172  1  0.81110000  0.87460000  0.73460000  1
  H  H173  1  0.82770000  0.95660000  0.81930000  1
  H  H174  1  0.77850000  0.02110000  0.73320000  1
  H  H175  1  0.70710000  0.88740000  0.58360000  1
  H  H176  1  0.67730000  0.74030000  0.58310000  1
  H  H177  1  0.76130000  0.79950000  0.65800000  1
  H  H178  1  0.94480000  0.55600000  0.80980000  1
  H  H179  1  0.93230000  0.62480000  0.83990000  1
  H  H180  1  0.96630000  0.71220000  0.91970000  1
  H  H181  1  0.02650000  0.57500000  0.91170000  1
  H  H182  1  0.98800000  0.57410000  0.80380000  1
  H  H183  1  0.24310000  0.12520000  0.68890000  1
  H  H184  1  0.22620000  0.06490000  0.59570000  1
  H  H185  1  0.19340000  0.99340000  0.62050000  1
  H  H186  1  0.18550000  0.98710000  0.67840000  1
  H  H187  1  0.18890000  0.12540000  0.73460000  1
  H  H188  1  0.17230000  0.04340000  0.81930000  1
  H  H189  1  0.22150000  0.97890000  0.73320000  1
  H  H190  1  0.29290000  0.11260000  0.58360000  1
  H  H191  1  0.32270000  0.25970000  0.58310000  1
  H  H192  1  0.23870000  0.20050000  0.65800000  1
  H  H193  1  0.05520000  0.44400000  0.80980000  1
  H  H194  1  0.06770000  0.37520000  0.83990000  1
  H  H195  1  0.03370000  0.28780000  0.91970000  1
  H  H196  1  0.97350000  0.42500000  0.91170000  1
  H  H197  1  0.01200000  0.42590000  0.80380000  1
  H  H198  1  0.12520000  0.75690000  0.68890000  1
  H  H199  1  0.06490000  0.77380000  0.59570000  1
  H  H200  1  0.99340000  0.80660000  0.62050000  1
  H  H201  1  0.98710000  0.81450000  0.67840000  1
  H  H202  1  0.12540000  0.81110000  0.73460000  1
  H  H203  1  0.04340000  0.82770000  0.81930000  1
  H  H204  1  0.97890000  0.77850000  0.73320000  1
  H  H205  1  0.11260000  0.70710000  0.58360000  1
  H  H206  1  0.25970000  0.67730000  0.58310000  1
  H  H207  1  0.20050000  0.76130000  0.65800000  1
  H  H208  1  0.44400000  0.94480000  0.80980000  1
  H  H209  1  0.37520000  0.93230000  0.83990000  1
  H  H210  1  0.28780000  0.96630000  0.91970000  1
  H  H211  1  0.42500000  0.02650000  0.91170000  1
  H  H212  1  0.42590000  0.98800000  0.80380000  1
  H  H213  1  0.87480000  0.24310000  0.68890000  1
  H  H214  1  0.93510000  0.22620000  0.59570000  1
  H  H215  1  0.00660000  0.19340000  0.62050000  1
  H  H216  1  0.01290000  0.18550000  0.67840000  1
  H  H217  1  0.87460000  0.18890000  0.73460000  1
  H  H218  1  0.95660000  0.17230000  0.81930000  1
  H  H219  1  0.02110000  0.22150000  0.73320000  1
  H  H220  1  0.88740000  0.29290000  0.58360000  1
  H  H221  1  0.74030000  0.32270000  0.58310000  1
  H  H222  1  0.79950000  0.23870000  0.65800000  1
  H  H223  1  0.55600000  0.05520000  0.80980000  1
  H  H224  1  0.62480000  0.06770000  0.83990000  1
  H  H225  1  0.71220000  0.03370000  0.91970000  1
  H  H226  1  0.57500000  0.97350000  0.91170000  1
  H  H227  1  0.57410000  0.01200000  0.80380000  1
  H  H228  1  0.74310000  0.37480000  0.81110000  1
  H  H229  1  0.72620000  0.43510000  0.90430000  1
  H  H230  1  0.69340000  0.50660000  0.87950000  1
  H  H231  1  0.68550000  0.51290000  0.82160000  1
  H  H232  1  0.68890000  0.37460000  0.76540000  1
  H  H233  1  0.67230000  0.45660000  0.68070000  1
  H  H234  1  0.72150000  0.52110000  0.76680000  1
  H  H235  1  0.79290000  0.38740000  0.91640000  1
  H  H236  1  0.82270000  0.24030000  0.91690000  1
  H  H237  1  0.73870000  0.29950000  0.84200000  1
  H  H238  1  0.55520000  0.05600000  0.69020000  1
  H  H239  1  0.56770000  0.12480000  0.66010000  1
  H  H240  1  0.53370000  0.21220000  0.58030000  1
  H  H241  1  0.47350000  0.07500000  0.58830000  1
  H  H242  1  0.51200000  0.07410000  0.69620000  1
  H  H243  1  0.25690000  0.62520000  0.81110000  1
  H  H244  1  0.27380000  0.56490000  0.90430000  1
  H  H245  1  0.30660000  0.49340000  0.87950000  1
  H  H246  1  0.31450000  0.48710000  0.82160000  1
  H  H247  1  0.31110000  0.62540000  0.76540000  1
  H  H248  1  0.32770000  0.54340000  0.68070000  1
  H  H249  1  0.27850000  0.47890000  0.76680000  1
  H  H250  1  0.20710000  0.61260000  0.91640000  1
  H  H251  1  0.17730000  0.75970000  0.91690000  1
  H  H252  1  0.26130000  0.70050000  0.84200000  1
  H  H253  1  0.44480000  0.94400000  0.69020000  1
  H  H254  1  0.43230000  0.87520000  0.66010000  1
  H  H255  1  0.46630000  0.78780000  0.58030000  1
  H  H256  1  0.52650000  0.92500000  0.58830000  1
  H  H257  1  0.48800000  0.92590000  0.69620000  1
  H  H258  1  0.37480000  0.25690000  0.81110000  1
  H  H259  1  0.43510000  0.27380000  0.90430000  1
  H  H260  1  0.50660000  0.30660000  0.87950000  1
  H  H261  1  0.51290000  0.31450000  0.82160000  1
  H  H262  1  0.37460000  0.31110000  0.76540000  1
  H  H263  1  0.45660000  0.32770000  0.68070000  1
  H  H264  1  0.52110000  0.27850000  0.76680000  1
  H  H265  1  0.38740000  0.20710000  0.91640000  1
  H  H266  1  0.24030000  0.17730000  0.91690000  1
  H  H267  1  0.29950000  0.26130000  0.84200000  1
  H  H268  1  0.05600000  0.44480000  0.69020000  1
  H  H269  1  0.12480000  0.43230000  0.66010000  1
  H  H270  1  0.21220000  0.46630000  0.58030000  1
  H  H271  1  0.07500000  0.52650000  0.58830000  1
  H  H272  1  0.07410000  0.48800000  0.69620000  1
  H  H273  1  0.62520000  0.74310000  0.81110000  1
  H  H274  1  0.56490000  0.72620000  0.90430000  1
  H  H275  1  0.49340000  0.69340000  0.87950000  1
  H  H276  1  0.48710000  0.68550000  0.82160000  1
  H  H277  1  0.62540000  0.68890000  0.76540000  1
  H  H278  1  0.54340000  0.67230000  0.68070000  1
  H  H279  1  0.47890000  0.72150000  0.76680000  1
  H  H280  1  0.61260000  0.79290000  0.91640000  1
  H  H281  1  0.75970000  0.82270000  0.91690000  1
  H  H282  1  0.70050000  0.73870000  0.84200000  1
  H  H283  1  0.94400000  0.55520000  0.69020000  1
  H  H284  1  0.87520000  0.56770000  0.66010000  1
  H  H285  1  0.78780000  0.53370000  0.58030000  1
  H  H286  1  0.92500000  0.47350000  0.58830000  1
  H  H287  1  0.92590000  0.51200000  0.69620000  1
  H  H288  1  0.00000000  0.50000000  0.10590000  1
  H  H289  1  0.00000000  0.50000000  0.22250000  1
  H  H290  1  0.50000000  0.00000000  0.10590000  1
  H  H291  1  0.50000000  0.00000000  0.22250000  1
  H  H292  1  0.50000000  0.00000000  0.39410000  1
  H  H293  1  0.50000000  0.00000000  0.27750000  1
  H  H294  1  0.00000000  0.50000000  0.39410000  1
  H  H295  1  0.00000000  0.50000000  0.27750000  1
  H  H296  1  0.00000000  0.50000000  0.89410000  1
  H  H297  1  0.00000000  0.50000000  0.77750000  1
  H  H298  1  0.50000000  0.00000000  0.89410000  1
  H  H299  1  0.50000000  0.00000000  0.77750000  1
  H  H300  1  0.50000000  0.00000000  0.60590000  1
  H  H301  1  0.50000000  0.00000000  0.72250000  1
  H  H302  1  0.00000000  0.50000000  0.60590000  1
  H  H303  1  0.00000000  0.50000000  0.72250000  1
  H  H304  1  0.22140000  0.27860000  0.25000000  1
  H  H305  1  0.77860000  0.72140000  0.25000000  1
  H  H306  1  0.72140000  0.22140000  0.25000000  1
  H  H307  1  0.27860000  0.77860000  0.25000000  1
  H  H308  1  0.77860000  0.72140000  0.75000000  1
  H  H309  1  0.22140000  0.27860000  0.75000000  1
  H  H310  1  0.27860000  0.77860000  0.75000000  1
  H  H311  1  0.72140000  0.22140000  0.75000000  1
  C  C312  1  0.21314000  0.05572000  0.31026000  1
  C  C313  1  0.23290000  0.09871000  0.32500000  1
  C  C314  1  0.23794000  0.10327000  0.36037000  1
  C  C315  1  0.22303000  0.06295000  0.38071000  1
  C  C316  1  0.20347000  0.02010000  0.36577000  1
  C  C317  1  0.19863000  0.01628000  0.33117000  1
  C  C318  1  0.20561000  0.05247000  0.27258000  1
  C  C319  1  0.19069000  0.09445000  0.25435000  1
  C  C320  1  0.17833000  0.09145000  0.21998000  1
  C  C321  1  0.18148000  0.04577000  0.20352000  1
  C  C322  1  0.19816000  0.00340000  0.22069000  1
  C  C323  1  0.21017000  0.00727000  0.25517000  1
  C  C324  1  0.16054000  0.13724000  0.20092000  1
  C  C325  1  0.20402000  0.95430000  0.20200000  1
  C  C326  1  0.26114000  0.14849000  0.37651000  1
  C  C327  1  0.28920000  0.14411000  0.40642000  1
  C  C328  1  0.31138000  0.18468000  0.42158000  1
  C  C329  1  0.30734000  0.23207000  0.40675000  1
  C  C330  1  0.28003000  0.23781000  0.37653000  1
  C  C331  1  0.25715000  0.19645000  0.36193000  1
  C  C332  1  0.34408000  0.17809000  0.45250000  1
  C  C333  1  0.27949000  0.28878000  0.35990000  1
  C  C334  1  0.01030000  0.45513000  0.14692000  1
  C  C335  1  0.02130000  0.45690000  0.18260000  1
  C  C336  1  0.01875000  0.40808000  0.12790000  1
  C  C337  1  0.04998000  0.37030000  0.13986000  1
  C  C338  1  0.05544000  0.32531000  0.12236000  1
  C  C339  1  0.03003000  0.31796000  0.09200000  1
  C  C340  1  0.99937000  0.35510000  0.07901000  1
  C  C341  1  0.99412000  0.39985000  0.09709000  1
  C  C342  1  0.08636000  0.28334000  0.13782000  1
  C  C343  1  0.96845000  0.34680000  0.04745000  1
  C  C344  1  0.01490000  0.50260000  0.19955000  1
  C  C345  1  0.99870000  0.45330000  0.18170000  1
  C  C346  1  0.78686000  0.94428000  0.31026000  1
  C  C347  1  0.76710000  0.90129000  0.32500000  1
  C  C348  1  0.76206000  0.89673000  0.36037000  1
  C  C349  1  0.77697000  0.93705000  0.38071000  1
  C  C350  1  0.79653000  0.97990000  0.36577000  1
  C  C351  1  0.80137000  0.98372000  0.33117000  1
  C  C352  1  0.79439000  0.94753000  0.27258000  1
  C  C353  1  0.80931000  0.90555000  0.25435000  1
  C  C354  1  0.82167000  0.90855000  0.21998000  1
  C  C355  1  0.81852000  0.95423000  0.20352000  1
  C  C356  1  0.80184000  0.99660000  0.22069000  1
  C  C357  1  0.78983000  0.99273000  0.25517000  1
  C  C358  1  0.83946000  0.86276000  0.20092000  1
  C  C359  1  0.79598000  0.04570000  0.20200000  1
  C  C360  1  0.73886000  0.85151000  0.37651000  1
  C  C361  1  0.71080000  0.85589000  0.40642000  1
  C  C362  1  0.68862000  0.81532000  0.42158000  1
  C  C363  1  0.69266000  0.76793000  0.40675000  1
  C  C364  1  0.71997000  0.76219000  0.37653000  1
  C  C365  1  0.74285000  0.80355000  0.36193000  1
  C  C366  1  0.65592000  0.82191000  0.45250000  1
  C  C367  1  0.72051000  0.71122000  0.35990000  1
  C  C368  1  0.98970000  0.54487000  0.14692000  1
  C  C369  1  0.97870000  0.54310000  0.18260000  1
  C  C370  1  0.98125000  0.59192000  0.12790000  1
  C  C371  1  0.95002000  0.62970000  0.13986000  1
  C  C372  1  0.94456000  0.67469000  0.12236000  1
  C  C373  1  0.96997000  0.68204000  0.09200000  1
  C  C374  1  0.00063000  0.64490000  0.07901000  1
  C  C375  1  0.00588000  0.60015000  0.09709000  1
  C  C376  1  0.91364000  0.71666000  0.13782000  1
  C  C377  1  0.03155000  0.65320000  0.04745000  1
  C  C378  1  0.98510000  0.49740000  0.19955000  1
  C  C379  1  0.00130000  0.54670000  0.18170000  1
  C  C380  1  0.94428000  0.21314000  0.31026000  1
  C  C381  1  0.90129000  0.23290000  0.32500000  1
  C  C382  1  0.89673000  0.23794000  0.36037000  1
  C  C383  1  0.93705000  0.22303000  0.38071000  1
  C  C384  1  0.97990000  0.20347000  0.36577000  1
  C  C385  1  0.98372000  0.19863000  0.33117000  1
  C  C386  1  0.94753000  0.20561000  0.27258000  1
  C  C387  1  0.90555000  0.19069000  0.25435000  1
  C  C388  1  0.90855000  0.17833000  0.21998000  1
  C  C389  1  0.95423000  0.18148000  0.20352000  1
  C  C390  1  0.99660000  0.19816000  0.22069000  1
  C  C391  1  0.99273000  0.21017000  0.25517000  1
  C  C392  1  0.86276000  0.16054000  0.20092000  1
  C  C393  1  0.04570000  0.20402000  0.20200000  1
  C  C394  1  0.85151000  0.26114000  0.37651000  1
  C  C395  1  0.85589000  0.28920000  0.40642000  1
  C  C396  1  0.81532000  0.31138000  0.42158000  1
  C  C397  1  0.76793000  0.30734000  0.40675000  1
  C  C398  1  0.76219000  0.28003000  0.37653000  1
  C  C399  1  0.80355000  0.25715000  0.36193000  1
  C  C400  1  0.82191000  0.34408000  0.45250000  1
  C  C401  1  0.71122000  0.27949000  0.35990000  1
  C  C402  1  0.54487000  0.01030000  0.14692000  1
  C  C403  1  0.54310000  0.02130000  0.18260000  1
  C  C404  1  0.59192000  0.01875000  0.12790000  1
  C  C405  1  0.62970000  0.04998000  0.13986000  1
  C  C406  1  0.67469000  0.05544000  0.12236000  1
  C  C407  1  0.68204000  0.03003000  0.09200000  1
  C  C408  1  0.64490000  0.99937000  0.07901000  1
  C  C409  1  0.60015000  0.99412000  0.09709000  1
  C  C410  1  0.71666000  0.08636000  0.13782000  1
  C  C411  1  0.65320000  0.96845000  0.04745000  1
  C  C412  1  0.49740000  0.01490000  0.19955000  1
  C  C413  1  0.54670000  0.99870000  0.18170000  1
  C  C414  1  0.05572000  0.78686000  0.31026000  1
  C  C415  1  0.09871000  0.76710000  0.32500000  1
  C  C416  1  0.10327000  0.76206000  0.36037000  1
  C  C417  1  0.06295000  0.77697000  0.38071000  1
  C  C418  1  0.02010000  0.79653000  0.36577000  1
  C  C419  1  0.01628000  0.80137000  0.33117000  1
  C  C420  1  0.05247000  0.79439000  0.27258000  1
  C  C421  1  0.09445000  0.80931000  0.25435000  1
  C  C422  1  0.09145000  0.82167000  0.21998000  1
  C  C423  1  0.04577000  0.81852000  0.20352000  1
  C  C424  1  0.00340000  0.80184000  0.22069000  1
  C  C425  1  0.00727000  0.78983000  0.25517000  1
  C  C426  1  0.13724000  0.83946000  0.20092000  1
  C  C427  1  0.95430000  0.79598000  0.20200000  1
  C  C428  1  0.14849000  0.73886000  0.37651000  1
  C  C429  1  0.14411000  0.71080000  0.40642000  1
  C  C430  1  0.18468000  0.68862000  0.42158000  1
  C  C431  1  0.23207000  0.69266000  0.40675000  1
  C  C432  1  0.23781000  0.71997000  0.37653000  1
  C  C433  1  0.19645000  0.74285000  0.36193000  1
  C  C434  1  0.17809000  0.65592000  0.45250000  1
  C  C435  1  0.28878000  0.72051000  0.35990000  1
  C  C436  1  0.45513000  0.98970000  0.14692000  1
  C  C437  1  0.45690000  0.97870000  0.18260000  1
  C  C438  1  0.40808000  0.98125000  0.12790000  1
  C  C439  1  0.37030000  0.95002000  0.13986000  1
  C  C440  1  0.32531000  0.94456000  0.12236000  1
  C  C441  1  0.31796000  0.96997000  0.09200000  1
  C  C442  1  0.35510000  0.00063000  0.07901000  1
  C  C443  1  0.39985000  0.00588000  0.09709000  1
  C  C444  1  0.28334000  0.91364000  0.13782000  1
  C  C445  1  0.34680000  0.03155000  0.04745000  1
  C  C446  1  0.50260000  0.98510000  0.19955000  1
  C  C447  1  0.45330000  0.00130000  0.18170000  1
  C  C448  1  0.28686000  0.55572000  0.18974000  1
  C  C449  1  0.26710000  0.59871000  0.17500000  1
  C  C450  1  0.26206000  0.60327000  0.13963000  1
  C  C451  1  0.27697000  0.56295000  0.11929000  1
  C  C452  1  0.29653000  0.52010000  0.13423000  1
  C  C453  1  0.30137000  0.51628000  0.16883000  1
  C  C454  1  0.29439000  0.55247000  0.22742000  1
  C  C455  1  0.30931000  0.59445000  0.24565000  1
  C  C456  1  0.32167000  0.59145000  0.28002000  1
  C  C457  1  0.31852000  0.54577000  0.29648000  1
  C  C458  1  0.30184000  0.50340000  0.27931000  1
  C  C459  1  0.28983000  0.50727000  0.24483000  1
  C  C460  1  0.33946000  0.63724000  0.29908000  1
  C  C461  1  0.29598000  0.45430000  0.29800000  1
  C  C462  1  0.23886000  0.64849000  0.12349000  1
  C  C463  1  0.21080000  0.64411000  0.09358000  1
  C  C464  1  0.18862000  0.68468000  0.07842000  1
  C  C465  1  0.19266000  0.73207000  0.09325000  1
  C  C466  1  0.21997000  0.73781000  0.12347000  1
  C  C467  1  0.24285000  0.69645000  0.13807000  1
  C  C468  1  0.15592000  0.67809000  0.04750000  1
  C  C469  1  0.22051000  0.78878000  0.14010000  1
  C  C470  1  0.48970000  0.95513000  0.35308000  1
  C  C471  1  0.47870000  0.95690000  0.31740000  1
  C  C472  1  0.48125000  0.90808000  0.37210000  1
  C  C473  1  0.45002000  0.87030000  0.36014000  1
  C  C474  1  0.44456000  0.82531000  0.37764000  1
  C  C475  1  0.46997000  0.81796000  0.40800000  1
  C  C476  1  0.50063000  0.85510000  0.42099000  1
  C  C477  1  0.50588000  0.89985000  0.40291000  1
  C  C478  1  0.41364000  0.78334000  0.36218000  1
  C  C479  1  0.53155000  0.84680000  0.45255000  1
  C  C480  1  0.48510000  0.00260000  0.30045000  1
  C  C481  1  0.50130000  0.95330000  0.31830000  1
  C  C482  1  0.71314000  0.44428000  0.18974000  1
  C  C483  1  0.73290000  0.40129000  0.17500000  1
  C  C484  1  0.73794000  0.39673000  0.13963000  1
  C  C485  1  0.72303000  0.43705000  0.11929000  1
  C  C486  1  0.70347000  0.47990000  0.13423000  1
  C  C487  1  0.69863000  0.48372000  0.16883000  1
  C  C488  1  0.70561000  0.44753000  0.22742000  1
  C  C489  1  0.69069000  0.40555000  0.24565000  1
  C  C490  1  0.67833000  0.40855000  0.28002000  1
  C  C491  1  0.68148000  0.45423000  0.29648000  1
  C  C492  1  0.69816000  0.49660000  0.27931000  1
  C  C493  1  0.71017000  0.49273000  0.24483000  1
  C  C494  1  0.66054000  0.36276000  0.29908000  1
  C  C495  1  0.70402000  0.54570000  0.29800000  1
  C  C496  1  0.76114000  0.35151000  0.12349000  1
  C  C497  1  0.78920000  0.35589000  0.09358000  1
  C  C498  1  0.81138000  0.31532000  0.07842000  1
  C  C499  1  0.80734000  0.26793000  0.09325000  1
  C  C500  1  0.78003000  0.26219000  0.12347000  1
  C  C501  1  0.75715000  0.30355000  0.13807000  1
  C  C502  1  0.84408000  0.32191000  0.04750000  1
  C  C503  1  0.77949000  0.21122000  0.14010000  1
  C  C504  1  0.51030000  0.04487000  0.35308000  1
  C  C505  1  0.52130000  0.04310000  0.31740000  1
  C  C506  1  0.51875000  0.09192000  0.37210000  1
  C  C507  1  0.54998000  0.12970000  0.36014000  1
  C  C508  1  0.55544000  0.17469000  0.37764000  1
  C  C509  1  0.53003000  0.18204000  0.40800000  1
  C  C510  1  0.49937000  0.14490000  0.42099000  1
  C  C511  1  0.49412000  0.10015000  0.40291000  1
  C  C512  1  0.58636000  0.21666000  0.36218000  1
  C  C513  1  0.46845000  0.15320000  0.45255000  1
  C  C514  1  0.51490000  0.99740000  0.30045000  1
  C  C515  1  0.49870000  0.04670000  0.31830000  1
  C  C516  1  0.55572000  0.71314000  0.18974000  1
  C  C517  1  0.59871000  0.73290000  0.17500000  1
  C  C518  1  0.60327000  0.73794000  0.13963000  1
  C  C519  1  0.56295000  0.72303000  0.11929000  1
  C  C520  1  0.52010000  0.70347000  0.13423000  1
  C  C521  1  0.51628000  0.69863000  0.16883000  1
  C  C522  1  0.55247000  0.70561000  0.22742000  1
  C  C523  1  0.59445000  0.69069000  0.24565000  1
  C  C524  1  0.59145000  0.67833000  0.28002000  1
  C  C525  1  0.54577000  0.68148000  0.29648000  1
  C  C526  1  0.50340000  0.69816000  0.27931000  1
  C  C527  1  0.50727000  0.71017000  0.24483000  1
  C  C528  1  0.63724000  0.66054000  0.29908000  1
  C  C529  1  0.45430000  0.70402000  0.29800000  1
  C  C530  1  0.64849000  0.76114000  0.12349000  1
  C  C531  1  0.64411000  0.78920000  0.09358000  1
  C  C532  1  0.68468000  0.81138000  0.07842000  1
  C  C533  1  0.73207000  0.80734000  0.09325000  1
  C  C534  1  0.73781000  0.78003000  0.12347000  1
  C  C535  1  0.69645000  0.75715000  0.13807000  1
  C  C536  1  0.67809000  0.84408000  0.04750000  1
  C  C537  1  0.78878000  0.77949000  0.14010000  1
  C  C538  1  0.95513000  0.51030000  0.35308000  1
  C  C539  1  0.95690000  0.52130000  0.31740000  1
  C  C540  1  0.90808000  0.51875000  0.37210000  1
  C  C541  1  0.87030000  0.54998000  0.36014000  1
  C  C542  1  0.82531000  0.55544000  0.37764000  1
  C  C543  1  0.81796000  0.53003000  0.40800000  1
  C  C544  1  0.85510000  0.49937000  0.42099000  1
  C  C545  1  0.89985000  0.49412000  0.40291000  1
  C  C546  1  0.78334000  0.58636000  0.36218000  1
  C  C547  1  0.84680000  0.46845000  0.45255000  1
  C  C548  1  0.00260000  0.51490000  0.30045000  1
  C  C549  1  0.95330000  0.49870000  0.31830000  1
  C  C550  1  0.44428000  0.28686000  0.18974000  1
  C  C551  1  0.40129000  0.26710000  0.17500000  1
  C  C552  1  0.39673000  0.26206000  0.13963000  1
  C  C553  1  0.43705000  0.27697000  0.11929000  1
  C  C554  1  0.47990000  0.29653000  0.13423000  1
  C  C555  1  0.48372000  0.30137000  0.16883000  1
  C  C556  1  0.44753000  0.29439000  0.22742000  1
  C  C557  1  0.40555000  0.30931000  0.24565000  1
  C  C558  1  0.40855000  0.32167000  0.28002000  1
  C  C559  1  0.45423000  0.31852000  0.29648000  1
  C  C560  1  0.49660000  0.30184000  0.27931000  1
  C  C561  1  0.49273000  0.28983000  0.24483000  1
  C  C562  1  0.36276000  0.33946000  0.29908000  1
  C  C563  1  0.54570000  0.29598000  0.29800000  1
  C  C564  1  0.35151000  0.23886000  0.12349000  1
  C  C565  1  0.35589000  0.21080000  0.09358000  1
  C  C566  1  0.31532000  0.18862000  0.07842000  1
  C  C567  1  0.26793000  0.19266000  0.09325000  1
  C  C568  1  0.26219000  0.21997000  0.12347000  1
  C  C569  1  0.30355000  0.24285000  0.13807000  1
  C  C570  1  0.32191000  0.15592000  0.04750000  1
  C  C571  1  0.21122000  0.22051000  0.14010000  1
  C  C572  1  0.04487000  0.48970000  0.35308000  1
  C  C573  1  0.04310000  0.47870000  0.31740000  1
  C  C574  1  0.09192000  0.48125000  0.37210000  1
  C  C575  1  0.12970000  0.45002000  0.36014000  1
  C  C576  1  0.17469000  0.44456000  0.37764000  1
  C  C577  1  0.18204000  0.46997000  0.40800000  1
  C  C578  1  0.14490000  0.50063000  0.42099000  1
  C  C579  1  0.10015000  0.50588000  0.40291000  1
  C  C580  1  0.21666000  0.41364000  0.36218000  1
  C  C581  1  0.15320000  0.53155000  0.45255000  1
  C  C582  1  0.99740000  0.48510000  0.30045000  1
  C  C583  1  0.04670000  0.50130000  0.31830000  1
  C  C584  1  0.78686000  0.94428000  0.68974000  1
  C  C585  1  0.76710000  0.90129000  0.67500000  1
  C  C586  1  0.76206000  0.89673000  0.63963000  1
  C  C587  1  0.77697000  0.93705000  0.61929000  1
  C  C588  1  0.79653000  0.97990000  0.63423000  1
  C  C589  1  0.80137000  0.98372000  0.66883000  1
  C  C590  1  0.79439000  0.94753000  0.72742000  1
  C  C591  1  0.80931000  0.90555000  0.74565000  1
  C  C592  1  0.82167000  0.90855000  0.78002000  1
  C  C593  1  0.81852000  0.95423000  0.79648000  1
  C  C594  1  0.80184000  0.99660000  0.77931000  1
  C  C595  1  0.78983000  0.99273000  0.74483000  1
  C  C596  1  0.83946000  0.86276000  0.79908000  1
  C  C597  1  0.79598000  0.04570000  0.79800000  1
  C  C598  1  0.73886000  0.85151000  0.62349000  1
  C  C599  1  0.71080000  0.85589000  0.59358000  1
  C  C600  1  0.68862000  0.81532000  0.57842000  1
  C  C601  1  0.69266000  0.76793000  0.59325000  1
  C  C602  1  0.71997000  0.76219000  0.62347000  1
  C  C603  1  0.74285000  0.80355000  0.63807000  1
  C  C604  1  0.65592000  0.82191000  0.54750000  1
  C  C605  1  0.72051000  0.71122000  0.64010000  1
  C  C606  1  0.98970000  0.54487000  0.85308000  1
  C  C607  1  0.97870000  0.54310000  0.81740000  1
  C  C608  1  0.98125000  0.59192000  0.87210000  1
  C  C609  1  0.95002000  0.62970000  0.86014000  1
  C  C610  1  0.94456000  0.67469000  0.87764000  1
  C  C611  1  0.96997000  0.68204000  0.90800000  1
  C  C612  1  0.00063000  0.64490000  0.92099000  1
  C  C613  1  0.00588000  0.60015000  0.90291000  1
  C  C614  1  0.91364000  0.71666000  0.86218000  1
  C  C615  1  0.03155000  0.65320000  0.95255000  1
  C  C616  1  0.98510000  0.49740000  0.80045000  1
  C  C617  1  0.00130000  0.54670000  0.81830000  1
  C  C618  1  0.21314000  0.05572000  0.68974000  1
  C  C619  1  0.23290000  0.09871000  0.67500000  1
  C  C620  1  0.23794000  0.10327000  0.63963000  1
  C  C621  1  0.22303000  0.06295000  0.61929000  1
  C  C622  1  0.20347000  0.02010000  0.63423000  1
  C  C623  1  0.19863000  0.01628000  0.66883000  1
  C  C624  1  0.20561000  0.05247000  0.72742000  1
  C  C625  1  0.19069000  0.09445000  0.74565000  1
  C  C626  1  0.17833000  0.09145000  0.78002000  1
  C  C627  1  0.18148000  0.04577000  0.79648000  1
  C  C628  1  0.19816000  0.00340000  0.77931000  1
  C  C629  1  0.21017000  0.00727000  0.74483000  1
  C  C630  1  0.16054000  0.13724000  0.79908000  1
  C  C631  1  0.20402000  0.95430000  0.79800000  1
  C  C632  1  0.26114000  0.14849000  0.62349000  1
  C  C633  1  0.28920000  0.14411000  0.59358000  1
  C  C634  1  0.31138000  0.18468000  0.57842000  1
  C  C635  1  0.30734000  0.23207000  0.59325000  1
  C  C636  1  0.28003000  0.23781000  0.62347000  1
  C  C637  1  0.25715000  0.19645000  0.63807000  1
  C  C638  1  0.34408000  0.17809000  0.54750000  1
  C  C639  1  0.27949000  0.28878000  0.64010000  1
  C  C640  1  0.01030000  0.45513000  0.85308000  1
  C  C641  1  0.02130000  0.45690000  0.81740000  1
  C  C642  1  0.01875000  0.40808000  0.87210000  1
  C  C643  1  0.04998000  0.37030000  0.86014000  1
  C  C644  1  0.05544000  0.32531000  0.87764000  1
  C  C645  1  0.03003000  0.31796000  0.90800000  1
  C  C646  1  0.99937000  0.35510000  0.92099000  1
  C  C647  1  0.99412000  0.39985000  0.90291000  1
  C  C648  1  0.08636000  0.28334000  0.86218000  1
  C  C649  1  0.96845000  0.34680000  0.95255000  1
  C  C650  1  0.01490000  0.50260000  0.80045000  1
  C  C651  1  0.99870000  0.45330000  0.81830000  1
  C  C652  1  0.05572000  0.78686000  0.68974000  1
  C  C653  1  0.09871000  0.76710000  0.67500000  1
  C  C654  1  0.10327000  0.76206000  0.63963000  1
  C  C655  1  0.06295000  0.77697000  0.61929000  1
  C  C656  1  0.02010000  0.79653000  0.63423000  1
  C  C657  1  0.01628000  0.80137000  0.66883000  1
  C  C658  1  0.05247000  0.79439000  0.72742000  1
  C  C659  1  0.09445000  0.80931000  0.74565000  1
  C  C660  1  0.09145000  0.82167000  0.78002000  1
  C  C661  1  0.04577000  0.81852000  0.79648000  1
  C  C662  1  0.00340000  0.80184000  0.77931000  1
  C  C663  1  0.00727000  0.78983000  0.74483000  1
  C  C664  1  0.13724000  0.83946000  0.79908000  1
  C  C665  1  0.95430000  0.79598000  0.79800000  1
  C  C666  1  0.14849000  0.73886000  0.62349000  1
  C  C667  1  0.14411000  0.71080000  0.59358000  1
  C  C668  1  0.18468000  0.68862000  0.57842000  1
  C  C669  1  0.23207000  0.69266000  0.59325000  1
  C  C670  1  0.23781000  0.71997000  0.62347000  1
  C  C671  1  0.19645000  0.74285000  0.63807000  1
  C  C672  1  0.17809000  0.65592000  0.54750000  1
  C  C673  1  0.28878000  0.72051000  0.64010000  1
  C  C674  1  0.45513000  0.98970000  0.85308000  1
  C  C675  1  0.45690000  0.97870000  0.81740000  1
  C  C676  1  0.40808000  0.98125000  0.87210000  1
  C  C677  1  0.37030000  0.95002000  0.86014000  1
  C  C678  1  0.32531000  0.94456000  0.87764000  1
  C  C679  1  0.31796000  0.96997000  0.90800000  1
  C  C680  1  0.35510000  0.00063000  0.92099000  1
  C  C681  1  0.39985000  0.00588000  0.90291000  1
  C  C682  1  0.28334000  0.91364000  0.86218000  1
  C  C683  1  0.34680000  0.03155000  0.95255000  1
  C  C684  1  0.50260000  0.98510000  0.80045000  1
  C  C685  1  0.45330000  0.00130000  0.81830000  1
  C  C686  1  0.94428000  0.21314000  0.68974000  1
  C  C687  1  0.90129000  0.23290000  0.67500000  1
  C  C688  1  0.89673000  0.23794000  0.63963000  1
  C  C689  1  0.93705000  0.22303000  0.61929000  1
  C  C690  1  0.97990000  0.20347000  0.63423000  1
  C  C691  1  0.98372000  0.19863000  0.66883000  1
  C  C692  1  0.94753000  0.20561000  0.72742000  1
  C  C693  1  0.90555000  0.19069000  0.74565000  1
  C  C694  1  0.90855000  0.17833000  0.78002000  1
  C  C695  1  0.95423000  0.18148000  0.79648000  1
  C  C696  1  0.99660000  0.19816000  0.77931000  1
  C  C697  1  0.99273000  0.21017000  0.74483000  1
  C  C698  1  0.86276000  0.16054000  0.79908000  1
  C  C699  1  0.04570000  0.20402000  0.79800000  1
  C  C700  1  0.85151000  0.26114000  0.62349000  1
  C  C701  1  0.85589000  0.28920000  0.59358000  1
  C  C702  1  0.81532000  0.31138000  0.57842000  1
  C  C703  1  0.76793000  0.30734000  0.59325000  1
  C  C704  1  0.76219000  0.28003000  0.62347000  1
  C  C705  1  0.80355000  0.25715000  0.63807000  1
  C  C706  1  0.82191000  0.34408000  0.54750000  1
  C  C707  1  0.71122000  0.27949000  0.64010000  1
  C  C708  1  0.54487000  0.01030000  0.85308000  1
  C  C709  1  0.54310000  0.02130000  0.81740000  1
  C  C710  1  0.59192000  0.01875000  0.87210000  1
  C  C711  1  0.62970000  0.04998000  0.86014000  1
  C  C712  1  0.67469000  0.05544000  0.87764000  1
  C  C713  1  0.68204000  0.03003000  0.90800000  1
  C  C714  1  0.64490000  0.99937000  0.92099000  1
  C  C715  1  0.60015000  0.99412000  0.90291000  1
  C  C716  1  0.71666000  0.08636000  0.86218000  1
  C  C717  1  0.65320000  0.96845000  0.95255000  1
  C  C718  1  0.49740000  0.01490000  0.80045000  1
  C  C719  1  0.54670000  0.99870000  0.81830000  1
  C  C720  1  0.71314000  0.44428000  0.81026000  1
  C  C721  1  0.73290000  0.40129000  0.82500000  1
  C  C722  1  0.73794000  0.39673000  0.86037000  1
  C  C723  1  0.72303000  0.43705000  0.88071000  1
  C  C724  1  0.70347000  0.47990000  0.86577000  1
  C  C725  1  0.69863000  0.48372000  0.83117000  1
  C  C726  1  0.70561000  0.44753000  0.77258000  1
  C  C727  1  0.69069000  0.40555000  0.75435000  1
  C  C728  1  0.67833000  0.40855000  0.71998000  1
  C  C729  1  0.68148000  0.45423000  0.70352000  1
  C  C730  1  0.69816000  0.49660000  0.72069000  1
  C  C731  1  0.71017000  0.49273000  0.75517000  1
  C  C732  1  0.66054000  0.36276000  0.70092000  1
  C  C733  1  0.70402000  0.54570000  0.70200000  1
  C  C734  1  0.76114000  0.35151000  0.87651000  1
  C  C735  1  0.78920000  0.35589000  0.90642000  1
  C  C736  1  0.81138000  0.31532000  0.92158000  1
  C  C737  1  0.80734000  0.26793000  0.90675000  1
  C  C738  1  0.78003000  0.26219000  0.87653000  1
  C  C739  1  0.75715000  0.30355000  0.86193000  1
  C  C740  1  0.84408000  0.32191000  0.95250000  1
  C  C741  1  0.77949000  0.21122000  0.85990000  1
  C  C742  1  0.51030000  0.04487000  0.64692000  1
  C  C743  1  0.52130000  0.04310000  0.68260000  1
  C  C744  1  0.51875000  0.09192000  0.62790000  1
  C  C745  1  0.54998000  0.12970000  0.63986000  1
  C  C746  1  0.55544000  0.17469000  0.62236000  1
  C  C747  1  0.53003000  0.18204000  0.59200000  1
  C  C748  1  0.49937000  0.14490000  0.57901000  1
  C  C749  1  0.49412000  0.10015000  0.59709000  1
  C  C750  1  0.58636000  0.21666000  0.63782000  1
  C  C751  1  0.46845000  0.15320000  0.54745000  1
  C  C752  1  0.51490000  0.99740000  0.69955000  1
  C  C753  1  0.49870000  0.04670000  0.68170000  1
  C  C754  1  0.28686000  0.55572000  0.81026000  1
  C  C755  1  0.26710000  0.59871000  0.82500000  1
  C  C756  1  0.26206000  0.60327000  0.86037000  1
  C  C757  1  0.27697000  0.56295000  0.88071000  1
  C  C758  1  0.29653000  0.52010000  0.86577000  1
  C  C759  1  0.30137000  0.51628000  0.83117000  1
  C  C760  1  0.29439000  0.55247000  0.77258000  1
  C  C761  1  0.30931000  0.59445000  0.75435000  1
  C  C762  1  0.32167000  0.59145000  0.71998000  1
  C  C763  1  0.31852000  0.54577000  0.70352000  1
  C  C764  1  0.30184000  0.50340000  0.72069000  1
  C  C765  1  0.28983000  0.50727000  0.75517000  1
  C  C766  1  0.33946000  0.63724000  0.70092000  1
  C  C767  1  0.29598000  0.45430000  0.70200000  1
  C  C768  1  0.23886000  0.64849000  0.87651000  1
  C  C769  1  0.21080000  0.64411000  0.90642000  1
  C  C770  1  0.18862000  0.68468000  0.92158000  1
  C  C771  1  0.19266000  0.73207000  0.90675000  1
  C  C772  1  0.21997000  0.73781000  0.87653000  1
  C  C773  1  0.24285000  0.69645000  0.86193000  1
  C  C774  1  0.15592000  0.67809000  0.95250000  1
  C  C775  1  0.22051000  0.78878000  0.85990000  1
  C  C776  1  0.48970000  0.95513000  0.64692000  1
  C  C777  1  0.47870000  0.95690000  0.68260000  1
  C  C778  1  0.48125000  0.90808000  0.62790000  1
  C  C779  1  0.45002000  0.87030000  0.63986000  1
  C  C780  1  0.44456000  0.82531000  0.62236000  1
  C  C781  1  0.46997000  0.81796000  0.59200000  1
  C  C782  1  0.50063000  0.85510000  0.57901000  1
  C  C783  1  0.50588000  0.89985000  0.59709000  1
  C  C784  1  0.41364000  0.78334000  0.63782000  1
  C  C785  1  0.53155000  0.84680000  0.54745000  1
  C  C786  1  0.48510000  0.00260000  0.69955000  1
  C  C787  1  0.50130000  0.95330000  0.68170000  1
  C  C788  1  0.44428000  0.28686000  0.81026000  1
  C  C789  1  0.40129000  0.26710000  0.82500000  1
  C  C790  1  0.39673000  0.26206000  0.86037000  1
  C  C791  1  0.43705000  0.27697000  0.88071000  1
  C  C792  1  0.47990000  0.29653000  0.86577000  1
  C  C793  1  0.48372000  0.30137000  0.83117000  1
  C  C794  1  0.44753000  0.29439000  0.77258000  1
  C  C795  1  0.40555000  0.30931000  0.75435000  1
  C  C796  1  0.40855000  0.32167000  0.71998000  1
  C  C797  1  0.45423000  0.31852000  0.70352000  1
  C  C798  1  0.49660000  0.30184000  0.72069000  1
  C  C799  1  0.49273000  0.28983000  0.75517000  1
  C  C800  1  0.36276000  0.33946000  0.70092000  1
  C  C801  1  0.54570000  0.29598000  0.70200000  1
  C  C802  1  0.35151000  0.23886000  0.87651000  1
  C  C803  1  0.35589000  0.21080000  0.90642000  1
  C  C804  1  0.31532000  0.18862000  0.92158000  1
  C  C805  1  0.26793000  0.19266000  0.90675000  1
  C  C806  1  0.26219000  0.21997000  0.87653000  1
  C  C807  1  0.30355000  0.24285000  0.86193000  1
  C  C808  1  0.32191000  0.15592000  0.95250000  1
  C  C809  1  0.21122000  0.22051000  0.85990000  1
  C  C810  1  0.04487000  0.48970000  0.64692000  1
  C  C811  1  0.04310000  0.47870000  0.68260000  1
  C  C812  1  0.09192000  0.48125000  0.62790000  1
  C  C813  1  0.12970000  0.45002000  0.63986000  1
  C  C814  1  0.17469000  0.44456000  0.62236000  1
  C  C815  1  0.18204000  0.46997000  0.59200000  1
  C  C816  1  0.14490000  0.50063000  0.57901000  1
  C  C817  1  0.10015000  0.50588000  0.59709000  1
  C  C818  1  0.21666000  0.41364000  0.63782000  1
  C  C819  1  0.15320000  0.53155000  0.54745000  1
  C  C820  1  0.99740000  0.48510000  0.69955000  1
  C  C821  1  0.04670000  0.50130000  0.68170000  1
  C  C822  1  0.55572000  0.71314000  0.81026000  1
  C  C823  1  0.59871000  0.73290000  0.82500000  1
  C  C824  1  0.60327000  0.73794000  0.86037000  1
  C  C825  1  0.56295000  0.72303000  0.88071000  1
  C  C826  1  0.52010000  0.70347000  0.86577000  1
  C  C827  1  0.51628000  0.69863000  0.83117000  1
  C  C828  1  0.55247000  0.70561000  0.77258000  1
  C  C829  1  0.59445000  0.69069000  0.75435000  1
  C  C830  1  0.59145000  0.67833000  0.71998000  1
  C  C831  1  0.54577000  0.68148000  0.70352000  1
  C  C832  1  0.50340000  0.69816000  0.72069000  1
  C  C833  1  0.50727000  0.71017000  0.75517000  1
  C  C834  1  0.63724000  0.66054000  0.70092000  1
  C  C835  1  0.45430000  0.70402000  0.70200000  1
  C  C836  1  0.64849000  0.76114000  0.87651000  1
  C  C837  1  0.64411000  0.78920000  0.90642000  1
  C  C838  1  0.68468000  0.81138000  0.92158000  1
  C  C839  1  0.73207000  0.80734000  0.90675000  1
  C  C840  1  0.73781000  0.78003000  0.87653000  1
  C  C841  1  0.69645000  0.75715000  0.86193000  1
  C  C842  1  0.67809000  0.84408000  0.95250000  1
  C  C843  1  0.78878000  0.77949000  0.85990000  1
  C  C844  1  0.95513000  0.51030000  0.64692000  1
  C  C845  1  0.95690000  0.52130000  0.68260000  1
  C  C846  1  0.90808000  0.51875000  0.62790000  1
  C  C847  1  0.87030000  0.54998000  0.63986000  1
  C  C848  1  0.82531000  0.55544000  0.62236000  1
  C  C849  1  0.81796000  0.53003000  0.59200000  1
  C  C850  1  0.85510000  0.49937000  0.57901000  1
  C  C851  1  0.89985000  0.49412000  0.59709000  1
  C  C852  1  0.78334000  0.58636000  0.63782000  1
  C  C853  1  0.84680000  0.46845000  0.54745000  1
  C  C854  1  0.00260000  0.51490000  0.69955000  1
  C  C855  1  0.95330000  0.49870000  0.68170000  1
  C  C856  1  0.00000000  0.50000000  0.12966000  1
  C  C857  1  0.50000000  0.00000000  0.12966000  1
  C  C858  1  0.50000000  0.00000000  0.37034000  1
  C  C859  1  0.00000000  0.50000000  0.37034000  1
  C  C860  1  0.00000000  0.50000000  0.87034000  1
  C  C861  1  0.50000000  0.00000000  0.87034000  1
  C  C862  1  0.50000000  0.00000000  0.62966000  1
  C  C863  1  0.00000000  0.50000000  0.62966000  1
  C  C864  1  0.19670000  0.30330000  0.25000000  1
  C  C865  1  0.80330000  0.69670000  0.25000000  1
  C  C866  1  0.69670000  0.19670000  0.25000000  1
  C  C867  1  0.30330000  0.80330000  0.25000000  1
  C  C868  1  0.80330000  0.69670000  0.75000000  1
  C  C869  1  0.19670000  0.30330000  0.75000000  1
  C  C870  1  0.30330000  0.80330000  0.75000000  1
  C  C871  1  0.69670000  0.19670000  0.75000000  1
  O  O872  1  0.13961000  0.12923000  0.17317000  1
  O  O873  1  0.16787000  0.17929000  0.21432000  1
  O  O874  1  0.18111000  0.95023000  0.17401000  1
  O  O875  1  0.23040000  0.92115000  0.21553000  1
  O  O876  1  0.36593000  0.21595000  0.46415000  1
  O  O877  1  0.34680000  0.13420000  0.46444000  1
  O  O878  1  0.30412000  0.32264000  0.37434000  1
  O  O879  1  0.25406000  0.29343000  0.33281000  1
  O  O880  1  0.08386000  0.24164000  0.12281000  1
  O  O881  1  0.11096000  0.29297000  0.16396000  1
  O  O882  1  0.96625000  0.30362000  0.03597000  1
  O  O883  1  0.94651000  0.38554000  0.03578000  1
  O  O884  1  0.16274000  0.29618000  0.22957000  1
  O  O885  1  0.86039000  0.87077000  0.17317000  1
  O  O886  1  0.83213000  0.82071000  0.21432000  1
  O  O887  1  0.81889000  0.04977000  0.17401000  1
  O  O888  1  0.76960000  0.07885000  0.21553000  1
  O  O889  1  0.63407000  0.78405000  0.46415000  1
  O  O890  1  0.65320000  0.86580000  0.46444000  1
  O  O891  1  0.69588000  0.67736000  0.37434000  1
  O  O892  1  0.74594000  0.70657000  0.33281000  1
  O  O893  1  0.91614000  0.75836000  0.12281000  1
  O  O894  1  0.88904000  0.70703000  0.16396000  1
  O  O895  1  0.03375000  0.69638000  0.03597000  1
  O  O896  1  0.05349000  0.61446000  0.03578000  1
  O  O897  1  0.83726000  0.70382000  0.22957000  1
  O  O898  1  0.87077000  0.13961000  0.17317000  1
  O  O899  1  0.82071000  0.16787000  0.21432000  1
  O  O900  1  0.04977000  0.18111000  0.17401000  1
  O  O901  1  0.07885000  0.23040000  0.21553000  1
  O  O902  1  0.78405000  0.36593000  0.46415000  1
  O  O903  1  0.86580000  0.34680000  0.46444000  1
  O  O904  1  0.67736000  0.30412000  0.37434000  1
  O  O905  1  0.70657000  0.25406000  0.33281000  1
  O  O906  1  0.75836000  0.08386000  0.12281000  1
  O  O907  1  0.70703000  0.11096000  0.16396000  1
  O  O908  1  0.69638000  0.96625000  0.03597000  1
  O  O909  1  0.61446000  0.94651000  0.03578000  1
  O  O910  1  0.70382000  0.16274000  0.22957000  1
  O  O911  1  0.12923000  0.86039000  0.17317000  1
  O  O912  1  0.17929000  0.83213000  0.21432000  1
  O  O913  1  0.95023000  0.81889000  0.17401000  1
  O  O914  1  0.92115000  0.76960000  0.21553000  1
  O  O915  1  0.21595000  0.63407000  0.46415000  1
  O  O916  1  0.13420000  0.65320000  0.46444000  1
  O  O917  1  0.32264000  0.69588000  0.37434000  1
  O  O918  1  0.29343000  0.74594000  0.33281000  1
  O  O919  1  0.24164000  0.91614000  0.12281000  1
  O  O920  1  0.29297000  0.88904000  0.16396000  1
  O  O921  1  0.30362000  0.03375000  0.03597000  1
  O  O922  1  0.38554000  0.05349000  0.03578000  1
  O  O923  1  0.29618000  0.83726000  0.22957000  1
  O  O924  1  0.36039000  0.62923000  0.32683000  1
  O  O925  1  0.33213000  0.67929000  0.28568000  1
  O  O926  1  0.31889000  0.45023000  0.32599000  1
  O  O927  1  0.26960000  0.42115000  0.28447000  1
  O  O928  1  0.13407000  0.71595000  0.03585000  1
  O  O929  1  0.15320000  0.63420000  0.03556000  1
  O  O930  1  0.19588000  0.82264000  0.12566000  1
  O  O931  1  0.24594000  0.79343000  0.16719000  1
  O  O932  1  0.41614000  0.74164000  0.37719000  1
  O  O933  1  0.38904000  0.79297000  0.33604000  1
  O  O934  1  0.53375000  0.80362000  0.46403000  1
  O  O935  1  0.55349000  0.88554000  0.46422000  1
  O  O936  1  0.33726000  0.79618000  0.27043000  1
  O  O937  1  0.63961000  0.37077000  0.32683000  1
  O  O938  1  0.66787000  0.32071000  0.28568000  1
  O  O939  1  0.68111000  0.54977000  0.32599000  1
  O  O940  1  0.73040000  0.57885000  0.28447000  1
  O  O941  1  0.86593000  0.28405000  0.03585000  1
  O  O942  1  0.84680000  0.36580000  0.03556000  1
  O  O943  1  0.80412000  0.17736000  0.12566000  1
  O  O944  1  0.75406000  0.20657000  0.16719000  1
  O  O945  1  0.58386000  0.25836000  0.37719000  1
  O  O946  1  0.61096000  0.20703000  0.33604000  1
  O  O947  1  0.46625000  0.19638000  0.46403000  1
  O  O948  1  0.44651000  0.11446000  0.46422000  1
  O  O949  1  0.66274000  0.20382000  0.27043000  1
  O  O950  1  0.62923000  0.63961000  0.32683000  1
  O  O951  1  0.67929000  0.66787000  0.28568000  1
  O  O952  1  0.45023000  0.68111000  0.32599000  1
  O  O953  1  0.42115000  0.73040000  0.28447000  1
  O  O954  1  0.71595000  0.86593000  0.03585000  1
  O  O955  1  0.63420000  0.84680000  0.03556000  1
  O  O956  1  0.82264000  0.80412000  0.12566000  1
  O  O957  1  0.79343000  0.75406000  0.16719000  1
  O  O958  1  0.74164000  0.58386000  0.37719000  1
  O  O959  1  0.79297000  0.61096000  0.33604000  1
  O  O960  1  0.80362000  0.46625000  0.46403000  1
  O  O961  1  0.88554000  0.44651000  0.46422000  1
  O  O962  1  0.79618000  0.66274000  0.27043000  1
  O  O963  1  0.37077000  0.36039000  0.32683000  1
  O  O964  1  0.32071000  0.33213000  0.28568000  1
  O  O965  1  0.54977000  0.31889000  0.32599000  1
  O  O966  1  0.57885000  0.26960000  0.28447000  1
  O  O967  1  0.28405000  0.13407000  0.03585000  1
  O  O968  1  0.36580000  0.15320000  0.03556000  1
  O  O969  1  0.17736000  0.19588000  0.12566000  1
  O  O970  1  0.20657000  0.24594000  0.16719000  1
  O  O971  1  0.25836000  0.41614000  0.37719000  1
  O  O972  1  0.20703000  0.38904000  0.33604000  1
  O  O973  1  0.19638000  0.53375000  0.46403000  1
  O  O974  1  0.11446000  0.55349000  0.46422000  1
  O  O975  1  0.20382000  0.33726000  0.27043000  1
  O  O976  1  0.86039000  0.87077000  0.82683000  1
  O  O977  1  0.83213000  0.82071000  0.78568000  1
  O  O978  1  0.81889000  0.04977000  0.82599000  1
  O  O979  1  0.76960000  0.07885000  0.78447000  1
  O  O980  1  0.63407000  0.78405000  0.53585000  1
  O  O981  1  0.65320000  0.86580000  0.53556000  1
  O  O982  1  0.69588000  0.67736000  0.62566000  1
  O  O983  1  0.74594000  0.70657000  0.66719000  1
  O  O984  1  0.91614000  0.75836000  0.87719000  1
  O  O985  1  0.88904000  0.70703000  0.83604000  1
  O  O986  1  0.03375000  0.69638000  0.96403000  1
  O  O987  1  0.05349000  0.61446000  0.96422000  1
  O  O988  1  0.83726000  0.70382000  0.77043000  1
  O  O989  1  0.13961000  0.12923000  0.82683000  1
  O  O990  1  0.16787000  0.17929000  0.78568000  1
  O  O991  1  0.18111000  0.95023000  0.82599000  1
  O  O992  1  0.23040000  0.92115000  0.78447000  1
  O  O993  1  0.36593000  0.21595000  0.53585000  1
  O  O994  1  0.34680000  0.13420000  0.53556000  1
  O  O995  1  0.30412000  0.32264000  0.62566000  1
  O  O996  1  0.25406000  0.29343000  0.66719000  1
  O  O997  1  0.08386000  0.24164000  0.87719000  1
  O  O998  1  0.11096000  0.29297000  0.83604000  1
  O  O999  1  0.96625000  0.30362000  0.96403000  1
  O  O1000  1  0.94651000  0.38554000  0.96422000  1
  O  O1001  1  0.16274000  0.29618000  0.77043000  1
  O  O1002  1  0.12923000  0.86039000  0.82683000  1
  O  O1003  1  0.17929000  0.83213000  0.78568000  1
  O  O1004  1  0.95023000  0.81889000  0.82599000  1
  O  O1005  1  0.92115000  0.76960000  0.78447000  1
  O  O1006  1  0.21595000  0.63407000  0.53585000  1
  O  O1007  1  0.13420000  0.65320000  0.53556000  1
  O  O1008  1  0.32264000  0.69588000  0.62566000  1
  O  O1009  1  0.29343000  0.74594000  0.66719000  1
  O  O1010  1  0.24164000  0.91614000  0.87719000  1
  O  O1011  1  0.29297000  0.88904000  0.83604000  1
  O  O1012  1  0.30362000  0.03375000  0.96403000  1
  O  O1013  1  0.38554000  0.05349000  0.96422000  1
  O  O1014  1  0.29618000  0.83726000  0.77043000  1
  O  O1015  1  0.87077000  0.13961000  0.82683000  1
  O  O1016  1  0.82071000  0.16787000  0.78568000  1
  O  O1017  1  0.04977000  0.18111000  0.82599000  1
  O  O1018  1  0.07885000  0.23040000  0.78447000  1
  O  O1019  1  0.78405000  0.36593000  0.53585000  1
  O  O1020  1  0.86580000  0.34680000  0.53556000  1
  O  O1021  1  0.67736000  0.30412000  0.62566000  1
  O  O1022  1  0.70657000  0.25406000  0.66719000  1
  O  O1023  1  0.75836000  0.08386000  0.87719000  1
  O  O1024  1  0.70703000  0.11096000  0.83604000  1
  O  O1025  1  0.69638000  0.96625000  0.96403000  1
  O  O1026  1  0.61446000  0.94651000  0.96422000  1
  O  O1027  1  0.70382000  0.16274000  0.77043000  1
  O  O1028  1  0.63961000  0.37077000  0.67317000  1
  O  O1029  1  0.66787000  0.32071000  0.71432000  1
  O  O1030  1  0.68111000  0.54977000  0.67401000  1
  O  O1031  1  0.73040000  0.57885000  0.71553000  1
  O  O1032  1  0.86593000  0.28405000  0.96415000  1
  O  O1033  1  0.84680000  0.36580000  0.96444000  1
  O  O1034  1  0.80412000  0.17736000  0.87434000  1
  O  O1035  1  0.75406000  0.20657000  0.83281000  1
  O  O1036  1  0.58386000  0.25836000  0.62281000  1
  O  O1037  1  0.61096000  0.20703000  0.66396000  1
  O  O1038  1  0.46625000  0.19638000  0.53597000  1
  O  O1039  1  0.44651000  0.11446000  0.53578000  1
  O  O1040  1  0.66274000  0.20382000  0.72957000  1
  O  O1041  1  0.36039000  0.62923000  0.67317000  1
  O  O1042  1  0.33213000  0.67929000  0.71432000  1
  O  O1043  1  0.31889000  0.45023000  0.67401000  1
  O  O1044  1  0.26960000  0.42115000  0.71553000  1
  O  O1045  1  0.13407000  0.71595000  0.96415000  1
  O  O1046  1  0.15320000  0.63420000  0.96444000  1
  O  O1047  1  0.19588000  0.82264000  0.87434000  1
  O  O1048  1  0.24594000  0.79343000  0.83281000  1
  O  O1049  1  0.41614000  0.74164000  0.62281000  1
  O  O1050  1  0.38904000  0.79297000  0.66396000  1
  O  O1051  1  0.53375000  0.80362000  0.53597000  1
  O  O1052  1  0.55349000  0.88554000  0.53578000  1
  O  O1053  1  0.33726000  0.79618000  0.72957000  1
  O  O1054  1  0.37077000  0.36039000  0.67317000  1
  O  O1055  1  0.32071000  0.33213000  0.71432000  1
  O  O1056  1  0.54977000  0.31889000  0.67401000  1
  O  O1057  1  0.57885000  0.26960000  0.71553000  1
  O  O1058  1  0.28405000  0.13407000  0.96415000  1
  O  O1059  1  0.36580000  0.15320000  0.96444000  1
  O  O1060  1  0.17736000  0.19588000  0.87434000  1
  O  O1061  1  0.20657000  0.24594000  0.83281000  1
  O  O1062  1  0.25836000  0.41614000  0.62281000  1
  O  O1063  1  0.20703000  0.38904000  0.66396000  1
  O  O1064  1  0.19638000  0.53375000  0.53597000  1
  O  O1065  1  0.11446000  0.55349000  0.53578000  1
  O  O1066  1  0.20382000  0.33726000  0.72957000  1
  O  O1067  1  0.62923000  0.63961000  0.67317000  1
  O  O1068  1  0.67929000  0.66787000  0.71432000  1
  O  O1069  1  0.45023000  0.68111000  0.67401000  1
  O  O1070  1  0.42115000  0.73040000  0.71553000  1
  O  O1071  1  0.71595000  0.86593000  0.96415000  1
  O  O1072  1  0.63420000  0.84680000  0.96444000  1
  O  O1073  1  0.82264000  0.80412000  0.87434000  1
  O  O1074  1  0.79343000  0.75406000  0.83281000  1
  O  O1075  1  0.74164000  0.58386000  0.62281000  1
  O  O1076  1  0.79297000  0.61096000  0.66396000  1
  O  O1077  1  0.80362000  0.46625000  0.53597000  1
  O  O1078  1  0.88554000  0.44651000  0.53578000  1
  O  O1079  1  0.79618000  0.66274000  0.72957000  1
