data_crystal

_cell_length_a 26.58200
_cell_length_b 26.58200
_cell_length_c 39.19000
_cell_angle_alpha 90.00000
_cell_angle_beta  90.00000
_cell_angle_gamma 90.00000

_symmetry_space_group_name_	'P 1'
_symmetry_space_group_name_H-M	'P 1'

loop_
_symmetry_equiv_pos_as_xyz
  x,y,z

loop_
_atom_site_label
_atom_site_type_symbol
_atom_site_fract_x
_atom_site_fract_y
_atom_site_fract_z
_atom_site_charge
Cu	Cu	0.11039 0.18234 0.14508 0.90700
Cu	Cu	0.14412 0.24254 0.19383 0.93700
O 	O 	0.13961 0.12923 0.17317 -0.41300
O 	O 	0.16787 0.17929 0.21432 -0.39500
O 	O 	0.18111 0.95023 0.17401 -0.40100
O 	O 	0.23040 0.92115 0.21553 -0.38300
O 	O 	0.36593 0.21595 0.46415 -0.40800
O 	O 	0.34680 0.13420 0.46444 -0.40500
O 	O 	0.30412 0.32264 0.37434 -0.40300
O 	O 	0.25406 0.29343 0.33281 -0.38200
O 	O 	0.08386 0.24164 0.12281 -0.40400
O 	O 	0.11096 0.29297 0.16396 -0.38400
O 	O 	0.96625 0.30362 0.03597 -0.40900
O 	O 	0.94651 0.38554 0.03578 -0.40900
O 	O 	0.16274 0.29618 0.22957 -0.38200
C 	C 	0.21314 0.05572 0.31026 0.11000
C 	C 	0.23290 0.09871 0.32500 -0.16600
H 	H 	0.24310 0.12520 0.31110 0.09800
C 	C 	0.23794 0.10327 0.36037 0.10600
C 	C 	0.22303 0.06295 0.38071 -0.15700
H 	H 	0.22620 0.06490 0.40430 0.09200
C 	C 	0.20347 0.02010 0.36577 0.08600
H 	H 	0.19340 0.99340 0.37950 0.00700
C 	C 	0.19863 0.01628 0.33117 -0.16000
H 	H 	0.18550 0.98710 0.32160 0.09500
C 	C 	0.20561 0.05247 0.27258 -0.03900
C 	C 	0.19069 0.09445 0.25435 0.00600
H 	H 	0.18890 0.12540 0.26540 0.04900
C 	C 	0.17833 0.09145 0.21998 -0.09100
C 	C 	0.18148 0.04577 0.20352 0.03600
H 	H 	0.17230 0.04340 0.18070 0.05100
C 	C 	0.19816 0.00340 0.22069 -0.08600
C 	C 	0.21017 0.00727 0.25517 0.00300
H 	H 	0.22150 0.97890 0.26680 0.05100
C 	C 	0.16054 0.13724 0.20092 0.37100
C 	C 	0.20402 0.95430 0.20200 0.35700
C 	C 	0.26114 0.14849 0.37651 -0.03900
C 	C 	0.28920 0.14411 0.40642 0.00400
H 	H 	0.29290 0.11260 0.41640 0.04600
C 	C 	0.31138 0.18468 0.42158 -0.09000
C 	C 	0.30734 0.23207 0.40675 0.02900
H 	H 	0.32270 0.25970 0.41690 0.05400
C 	C 	0.28003 0.23781 0.37653 -0.08300
C 	C 	0.25715 0.19645 0.36193 -0.00000
H 	H 	0.23870 0.20050 0.34200 0.05100
C 	C 	0.34408 0.17809 0.45250 0.36400
C 	C 	0.27949 0.28878 0.35990 0.35200
C 	C 	0.01030 0.45513 0.14692 0.06300
C 	C 	0.02130 0.45690 0.18260 0.03000
H 	H 	0.05520 0.44400 0.19020 0.02100
C 	C 	0.01875 0.40808 0.12790 -0.01800
C 	C 	0.04998 0.37030 0.13986 -0.01300
H 	H 	0.06770 0.37520 0.16010 0.05700
C 	C 	0.05544 0.32531 0.12236 -0.07800
C 	C 	0.03003 0.31796 0.09200 0.02800
H 	H 	0.03370 0.28780 0.08030 0.05200
C 	C 	0.99937 0.35510 0.07901 -0.08600
C 	C 	0.99412 0.39985 0.09709 -0.01000
H 	H 	0.97350 0.42500 0.08830 0.05100
C 	C 	0.08636 0.28334 0.13782 0.35600
C 	C 	0.96845 0.34680 0.04745 0.36300
C 	C 	0.01490 0.50260 0.19955 0.00100
C 	C 	0.99870 0.45330 0.18170 -0.12000
H 	H 	0.01200 0.42590 0.19620 0.06200
Cu	Cu	0.88961 0.81766 0.14508 0.90600
Cu	Cu	0.85588 0.75746 0.19383 0.93600
O 	O 	0.86039 0.87077 0.17317 -0.41500
O 	O 	0.83213 0.82071 0.21432 -0.39600
O 	O 	0.81889 0.04977 0.17401 -0.40200
O 	O 	0.76960 0.07885 0.21553 -0.38400
O 	O 	0.63407 0.78405 0.46415 -0.40900
O 	O 	0.65320 0.86580 0.46444 -0.40600
O 	O 	0.69588 0.67736 0.37434 -0.40400
O 	O 	0.74594 0.70657 0.33281 -0.38300
O 	O 	0.91614 0.75836 0.12281 -0.40500
O 	O 	0.88904 0.70703 0.16396 -0.38500
O 	O 	0.03375 0.69638 0.03597 -0.41000
O 	O 	0.05349 0.61446 0.03578 -0.41000
O 	O 	0.83726 0.70382 0.22957 -0.38300
C 	C 	0.78686 0.94428 0.31026 0.10900
C 	C 	0.76710 0.90129 0.32500 -0.16600
H 	H 	0.75690 0.87480 0.31110 0.09700
C 	C 	0.76206 0.89673 0.36037 0.10500
C 	C 	0.77697 0.93705 0.38071 -0.15700
H 	H 	0.77380 0.93510 0.40430 0.09000
C 	C 	0.79653 0.97990 0.36577 0.08400
H 	H 	0.80660 0.00660 0.37950 0.00600
C 	C 	0.80137 0.98372 0.33117 -0.16200
H 	H 	0.81450 0.01290 0.32160 0.09400
C 	C 	0.79439 0.94753 0.27258 -0.04000
C 	C 	0.80931 0.90555 0.25435 0.00500
H 	H 	0.81110 0.87460 0.26540 0.04800
C 	C 	0.82167 0.90855 0.21998 -0.09200
C 	C 	0.81852 0.95423 0.20352 0.03500
H 	H 	0.82770 0.95660 0.18070 0.05000
C 	C 	0.80184 0.99660 0.22069 -0.08700
C 	C 	0.78983 0.99273 0.25517 0.00200
H 	H 	0.77850 0.02110 0.26680 0.05100
C 	C 	0.83946 0.86276 0.20092 0.37100
C 	C 	0.79598 0.04570 0.20200 0.35800
C 	C 	0.73886 0.85151 0.37651 -0.03800
C 	C 	0.71080 0.85589 0.40642 0.00400
H 	H 	0.70710 0.88740 0.41640 0.04600
C 	C 	0.68862 0.81532 0.42158 -0.09000
C 	C 	0.69266 0.76793 0.40675 0.02900
H 	H 	0.67730 0.74030 0.41690 0.05400
C 	C 	0.71997 0.76219 0.37653 -0.08300
C 	C 	0.74285 0.80355 0.36193 -0.00000
H 	H 	0.76130 0.79950 0.34200 0.05100
C 	C 	0.65592 0.82191 0.45250 0.36400
C 	C 	0.72051 0.71122 0.35990 0.35200
C 	C 	0.98970 0.54487 0.14692 0.06200
C 	C 	0.97870 0.54310 0.18260 0.03000
H 	H 	0.94480 0.55600 0.19020 0.02100
C 	C 	0.98125 0.59192 0.12790 -0.01900
C 	C 	0.95002 0.62970 0.13986 -0.01300
H 	H 	0.93230 0.62480 0.16010 0.05700
C 	C 	0.94456 0.67469 0.12236 -0.07800
C 	C 	0.96997 0.68204 0.09200 0.02700
H 	H 	0.96630 0.71220 0.08030 0.05200
C 	C 	0.00063 0.64490 0.07901 -0.08500
C 	C 	0.00588 0.60015 0.09709 -0.00900
H 	H 	0.02650 0.57500 0.08830 0.05100
C 	C 	0.91364 0.71666 0.13782 0.35600
C 	C 	0.03155 0.65320 0.04745 0.36200
C 	C 	0.98510 0.49740 0.19955 -0.00200
C 	C 	0.00130 0.54670 0.18170 -0.12000
H 	H 	0.98800 0.57410 0.19620 0.06100
Cu	Cu	0.81766 0.11039 0.14508 0.90600
Cu	Cu	0.75746 0.14412 0.19383 0.93600
O 	O 	0.87077 0.13961 0.17317 -0.41400
O 	O 	0.82071 0.16787 0.21432 -0.39600
O 	O 	0.04977 0.18111 0.17401 -0.40200
O 	O 	0.07885 0.23040 0.21553 -0.38400
O 	O 	0.78405 0.36593 0.46415 -0.40900
O 	O 	0.86580 0.34680 0.46444 -0.40600
O 	O 	0.67736 0.30412 0.37434 -0.40400
O 	O 	0.70657 0.25406 0.33281 -0.38300
O 	O 	0.75836 0.08386 0.12281 -0.40500
O 	O 	0.70703 0.11096 0.16396 -0.38500
O 	O 	0.69638 0.96625 0.03597 -0.41000
O 	O 	0.61446 0.94651 0.03578 -0.41000
O 	O 	0.70382 0.16274 0.22957 -0.38300
C 	C 	0.94428 0.21314 0.31026 0.10900
C 	C 	0.90129 0.23290 0.32500 -0.16600
H 	H 	0.87480 0.24310 0.31110 0.09700
C 	C 	0.89673 0.23794 0.36037 0.10500
C 	C 	0.93705 0.22303 0.38071 -0.15700
H 	H 	0.93510 0.22620 0.40430 0.09000
C 	C 	0.97990 0.20347 0.36577 0.08400
H 	H 	0.00660 0.19340 0.37950 0.00600
C 	C 	0.98372 0.19863 0.33117 -0.16200
H 	H 	0.01290 0.18550 0.32160 0.09400
C 	C 	0.94753 0.20561 0.27258 -0.04000
C 	C 	0.90555 0.19069 0.25435 0.00500
H 	H 	0.87460 0.18890 0.26540 0.04800
C 	C 	0.90855 0.17833 0.21998 -0.09200
C 	C 	0.95423 0.18148 0.20352 0.03500
H 	H 	0.95660 0.17230 0.18070 0.05000
C 	C 	0.99660 0.19816 0.22069 -0.08700
C 	C 	0.99273 0.21017 0.25517 0.00200
H 	H 	0.02110 0.22150 0.26680 0.05100
C 	C 	0.86276 0.16054 0.20092 0.37100
C 	C 	0.04570 0.20402 0.20200 0.35800
C 	C 	0.85151 0.26114 0.37651 -0.03800
C 	C 	0.85589 0.28920 0.40642 0.00400
H 	H 	0.88740 0.29290 0.41640 0.04600
C 	C 	0.81532 0.31138 0.42158 -0.09000
C 	C 	0.76793 0.30734 0.40675 0.02900
H 	H 	0.74030 0.32270 0.41690 0.05400
C 	C 	0.76219 0.28003 0.37653 -0.08300
C 	C 	0.80355 0.25715 0.36193 -0.00000
H 	H 	0.79950 0.23870 0.34200 0.05100
C 	C 	0.82191 0.34408 0.45250 0.36400
C 	C 	0.71122 0.27949 0.35990 0.35200
C 	C 	0.54487 0.01030 0.14692 0.06300
C 	C 	0.54310 0.02130 0.18260 0.03000
H 	H 	0.55600 0.05520 0.19020 0.02100
C 	C 	0.59192 0.01875 0.12790 -0.01800
C 	C 	0.62970 0.04998 0.13986 -0.01300
H 	H 	0.62480 0.06770 0.16010 0.05700
C 	C 	0.67469 0.05544 0.12236 -0.07800
C 	C 	0.68204 0.03003 0.09200 0.02800
H 	H 	0.71220 0.03370 0.08030 0.05200
C 	C 	0.64490 0.99937 0.07901 -0.08600
C 	C 	0.60015 0.99412 0.09709 -0.01000
H 	H 	0.57500 0.97350 0.08830 0.05100
C 	C 	0.71666 0.08636 0.13782 0.35600
C 	C 	0.65320 0.96845 0.04745 0.36300
C 	C 	0.49740 0.01490 0.19955 0.00100
C 	C 	0.54670 0.99870 0.18170 -0.12000
H 	H 	0.57410 0.01200 0.19620 0.06200
Cu	Cu	0.18234 0.88961 0.14508 0.90600
Cu	Cu	0.24254 0.85588 0.19383 0.93600
O 	O 	0.12923 0.86039 0.17317 -0.41400
O 	O 	0.17929 0.83213 0.21432 -0.39600
O 	O 	0.95023 0.81889 0.17401 -0.40200
O 	O 	0.92115 0.76960 0.21553 -0.38400
O 	O 	0.21595 0.63407 0.46415 -0.40900
O 	O 	0.13420 0.65320 0.46444 -0.40600
O 	O 	0.32264 0.69588 0.37434 -0.40400
O 	O 	0.29343 0.74594 0.33281 -0.38300
O 	O 	0.24164 0.91614 0.12281 -0.40500
O 	O 	0.29297 0.88904 0.16396 -0.38500
O 	O 	0.30362 0.03375 0.03597 -0.41000
O 	O 	0.38554 0.05349 0.03578 -0.41000
O 	O 	0.29618 0.83726 0.22957 -0.38300
C 	C 	0.05572 0.78686 0.31026 0.10900
C 	C 	0.09871 0.76710 0.32500 -0.16700
H 	H 	0.12520 0.75690 0.31110 0.09700
C 	C 	0.10327 0.76206 0.36037 0.10500
C 	C 	0.06295 0.77697 0.38071 -0.15800
H 	H 	0.06490 0.77380 0.40430 0.09100
C 	C 	0.02010 0.79653 0.36577 0.08500
H 	H 	0.99340 0.80660 0.37950 0.00600
C 	C 	0.01628 0.80137 0.33117 -0.16100
H 	H 	0.98710 0.81450 0.32160 0.09400
C 	C 	0.05247 0.79439 0.27258 -0.04000
C 	C 	0.09445 0.80931 0.25435 0.00500
H 	H 	0.12540 0.81110 0.26540 0.04800
C 	C 	0.09145 0.82167 0.21998 -0.09200
C 	C 	0.04577 0.81852 0.20352 0.03500
H 	H 	0.04340 0.82770 0.18070 0.05000
C 	C 	0.00340 0.80184 0.22069 -0.08700
C 	C 	0.00727 0.78983 0.25517 0.00200
H 	H 	0.97890 0.77850 0.26680 0.05100
C 	C 	0.13724 0.83946 0.20092 0.37100
C 	C 	0.95430 0.79598 0.20200 0.35700
C 	C 	0.14849 0.73886 0.37651 -0.03900
C 	C 	0.14411 0.71080 0.40642 0.00400
H 	H 	0.11260 0.70710 0.41640 0.04600
C 	C 	0.18468 0.68862 0.42158 -0.09000
C 	C 	0.23207 0.69266 0.40675 0.02900
H 	H 	0.25970 0.67730 0.41690 0.05400
C 	C 	0.23781 0.71997 0.37653 -0.08300
C 	C 	0.19645 0.74285 0.36193 -0.00000
H 	H 	0.20050 0.76130 0.34200 0.05100
C 	C 	0.17809 0.65592 0.45250 0.36400
C 	C 	0.28878 0.72051 0.35990 0.35200
C 	C 	0.45513 0.98970 0.14692 0.06200
C 	C 	0.45690 0.97870 0.18260 0.03000
H 	H 	0.44400 0.94480 0.19020 0.02100
C 	C 	0.40808 0.98125 0.12790 -0.01900
C 	C 	0.37030 0.95002 0.13986 -0.01300
H 	H 	0.37520 0.93230 0.16010 0.05700
C 	C 	0.32531 0.94456 0.12236 -0.07800
C 	C 	0.31796 0.96997 0.09200 0.02700
H 	H 	0.28780 0.96630 0.08030 0.05200
C 	C 	0.35510 0.00063 0.07901 -0.08500
C 	C 	0.39985 0.00588 0.09709 -0.00900
H 	H 	0.42500 0.02650 0.08830 0.05100
C 	C 	0.28334 0.91364 0.13782 0.35600
C 	C 	0.34680 0.03155 0.04745 0.36200
C 	C 	0.50260 0.98510 0.19955 -0.00200
C 	C 	0.45330 0.00130 0.18170 -0.12000
H 	H 	0.42590 0.98800 0.19620 0.06100
Cu	Cu	0.38961 0.68234 0.35492 0.90600
Cu	Cu	0.35588 0.74254 0.30617 0.93500
O 	O 	0.36039 0.62923 0.32683 -0.41400
O 	O 	0.33213 0.67929 0.28568 -0.39600
O 	O 	0.31889 0.45023 0.32599 -0.40200
O 	O 	0.26960 0.42115 0.28447 -0.38400
O 	O 	0.13407 0.71595 0.03585 -0.41300
O 	O 	0.15320 0.63420 0.03556 -0.41000
O 	O 	0.19588 0.82264 0.12566 -0.40500
O 	O 	0.24594 0.79343 0.16719 -0.38300
O 	O 	0.41614 0.74164 0.37719 -0.40400
O 	O 	0.38904 0.79297 0.33604 -0.38500
O 	O 	0.53375 0.80362 0.46403 -0.40700
O 	O 	0.55349 0.88554 0.46422 -0.40700
O 	O 	0.33726 0.79618 0.27043 -0.38300
C 	C 	0.28686 0.55572 0.18974 0.10900
C 	C 	0.26710 0.59871 0.17500 -0.16700
H 	H 	0.25690 0.62520 0.18890 0.09700
C 	C 	0.26206 0.60327 0.13963 0.10500
C 	C 	0.27697 0.56295 0.11929 -0.15800
H 	H 	0.27380 0.56490 0.09570 0.08900
C 	C 	0.29653 0.52010 0.13423 0.08400
H 	H 	0.30660 0.49340 0.12050 0.00500
C 	C 	0.30137 0.51628 0.16883 -0.16200
H 	H 	0.31450 0.48710 0.17840 0.09400
C 	C 	0.29439 0.55247 0.22742 -0.04000
C 	C 	0.30931 0.59445 0.24565 0.00500
H 	H 	0.31110 0.62540 0.23460 0.04800
C 	C 	0.32167 0.59145 0.28002 -0.09200
C 	C 	0.31852 0.54577 0.29648 0.03500
H 	H 	0.32770 0.54340 0.31930 0.05100
C 	C 	0.30184 0.50340 0.27931 -0.08700
C 	C 	0.28983 0.50727 0.24483 0.00200
H 	H 	0.27850 0.47890 0.23320 0.05100
C 	C 	0.33946 0.63724 0.29908 0.37100
C 	C 	0.29598 0.45430 0.29800 0.35700
C 	C 	0.23886 0.64849 0.12349 -0.04000
C 	C 	0.21080 0.64411 0.09358 0.00500
H 	H 	0.20710 0.61260 0.08360 0.04500
C 	C 	0.18862 0.68468 0.07842 -0.09200
C 	C 	0.19266 0.73207 0.09325 0.03000
H 	H 	0.17730 0.75970 0.08310 0.05200
C 	C 	0.21997 0.73781 0.12347 -0.08400
C 	C 	0.24285 0.69645 0.13807 0.00000
H 	H 	0.26130 0.70050 0.15800 0.05000
C 	C 	0.15592 0.67809 0.04750 0.36400
C 	C 	0.22051 0.78878 0.14010 0.35200
C 	C 	0.48970 0.95513 0.35308 0.06200
C 	C 	0.47870 0.95690 0.31740 0.03000
H 	H 	0.44480 0.94400 0.30980 0.02100
C 	C 	0.48125 0.90808 0.37210 -0.01800
C 	C 	0.45002 0.87030 0.36014 -0.01400
H 	H 	0.43230 0.87520 0.33990 0.05700
C 	C 	0.44456 0.82531 0.37764 -0.07700
C 	C 	0.46997 0.81796 0.40800 0.02600
H 	H 	0.46630 0.78780 0.41970 0.05400
C 	C 	0.50063 0.85510 0.42099 -0.08300
C 	C 	0.50588 0.89985 0.40291 -0.01000
H 	H 	0.52650 0.92500 0.41170 0.05200
C 	C 	0.41364 0.78334 0.36218 0.35600
C 	C 	0.53155 0.84680 0.45255 0.36200
C 	C 	0.48510 0.00260 0.30045 0.00000
C 	C 	0.50130 0.95330 0.31830 -0.12100
H 	H 	0.48800 0.92590 0.30380 0.06200
Cu	Cu	0.61039 0.31766 0.35492 0.90600
Cu	Cu	0.64412 0.25746 0.30617 0.93600
O 	O 	0.63961 0.37077 0.32683 -0.41400
O 	O 	0.66787 0.32071 0.28568 -0.39600
O 	O 	0.68111 0.54977 0.32599 -0.40200
O 	O 	0.73040 0.57885 0.28447 -0.38400
O 	O 	0.86593 0.28405 0.03585 -0.41300
O 	O 	0.84680 0.36580 0.03556 -0.41000
O 	O 	0.80412 0.17736 0.12566 -0.40500
O 	O 	0.75406 0.20657 0.16719 -0.38300
O 	O 	0.58386 0.25836 0.37719 -0.40400
O 	O 	0.61096 0.20703 0.33604 -0.38500
O 	O 	0.46625 0.19638 0.46403 -0.40700
O 	O 	0.44651 0.11446 0.46422 -0.40700
O 	O 	0.66274 0.20382 0.27043 -0.38300
C 	C 	0.71314 0.44428 0.18974 0.10900
C 	C 	0.73290 0.40129 0.17500 -0.16700
H 	H 	0.74310 0.37480 0.18890 0.09700
C 	C 	0.73794 0.39673 0.13963 0.10500
C 	C 	0.72303 0.43705 0.11929 -0.15800
H 	H 	0.72620 0.43510 0.09570 0.08900
C 	C 	0.70347 0.47990 0.13423 0.08400
H 	H 	0.69340 0.50660 0.12050 0.00500
C 	C 	0.69863 0.48372 0.16883 -0.16200
H 	H 	0.68550 0.51290 0.17840 0.09400
C 	C 	0.70561 0.44753 0.22742 -0.04000
C 	C 	0.69069 0.40555 0.24565 0.00500
H 	H 	0.68890 0.37460 0.23460 0.04800
C 	C 	0.67833 0.40855 0.28002 -0.09200
C 	C 	0.68148 0.45423 0.29648 0.03500
H 	H 	0.67230 0.45660 0.31930 0.05100
C 	C 	0.69816 0.49660 0.27931 -0.08700
C 	C 	0.71017 0.49273 0.24483 0.00200
H 	H 	0.72150 0.52110 0.23320 0.05100
C 	C 	0.66054 0.36276 0.29908 0.37100
C 	C 	0.70402 0.54570 0.29800 0.35700
C 	C 	0.76114 0.35151 0.12349 -0.04000
C 	C 	0.78920 0.35589 0.09358 0.00500
H 	H 	0.79290 0.38740 0.08360 0.04500
C 	C 	0.81138 0.31532 0.07842 -0.09200
C 	C 	0.80734 0.26793 0.09325 0.03000
H 	H 	0.82270 0.24030 0.08310 0.05200
C 	C 	0.78003 0.26219 0.12347 -0.08400
C 	C 	0.75715 0.30355 0.13807 0.00000
H 	H 	0.73870 0.29950 0.15800 0.05000
C 	C 	0.84408 0.32191 0.04750 0.36400
C 	C 	0.77949 0.21122 0.14010 0.35200
C 	C 	0.51030 0.04487 0.35308 0.06200
C 	C 	0.52130 0.04310 0.31740 0.02900
H 	H 	0.55520 0.05600 0.30980 0.02200
C 	C 	0.51875 0.09192 0.37210 -0.01800
C 	C 	0.54998 0.12970 0.36014 -0.01400
H 	H 	0.56770 0.12480 0.33990 0.05700
C 	C 	0.55544 0.17469 0.37764 -0.07700
C 	C 	0.53003 0.18204 0.40800 0.02600
H 	H 	0.53370 0.21220 0.41970 0.05400
C 	C 	0.49937 0.14490 0.42099 -0.08300
C 	C 	0.49412 0.10015 0.40291 -0.01000
H 	H 	0.47350 0.07500 0.41170 0.05200
C 	C 	0.58636 0.21666 0.36218 0.35600
C 	C 	0.46845 0.15320 0.45255 0.36200
C 	C 	0.51490 0.99740 0.30045 -0.00100
C 	C 	0.49870 0.04670 0.31830 -0.12000
H 	H 	0.51200 0.07410 0.30380 0.06200
Cu	Cu	0.68234 0.61039 0.35492 0.90600
Cu	Cu	0.74254 0.64412 0.30617 0.93500
O 	O 	0.62923 0.63961 0.32683 -0.41400
O 	O 	0.67929 0.66787 0.28568 -0.39600
O 	O 	0.45023 0.68111 0.32599 -0.40200
O 	O 	0.42115 0.73040 0.28447 -0.38400
O 	O 	0.71595 0.86593 0.03585 -0.41300
O 	O 	0.63420 0.84680 0.03556 -0.41000
O 	O 	0.82264 0.80412 0.12566 -0.40500
O 	O 	0.79343 0.75406 0.16719 -0.38300
O 	O 	0.74164 0.58386 0.37719 -0.40400
O 	O 	0.79297 0.61096 0.33604 -0.38500
O 	O 	0.80362 0.46625 0.46403 -0.40700
O 	O 	0.88554 0.44651 0.46422 -0.40700
O 	O 	0.79618 0.66274 0.27043 -0.38300
C 	C 	0.55572 0.71314 0.18974 0.10900
C 	C 	0.59871 0.73290 0.17500 -0.16700
H 	H 	0.62520 0.74310 0.18890 0.09700
C 	C 	0.60327 0.73794 0.13963 0.10500
C 	C 	0.56295 0.72303 0.11929 -0.15800
H 	H 	0.56490 0.72620 0.09570 0.08900
C 	C 	0.52010 0.70347 0.13423 0.08400
H 	H 	0.49340 0.69340 0.12050 0.00500
C 	C 	0.51628 0.69863 0.16883 -0.16200
H 	H 	0.48710 0.68550 0.17840 0.09400
C 	C 	0.55247 0.70561 0.22742 -0.04000
C 	C 	0.59445 0.69069 0.24565 0.00500
H 	H 	0.62540 0.68890 0.23460 0.04800
C 	C 	0.59145 0.67833 0.28002 -0.09200
C 	C 	0.54577 0.68148 0.29648 0.03500
H 	H 	0.54340 0.67230 0.31930 0.05100
C 	C 	0.50340 0.69816 0.27931 -0.08700
C 	C 	0.50727 0.71017 0.24483 0.00200
H 	H 	0.47890 0.72150 0.23320 0.05100
C 	C 	0.63724 0.66054 0.29908 0.37100
C 	C 	0.45430 0.70402 0.29800 0.35700
C 	C 	0.64849 0.76114 0.12349 -0.04000
C 	C 	0.64411 0.78920 0.09358 0.00500
H 	H 	0.61260 0.79290 0.08360 0.04500
C 	C 	0.68468 0.81138 0.07842 -0.09200
C 	C 	0.73207 0.80734 0.09325 0.03000
H 	H 	0.75970 0.82270 0.08310 0.05200
C 	C 	0.73781 0.78003 0.12347 -0.08400
C 	C 	0.69645 0.75715 0.13807 0.00000
H 	H 	0.70050 0.73870 0.15800 0.05000
C 	C 	0.67809 0.84408 0.04750 0.36400
C 	C 	0.78878 0.77949 0.14010 0.35200
C 	C 	0.95513 0.51030 0.35308 0.06200
C 	C 	0.95690 0.52130 0.31740 0.03000
H 	H 	0.94400 0.55520 0.30980 0.02100
C 	C 	0.90808 0.51875 0.37210 -0.01800
C 	C 	0.87030 0.54998 0.36014 -0.01400
H 	H 	0.87520 0.56770 0.33990 0.05700
C 	C 	0.82531 0.55544 0.37764 -0.07700
C 	C 	0.81796 0.53003 0.40800 0.02600
H 	H 	0.78780 0.53370 0.41970 0.05400
C 	C 	0.85510 0.49937 0.42099 -0.08300
C 	C 	0.89985 0.49412 0.40291 -0.01000
H 	H 	0.92500 0.47350 0.41170 0.05200
C 	C 	0.78334 0.58636 0.36218 0.35600
C 	C 	0.84680 0.46845 0.45255 0.36200
C 	C 	0.00260 0.51490 0.30045 0.00000
C 	C 	0.95330 0.49870 0.31830 -0.12100
H 	H 	0.92590 0.51200 0.30380 0.06200
Cu	Cu	0.31766 0.38961 0.35492 0.90600
Cu	Cu	0.25746 0.35588 0.30617 0.93600
O 	O 	0.37077 0.36039 0.32683 -0.41400
O 	O 	0.32071 0.33213 0.28568 -0.39600
O 	O 	0.54977 0.31889 0.32599 -0.40200
O 	O 	0.57885 0.26960 0.28447 -0.38400
O 	O 	0.28405 0.13407 0.03585 -0.41300
O 	O 	0.36580 0.15320 0.03556 -0.41000
O 	O 	0.17736 0.19588 0.12566 -0.40500
O 	O 	0.20657 0.24594 0.16719 -0.38300
O 	O 	0.25836 0.41614 0.37719 -0.40400
O 	O 	0.20703 0.38904 0.33604 -0.38500
O 	O 	0.19638 0.53375 0.46403 -0.40700
O 	O 	0.11446 0.55349 0.46422 -0.40700
O 	O 	0.20382 0.33726 0.27043 -0.38300
C 	C 	0.44428 0.28686 0.18974 0.10900
C 	C 	0.40129 0.26710 0.17500 -0.16700
H 	H 	0.37480 0.25690 0.18890 0.09700
C 	C 	0.39673 0.26206 0.13963 0.10500
C 	C 	0.43705 0.27697 0.11929 -0.15800
H 	H 	0.43510 0.27380 0.09570 0.08900
C 	C 	0.47990 0.29653 0.13423 0.08400
H 	H 	0.50660 0.30660 0.12050 0.00500
C 	C 	0.48372 0.30137 0.16883 -0.16200
H 	H 	0.51290 0.31450 0.17840 0.09400
C 	C 	0.44753 0.29439 0.22742 -0.04000
C 	C 	0.40555 0.30931 0.24565 0.00500
H 	H 	0.37460 0.31110 0.23460 0.04800
C 	C 	0.40855 0.32167 0.28002 -0.09200
C 	C 	0.45423 0.31852 0.29648 0.03500
H 	H 	0.45660 0.32770 0.31930 0.05100
C 	C 	0.49660 0.30184 0.27931 -0.08700
C 	C 	0.49273 0.28983 0.24483 0.00200
H 	H 	0.52110 0.27850 0.23320 0.05100
C 	C 	0.36276 0.33946 0.29908 0.37100
C 	C 	0.54570 0.29598 0.29800 0.35700
C 	C 	0.35151 0.23886 0.12349 -0.04000
C 	C 	0.35589 0.21080 0.09358 0.00500
H 	H 	0.38740 0.20710 0.08360 0.04500
C 	C 	0.31532 0.18862 0.07842 -0.09200
C 	C 	0.26793 0.19266 0.09325 0.03000
H 	H 	0.24030 0.17730 0.08310 0.05200
C 	C 	0.26219 0.21997 0.12347 -0.08400
C 	C 	0.30355 0.24285 0.13807 0.00000
H 	H 	0.29950 0.26130 0.15800 0.05000
C 	C 	0.32191 0.15592 0.04750 0.36400
C 	C 	0.21122 0.22051 0.14010 0.35200
C 	C 	0.04487 0.48970 0.35308 0.06200
C 	C 	0.04310 0.47870 0.31740 0.02900
H 	H 	0.05600 0.44480 0.30980 0.02200
C 	C 	0.09192 0.48125 0.37210 -0.01800
C 	C 	0.12970 0.45002 0.36014 -0.01400
H 	H 	0.12480 0.43230 0.33990 0.05700
C 	C 	0.17469 0.44456 0.37764 -0.07700
C 	C 	0.18204 0.46997 0.40800 0.02600
H 	H 	0.21220 0.46630 0.41970 0.05400
C 	C 	0.14490 0.50063 0.42099 -0.08300
C 	C 	0.10015 0.50588 0.40291 -0.01000
H 	H 	0.07500 0.52650 0.41170 0.05200
C 	C 	0.21666 0.41364 0.36218 0.35600
C 	C 	0.15320 0.53155 0.45255 0.36200
C 	C 	0.99740 0.48510 0.30045 -0.00100
C 	C 	0.04670 0.50130 0.31830 -0.12000
H 	H 	0.07410 0.48800 0.30380 0.06200
Cu	Cu	0.88961 0.81766 0.85492 0.90600
Cu	Cu	0.85588 0.75746 0.80617 0.93500
O 	O 	0.86039 0.87077 0.82683 -0.41400
O 	O 	0.83213 0.82071 0.78568 -0.39600
O 	O 	0.81889 0.04977 0.82599 -0.40200
O 	O 	0.76960 0.07885 0.78447 -0.38400
O 	O 	0.63407 0.78405 0.53585 -0.40900
O 	O 	0.65320 0.86580 0.53556 -0.40700
O 	O 	0.69588 0.67736 0.62566 -0.40400
O 	O 	0.74594 0.70657 0.66719 -0.38300
O 	O 	0.91614 0.75836 0.87719 -0.40300
O 	O 	0.88904 0.70703 0.83604 -0.38500
O 	O 	0.03375 0.69638 0.96403 -0.40100
O 	O 	0.05349 0.61446 0.96422 -0.40000
O 	O 	0.83726 0.70382 0.77043 -0.38300
C 	C 	0.78686 0.94428 0.68974 0.10900
C 	C 	0.76710 0.90129 0.67500 -0.16600
H 	H 	0.75690 0.87480 0.68890 0.09700
C 	C 	0.76206 0.89673 0.63963 0.10500
C 	C 	0.77697 0.93705 0.61929 -0.15700
H 	H 	0.77380 0.93510 0.59570 0.09000
C 	C 	0.79653 0.97990 0.63423 0.08400
H 	H 	0.80660 0.00660 0.62050 0.00600
C 	C 	0.80137 0.98372 0.66883 -0.16100
H 	H 	0.81450 0.01290 0.67840 0.09400
C 	C 	0.79439 0.94753 0.72742 -0.04000
C 	C 	0.80931 0.90555 0.74565 0.00400
H 	H 	0.81110 0.87460 0.73460 0.04800
C 	C 	0.82167 0.90855 0.78002 -0.09100
C 	C 	0.81852 0.95423 0.79648 0.03400
H 	H 	0.82770 0.95660 0.81930 0.05100
C 	C 	0.80184 0.99660 0.77931 -0.08700
C 	C 	0.78983 0.99273 0.74483 0.00100
H 	H 	0.77850 0.02110 0.73320 0.05200
C 	C 	0.83946 0.86276 0.79908 0.37000
C 	C 	0.79598 0.04570 0.79800 0.35700
C 	C 	0.73886 0.85151 0.62349 -0.03900
C 	C 	0.71080 0.85589 0.59358 0.00400
H 	H 	0.70710 0.88740 0.58360 0.04600
C 	C 	0.68862 0.81532 0.57842 -0.09000
C 	C 	0.69266 0.76793 0.59325 0.02900
H 	H 	0.67730 0.74030 0.58310 0.05400
C 	C 	0.71997 0.76219 0.62347 -0.08300
C 	C 	0.74285 0.80355 0.63807 -0.00000
H 	H 	0.76130 0.79950 0.65800 0.05100
C 	C 	0.65592 0.82191 0.54750 0.36400
C 	C 	0.72051 0.71122 0.64010 0.35200
C 	C 	0.98970 0.54487 0.85308 0.06200
C 	C 	0.97870 0.54310 0.81740 0.03000
H 	H 	0.94480 0.55600 0.80980 0.02200
C 	C 	0.98125 0.59192 0.87210 -0.01700
C 	C 	0.95002 0.62970 0.86014 -0.01400
H 	H 	0.93230 0.62480 0.83990 0.05800
C 	C 	0.94456 0.67469 0.87764 -0.07500
C 	C 	0.96997 0.68204 0.90800 0.02500
H 	H 	0.96630 0.71220 0.91970 0.05600
C 	C 	0.00063 0.64490 0.92099 -0.08000
C 	C 	0.00588 0.60015 0.90291 -0.01100
H 	H 	0.02650 0.57500 0.91170 0.05400
C 	C 	0.91364 0.71666 0.86218 0.35500
C 	C 	0.03155 0.65320 0.95255 0.36000
C 	C 	0.98510 0.49740 0.80045 -0.00200
C 	C 	0.00130 0.54670 0.81830 -0.12000
H 	H 	0.98800 0.57410 0.80380 0.06100
Cu	Cu	0.11039 0.18234 0.85492 0.90600
Cu	Cu	0.14412 0.24254 0.80617 0.93500
O 	O 	0.13961 0.12923 0.82683 -0.41400
O 	O 	0.16787 0.17929 0.78568 -0.39600
O 	O 	0.18111 0.95023 0.82599 -0.40200
O 	O 	0.23040 0.92115 0.78447 -0.38400
O 	O 	0.36593 0.21595 0.53585 -0.40900
O 	O 	0.34680 0.13420 0.53556 -0.40600
O 	O 	0.30412 0.32264 0.62566 -0.40400
O 	O 	0.25406 0.29343 0.66719 -0.38300
O 	O 	0.08386 0.24164 0.87719 -0.40300
O 	O 	0.11096 0.29297 0.83604 -0.38500
O 	O 	0.96625 0.30362 0.96403 -0.40100
O 	O 	0.94651 0.38554 0.96422 -0.40100
O 	O 	0.16274 0.29618 0.77043 -0.38300
C 	C 	0.21314 0.05572 0.68974 0.10900
C 	C 	0.23290 0.09871 0.67500 -0.16700
H 	H 	0.24310 0.12520 0.68890 0.09700
C 	C 	0.23794 0.10327 0.63963 0.10500
C 	C 	0.22303 0.06295 0.61929 -0.15800
H 	H 	0.22620 0.06490 0.59570 0.09100
C 	C 	0.20347 0.02010 0.63423 0.08500
H 	H 	0.19340 0.99340 0.62050 0.00600
C 	C 	0.19863 0.01628 0.66883 -0.16100
H 	H 	0.18550 0.98710 0.67840 0.09400
C 	C 	0.20561 0.05247 0.72742 -0.04000
C 	C 	0.19069 0.09445 0.74565 0.00400
H 	H 	0.18890 0.12540 0.73460 0.04800
C 	C 	0.17833 0.09145 0.78002 -0.09100
C 	C 	0.18148 0.04577 0.79648 0.03400
H 	H 	0.17230 0.04340 0.81930 0.05100
C 	C 	0.19816 0.00340 0.77931 -0.08600
C 	C 	0.21017 0.00727 0.74483 0.00200
H 	H 	0.22150 0.97890 0.73320 0.05100
C 	C 	0.16054 0.13724 0.79908 0.37000
C 	C 	0.20402 0.95430 0.79800 0.35700
C 	C 	0.26114 0.14849 0.62349 -0.03900
C 	C 	0.28920 0.14411 0.59358 0.00400
H 	H 	0.29290 0.11260 0.58360 0.04600
C 	C 	0.31138 0.18468 0.57842 -0.09000
C 	C 	0.30734 0.23207 0.59325 0.02900
H 	H 	0.32270 0.25970 0.58310 0.05400
C 	C 	0.28003 0.23781 0.62347 -0.08300
C 	C 	0.25715 0.19645 0.63807 -0.00000
H 	H 	0.23870 0.20050 0.65800 0.05100
C 	C 	0.34408 0.17809 0.54750 0.36400
C 	C 	0.27949 0.28878 0.64010 0.35200
C 	C 	0.01030 0.45513 0.85308 0.06200
C 	C 	0.02130 0.45690 0.81740 0.02900
H 	H 	0.05520 0.44400 0.80980 0.02200
C 	C 	0.01875 0.40808 0.87210 -0.01600
C 	C 	0.04998 0.37030 0.86014 -0.01400
H 	H 	0.06770 0.37520 0.83990 0.05800
C 	C 	0.05544 0.32531 0.87764 -0.07500
C 	C 	0.03003 0.31796 0.90800 0.02500
H 	H 	0.03370 0.28780 0.91970 0.05600
C 	C 	0.99937 0.35510 0.92099 -0.08100
C 	C 	0.99412 0.39985 0.90291 -0.01200
H 	H 	0.97350 0.42500 0.91170 0.05400
C 	C 	0.08636 0.28334 0.86218 0.35500
C 	C 	0.96845 0.34680 0.95255 0.36100
C 	C 	0.01490 0.50260 0.80045 0.00100
C 	C 	0.99870 0.45330 0.81830 -0.12000
H 	H 	0.01200 0.42590 0.80380 0.06200
Cu	Cu	0.18234 0.88961 0.85492 0.90600
Cu	Cu	0.24254 0.85588 0.80617 0.93500
O 	O 	0.12923 0.86039 0.82683 -0.41400
O 	O 	0.17929 0.83213 0.78568 -0.39600
O 	O 	0.95023 0.81889 0.82599 -0.40200
O 	O 	0.92115 0.76960 0.78447 -0.38400
O 	O 	0.21595 0.63407 0.53585 -0.40900
O 	O 	0.13420 0.65320 0.53556 -0.40600
O 	O 	0.32264 0.69588 0.62566 -0.40400
O 	O 	0.29343 0.74594 0.66719 -0.38300
O 	O 	0.24164 0.91614 0.87719 -0.40300
O 	O 	0.29297 0.88904 0.83604 -0.38500
O 	O 	0.30362 0.03375 0.96403 -0.40100
O 	O 	0.38554 0.05349 0.96422 -0.40000
O 	O 	0.29618 0.83726 0.77043 -0.38300
C 	C 	0.05572 0.78686 0.68974 0.10900
C 	C 	0.09871 0.76710 0.67500 -0.16700
H 	H 	0.12520 0.75690 0.68890 0.09700
C 	C 	0.10327 0.76206 0.63963 0.10500
C 	C 	0.06295 0.77697 0.61929 -0.15800
H 	H 	0.06490 0.77380 0.59570 0.09100
C 	C 	0.02010 0.79653 0.63423 0.08500
H 	H 	0.99340 0.80660 0.62050 0.00600
C 	C 	0.01628 0.80137 0.66883 -0.16100
H 	H 	0.98710 0.81450 0.67840 0.09400
C 	C 	0.05247 0.79439 0.72742 -0.04000
C 	C 	0.09445 0.80931 0.74565 0.00400
H 	H 	0.12540 0.81110 0.73460 0.04800
C 	C 	0.09145 0.82167 0.78002 -0.09100
C 	C 	0.04577 0.81852 0.79648 0.03400
H 	H 	0.04340 0.82770 0.81930 0.05100
C 	C 	0.00340 0.80184 0.77931 -0.08600
C 	C 	0.00727 0.78983 0.74483 0.00200
H 	H 	0.97890 0.77850 0.73320 0.05100
C 	C 	0.13724 0.83946 0.79908 0.37000
C 	C 	0.95430 0.79598 0.79800 0.35700
C 	C 	0.14849 0.73886 0.62349 -0.03900
C 	C 	0.14411 0.71080 0.59358 0.00400
H 	H 	0.11260 0.70710 0.58360 0.04600
C 	C 	0.18468 0.68862 0.57842 -0.09000
C 	C 	0.23207 0.69266 0.59325 0.02900
H 	H 	0.25970 0.67730 0.58310 0.05400
C 	C 	0.23781 0.71997 0.62347 -0.08300
C 	C 	0.19645 0.74285 0.63807 -0.00000
H 	H 	0.20050 0.76130 0.65800 0.05100
C 	C 	0.17809 0.65592 0.54750 0.36400
C 	C 	0.28878 0.72051 0.64010 0.35200
C 	C 	0.45513 0.98970 0.85308 0.06200
C 	C 	0.45690 0.97870 0.81740 0.03000
H 	H 	0.44400 0.94480 0.80980 0.02200
C 	C 	0.40808 0.98125 0.87210 -0.01700
C 	C 	0.37030 0.95002 0.86014 -0.01400
H 	H 	0.37520 0.93230 0.83990 0.05800
C 	C 	0.32531 0.94456 0.87764 -0.07500
C 	C 	0.31796 0.96997 0.90800 0.02500
H 	H 	0.28780 0.96630 0.91970 0.05600
C 	C 	0.35510 0.00063 0.92099 -0.08000
C 	C 	0.39985 0.00588 0.90291 -0.01100
H 	H 	0.42500 0.02650 0.91170 0.05400
C 	C 	0.28334 0.91364 0.86218 0.35500
C 	C 	0.34680 0.03155 0.95255 0.36000
C 	C 	0.50260 0.98510 0.80045 -0.00200
C 	C 	0.45330 0.00130 0.81830 -0.12000
H 	H 	0.42590 0.98800 0.80380 0.06100
Cu	Cu	0.81766 0.11039 0.85492 0.90600
Cu	Cu	0.75746 0.14412 0.80617 0.93500
O 	O 	0.87077 0.13961 0.82683 -0.41400
O 	O 	0.82071 0.16787 0.78568 -0.39600
O 	O 	0.04977 0.18111 0.82599 -0.40200
O 	O 	0.07885 0.23040 0.78447 -0.38400
O 	O 	0.78405 0.36593 0.53585 -0.40900
O 	O 	0.86580 0.34680 0.53556 -0.40700
O 	O 	0.67736 0.30412 0.62566 -0.40400
O 	O 	0.70657 0.25406 0.66719 -0.38300
O 	O 	0.75836 0.08386 0.87719 -0.40300
O 	O 	0.70703 0.11096 0.83604 -0.38500
O 	O 	0.69638 0.96625 0.96403 -0.40100
O 	O 	0.61446 0.94651 0.96422 -0.40100
O 	O 	0.70382 0.16274 0.77043 -0.38300
C 	C 	0.94428 0.21314 0.68974 0.10900
C 	C 	0.90129 0.23290 0.67500 -0.16600
H 	H 	0.87480 0.24310 0.68890 0.09700
C 	C 	0.89673 0.23794 0.63963 0.10500
C 	C 	0.93705 0.22303 0.61929 -0.15700
H 	H 	0.93510 0.22620 0.59570 0.09000
C 	C 	0.97990 0.20347 0.63423 0.08400
H 	H 	0.00660 0.19340 0.62050 0.00600
C 	C 	0.98372 0.19863 0.66883 -0.16100
H 	H 	0.01290 0.18550 0.67840 0.09400
C 	C 	0.94753 0.20561 0.72742 -0.04000
C 	C 	0.90555 0.19069 0.74565 0.00400
H 	H 	0.87460 0.18890 0.73460 0.04800
C 	C 	0.90855 0.17833 0.78002 -0.09100
C 	C 	0.95423 0.18148 0.79648 0.03400
H 	H 	0.95660 0.17230 0.81930 0.05100
C 	C 	0.99660 0.19816 0.77931 -0.08700
C 	C 	0.99273 0.21017 0.74483 0.00100
H 	H 	0.02110 0.22150 0.73320 0.05200
C 	C 	0.86276 0.16054 0.79908 0.37000
C 	C 	0.04570 0.20402 0.79800 0.35700
C 	C 	0.85151 0.26114 0.62349 -0.03900
C 	C 	0.85589 0.28920 0.59358 0.00400
H 	H 	0.88740 0.29290 0.58360 0.04600
C 	C 	0.81532 0.31138 0.57842 -0.09000
C 	C 	0.76793 0.30734 0.59325 0.02900
H 	H 	0.74030 0.32270 0.58310 0.05400
C 	C 	0.76219 0.28003 0.62347 -0.08300
C 	C 	0.80355 0.25715 0.63807 -0.00000
H 	H 	0.79950 0.23870 0.65800 0.05100
C 	C 	0.82191 0.34408 0.54750 0.36400
C 	C 	0.71122 0.27949 0.64010 0.35200
C 	C 	0.54487 0.01030 0.85308 0.06200
C 	C 	0.54310 0.02130 0.81740 0.02900
H 	H 	0.55600 0.05520 0.80980 0.02200
C 	C 	0.59192 0.01875 0.87210 -0.01600
C 	C 	0.62970 0.04998 0.86014 -0.01400
H 	H 	0.62480 0.06770 0.83990 0.05800
C 	C 	0.67469 0.05544 0.87764 -0.07500
C 	C 	0.68204 0.03003 0.90800 0.02500
H 	H 	0.71220 0.03370 0.91970 0.05600
C 	C 	0.64490 0.99937 0.92099 -0.08100
C 	C 	0.60015 0.99412 0.90291 -0.01200
H 	H 	0.57500 0.97350 0.91170 0.05400
C 	C 	0.71666 0.08636 0.86218 0.35500
C 	C 	0.65320 0.96845 0.95255 0.36100
C 	C 	0.49740 0.01490 0.80045 0.00100
C 	C 	0.54670 0.99870 0.81830 -0.12000
H 	H 	0.57410 0.01200 0.80380 0.06200
Cu	Cu	0.61039 0.31766 0.64508 0.90600
Cu	Cu	0.64412 0.25746 0.69383 0.93500
O 	O 	0.63961 0.37077 0.67317 -0.41400
O 	O 	0.66787 0.32071 0.71432 -0.39600
O 	O 	0.68111 0.54977 0.67401 -0.40200
O 	O 	0.73040 0.57885 0.71553 -0.38400
O 	O 	0.86593 0.28405 0.96415 -0.40300
O 	O 	0.84680 0.36580 0.96444 -0.40000
O 	O 	0.80412 0.17736 0.87434 -0.40300
O 	O 	0.75406 0.20657 0.83281 -0.38300
O 	O 	0.58386 0.25836 0.62281 -0.40400
O 	O 	0.61096 0.20703 0.66396 -0.38500
O 	O 	0.46625 0.19638 0.53597 -0.40700
O 	O 	0.44651 0.11446 0.53578 -0.40700
O 	O 	0.66274 0.20382 0.72957 -0.38300
C 	C 	0.71314 0.44428 0.81026 0.10900
C 	C 	0.73290 0.40129 0.82500 -0.16600
H 	H 	0.74310 0.37480 0.81110 0.09700
C 	C 	0.73794 0.39673 0.86037 0.10500
C 	C 	0.72303 0.43705 0.88071 -0.15700
H 	H 	0.72620 0.43510 0.90430 0.09200
C 	C 	0.70347 0.47990 0.86577 0.08400
H 	H 	0.69340 0.50660 0.87950 0.00700
C 	C 	0.69863 0.48372 0.83117 -0.16100
H 	H 	0.68550 0.51290 0.82160 0.09400
C 	C 	0.70561 0.44753 0.77258 -0.04000
C 	C 	0.69069 0.40555 0.75435 0.00400
H 	H 	0.68890 0.37460 0.76540 0.04800
C 	C 	0.67833 0.40855 0.71998 -0.09100
C 	C 	0.68148 0.45423 0.70352 0.03500
H 	H 	0.67230 0.45660 0.68070 0.05100
C 	C 	0.69816 0.49660 0.72069 -0.08700
C 	C 	0.71017 0.49273 0.75517 0.00200
H 	H 	0.72150 0.52110 0.76680 0.05100
C 	C 	0.66054 0.36276 0.70092 0.37000
C 	C 	0.70402 0.54570 0.70200 0.35700
C 	C 	0.76114 0.35151 0.87651 -0.03700
C 	C 	0.78920 0.35589 0.90642 0.00300
H 	H 	0.79290 0.38740 0.91640 0.04800
C 	C 	0.81138 0.31532 0.92158 -0.08800
C 	C 	0.80734 0.26793 0.90675 0.02800
H 	H 	0.82270 0.24030 0.91690 0.05500
C 	C 	0.78003 0.26219 0.87653 -0.08100
C 	C 	0.75715 0.30355 0.86193 -0.00100
H 	H 	0.73870 0.29950 0.84200 0.05100
C 	C 	0.84408 0.32191 0.95250 0.36200
C 	C 	0.77949 0.21122 0.85990 0.35200
C 	C 	0.51030 0.04487 0.64692 0.06200
C 	C 	0.52130 0.04310 0.68260 0.02900
H 	H 	0.55520 0.05600 0.69020 0.02200
C 	C 	0.51875 0.09192 0.62790 -0.01800
C 	C 	0.54998 0.12970 0.63986 -0.01400
H 	H 	0.56770 0.12480 0.66010 0.05700
C 	C 	0.55544 0.17469 0.62236 -0.07700
C 	C 	0.53003 0.18204 0.59200 0.02600
H 	H 	0.53370 0.21220 0.58030 0.05400
C 	C 	0.49937 0.14490 0.57901 -0.08300
C 	C 	0.49412 0.10015 0.59709 -0.01000
H 	H 	0.47350 0.07500 0.58830 0.05200
C 	C 	0.58636 0.21666 0.63782 0.35600
C 	C 	0.46845 0.15320 0.54745 0.36200
C 	C 	0.51490 0.99740 0.69955 -0.00100
C 	C 	0.49870 0.04670 0.68170 -0.12000
H 	H 	0.51200 0.07410 0.69620 0.06200
Cu	Cu	0.38961 0.68234 0.64508 0.90600
Cu	Cu	0.35588 0.74254 0.69383 0.93500
O 	O 	0.36039 0.62923 0.67317 -0.41400
O 	O 	0.33213 0.67929 0.71432 -0.39600
O 	O 	0.31889 0.45023 0.67401 -0.40200
O 	O 	0.26960 0.42115 0.71553 -0.38400
O 	O 	0.13407 0.71595 0.96415 -0.40300
O 	O 	0.15320 0.63420 0.96444 -0.40000
O 	O 	0.19588 0.82264 0.87434 -0.40300
O 	O 	0.24594 0.79343 0.83281 -0.38300
O 	O 	0.41614 0.74164 0.62281 -0.40400
O 	O 	0.38904 0.79297 0.66396 -0.38500
O 	O 	0.53375 0.80362 0.53597 -0.40700
O 	O 	0.55349 0.88554 0.53578 -0.40700
O 	O 	0.33726 0.79618 0.72957 -0.38300
C 	C 	0.28686 0.55572 0.81026 0.10900
C 	C 	0.26710 0.59871 0.82500 -0.16600
H 	H 	0.25690 0.62520 0.81110 0.09700
C 	C 	0.26206 0.60327 0.86037 0.10500
C 	C 	0.27697 0.56295 0.88071 -0.15700
H 	H 	0.27380 0.56490 0.90430 0.09200
C 	C 	0.29653 0.52010 0.86577 0.08400
H 	H 	0.30660 0.49340 0.87950 0.00700
C 	C 	0.30137 0.51628 0.83117 -0.16100
H 	H 	0.31450 0.48710 0.82160 0.09400
C 	C 	0.29439 0.55247 0.77258 -0.04000
C 	C 	0.30931 0.59445 0.75435 0.00400
H 	H 	0.31110 0.62540 0.76540 0.04800
C 	C 	0.32167 0.59145 0.71998 -0.09100
C 	C 	0.31852 0.54577 0.70352 0.03500
H 	H 	0.32770 0.54340 0.68070 0.05100
C 	C 	0.30184 0.50340 0.72069 -0.08700
C 	C 	0.28983 0.50727 0.75517 0.00200
H 	H 	0.27850 0.47890 0.76680 0.05100
C 	C 	0.33946 0.63724 0.70092 0.37000
C 	C 	0.29598 0.45430 0.70200 0.35700
C 	C 	0.23886 0.64849 0.87651 -0.03700
C 	C 	0.21080 0.64411 0.90642 0.00300
H 	H 	0.20710 0.61260 0.91640 0.04800
C 	C 	0.18862 0.68468 0.92158 -0.08800
C 	C 	0.19266 0.73207 0.90675 0.02800
H 	H 	0.17730 0.75970 0.91690 0.05500
C 	C 	0.21997 0.73781 0.87653 -0.08100
C 	C 	0.24285 0.69645 0.86193 -0.00100
H 	H 	0.26130 0.70050 0.84200 0.05100
C 	C 	0.15592 0.67809 0.95250 0.36200
C 	C 	0.22051 0.78878 0.85990 0.35200
C 	C 	0.48970 0.95513 0.64692 0.06200
C 	C 	0.47870 0.95690 0.68260 0.03000
H 	H 	0.44480 0.94400 0.69020 0.02100
C 	C 	0.48125 0.90808 0.62790 -0.01800
C 	C 	0.45002 0.87030 0.63986 -0.01400
H 	H 	0.43230 0.87520 0.66010 0.05700
C 	C 	0.44456 0.82531 0.62236 -0.07700
C 	C 	0.46997 0.81796 0.59200 0.02600
H 	H 	0.46630 0.78780 0.58030 0.05400
C 	C 	0.50063 0.85510 0.57901 -0.08300
C 	C 	0.50588 0.89985 0.59709 -0.01000
H 	H 	0.52650 0.92500 0.58830 0.05200
C 	C 	0.41364 0.78334 0.63782 0.35600
C 	C 	0.53155 0.84680 0.54745 0.36200
C 	C 	0.48510 0.00260 0.69955 0.00000
C 	C 	0.50130 0.95330 0.68170 -0.12100
H 	H 	0.48800 0.92590 0.69620 0.06200
Cu	Cu	0.31766 0.38961 0.64508 0.90600
Cu	Cu	0.25746 0.35588 0.69383 0.93500
O 	O 	0.37077 0.36039 0.67317 -0.41400
O 	O 	0.32071 0.33213 0.71432 -0.39600
O 	O 	0.54977 0.31889 0.67401 -0.40200
O 	O 	0.57885 0.26960 0.71553 -0.38400
O 	O 	0.28405 0.13407 0.96415 -0.40300
O 	O 	0.36580 0.15320 0.96444 -0.40000
O 	O 	0.17736 0.19588 0.87434 -0.40300
O 	O 	0.20657 0.24594 0.83281 -0.38300
O 	O 	0.25836 0.41614 0.62281 -0.40400
O 	O 	0.20703 0.38904 0.66396 -0.38500
O 	O 	0.19638 0.53375 0.53597 -0.40700
O 	O 	0.11446 0.55349 0.53578 -0.40700
O 	O 	0.20382 0.33726 0.72957 -0.38300
C 	C 	0.44428 0.28686 0.81026 0.10900
C 	C 	0.40129 0.26710 0.82500 -0.16600
H 	H 	0.37480 0.25690 0.81110 0.09700
C 	C 	0.39673 0.26206 0.86037 0.10500
C 	C 	0.43705 0.27697 0.88071 -0.15700
H 	H 	0.43510 0.27380 0.90430 0.09200
C 	C 	0.47990 0.29653 0.86577 0.08400
H 	H 	0.50660 0.30660 0.87950 0.00700
C 	C 	0.48372 0.30137 0.83117 -0.16100
H 	H 	0.51290 0.31450 0.82160 0.09400
C 	C 	0.44753 0.29439 0.77258 -0.04000
C 	C 	0.40555 0.30931 0.75435 0.00400
H 	H 	0.37460 0.31110 0.76540 0.04800
C 	C 	0.40855 0.32167 0.71998 -0.09100
C 	C 	0.45423 0.31852 0.70352 0.03500
H 	H 	0.45660 0.32770 0.68070 0.05100
C 	C 	0.49660 0.30184 0.72069 -0.08700
C 	C 	0.49273 0.28983 0.75517 0.00200
H 	H 	0.52110 0.27850 0.76680 0.05100
C 	C 	0.36276 0.33946 0.70092 0.37000
C 	C 	0.54570 0.29598 0.70200 0.35700
C 	C 	0.35151 0.23886 0.87651 -0.03700
C 	C 	0.35589 0.21080 0.90642 0.00300
H 	H 	0.38740 0.20710 0.91640 0.04800
C 	C 	0.31532 0.18862 0.92158 -0.08800
C 	C 	0.26793 0.19266 0.90675 0.02800
H 	H 	0.24030 0.17730 0.91690 0.05500
C 	C 	0.26219 0.21997 0.87653 -0.08100
C 	C 	0.30355 0.24285 0.86193 -0.00100
H 	H 	0.29950 0.26130 0.84200 0.05100
C 	C 	0.32191 0.15592 0.95250 0.36200
C 	C 	0.21122 0.22051 0.85990 0.35200
C 	C 	0.04487 0.48970 0.64692 0.06200
C 	C 	0.04310 0.47870 0.68260 0.02900
H 	H 	0.05600 0.44480 0.69020 0.02200
C 	C 	0.09192 0.48125 0.62790 -0.01800
C 	C 	0.12970 0.45002 0.63986 -0.01400
H 	H 	0.12480 0.43230 0.66010 0.05700
C 	C 	0.17469 0.44456 0.62236 -0.07700
C 	C 	0.18204 0.46997 0.59200 0.02600
H 	H 	0.21220 0.46630 0.58030 0.05400
C 	C 	0.14490 0.50063 0.57901 -0.08300
C 	C 	0.10015 0.50588 0.59709 -0.01000
H 	H 	0.07500 0.52650 0.58830 0.05200
C 	C 	0.21666 0.41364 0.63782 0.35600
C 	C 	0.15320 0.53155 0.54745 0.36200
C 	C 	0.99740 0.48510 0.69955 -0.00100
C 	C 	0.04670 0.50130 0.68170 -0.12000
H 	H 	0.07410 0.48800 0.69620 0.06200
Cu	Cu	0.68234 0.61039 0.64508 0.90600
Cu	Cu	0.74254 0.64412 0.69383 0.93500
O 	O 	0.62923 0.63961 0.67317 -0.41400
O 	O 	0.67929 0.66787 0.71432 -0.39600
O 	O 	0.45023 0.68111 0.67401 -0.40200
O 	O 	0.42115 0.73040 0.71553 -0.38400
O 	O 	0.71595 0.86593 0.96415 -0.40300
O 	O 	0.63420 0.84680 0.96444 -0.40000
O 	O 	0.82264 0.80412 0.87434 -0.40300
O 	O 	0.79343 0.75406 0.83281 -0.38300
O 	O 	0.74164 0.58386 0.62281 -0.40400
O 	O 	0.79297 0.61096 0.66396 -0.38500
O 	O 	0.80362 0.46625 0.53597 -0.40700
O 	O 	0.88554 0.44651 0.53578 -0.40700
O 	O 	0.79618 0.66274 0.72957 -0.38300
C 	C 	0.55572 0.71314 0.81026 0.10900
C 	C 	0.59871 0.73290 0.82500 -0.16600
H 	H 	0.62520 0.74310 0.81110 0.09700
C 	C 	0.60327 0.73794 0.86037 0.10500
C 	C 	0.56295 0.72303 0.88071 -0.15700
H 	H 	0.56490 0.72620 0.90430 0.09200
C 	C 	0.52010 0.70347 0.86577 0.08400
H 	H 	0.49340 0.69340 0.87950 0.00700
C 	C 	0.51628 0.69863 0.83117 -0.16100
H 	H 	0.48710 0.68550 0.82160 0.09400
C 	C 	0.55247 0.70561 0.77258 -0.04000
C 	C 	0.59445 0.69069 0.75435 0.00400
H 	H 	0.62540 0.68890 0.76540 0.04800
C 	C 	0.59145 0.67833 0.71998 -0.09100
C 	C 	0.54577 0.68148 0.70352 0.03500
H 	H 	0.54340 0.67230 0.68070 0.05100
C 	C 	0.50340 0.69816 0.72069 -0.08700
C 	C 	0.50727 0.71017 0.75517 0.00200
H 	H 	0.47890 0.72150 0.76680 0.05100
C 	C 	0.63724 0.66054 0.70092 0.37000
C 	C 	0.45430 0.70402 0.70200 0.35700
C 	C 	0.64849 0.76114 0.87651 -0.03700
C 	C 	0.64411 0.78920 0.90642 0.00300
H 	H 	0.61260 0.79290 0.91640 0.04800
C 	C 	0.68468 0.81138 0.92158 -0.08800
C 	C 	0.73207 0.80734 0.90675 0.02800
H 	H 	0.75970 0.82270 0.91690 0.05500
C 	C 	0.73781 0.78003 0.87653 -0.08100
C 	C 	0.69645 0.75715 0.86193 -0.00100
H 	H 	0.70050 0.73870 0.84200 0.05100
C 	C 	0.67809 0.84408 0.95250 0.36200
C 	C 	0.78878 0.77949 0.85990 0.35200
C 	C 	0.95513 0.51030 0.64692 0.06200
C 	C 	0.95690 0.52130 0.68260 0.03000
H 	H 	0.94400 0.55520 0.69020 0.02100
C 	C 	0.90808 0.51875 0.62790 -0.01800
C 	C 	0.87030 0.54998 0.63986 -0.01400
H 	H 	0.87520 0.56770 0.66010 0.05700
C 	C 	0.82531 0.55544 0.62236 -0.07700
C 	C 	0.81796 0.53003 0.59200 0.02600
H 	H 	0.78780 0.53370 0.58030 0.05400
C 	C 	0.85510 0.49937 0.57901 -0.08300
C 	C 	0.89985 0.49412 0.59709 -0.01000
H 	H 	0.92500 0.47350 0.58830 0.05200
C 	C 	0.78334 0.58636 0.63782 0.35600
C 	C 	0.84680 0.46845 0.54745 0.36200
C 	C 	0.00260 0.51490 0.69955 0.00000
C 	C 	0.95330 0.49870 0.68170 -0.12100
H 	H 	0.92590 0.51200 0.69620 0.06200
Cu	Cu	0.41741 0.21393 0.50000 0.90400
Cu	Cu	0.39525 0.11686 0.50000 0.90600
Cu	Cu	0.58259 0.78607 0.50000 0.90400
Cu	Cu	0.60475 0.88314 0.50000 0.90600
Cu	Cu	0.78607 0.41741 0.50000 0.90400
Cu	Cu	0.88314 0.39525 0.50000 0.90600
Cu	Cu	0.21393 0.58259 0.50000 0.90400
Cu	Cu	0.11686 0.60475 0.50000 0.90600
Cu	Cu	0.08259 0.71393 -0.00000 0.89800
Cu	Cu	0.10475 0.61686 -0.00000 0.90000
Cu	Cu	0.91741 0.28607 -0.00000 0.89800
Cu	Cu	0.89525 0.38314 -0.00000 0.90000
Cu	Cu	0.71393 0.91741 -0.00000 0.89800
Cu	Cu	0.61686 0.89525 -0.00000 0.90000
Cu	Cu	0.28607 0.08259 -0.00000 0.89800
Cu	Cu	0.38314 0.10475 -0.00000 0.90000
C 	C 	-0.00000 0.50000 0.12966 -0.12400
H 	H 	-0.00000 0.50000 0.10590 0.07900
H 	H 	-0.00000 0.50000 0.22250 0.03200
C 	C 	0.50000 0.00000 0.12966 -0.12400
H 	H 	0.50000 0.00000 0.10590 0.07900
H 	H 	0.50000 -0.00000 0.22250 0.03200
C 	C 	0.50000 0.00000 0.37034 -0.12300
H 	H 	0.50000 -0.00000 0.39410 0.07900
H 	H 	0.50000 -0.00000 0.27750 0.03200
C 	C 	0.00000 0.50000 0.37034 -0.12300
H 	H 	0.00000 0.50000 0.39410 0.07900
H 	H 	-0.00000 0.50000 0.27750 0.03200
C 	C 	0.00000 0.50000 0.87034 -0.12300
H 	H 	0.00000 0.50000 0.89410 0.08000
H 	H 	0.00000 0.50000 0.77750 0.03200
C 	C 	0.50000 -0.00000 0.87034 -0.12300
H 	H 	0.50000 0.00000 0.89410 0.08000
H 	H 	0.50000 0.00000 0.77750 0.03200
C 	C 	0.50000 -0.00000 0.62966 -0.12300
H 	H 	0.50000 0.00000 0.60590 0.07900
H 	H 	0.50000 -0.00000 0.72250 0.03200
C 	C 	-0.00000 0.50000 0.62966 -0.12300
H 	H 	0.00000 0.50000 0.60590 0.07900
H 	H 	-0.00000 0.50000 0.72250 0.03200
C 	C 	0.19670 0.30330 0.25000 0.50700
H 	H 	0.22140 0.27860 0.25000 -0.11900
C 	C 	0.80330 0.69670 0.25000 0.50700
H 	H 	0.77860 0.72140 0.25000 -0.11900
C 	C 	0.69670 0.19670 0.25000 0.50700
H 	H 	0.72140 0.22140 0.25000 -0.11900
C 	C 	0.30330 0.80330 0.25000 0.50700
H 	H 	0.27860 0.77860 0.25000 -0.11900
C 	C 	0.80330 0.69670 0.75000 0.50700
H 	H 	0.77860 0.72140 0.75000 -0.11900
C 	C 	0.19670 0.30330 0.75000 0.50700
H 	H 	0.22140 0.27860 0.75000 -0.11900
C 	C 	0.30330 0.80330 0.75000 0.50700
H 	H 	0.27860 0.77860 0.75000 -0.11900
C 	C 	0.69670 0.19670 0.75000 0.50700
H 	H 	0.72140 0.22140 0.75000 -0.11900
