data_crystal

_cell_length_a 12.32740
_cell_length_b 24.74720
_cell_length_c 30.54130
_cell_angle_alpha 90.00000
_cell_angle_beta  90.00000
_cell_angle_gamma 98.23200

_symmetry_space_group_name_	'P 1'
_symmetry_space_group_name_H-M	'P 1'

loop_
_symmetry_equiv_pos_as_xyz
  x,y,z

loop_
_atom_site_label
_atom_site_type_symbol
_atom_site_fract_x
_atom_site_fract_y
_atom_site_fract_z
_atom_site_charge
Zn	Zn	0.42413 0.79867 0.73426 1.21400
Zn	Zn	0.62760 0.75161 0.72561 1.21400
Zn	Zn	0.21708 0.93788 0.85266 1.21300
Zn	Zn	0.69285 0.91863 0.13037 1.20200
Zn	Zn	0.07587 0.70133 0.23426 1.21300
Zn	Zn	0.87240 0.74839 0.22561 1.21300
Zn	Zn	0.28292 0.56212 0.35266 1.21200
Zn	Zn	0.80715 0.58137 0.63037 1.20100
Zn	Zn	0.57587 0.20133 0.26574 1.21300
Zn	Zn	0.37240 0.24839 0.27439 1.21300
Zn	Zn	0.78292 0.06212 0.14734 1.21200
Zn	Zn	0.30715 0.08137 0.86963 1.20100
Zn	Zn	0.92413 0.29867 0.76574 1.21300
Zn	Zn	0.12760 0.25161 0.77439 1.21300
Zn	Zn	0.71708 0.43788 0.64734 1.21200
Zn	Zn	0.19285 0.41863 0.36963 1.20100
H 	H 	0.29010 0.83830 0.80770 0.04200
H 	H 	0.36770 0.89020 0.78820 0.03700
H 	H 	0.17630 0.78750 0.70680 0.03800
H 	H 	0.17350 0.77640 0.75850 0.03900
H 	H 	0.37040 0.90860 0.70940 0.04100
H 	H 	0.29540 0.86840 0.67700 0.04100
H 	H 	0.09270 0.83570 0.80680 0.03100
H 	H 	0.03990 0.88650 0.78800 0.02800
H 	H 	0.15790 0.96530 0.75770 0.03600
H 	H 	0.28810 0.96660 0.75780 0.02700
H 	H 	0.10440 0.86570 0.67770 0.04000
H 	H 	0.04830 0.90510 0.70940 0.03700
H 	H 	0.67270 0.64660 0.69020 0.03900
H 	H 	0.74180 0.69050 0.65870 0.04100
H 	H 	0.77950 0.70570 0.78930 0.03900
H 	H 	0.69510 0.65630 0.77000 0.03900
H 	H 	0.86890 0.76490 0.68920 0.03700
H 	H 	0.88340 0.77100 0.74120 0.03700
H 	H 	0.76050 0.58210 0.73210 0.03200
H 	H 	0.89010 0.58120 0.72750 0.04100
H 	H 	0.99900 0.64970 0.67830 0.03400
H 	H 	0.93870 0.69270 0.65180 0.03800
H 	H 	0.01590 0.65670 0.75690 0.03900
H 	H 	0.97050 0.70570 0.78180 0.04000
H 	H 	0.47400 0.58350 0.75200 0.05800
H 	H 	0.46310 0.48440 0.76640 0.06200
H 	H 	0.36070 0.40000 0.77400 0.03600
H 	H 	0.07840 0.46440 0.76050 0.05500
H 	H 	0.09160 0.56540 0.74700 0.06100
H 	H 	0.19430 0.64930 0.73430 0.03900
H 	H 	0.72050 0.76000 0.86070 0.03500
H 	H 	0.76400 0.77510 0.93270 0.06700
H 	H 	0.71820 0.81100 0.00550 0.06600
H 	H 	0.44110 0.87310 0.02190 0.04700
H 	H 	0.38410 0.85140 0.95030 0.06300
H 	H 	0.43110 0.81560 0.87700 0.06800
H 	H 	0.57230 0.69840 0.59180 0.06600
H 	H 	0.57960 0.63830 0.52560 0.06200
H 	H 	0.51660 0.61220 0.45700 0.04300
H 	H 	0.28560 0.71130 0.46240 0.06300
H 	H 	0.27350 0.76750 0.52960 0.06500
H 	H 	0.33490 0.79580 0.59840 0.03900
H 	H 	0.92560 0.94990 0.84650 0.04500
H 	H 	0.73640 0.90300 0.84350 0.06700
H 	H 	0.54850 0.90510 0.84600 0.04000
H 	H 	0.59620 0.06820 0.86430 0.04700
H 	H 	0.78900 0.11620 0.87100 0.06500
H 	H 	0.97490 0.11350 0.87070 0.04100
H 	H 	0.20990 0.66170 0.30770 0.04200
H 	H 	0.13230 0.60980 0.28820 0.03700
H 	H 	0.32370 0.71250 0.20680 0.03800
H 	H 	0.32650 0.72360 0.25850 0.03900
H 	H 	0.12960 0.59140 0.20940 0.04100
H 	H 	0.20460 0.63160 0.17700 0.04100
H 	H 	0.40730 0.66430 0.30680 0.03100
H 	H 	0.46010 0.61350 0.28800 0.02700
H 	H 	0.34210 0.53470 0.25770 0.03600
H 	H 	0.21190 0.53340 0.25780 0.02700
H 	H 	0.39560 0.63430 0.17770 0.04000
H 	H 	0.45170 0.59490 0.20940 0.03600
H 	H 	0.82730 0.85340 0.19020 0.04000
H 	H 	0.75820 0.80950 0.15870 0.04100
H 	H 	0.72050 0.79430 0.28930 0.03900
H 	H 	0.80490 0.84370 0.27000 0.03900
H 	H 	0.63110 0.73510 0.18920 0.03800
H 	H 	0.61660 0.72900 0.24120 0.03700
H 	H 	0.73950 0.91790 0.23210 0.03200
H 	H 	0.60990 0.91880 0.22750 0.04100
H 	H 	0.50100 0.85030 0.17830 0.03400
H 	H 	0.56130 0.80730 0.15180 0.03800
H 	H 	0.48410 0.84330 0.25690 0.03800
H 	H 	0.52950 0.79430 0.28180 0.04000
H 	H 	0.02600 0.91650 0.25200 0.05800
H 	H 	0.03690 0.01560 0.26640 0.06200
H 	H 	0.13930 0.10000 0.27400 0.03600
H 	H 	0.42160 0.03560 0.26050 0.05500
H 	H 	0.40840 0.93460 0.24700 0.06100
H 	H 	0.30570 0.85070 0.23430 0.03900
H 	H 	0.77950 0.74000 0.36070 0.03600
H 	H 	0.73600 0.72490 0.43270 0.06700
H 	H 	0.78180 0.68900 0.50550 0.06500
H 	H 	0.05890 0.62690 0.52190 0.04700
H 	H 	0.11590 0.64860 0.45030 0.06400
H 	H 	0.06890 0.68440 0.37700 0.06900
H 	H 	0.92770 0.80160 0.09180 0.06500
H 	H 	0.92040 0.86170 0.02560 0.06100
H 	H 	0.98340 0.88780 0.95700 0.04300
H 	H 	0.21440 0.78870 0.96240 0.06300
H 	H 	0.22650 0.73250 0.02960 0.06600
H 	H 	0.16510 0.70420 0.09840 0.03900
H 	H 	0.57440 0.55010 0.34650 0.04500
H 	H 	0.76360 0.59700 0.34350 0.06700
H 	H 	0.95150 0.59490 0.34600 0.04000
H 	H 	0.90380 0.43180 0.36430 0.04700
H 	H 	0.71100 0.38380 0.37100 0.06500
H 	H 	0.52510 0.38650 0.37070 0.04200
H 	H 	0.70990 0.16170 0.19230 0.04200
H 	H 	0.63230 0.10980 0.21180 0.03700
H 	H 	0.82370 0.21250 0.29320 0.03800
H 	H 	0.82650 0.22360 0.24150 0.03900
H 	H 	0.62960 0.09140 0.29060 0.04100
H 	H 	0.70460 0.13160 0.32300 0.04100
H 	H 	0.90730 0.16430 0.19320 0.03100
H 	H 	0.96010 0.11350 0.21200 0.02800
H 	H 	0.84210 0.03470 0.24230 0.03600
H 	H 	0.71190 0.03340 0.24220 0.02700
H 	H 	0.89560 0.13430 0.32230 0.04000
H 	H 	0.95170 0.09490 0.29060 0.03700
H 	H 	0.32730 0.35340 0.30980 0.03900
H 	H 	0.25820 0.30950 0.34130 0.04100
H 	H 	0.22050 0.29430 0.21070 0.03900
H 	H 	0.30490 0.34370 0.23000 0.03900
H 	H 	0.13110 0.23510 0.31080 0.03700
H 	H 	0.11660 0.22900 0.25880 0.03700
H 	H 	0.23950 0.41790 0.26790 0.03200
H 	H 	0.10990 0.41880 0.27250 0.04100
H 	H 	0.00100 0.35030 0.32170 0.03400
H 	H 	0.06130 0.30730 0.34820 0.03800
H 	H 	0.98410 0.34330 0.24310 0.03900
H 	H 	0.02950 0.29430 0.21820 0.04000
H 	H 	0.52600 0.41650 0.24800 0.05800
H 	H 	0.53690 0.51560 0.23360 0.06200
H 	H 	0.63930 0.60000 0.22600 0.03600
H 	H 	0.92160 0.53560 0.23950 0.05500
H 	H 	0.90840 0.43460 0.25300 0.06100
H 	H 	0.80570 0.35070 0.26570 0.03900
H 	H 	0.27950 0.24000 0.13930 0.03500
H 	H 	0.23600 0.22490 0.06730 0.06700
H 	H 	0.28180 0.18900 0.99450 0.06600
H 	H 	0.55890 0.12690 0.97810 0.04700
H 	H 	0.61590 0.14860 0.04970 0.06300
H 	H 	0.56890 0.18440 0.12300 0.06800
H 	H 	0.42770 0.30160 0.40820 0.06600
H 	H 	0.42040 0.36170 0.47440 0.06200
H 	H 	0.48340 0.38780 0.54300 0.04300
H 	H 	0.71440 0.28870 0.53760 0.06300
H 	H 	0.72650 0.23250 0.47040 0.06500
H 	H 	0.66510 0.20420 0.40160 0.03900
H 	H 	0.07440 0.05010 0.15350 0.04500
H 	H 	0.26360 0.09700 0.15650 0.06700
H 	H 	0.45150 0.09490 0.15400 0.04000
H 	H 	0.40380 0.93180 0.13570 0.04700
H 	H 	0.21100 0.88380 0.12900 0.06500
H 	H 	0.02510 0.88650 0.12930 0.04100
H 	H 	0.79010 0.33830 0.69230 0.04200
H 	H 	0.86770 0.39020 0.71180 0.03700
H 	H 	0.67630 0.28750 0.79320 0.03800
H 	H 	0.67350 0.27640 0.74150 0.03900
H 	H 	0.87040 0.40860 0.79060 0.04100
H 	H 	0.79540 0.36840 0.82300 0.04100
H 	H 	0.59270 0.33570 0.69320 0.03100
H 	H 	0.53990 0.38650 0.71200 0.02700
H 	H 	0.65790 0.46530 0.74230 0.03600
H 	H 	0.78810 0.46660 0.74220 0.02700
H 	H 	0.60440 0.36570 0.82230 0.04000
H 	H 	0.54830 0.40510 0.79060 0.03600
H 	H 	0.17270 0.14660 0.80980 0.04000
H 	H 	0.24180 0.19050 0.84130 0.04100
H 	H 	0.27950 0.20570 0.71070 0.03900
H 	H 	0.19510 0.15630 0.73000 0.03900
H 	H 	0.36890 0.26490 0.81080 0.03800
H 	H 	0.38340 0.27100 0.75880 0.03700
H 	H 	0.26050 0.08210 0.76790 0.03200
H 	H 	0.39010 0.08120 0.77250 0.04100
H 	H 	0.49900 0.14970 0.82170 0.03400
H 	H 	0.43870 0.19270 0.84820 0.03800
H 	H 	0.51590 0.15670 0.74310 0.03800
H 	H 	0.47050 0.20570 0.71820 0.04000
H 	H 	0.97400 0.08350 0.74800 0.05800
H 	H 	0.96310 0.98440 0.73360 0.06200
H 	H 	0.86070 0.90000 0.72600 0.03600
H 	H 	0.57840 0.96440 0.73950 0.05500
H 	H 	0.59160 0.06540 0.75300 0.06100
H 	H 	0.69430 0.14930 0.76570 0.03900
H 	H 	0.22050 0.26000 0.63930 0.03600
H 	H 	0.26400 0.27510 0.56730 0.06700
H 	H 	0.21820 0.31100 0.49450 0.06500
H 	H 	0.94110 0.37310 0.47810 0.04700
H 	H 	0.88410 0.35140 0.54970 0.06400
H 	H 	0.93110 0.31560 0.62300 0.06900
H 	H 	0.07230 0.19840 0.90820 0.06500
H 	H 	0.07960 0.13830 0.97440 0.06100
H 	H 	0.01660 0.11220 0.04300 0.04300
H 	H 	0.78560 0.21130 0.03760 0.06300
H 	H 	0.77350 0.26750 0.97040 0.06600
H 	H 	0.83490 0.29580 0.90160 0.03900
H 	H 	0.42560 0.44990 0.65350 0.04500
H 	H 	0.23640 0.40300 0.65650 0.06700
H 	H 	0.04850 0.40510 0.65400 0.04000
H 	H 	0.09620 0.56820 0.63570 0.04700
H 	H 	0.28900 0.61620 0.62900 0.06500
H 	H 	0.47490 0.61350 0.62930 0.04200
C 	C 	0.29600 0.86680 0.78470 -0.04200
C 	C 	0.18140 0.80530 0.73590 -0.01600
C 	C 	0.29890 0.88490 0.70650 -0.02400
C 	C 	0.10060 0.86460 0.78420 -0.01000
C 	C 	0.21720 0.94250 0.75470 -0.01500
C 	C 	0.10860 0.88270 0.70710 0.00400
C 	C 	0.74390 0.67030 0.68660 -0.04100
C 	C 	0.76630 0.67950 0.76480 -0.01600
C 	C 	0.86980 0.74430 0.71700 -0.01300
C 	C 	0.83220 0.60520 0.72790 -0.02400
C 	C 	0.93890 0.67230 0.67960 -0.01500
C 	C 	0.95650 0.67970 0.75720 0.00000
C 	C 	0.41050 0.68020 0.73780 0.36800
C 	C 	0.34440 0.62480 0.74420 -0.07800
C 	C 	0.39620 0.57940 0.75140 -0.03400
C 	C 	0.33670 0.52840 0.75760 0.03100
C 	C 	0.38550 0.48120 0.76480 -0.08800
C 	C 	0.32510 0.43120 0.76970 0.01800
C 	C 	0.21000 0.42550 0.76830 -0.08400
C 	C 	0.15620 0.46900 0.76170 -0.02700
C 	C 	0.22000 0.52290 0.75620 0.02500
C 	C 	0.16930 0.56890 0.74790 -0.08200
C 	C 	0.22970 0.61870 0.74110 0.01400
C 	C 	0.14340 0.36930 0.77280 0.37900
C 	C 	0.55130 0.78110 0.81360 0.37500
C 	C 	0.57110 0.78720 0.86170 -0.09000
C 	C 	0.67060 0.77490 0.87930 0.02400
C 	C 	0.69660 0.78400 0.92180 -0.09800
C 	C 	0.62450 0.80670 0.95030 0.03900
C 	C 	0.65110 0.81950 0.99390 -0.06100
C 	C 	0.58250 0.84390 0.02030 -0.04800
C 	C 	0.48760 0.85570 0.00340 -0.01000
C 	C 	0.45340 0.84390 0.96030 -0.07400
C 	C 	0.52500 0.82040 0.93200 0.01900
C 	C 	0.49950 0.80860 0.88830 -0.02900
C 	C 	0.62120 0.86110 0.06590 0.27900
C 	C 	0.49270 0.76500 0.64820 0.38500
C 	C 	0.45870 0.74850 0.60170 -0.08200
C 	C 	0.51160 0.71220 0.57890 -0.03400
C 	C 	0.47690 0.69530 0.53700 0.02100
C 	C 	0.52170 0.65470 0.51310 -0.07900
C 	C 	0.48330 0.63870 0.47260 -0.00300
C 	C 	0.39700 0.66020 0.45390 -0.05400
C 	C 	0.34630 0.69760 0.47520 -0.05600
C 	C 	0.38610 0.71600 0.51770 0.03400
C 	C 	0.33440 0.75340 0.54190 -0.09000
C 	C 	0.37000 0.77000 0.58280 0.01700
C 	C 	0.34270 0.63940 0.40940 0.33000
C 	C 	0.08820 0.03170 0.85270 0.39200
C 	C 	0.96680 0.03020 0.85670 -0.10100
C 	C 	0.89740 0.98300 0.85180 -0.02300
C 	C 	0.77730 0.98310 0.85460 0.02900
C 	C 	0.70870 0.93640 0.84840 -0.09200
C 	C 	0.59800 0.93800 0.84920 0.02800
C 	C 	0.55570 0.98930 0.85490 -0.11100
C 	C 	0.62430 0.03470 0.86070 -0.01400
C 	C 	0.74620 0.03450 0.86160 0.02000
C 	C 	0.81660 0.08260 0.86670 -0.08500
C 	C 	0.92510 0.08110 0.86560 0.02200
C 	C 	0.43640 0.98890 0.85170 0.38700
C 	C 	0.20400 0.63320 0.28470 -0.04200
C 	C 	0.31860 0.69470 0.23590 -0.01600
C 	C 	0.20110 0.61510 0.20650 -0.02300
C 	C 	0.39940 0.63540 0.28420 -0.01000
C 	C 	0.28280 0.55750 0.25470 -0.01500
C 	C 	0.39140 0.61730 0.20710 0.00500
C 	C 	0.75610 0.82970 0.18660 -0.04100
C 	C 	0.73370 0.82050 0.26480 -0.01600
C 	C 	0.63020 0.75570 0.21700 -0.01300
C 	C 	0.66780 0.89480 0.22790 -0.02400
C 	C 	0.56110 0.82770 0.17960 -0.01500
C 	C 	0.54350 0.82030 0.25720 0.00200
C 	C 	0.08950 0.81980 0.23780 0.36700
C 	C 	0.15560 0.87520 0.24420 -0.07800
C 	C 	0.10380 0.92060 0.25140 -0.03500
C 	C 	0.16330 0.97160 0.25760 0.03100
C 	C 	0.11450 0.01880 0.26480 -0.08800
C 	C 	0.17490 0.06880 0.26970 0.01800
C 	C 	0.29000 0.07450 0.26830 -0.08500
C 	C 	0.34380 0.03100 0.26170 -0.02700
C 	C 	0.28000 0.97710 0.25620 0.02400
C 	C 	0.33070 0.93110 0.24790 -0.08200
C 	C 	0.27030 0.88130 0.24110 0.01300
C 	C 	0.35660 0.13070 0.27280 0.38000
C 	C 	0.94870 0.71890 0.31360 0.37500
C 	C 	0.92890 0.71280 0.36170 -0.08900
C 	C 	0.82940 0.72510 0.37930 0.02300
C 	C 	0.80340 0.71600 0.42180 -0.09600
C 	C 	0.87550 0.69330 0.45030 0.03800
C 	C 	0.84890 0.68050 0.49390 -0.05900
C 	C 	0.91750 0.65610 0.52030 -0.04900
C 	C 	0.01240 0.64430 0.50340 -0.00800
C 	C 	0.04660 0.65610 0.46030 -0.07600
C 	C 	0.97500 0.67960 0.43200 0.02200
C 	C 	0.00050 0.69140 0.38830 -0.03100
C 	C 	0.87880 0.63890 0.56590 0.28000
C 	C 	0.00730 0.73500 0.14820 0.38400
C 	C 	0.04130 0.75150 0.10170 -0.08400
C 	C 	0.98840 0.78780 0.07890 -0.03000
C 	C 	0.02310 0.80470 0.03700 0.01800
C 	C 	0.97830 0.84530 0.01310 -0.07700
C 	C 	0.01670 0.86130 0.97260 -0.00300
C 	C 	0.10300 0.83980 0.95390 -0.05400
C 	C 	0.15370 0.80240 0.97520 -0.05600
C 	C 	0.11390 0.78400 0.01770 0.03500
C 	C 	0.16560 0.74660 0.04190 -0.09100
C 	C 	0.13000 0.73000 0.08280 0.01900
C 	C 	0.15730 0.86060 0.90940 0.33000
C 	C 	0.41180 0.46830 0.35270 0.39100
C 	C 	0.53320 0.46980 0.35670 -0.10000
C 	C 	0.60260 0.51700 0.35180 -0.02300
C 	C 	0.72270 0.51690 0.35460 0.03000
C 	C 	0.79130 0.56360 0.34840 -0.09200
C 	C 	0.90200 0.56200 0.34920 0.02700
C 	C 	0.94430 0.51070 0.35490 -0.11000
C 	C 	0.87570 0.46530 0.36070 -0.01400
C 	C 	0.75380 0.46550 0.36160 0.02000
C 	C 	0.68340 0.41740 0.36670 -0.08500
C 	C 	0.57490 0.41890 0.36560 0.02100
C 	C 	0.06360 0.51110 0.35170 0.38600
C 	C 	0.70400 0.13320 0.21530 -0.04200
C 	C 	0.81860 0.19470 0.26410 -0.01600
C 	C 	0.70110 0.11510 0.29350 -0.02400
C 	C 	0.89940 0.13540 0.21580 -0.01000
C 	C 	0.78280 0.05750 0.24530 -0.01500
C 	C 	0.89140 0.11730 0.29290 0.00400
C 	C 	0.25610 0.32970 0.31340 -0.04100
C 	C 	0.23370 0.32050 0.23520 -0.01600
C 	C 	0.13020 0.25570 0.28300 -0.01300
C 	C 	0.16780 0.39480 0.27210 -0.02400
C 	C 	0.06110 0.32770 0.32040 -0.01500
C 	C 	0.04350 0.32030 0.24280 0.00000
C 	C 	0.58950 0.31980 0.26220 0.36800
C 	C 	0.65560 0.37520 0.25580 -0.07800
C 	C 	0.60380 0.42060 0.24860 -0.03400
C 	C 	0.66330 0.47160 0.24240 0.03100
C 	C 	0.61450 0.51880 0.23520 -0.08800
C 	C 	0.67490 0.56880 0.23030 0.01800
C 	C 	0.79000 0.57450 0.23170 -0.08400
C 	C 	0.84380 0.53100 0.23830 -0.02700
C 	C 	0.78000 0.47710 0.24380 0.02500
C 	C 	0.83070 0.43110 0.25210 -0.08200
C 	C 	0.77030 0.38130 0.25890 0.01400
C 	C 	0.85660 0.63070 0.22720 0.37900
C 	C 	0.44870 0.21890 0.18640 0.37500
C 	C 	0.42890 0.21280 0.13830 -0.09000
C 	C 	0.32940 0.22510 0.12070 0.02400
C 	C 	0.30340 0.21600 0.07820 -0.09800
C 	C 	0.37550 0.19330 0.04970 0.03900
C 	C 	0.34890 0.18050 0.00610 -0.06100
C 	C 	0.41750 0.15610 0.97970 -0.04800
C 	C 	0.51240 0.14430 0.99660 -0.01000
C 	C 	0.54660 0.15610 0.03970 -0.07400
C 	C 	0.47500 0.17960 0.06800 0.01900
C 	C 	0.50050 0.19140 0.11170 -0.02900
C 	C 	0.37880 0.13890 0.93410 0.27900
C 	C 	0.50730 0.23500 0.35180 0.38500
C 	C 	0.54130 0.25150 0.39830 -0.08200
C 	C 	0.48840 0.28780 0.42110 -0.03400
C 	C 	0.52310 0.30470 0.46300 0.02100
C 	C 	0.47830 0.34530 0.48690 -0.07900
C 	C 	0.51670 0.36130 0.52740 -0.00300
C 	C 	0.60300 0.33980 0.54610 -0.05400
C 	C 	0.65370 0.30240 0.52480 -0.05600
C 	C 	0.61390 0.28400 0.48230 0.03400
C 	C 	0.66560 0.24660 0.45810 -0.09000
C 	C 	0.63000 0.23000 0.41720 0.01700
C 	C 	0.65730 0.36060 0.59060 0.33000
C 	C 	0.91180 0.96830 0.14730 0.39200
C 	C 	0.03320 0.96980 0.14330 -0.10100
C 	C 	0.10260 0.01700 0.14820 -0.02300
C 	C 	0.22270 0.01690 0.14540 0.02900
C 	C 	0.29130 0.06360 0.15160 -0.09200
C 	C 	0.40200 0.06200 0.15080 0.02800
C 	C 	0.44430 0.01070 0.14510 -0.11100
C 	C 	0.37570 0.96530 0.13930 -0.01400
C 	C 	0.25380 0.96550 0.13840 0.02000
C 	C 	0.18340 0.91740 0.13330 -0.08500
C 	C 	0.07490 0.91890 0.13440 0.02200
C 	C 	0.56360 0.01110 0.14830 0.38700
C 	C 	0.79600 0.36680 0.71530 -0.04200
C 	C 	0.68140 0.30530 0.76410 -0.01600
C 	C 	0.79890 0.38490 0.79350 -0.02300
C 	C 	0.60060 0.36460 0.71580 -0.01000
C 	C 	0.71720 0.44250 0.74530 -0.01500
C 	C 	0.60860 0.38270 0.79290 0.00500
C 	C 	0.24390 0.17030 0.81340 -0.04100
C 	C 	0.26630 0.17950 0.73520 -0.01600
C 	C 	0.36980 0.24430 0.78300 -0.01300
C 	C 	0.33220 0.10520 0.77210 -0.02400
C 	C 	0.43890 0.17230 0.82040 -0.01500
C 	C 	0.45650 0.17970 0.74280 0.00200
C 	C 	0.91050 0.18020 0.76220 0.36700
C 	C 	0.84440 0.12480 0.75580 -0.07800
C 	C 	0.89620 0.07940 0.74860 -0.03500
C 	C 	0.83670 0.02840 0.74240 0.03100
C 	C 	0.88550 0.98120 0.73520 -0.08800
C 	C 	0.82510 0.93120 0.73030 0.01800
C 	C 	0.71000 0.92550 0.73170 -0.08500
C 	C 	0.65620 0.96900 0.73830 -0.02700
C 	C 	0.72000 0.02290 0.74380 0.02400
C 	C 	0.66930 0.06890 0.75210 -0.08200
C 	C 	0.72970 0.11870 0.75890 0.01300
C 	C 	0.64340 0.86930 0.72720 0.38000
C 	C 	0.05130 0.28110 0.68640 0.37500
C 	C 	0.07110 0.28720 0.63830 -0.08900
C 	C 	0.17060 0.27490 0.62070 0.02300
C 	C 	0.19660 0.28400 0.57820 -0.09600
C 	C 	0.12450 0.30670 0.54970 0.03800
C 	C 	0.15110 0.31950 0.50610 -0.05900
C 	C 	0.08250 0.34390 0.47970 -0.04900
C 	C 	0.98760 0.35570 0.49660 -0.00800
C 	C 	0.95340 0.34390 0.53970 -0.07600
C 	C 	0.02500 0.32040 0.56800 0.02200
C 	C 	0.99950 0.30860 0.61170 -0.03100
C 	C 	0.12120 0.36110 0.43410 0.28000
C 	C 	0.99270 0.26500 0.85180 0.38400
C 	C 	0.95870 0.24850 0.89830 -0.08400
C 	C 	0.01160 0.21220 0.92110 -0.03000
C 	C 	0.97690 0.19530 0.96300 0.01800
C 	C 	0.02170 0.15470 0.98690 -0.07700
C 	C 	0.98330 0.13870 0.02740 -0.00300
C 	C 	0.89700 0.16020 0.04610 -0.05400
C 	C 	0.84630 0.19760 0.02480 -0.05600
C 	C 	0.88610 0.21600 0.98230 0.03500
C 	C 	0.83440 0.25340 0.95810 -0.09100
C 	C 	0.87000 0.27000 0.91720 0.01900
C 	C 	0.84270 0.13940 0.09060 0.33000
C 	C 	0.58820 0.53170 0.64730 0.39100
C 	C 	0.46680 0.53020 0.64330 -0.10000
C 	C 	0.39740 0.48300 0.64820 -0.02300
C 	C 	0.27730 0.48310 0.64540 0.03000
C 	C 	0.20870 0.43640 0.65160 -0.09200
C 	C 	0.09800 0.43800 0.65080 0.02700
C 	C 	0.05570 0.48930 0.64510 -0.11000
C 	C 	0.12430 0.53470 0.63930 -0.01400
C 	C 	0.24620 0.53450 0.63840 0.02000
C 	C 	0.31660 0.58260 0.63330 -0.08500
C 	C 	0.42510 0.58110 0.63440 0.02100
C 	C 	0.93640 0.48890 0.64830 0.38600
N 	N 	0.29110 0.84030 0.74060 -0.19900
N 	N 	0.20660 0.90050 0.79040 -0.20000
N 	N 	0.09220 0.83920 0.74070 -0.09600
N 	N 	0.21130 0.91780 0.71120 -0.09500
N 	N 	0.76070 0.70960 0.72350 -0.20100
N 	N 	0.83270 0.63630 0.68490 -0.19000
N 	N 	0.85260 0.64550 0.76390 -0.09300
N 	N 	0.95850 0.71050 0.71560 -0.09500
N 	N 	0.20890 0.65970 0.24060 -0.20000
N 	N 	0.29340 0.59950 0.29040 -0.20000
N 	N 	0.40780 0.66080 0.24070 -0.09600
N 	N 	0.28870 0.58220 0.21120 -0.09500
N 	N 	0.73930 0.79040 0.22350 -0.20100
N 	N 	0.66730 0.86370 0.18490 -0.19000
N 	N 	0.64740 0.85450 0.26390 -0.09300
N 	N 	0.54150 0.78950 0.21560 -0.09500
N 	N 	0.70890 0.15970 0.25940 -0.19900
N 	N 	0.79340 0.09950 0.20960 -0.20000
N 	N 	0.90780 0.16080 0.25930 -0.09600
N 	N 	0.78870 0.08220 0.28880 -0.09500
N 	N 	0.23930 0.29040 0.27650 -0.20100
N 	N 	0.16730 0.36370 0.31510 -0.19000
N 	N 	0.14740 0.35450 0.23610 -0.09300
N 	N 	0.04150 0.28950 0.28440 -0.09500
N 	N 	0.79110 0.34030 0.75940 -0.20000
N 	N 	0.70660 0.40050 0.70960 -0.20000
N 	N 	0.59220 0.33920 0.75930 -0.09600
N 	N 	0.71130 0.41780 0.78880 -0.09500
N 	N 	0.26070 0.20960 0.77650 -0.20100
N 	N 	0.33270 0.13630 0.81510 -0.19000
N 	N 	0.35260 0.14550 0.73610 -0.09300
N 	N 	0.45850 0.21050 0.78440 -0.09500
O 	O 	0.51350 0.68370 0.73840 -0.45100
O 	O 	0.35700 0.71990 0.73240 -0.46000
O 	O 	0.04140 0.36490 0.76500 -0.46600
O 	O 	0.19300 0.33110 0.78400 -0.45800
O 	O 	0.62860 0.76800 0.79020 -0.46500
O 	O 	0.45920 0.78890 0.79925 -0.45100
O 	O 	0.55940 0.88710 0.08740 -0.40100
O 	O 	0.70510 0.84640 0.08060 -0.35700
O 	O 	0.57430 0.74580 0.66300 -0.46500
O 	O 	0.43710 0.79550 0.66770 -0.46500
O 	O 	0.27890 0.66320 0.39120 -0.33200
O 	O 	0.37750 0.59600 0.39690 -0.47800
O 	O 	0.14500 0.07350 0.86700 -0.49400
O 	O 	0.12470 0.99260 0.83400 -0.51300
O 	O 	0.37680 0.94370 0.85880 -0.49000
O 	O 	0.39840 0.03120 0.84080 -0.51900
O 	O 	0.98650 0.81630 0.23840 -0.45000
O 	O 	0.14300 0.78010 0.23240 -0.46000
O 	O 	0.45860 0.13510 0.26500 -0.46600
O 	O 	0.30700 0.16890 0.28400 -0.45800
O 	O 	0.87140 0.73200 0.29020 -0.46500
O 	O 	0.04080 0.71110 0.29925 -0.45200
O 	O 	0.94060 0.61290 0.58740 -0.40100
O 	O 	0.79490 0.65360 0.58060 -0.35700
O 	O 	0.92570 0.75420 0.16300 -0.46400
O 	O 	0.06290 0.70450 0.16770 -0.46500
O 	O 	0.22110 0.83680 0.89120 -0.33100
O 	O 	0.12250 0.90400 0.89690 -0.47700
O 	O 	0.35500 0.42650 0.36700 -0.49400
O 	O 	0.37530 0.50740 0.33400 -0.51300
O 	O 	0.12320 0.55630 0.35880 -0.49000
O 	O 	0.10160 0.46880 0.34080 -0.51900
O 	O 	0.48650 0.31630 0.26160 -0.45100
O 	O 	0.64300 0.28010 0.26760 -0.46000
O 	O 	0.95860 0.63510 0.23500 -0.46600
O 	O 	0.80700 0.66890 0.21600 -0.45800
O 	O 	0.37140 0.23200 0.20980 -0.46500
O 	O 	0.54080 0.21110 0.20075 -0.45100
O 	O 	0.44060 0.11290 0.91260 -0.40100
O 	O 	0.29490 0.15360 0.91940 -0.35700
O 	O 	0.42570 0.25420 0.33700 -0.46500
O 	O 	0.56290 0.20450 0.33230 -0.46500
O 	O 	0.72110 0.33680 0.60880 -0.33200
O 	O 	0.62250 0.40400 0.60310 -0.47800
O 	O 	0.85500 0.92650 0.13300 -0.49400
O 	O 	0.87530 0.00740 0.16600 -0.51300
O 	O 	0.62320 0.05630 0.14120 -0.49000
O 	O 	0.60160 0.96880 0.15920 -0.51900
O 	O 	0.01350 0.18370 0.76160 -0.45000
O 	O 	0.85700 0.21990 0.76760 -0.46000
O 	O 	0.54140 0.86490 0.73500 -0.46600
O 	O 	0.69300 0.83110 0.71600 -0.45800
O 	O 	0.12860 0.26800 0.70980 -0.46500
O 	O 	0.95920 0.28890 0.70075 -0.45200
O 	O 	0.05940 0.38710 0.41260 -0.40100
O 	O 	0.20510 0.34640 0.41940 -0.35700
O 	O 	0.07430 0.24580 0.83700 -0.46400
O 	O 	0.93710 0.29550 0.83230 -0.46500
O 	O 	0.77890 0.16320 0.10880 -0.33100
O 	O 	0.87750 0.09600 0.10310 -0.47700
O 	O 	0.64500 0.57350 0.63300 -0.49400
O 	O 	0.62470 0.49260 0.66600 -0.51300
O 	O 	0.87680 0.44370 0.64120 -0.49000
O 	O 	0.89840 0.53120 0.65920 -0.51900
