data_crystal

_cell_length_a 11.54000
_cell_length_b 16.77800
_cell_length_c 28.46800
_cell_angle_alpha 90.00000
_cell_angle_beta  90.00000
_cell_angle_gamma 90.00000

_symmetry_space_group_name_	'P 1'
_symmetry_space_group_name_H-M	'P 1'

loop_
_symmetry_equiv_pos_as_xyz
  x,y,z

loop_
_atom_site_label
_atom_site_type_symbol
_atom_site_fract_x
_atom_site_fract_y
_atom_site_fract_z
_atom_site_charge
Cu	Cu	0.17010 0.73500 0.37330 0.92500
Cu	Cu	0.41610 0.25650 0.19566 0.88300
Cu	Cu	0.13480 0.26820 0.20140 0.91500
C 	C 	0.26490 0.30860 0.50624 -0.02000
C 	C 	0.26410 0.31210 0.55518 -0.02200
C 	C 	0.26340 0.24200 0.58143 -0.02600
C 	C 	0.26340 0.16830 0.55877 -0.02000
C 	C 	0.26410 0.16480 0.50985 -0.02100
C 	C 	0.26490 0.23490 0.48355 -0.02300
C 	C 	0.26610 0.23150 0.43006 0.06800
C 	C 	0.36660 0.25720 0.40757 -0.11900
H 	H 	0.43130 0.27440 0.42560 0.07000
C 	C 	0.37220 0.25790 0.35864 0.04700
H 	H 	0.44070 0.27530 0.34330 0.02100
C 	C 	0.27650 0.23290 0.33221 -0.11800
C 	C 	0.17690 0.20660 0.35474 0.03400
H 	H 	0.11240 0.18900 0.33680 0.03300
C 	C 	0.17130 0.20590 0.40367 -0.11100
H 	H 	0.10290 0.18810 0.41900 0.06600
C 	C 	0.25850 0.08940 0.48359 0.05700
C 	C 	0.35760 0.07250 0.45794 -0.09900
H 	H 	0.42370 0.10590 0.46070 0.06300
C 	C 	0.36060 0.00660 0.42810 0.02100
H 	H 	0.42850 0.99540 0.41050 0.03600
C 	C 	0.26430 0.95730 0.42420 -0.07800
C 	C 	0.16320 0.97480 0.44930 0.01300
H 	H 	0.09670 0.94190 0.44600 0.03900
C 	C 	0.16030 0.04080 0.47914 -0.09700
H 	H 	0.09200 0.05270 0.49640 0.06000
C 	C 	0.25600 0.08850 0.58670 0.06400
C 	C 	0.35790 0.04480 0.59200 -0.11000
H 	H 	0.42840 0.06410 0.57900 0.06700
C 	C 	0.35640 0.97270 0.61640 0.04200
H 	H 	0.42590 0.94290 0.62000 0.03400
C 	C 	0.25300 0.94430 0.63540 -0.11400
C 	C 	0.15110 0.98800 0.63010 0.03900
H 	H 	0.08070 0.96870 0.64310 0.03300
C 	C 	0.15260 0.06010 0.60576 -0.11100
H 	H 	0.08320 0.08990 0.60210 0.06900
C 	C 	0.28380 0.24210 0.63556 0.08300
C 	C 	0.39410 0.22540 0.65325 -0.13200
H 	H 	0.45580 0.21280 0.63250 0.07600
C 	C 	0.41300 0.22750 0.70161 0.06600
H 	H 	0.48740 0.21560 0.71400 0.00300
C 	C 	0.31830 0.24810 0.73281 -0.15200
C 	C 	0.21270 0.26370 0.71398 0.08300
H 	H 	0.15000 0.27640 0.73430 0.00200
C 	C 	0.19380 0.26160 0.66561 -0.14100
H 	H 	0.11930 0.27360 0.65330 0.08000
C 	C 	0.27510 0.39130 0.58060 0.06900
C 	C 	0.38030 0.42700 0.59401 -0.11300
H 	H 	0.45170 0.40020 0.58880 0.06800
C 	C 	0.37900 0.50210 0.61500 0.04400
H 	H 	0.44970 0.52660 0.62430 0.03400
C 	C 	0.27380 0.54150 0.62250 -0.12500
C 	C 	0.17030 0.50540 0.60880 0.04700
H 	H 	0.09870 0.53200 0.61380 0.02900
C 	C 	0.17160 0.43030 0.58779 -0.11600
H 	H 	0.10100 0.40610 0.57840 0.06900
C 	C 	0.26740 0.38610 0.48344 0.05600
C 	C 	0.36920 0.43080 0.47917 -0.09600
H 	H 	0.43700 0.41510 0.49570 0.05900
C 	C 	0.37110 0.49850 0.45070 0.01400
H 	H 	0.44040 0.52850 0.44760 0.03800
C 	C 	0.27180 0.52190 0.42700 -0.07300
C 	C 	0.16960 0.47770 0.43137 0.01100
H 	H 	0.10170 0.49380 0.41500 0.03500
C 	C 	0.16760 0.41010 0.45983 -0.09600
H 	H 	0.09810 0.38040 0.46310 0.06100
C 	C 	0.26770 0.22580 0.27962 0.36400
O 	O 	0.36350 0.25030 0.26050 -0.42700
O 	O 	0.17790 0.21210 0.25805 -0.42400
C 	C 	0.26130 0.88090 0.39060 0.34000
O 	O 	0.36090 0.87370 0.37000 -0.28100
O 	O 	0.17330 0.84310 0.38690 -0.43000
C 	C 	0.24270 0.86730 0.66240 0.37500
O 	O 	0.33690 0.82380 0.66180 -0.39000
O 	O 	0.14930 0.84320 0.67690 -0.44000
C 	C 	0.34450 0.25900 0.78230 0.37100
O 	O 	0.44980 0.25170 0.79824 -0.39600
O 	O 	0.26250 0.26310 0.80954 -0.39500
C 	C 	0.27270 0.61910 0.64580 0.35300
O 	O 	0.37120 0.65690 0.64890 -0.39100
O 	O 	0.18220 0.64840 0.66040 -0.42200
C 	C 	0.25870 0.60360 0.39960 0.30000
O 	O 	0.34640 0.65110 0.40760 -0.29000
O 	O 	0.17400 0.62400 0.37710 -0.40700
Cu	Cu	0.32990 0.26500 0.87330 0.92400
Cu	Cu	0.08390 0.74350 0.69566 0.88200
Cu	Cu	0.36520 0.73180 0.70140 0.91400
C 	C 	0.23510 0.69140 0.00624 -0.02000
C 	C 	0.23590 0.68790 0.05518 -0.02200
C 	C 	0.23660 0.75800 0.08143 -0.02600
C 	C 	0.23660 0.83170 0.05877 -0.02000
C 	C 	0.23590 0.83520 0.00985 -0.02100
C 	C 	0.23510 0.76510 0.98355 -0.02200
C 	C 	0.23390 0.76850 0.93006 0.06800
C 	C 	0.13340 0.74280 0.90757 -0.11900
H 	H 	0.06870 0.72560 0.92560 0.07000
C 	C 	0.12780 0.74210 0.85864 0.04700
H 	H 	0.05930 0.72470 0.84330 0.02100
C 	C 	0.22350 0.76710 0.83221 -0.11800
C 	C 	0.32310 0.79340 0.85474 0.03400
H 	H 	0.38760 0.81100 0.83680 0.03300
C 	C 	0.32870 0.79410 0.90367 -0.11100
H 	H 	0.39710 0.81190 0.91900 0.06600
C 	C 	0.24150 0.91060 0.98359 0.05700
C 	C 	0.14240 0.92750 0.95794 -0.09900
H 	H 	0.07630 0.89410 0.96070 0.06300
C 	C 	0.13940 0.99340 0.92810 0.02100
H 	H 	0.07150 0.00460 0.91050 0.03600
C 	C 	0.23570 0.04270 0.92420 -0.07800
C 	C 	0.33680 0.02520 0.94930 0.01300
H 	H 	0.40330 0.05810 0.94600 0.03900
C 	C 	0.33970 0.95920 0.97914 -0.09700
H 	H 	0.40800 0.94730 0.99640 0.06000
C 	C 	0.24400 0.91150 0.08670 0.06400
C 	C 	0.14210 0.95520 0.09200 -0.11100
H 	H 	0.07160 0.93590 0.07900 0.06700
C 	C 	0.14360 0.02730 0.11640 0.04300
H 	H 	0.07410 0.05710 0.12000 0.03300
C 	C 	0.24700 0.05570 0.13540 -0.11400
C 	C 	0.34890 0.01200 0.13010 0.04000
H 	H 	0.41930 0.03130 0.14310 0.03200
C 	C 	0.34740 0.93990 0.10576 -0.11200
H 	H 	0.41680 0.91010 0.10210 0.06900
C 	C 	0.21620 0.75790 0.13556 0.08300
C 	C 	0.10590 0.77460 0.15325 -0.13200
H 	H 	0.04420 0.78720 0.13250 0.07600
C 	C 	0.08700 0.77250 0.20161 0.06600
H 	H 	0.01260 0.78440 0.21400 0.00300
C 	C 	0.18170 0.75190 0.23281 -0.15300
C 	C 	0.28730 0.73630 0.21398 0.08300
H 	H 	0.35000 0.72360 0.23430 0.00200
C 	C 	0.30620 0.73840 0.16561 -0.14100
H 	H 	0.38070 0.72640 0.15330 0.08000
C 	C 	0.22490 0.60870 0.08060 0.06900
C 	C 	0.11970 0.57300 0.09401 -0.11300
H 	H 	0.04830 0.59980 0.08880 0.06800
C 	C 	0.12100 0.49790 0.11500 0.04400
H 	H 	0.05030 0.47340 0.12430 0.03400
C 	C 	0.22620 0.45850 0.12250 -0.12500
C 	C 	0.32970 0.49460 0.10880 0.04700
H 	H 	0.40130 0.46800 0.11380 0.02900
C 	C 	0.32840 0.56970 0.08779 -0.11600
H 	H 	0.39900 0.59390 0.07840 0.06900
C 	C 	0.23260 0.61390 0.98344 0.05600
C 	C 	0.13080 0.56920 0.97917 -0.09600
H 	H 	0.06300 0.58490 0.99570 0.05900
C 	C 	0.12890 0.50150 0.95070 0.01400
H 	H 	0.05960 0.47150 0.94760 0.03800
C 	C 	0.22820 0.47810 0.92700 -0.07300
C 	C 	0.33040 0.52230 0.93137 0.01100
H 	H 	0.39830 0.50620 0.91500 0.03500
C 	C 	0.33240 0.58990 0.95983 -0.09600
H 	H 	0.40190 0.61960 0.96310 0.06100
C 	C 	0.23230 0.77420 0.77962 0.36400
O 	O 	0.13650 0.74970 0.76050 -0.42700
O 	O 	0.32210 0.78790 0.75805 -0.42400
C 	C 	0.23870 0.11910 0.89060 0.34000
O 	O 	0.13910 0.12630 0.87000 -0.28000
O 	O 	0.32670 0.15690 0.88690 -0.43000
C 	C 	0.25730 0.13270 0.16240 0.37500
O 	O 	0.16310 0.17620 0.16180 -0.39000
O 	O 	0.35070 0.15680 0.17690 -0.44000
C 	C 	0.15550 0.74100 0.28230 0.37100
O 	O 	0.05020 0.74830 0.29824 -0.39600
O 	O 	0.23750 0.73690 0.30954 -0.39500
C 	C 	0.22730 0.38090 0.14580 0.35300
O 	O 	0.12880 0.34310 0.14890 -0.39100
O 	O 	0.31780 0.35160 0.16040 -0.42200
C 	C 	0.24130 0.39640 0.89960 0.30000
O 	O 	0.15360 0.34890 0.90760 -0.29000
O 	O 	0.32600 0.37600 0.87710 -0.40700
Cu	Cu	0.82990 0.23500 0.12670 0.92400
Cu	Cu	0.58390 0.75650 0.30434 0.88200
Cu	Cu	0.86520 0.76820 0.29860 0.91400
C 	C 	0.73510 0.80860 0.99376 -0.02000
C 	C 	0.73590 0.81210 0.94482 -0.02200
C 	C 	0.73660 0.74200 0.91857 -0.02600
C 	C 	0.73660 0.66830 0.94123 -0.02000
C 	C 	0.73590 0.66480 0.99015 -0.02100
C 	C 	0.73510 0.73490 0.01645 -0.02300
C 	C 	0.73390 0.73150 0.06994 0.06800
C 	C 	0.63340 0.75720 0.09243 -0.11900
H 	H 	0.56870 0.77440 0.07440 0.07000
C 	C 	0.62780 0.75790 0.14136 0.04700
H 	H 	0.55930 0.77530 0.15670 0.02000
C 	C 	0.72350 0.73290 0.16779 -0.11800
C 	C 	0.82310 0.70660 0.14526 0.03400
H 	H 	0.88760 0.68900 0.16320 0.03300
C 	C 	0.82870 0.70590 0.09633 -0.11100
H 	H 	0.89710 0.68810 0.08100 0.06600
C 	C 	0.74150 0.58940 0.01641 0.05700
C 	C 	0.64240 0.57250 0.04206 -0.09900
H 	H 	0.57630 0.60590 0.03930 0.06300
C 	C 	0.63940 0.50660 0.07190 0.02100
H 	H 	0.57150 0.49540 0.08950 0.03600
C 	C 	0.73570 0.45730 0.07580 -0.07800
C 	C 	0.83680 0.47480 0.05070 0.01300
H 	H 	0.90330 0.44190 0.05400 0.03900
C 	C 	0.83970 0.54080 0.02086 -0.09700
H 	H 	0.90800 0.55270 0.00360 0.06000
C 	C 	0.74400 0.58850 0.91330 0.06400
C 	C 	0.64210 0.54480 0.90800 -0.11000
H 	H 	0.57160 0.56410 0.92100 0.06700
C 	C 	0.64360 0.47270 0.88360 0.04200
H 	H 	0.57410 0.44290 0.88000 0.03300
C 	C 	0.74700 0.44430 0.86460 -0.11400
C 	C 	0.84890 0.48800 0.86990 0.04000
H 	H 	0.91930 0.46870 0.85690 0.03300
C 	C 	0.84740 0.56010 0.89424 -0.11100
H 	H 	0.91680 0.58990 0.89790 0.06900
C 	C 	0.71620 0.74210 0.86444 0.08300
C 	C 	0.60590 0.72540 0.84675 -0.13200
H 	H 	0.54420 0.71280 0.86750 0.07600
C 	C 	0.58700 0.72750 0.79839 0.06600
H 	H 	0.51260 0.71560 0.78600 0.00300
C 	C 	0.68170 0.74810 0.76719 -0.15200
C 	C 	0.78730 0.76370 0.78602 0.08300
H 	H 	0.85000 0.77640 0.76570 0.00200
C 	C 	0.80620 0.76160 0.83439 -0.14100
H 	H 	0.88070 0.77360 0.84670 0.08000
C 	C 	0.72490 0.89130 0.91940 0.06800
C 	C 	0.61970 0.92700 0.90599 -0.11200
H 	H 	0.54830 0.90020 0.91120 0.06800
C 	C 	0.62100 0.00210 0.88500 0.04300
H 	H 	0.55030 0.02660 0.87570 0.03400
C 	C 	0.72620 0.04150 0.87750 -0.12400
C 	C 	0.82970 0.00540 0.89120 0.04600
H 	H 	0.90130 0.03200 0.88620 0.02900
C 	C 	0.82840 0.93030 0.91221 -0.11600
H 	H 	0.89900 0.90610 0.92160 0.06900
C 	C 	0.73260 0.88610 0.01656 0.05600
C 	C 	0.63080 0.93080 0.02083 -0.09600
H 	H 	0.56300 0.91510 0.00430 0.05900
C 	C 	0.62890 0.99850 0.04930 0.01300
H 	H 	0.55960 0.02850 0.05240 0.03800
C 	C 	0.72820 0.02190 0.07300 -0.07300
C 	C 	0.83040 0.97770 0.06863 0.01000
H 	H 	0.89830 0.99380 0.08500 0.03500
C 	C 	0.83240 0.91010 0.04017 -0.09600
H 	H 	0.90190 0.88040 0.03690 0.06100
C 	C 	0.73230 0.72580 0.22038 0.36400
O 	O 	0.63650 0.75030 0.23950 -0.42700
O 	O 	0.82210 0.71210 0.24195 -0.42400
C 	C 	0.73870 0.38090 0.10940 0.34000
O 	O 	0.63910 0.37370 0.13000 -0.28000
O 	O 	0.82670 0.34310 0.11310 -0.43000
C 	C 	0.75730 0.36730 0.83760 0.37500
O 	O 	0.66310 0.32380 0.83820 -0.39000
O 	O 	0.85070 0.34320 0.82310 -0.44000
C 	C 	0.65550 0.75900 0.71770 0.37100
O 	O 	0.55020 0.75170 0.70176 -0.39600
O 	O 	0.73750 0.76310 0.69046 -0.39500
C 	C 	0.72730 0.11910 0.85420 0.35300
O 	O 	0.62880 0.15690 0.85110 -0.39100
O 	O 	0.81780 0.14840 0.83960 -0.42200
C 	C 	0.74130 0.10360 0.10040 0.30000
O 	O 	0.65360 0.15110 0.09240 -0.29000
O 	O 	0.82600 0.12400 0.12290 -0.40700
Cu	Cu	0.67010 0.76500 0.62670 0.92400
Cu	Cu	0.91610 0.24350 0.80434 0.88200
Cu	Cu	0.63480 0.23180 0.79860 0.91400
C 	C 	0.76490 0.19140 0.49376 -0.02000
C 	C 	0.76410 0.18790 0.44482 -0.02200
C 	C 	0.76340 0.25800 0.41857 -0.02600
C 	C 	0.76340 0.33170 0.44123 -0.02000
C 	C 	0.76410 0.33520 0.49015 -0.02100
C 	C 	0.76490 0.26510 0.51645 -0.02300
C 	C 	0.76610 0.26850 0.56994 0.06800
C 	C 	0.86660 0.24280 0.59243 -0.11900
H 	H 	0.93130 0.22560 0.57440 0.07000
C 	C 	0.87220 0.24210 0.64136 0.04700
H 	H 	0.94070 0.22470 0.65670 0.02100
C 	C 	0.77650 0.26710 0.66779 -0.11800
C 	C 	0.67690 0.29340 0.64526 0.03400
H 	H 	0.61240 0.31100 0.66320 0.03300
C 	C 	0.67130 0.29410 0.59633 -0.11100
H 	H 	0.60290 0.31190 0.58100 0.06600
C 	C 	0.75850 0.41060 0.51641 0.05700
C 	C 	0.85760 0.42750 0.54206 -0.09900
H 	H 	0.92370 0.39410 0.53930 0.06300
C 	C 	0.86060 0.49340 0.57190 0.02100
H 	H 	0.92850 0.50460 0.58950 0.03600
C 	C 	0.76430 0.54270 0.57580 -0.07800
C 	C 	0.66320 0.52520 0.55070 0.01300
H 	H 	0.59670 0.55810 0.55400 0.03900
C 	C 	0.66030 0.45920 0.52086 -0.09700
H 	H 	0.59200 0.44730 0.50360 0.06000
C 	C 	0.75600 0.41150 0.41330 0.06400
C 	C 	0.85790 0.45520 0.40800 -0.11000
H 	H 	0.92840 0.43590 0.42100 0.06700
C 	C 	0.85640 0.52730 0.38360 0.04200
H 	H 	0.92590 0.55710 0.38000 0.03400
C 	C 	0.75300 0.55570 0.36460 -0.11400
C 	C 	0.65110 0.51200 0.36990 0.04000
H 	H 	0.58070 0.53130 0.35690 0.03300
C 	C 	0.65260 0.43990 0.39424 -0.11100
H 	H 	0.58320 0.41010 0.39790 0.06900
C 	C 	0.78380 0.25790 0.36444 0.08300
C 	C 	0.89410 0.27460 0.34675 -0.13200
H 	H 	0.95580 0.28720 0.36750 0.07600
C 	C 	0.91300 0.27250 0.29839 0.06600
H 	H 	0.98740 0.28440 0.28600 0.00300
C 	C 	0.81830 0.25190 0.26719 -0.15200
C 	C 	0.71270 0.23630 0.28602 0.08300
H 	H 	0.65000 0.22360 0.26570 0.00200
C 	C 	0.69380 0.23840 0.33439 -0.14100
H 	H 	0.61930 0.22640 0.34670 0.08000
C 	C 	0.77510 0.10870 0.41940 0.06900
C 	C 	0.88030 0.07300 0.40599 -0.11300
H 	H 	0.95170 0.09980 0.41120 0.06800
C 	C 	0.87900 0.99790 0.38500 0.04400
H 	H 	0.94970 0.97340 0.37570 0.03400
C 	C 	0.77380 0.95850 0.37750 -0.12500
C 	C 	0.67030 0.99460 0.39120 0.04700
H 	H 	0.59870 0.96800 0.38620 0.02900
C 	C 	0.67160 0.06970 0.41221 -0.11600
H 	H 	0.60100 0.09390 0.42160 0.06900
C 	C 	0.76740 0.11390 0.51656 0.05600
C 	C 	0.86920 0.06920 0.52083 -0.09600
H 	H 	0.93700 0.08490 0.50430 0.05900
C 	C 	0.87110 0.00150 0.54930 0.01300
H 	H 	0.94040 0.97150 0.55240 0.03900
C 	C 	0.77180 0.97810 0.57300 -0.07300
C 	C 	0.66960 0.02230 0.56863 0.01000
H 	H 	0.60170 0.00620 0.58500 0.03500
C 	C 	0.66760 0.08990 0.54017 -0.09600
H 	H 	0.59810 0.11960 0.53690 0.06100
C 	C 	0.76770 0.27420 0.72038 0.36400
O 	O 	0.86350 0.24970 0.73950 -0.42700
O 	O 	0.67790 0.28790 0.74195 -0.42400
C 	C 	0.76130 0.61910 0.60940 0.34000
O 	O 	0.86090 0.62630 0.63000 -0.28000
O 	O 	0.67330 0.65690 0.61310 -0.43000
C 	C 	0.74270 0.63270 0.33760 0.37500
O 	O 	0.83690 0.67620 0.33820 -0.39000
O 	O 	0.64930 0.65680 0.32310 -0.44000
C 	C 	0.84450 0.24100 0.21770 0.37100
O 	O 	0.94980 0.24830 0.20176 -0.39600
O 	O 	0.76250 0.23690 0.19046 -0.39500
C 	C 	0.77270 0.88090 0.35420 0.35300
O 	O 	0.87120 0.84310 0.35110 -0.39100
O 	O 	0.68220 0.85160 0.33960 -0.42200
C 	C 	0.75870 0.89640 0.60040 0.30000
O 	O 	0.84640 0.84890 0.59240 -0.29000
O 	O 	0.67400 0.87600 0.62290 -0.40700
