data_crystal

_cell_length_a 24.97300
_cell_length_b 19.35060
_cell_length_c 21.38330
_cell_angle_alpha 90.00000
_cell_angle_beta  96.04500
_cell_angle_gamma 90.00000

_symmetry_space_group_name_	'P 1'
_symmetry_space_group_name_H-M	'P 1'

loop_
_symmetry_equiv_pos_as_xyz
  x,y,z

loop_
_atom_site_label
_atom_site_type_symbol
_atom_site_fract_x
_atom_site_fract_y
_atom_site_fract_z
_atom_site_charge
Ag	Ag	0.69970 0.21057 0.44271 0.38000
C 	C 	0.96080 0.27660 0.96130 0.12200
N 	N 	0.98090 0.40280 0.96490 -0.16300
Ag	Ag	0.90329 0.21633 0.62967 0.49500
N 	N 	0.98240 0.45180 0.91960 -0.12900
C 	C 	0.92130 0.23240 0.93030 -0.23100
H 	H 	0.90280 0.24470 0.89190 0.07900
N 	N 	0.97430 0.42360 0.86370 -0.13300
C 	C 	0.91120 0.16960 0.95920 0.21100
H 	H 	0.88510 0.13990 0.94020 -0.07000
N 	N 	0.96620 0.35420 0.87120 -0.16100
C 	C 	0.93900 0.15180 0.01480 -0.38700
H 	H 	0.93120 0.10990 0.03310 0.15400
Ag	Ag	0.00956 0.56798 0.93377 0.48400
N 	N 	0.84110 0.36080 0.63230 -0.16000
C 	C 	0.97810 0.19310 0.04520 0.35900
Ag	Ag	0.94520 0.48252 0.77003 0.50300
C 	C 	0.98770 0.25650 0.01820 -0.33700
H 	H 	0.01290 0.28620 0.03890 0.09900
N 	N 	0.87300 0.31650 0.66760 -0.13500
Ag	Ag	0.96395 0.28734 0.78486 0.48500
N 	N 	0.90510 0.34890 0.70720 -0.13800
C 	C 	0.01380 0.16990 0.10430 -0.81600
H 	H 	0.03840 0.20630 0.11800 0.23600
H 	H 	0.99160 0.15930 0.13700 0.23300
H 	H 	0.03370 0.12950 0.09470 0.24700
N 	N 	0.89700 0.41940 0.69930 -0.16000
C 	C 	0.97060 0.34360 0.93240 0.04500
Ag	Ag	0.58072 0.28974 0.37533 0.46700
C 	C 	0.83390 0.48910 0.62620 0.14400
Ag	Ag	0.76799 0.32634 0.57406 0.48900
C 	C 	0.81020 0.48940 0.56430 -0.24100
H 	H 	0.81010 0.44940 0.54020 0.07400
N 	N 	0.62320 0.33480 0.45760 -0.16200
C 	C 	0.78650 0.54960 0.53850 0.19600
H 	H 	0.77170 0.55050 0.49670 -0.06800
N 	N 	0.66470 0.30420 0.48990 -0.17000
C 	C 	0.78540 0.60930 0.57650 -0.38400
H 	H 	0.76940 0.64950 0.55970 0.13300
N 	N 	0.68290 0.34290 0.53750 -0.16200
C 	C 	0.80780 0.60830 0.63770 0.41600
C 	C 	0.83380 0.54780 0.66140 -0.33900
H 	H 	0.85130 0.54780 0.70200 0.11800
C 	C 	0.80770 0.67050 0.67870 -0.89500
H 	H 	0.82510 0.65970 0.71970 0.26500
H 	H 	0.82670 0.70740 0.66060 0.26200
H 	H 	0.77130 0.68460 0.68210 0.26200
C 	C 	0.85780 0.42450 0.65240 0.04000
C 	C 	0.65650 0.45770 0.57970 0.11200
N 	N 	0.78880 0.19470 0.46580 -0.16900
C 	C 	0.67820 0.44550 0.64120 -0.23500
H 	H 	0.68950 0.40140 0.65380 0.07900
N 	N 	0.80920 0.22470 0.52130 -0.12900
N 	N 	0.85290 0.19440 0.54200 -0.12900
C 	C 	0.68290 0.50060 0.68420 0.18200
H 	H 	0.69610 0.49280 0.72590 -0.05200
N 	N 	0.86250 0.14300 0.50280 -0.11400
C 	C 	0.66840 0.56390 0.66510 -0.37000
H 	H 	0.67380 0.60020 0.69360 0.12300
N 	N 	0.99760 0.11490 0.66510 -0.14100
C 	C 	0.64550 0.57800 0.60440 0.34300
N 	N 	0.01920 0.08580 0.71970 -0.16500
C 	C 	0.63980 0.52410 0.56260 -0.33300
H 	H 	0.62440 0.53230 0.52170 0.06400
N 	N 	0.99040 0.18940 0.73870 -0.16900
C 	C 	0.63150 0.65030 0.58530 -0.79000
H 	H 	0.63820 0.68030 0.62100 0.22900
H 	H 	0.65310 0.66450 0.55310 0.22700
H 	H 	0.59410 0.65260 0.56950 0.18600
N 	N 	0.98030 0.17650 0.67720 -0.14200
C 	C 	0.65180 0.40030 0.53480 0.03300
N 	N 	0.64400 0.15390 0.37350 -0.19300
N 	N 	0.61290 0.19460 0.33340 -0.15000
N 	N 	0.60360 0.09070 0.29800 -0.16400
N 	N 	0.58780 0.15610 0.28940 -0.13400
C 	C 	0.82800 0.08240 0.41050 0.12600
C 	C 	0.80600 0.09390 0.34890 -0.22200
H 	H 	0.79150 0.13690 0.33740 0.08200
C 	C 	0.80560 0.04120 0.30470 0.16500
H 	H 	0.79080 0.04890 0.26350 -0.03800
C 	C 	0.82720 0.97700 0.32200 -0.34500
H 	H 	0.82690 0.94170 0.29250 0.11500
C 	C 	0.84930 0.96550 0.38360 0.33400
C 	C 	0.84970 0.01820 0.42780 -0.30100
H 	H 	0.86440 0.01040 0.46900 0.11100
C 	C 	0.87220 0.89690 0.40540 -0.76000
H 	H 	0.86950 0.86510 0.37070 0.21700
H 	H 	0.90930 0.90250 0.42150 0.19800
H 	H 	0.85230 0.87910 0.43800 0.22200
C 	C 	0.82150 0.14580 0.45560 0.05600
C 	C 	0.66770 0.03120 0.37830 0.09000
C 	C 	0.69200 0.03700 0.43930 -0.17400
H 	H 	0.68660 0.07650 0.46250 0.01600
C 	C 	0.72460 0.98370 0.46640 0.14100
H 	H 	0.74160 0.98790 0.50710 -0.04900
C 	C 	0.73110 0.92440 0.43110 -0.32400
H 	H 	0.75300 0.88910 0.44870 0.11100
C 	C 	0.70600 0.91640 0.37120 0.34900
C 	C 	0.67530 0.97110 0.34500 -0.28300
H 	H 	0.65940 0.96730 0.30390 0.10500
C 	C 	0.71670 0.85350 0.33180 -0.79900
H 	H 	0.69580 0.85680 0.29160 0.24100
H 	H 	0.75430 0.85160 0.32600 0.23800
H 	H 	0.70680 0.81240 0.35290 0.23400
C 	C 	0.63810 0.09100 0.34980 0.05700
C 	C 	0.06000 0.18040 0.86340 -0.33900
H 	H 	0.06460 0.22190 0.84260 0.10500
C 	C 	0.02560 0.06510 0.86290 -0.25600
H 	H 	0.00800 0.02820 0.84170 0.07700
C 	C 	0.04340 0.05860 0.92560 0.23400
H 	H 	0.03650 0.01840 0.94730 -0.06800
C 	C 	0.07090 0.11110 0.95550 -0.38400
H 	H 	0.08480 0.10500 0.99720 0.14400
C 	C 	0.07950 0.17390 0.92630 0.39500
C 	C 	0.03340 0.12590 0.83070 0.12700
C 	C 	0.11140 0.23220 0.95940 -0.85700
H 	H 	0.12190 0.21940 0.00240 0.25500
H 	H 	0.14300 0.24100 0.93870 0.24900
H 	H 	0.08960 0.27310 0.95830 0.25800
C 	C 	0.01400 0.13460 0.76370 0.03000
Ag	Ag	0.51243 0.20565 0.22265 0.48400
Ag	Ag	0.55995 0.01670 0.23302 0.49400
Ag	Ag	0.52318 0.06358 0.93917 0.24200
N 	N 	0.50210 0.10040 0.03940 -0.19800
N 	N 	0.50590 0.07330 0.13860 -0.13800
N 	N 	0.51730 0.14140 0.13590 -0.16600
C 	C 	0.52850 0.22640 0.05080 0.11500
C 	C 	0.56600 0.26620 0.08690 -0.23700
H 	H 	0.58140 0.24980 0.12560 0.07200
C 	C 	0.58070 0.33040 0.06580 0.16500
H 	H 	0.60570 0.35750 0.08990 -0.07700
N 	N 	0.50050 0.31770 0.32840 -0.15100
C 	C 	0.55760 0.35310 0.00850 -0.38100
H 	H 	0.56800 0.39590 0.99420 0.13100
N 	N 	0.48840 0.38220 0.33810 -0.16900
C 	C 	0.51910 0.31480 0.97030 0.34000
N 	N 	0.46760 0.41040 0.28300 -0.16600
C 	C 	0.50550 0.24830 0.99310 -0.32300
H 	H 	0.48120 0.22010 0.96900 0.07500
C 	C 	0.49280 0.34290 0.90950 -0.84400
H 	H 	0.46780 0.30950 0.89030 0.23800
H 	H 	0.47390 0.38470 0.91730 0.25500
H 	H 	0.51980 0.35250 0.88190 0.24100
N 	N 	0.48740 0.30230 0.26710 -0.16700
C 	C 	0.51550 0.15560 0.07450 0.04400
C 	C 	0.45010 0.36870 0.17420 0.16200
C 	C 	0.46490 0.42660 0.14060 -0.31100
H 	H 	0.48770 0.46020 0.15970 0.09200
C 	C 	0.44420 0.43230 0.07690 0.32300
H 	H 	0.45260 0.47150 0.05470 -0.10400
C 	C 	0.41400 0.38520 0.04790 -0.49100
H 	H 	0.40240 0.39070 0.00540 0.18000
C 	C 	0.39850 0.32680 0.07910 0.46900
C 	C 	0.41820 0.31840 0.14240 -0.39200
H 	H 	0.40970 0.27850 0.16350 0.12200
C 	C 	0.46920 0.35890 0.24010 0.01300
C 	C 	0.36280 0.27410 0.04430 -0.96300
H 	H 	0.35590 0.23720 0.07240 0.27500
H 	H 	0.32940 0.29530 0.02840 0.28600
H 	H 	0.38030 0.25600 0.01000 0.28600
N 	N 	0.61420 0.39570 0.48410 -0.19000
N 	N 	0.49720 0.04920 0.08150 -0.18500
Ag	Ag	0.52600 0.58680 0.56410 0.36400
Ag	Ag	0.66000 0.19070 0.48130 0.37200
Ag	Ag	0.42900 0.52670 0.55920 0.37400
Ag	Ag	0.30030 0.71057 0.05729 0.38100
C 	C 	0.03920 0.77660 0.53870 0.12600
N 	N 	0.01910 0.90280 0.53510 -0.16300
Ag	Ag	0.09671 0.71633 0.87033 0.49500
N 	N 	0.01760 0.95180 0.58040 -0.12900
C 	C 	0.07870 0.73240 0.56970 -0.23400
H 	H 	0.09720 0.74470 0.60810 0.08100
N 	N 	0.02570 0.92360 0.63630 -0.13300
C 	C 	0.08880 0.66960 0.54080 0.21500
H 	H 	0.11490 0.63990 0.55980 -0.07100
N 	N 	0.03380 0.85420 0.62880 -0.16100
C 	C 	0.06100 0.65180 0.48520 -0.39100
H 	H 	0.06880 0.60990 0.46690 0.15600
Ag	Ag	0.99044 0.06798 0.56623 0.48400
N 	N 	0.15890 0.86080 0.86770 -0.16000
C 	C 	0.02190 0.69310 0.45480 0.36300
Ag	Ag	0.05480 0.98252 0.72997 0.50200
C 	C 	0.01230 0.75650 0.48180 -0.34100
H 	H 	0.98710 0.78620 0.46110 0.10000
N 	N 	0.12700 0.81650 0.83240 -0.13500
Ag	Ag	0.03605 0.78734 0.71514 0.48500
N 	N 	0.09490 0.84890 0.79280 -0.13800
C 	C 	0.98620 0.66990 0.39570 -0.82200
H 	H 	0.96160 0.70630 0.38200 0.23800
H 	H 	0.00840 0.65930 0.36300 0.23500
H 	H 	0.96630 0.62950 0.40530 0.24900
N 	N 	0.10300 0.91940 0.80070 -0.16000
C 	C 	0.02940 0.84360 0.56760 0.04400
Ag	Ag	0.41928 0.78974 0.12467 0.46700
C 	C 	0.16610 0.98910 0.87380 0.14300
Ag	Ag	0.23201 0.82634 0.92594 0.48900
C 	C 	0.18980 0.98940 0.93570 -0.24000
H 	H 	0.18990 0.94940 0.95980 0.07300
N 	N 	0.37680 0.83480 0.04240 -0.16200
C 	C 	0.21350 0.04960 0.96150 0.19400
H 	H 	0.22830 0.05050 0.00330 -0.06800
N 	N 	0.33530 0.80420 0.01010 -0.17000
C 	C 	0.21460 0.10930 0.92350 -0.38200
H 	H 	0.23060 0.14950 0.94030 0.13300
N 	N 	0.31710 0.84290 0.96250 -0.16200
C 	C 	0.19220 0.10830 0.86230 0.41500
C 	C 	0.16620 0.04780 0.83860 -0.33700
H 	H 	0.14870 0.04780 0.79800 0.11800
C 	C 	0.19230 0.17050 0.82130 -0.89400
H 	H 	0.17490 0.15970 0.78030 0.26400
H 	H 	0.17330 0.20740 0.83940 0.26200
H 	H 	0.22870 0.18460 0.81790 0.26200
C 	C 	0.14220 0.92450 0.84760 0.04000
C 	C 	0.34350 0.95770 0.92030 0.11300
N 	N 	0.21120 0.69470 0.03420 -0.16900
C 	C 	0.32180 0.94550 0.85880 -0.23700
H 	H 	0.31050 0.90140 0.84620 0.08000
N 	N 	0.19080 0.72470 0.97870 -0.12900
N 	N 	0.14710 0.69440 0.95800 -0.12900
C 	C 	0.31710 0.00060 0.81580 0.18400
H 	H 	0.30390 0.99280 0.77410 -0.05300
N 	N 	0.13750 0.64300 0.99720 -0.11400
C 	C 	0.33160 0.06390 0.83490 -0.37200
H 	H 	0.32620 0.10020 0.80640 0.12300
N 	N 	0.00240 0.61490 0.83490 -0.14100
C 	C 	0.35450 0.07800 0.89560 0.34400
N 	N 	0.98080 0.58580 0.78030 -0.16600
C 	C 	0.36020 0.02410 0.93740 -0.33300
H 	H 	0.37560 0.03230 0.97830 0.06500
N 	N 	0.00960 0.68940 0.76130 -0.16800
C 	C 	0.36850 0.15030 0.91470 -0.79100
H 	H 	0.36180 0.18030 0.87900 0.22900
H 	H 	0.34690 0.16450 0.94690 0.22700
H 	H 	0.40590 0.15260 0.93050 0.18600
N 	N 	0.01970 0.67650 0.82280 -0.14100
C 	C 	0.34820 0.90030 0.96520 0.03300
N 	N 	0.35600 0.65390 0.12650 -0.19300
N 	N 	0.38710 0.69460 0.16660 -0.15000
N 	N 	0.39640 0.59070 0.20200 -0.16400
N 	N 	0.41220 0.65610 0.21060 -0.13400
C 	C 	0.17200 0.58240 0.08950 0.12600
C 	C 	0.19400 0.59390 0.15110 -0.22200
H 	H 	0.20850 0.63690 0.16260 0.08200
C 	C 	0.19440 0.54120 0.19530 0.16600
H 	H 	0.20920 0.54890 0.23650 -0.03800
C 	C 	0.17280 0.47700 0.17800 -0.34600
H 	H 	0.17310 0.44170 0.20750 0.11500
C 	C 	0.15070 0.46550 0.11640 0.33200
C 	C 	0.15030 0.51820 0.07220 -0.29900
H 	H 	0.13560 0.51040 0.03100 0.11100
C 	C 	0.12780 0.39690 0.09460 -0.75800
H 	H 	0.13050 0.36510 0.12930 0.21600
H 	H 	0.09070 0.40250 0.07850 0.19700
H 	H 	0.14770 0.37910 0.06200 0.22100
C 	C 	0.17850 0.64580 0.04440 0.05600
C 	C 	0.33230 0.53120 0.12170 0.09000
C 	C 	0.30800 0.53700 0.06070 -0.17300
H 	H 	0.31340 0.57650 0.03750 0.01500
C 	C 	0.27540 0.48370 0.03360 0.13900
H 	H 	0.25840 0.48790 0.99290 -0.04900
C 	C 	0.26890 0.42440 0.06890 -0.32400
H 	H 	0.24700 0.38910 0.05130 0.11100
C 	C 	0.29400 0.41640 0.12880 0.34900
C 	C 	0.32470 0.47110 0.15500 -0.28300
H 	H 	0.34060 0.46730 0.19610 0.10500
C 	C 	0.28330 0.35350 0.16820 -0.79900
H 	H 	0.30420 0.35680 0.20840 0.24100
H 	H 	0.24570 0.35160 0.17400 0.23800
H 	H 	0.29320 0.31240 0.14710 0.23400
C 	C 	0.36190 0.59100 0.15020 0.05700
C 	C 	0.94000 0.68040 0.63660 -0.34000
H 	H 	0.93540 0.72190 0.65740 0.10500
C 	C 	0.97440 0.56510 0.63710 -0.25600
H 	H 	0.99200 0.52820 0.65830 0.07700
C 	C 	0.95660 0.55860 0.57440 0.23400
H 	H 	0.96350 0.51840 0.55270 -0.06900
C 	C 	0.92910 0.61110 0.54450 -0.38400
H 	H 	0.91520 0.60500 0.50280 0.14400
C 	C 	0.92050 0.67390 0.57370 0.39500
C 	C 	0.96660 0.62590 0.66930 0.12700
C 	C 	0.88860 0.73220 0.54060 -0.85600
H 	H 	0.87810 0.71940 0.49760 0.25400
H 	H 	0.85700 0.74100 0.56130 0.24900
H 	H 	0.91040 0.77310 0.54170 0.25800
C 	C 	0.98600 0.63460 0.73630 0.03000
Ag	Ag	0.48757 0.70565 0.27735 0.48400
Ag	Ag	0.44005 0.51670 0.26698 0.49400
Ag	Ag	0.47682 0.56358 0.56083 0.24200
N 	N 	0.49790 0.60040 0.46060 -0.19800
N 	N 	0.49410 0.57330 0.36140 -0.13800
N 	N 	0.48270 0.64140 0.36410 -0.16600
C 	C 	0.47150 0.72640 0.44920 0.11400
C 	C 	0.43400 0.76620 0.41310 -0.23700
H 	H 	0.41860 0.74980 0.37440 0.07200
C 	C 	0.41930 0.83040 0.43420 0.16500
H 	H 	0.39430 0.85750 0.41010 -0.07700
N 	N 	0.49950 0.81770 0.17160 -0.15100
C 	C 	0.44240 0.85310 0.49150 -0.38100
H 	H 	0.43200 0.89590 0.50580 0.13100
N 	N 	0.51160 0.88220 0.16190 -0.16900
C 	C 	0.48090 0.81480 0.52970 0.34000
N 	N 	0.53240 0.91040 0.21700 -0.16600
C 	C 	0.49450 0.74830 0.50690 -0.32200
H 	H 	0.51880 0.72010 0.53100 0.07500
C 	C 	0.50720 0.84290 0.59050 -0.84500
H 	H 	0.53220 0.80950 0.60970 0.23800
H 	H 	0.52610 0.88470 0.58270 0.25600
H 	H 	0.48020 0.85250 0.61810 0.24200
N 	N 	0.51260 0.80230 0.23290 -0.16700
C 	C 	0.48450 0.65560 0.42550 0.04400
C 	C 	0.54990 0.86870 0.32580 0.16200
C 	C 	0.53510 0.92660 0.35940 -0.31100
H 	H 	0.51230 0.96020 0.34030 0.09200
C 	C 	0.55580 0.93230 0.42310 0.32300
H 	H 	0.54740 0.97150 0.44530 -0.10300
C 	C 	0.58600 0.88520 0.45210 -0.49100
H 	H 	0.59760 0.89070 0.49460 0.18000
C 	C 	0.60150 0.82680 0.42090 0.46900
C 	C 	0.58180 0.81840 0.35760 -0.39200
H 	H 	0.59030 0.77850 0.33650 0.12200
C 	C 	0.53080 0.85890 0.25990 0.01300
C 	C 	0.63720 0.77410 0.45570 -0.96300
H 	H 	0.64410 0.73720 0.42760 0.27500
H 	H 	0.67060 0.79530 0.47160 0.28500
H 	H 	0.61970 0.75600 0.49000 0.28600
N 	N 	0.38580 0.89570 0.01590 -0.19100
N 	N 	0.50280 0.54920 0.41850 -0.18500
Ag	Ag	0.47400 0.08680 0.93590 0.36400
Ag	Ag	0.34000 0.69070 0.01870 0.37200
Ag	Ag	0.57100 0.02670 0.94080 0.37300
Ag	Ag	0.30030 0.78943 0.55729 0.38100
C 	C 	0.03920 0.72340 0.03870 0.12300
N 	N 	0.01910 0.59720 0.03510 -0.16300
Ag	Ag	0.09671 0.78367 0.37033 0.49500
N 	N 	0.01760 0.54820 0.08040 -0.12900
C 	C 	0.07870 0.76760 0.06970 -0.23100
H 	H 	0.09720 0.75530 0.10810 0.07900
N 	N 	0.02570 0.57640 0.13630 -0.13300
C 	C 	0.08880 0.83040 0.04080 0.21100
H 	H 	0.11490 0.86010 0.05980 -0.07000
N 	N 	0.03380 0.64580 0.12880 -0.16100
C 	C 	0.06100 0.84820 0.98520 -0.38700
H 	H 	0.06880 0.89010 0.96690 0.15400
Ag	Ag	0.99044 0.43202 0.06623 0.48400
N 	N 	0.15890 0.63920 0.36770 -0.16000
C 	C 	0.02190 0.80690 0.95480 0.35900
Ag	Ag	0.05480 0.51748 0.22997 0.50300
C 	C 	0.01230 0.74350 0.98180 -0.33700
H 	H 	0.98710 0.71380 0.96110 0.09900
N 	N 	0.12700 0.68350 0.33240 -0.13500
Ag	Ag	0.03605 0.71266 0.21514 0.48500
N 	N 	0.09490 0.65110 0.29280 -0.13800
C 	C 	0.98620 0.83010 0.89570 -0.81600
H 	H 	0.96160 0.79370 0.88200 0.23600
H 	H 	0.00840 0.84070 0.86300 0.23300
H 	H 	0.96630 0.87050 0.90530 0.24700
N 	N 	0.10300 0.58060 0.30070 -0.16000
C 	C 	0.02940 0.65640 0.06760 0.04500
Ag	Ag	0.41928 0.71026 0.62467 0.46700
C 	C 	0.16610 0.51090 0.37380 0.14400
Ag	Ag	0.23201 0.67366 0.42594 0.48900
C 	C 	0.18980 0.51060 0.43570 -0.24100
H 	H 	0.18990 0.55060 0.45980 0.07400
N 	N 	0.37680 0.66520 0.54240 -0.16200
C 	C 	0.21350 0.45040 0.46150 0.19600
H 	H 	0.22830 0.44950 0.50330 -0.06800
N 	N 	0.33530 0.69580 0.51010 -0.17000
C 	C 	0.21460 0.39070 0.42350 -0.38400
H 	H 	0.23060 0.35050 0.44030 0.13300
N 	N 	0.31710 0.65710 0.46250 -0.16200
C 	C 	0.19220 0.39170 0.36230 0.41600
C 	C 	0.16620 0.45220 0.33860 -0.33900
H 	H 	0.14870 0.45220 0.29800 0.11800
C 	C 	0.19230 0.32950 0.32130 -0.89500
H 	H 	0.17490 0.34030 0.28030 0.26500
H 	H 	0.17330 0.29260 0.33940 0.26200
H 	H 	0.22870 0.31540 0.31790 0.26200
C 	C 	0.14220 0.57550 0.34760 0.04000
C 	C 	0.34350 0.54230 0.42030 0.11200
N 	N 	0.21120 0.80530 0.53420 -0.16900
C 	C 	0.32180 0.55450 0.35880 -0.23500
H 	H 	0.31050 0.59860 0.34620 0.07900
N 	N 	0.19080 0.77530 0.47870 -0.12900
N 	N 	0.14710 0.80560 0.45800 -0.12900
C 	C 	0.31710 0.49940 0.31580 0.18200
H 	H 	0.30390 0.50720 0.27410 -0.05200
N 	N 	0.13750 0.85700 0.49720 -0.11400
C 	C 	0.33160 0.43610 0.33490 -0.37000
H 	H 	0.32620 0.39980 0.30640 0.12300
N 	N 	0.00240 0.88510 0.33490 -0.14100
C 	C 	0.35450 0.42200 0.39560 0.34300
N 	N 	0.98080 0.91420 0.28030 -0.16500
C 	C 	0.36020 0.47590 0.43740 -0.33300
H 	H 	0.37560 0.46770 0.47830 0.06400
N 	N 	0.00960 0.81060 0.26130 -0.16900
C 	C 	0.36850 0.34970 0.41470 -0.79000
H 	H 	0.36180 0.31970 0.37900 0.22900
H 	H 	0.34690 0.33550 0.44690 0.22700
H 	H 	0.40590 0.34740 0.43050 0.18600
N 	N 	0.01970 0.82350 0.32280 -0.14200
C 	C 	0.34820 0.59970 0.46520 0.03300
N 	N 	0.35600 0.84610 0.62650 -0.19300
N 	N 	0.38710 0.80540 0.66660 -0.15000
N 	N 	0.39640 0.90930 0.70200 -0.16400
N 	N 	0.41220 0.84390 0.71060 -0.13400
C 	C 	0.17200 0.91760 0.58950 0.12600
C 	C 	0.19400 0.90610 0.65110 -0.22200
H 	H 	0.20850 0.86310 0.66260 0.08200
C 	C 	0.19440 0.95880 0.69530 0.16500
H 	H 	0.20920 0.95110 0.73650 -0.03800
C 	C 	0.17280 0.02300 0.67800 -0.34500
H 	H 	0.17310 0.05830 0.70750 0.11500
C 	C 	0.15070 0.03450 0.61640 0.33400
C 	C 	0.15030 0.98180 0.57220 -0.30100
H 	H 	0.13560 0.98960 0.53100 0.11100
C 	C 	0.12780 0.10310 0.59460 -0.76000
H 	H 	0.13050 0.13490 0.62930 0.21700
H 	H 	0.09070 0.09750 0.57850 0.19800
H 	H 	0.14770 0.12090 0.56200 0.22200
C 	C 	0.17850 0.85420 0.54440 0.05600
C 	C 	0.33230 0.96880 0.62170 0.09000
C 	C 	0.30800 0.96300 0.56070 -0.17400
H 	H 	0.31340 0.92350 0.53750 0.01600
C 	C 	0.27540 0.01630 0.53360 0.14100
H 	H 	0.25840 0.01210 0.49290 -0.04900
C 	C 	0.26890 0.07560 0.56890 -0.32400
H 	H 	0.24700 0.11090 0.55130 0.11100
C 	C 	0.29400 0.08360 0.62880 0.34900
C 	C 	0.32470 0.02890 0.65500 -0.28300
H 	H 	0.34060 0.03270 0.69610 0.10500
C 	C 	0.28330 0.14650 0.66820 -0.79900
H 	H 	0.30420 0.14320 0.70840 0.24100
H 	H 	0.24570 0.14840 0.67400 0.23800
H 	H 	0.29320 0.18760 0.64710 0.23400
C 	C 	0.36190 0.90900 0.65020 0.05700
C 	C 	0.94000 0.81960 0.13660 -0.33900
H 	H 	0.93540 0.77810 0.15740 0.10500
C 	C 	0.97440 0.93490 0.13710 -0.25600
H 	H 	0.99200 0.97180 0.15830 0.07700
C 	C 	0.95660 0.94140 0.07440 0.23400
H 	H 	0.96350 0.98160 0.05270 -0.06800
C 	C 	0.92910 0.88890 0.04450 -0.38400
H 	H 	0.91520 0.89500 0.00280 0.14400
C 	C 	0.92050 0.82610 0.07370 0.39500
C 	C 	0.96660 0.87410 0.16930 0.12700
C 	C 	0.88860 0.76780 0.04060 -0.85700
H 	H 	0.87810 0.78060 0.99760 0.25500
H 	H 	0.85700 0.75900 0.06130 0.24900
H 	H 	0.91040 0.72690 0.04170 0.25800
C 	C 	0.98600 0.86540 0.23630 0.03000
Ag	Ag	0.48757 0.79435 0.77735 0.48400
Ag	Ag	0.44005 0.98330 0.76698 0.49400
Ag	Ag	0.47682 0.93642 0.06083 0.24200
N 	N 	0.49790 0.89960 0.96060 -0.19800
N 	N 	0.49410 0.92670 0.86140 -0.13800
N 	N 	0.48270 0.85860 0.86410 -0.16600
C 	C 	0.47150 0.77360 0.94920 0.11500
C 	C 	0.43400 0.73380 0.91310 -0.23700
H 	H 	0.41860 0.75020 0.87440 0.07200
C 	C 	0.41930 0.66960 0.93420 0.16500
H 	H 	0.39430 0.64250 0.91010 -0.07700
N 	N 	0.49950 0.68230 0.67160 -0.15100
C 	C 	0.44240 0.64690 0.99150 -0.38100
H 	H 	0.43200 0.60410 0.00580 0.13100
N 	N 	0.51160 0.61780 0.66190 -0.16900
C 	C 	0.48090 0.68520 0.02970 0.34000
N 	N 	0.53240 0.58960 0.71700 -0.16600
C 	C 	0.49450 0.75170 0.00690 -0.32300
H 	H 	0.51880 0.77990 0.03100 0.07500
C 	C 	0.50720 0.65710 0.09050 -0.84400
H 	H 	0.53220 0.69050 0.10970 0.23800
H 	H 	0.52610 0.61530 0.08270 0.25500
H 	H 	0.48020 0.64750 0.11810 0.24100
N 	N 	0.51260 0.69770 0.73290 -0.16700
C 	C 	0.48450 0.84440 0.92550 0.04400
C 	C 	0.54990 0.63130 0.82580 0.16200
C 	C 	0.53510 0.57340 0.85940 -0.31100
H 	H 	0.51230 0.53980 0.84030 0.09200
C 	C 	0.55580 0.56770 0.92310 0.32300
H 	H 	0.54740 0.52850 0.94530 -0.10400
C 	C 	0.58600 0.61480 0.95210 -0.49100
H 	H 	0.59760 0.60930 0.99460 0.18000
C 	C 	0.60150 0.67320 0.92090 0.46900
C 	C 	0.58180 0.68160 0.85760 -0.39200
H 	H 	0.59030 0.72150 0.83650 0.12200
C 	C 	0.53080 0.64110 0.75990 0.01300
C 	C 	0.63720 0.72590 0.95570 -0.96300
H 	H 	0.64410 0.76280 0.92760 0.27500
H 	H 	0.67060 0.70470 0.97160 0.28600
H 	H 	0.61970 0.74400 0.99000 0.28600
N 	N 	0.38580 0.60430 0.51590 -0.19000
N 	N 	0.50280 0.95080 0.91850 -0.18500
Ag	Ag	0.47400 0.41320 0.43590 0.36400
Ag	Ag	0.34000 0.80930 0.51870 0.37200
Ag	Ag	0.57100 0.47330 0.44080 0.37400
Ag	Ag	0.69970 0.28943 0.94271 0.38100
C 	C 	0.96080 0.22340 0.46130 0.12600
N 	N 	0.98090 0.09720 0.46490 -0.16300
Ag	Ag	0.90329 0.28367 0.12967 0.49500
N 	N 	0.98240 0.04820 0.41960 -0.12900
C 	C 	0.92130 0.26760 0.43030 -0.23400
H 	H 	0.90280 0.25530 0.39190 0.08100
N 	N 	0.97430 0.07640 0.36370 -0.13300
C 	C 	0.91120 0.33040 0.45920 0.21500
H 	H 	0.88510 0.36010 0.44020 -0.07100
N 	N 	0.96620 0.14580 0.37120 -0.16100
C 	C 	0.93900 0.34820 0.51480 -0.39100
H 	H 	0.93120 0.39010 0.53310 0.15600
Ag	Ag	0.00956 0.93202 0.43377 0.48400
N 	N 	0.84110 0.13920 0.13230 -0.16000
C 	C 	0.97810 0.30690 0.54520 0.36300
Ag	Ag	0.94520 0.01748 0.27003 0.50200
C 	C 	0.98770 0.24350 0.51820 -0.34100
H 	H 	0.01290 0.21380 0.53890 0.10000
N 	N 	0.87300 0.18350 0.16760 -0.13500
Ag	Ag	0.96395 0.21266 0.28486 0.48500
N 	N 	0.90510 0.15110 0.20720 -0.13800
C 	C 	0.01380 0.33010 0.60430 -0.82200
H 	H 	0.03840 0.29370 0.61800 0.23800
H 	H 	0.99160 0.34070 0.63700 0.23500
H 	H 	0.03370 0.37050 0.59470 0.24900
N 	N 	0.89700 0.08060 0.19930 -0.16000
C 	C 	0.97060 0.15640 0.43240 0.04400
Ag	Ag	0.58072 0.21026 0.87533 0.46700
C 	C 	0.83390 0.01090 0.12620 0.14300
Ag	Ag	0.76799 0.17366 0.07406 0.48900
C 	C 	0.81020 0.01060 0.06430 -0.24000
H 	H 	0.81010 0.05060 0.04020 0.07300
N 	N 	0.62320 0.16520 0.95760 -0.16200
C 	C 	0.78650 0.95040 0.03850 0.19400
H 	H 	0.77170 0.94950 0.99670 -0.06800
N 	N 	0.66470 0.19580 0.98990 -0.17000
C 	C 	0.78540 0.89070 0.07650 -0.38200
H 	H 	0.76940 0.85050 0.05970 0.13300
N 	N 	0.68290 0.15710 0.03750 -0.16200
C 	C 	0.80780 0.89170 0.13770 0.41500
C 	C 	0.83380 0.95220 0.16140 -0.33700
H 	H 	0.85130 0.95220 0.20200 0.11800
C 	C 	0.80770 0.82950 0.17870 -0.89400
H 	H 	0.82510 0.84030 0.21970 0.26400
H 	H 	0.82670 0.79260 0.16060 0.26200
H 	H 	0.77130 0.81540 0.18210 0.26200
C 	C 	0.85780 0.07550 0.15240 0.04000
C 	C 	0.65650 0.04230 0.07970 0.11300
N 	N 	0.78880 0.30530 0.96580 -0.16900
C 	C 	0.67820 0.05450 0.14120 -0.23700
H 	H 	0.68950 0.09860 0.15380 0.08000
N 	N 	0.80920 0.27530 0.02130 -0.12900
N 	N 	0.85290 0.30560 0.04200 -0.12900
C 	C 	0.68290 0.99940 0.18420 0.18400
H 	H 	0.69610 0.00720 0.22590 -0.05300
N 	N 	0.86250 0.35700 0.00280 -0.11400
C 	C 	0.66840 0.93610 0.16510 -0.37200
H 	H 	0.67380 0.89980 0.19360 0.12300
N 	N 	0.99760 0.38510 0.16510 -0.14100
C 	C 	0.64550 0.92200 0.10440 0.34400
N 	N 	0.01920 0.41420 0.21970 -0.16600
C 	C 	0.63980 0.97590 0.06260 -0.33300
H 	H 	0.62440 0.96770 0.02170 0.06500
N 	N 	0.99040 0.31060 0.23870 -0.16800
C 	C 	0.63150 0.84970 0.08530 -0.79100
H 	H 	0.63820 0.81970 0.12100 0.22900
H 	H 	0.65310 0.83550 0.05310 0.22700
H 	H 	0.59410 0.84740 0.06950 0.18600
N 	N 	0.98030 0.32350 0.17720 -0.14100
C 	C 	0.65180 0.09970 0.03480 0.03300
N 	N 	0.64400 0.34610 0.87350 -0.19300
N 	N 	0.61290 0.30540 0.83340 -0.15000
N 	N 	0.60360 0.40930 0.79800 -0.16400
N 	N 	0.58780 0.34390 0.78940 -0.13400
C 	C 	0.82800 0.41760 0.91050 0.12600
C 	C 	0.80600 0.40610 0.84890 -0.22200
H 	H 	0.79150 0.36310 0.83740 0.08200
C 	C 	0.80560 0.45880 0.80470 0.16600
H 	H 	0.79080 0.45110 0.76350 -0.03800
C 	C 	0.82720 0.52300 0.82200 -0.34600
H 	H 	0.82690 0.55830 0.79250 0.11500
C 	C 	0.84930 0.53450 0.88360 0.33200
C 	C 	0.84970 0.48180 0.92780 -0.29900
H 	H 	0.86440 0.48960 0.96900 0.11100
C 	C 	0.87220 0.60310 0.90540 -0.75800
H 	H 	0.86950 0.63490 0.87070 0.21600
H 	H 	0.90930 0.59750 0.92150 0.19700
H 	H 	0.85230 0.62090 0.93800 0.22100
C 	C 	0.82150 0.35420 0.95560 0.05600
C 	C 	0.66770 0.46880 0.87830 0.09000
C 	C 	0.69200 0.46300 0.93930 -0.17300
H 	H 	0.68660 0.42350 0.96250 0.01500
C 	C 	0.72460 0.51630 0.96640 0.13900
H 	H 	0.74160 0.51210 0.00710 -0.04900
C 	C 	0.73110 0.57560 0.93110 -0.32400
H 	H 	0.75300 0.61090 0.94870 0.11100
C 	C 	0.70600 0.58360 0.87120 0.34900
C 	C 	0.67530 0.52890 0.84500 -0.28300
H 	H 	0.65940 0.53270 0.80390 0.10500
C 	C 	0.71670 0.64650 0.83180 -0.79900
H 	H 	0.69580 0.64320 0.79160 0.24100
H 	H 	0.75430 0.64840 0.82600 0.23800
H 	H 	0.70680 0.68760 0.85290 0.23400
C 	C 	0.63810 0.40900 0.84980 0.05700
C 	C 	0.06000 0.31960 0.36340 -0.34000
H 	H 	0.06460 0.27810 0.34260 0.10500
C 	C 	0.02560 0.43490 0.36290 -0.25600
H 	H 	0.00800 0.47180 0.34170 0.07700
C 	C 	0.04340 0.44140 0.42560 0.23400
H 	H 	0.03650 0.48160 0.44730 -0.06900
C 	C 	0.07090 0.38890 0.45550 -0.38400
H 	H 	0.08480 0.39500 0.49720 0.14400
C 	C 	0.07950 0.32610 0.42630 0.39500
C 	C 	0.03340 0.37410 0.33070 0.12700
C 	C 	0.11140 0.26780 0.45940 -0.85600
H 	H 	0.12190 0.28060 0.50240 0.25400
H 	H 	0.14300 0.25900 0.43870 0.24900
H 	H 	0.08960 0.22690 0.45830 0.25800
C 	C 	0.01400 0.36540 0.26370 0.03000
Ag	Ag	0.51243 0.29435 0.72265 0.48400
Ag	Ag	0.55995 0.48330 0.73302 0.49400
Ag	Ag	0.52318 0.43642 0.43917 0.24200
N 	N 	0.50210 0.39960 0.53940 -0.19800
N 	N 	0.50590 0.42670 0.63860 -0.13800
N 	N 	0.51730 0.35860 0.63590 -0.16600
C 	C 	0.52850 0.27360 0.55080 0.11400
C 	C 	0.56600 0.23380 0.58690 -0.23700
H 	H 	0.58140 0.25020 0.62560 0.07200
C 	C 	0.58070 0.16960 0.56580 0.16500
H 	H 	0.60570 0.14250 0.58990 -0.07700
N 	N 	0.50050 0.18230 0.82840 -0.15100
C 	C 	0.55760 0.14690 0.50850 -0.38100
H 	H 	0.56800 0.10410 0.49420 0.13100
N 	N 	0.48840 0.11780 0.83810 -0.16900
C 	C 	0.51910 0.18520 0.47030 0.34000
N 	N 	0.46760 0.08960 0.78300 -0.16600
C 	C 	0.50550 0.25170 0.49310 -0.32200
H 	H 	0.48120 0.27990 0.46900 0.07500
C 	C 	0.49280 0.15710 0.40950 -0.84500
H 	H 	0.46780 0.19050 0.39030 0.23800
H 	H 	0.47390 0.11530 0.41730 0.25600
H 	H 	0.51980 0.14750 0.38190 0.24200
N 	N 	0.48740 0.19770 0.76710 -0.16700
C 	C 	0.51550 0.34440 0.57450 0.04400
C 	C 	0.45010 0.13130 0.67420 0.16200
C 	C 	0.46490 0.07340 0.64060 -0.31100
H 	H 	0.48770 0.03980 0.65970 0.09200
C 	C 	0.44420 0.06770 0.57690 0.32300
H 	H 	0.45260 0.02850 0.55470 -0.10300
C 	C 	0.41400 0.11480 0.54790 -0.49100
H 	H 	0.40240 0.10930 0.50540 0.18000
C 	C 	0.39850 0.17320 0.57910 0.46900
C 	C 	0.41820 0.18160 0.64240 -0.39200
H 	H 	0.40970 0.22150 0.66350 0.12200
C 	C 	0.46920 0.14110 0.74010 0.01300
C 	C 	0.36280 0.22590 0.54430 -0.96300
H 	H 	0.35590 0.26280 0.57240 0.27500
H 	H 	0.32940 0.20470 0.52840 0.28500
H 	H 	0.38030 0.24400 0.51000 0.28600
N 	N 	0.61420 0.10430 0.98410 -0.19100
N 	N 	0.49720 0.45080 0.58150 -0.18500
Ag	Ag	0.52600 0.91320 0.06410 0.36400
Ag	Ag	0.66000 0.30930 0.98130 0.37200
Ag	Ag	0.42900 0.97330 0.05920 0.37300
