data_crystal

_cell_length_a 20.89200
_cell_length_b 32.34900
_cell_length_c 21.16200
_cell_angle_alpha 90.00000
_cell_angle_beta  90.00000
_cell_angle_gamma 90.00000

_symmetry_space_group_name_	'P 1'
_symmetry_space_group_name_H-M	'P 1'

loop_
_symmetry_equiv_pos_as_xyz
  x,y,z

loop_
_atom_site_label
_atom_site_type_symbol
_atom_site_fract_x
_atom_site_fract_y
_atom_site_fract_z
_atom_site_charge
Cu	Cu	0.27948 0.73047 0.72781 0.91500
Cu	Cu	0.23870 0.73874 0.35570 0.91700
Cu	Cu	0.55735 0.65133 0.36726 0.91500
Cu	Cu	0.67587 0.60377 0.37096 0.89400
Cu	Cu	0.97040 0.52009 0.05422 0.89700
Cu	Cu	0.22052 0.76953 0.22781 0.91500
Cu	Cu	0.26130 0.76126 0.85570 0.91700
Cu	Cu	0.94265 0.84867 0.86726 0.91500
Cu	Cu	0.82413 0.89623 0.87096 0.89500
Cu	Cu	0.52960 0.97991 0.55422 0.90000
Cu	Cu	0.27948 0.26953 0.77219 0.91600
Cu	Cu	0.23870 0.26126 0.14430 0.91800
Cu	Cu	0.55735 0.34867 0.13274 0.91700
Cu	Cu	0.67587 0.39623 0.12904 0.89500
Cu	Cu	0.97040 0.47991 0.44578 0.89800
Cu	Cu	0.22052 0.23047 0.27219 0.91600
Cu	Cu	0.26130 0.23874 0.64430 0.91800
Cu	Cu	0.94265 0.15133 0.63274 0.91600
Cu	Cu	0.82413 0.10377 0.62904 0.89400
Cu	Cu	0.52960 0.02009 0.94578 0.89600
Cu	Cu	0.72052 0.26953 0.27219 0.91600
Cu	Cu	0.76130 0.26126 0.64430 0.91800
Cu	Cu	0.44265 0.34867 0.63274 0.91700
Cu	Cu	0.32413 0.39623 0.62904 0.89500
Cu	Cu	0.02960 0.47991 0.94578 0.89800
Cu	Cu	0.77948 0.23047 0.77219 0.91600
Cu	Cu	0.73870 0.23874 0.14430 0.91800
Cu	Cu	0.05735 0.15133 0.13274 0.91600
Cu	Cu	0.17587 0.10377 0.12904 0.89400
Cu	Cu	0.47040 0.02009 0.44578 0.89600
Cu	Cu	0.72052 0.73047 0.22781 0.91600
Cu	Cu	0.76130 0.73874 0.85570 0.91800
Cu	Cu	0.44265 0.65133 0.86726 0.91700
Cu	Cu	0.32413 0.60377 0.87096 0.89500
Cu	Cu	0.02960 0.52009 0.55422 0.89800
Cu	Cu	0.77948 0.76953 0.72781 0.91600
Cu	Cu	0.73870 0.76126 0.35570 0.91800
Cu	Cu	0.05735 0.84867 0.36726 0.91600
Cu	Cu	0.17587 0.89623 0.37096 0.89500
Cu	Cu	0.47040 0.97991 0.05422 0.90000
H 	H 	0.23770 0.80560 0.67500 0.22400
H 	H 	0.32990 0.65670 0.76050 0.23100
H 	H 	0.33680 0.70370 0.91580 0.23800
H 	H 	0.20400 0.81940 0.77600 0.24900
H 	H 	0.60200 0.71860 0.30120 0.25200
H 	H 	0.52220 0.57240 0.41850 0.17200
H 	H 	0.62680 0.55810 0.40920 0.26800
H 	H 	0.75210 0.66860 0.34510 0.24100
H 	H 	0.04440 0.52730 0.11280 0.13500
H 	H 	0.83910 0.53240 0.04530 0.22600
H 	H 	0.15210 0.71910 0.60140 0.11300
H 	H 	0.22230 0.73560 0.59480 0.10100
H 	H 	0.16220 0.79070 0.61390 -0.02900
H 	H 	0.12630 0.76870 0.66970 -0.01800
H 	H 	0.20160 0.64810 0.63360 0.10300
H 	H 	0.26310 0.67310 0.61510 0.10600
H 	H 	0.29300 0.61790 0.67250 -0.00500
H 	H 	0.24530 0.62970 0.72680 -0.01800
H 	H 	0.11530 0.69760 0.69880 0.10600
H 	H 	0.15560 0.66300 0.73250 0.11500
H 	H 	0.13400 0.70970 0.81260 -0.00500
H 	H 	0.14950 0.74770 0.76910 -0.02200
H 	H 	0.37210 0.84720 0.84510 0.09800
H 	H 	0.40610 0.80600 0.86610 0.11000
H 	H 	0.39180 0.79710 0.75810 -0.01000
H 	H 	0.32170 0.81490 0.76040 -0.03600
H 	H 	0.30470 0.79710 0.98580 0.10000
H 	H 	0.37200 0.81500 0.96720 0.10300
H 	H 	0.37920 0.74580 0.99530 -0.02500
H 	H 	0.40210 0.75280 0.92550 -0.02500
H 	H 	0.24020 0.84210 0.93050 0.11500
H 	H 	0.29780 0.86970 0.90850 0.11200
H 	H 	0.26710 0.86410 0.80360 -0.04700
H 	H 	0.20610 0.87770 0.84190 -0.03900
H 	H 	0.48730 0.59600 0.23420 0.11000
H 	H 	0.52830 0.63440 0.21340 0.12500
H 	H 	0.60100 0.58630 0.23640 -0.00900
H 	H 	0.56400 0.57200 0.29700 -0.03700
H 	H 	0.42070 0.64180 0.36700 0.10600
H 	H 	0.39870 0.61980 0.30480 0.10300
H 	H 	0.46650 0.56250 0.33260 -0.01600
H 	H 	0.41120 0.56960 0.38290 -0.00600
H 	H 	0.44460 0.69710 0.31140 0.14000
H 	H 	0.44330 0.68190 0.24120 0.14200
H 	H 	0.50800 0.73830 0.25290 -0.06000
H 	H 	0.54660 0.70010 0.22780 -0.06600
H 	H 	0.72640 0.64610 0.50390 0.11600
H 	H 	0.69750 0.60860 0.54110 0.10500
H 	H 	0.60430 0.61390 0.49170 -0.02200
H 	H 	0.62290 0.65920 0.51110 -0.00200
H 	H 	0.73240 0.53310 0.43350 0.09400
H 	H 	0.74510 0.54410 0.50430 0.10200
H 	H 	0.63020 0.55300 0.51890 -0.01500
H 	H 	0.64750 0.50720 0.49900 -0.00200
H 	H 	0.81880 0.60110 0.47570 0.12200
H 	H 	0.81070 0.57870 0.41040 0.11500
H 	H 	0.84560 0.64430 0.39120 -0.03100
H 	H 	0.79070 0.66300 0.43270 -0.04600
H 	H 	0.07800 0.58780 0.18430 0.00200
H 	H 	0.09440 0.59210 0.11270 -0.00500
H 	H 	0.97420 0.58970 0.16560 0.10600
H 	H 	0.00590 0.62700 0.13010 0.11000
H 	H 	0.82310 0.59570 0.03830 -0.02300
H 	H 	0.87780 0.59970 0.98810 -0.01600
H 	H 	0.91330 0.63190 0.07300 0.10100
H 	H 	0.89220 0.59550 0.11780 0.09500
H 	H 	0.04260 0.61870 0.03130 0.12700
H 	H 	0.98120 0.61910 0.98850 0.12800
H 	H 	0.07920 0.56190 0.99070 -0.07000
H 	H 	0.04430 0.58020 0.93180 -0.03900
H 	H 	0.26230 0.69440 0.17500 0.22400
H 	H 	0.17010 0.84330 0.26050 0.23100
H 	H 	0.16320 0.79630 0.41580 0.23800
H 	H 	0.29600 0.68060 0.27600 0.24900
H 	H 	0.89800 0.78140 0.80120 0.25200
H 	H 	0.97780 0.92760 0.91850 0.17100
H 	H 	0.87320 0.94190 0.90920 0.26700
H 	H 	0.74790 0.83140 0.84510 0.24100
H 	H 	0.45560 0.97270 0.61280 0.13600
H 	H 	0.66090 0.96760 0.54530 0.22700
H 	H 	0.34790 0.78090 0.10140 0.11300
H 	H 	0.27770 0.76440 0.09480 0.10000
H 	H 	0.33780 0.70930 0.11390 -0.02900
H 	H 	0.37370 0.73130 0.16970 -0.01800
H 	H 	0.29840 0.85190 0.13360 0.10300
H 	H 	0.23690 0.82690 0.11510 0.10600
H 	H 	0.20700 0.88210 0.17250 -0.00400
H 	H 	0.25470 0.87030 0.22680 -0.01800
H 	H 	0.38470 0.80240 0.19880 0.10600
H 	H 	0.34440 0.83700 0.23250 0.11500
H 	H 	0.36600 0.79030 0.31260 -0.00500
H 	H 	0.35050 0.75230 0.26910 -0.02200
H 	H 	0.12790 0.65280 0.34510 0.09800
H 	H 	0.09390 0.69400 0.36610 0.11000
H 	H 	0.10820 0.70290 0.25810 -0.01000
H 	H 	0.17830 0.68510 0.26040 -0.03600
H 	H 	0.19530 0.70290 0.48580 0.10000
H 	H 	0.12800 0.68500 0.46720 0.10200
H 	H 	0.12080 0.75420 0.49530 -0.02500
H 	H 	0.09790 0.74720 0.42550 -0.02500
H 	H 	0.25980 0.65790 0.43050 0.11400
H 	H 	0.20220 0.63030 0.40850 0.11200
H 	H 	0.23290 0.63590 0.30360 -0.04700
H 	H 	0.29390 0.62230 0.34190 -0.04000
H 	H 	0.01270 0.90400 0.73420 0.11200
H 	H 	0.97170 0.86560 0.71340 0.12500
H 	H 	0.89900 0.91370 0.73640 -0.00900
H 	H 	0.93600 0.92800 0.79700 -0.03700
H 	H 	0.07930 0.85820 0.86700 0.10600
H 	H 	0.10130 0.88020 0.80480 0.10300
H 	H 	0.03350 0.93750 0.83260 -0.01400
H 	H 	0.08880 0.93040 0.88290 -0.00400
H 	H 	0.05540 0.80290 0.81140 0.14000
H 	H 	0.05670 0.81810 0.74120 0.14200
H 	H 	0.99200 0.76170 0.75290 -0.06000
H 	H 	0.95340 0.79990 0.72780 -0.06600
H 	H 	0.77360 0.85390 0.00390 0.11600
H 	H 	0.80250 0.89140 0.04110 0.10500
H 	H 	0.89570 0.88610 0.99170 -0.02100
H 	H 	0.87710 0.84080 0.01110 -0.00100
H 	H 	0.76760 0.96690 0.93350 0.09600
H 	H 	0.75490 0.95590 0.00430 0.10300
H 	H 	0.86980 0.94700 0.01890 -0.01300
H 	H 	0.85250 0.99280 0.99900 0.00100
H 	H 	0.68120 0.89890 0.97570 0.12200
H 	H 	0.68930 0.92130 0.91040 0.11600
H 	H 	0.65440 0.85570 0.89120 -0.03100
H 	H 	0.70930 0.83700 0.93270 -0.04600
H 	H 	0.42200 0.91220 0.68430 0.00400
H 	H 	0.40560 0.90790 0.61270 -0.00400
H 	H 	0.52580 0.91030 0.66560 0.10500
H 	H 	0.49410 0.87300 0.63010 0.10900
H 	H 	0.67690 0.90430 0.53830 -0.02200
H 	H 	0.62220 0.90030 0.48810 -0.01400
H 	H 	0.58670 0.86810 0.57300 0.10000
H 	H 	0.60780 0.90450 0.61780 0.09500
H 	H 	0.45740 0.88130 0.53130 0.12600
H 	H 	0.51880 0.88090 0.48850 0.12700
H 	H 	0.42080 0.93810 0.49070 -0.06800
H 	H 	0.45570 0.91980 0.43180 -0.03700
H 	H 	0.23770 0.19440 0.82500 0.22400
H 	H 	0.32990 0.34330 0.73950 0.23100
H 	H 	0.33680 0.29630 0.58420 0.23800
H 	H 	0.20400 0.18060 0.72400 0.24900
H 	H 	0.60200 0.28140 0.19880 0.25200
H 	H 	0.52220 0.42760 0.08150 0.17200
H 	H 	0.62680 0.44190 0.09080 0.26800
H 	H 	0.75210 0.33140 0.15490 0.24100
H 	H 	0.04440 0.47270 0.38720 0.13500
H 	H 	0.83910 0.46760 0.45470 0.22600
H 	H 	0.15210 0.28090 0.89860 0.11300
H 	H 	0.22230 0.26440 0.90520 0.10100
H 	H 	0.16220 0.20930 0.88610 -0.02900
H 	H 	0.12630 0.23130 0.83030 -0.01800
H 	H 	0.20160 0.35190 0.86640 0.10300
H 	H 	0.26310 0.32690 0.88490 0.10600
H 	H 	0.29300 0.38210 0.82750 -0.00500
H 	H 	0.24530 0.37030 0.77320 -0.01800
H 	H 	0.11530 0.30240 0.80120 0.10600
H 	H 	0.15560 0.33700 0.76750 0.11500
H 	H 	0.13400 0.29030 0.68740 -0.00500
H 	H 	0.14950 0.25230 0.73090 -0.02200
H 	H 	0.37210 0.15280 0.65490 0.09800
H 	H 	0.40610 0.19400 0.63390 0.11000
H 	H 	0.39180 0.20290 0.74190 -0.01000
H 	H 	0.32170 0.18510 0.73960 -0.03600
H 	H 	0.30470 0.20290 0.51420 0.10000
H 	H 	0.37200 0.18500 0.53280 0.10200
H 	H 	0.37920 0.25420 0.50470 -0.02500
H 	H 	0.40210 0.24720 0.57450 -0.02500
H 	H 	0.24020 0.15790 0.56950 0.11400
H 	H 	0.29780 0.13030 0.59150 0.11100
H 	H 	0.26710 0.13590 0.69640 -0.04800
H 	H 	0.20610 0.12230 0.65810 -0.04100
H 	H 	0.48730 0.40400 0.26580 0.11000
H 	H 	0.52830 0.36560 0.28660 0.12500
H 	H 	0.60100 0.41370 0.26360 -0.00900
H 	H 	0.56400 0.42800 0.20300 -0.03700
H 	H 	0.42070 0.35820 0.13300 0.10600
H 	H 	0.39870 0.38020 0.19520 0.10300
H 	H 	0.46650 0.43750 0.16740 -0.01600
H 	H 	0.41120 0.43040 0.11710 -0.00600
H 	H 	0.44460 0.30290 0.18860 0.14000
H 	H 	0.44330 0.31810 0.25880 0.14200
H 	H 	0.50800 0.26170 0.24710 -0.06000
H 	H 	0.54660 0.29990 0.27220 -0.06600
H 	H 	0.72640 0.35390 0.99610 0.11700
H 	H 	0.69750 0.39140 0.95890 0.10500
H 	H 	0.60430 0.38610 0.00830 -0.02200
H 	H 	0.62290 0.34080 0.98890 -0.00300
H 	H 	0.73240 0.46690 0.06650 0.09400
H 	H 	0.74510 0.45590 0.99570 0.10200
H 	H 	0.63020 0.44700 0.98110 -0.01500
H 	H 	0.64750 0.49280 0.00100 -0.00200
H 	H 	0.81880 0.39890 0.02430 0.12200
H 	H 	0.81070 0.42130 0.08960 0.11500
H 	H 	0.84560 0.35570 0.10880 -0.03100
H 	H 	0.79070 0.33700 0.06730 -0.04500
H 	H 	0.07800 0.41220 0.31570 0.00300
H 	H 	0.09440 0.40790 0.38730 -0.00400
H 	H 	0.97420 0.41030 0.33440 0.10500
H 	H 	0.00590 0.37300 0.36990 0.10900
H 	H 	0.82310 0.40430 0.46170 -0.02300
H 	H 	0.87780 0.40030 0.51190 -0.01500
H 	H 	0.91330 0.36810 0.42700 0.10100
H 	H 	0.89220 0.40450 0.38220 0.09500
H 	H 	0.04260 0.38130 0.46870 0.12700
H 	H 	0.98120 0.38090 0.51150 0.12800
H 	H 	0.07920 0.43810 0.50930 -0.07000
H 	H 	0.04430 0.41980 0.56820 -0.03800
H 	H 	0.26230 0.30560 0.32500 0.22400
H 	H 	0.17010 0.15670 0.23950 0.23100
H 	H 	0.16320 0.20370 0.08420 0.23800
H 	H 	0.29600 0.31940 0.22400 0.24900
H 	H 	0.89800 0.21860 0.69880 0.25200
H 	H 	0.97780 0.07240 0.58150 0.17100
H 	H 	0.87320 0.05810 0.59080 0.26900
H 	H 	0.74790 0.16860 0.65490 0.24100
H 	H 	0.45560 0.02730 0.88720 0.13400
H 	H 	0.66090 0.03240 0.95470 0.22500
H 	H 	0.34790 0.21910 0.39860 0.11300
H 	H 	0.27770 0.23560 0.40520 0.10100
H 	H 	0.33780 0.29070 0.38610 -0.02900
H 	H 	0.37370 0.26870 0.33030 -0.01800
H 	H 	0.29840 0.14810 0.36640 0.10300
H 	H 	0.23690 0.17310 0.38490 0.10600
H 	H 	0.20700 0.11790 0.32750 -0.00500
H 	H 	0.25470 0.12970 0.27320 -0.01800
H 	H 	0.38470 0.19760 0.30120 0.10600
H 	H 	0.34440 0.16300 0.26750 0.11500
H 	H 	0.36600 0.20970 0.18740 -0.00500
H 	H 	0.35050 0.24770 0.23090 -0.02200
H 	H 	0.12790 0.34720 0.15490 0.09800
H 	H 	0.09390 0.30600 0.13390 0.11000
H 	H 	0.10820 0.29710 0.24190 -0.01000
H 	H 	0.17830 0.31490 0.23960 -0.03600
H 	H 	0.19530 0.29710 0.01420 0.10000
H 	H 	0.12800 0.31500 0.03280 0.10200
H 	H 	0.12080 0.24580 0.00470 -0.02600
H 	H 	0.09790 0.25280 0.07450 -0.02600
H 	H 	0.25980 0.34210 0.06950 0.11400
H 	H 	0.20220 0.36970 0.09150 0.11200
H 	H 	0.23290 0.36410 0.19640 -0.04700
H 	H 	0.29390 0.37770 0.15810 -0.04000
H 	H 	0.01270 0.09600 0.76580 0.11000
H 	H 	0.97170 0.13440 0.78660 0.12500
H 	H 	0.89900 0.08630 0.76360 -0.01100
H 	H 	0.93600 0.07200 0.70300 -0.03900
H 	H 	0.07930 0.14180 0.63300 0.10700
H 	H 	0.10130 0.11980 0.69520 0.10300
H 	H 	0.03350 0.06250 0.66740 -0.01700
H 	H 	0.08880 0.06960 0.61710 -0.00700
H 	H 	0.05540 0.19710 0.68860 0.14000
H 	H 	0.05670 0.18190 0.75880 0.14200
H 	H 	0.99200 0.23830 0.74710 -0.06000
H 	H 	0.95340 0.20010 0.77220 -0.06600
H 	H 	0.77360 0.14610 0.49610 0.11600
H 	H 	0.80250 0.10860 0.45890 0.10500
H 	H 	0.89570 0.11390 0.50830 -0.02200
H 	H 	0.87710 0.15920 0.48890 -0.00200
H 	H 	0.76760 0.03310 0.56650 0.09300
H 	H 	0.75490 0.04410 0.49570 0.10100
H 	H 	0.86980 0.05300 0.48110 -0.01600
H 	H 	0.85250 0.00720 0.50100 -0.00400
H 	H 	0.68120 0.10110 0.52430 0.12100
H 	H 	0.68930 0.07870 0.58960 0.11400
H 	H 	0.65440 0.14430 0.60880 -0.03100
H 	H 	0.70930 0.16300 0.56730 -0.04600
H 	H 	0.42200 0.08780 0.81570 0.00200
H 	H 	0.40560 0.09210 0.88730 -0.00500
H 	H 	0.52580 0.08970 0.83440 0.10400
H 	H 	0.49410 0.12700 0.86990 0.10900
H 	H 	0.67690 0.09570 0.96170 -0.02300
H 	H 	0.62220 0.09970 0.01190 -0.01400
H 	H 	0.58670 0.13190 0.92700 0.10000
H 	H 	0.60780 0.09550 0.88220 0.09500
H 	H 	0.45740 0.11870 0.96870 0.12800
H 	H 	0.51880 0.11910 0.01150 0.12900
H 	H 	0.42080 0.06190 0.00930 -0.07200
H 	H 	0.45570 0.08020 0.06820 -0.04000
H 	H 	0.76230 0.19440 0.32500 0.22400
H 	H 	0.67010 0.34330 0.23950 0.23100
H 	H 	0.66320 0.29630 0.08420 0.23800
H 	H 	0.79600 0.18060 0.22400 0.24900
H 	H 	0.39800 0.28140 0.69880 0.25200
H 	H 	0.47780 0.42760 0.58150 0.17200
H 	H 	0.37320 0.44190 0.59080 0.26800
H 	H 	0.24790 0.33140 0.65490 0.24100
H 	H 	0.95560 0.47270 0.88720 0.13500
H 	H 	0.16090 0.46760 0.95470 0.22600
H 	H 	0.84790 0.28090 0.39860 0.11300
H 	H 	0.77770 0.26440 0.40520 0.10100
H 	H 	0.83780 0.20930 0.38610 -0.02900
H 	H 	0.87370 0.23130 0.33030 -0.01800
H 	H 	0.79840 0.35190 0.36640 0.10300
H 	H 	0.73690 0.32690 0.38490 0.10600
H 	H 	0.70700 0.38210 0.32750 -0.00500
H 	H 	0.75470 0.37030 0.27320 -0.01800
H 	H 	0.88470 0.30240 0.30120 0.10600
H 	H 	0.84440 0.33700 0.26750 0.11500
H 	H 	0.86600 0.29030 0.18740 -0.00500
H 	H 	0.85050 0.25230 0.23090 -0.02200
H 	H 	0.62790 0.15280 0.15490 0.09800
H 	H 	0.59390 0.19400 0.13390 0.11000
H 	H 	0.60820 0.20290 0.24190 -0.01000
H 	H 	0.67830 0.18510 0.23960 -0.03600
H 	H 	0.69530 0.20290 0.01420 0.10000
H 	H 	0.62800 0.18500 0.03280 0.10300
H 	H 	0.62080 0.25420 0.00470 -0.02500
H 	H 	0.59790 0.24720 0.07450 -0.02500
H 	H 	0.75980 0.15790 0.06950 0.11400
H 	H 	0.70220 0.13030 0.09150 0.11100
H 	H 	0.73290 0.13590 0.19640 -0.04800
H 	H 	0.79390 0.12230 0.15810 -0.04100
H 	H 	0.51270 0.40400 0.76580 0.11000
H 	H 	0.47170 0.36560 0.78660 0.12500
H 	H 	0.39900 0.41370 0.76360 -0.00900
H 	H 	0.43600 0.42800 0.70300 -0.03700
H 	H 	0.57930 0.35820 0.63300 0.10600
H 	H 	0.60130 0.38020 0.69520 0.10300
H 	H 	0.53350 0.43750 0.66740 -0.01600
H 	H 	0.58880 0.43040 0.61710 -0.00600
H 	H 	0.55540 0.30290 0.68860 0.14000
H 	H 	0.55670 0.31810 0.75880 0.14200
H 	H 	0.49200 0.26170 0.74710 -0.06000
H 	H 	0.45340 0.29990 0.77220 -0.06600
H 	H 	0.27360 0.35390 0.49610 0.11600
H 	H 	0.30250 0.39140 0.45890 0.10500
H 	H 	0.39570 0.38610 0.50830 -0.02200
H 	H 	0.37710 0.34080 0.48890 -0.00200
H 	H 	0.26760 0.46690 0.56650 0.09400
H 	H 	0.25490 0.45590 0.49570 0.10200
H 	H 	0.36980 0.44700 0.48110 -0.01500
H 	H 	0.35250 0.49280 0.50100 -0.00200
H 	H 	0.18120 0.39890 0.52430 0.12200
H 	H 	0.18930 0.42130 0.58960 0.11500
H 	H 	0.15440 0.35570 0.60880 -0.03100
H 	H 	0.20930 0.33700 0.56730 -0.04600
H 	H 	0.92200 0.41220 0.81570 0.00200
H 	H 	0.90560 0.40790 0.88730 -0.00500
H 	H 	0.02580 0.41030 0.83440 0.10600
H 	H 	0.99410 0.37300 0.86990 0.11000
H 	H 	0.17690 0.40430 0.96170 -0.02300
H 	H 	0.12220 0.40030 0.01190 -0.01600
H 	H 	0.08670 0.36810 0.92700 0.10100
H 	H 	0.10780 0.40450 0.88220 0.09500
H 	H 	0.95740 0.38130 0.96870 0.12700
H 	H 	0.01880 0.38090 0.01150 0.12800
H 	H 	0.92080 0.43810 0.00930 -0.07000
H 	H 	0.95570 0.41980 0.06820 -0.03900
H 	H 	0.73770 0.30560 0.82500 0.22400
H 	H 	0.82990 0.15670 0.73950 0.23100
H 	H 	0.83680 0.20370 0.58420 0.23800
H 	H 	0.70400 0.31940 0.72400 0.24900
H 	H 	0.10200 0.21860 0.19880 0.25200
H 	H 	0.02220 0.07240 0.08150 0.17000
H 	H 	0.12680 0.05810 0.09080 0.26900
H 	H 	0.25210 0.16860 0.15490 0.24100
H 	H 	0.54440 0.02730 0.38720 0.13400
H 	H 	0.33910 0.03240 0.45470 0.22500
H 	H 	0.65210 0.21910 0.89860 0.11300
H 	H 	0.72230 0.23560 0.90520 0.10000
H 	H 	0.66220 0.29070 0.88610 -0.02900
H 	H 	0.62630 0.26870 0.83030 -0.01800
H 	H 	0.70160 0.14810 0.86640 0.10300
H 	H 	0.76310 0.17310 0.88490 0.10600
H 	H 	0.79300 0.11790 0.82750 -0.00500
H 	H 	0.74530 0.12970 0.77320 -0.01800
H 	H 	0.61530 0.19760 0.80120 0.10600
H 	H 	0.65560 0.16300 0.76750 0.11500
H 	H 	0.63400 0.20970 0.68740 -0.00500
H 	H 	0.64950 0.24770 0.73090 -0.02200
H 	H 	0.87210 0.34720 0.65490 0.09800
H 	H 	0.90610 0.30600 0.63390 0.11000
H 	H 	0.89180 0.29710 0.74190 -0.01000
H 	H 	0.82170 0.31490 0.73960 -0.03600
H 	H 	0.80470 0.29710 0.51420 0.10000
H 	H 	0.87200 0.31500 0.53280 0.10200
H 	H 	0.87920 0.24580 0.50470 -0.02500
H 	H 	0.90210 0.25280 0.57450 -0.02500
H 	H 	0.74020 0.34210 0.56950 0.11400
H 	H 	0.79780 0.36970 0.59150 0.11200
H 	H 	0.76710 0.36410 0.69640 -0.04700
H 	H 	0.70610 0.37770 0.65810 -0.04000
H 	H 	0.98730 0.09600 0.26580 0.11000
H 	H 	0.02830 0.13440 0.28660 0.12500
H 	H 	0.10100 0.08630 0.26360 -0.01100
H 	H 	0.06400 0.07200 0.20300 -0.03900
H 	H 	0.92070 0.14180 0.13300 0.10700
H 	H 	0.89870 0.11980 0.19520 0.10300
H 	H 	0.96650 0.06250 0.16740 -0.01700
H 	H 	0.91120 0.06960 0.11710 -0.00700
H 	H 	0.94460 0.19710 0.18860 0.14000
H 	H 	0.94330 0.18190 0.25880 0.14200
H 	H 	0.00800 0.23830 0.24710 -0.06000
H 	H 	0.04660 0.20010 0.27220 -0.06600
H 	H 	0.22640 0.14610 0.99610 0.11600
H 	H 	0.19750 0.10860 0.95890 0.10400
H 	H 	0.10430 0.11390 0.00830 -0.02100
H 	H 	0.12290 0.15920 0.98890 -0.00100
H 	H 	0.23240 0.03310 0.06650 0.09300
H 	H 	0.24510 0.04410 0.99570 0.10100
H 	H 	0.13020 0.05300 0.98110 -0.01600
H 	H 	0.14750 0.00720 0.00100 -0.00400
H 	H 	0.31880 0.10110 0.02430 0.12100
H 	H 	0.31070 0.07870 0.08960 0.11400
H 	H 	0.34560 0.14430 0.10880 -0.03100
H 	H 	0.29070 0.16300 0.06730 -0.04600
H 	H 	0.57800 0.08780 0.31570 0.00200
H 	H 	0.59440 0.09210 0.38730 -0.00500
H 	H 	0.47420 0.08970 0.33440 0.10400
H 	H 	0.50590 0.12700 0.36990 0.10900
H 	H 	0.32310 0.09570 0.46170 -0.02400
H 	H 	0.37780 0.09970 0.51190 -0.01500
H 	H 	0.41330 0.13190 0.42700 0.10100
H 	H 	0.39220 0.09550 0.38220 0.09500
H 	H 	0.54260 0.11870 0.46870 0.12700
H 	H 	0.48120 0.11910 0.51150 0.12800
H 	H 	0.57920 0.06190 0.50930 -0.07200
H 	H 	0.54430 0.08020 0.56820 -0.04000
H 	H 	0.76230 0.80560 0.17500 0.22400
H 	H 	0.67010 0.65670 0.26050 0.23100
H 	H 	0.66320 0.70370 0.41580 0.23800
H 	H 	0.79600 0.81940 0.27600 0.24900
H 	H 	0.39800 0.71860 0.80120 0.25200
H 	H 	0.47780 0.57240 0.91850 0.17200
H 	H 	0.37320 0.55810 0.90920 0.26800
H 	H 	0.24790 0.66860 0.84510 0.24100
H 	H 	0.95560 0.52730 0.61280 0.13500
H 	H 	0.16090 0.53240 0.54530 0.22600
H 	H 	0.84790 0.71910 0.10140 0.11300
H 	H 	0.77770 0.73560 0.09480 0.10100
H 	H 	0.83780 0.79070 0.11390 -0.02900
H 	H 	0.87370 0.76870 0.16970 -0.01800
H 	H 	0.79840 0.64810 0.13360 0.10300
H 	H 	0.73690 0.67310 0.11510 0.10600
H 	H 	0.70700 0.61790 0.17250 -0.00500
H 	H 	0.75470 0.62970 0.22680 -0.01800
H 	H 	0.88470 0.69760 0.19880 0.10600
H 	H 	0.84440 0.66300 0.23250 0.11500
H 	H 	0.86600 0.70970 0.31260 -0.00500
H 	H 	0.85050 0.74770 0.26910 -0.02200
H 	H 	0.62790 0.84720 0.34510 0.09800
H 	H 	0.59390 0.80600 0.36610 0.11000
H 	H 	0.60820 0.79710 0.25810 -0.01000
H 	H 	0.67830 0.81490 0.26040 -0.03600
H 	H 	0.69530 0.79710 0.48580 0.10000
H 	H 	0.62800 0.81500 0.46720 0.10200
H 	H 	0.62080 0.74580 0.49530 -0.02500
H 	H 	0.59790 0.75280 0.42550 -0.02500
H 	H 	0.75980 0.84210 0.43050 0.11400
H 	H 	0.70220 0.86970 0.40850 0.11200
H 	H 	0.73290 0.86410 0.30360 -0.04700
H 	H 	0.79390 0.87770 0.34190 -0.03900
H 	H 	0.51270 0.59600 0.73420 0.11000
H 	H 	0.47170 0.63440 0.71340 0.12500
H 	H 	0.39900 0.58630 0.73640 -0.00900
H 	H 	0.43600 0.57200 0.79700 -0.03700
H 	H 	0.57930 0.64180 0.86700 0.10600
H 	H 	0.60130 0.61980 0.80480 0.10300
H 	H 	0.53350 0.56250 0.83260 -0.01600
H 	H 	0.58880 0.56960 0.88290 -0.00600
H 	H 	0.55540 0.69710 0.81140 0.14000
H 	H 	0.55670 0.68190 0.74120 0.14200
H 	H 	0.49200 0.73830 0.75290 -0.06000
H 	H 	0.45340 0.70010 0.72780 -0.06600
H 	H 	0.27360 0.64610 0.00390 0.11700
H 	H 	0.30250 0.60860 0.04110 0.10500
H 	H 	0.39570 0.61390 0.99170 -0.02200
H 	H 	0.37710 0.65920 0.01110 -0.00300
H 	H 	0.26760 0.53310 0.93350 0.09400
H 	H 	0.25490 0.54410 0.00430 0.10200
H 	H 	0.36980 0.55300 0.01890 -0.01500
H 	H 	0.35250 0.50720 0.99900 -0.00200
H 	H 	0.18120 0.60110 0.97570 0.12200
H 	H 	0.18930 0.57870 0.91040 0.11500
H 	H 	0.15440 0.64430 0.89120 -0.03100
H 	H 	0.20930 0.66300 0.93270 -0.04500
H 	H 	0.92200 0.58780 0.68430 0.00300
H 	H 	0.90560 0.59210 0.61270 -0.00400
H 	H 	0.02580 0.58970 0.66560 0.10500
H 	H 	0.99410 0.62700 0.63010 0.10900
H 	H 	0.17690 0.59570 0.53830 -0.02300
H 	H 	0.12220 0.59970 0.48810 -0.01500
H 	H 	0.08670 0.63190 0.57300 0.10100
H 	H 	0.10780 0.59550 0.61780 0.09500
H 	H 	0.95740 0.61870 0.53130 0.12700
H 	H 	0.01880 0.61910 0.48850 0.12800
H 	H 	0.92080 0.56190 0.49070 -0.07000
H 	H 	0.95570 0.58020 0.43180 -0.03800
H 	H 	0.73770 0.69440 0.67500 0.22400
H 	H 	0.82990 0.84330 0.76050 0.23100
H 	H 	0.83680 0.79630 0.91580 0.23800
H 	H 	0.70400 0.68060 0.77600 0.24900
H 	H 	0.10200 0.78140 0.30120 0.25200
H 	H 	0.02220 0.92760 0.41850 0.17200
H 	H 	0.12680 0.94190 0.40920 0.26700
H 	H 	0.25210 0.83140 0.34510 0.24100
H 	H 	0.54440 0.97270 0.11280 0.13600
H 	H 	0.33910 0.96760 0.04530 0.22700
H 	H 	0.65210 0.78090 0.60140 0.11300
H 	H 	0.72230 0.76440 0.59480 0.10100
H 	H 	0.66220 0.70930 0.61390 -0.02900
H 	H 	0.62630 0.73130 0.66970 -0.01800
H 	H 	0.70160 0.85190 0.63360 0.10300
H 	H 	0.76310 0.82690 0.61510 0.10600
H 	H 	0.79300 0.88210 0.67250 -0.00400
H 	H 	0.74530 0.87030 0.72680 -0.01800
H 	H 	0.61530 0.80240 0.69880 0.10600
H 	H 	0.65560 0.83700 0.73250 0.11500
H 	H 	0.63400 0.79030 0.81260 -0.00500
H 	H 	0.64950 0.75230 0.76910 -0.02200
H 	H 	0.87210 0.65280 0.84510 0.09800
H 	H 	0.90610 0.69400 0.86610 0.11000
H 	H 	0.89180 0.70290 0.75810 -0.01000
H 	H 	0.82170 0.68510 0.76040 -0.03600
H 	H 	0.80470 0.70290 0.98580 0.10000
H 	H 	0.87200 0.68500 0.96720 0.10200
H 	H 	0.87920 0.75420 0.99530 -0.02600
H 	H 	0.90210 0.74720 0.92550 -0.02600
H 	H 	0.74020 0.65790 0.93050 0.11400
H 	H 	0.79780 0.63030 0.90850 0.11200
H 	H 	0.76710 0.63590 0.80360 -0.04700
H 	H 	0.70610 0.62230 0.84190 -0.04000
H 	H 	0.98730 0.90400 0.23420 0.11200
H 	H 	0.02830 0.86560 0.21340 0.12500
H 	H 	0.10100 0.91370 0.23640 -0.00900
H 	H 	0.06400 0.92800 0.29700 -0.03700
H 	H 	0.92070 0.85820 0.36700 0.10600
H 	H 	0.89870 0.88020 0.30480 0.10300
H 	H 	0.96650 0.93750 0.33260 -0.01400
H 	H 	0.91120 0.93040 0.38290 -0.00400
H 	H 	0.94460 0.80290 0.31140 0.14000
H 	H 	0.94330 0.81810 0.24120 0.14200
H 	H 	0.00800 0.76170 0.25290 -0.06000
H 	H 	0.04660 0.79990 0.22780 -0.06600
H 	H 	0.22640 0.85390 0.50390 0.11600
H 	H 	0.19750 0.89140 0.54110 0.10500
H 	H 	0.10430 0.88610 0.49170 -0.02100
H 	H 	0.12290 0.84080 0.51110 -0.00200
H 	H 	0.23240 0.96690 0.43350 0.09600
H 	H 	0.24510 0.95590 0.50430 0.10300
H 	H 	0.13020 0.94700 0.51890 -0.01400
H 	H 	0.14750 0.99280 0.49900 0.00100
H 	H 	0.31880 0.89890 0.47570 0.12200
H 	H 	0.31070 0.92130 0.41040 0.11500
H 	H 	0.34560 0.85570 0.39120 -0.03100
H 	H 	0.29070 0.83700 0.43270 -0.04600
H 	H 	0.57800 0.91220 0.18430 0.00400
H 	H 	0.59440 0.90790 0.11270 -0.00400
H 	H 	0.47420 0.91030 0.16560 0.10500
H 	H 	0.50590 0.87300 0.13010 0.10900
H 	H 	0.32310 0.90430 0.03830 -0.02200
H 	H 	0.37780 0.90030 0.98810 -0.01300
H 	H 	0.41330 0.86810 0.07300 0.10000
H 	H 	0.39220 0.90450 0.11780 0.09500
H 	H 	0.54260 0.88130 0.03130 0.12600
H 	H 	0.48120 0.88090 0.98850 0.12800
H 	H 	0.57920 0.93810 0.99070 -0.06800
H 	H 	0.54430 0.91980 0.93180 -0.03700
W 	W 	0.42373 0.74209 0.52579 0.52800
W 	W 	0.07627 0.75791 0.02579 0.52700
W 	W 	0.42373 0.25791 0.97421 0.52800
W 	W 	0.07627 0.24209 0.47421 0.52900
W 	W 	0.57627 0.25791 0.47421 0.52900
W 	W 	0.92373 0.24209 0.97421 0.52700
W 	W 	0.57627 0.74209 0.02579 0.52800
W 	W 	0.92373 0.75791 0.52579 0.52900
W 	W 	0.82184 0.50000 0.25000 0.57000
W 	W 	0.67816 0.00000 0.75000 0.55400
W 	W 	0.17816 0.50000 0.75000 0.57000
W 	W 	0.32184 0.00000 0.25000 0.55500
C 	C 	0.36850 0.74230 0.61470 -0.00200
C 	C 	0.34920 0.74240 0.45740 -0.02800
C 	C 	0.47780 0.70445 0.46000 -0.00900
C 	C 	0.49460 0.77954 0.57420 -0.03800
C 	C 	0.48030 0.70208 0.58280 -0.04300
C 	C 	0.37510 0.68310 0.52880 -0.04000
C 	C 	0.37950 0.79980 0.54120 -0.04800
C 	C 	0.45740 0.78350 0.45310 -0.03500
C 	C 	0.75460 0.53730 0.29350 -0.04400
C 	C 	0.89160 0.49941 0.18110 -0.04800
C 	C 	0.77990 0.53320 0.17520 -0.05800
C 	C 	0.86530 0.56130 0.25480 -0.03900
C 	C 	0.18740 0.73150 0.62440 -0.25400
C 	C 	0.16730 0.77150 0.64870 0.19500
C 	C 	0.23600 0.66510 0.65020 -0.23000
C 	C 	0.27330 0.64090 0.69450 0.18700
C 	C 	0.15540 0.69190 0.72020 -0.21200
C 	C 	0.16200 0.71970 0.77940 0.15900
C 	C 	0.36680 0.81750 0.84900 -0.20300
C 	C 	0.35280 0.79820 0.78300 0.15200
C 	C 	0.33870 0.79570 0.95460 -0.23800
C 	C 	0.36520 0.75350 0.95320 0.20200
C 	C 	0.27140 0.84620 0.89710 -0.25200
C 	C 	0.23660 0.85550 0.83560 0.23900
C 	C 	0.51770 0.61660 0.24880 -0.24100
C 	C 	0.57610 0.59600 0.27220 0.17500
C 	C 	0.43420 0.62290 0.33400 -0.21200
C 	C 	0.44850 0.58180 0.36290 0.15400
C 	C 	0.47010 0.68430 0.27850 -0.33500
C 	C 	0.52370 0.71100 0.26400 0.33700
C 	C 	0.69850 0.62230 0.50030 -0.23500
C 	C 	0.63470 0.63600 0.48450 0.13900
C 	C 	0.71760 0.55000 0.46850 -0.22300
C 	C 	0.64830 0.53590 0.48570 0.17200
C 	C 	0.79420 0.60070 0.43690 -0.27600
C 	C 	0.80130 0.64080 0.40380 0.26200
C 	C 	0.06480 0.57957 0.14230 0.14100
C 	C 	0.00230 0.59710 0.13080 -0.23600
C 	C 	0.86630 0.58707 0.02810 0.17600
C 	C 	0.90890 0.60210 0.07630 -0.22400
C 	C 	0.00890 0.60160 0.01390 -0.28900
C 	C 	0.03740 0.56858 0.97350 0.26600
C 	C 	0.13150 0.75770 0.11470 -0.00200
C 	C 	0.15080 0.75760 0.95740 -0.02700
C 	C 	0.02220 0.79555 0.96000 -0.00800
C 	C 	0.00540 0.72046 0.07420 -0.03900
C 	C 	0.01970 0.79792 0.08280 -0.04300
C 	C 	0.12490 0.81690 0.02880 -0.04000
C 	C 	0.12050 0.70020 0.04120 -0.04900
C 	C 	0.04260 0.71650 0.95310 -0.03400
C 	C 	0.74540 0.96270 0.79350 -0.03700
C 	C 	0.60840 0.00059 0.68110 -0.05600
C 	C 	0.72010 0.96680 0.67520 -0.05100
C 	C 	0.63470 0.93870 0.75480 -0.03500
C 	C 	0.31260 0.76850 0.12440 -0.25400
C 	C 	0.33270 0.72850 0.14870 0.19500
C 	C 	0.26400 0.83490 0.15020 -0.23000
C 	C 	0.22670 0.85910 0.19450 0.18700
C 	C 	0.34460 0.80810 0.22020 -0.21200
C 	C 	0.33800 0.78030 0.27940 0.15900
C 	C 	0.13320 0.68250 0.34900 -0.20300
C 	C 	0.14720 0.70180 0.28300 0.15200
C 	C 	0.16130 0.70430 0.45460 -0.23700
C 	C 	0.13480 0.74650 0.45320 0.20200
C 	C 	0.22860 0.65380 0.39710 -0.25200
C 	C 	0.26340 0.64450 0.33560 0.24000
C 	C 	0.98230 0.88340 0.74880 -0.24300
C 	C 	0.92390 0.90400 0.77220 0.17500
C 	C 	0.06580 0.87710 0.83400 -0.21100
C 	C 	0.05150 0.91820 0.86290 0.15300
C 	C 	0.02990 0.81570 0.77850 -0.33400
C 	C 	0.97630 0.78900 0.76400 0.33600
C 	C 	0.80150 0.87770 0.00030 -0.23400
C 	C 	0.86530 0.86400 0.98450 0.13700
C 	C 	0.78240 0.95000 0.96850 -0.22400
C 	C 	0.85170 0.96410 0.98570 0.17000
C 	C 	0.70580 0.89930 0.93690 -0.27700
C 	C 	0.69870 0.85920 0.90380 0.26200
C 	C 	0.43520 0.92043 0.64230 0.13900
C 	C 	0.49770 0.90290 0.63080 -0.23300
C 	C 	0.63370 0.91293 0.52810 0.17300
C 	C 	0.59110 0.89790 0.57630 -0.22200
C 	C 	0.49110 0.89840 0.51390 -0.28400
C 	C 	0.46260 0.93142 0.47350 0.26000
C 	C 	0.36850 0.25770 0.88530 -0.00200
C 	C 	0.34920 0.25760 0.04260 -0.02800
C 	C 	0.47780 0.29555 0.04000 -0.00900
C 	C 	0.49460 0.22046 0.92580 -0.03800
C 	C 	0.48030 0.29792 0.91720 -0.04300
C 	C 	0.37510 0.31690 0.97120 -0.03900
C 	C 	0.37950 0.20020 0.95880 -0.04800
C 	C 	0.45740 0.21650 0.04690 -0.03500
C 	C 	0.75460 0.46270 0.20650 -0.04400
C 	C 	0.89160 0.50059 0.31890 -0.04800
C 	C 	0.77990 0.46680 0.32480 -0.05800
C 	C 	0.86530 0.43870 0.24520 -0.03900
C 	C 	0.18740 0.26850 0.87560 -0.25400
C 	C 	0.16730 0.22850 0.85130 0.19500
C 	C 	0.23600 0.33490 0.84980 -0.23000
C 	C 	0.27330 0.35910 0.80550 0.18700
C 	C 	0.15540 0.30810 0.77980 -0.21200
C 	C 	0.16200 0.28030 0.72060 0.15900
C 	C 	0.36680 0.18250 0.65100 -0.20300
C 	C 	0.35280 0.20180 0.71700 0.15200
C 	C 	0.33870 0.20430 0.54540 -0.23700
C 	C 	0.36520 0.24650 0.54680 0.20200
C 	C 	0.27140 0.15380 0.60290 -0.25200
C 	C 	0.23660 0.14450 0.66440 0.24000
C 	C 	0.51770 0.38340 0.25120 -0.24100
C 	C 	0.57610 0.40400 0.22780 0.17500
C 	C 	0.43420 0.37710 0.16600 -0.21200
C 	C 	0.44850 0.41820 0.13710 0.15400
C 	C 	0.47010 0.31570 0.22150 -0.33500
C 	C 	0.52370 0.28900 0.23600 0.33700
C 	C 	0.69850 0.37770 0.99970 -0.23700
C 	C 	0.63470 0.36400 0.01550 0.14100
C 	C 	0.71760 0.45000 0.03150 -0.22300
C 	C 	0.64830 0.46410 0.01430 0.17200
C 	C 	0.79420 0.39930 0.06310 -0.27700
C 	C 	0.80130 0.35920 0.09620 0.26200
C 	C 	0.06480 0.42043 0.35770 0.14100
C 	C 	0.00230 0.40290 0.36920 -0.23500
C 	C 	0.86630 0.41293 0.47190 0.17400
C 	C 	0.90890 0.39790 0.42370 -0.22300
C 	C 	0.00890 0.39840 0.48610 -0.28600
C 	C 	0.03740 0.43142 0.52650 0.26300
C 	C 	0.13150 0.24230 0.38530 -0.00200
C 	C 	0.15080 0.24240 0.54260 -0.02800
C 	C 	0.02220 0.20445 0.54000 -0.00900
C 	C 	0.00540 0.27954 0.42580 -0.03900
C 	C 	0.01970 0.20208 0.41720 -0.04300
C 	C 	0.12490 0.18310 0.47120 -0.04000
C 	C 	0.12050 0.29980 0.45880 -0.04800
C 	C 	0.04260 0.28350 0.54690 -0.03500
C 	C 	0.74540 0.03730 0.70650 -0.04400
C 	C 	0.60840 0.99941 0.81890 -0.03300
C 	C 	0.72010 0.03320 0.82480 -0.06000
C 	C 	0.63470 0.06130 0.74520 -0.03800
C 	C 	0.31260 0.23150 0.37560 -0.25400
C 	C 	0.33270 0.27150 0.35130 0.19500
C 	C 	0.26400 0.16510 0.34980 -0.23000
C 	C 	0.22670 0.14090 0.30550 0.18800
C 	C 	0.34460 0.19190 0.27980 -0.21200
C 	C 	0.33800 0.21970 0.22060 0.15900
C 	C 	0.13320 0.31750 0.15100 -0.20300
C 	C 	0.14720 0.29820 0.21700 0.15200
C 	C 	0.16130 0.29570 0.04540 -0.23700
C 	C 	0.13480 0.25350 0.04680 0.20200
C 	C 	0.22860 0.34620 0.10290 -0.25200
C 	C 	0.26340 0.35550 0.16440 0.24000
C 	C 	0.98230 0.11660 0.75120 -0.24300
C 	C 	0.92390 0.09600 0.72780 0.17700
C 	C 	0.06580 0.12290 0.66600 -0.21300
C 	C 	0.05150 0.08180 0.63710 0.15600
C 	C 	0.02990 0.18430 0.72150 -0.33400
C 	C 	0.97630 0.21100 0.73600 0.33700
C 	C 	0.80150 0.12230 0.49970 -0.23500
C 	C 	0.86530 0.13600 0.51550 0.13900
C 	C 	0.78240 0.05000 0.53150 -0.22300
C 	C 	0.85170 0.03590 0.51430 0.17300
C 	C 	0.70580 0.10070 0.56310 -0.27600
C 	C 	0.69870 0.14080 0.59620 0.26200
C 	C 	0.43520 0.07957 0.85770 0.14100
C 	C 	0.49770 0.09710 0.86920 -0.23400
C 	C 	0.63370 0.08707 0.97190 0.17300
C 	C 	0.59110 0.10210 0.92370 -0.22200
C 	C 	0.49110 0.10160 0.98610 -0.28900
C 	C 	0.46260 0.06858 0.02650 0.26700
C 	C 	0.63150 0.25770 0.38530 -0.00200
C 	C 	0.65080 0.25760 0.54260 -0.02800
C 	C 	0.52220 0.29555 0.54000 -0.00900
C 	C 	0.50540 0.22046 0.42580 -0.03800
C 	C 	0.51970 0.29792 0.41720 -0.04300
C 	C 	0.62490 0.31690 0.47120 -0.04000
C 	C 	0.62050 0.20020 0.45880 -0.04800
C 	C 	0.54260 0.21650 0.54690 -0.03500
C 	C 	0.24540 0.46270 0.70650 -0.04400
C 	C 	0.10840 0.50059 0.81890 -0.04800
C 	C 	0.22010 0.46680 0.82480 -0.05800
C 	C 	0.13470 0.43870 0.74520 -0.03900
C 	C 	0.81260 0.26850 0.37560 -0.25400
C 	C 	0.83270 0.22850 0.35130 0.19500
C 	C 	0.76400 0.33490 0.34980 -0.23000
C 	C 	0.72670 0.35910 0.30550 0.18700
C 	C 	0.84460 0.30810 0.27980 -0.21200
C 	C 	0.83800 0.28030 0.22060 0.15900
C 	C 	0.63320 0.18250 0.15100 -0.20300
C 	C 	0.64720 0.20180 0.21700 0.15200
C 	C 	0.66130 0.20430 0.04540 -0.23700
C 	C 	0.63480 0.24650 0.04680 0.20200
C 	C 	0.72860 0.15380 0.10290 -0.25200
C 	C 	0.76340 0.14450 0.16440 0.24000
C 	C 	0.48230 0.38340 0.75120 -0.24100
C 	C 	0.42390 0.40400 0.72780 0.17500
C 	C 	0.56580 0.37710 0.66600 -0.21200
C 	C 	0.55150 0.41820 0.63710 0.15400
C 	C 	0.52990 0.31570 0.72150 -0.33500
C 	C 	0.47630 0.28900 0.73600 0.33700
C 	C 	0.30150 0.37770 0.49970 -0.23500
C 	C 	0.36530 0.36400 0.51550 0.13900
C 	C 	0.28240 0.45000 0.53150 -0.22300
C 	C 	0.35170 0.46410 0.51430 0.17200
C 	C 	0.20580 0.39930 0.56310 -0.27600
C 	C 	0.19870 0.35920 0.59620 0.26200
C 	C 	0.93520 0.42043 0.85770 0.14100
C 	C 	0.99770 0.40290 0.86920 -0.23600
C 	C 	0.13370 0.41293 0.97190 0.17600
C 	C 	0.09110 0.39790 0.92370 -0.22400
C 	C 	0.99110 0.39840 0.98610 -0.28900
C 	C 	0.96260 0.43142 0.02650 0.26600
C 	C 	0.86850 0.24230 0.88530 -0.00200
C 	C 	0.84920 0.24240 0.04260 -0.02700
C 	C 	0.97780 0.20445 0.04000 -0.00800
C 	C 	0.99460 0.27954 0.92580 -0.03900
C 	C 	0.98030 0.20208 0.91720 -0.04400
C 	C 	0.87510 0.18310 0.97120 -0.04000
C 	C 	0.87950 0.29980 0.95880 -0.04900
C 	C 	0.95740 0.28350 0.04690 -0.03400
C 	C 	0.25460 0.03730 0.20650 -0.04400
C 	C 	0.39160 0.99941 0.31890 -0.03400
C 	C 	0.27990 0.03320 0.32480 -0.06000
C 	C 	0.36530 0.06130 0.24520 -0.03800
C 	C 	0.68740 0.23150 0.87560 -0.25400
C 	C 	0.66730 0.27150 0.85130 0.19500
C 	C 	0.73600 0.16510 0.84980 -0.23000
C 	C 	0.77330 0.14090 0.80550 0.18800
C 	C 	0.65540 0.19190 0.77980 -0.21200
C 	C 	0.66200 0.21970 0.72060 0.15900
C 	C 	0.86680 0.31750 0.65100 -0.20300
C 	C 	0.85280 0.29820 0.71700 0.15200
C 	C 	0.83870 0.29570 0.54540 -0.23700
C 	C 	0.86520 0.25350 0.54680 0.20200
C 	C 	0.77140 0.34620 0.60290 -0.25200
C 	C 	0.73660 0.35550 0.66440 0.24000
C 	C 	0.01770 0.11660 0.25120 -0.24300
C 	C 	0.07610 0.09600 0.22780 0.17700
C 	C 	0.93420 0.12290 0.16600 -0.21300
C 	C 	0.94850 0.08180 0.13710 0.15500
C 	C 	0.97010 0.18430 0.22150 -0.33400
C 	C 	0.02370 0.21100 0.23600 0.33600
C 	C 	0.19850 0.12230 0.99970 -0.23300
C 	C 	0.13470 0.13600 0.01550 0.13700
C 	C 	0.21760 0.05000 0.03150 -0.22300
C 	C 	0.14830 0.03590 0.01430 0.17200
C 	C 	0.29420 0.10070 0.06310 -0.27600
C 	C 	0.30130 0.14080 0.09620 0.26200
C 	C 	0.56480 0.07957 0.35770 0.14100
C 	C 	0.50230 0.09710 0.36920 -0.23400
C 	C 	0.36630 0.08707 0.47190 0.17400
C 	C 	0.40890 0.10210 0.42370 -0.22300
C 	C 	0.50890 0.10160 0.48610 -0.28700
C 	C 	0.53740 0.06858 0.52650 0.26600
C 	C 	0.63150 0.74230 0.11470 -0.00200
C 	C 	0.65080 0.74240 0.95740 -0.02800
C 	C 	0.52220 0.70445 0.96000 -0.00900
C 	C 	0.50540 0.77954 0.07420 -0.03800
C 	C 	0.51970 0.70208 0.08280 -0.04300
C 	C 	0.62490 0.68310 0.02880 -0.03900
C 	C 	0.62050 0.79980 0.04120 -0.04800
C 	C 	0.54260 0.78350 0.95310 -0.03500
C 	C 	0.24540 0.53730 0.79350 -0.04400
C 	C 	0.10840 0.49941 0.68110 -0.04800
C 	C 	0.22010 0.53320 0.67520 -0.05800
C 	C 	0.13470 0.56130 0.75480 -0.03900
C 	C 	0.81260 0.73150 0.12440 -0.25400
C 	C 	0.83270 0.77150 0.14870 0.19500
C 	C 	0.76400 0.66510 0.15020 -0.23000
C 	C 	0.72670 0.64090 0.19450 0.18700
C 	C 	0.84460 0.69190 0.22020 -0.21200
C 	C 	0.83800 0.71970 0.27940 0.15900
C 	C 	0.63320 0.81750 0.34900 -0.20300
C 	C 	0.64720 0.79820 0.28300 0.15200
C 	C 	0.66130 0.79570 0.45460 -0.23700
C 	C 	0.63480 0.75350 0.45320 0.20200
C 	C 	0.72860 0.84620 0.39710 -0.25200
C 	C 	0.76340 0.85550 0.33560 0.23900
C 	C 	0.48230 0.61660 0.74880 -0.24100
C 	C 	0.42390 0.59600 0.77220 0.17500
C 	C 	0.56580 0.62290 0.83400 -0.21200
C 	C 	0.55150 0.58180 0.86290 0.15400
C 	C 	0.52990 0.68430 0.77850 -0.33500
C 	C 	0.47630 0.71100 0.76400 0.33700
C 	C 	0.30150 0.62230 0.00030 -0.23700
C 	C 	0.36530 0.63600 0.98450 0.14100
C 	C 	0.28240 0.55000 0.96850 -0.22300
C 	C 	0.35170 0.53590 0.98570 0.17200
C 	C 	0.20580 0.60070 0.93690 -0.27700
C 	C 	0.19870 0.64080 0.90380 0.26200
C 	C 	0.93520 0.57957 0.64230 0.14100
C 	C 	0.99770 0.59710 0.63080 -0.23500
C 	C 	0.13370 0.58707 0.52810 0.17400
C 	C 	0.09110 0.60210 0.57630 -0.22300
C 	C 	0.99110 0.60160 0.51390 -0.28600
C 	C 	0.96260 0.56858 0.47350 0.26300
C 	C 	0.86850 0.75770 0.61470 -0.00200
C 	C 	0.84920 0.75760 0.45740 -0.02800
C 	C 	0.97780 0.79555 0.46000 -0.00900
C 	C 	0.99460 0.72046 0.57420 -0.03900
C 	C 	0.98030 0.79792 0.58280 -0.04300
C 	C 	0.87510 0.81690 0.52880 -0.03900
C 	C 	0.87950 0.70020 0.54120 -0.04800
C 	C 	0.95740 0.71650 0.45310 -0.03500
C 	C 	0.25460 0.96270 0.29350 -0.03800
C 	C 	0.39160 0.00059 0.18110 -0.05500
C 	C 	0.27990 0.96680 0.17520 -0.05200
C 	C 	0.36530 0.93870 0.25480 -0.03500
C 	C 	0.68740 0.76850 0.62440 -0.25400
C 	C 	0.66730 0.72850 0.64870 0.19500
C 	C 	0.73600 0.83490 0.65020 -0.23000
C 	C 	0.77330 0.85910 0.69450 0.18700
C 	C 	0.65540 0.80810 0.72020 -0.21200
C 	C 	0.66200 0.78030 0.77940 0.15900
C 	C 	0.86680 0.68250 0.84900 -0.20300
C 	C 	0.85280 0.70180 0.78300 0.15200
C 	C 	0.83870 0.70430 0.95460 -0.23700
C 	C 	0.86520 0.74650 0.95320 0.20200
C 	C 	0.77140 0.65380 0.89710 -0.25200
C 	C 	0.73660 0.64450 0.83560 0.24000
C 	C 	0.01770 0.88340 0.24880 -0.24300
C 	C 	0.07610 0.90400 0.27220 0.17500
C 	C 	0.93420 0.87710 0.33400 -0.21200
C 	C 	0.94850 0.91820 0.36290 0.15300
C 	C 	0.97010 0.81570 0.27850 -0.33400
C 	C 	0.02370 0.78900 0.26400 0.33600
C 	C 	0.19850 0.87770 0.50030 -0.23500
C 	C 	0.13470 0.86400 0.48450 0.13900
C 	C 	0.21760 0.95000 0.46850 -0.22400
C 	C 	0.14830 0.96410 0.48570 0.17000
C 	C 	0.29420 0.89930 0.43690 -0.27700
C 	C 	0.30130 0.85920 0.40380 0.26200
C 	C 	0.56480 0.92043 0.14230 0.13900
C 	C 	0.50230 0.90290 0.13080 -0.23300
C 	C 	0.36630 0.91293 0.02810 0.17200
C 	C 	0.40890 0.89790 0.07630 -0.22100
C 	C 	0.50890 0.89840 0.01390 -0.28500
C 	C 	0.53740 0.93142 0.97350 0.26100
N 	N 	0.33850 0.74245 0.65810 -0.20500
N 	N 	0.30820 0.74119 0.41900 -0.18500
N 	N 	0.50620 0.68362 0.42600 -0.19300
N 	N 	0.53520 0.79730 0.59760 -0.11100
N 	N 	0.51510 0.67870 0.61010 -0.09500
N 	N 	0.34900 0.65121 0.52620 -0.09300
N 	N 	0.35460 0.83029 0.55100 -0.10400
N 	N 	0.47570 0.80338 0.41430 -0.09800
N 	N 	0.71570 0.56031 0.31980 -0.19300
N 	N 	0.92380 0.50147 0.13490 -0.18500
N 	N 	0.75820 0.54864 0.12870 -0.09600
N 	N 	0.89140 0.59383 0.25990 -0.09800
N 	N 	0.20990 0.70057 0.67760 -0.09700
N 	N 	0.31290 0.80818 0.89150 -0.10300
N 	N 	0.48870 0.64135 0.29990 -0.08700
N 	N 	0.72630 0.59263 0.45160 -0.10300
N 	N 	0.97060 0.58235 0.06710 -0.10700
N 	N 	0.16150 0.75755 0.15810 -0.20500
N 	N 	0.19180 0.75881 0.91900 -0.18600
N 	N 	0.99380 0.81638 0.92600 -0.19500
N 	N 	0.96480 0.70270 0.09760 -0.11100
N 	N 	0.98490 0.82130 0.11010 -0.09400
N 	N 	0.15100 0.84879 0.02620 -0.09300
N 	N 	0.14540 0.66971 0.05100 -0.10400
N 	N 	0.02430 0.69662 0.91430 -0.09800
N 	N 	0.78430 0.93969 0.81980 -0.19400
N 	N 	0.57620 0.99853 0.63490 -0.17800
N 	N 	0.74180 0.95136 0.62870 -0.09600
N 	N 	0.60860 0.90617 0.75990 -0.09800
N 	N 	0.29010 0.79943 0.17760 -0.09700
N 	N 	0.18710 0.69182 0.39150 -0.10300
N 	N 	0.01130 0.85865 0.79990 -0.08700
N 	N 	0.77370 0.90737 0.95160 -0.10300
N 	N 	0.52940 0.91765 0.56710 -0.10900
N 	N 	0.33850 0.25755 0.84190 -0.20500
N 	N 	0.30820 0.25881 0.08100 -0.18500
N 	N 	0.50620 0.31638 0.07400 -0.19300
N 	N 	0.53520 0.20270 0.90240 -0.11100
N 	N 	0.51510 0.32130 0.88990 -0.09500
N 	N 	0.34900 0.34879 0.97380 -0.09300
N 	N 	0.35460 0.16971 0.94900 -0.10400
N 	N 	0.47570 0.19662 0.08570 -0.09800
N 	N 	0.71570 0.43969 0.18020 -0.19300
N 	N 	0.92380 0.49853 0.36510 -0.18500
N 	N 	0.75820 0.45136 0.37130 -0.09600
N 	N 	0.89140 0.40617 0.24010 -0.09800
N 	N 	0.20990 0.29943 0.82240 -0.09700
N 	N 	0.31290 0.19182 0.60850 -0.10300
N 	N 	0.48870 0.35865 0.20010 -0.08700
N 	N 	0.72630 0.40737 0.04840 -0.10300
N 	N 	0.97060 0.41765 0.43290 -0.10800
N 	N 	0.16150 0.24245 0.34190 -0.20500
N 	N 	0.19180 0.24119 0.58100 -0.18500
N 	N 	0.99380 0.18362 0.57400 -0.19400
N 	N 	0.96480 0.29730 0.40240 -0.11100
N 	N 	0.98490 0.17870 0.38990 -0.09500
N 	N 	0.15100 0.15121 0.47380 -0.09400
N 	N 	0.14540 0.33029 0.44900 -0.10400
N 	N 	0.02430 0.30338 0.58570 -0.09800
N 	N 	0.78430 0.06031 0.68020 -0.19400
N 	N 	0.57620 0.00147 0.86510 -0.19300
N 	N 	0.74180 0.04864 0.87130 -0.09700
N 	N 	0.60860 0.09383 0.74010 -0.09800
N 	N 	0.29010 0.20057 0.32240 -0.09700
N 	N 	0.18710 0.30818 0.10850 -0.10300
N 	N 	0.01130 0.14135 0.70010 -0.08700
N 	N 	0.77370 0.09263 0.54840 -0.10300
N 	N 	0.52940 0.08235 0.93290 -0.10800
N 	N 	0.66150 0.25755 0.34190 -0.20500
N 	N 	0.69180 0.25881 0.58100 -0.18500
N 	N 	0.49380 0.31638 0.57400 -0.19300
N 	N 	0.46480 0.20270 0.40240 -0.11100
N 	N 	0.48490 0.32130 0.38990 -0.09500
N 	N 	0.65100 0.34879 0.47380 -0.09300
N 	N 	0.64540 0.16971 0.44900 -0.10400
N 	N 	0.52430 0.19662 0.58570 -0.09800
N 	N 	0.28430 0.43969 0.68020 -0.19300
N 	N 	0.07620 0.49853 0.86510 -0.18500
N 	N 	0.24180 0.45136 0.87130 -0.09600
N 	N 	0.10860 0.40617 0.74010 -0.09800
N 	N 	0.79010 0.29943 0.32240 -0.09700
N 	N 	0.68710 0.19182 0.10850 -0.10300
N 	N 	0.51130 0.35865 0.70010 -0.08700
N 	N 	0.27370 0.40737 0.54840 -0.10300
N 	N 	0.02940 0.41765 0.93290 -0.10700
N 	N 	0.83850 0.24245 0.84190 -0.20500
N 	N 	0.80820 0.24119 0.08100 -0.18600
N 	N 	0.00620 0.18362 0.07400 -0.19500
N 	N 	0.03520 0.29730 0.90240 -0.11100
N 	N 	0.01510 0.17870 0.88990 -0.09500
N 	N 	0.84900 0.15121 0.97380 -0.09400
N 	N 	0.85460 0.33029 0.94900 -0.10400
N 	N 	0.97570 0.30338 0.08570 -0.09800
N 	N 	0.21570 0.06031 0.18020 -0.19400
N 	N 	0.42380 0.00147 0.36510 -0.19200
N 	N 	0.25820 0.04864 0.37130 -0.09700
N 	N 	0.39140 0.09383 0.24010 -0.09800
N 	N 	0.70990 0.20057 0.82240 -0.09700
N 	N 	0.81290 0.30818 0.60850 -0.10300
N 	N 	0.98870 0.14135 0.20010 -0.08700
N 	N 	0.22630 0.09263 0.04840 -0.10300
N 	N 	0.47060 0.08235 0.43290 -0.10800
N 	N 	0.66150 0.74245 0.15810 -0.20500
N 	N 	0.69180 0.74119 0.91900 -0.18500
N 	N 	0.49380 0.68362 0.92600 -0.19300
N 	N 	0.46480 0.79730 0.09760 -0.11100
N 	N 	0.48490 0.67870 0.11010 -0.09500
N 	N 	0.65100 0.65121 0.02620 -0.09300
N 	N 	0.64540 0.83029 0.05100 -0.10400
N 	N 	0.52430 0.80338 0.91430 -0.09800
N 	N 	0.28430 0.56031 0.81980 -0.19300
N 	N 	0.07620 0.50147 0.63490 -0.18500
N 	N 	0.24180 0.54864 0.62870 -0.09600
N 	N 	0.10860 0.59383 0.75990 -0.09800
N 	N 	0.79010 0.70057 0.17760 -0.09700
N 	N 	0.68710 0.80818 0.39150 -0.10300
N 	N 	0.51130 0.64135 0.79990 -0.08700
N 	N 	0.27370 0.59263 0.95160 -0.10300
N 	N 	0.02940 0.58235 0.56710 -0.10800
N 	N 	0.83850 0.75755 0.65810 -0.20500
N 	N 	0.80820 0.75881 0.41900 -0.18500
N 	N 	0.00620 0.81638 0.42600 -0.19400
N 	N 	0.03520 0.70270 0.59760 -0.11100
N 	N 	0.01510 0.82130 0.61010 -0.09500
N 	N 	0.84900 0.84879 0.52620 -0.09300
N 	N 	0.85460 0.66971 0.55100 -0.10400
N 	N 	0.97570 0.69662 0.41430 -0.09800
N 	N 	0.21570 0.93969 0.31980 -0.19400
N 	N 	0.42380 0.99853 0.13490 -0.17900
N 	N 	0.25820 0.95136 0.12870 -0.09600
N 	N 	0.39140 0.90617 0.25990 -0.09800
N 	N 	0.70990 0.79943 0.67760 -0.09700
N 	N 	0.81290 0.69182 0.89150 -0.10300
N 	N 	0.98870 0.85865 0.29990 -0.08700
N 	N 	0.22630 0.90737 0.45160 -0.10300
N 	N 	0.47060 0.91765 0.06710 -0.10900
O 	O 	0.22470 0.71904 0.79990 -0.46200
O 	O 	0.21450 0.78750 0.69300 -0.47000
O 	O 	0.32160 0.66530 0.72340 -0.45700
O 	O 	0.32889 0.75846 0.79250 -0.46700
O 	O 	0.31910 0.72502 0.93170 -0.46500
O 	O 	0.20530 0.82026 0.81610 -0.48100
O 	O 	0.61450 0.62218 0.30940 -0.47700
O 	O 	0.56380 0.71407 0.31320 -0.51000
O 	O 	0.49430 0.59527 0.40760 -0.36900
O 	O 	0.63310 0.64838 0.41850 -0.46600
O 	O 	0.61430 0.54159 0.42630 -0.50800
O 	O 	0.76330 0.64368 0.35170 -0.49000
O 	O 	0.07180 0.53600 0.13780 -0.33600
O 	O 	0.86710 0.54255 0.02060 -0.44200
O 	O 	0.00570 0.53353 0.96630 -0.48600
O 	O 	0.27530 0.78096 0.29990 -0.46200
O 	O 	0.28550 0.71250 0.19300 -0.47000
O 	O 	0.17840 0.83470 0.22340 -0.45700
O 	O 	0.17111 0.74154 0.29250 -0.46700
O 	O 	0.18090 0.77498 0.43170 -0.46500
O 	O 	0.29470 0.67974 0.31610 -0.48200
O 	O 	0.88550 0.87782 0.80940 -0.47700
O 	O 	0.93620 0.78593 0.81320 -0.51000
O 	O 	0.00570 0.90473 0.90760 -0.36800
O 	O 	0.86690 0.85162 0.91850 -0.46600
O 	O 	0.88570 0.95841 0.92630 -0.50600
O 	O 	0.73670 0.85632 0.85170 -0.49000
O 	O 	0.42820 0.96400 0.63780 -0.33300
O 	O 	0.63290 0.95745 0.52060 -0.44100
O 	O 	0.49430 0.96647 0.46630 -0.48200
O 	O 	0.22470 0.28096 0.70010 -0.46200
O 	O 	0.21450 0.21250 0.80700 -0.47000
O 	O 	0.32160 0.33470 0.77660 -0.45700
O 	O 	0.32889 0.24154 0.70750 -0.46700
O 	O 	0.31910 0.27498 0.56830 -0.46500
O 	O 	0.20530 0.17974 0.68390 -0.48200
O 	O 	0.61450 0.37782 0.19060 -0.47700
O 	O 	0.56380 0.28593 0.18680 -0.51000
O 	O 	0.49430 0.40473 0.09240 -0.36900
O 	O 	0.63310 0.35162 0.08150 -0.46600
O 	O 	0.61430 0.45841 0.07370 -0.50800
O 	O 	0.76330 0.35632 0.14830 -0.49000
O 	O 	0.07180 0.46400 0.36220 -0.33500
O 	O 	0.86710 0.45745 0.47940 -0.44200
O 	O 	0.00570 0.46647 0.53370 -0.48600
O 	O 	0.27530 0.21904 0.20010 -0.46200
O 	O 	0.28550 0.28750 0.30700 -0.47000
O 	O 	0.17840 0.16530 0.27660 -0.45800
O 	O 	0.17111 0.25846 0.20750 -0.46700
O 	O 	0.18090 0.22502 0.06830 -0.46500
O 	O 	0.29470 0.32026 0.18390 -0.48200
O 	O 	0.88550 0.12218 0.69060 -0.47800
O 	O 	0.93620 0.21407 0.68680 -0.51000
O 	O 	0.00570 0.09527 0.59240 -0.37000
O 	O 	0.86690 0.14838 0.58150 -0.46600
O 	O 	0.88570 0.04159 0.57370 -0.51100
O 	O 	0.73670 0.14368 0.64830 -0.49000
O 	O 	0.42820 0.03600 0.86220 -0.33700
O 	O 	0.63290 0.04255 0.97940 -0.44300
O 	O 	0.49430 0.03353 0.03370 -0.49000
O 	O 	0.77530 0.28096 0.20010 -0.46200
O 	O 	0.78550 0.21250 0.30700 -0.47000
O 	O 	0.67840 0.33470 0.27660 -0.45700
O 	O 	0.67111 0.24154 0.20750 -0.46700
O 	O 	0.68090 0.27498 0.06830 -0.46500
O 	O 	0.79470 0.17974 0.18390 -0.48200
O 	O 	0.38550 0.37782 0.69060 -0.47700
O 	O 	0.43620 0.28593 0.68680 -0.51000
O 	O 	0.50570 0.40473 0.59240 -0.36900
O 	O 	0.36690 0.35162 0.58150 -0.46600
O 	O 	0.38570 0.45841 0.57370 -0.50800
O 	O 	0.23670 0.35632 0.64830 -0.49000
O 	O 	0.92820 0.46400 0.86220 -0.33600
O 	O 	0.13290 0.45745 0.97940 -0.44200
O 	O 	0.99430 0.46647 0.03370 -0.48600
O 	O 	0.72470 0.21904 0.70010 -0.46200
O 	O 	0.71450 0.28750 0.80700 -0.47000
O 	O 	0.82160 0.16530 0.77660 -0.45800
O 	O 	0.82889 0.25846 0.70750 -0.46700
O 	O 	0.81910 0.22502 0.56830 -0.46500
O 	O 	0.70530 0.32026 0.68390 -0.48200
O 	O 	0.11450 0.12218 0.19060 -0.47800
O 	O 	0.06380 0.21407 0.18680 -0.51000
O 	O 	0.99430 0.09527 0.09240 -0.36900
O 	O 	0.13310 0.14838 0.08150 -0.46600
O 	O 	0.11430 0.04159 0.07370 -0.51100
O 	O 	0.26330 0.14368 0.14830 -0.49000
O 	O 	0.57180 0.03600 0.36220 -0.33700
O 	O 	0.36710 0.04255 0.47940 -0.44300
O 	O 	0.50570 0.03353 0.53370 -0.49000
O 	O 	0.77530 0.71904 0.29990 -0.46200
O 	O 	0.78550 0.78750 0.19300 -0.47000
O 	O 	0.67840 0.66530 0.22340 -0.45700
O 	O 	0.67111 0.75846 0.29250 -0.46700
O 	O 	0.68090 0.72502 0.43170 -0.46500
O 	O 	0.79470 0.82026 0.31610 -0.48200
O 	O 	0.38550 0.62218 0.80940 -0.47700
O 	O 	0.43620 0.71407 0.81320 -0.51000
O 	O 	0.50570 0.59527 0.90760 -0.36900
O 	O 	0.36690 0.64838 0.91850 -0.46600
O 	O 	0.38570 0.54159 0.92630 -0.50800
O 	O 	0.23670 0.64368 0.85170 -0.49000
O 	O 	0.92820 0.53600 0.63780 -0.33500
O 	O 	0.13290 0.54255 0.52060 -0.44200
O 	O 	0.99430 0.53353 0.46630 -0.48600
O 	O 	0.72470 0.78096 0.79990 -0.46200
O 	O 	0.71450 0.71250 0.69300 -0.47000
O 	O 	0.82160 0.83470 0.72340 -0.45700
O 	O 	0.82889 0.74154 0.79250 -0.46700
O 	O 	0.81910 0.77498 0.93170 -0.46600
O 	O 	0.70530 0.67974 0.81610 -0.48200
O 	O 	0.11450 0.87782 0.30940 -0.47700
O 	O 	0.06380 0.78593 0.31320 -0.51000
O 	O 	0.99430 0.90473 0.40760 -0.36900
O 	O 	0.13310 0.85162 0.41850 -0.46600
O 	O 	0.11430 0.95841 0.42630 -0.50600
O 	O 	0.26330 0.85632 0.35170 -0.49000
O 	O 	0.57180 0.96400 0.13780 -0.33300
O 	O 	0.36710 0.95745 0.02060 -0.44000
O 	O 	0.50570 0.96647 0.96630 -0.48200
