data_crystal

_cell_length_a 69.29800
_cell_length_b 69.30550
_cell_length_c 69.30130
_cell_angle_alpha 89.64940
_cell_angle_beta  92.91930
_cell_angle_gamma 90.43360

_symmetry_space_group_name_	'P 1'
_symmetry_space_group_name_H-M	'P 1'

loop_
_symmetry_equiv_pos_as_xyz
  x,y,z

loop_
_atom_site_label
_atom_site_type_symbol
_atom_site_fract_x
_atom_site_fract_y
_atom_site_fract_z
_atom_site_charge
Zn	Zn	0.51906 0.48425 0.50412 1.21100
Zn	Zn	0.51919 0.52957 0.50390 1.21100
Zn	Zn	0.48602 0.50680 0.48031 1.21100
Zn	Zn	0.48693 0.50673 0.52565 1.21100
O 	O 	0.50280 0.50684 0.50350 -0.97300
O 	O 	0.54633 0.49035 0.50468 -0.47000
O 	O 	0.51442 0.54587 0.48165 -0.47600
O 	O 	0.48986 0.48466 0.46432 -0.47400
O 	O 	0.54642 0.52375 0.50455 -0.47000
O 	O 	0.51421 0.46798 0.48201 -0.47700
O 	O 	0.49001 0.52897 0.46410 -0.47600
O 	O 	0.45888 0.50668 0.48541 -0.47100
O 	O 	0.49141 0.48457 0.54210 -0.47600
O 	O 	0.45955 0.50664 0.51883 -0.47100
O 	O 	0.51536 0.46808 0.52633 -0.47500
O 	O 	0.51556 0.54566 0.52598 -0.47500
O 	O 	0.49154 0.52887 0.54192 -0.47600
C 	C 	0.44974 0.50665 0.50184 0.30800
C 	C 	0.50367 0.54360 0.54030 0.31500
C 	C 	0.50349 0.46998 0.54062 0.31600
C 	C 	0.55584 0.50709 0.50466 0.30700
C 	C 	0.50190 0.46995 0.46687 0.31600
C 	C 	0.50211 0.54379 0.46652 0.31600
H 	H 	0.98424 0.25845 0.26782 0.05000
C 	C 	0.99490 0.24387 0.24354 0.04000
C 	C 	0.00872 0.24405 0.22975 -0.08200
H 	H 	0.00913 0.23232 0.21961 0.05100
C 	C 	0.02265 0.25854 0.22954 0.04000
C 	C 	0.02258 0.27299 0.24333 -0.08200
H 	H 	0.03287 0.28473 0.24283 0.05100
C 	C 	0.00873 0.27312 0.25709 0.04000
C 	C 	0.99501 0.25848 0.25710 -0.08200
C 	C 	0.05630 0.26418 0.21945 -0.02900
H 	H 	0.06066 0.26832 0.23404 0.03500
C 	C 	0.07006 0.26408 0.20565 -0.05000
H 	H 	0.08476 0.26839 0.20956 0.04300
C 	C 	0.06518 0.25841 0.18697 0.02600
C 	C 	0.04640 0.25284 0.18221 -0.05000
H 	H 	0.04240 0.24847 0.16759 0.04300
C 	C 	0.03261 0.25288 0.19597 -0.02900
H 	H 	0.01795 0.24879 0.19168 0.03500
C 	C 	0.03740 0.25855 0.21477 -0.00900
C 	C 	0.97444 0.22077 0.26126 -0.02900
H 	H 	0.98109 0.22568 0.27480 0.03600
C 	C 	0.96035 0.20656 0.26159 -0.05000
H 	H 	0.95601 0.20084 0.27527 0.04300
C 	C 	0.95177 0.19964 0.24460 0.02600
C 	C 	0.95752 0.20695 0.22722 -0.05000
H 	H 	0.95082 0.20166 0.21383 0.04300
C 	C 	0.97165 0.22114 0.22683 -0.02900
H 	H 	0.97554 0.22693 0.21303 0.03500
C 	C 	0.98019 0.22829 0.24386 -0.00900
C 	C 	0.99108 0.29612 0.27716 -0.02900
H 	H 	0.97753 0.29117 0.27046 0.03600
C 	C 	0.99076 0.31027 0.29111 -0.05000
H 	H 	0.97709 0.31590 0.29530 0.04300
C 	C 	0.00775 0.31724 0.29975 0.02600
C 	C 	0.02512 0.31005 0.29418 -0.05000
H 	H 	0.03851 0.31537 0.30092 0.04300
C 	C 	0.02550 0.29591 0.28018 -0.02900
H 	H 	0.03928 0.29021 0.27643 0.03500
C 	C 	0.00845 0.28869 0.27161 -0.00900
C 	C 	0.93682 0.18502 0.24508 -0.02100
C 	C 	0.92425 0.17282 0.24561 -0.01700
C 	C 	0.07958 0.25829 0.17256 -0.02100
C 	C 	0.09161 0.25816 0.16047 -0.01700
C 	C 	0.00726 0.33177 0.31458 -0.02100
C 	C 	0.00666 0.34390 0.32704 -0.01700
C 	C 	0.90774 0.14393 0.23262 -0.04300
H 	H 	0.91785 0.14356 0.22126 0.04100
C 	C 	0.89338 0.13002 0.23336 -0.04000
H 	H 	0.89231 0.11881 0.22256 0.04100
C 	C 	0.88039 0.13035 0.24782 0.01600
C 	C 	0.88188 0.14472 0.26155 -0.04000
H 	H 	0.87178 0.14509 0.27292 0.04100
C 	C 	0.89625 0.15864 0.26081 -0.04300
H 	H 	0.89732 0.16983 0.27161 0.04100
C 	C 	0.90923 0.15830 0.24635 0.02000
C 	C 	0.01962 0.37278 0.34354 -0.04300
H 	H 	0.03116 0.37328 0.33363 0.04100
C 	C 	0.01874 0.38662 0.35777 -0.04000
H 	H 	0.02960 0.39789 0.35891 0.04100
C 	C 	0.00404 0.38614 0.37050 0.01600
C 	C 	0.99023 0.37169 0.36890 -0.04000
H 	H 	0.97867 0.37120 0.37880 0.04100
C 	C 	0.99111 0.35784 0.35468 -0.04300
H 	H 	0.98023 0.34659 0.35351 0.04100
C 	C 	0.00581 0.35833 0.34194 0.02000
C 	C 	0.10490 0.24449 0.13142 -0.04300
H 	H 	0.09328 0.23398 0.13079 0.04100
C 	C 	0.11861 0.24435 0.11758 -0.04000
H 	H 	0.11766 0.23372 0.10621 0.04100
C 	C 	0.13352 0.25771 0.11821 0.01600
C 	C 	0.13459 0.27122 0.13281 -0.04000
H 	H 	0.14620 0.28174 0.13343 0.04100
C 	C 	0.12087 0.27137 0.14665 -0.04300
H 	H 	0.12182 0.28199 0.15801 0.04100
C 	C 	0.10596 0.25800 0.14602 0.02000
C 	C 	0.86541 0.11578 0.24857 -0.01100
C 	C 	0.85293 0.10350 0.24907 -0.03000
C 	C 	0.14786 0.25757 0.10374 -0.01100
C 	C 	0.15989 0.25749 0.09164 -0.03000
C 	C 	0.00313 0.40065 0.38531 -0.01100
C 	C 	0.00250 0.41290 0.39764 -0.03000
C 	C 	0.82313 0.09017 0.26172 -0.08000
H 	H 	0.82245 0.10246 0.27119 0.05100
C 	C 	0.80894 0.07602 0.26195 0.02800
H 	H 	0.79735 0.07755 0.27167 0.03400
C 	C 	0.80960 0.06020 0.24986 -0.10200
C 	C 	0.82471 0.05882 0.23761 0.02800
H 	H 	0.82571 0.04671 0.22798 0.03500
C 	C 	0.83885 0.07299 0.23743 -0.08000
H 	H 	0.85054 0.07175 0.22778 0.05100
C 	C 	0.83813 0.08872 0.24945 0.05000
C 	C 	0.19004 0.26971 0.07889 -0.08000
H 	H 	0.19163 0.27938 0.09105 0.05100
C 	C 	0.20382 0.26972 0.06513 0.02700
H 	H 	0.21598 0.27951 0.06686 0.03400
C 	C 	0.20202 0.25742 0.04943 -0.10200
C 	C 	0.18616 0.24511 0.04782 0.02700
H 	H 	0.18428 0.23533 0.03578 0.03400
C 	C 	0.17241 0.24515 0.06163 -0.08000
H 	H 	0.16011 0.23549 0.06019 0.05100
C 	C 	0.17427 0.25744 0.07722 0.05000
C 	C 	0.98966 0.42601 0.42722 -0.08000
H 	H 	0.98024 0.41356 0.42803 0.05100
C 	C 	0.98934 0.44015 0.44123 0.02700
H 	H 	0.97960 0.43845 0.45282 0.03400
C 	C 	0.00139 0.45616 0.44041 -0.10200
C 	C 	0.01368 0.45775 0.42531 0.02800
H 	H 	0.02329 0.47001 0.42419 0.03500
C 	C 	0.01395 0.44360 0.41136 -0.08000
H 	H 	0.02364 0.44501 0.39969 0.05100
C 	C 	0.00199 0.42767 0.41225 0.05000
H 	H 	0.03072 0.73301 0.24063 0.05000
C 	C 	0.02001 0.75894 0.22718 0.03700
C 	C 	0.00584 0.77309 0.22705 -0.08000
H 	H 	0.00582 0.78432 0.21619 0.05000
C 	C 	0.99174 0.77314 0.24060 0.03700
C 	C 	0.99180 0.75877 0.25455 -0.07700
H 	H 	0.98169 0.75929 0.26588 0.04900
C 	C 	0.00647 0.74376 0.25491 0.03300
C 	C 	0.02024 0.74442 0.24112 -0.07900
C 	C 	0.95805 0.78384 0.24481 -0.03000
H 	H 	0.95386 0.76909 0.24764 0.03500
C 	C 	0.94420 0.79806 0.24530 -0.05000
H 	H 	0.92960 0.79430 0.24876 0.04300
C 	C 	0.94889 0.81702 0.24147 0.02500
C 	C 	0.96754 0.82163 0.23695 -0.05000
H 	H 	0.97137 0.83647 0.23401 0.04300
C 	C 	0.98144 0.80742 0.23641 -0.03000
H 	H 	0.99604 0.81152 0.23333 0.03600
C 	C 	0.97686 0.78837 0.24046 -0.00700
C 	C 	0.05375 0.75431 0.21732 -0.03000
H 	H 	0.05818 0.75080 0.23210 0.03500
C 	C 	0.06749 0.75430 0.20351 -0.05000
H 	H 	0.08225 0.75054 0.20760 0.04300
C 	C 	0.06249 0.75909 0.18457 0.02500
C 	C 	0.04362 0.76396 0.17957 -0.05000
H 	H 	0.03953 0.76765 0.16475 0.04300
C 	C 	0.02984 0.76403 0.19336 -0.03000
H 	H 	0.01510 0.76748 0.18891 0.03600
C 	C 	0.03475 0.75915 0.21241 -0.00700
C 	C 	0.02350 0.72079 0.27771 -0.03000
H 	H 	0.03728 0.72634 0.27347 0.03500
C 	C 	0.02325 0.70660 0.29184 -0.05000
H 	H 	0.03671 0.70108 0.29813 0.04300
C 	C 	0.00594 0.69959 0.29808 0.02500
C 	C 	0.98887 0.70682 0.29003 -0.05000
H 	H 	0.97524 0.70136 0.29478 0.04300
C 	C 	0.98906 0.72103 0.27596 -0.03000
H 	H 	0.97544 0.72619 0.26973 0.03600
C 	C 	0.00638 0.72822 0.26966 -0.00600
C 	C 	0.07687 0.75891 0.17014 -0.02100
C 	C 	0.08894 0.75872 0.15809 -0.01700
C 	C 	0.93440 0.83184 0.24240 -0.02100
C 	C 	0.92214 0.84412 0.24332 -0.01700
C 	C 	0.00562 0.68494 0.31298 -0.02100
C 	C 	0.00521 0.67270 0.32551 -0.01700
C 	C 	0.10309 0.77206 0.12906 -0.04300
H 	H 	0.09199 0.78296 0.12830 0.04100
C 	C 	0.11692 0.77181 0.11534 -0.04000
H 	H 	0.11657 0.78251 0.10392 0.04100
C 	C 	0.13117 0.75796 0.11615 0.01600
C 	C 	0.13146 0.74435 0.13082 -0.04000
H 	H 	0.14256 0.73346 0.13158 0.04100
C 	C 	0.11763 0.74460 0.14454 -0.04300
H 	H 	0.11799 0.73390 0.15596 0.04100
C 	C 	0.10338 0.75846 0.14373 0.02000
C 	C 	0.99062 0.65876 0.35396 -0.04300
H 	H 	0.98010 0.67022 0.35331 0.04100
C 	C 	0.98999 0.64480 0.36827 -0.04000
H 	H 	0.97899 0.64539 0.37876 0.04100
C 	C 	0.00335 0.63010 0.36921 0.01600
C 	C 	0.01735 0.62948 0.35573 -0.04000
H 	H 	0.02785 0.61801 0.35637 0.04100
C 	C 	0.01797 0.64344 0.34142 -0.04300
H 	H 	0.02896 0.64284 0.33093 0.04100
C 	C 	0.00461 0.65814 0.34048 0.02000
C 	C 	0.90656 0.87392 0.23158 -0.04300
H 	H 	0.91699 0.87501 0.22053 0.04100
C 	C 	0.89241 0.88779 0.23269 -0.04000
H 	H 	0.89184 0.89968 0.22251 0.04100
C 	C 	0.87900 0.88653 0.24673 0.01600
C 	C 	0.87986 0.87129 0.25966 -0.04000
H 	H 	0.86941 0.87018 0.27069 0.04100
C 	C 	0.89400 0.85741 0.25855 -0.04300
H 	H 	0.89456 0.84551 0.26871 0.04100
C 	C 	0.90741 0.85866 0.24450 0.02000
C 	C 	0.14563 0.75771 0.10181 -0.01100
C 	C 	0.15773 0.75754 0.08978 -0.03000
C 	C 	0.86421 0.90103 0.24782 -0.01100
C 	C 	0.85189 0.91327 0.24857 -0.03000
C 	C 	0.00271 0.61549 0.38413 -0.01100
C 	C 	0.00227 0.60319 0.39658 -0.03000
C 	C 	0.18768 0.74508 0.07725 -0.08000
H 	H 	0.18910 0.73545 0.08956 0.05100
C 	C 	0.20148 0.74496 0.06348 0.02700
H 	H 	0.21348 0.73516 0.06536 0.03400
C 	C 	0.19990 0.75722 0.04761 -0.10200
C 	C 	0.18424 0.76956 0.04581 0.02700
H 	H 	0.18253 0.77932 0.03363 0.03400
C 	C 	0.17049 0.76962 0.05960 -0.08000
H 	H 	0.15837 0.77932 0.05801 0.05100
C 	C 	0.17213 0.75740 0.07538 0.05000
C 	C 	0.82233 0.92631 0.26151 -0.08000
H 	H 	0.82152 0.91383 0.27088 0.05100
C 	C 	0.80832 0.94043 0.26190 0.02800
H 	H 	0.79673 0.93868 0.27163 0.03400
C 	C 	0.80913 0.95647 0.24991 -0.10200
C 	C 	0.82424 0.95811 0.23763 0.02800
H 	H 	0.82535 0.97040 0.22807 0.03500
C 	C 	0.83819 0.94399 0.23730 -0.08000
H 	H 	0.84985 0.94544 0.22760 0.05100
C 	C 	0.83730 0.92802 0.24919 0.05000
C 	C 	0.01395 0.57271 0.41062 -0.08000
H 	H 	0.02361 0.57148 0.39892 0.05100
C 	C 	0.01379 0.55854 0.42474 0.02800
H 	H 	0.02343 0.54645 0.42374 0.03500
C 	C 	0.00154 0.55990 0.43986 -0.10200
C 	C 	0.98943 0.57569 0.44053 0.02800
H 	H 	0.97971 0.57721 0.45212 0.03400
C 	C 	0.98965 0.58984 0.42635 -0.08000
H 	H 	0.98017 0.60210 0.42705 0.05100
C 	C 	0.00192 0.58841 0.41136 0.05000
H 	H 	0.02183 0.28246 0.74282 0.05100
C 	C 	0.99644 0.27138 0.72788 0.04100
C 	C 	0.98180 0.25764 0.72813 -0.08300
H 	H 	0.97048 0.25763 0.71683 0.05000
C 	C 	0.98157 0.24391 0.74276 0.04100
C 	C 	0.99616 0.24403 0.75718 -0.08300
H 	H 	0.99654 0.23287 0.76813 0.05100
C 	C 	0.01085 0.25767 0.75714 0.04100
C 	C 	0.01088 0.27129 0.74245 -0.08300
C 	C 	0.95856 0.22343 0.76030 -0.02900
H 	H 	0.96343 0.23015 0.77373 0.03500
C 	C 	0.94439 0.20932 0.76065 -0.05100
H 	H 	0.93864 0.20501 0.77424 0.04300
C 	C 	0.93756 0.20068 0.74376 0.02600
C 	C 	0.94490 0.20635 0.72647 -0.05000
H 	H 	0.93967 0.19958 0.71318 0.04300
C 	C 	0.95905 0.22051 0.72606 -0.02900
H 	H 	0.96488 0.22434 0.71238 0.03600
C 	C 	0.96609 0.22913 0.74300 -0.00900
C 	C 	0.01395 0.29186 0.70485 -0.02900
H 	H 	0.02738 0.28516 0.70971 0.03500
C 	C 	0.01428 0.30595 0.69068 -0.05000
H 	H 	0.02787 0.31026 0.68491 0.04300
C 	C 	0.99739 0.31456 0.68387 0.02600
C 	C 	0.98011 0.30888 0.69124 -0.05000
H 	H 	0.96681 0.31563 0.68603 0.04300
C 	C 	0.97971 0.29474 0.70539 -0.02900
H 	H 	0.96604 0.29090 0.71125 0.03600
C 	C 	0.99666 0.28615 0.71241 -0.00900
C 	C 	0.04528 0.26172 0.76839 -0.02900
H 	H 	0.04907 0.26453 0.75371 0.03500
C 	C 	0.05974 0.26169 0.78287 -0.05100
H 	H 	0.07449 0.26475 0.77941 0.04300
C 	C 	0.05548 0.25768 0.80170 0.02600
C 	C 	0.03665 0.25368 0.80599 -0.05100
H 	H 	0.03321 0.25062 0.82074 0.04300
C 	C 	0.02216 0.25365 0.79154 -0.02800
H 	H 	0.00747 0.25084 0.79536 0.03500
C 	C 	0.02633 0.25768 0.77259 -0.00900
C 	C 	0.99788 0.32947 0.66928 -0.02100
C 	C 	0.99842 0.34200 0.65709 -0.01700
C 	C 	0.92298 0.18574 0.74427 -0.02100
C 	C 	0.91080 0.17318 0.74483 -0.01700
C 	C 	0.07059 0.25768 0.81678 -0.02100
C 	C 	0.08326 0.25767 0.82943 -0.01700
C 	C 	0.98504 0.35801 0.62785 -0.04300
H 	H 	0.97334 0.34760 0.62720 0.04100
C 	C 	0.98580 0.37232 0.61391 -0.04000
H 	H 	0.97469 0.37306 0.60241 0.04100
C 	C 	0.00071 0.38567 0.61462 0.01600
C 	C 	0.01484 0.38463 0.62935 -0.04000
H 	H 	0.02655 0.39504 0.62999 0.04100
C 	C 	0.01408 0.37032 0.64329 -0.04300
H 	H 	0.02520 0.36957 0.65478 0.04100
C 	C 	0.99918 0.35696 0.64258 0.02000
C 	C 	0.09758 0.24490 0.85984 -0.04300
H 	H 	0.08560 0.23489 0.86051 0.04100
C 	C 	0.11206 0.24489 0.87430 -0.04000
H 	H 	0.11138 0.23487 0.88626 0.04100
C 	C 	0.12741 0.25764 0.87352 0.01600
C 	C 	0.12819 0.27040 0.85821 -0.04000
H 	H 	0.14017 0.28042 0.85753 0.04100
C 	C 	0.11371 0.27041 0.84374 -0.04300
H 	H 	0.11439 0.28043 0.83178 0.04100
C 	C 	0.09837 0.25766 0.84452 0.02000
C 	C 	0.88157 0.15707 0.73145 -0.04300
H 	H 	0.88092 0.16745 0.71973 0.04100
C 	C 	0.86765 0.14274 0.73222 -0.04000
H 	H 	0.85615 0.14194 0.72111 0.04100
C 	C 	0.86835 0.12943 0.74715 0.01600
C 	C 	0.88308 0.13054 0.76129 -0.04000
H 	H 	0.88371 0.12017 0.77302 0.04100
C 	C 	0.89700 0.14488 0.76052 -0.04300
H 	H 	0.90849 0.14569 0.77164 0.04100
C 	C 	0.89629 0.15819 0.74560 0.02000
C 	C 	0.00149 0.40056 0.60003 -0.01100
C 	C 	0.00201 0.41298 0.58772 -0.03000
C 	C 	0.85377 0.11451 0.74794 -0.01100
C 	C 	0.84147 0.10207 0.74846 -0.03000
C 	C 	0.14251 0.25763 0.88861 -0.01100
C 	C 	0.15518 0.25763 0.90126 -0.03100
C 	C 	0.01490 0.44323 0.57488 -0.08000
H 	H 	0.02450 0.44441 0.58762 0.05100
C 	C 	0.01515 0.45734 0.56069 0.02800
H 	H 	0.02503 0.46939 0.56262 0.03400
C 	C 	0.00287 0.45602 0.54432 -0.10300
C 	C 	0.99041 0.44033 0.54242 0.02800
H 	H 	0.98063 0.43883 0.52987 0.03500
C 	C 	0.99022 0.42628 0.55664 -0.08100
H 	H 	0.98040 0.41414 0.55501 0.05100
C 	C 	0.00242 0.42768 0.57291 0.05100
C 	C 	0.82861 0.07182 0.76133 -0.08100
H 	H 	0.84133 0.07066 0.77094 0.05100
C 	C 	0.81440 0.05770 0.76156 0.02800
H 	H 	0.81632 0.04566 0.77144 0.03400
C 	C 	0.79805 0.05899 0.74928 -0.10300
C 	C 	0.79616 0.07466 0.73682 0.02800
H 	H 	0.78361 0.07614 0.72704 0.03400
C 	C 	0.81038 0.08872 0.73665 -0.08100
H 	H 	0.80877 0.10086 0.72684 0.05100
C 	C 	0.82665 0.08736 0.74886 0.05100
C 	C 	0.18594 0.26992 0.91525 -0.08100
H 	H 	0.18686 0.27958 0.90302 0.05100
C 	C 	0.20044 0.26995 0.92969 0.02900
H 	H 	0.21252 0.27974 0.92844 0.03400
C 	C 	0.19942 0.25763 0.94543 -0.10300
C 	C 	0.18367 0.24531 0.94646 0.02900
H 	H 	0.18242 0.23553 0.95853 0.03400
C 	C 	0.16920 0.24534 0.93197 -0.08100
H 	H 	0.15697 0.23567 0.93290 0.05100
C 	C 	0.17029 0.25763 0.91634 0.05100
H 	H 	0.02006 0.73388 0.74068 0.05100
C 	C 	0.00884 0.75811 0.75515 0.04100
C 	C 	0.99441 0.77182 0.75489 -0.08300
H 	H 	0.99396 0.78192 0.76666 0.05100
C 	C 	0.98000 0.77208 0.74029 0.04100
C 	C 	0.98007 0.75831 0.72584 -0.08300
H 	H 	0.96931 0.75886 0.71403 0.05100
C 	C 	0.99452 0.74455 0.72584 0.04100
C 	C 	0.00880 0.74456 0.74057 -0.08300
C 	C 	0.94578 0.78251 0.73485 -0.02900
H 	H 	0.94169 0.76798 0.73069 0.03500
C 	C 	0.93159 0.79641 0.73537 -0.05100
H 	H 	0.91676 0.79269 0.73137 0.04300
C 	C 	0.93624 0.81495 0.74119 0.02600
C 	C 	0.95518 0.81954 0.74635 -0.05100
H 	H 	0.95895 0.83406 0.75082 0.04300
C 	C 	0.96938 0.80568 0.74588 -0.02900
H 	H 	0.98414 0.80979 0.74974 0.03500
C 	C 	0.96482 0.78698 0.74023 -0.00900
C 	C 	0.03091 0.74074 0.77864 -0.02900
H 	H 	0.02480 0.72712 0.77376 0.03600
C 	C 	0.04529 0.74068 0.79320 -0.05000
H 	H 	0.05042 0.72713 0.79925 0.04300
C 	C 	0.05310 0.75780 0.80010 0.02600
C 	C 	0.04640 0.77502 0.79239 -0.05100
H 	H 	0.05252 0.78849 0.79767 0.04300
C 	C 	0.03199 0.77514 0.77786 -0.02900
H 	H 	0.02728 0.78882 0.77179 0.03500
C 	C 	0.02412 0.75798 0.77081 -0.00900
C 	C 	0.01352 0.72417 0.70298 -0.03100
H 	H 	0.02691 0.73091 0.70811 0.03600
C 	C 	0.01393 0.71018 0.68897 -0.04700
H 	H 	0.02754 0.70576 0.68351 0.04200
C 	C 	0.99593 0.70147 0.68148 0.02100
C 	C 	0.97865 0.70759 0.68836 -0.04800
H 	H 	0.96527 0.70110 0.68284 0.04200
C 	C 	0.97818 0.72170 0.70245 -0.03000
H 	H 	0.96436 0.72561 0.70776 0.03500
C 	C 	0.99503 0.73015 0.71021 -0.00900
C 	C 	0.06819 0.75771 0.81521 -0.02100
C 	C 	0.08085 0.75764 0.82787 -0.01700
C 	C 	0.92145 0.82945 0.74207 -0.02100
C 	C 	0.90921 0.84173 0.74296 -0.01700
C 	C 	0.99628 0.68647 0.66713 -0.01900
C 	C 	0.99686 0.67388 0.65516 -0.01800
C 	C 	0.09691 0.77192 0.85669 -0.04300
H 	H 	0.08626 0.78324 0.85615 0.04100
C 	C 	0.11143 0.77186 0.87112 -0.04000
H 	H 	0.11210 0.78314 0.88184 0.04100
C 	C 	0.12509 0.75744 0.87190 0.01600
C 	C 	0.12415 0.74308 0.85816 -0.04000
H 	H 	0.13481 0.73176 0.85869 0.04100
C 	C 	0.10963 0.74314 0.84372 -0.04300
H 	H 	0.10897 0.73187 0.83300 0.04100
C 	C 	0.09598 0.75756 0.84295 0.02000
C 	C 	0.98381 0.65747 0.62606 -0.04300
H 	H 	0.97206 0.66766 0.62512 0.04200
C 	C 	0.98481 0.64315 0.61235 -0.04000
H 	H 	0.97383 0.64218 0.60073 0.04100
C 	C 	0.99979 0.63009 0.61340 0.01600
C 	C 	0.01375 0.63145 0.62827 -0.04000
H 	H 	0.02553 0.62129 0.62918 0.04100
C 	C 	0.01276 0.64577 0.64198 -0.04300
H 	H 	0.02376 0.64677 0.65356 0.04200
C 	C 	0.99779 0.65884 0.64092 0.02000
C 	C 	0.89639 0.87027 0.75842 -0.04300
H 	H 	0.90857 0.86998 0.76880 0.04100
C 	C 	0.88256 0.88446 0.75951 -0.04000
H 	H 	0.88398 0.89522 0.77074 0.04100
C 	C 	0.86697 0.88496 0.74630 0.01600
C 	C 	0.86529 0.87116 0.73201 -0.04000
H 	H 	0.85312 0.87146 0.72162 0.04100
C 	C 	0.87911 0.85697 0.73092 -0.04300
H 	H 	0.87772 0.84623 0.71968 0.04100
C 	C 	0.89472 0.85648 0.74412 0.02000
C 	C 	0.14024 0.75739 0.88695 -0.01100
C 	C 	0.15294 0.75736 0.89957 -0.03100
C 	C 	0.85254 0.89978 0.74737 -0.01100
C 	C 	0.84036 0.91214 0.74809 -0.03000
C 	C 	0.00085 0.61521 0.59900 -0.01100
C 	C 	0.00159 0.60283 0.58683 -0.03000
C 	C 	0.18356 0.74508 0.91365 -0.08100
H 	H 	0.18433 0.73543 0.90152 0.05100
C 	C 	0.19808 0.74504 0.92807 0.02900
H 	H 	0.21003 0.73527 0.92691 0.03400
C 	C 	0.19726 0.75734 0.94370 -0.10300
C 	C 	0.18166 0.76963 0.94461 0.02900
H 	H 	0.18057 0.77940 0.95659 0.03400
C 	C 	0.16718 0.76961 0.93015 -0.08100
H 	H 	0.15507 0.77926 0.93100 0.05100
C 	C 	0.16807 0.75735 0.91464 0.05100
C 	C 	0.80931 0.92549 0.73660 -0.08100
H 	H 	0.80749 0.91349 0.72677 0.05100
C 	C 	0.79524 0.93949 0.73690 0.02800
H 	H 	0.78262 0.93807 0.72718 0.03500
C 	C 	0.79737 0.95502 0.74935 -0.10300
C 	C 	0.81382 0.95622 0.76153 0.02800
H 	H 	0.81594 0.96815 0.77140 0.03400
C 	C 	0.82788 0.94216 0.76117 -0.08000
H 	H 	0.84069 0.94327 0.77069 0.05100
C 	C 	0.82568 0.92677 0.74868 0.05100
C 	C 	0.01471 0.57283 0.57434 -0.08000
H 	H 	0.02420 0.57174 0.58717 0.05100
C 	C 	0.01511 0.55878 0.56026 0.02800
H 	H 	0.02498 0.54687 0.56238 0.03400
C 	C 	0.00297 0.55997 0.54379 -0.10300
C 	C 	0.99050 0.57547 0.54166 0.02800
H 	H 	0.98082 0.57687 0.52902 0.03500
C 	C 	0.99016 0.58945 0.55575 -0.08000
H 	H 	0.98033 0.60144 0.55394 0.05100
C 	C 	0.00221 0.58819 0.57214 0.05100
Zn	Zn	0.72368 0.00689 0.76442 1.21100
Zn	Zn	0.74515 0.98439 0.73222 1.21000
Zn	Zn	0.74547 0.02970 0.73218 1.21000
Zn	Zn	0.76905 0.00691 0.76531 1.21000
O 	O 	0.74584 0.00697 0.74854 -0.97400
O 	O 	0.70718 0.98474 0.75990 -0.47600
O 	O 	0.74461 0.99047 0.70499 -0.47200
O 	O 	0.72342 0.04580 0.73584 -0.47500
O 	O 	0.72290 0.96822 0.73592 -0.47500
O 	O 	0.70747 0.02902 0.75983 -0.47600
O 	O 	0.74480 0.02386 0.70494 -0.47100
O 	O 	0.76777 0.04600 0.73696 -0.47700
O 	O 	0.76394 0.00683 0.79246 -0.47100
O 	O 	0.78530 0.02910 0.76133 -0.47500
O 	O 	0.73051 0.00679 0.79177 -0.47100
O 	O 	0.76725 0.96808 0.73707 -0.47600
O 	O 	0.78498 0.98478 0.76141 -0.47500
C 	C 	0.78290 0.04392 0.74924 0.31700
C 	C 	0.78240 0.97006 0.74936 0.31600
C 	C 	0.74751 0.00680 0.80159 0.30700
C 	C 	0.70862 0.97015 0.74780 0.31600
C 	C 	0.70910 0.04374 0.74772 0.31600
C 	C 	0.74466 0.00721 0.69550 0.30800
H 	H 	0.50862 0.23286 0.22961 0.05100
C 	C 	0.52363 0.24382 0.25496 0.04000
C 	C 	0.52343 0.25743 0.26955 -0.08300
H 	H 	0.53473 0.25743 0.28087 0.05000
C 	C 	0.50886 0.27103 0.26974 0.04000
C 	C 	0.49445 0.27092 0.25513 -0.08300
H 	H 	0.48356 0.28200 0.25470 0.05100
C 	C 	0.49442 0.25743 0.24049 0.04100
C 	C 	0.50905 0.24393 0.24052 -0.08300
C 	C 	0.49136 0.29118 0.29261 -0.02900
H 	H 	0.47791 0.28438 0.28774 0.03500
C 	C 	0.49103 0.30520 0.30668 -0.05000
H 	H 	0.47743 0.30935 0.31235 0.04300
C 	C 	0.50793 0.31395 0.31351 0.02600
C 	C 	0.52523 0.30846 0.30627 -0.05000
H 	H 	0.53854 0.31531 0.31149 0.04300
C 	C 	0.52562 0.29439 0.29222 -0.02900
H 	H 	0.53931 0.29071 0.28646 0.03600
C 	C 	0.50866 0.28567 0.28516 -0.00900
C 	C 	0.54651 0.22366 0.23749 -0.02900
H 	H 	0.54168 0.23045 0.22404 0.03500
C 	C 	0.56057 0.20965 0.23718 -0.05000
H 	H 	0.56626 0.20549 0.22359 0.04300
C 	C 	0.56735 0.20090 0.25408 0.02600
C 	C 	0.56008 0.20640 0.27137 -0.05000
H 	H 	0.56526 0.19956 0.28468 0.04300
C 	C 	0.54603 0.22046 0.27174 -0.02900
H 	H 	0.54025 0.22414 0.28542 0.03600
C 	C 	0.53903 0.22917 0.25477 -0.00900
C 	C 	0.48313 0.25358 0.20607 -0.02900
H 	H 	0.49780 0.25091 0.20229 0.03500
C 	C 	0.46865 0.25363 0.19160 -0.05100
H 	H 	0.47210 0.25071 0.17687 0.04300
C 	C 	0.44984 0.25747 0.19584 0.02600
C 	C 	0.44558 0.26128 0.21465 -0.05100
H 	H 	0.43085 0.26421 0.21808 0.04300
C 	C 	0.46003 0.26129 0.22915 -0.02900
H 	H 	0.45623 0.26395 0.24382 0.03500
C 	C 	0.47896 0.25743 0.22500 -0.00900
C 	C 	0.58180 0.18604 0.25360 -0.02100
C 	C 	0.59387 0.17355 0.25304 -0.01700
C 	C 	0.50743 0.32882 0.32797 -0.02100
C 	C 	0.50684 0.34132 0.34004 -0.01700
C 	C 	0.43475 0.25749 0.18072 -0.02100
C 	C 	0.42209 0.25752 0.16805 -0.01700
C 	C 	0.62291 0.15734 0.26641 -0.04300
H 	H 	0.62363 0.16752 0.27818 0.04100
C 	C 	0.63670 0.14309 0.26560 -0.04000
H 	H 	0.64816 0.14217 0.27673 0.04100
C 	C 	0.63591 0.13003 0.25060 0.01600
C 	C 	0.62123 0.13131 0.23643 -0.04000
H 	H 	0.62052 0.12114 0.22465 0.04100
C 	C 	0.60744 0.14556 0.23725 -0.04300
H 	H 	0.59599 0.14650 0.22610 0.04100
C 	C 	0.60823 0.15863 0.25224 0.02000
C 	C 	0.39207 0.27061 0.15335 -0.04300
H 	H 	0.39171 0.28084 0.16504 0.04100
C 	C 	0.37760 0.27064 0.13887 -0.04000
H 	H 	0.36595 0.28089 0.13927 0.04100
C 	C 	0.37796 0.25762 0.12391 0.01600
C 	C 	0.39288 0.24456 0.12350 -0.04000
H 	H 	0.39323 0.23433 0.11181 0.04100
C 	C 	0.40735 0.24453 0.13797 -0.04300
H 	H 	0.41900 0.23428 0.13758 0.04100
C 	C 	0.40699 0.25755 0.15294 0.02000
C 	C 	0.52008 0.35747 0.36921 -0.04300
H 	H 	0.53178 0.34724 0.37002 0.04100
C 	C 	0.51923 0.37173 0.38300 -0.04000
H 	H 	0.53028 0.37260 0.39455 0.04100
C 	C 	0.50431 0.38486 0.38211 0.01600
C 	C 	0.49025 0.38364 0.36731 -0.04000
H 	H 	0.47853 0.39387 0.36652 0.04100
C 	C 	0.49110 0.36938 0.35351 -0.04300
H 	H 	0.48004 0.36850 0.34197 0.04100
C 	C 	0.50601 0.35624 0.35442 0.02000
C 	C 	0.65036 0.11520 0.24976 -0.01100
C 	C 	0.66256 0.10284 0.24919 -0.03000
C 	C 	0.50344 0.39970 0.39656 -0.01100
C 	C 	0.50285 0.41207 0.40877 -0.03000
C 	C 	0.36285 0.25765 0.10880 -0.01100
C 	C 	0.35019 0.25767 0.09614 -0.03100
C 	C 	0.67515 0.07280 0.23628 -0.08000
H 	H 	0.66239 0.07167 0.22671 0.05100
C 	C 	0.68924 0.05877 0.23602 0.02800
H 	H 	0.68719 0.04683 0.22616 0.03400
C 	C 	0.70564 0.06002 0.24827 -0.10300
C 	C 	0.70768 0.07557 0.26070 0.02800
H 	H 	0.72026 0.07703 0.27046 0.03500
C 	C 	0.69358 0.08955 0.26091 -0.08100
H 	H 	0.69533 0.10158 0.27071 0.05100
C 	C 	0.67727 0.08822 0.24875 0.05100
C 	C 	0.48991 0.44209 0.42136 -0.08000
H 	H 	0.48034 0.44319 0.40860 0.05100
C 	C 	0.48963 0.45614 0.43546 0.02800
H 	H 	0.47976 0.46806 0.43340 0.03400
C 	C 	0.50187 0.45492 0.45186 -0.10300
C 	C 	0.51431 0.43940 0.45391 0.02800
H 	H 	0.52407 0.43798 0.46649 0.03500
C 	C 	0.51454 0.42541 0.43980 -0.08000
H 	H 	0.52435 0.41341 0.44155 0.05100
C 	C 	0.50238 0.42670 0.42348 0.05100
C 	C 	0.33604 0.24546 0.06549 -0.08100
H 	H 	0.34816 0.23583 0.06465 0.05100
C 	C 	0.32158 0.24545 0.05100 0.02900
H 	H 	0.32272 0.23570 0.03901 0.03400
C 	C 	0.30597 0.25771 0.05190 -0.10300
C 	C 	0.30509 0.26998 0.06755 0.02800
H 	H 	0.29312 0.27973 0.06871 0.03400
C 	C 	0.31958 0.26994 0.08200 -0.08100
H 	H 	0.31876 0.27956 0.09415 0.05100
C 	C 	0.33509 0.25769 0.08103 0.05100
H 	H 	0.53336 0.75661 0.27813 0.05100
C 	C 	0.50732 0.74296 0.26719 0.04100
C 	C 	0.49284 0.74310 0.25266 -0.08300
H 	H 	0.48118 0.73270 0.25298 0.05100
C 	C 	0.49255 0.75708 0.23830 0.04100
C 	C 	0.50699 0.77100 0.23852 -0.08300
H 	H 	0.50684 0.78192 0.22734 0.05100
C 	C 	0.52161 0.77108 0.25292 0.04100
C 	C 	0.52163 0.75706 0.26727 -0.08300
C 	C 	0.46898 0.77433 0.21624 -0.02900
H 	H 	0.47371 0.78794 0.22245 0.03600
C 	C 	0.45445 0.77433 0.20183 -0.05000
H 	H 	0.44826 0.78783 0.19677 0.04300
C 	C 	0.44774 0.75720 0.19391 0.02600
C 	C 	0.45562 0.74004 0.20052 -0.05100
H 	H 	0.45048 0.72657 0.19430 0.04300
C 	C 	0.47013 0.73998 0.21495 -0.02900
H 	H 	0.47632 0.72635 0.21959 0.03500
C 	C 	0.47698 0.75714 0.22294 -0.00900
C 	C 	0.51265 0.73233 0.30143 -0.02900
H 	H 	0.51655 0.74692 0.30550 0.03500
C 	C 	0.51234 0.71825 0.31565 -0.05100
H 	H 	0.51626 0.72192 0.33047 0.04300
C 	C 	0.50688 0.69959 0.31104 0.02600
C 	C 	0.50181 0.69507 0.29210 -0.05000
H 	H 	0.49761 0.68045 0.28837 0.04300
C 	C 	0.50205 0.70910 0.27787 -0.02900
H 	H 	0.49830 0.70506 0.26311 0.03500
C 	C 	0.50741 0.72790 0.28240 -0.00900
C 	C 	0.54412 0.79425 0.26991 -0.02900
H 	H 	0.53833 0.79015 0.28354 0.03500
C 	C 	0.55827 0.80842 0.26972 -0.05000
H 	H 	0.56353 0.81496 0.28311 0.04300
C 	C 	0.56557 0.81439 0.25250 0.02600
C 	C 	0.55871 0.80603 0.23548 -0.05000
H 	H 	0.56445 0.81056 0.22195 0.04300
C 	C 	0.54455 0.79190 0.23562 -0.02900
H 	H 	0.53968 0.78539 0.22209 0.03600
C 	C 	0.53704 0.78592 0.25283 -0.00900
C 	C 	0.50635 0.68492 0.32587 -0.02100
C 	C 	0.50582 0.67254 0.33822 -0.01700
C 	C 	0.43263 0.75724 0.17883 -0.02100
C 	C 	0.41996 0.75726 0.16617 -0.01700
C 	C 	0.58017 0.82933 0.25222 -0.02100
C 	C 	0.59237 0.84188 0.25184 -0.01700
C 	C 	0.49113 0.64343 0.35149 -0.04300
H 	H 	0.48067 0.64336 0.33938 0.04100
C 	C 	0.49047 0.62920 0.36552 -0.04000
H 	H 	0.47949 0.61805 0.36434 0.04100
C 	C 	0.50379 0.62918 0.38102 0.01600
C 	C 	0.51777 0.64347 0.38242 -0.04000
H 	H 	0.52824 0.64353 0.39452 0.04100
C 	C 	0.51843 0.65770 0.36839 -0.04300
H 	H 	0.52942 0.66884 0.36957 0.04100
C 	C 	0.50512 0.65772 0.35288 0.02000
C 	C 	0.60632 0.87025 0.23641 -0.04300
H 	H 	0.59492 0.86950 0.22520 0.04100
C 	C 	0.62028 0.88458 0.23581 -0.04000
H 	H 	0.61975 0.89500 0.22414 0.04100
C 	C 	0.63490 0.88561 0.25007 0.01600
C 	C 	0.63547 0.87223 0.26493 -0.04000
H 	H 	0.64689 0.87296 0.27613 0.04100
C 	C 	0.62152 0.85790 0.26553 -0.04300
H 	H 	0.62206 0.84747 0.27720 0.04100
C 	C 	0.60691 0.85687 0.25127 0.02000
C 	C 	0.39090 0.74297 0.15044 -0.04300
H 	H 	0.39128 0.73171 0.16131 0.04100
C 	C 	0.37643 0.74299 0.13596 -0.04000
H 	H 	0.36553 0.73174 0.13553 0.04100
C 	C 	0.37586 0.75732 0.12203 0.01600
C 	C 	0.38983 0.77164 0.12267 -0.04000
H 	H 	0.38944 0.78290 0.11179 0.04100
C 	C 	0.40429 0.77163 0.13715 -0.04300
H 	H 	0.41520 0.78287 0.13758 0.04100
C 	C 	0.40486 0.75729 0.15107 0.02000
C 	C 	0.50314 0.61433 0.39567 -0.01100
C 	C 	0.50271 0.60193 0.40800 -0.03000
C 	C 	0.36077 0.75734 0.10693 -0.01100
C 	C 	0.34812 0.75735 0.09426 -0.03100
C 	C 	0.64950 0.90051 0.24945 -0.01100
C 	C 	0.66182 0.91295 0.24904 -0.03000
C 	C 	0.51466 0.58862 0.43905 -0.08100
H 	H 	0.52447 0.60077 0.44065 0.05100
C 	C 	0.51452 0.57455 0.45326 0.02800
H 	H 	0.52435 0.57605 0.46578 0.03400
C 	C 	0.50206 0.55887 0.45139 -0.10300
C 	C 	0.48973 0.55755 0.43507 0.02800
H 	H 	0.47984 0.54551 0.43316 0.03400
C 	C 	0.48991 0.57167 0.42088 -0.08000
H 	H 	0.48026 0.57049 0.40819 0.05100
C 	C 	0.50239 0.58723 0.42282 0.05100
C 	C 	0.33412 0.76962 0.06352 -0.08100
H 	H 	0.34636 0.77928 0.06259 0.05100
C 	C 	0.31966 0.76965 0.04904 0.02900
H 	H 	0.32092 0.77943 0.03696 0.03400
C 	C 	0.30389 0.75734 0.05006 -0.10300
C 	C 	0.30286 0.74504 0.06581 0.02900
H 	H 	0.29077 0.73526 0.06707 0.03400
C 	C 	0.31736 0.74507 0.08026 -0.08100
H 	H 	0.31643 0.73541 0.09249 0.05100
C 	C 	0.33302 0.75735 0.07916 0.05100
C 	C 	0.69286 0.92633 0.26098 -0.08100
H 	H 	0.69447 0.91418 0.27077 0.05100
C 	C 	0.70707 0.94041 0.26085 0.02900
H 	H 	0.71960 0.93894 0.27066 0.03400
C 	C 	0.70520 0.95608 0.24840 -0.10300
C 	C 	0.68887 0.95737 0.23608 0.02800
H 	H 	0.68695 0.96941 0.22621 0.03400
C 	C 	0.67468 0.94323 0.23626 -0.08100
H 	H 	0.66198 0.94438 0.22662 0.05100
C 	C 	0.67662 0.92768 0.24872 0.05100
Zn	Zn	0.01896 0.50809 0.51541 1.21000
Zn	Zn	0.98595 0.53059 0.49152 1.21000
Zn	Zn	0.01811 0.50809 0.47004 1.21100
Zn	Zn	0.98583 0.48527 0.49176 1.21000
O 	O 	0.00221 0.50801 0.49219 -0.97400
O 	O 	0.01506 0.53023 0.53137 -0.47500
O 	O 	0.98966 0.54673 0.46929 -0.47500
O 	O 	0.04546 0.50819 0.47691 -0.47100
O 	O 	0.99074 0.54690 0.51363 -0.47600
O 	O 	0.04610 0.50820 0.51034 -0.47100
O 	O 	0.01365 0.53024 0.45357 -0.47600
O 	O 	0.01351 0.48596 0.45381 -0.47700
O 	O 	0.99058 0.46898 0.51404 -0.47600
O 	O 	0.98948 0.46916 0.46971 -0.47500
O 	O 	0.01494 0.48592 0.53162 -0.47500
O 	O 	0.95868 0.52449 0.49091 -0.47100
O 	O 	0.95859 0.49109 0.49109 -0.47100
C 	C 	0.00138 0.47123 0.45540 0.31600
C 	C 	0.94916 0.50775 0.49095 0.30700
C 	C 	0.00286 0.47108 0.52919 0.31600
C 	C 	0.00301 0.54493 0.52879 0.31600
C 	C 	0.05526 0.50821 0.49391 0.30700
C 	C 	0.00156 0.54482 0.45502 0.31600
H 	H 	0.49731 0.23082 0.77934 0.05000
C 	C 	0.51084 0.24175 0.75445 0.04000
C 	C 	0.51066 0.25620 0.74054 -0.08300
H 	H 	0.52175 0.25655 0.73016 0.05100
C 	C 	0.49709 0.27078 0.74042 0.04000
C 	C 	0.48360 0.27087 0.75452 -0.08200
H 	H 	0.47252 0.28175 0.75403 0.05100
C 	C 	0.48352 0.25653 0.76859 0.04000
C 	C 	0.49723 0.24202 0.76845 -0.08200
C 	C 	0.49326 0.30504 0.72976 -0.02900
H 	H 	0.49037 0.30909 0.74436 0.03500
C 	C 	0.49370 0.31927 0.71569 -0.05000
H 	H 	0.49087 0.33408 0.71938 0.04300
C 	C 	0.49790 0.31471 0.69701 0.02600
C 	C 	0.50157 0.29579 0.69249 -0.05000
H 	H 	0.50477 0.29207 0.67788 0.04300
C 	C 	0.50119 0.28154 0.70652 -0.02900
H 	H 	0.50382 0.26680 0.70246 0.03500
C 	C 	0.49710 0.28601 0.72535 -0.00900
C 	C 	0.53426 0.21937 0.77132 -0.02900
H 	H 	0.53061 0.22520 0.78508 0.03600
C 	C 	0.54831 0.20529 0.77098 -0.05000
H 	H 	0.55516 0.20015 0.78437 0.04300
C 	C 	0.55376 0.19792 0.75364 0.02600
C 	C 	0.54499 0.20467 0.73664 -0.05000
H 	H 	0.54910 0.19892 0.72299 0.04300
C 	C 	0.53099 0.21876 0.73692 -0.02900
H 	H 	0.52418 0.22354 0.72337 0.03500
C 	C 	0.52551 0.22633 0.75427 -0.00900
C 	C 	0.46050 0.23957 0.78959 -0.02900
H 	H 	0.46433 0.22593 0.78342 0.03600
C 	C 	0.44670 0.23975 0.80334 -0.05000
H 	H 	0.44025 0.22633 0.80790 0.04300
C 	C 	0.44103 0.25692 0.81119 0.02600
C 	C 	0.44929 0.27395 0.80515 -0.05000
H 	H 	0.44501 0.28747 0.81127 0.04300
C 	C 	0.46306 0.27384 0.79137 -0.02900
H 	H 	0.46951 0.28737 0.78721 0.03500
C 	C 	0.46884 0.25663 0.78342 -0.00900
C 	C 	0.56859 0.18340 0.75319 -0.02100
C 	C 	0.58104 0.17127 0.75264 -0.01700
C 	C 	0.49856 0.32956 0.68232 -0.02100
C 	C 	0.49921 0.34191 0.66993 -0.01700
C 	C 	0.42657 0.25707 0.82554 -0.02100
C 	C 	0.41445 0.25721 0.83755 -0.01700
C 	C 	0.60862 0.15717 0.73713 -0.04300
H 	H 	0.60746 0.16833 0.72618 0.04100
C 	C 	0.62280 0.14329 0.73631 -0.04000
H 	H 	0.63268 0.14367 0.72473 0.04100
C 	C 	0.62439 0.12894 0.75020 0.01600
C 	C 	0.61168 0.12859 0.76493 -0.04000
H 	H 	0.61282 0.11741 0.77586 0.04100
C 	C 	0.59750 0.14247 0.76575 -0.04300
H 	H 	0.58760 0.14207 0.77731 0.04100
C 	C 	0.59590 0.15681 0.75185 0.02000
C 	C 	0.38622 0.27171 0.85163 -0.04300
H 	H 	0.38627 0.28286 0.84066 0.04100
C 	C 	0.37237 0.27186 0.86534 -0.04000
H 	H 	0.36167 0.28313 0.86503 0.04100
C 	C 	0.37216 0.25768 0.87943 0.01600
C 	C 	0.38592 0.24335 0.87968 -0.04000
H 	H 	0.38587 0.23219 0.89064 0.04100
C 	C 	0.39977 0.24320 0.86597 -0.04300
H 	H 	0.41047 0.23192 0.86628 0.04100
C 	C 	0.39998 0.25738 0.85188 0.02000
C 	C 	0.51361 0.35550 0.64121 -0.04300
H 	H 	0.52368 0.34366 0.64151 0.04100
C 	C 	0.51437 0.36950 0.62694 -0.04000
H 	H 	0.52503 0.36854 0.61613 0.04100
C 	C 	0.50155 0.38467 0.62642 0.01600
C 	C 	0.48797 0.38574 0.64028 -0.04000
H 	H 	0.47789 0.39757 0.63997 0.04100
C 	C 	0.48722 0.37175 0.65455 -0.04300
H 	H 	0.47654 0.37269 0.66534 0.04100
C 	C 	0.50003 0.35657 0.65507 0.02000
C 	C 	0.63915 0.11439 0.74935 -0.01100
C 	C 	0.65145 0.10212 0.74876 -0.03000
C 	C 	0.50228 0.39928 0.61150 -0.01100
C 	C 	0.50276 0.41159 0.59905 -0.03000
C 	C 	0.35769 0.25783 0.89377 -0.01100
C 	C 	0.34559 0.25791 0.90580 -0.03000
C 	C 	0.66509 0.07142 0.76024 -0.08000
H 	H 	0.65340 0.07004 0.76992 0.05100
C 	C 	0.67901 0.05726 0.75999 0.02800
H 	H 	0.67786 0.04501 0.76960 0.03500
C 	C 	0.69413 0.05882 0.74771 -0.10200
C 	C 	0.69500 0.07481 0.73567 0.02700
H 	H 	0.70660 0.07649 0.72594 0.03400
C 	C 	0.68101 0.08896 0.73597 -0.08000
H 	H 	0.68187 0.10139 0.72655 0.05100
C 	C 	0.66602 0.08733 0.74828 0.05000
C 	C 	0.49113 0.44210 0.58504 -0.08000
H 	H 	0.48149 0.44333 0.59675 0.05100
C 	C 	0.49130 0.45626 0.57092 0.02800
H 	H 	0.48167 0.46837 0.57194 0.03500
C 	C 	0.50353 0.45489 0.55578 -0.10200
C 	C 	0.51560 0.43909 0.55509 0.02800
H 	H 	0.52531 0.43756 0.54348 0.03400
C 	C 	0.51539 0.42494 0.56927 -0.08000
H 	H 	0.52484 0.41266 0.56855 0.05100
C 	C 	0.50314 0.42638 0.58428 0.05000
C 	C 	0.33286 0.24569 0.93594 -0.08000
H 	H 	0.34501 0.23602 0.93751 0.05100
C 	C 	0.31910 0.24567 0.94973 0.02700
H 	H 	0.32083 0.23589 0.96188 0.03500
C 	C 	0.30341 0.25797 0.94796 -0.10200
C 	C 	0.30180 0.27026 0.93211 0.02700
H 	H 	0.28976 0.28004 0.93025 0.03400
C 	C 	0.31560 0.27023 0.91835 -0.08000
H 	H 	0.31416 0.27989 0.90607 0.05100
C 	C 	0.33118 0.25796 0.92019 0.05000
H 	H 	0.49493 0.78160 0.77700 0.05000
C 	C 	0.48089 0.75593 0.76629 0.03900
C 	C 	0.48105 0.74154 0.75245 -0.08200
H 	H 	0.47063 0.72988 0.75276 0.05000
C 	C 	0.49510 0.74135 0.73890 0.04000
C 	C 	0.50899 0.75585 0.73920 -0.08300
H 	H 	0.51940 0.75630 0.72814 0.05100
C 	C 	0.50906 0.77036 0.75285 0.04000
C 	C 	0.49495 0.77031 0.76634 -0.08200
C 	C 	0.51285 0.71855 0.71873 -0.02900
H 	H 	0.52636 0.72347 0.72552 0.03500
C 	C 	0.51326 0.70448 0.70470 -0.05000
H 	H 	0.52696 0.69890 0.70056 0.04300
C 	C 	0.49632 0.69754 0.69593 0.02600
C 	C 	0.47891 0.70468 0.70144 -0.05000
H 	H 	0.46556 0.69937 0.69460 0.04300
C 	C 	0.47844 0.71874 0.71552 -0.02900
H 	H 	0.46462 0.72439 0.71922 0.03500
C 	C 	0.49543 0.72591 0.72424 -0.00900
C 	C 	0.47079 0.76116 0.79989 -0.02900
H 	H 	0.48548 0.76498 0.80435 0.03600
C 	C 	0.45690 0.76118 0.81355 -0.05000
H 	H 	0.46085 0.76529 0.82825 0.04300
C 	C 	0.43807 0.75595 0.80856 0.02600
C 	C 	0.43325 0.75061 0.78977 -0.05000
H 	H 	0.41852 0.74654 0.78569 0.04300
C 	C 	0.44711 0.75052 0.77607 -0.02900
H 	H 	0.44282 0.74665 0.76139 0.03500
C 	C 	0.46605 0.75585 0.78096 -0.00900
C 	C 	0.51951 0.80472 0.75661 -0.02900
H 	H 	0.50487 0.80871 0.75935 0.03600
C 	C 	0.53355 0.81901 0.75627 -0.05000
H 	H 	0.52977 0.83381 0.75903 0.04300
C 	C 	0.55229 0.81453 0.75227 0.02600
C 	C 	0.55691 0.79562 0.74867 -0.05000
H 	H 	0.57158 0.79196 0.74562 0.04300
C 	C 	0.54293 0.78131 0.74896 -0.02900
H 	H 	0.54706 0.76658 0.74639 0.03500
C 	C 	0.52405 0.78570 0.75288 -0.00900
C 	C 	0.42358 0.75609 0.82288 -0.02100
C 	C 	0.41151 0.75626 0.83493 -0.01700
C 	C 	0.49692 0.68306 0.68105 -0.02100
C 	C 	0.49761 0.67097 0.66856 -0.01700
C 	C 	0.56694 0.82944 0.75174 -0.02100
C 	C 	0.57930 0.84185 0.75121 -0.01700
C 	C 	0.38258 0.74275 0.84914 -0.04300
H 	H 	0.38191 0.73177 0.83811 0.04100
C 	C 	0.36886 0.74295 0.86298 -0.04000
H 	H 	0.35753 0.73214 0.86269 0.04100
C 	C 	0.36957 0.75690 0.87716 0.01600
C 	C 	0.38412 0.77065 0.87737 -0.04000
H 	H 	0.38480 0.78161 0.88841 0.04100
C 	C 	0.39784 0.77044 0.86353 -0.04300
H 	H 	0.40917 0.78124 0.86383 0.04100
C 	C 	0.39713 0.75649 0.84936 0.02000
C 	C 	0.60839 0.85530 0.73739 -0.04300
H 	H 	0.60843 0.84326 0.72756 0.04100
C 	C 	0.62264 0.86935 0.73677 -0.04000
H 	H 	0.63376 0.86824 0.72646 0.04100
C 	C 	0.62274 0.88478 0.74930 0.01600
C 	C 	0.60847 0.88605 0.76243 -0.04000
H 	H 	0.60845 0.89808 0.77229 0.04100
C 	C 	0.59422 0.87200 0.76305 -0.04300
H 	H 	0.58312 0.87310 0.77338 0.04100
C 	C 	0.59413 0.85657 0.75053 0.02000
C 	C 	0.48479 0.64212 0.65191 -0.04300
H 	H 	0.47316 0.64161 0.66172 0.04100
C 	C 	0.48579 0.62829 0.63768 -0.04100
H 	H 	0.47494 0.61703 0.63643 0.04100
C 	C 	0.50061 0.62879 0.62508 0.01600
C 	C 	0.51441 0.64324 0.62681 -0.04000
H 	H 	0.52606 0.64374 0.61702 0.04100
C 	C 	0.51340 0.65707 0.64104 -0.04300
H 	H 	0.52427 0.66832 0.64231 0.04100
C 	C 	0.49859 0.65657 0.65365 0.02000
C 	C 	0.35524 0.75710 0.89163 -0.01100
C 	C 	0.34323 0.75724 0.90375 -0.03000
C 	C 	0.50165 0.61428 0.61029 -0.01100
C 	C 	0.50237 0.60202 0.59796 -0.03000
C 	C 	0.63764 0.89944 0.74871 -0.01100
C 	C 	0.65009 0.91177 0.74832 -0.03000
C 	C 	0.33079 0.76966 0.93377 -0.08000
H 	H 	0.34311 0.77929 0.93517 0.05100
C 	C 	0.31707 0.76975 0.94761 0.02700
H 	H 	0.31899 0.77954 0.95963 0.03400
C 	C 	0.30118 0.75748 0.94604 -0.10200
C 	C 	0.29932 0.74515 0.93036 0.02700
H 	H 	0.28713 0.73539 0.92866 0.03400
C 	C 	0.31308 0.74512 0.91657 -0.08000
H 	H 	0.31144 0.73542 0.90442 0.05100
C 	C 	0.32887 0.75735 0.91820 0.05000
C 	C 	0.51528 0.58889 0.56842 -0.08000
H 	H 	0.52467 0.60137 0.56758 0.05100
C 	C 	0.51566 0.57472 0.55444 0.02700
H 	H 	0.52539 0.57644 0.54285 0.03400
C 	C 	0.50366 0.55868 0.55528 -0.10200
C 	C 	0.49137 0.55708 0.57039 0.02800
H 	H 	0.48180 0.54480 0.57153 0.03500
C 	C 	0.49106 0.57125 0.58431 -0.08000
H 	H 	0.48136 0.56984 0.59598 0.05100
C 	C 	0.50296 0.58722 0.58339 0.05000
C 	C 	0.66414 0.94226 0.76007 -0.08000
H 	H 	0.65243 0.94348 0.76971 0.05100
C 	C 	0.67829 0.95643 0.75996 0.02800
H 	H 	0.67729 0.96852 0.76961 0.03500
C 	C 	0.69343 0.95507 0.74773 -0.10200
C 	C 	0.69410 0.93928 0.73561 0.02800
H 	H 	0.70571 0.93776 0.72591 0.03400
C 	C 	0.67990 0.92513 0.73578 -0.08000
H 	H 	0.68059 0.91286 0.72629 0.05100
C 	C 	0.66488 0.92656 0.74802 0.05000
Zn	Zn	0.25332 0.27393 0.02129 1.21000
Zn	Zn	0.22992 0.24132 0.99817 1.21000
Zn	Zn	0.25219 0.27403 0.97592 1.21000
Zn	Zn	0.27530 0.24145 0.99926 1.21000
O 	O 	0.25268 0.25768 0.99867 -0.97400
O 	O 	0.23156 0.26957 0.03700 -0.47500
O 	O 	0.21314 0.24556 0.97559 -0.47600
O 	O 	0.25242 0.30124 0.98180 -0.47100
O 	O 	0.21430 0.24542 0.01994 -0.47500
O 	O 	0.25324 0.30116 0.01524 -0.47100
O 	O 	0.22960 0.26975 0.95913 -0.47600
O 	O 	0.27394 0.26994 0.96028 -0.47600
O 	O 	0.29211 0.24567 0.02185 -0.47600
O 	O 	0.29100 0.24581 0.97749 -0.47600
O 	O 	0.27591 0.26975 0.03808 -0.47600
O 	O 	0.23578 0.21411 0.99838 -0.47000
O 	O 	0.26922 0.21422 0.99918 -0.47100
C 	C 	0.28868 0.25792 0.96268 0.31600
C 	C 	0.25246 0.20472 0.99878 0.30700
C 	C 	0.29052 0.25772 0.03646 0.31700
C 	C 	0.21672 0.25746 0.03469 0.31600
C 	C 	0.25283 0.31065 0.99848 0.30800
C 	C 	0.21487 0.25765 0.96086 0.31600
Zn	Zn	0.75774 0.98546 0.26551 1.21000
Zn	Zn	0.77945 0.00832 0.23324 1.21000
Zn	Zn	0.73410 0.00820 0.23238 1.21000
Zn	Zn	0.75793 0.03079 0.26543 1.21000
O 	O 	0.75730 0.00819 0.24915 -0.97400
O 	O 	0.77982 0.96941 0.26184 -0.47500
O 	O 	0.77260 0.00840 0.20589 -0.47200
O 	O 	0.71790 0.98599 0.23638 -0.47600
O 	O 	0.79572 0.98623 0.23784 -0.47600
O 	O 	0.73546 0.96912 0.26074 -0.47700
O 	O 	0.73918 0.00829 0.20523 -0.47100
O 	O 	0.71811 0.03029 0.23627 -0.47600
O 	O 	0.75851 0.02471 0.29269 -0.47100
O 	O 	0.73580 0.04705 0.26060 -0.47600
O 	O 	0.75839 0.99131 0.29275 -0.47100
O 	O 	0.79589 0.03051 0.23775 -0.47600
O 	O 	0.78015 0.04700 0.26173 -0.47500
C 	C 	0.72065 0.04502 0.24830 0.31600
C 	C 	0.79443 0.04510 0.24984 0.31600
C 	C 	0.75850 0.00797 0.30219 0.30700
C 	C 	0.79413 0.97150 0.24995 0.31600
C 	C 	0.72033 0.97118 0.24845 0.31700
C 	C 	0.75561 0.00836 0.19608 0.30800
Zn	Zn	0.25107 0.74100 0.01964 1.21000
Zn	Zn	0.24988 0.74107 0.97425 1.21000
Zn	Zn	0.22800 0.77360 0.99628 1.21000
Zn	Zn	0.27337 0.77368 0.99734 1.21000
O 	O 	0.25059 0.75734 0.99689 -0.97400
O 	O 	0.25081 0.71380 0.01378 -0.47100
O 	O 	0.22731 0.74527 0.95750 -0.47700
O 	O 	0.21233 0.76929 0.01806 -0.47600
O 	O 	0.24995 0.71384 0.98034 -0.47100
O 	O 	0.22934 0.74515 0.03530 -0.47600
O 	O 	0.21116 0.76940 0.97371 -0.47600
O 	O 	0.23411 0.80081 0.99635 -0.47100
O 	O 	0.29018 0.76942 0.01990 -0.47600
O 	O 	0.26755 0.80089 0.99712 -0.47100
O 	O 	0.27369 0.74527 0.03639 -0.47600
O 	O 	0.27164 0.74540 0.95853 -0.47600
O 	O 	0.28897 0.76953 0.97554 -0.47500
C 	C 	0.25088 0.81030 0.99673 0.30800
C 	C 	0.28650 0.75748 0.96080 0.31600
C 	C 	0.28844 0.75734 0.03463 0.31700
C 	C 	0.25037 0.70436 0.99710 0.30800
C 	C 	0.21462 0.75720 0.03289 0.31600
C 	C 	0.21273 0.75733 0.95911 0.31700
C 	C 	0.26147 0.50739 0.49803 -0.01800
C 	C 	0.24353 0.50747 0.49773 -0.01800
C 	C 	0.29356 0.49018 0.49868 -0.04200
H 	H 	0.28582 0.47658 0.49864 0.04100
C 	C 	0.31388 0.49008 0.49903 -0.04100
H 	H 	0.32130 0.47642 0.49925 0.04100
C 	C 	0.32473 0.50710 0.49910 0.01500
C 	C 	0.31429 0.52422 0.49882 -0.04100
H 	H 	0.32203 0.53782 0.49886 0.04100
C 	C 	0.29396 0.52431 0.49847 -0.04200
H 	H 	0.28654 0.53798 0.49826 0.04100
C 	C 	0.28312 0.50729 0.49840 0.01800
C 	C 	0.21144 0.52468 0.49709 -0.04200
H 	H 	0.21918 0.53828 0.49714 0.04100
C 	C 	0.19112 0.52477 0.49675 -0.04100
H 	H 	0.18370 0.53844 0.49654 0.04100
C 	C 	0.18027 0.50776 0.49667 0.01500
C 	C 	0.19072 0.49064 0.49695 -0.04100
H 	H 	0.18298 0.47704 0.49690 0.04100
C 	C 	0.21104 0.49055 0.49729 -0.04200
H 	H 	0.21846 0.47688 0.49750 0.04100
C 	C 	0.22189 0.50757 0.49737 0.01800
C 	C 	0.34638 0.50701 0.49949 -0.01400
C 	C 	0.36432 0.50693 0.49983 -0.02500
C 	C 	0.15863 0.50785 0.49628 -0.01400
C 	C 	0.14068 0.50793 0.49594 -0.02500
C 	C 	0.39614 0.50682 0.48346 -0.07100
H 	H 	0.38818 0.50687 0.46964 0.04900
C 	C 	0.41647 0.50674 0.48391 0.01600
H 	H 	0.42353 0.50674 0.47036 0.03600
C 	C 	0.42765 0.50668 0.50125 -0.08700
C 	C 	0.41741 0.50669 0.51809 0.01600
H 	H 	0.42522 0.50665 0.53200 0.03600
C 	C 	0.39709 0.50676 0.51761 -0.07100
H 	H 	0.38989 0.50678 0.53108 0.04900
C 	C 	0.38597 0.50683 0.50030 0.03900
C 	C 	0.10885 0.50807 0.51231 -0.07100
H 	H 	0.11682 0.50804 0.52613 0.04900
C 	C 	0.08852 0.50814 0.51185 0.01600
H 	H 	0.08146 0.50816 0.52540 0.03600
C 	C 	0.07735 0.50818 0.49451 -0.08700
C 	C 	0.08759 0.50814 0.47767 0.01600
H 	H 	0.07979 0.50816 0.46377 0.03600
C 	C 	0.10791 0.50807 0.47816 -0.07100
H 	H 	0.11512 0.50804 0.46469 0.04900
C 	C 	0.11903 0.50803 0.49548 0.03900
C 	C 	0.76145 0.50743 0.49743 -0.01800
C 	C 	0.74356 0.50742 0.49813 -0.01800
C 	C 	0.79210 0.50531 0.47925 -0.04200
H 	H 	0.78332 0.50359 0.46602 0.04100
C 	C 	0.81236 0.50533 0.47846 -0.04100
H 	H 	0.81869 0.50362 0.46464 0.04100
C 	C 	0.82450 0.50748 0.49498 0.01500
C 	C 	0.81542 0.50963 0.51232 -0.04100
H 	H 	0.82420 0.51135 0.52555 0.04100
C 	C 	0.79517 0.50961 0.51310 -0.04200
H 	H 	0.78884 0.51132 0.52692 0.04100
C 	C 	0.78302 0.50745 0.49659 0.01800
C 	C 	0.71291 0.50956 0.51631 -0.04200
H 	H 	0.72168 0.51129 0.52954 0.04100
C 	C 	0.69265 0.50954 0.51710 -0.04000
H 	H 	0.68632 0.51126 0.53092 0.04100
C 	C 	0.68050 0.50737 0.50059 0.01500
C 	C 	0.68958 0.50522 0.48324 -0.04100
H 	H 	0.68080 0.50348 0.47002 0.04100
C 	C 	0.70984 0.50523 0.48245 -0.04200
H 	H 	0.71616 0.50351 0.46864 0.04100
C 	C 	0.72199 0.50740 0.49897 0.01800
C 	C 	0.84608 0.50751 0.49414 -0.01400
C 	C 	0.86397 0.50753 0.49345 -0.02500
C 	C 	0.65893 0.50735 0.50142 -0.01400
C 	C 	0.64104 0.50732 0.50211 -0.02500
C 	C 	0.89624 0.52465 0.49218 -0.07000
H 	H 	0.88875 0.53827 0.49237 0.04900
C 	C 	0.91651 0.52472 0.49152 0.01600
H 	H 	0.92398 0.53845 0.49125 0.03600
C 	C 	0.92711 0.50768 0.49128 -0.08700
C 	C 	0.91635 0.49058 0.49171 0.01600
H 	H 	0.92370 0.47688 0.49161 0.03600
C 	C 	0.89608 0.49055 0.49237 -0.07000
H 	H 	0.88846 0.47689 0.49273 0.04900
C 	C 	0.88554 0.50758 0.49265 0.03900
C 	C 	0.60876 0.49020 0.50338 -0.07000
H 	H 	0.61625 0.47658 0.50316 0.04900
C 	C 	0.58850 0.49013 0.50405 0.01600
H 	H 	0.58102 0.47639 0.50429 0.03600
C 	C 	0.57790 0.50717 0.50431 -0.08700
C 	C 	0.58866 0.52427 0.50389 0.01600
H 	H 	0.58131 0.53796 0.50402 0.03600
C 	C 	0.60892 0.52430 0.50323 -0.07000
H 	H 	0.61655 0.53796 0.50289 0.04900
C 	C 	0.61946 0.50728 0.50293 0.03900
C 	C 	0.25164 0.99820 0.99776 -0.01800
C 	C 	0.25171 0.01612 0.99795 -0.01800
C 	C 	0.25155 0.96577 0.01461 -0.04200
H 	H 	0.25161 0.97318 0.02829 0.04100
C 	C 	0.25147 0.94547 0.01448 -0.04100
H 	H 	0.25147 0.93772 0.02806 0.04100
C 	C 	0.25140 0.93507 0.99733 0.01500
C 	C 	0.25141 0.94590 0.98033 -0.04100
H 	H 	0.25136 0.93849 0.96665 0.04100
C 	C 	0.25149 0.96620 0.98046 -0.04200
H 	H 	0.25149 0.97395 0.96688 0.04100
C 	C 	0.25156 0.97660 0.99761 0.01800
C 	C 	0.25168 0.04869 0.98128 -0.04200
H 	H 	0.25153 0.04126 0.96761 0.04100
C 	C 	0.25175 0.06903 0.98122 -0.03900
H 	H 	0.25164 0.07663 0.96755 0.04100
C 	C 	0.25194 0.07962 0.99824 0.01200
C 	C 	0.25205 0.06807 0.01611 -0.03800
H 	H 	0.25220 0.07532 0.02988 0.04100
C 	C 	0.25198 0.04782 0.01562 -0.04300
H 	H 	0.25207 0.03983 0.02906 0.04200
C 	C 	0.25179 0.03772 0.99827 0.01800
C 	C 	0.25132 0.91346 0.99720 -0.01300
C 	C 	0.25125 0.89555 0.99709 -0.02500
C 	C 	0.25197 0.10123 0.99831 -0.01200
C 	C 	0.25196 0.11914 0.99839 -0.02500
C 	C 	0.26819 0.86338 0.99731 -0.07100
H 	H 	0.28187 0.87100 0.99767 0.04900
C 	C 	0.26812 0.84308 0.99722 0.01600
H 	H 	0.28181 0.83570 0.99751 0.03600
C 	C 	0.25098 0.83235 0.99678 -0.08800
C 	C 	0.23394 0.84297 0.99643 0.01600
H 	H 	0.22018 0.83550 0.99609 0.03600
C 	C 	0.23404 0.86327 0.99652 -0.07100
H 	H 	0.22043 0.87080 0.99625 0.04900
C 	C 	0.25116 0.87395 0.99697 0.04000
C 	C 	0.23462 0.15101 0.99814 -0.06800
H 	H 	0.22108 0.14314 0.99777 0.04800
C 	C 	0.23433 0.17126 0.99823 0.01000
H 	H 	0.22058 0.17852 0.99794 0.03700
C 	C 	0.25234 0.18270 0.99872 -0.08400
C 	C 	0.26926 0.17189 0.99907 0.01400
H 	H 	0.28308 0.17924 0.99943 0.03600
C 	C 	0.26896 0.15156 0.99896 -0.06900
H 	H 	0.28256 0.14400 0.99925 0.04900
C 	C 	0.25185 0.14074 0.99850 0.03800
C 	C 	0.25151 0.51647 0.99777 -0.01800
C 	C 	0.25164 0.49855 0.99783 -0.01800
C 	C 	0.25107 0.54874 0.98058 -0.04200
H 	H 	0.25094 0.54120 0.96697 0.04100
C 	C 	0.25093 0.56903 0.98052 -0.04000
H 	H 	0.25070 0.57665 0.96685 0.04100
C 	C 	0.25108 0.57960 0.99756 0.01500
C 	C 	0.25137 0.56893 0.01468 -0.04000
H 	H 	0.25149 0.57647 0.02829 0.04100
C 	C 	0.25151 0.54864 0.01475 -0.04200
H 	H 	0.25174 0.54102 0.02841 0.04100
C 	C 	0.25136 0.53807 0.99770 0.01800
C 	C 	0.25216 0.46628 0.01502 -0.04200
H 	H 	0.25234 0.47382 0.02864 0.04100
C 	C 	0.25230 0.44598 0.01509 -0.04000
H 	H 	0.25259 0.43836 0.02876 0.04100
C 	C 	0.25208 0.43541 0.99804 0.01500
C 	C 	0.25171 0.44608 0.98092 -0.04000
H 	H 	0.25153 0.43854 0.96731 0.04100
C 	C 	0.25157 0.46638 0.98085 -0.04200
H 	H 	0.25128 0.47399 0.96719 0.04100
C 	C 	0.25179 0.47695 0.99790 0.01800
C 	C 	0.25093 0.60121 0.99749 -0.01300
C 	C 	0.25081 0.61912 0.99743 -0.02500
C 	C 	0.25223 0.41381 0.99812 -0.01300
C 	C 	0.25236 0.39589 0.99818 -0.02500
C 	C 	0.25104 0.65131 0.01439 -0.07100
H 	H 	0.25144 0.64370 0.02806 0.04900
C 	C 	0.25092 0.67160 0.01433 0.01600
H 	H 	0.25124 0.67900 0.02802 0.03600
C 	C 	0.25043 0.68232 0.99719 -0.08800
C 	C 	0.25005 0.67168 0.98014 0.01600
H 	H 	0.24966 0.67913 0.96639 0.03600
C 	C 	0.25016 0.65138 0.98024 -0.07100
H 	H 	0.24986 0.64383 0.96662 0.04900
C 	C 	0.25067 0.64072 0.99735 0.04000
C 	C 	0.25215 0.36371 0.98122 -0.07100
H 	H 	0.25177 0.37133 0.96755 0.04900
C 	C 	0.25227 0.34342 0.98127 0.01600
H 	H 	0.25197 0.33603 0.96757 0.03600
C 	C 	0.25276 0.33269 0.99840 -0.08800
C 	C 	0.25311 0.34333 0.01546 0.01600
H 	H 	0.25349 0.33587 0.02921 0.03600
C 	C 	0.25299 0.36363 0.01537 -0.07100
H 	H 	0.25328 0.37117 0.02898 0.04900
C 	C 	0.25250 0.37429 0.99826 0.04000
C 	C 	0.75138 0.00754 0.98987 -0.01800
C 	C 	0.75169 0.00762 0.00781 -0.01800
C 	C 	0.75103 0.02446 0.95740 -0.04200
H 	H 	0.75134 0.03813 0.96485 0.04100
C 	C 	0.75067 0.02437 0.93708 -0.04100
H 	H 	0.75071 0.03797 0.92937 0.04100
C 	C 	0.75027 0.00725 0.92661 0.01600
C 	C 	0.75024 0.99023 0.93742 -0.04100
H 	H 	0.74993 0.97657 0.92998 0.04100
C 	C 	0.75060 0.99033 0.95775 -0.04200
H 	H 	0.75056 0.97672 0.96546 0.04100
C 	C 	0.75100 0.00744 0.96822 0.01700
C 	C 	0.75196 0.99069 0.04027 -0.04200
H 	H 	0.75160 0.97703 0.03283 0.04100
C 	C 	0.75232 0.99078 0.06059 -0.04000
H 	H 	0.75223 0.97718 0.06831 0.04100
C 	C 	0.75281 0.00790 0.07107 0.01500
C 	C 	0.75291 0.02492 0.06026 -0.04100
H 	H 	0.75329 0.03858 0.06770 0.04100
C 	C 	0.75255 0.02483 0.03993 -0.04200
H 	H 	0.75266 0.03843 0.03222 0.04100
C 	C 	0.75207 0.00771 0.02945 0.01800
C 	C 	0.74987 0.00716 0.90496 -0.01400
C 	C 	0.74952 0.00708 0.88701 -0.02500
C 	C 	0.75321 0.00799 0.09272 -0.01400
C 	C 	0.75356 0.00807 0.11066 -0.02500
C 	C 	0.76588 0.00696 0.85519 -0.07000
H 	H 	0.77971 0.00701 0.86315 0.04900
C 	C 	0.76543 0.00689 0.83486 0.01600
H 	H 	0.77898 0.00688 0.82780 0.03600
C 	C 	0.74809 0.00683 0.82368 -0.08700
C 	C 	0.73125 0.00685 0.83392 0.01600
H 	H 	0.71735 0.00682 0.82612 0.03600
C 	C 	0.73174 0.00693 0.85424 -0.07100
H 	H 	0.71827 0.00694 0.86144 0.04900
C 	C 	0.74905 0.00699 0.86537 0.03900
C 	C 	0.77135 0.00827 0.14343 -0.07100
H 	H 	0.78482 0.00828 0.13622 0.04900
C 	C 	0.77185 0.00834 0.16375 0.01600
H 	H 	0.78576 0.00841 0.17154 0.03600
C 	C 	0.75501 0.00832 0.17400 -0.08800
C 	C 	0.73767 0.00823 0.16282 0.01600
H 	H 	0.72412 0.00820 0.16989 0.03600
C 	C 	0.73721 0.00815 0.14249 -0.07100
H 	H 	0.72338 0.00807 0.13454 0.04900
C 	C 	0.75404 0.00816 0.13231 0.03900
C 	C 	0.75193 0.00760 0.48990 -0.01800
C 	C 	0.75122 0.00758 0.50779 -0.01800
C 	C 	0.77027 0.00747 0.45925 -0.04200
H 	H 	0.78361 0.00733 0.46803 0.04100
C 	C 	0.77106 0.00750 0.43900 -0.04100
H 	H 	0.78500 0.00737 0.43268 0.04100
C 	C 	0.75441 0.00768 0.42685 0.01500
C 	C 	0.73691 0.00784 0.43592 -0.04100
H 	H 	0.72357 0.00799 0.42714 0.04100
C 	C 	0.73612 0.00781 0.45618 -0.04200
H 	H 	0.72218 0.00794 0.46250 0.04100
C 	C 	0.75277 0.00763 0.46833 0.01800
C 	C 	0.73288 0.00764 0.53844 -0.04200
H 	H 	0.71954 0.00773 0.52966 0.04100
C 	C 	0.73209 0.00761 0.55869 -0.04000
H 	H 	0.71815 0.00769 0.56502 0.04100
C 	C 	0.74875 0.00750 0.57085 0.01500
C 	C 	0.76624 0.00741 0.56177 -0.04100
H 	H 	0.77958 0.00732 0.57055 0.04100
C 	C 	0.76703 0.00744 0.54151 -0.04200
H 	H 	0.78097 0.00736 0.53519 0.04100
C 	C 	0.75037 0.00755 0.52936 0.01800
C 	C 	0.75525 0.00772 0.40527 -0.01400
C 	C 	0.75594 0.00775 0.38739 -0.02500
C 	C 	0.74790 0.00747 0.59242 -0.01400
C 	C 	0.74721 0.00743 0.61031 -0.02500
C 	C 	0.75721 0.02488 0.35513 -0.07100
H 	H 	0.75699 0.03849 0.36264 0.04900
C 	C 	0.75788 0.02494 0.33487 0.01600
H 	H 	0.75813 0.03868 0.32741 0.03600
C 	C 	0.75815 0.00790 0.32424 -0.08700
C 	C 	0.75774 0.99080 0.33498 0.01600
H 	H 	0.75786 0.97711 0.32762 0.03600
C 	C 	0.75707 0.99077 0.35525 -0.07100
H 	H 	0.75673 0.97712 0.36285 0.04900
C 	C 	0.75676 0.00780 0.36581 0.03900
C 	C 	0.74612 0.02441 0.64245 -0.07000
H 	H 	0.74649 0.03807 0.63485 0.04900
C 	C 	0.74545 0.02438 0.66271 0.01600
H 	H 	0.74535 0.03807 0.67008 0.03600
C 	C 	0.74501 0.00728 0.67345 -0.08700
C 	C 	0.74524 0.99024 0.66282 0.01600
H 	H 	0.74497 0.97650 0.67027 0.03600
C 	C 	0.74591 0.99031 0.64255 -0.07100
H 	H 	0.74610 0.97669 0.63504 0.04900
C 	C 	0.74639 0.00739 0.63188 0.03900
