data_crystal

_cell_length_a 25.33230
_cell_length_b 25.92010
_cell_length_c 25.92010
_cell_angle_alpha 76.18490
_cell_angle_beta  60.74740
_cell_angle_gamma 60.74740

_symmetry_space_group_name_	'P 1'
_symmetry_space_group_name_H-M	'P 1'

loop_
_symmetry_equiv_pos_as_xyz
  x,y,z

loop_
_atom_site_label
_atom_site_type_symbol
_atom_site_fract_x
_atom_site_fract_y
_atom_site_fract_z
_atom_site_charge
Co	Co	0.82904 0.77153 0.73945 1.16500
Co	Co	0.33373 0.76990 0.73320 1.16600
Co	Co	0.85041 0.72953 0.23701 1.15900
Co	Co	0.31294 0.27107 0.76277 1.15400
Co	Co	0.34002 0.22847 0.26055 1.16600
Co	Co	0.83683 0.23010 0.26680 1.16600
Co	Co	0.81695 0.27047 0.76299 1.15900
Co	Co	0.34678 0.72893 0.23723 1.15300
H 	H 	0.72590 0.12760 0.78680 0.08200
H 	H 	0.09610 0.39510 0.80550 0.03800
H 	H 	0.93010 0.89460 0.68340 0.05000
H 	H 	0.42400 0.07350 0.66770 0.08500
H 	H 	0.41850 0.15360 0.69220 -0.01100
H 	H 	0.42610 0.98530 0.69330 0.04900
H 	H 	0.69470 0.25770 0.30870 0.02300
H 	H 	0.05720 0.63420 0.73300 0.08700
H 	H 	0.43350 0.89390 0.68250 0.05700
H 	H 	0.91770 0.07590 0.66970 0.08100
H 	H 	0.90990 0.36850 0.28690 0.09500
H 	H 	0.59520 0.27690 0.39530 0.08100
H 	H 	0.92100 0.98760 0.69740 0.05300
H 	H 	0.91260 0.76630 0.35510 0.04800
H 	H 	0.82410 0.33330 0.18590 0.00400
H 	H 	0.91600 0.57250 0.83390 0.06300
H 	H 	0.53820 0.78030 0.10270 0.09800
H 	H 	0.00240 0.48100 0.81580 0.06700
H 	H 	0.76790 0.72690 0.69510 0.02600
H 	H 	0.78290 0.69320 0.44540 0.04200
H 	H 	0.80880 0.51520 0.18280 0.05800
H 	H 	0.80230 0.60270 0.19410 0.04100
H 	H 	0.15400 0.72850 0.85950 0.04000
H 	H 	0.78440 0.26520 0.39260 -0.00500
H 	H 	0.55360 0.73670 0.94330 0.05200
H 	H 	0.95460 0.52100 0.23960 0.03300
H 	H 	0.72390 0.21500 0.80500 0.01300
H 	H 	0.22340 0.21370 0.79490 0.00900
H 	H 	0.91960 0.15050 0.69570 -0.01400
H 	H 	0.83140 0.42380 0.16660 0.06700
H 	H 	0.83560 0.66210 0.81430 0.01100
H 	H 	0.96170 0.43300 0.23040 0.07000
H 	H 	0.23930 0.97810 0.70550 0.05100
H 	H 	0.73230 0.97820 0.72120 0.04400
H 	H 	0.78480 0.69490 0.53570 0.06300
H 	H 	0.17320 0.83210 0.93630 0.03500
H 	H 	0.19590 0.48180 0.79360 0.03200
H 	H 	0.23470 0.06900 0.72180 0.05800
H 	H 	0.44830 0.77300 0.01900 0.08500
H 	H 	0.53080 0.22850 0.64370 0.04700
H 	H 	0.58470 0.82210 0.02770 0.05600
H 	H 	0.72660 0.06900 0.73660 0.06800
H 	H 	0.09310 0.81480 0.02440 0.06500
H 	H 	0.90810 0.77560 0.44840 0.05300
H 	H 	0.68670 0.29540 0.47900 0.07000
H 	H 	0.89870 0.28660 0.29800 -0.00800
H 	H 	0.67140 0.83280 0.93820 0.04600
H 	H 	0.06340 0.72530 0.94330 0.05900
H 	H 	0.96030 0.76380 0.18940 0.00300
H 	H 	0.88080 0.74060 0.10540 -0.01000
H 	H 	0.62300 0.23710 0.55490 0.05900
H 	H 	0.92160 0.76880 0.60460 0.00100
H 	H 	0.04590 0.77560 0.10280 0.09600
H 	H 	0.96940 0.74980 0.01500 0.07900
H 	H 	0.91430 0.77420 0.51900 0.07200
H 	H 	0.46340 0.75040 0.19180 0.00500
H 	H 	0.36570 0.76100 0.10580 -0.01600
H 	H 	0.41460 0.33510 0.55870 0.03000
H 	H 	0.63700 0.74860 0.85560 0.04700
H 	H 	0.22690 0.12730 0.77470 0.08800
H 	H 	0.10770 0.57080 0.79500 0.07300
H 	H 	0.50270 0.33600 0.47800 0.07100
H 	H 	0.97670 0.71810 0.72050 0.00500
H 	H 	0.77110 0.71960 0.60780 0.07800
H 	H 	0.64030 0.87240 0.21320 0.08200
H 	H 	0.29670 0.60490 0.19450 0.03900
H 	H 	0.50810 0.10540 0.31660 0.05100
H 	H 	0.16520 0.92650 0.33230 0.08500
H 	H 	0.26430 0.84640 0.30780 -0.01100
H 	H 	0.10470 0.01470 0.30670 0.04900
H 	H 	0.26110 0.74230 0.69130 0.02300
H 	H 	0.42440 0.36580 0.26700 0.09000
H 	H 	0.00990 0.10610 0.31750 0.05600
H 	H 	0.66330 0.92410 0.33030 0.08100
H 	H 	0.56530 0.63150 0.71310 0.09500
H 	H 	0.26740 0.72310 0.60470 0.08100
H 	H 	0.60600 0.01240 0.30260 0.05300
H 	H 	0.03400 0.23370 0.64490 0.04800
H 	H 	0.34330 0.66670 0.81410 0.00400
H 	H 	0.32240 0.42750 0.16610 0.06500
H 	H 	0.42120 0.21970 0.89730 0.09800
H 	H 	0.29920 0.51900 0.18420 0.06500
H 	H 	0.18990 0.27310 0.30490 0.02600
H 	H 	0.92150 0.30680 0.55460 0.04200
H 	H 	0.50680 0.48480 0.81720 0.05900
H 	H 	0.59910 0.39730 0.80590 0.04100
H 	H 	0.74200 0.27150 0.14050 0.04000
H 	H 	0.44220 0.73480 0.60740 -0.00500
H 	H 	0.23360 0.26330 0.05670 0.05200
H 	H 	0.71520 0.47900 0.76040 0.03300
H 	H 	0.74390 0.78500 0.19500 0.01300
H 	H 	0.23200 0.78630 0.20510 0.00900
H 	H 	0.76580 0.84950 0.30430 -0.01400
H 	H 	0.42180 0.57620 0.83340 0.06700
H 	H 	0.31200 0.33790 0.18570 0.01000
H 	H 	0.62510 0.56700 0.76960 0.07000
H 	H 	0.92290 0.02190 0.29450 0.05100
H 	H 	0.43170 0.02180 0.27880 0.04400
H 	H 	0.01540 0.30510 0.46430 0.06200
H 	H 	0.94160 0.16790 0.06370 0.03500
H 	H 	0.47130 0.51820 0.20640 0.03300
H 	H 	0.02550 0.93100 0.27820 0.05800
H 	H 	0.24030 0.22700 0.98100 0.08500
H 	H 	0.40300 0.77150 0.35630 0.04700
H 	H 	0.43450 0.17790 0.97230 0.05600
H 	H 	0.53220 0.93100 0.26340 0.06800
H 	H 	0.93230 0.18520 0.97560 0.06400
H 	H 	0.13210 0.22440 0.55160 0.05300
H 	H 	0.46110 0.70460 0.52100 0.07100
H 	H 	0.48330 0.71340 0.70200 -0.00800
H 	H 	0.44240 0.16720 0.06180 0.04600
H 	H 	0.73200 0.27470 0.05670 0.05900
H 	H 	0.91350 0.23620 0.81060 0.00200
H 	H 	0.72680 0.25940 0.89460 -0.01000
H 	H 	0.41500 0.76290 0.44510 0.06000
H 	H 	0.29500 0.23120 0.39540 0.00100
H 	H 	0.92430 0.22440 0.89720 0.09600
H 	H 	0.73420 0.25020 0.98500 0.07900
H 	H 	0.20750 0.22580 0.48100 0.07200
H 	H 	0.40560 0.24960 0.80820 0.00500
H 	H 	0.23250 0.23900 0.89420 -0.01600
H 	H 	0.30840 0.66490 0.44130 0.03000
H 	H 	0.24120 0.25140 0.14440 0.04700
H 	H 	0.12890 0.87270 0.22530 0.08900
H 	H 	0.47350 0.42920 0.20500 0.07100
H 	H 	0.31670 0.66400 0.52200 0.07100
H 	H 	0.41530 0.28190 0.27950 0.00300
H 	H 	0.09850 0.28040 0.39220 0.07800
C 	C 	0.85060 0.72550 0.39210 -0.08500
C 	C 	0.84540 0.72960 0.33400 0.35800
C 	C 	0.23300 0.77910 0.83490 0.26500
C 	C 	0.82810 0.92750 0.70910 -0.08400
C 	C 	0.66820 0.78090 0.88990 -0.06700
C 	C 	0.76500 0.13420 0.76520 -0.12200
C 	C 	0.40380 0.27870 0.67130 0.37500
C 	C 	0.09740 0.43140 0.80400 0.04000
C 	C 	0.63040 0.28000 0.45320 0.04000
C 	C 	0.72890 0.78050 0.83730 0.25200
C 	C 	0.50290 0.77470 0.05450 0.10800
C 	C 	0.46210 0.28430 0.60990 -0.09300
C 	C 	0.88820 0.92890 0.69570 0.00500
C 	C 	0.33350 0.92560 0.70000 -0.06000
C 	C 	0.17760 0.77840 0.88620 -0.10000
C 	C 	0.38200 0.10190 0.69370 -0.16400
C 	C 	0.15510 0.42900 0.79960 -0.11100
C 	C 	0.37760 0.15040 0.70720 0.10500
C 	C 	0.99550 0.59140 0.78700 0.04400
C 	C 	0.38780 0.98430 0.69610 -0.06100
C 	C 	0.21650 0.36950 0.79090 0.36100
C 	C 	0.33130 0.03630 0.70450 0.00400
C 	C 	0.69420 0.26240 0.34420 0.05000
C 	C 	0.01250 0.63840 0.75000 -0.12300
C 	C 	0.39210 0.92870 0.69130 -0.01100
C 	C 	0.01530 0.76450 0.05050 0.09400
C 	C 	0.32490 0.09260 0.71780 0.08600
C 	C 	0.87740 0.10360 0.69820 -0.15900
C 	C 	0.89020 0.36410 0.26610 -0.15400
C 	C 	0.63360 0.27360 0.39660 -0.10100
C 	C 	0.88270 0.98530 0.70190 -0.07700
C 	C 	0.87340 0.46540 0.21900 0.02400
C 	C 	0.88750 0.75150 0.39090 0.00200
C 	C 	0.82470 0.87300 0.71480 0.28200
C 	C 	0.83820 0.34320 0.20840 0.04900
C 	C 	0.92980 0.60140 0.80920 -0.10000
C 	C 	0.85280 0.73740 0.55200 0.06900
C 	C 	0.07200 0.77120 0.99160 0.02800
C 	C 	0.50560 0.77240 0.10220 -0.16000
C 	C 	0.55870 0.78330 0.99390 0.00600
C 	C 	0.82310 0.03620 0.71400 0.02500
C 	C 	0.04350 0.48120 0.80640 -0.10700
C 	C 	0.80090 0.73430 0.65970 0.04900
C 	C 	0.81130 0.70720 0.44540 0.01200
C 	C 	0.83520 0.51610 0.19850 -0.09000
C 	C 	0.83540 0.56680 0.20080 0.02500
C 	C 	0.14020 0.74830 0.89350 0.02300
C 	C 	0.74540 0.26830 0.39270 0.06500
C 	C 	0.32940 0.87230 0.70370 0.24300
C 	C 	0.57690 0.75670 0.94250 -0.07100
C 	C 	0.92540 0.51920 0.22800 0.03500
C 	C 	0.76350 0.18650 0.77690 0.04100
C 	C 	0.26440 0.18520 0.76760 0.05200
C 	C 	0.87770 0.14910 0.71130 0.10400
C 	C 	0.05020 0.53350 0.79410 0.04100
C 	C 	0.84430 0.39710 0.19510 -0.11500
C 	C 	0.88150 0.65470 0.79590 0.03200
C 	C 	0.86980 0.41010 0.22530 0.06200
C 	C 	0.92620 0.46860 0.22660 -0.09200
C 	C 	0.57300 0.28460 0.50780 0.04100
C 	C 	0.27680 0.97790 0.70570 -0.01000
C 	C 	0.77080 0.97880 0.71860 0.01300
C 	C 	0.81140 0.70810 0.49970 -0.07900
C 	C 	0.15480 0.80740 0.93700 0.02200
C 	C 	0.15700 0.48240 0.79580 0.04200
C 	C 	0.27560 0.03390 0.71210 -0.06400
C 	C 	0.45060 0.77010 0.05510 -0.16600
C 	C 	0.52470 0.25150 0.61070 0.00700
C 	C 	0.59530 0.80710 0.99210 -0.06500
C 	C 	0.76810 0.03430 0.72470 -0.08600
C 	C 	0.10450 0.79920 0.98880 -0.09100
C 	C 	0.88620 0.75530 0.44690 -0.07500
C 	C 	0.82030 0.09450 0.72450 0.07600
C 	C 	0.68750 0.28320 0.44680 -0.11500
C 	C 	0.88110 0.31630 0.27350 0.11100
C 	C 	0.64920 0.81120 0.94000 -0.00900
C 	C 	0.08750 0.74450 0.94250 -0.09300
C 	C 	0.96180 0.76130 0.15270 0.09400
C 	C 	0.57920 0.25600 0.55640 -0.08500
C 	C 	0.88800 0.76020 0.60700 0.06300
C 	C 	0.01320 0.76840 0.10140 -0.15400
C 	C 	0.96820 0.75310 0.05130 -0.15500
C 	C 	0.88840 0.75920 0.55380 -0.13100
C 	C 	0.45850 0.75770 0.15630 0.08400
C 	C 	0.40280 0.76190 0.10550 0.10100
C 	C 	0.45760 0.31420 0.55860 0.03900
C 	C 	0.85480 0.73040 0.49600 0.02100
C 	C 	0.62890 0.76090 0.89150 0.00400
C 	C 	0.26640 0.13330 0.75590 -0.13500
C 	C 	0.10670 0.53460 0.79500 -0.10500
C 	C 	0.50890 0.31450 0.51150 -0.10700
C 	C 	0.96510 0.68670 0.74030 0.07600
C 	C 	0.80310 0.72900 0.60740 -0.11300
C 	C 	0.88190 0.56890 0.21250 -0.09800
C 	C 	0.87570 0.63250 0.21490 0.37300
C 	C 	0.91800 0.74640 0.10420 0.09300
C 	C 	0.96820 0.27450 0.60790 -0.08700
C 	C 	0.90900 0.27040 0.66600 0.35800
C 	C 	0.84700 0.22090 0.16510 0.26500
C 	C 	0.46470 0.07250 0.29090 -0.08400
C 	C 	0.33900 0.21910 0.11010 -0.06700
C 	C 	0.66440 0.86580 0.23480 -0.12200
C 	C 	0.35380 0.72130 0.32870 0.37500
C 	C 	0.33280 0.56860 0.19600 0.03700
C 	C 	0.36360 0.72000 0.54680 0.04000
C 	C 	0.34670 0.21950 0.16270 0.25200
C 	C 	0.33210 0.22530 0.94550 0.10800
C 	C 	0.35630 0.71570 0.39010 -0.09300
C 	C 	0.51280 0.07110 0.30430 0.00500
C 	C 	0.95910 0.07440 0.30000 -0.06100
C 	C 	0.84220 0.22160 0.11380 -0.10100
C 	C 	0.17760 0.89810 0.30630 -0.16400
C 	C 	0.38370 0.57100 0.20040 -0.10900
C 	C 	0.23520 0.84960 0.29280 0.10500
C 	C 	0.37390 0.40860 0.21300 0.05200
C 	C 	0.06820 0.01570 0.30390 -0.06100
C 	C 	0.37690 0.63050 0.20910 0.36100
C 	C 	0.07210 0.96370 0.29550 0.00400
C 	C 	0.30080 0.73760 0.65580 0.05000
C 	C 	0.40090 0.36160 0.25000 -0.13300
C 	C 	0.01210 0.07130 0.30870 -0.00900
C 	C 	0.83030 0.23550 0.94950 0.09200
C 	C 	0.13530 0.90740 0.28220 0.08700
C 	C 	0.67920 0.89640 0.30180 -0.15900
C 	C 	0.52040 0.63590 0.73390 -0.15400
C 	C 	0.30380 0.72640 0.60340 -0.10100
C 	C 	0.56990 0.01470 0.29810 -0.07600
C 	C 	0.55780 0.53460 0.78100 0.02400
C 	C 	0.02990 0.24850 0.60910 0.00500
C 	C 	0.41250 0.12700 0.28520 0.28200
C 	C 	0.38980 0.65680 0.79160 0.04900
C 	C 	0.34040 0.39860 0.19080 -0.10400
C 	C 	0.14220 0.26260 0.44800 0.07000
C 	C 	0.83480 0.22880 0.00840 0.02800
C 	C 	0.38020 0.22760 0.89780 -0.16000
C 	C 	0.33590 0.21670 0.00610 0.00600
C 	C 	0.57330 0.96380 0.28600 0.02400
C 	C 	0.33110 0.51880 0.19360 -0.10400
C 	C 	0.19490 0.26570 0.34030 0.05000
C 	C 	0.96390 0.29280 0.55460 0.01000
C 	C 	0.54980 0.48390 0.80150 -0.09000
C 	C 	0.60300 0.43320 0.79920 0.02500
C 	C 	0.78200 0.25170 0.10650 0.02400
C 	C 	0.40640 0.73170 0.60730 0.06500
C 	C 	0.90540 0.12770 0.29630 0.24300
C 	C 	0.27610 0.24330 0.05750 -0.07100
C 	C 	0.67260 0.48080 0.77200 0.03500
C 	C 	0.72690 0.81350 0.22310 0.04100
C 	C 	0.21720 0.81480 0.23240 0.05200
C 	C 	0.73810 0.85090 0.28870 0.10400
C 	C 	0.37780 0.46650 0.20590 0.03600
C 	C 	0.43650 0.60290 0.80490 -0.11500
C 	C 	0.33210 0.34530 0.20410 0.03400
C 	C 	0.50520 0.58990 0.77470 0.06200
C 	C 	0.62140 0.53140 0.77340 -0.09200
C 	C 	0.36540 0.71540 0.49220 0.04100
C 	C 	0.96040 0.02210 0.29430 -0.01200
C 	C 	0.46820 0.02120 0.28140 0.01400
C 	C 	0.01920 0.29190 0.50030 -0.07700
C 	C 	0.89920 0.19260 0.06300 0.02200
C 	C 	0.43520 0.51760 0.20420 0.03900
C 	C 	0.02160 0.96610 0.28790 -0.06100
C 	C 	0.27580 0.22990 0.94490 -0.16600
C 	C 	0.38690 0.74850 0.38930 0.00700
C 	C 	0.39450 0.19290 0.00790 -0.06400
C 	C 	0.52710 0.96570 0.27530 -0.08600
C 	C 	0.89250 0.20080 0.01120 -0.09100
C 	C 	0.08840 0.24470 0.55310 -0.07400
C 	C 	0.63930 0.90550 0.27550 0.07600
C 	C 	0.41750 0.71680 0.55320 -0.11500
C 	C 	0.47090 0.68370 0.72650 0.11100
C 	C 	0.40040 0.18880 0.06000 -0.00900
C 	C 	0.77450 0.25550 0.05750 -0.09400
C 	C 	0.87580 0.23870 0.84730 0.09700
C 	C 	0.39160 0.74400 0.44360 -0.08500
C 	C 	0.25520 0.23980 0.39300 0.06300
C 	C 	0.88300 0.23160 0.89860 -0.15700
C 	C 	0.77260 0.24690 0.94870 -0.15200
C 	C 	0.20140 0.24080 0.44620 -0.13100
C 	C 	0.37250 0.24230 0.84370 0.08400
C 	C 	0.27020 0.23810 0.89450 0.10100
C 	C 	0.33040 0.68580 0.44140 0.03900
C 	C 	0.08120 0.26960 0.50400 0.02000
C 	C 	0.28130 0.23910 0.10850 0.00400
C 	C 	0.15560 0.86670 0.24410 -0.13500
C 	C 	0.43630 0.46540 0.20500 -0.10100
C 	C 	0.33490 0.68550 0.48850 -0.10700
C 	C 	0.39210 0.31330 0.25970 0.08300
C 	C 	0.13950 0.27100 0.39260 -0.11300
C 	C 	0.66330 0.43110 0.78750 -0.09700
C 	C 	0.72310 0.36750 0.78510 0.37300
C 	C 	0.76860 0.25360 0.89580 0.09200
N 	N 	0.32150 0.19500 0.73960 -0.24800
N 	N 	0.84400 0.75000 0.66480 -0.25100
N 	N 	0.82260 0.19340 0.74520 -0.24400
N 	N 	0.75210 0.25790 0.34030 -0.25000
N 	N 	0.85160 0.30420 0.25240 -0.25100
N 	N 	0.90190 0.69630 0.75550 -0.23800
N 	N 	0.91580 0.75160 0.15400 -0.24800
N 	N 	0.40910 0.75480 0.15520 -0.24500
N 	N 	0.25610 0.80500 0.26040 -0.24800
N 	N 	0.25880 0.25000 0.33520 -0.25100
N 	N 	0.76120 0.80660 0.25480 -0.24400
N 	N 	0.35030 0.74210 0.65970 -0.25000
N 	N 	0.40820 0.69580 0.74760 -0.25100
N 	N 	0.35370 0.30370 0.24450 -0.23900
N 	N 	0.82140 0.24840 0.84600 -0.24800
N 	N 	0.31910 0.24520 0.84480 -0.24500
O 	O 	0.80690 0.70980 0.33780 -0.37000
O 	O 	0.34700 0.30270 0.66450 -0.35800
O 	O 	0.76790 0.79840 0.83400 -0.35400
O 	O 	0.27370 0.79710 0.82990 -0.34500
O 	O 	0.21080 0.32600 0.79120 -0.42700
O 	O 	0.38010 0.82150 0.70930 -0.37700
O 	O 	0.74490 0.75490 0.78770 -0.36200
O 	O 	0.41190 0.25520 0.70900 -0.47500
O 	O 	0.87670 0.82380 0.71420 -0.38700
O 	O 	0.25020 0.75610 0.78290 -0.37300
O 	O 	0.87790 0.74690 0.29130 -0.44300
O 	O 	0.26770 0.36750 0.78690 -0.37900
O 	O 	0.77220 0.86990 0.72390 -0.34200
O 	O 	0.27590 0.86950 0.71250 -0.32200
O 	O 	0.83140 0.67510 0.20930 -0.44100
O 	O 	0.91870 0.63490 0.22250 -0.39500
O 	O 	0.85450 0.29020 0.66220 -0.37000
O 	O 	0.31420 0.69730 0.33550 -0.35800
O 	O 	0.40030 0.20160 0.16600 -0.35400
O 	O 	0.90070 0.20290 0.17010 -0.34600
O 	O 	0.32800 0.67400 0.20880 -0.42700
O 	O 	0.91090 0.17850 0.29070 -0.37800
O 	O 	0.28750 0.24510 0.21230 -0.36200
O 	O 	0.37610 0.74480 0.29100 -0.47500
O 	O 	0.41470 0.17620 0.28580 -0.38700
O 	O 	0.78920 0.24390 0.21710 -0.37300
O 	O 	0.91610 0.25310 0.70870 -0.44300
O 	O 	0.42210 0.63250 0.21310 -0.37900
O 	O 	0.36600 0.13010 0.27610 -0.34200
O 	O 	0.85790 0.13050 0.28750 -0.32200
O 	O 	0.71580 0.32490 0.79070 -0.44100
O 	O 	0.77610 0.36510 0.77750 -0.39400
Co	Co	0.56849 0.26055 0.77153 1.16500
Co	Co	0.06693 0.26680 0.76990 1.16500
Co	Co	0.08742 0.76299 0.72953 1.15800
Co	Co	0.07571 0.23723 0.27107 1.15300
Co	Co	0.60057 0.73945 0.22847 1.16500
Co	Co	0.10363 0.73320 0.23010 1.16500
Co	Co	0.57994 0.23701 0.27047 1.15800
Co	Co	0.58401 0.76277 0.72893 1.15300
H 	H 	0.51270 0.21320 0.12760 0.08200
H 	H 	0.90160 0.19450 0.39510 0.03800
H 	H 	0.61350 0.31660 0.89460 0.05100
H 	H 	0.09170 0.33230 0.07350 0.08500
H 	H 	0.11070 0.30780 0.15360 -0.01100
H 	H 	0.11940 0.30670 0.98530 0.04900
H 	H 	0.00340 0.69130 0.25770 0.02500
H 	H 	0.79020 0.26700 0.63420 0.09000
H 	H 	0.11600 0.31750 0.89390 0.05600
H 	H 	0.58740 0.33030 0.07590 0.08100
H 	H 	0.19680 0.71310 0.36850 0.09500
H 	H 	0.99050 0.60470 0.27690 0.07800
H 	H 	0.61840 0.30260 0.98760 0.05300
H 	H 	0.26770 0.64490 0.76630 0.04900
H 	H 	0.01000 0.81410 0.33330 0.00500
H 	H 	0.74990 0.16610 0.57250 0.06500
H 	H 	0.64090 0.89730 0.78030 0.09800
H 	H 	0.81820 0.18420 0.48100 0.06500
H 	H 	0.46300 0.30490 0.72690 0.02600
H 	H 	0.22830 0.55460 0.69320 0.04200
H 	H 	0.99160 0.81720 0.51520 0.05700
H 	H 	0.99640 0.80590 0.60270 0.03900
H 	H 	0.01350 0.14050 0.72850 0.04100
H 	H 	0.17700 0.60740 0.26520 -0.00400
H 	H 	0.49690 0.05670 0.73670 0.05200
H 	H 	0.19420 0.76040 0.52100 0.03300
H 	H 	0.52890 0.19500 0.21500 0.01300
H 	H 	0.01830 0.20510 0.21370 0.00900
H 	H 	0.61530 0.30430 0.15050 -0.01400
H 	H 	0.99800 0.83340 0.42380 0.06400
H 	H 	0.64990 0.18570 0.66210 0.01000
H 	H 	0.19210 0.76960 0.43300 0.07000
H 	H 	0.94480 0.29450 0.97810 0.05100
H 	H 	0.45350 0.27880 0.97820 0.04400
H 	H 	0.32050 0.46430 0.69490 0.06300
H 	H 	0.10950 0.06370 0.83210 0.03500
H 	H 	0.98950 0.20640 0.48180 0.03200
H 	H 	0.95650 0.27820 0.06900 0.05900
H 	H 	0.46730 0.98100 0.77300 0.08500
H 	H 	0.17450 0.35630 0.22850 0.04700
H 	H 	0.61240 0.97230 0.82210 0.05600
H 	H 	0.46320 0.26340 0.06900 0.06800
H 	H 	0.11750 0.97560 0.81480 0.06500
H 	H 	0.35650 0.55160 0.77560 0.05300
H 	H 	0.16570 0.52100 0.29540 0.07000
H 	H 	0.19670 0.70200 0.28660 -0.00800
H 	H 	0.60960 0.06180 0.83280 0.04600
H 	H 	0.00670 0.05670 0.72530 0.06000
H 	H 	0.14970 0.81060 0.76380 0.00300
H 	H 	0.98620 0.89460 0.74060 -0.01100
H 	H 	0.17790 0.44510 0.23710 0.06000
H 	H 	0.52620 0.39540 0.76880 0.00200
H 	H 	0.14870 0.89720 0.77560 0.09600
H 	H 	0.98440 0.98500 0.74980 0.07600
H 	H 	0.43330 0.48100 0.77420 0.07200
H 	H 	0.65520 0.80820 0.75040 0.00600
H 	H 	0.47150 0.89420 0.76100 -0.01600
H 	H 	0.97330 0.44130 0.33510 0.02800
H 	H 	0.49260 0.14440 0.74860 0.04700
H 	H 	0.00160 0.22530 0.12730 0.08900
H 	H 	0.90270 0.20500 0.57080 0.07200
H 	H 	0.98070 0.52200 0.33600 0.06900
H 	H 	0.69720 0.27950 0.71810 0.00300
H 	H 	0.37890 0.39220 0.71960 0.07800
H 	H 	0.85350 0.78680 0.87240 0.08200
H 	H 	0.49120 0.80550 0.60490 0.03900
H 	H 	0.82470 0.68340 0.10540 0.05100
H 	H 	0.49750 0.66770 0.92650 0.08500
H 	H 	0.57210 0.69220 0.84640 -0.01100
H 	H 	0.41140 0.69330 0.01470 0.04900
H 	H 	0.95240 0.30870 0.74230 0.02300
H 	H 	0.69140 0.73300 0.36580 0.09000
H 	H 	0.32740 0.68250 0.10610 0.05700
H 	H 	0.99360 0.66970 0.92410 0.08200
H 	H 	0.27840 0.28690 0.63150 0.09500
H 	H 	0.87210 0.39530 0.72310 0.08100
H 	H 	0.90860 0.69740 0.01240 0.05300
H 	H 	0.67890 0.35510 0.23370 0.04900
H 	H 	0.15740 0.18590 0.66670 0.00400
H 	H 	0.48850 0.83390 0.42750 0.06500
H 	H 	0.31850 0.10270 0.21970 0.09800
H 	H 	0.48340 0.81580 0.51900 0.06500
H 	H 	0.49480 0.69510 0.27310 0.02600
H 	H 	0.47610 0.44540 0.30680 0.04200
H 	H 	0.32400 0.18280 0.48480 0.05900
H 	H 	0.40500 0.19410 0.39730 0.04100
H 	H 	0.88250 0.85950 0.27150 0.04000
H 	H 	0.04960 0.39260 0.73480 -0.00500
H 	H 	0.29030 0.94330 0.26330 0.05200
H 	H 	0.47560 0.23960 0.47900 0.03300
H 	H 	0.93890 0.80500 0.78500 0.01300
H 	H 	0.43710 0.79490 0.78630 0.00900
H 	H 	0.07010 0.69570 0.84950 -0.01500
H 	H 	0.25520 0.16660 0.57620 0.06700
H 	H 	0.49770 0.81430 0.33790 0.01000
H 	H 	0.39470 0.23040 0.56700 0.07000
H 	H 	0.21740 0.70550 0.02190 0.05100
H 	H 	0.71050 0.72120 0.02180 0.04400
H 	H 	0.47970 0.53570 0.30510 0.06300
H 	H 	0.00530 0.93630 0.16790 0.03800
H 	H 	0.67770 0.79360 0.51820 0.03300
H 	H 	0.30370 0.72180 0.93100 0.05800
H 	H 	0.22130 0.01900 0.22700 0.08500
H 	H 	0.75930 0.64370 0.77150 0.04700
H 	H 	0.40680 0.02770 0.17790 0.05600
H 	H 	0.79560 0.73660 0.93100 0.06800
H 	H 	0.90790 0.02440 0.18520 0.06400
H 	H 	0.68370 0.44840 0.22440 0.05300
H 	H 	0.98210 0.47900 0.70460 0.07100
H 	H 	0.18530 0.29800 0.71340 -0.00800
H 	H 	0.50420 0.93820 0.16720 0.04600
H 	H 	0.78870 0.94330 0.27470 0.05900
H 	H 	0.72410 0.18940 0.23620 0.00300
H 	H 	0.62140 0.10540 0.25940 -0.01000
H 	H 	0.86010 0.55490 0.76290 0.05900
H 	H 	0.69040 0.60460 0.23120 0.00200
H 	H 	0.82150 0.10280 0.22440 0.09700
H 	H 	0.71920 0.01500 0.25020 0.07900
H 	H 	0.68850 0.51900 0.22580 0.07200
H 	H 	0.21380 0.19180 0.24960 0.00600
H 	H 	0.12670 0.10580 0.23900 -0.01600
H 	H 	0.74970 0.55870 0.66490 0.03000
H 	H 	0.38560 0.85560 0.25140 0.04700
H 	H 	0.35420 0.77470 0.87270 0.08800
H 	H 	0.67850 0.79500 0.42920 0.07100
H 	H 	0.83870 0.47800 0.66400 0.07000
H 	H 	0.69480 0.72050 0.28190 0.00300
H 	H 	0.49070 0.60780 0.28040 0.07800
C 	C 	0.24270 0.60790 0.72550 -0.08500
C 	C 	0.17940 0.66600 0.72960 0.35800
C 	C 	0.06790 0.16510 0.77910 0.26500
C 	C 	0.53720 0.29090 0.92750 -0.08400
C 	C 	0.55810 0.11010 0.78090 -0.06700
C 	C 	0.53020 0.23480 0.13420 -0.12200
C 	C 	0.07510 0.32870 0.27870 0.37500
C 	C 	0.90140 0.19600 0.43140 0.03900
C 	C 	0.08360 0.54680 0.28000 0.03900
C 	C 	0.56620 0.16270 0.78050 0.25200
C 	C 	0.55740 0.94550 0.77470 0.10800
C 	C 	0.07200 0.39010 0.28430 -0.09300
C 	C 	0.58390 0.30430 0.92890 0.00500
C 	C 	0.03350 0.30000 0.92560 -0.05800
C 	C 	0.06380 0.11380 0.77840 -0.10100
C 	C 	0.07570 0.30630 0.10190 -0.16400
C 	C 	0.95470 0.20040 0.42900 -0.11200
C 	C 	0.08480 0.29280 0.15040 0.10500
C 	C 	0.78250 0.21300 0.59140 0.05200
C 	C 	0.08390 0.30390 0.98430 -0.06100
C 	C 	0.00740 0.20910 0.36950 0.36300
C 	C 	0.03580 0.29550 0.03630 0.00700
C 	C 	0.03840 0.65580 0.26240 0.04800
C 	C 	0.76250 0.25000 0.63840 -0.13300
C 	C 	0.08340 0.30870 0.92870 -0.01100
C 	C 	0.06580 0.94950 0.76450 0.09000
C 	C 	0.04270 0.28220 0.09260 0.08600
C 	C 	0.57560 0.30180 0.10360 -0.15900
C 	C 	0.15630 0.73390 0.36410 -0.15300
C 	C 	0.03020 0.60340 0.27360 -0.09600
C 	C 	0.58460 0.29810 0.98530 -0.07600
C 	C 	0.09240 0.78100 0.46540 0.02500
C 	C 	0.27840 0.60910 0.75150 0.00200
C 	C 	0.53950 0.28520 0.87300 0.28200
C 	C 	0.04660 0.79160 0.34320 0.04700
C 	C 	0.73900 0.19080 0.60140 -0.10400
C 	C 	0.40480 0.44800 0.73740 0.06900
C 	C 	0.06360 0.00840 0.77120 0.02900
C 	C 	0.60780 0.89780 0.77240 -0.16000
C 	C 	0.55260 0.00610 0.78330 0.00600
C 	C 	0.53710 0.28600 0.03620 0.02400
C 	C 	0.84990 0.19360 0.48120 -0.10500
C 	C 	0.46060 0.34030 0.73430 0.04900
C 	C 	0.25670 0.55460 0.70720 0.01200
C 	C 	0.03370 0.80150 0.51610 -0.08800
C 	C 	0.03620 0.79920 0.56680 0.02800
C 	C 	0.03370 0.10650 0.74830 0.02400
C 	C 	0.13810 0.60730 0.26830 0.06400
C 	C 	0.03310 0.29630 0.87230 0.24500
C 	C 	0.51940 0.05750 0.75670 -0.07100
C 	C 	0.15340 0.77200 0.51920 0.03600
C 	C 	0.54040 0.22310 0.18650 0.04100
C 	C 	0.03200 0.23240 0.18520 0.05200
C 	C 	0.58900 0.28870 0.14910 0.10400
C 	C 	0.84430 0.20590 0.53350 0.03700
C 	C 	0.03940 0.80490 0.39710 -0.11000
C 	C 	0.67740 0.20410 0.65470 0.03400
C 	C 	0.09510 0.77470 0.41010 0.06000
C 	C 	0.15280 0.77340 0.46860 -0.09300
C 	C 	0.08080 0.49220 0.28460 0.04100
C 	C 	0.98250 0.29430 0.97790 -0.01100
C 	C 	0.48940 0.28140 0.97880 0.01300
C 	C 	0.31110 0.50030 0.70810 -0.07900
C 	C 	0.09180 0.06300 0.80740 0.02300
C 	C 	0.95280 0.20420 0.48240 0.04100
C 	C 	0.98770 0.28790 0.03390 -0.06600
C 	C 	0.50570 0.94490 0.77010 -0.16600
C 	C 	0.13540 0.38930 0.25150 0.00800
C 	C 	0.58740 0.00790 0.80710 -0.06400
C 	C 	0.49280 0.27530 0.03430 -0.08600
C 	C 	0.09330 0.01120 0.79920 -0.09200
C 	C 	0.33310 0.55310 0.75530 -0.07400
C 	C 	0.54480 0.27550 0.09450 0.07600
C 	C 	0.13430 0.55320 0.28320 -0.11400
C 	C 	0.15460 0.72650 0.31630 0.11100
C 	C 	0.58920 0.06000 0.81120 -0.00900
C 	C 	0.03000 0.05750 0.74450 -0.09400
C 	C 	0.11450 0.84730 0.76130 0.09600
C 	C 	0.13560 0.44360 0.25600 -0.08600
C 	C 	0.49500 0.39300 0.76020 0.06300
C 	C 	0.11460 0.89860 0.76840 -0.15600
C 	C 	0.01950 0.94870 0.75310 -0.14800
C 	C 	0.44220 0.44620 0.75920 -0.13100
C 	C 	0.61480 0.84370 0.75770 0.08400
C 	C 	0.50830 0.89450 0.76190 0.10100
C 	C 	0.01620 0.44140 0.31420 0.04200
C 	C 	0.35080 0.50400 0.73040 0.02100
C 	C 	0.52040 0.10850 0.76090 0.00400
C 	C 	0.02230 0.24410 0.13330 -0.13400
C 	C 	0.90170 0.20500 0.53460 -0.10300
C 	C 	0.02040 0.48850 0.31450 -0.10500
C 	C 	0.70540 0.25970 0.68670 0.08300
C 	C 	0.41050 0.39260 0.72900 -0.11300
C 	C 	0.09440 0.78750 0.56890 -0.09800
C 	C 	0.09060 0.78510 0.63250 0.37300
C 	C 	0.02220 0.89580 0.74640 0.09400
C 	C 	0.57610 0.39210 0.27450 -0.08500
C 	C 	0.57500 0.33400 0.27040 0.35800
C 	C 	0.01210 0.83490 0.22090 0.26700
C 	C 	0.75560 0.70910 0.07250 -0.08300
C 	C 	0.44910 0.88990 0.21910 -0.06700
C 	C 	0.89920 0.76520 0.86580 -0.12300
C 	C 	0.68250 0.67130 0.72130 0.37500
C 	C 	0.52880 0.80400 0.56860 0.03700
C 	C 	0.91040 0.45320 0.72000 0.04100
C 	C 	0.50940 0.83730 0.21950 0.25200
C 	C 	0.27760 0.05450 0.22530 0.10800
C 	C 	0.74640 0.60990 0.71570 -0.09200
C 	C 	0.81710 0.69570 0.07110 0.00400
C 	C 	0.25910 0.70000 0.07440 -0.06000
C 	C 	0.95600 0.88620 0.22160 -0.10200
C 	C 	0.48390 0.69370 0.89810 -0.16400
C 	C 	0.58410 0.79960 0.57100 -0.10900
C 	C 	0.52800 0.70720 0.84960 0.10500
C 	C 	0.58690 0.78700 0.40860 0.05200
C 	C 	0.37210 0.69610 0.01570 -0.06000
C 	C 	0.58600 0.79090 0.63050 0.36100
C 	C 	0.36760 0.70450 0.96370 0.00400
C 	C 	0.95660 0.34420 0.73760 0.04800
C 	C 	0.65090 0.75000 0.36160 -0.13300
C 	C 	0.32080 0.69130 0.07130 -0.01100
C 	C 	0.77980 0.05050 0.23550 0.09300
C 	C 	0.41750 0.71780 0.90740 0.08600
C 	C 	0.98100 0.69820 0.89640 -0.16400
C 	C 	0.25430 0.26610 0.63590 -0.15400
C 	C 	0.90720 0.39660 0.72640 -0.10100
C 	C 	0.86800 0.70190 0.01470 -0.07500
C 	C 	0.33880 0.21900 0.53460 0.02500
C 	C 	0.63900 0.39090 0.24850 0.00200
C 	C 	0.69770 0.71480 0.12700 0.28200
C 	C 	0.18140 0.20840 0.65680 0.04900
C 	C 	0.53120 0.80920 0.39860 -0.10400
C 	C 	0.59020 0.55200 0.26260 0.06900
C 	C 	0.84320 0.99160 0.22880 0.02700
C 	C 	0.27800 0.10220 0.22760 -0.16000
C 	C 	0.34200 0.99390 0.21670 0.00600
C 	C 	0.85930 0.71400 0.96380 0.02300
C 	C 	0.52470 0.80640 0.51880 -0.10400
C 	C 	0.53520 0.65970 0.26570 0.04900
C 	C 	0.51850 0.44540 0.29280 0.01200
C 	C 	0.35130 0.19850 0.48390 -0.09000
C 	C 	0.40220 0.20080 0.43320 0.02500
C 	C 	0.88850 0.89350 0.25170 0.02300
C 	C 	0.01370 0.39270 0.73170 0.06800
C 	C 	0.20170 0.70370 0.12770 0.24300
C 	C 	0.33360 0.94250 0.24330 -0.07100
C 	C 	0.44460 0.22800 0.48080 0.03500
C 	C 	0.95000 0.77690 0.81350 0.04000
C 	C 	0.44960 0.76760 0.81480 0.05200
C 	C 	0.02680 0.71130 0.85090 0.10900
C 	C 	0.58370 0.79410 0.46650 0.03600
C 	C 	0.24140 0.19510 0.60290 -0.11500
C 	C 	0.53620 0.79590 0.34530 0.03400
C 	C 	0.27990 0.22530 0.58990 0.06200
C 	C 	0.39480 0.22660 0.53140 -0.09200
C 	C 	0.85760 0.50780 0.71540 0.04000
C 	C 	0.25470 0.70570 0.02210 -0.01000
C 	C 	0.74960 0.71860 0.02120 0.01300
C 	C 	0.51950 0.49970 0.29190 -0.07900
C 	C 	0.96220 0.93700 0.19260 0.01800
C 	C 	0.63940 0.79580 0.51760 0.03900
C 	C 	0.30950 0.71210 0.96610 -0.06400
C 	C 	0.22070 0.05510 0.22990 -0.16600
C 	C 	0.77620 0.61070 0.74850 0.00700
C 	C 	0.40240 0.99210 0.19290 -0.06400
C 	C 	0.80240 0.72470 0.96570 -0.08500
C 	C 	0.90370 0.98880 0.20080 -0.08900
C 	C 	0.64150 0.44690 0.24470 -0.07400
C 	C 	0.91480 0.72450 0.90550 0.07800
C 	C 	0.97070 0.44680 0.71680 -0.11800
C 	C 	0.19740 0.27350 0.68370 0.11100
C 	C 	0.46040 0.94000 0.18880 -0.00900
C 	C 	0.83200 0.94250 0.25550 -0.09300
C 	C 	0.72310 0.15270 0.23870 0.09700
C 	C 	0.83520 0.55640 0.74400 -0.08500
C 	C 	0.64820 0.60700 0.23980 0.06300
C 	C 	0.78160 0.10140 0.23160 -0.15700
C 	C 	0.72130 0.05130 0.24690 -0.15200
C 	C 	0.64760 0.55380 0.24080 -0.13100
C 	C 	0.21620 0.15630 0.24230 0.08400
C 	C 	0.16470 0.10550 0.23810 0.10100
C 	C 	0.77180 0.55860 0.68580 0.03900
C 	C 	0.58520 0.49600 0.26960 0.02100
C 	C 	0.38980 0.89150 0.23910 0.00400
C 	C 	0.39970 0.75590 0.86670 -0.13500
C 	C 	0.64130 0.79500 0.46540 -0.10100
C 	C 	0.82340 0.51150 0.68550 -0.10700
C 	C 	0.65180 0.74030 0.31330 0.08300
C 	C 	0.53210 0.60740 0.27100 -0.11300
C 	C 	0.45080 0.21250 0.43110 -0.09700
C 	C 	0.50820 0.21490 0.36750 0.37300
C 	C 	0.66440 0.10420 0.25360 0.09200
N 	N 	0.06110 0.26040 0.19500 -0.24800
N 	N 	0.50880 0.33520 0.75000 -0.25100
N 	N 	0.56780 0.25480 0.19340 -0.24400
N 	N 	0.09240 0.65970 0.25790 -0.25000
N 	N 	0.10400 0.74760 0.30420 -0.25100
N 	N 	0.65740 0.24450 0.69630 -0.23900
N 	N 	0.06980 0.84600 0.75160 -0.24800
N 	N 	0.56430 0.84480 0.75480 -0.24500
N 	N 	0.51650 0.73960 0.80500 -0.24800
N 	N 	0.59400 0.66480 0.25000 -0.25100
N 	N 	0.01600 0.74520 0.80660 -0.24300
N 	N 	0.01000 0.34030 0.74210 -0.25000
N 	N 	0.15580 0.25240 0.69580 -0.25100
N 	N 	0.59820 0.75550 0.30370 -0.23900
N 	N 	0.66740 0.15400 0.24840 -0.24800
N 	N 	0.16390 0.15520 0.24520 -0.24500
O 	O 	0.14470 0.66220 0.70980 -0.36900
O 	O 	0.01150 0.33550 0.30270 -0.35700
O 	O 	0.60190 0.16600 0.79840 -0.35400
O 	O 	0.10360 0.17010 0.79710 -0.34500
O 	O 	0.00200 0.20880 0.32600 -0.42700
O 	O 	0.08940 0.29070 0.82150 -0.37700
O 	O 	0.53260 0.21230 0.75490 -0.36200
O 	O 	0.12090 0.29100 0.25520 -0.47500
O 	O 	0.59090 0.28580 0.82380 -0.38700
O 	O 	0.03310 0.21710 0.75610 -0.37200
O 	O 	0.16920 0.70870 0.74690 -0.44300
O 	O 	0.05460 0.21310 0.36750 -0.37900
O 	O 	0.49610 0.27610 0.86990 -0.34200
O 	O 	0.98840 0.28750 0.86950 -0.32400
O 	O 	0.04070 0.79070 0.67510 -0.44000
O 	O 	0.14120 0.77750 0.63490 -0.39400
O 	O 	0.51670 0.33780 0.29020 -0.37000
O 	O 	0.64970 0.66450 0.69730 -0.35800
O 	O 	0.56630 0.83400 0.20160 -0.35400
O 	O 	0.07080 0.82990 0.20290 -0.34500
O 	O 	0.53680 0.79120 0.67400 -0.42700
O 	O 	0.20160 0.70930 0.17850 -0.37700
O 	O 	0.49980 0.78770 0.24510 -0.36200
O 	O 	0.66710 0.70900 0.74480 -0.47500
O 	O 	0.70050 0.71420 0.17620 -0.38700
O 	O 	0.00630 0.78290 0.24390 -0.37200
O 	O 	0.62480 0.29130 0.25310 -0.44300
O 	O 	0.63520 0.78690 0.63250 -0.37900
O 	O 	0.64210 0.72390 0.13010 -0.34200
O 	O 	0.14540 0.71250 0.13050 -0.32200
O 	O 	0.50650 0.20930 0.32490 -0.44100
O 	O 	0.55360 0.22250 0.36510 -0.39400
