data_crystal

_cell_length_a 20.34740
_cell_length_b 26.60010
_cell_length_c 26.60010
_cell_angle_alpha 80.05900
_cell_angle_beta  90.00000
_cell_angle_gamma 90.00000

_symmetry_space_group_name_	'P 1'
_symmetry_space_group_name_H-M	'P 1'

loop_
_symmetry_equiv_pos_as_xyz
  x,y,z

loop_
_atom_site_label
_atom_site_type_symbol
_atom_site_fract_x
_atom_site_fract_y
_atom_site_fract_z
_atom_site_charge
Cd	Cd	0.38514 0.54104 0.54104 1.18600
Cd	Cd	0.31667 0.21793 0.21793 1.18600
Cd	Cd	0.04387 0.41989 0.91525 1.18200
Cd	Cd	0.54387 0.58011 0.08475 1.18500
Cd	Cd	0.36235 0.12005 0.12005 1.18200
Cd	Cd	0.68185 0.33435 0.83075 1.18800
Cd	Cd	0.04387 0.91525 0.41989 1.18200
Cd	Cd	0.41016 0.02190 0.02190 1.18700
Cd	Cd	0.86308 0.86507 0.38112 1.18600
Cd	Cd	0.54387 0.08475 0.58011 1.18500
Cd	Cd	0.81667 0.78207 0.78207 1.18800
Cd	Cd	0.86308 0.38112 0.86507 1.18600
Cd	Cd	0.86757 0.36171 0.36171 1.18400
Cd	Cd	0.68185 0.83075 0.33435 1.18800
Cd	Cd	0.88514 0.45896 0.45896 1.18800
Cd	Cd	0.36308 0.61888 0.13493 1.18500
Cd	Cd	0.36757 0.63829 0.63829 1.18300
Cd	Cd	0.31565 0.73609 0.73609 1.18800
Cd	Cd	0.81565 0.26391 0.26391 1.18800
Cd	Cd	0.18185 0.66565 0.16925 1.18800
Cd	Cd	0.91016 0.97810 0.97810 1.18800
Cd	Cd	0.18185 0.16925 0.66565 1.18800
Cd	Cd	0.36308 0.13493 0.61888 1.18500
Cd	Cd	0.86235 0.87995 0.87995 1.18200
H 	H 	0.08510 0.53140 0.88380 -0.01300
H 	H 	0.08170 0.07260 0.07260 0.08200
H 	H 	0.06180 0.54800 0.04620 0.08200
H 	H 	0.14370 0.77740 0.12800 -0.01600
H 	H 	0.66200 0.09120 0.67300 -0.00700
H 	H 	0.41630 0.34540 0.56080 0.09000
H 	H 	0.22450 0.96180 0.26800 0.08200
H 	H 	0.63150 0.72170 0.37630 -0.01800
H 	H 	0.96710 0.93320 0.08640 -0.01000
H 	H 	0.06780 0.56890 0.33250 0.08400
H 	H 	0.17960 0.95790 0.44910 -0.01700
H 	H 	0.51090 0.50110 0.00530 -0.01800
H 	H 	0.79060 0.84980 0.58660 0.08700
H 	H 	0.63150 0.37630 0.72170 -0.01800
H 	H 	0.46840 0.71060 0.89780 0.09100
H 	H 	0.99330 0.75120 0.25380 0.10700
H 	H 	0.71760 0.74720 0.25780 -0.00200
H 	H 	0.56550 0.92380 0.33460 -0.01200
H 	H 	0.93700 0.57120 0.46900 -0.00800
H 	H 	0.25820 0.84330 0.68830 -0.00300
H 	H 	0.64820 0.40820 0.16760 0.08500
H 	H 	0.91630 0.43920 0.65460 0.09200
H 	H 	0.49330 0.74620 0.24880 0.08100
H 	H 	0.93750 0.26630 0.18330 -0.01700
H 	H 	0.58440 0.62430 0.97370 -0.00400
H 	H 	0.73290 0.50250 0.99390 0.08700
H 	H 	0.25910 0.85870 0.04950 0.08500
H 	H 	0.16450 0.82620 0.42220 -0.01500
H 	H 	0.67960 0.04210 0.55090 -0.01600
H 	H 	0.29100 0.01270 0.93790 -0.01300
H 	H 	0.75910 0.14130 0.95050 0.08500
H 	H 	0.75910 0.95050 0.14130 0.08500
H 	H 	0.93700 0.46900 0.57120 -0.00800
H 	H 	0.72450 0.73200 0.03820 0.08300
H 	H 	0.47030 0.20620 0.38360 0.08800
H 	H 	0.50490 0.48750 0.78910 0.08500
H 	H 	0.58440 0.97370 0.62430 -0.00400
H 	H 	0.14850 0.08140 0.31800 0.07700
H 	H 	0.58510 0.11620 0.46860 -0.01100
H 	H 	0.08440 0.37570 0.02630 -0.00700
H 	H 	0.66450 0.17380 0.57780 -0.01500
H 	H 	0.96840 0.10220 0.28940 0.09500
H 	H 	0.08510 0.88380 0.53140 -0.01300
H 	H 	0.96840 0.28940 0.10220 0.09500
H 	H 	0.46840 0.89780 0.71060 0.09100
H 	H 	0.06180 0.04620 0.54800 0.08200
H 	H 	0.76790 0.53750 0.41410 -0.01500
H 	H 	0.50490 0.78910 0.48750 0.08500
H 	H 	0.58510 0.46860 0.11620 -0.01100
H 	H 	0.26140 0.33160 0.17680 -0.00900
H 	H 	0.23180 0.77540 0.47900 0.08600
H 	H 	0.26790 0.46250 0.58590 -0.01500
H 	H 	0.43750 0.81670 0.73370 -0.01900
H 	H 	0.93900 0.77930 0.70130 -0.00900
H 	H 	0.06550 0.66540 0.07620 -0.01800
H 	H 	0.29060 0.41340 0.15020 0.08600
H 	H 	0.97030 0.79380 0.61640 0.09100
H 	H 	0.43700 0.53100 0.42880 -0.01000
H 	H 	0.56160 0.25590 0.25590 0.08000
H 	H 	0.14820 0.59180 0.83240 0.08300
H 	H 	0.99980 0.72010 0.02070 0.10500
H 	H 	0.23180 0.47900 0.77540 0.08600
H 	H 	0.74360 0.39560 0.62160 0.09200
H 	H 	0.13150 0.62370 0.27830 -0.01600
H 	H 	0.44030 0.82960 0.10100 0.08600
H 	H 	0.16750 0.19870 0.19870 0.00300
H 	H 	0.24360 0.37840 0.60440 0.09000
H 	H 	0.54610 0.29780 0.79800 -0.01300
H 	H 	0.94030 0.89900 0.17040 0.08800
H 	H 	0.16200 0.32700 0.90880 -0.00700
H 	H 	0.24560 0.28880 0.28880 -0.00600
H 	H 	0.06780 0.33250 0.56890 0.08400
H 	H 	0.16730 0.98530 0.98530 0.07800
H 	H 	0.66450 0.57780 0.17380 -0.01500
H 	H 	0.64850 0.91860 0.68200 0.07800
H 	H 	0.57350 0.42990 0.83890 -0.00700
H 	H 	0.72450 0.03820 0.73200 0.08300
H 	H 	0.66730 0.01470 0.01470 0.08100
H 	H 	0.07870 0.83510 0.07850 0.08400
H 	H 	0.51090 0.00530 0.50110 -0.01800
H 	H 	0.26140 0.17680 0.33160 -0.00900
H 	H 	0.07870 0.07850 0.83510 0.08400
H 	H 	0.16450 0.42220 0.82620 -0.01500
H 	H 	0.49980 0.27990 0.97930 0.08600
H 	H 	0.48430 0.95180 0.95180 -0.02800
H 	H 	0.74560 0.71120 0.71120 -0.00500
H 	H 	0.64480 0.16880 0.16880 0.08900
H 	H 	0.67960 0.55090 0.04210 -0.01600
H 	H 	0.79060 0.58660 0.84980 0.08700
H 	H 	0.99330 0.25380 0.75120 0.10700
H 	H 	0.16890 0.30470 0.78970 0.08200
H 	H 	0.75820 0.15670 0.31170 -0.00200
H 	H 	0.14480 0.83120 0.83120 0.08800
H 	H 	0.23290 0.00610 0.49750 0.08600
H 	H 	0.64370 0.87200 0.22260 -0.01500
H 	H 	0.75820 0.31170 0.15670 -0.00200
H 	H 	0.00490 0.21090 0.51250 0.07600
H 	H 	0.06550 0.07620 0.66540 -0.01800
H 	H 	0.14100 0.31620 0.31620 0.07300
H 	H 	0.74520 0.19290 0.19290 -0.02500
H 	H 	0.64100 0.68380 0.68380 0.07400
H 	H 	0.21760 0.25280 0.74220 -0.00500
H 	H 	0.73180 0.52100 0.22460 0.08700
H 	H 	0.73180 0.22460 0.52100 0.08700
H 	H 	0.41630 0.56080 0.34540 0.09000
H 	H 	0.76790 0.41410 0.53750 -0.01500
H 	H 	0.22450 0.26800 0.96180 0.08200
H 	H 	0.66750 0.80130 0.80130 0.00400
H 	H 	0.74360 0.62160 0.39560 0.09200
H 	H 	0.21760 0.74220 0.25280 -0.00500
H 	H 	0.01090 0.49890 0.99470 -0.02200
H 	H 	0.04610 0.20200 0.70220 -0.02200
H 	H 	0.96710 0.08640 0.93320 -0.01000
H 	H 	0.14370 0.12800 0.77740 -0.01600
H 	H 	0.28750 0.65130 0.92510 0.08100
H 	H 	0.26790 0.58590 0.46250 -0.01500
H 	H 	0.78750 0.34870 0.07490 0.08100
H 	H 	0.25820 0.68830 0.84330 -0.00300
H 	H 	0.14820 0.83240 0.59180 0.08300
H 	H 	0.98430 0.04820 0.04820 -0.00600
H 	H 	0.56180 0.45200 0.95380 0.08400
H 	H 	0.66890 0.69530 0.21030 0.07800
H 	H 	0.16200 0.90880 0.32700 -0.00700
H 	H 	0.97030 0.61640 0.79380 0.09100
H 	H 	0.16270 0.72140 0.72140 -0.01200
H 	H 	0.43700 0.42880 0.53100 -0.01000
H 	H 	0.57350 0.83890 0.42990 -0.00700
H 	H 	0.57870 0.16490 0.92150 0.08700
H 	H 	0.43900 0.29870 0.22070 -0.01100
H 	H 	0.71760 0.25780 0.74720 -0.00200
H 	H 	0.14850 0.31800 0.08140 0.07700
H 	H 	0.08440 0.02630 0.37570 -0.00700
H 	H 	0.56150 0.03790 0.03790 -0.01000
H 	H 	0.29060 0.15020 0.41340 0.08600
H 	H 	0.06160 0.74410 0.74410 0.07600
H 	H 	0.17960 0.44910 0.95790 -0.01700
H 	H 	0.78750 0.07490 0.34870 0.08100
H 	H 	0.01090 0.99470 0.49890 -0.02200
H 	H 	0.43750 0.73370 0.81670 -0.01900
H 	H 	0.46710 0.91360 0.06680 -0.01400
H 	H 	0.58170 0.92740 0.92740 0.09300
H 	H 	0.07350 0.16110 0.57010 -0.00500
H 	H 	0.24520 0.80710 0.80710 -0.02600
H 	H 	0.94030 0.17040 0.89900 0.08800
H 	H 	0.56780 0.66750 0.43110 0.09200
H 	H 	0.25910 0.04950 0.85870 0.08500
H 	H 	0.47030 0.38360 0.20620 0.08800
H 	H 	0.24360 0.60440 0.37840 0.09000
H 	H 	0.13150 0.27830 0.62370 -0.01600
H 	H 	0.56780 0.43110 0.66750 0.09200
H 	H 	0.76140 0.82320 0.66840 -0.00800
H 	H 	0.00490 0.51250 0.21090 0.07600
H 	H 	0.79100 0.06210 0.98730 -0.01300
H 	H 	0.57870 0.92150 0.16490 0.08700
H 	H 	0.49980 0.97930 0.27990 0.08600
H 	H 	0.06150 0.96210 0.96210 -0.01200
H 	H 	0.49330 0.24880 0.74620 0.08100
H 	H 	0.46710 0.06680 0.91360 -0.01400
H 	H 	0.73290 0.99390 0.50250 0.08700
H 	H 	0.93750 0.18330 0.26630 -0.01700
H 	H 	0.07350 0.57010 0.16110 -0.00500
H 	H 	0.04610 0.70220 0.20200 -0.02200
H 	H 	0.66890 0.21030 0.69530 0.07800
H 	H 	0.91630 0.65460 0.43920 0.09200
H 	H 	0.99980 0.02070 0.72010 0.10500
H 	H 	0.54610 0.79800 0.29780 -0.01300
H 	H 	0.79100 0.98730 0.06210 -0.01300
H 	H 	0.66200 0.67300 0.09120 -0.00700
H 	H 	0.56290 0.77580 0.77580 0.06500
H 	H 	0.64850 0.68200 0.91860 0.07800
H 	H 	0.29100 0.93790 0.01270 -0.01300
H 	H 	0.56180 0.95380 0.45200 0.08400
H 	H 	0.23290 0.49750 0.00610 0.08600
H 	H 	0.56550 0.33460 0.92380 -0.01200
H 	H 	0.44030 0.10100 0.82960 0.08600
H 	H 	0.43900 0.22070 0.29870 -0.01100
H 	H 	0.64370 0.22260 0.87200 -0.01500
H 	H 	0.66270 0.27860 0.27860 -0.01100
H 	H 	0.93900 0.70130 0.77930 -0.00900
H 	H 	0.06290 0.22420 0.22420 0.06100
H 	H 	0.76140 0.66840 0.82320 -0.00800
H 	H 	0.28750 0.92510 0.65130 0.08100
H 	H 	0.16890 0.78970 0.30470 0.08200
H 	H 	0.64820 0.16760 0.40820 0.08500
C 	C 	0.60010 0.76250 0.76250 -0.08800
C 	C 	0.82510 0.21790 0.89870 0.08800
C 	C 	0.20790 0.79390 0.79390 0.11000
C 	C 	0.55650 0.50210 0.00290 0.09400
C 	C 	0.58980 0.20720 0.20720 0.06400
C 	C 	0.88380 0.63080 0.43580 -0.15100
C 	C 	0.52840 0.46560 0.72140 0.07000
C 	C 	0.90830 0.91540 0.14840 -0.13800
C 	C 	0.16220 0.22140 0.22140 0.02700
C 	C 	0.32170 0.16540 0.39000 -0.14200
C 	C 	0.39760 0.54770 0.41930 0.08400
C 	C 	0.32590 0.58470 0.35190 0.08600
C 	C 	0.14500 0.29340 0.29340 -0.10400
C 	C 	0.08760 0.52830 0.02810 -0.14700
C 	C 	0.69700 0.02420 0.71020 -0.13200
C 	C 	0.19700 0.97580 0.28980 -0.13300
C 	C 	0.06710 0.56810 0.29770 -0.14000
C 	C 	0.65300 0.44260 0.16920 -0.13500
C 	C 	0.56840 0.92360 0.29980 0.08900
C 	C 	0.90730 0.79240 0.67740 0.09100
C 	C 	0.88580 0.82770 0.59390 0.07200
C 	C 	0.65300 0.16920 0.44260 -0.13500
C 	C 	0.20180 0.79710 0.49090 -0.14700
C 	C 	0.03900 0.25430 0.74930 -0.17000
C 	C 	0.70180 0.20290 0.50910 -0.14600
C 	C 	0.31240 0.29700 0.59920 0.08100
C 	C 	0.92420 0.09770 0.93650 0.08600
C 	C 	0.07110 0.71950 0.22270 0.08700
C 	C 	0.59840 0.24240 0.24240 -0.13100
C 	C 	0.90250 0.34710 0.02790 0.09600
C 	C 	0.20310 0.04560 0.04560 0.09300
C 	C 	0.69820 0.45840 0.20160 0.06700
C 	C 	0.38380 0.36920 0.56420 -0.15100
C 	C 	0.15490 0.46950 0.97590 0.08200
C 	C 	0.57310 0.22520 0.71480 0.05200
C 	C 	0.19820 0.79840 0.54160 0.06600
C 	C 	0.66090 0.17220 0.54320 0.09400
C 	C 	0.49060 0.17760 0.98860 0.08900
C 	C 	0.56710 0.70230 0.43190 -0.15400
C 	C 	0.18730 0.49830 0.00450 -0.13900
C 	C 	0.07490 0.07640 0.80060 -0.14600
C 	C 	0.40830 0.08460 0.85160 -0.13900
C 	C 	0.31780 0.67060 0.90380 -0.12300
C 	C 	0.60510 0.73570 0.39890 0.10300
C 	C 	0.20180 0.49090 0.79710 -0.14700
C 	C 	0.84530 0.91920 0.16520 0.06800
C 	C 	0.42580 0.70420 0.88780 -0.16100
C 	C 	0.23680 0.06410 0.25350 0.09400
C 	C 	0.73680 0.93590 0.74650 0.09500
C 	C 	0.63700 0.96730 0.96730 0.06900
C 	C 	0.90730 0.67740 0.79240 0.09100
C 	C 	0.64360 0.22780 0.71560 -0.12200
C 	C 	0.49060 0.98860 0.17760 0.08900
C 	C 	0.30230 0.86880 0.05360 -0.14300
C 	C 	0.61270 0.98690 0.64610 0.05700
C 	C 	0.10510 0.60110 0.26430 0.09400
C 	C 	0.57130 0.43000 0.80400 0.07900
C 	C 	0.80080 0.30770 0.14530 0.05500
C 	C 	0.48640 0.68900 0.50140 0.08600
C 	C 	0.98640 0.49860 0.31100 0.10500
C 	C 	0.38220 0.67810 0.92110 0.06400
C 	C 	0.07130 0.57000 0.19600 0.07100
C 	C 	0.07310 0.77480 0.28520 0.07400
C 	C 	0.07130 0.19600 0.57000 0.07100
C 	C 	0.30230 0.05360 0.86880 -0.14300
C 	C 	0.92580 0.11220 0.29580 -0.16100
C 	C 	0.57130 0.80400 0.43000 0.07900
C 	C 	0.13700 0.03270 0.03270 0.05700
C 	C 	0.79840 0.56120 0.42160 0.09600
C 	C 	0.10010 0.23750 0.23750 -0.09000
C 	C 	0.06590 0.98480 0.98480 0.06600
C 	C 	0.23940 0.76760 0.58060 0.09000
C 	C 	0.70310 0.95440 0.95440 0.08900
C 	C 	0.61320 0.89320 0.23460 0.09000
C 	C 	0.40520 0.72040 0.84000 0.11100
C 	C 	0.65130 0.46990 0.96730 0.06400
C 	C 	0.06710 0.29770 0.56810 -0.14000
C 	C 	0.40520 0.84000 0.72040 0.11100
C 	C 	0.19510 0.28710 0.02690 0.05400
C 	C 	0.81240 0.70300 0.40080 0.08100
C 	C 	0.73680 0.74650 0.93590 0.09500
C 	C 	0.03040 0.22560 0.53500 -0.12700
C 	C 	0.23940 0.58060 0.76760 0.09000
C 	C 	0.68630 0.43890 0.93350 0.10500
C 	C 	0.31780 0.90380 0.67060 -0.12300
C 	C 	0.69820 0.20160 0.45840 0.06700
C 	C 	0.08760 0.02810 0.52830 -0.14700
C 	C 	0.11320 0.10680 0.76540 0.08900
C 	C 	0.56840 0.29980 0.92360 0.08900
C 	C 	0.65170 0.95370 0.68070 -0.11800
C 	C 	0.65130 0.96730 0.46990 0.06400
C 	C 	0.28480 0.59080 0.38800 -0.16000
C 	C 	0.18730 0.00450 0.49830 -0.13900
C 	C 	0.05650 0.99710 0.49790 0.09200
C 	C 	0.42420 0.06350 0.90230 0.08600
C 	C 	0.14360 0.77220 0.28440 -0.13700
C 	C 	0.68730 0.99550 0.50170 -0.13900
C 	C 	0.55650 0.00290 0.50210 0.09400
C 	C 	0.53040 0.77440 0.46500 -0.13900
C 	C 	0.59040 0.72870 0.72870 0.02700
C 	C 	0.88380 0.43580 0.63080 -0.15100
C 	C 	0.52240 0.19450 0.19450 0.09300
C 	C 	0.99060 0.01140 0.82240 0.10100
C 	C 	0.90520 0.27960 0.16000 0.11300
C 	C 	0.03200 0.78570 0.04370 0.06100
C 	C 	0.29840 0.43880 0.57840 0.09500
C 	C 	0.90830 0.14840 0.91540 -0.13800
C 	C 	0.65490 0.02410 0.53050 0.08300
C 	C 	0.02840 0.27860 0.53440 0.04500
C 	C 	0.53200 0.21430 0.95630 0.06700
C 	C 	0.70790 0.20610 0.20610 0.10900
C 	C 	0.90560 0.54140 0.84620 0.09400
C 	C 	0.90560 0.84620 0.54140 0.09400
C 	C 	0.82510 0.89870 0.21790 0.08800
C 	C 	0.73940 0.41940 0.23240 0.09100
C 	C 	0.03200 0.04370 0.78570 0.06100
C 	C 	0.19510 0.02690 0.28710 0.05400
C 	C 	0.06840 0.07640 0.70020 0.10000
C 	C 	0.08010 0.04980 0.04980 -0.14100
C 	C 	0.81780 0.32940 0.09620 -0.12300
C 	C 	0.32080 0.91660 0.03260 0.08400
C 	C 	0.08980 0.79280 0.79280 0.06700
C 	C 	0.07490 0.80060 0.07640 -0.14600
C 	C 	0.81240 0.40080 0.70300 0.08100
C 	C 	0.68630 0.93350 0.43890 0.10500
C 	C 	0.68730 0.50170 0.99550 -0.13900
C 	C 	0.15820 0.32490 0.94390 0.07600
C 	C 	0.38220 0.92110 0.67810 0.06400
C 	C 	0.34530 0.08080 0.83480 0.06700
C 	C 	0.88220 0.32190 0.07890 0.06500
C 	C 	0.32170 0.39000 0.16540 -0.14200
C 	C 	0.02140 0.03490 0.03490 0.07500
C 	C 	0.53900 0.25070 0.74570 -0.12500
C 	C 	0.40250 0.97210 0.65290 0.09500
C 	C 	0.40730 0.32260 0.20760 0.08900
C 	C 	0.02840 0.53440 0.27860 0.04500
C 	C 	0.17190 0.74360 0.25340 0.06800
C 	C 	0.15170 0.31930 0.04630 -0.12000
C 	C 	0.16090 0.82780 0.45680 0.09300
C 	C 	0.52140 0.96510 0.96510 0.11300
C 	C 	0.11270 0.01310 0.35390 0.05600
C 	C 	0.81780 0.09620 0.32940 -0.12300
C 	C 	0.42890 0.37360 0.19680 -0.15000
C 	C 	0.61270 0.64610 0.98690 0.05700
C 	C 	0.80230 0.94640 0.13120 -0.14300
C 	C 	0.61450 0.47930 0.13890 0.07400
C 	C 	0.63040 0.00130 0.00130 -0.13300
C 	C 	0.32510 0.10130 0.78210 0.08700
C 	C 	0.14360 0.28440 0.77220 -0.13700
C 	C 	0.65860 0.25590 0.25590 0.07300
C 	C 	0.64630 0.19170 0.19170 -0.15200
C 	C 	0.57310 0.71480 0.22520 0.05200
C 	C 	0.58760 0.47170 0.97190 -0.14700
C 	C 	0.48640 0.50140 0.68900 0.08600
C 	C 	0.56590 0.01520 0.01520 0.07300
C 	C 	0.52820 0.95720 0.26720 -0.14100
C 	C 	0.92890 0.80320 0.62640 -0.15000
C 	C 	0.06840 0.70020 0.07640 0.10000
C 	C 	0.09840 0.75760 0.75760 -0.13400
C 	C 	0.19820 0.54160 0.79840 0.06600
C 	C 	0.32590 0.35190 0.58470 0.08600
C 	C 	0.15300 0.83080 0.55740 -0.13600
C 	C 	0.04070 0.80510 0.31610 0.06200
C 	C 	0.19700 0.28980 0.97580 -0.13300
C 	C 	0.92580 0.29580 0.11220 -0.16100
C 	C 	0.02820 0.73280 0.04280 -0.16900
C 	C 	0.40250 0.65290 0.97210 0.09500
C 	C 	0.30490 0.34090 0.18070 0.07700
C 	C 	0.42890 0.19680 0.37360 -0.15000
C 	C 	0.57490 0.92360 0.19940 -0.14700
C 	C 	0.82170 0.61000 0.83460 -0.14200
C 	C 	0.04070 0.31610 0.80510 0.06200
C 	C 	0.88580 0.59390 0.82770 0.07200
C 	C 	0.11450 0.52070 0.86110 0.07300
C 	C 	0.99060 0.82240 0.01140 0.10100
C 	C 	0.57110 0.77730 0.28050 0.06700
C 	C 	0.10510 0.26430 0.60110 0.09400
C 	C 	0.52840 0.72140 0.46560 0.07000
C 	C 	0.56710 0.43190 0.70230 -0.15400
C 	C 	0.80230 0.13120 0.94640 -0.14300
C 	C 	0.90520 0.16000 0.27960 0.11300
C 	C 	0.40830 0.85160 0.08460 -0.13900
C 	C 	0.38580 0.40610 0.17230 0.07000
C 	C 	0.92420 0.93650 0.09770 0.08600
C 	C 	0.79840 0.42160 0.56120 0.09600
C 	C 	0.07110 0.22270 0.71950 0.08700
C 	C 	0.38580 0.17230 0.40610 0.07000
C 	C 	0.65170 0.68070 0.95370 -0.11800
C 	C 	0.69010 0.41260 0.41260 0.10700
C 	C 	0.64360 0.71560 0.22780 -0.12200
C 	C 	0.69510 0.71290 0.97310 0.05500
C 	C 	0.32510 0.78210 0.10130 0.08700
C 	C 	0.13040 0.99870 0.99870 -0.12600
C 	C 	0.53200 0.95630 0.21430 0.06700
C 	C 	0.67190 0.74660 0.25640 0.06000
C 	C 	0.18630 0.06650 0.56110 0.10500
C 	C 	0.11450 0.86110 0.52070 0.07300
C 	C 	0.11320 0.76540 0.10680 0.08900
C 	C 	0.15130 0.03270 0.53010 0.06300
C 	C 	0.11270 0.35390 0.01310 0.05600
C 	C 	0.65820 0.67510 0.05610 0.07700
C 	C 	0.69510 0.97310 0.71290 0.05500
C 	C 	0.17190 0.25340 0.74360 0.06800
C 	C 	0.03040 0.53500 0.22560 -0.12700
C 	C 	0.16090 0.45680 0.82780 0.09300
C 	C 	0.15300 0.55740 0.83080 -0.13600
C 	C 	0.40560 0.45860 0.15380 0.09300
C 	C 	0.84530 0.16520 0.91920 0.06800
C 	C 	0.15170 0.04630 0.31930 -0.12000
C 	C 	0.92890 0.62640 0.80320 -0.15000
C 	C 	0.15490 0.97590 0.46950 0.08200
C 	C 	0.32080 0.03260 0.91660 0.08400
C 	C 	0.34530 0.83480 0.08080 0.06700
C 	C 	0.53900 0.74570 0.25070 -0.12500
C 	C 	0.15860 0.74410 0.74410 0.07400
C 	C 	0.82590 0.64810 0.41530 0.08800
C 	C 	0.66090 0.54320 0.17220 0.09400
C 	C 	0.40730 0.20760 0.32260 0.08900
C 	C 	0.70740 0.72370 0.72370 0.05400
C 	C 	0.58010 0.95020 0.95020 -0.16400
C 	C 	0.82080 0.08340 0.96740 0.08400
C 	C 	0.07310 0.28520 0.77480 0.07400
C 	C 	0.02820 0.04280 0.73280 -0.16900
C 	C 	0.30080 0.85470 0.69230 0.05400
C 	C 	0.38380 0.56420 0.36920 -0.15100
C 	C 	0.67190 0.25640 0.74660 0.06000
C 	C 	0.88220 0.07890 0.32190 0.06500
C 	C 	0.03900 0.74930 0.25430 -0.17000
C 	C 	0.18630 0.56110 0.06650 0.10500
C 	C 	0.28480 0.38800 0.59080 -0.16000
C 	C 	0.30490 0.18070 0.34090 0.07700
C 	C 	0.05650 0.49790 0.99710 0.09200
C 	C 	0.14630 0.80830 0.80830 -0.15600
C 	C 	0.52820 0.26720 0.95720 -0.14100
C 	C 	0.39760 0.41930 0.54770 0.08400
C 	C 	0.53040 0.46500 0.77440 -0.13900
C 	C 	0.65490 0.53050 0.02410 0.08300
C 	C 	0.82590 0.41530 0.64810 0.08800
C 	C 	0.89760 0.58070 0.45230 0.08600
C 	C 	0.54070 0.68390 0.19490 0.08300
C 	C 	0.54070 0.19490 0.68390 0.08300
C 	C 	0.82080 0.96740 0.08340 0.08400
C 	C 	0.65820 0.05610 0.67510 0.07700
C 	C 	0.70180 0.50910 0.20290 -0.14600
C 	C 	0.15820 0.94390 0.32490 0.07600
C 	C 	0.78480 0.61200 0.40920 -0.16100
C 	C 	0.58760 0.97190 0.47170 -0.14700
C 	C 	0.60510 0.39890 0.73570 0.10300
C 	C 	0.89760 0.45230 0.58070 0.08600
C 	C 	0.31240 0.59920 0.29700 0.08100
C 	C 	0.15130 0.53010 0.03270 0.06300
C 	C 	0.23680 0.25350 0.06410 0.09400
C 	C 	0.42580 0.88780 0.70420 -0.16100
C 	C 	0.66220 0.77860 0.77860 0.02800
C 	C 	0.57490 0.19940 0.92360 -0.14700
C 	C 	0.82170 0.83460 0.61000 -0.14200
C 	C 	0.29840 0.57840 0.43880 0.09500
C 	C 	0.40560 0.15380 0.45860 0.09300
C 	C 	0.80080 0.14530 0.30770 0.05500
C 	C 	0.98640 0.31100 0.49860 0.10500
C 	C 	0.09040 0.27130 0.27130 0.02700
C 	C 	0.30080 0.69230 0.85470 0.05400
C 	C 	0.78480 0.40920 0.61200 -0.16100
C 	C 	0.80490 0.65910 0.81930 0.07800
C 	C 	0.20740 0.27630 0.27630 0.05400
C 	C 	0.64500 0.70660 0.70660 -0.10300
C 	C 	0.61450 0.13890 0.47930 0.07400
C 	C 	0.57110 0.28050 0.77730 0.06700
C 	C 	0.02440 0.28670 0.28670 0.09900
C 	C 	0.19010 0.58740 0.58740 0.10400
C 	C 	0.80490 0.81930 0.65910 0.07800
C 	C 	0.90250 0.02790 0.34710 0.09600
C 	C 	0.52440 0.71330 0.71330 0.11100
C 	C 	0.69700 0.71020 0.02420 -0.13200
C 	C 	0.61320 0.23460 0.89320 0.09000
C 	C 	0.42420 0.90230 0.06350 0.08600
C 	C 	0.73940 0.23240 0.41940 0.09100
C 	C 	0.02240 0.80550 0.80550 0.07800
N 	N 	0.77120 0.78620 0.94580 -0.09700
N 	N 	0.21380 0.76300 0.76300 -0.24800
N 	N 	0.80540 0.28550 0.38290 -0.15900
N 	N 	0.24180 0.62860 0.77680 -0.10300
N 	N 	0.45850 0.54350 0.69870 -0.09600
N 	N 	0.44300 0.01680 0.10740 -0.17000
N 	N 	0.45920 0.52370 0.12310 -0.16200
N 	N 	0.75760 0.37630 0.72150 -0.09800
N 	N 	0.45440 0.02900 0.18620 -0.09600
N 	N 	0.74410 0.73870 0.88830 -0.10600
N 	N 	0.94300 0.98320 0.89260 -0.16900
N 	N 	0.94080 0.83750 0.83750 -0.15600
N 	N 	0.45820 0.61840 0.03340 -0.16700
N 	N 	0.76480 0.23020 0.88000 -0.10000
N 	N 	0.24180 0.77680 0.62860 -0.10300
N 	N 	0.96920 0.35830 0.50850 -0.09700
N 	N 	0.94300 0.89260 0.98320 -0.16900
N 	N 	0.92530 0.85830 0.95450 -0.16300
N 	N 	0.44300 0.10740 0.01680 -0.17000
N 	N 	0.34840 0.30400 0.20160 -0.24400
N 	N 	0.48520 0.13010 0.98110 -0.10400
N 	N 	0.78370 0.42950 0.42950 -0.16700
N 	N 	0.26900 0.71970 0.13470 -0.16700
N 	N 	0.42180 0.71220 0.71220 -0.16800
N 	N 	0.15760 0.09080 0.59040 -0.11400
N 	N 	0.96000 0.01620 0.36800 -0.09900
N 	N 	0.47110 0.73320 0.73320 -0.11200
N 	N 	0.45850 0.69870 0.54350 -0.09600
N 	N 	0.86750 0.84030 0.50210 -0.10300
N 	N 	0.25130 0.07000 0.56000 -0.10000
N 	N 	0.13680 0.71550 0.22170 -0.24600
N 	N 	0.36750 0.49790 0.15970 -0.10300
N 	N 	0.97500 0.32340 0.80820 -0.08400
N 	N 	0.74180 0.22320 0.37140 -0.10300
N 	N 	0.45820 0.03340 0.61840 -0.16700
N 	N 	0.88140 0.96020 0.06600 -0.24100
N 	N 	0.65760 0.40960 0.90920 -0.11400
N 	N 	0.82880 0.87660 0.29600 -0.16400
N 	N 	0.42990 0.53100 0.62280 -0.17300
N 	N 	0.78360 0.34970 0.25750 -0.16600
N 	N 	0.42460 0.56170 0.65690 -0.16800
N 	N 	0.28370 0.57050 0.57050 -0.16700
N 	N 	0.07190 0.83480 0.34720 -0.10200
N 	N 	0.10780 0.60370 0.21570 -0.23700
N 	N 	0.46720 0.16100 0.64640 -0.15600
N 	N 	0.50750 0.68380 0.68380 -0.10100
N 	N 	0.42530 0.14170 0.04550 -0.16400
N 	N 	0.35420 0.55590 0.45510 -0.24600
N 	N 	0.47500 0.19180 0.67660 -0.09300
N 	N 	0.42460 0.65690 0.56170 -0.16800
N 	N 	0.29940 0.19540 0.09840 -0.16300
N 	N 	0.95440 0.81380 0.97100 -0.09500
N 	N 	0.28350 0.22440 0.13220 -0.16800
N 	N 	0.40420 0.14140 0.53840 -0.17400
N 	N 	0.00750 0.31620 0.31620 -0.10700
N 	N 	0.57190 0.65280 0.16520 -0.10400
N 	N 	0.26250 0.59340 0.10340 -0.16500
N 	N 	0.46000 0.98380 0.63200 -0.10300
N 	N 	0.85420 0.44410 0.54490 -0.24600
N 	N 	0.97500 0.80820 0.32340 -0.08400
N 	N 	0.82880 0.29600 0.87660 -0.16400
N 	N 	0.42070 0.19360 0.19360 -0.17300
N 	N 	0.98520 0.86990 0.01890 -0.10200
N 	N 	0.28000 0.60220 0.60220 -0.17000
N 	N 	0.51200 0.99670 0.99670 -0.25300
N 	N 	0.85190 0.74020 0.40980 -0.09600
N 	N 	0.52270 0.63250 0.14510 -0.16900
N 	N 	0.61580 0.03800 0.64440 -0.22600
N 	N 	0.40080 0.05100 0.63060 -0.16700
N 	N 	0.78530 0.92470 0.92470 -0.15000
N 	N 	0.65760 0.90920 0.40960 -0.11400
N 	N 	0.35190 0.25980 0.59020 -0.09700
N 	N 	0.76440 0.36960 0.77080 -0.16300
N 	N 	0.92460 0.34310 0.43830 -0.16700
N 	N 	0.21990 0.61420 0.61420 -0.10700
N 	N 	0.97110 0.78690 0.78690 -0.10000
N 	N 	0.44080 0.16250 0.16250 -0.16200
N 	N 	0.45920 0.12310 0.52370 -0.16200
N 	N 	0.30620 0.04690 0.04690 -0.17100
N 	N 	0.58860 0.53150 0.02870 -0.24800
N 	N 	0.77930 0.42740 0.27000 -0.09600
N 	N 	0.95850 0.45650 0.30130 -0.09600
N 	N 	0.24410 0.11170 0.26130 -0.10600
N 	N 	0.30540 0.71450 0.61710 -0.16000
N 	N 	0.22900 0.55380 0.55380 -0.10200
N 	N 	0.27930 0.73000 0.57260 -0.09700
N 	N 	0.95820 0.38160 0.96660 -0.16300
N 	N 	0.75590 0.97350 0.97350 -0.11200
N 	N 	0.92990 0.46900 0.37720 -0.17200
N 	N 	0.26480 0.12000 0.76980 -0.10000
N 	N 	0.32140 0.61020 0.21720 -0.17100
N 	N 	0.86320 0.98780 0.34840 -0.09900
N 	N 	0.11580 0.96200 0.35560 -0.22800
N 	N 	0.24410 0.26130 0.11170 -0.10600
N 	N 	0.86450 0.89560 0.25860 -0.09400
N 	N 	0.96720 0.35360 0.83900 -0.15000
N 	N 	0.21950 0.07750 0.07750 -0.09900
N 	N 	0.20370 0.61260 0.11640 -0.19400
N 	N 	0.78360 0.25750 0.34970 -0.16600
N 	N 	0.61580 0.64440 0.03800 -0.22600
N 	N 	0.92180 0.28780 0.28780 -0.16700
N 	N 	0.77120 0.94580 0.78620 -0.09700
N 	N 	0.76900 0.28030 0.86530 -0.16700
N 	N 	0.32880 0.12340 0.70400 -0.16400
N 	N 	0.96920 0.50850 0.35830 -0.09700
N 	N 	0.28350 0.13220 0.22440 -0.16800
N 	N 	0.29940 0.09840 0.19540 -0.16300
N 	N 	0.28360 0.74250 0.65030 -0.16700
N 	N 	0.27930 0.57260 0.73000 -0.09700
N 	N 	0.26440 0.22920 0.63040 -0.16300
N 	N 	0.15760 0.59040 0.09080 -0.11400
N 	N 	0.11580 0.35560 0.96200 -0.22800
N 	N 	0.76480 0.88000 0.23020 -0.10000
N 	N 	0.71950 0.92250 0.92250 -0.09800
N 	N 	0.63680 0.28450 0.77830 -0.24100
N 	N 	0.02270 0.36750 0.85490 -0.17700
N 	N 	0.46170 0.47230 0.13190 -0.10300
N 	N 	0.75130 0.93000 0.44000 -0.09900
N 	N 	0.95820 0.96660 0.38160 -0.16300
N 	N 	0.72900 0.44620 0.44620 -0.10100
N 	N 	0.60780 0.39630 0.78430 -0.24000
N 	N 	0.26900 0.13470 0.71970 -0.16700
N 	N 	0.80540 0.38290 0.28550 -0.15900
N 	N 	0.82140 0.78280 0.38980 -0.17000
N 	N 	0.48520 0.98110 0.13010 -0.10400
N 	N 	0.92530 0.95450 0.85830 -0.16300
N 	N 	0.10990 0.71600 0.10800 -0.24000
N 	N 	0.38140 0.03980 0.93400 -0.24200
N 	N 	0.57190 0.16520 0.65280 -0.10400
N 	N 	0.52270 0.14510 0.63250 -0.16900
N 	N 	0.76900 0.86530 0.28030 -0.16700
N 	N 	0.28360 0.65030 0.74250 -0.16700
N 	N 	0.90420 0.46160 0.85860 -0.17300
N 	N 	0.26440 0.63040 0.22920 -0.16300
N 	N 	0.74180 0.37140 0.22320 -0.10300
N 	N 	0.25130 0.56000 0.07000 -0.10000
N 	N 	0.60780 0.78430 0.39630 -0.24000
N 	N 	0.46720 0.64640 0.16100 -0.15600
N 	N 	0.36320 0.01220 0.65160 -0.10000
N 	N 	0.48750 0.51510 0.51510 -0.20500
N 	N 	0.50630 0.16240 0.16240 -0.09200
N 	N 	0.85190 0.40980 0.74020 -0.09600
N 	N 	0.07190 0.34720 0.83480 -0.10200
N 	N 	0.36450 0.10440 0.74140 -0.09500
N 	N 	0.70370 0.88360 0.38740 -0.19400
N 	N 	0.36750 0.15970 0.49790 -0.10300
N 	N 	0.35190 0.59020 0.25980 -0.09700
N 	N 	0.84840 0.69600 0.79840 -0.24400
N 	N 	0.47500 0.67660 0.19180 -0.09300
N 	N 	0.26250 0.10340 0.59340 -0.16500
N 	N 	0.77930 0.27000 0.42740 -0.09600
N 	N 	0.82140 0.38980 0.78280 -0.17000
N 	N 	0.13680 0.22170 0.71550 -0.24600
N 	N 	0.92460 0.43830 0.34310 -0.16700
N 	N 	0.90080 0.94900 0.36940 -0.16600
N 	N 	0.44250 0.68220 0.68220 -0.16100
N 	N 	0.25760 0.27850 0.62370 -0.09900
N 	N 	0.88140 0.06600 0.96020 -0.24100
N 	N 	0.63680 0.77830 0.28450 -0.24100
N 	N 	0.75760 0.72150 0.37630 -0.09800
N 	N 	0.84630 0.17800 0.28000 -0.24500
N 	N 	0.36320 0.65160 0.01220 -0.10000
N 	N 	0.86320 0.34840 0.98780 -0.09900
N 	N 	0.96170 0.52770 0.86810 -0.10000
N 	N 	0.25590 0.02650 0.02650 -0.11200
N 	N 	0.46920 0.64170 0.49150 -0.09800
N 	N 	0.02270 0.85490 0.36750 -0.17700
N 	N 	0.61780 0.52910 0.14110 -0.24100
N 	N 	0.21370 0.24350 0.24350 -0.22500
N 	N 	0.76440 0.77080 0.36960 -0.16300
N 	N 	0.70370 0.38740 0.88360 -0.19400
N 	N 	0.78350 0.86780 0.77560 -0.16800
N 	N 	0.30540 0.61710 0.71450 -0.16000
N 	N 	0.86450 0.25860 0.89560 -0.09400
N 	N 	0.34840 0.20160 0.30400 -0.24400
N 	N 	0.26480 0.76980 0.12000 -0.10000
N 	N 	0.27120 0.05420 0.21380 -0.09800
N 	N 	0.20370 0.11640 0.61260 -0.19400
N 	N 	0.75130 0.44000 0.93000 -0.09900
N 	N 	0.78350 0.77560 0.86780 -0.16800
N 	N 	0.95920 0.47630 0.87690 -0.15800
N 	N 	0.11780 0.85890 0.47090 -0.24200
N 	N 	0.95850 0.30130 0.45650 -0.09600
N 	N 	0.08860 0.46850 0.97130 -0.25000
N 	N 	0.35420 0.45510 0.55590 -0.24600
N 	N 	0.36450 0.74140 0.10440 -0.09500
N 	N 	0.79940 0.90160 0.80460 -0.16300
N 	N 	0.71380 0.23700 0.23700 -0.24800
N 	N 	0.61780 0.14110 0.52910 -0.24100
N 	N 	0.84630 0.28000 0.17800 -0.24500
N 	N 	0.90080 0.36940 0.94900 -0.16600
N 	N 	0.96170 0.86810 0.52770 -0.10000
N 	N 	0.40420 0.53840 0.14140 -0.17400
N 	N 	0.94250 0.31780 0.31780 -0.15600
N 	N 	0.80620 0.95310 0.95310 -0.17000
N 	N 	0.76250 0.40660 0.89660 -0.16500
N 	N 	0.46170 0.13190 0.47230 -0.10300
N 	N 	0.42530 0.04550 0.14170 -0.16400
N 	N 	0.58860 0.02870 0.53150 -0.24800
N 	N 	0.85420 0.54490 0.44410 -0.24600
N 	N 	0.47110 0.21310 0.21310 -0.11000
N 	N 	0.32140 0.21720 0.61020 -0.17100
N 	N 	0.46000 0.63200 0.98380 -0.10300
N 	N 	0.96720 0.83900 0.35360 -0.15000
N 	N 	0.38140 0.93400 0.03980 -0.24200
N 	N 	0.97110 0.26680 0.26680 -0.10400
N 	N 	0.60990 0.28400 0.89200 -0.23800
N 	N 	0.71990 0.38580 0.38580 -0.10600
N 	N 	0.86750 0.50210 0.84030 -0.10300
N 	N 	0.34630 0.72000 0.82200 -0.24500
N 	N 	0.92070 0.80640 0.80640 -0.17200
N 	N 	0.32880 0.70400 0.12340 -0.16400
N 	N 	0.46920 0.49150 0.64170 -0.09800
N 	N 	0.01200 0.00330 0.00330 -0.25000
N 	N 	0.79940 0.80460 0.90160 -0.16300
N 	N 	0.92990 0.37720 0.46900 -0.17200
N 	N 	0.90420 0.85860 0.46160 -0.17300
N 	N 	0.98520 0.01890 0.86990 -0.10200
N 	N 	0.08860 0.97130 0.46850 -0.25000
N 	N 	0.25760 0.62370 0.27850 -0.09900
N 	N 	0.78000 0.39780 0.39780 -0.17000
N 	N 	0.27120 0.21380 0.05420 -0.09800
N 	N 	0.10990 0.10800 0.71600 -0.24000
N 	N 	0.42990 0.62280 0.53100 -0.17300
N 	N 	0.10780 0.21570 0.60370 -0.23700
N 	N 	0.74410 0.88830 0.73870 -0.10600
N 	N 	0.95440 0.97100 0.81380 -0.09500
N 	N 	0.60990 0.89200 0.28400 -0.23800
N 	N 	0.76250 0.89660 0.40660 -0.16500
N 	N 	0.96000 0.36800 0.01620 -0.09900
N 	N 	0.40080 0.63060 0.05100 -0.16700
N 	N 	0.11780 0.47090 0.85890 -0.24200
N 	N 	0.71370 0.75650 0.75650 -0.22500
N 	N 	0.00630 0.83760 0.83760 -0.09800
N 	N 	0.84840 0.79840 0.69600 -0.24400
N 	N 	0.34630 0.82200 0.72000 -0.24500
N 	N 	0.28530 0.07530 0.07530 -0.15100
N 	N 	0.98750 0.48490 0.48490 -0.20100
N 	N 	0.45440 0.18620 0.02900 -0.09600
N 	N 	0.95920 0.87690 0.47630 -0.15800
