data_crystal

_cell_length_a 11.29930
_cell_length_b 32.55740
_cell_length_c 32.55750
_cell_angle_alpha 88.27450
_cell_angle_beta  80.00700
_cell_angle_gamma 80.00730

_symmetry_space_group_name_	'P 1'
_symmetry_space_group_name_H-M	'P 1'

loop_
_symmetry_equiv_pos_as_xyz
  x,y,z

loop_
_atom_site_label
_atom_site_type_symbol
_atom_site_fract_x
_atom_site_fract_y
_atom_site_fract_z
_atom_site_charge
Nd	Nd	0.29032 0.66929 0.03175 1.94600
Nd	Nd	0.70968 0.33071 0.96825 1.94600
Nd	Nd	0.17409 0.02763 0.82979 2.00200
Nd	Nd	0.67793 0.03175 0.83071 1.94600
Nd	Nd	0.79828 0.67021 0.02763 2.00200
Nd	Nd	0.50864 0.16929 0.53175 1.92700
Nd	Nd	0.95961 0.53175 0.33071 1.92500
Nd	Nd	0.49136 0.83071 0.46825 1.92700
Nd	Nd	0.20172 0.32979 0.97237 2.00200
Nd	Nd	0.04039 0.46825 0.66929 1.92500
Nd	Nd	0.32207 0.96825 0.16929 1.94600
Nd	Nd	0.46849 0.52763 0.32979 2.00000
Nd	Nd	0.53151 0.47237 0.67021 2.00000
Nd	Nd	0.82591 0.97237 0.17021 2.00200
Nd	Nd	0.00388 0.17021 0.52763 1.96300
Nd	Nd	0.99612 0.82979 0.47237 1.96300
Cu	Cu	0.08422 0.46273 0.13039 0.87500
Cu	Cu	0.54694 0.63040 0.53727 0.87400
Cu	Cu	0.45306 0.36960 0.46273 0.87400
Cu	Cu	0.82266 0.96273 0.63039 0.87400
Cu	Cu	0.78538 0.13040 0.03727 0.87500
Cu	Cu	0.91578 0.53727 0.86961 0.87600
Cu	Cu	0.17734 0.03727 0.36961 0.87500
Cu	Cu	0.21462 0.86960 0.96273 0.87500
H 	H 	0.76340 0.58570 0.81210 0.00500
H 	H 	0.79340 0.71140 0.87680 0.03200
H 	H 	0.57550 0.18790 0.08570 0.00700
H 	H 	0.38460 0.45340 0.78620 -0.01200
H 	H 	0.83190 0.87570 0.78310 0.03500
H 	H 	0.57510 0.70610 0.47810 -0.01100
H 	H 	0.75220 0.47430 0.46330 0.00500
H 	H 	0.00600 0.31980 0.14460 0.09100
H 	H 	0.10100 0.10620 0.00400 -0.01000
H 	H 	0.70760 0.28310 0.12430 0.03400
H 	H 	0.82370 0.27730 0.64230 0.09400
H 	H 	0.42490 0.29390 0.52190 -0.01100
H 	H 	0.44890 0.01650 0.06070 -0.01600
H 	H 	0.16810 0.12430 0.21690 0.03500
H 	H 	0.31580 0.86290 0.13590 -0.01800
H 	H 	0.78450 0.46330 0.02570 0.00800
H 	H 	0.09060 0.86190 0.89030 0.00500
H 	H 	0.24780 0.52570 0.53670 0.00500
H 	H 	0.66120 0.91430 0.68790 0.00700
H 	H 	0.62950 0.53940 0.14260 0.09000
H 	H 	0.37500 0.16080 0.86640 0.02300
H 	H 	0.74070 0.20610 0.97810 -0.01200
H 	H 	0.54830 0.13590 0.63710 -0.01800
H 	H 	0.17070 0.78110 0.08970 0.08200
H 	H 	0.52030 0.99820 0.62040 -0.00900
H 	H 	0.23660 0.41430 0.18790 0.00500
H 	H 	0.50960 0.93930 0.51650 -0.01600
H 	H 	0.26040 0.91030 0.28110 0.08200
H 	H 	0.42330 0.25500 0.37240 0.07100
H 	H 	0.11870 0.03090 0.52670 0.08600
H 	H 	0.61500 0.21690 0.37570 0.04400
H 	H 	0.53400 0.64230 0.22270 0.09400
H 	H 	0.64540 0.47330 0.53090 0.08600
H 	H 	0.08120 0.06230 0.46450 -0.02200
H 	H 	0.78130 0.75630 0.20870 0.01800
H 	H 	0.01000 0.20870 0.74370 0.01800
H 	H 	0.57060 0.00680 0.43640 0.09400
H 	H 	0.75670 0.77730 0.14230 0.09400
H 	H 	0.16200 0.71380 0.45340 -0.01300
H 	H 	0.97040 0.18020 0.35540 0.07500
H 	H 	0.59930 0.95930 0.30990 0.00100
H 	H 	0.47970 0.00180 0.37960 -0.00900
H 	H 	0.33880 0.08570 0.31210 0.00700
H 	H 	0.52550 0.66280 0.36980 0.02800
H 	H 	0.45430 0.46450 0.43770 -0.01800
H 	H 	0.90220 0.33920 0.63360 0.02300
H 	H 	0.81460 0.63710 0.36410 -0.01800
H 	H 	0.53460 0.43930 0.01650 -0.01600
H 	H 	0.84940 0.14460 0.18020 0.09000
H 	H 	0.42260 0.06360 0.00680 0.09400
H 	H 	0.09780 0.66080 0.36640 0.02300
H 	H 	0.77210 0.85740 0.03940 0.09000
H 	H 	0.16890 0.64260 0.46060 0.09100
H 	H 	0.55110 0.98350 0.93930 -0.01600
H 	H 	0.71120 0.39380 0.49600 -0.01000
H 	H 	0.15060 0.85540 0.81980 0.09000
H 	H 	0.34280 0.63810 0.60970 0.00600
H 	H 	0.42450 0.81210 0.91430 0.00700
H 	H 	0.49780 0.07110 0.63090 0.10200
H 	H 	0.46600 0.35770 0.77730 0.09400
H 	H 	0.57740 0.93640 0.99320 0.09400
H 	H 	0.34910 0.31210 0.41430 0.00900
H 	H 	0.20660 0.28860 0.12320 0.03200
H 	H 	0.04820 0.41030 0.78110 0.08300
H 	H 	0.18540 0.36290 0.63590 -0.01800
H 	H 	0.22790 0.14260 0.96060 0.09000
H 	H 	0.44140 0.19010 0.95930 0.00200
H 	H 	0.29240 0.71690 0.87570 0.03400
H 	H 	0.55070 0.24500 0.12760 0.08700
H 	H 	0.95250 0.39030 0.13810 0.00300
H 	H 	0.14350 0.96450 0.93770 -0.01900
H 	H 	0.99070 0.62430 0.71690 0.02000
H 	H 	0.51380 0.49320 0.06360 0.09400
H 	H 	0.28120 0.97810 0.29390 -0.01200
H 	H 	0.94190 0.16280 0.86980 0.02800
H 	H 	0.47450 0.33720 0.63020 0.02800
H 	H 	0.24630 0.74370 0.29130 0.01900
H 	H 	0.45170 0.86410 0.36290 -0.01800
H 	H 	0.56890 0.13090 0.92890 0.10200
H 	H 	0.36110 0.49820 0.12040 -0.00900
H 	H 	0.17630 0.46910 0.97330 0.08500
H 	H 	0.02960 0.81980 0.64460 0.07500
H 	H 	0.45850 0.28110 0.58970 0.08200
H 	H 	0.69980 0.42890 0.86910 0.10200
H 	H 	0.63150 0.45930 0.80990 0.00100
H 	H 	0.32170 0.12760 0.25500 0.08600
H 	H 	0.67020 0.12320 0.21140 0.03100
H 	H 	0.90940 0.13810 0.10970 0.00500
H 	H 	0.18830 0.86980 0.33720 0.02800
H 	H 	0.20720 0.50400 0.89380 -0.01000
H 	H 	0.91880 0.93770 0.53550 -0.02200
H 	H 	0.42940 0.99320 0.56360 0.09400
H 	H 	0.21870 0.24370 0.79130 0.01800
H 	H 	0.05810 0.83720 0.13020 0.02800
H 	H 	0.32980 0.87680 0.78860 0.03100
H 	H 	0.79570 0.62760 0.75500 0.08200
H 	H 	0.87580 0.95340 0.28620 -0.01200
H 	H 	0.83800 0.28620 0.54660 -0.01300
H 	H 	0.89900 0.85770 0.27730 0.09400
H 	H 	0.99300 0.43640 0.49320 0.09500
H 	H 	0.82920 0.78620 0.04660 -0.01200
H 	H 	0.50220 0.92890 0.36910 0.10200
H 	H 	0.55860 0.80990 0.04070 0.00200
H 	H 	0.71880 0.02190 0.70610 -0.01200
H 	H 	0.17630 0.72270 0.35770 0.09400
H 	H 	0.20430 0.37240 0.24500 0.08200
H 	H 	0.28880 0.60620 0.50400 -0.01000
H 	H 	0.10470 0.36980 0.83720 0.02600
H 	H 	0.50480 0.37680 0.28860 0.05000
H 	H 	0.37050 0.46060 0.85740 0.09000
H 	H 	0.46420 0.63360 0.16080 0.02300
H 	H 	0.49040 0.06070 0.48350 -0.01600
H 	H 	0.68420 0.13710 0.86410 -0.01800
H 	H 	0.81150 0.96060 0.35740 0.09000
H 	H 	0.85650 0.03550 0.06230 -0.01900
H 	H 	0.53580 0.36640 0.83920 0.02300
H 	H 	0.85040 0.97330 0.03090 0.08600
H 	H 	0.21550 0.53670 0.97430 0.00800
H 	H 	0.09080 0.30990 0.54070 -0.00200
H 	H 	0.81020 0.97430 0.96330 0.00700
H 	H 	0.11840 0.21140 0.37680 0.01600
H 	H 	0.46540 0.56070 0.98350 -0.01600
H 	H 	0.48150 0.87960 0.99820 -0.00900
H 	H 	0.83110 0.35740 0.53940 0.09100
H 	H 	0.14960 0.02670 0.96910 0.08600
H 	H 	0.79280 0.49600 0.10620 -0.01000
H 	H 	0.63890 0.50180 0.87960 -0.00900
H 	H 	0.99000 0.79130 0.25630 0.01800
H 	H 	0.38500 0.78310 0.62430 0.04400
H 	H 	0.04750 0.60970 0.86190 0.00300
H 	H 	0.05320 0.52190 0.20610 -0.01400
H 	H 	0.00700 0.56360 0.50680 0.09500
H 	H 	0.81170 0.13020 0.66280 0.02800
H 	H 	0.87130 0.63090 0.42890 0.10200
H 	H 	0.10500 0.99600 0.60620 -0.01100
H 	H 	0.49520 0.62320 0.71140 0.05000
H 	H 	0.89500 0.00400 0.39380 -0.01100
H 	H 	0.25930 0.79390 0.02190 -0.01200
H 	H 	0.65720 0.36190 0.39030 0.00600
H 	H 	0.48620 0.50680 0.93640 0.09400
H 	H 	0.10100 0.14230 0.72270 0.09400
H 	H 	0.89200 0.56230 0.96450 -0.01800
H 	H 	0.54150 0.71890 0.41030 0.08200
H 	H 	0.12870 0.36910 0.57110 0.10200
H 	H 	0.67830 0.87240 0.74500 0.08600
H 	H 	0.17080 0.21380 0.95340 -0.01200
H 	H 	0.82130 0.36410 0.86290 -0.01800
H 	H 	0.32580 0.64460 0.68020 0.07500
H 	H 	0.77350 0.03670 0.47430 0.00300
H 	H 	0.61540 0.54660 0.21380 -0.01200
H 	H 	0.95180 0.58970 0.21890 0.08300
H 	H 	0.89900 0.89380 0.99600 -0.01000
H 	H 	0.67420 0.35540 0.31980 0.07500
H 	H 	0.12420 0.04660 0.71380 -0.01200
H 	H 	0.18980 0.02570 0.03670 0.00700
H 	H 	0.43110 0.86910 0.07110 0.10200
H 	H 	0.53760 0.70870 0.24370 0.01800
H 	H 	0.00930 0.37570 0.28310 0.02000
H 	H 	0.24330 0.22270 0.85770 0.09400
H 	H 	0.82370 0.53090 0.02670 0.08500
H 	H 	0.57670 0.74500 0.62760 0.07100
H 	H 	0.99400 0.68020 0.85540 0.09100
H 	H 	0.75860 0.86640 0.33920 0.02300
H 	H 	0.88130 0.96910 0.47330 0.08600
H 	H 	0.75370 0.25630 0.70870 0.01900
H 	H 	0.22650 0.96330 0.52570 0.00300
H 	H 	0.14070 0.37960 0.49820 -0.01000
H 	H 	0.24140 0.13360 0.66080 0.02300
H 	H 	0.89530 0.63020 0.16280 0.02600
H 	H 	0.90920 0.69010 0.45930 -0.00200
H 	H 	0.88160 0.78860 0.62320 0.01600
H 	H 	0.36850 0.54070 0.19010 0.00100
H 	H 	0.10800 0.43770 0.03550 -0.01800
H 	H 	0.40070 0.04070 0.69010 0.00100
H 	H 	0.82930 0.21890 0.91030 0.08200
H 	H 	0.94680 0.47810 0.79390 -0.01400
H 	H 	0.97390 0.51650 0.56070 -0.01800
H 	H 	0.65090 0.68790 0.58570 0.00900
H 	H 	0.54570 0.53550 0.56230 -0.01800
H 	H 	0.01910 0.89030 0.63810 -0.00200
H 	H 	0.35460 0.52670 0.46910 0.08600
H 	H 	0.62500 0.83920 0.13360 0.02300
H 	H 	0.18850 0.03940 0.64260 0.09000
H 	H 	0.85930 0.62040 0.50180 -0.01000
H 	H 	0.73960 0.08970 0.71890 0.08200
H 	H 	0.30020 0.57110 0.13090 0.10200
H 	H 	0.02610 0.48350 0.43930 -0.01800
H 	H 	0.51850 0.12040 0.00180 -0.00900
H 	H 	0.98090 0.10970 0.36190 -0.00200
H 	H 	0.46240 0.29130 0.75630 0.01800
H 	H 	0.44930 0.75500 0.87240 0.08700
H 	H 	0.17870 0.63590 0.13710 -0.01800
C 	C 	0.72146 0.58843 0.67945 0.09500
C 	C 	0.41581 0.75980 0.60738 -0.02600
C 	C 	0.92694 0.27308 0.07844 0.30200
C 	C 	0.61581 0.90978 0.27200 -0.13000
C 	C 	0.90507 0.11782 0.91184 -0.11600
C 	C 	0.68305 0.91461 0.58589 0.10000
C 	C 	0.19726 0.65644 0.26684 0.08500
C 	C 	0.90109 0.15819 0.89643 0.04700
C 	C 	0.99462 0.07844 0.22692 0.30100
C 	C 	0.84186 0.58452 0.79716 0.06800
C 	C 	0.33390 0.89955 0.88425 0.05100
C 	C 	0.48557 0.19114 0.93252 0.07500
C 	C 	0.68790 0.52412 0.15648 -0.17900
C 	C 	0.85635 0.47502 0.19528 0.09800
C 	C 	0.76530 0.51271 0.26449 0.51300
C 	C 	0.88307 0.83487 0.29399 -0.13400
C 	C 	0.38419 0.09022 0.72800 -0.13000
C 	C 	0.96651 0.62207 0.87031 0.07000
C 	C 	0.79288 0.04859 0.61205 0.05800
C 	C 	0.97203 0.57929 0.19185 -0.13400
C 	C 	0.11219 0.27200 0.59022 -0.13100
C 	C 	0.84821 0.60253 0.52445 0.10400
C 	C 	0.67671 0.43252 0.80886 0.07500
C 	C 	0.58419 0.24020 0.39262 -0.02600
C 	C 	0.68355 0.58539 0.91411 0.10100
C 	C 	0.78270 0.80548 0.35632 -0.12000
C 	C 	0.43736 0.84369 0.08499 -0.15900
C 	C 	0.94837 0.19528 0.02498 0.09900
C 	C 	0.46200 0.41665 0.61295 0.32000
C 	C 	0.73106 0.58589 0.58539 0.10000
C 	C 	0.48231 0.29505 0.78233 0.08600
C 	C 	0.21815 0.11575 0.39955 0.05000
C 	C 	0.72354 0.91548 0.70284 0.06600
C 	C 	0.44868 0.30815 0.57929 -0.12700
C 	C 	0.96618 0.83580 0.63344 -0.14000
C 	C 	0.38871 0.39636 0.34122 -0.04000
C 	C 	0.81961 0.99879 0.97539 0.06100
C 	C 	0.52454 0.55885 0.95947 0.12200
C 	C 	0.09415 0.02808 0.69882 0.11500
C 	C 	0.58266 0.53536 0.53452 0.09900
C 	C 	0.80352 0.02828 0.57128 0.06600
C 	C 	0.30049 0.46428 0.54754 -0.11400
C 	C 	0.11802 0.03452 0.46464 0.10100
C 	C 	0.96533 0.46113 0.81621 0.08800
C 	C 	0.97335 0.97502 0.69528 0.10000
C 	C 	0.37480 0.42872 0.52828 0.06500
C 	C 	0.20712 0.95141 0.38795 0.05800
C 	C 	0.05928 0.39643 0.84181 0.05100
C 	C 	0.51769 0.70495 0.21767 0.08600
C 	C 	0.82294 0.29399 0.66513 -0.13400
C 	C 	0.59980 0.58859 0.95161 -0.20700
C 	C 	0.54555 0.22925 0.87045 0.09600
C 	C 	0.61128 0.31103 0.89421 0.33100
C 	C 	0.17561 0.10738 0.24020 0.03600
C 	C 	0.92769 0.42007 0.24755 -0.10400
C 	C 	0.52772 0.34007 0.83109 0.06000
C 	C 	0.45445 0.77075 0.12955 0.09600
C 	C 	0.92505 0.61295 0.08335 0.32100
C 	C 	0.51443 0.80886 0.06748 0.07500
C 	C 	0.57354 0.68379 0.46113 0.08300
C 	C 	0.78154 0.18379 0.96113 0.08300
C 	C 	0.62054 0.84356 0.23316 0.08500
C 	C 	0.18039 0.00121 0.02461 0.06100
C 	C 	0.44859 0.95161 0.91141 -0.20700
C 	C 	0.78798 0.34352 0.52412 -0.18300
C 	C 	0.87830 0.81727 0.62053 0.03600
C 	C 	0.18309 0.91184 0.38218 -0.11500
C 	C 	0.60507 0.28724 0.44482 0.01600
C 	C 	0.42646 0.31621 0.53887 0.08300
C 	C 	0.58818 0.85632 0.19452 -0.12100
C 	C 	0.34776 0.74755 0.57993 -0.02800
C 	C 	0.63091 0.16051 0.87567 0.11400
C 	C 	0.09692 0.52828 0.07128 0.06400
C 	C 	0.47546 0.44115 0.04053 0.12200
C 	C 	0.66610 0.10045 0.11575 0.05100
C 	C 	0.31645 0.41461 0.08589 0.10100
C 	C 	0.72199 0.23551 0.51271 0.50400
C 	C 	0.40091 0.32055 0.08843 0.30600
C 	C 	0.16709 0.33949 0.62433 0.11400
C 	C 	0.81840 0.47539 0.00121 0.06000
C 	C 	0.89077 0.69114 0.43252 0.07500
C 	C 	0.87865 0.11295 0.58335 0.31900
C 	C 	0.45571 0.34181 0.60357 0.04700
C 	C 	0.83180 0.07128 0.97172 0.06500
C 	C 	0.16318 0.87031 0.87793 0.06600
C 	C 	0.79998 0.42156 0.27308 0.30400
C 	C 	0.45714 0.05885 0.45947 0.12000
C 	C 	0.14308 0.01615 0.50169 -0.14700
C 	C 	0.79752 0.10357 0.65819 0.04700
C 	C 	0.50414 0.02665 0.43187 -0.18200
C 	C 	0.37634 0.76292 0.89060 -0.11400
C 	C 	0.62366 0.23708 0.10940 -0.11400
C 	C 	0.49586 0.97335 0.56813 -0.18200
C 	C 	0.51193 0.66513 0.20601 -0.13400
C 	C 	0.25733 0.96113 0.31621 0.08200
C 	C 	0.13902 0.64368 0.30548 -0.12000
C 	C 	0.91666 0.00280 0.36488 0.10200
C 	C 	0.41600 0.12955 0.72925 0.09600
C 	C 	0.68348 0.81103 0.39421 0.33100
C 	C 	0.76655 0.61575 0.89955 0.05100
C 	C 	0.92255 0.76482 0.42828 0.32800
C 	C 	0.51066 0.08843 0.17945 0.30600
C 	C 	0.61770 0.60045 0.61575 0.01700
C 	C 	0.05163 0.80472 0.97502 0.09900
C 	C 	0.07306 0.72692 0.92156 0.30200
C 	C 	0.36000 0.08859 0.45161 -0.20700
C 	C 	0.88282 0.53452 0.96464 0.09900
C 	C 	0.55141 0.04839 0.08859 -0.20700
C 	C 	0.73536 0.78233 0.20495 0.08500
C 	C 	0.42114 0.98460 0.87892 0.52400
C 	C 	0.00538 0.92156 0.77308 0.30100
C 	C 	0.72988 0.28078 0.50406 -0.21500
C 	C 	0.49342 0.87567 0.33949 0.11400
C 	C 	0.47014 0.26292 0.39060 -0.07800
C 	C 	0.31652 0.18897 0.60579 0.33100
C 	C 	0.31210 0.47588 0.84352 -0.17900
C 	C 	0.48934 0.91157 0.82055 0.30600
C 	C 	0.20703 0.69882 0.47192 0.11300
C 	C 	0.21534 0.48460 0.37892 0.52100
C 	C 	0.15254 0.96464 0.96548 0.09900
C 	C 	0.09531 0.07993 0.25245 -0.09700
C 	C 	0.27801 0.76449 0.48729 0.50400
C 	C 	0.35881 0.16891 0.84007 0.06000
C 	C 	0.72993 0.65878 0.89636 -0.10800
C 	C 	0.12135 0.88705 0.41665 0.31900
C 	C 	0.15197 0.54754 0.03572 -0.11300
C 	C 	0.15814 0.41548 0.20284 0.06800
C 	C 	0.30006 0.12108 0.48460 0.52200
C 	C 	0.97681 0.60738 0.74020 0.03900
C 	C 	0.41734 0.46464 0.46548 0.09900
C 	C 	0.90469 0.92007 0.74755 -0.09700
C 	C 	0.20002 0.57844 0.72692 0.30400
C 	C 	0.15179 0.39747 0.47555 0.10400
C 	C 	0.79142 0.37567 0.83949 0.11400
C 	C 	0.95750 0.01271 0.76449 0.51600
C 	C 	0.13150 0.02412 0.65648 -0.18100
C 	C 	0.38230 0.39955 0.38425 0.01700
C 	C 	0.08339 0.45947 0.44115 0.12200
C 	C 	0.91661 0.54053 0.55885 0.12200
C 	C 	0.84438 0.84352 0.02412 -0.17900
C 	C 	0.86098 0.35632 0.69452 -0.12000
C 	C 	0.16287 0.78724 0.94482 0.05500
C 	C 	0.82439 0.89262 0.75980 0.03600
C 	C 	0.46266 0.47335 0.06813 -0.18100
C 	C 	0.55132 0.69185 0.42071 -0.12700
C 	C 	0.28299 0.74020 0.89262 0.03600
C 	C 	0.81691 0.08816 0.61782 -0.11500
C 	C 	0.21202 0.65648 0.47588 -0.18300
C 	C 	0.68139 0.08949 0.53733 0.34300
C 	C 	0.55550 0.30548 0.85632 -0.12100
C 	C 	0.54429 0.65819 0.39643 0.04700
C 	C 	0.01472 0.21922 0.99594 -0.20200
C 	C 	0.15853 0.88795 0.04859 0.05900
C 	C 	0.78434 0.49720 0.13512 0.10200
C 	C 	0.03349 0.37793 0.12969 0.07000
C 	C 	0.95011 0.44482 0.21276 0.05500
C 	C 	0.40234 0.91411 0.91461 0.10100
C 	C 	0.47519 0.89747 0.97555 0.10700
C 	C 	0.52559 0.77200 0.09022 -0.13000
C 	C 	0.10923 0.30886 0.56748 0.07500
C 	C 	0.83713 0.21276 0.05518 0.05500
C 	C 	0.04989 0.55518 0.78724 0.05500
C 	C 	0.26694 0.10940 0.26292 -0.11400
C 	C 	0.17524 0.75245 0.92007 -0.09700
C 	C 	0.80274 0.34356 0.73316 0.08500
C 	C 	0.31695 0.08539 0.41411 0.10000
C 	C 	0.02319 0.39262 0.25980 0.03900
C 	C 	0.53079 0.93187 0.97335 -0.18100
C 	C 	0.87777 0.80118 0.02808 0.11400
C 	C 	0.14365 0.52498 0.80472 0.09800
C 	C 	0.50658 0.12433 0.66051 0.11400
C 	C 	0.50549 0.10579 0.81103 0.33100
C 	C 	0.48401 0.04053 0.05885 0.12200
C 	C 	0.46921 0.06813 0.02665 -0.18100
C 	C 	0.71794 0.79399 0.16513 -0.13400
C 	C 	0.40493 0.38795 0.54859 0.05900
C 	C 	0.28154 0.63512 0.50280 0.09900
C 	C 	0.23394 0.49594 0.78078 -0.20100
C 	C 	0.47228 0.65993 0.16891 0.06000
C 	C 	0.21493 0.15878 0.39636 -0.11300
C 	C 	0.71701 0.25980 0.10738 0.03600
C 	C 	0.02665 0.02498 0.30472 0.10000
C 	C 	0.31263 0.07172 0.76482 0.33200
C 	C 	0.02797 0.42071 0.80815 -0.13400
C 	C 	0.64119 0.83109 0.15993 0.06000
C 	C 	0.78185 0.88425 0.60045 0.05000
C 	C 	0.19179 0.58949 0.03733 0.33900
C 	C 	0.59426 0.62108 0.98460 0.52400
C 	C 	0.43473 0.38218 0.58816 -0.11500
C 	C 	0.98934 0.99594 0.28078 -0.20400
C 	C 	0.53590 0.26684 0.84356 0.08500
C 	C 	0.80198 0.13344 0.16420 -0.12300
C 	C 	0.79500 0.02461 0.49879 0.06400
C 	C 	0.38435 0.26482 0.92828 0.33200
C 	C 	0.56527 0.61782 0.41184 -0.11500
C 	C 	0.23523 0.95246 0.46428 -0.11700
C 	C 	0.44450 0.69452 0.14368 -0.12100
C 	C 	0.84746 0.03536 0.03452 0.09900
C 	C 	0.77088 0.03733 0.91051 0.34000
C 	C 	0.02979 0.73551 0.01271 0.51400
C 	C 	0.14630 0.23316 0.65644 0.08500
C 	C 	0.37946 0.15644 0.76684 0.08500
C 	C 	0.93601 0.56813 0.52665 -0.18700
C 	C 	0.29379 0.50121 0.52461 0.06200
C 	C 	0.20858 0.62433 0.16051 0.11400
C 	C 	0.75683 0.07929 0.69185 -0.12700
C 	C 	0.21872 0.46267 0.58949 0.34000
C 	C 	0.11718 0.46548 0.03536 0.09900
C 	C 	0.54286 0.94115 0.54053 0.12000
C 	C 	0.59507 0.61205 0.45141 0.05900
C 	C 	0.84077 0.99831 0.01615 -0.14400
C 	C 	0.69951 0.53572 0.45246 -0.11400
C 	C 	0.21730 0.19452 0.64368 -0.12000
C 	C 	0.69994 0.87892 0.51540 0.52200
C 	C 	0.24317 0.92071 0.30815 -0.12700
C 	C 	0.06399 0.43187 0.47335 -0.18700
C 	C 	0.13221 0.66891 0.34007 0.06000
C 	C 	0.81610 0.68273 0.87947 0.04000
C 	C 	0.66863 0.30472 0.47502 0.09900
C 	C 	0.45074 0.02445 0.39747 0.10600
C 	C 	0.27012 0.71922 0.49594 -0.21500
C 	C 	0.20248 0.89643 0.34181 0.04700
C 	C 	0.38872 0.68897 0.10579 0.33100
C 	C 	0.81231 0.03572 0.95246 -0.11300
C 	C 	0.47441 0.22800 0.90978 -0.13000
C 	C 	0.40038 0.63344 0.66420 -0.09100
C 	C 	0.88781 0.72800 0.40978 -0.13100
C 	C 	0.64000 0.91141 0.54839 -0.20700
C 	C 	0.18390 0.31727 0.12053 0.04000
C 	C 	0.37371 0.89636 0.84122 -0.10800
C 	C 	0.71895 0.41501 0.84369 -0.15900
C 	C 	0.61129 0.60364 0.65878 -0.04000
C 	C 	0.86604 0.65631 0.41501 -0.16000
C 	C 	0.91946 0.86488 0.99720 0.10200
C 	C 	0.07231 0.57993 0.75245 -0.10400
C 	C 	0.12170 0.18273 0.37947 0.03600
C 	C 	0.86850 0.97588 0.34352 -0.18100
C 	C 	0.94031 0.79505 0.28233 0.08500
C 	C 	0.41142 0.62969 0.62207 0.04700
C 	C 	0.29759 0.59022 0.22800 -0.13100
C 	C 	0.86074 0.60940 0.76292 -0.12400
C 	C 	0.95352 0.45141 0.88795 0.06200
C 	C 	0.27854 0.41157 0.32055 0.09500
C 	C 	0.37266 0.47555 0.10253 0.10700
C 	C 	0.26894 0.41411 0.41461 0.10000
C 	C 	0.77480 0.37045 0.77075 0.09600
C 	C 	0.76477 0.04754 0.53572 -0.11700
C 	C 	0.56264 0.15631 0.91501 -0.15900
C 	C 	0.09891 0.84181 0.10357 0.04700
C 	C 	0.51599 0.95947 0.94115 0.12200
C 	C 	0.89231 0.94482 0.71276 0.05400
C 	C 	0.08054 0.13512 0.00280 0.10200
C 	C 	0.16820 0.92872 0.02828 0.06500
C 	C 	0.95889 0.87793 0.62969 0.06100
C 	C 	0.13926 0.39060 0.23708 -0.12400
C 	C 	0.73306 0.89060 0.73708 -0.11400
C 	C 	0.26464 0.21767 0.79505 0.08500
C 	C 	0.83908 0.51615 0.00169 -0.14300
C 	C 	0.07745 0.23518 0.57172 0.32800
C 	C 	0.01066 0.00406 0.71922 -0.20400
C 	C 	0.49883 0.37947 0.31727 -0.01300
C 	C 	0.80112 0.84007 0.33109 0.06000
C 	C 	0.30989 0.17945 0.41157 0.30900
C 	C 	0.23345 0.38425 0.10045 0.05100
C 	C 	0.36098 0.79716 0.91548 0.06600
C 	C 	0.19648 0.97172 0.42872 0.06600
C 	C 	0.28206 0.20601 0.83487 -0.13400
C 	C 	0.19888 0.15993 0.66891 0.06000
C 	C 	0.62520 0.57128 0.47172 0.06500
C 	C 	0.50117 0.62053 0.68273 -0.01300
C 	C 	0.13396 0.34369 0.58499 -0.16000
C 	C 	0.35083 0.57172 0.26482 0.33200
C 	C 	0.46410 0.73316 0.15644 0.08500
C 	C 	0.07495 0.38705 0.91665 0.32100
C 	C 	0.15923 0.00169 0.98385 -0.14400
C 	C 	0.02289 0.41184 0.88218 -0.11900
C 	C 	0.12223 0.19882 0.97192 0.11400
C 	C 	0.40020 0.41141 0.04839 -0.20700
C 	C 	0.41809 0.06748 0.69114 0.07500
C 	C 	0.83682 0.12969 0.12207 0.06600
C 	C 	0.47765 0.08499 0.65631 -0.15900
C 	C 	0.92231 0.39421 0.68897 0.33100
C 	C 	0.40574 0.37892 0.01540 0.52400
C 	C 	0.69557 0.12053 0.18273 0.03900
C 	C 	0.84147 0.11205 0.95141 0.05900
C 	C 	0.39493 0.71276 0.55518 0.01600
C 	C 	0.77736 0.28233 0.70495 0.08600
C 	C 	0.64477 0.49831 0.51615 -0.14500
C 	C 	0.68737 0.92828 0.23518 0.33200
C 	C 	0.58400 0.87045 0.27075 0.09600
C 	C 	0.78507 0.84122 0.60364 -0.11300
C 	C 	0.17706 0.70601 0.33487 -0.13400
C 	C 	0.53734 0.52665 0.93187 -0.18100
C 	C 	0.79297 0.30118 0.52808 0.11300
C 	C 	0.15562 0.15648 0.97588 -0.17900
C 	C 	0.81161 0.54839 0.58859 -0.22100
C 	C 	0.32105 0.47192 0.80118 0.11400
C 	C 	0.84803 0.45246 0.96428 -0.11300
C 	C 	0.78128 0.53733 0.41051 0.34000
C 	C 	0.18160 0.52461 0.99879 0.06000
C 	C 	0.03467 0.53887 0.18379 0.08800
C 	C 	0.22912 0.96267 0.08949 0.34000
C 	C 	0.27007 0.34122 0.10364 -0.10800
C 	C 	0.78466 0.51540 0.62108 0.52100
C 	C 	0.05969 0.20495 0.71767 0.08500
C 	C 	0.90308 0.47172 0.92872 0.06400
C 	C 	0.06458 0.33580 0.13344 -0.12500
C 	C 	0.21846 0.81621 0.03887 0.08300
C 	C 	0.36909 0.83949 0.12433 0.11400
C 	C 	0.97711 0.58816 0.11782 -0.11900
C 	C 	0.35523 0.50169 0.48385 -0.14500
C 	C 	0.76606 0.50406 0.21922 -0.20100
C 	C 	0.19802 0.86656 0.83580 -0.12300
C 	C 	0.21566 0.50280 0.86488 0.10200
C 	C 	0.52986 0.73708 0.60940 -0.07800
C 	C 	0.74267 0.03887 0.68379 0.08200
C 	C 	0.59962 0.36656 0.33580 -0.09100
C 	C 	0.85370 0.76684 0.34356 0.08500
C 	C 	0.31861 0.91051 0.46267 0.34300
C 	C 	0.98528 0.78078 0.00406 -0.20200
C 	C 	0.62629 0.10364 0.15878 -0.10800
C 	C 	0.27646 0.08452 0.29716 0.06600
C 	C 	0.49451 0.89421 0.18897 0.33100
C 	C 	0.85692 0.98385 0.49831 -0.14700
C 	C 	0.04111 0.12207 0.37031 0.06100
C 	C 	0.28105 0.58499 0.15631 -0.15900
C 	C 	0.54926 0.97555 0.60253 0.10600
C 	C 	0.62734 0.52445 0.89747 0.10700
C 	C 	0.70241 0.40978 0.77200 -0.13100
C 	C 	0.52235 0.91501 0.34369 -0.15900
C 	C 	0.94072 0.60357 0.15819 0.05100
C 	C 	0.00840 0.91665 0.11295 0.32200
C 	C 	0.20500 0.97539 0.50121 0.06400
C 	C 	0.23470 0.48729 0.73551 0.51300
C 	C 	0.48807 0.33487 0.79399 -0.13400
C 	C 	0.85475 0.72925 0.37045 0.09500
C 	C 	0.58858 0.37031 0.37793 0.04700
C 	C 	0.58191 0.93252 0.30886 0.07500
C 	C 	0.30443 0.87947 0.81727 0.03900
C 	C 	0.63902 0.20284 0.08452 0.06600
C 	C 	0.71846 0.36488 0.49720 0.09900
C 	C 	0.08334 0.99720 0.63512 0.10200
C 	C 	0.90585 0.97192 0.30118 0.11500
C 	C 	0.09493 0.88218 0.08816 -0.11600
C 	C 	0.83291 0.66051 0.37567 0.11400
C 	C 	0.18839 0.45161 0.41141 -0.22100
C 	C 	0.11693 0.16513 0.70601 -0.13400
C 	C 	0.67895 0.52808 0.19882 0.11400
C 	C 	0.61565 0.73518 0.07172 0.33200
C 	C 	0.10769 0.05518 0.28724 0.05400
C 	C 	0.69011 0.82055 0.58843 0.30900
C 	C 	0.14525 0.27075 0.62955 0.09500
C 	C 	0.16388 0.80815 0.07929 -0.12800
C 	C 	0.86779 0.33109 0.65993 0.06000
C 	C 	0.33137 0.69528 0.52498 0.09900
C 	C 	0.32329 0.56748 0.19114 0.07500
C 	C 	0.03382 0.16420 0.36656 -0.14000
C 	C 	0.83612 0.19185 0.92071 -0.12800
C 	C 	0.07769 0.60579 0.31103 0.33100
C 	C 	0.64917 0.42828 0.73518 0.33200
C 	C 	0.57886 0.01540 0.12108 0.52400
C 	C 	0.04648 0.54859 0.11205 0.06200
C 	C 	0.16092 0.48385 0.99831 -0.14300
C 	C 	0.04250 0.98729 0.23551 0.51600
C 	C 	0.97021 0.26449 0.98729 0.51400
C 	C 	0.22264 0.71767 0.29505 0.08600
C 	C 	0.70621 0.49879 0.47539 0.06200
C 	C 	0.80821 0.41051 0.96267 0.33900
C 	C 	0.88198 0.96548 0.53536 0.10100
C 	C 	0.57362 0.70284 0.58452 0.04300
C 	C 	0.65224 0.25245 0.42007 -0.02800
C 	C 	0.22520 0.62955 0.22925 0.09600
C 	C 	0.99160 0.08335 0.88705 0.32200
C 	C 	0.82476 0.24755 0.07993 -0.09700
C 	C 	0.59766 0.08589 0.08539 0.10100
C 	C 	0.18769 0.96428 0.04754 -0.11300
C 	C 	0.59909 0.67945 0.91157 0.30600
C 	C 	0.52481 0.10253 0.02445 0.10700
C 	C 	0.53800 0.58335 0.38705 0.32000
C 	C 	0.93542 0.66420 0.86656 -0.12500
C 	C 	0.42638 0.29716 0.41548 0.04300
C 	C 	0.41182 0.14368 0.80548 -0.12100
N 	N 	0.50357 0.26166 0.80620 -0.12200
N 	N 	0.66037 0.34624 0.47242 -0.20000
N 	N 	0.99339 0.02758 0.34624 -0.19900
N 	N 	0.58784 0.11170 0.05322 -0.19900
N 	N 	0.93530 0.55809 0.80971 -0.22000
N 	N 	0.76523 0.30620 0.73834 -0.12100
N 	N 	0.06470 0.44191 0.19029 -0.22000
N 	N 	0.30977 0.19380 0.76166 -0.12200
N 	N 	0.30046 0.44678 0.11170 -0.19900
N 	N 	0.47877 0.14653 0.69573 -0.13200
N 	N 	0.13276 0.09768 0.38580 -0.22700
N 	N 	0.84128 0.07108 0.01296 -0.22400
N 	N 	0.25276 0.38830 0.44678 -0.20300
N 	N 	0.64106 0.94678 0.61170 -0.19900
N 	N 	0.80310 0.94191 0.69029 -0.21900
N 	N 	0.57468 0.57108 0.51296 -0.22400
N 	N 	0.76956 0.11420 0.09768 -0.22600
N 	N 	0.11624 0.40232 0.11420 -0.22600
N 	N 	0.52123 0.85347 0.30427 -0.13200
N 	N 	0.40697 0.35521 0.52345 -0.22500
N 	N 	0.86721 0.47242 0.15376 -0.19700
N 	N 	0.59303 0.64479 0.47655 -0.22500
N 	N 	0.74501 0.19029 0.05809 -0.21900
N 	N 	0.76218 0.02345 0.64479 -0.22500
N 	N 	0.50661 0.69029 0.55809 -0.20900
N 	N 	0.78563 0.14479 0.97655 -0.22500
N 	N 	0.23044 0.88580 0.90232 -0.22600
N 	N 	0.69023 0.80620 0.23834 -0.12200
N 	N 	0.19690 0.05809 0.30971 -0.21900
N 	N 	0.41216 0.88830 0.94678 -0.19900
N 	N 	0.42532 0.42892 0.48704 -0.22400
N 	N 	0.35894 0.05322 0.38830 -0.19900
N 	N 	0.00661 0.97242 0.65376 -0.19900
N 	N 	0.08764 0.48704 0.07108 -0.22300
N 	N 	0.17450 0.30427 0.64653 -0.13300
N 	N 	0.69954 0.55322 0.88830 -0.19900
N 	N 	0.23477 0.69380 0.26166 -0.12100
N 	N 	0.86724 0.90232 0.61420 -0.22700
N 	N 	0.93042 0.47655 0.85521 -0.22700
N 	N 	0.23782 0.97655 0.35521 -0.22500
N 	N 	0.02097 0.84624 0.97242 -0.19700
N 	N 	0.25499 0.80971 0.94191 -0.21900
N 	N 	0.97903 0.15376 0.02758 -0.19700
N 	N 	0.48144 0.38580 0.40232 -0.21700
N 	N 	0.85424 0.98704 0.57108 -0.22500
N 	N 	0.74724 0.61170 0.55322 -0.20300
N 	N 	0.49339 0.30971 0.44191 -0.20900
N 	N 	0.06958 0.52345 0.14479 -0.22700
N 	N 	0.91236 0.51296 0.92892 -0.22300
N 	N 	0.07143 0.23834 0.69380 -0.12200
N 	N 	0.14576 0.01296 0.42892 -0.22500
N 	N 	0.21437 0.85521 0.02345 -0.22500
N 	N 	0.62530 0.19573 0.85347 -0.13200
N 	N 	0.51856 0.61420 0.59768 -0.21700
N 	N 	0.15872 0.92892 0.98704 -0.22400
N 	N 	0.82103 0.35347 0.80427 -0.13200
N 	N 	0.13279 0.52758 0.84624 -0.19700
N 	N 	0.37470 0.80427 0.14653 -0.13200
N 	N 	0.49643 0.73834 0.19380 -0.12200
N 	N 	0.33963 0.65376 0.52758 -0.20000
N 	N 	0.17897 0.64653 0.19573 -0.13200
N 	N 	0.82550 0.69573 0.35347 -0.13300
N 	N 	0.92857 0.76166 0.30620 -0.12200
N 	N 	0.88376 0.59768 0.88580 -0.22600
O 	O 	0.14410 0.72486 0.00914 -0.54500
O 	O 	0.27083 0.21209 0.43245 -0.28900
O 	O 	0.36637 0.04161 0.78365 -0.45600
O 	O 	0.04757 0.28746 0.97580 -0.55900
O 	O 	0.69163 0.45839 0.71635 -0.45700
O 	O 	0.41763 0.09890 0.16284 -0.26000
O 	O 	0.29672 0.43245 0.28791 -0.23300
O 	O 	0.59202 0.71635 0.04161 -0.45600
O 	O 	0.49982 0.44740 0.59596 -0.40900
O 	O 	0.32156 0.71832 0.09156 -0.40900
O 	O 	0.71635 0.11892 0.51578 -0.45800
O 	O 	0.15002 0.21635 0.54161 -0.45500
O 	O 	0.31956 0.98774 0.86774 -0.56000
O 	O 	0.12524 0.50733 0.36759 -0.54500
O 	O 	0.71346 0.72501 0.08547 -0.40600
O 	O 	0.32496 0.48774 0.36774 -0.55900
O 	O 	0.30730 0.36774 0.01226 -0.56000
O 	O 	0.30837 0.54161 0.28365 -0.45700
O 	O 	0.41312 0.90844 0.21832 -0.40900
O 	O 	0.72917 0.78791 0.56755 -0.28900
O 	O 	0.62190 0.22486 0.50914 -0.55000
O 	O 	0.04318 0.05260 0.90404 -0.41000
O 	O 	0.03988 0.59156 0.28168 -0.40600
O 	O 	0.36856 0.21832 0.59156 -0.40800
O 	O 	0.97216 0.92412 0.81196 -0.27800
O 	O 	0.18730 0.13226 0.48774 -0.56000
O 	O 	0.48347 0.33716 0.09890 -0.26000
O 	O 	0.37810 0.77514 0.49086 -0.55000
O 	O 	0.10372 0.68804 0.92412 -0.27900
O 	O 	0.40798 0.28365 0.95839 -0.45600
O 	O 	0.42280 0.90781 0.44159 -0.40000
O 	O 	0.13940 0.84757 0.41063 -0.43100
O 	O 	0.71407 0.42099 0.25347 -0.26200
O 	O 	0.49283 0.63241 0.00733 -0.54200
O 	O 	0.34753 0.15244 0.59050 -0.42000
O 	O 	0.63144 0.78168 0.40844 -0.40800
O 	O 	0.79893 0.91453 0.22501 -0.40600
O 	O 	0.66497 0.52420 0.28746 -0.55900
O 	O 	0.68044 0.01226 0.13226 -0.56000
O 	O 	0.67844 0.28168 0.90844 -0.40900
O 	O 	0.41953 0.16284 0.40110 -0.26700
O 	O 	0.85105 0.38108 0.98422 -0.44600
O 	O 	0.96754 0.74653 0.92099 -0.26000
O 	O 	0.50003 0.90950 0.15244 -0.42200
O 	O 	0.33503 0.47580 0.71254 -0.55900
O 	O 	0.28593 0.57901 0.74653 -0.26200
O 	O 	0.09578 0.40404 0.94740 -0.41000
O 	O 	0.02394 0.77499 0.41453 -0.40100
O 	O 	0.10240 0.34757 0.91063 -0.43500
O 	O 	0.13561 0.44159 0.59219 -0.39900
O 	O 	0.59047 0.34756 0.90950 -0.42200
O 	O 	0.27220 0.59219 0.05841 -0.40000
O 	O 	0.90422 0.59596 0.05260 -0.41000
O 	O 	0.48292 0.93245 0.78791 -0.28100
O 	O 	0.89760 0.65243 0.08937 -0.43500
O 	O 	0.23213 0.48422 0.61892 -0.44700
O 	O 	0.63257 0.86759 0.49267 -0.54100
O 	O 	0.33061 0.94159 0.09219 -0.40000
O 	O 	0.83527 0.01578 0.88108 -0.44600
O 	O 	0.81083 0.21254 0.52420 -0.56600
O 	O 	0.40953 0.65244 0.09050 -0.42200
O 	O 	0.76787 0.51578 0.38108 -0.44700
O 	O 	0.58047 0.83716 0.59890 -0.26700
O 	O 	0.05278 0.90404 0.44740 -0.40800
O 	O 	0.66939 0.05841 0.90781 -0.40000
O 	O 	0.97606 0.22501 0.58547 -0.40100
O 	O 	0.06197 0.59050 0.34756 -0.41900
O 	O 	0.94722 0.09596 0.55260 -0.40800
O 	O 	0.20107 0.08547 0.77499 -0.40600
O 	O 	0.49984 0.00733 0.86759 -0.54200
O 	O 	0.02337 0.02420 0.78746 -0.56000
O 	O 	0.55003 0.58937 0.34757 -0.43400
O 	O 	0.84676 0.00914 0.77514 -0.54500
O 	O 	0.15324 0.99086 0.22486 -0.54500
O 	O 	0.02784 0.07588 0.18804 -0.27800
O 	O 	0.79176 0.42412 0.31196 -0.28600
O 	O 	0.11147 0.92099 0.75347 -0.26200
O 	O 	0.65247 0.84756 0.40950 -0.42000
O 	O 	0.97663 0.97580 0.21254 -0.56000
O 	O 	0.86060 0.15243 0.58937 -0.43100
O 	O 	0.41537 0.28791 0.06755 -0.28100
O 	O 	0.50018 0.55260 0.40404 -0.40900
O 	O 	0.44997 0.41063 0.65243 -0.43400
O 	O 	0.86439 0.55841 0.40781 -0.39900
O 	O 	0.69270 0.63226 0.98774 -0.56000
O 	O 	0.16473 0.98422 0.11892 -0.44600
O 	O 	0.14895 0.61892 0.01578 -0.44600
O 	O 	0.20824 0.57588 0.68804 -0.28600
O 	O 	0.63363 0.95839 0.21635 -0.45600
O 	O 	0.93803 0.40950 0.65244 -0.41900
O 	O 	0.70328 0.56755 0.71209 -0.23300
O 	O 	0.28365 0.88108 0.48422 -0.45800
O 	O 	0.58463 0.71209 0.93245 -0.28100
O 	O 	0.57720 0.09219 0.55841 -0.40000
O 	O 	0.89628 0.31196 0.07588 -0.27900
O 	O 	0.67504 0.51226 0.63226 -0.55900
O 	O 	0.58237 0.90110 0.83716 -0.26000
O 	O 	0.56153 0.41453 0.72501 -0.40600
O 	O 	0.51708 0.06755 0.21209 -0.28100
O 	O 	0.96012 0.40844 0.71832 -0.40600
O 	O 	0.50016 0.99267 0.13241 -0.54200
O 	O 	0.58688 0.09156 0.78168 -0.40900
O 	O 	0.95682 0.94740 0.09596 -0.41000
O 	O 	0.86896 0.50914 0.27514 -0.54600
O 	O 	0.49997 0.09050 0.84756 -0.42200
O 	O 	0.01303 0.08937 0.84757 -0.43600
O 	O 	0.03246 0.25347 0.07901 -0.26000
O 	O 	0.81270 0.86774 0.51226 -0.56000
O 	O 	0.51653 0.66284 0.90110 -0.26000
O 	O 	0.87476 0.49267 0.63241 -0.54500
O 	O 	0.72780 0.40781 0.94159 -0.40000
O 	O 	0.36743 0.13241 0.50733 -0.54100
O 	O 	0.13104 0.49086 0.72486 -0.54600
O 	O 	0.98697 0.91063 0.15243 -0.43600
O 	O 	0.84998 0.78365 0.45839 -0.45500
O 	O 	0.18917 0.78746 0.47580 -0.56600
O 	O 	0.50717 0.36759 0.99267 -0.54200
O 	O 	0.85590 0.27514 0.99086 -0.54500
O 	O 	0.28654 0.27499 0.91453 -0.40600
O 	O 	0.43847 0.58547 0.27499 -0.40600
O 	O 	0.95243 0.71254 0.02420 -0.55900
O 	O 	0.88853 0.07901 0.24653 -0.26200
