data_crystal

_cell_length_a 13.70700
_cell_length_b 27.44900
_cell_length_c 45.24800
_cell_angle_alpha 90.00000
_cell_angle_beta  90.00000
_cell_angle_gamma 90.00000

_symmetry_space_group_name_	'P 1'
_symmetry_space_group_name_H-M	'P 1'

loop_
_symmetry_equiv_pos_as_xyz
  x,y,z

loop_
_atom_site_label
_atom_site_type_symbol
_atom_site_fract_x
_atom_site_fract_y
_atom_site_fract_z
_atom_site_charge
Zn	Zn	0.34517 0.25636 0.81469 1.16700
Zn	Zn	0.13577 0.47171 0.91583 1.16600
Zn	Zn	0.33709 0.44610 0.07703 1.16500
Zn	Zn	0.65483 0.24364 0.31469 1.16700
Zn	Zn	0.86423 0.02829 0.41583 1.16600
Zn	Zn	0.66291 0.05390 0.57703 1.16500
Zn	Zn	0.84517 0.74364 0.68531 1.16700
Zn	Zn	0.63577 0.52829 0.58417 1.16600
Zn	Zn	0.83709 0.55390 0.42297 1.16500
Zn	Zn	0.15483 0.75636 0.18531 1.16700
Zn	Zn	0.36423 0.97171 0.08417 1.16600
Zn	Zn	0.16291 0.94610 0.92297 1.16500
H 	H 	0.98530 0.41250 0.88400 -0.00400
H 	H 	0.83100 0.38200 0.89070 0.09500
H 	H 	0.98920 0.46460 0.96530 -0.00400
H 	H 	0.83320 0.43620 0.97370 0.08900
H 	H 	0.53550 0.46070 0.05220 -0.01500
H 	H 	0.62670 0.44050 0.01050 0.09200
H 	H 	0.29940 0.40640 0.01600 -0.00700
H 	H 	0.38360 0.38410 0.97390 0.07900
H 	H 	0.30860 0.31050 0.86920 -0.01500
H 	H 	0.38820 0.34410 0.90850 0.08900
H 	H 	0.55540 0.28490 0.82890 -0.01700
H 	H 	0.64050 0.32420 0.86590 0.08800
H 	H 	0.46170 0.19840 0.77120 -0.00200
H 	H 	0.52170 0.20610 0.72360 0.08300
H 	H 	0.40270 0.33780 0.77490 -0.01400
H 	H 	0.46590 0.35030 0.72850 0.08200
H 	H 	0.57860 0.49170 0.64440 -0.01200
H 	H 	0.55360 0.42010 0.66970 0.08300
H 	H 	0.62350 0.42250 0.57030 -0.01100
H 	H 	0.60060 0.34830 0.59310 0.08200
H 	H 	0.65430 0.16100 0.56620 -0.01700
H 	H 	0.62640 0.23270 0.59080 0.08000
H 	H 	0.57600 0.08390 0.63560 -0.00700
H 	H 	0.54510 0.15390 0.66260 0.07800
H 	H 	0.01470 0.08750 0.38400 -0.00500
H 	H 	0.16900 0.11800 0.39070 0.09400
H 	H 	0.01080 0.03540 0.46530 -0.00400
H 	H 	0.16680 0.06380 0.47370 0.08900
H 	H 	0.46450 0.03930 0.55220 -0.01500
H 	H 	0.37330 0.05950 0.51050 0.09200
H 	H 	0.70060 0.09360 0.51600 -0.00700
H 	H 	0.61640 0.11590 0.47390 0.07900
H 	H 	0.69140 0.18950 0.36920 -0.01500
H 	H 	0.61180 0.15590 0.40850 0.08900
H 	H 	0.44460 0.21510 0.32890 -0.01700
H 	H 	0.35950 0.17580 0.36590 0.08800
H 	H 	0.53830 0.30160 0.27120 -0.00200
H 	H 	0.47830 0.29390 0.22360 0.08300
H 	H 	0.59730 0.16220 0.27490 -0.01400
H 	H 	0.53410 0.14970 0.22850 0.08200
H 	H 	0.42140 0.00830 0.14440 -0.01200
H 	H 	0.44640 0.07990 0.16970 0.08300
H 	H 	0.37650 0.07750 0.07030 -0.01100
H 	H 	0.39940 0.15170 0.09310 0.08300
H 	H 	0.34570 0.33900 0.06620 -0.01700
H 	H 	0.37360 0.26730 0.09080 0.08000
H 	H 	0.42400 0.41610 0.13560 -0.00700
H 	H 	0.45490 0.34610 0.16260 0.07800
H 	H 	0.48530 0.58750 0.61600 -0.00500
H 	H 	0.33100 0.61800 0.60930 0.09400
H 	H 	0.48920 0.53540 0.53470 -0.00400
H 	H 	0.33320 0.56380 0.52630 0.08900
H 	H 	0.03550 0.53930 0.44780 -0.01500
H 	H 	0.12670 0.55950 0.48950 0.09200
H 	H 	0.79940 0.59360 0.48400 -0.00700
H 	H 	0.88360 0.61590 0.52610 0.07900
H 	H 	0.80860 0.68950 0.63080 -0.01400
H 	H 	0.88820 0.65590 0.59150 0.08800
H 	H 	0.05540 0.71510 0.67110 -0.01700
H 	H 	0.14050 0.67580 0.63410 0.08800
H 	H 	0.96170 0.80160 0.72880 -0.00100
H 	H 	0.02170 0.79390 0.77640 0.08200
H 	H 	0.90270 0.66220 0.72510 -0.01400
H 	H 	0.96590 0.64970 0.77150 0.08200
H 	H 	0.07860 0.50830 0.85560 -0.01200
H 	H 	0.05360 0.57990 0.83030 0.08200
H 	H 	0.12350 0.57750 0.92970 -0.01100
H 	H 	0.10060 0.65170 0.90690 0.08200
H 	H 	0.15430 0.83900 0.93380 -0.01700
H 	H 	0.12640 0.76730 0.90920 0.08000
H 	H 	0.07600 0.91610 0.86440 -0.00700
H 	H 	0.04510 0.84610 0.83740 0.07800
H 	H 	0.51470 0.91250 0.11600 -0.00500
H 	H 	0.66900 0.88200 0.10930 0.09400
H 	H 	0.51080 0.96460 0.03470 -0.00400
H 	H 	0.66680 0.93620 0.02630 0.08900
H 	H 	0.96450 0.96070 0.94780 -0.01500
H 	H 	0.87330 0.94050 0.98950 0.09200
H 	H 	0.20060 0.90640 0.98400 -0.00700
H 	H 	0.11640 0.88410 0.02610 0.07900
H 	H 	0.19140 0.81050 0.13080 -0.01500
H 	H 	0.11180 0.84410 0.09150 0.08900
H 	H 	0.94460 0.78490 0.17110 -0.01700
H 	H 	0.85950 0.82420 0.13410 0.08800
H 	H 	0.03830 0.69840 0.22880 -0.00200
H 	H 	0.97830 0.70610 0.27640 0.08300
H 	H 	0.09730 0.83780 0.22510 -0.01400
H 	H 	0.03410 0.85030 0.27150 0.08200
H 	H 	0.92140 0.99170 0.35560 -0.01200
H 	H 	0.94640 0.92010 0.33030 0.08300
H 	H 	0.87650 0.92250 0.42970 -0.01100
H 	H 	0.89940 0.84830 0.40690 0.08300
H 	H 	0.84570 0.66100 0.43380 -0.01700
H 	H 	0.87360 0.73270 0.40920 0.08000
H 	H 	0.92400 0.58390 0.36440 -0.00700
H 	H 	0.95490 0.65390 0.33740 0.07800
C 	C 	0.95390 0.41740 0.90253 0.06800
C 	C 	0.86220 0.39920 0.90628 -0.12400
C 	C 	0.95610 0.44790 0.94988 0.07100
C 	C 	0.86350 0.43090 0.95509 -0.12800
C 	C 	0.81470 0.40610 0.93317 0.05200
C 	C 	0.71250 0.39080 0.93623 0.09700
C 	C 	0.50430 0.44480 0.03608 0.07600
C 	C 	0.55940 0.43240 0.01141 -0.12800
C 	C 	0.36730 0.41310 0.01495 0.07200
C 	C 	0.41670 0.39940 0.98986 -0.12000
C 	C 	0.51560 0.40850 0.98842 0.05700
C 	C 	0.57150 0.39380 0.96174 0.10100
C 	C 	0.37790 0.31170 0.86883 0.08700
C 	C 	0.42440 0.33230 0.89210 -0.13200
C 	C 	0.52050 0.29770 0.84531 0.08700
C 	C 	0.57190 0.32000 0.86747 -0.13700
C 	C 	0.52320 0.33610 0.89183 0.07600
C 	C 	0.57530 0.35850 0.91707 0.10100
C 	C 	0.46060 0.22950 0.76193 0.06900
C 	C 	0.49730 0.23380 0.73378 -0.11900
C 	C 	0.42710 0.31060 0.76417 0.07600
C 	C 	0.46380 0.31830 0.73660 -0.12400
C 	C 	0.49800 0.27900 0.72055 0.05500
C 	C 	0.52880 0.28330 0.68916 0.10400
C 	C 	0.58380 0.46180 0.63393 0.07900
C 	C 	0.56860 0.41930 0.64921 -0.12300
C 	C 	0.61000 0.42180 0.59086 0.07700
C 	C 	0.59610 0.37750 0.60430 -0.11800
C 	C 	0.57550 0.37550 0.63433 0.05700
C 	C 	0.56370 0.32810 0.64908 0.10100
C 	C 	0.63240 0.15980 0.58616 0.07500
C 	C 	0.61580 0.20250 0.60050 -0.12100
C 	C 	0.58670 0.11470 0.62666 0.06000
C 	C 	0.56790 0.15610 0.64279 -0.11200
C 	C 	0.58320 0.20150 0.62954 0.05000
C 	C 	0.56580 0.24660 0.64684 0.10700
C 	C 	0.04610 0.08260 0.40253 0.06900
C 	C 	0.13780 0.10080 0.40628 -0.12500
C 	C 	0.04390 0.05210 0.44988 0.07200
C 	C 	0.13650 0.06910 0.45509 -0.12900
C 	C 	0.18530 0.09390 0.43317 0.05200
C 	C 	0.28750 0.10920 0.43623 0.09700
C 	C 	0.49570 0.05520 0.53608 0.07600
C 	C 	0.44060 0.06760 0.51141 -0.12800
C 	C 	0.63270 0.08690 0.51495 0.07200
C 	C 	0.58330 0.10060 0.48986 -0.12000
C 	C 	0.48440 0.09150 0.48842 0.05700
C 	C 	0.42850 0.10620 0.46174 0.10100
C 	C 	0.62210 0.18830 0.36883 0.08700
C 	C 	0.57560 0.16770 0.39210 -0.13200
C 	C 	0.47950 0.20230 0.34531 0.08700
C 	C 	0.42810 0.18000 0.36747 -0.13700
C 	C 	0.47680 0.16390 0.39183 0.07600
C 	C 	0.42470 0.14150 0.41707 0.10100
C 	C 	0.53940 0.27050 0.26193 0.06900
C 	C 	0.50270 0.26620 0.23378 -0.11900
C 	C 	0.57290 0.18940 0.26417 0.07600
C 	C 	0.53620 0.18170 0.23660 -0.12400
C 	C 	0.50200 0.22100 0.22055 0.05500
C 	C 	0.47120 0.21670 0.18916 0.10400
C 	C 	0.41620 0.03820 0.13393 0.07900
C 	C 	0.43140 0.08070 0.14921 -0.12300
C 	C 	0.39000 0.07820 0.09086 0.07700
C 	C 	0.40390 0.12250 0.10430 -0.11800
C 	C 	0.42450 0.12450 0.13433 0.05700
C 	C 	0.43630 0.17190 0.14908 0.10100
C 	C 	0.36760 0.34020 0.08616 0.07500
C 	C 	0.38420 0.29750 0.10050 -0.12100
C 	C 	0.41330 0.38530 0.12666 0.06000
C 	C 	0.43210 0.34390 0.14279 -0.11200
C 	C 	0.41680 0.29850 0.12954 0.05000
C 	C 	0.43420 0.25340 0.14684 0.10700
C 	C 	0.45390 0.58260 0.59747 0.06800
C 	C 	0.36220 0.60080 0.59372 -0.12400
C 	C 	0.45610 0.55210 0.55012 0.07100
C 	C 	0.36350 0.56910 0.54491 -0.12800
C 	C 	0.31470 0.59390 0.56683 0.05200
C 	C 	0.21250 0.60920 0.56377 0.09700
C 	C 	0.00430 0.55520 0.46392 0.07600
C 	C 	0.05940 0.56760 0.48859 -0.12800
C 	C 	0.86730 0.58690 0.48505 0.07200
C 	C 	0.91670 0.60060 0.51014 -0.11900
C 	C 	0.01560 0.59150 0.51158 0.05700
C 	C 	0.07150 0.60620 0.53826 0.10100
C 	C 	0.87790 0.68830 0.63117 0.08600
C 	C 	0.92440 0.66770 0.60790 -0.13200
C 	C 	0.02050 0.70230 0.65469 0.08600
C 	C 	0.07190 0.68000 0.63253 -0.13700
C 	C 	0.02320 0.66390 0.60817 0.07600
C 	C 	0.07530 0.64150 0.58293 0.10200
C 	C 	0.96060 0.77050 0.73807 0.06800
C 	C 	0.99730 0.76620 0.76622 -0.11800
C 	C 	0.92710 0.68940 0.73583 0.07600
C 	C 	0.96380 0.68170 0.76340 -0.12400
C 	C 	0.99800 0.72100 0.77945 0.05500
C 	C 	0.02880 0.71670 0.81084 0.10400
C 	C 	0.08380 0.53820 0.86607 0.07900
C 	C 	0.06860 0.58070 0.85079 -0.12300
C 	C 	0.11000 0.57820 0.90914 0.07700
C 	C 	0.09610 0.62250 0.89570 -0.11800
C 	C 	0.07550 0.62450 0.86567 0.05700
C 	C 	0.06370 0.67190 0.85092 0.10100
C 	C 	0.13240 0.84020 0.91384 0.07500
C 	C 	0.11580 0.79750 0.89950 -0.12100
C 	C 	0.08670 0.88530 0.87334 0.05900
C 	C 	0.06790 0.84390 0.85721 -0.11200
C 	C 	0.08320 0.79850 0.87046 0.05000
C 	C 	0.06580 0.75340 0.85316 0.10700
C 	C 	0.54610 0.91740 0.09747 0.06800
C 	C 	0.63780 0.89920 0.09372 -0.12400
C 	C 	0.54390 0.94790 0.05012 0.07100
C 	C 	0.63650 0.93090 0.04491 -0.12800
C 	C 	0.68530 0.90610 0.06683 0.05200
C 	C 	0.78750 0.89080 0.06377 0.09700
C 	C 	0.99570 0.94480 0.96392 0.07700
C 	C 	0.94060 0.93240 0.98859 -0.12900
C 	C 	0.13270 0.91310 0.98505 0.07300
C 	C 	0.08330 0.89940 0.01014 -0.12100
C 	C 	0.98440 0.90850 0.01158 0.05800
C 	C 	0.92850 0.89380 0.03826 0.10100
C 	C 	0.12210 0.81170 0.13117 0.08700
C 	C 	0.07560 0.83230 0.10790 -0.13300
C 	C 	0.97950 0.79770 0.15469 0.08700
C 	C 	0.92810 0.82000 0.13253 -0.13800
C 	C 	0.97680 0.83610 0.10817 0.07700
C 	C 	0.92470 0.85850 0.08293 0.10100
C 	C 	0.03940 0.72950 0.23807 0.06900
C 	C 	0.00270 0.73380 0.26622 -0.11900
C 	C 	0.07290 0.81060 0.23583 0.07600
C 	C 	0.03620 0.81830 0.26340 -0.12400
C 	C 	0.00200 0.77900 0.27945 0.05500
C 	C 	0.97120 0.78330 0.31084 0.10400
C 	C 	0.91620 0.96180 0.36607 0.07900
C 	C 	0.93140 0.91930 0.35079 -0.12300
C 	C 	0.89000 0.92180 0.40914 0.07700
C 	C 	0.90390 0.87750 0.39570 -0.11800
C 	C 	0.92450 0.87550 0.36567 0.05700
C 	C 	0.93630 0.82810 0.35092 0.10100
C 	C 	0.86760 0.65980 0.41384 0.07500
C 	C 	0.88420 0.70250 0.39950 -0.12100
C 	C 	0.91330 0.61470 0.37334 0.06000
C 	C 	0.93210 0.65610 0.35721 -0.11200
C 	C 	0.91680 0.70150 0.37046 0.05000
C 	C 	0.93420 0.74660 0.35316 0.10700
I 	I 	0.34265 0.16668 0.82787 -0.37600
I 	I 	0.18477 0.30111 0.80719 -0.37400
I 	I 	0.21970 0.42000 0.87740 -0.37100
I 	I 	0.21165 0.49163 0.96581 -0.39300
I 	I 	0.15551 0.43315 0.06872 -0.38400
I 	I 	0.41835 0.51564 0.10439 -0.36400
I 	I 	0.65735 0.33332 0.32787 -0.37600
I 	I 	0.81523 0.19889 0.30719 -0.37400
I 	I 	0.78030 0.08000 0.37740 -0.37200
I 	I 	0.78835 0.00837 0.46581 -0.39300
I 	I 	0.84449 0.06685 0.56872 -0.38500
I 	I 	0.58165 0.98436 0.60439 -0.36400
I 	I 	0.84265 0.83332 0.67213 -0.37600
I 	I 	0.68477 0.69889 0.69281 -0.37400
I 	I 	0.71970 0.58000 0.62260 -0.37100
I 	I 	0.71165 0.50837 0.53419 -0.39300
I 	I 	0.65551 0.56685 0.43128 -0.38400
I 	I 	0.91835 0.48436 0.39561 -0.36400
I 	I 	0.15735 0.66668 0.17213 -0.37600
I 	I 	0.31523 0.80111 0.19281 -0.37400
I 	I 	0.28030 0.92000 0.12260 -0.37200
I 	I 	0.28835 0.99163 0.03419 -0.39300
I 	I 	0.34449 0.93315 0.93128 -0.38400
I 	I 	0.08165 0.01564 0.89561 -0.36400
N 	N 	0.00180 0.44180 0.92382 -0.27600
N 	N 	0.40960 0.43520 0.03792 -0.27600
N 	N 	0.42360 0.29320 0.84570 -0.28300
N 	N 	0.66580 0.40490 0.96090 -0.14300
N 	N 	0.52260 0.37120 0.94057 -0.13800
N 	N 	0.67170 0.36680 0.91404 -0.13300
N 	N 	0.42370 0.26700 0.77674 -0.27700
N 	N 	0.60540 0.46350 0.60542 -0.27500
N 	N 	0.61950 0.11630 0.59868 -0.27300
N 	N 	0.53930 0.32770 0.67797 -0.13900
N 	N 	0.57730 0.28870 0.63262 -0.14100
N 	N 	0.54190 0.24170 0.67483 -0.14300
N 	N 	0.99820 0.05820 0.42382 -0.27600
N 	N 	0.59040 0.06480 0.53792 -0.27600
N 	N 	0.57640 0.20680 0.34570 -0.28300
N 	N 	0.33420 0.09510 0.46090 -0.14300
N 	N 	0.47740 0.12880 0.44057 -0.13800
N 	N 	0.32830 0.13320 0.41404 -0.13300
N 	N 	0.57630 0.23300 0.27674 -0.27700
N 	N 	0.39460 0.03650 0.10542 -0.27500
N 	N 	0.38050 0.38370 0.09868 -0.27300
N 	N 	0.46070 0.17230 0.17797 -0.13900
N 	N 	0.42270 0.21130 0.13262 -0.14100
N 	N 	0.45810 0.25830 0.17483 -0.14300
N 	N 	0.50180 0.55820 0.57618 -0.27500
N 	N 	0.90960 0.56480 0.46208 -0.27600
N 	N 	0.92360 0.70680 0.65430 -0.28200
N 	N 	0.16580 0.59510 0.53910 -0.14300
N 	N 	0.02260 0.62880 0.55943 -0.13800
N 	N 	0.17170 0.63320 0.58596 -0.13300
N 	N 	0.92370 0.73300 0.72326 -0.27600
N 	N 	0.10540 0.53650 0.89458 -0.27500
N 	N 	0.11950 0.88370 0.90132 -0.27300
N 	N 	0.03930 0.67230 0.82203 -0.13900
N 	N 	0.07730 0.71130 0.86738 -0.14100
N 	N 	0.04190 0.75830 0.82517 -0.14300
N 	N 	0.49820 0.94180 0.07618 -0.27500
N 	N 	0.09040 0.93520 0.96208 -0.27700
N 	N 	0.07640 0.79320 0.15430 -0.28300
N 	N 	0.83420 0.90490 0.03910 -0.14300
N 	N 	0.97740 0.87120 0.05943 -0.13800
N 	N 	0.82830 0.86680 0.08596 -0.13300
N 	N 	0.07630 0.76700 0.22326 -0.27700
N 	N 	0.89460 0.96350 0.39458 -0.27400
N 	N 	0.88050 0.61630 0.40132 -0.27300
N 	N 	0.96070 0.82770 0.32203 -0.13900
N 	N 	0.92270 0.78870 0.36738 -0.14100
N 	N 	0.95810 0.74170 0.32517 -0.14300
Zn	Zn	0.65483 0.74364 0.18531 1.16600
Zn	Zn	0.86423 0.52829 0.08417 1.16500
Zn	Zn	0.66291 0.55390 0.92297 1.16400
Zn	Zn	0.34517 0.75636 0.68531 1.16600
Zn	Zn	0.13577 0.97171 0.58417 1.16500
Zn	Zn	0.33709 0.94610 0.42297 1.16400
Zn	Zn	0.15483 0.25636 0.31469 1.16600
Zn	Zn	0.36423 0.47171 0.41583 1.16500
Zn	Zn	0.16291 0.44610 0.57703 1.16400
Zn	Zn	0.84517 0.24364 0.81469 1.16600
Zn	Zn	0.63577 0.02829 0.91583 1.16500
Zn	Zn	0.83709 0.05390 0.07703 1.16400
H 	H 	0.01470 0.58750 0.11600 -0.00500
H 	H 	0.16900 0.61800 0.10930 0.09400
H 	H 	0.01080 0.53540 0.03470 -0.00400
H 	H 	0.16680 0.56380 0.02630 0.08900
H 	H 	0.46450 0.53930 0.94780 -0.01500
H 	H 	0.37330 0.55950 0.98950 0.09200
H 	H 	0.70060 0.59360 0.98400 -0.00700
H 	H 	0.61640 0.61590 0.02610 0.07900
H 	H 	0.69140 0.68950 0.13080 -0.01500
H 	H 	0.61180 0.65590 0.09150 0.08900
H 	H 	0.44460 0.71510 0.17110 -0.01700
H 	H 	0.35950 0.67580 0.13410 0.08800
H 	H 	0.53830 0.80160 0.22880 -0.00200
H 	H 	0.47830 0.79390 0.27640 0.08300
H 	H 	0.59730 0.66220 0.22510 -0.01400
H 	H 	0.53410 0.64970 0.27150 0.08200
H 	H 	0.42140 0.50830 0.35560 -0.01200
H 	H 	0.44640 0.57990 0.33030 0.08300
H 	H 	0.37650 0.57750 0.42970 -0.01100
H 	H 	0.39940 0.65170 0.40690 0.08200
H 	H 	0.34570 0.83900 0.43380 -0.01700
H 	H 	0.37360 0.76730 0.40920 0.08000
H 	H 	0.42400 0.91610 0.36440 -0.00700
H 	H 	0.45490 0.84610 0.33740 0.07800
H 	H 	0.98530 0.91250 0.61600 -0.00500
H 	H 	0.83100 0.88200 0.60930 0.09400
H 	H 	0.98920 0.96460 0.53470 -0.00400
H 	H 	0.83320 0.93620 0.52630 0.08900
H 	H 	0.53550 0.96070 0.44780 -0.01500
H 	H 	0.62670 0.94050 0.48950 0.09200
H 	H 	0.29940 0.90640 0.48400 -0.00700
H 	H 	0.38360 0.88410 0.52610 0.07900
H 	H 	0.30860 0.81050 0.63080 -0.01500
H 	H 	0.38820 0.84410 0.59150 0.08900
H 	H 	0.55540 0.78490 0.67110 -0.01700
H 	H 	0.64050 0.82420 0.63410 0.08800
H 	H 	0.46170 0.69840 0.72880 -0.00200
H 	H 	0.52170 0.70610 0.77640 0.08300
H 	H 	0.40270 0.83780 0.72510 -0.01400
H 	H 	0.46590 0.85030 0.77150 0.08200
H 	H 	0.57860 0.99170 0.85560 -0.01200
H 	H 	0.55360 0.92010 0.83030 0.08300
H 	H 	0.62350 0.92250 0.92970 -0.01100
H 	H 	0.60060 0.84830 0.90690 0.08300
H 	H 	0.65430 0.66100 0.93380 -0.01700
H 	H 	0.62640 0.73270 0.90920 0.08000
H 	H 	0.57600 0.58390 0.86440 -0.00700
H 	H 	0.54510 0.65390 0.83740 0.07800
H 	H 	0.51470 0.41250 0.38400 -0.00500
H 	H 	0.66900 0.38200 0.39070 0.09400
H 	H 	0.51080 0.46460 0.46530 -0.00400
H 	H 	0.66680 0.43620 0.47370 0.08900
H 	H 	0.96450 0.46070 0.55220 -0.01500
H 	H 	0.87330 0.44050 0.51050 0.09200
H 	H 	0.20060 0.40640 0.51600 -0.00700
H 	H 	0.11640 0.38410 0.47390 0.07900
H 	H 	0.19140 0.31050 0.36920 -0.01400
H 	H 	0.11180 0.34410 0.40850 0.08800
H 	H 	0.94460 0.28490 0.32890 -0.01700
H 	H 	0.85950 0.32420 0.36590 0.08800
H 	H 	0.03830 0.19840 0.27120 -0.00100
H 	H 	0.97830 0.20610 0.22360 0.08200
H 	H 	0.09730 0.33780 0.27490 -0.01400
H 	H 	0.03410 0.35030 0.22850 0.08200
H 	H 	0.92140 0.49170 0.14440 -0.01200
H 	H 	0.94640 0.42010 0.16970 0.08200
H 	H 	0.87650 0.42250 0.07030 -0.01100
H 	H 	0.89940 0.34830 0.09310 0.08200
H 	H 	0.84570 0.16100 0.06620 -0.01700
H 	H 	0.87360 0.23270 0.09080 0.08000
H 	H 	0.92400 0.08390 0.13560 -0.00700
H 	H 	0.95490 0.15390 0.16260 0.07800
H 	H 	0.48530 0.08750 0.88400 -0.00500
H 	H 	0.33100 0.11800 0.89070 0.09400
H 	H 	0.48920 0.03540 0.96530 -0.00400
H 	H 	0.33320 0.06380 0.97370 0.08900
H 	H 	0.03550 0.03930 0.05220 -0.01500
H 	H 	0.12670 0.05950 0.01050 0.09200
H 	H 	0.79940 0.09360 0.01600 -0.00700
H 	H 	0.88360 0.11590 0.97390 0.07900
H 	H 	0.80860 0.18950 0.86920 -0.01500
H 	H 	0.88820 0.15590 0.90850 0.08900
H 	H 	0.05540 0.21510 0.82890 -0.01700
H 	H 	0.14050 0.17580 0.86590 0.08800
H 	H 	0.96170 0.30160 0.77120 -0.00200
H 	H 	0.02170 0.29390 0.72360 0.08300
H 	H 	0.90270 0.16220 0.77490 -0.01400
H 	H 	0.96590 0.14970 0.72850 0.08200
H 	H 	0.07860 0.00830 0.64440 -0.01200
H 	H 	0.05360 0.07990 0.66970 0.08300
H 	H 	0.12350 0.07750 0.57030 -0.01100
H 	H 	0.10060 0.15170 0.59310 0.08300
H 	H 	0.15430 0.33900 0.56620 -0.01700
H 	H 	0.12640 0.26730 0.59080 0.08000
H 	H 	0.07600 0.41610 0.63560 -0.00700
H 	H 	0.04510 0.34610 0.66260 0.07800
C 	C 	0.04610 0.58260 0.09747 0.06800
C 	C 	0.13780 0.60080 0.09372 -0.12400
C 	C 	0.04390 0.55210 0.05012 0.07100
C 	C 	0.13650 0.56910 0.04491 -0.12800
C 	C 	0.18530 0.59390 0.06683 0.05200
C 	C 	0.28750 0.60920 0.06377 0.09700
C 	C 	0.49570 0.55520 0.96392 0.07600
C 	C 	0.44060 0.56760 0.98859 -0.12800
C 	C 	0.63270 0.58690 0.98505 0.07200
C 	C 	0.58330 0.60060 0.01014 -0.12000
C 	C 	0.48440 0.59150 0.01158 0.05700
C 	C 	0.42850 0.60620 0.03826 0.10100
C 	C 	0.62210 0.68830 0.13117 0.08700
C 	C 	0.57560 0.66770 0.10790 -0.13200
C 	C 	0.47950 0.70230 0.15469 0.08700
C 	C 	0.42810 0.68000 0.13253 -0.13700
C 	C 	0.47680 0.66390 0.10817 0.07600
C 	C 	0.42470 0.64150 0.08293 0.10100
C 	C 	0.53940 0.77050 0.23807 0.06900
C 	C 	0.50270 0.76620 0.26622 -0.11900
C 	C 	0.57290 0.68940 0.23583 0.07600
C 	C 	0.53620 0.68170 0.26340 -0.12400
C 	C 	0.50200 0.72100 0.27945 0.05500
C 	C 	0.47120 0.71670 0.31084 0.10400
C 	C 	0.41620 0.53820 0.36607 0.07900
C 	C 	0.43140 0.58070 0.35079 -0.12300
C 	C 	0.39000 0.57820 0.40914 0.07700
C 	C 	0.40390 0.62250 0.39570 -0.11800
C 	C 	0.42450 0.62450 0.36567 0.05700
C 	C 	0.43630 0.67190 0.35092 0.10100
C 	C 	0.36760 0.84020 0.41384 0.07500
C 	C 	0.38420 0.79750 0.39950 -0.12100
C 	C 	0.41330 0.88530 0.37334 0.06000
C 	C 	0.43210 0.84390 0.35721 -0.11200
C 	C 	0.41680 0.79850 0.37046 0.05000
C 	C 	0.43420 0.75340 0.35316 0.10700
C 	C 	0.95390 0.91740 0.59747 0.06900
C 	C 	0.86220 0.89920 0.59372 -0.12500
C 	C 	0.95610 0.94790 0.55012 0.07200
C 	C 	0.86350 0.93090 0.54491 -0.12900
C 	C 	0.81470 0.90610 0.56683 0.05200
C 	C 	0.71250 0.89080 0.56377 0.09700
C 	C 	0.50430 0.94480 0.46392 0.07600
C 	C 	0.55940 0.93240 0.48859 -0.12800
C 	C 	0.36730 0.91310 0.48505 0.07200
C 	C 	0.41670 0.89940 0.51014 -0.12000
C 	C 	0.51560 0.90850 0.51158 0.05700
C 	C 	0.57150 0.89380 0.53826 0.10100
C 	C 	0.37790 0.81170 0.63117 0.08700
C 	C 	0.42440 0.83230 0.60790 -0.13200
C 	C 	0.52050 0.79770 0.65469 0.08700
C 	C 	0.57190 0.82000 0.63253 -0.13700
C 	C 	0.52320 0.83610 0.60817 0.07600
C 	C 	0.57530 0.85850 0.58293 0.10100
C 	C 	0.46060 0.72950 0.73807 0.06900
C 	C 	0.49730 0.73380 0.76622 -0.11900
C 	C 	0.42710 0.81060 0.73583 0.07600
C 	C 	0.46380 0.81830 0.76340 -0.12400
C 	C 	0.49800 0.77900 0.77945 0.05500
C 	C 	0.52880 0.78330 0.81084 0.10400
C 	C 	0.58380 0.96180 0.86607 0.07900
C 	C 	0.56860 0.91930 0.85079 -0.12300
C 	C 	0.61000 0.92180 0.90914 0.07700
C 	C 	0.59610 0.87750 0.89570 -0.11800
C 	C 	0.57550 0.87550 0.86567 0.05700
C 	C 	0.56370 0.82810 0.85092 0.10100
C 	C 	0.63240 0.65980 0.91384 0.07500
C 	C 	0.61580 0.70250 0.89950 -0.12100
C 	C 	0.58670 0.61470 0.87334 0.06000
C 	C 	0.56790 0.65610 0.85721 -0.11200
C 	C 	0.58320 0.70150 0.87046 0.05000
C 	C 	0.56580 0.74660 0.85316 0.10700
C 	C 	0.54610 0.41740 0.40253 0.06800
C 	C 	0.63780 0.39920 0.40628 -0.12400
C 	C 	0.54390 0.44790 0.44988 0.07100
C 	C 	0.63650 0.43090 0.45509 -0.12800
C 	C 	0.68530 0.40610 0.43317 0.05200
C 	C 	0.78750 0.39080 0.43623 0.09700
C 	C 	0.99570 0.44480 0.53608 0.07600
C 	C 	0.94060 0.43240 0.51141 -0.12800
C 	C 	0.13270 0.41310 0.51495 0.07200
C 	C 	0.08330 0.39940 0.48986 -0.11900
C 	C 	0.98440 0.40850 0.48842 0.05700
C 	C 	0.92850 0.39380 0.46174 0.10100
C 	C 	0.12210 0.31170 0.36883 0.08600
C 	C 	0.07560 0.33230 0.39210 -0.13200
C 	C 	0.97950 0.29770 0.34531 0.08600
C 	C 	0.92810 0.32000 0.36747 -0.13700
C 	C 	0.97680 0.33610 0.39183 0.07600
C 	C 	0.92470 0.35850 0.41707 0.10200
C 	C 	0.03940 0.22950 0.26193 0.06800
C 	C 	0.00270 0.23380 0.23378 -0.11800
C 	C 	0.07290 0.31060 0.26417 0.07600
C 	C 	0.03620 0.31830 0.23660 -0.12400
C 	C 	0.00200 0.27900 0.22055 0.05500
C 	C 	0.97120 0.28330 0.18916 0.10400
C 	C 	0.91620 0.46180 0.13393 0.07900
C 	C 	0.93140 0.41930 0.14921 -0.12300
C 	C 	0.89000 0.42180 0.09086 0.07700
C 	C 	0.90390 0.37750 0.10430 -0.11800
C 	C 	0.92450 0.37550 0.13433 0.05700
C 	C 	0.93630 0.32810 0.14908 0.10100
C 	C 	0.86760 0.15980 0.08616 0.07500
C 	C 	0.88420 0.20250 0.10050 -0.12100
C 	C 	0.91330 0.11470 0.12666 0.05900
C 	C 	0.93210 0.15610 0.14279 -0.11200
C 	C 	0.91680 0.20150 0.12954 0.05000
C 	C 	0.93420 0.24660 0.14684 0.10700
C 	C 	0.45390 0.08260 0.90253 0.06800
C 	C 	0.36220 0.10080 0.90628 -0.12400
C 	C 	0.45610 0.05210 0.94988 0.07100
C 	C 	0.36350 0.06910 0.95509 -0.12800
C 	C 	0.31470 0.09390 0.93317 0.05200
C 	C 	0.21250 0.10920 0.93623 0.09700
C 	C 	0.00430 0.05520 0.03608 0.07700
C 	C 	0.05940 0.06760 0.01141 -0.12900
C 	C 	0.86730 0.08690 0.01495 0.07300
C 	C 	0.91670 0.10060 0.98986 -0.12100
C 	C 	0.01560 0.09150 0.98842 0.05800
C 	C 	0.07150 0.10620 0.96174 0.10100
C 	C 	0.87790 0.18830 0.86883 0.08700
C 	C 	0.92440 0.16770 0.89210 -0.13300
C 	C 	0.02050 0.20230 0.84531 0.08700
C 	C 	0.07190 0.18000 0.86747 -0.13800
C 	C 	0.02320 0.16390 0.89183 0.07700
C 	C 	0.07530 0.14150 0.91707 0.10100
C 	C 	0.96060 0.27050 0.76193 0.06900
C 	C 	0.99730 0.26620 0.73378 -0.11900
C 	C 	0.92710 0.18940 0.76417 0.07600
C 	C 	0.96380 0.18170 0.73660 -0.12400
C 	C 	0.99800 0.22100 0.72055 0.05500
C 	C 	0.02880 0.21670 0.68916 0.10400
C 	C 	0.08380 0.03820 0.63393 0.07900
C 	C 	0.06860 0.08070 0.64921 -0.12300
C 	C 	0.11000 0.07820 0.59086 0.07700
C 	C 	0.09610 0.12250 0.60430 -0.11800
C 	C 	0.07550 0.12450 0.63433 0.05700
C 	C 	0.06370 0.17190 0.64908 0.10100
C 	C 	0.13240 0.34020 0.58616 0.07500
C 	C 	0.11580 0.29750 0.60050 -0.12100
C 	C 	0.08670 0.38530 0.62666 0.06000
C 	C 	0.06790 0.34390 0.64279 -0.11200
C 	C 	0.08320 0.29850 0.62954 0.05000
C 	C 	0.06580 0.25340 0.64684 0.10700
I 	I 	0.65735 0.83332 0.17213 -0.37600
I 	I 	0.81523 0.69889 0.19281 -0.37400
I 	I 	0.78030 0.58000 0.12260 -0.37100
I 	I 	0.78835 0.50837 0.03419 -0.39300
I 	I 	0.84449 0.56685 0.93128 -0.38400
I 	I 	0.58165 0.48436 0.89561 -0.36400
I 	I 	0.34265 0.66668 0.67213 -0.37600
I 	I 	0.18477 0.80111 0.69281 -0.37400
I 	I 	0.21970 0.92000 0.62260 -0.37200
I 	I 	0.21165 0.99163 0.53419 -0.39300
I 	I 	0.15551 0.93315 0.43128 -0.38500
I 	I 	0.41835 0.01564 0.39561 -0.36400
I 	I 	0.15735 0.16668 0.32787 -0.37600
I 	I 	0.31523 0.30111 0.30719 -0.37400
I 	I 	0.28030 0.42000 0.37740 -0.37100
I 	I 	0.28835 0.49163 0.46581 -0.39300
I 	I 	0.34449 0.43315 0.56872 -0.38400
I 	I 	0.08165 0.51564 0.60439 -0.36400
I 	I 	0.84265 0.33332 0.82787 -0.37600
I 	I 	0.68477 0.19889 0.80719 -0.37400
I 	I 	0.71970 0.08000 0.87740 -0.37200
I 	I 	0.71165 0.00837 0.96581 -0.39300
I 	I 	0.65551 0.06685 0.06872 -0.38400
I 	I 	0.91835 0.98436 0.10439 -0.36400
N 	N 	0.99820 0.55820 0.07618 -0.27600
N 	N 	0.59040 0.56480 0.96208 -0.27600
N 	N 	0.57640 0.70680 0.15430 -0.28300
N 	N 	0.33420 0.59510 0.03910 -0.14300
N 	N 	0.47740 0.62880 0.05943 -0.13800
N 	N 	0.32830 0.63320 0.08596 -0.13300
N 	N 	0.57630 0.73300 0.22326 -0.27700
N 	N 	0.39460 0.53650 0.39458 -0.27500
N 	N 	0.38050 0.88370 0.40132 -0.27300
N 	N 	0.46070 0.67230 0.32203 -0.13900
N 	N 	0.42270 0.71130 0.36738 -0.14100
N 	N 	0.45810 0.75830 0.32517 -0.14300
N 	N 	0.00180 0.94180 0.57618 -0.27600
N 	N 	0.40960 0.93520 0.46208 -0.27600
N 	N 	0.42360 0.79320 0.65430 -0.28300
N 	N 	0.66580 0.90490 0.53910 -0.14300
N 	N 	0.52260 0.87120 0.55943 -0.13800
N 	N 	0.67170 0.86680 0.58596 -0.13300
N 	N 	0.42370 0.76700 0.72326 -0.27700
N 	N 	0.60540 0.96350 0.89458 -0.27500
N 	N 	0.61950 0.61630 0.90132 -0.27300
N 	N 	0.53930 0.82770 0.82203 -0.13900
N 	N 	0.57730 0.78870 0.86738 -0.14100
N 	N 	0.54190 0.74170 0.82517 -0.14300
N 	N 	0.49820 0.44180 0.42382 -0.27500
N 	N 	0.09040 0.43520 0.53792 -0.27600
N 	N 	0.07640 0.29320 0.34570 -0.28200
N 	N 	0.83420 0.40490 0.46090 -0.14300
N 	N 	0.97740 0.37120 0.44057 -0.13800
N 	N 	0.82830 0.36680 0.41404 -0.13300
N 	N 	0.07630 0.26700 0.27674 -0.27600
N 	N 	0.89460 0.46350 0.10542 -0.27500
N 	N 	0.88050 0.11630 0.09868 -0.27300
N 	N 	0.96070 0.32770 0.17797 -0.13900
N 	N 	0.92270 0.28870 0.13262 -0.14100
N 	N 	0.95810 0.24170 0.17483 -0.14300
N 	N 	0.50180 0.05820 0.92382 -0.27500
N 	N 	0.90960 0.06480 0.03792 -0.27700
N 	N 	0.92360 0.20680 0.84570 -0.28300
N 	N 	0.16580 0.09510 0.96090 -0.14300
N 	N 	0.02260 0.12880 0.94057 -0.13800
N 	N 	0.17170 0.13320 0.91404 -0.13300
N 	N 	0.92370 0.23300 0.77674 -0.27700
N 	N 	0.10540 0.03650 0.60542 -0.27400
N 	N 	0.11950 0.38370 0.59868 -0.27300
N 	N 	0.03930 0.17230 0.67797 -0.13900
N 	N 	0.07730 0.21130 0.63262 -0.14100
N 	N 	0.04190 0.25830 0.67483 -0.14300
