data_crystal

_cell_length_a 13.67300
_cell_length_b 27.59000
_cell_length_c 45.60600
_cell_angle_alpha 90.00000
_cell_angle_beta  90.00000
_cell_angle_gamma 90.00000

_symmetry_space_group_name_	'P 1'
_symmetry_space_group_name_H-M	'P 1'

loop_
_symmetry_equiv_pos_as_xyz
  x,y,z

loop_
_atom_site_label
_atom_site_type_symbol
_atom_site_fract_x
_atom_site_fract_y
_atom_site_fract_z
_atom_site_charge
Zn	Zn	0.34896 0.25609 0.68756 1.16600
Zn	Zn	0.34246 0.44340 0.42650 1.16400
Zn	Zn	0.14697 0.46953 0.58612 1.16500
Zn	Zn	0.65104 0.24391 0.18756 1.16600
Zn	Zn	0.65754 0.05660 0.92650 1.16400
Zn	Zn	0.85303 0.03047 0.08612 1.16500
Zn	Zn	0.84896 0.74391 0.81244 1.16500
Zn	Zn	0.84246 0.55660 0.07350 1.16300
Zn	Zn	0.64697 0.53047 0.91388 1.16500
Zn	Zn	0.15104 0.75609 0.31244 1.16500
Zn	Zn	0.15754 0.94340 0.57350 1.16300
Zn	Zn	0.35303 0.96953 0.41388 1.16400
H 	H 	0.30750 0.39850 0.48550 -0.00800
H 	H 	0.39310 0.37570 0.52730 0.07800
H 	H 	0.54060 0.46150 0.45270 -0.01200
H 	H 	0.63180 0.44120 0.49380 0.09000
H 	H 	0.99870 0.46160 0.53740 -0.00300
H 	H 	0.84040 0.43430 0.52960 0.08600
H 	H 	0.99580 0.41200 0.61830 -0.00600
H 	H 	0.83840 0.38250 0.61250 0.09300
H 	H 	0.55810 0.28990 0.67580 -0.01400
H 	H 	0.64570 0.32680 0.63830 0.08300
H 	H 	0.31350 0.30270 0.63140 -0.01100
H 	H 	0.39520 0.33860 0.59240 0.08200
H 	H 	0.39650 0.33770 0.72840 -0.01200
H 	H 	0.46030 0.35000 0.77490 0.08000
H 	H 	0.46740 0.19960 0.73080 0.00000
H 	H 	0.52590 0.20750 0.77820 0.08000
H 	H 	0.58460 0.08650 0.86660 -0.00900
H 	H 	0.55680 0.15570 0.83940 0.08000
H 	H 	0.64960 0.16440 0.93630 -0.01600
H 	H 	0.62010 0.23560 0.91120 0.07900
H 	H 	0.61430 0.42660 0.92950 -0.00900
H 	H 	0.58900 0.35220 0.90790 0.08200
H 	H 	0.60700 0.49160 0.85310 -0.00800
H 	H 	0.58090 0.41850 0.82940 0.08100
H 	H 	0.69250 0.10150 0.98550 -0.00800
H 	H 	0.60690 0.12430 0.02730 0.07800
H 	H 	0.45940 0.03850 0.95270 -0.01200
H 	H 	0.36820 0.05880 0.99380 0.09000
H 	H 	0.00130 0.03840 0.03740 -0.00300
H 	H 	0.15960 0.06570 0.02960 0.08600
H 	H 	0.00420 0.08800 0.11830 -0.00600
H 	H 	0.16160 0.11750 0.11250 0.09300
H 	H 	0.44190 0.21010 0.17580 -0.01400
H 	H 	0.35430 0.17320 0.13830 0.08300
H 	H 	0.68650 0.19730 0.13140 -0.01100
H 	H 	0.60480 0.16140 0.09240 0.08200
H 	H 	0.60350 0.16230 0.22840 -0.01200
H 	H 	0.53970 0.15000 0.27490 0.08000
H 	H 	0.53260 0.30040 0.23080 0.00000
H 	H 	0.47410 0.29250 0.27820 0.08000
H 	H 	0.41540 0.41350 0.36660 -0.00900
H 	H 	0.44320 0.34430 0.33940 0.08000
H 	H 	0.35040 0.33560 0.43630 -0.01600
H 	H 	0.37990 0.26440 0.41120 0.07900
H 	H 	0.38570 0.07340 0.42950 -0.00900
H 	H 	0.41100 0.14780 0.40790 0.08200
H 	H 	0.39300 0.00840 0.35310 -0.00800
H 	H 	0.41910 0.08150 0.32940 0.08100
H 	H 	0.80750 0.60150 0.01450 -0.00800
H 	H 	0.89310 0.62430 0.97270 0.07800
H 	H 	0.04060 0.53850 0.04730 -0.01200
H 	H 	0.13180 0.55880 0.00620 0.09000
H 	H 	0.49870 0.53840 0.96260 -0.00300
H 	H 	0.34040 0.56570 0.97040 0.08600
H 	H 	0.49580 0.58800 0.88170 -0.00500
H 	H 	0.33840 0.61750 0.88750 0.09300
H 	H 	0.05810 0.71010 0.82420 -0.01400
H 	H 	0.14570 0.67320 0.86170 0.08300
H 	H 	0.81350 0.69730 0.86860 -0.01100
H 	H 	0.89520 0.66140 0.90760 0.08100
H 	H 	0.89650 0.66230 0.77160 -0.01200
H 	H 	0.96030 0.65000 0.72510 0.08000
H 	H 	0.96740 0.80040 0.76920 0.00100
H 	H 	0.02590 0.79250 0.72180 0.07900
H 	H 	0.08460 0.91350 0.63340 -0.00900
H 	H 	0.05680 0.84430 0.66060 0.08000
H 	H 	0.14960 0.83560 0.56370 -0.01600
H 	H 	0.12010 0.76440 0.58880 0.07900
H 	H 	0.11430 0.57340 0.57050 -0.00900
H 	H 	0.08900 0.64780 0.59210 0.08200
H 	H 	0.10700 0.50840 0.64690 -0.00800
H 	H 	0.08090 0.58150 0.67060 0.08100
H 	H 	0.19250 0.89850 0.51450 -0.00800
H 	H 	0.10690 0.87570 0.47270 0.07800
H 	H 	0.95940 0.96150 0.54730 -0.01200
H 	H 	0.86820 0.94120 0.50620 0.09100
H 	H 	0.50130 0.96160 0.46260 -0.00300
H 	H 	0.65960 0.93430 0.47040 0.08600
H 	H 	0.50420 0.91200 0.38170 -0.00500
H 	H 	0.66160 0.88250 0.38750 0.09300
H 	H 	0.94190 0.78990 0.32420 -0.01400
H 	H 	0.85430 0.82680 0.36170 0.08400
H 	H 	0.18650 0.80270 0.36860 -0.01100
H 	H 	0.10480 0.83860 0.40760 0.08200
H 	H 	0.10350 0.83770 0.27160 -0.01200
H 	H 	0.03970 0.85000 0.22510 0.08000
H 	H 	0.03260 0.69960 0.26920 0.00000
H 	H 	0.97410 0.70750 0.22180 0.08000
H 	H 	0.91540 0.58650 0.13340 -0.00900
H 	H 	0.94320 0.65570 0.16060 0.08000
H 	H 	0.85040 0.66440 0.06370 -0.01600
H 	H 	0.87990 0.73560 0.08880 0.07900
H 	H 	0.88570 0.92660 0.07050 -0.00900
H 	H 	0.91100 0.85220 0.09210 0.08200
H 	H 	0.89300 0.99160 0.14690 -0.00800
H 	H 	0.91910 0.91850 0.17060 0.08100
C 	C 	0.37470 0.40677 0.48714 0.07000
C 	C 	0.42520 0.39309 0.51215 -0.11600
C 	C 	0.51050 0.44356 0.46806 0.07400
C 	C 	0.56530 0.43145 0.49238 -0.12600
C 	C 	0.52280 0.40507 0.51463 0.05500
C 	C 	0.57930 0.39110 0.54111 0.10100
C 	C 	0.96510 0.44582 0.55294 0.07100
C 	C 	0.87120 0.42942 0.54808 -0.12300
C 	C 	0.96350 0.41674 0.60012 0.06800
C 	C 	0.86970 0.39904 0.59681 -0.12300
C 	C 	0.82240 0.40573 0.57052 0.05300
C 	C 	0.71860 0.39056 0.56690 0.09800
C 	C 	0.52460 0.29970 0.65853 0.07900
C 	C 	0.57730 0.32164 0.63620 -0.12400
C 	C 	0.38240 0.30704 0.63261 0.07000
C 	C 	0.43050 0.32872 0.60937 -0.11200
C 	C 	0.52980 0.33584 0.61104 0.06200
C 	C 	0.58240 0.35839 0.58638 0.10700
C 	C 	0.42360 0.31093 0.73872 0.06800
C 	C 	0.46060 0.31851 0.76651 -0.11900
C 	C 	0.46400 0.23028 0.74017 0.06000
C 	C 	0.49990 0.23487 0.76822 -0.11300
C 	C 	0.49790 0.27967 0.78183 0.05100
C 	C 	0.53090 0.28422 0.81239 0.10100
C 	C 	0.59280 0.11724 0.87564 0.06300
C 	C 	0.57580 0.15825 0.85938 -0.11700
C 	C 	0.63020 0.16277 0.91631 0.07000
C 	C 	0.61340 0.20527 0.90154 -0.11900
C 	C 	0.58650 0.20325 0.87224 0.05200
C 	C 	0.57010 0.24825 0.85518 0.10400
C 	C 	0.60790 0.42496 0.90875 0.07400
C 	C 	0.59270 0.38046 0.89603 -0.11800
C 	C 	0.60350 0.46273 0.86444 0.06900
C 	C 	0.58790 0.41923 0.85012 -0.11900
C 	C 	0.58260 0.37701 0.86606 0.05500
C 	C 	0.56930 0.32953 0.85197 0.10100
C 	C 	0.62530 0.09323 0.98714 0.07000
C 	C 	0.57480 0.10691 0.01215 -0.11600
C 	C 	0.48950 0.05644 0.96806 0.07400
C 	C 	0.43470 0.06855 0.99238 -0.12600
C 	C 	0.47720 0.09493 0.01463 0.05500
C 	C 	0.42070 0.10890 0.04111 0.10100
C 	C 	0.03490 0.05418 0.05294 0.07200
C 	C 	0.12880 0.07058 0.04808 -0.12400
C 	C 	0.03650 0.08326 0.10012 0.06900
C 	C 	0.13030 0.10096 0.09681 -0.12300
C 	C 	0.17760 0.09427 0.07052 0.05300
C 	C 	0.28140 0.10944 0.06690 0.09800
C 	C 	0.47540 0.20030 0.15853 0.07900
C 	C 	0.42270 0.17836 0.13620 -0.12400
C 	C 	0.61760 0.19296 0.13261 0.07000
C 	C 	0.56950 0.17128 0.10937 -0.11200
C 	C 	0.47020 0.16416 0.11104 0.06200
C 	C 	0.41760 0.14161 0.08638 0.10700
C 	C 	0.57640 0.18907 0.23872 0.06800
C 	C 	0.53940 0.18149 0.26651 -0.11900
C 	C 	0.53600 0.26972 0.24017 0.06000
C 	C 	0.50010 0.26513 0.26822 -0.11300
C 	C 	0.50210 0.22033 0.28183 0.05100
C 	C 	0.46910 0.21578 0.31239 0.10100
C 	C 	0.40720 0.38276 0.37564 0.06300
C 	C 	0.42420 0.34175 0.35938 -0.11700
C 	C 	0.36980 0.33723 0.41631 0.07000
C 	C 	0.38660 0.29473 0.40154 -0.11900
C 	C 	0.41350 0.29675 0.37224 0.05200
C 	C 	0.42990 0.25175 0.35518 0.10400
C 	C 	0.39210 0.07504 0.40875 0.07400
C 	C 	0.40730 0.11954 0.39603 -0.11800
C 	C 	0.39650 0.03727 0.36444 0.06900
C 	C 	0.41210 0.08077 0.35012 -0.11900
C 	C 	0.41740 0.12299 0.36606 0.05500
C 	C 	0.43070 0.17047 0.35197 0.10100
C 	C 	0.87470 0.59323 0.01286 0.06900
C 	C 	0.92520 0.60691 0.98785 -0.11600
C 	C 	0.01050 0.55644 0.03194 0.07300
C 	C 	0.06530 0.56855 0.00762 -0.12600
C 	C 	0.02280 0.59493 0.98537 0.05500
C 	C 	0.07930 0.60890 0.95889 0.10100
C 	C 	0.46510 0.55418 0.94706 0.07100
C 	C 	0.37120 0.57058 0.95192 -0.12300
C 	C 	0.46350 0.58326 0.89988 0.06800
C 	C 	0.36970 0.60096 0.90319 -0.12300
C 	C 	0.32240 0.59427 0.92948 0.05300
C 	C 	0.21860 0.60944 0.93310 0.09800
C 	C 	0.02460 0.70030 0.84147 0.07900
C 	C 	0.07730 0.67836 0.86380 -0.12300
C 	C 	0.88240 0.69296 0.86739 0.07000
C 	C 	0.93050 0.67128 0.89063 -0.11100
C 	C 	0.02980 0.66416 0.88896 0.06100
C 	C 	0.08240 0.64161 0.91362 0.10700
C 	C 	0.92360 0.68907 0.76128 0.06800
C 	C 	0.96060 0.68149 0.73349 -0.11800
C 	C 	0.96400 0.76972 0.75983 0.06000
C 	C 	0.99990 0.76513 0.73178 -0.11200
C 	C 	0.99790 0.72033 0.71817 0.05100
C 	C 	0.03090 0.71578 0.68761 0.10000
C 	C 	0.09280 0.88276 0.62436 0.06300
C 	C 	0.07580 0.84175 0.64062 -0.11700
C 	C 	0.13020 0.83723 0.58369 0.06900
C 	C 	0.11340 0.79473 0.59846 -0.11900
C 	C 	0.08650 0.79675 0.62776 0.05200
C 	C 	0.07010 0.75175 0.64482 0.10400
C 	C 	0.10790 0.57504 0.59125 0.07400
C 	C 	0.09270 0.61954 0.60397 -0.11800
C 	C 	0.10350 0.53727 0.63556 0.06900
C 	C 	0.08790 0.58077 0.64988 -0.11900
C 	C 	0.08260 0.62299 0.63394 0.05500
C 	C 	0.06930 0.67047 0.64803 0.10100
C 	C 	0.12530 0.90677 0.51286 0.07000
C 	C 	0.07480 0.89309 0.48785 -0.11700
C 	C 	0.98950 0.94356 0.53194 0.07500
C 	C 	0.93470 0.93145 0.50762 -0.12600
C 	C 	0.97720 0.90507 0.48537 0.05600
C 	C 	0.92070 0.89110 0.45889 0.10100
C 	C 	0.53490 0.94582 0.44706 0.07100
C 	C 	0.62880 0.92942 0.45192 -0.12300
C 	C 	0.53650 0.91674 0.39988 0.06800
C 	C 	0.63030 0.89904 0.40319 -0.12300
C 	C 	0.67760 0.90573 0.42948 0.05300
C 	C 	0.78140 0.89056 0.43310 0.09800
C 	C 	0.97540 0.79970 0.34147 0.08000
C 	C 	0.92270 0.82164 0.36380 -0.12400
C 	C 	0.11760 0.80704 0.36739 0.07000
C 	C 	0.06950 0.82872 0.39063 -0.11300
C 	C 	0.97020 0.83584 0.38896 0.06200
C 	C 	0.91760 0.85839 0.41362 0.10700
C 	C 	0.07640 0.81093 0.26128 0.06800
C 	C 	0.03940 0.81851 0.23349 -0.11800
C 	C 	0.03600 0.73028 0.25983 0.06000
C 	C 	0.00010 0.73487 0.23178 -0.11300
C 	C 	0.00210 0.77967 0.21817 0.05100
C 	C 	0.96910 0.78422 0.18761 0.10100
C 	C 	0.90720 0.61724 0.12436 0.06300
C 	C 	0.92420 0.65825 0.14062 -0.11700
C 	C 	0.86980 0.66277 0.08369 0.07000
C 	C 	0.88660 0.70527 0.09846 -0.11900
C 	C 	0.91350 0.70325 0.12776 0.05200
C 	C 	0.92990 0.74825 0.14482 0.10400
C 	C 	0.89210 0.92496 0.09125 0.07400
C 	C 	0.90730 0.88046 0.10397 -0.11800
C 	C 	0.89650 0.96273 0.13556 0.06900
C 	C 	0.91210 0.91923 0.14988 -0.11900
C 	C 	0.91740 0.87701 0.13394 0.05500
C 	C 	0.93070 0.82953 0.14803 0.10100
I 	I 	0.18591 0.30115 0.69094 -0.37200
I 	I 	0.34397 0.16577 0.67654 -0.37300
I 	I 	0.42587 0.51193 0.39937 -0.36700
I 	I 	0.16064 0.43608 0.43744 -0.38100
I 	I 	0.22199 0.48848 0.53632 -0.39000
I 	I 	0.23169 0.41833 0.62439 -0.36800
I 	I 	0.81409 0.19885 0.19094 -0.37200
I 	I 	0.65603 0.33423 0.17654 -0.37300
I 	I 	0.57413 0.98807 0.89937 -0.36700
I 	I 	0.83936 0.06392 0.93744 -0.38200
I 	I 	0.77801 0.01152 0.03632 -0.39000
I 	I 	0.76831 0.08167 0.12439 -0.36900
I 	I 	0.68591 0.69885 0.80906 -0.37200
I 	I 	0.84397 0.83423 0.82346 -0.37300
I 	I 	0.92587 0.48807 0.10063 -0.36700
I 	I 	0.66064 0.56392 0.06256 -0.38100
I 	I 	0.72199 0.51152 0.96368 -0.39000
I 	I 	0.73169 0.58167 0.87561 -0.36800
I 	I 	0.31409 0.80115 0.30906 -0.37200
I 	I 	0.15603 0.66577 0.32346 -0.37300
I 	I 	0.07413 0.01193 0.60063 -0.36700
I 	I 	0.33936 0.93608 0.56256 -0.38100
I 	I 	0.27801 0.98848 0.46368 -0.39000
I 	I 	0.26831 0.91833 0.37561 -0.36800
N 	N 	0.41680 0.43101 0.46528 -0.27300
N 	N 	0.01080 0.44030 0.57872 -0.27400
N 	N 	0.42890 0.29197 0.65660 -0.27700
N 	N 	0.67340 0.40280 0.54198 -0.14300
N 	N 	0.67740 0.36779 0.58957 -0.13500
N 	N 	0.52970 0.36865 0.56238 -0.13700
N 	N 	0.42430 0.26763 0.72571 -0.27400
N 	N 	0.62050 0.11902 0.90376 -0.27200
N 	N 	0.61400 0.46580 0.89344 -0.27300
N 	N 	0.54440 0.24280 0.82716 -0.14000
N 	N 	0.58340 0.29044 0.86861 -0.14000
N 	N 	0.54340 0.32871 0.82362 -0.13800
N 	N 	0.58320 0.06899 0.96528 -0.27300
N 	N 	0.98920 0.05970 0.07872 -0.27400
N 	N 	0.57110 0.20803 0.15660 -0.27700
N 	N 	0.32660 0.09720 0.04198 -0.14300
N 	N 	0.32260 0.13221 0.08957 -0.13500
N 	N 	0.47030 0.13135 0.06238 -0.13700
N 	N 	0.57570 0.23237 0.22571 -0.27400
N 	N 	0.37950 0.38098 0.40376 -0.27200
N 	N 	0.38600 0.03420 0.39344 -0.27300
N 	N 	0.45560 0.25720 0.32716 -0.14000
N 	N 	0.41660 0.20956 0.36861 -0.14000
N 	N 	0.45660 0.17129 0.32362 -0.13800
N 	N 	0.91680 0.56899 0.03472 -0.27300
N 	N 	0.51080 0.55970 0.92128 -0.27400
N 	N 	0.92890 0.70803 0.84340 -0.27600
N 	N 	0.17340 0.59720 0.95802 -0.14300
N 	N 	0.17740 0.63221 0.91043 -0.13500
N 	N 	0.02970 0.63135 0.93762 -0.13700
N 	N 	0.92430 0.73237 0.77429 -0.27400
N 	N 	0.12050 0.88098 0.59624 -0.27200
N 	N 	0.11400 0.53420 0.60656 -0.27300
N 	N 	0.04440 0.75720 0.67284 -0.14000
N 	N 	0.08340 0.70956 0.63139 -0.14000
N 	N 	0.04340 0.67129 0.67638 -0.13800
N 	N 	0.08320 0.93101 0.53472 -0.27300
N 	N 	0.48920 0.94030 0.42128 -0.27400
N 	N 	0.07110 0.79197 0.34340 -0.27700
N 	N 	0.82660 0.90280 0.45802 -0.14300
N 	N 	0.82260 0.86779 0.41043 -0.13500
N 	N 	0.97030 0.86865 0.43762 -0.13700
N 	N 	0.07570 0.76763 0.27429 -0.27400
N 	N 	0.87950 0.61902 0.09624 -0.27200
N 	N 	0.88600 0.96580 0.10656 -0.27300
N 	N 	0.95560 0.74280 0.17284 -0.14000
N 	N 	0.91660 0.79044 0.13139 -0.14000
N 	N 	0.95660 0.82871 0.17638 -0.13800
Zn	Zn	0.65104 0.74391 0.31244 1.16500
Zn	Zn	0.65754 0.55660 0.57350 1.16300
Zn	Zn	0.85303 0.53047 0.41388 1.16400
Zn	Zn	0.34896 0.75609 0.81244 1.16500
Zn	Zn	0.34246 0.94340 0.07350 1.16300
Zn	Zn	0.14697 0.96953 0.91388 1.16400
Zn	Zn	0.15104 0.25609 0.18756 1.16500
Zn	Zn	0.15754 0.44340 0.92650 1.16300
Zn	Zn	0.35303 0.46953 0.08612 1.16500
Zn	Zn	0.84896 0.24391 0.68756 1.16500
Zn	Zn	0.84246 0.05660 0.42650 1.16300
Zn	Zn	0.64697 0.03047 0.58612 1.16400
H 	H 	0.69250 0.60150 0.51450 -0.00800
H 	H 	0.60690 0.62430 0.47270 0.07800
H 	H 	0.45940 0.53850 0.54730 -0.01200
H 	H 	0.36820 0.55880 0.50620 0.09000
H 	H 	0.00130 0.53840 0.46260 -0.00300
H 	H 	0.15960 0.56570 0.47040 0.08600
H 	H 	0.00420 0.58800 0.38170 -0.00600
H 	H 	0.16160 0.61750 0.38750 0.09300
H 	H 	0.44190 0.71010 0.32420 -0.01400
H 	H 	0.35430 0.67320 0.36170 0.08300
H 	H 	0.68650 0.69730 0.36860 -0.01100
H 	H 	0.60480 0.66140 0.40760 0.08200
H 	H 	0.60350 0.66230 0.27160 -0.01200
H 	H 	0.53970 0.65000 0.22510 0.08000
H 	H 	0.53260 0.80040 0.26920 0.00000
H 	H 	0.47410 0.79250 0.22180 0.08000
H 	H 	0.41540 0.91350 0.13340 -0.00900
H 	H 	0.44320 0.84430 0.16060 0.08000
H 	H 	0.35040 0.83560 0.06370 -0.01600
H 	H 	0.37990 0.76440 0.08880 0.07900
H 	H 	0.38570 0.57340 0.07050 -0.00900
H 	H 	0.41100 0.64780 0.09210 0.08200
H 	H 	0.39300 0.50840 0.14690 -0.00800
H 	H 	0.41910 0.58150 0.17060 0.08100
H 	H 	0.30750 0.89850 0.01450 -0.00800
H 	H 	0.39310 0.87570 0.97270 0.07800
H 	H 	0.54060 0.96150 0.04730 -0.01200
H 	H 	0.63180 0.94120 0.00620 0.09000
H 	H 	0.99870 0.96160 0.96260 -0.00300
H 	H 	0.84040 0.93430 0.97040 0.08600
H 	H 	0.99580 0.91200 0.88170 -0.00600
H 	H 	0.83840 0.88250 0.88750 0.09300
H 	H 	0.55810 0.78990 0.82420 -0.01400
H 	H 	0.64570 0.82680 0.86170 0.08300
H 	H 	0.31350 0.80270 0.86860 -0.01100
H 	H 	0.39520 0.83860 0.90760 0.08200
H 	H 	0.39650 0.83770 0.77160 -0.01200
H 	H 	0.46030 0.85000 0.72510 0.08000
H 	H 	0.46740 0.69960 0.76920 0.00000
H 	H 	0.52590 0.70750 0.72180 0.08000
H 	H 	0.58460 0.58650 0.63340 -0.00900
H 	H 	0.55680 0.65570 0.66060 0.08000
H 	H 	0.64960 0.66440 0.56370 -0.01600
H 	H 	0.62010 0.73560 0.58880 0.07900
H 	H 	0.61430 0.92660 0.57050 -0.00900
H 	H 	0.58900 0.85220 0.59210 0.08200
H 	H 	0.60700 0.99160 0.64690 -0.00800
H 	H 	0.58090 0.91850 0.67060 0.08100
H 	H 	0.19250 0.39850 0.98550 -0.00800
H 	H 	0.10690 0.37570 0.02730 0.07800
H 	H 	0.95940 0.46150 0.95270 -0.01200
H 	H 	0.86820 0.44120 0.99380 0.09000
H 	H 	0.50130 0.46160 0.03740 -0.00300
H 	H 	0.65960 0.43430 0.02960 0.08600
H 	H 	0.50420 0.41200 0.11830 -0.00500
H 	H 	0.66160 0.38250 0.11250 0.09300
H 	H 	0.94190 0.28990 0.17580 -0.01400
H 	H 	0.85430 0.32680 0.13830 0.08300
H 	H 	0.18650 0.30270 0.13140 -0.01100
H 	H 	0.10480 0.33860 0.09240 0.08100
H 	H 	0.10350 0.33770 0.22840 -0.01200
H 	H 	0.03970 0.35000 0.27490 0.08000
H 	H 	0.03260 0.19960 0.23080 0.00100
H 	H 	0.97410 0.20750 0.27820 0.07900
H 	H 	0.91540 0.08650 0.36660 -0.00900
H 	H 	0.94320 0.15570 0.33940 0.08000
H 	H 	0.85040 0.16440 0.43630 -0.01600
H 	H 	0.87990 0.23560 0.41120 0.07900
H 	H 	0.88570 0.42660 0.42950 -0.00900
H 	H 	0.91100 0.35220 0.40790 0.08200
H 	H 	0.89300 0.49160 0.35310 -0.00800
H 	H 	0.91910 0.41850 0.32940 0.08100
H 	H 	0.80750 0.10150 0.48550 -0.00800
H 	H 	0.89310 0.12430 0.52730 0.07800
H 	H 	0.04060 0.03850 0.45270 -0.01200
H 	H 	0.13180 0.05880 0.49380 0.09100
H 	H 	0.49870 0.03840 0.53740 -0.00300
H 	H 	0.34040 0.06570 0.52960 0.08600
H 	H 	0.49580 0.08800 0.61830 -0.00500
H 	H 	0.33840 0.11750 0.61250 0.09300
H 	H 	0.05810 0.21010 0.67580 -0.01400
H 	H 	0.14570 0.17320 0.63830 0.08400
H 	H 	0.81350 0.19730 0.63140 -0.01100
H 	H 	0.89520 0.16140 0.59240 0.08200
H 	H 	0.89650 0.16230 0.72840 -0.01200
H 	H 	0.96030 0.15000 0.77490 0.08000
H 	H 	0.96740 0.30040 0.73080 0.00000
H 	H 	0.02590 0.29250 0.77820 0.08000
H 	H 	0.08460 0.41350 0.86660 -0.00900
H 	H 	0.05680 0.34430 0.83940 0.08000
H 	H 	0.14960 0.33560 0.93630 -0.01600
H 	H 	0.12010 0.26440 0.91120 0.07900
H 	H 	0.11430 0.07340 0.92950 -0.00900
H 	H 	0.08900 0.14780 0.90790 0.08200
H 	H 	0.10700 0.00840 0.85310 -0.00800
H 	H 	0.08090 0.08150 0.82940 0.08100
C 	C 	0.62530 0.59323 0.51286 0.07000
C 	C 	0.57480 0.60691 0.48785 -0.11600
C 	C 	0.48950 0.55644 0.53194 0.07400
C 	C 	0.43470 0.56855 0.50762 -0.12600
C 	C 	0.47720 0.59493 0.48537 0.05500
C 	C 	0.42070 0.60890 0.45889 0.10100
C 	C 	0.03490 0.55418 0.44706 0.07100
C 	C 	0.12880 0.57058 0.45192 -0.12300
C 	C 	0.03650 0.58326 0.39988 0.06800
C 	C 	0.13030 0.60096 0.40319 -0.12300
C 	C 	0.17760 0.59427 0.42948 0.05300
C 	C 	0.28140 0.60944 0.43310 0.09800
C 	C 	0.47540 0.70030 0.34147 0.07900
C 	C 	0.42270 0.67836 0.36380 -0.12400
C 	C 	0.61760 0.69296 0.36739 0.07000
C 	C 	0.56950 0.67128 0.39063 -0.11200
C 	C 	0.47020 0.66416 0.38896 0.06200
C 	C 	0.41760 0.64161 0.41362 0.10700
C 	C 	0.57640 0.68907 0.26128 0.06800
C 	C 	0.53940 0.68149 0.23349 -0.11900
C 	C 	0.53600 0.76972 0.25983 0.06000
C 	C 	0.50010 0.76513 0.23178 -0.11300
C 	C 	0.50210 0.72033 0.21817 0.05100
C 	C 	0.46910 0.71578 0.18761 0.10100
C 	C 	0.40720 0.88276 0.12436 0.06300
C 	C 	0.42420 0.84175 0.14062 -0.11700
C 	C 	0.36980 0.83723 0.08369 0.07000
C 	C 	0.38660 0.79473 0.09846 -0.11900
C 	C 	0.41350 0.79675 0.12776 0.05200
C 	C 	0.42990 0.75175 0.14482 0.10400
C 	C 	0.39210 0.57504 0.09125 0.07400
C 	C 	0.40730 0.61954 0.10397 -0.11800
C 	C 	0.39650 0.53727 0.13556 0.06900
C 	C 	0.41210 0.58077 0.14988 -0.11900
C 	C 	0.41740 0.62299 0.13394 0.05500
C 	C 	0.43070 0.67047 0.14803 0.10100
C 	C 	0.37470 0.90677 0.01286 0.07000
C 	C 	0.42520 0.89309 0.98785 -0.11600
C 	C 	0.51050 0.94356 0.03194 0.07400
C 	C 	0.56530 0.93145 0.00762 -0.12600
C 	C 	0.52280 0.90507 0.98537 0.05500
C 	C 	0.57930 0.89110 0.95889 0.10100
C 	C 	0.96510 0.94582 0.94706 0.07200
C 	C 	0.87120 0.92942 0.95192 -0.12400
C 	C 	0.96350 0.91674 0.89988 0.06900
C 	C 	0.86970 0.89904 0.90319 -0.12300
C 	C 	0.82240 0.90573 0.92948 0.05300
C 	C 	0.71860 0.89056 0.93310 0.09800
C 	C 	0.52460 0.79970 0.84147 0.07900
C 	C 	0.57730 0.82164 0.86380 -0.12400
C 	C 	0.38240 0.80704 0.86739 0.07000
C 	C 	0.43050 0.82872 0.89063 -0.11200
C 	C 	0.52980 0.83584 0.88896 0.06200
C 	C 	0.58240 0.85839 0.91362 0.10700
C 	C 	0.42360 0.81093 0.76128 0.06800
C 	C 	0.46060 0.81851 0.73349 -0.11900
C 	C 	0.46400 0.73028 0.75983 0.06000
C 	C 	0.49990 0.73487 0.73178 -0.11300
C 	C 	0.49790 0.77967 0.71817 0.05100
C 	C 	0.53090 0.78422 0.68761 0.10100
C 	C 	0.59280 0.61724 0.62436 0.06300
C 	C 	0.57580 0.65825 0.64062 -0.11700
C 	C 	0.63020 0.66277 0.58369 0.07000
C 	C 	0.61340 0.70527 0.59846 -0.11900
C 	C 	0.58650 0.70325 0.62776 0.05200
C 	C 	0.57010 0.74825 0.64482 0.10400
C 	C 	0.60790 0.92496 0.59125 0.07400
C 	C 	0.59270 0.88046 0.60397 -0.11800
C 	C 	0.60350 0.96273 0.63556 0.06900
C 	C 	0.58790 0.91923 0.64988 -0.11900
C 	C 	0.58260 0.87701 0.63394 0.05500
C 	C 	0.56930 0.82953 0.64803 0.10100
C 	C 	0.12530 0.40677 0.98714 0.06900
C 	C 	0.07480 0.39309 0.01215 -0.11600
C 	C 	0.98950 0.44356 0.96806 0.07300
C 	C 	0.93470 0.43145 0.99238 -0.12600
C 	C 	0.97720 0.40507 0.01463 0.05500
C 	C 	0.92070 0.39110 0.04111 0.10100
C 	C 	0.53490 0.44582 0.05294 0.07100
C 	C 	0.62880 0.42942 0.04808 -0.12300
C 	C 	0.53650 0.41674 0.10012 0.06800
C 	C 	0.63030 0.39904 0.09681 -0.12300
C 	C 	0.67760 0.40573 0.07052 0.05300
C 	C 	0.78140 0.39056 0.06690 0.09800
C 	C 	0.97540 0.29970 0.15853 0.07900
C 	C 	0.92270 0.32164 0.13620 -0.12300
C 	C 	0.11760 0.30704 0.13261 0.07000
C 	C 	0.06950 0.32872 0.10937 -0.11100
C 	C 	0.97020 0.33584 0.11104 0.06100
C 	C 	0.91760 0.35839 0.08638 0.10700
C 	C 	0.07640 0.31093 0.23872 0.06800
C 	C 	0.03940 0.31851 0.26651 -0.11800
C 	C 	0.03600 0.23028 0.24017 0.06000
C 	C 	0.00010 0.23487 0.26822 -0.11200
C 	C 	0.00210 0.27967 0.28183 0.05100
C 	C 	0.96910 0.28422 0.31239 0.10000
C 	C 	0.90720 0.11724 0.37564 0.06300
C 	C 	0.92420 0.15825 0.35938 -0.11700
C 	C 	0.86980 0.16277 0.41631 0.06900
C 	C 	0.88660 0.20527 0.40154 -0.11900
C 	C 	0.91350 0.20325 0.37224 0.05200
C 	C 	0.92990 0.24825 0.35518 0.10400
C 	C 	0.89210 0.42496 0.40875 0.07400
C 	C 	0.90730 0.38046 0.39603 -0.11800
C 	C 	0.89650 0.46273 0.36444 0.06900
C 	C 	0.91210 0.41923 0.35012 -0.11900
C 	C 	0.91740 0.37701 0.36606 0.05500
C 	C 	0.93070 0.32953 0.35197 0.10100
C 	C 	0.87470 0.09323 0.48714 0.07000
C 	C 	0.92520 0.10691 0.51215 -0.11700
C 	C 	0.01050 0.05644 0.46806 0.07500
C 	C 	0.06530 0.06855 0.49238 -0.12600
C 	C 	0.02280 0.09493 0.51463 0.05600
C 	C 	0.07930 0.10890 0.54111 0.10100
C 	C 	0.46510 0.05418 0.55294 0.07100
C 	C 	0.37120 0.07058 0.54808 -0.12300
C 	C 	0.46350 0.08326 0.60012 0.06800
C 	C 	0.36970 0.10096 0.59681 -0.12300
C 	C 	0.32240 0.09427 0.57052 0.05300
C 	C 	0.21860 0.10944 0.56690 0.09800
C 	C 	0.02460 0.20030 0.65853 0.08000
C 	C 	0.07730 0.17836 0.63620 -0.12400
C 	C 	0.88240 0.19296 0.63261 0.07000
C 	C 	0.93050 0.17128 0.60937 -0.11300
C 	C 	0.02980 0.16416 0.61104 0.06200
C 	C 	0.08240 0.14161 0.58638 0.10700
C 	C 	0.92360 0.18907 0.73872 0.06800
C 	C 	0.96060 0.18149 0.76651 -0.11800
C 	C 	0.96400 0.26972 0.74017 0.06000
C 	C 	0.99990 0.26513 0.76822 -0.11300
C 	C 	0.99790 0.22033 0.78183 0.05100
C 	C 	0.03090 0.21578 0.81239 0.10100
C 	C 	0.09280 0.38276 0.87564 0.06300
C 	C 	0.07580 0.34175 0.85938 -0.11700
C 	C 	0.13020 0.33723 0.91631 0.07000
C 	C 	0.11340 0.29473 0.90154 -0.11900
C 	C 	0.08650 0.29675 0.87224 0.05200
C 	C 	0.07010 0.25175 0.85518 0.10400
C 	C 	0.10790 0.07504 0.90875 0.07400
C 	C 	0.09270 0.11954 0.89603 -0.11800
C 	C 	0.10350 0.03727 0.86444 0.06900
C 	C 	0.08790 0.08077 0.85012 -0.11900
C 	C 	0.08260 0.12299 0.86606 0.05500
C 	C 	0.06930 0.17047 0.85197 0.10100
I 	I 	0.81409 0.69885 0.30906 -0.37200
I 	I 	0.65603 0.83423 0.32346 -0.37300
I 	I 	0.57413 0.48807 0.60063 -0.36700
I 	I 	0.83936 0.56392 0.56256 -0.38100
I 	I 	0.77801 0.51152 0.46368 -0.39000
I 	I 	0.76831 0.58167 0.37561 -0.36800
I 	I 	0.18591 0.80115 0.80906 -0.37200
I 	I 	0.34397 0.66577 0.82346 -0.37300
I 	I 	0.42587 0.01193 0.10063 -0.36700
I 	I 	0.16064 0.93608 0.06256 -0.38200
I 	I 	0.22199 0.98848 0.96368 -0.39000
I 	I 	0.23169 0.91833 0.87561 -0.36900
I 	I 	0.31409 0.30115 0.19094 -0.37200
I 	I 	0.15603 0.16577 0.17654 -0.37300
I 	I 	0.07413 0.51193 0.89937 -0.36700
I 	I 	0.33936 0.43608 0.93744 -0.38100
I 	I 	0.27801 0.48848 0.03632 -0.39000
I 	I 	0.26831 0.41833 0.12439 -0.36800
I 	I 	0.68591 0.19885 0.69094 -0.37200
I 	I 	0.84397 0.33423 0.67654 -0.37300
I 	I 	0.92587 0.98807 0.39937 -0.36700
I 	I 	0.66064 0.06392 0.43744 -0.38100
I 	I 	0.72199 0.01152 0.53632 -0.39000
I 	I 	0.73169 0.08167 0.62439 -0.36800
N 	N 	0.58320 0.56899 0.53472 -0.27300
N 	N 	0.98920 0.55970 0.42128 -0.27400
N 	N 	0.57110 0.70803 0.34340 -0.27700
N 	N 	0.32660 0.59720 0.45802 -0.14300
N 	N 	0.32260 0.63221 0.41043 -0.13500
N 	N 	0.47030 0.63135 0.43762 -0.13700
N 	N 	0.57570 0.73237 0.27429 -0.27400
N 	N 	0.37950 0.88098 0.09624 -0.27200
N 	N 	0.38600 0.53420 0.10656 -0.27300
N 	N 	0.45560 0.75720 0.17284 -0.14000
N 	N 	0.41660 0.70956 0.13139 -0.14000
N 	N 	0.45660 0.67129 0.17638 -0.13800
N 	N 	0.41680 0.93101 0.03472 -0.27300
N 	N 	0.01080 0.94030 0.92128 -0.27400
N 	N 	0.42890 0.79197 0.84340 -0.27700
N 	N 	0.67340 0.90280 0.95802 -0.14300
N 	N 	0.67740 0.86779 0.91043 -0.13500
N 	N 	0.52970 0.86865 0.93762 -0.13700
N 	N 	0.42430 0.76763 0.77429 -0.27400
N 	N 	0.62050 0.61902 0.59624 -0.27200
N 	N 	0.61400 0.96580 0.60656 -0.27300
N 	N 	0.54440 0.74280 0.67284 -0.14000
N 	N 	0.58340 0.79044 0.63139 -0.14000
N 	N 	0.54340 0.82871 0.67638 -0.13800
N 	N 	0.08320 0.43101 0.96528 -0.27300
N 	N 	0.48920 0.44030 0.07872 -0.27400
N 	N 	0.07110 0.29197 0.15660 -0.27600
N 	N 	0.82660 0.40280 0.04198 -0.14300
N 	N 	0.82260 0.36779 0.08957 -0.13500
N 	N 	0.97030 0.36865 0.06238 -0.13700
N 	N 	0.07570 0.26763 0.22571 -0.27400
N 	N 	0.87950 0.11902 0.40376 -0.27200
N 	N 	0.88600 0.46580 0.39344 -0.27300
N 	N 	0.95560 0.24280 0.32716 -0.14000
N 	N 	0.91660 0.29044 0.36861 -0.14000
N 	N 	0.95660 0.32871 0.32362 -0.13800
N 	N 	0.91680 0.06899 0.46528 -0.27300
N 	N 	0.51080 0.05970 0.57872 -0.27400
N 	N 	0.92890 0.20803 0.65660 -0.27700
N 	N 	0.17340 0.09720 0.54198 -0.14300
N 	N 	0.17740 0.13221 0.58957 -0.13500
N 	N 	0.02970 0.13135 0.56238 -0.13700
N 	N 	0.92430 0.23237 0.72571 -0.27400
N 	N 	0.12050 0.38098 0.90376 -0.27200
N 	N 	0.11400 0.03420 0.89344 -0.27300
N 	N 	0.04440 0.25720 0.82716 -0.14000
N 	N 	0.08340 0.20956 0.86861 -0.14000
N 	N 	0.04340 0.17129 0.82362 -0.13800
