data_crystal

_cell_length_a 13.91000
_cell_length_b 26.11000
_cell_length_c 29.55000
_cell_angle_alpha 94.27000
_cell_angle_beta  90.00000
_cell_angle_gamma 90.00000

_symmetry_space_group_name_	'P 1'
_symmetry_space_group_name_H-M	'P 1'

loop_
_symmetry_equiv_pos_as_xyz
  x,y,z

loop_
_atom_site_label
_atom_site_type_symbol
_atom_site_fract_x
_atom_site_fract_y
_atom_site_fract_z
_atom_site_charge
Ni	Ni	0.33493 0.25729 0.99108 1.07500
Ni	Ni	0.88159 0.73683 0.78999 1.07000
Ni	Ni	0.11841 0.26317 0.21001 1.07000
Ni	Ni	0.37155 0.49891 0.24150 1.07000
Ni	Ni	0.83493 0.24271 0.50892 1.07600
Ni	Ni	0.83347 0.23190 0.77532 1.08000
Ni	Ni	0.16507 0.75729 0.49108 1.07600
Ni	Ni	0.12845 0.99891 0.74150 1.07100
Ni	Ni	0.87155 0.00109 0.25850 1.07100
Ni	Ni	0.66507 0.74271 0.00892 1.07600
Ni	Ni	0.33347 0.26810 0.72468 1.08000
Ni	Ni	0.38159 0.76317 0.71001 1.07100
Ni	Ni	0.62845 0.50109 0.75850 1.07100
Ni	Ni	0.66653 0.73190 0.27532 1.08000
Ni	Ni	0.61841 0.23683 0.28999 1.07100
Ni	Ni	0.16653 0.76810 0.22468 1.08000
Mo	Mo	0.96196 0.18058 0.34463 1.07200
Mo	Mo	0.34383 0.67568 0.34684 1.08300
Mo	Mo	0.03804 0.81942 0.65537 1.07200
Mo	Mo	0.65617 0.32432 0.65316 1.08300
Mo	Mo	0.46196 0.31942 0.15537 1.07200
Mo	Mo	0.53804 0.68058 0.84463 1.07200
Mo	Mo	0.15617 0.17568 0.84684 1.08300
Mo	Mo	0.84383 0.82432 0.15316 1.08300
H 	H 	0.41010 0.22440 0.81710 -0.00200
H 	H 	0.20870 0.21440 0.29750 0.07700
H 	H 	0.90170 0.84700 0.44020 0.19800
H 	H 	0.33850 0.18150 0.60170 0.08200
H 	H 	0.57860 0.26450 0.01590 0.03500
H 	H 	0.81140 0.91310 0.83700 0.21400
H 	H 	0.76380 0.24820 0.90380 0.00700
H 	H 	0.48970 0.77950 0.50330 0.23000
H 	H 	0.55880 0.38520 0.39600 0.04100
H 	H 	0.18450 0.37000 0.24730 0.03900
H 	H 	0.10490 0.65140 0.24130 0.01400
H 	H 	0.35010 0.15670 0.34980 0.24000
H 	H 	0.41860 0.14530 0.65360 0.00900
H 	H 	0.84530 0.54810 0.23100 0.03000
H 	H 	0.59790 0.17990 0.98930 0.07400
H 	H 	0.58050 0.28630 0.49070 0.02500
H 	H 	0.01590 0.31450 0.54620 0.06400
H 	H 	0.09460 0.13280 0.50850 0.21000
H 	H 	0.13930 0.98500 0.26920 0.01900
H 	H 	0.67510 0.46090 0.90440 0.23100
H 	H 	0.46800 0.83610 0.52200 0.21600
H 	H 	0.13150 0.41740 0.69230 0.03000
H 	H 	0.61680 0.73530 0.59020 0.03800
H 	H 	0.02430 0.69790 0.54620 0.02900
H 	H 	0.29610 0.18430 0.06320 0.02200
H 	H 	0.61650 0.20880 0.20830 0.09400
H 	H 	0.62750 0.09720 0.52610 0.03800
H 	H 	0.54790 0.88250 0.70900 0.03600
H 	H 	0.52690 0.57690 0.69700 0.07800
H 	H 	0.26380 0.25180 0.59620 0.00700
H 	H 	0.60180 0.48210 0.30010 0.01600
H 	H 	0.19800 0.46080 0.36490 0.22500
H 	H 	0.68410 0.84910 0.32350 0.00600
H 	H 	0.39510 0.15140 0.74130 0.01400
H 	H 	0.40210 0.82010 0.01070 0.07400
H 	H 	0.97620 0.02460 0.81000 0.01300
H 	H 	0.27740 0.11330 0.18770 0.22300
H 	H 	0.68860 0.41310 0.33700 0.21400
H 	H 	0.96220 0.97000 0.37510 0.00700
H 	H 	0.02530 0.07610 0.66140 0.00300
H 	H 	0.39820 0.51790 0.69990 0.01600
H 	H 	0.20390 0.68430 0.56320 0.02200
H 	H 	0.07220 0.84510 0.35910 0.29600
H 	H 	0.00400 0.76180 0.31330 -0.00500
H 	H 	0.16490 0.70390 0.72390 0.03000
H 	H 	0.52920 0.18680 0.78220 0.11700
H 	H 	0.93500 0.36590 0.12310 0.23000
H 	H 	0.94090 0.05750 0.73480 0.01000
H 	H 	0.88320 0.23530 0.09020 0.03700
H 	H 	0.89370 0.27340 0.87350 0.09400
H 	H 	0.43500 0.13410 0.37690 0.23000
H 	H 	0.87250 0.59720 0.02610 0.03800
H 	H 	0.94120 0.88520 0.89600 0.04000
H 	H 	0.99280 0.35110 0.78620 0.01300
H 	H 	0.71670 0.84150 0.75420 0.02300
H 	H 	0.39780 0.97480 0.84070 0.22200
H 	H 	0.79890 0.78450 0.37590 0.00100
H 	H 	0.70390 0.81570 0.93680 0.02200
H 	H 	0.47620 0.47540 0.69000 0.01600
H 	H 	0.30090 0.29870 0.26290 0.03600
H 	H 	0.69800 0.03920 0.13510 0.22500
H 	H 	0.92140 0.76450 0.51590 0.03600
H 	H 	0.28540 0.04370 0.60590 0.22800
H 	H 	0.08140 0.64530 0.15360 0.00900
H 	H 	0.99790 0.37710 0.28330 0.04800
H 	H 	0.49300 0.97620 0.30190 0.02900
H 	H 	0.99300 0.52380 0.19810 0.02800
H 	H 	0.18860 0.08690 0.16300 0.21400
H 	H 	0.28330 0.15850 0.24580 0.02300
H 	H 	0.12750 0.40280 0.97390 0.03800
H 	H 	0.03990 0.71880 0.18520 0.09900
H 	H 	0.06510 0.84610 0.92940 0.02500
H 	H 	0.53200 0.16390 0.47800 0.21600
H 	H 	0.15130 0.94150 0.85530 0.02800
H 	H 	0.18030 0.72040 0.80120 0.08100
H 	H 	0.37860 0.86990 0.14310 0.22500
H 	H 	0.12140 0.36990 0.64310 0.22500
H 	H 	0.23170 0.80010 0.81380 0.04100
H 	H 	0.91010 0.27560 0.68290 -0.00200
H 	H 	0.33880 0.87300 0.79940 0.04500
H 	H 	0.76830 0.19990 0.18620 0.04100
H 	H 	0.97570 0.30210 0.45380 0.02900
H 	H 	0.64990 0.84330 0.65020 0.24000
H 	H 	0.89820 0.98210 0.80010 0.01400
H 	H 	0.71720 0.40960 0.88160 0.22400
H 	H 	0.97680 0.35700 0.47910 0.02400
H 	H 	0.39600 0.03700 0.64820 0.02500
H 	H 	0.79630 0.84150 0.01660 0.08800
H 	H 	0.11770 0.68410 0.89630 0.23200
H 	H 	0.33190 0.01850 0.86280 0.23400
H 	H 	0.89510 0.34860 0.75870 0.01400
H 	H 	0.62140 0.13010 0.85690 0.22500
H 	H 	0.20370 0.15850 0.98340 0.08800
H 	H 	0.07860 0.23550 0.48410 0.03600
H 	H 	0.52320 0.85700 0.97910 0.02400
H 	H 	0.60180 0.18590 0.87820 0.22600
H 	H 	0.21720 0.09040 0.61840 0.22500
H 	H 	0.47310 0.42310 0.30300 0.07800
H 	H 	0.81970 0.27960 0.19880 0.08100
H 	H 	0.47890 0.82280 0.46960 0.22400
H 	H 	0.44090 0.44250 0.76520 0.01100
H 	H 	0.65470 0.04810 0.73100 0.03000
H 	H 	0.02630 0.04330 0.26150 0.10000
H 	H 	0.68450 0.13000 0.25270 0.03900
H 	H 	0.74180 0.04470 0.54470 0.01700
H 	H 	0.90540 0.86720 0.49150 0.21000
H 	H 	0.48340 0.55250 0.65180 0.07800
H 	H 	0.50720 0.85110 0.28620 0.01300
H 	H 	0.81550 0.63000 0.75270 0.03900
H 	H 	0.60380 0.26020 0.96420 0.02000
H 	H 	0.98340 0.94750 0.84820 0.08300
H 	H 	0.26300 0.11720 0.13540 0.21900
H 	H 	0.24180 0.45530 0.95530 0.01700
H 	H 	0.16120 0.37300 0.29940 0.04500
H 	H 	0.81590 0.34910 0.82350 0.00600
H 	H 	0.79610 0.31570 0.43680 0.02200
H 	H 	0.39620 0.73980 0.03580 0.02000
H 	H 	0.69110 0.15520 0.89390 0.22800
H 	H 	0.19910 0.79870 0.76290 0.03600
H 	H 	0.00700 0.47620 0.80190 0.02800
H 	H 	0.42140 0.73550 0.98410 0.03500
H 	H 	0.19110 0.34480 0.60610 0.22800
H 	H 	0.04420 0.02380 0.33030 0.10100
H 	H 	0.23620 0.75180 0.09620 0.00700
H 	H 	0.39820 0.81410 0.12180 0.22600
H 	H 	0.47550 0.00490 0.77310 0.03600
H 	H 	0.39160 0.47680 0.84000 0.09300
H 	H 	0.66120 0.12700 0.20060 0.04500
H 	H 	0.86070 0.01500 0.73080 0.01900
H 	H 	0.54420 0.47620 0.16970 0.09900
H 	H 	0.97550 0.49510 0.72690 0.03700
H 	H 	0.30890 0.84480 0.10610 0.22800
H 	H 	0.10180 0.01790 0.19990 0.01400
H 	H 	0.95780 0.89760 0.45490 0.19900
H 	H 	0.34870 0.44150 0.35530 0.03000
H 	H 	0.04790 0.61750 0.79100 0.03600
H 	H 	0.78330 0.34150 0.25420 0.02300
H 	H 	0.83190 0.48150 0.63720 0.23400
H 	H 	0.49790 0.12290 0.21670 0.04900
H 	H 	0.23700 0.61720 0.63540 0.21900
H 	H 	0.18200 0.85500 0.36790 0.30600
H 	H 	0.09830 0.15300 0.55980 0.19800
H 	H 	0.52450 0.99510 0.22690 0.03600
H 	H 	0.70870 0.28560 0.20250 0.07700
H 	H 	0.89160 0.02320 0.66000 0.09400
H 	H 	0.52380 0.52460 0.31000 0.01600
H 	H 	0.16170 0.14070 0.02860 0.08900
H 	H 	0.46500 0.77170 0.25250 0.10800
H 	H 	0.58990 0.77560 0.18290 -0.00200
H 	H 	0.43970 0.89100 0.69670 0.03800
H 	H 	0.35990 0.29940 0.86920 0.30400
H 	H 	0.31140 0.58690 0.66300 0.21400
H 	H 	0.86290 0.33310 0.52350 0.08900
H 	H 	0.50700 0.02380 0.69810 0.02900
H 	H 	0.01030 0.27950 0.00330 0.23100
H 	H 	0.97310 0.07690 0.19700 0.08100
H 	H 	0.70370 0.34150 0.51660 0.08800
H 	H 	0.80090 0.20130 0.23710 0.03600
H 	H 	0.61770 0.81590 0.60370 0.23200
H 	H 	0.09790 0.32010 0.51070 0.07400
H 	H 	0.50210 0.87710 0.78330 0.04900
H 	H 	0.73700 0.88280 0.86460 0.21900
H 	H 	0.84870 0.05850 0.14470 0.02800
H 	H 	0.40540 0.63280 0.00850 0.21000
H 	H 	0.49600 0.26180 0.81330 -0.00600
H 	H 	0.63460 0.27370 0.44470 0.02900
H 	H 	0.37820 0.49980 0.36040 0.04300
H 	H 	0.54220 0.39760 0.95490 0.19900
H 	H 	0.36070 0.48500 0.76920 0.01900
H 	H 	0.59830 0.34700 0.94020 0.19900
H 	H 	0.77740 0.38670 0.31230 0.22200
H 	H 	0.02920 0.31320 0.71780 0.11700
H 	H 	0.58140 0.85470 0.34640 0.00900
H 	H 	0.31590 0.15090 0.67650 0.00600
H 	H 	0.65130 0.55850 0.64470 0.03000
H 	H 	0.51590 0.18550 0.95380 0.06400
H 	H 	0.05880 0.11480 0.10400 0.04000
H 	H 	0.09560 0.93090 0.45530 0.03800
H 	H 	0.10380 0.23980 0.53580 0.02100
H 	H 	0.89600 0.46300 0.85180 0.02600
H 	H 	0.52630 0.45670 0.23850 0.10000
H 	H 	0.02690 0.92310 0.80300 0.08100
H 	H 	0.99600 0.23820 0.68670 -0.00500
H 	H 	0.02380 0.97540 0.19000 0.01300
H 	H 	0.89820 0.68590 0.37820 0.22600
H 	H 	0.96010 0.28120 0.81480 0.09900
H 	H 	0.83850 0.31850 0.89830 0.08100
H 	H 	0.95210 0.38250 0.20900 0.03600
H 	H 	0.91860 0.35470 0.84640 0.00900
H 	H 	0.60630 0.77340 0.37350 0.09400
H 	H 	0.25820 0.95530 0.45530 0.01700
H 	H 	0.60400 0.96300 0.35180 0.02500
H 	H 	0.10840 0.97680 0.34000 0.09400
H 	H 	0.08990 0.72440 0.31710 -0.00200
H 	H 	0.11680 0.76470 0.90980 0.03700
H 	H 	0.02450 0.50490 0.27310 0.03700
H 	H 	0.43490 0.34610 0.42940 0.02300
H 	H 	0.39370 0.22660 0.62650 0.09400
H 	H 	0.29130 0.71440 0.79750 0.07700
H 	H 	0.00720 0.64890 0.21380 0.01300
H 	H 	0.40170 0.65300 0.05980 0.19900
H 	H 	0.36540 0.72630 0.55530 0.02900
H 	H 	0.17510 0.03910 0.59560 0.23100
H 	H 	0.69050 0.87060 0.96130 0.02100
H 	H 	0.51660 0.44750 0.34820 0.07800
H 	H 	0.45210 0.11750 0.29100 0.03600
H 	H 	0.10400 0.53700 0.14820 0.02600
H 	H 	0.96500 0.72830 0.24750 0.10800
H 	H 	0.30950 0.12940 0.03870 0.02100
H 	H 	0.51030 0.22050 0.49670 0.23000
H 	H 	0.13460 0.22630 0.05530 0.02900
H 	H 	0.31970 0.22040 0.30120 0.08100
H 	H 	0.81800 0.14500 0.63210 0.30600
H 	H 	0.59460 0.36720 0.99150 0.21000
H 	H 	0.18410 0.65090 0.17650 0.00600
H 	H 	0.01660 0.05250 0.15180 0.08300
H 	H 	0.90210 0.67990 0.48930 0.07400
H 	H 	0.38230 0.18410 0.39630 0.23200
H 	H 	0.66490 0.79610 0.77610 0.03000
H 	H 	0.36290 0.16690 0.97650 0.08900
H 	H 	0.71460 0.95630 0.39410 0.22800
H 	H 	0.76500 0.58600 0.17170 0.02900
H 	H 	0.06030 0.39100 0.19670 0.03800
H 	H 	0.72260 0.88670 0.81230 0.22300
H 	H 	0.87820 0.00020 0.13960 0.04100
H 	H 	0.80890 0.65520 0.39390 0.22800
H 	H 	0.56030 0.10900 0.30330 0.03800
H 	H 	0.52430 0.80210 0.95380 0.02900
H 	H 	0.23500 0.41400 0.82830 0.02900
H 	H 	0.80200 0.53920 0.63510 0.22500
H 	H 	0.33510 0.20390 0.22390 0.03000
H 	H 	0.85010 0.34330 0.15020 0.24000
H 	H 	0.30200 0.96080 0.86490 0.22500
H 	H 	0.96800 0.66390 0.97800 0.21700
H 	H 	0.83510 0.29610 0.27610 0.03000
H 	H 	0.33830 0.64070 0.52860 0.08900
H 	H 	0.16150 0.68150 0.10170 0.08100
H 	H 	0.26500 0.91400 0.32830 0.02900
H 	H 	0.15470 0.45190 0.76900 0.03000
H 	H 	0.63150 0.08260 0.80770 0.03000
H 	H 	0.83880 0.62700 0.70060 0.04500
H 	H 	0.73620 0.74820 0.40380 0.00700
H 	H 	0.12180 0.99980 0.86040 0.04100
H 	H 	0.21670 0.65850 0.74580 0.02300
H 	H 	0.14010 0.79940 0.36920 0.30400
H 	H 	0.00210 0.62290 0.71670 0.04800
H 	H 	0.82490 0.96090 0.40440 0.23100
H 	H 	0.11650 0.29120 0.29170 0.09500
H 	H 	0.42780 0.34510 0.85910 0.29600
H 	H 	0.93490 0.15390 0.07060 0.02500
H 	H 	0.06500 0.63410 0.87690 0.23000
H 	H 	0.68030 0.77960 0.69880 0.08100
H 	H 	0.49280 0.14890 0.71380 0.01300
H 	H 	0.46010 0.21880 0.68520 0.09900
H 	H 	0.48410 0.81450 0.04620 0.06400
H 	H 	0.14990 0.65670 0.84980 0.24000
H 	H 	0.46220 0.53000 0.12490 0.00700
H 	H 	0.76300 0.38280 0.36460 0.21900
H 	H 	0.47570 0.19790 0.04620 0.02900
H 	H 	0.29630 0.65850 0.48340 0.08800
H 	H 	0.02320 0.64300 0.52090 0.02400
H 	H 	0.75820 0.54470 0.04470 0.01700
H 	H 	0.47370 0.54330 0.76150 0.10000
H 	H 	0.73170 0.69990 0.68620 0.04100
H 	H 	0.40440 0.43090 0.95530 0.03900
H 	H 	0.57220 0.65490 0.14090 0.29600
H 	H 	0.73500 0.08600 0.67170 0.02900
H 	H 	0.66150 0.81850 0.39830 0.08200
H 	H 	0.13710 0.66690 0.47650 0.08900
H 	H 	0.19050 0.62940 0.53870 0.02100
H 	H 	0.03500 0.27170 0.75250 0.10800
H 	H 	0.50400 0.73820 0.18670 -0.00600
H 	H 	0.63710 0.83310 0.02350 0.08900
H 	H 	0.21460 0.54370 0.10590 0.22800
H 	H 	0.05910 0.94250 0.26520 0.01000
H 	H 	0.45580 0.52380 0.83030 0.09900
H 	H 	0.31550 0.87000 0.74730 0.03900
H 	H 	0.56510 0.65390 0.57060 0.02300
H 	H 	0.90440 0.06910 0.54470 0.03800
H 	H 	0.95580 0.97620 0.66970 0.10100
H 	H 	0.03200 0.33610 0.02200 0.21700
H 	H 	0.10180 0.31410 0.62180 0.22600
H 	H 	0.98970 0.72050 0.99670 0.23100
H 	H 	0.97890 0.67720 0.03040 0.22500
H 	H 	0.80950 0.37060 0.46130 0.02100
H 	H 	0.85990 0.20060 0.63080 0.30400
H 	H 	0.70110 0.28450 0.87590 0.00100
H 	H 	0.38320 0.26470 0.40980 0.03800
H 	H 	0.60490 0.84860 0.25870 0.01400
H 	H 	0.93970 0.60900 0.80330 0.03800
H 	H 	0.66170 0.35930 0.47140 0.08900
H 	H 	0.89620 0.76020 0.46420 0.02100
H 	H 	0.29890 0.71550 0.12410 0.00100
H 	H 	0.60220 0.02520 0.15930 0.22200
H 	H 	0.22260 0.61330 0.68770 0.22200
H 	H 	0.56500 0.86590 0.62310 0.23000
H 	H 	0.16810 0.51850 0.36280 0.23400
H 	H 	0.26830 0.30010 0.31380 0.04100
H 	H 	0.79130 0.78560 0.70250 0.07700
H 	H 	0.78280 0.90960 0.38160 0.22500
H 	H 	0.88350 0.70880 0.70830 0.09500
H 	H 	0.04220 0.10240 0.54510 0.19900
H 	H 	0.97080 0.68680 0.28220 0.11700
H 	H 	0.32490 0.53910 0.09560 0.23100
H 	H 	0.03780 0.03000 0.62490 0.00700
H 	H 	0.68200 0.64500 0.13210 0.30600
H 	H 	0.47080 0.81320 0.21780 0.11700
H 	H 	0.10220 0.47480 0.34070 0.22200
H 	H 	0.53500 0.22830 0.74750 0.10800
H 	H 	0.98410 0.68550 0.45380 0.06400
H 	H 	0.89780 0.52520 0.65930 0.22200
H 	H 	0.20110 0.21550 0.62410 0.00100
H 	H 	0.53990 0.78120 0.31480 0.09900
H 	H 	0.52110 0.17720 0.53040 0.22400
H 	H 	0.53780 0.47000 0.87510 0.00700
H 	H 	0.36850 0.91740 0.19230 0.03000
H 	H 	0.86540 0.77370 0.94470 0.02900
H 	H 	0.47470 0.57610 0.16140 0.00300
H 	H 	0.08050 0.21370 0.00930 0.02600
H 	H 	0.41950 0.71370 0.50930 0.02500
H 	H 	0.64010 0.70060 0.13080 0.30400
H 	H 	0.02110 0.32280 0.96960 0.22500
H 	H 	0.10630 0.72660 0.12650 0.09400
H 	H 	0.44120 0.61480 0.60400 0.04100
H 	H 	0.91950 0.78630 0.99070 0.02600
H 	H 	0.31800 0.35500 0.86790 0.30600
H 	H 	0.52530 0.42390 0.83860 0.00300
H 	H 	0.47680 0.14300 0.02090 0.02400
H 	H 	0.69910 0.70130 0.73710 0.03600
H 	H 	0.28280 0.59040 0.11840 0.22400
H 	H 	0.45780 0.60240 0.04510 0.19900
H 	H 	0.62180 0.50020 0.63960 0.04300
H 	H 	0.92780 0.15490 0.64090 0.29600
H 	H 	0.88230 0.31590 0.10370 0.23200
H 	H 	0.55910 0.55750 0.23480 0.01100
H 	H 	0.86850 0.58260 0.30770 0.03000
H 	H 	0.83830 0.85930 0.97140 0.08900
H 	H 	0.34530 0.95190 0.26900 0.03000
H 	H 	0.63930 0.51500 0.23080 0.01900
H 	H 	0.38350 0.79120 0.79170 0.09400
H 	H 	0.60840 0.52320 0.16000 0.09300
H 	H 	0.97370 0.95670 0.73850 0.10000
H 	H 	0.87860 0.63010 0.35690 0.22500
H 	H 	0.97470 0.92390 0.33860 0.00300
H 	H 	0.78540 0.45630 0.89410 0.22800
H 	H 	0.66810 0.98150 0.13720 0.23400
H 	H 	0.59560 0.56910 0.04470 0.03900
H 	H 	0.37250 0.90280 0.47390 0.03800
C 	C 	0.54110 0.76370 0.85120 -0.13300
C 	C 	0.04240 0.36930 0.26030 -0.08400
C 	C 	0.96900 0.16700 0.53030 0.16200
C 	C 	0.16220 0.11310 0.88740 -0.14400
C 	C 	0.31390 0.30290 0.17020 -0.11500
C 	C 	0.57320 0.99190 0.24800 -0.05000
C 	C 	0.63560 0.66890 0.14520 -0.92900
C 	C 	0.55480 0.31150 0.59940 -0.13400
C 	C 	0.99010 0.29180 0.73600 -0.29800
C 	C 	0.20580 0.03450 0.66230 0.22400
C 	C 	0.03430 0.67910 0.51700 -0.00900
C 	C 	0.50990 0.79180 0.23600 -0.29900
C 	C 	0.34620 0.32190 0.80810 0.31800
C 	C 	0.53430 0.82090 0.98300 -0.00800
C 	C 	0.94460 0.25550 0.70390 0.07900
C 	C 	0.05200 0.98710 0.32360 -0.24800
C 	C 	0.13010 0.66960 0.16500 0.03700
C 	C 	0.87540 0.03060 0.16060 -0.02600
C 	C 	0.79690 0.79430 0.21390 -0.12900
C 	C 	0.96830 0.17280 0.09340 -0.01000
C 	C 	0.23270 0.39980 0.79850 -0.04100
C 	C 	0.76920 0.88390 0.83600 -0.65800
C 	C 	0.33260 0.98520 0.84670 -0.68000
C 	C 	0.66090 0.79600 0.37060 -0.24700
C 	C 	0.52590 0.61830 0.88780 -0.13600
C 	C 	0.24880 0.70910 0.39720 -0.13100
C 	C 	0.78140 0.14910 0.71990 -0.06600
C 	C 	0.96560 0.96080 0.34280 0.03300
C 	C 	0.60140 0.61490 0.80690 -0.11800
C 	C 	0.44460 0.24450 0.79610 0.08000
C 	C 	0.92680 0.49190 0.74800 -0.05100
C 	C 	0.57200 0.52190 0.22500 0.02900
C 	C 	0.13560 0.83110 0.35480 -0.92900
C 	C 	0.31770 0.92000 0.26140 -0.02400
C 	C 	0.46830 0.32720 0.40660 -0.00600
C 	C 	0.95760 0.63070 0.73970 -0.08400
C 	C 	0.82690 0.83560 0.82650 0.17500
C 	C 	0.03710 0.30320 0.51590 -0.19500
C 	C 	0.41890 0.63450 0.81590 -0.13700
C 	C 	0.83500 0.59880 0.28560 -0.06100
C 	C 	0.75120 0.29090 0.60280 -0.13100
C 	C 	0.47860 0.45490 0.32190 -0.20700
C 	C 	0.91200 0.79310 0.61810 -0.13700
C 	C 	0.21270 0.31610 0.66920 0.22900
C 	C 	0.86990 0.33040 0.83500 0.03700
C 	C 	0.70580 0.83510 0.96600 -0.00700
C 	C 	0.20310 0.20570 0.78610 -0.12900
C 	C 	0.44080 0.63600 0.03650 -0.62900
C 	C 	0.55920 0.36400 0.96350 -0.62900
C 	C 	0.84910 0.66170 0.36860 -0.69100
C 	C 	0.05920 0.13600 0.53650 -0.62800
C 	C 	0.20580 0.66490 0.53400 -0.00700
C 	C 	0.28800 0.02360 0.68940 -0.03400
C 	C 	0.45630 0.81050 0.49750 -0.68100
C 	C 	0.25410 0.28540 0.28340 -0.04200
C 	C 	0.32690 0.66440 0.67350 0.17400
C 	C 	0.74080 0.76390 0.37510 0.03700
C 	C 	0.12060 0.52840 0.17710 -0.04600
C 	C 	0.66500 0.09880 0.78560 -0.06100
C 	C 	0.45890 0.23630 0.14880 -0.13300
C 	C 	0.37540 0.46940 0.33940 -0.03000
C 	C 	0.78800 0.47640 0.81060 -0.03300
C 	C 	0.83910 0.29600 0.87060 -0.24700
C 	C 	0.14430 0.90780 0.46080 -0.07900
C 	C 	0.34910 0.83830 0.13140 -0.69100
C 	C 	0.03170 0.82720 0.90660 -0.01000
C 	C 	0.33500 0.90120 0.21440 -0.06100
C 	C 	0.78890 0.64760 0.28990 -0.02200
C 	C 	0.28890 0.85240 0.21010 -0.02200
C 	C 	0.56320 0.72170 0.60380 -0.06900
C 	C 	0.53420 0.49000 0.29660 0.00600
C 	C 	0.02590 0.88170 0.61220 -0.13600
C 	C 	0.46290 0.80320 0.01590 -0.19600
C 	C 	0.14320 0.35660 0.27010 -0.06200
C 	C 	0.85570 0.09220 0.53920 -0.07900
C 	C 	0.83260 0.51480 0.65330 -0.67800
C 	C 	0.48360 0.86880 0.71170 -0.04700
C 	C 	0.18610 0.80290 0.67020 -0.11500
C 	C 	0.40660 0.68110 0.64670 -0.01200
C 	C 	0.63060 0.24200 0.64520 -0.13400
C 	C 	0.23530 0.72710 0.78230 -0.19500
C 	C 	0.72130 0.01270 0.19780 0.19700
C 	C 	0.35020 0.79990 0.49400 0.20100
C 	C 	0.65090 0.16170 0.86860 -0.69100
C 	C 	0.77870 0.51270 0.69780 0.19700
C 	C 	0.90410 0.33480 0.13090 -0.72000
C 	C 	0.16090 0.70400 0.12940 -0.24700
C 	C 	0.94320 0.47920 0.79310 -0.02100
C 	C 	0.83780 0.88690 0.11260 -0.14400
C 	C 	0.62060 0.97160 0.32290 -0.04500
C 	C 	0.30040 0.66730 0.51580 -0.21700
C 	C 	0.46900 0.33300 0.96970 0.16300
C 	C 	0.04370 0.31050 0.99750 -0.68500
C 	C 	0.17550 0.50070 0.26170 -0.02100
C 	C 	0.58800 0.29310 0.11810 -0.13800
C 	C 	0.97950 0.81710 0.18410 -0.12100
C 	C 	0.64350 0.28200 0.47700 0.01000
C 	C 	0.05540 0.74450 0.29610 0.07900
C 	C 	0.16740 0.48520 0.34670 -0.67800
C 	C 	0.18230 0.42000 0.76140 -0.02500
C 	C 	0.87940 0.47160 0.82290 -0.04600
C 	C 	0.94530 0.32830 0.77150 0.05700
C 	C 	0.78620 0.65930 0.02120 -0.01200
C 	C 	0.54240 0.13070 0.23970 -0.08600
C 	C 	0.59340 0.31890 0.35330 -0.01200
C 	C 	0.64980 0.20010 0.50600 0.20100
C 	C 	0.25120 0.20910 0.89720 -0.13100
C 	C 	0.79420 0.96550 0.33770 0.22400
C 	C 	0.99080 0.24910 0.13600 -0.02500
C 	C 	0.71860 0.64910 0.21990 -0.06600
C 	C 	0.96580 0.99000 0.79660 0.01500
C 	C 	0.41200 0.70690 0.88190 -0.13800
C 	C 	0.77760 0.94640 0.38360 -0.71200
C 	C 	0.92800 0.02190 0.72500 0.03100
C 	C 	0.40410 0.16520 0.36910 -0.72000
C 	C 	0.35570 0.40780 0.96080 -0.07800
C 	C 	0.07320 0.50810 0.25200 -0.05100
C 	C 	0.84620 0.17810 0.69190 0.31800
C 	C 	0.35650 0.71800 0.52300 0.01000
C 	C 	0.28140 0.35090 0.78010 -0.06600
C 	C 	0.75800 0.07790 0.53810 -0.00800
C 	C 	0.71200 0.97640 0.31060 -0.03400
C 	C 	0.12460 0.96940 0.83940 -0.02600
C 	C 	0.55420 0.25340 0.98600 -0.01200
C 	C 	0.52650 0.80310 0.65490 0.21600
C 	C 	0.36440 0.33110 0.85480 -0.92900
C 	C 	0.89860 0.11490 0.30690 -0.11900
C 	C 	0.76470 0.27290 0.21770 -0.19500
C 	C 	0.32450 0.00070 0.76170 -0.02200
C 	C 	0.97860 0.04510 0.17810 -0.21800
C 	C 	0.25920 0.23610 0.62490 0.03700
C 	C 	0.26920 0.61610 0.66400 -0.65700
C 	C 	0.54370 0.18950 0.50250 -0.68100
C 	C 	0.03420 0.01000 0.20340 0.01500
C 	C 	0.97350 0.30310 0.15490 0.21500
C 	C 	0.26730 0.89980 0.29850 -0.04100
C 	C 	0.70580 0.46550 0.83770 0.22300
C 	C 	0.74200 0.57790 0.03810 -0.00800
C 	C 	0.97410 0.11830 0.38780 -0.13600
C 	C 	0.02140 0.95490 0.82190 -0.21800
C 	C 	0.86940 0.74200 0.14520 -0.13400
C 	C 	0.35680 0.85660 0.77010 -0.06200
C 	C 	0.62560 0.64180 0.03180 -0.00800
C 	C 	0.66740 0.01480 0.15330 -0.68000
C 	C 	0.68610 0.69710 0.82980 -0.11500
C 	C 	0.08110 0.13450 0.31590 -0.13600
C 	C 	0.04210 0.14870 0.11220 -0.06900
C 	C 	0.50920 0.74910 0.63600 -0.02300
C 	C 	0.69080 0.10860 0.52830 -0.07000
C 	C 	0.10140 0.88510 0.69310 -0.11900
C 	C 	0.94520 0.81150 0.09940 -0.13400
C 	C 	0.11950 0.07370 0.77370 -0.11600
C 	C 	0.19080 0.39140 0.97170 -0.07000
C 	C 	0.06320 0.77830 0.89620 -0.06600
C 	C 	0.55540 0.75550 0.20390 0.08000
C 	C 	0.07200 0.97810 0.27500 0.03100
C 	C 	0.87440 0.14180 0.53180 -0.00800
C 	C 	0.39630 0.29650 0.09110 -0.10300
C 	C 	0.33910 0.20400 0.62940 -0.24700
C 	C 	0.00990 0.70820 0.26400 -0.29800
C 	C 	0.43680 0.27830 0.39620 -0.06900
C 	C 	0.61950 0.42630 0.72630 -0.11600
C 	C 	0.70340 0.85860 0.16710 -0.12400
C 	C 	0.72350 0.80590 0.76120 -0.00300
C 	C 	0.29420 0.53450 0.16230 0.22300
C 	C 	0.14980 0.29990 0.99400 0.20100
C 	C 	0.44520 0.68850 0.40060 -0.13400
C 	C 	0.81390 0.19710 0.32980 -0.11500
C 	C 	0.62460 0.53060 0.66060 -0.03000
C 	C 	0.53440 0.46080 0.84280 0.03100
C 	C 	0.88050 0.92630 0.22630 -0.11600
C 	C 	0.02650 0.69690 0.84510 0.21500
C 	C 	0.05680 0.52080 0.20690 -0.02100
C 	C 	0.71110 0.14760 0.78990 -0.02200
C 	C 	0.46580 0.51000 0.70340 0.00600
C 	C 	0.16500 0.40120 0.71440 -0.06100
C 	C 	0.21110 0.35240 0.71010 -0.02200
C 	C 	0.64430 0.59220 0.03920 -0.07800
C 	C 	0.94080 0.86400 0.46350 -0.62800
C 	C 	0.90660 0.81890 0.85330 -0.01300
C 	C 	0.73080 0.38390 0.33600 -0.65700
C 	C 	0.95790 0.85130 0.88780 -0.06900
C 	C 	0.44580 0.74660 0.01400 -0.01200
C 	C 	0.79660 0.35860 0.66710 -0.12400
C 	C 	0.28620 0.84070 0.47880 -0.01100
C 	C 	0.24080 0.73610 0.12490 0.03700
C 	C 	0.05470 0.67170 0.22850 0.05700
C 	C 	0.55680 0.97920 0.29310 -0.02300
C 	C 	0.67310 0.33560 0.32650 0.17400
C 	C 	0.93680 0.22170 0.10380 -0.06600
C 	C 	0.39860 0.38510 0.19310 -0.11800
C 	C 	0.53710 0.19680 0.98410 -0.19600
C 	C 	0.46560 0.53920 0.15720 0.03100
C 	C 	0.54210 0.35130 0.38780 -0.07200
C 	C 	0.27870 0.98730 0.80220 0.19700
C 	C 	0.98360 0.63120 0.78830 -0.04600
C 	C 	0.63010 0.83040 0.33500 0.03700
C 	C 	0.24590 0.78540 0.78340 -0.04200
C 	C 	0.59590 0.83480 0.63090 -0.72000
C 	C 	0.89630 0.20350 0.40890 -0.10300
C 	C 	0.23080 0.11610 0.16400 -0.65800
C 	C 	0.78730 0.68390 0.33080 0.22900
C 	C 	0.29420 0.16490 0.03400 -0.00700
C 	C 	0.77650 0.30590 0.26120 -0.00300
C 	C 	0.68230 0.08000 0.73860 -0.02400
C 	C 	0.70310 0.29430 0.71390 -0.12900
C 	C 	0.95630 0.68950 0.00250 -0.68500
C 	C 	0.27650 0.19410 0.23880 -0.00300
C 	C 	0.04110 0.73630 0.64880 -0.13300
C 	C 	0.76730 0.60020 0.20150 -0.04100
C 	C 	0.29660 0.14140 0.83290 -0.12400
C 	C 	0.52050 0.31710 0.68410 -0.12100
C 	C 	0.17310 0.16440 0.17350 0.17500
C 	C 	0.19960 0.16730 0.01580 -0.21600
C 	C 	0.66220 0.38690 0.61260 -0.14400
C 	C 	0.37940 0.02840 0.67710 -0.04500
C 	C 	0.50960 0.70680 0.77920 -0.13300
C 	C 	0.08800 0.20690 0.38190 -0.13700
C 	C 	0.80920 0.60860 0.02830 -0.07000
C 	C 	0.44800 0.48710 0.82360 -0.24400
C 	C 	0.82450 0.49930 0.73830 -0.02100
C 	C 	0.72240 0.44640 0.88360 -0.71100
C 	C 	0.22130 0.48730 0.30220 0.19700
C 	C 	0.29690 0.70570 0.28610 -0.12900
C 	C 	0.12560 0.85820 0.46820 -0.00800
C 	C 	0.71270 0.18390 0.83080 0.22900
C 	C 	0.71380 0.15930 0.52120 -0.01100
C 	C 	0.85680 0.64340 0.72990 -0.06200
C 	C 	0.10370 0.79650 0.59110 -0.10300
C 	C 	0.53170 0.67280 0.59340 -0.00600
C 	C 	0.28730 0.81610 0.16920 0.22900
C 	C 	0.94800 0.01290 0.67640 -0.24800
C 	C 	0.33780 0.61310 0.38740 -0.14400
C 	C 	0.14350 0.21800 0.02300 0.00900
C 	C 	0.44320 0.02080 0.70690 -0.02300
C 	C 	0.85020 0.70010 0.00600 0.20100
C 	C 	0.30920 0.89140 0.47170 -0.07000
C 	C 	0.09340 0.18110 0.14670 -0.01300
C 	C 	0.85650 0.78200 0.97700 0.00900
C 	C 	0.44530 0.17170 0.72850 0.05700
C 	C 	0.00920 0.75090 0.86400 -0.02500
C 	C 	0.49010 0.20820 0.76400 -0.29900
C 	C 	0.21380 0.34070 0.97880 -0.01200
C 	C 	0.46570 0.17910 0.01700 -0.00800
C 	C 	0.96570 0.32090 0.48300 -0.00900
C 	C 	0.24200 0.92210 0.46190 -0.00800
C 	C 	0.75410 0.21460 0.21660 -0.04200
C 	C 	0.49040 0.29320 0.22080 -0.13300
C 	C 	0.99040 0.20680 0.27920 -0.13400
C 	C 	0.45760 0.86930 0.76030 -0.08600
C 	C 	0.42680 0.00810 0.75200 -0.05000
C 	C 	0.15090 0.33830 0.63140 -0.69100
C 	C 	0.55200 0.51290 0.17640 -0.24400
C 	C 	0.80040 0.83270 0.98420 -0.21600
C 	C 	0.81770 0.58000 0.23860 -0.02500
C 	C 	0.53100 0.66700 0.03030 0.16300
C 	C 	0.01640 0.36880 0.21170 -0.04600
C 	C 	0.47950 0.68290 0.31590 -0.12100
C 	C 	0.27760 0.55360 0.11640 -0.71100
C 	C 	0.52140 0.54510 0.67810 -0.20700
C 	C 	0.22240 0.05360 0.61640 -0.71200
C 	C 	0.37440 0.35820 0.96820 -0.00800
C 	C 	0.51640 0.13120 0.28830 -0.04700
C 	C 	0.91890 0.86550 0.68410 -0.13600
C 	C 	0.02050 0.18290 0.81590 -0.12100
C 	C 	0.38050 0.57370 0.27370 -0.11600
C 	C 	0.15380 0.82190 0.30810 0.31800
C 	C 	0.05420 0.24660 0.51400 -0.01200
C 	C 	0.67550 0.99930 0.23830 -0.02200
C 	C 	0.60370 0.70350 0.90890 -0.10300
C 	C 	0.03100 0.83300 0.46970 0.16200
C 	C 	0.49080 0.25090 0.36400 -0.02300
C 	C 	0.21200 0.52360 0.18940 -0.03300
C 	C 	0.73270 0.10020 0.70150 -0.04100
C 	C 	0.73530 0.77290 0.71770 -0.19500
C 	C 	0.42800 0.47810 0.77500 0.02900
C 	C 	0.74590 0.71460 0.71660 -0.04200
C 	C 	0.65380 0.67810 0.19190 0.31800
C 	C 	0.03440 0.03920 0.65720 0.03300
C 	C 	0.58110 0.36550 0.18410 -0.13700
C 	C 	0.36990 0.16960 0.66500 0.03700
C 	C 	0.95890 0.26370 0.35120 -0.13300
C 	C 	0.26470 0.22710 0.28230 -0.19500
C 	C 	0.20340 0.64140 0.33290 -0.12400
C 	C 	0.94580 0.75340 0.48600 -0.01200
C 	C 	0.79420 0.33510 0.46600 -0.00700
C 	C 	0.86440 0.16890 0.64520 -0.92900
C 	C 	0.13060 0.25800 0.85480 -0.13400
C 	C 	0.22350 0.69410 0.73880 -0.00300
C 	C 	0.64320 0.14340 0.22990 -0.06200
C 	C 	0.25800 0.42210 0.96190 -0.00800
C 	C 	0.00960 0.79320 0.72080 -0.13400
C 	C 	0.21860 0.85090 0.28010 -0.06600
C 	C 	0.74880 0.79090 0.10280 -0.13100
C 	C 	0.45790 0.64870 0.61220 -0.07200
C 	C 	0.96290 0.69680 0.48410 -0.19500
C 	C 	0.75920 0.26390 0.87510 0.03700
C 	C 	0.47410 0.38170 0.11220 -0.13600
C 	C 	0.05480 0.18850 0.90060 -0.13400
C 	C 	0.69960 0.33270 0.48420 -0.21700
C 	C 	0.55470 0.82830 0.27150 0.05700
C 	C 	0.09590 0.66520 0.86910 -0.72000
C 	C 	0.36940 0.75800 0.35480 -0.13400
C 	C 	0.47350 0.19690 0.34510 0.21600
N 	N 	0.52980 0.71540 0.02310 -0.25100
N 	N 	0.64060 0.39110 0.20140 -0.09200
N 	N 	0.50090 0.69650 0.42940 -0.08700
N 	N 	0.63140 0.57830 0.78850 -0.18900
N 	N 	0.68780 0.52030 0.70090 -0.26300
N 	N 	0.30210 0.22810 0.92490 -0.20100
N 	N 	0.30350 0.32730 0.97730 -0.22500
N 	N 	0.75120 0.22100 0.83610 -0.27700
N 	N 	0.26490 0.79480 0.67780 -0.19300
N 	N 	0.01050 0.22530 0.24730 -0.18200
N 	N 	0.80260 0.80200 0.79180 -0.25000
N 	N 	0.22870 0.22220 0.75340 -0.18700
N 	N 	0.43480 0.72780 0.65520 -0.22200
N 	N 	0.80210 0.27190 0.57510 -0.20100
N 	N 	0.73520 0.99030 0.27040 -0.21600
N 	N 	0.13140 0.92170 0.71150 -0.18900
N 	N 	0.44740 0.30970 0.70050 -0.19200
N 	N 	0.09240 0.70550 0.19850 -0.28500
N 	N 	0.98670 0.98920 0.75000 -0.28700
N 	N 	0.19740 0.19800 0.20820 -0.25000
N 	N 	0.34260 0.80200 0.77040 -0.25700
N 	N 	0.05260 0.80970 0.20050 -0.19200
N 	N 	0.38220 0.28230 0.78450 -0.31600
N 	N 	0.19650 0.82730 0.47730 -0.22500
N 	N 	0.73710 0.67150 0.26050 -0.22400
N 	N 	0.63110 0.81440 0.99640 -0.27600
N 	N 	0.19790 0.72810 0.42490 -0.20100
N 	N 	0.61700 0.19890 0.64180 -0.08900
N 	N 	0.87100 0.37760 0.67250 -0.09000
N 	N 	0.86890 0.31440 0.49640 -0.27600
N 	N 	0.84480 0.77950 0.59800 -0.08900
N 	N 	0.00090 0.80350 0.07060 -0.08800
N 	N 	0.13110 0.68560 0.50360 -0.27600
N 	N 	0.15520 0.22050 0.40200 -0.08900
N 	N 	0.94740 0.19030 0.79950 -0.19200
N 	N 	0.63050 0.39120 0.70100 -0.17500
N 	N 	0.47020 0.28460 0.97690 -0.25100
N 	N 	0.69790 0.77190 0.07510 -0.20100
N 	N 	0.24880 0.77900 0.16390 -0.27700
N 	N 	0.98950 0.77470 0.75270 -0.18200
N 	N 	0.37100 0.12240 0.82750 -0.09000
N 	N 	0.30260 0.69800 0.70820 -0.25000
N 	N 	0.84260 0.69800 0.72960 -0.25700
N 	N 	0.23710 0.82850 0.23950 -0.22400
N 	N 	0.56520 0.27220 0.34480 -0.22200
N 	N 	0.88300 0.69890 0.14180 -0.08900
N 	N 	0.62900 0.87760 0.17250 -0.09000
N 	N 	0.02000 0.31760 0.18900 -0.25900
N 	N 	0.23520 0.50970 0.22960 -0.21600
N 	N 	0.36890 0.18560 0.00360 -0.27600
N 	N 	0.02980 0.78460 0.47690 -0.25100
N 	N 	0.85940 0.89110 0.70140 -0.09200
N 	N 	0.14060 0.10890 0.29860 -0.09200
N 	N 	0.54120 0.80840 0.85560 -0.08900
N 	N 	0.88220 0.21770 0.71550 -0.31600
N 	N 	0.77130 0.77780 0.24660 -0.18700
N 	N 	0.23510 0.29480 0.17780 -0.19300
N 	N 	0.06520 0.22780 0.15520 -0.22100
N 	N 	0.80350 0.17270 0.52270 -0.22500
N 	N 	0.80850 0.74070 0.99590 -0.26300
N 	N 	0.69150 0.24070 0.49590 -0.26300
N 	N 	0.16840 0.07900 0.90990 -0.08500
N 	N 	0.36950 0.60880 0.29900 -0.17500
N 	N 	0.48000 0.81760 0.68900 -0.26000
N 	N 	0.31220 0.47970 0.29910 -0.26300
N 	N 	0.61780 0.71770 0.21550 -0.31600
N 	N 	0.51950 0.58690 0.91070 -0.08400
N 	N 	0.48670 0.51080 0.75000 -0.28600
N 	N 	0.45880 0.19160 0.14440 -0.08900
N 	N 	0.04120 0.69160 0.64440 -0.08900
N 	N 	0.40760 0.20550 0.69850 -0.28500
N 	N 	0.25120 0.27900 0.66390 -0.27700
N 	N 	0.11780 0.78230 0.28450 -0.31600
N 	N 	0.49910 0.30350 0.57060 -0.08700
N 	N 	0.62580 0.47400 0.82200 -0.27500
N 	N 	0.65520 0.27950 0.09800 -0.08900
N 	N 	0.74880 0.72100 0.33610 -0.27700
N 	N 	0.37420 0.52600 0.17800 -0.27500
N 	N 	0.48950 0.72530 0.74730 -0.18300
N 	N 	0.76490 0.70520 0.82220 -0.19300
N 	N 	0.52000 0.18240 0.31100 -0.26000
N 	N 	0.36860 0.42170 0.21150 -0.18900
N 	N 	0.26290 0.32850 0.73950 -0.22400
N 	N 	0.11700 0.30110 0.85820 -0.08900
N 	N 	0.38300 0.80110 0.35820 -0.08900
N 	N 	0.76290 0.17150 0.76050 -0.22400
N 	N 	0.98050 0.08690 0.41070 -0.08400
N 	N 	0.95880 0.30840 0.35560 -0.08900
N 	N 	0.83160 0.92100 0.09010 -0.08500
N 	N 	0.12900 0.62240 0.32750 -0.09000
N 	N 	0.97020 0.21540 0.52310 -0.25100
N 	N 	0.87420 0.97400 0.32200 -0.27600
N 	N 	0.93480 0.77220 0.84480 -0.22100
N 	N 	0.51050 0.27470 0.25270 -0.18300
N 	N 	0.86950 0.89120 0.20100 -0.17500
N 	N 	0.98000 0.68240 0.81100 -0.25900
N 	N 	0.66840 0.42100 0.59010 -0.08500
N 	N 	0.13050 0.10880 0.79900 -0.17500
N 	N 	0.19150 0.25930 0.00410 -0.26300
N 	N 	0.65740 0.19800 0.22960 -0.25700
N 	N 	0.86860 0.07830 0.28850 -0.18900
N 	N 	0.27130 0.72220 0.25340 -0.18700
N 	N 	0.73510 0.20520 0.32220 -0.19300
N 	N 	0.12580 0.02600 0.67800 -0.27600
N 	N 	0.15740 0.30200 0.27040 -0.25700
N 	N 	0.69650 0.67270 0.02270 -0.22500
N 	N 	0.33160 0.57900 0.40990 -0.08500
N 	N 	0.01950 0.91310 0.58930 -0.08400
N 	N 	0.51330 0.48920 0.25000 -0.28600
N 	N 	0.86250 0.21690 0.44290 -0.19400
N 	N 	0.35940 0.60890 0.79860 -0.09200
N 	N 	0.69740 0.30200 0.29180 -0.25000
N 	N 	0.18780 0.97970 0.79910 -0.26300
N 	N 	0.59240 0.79450 0.30150 -0.28500
N 	N 	0.26480 0.00970 0.72960 -0.21600
N 	N 	0.48050 0.41310 0.08930 -0.08400
N 	N 	0.55260 0.69030 0.29950 -0.19200
N 	N 	0.76480 0.49030 0.77040 -0.21600
N 	N 	0.30850 0.75930 0.50410 -0.26300
N 	N 	0.72870 0.27780 0.74660 -0.18700
N 	N 	0.90760 0.29450 0.80150 -0.28500
N 	N 	0.36250 0.28310 0.05710 -0.19400
N 	N 	0.63750 0.71690 0.94290 -0.19400
N 	N 	0.13750 0.78310 0.55710 -0.19400
N 	N 	0.01330 0.01080 0.25000 -0.28700
N 	N 	0.81220 0.02030 0.20090 -0.26300
N 	N 	0.34480 0.72050 0.90200 -0.08900
N 	N 	0.99910 0.19650 0.92940 -0.08800
