data_crystal

_cell_length_a 29.01280
_cell_length_b 29.01290
_cell_length_c 29.01290
_cell_angle_alpha 72.18880
_cell_angle_beta  72.18890
_cell_angle_gamma 112.84500

_symmetry_space_group_name_	'P 1'
_symmetry_space_group_name_H-M	'P 1'

loop_
_symmetry_equiv_pos_as_xyz
  x,y,z

loop_
_atom_site_label
_atom_site_type_symbol
_atom_site_fract_x
_atom_site_fract_y
_atom_site_fract_z
_atom_site_charge
In	In	0.83798 0.77124 0.14398 2.00200
In	In	0.36237 0.34355 0.22674 2.00700
In	In	0.04022 0.37450 0.38012 1.99700
In	In	0.08478 0.51804 0.64398 2.00200
In	In	0.13763 0.41089 0.51882 2.00700
In	In	0.74538 0.12550 0.33428 1.99700
In	In	0.07029 0.84355 0.01882 2.00600
In	In	0.57029 0.08911 0.27326 2.00700
In	In	0.24538 0.07966 0.88012 1.99700
In	In	0.95978 0.62550 0.61988 1.99700
In	In	0.75462 0.92034 0.11988 1.99700
In	In	0.16202 0.22876 0.85602 2.00200
In	In	0.54022 0.42034 0.83428 1.99700
In	In	0.92971 0.15645 0.98118 2.00600
In	In	0.25462 0.87450 0.66572 1.99700
In	In	0.41522 0.27124 0.06674 2.00200
In	In	0.42971 0.91089 0.72674 2.00600
In	In	0.33798 0.98196 0.43326 2.00100
In	In	0.91522 0.48196 0.35602 2.00100
In	In	0.66202 0.01804 0.56674 2.00100
In	In	0.45978 0.57966 0.16572 1.99600
In	In	0.63763 0.65645 0.77326 2.00600
In	In	0.86237 0.58911 0.48118 2.00600
In	In	0.58478 0.72876 0.93326 2.00100
H 	H 	0.35840 0.81550 0.22850 0.13200
H 	H 	0.07100 0.83340 0.50740 0.07200
H 	H 	0.45910 0.05630 0.17860 0.07000
H 	H 	0.02100 0.86980 0.34180 0.05100
H 	H 	0.05460 0.83610 0.70970 0.07500
H 	H 	0.50140 0.85780 0.07600 0.04500
H 	H 	0.62120 0.68840 0.51740 0.04300
H 	H 	0.35360 0.31310 0.72950 0.06100
H 	H 	0.84050 0.90840 0.53410 0.04500
H 	H 	0.34130 0.52490 0.43120 0.06700
H 	H 	0.29420 0.81160 0.06720 0.04300
H 	H 	0.36770 0.93620 0.96750 0.03800
H 	H 	0.71340 0.03010 0.72690 0.06400
H 	H 	0.54400 0.31550 0.54290 0.13200
H 	H 	0.77300 0.50320 0.14120 0.03700
H 	H 	0.86350 0.85630 0.77740 0.04300
H 	H 	0.61510 0.95840 0.96410 0.03900
H 	H 	0.47900 0.63720 0.65120 0.05100
H 	H 	0.58180 0.20430 0.79110 0.03200
H 	H 	0.91410 0.40880 0.00310 0.12500
H 	H 	0.24010 0.08620 0.43050 0.05900
H 	H 	0.13270 0.03350 0.64040 0.03500
H 	H 	0.42620 0.49840 0.58540 0.12700
H 	H 	0.25990 0.32940 0.65390 0.06000
H 	H 	0.85360 0.08310 0.45950 0.06100
H 	H 	0.79420 0.36140 0.01740 0.04300
H 	H 	0.01800 0.43040 0.07020 0.12500
H 	H 	0.07750 0.92080 0.46410 0.04000
H 	H 	0.55460 0.76430 0.28150 0.07400
H 	H 	0.50460 0.29570 0.62250 0.03200
H 	H 	0.54390 0.97510 0.18360 0.06800
H 	H 	0.28840 0.63020 0.84880 0.05100
H 	H 	0.58380 0.70970 0.47930 0.12900
H 	H 	0.26510 0.44370 0.59720 0.06900
H 	H 	0.44250 0.87460 0.96590 0.04500
H 	H 	0.22700 0.49680 0.85880 0.03700
H 	H 	0.49540 0.70430 0.37750 0.03200
H 	H 	0.74010 0.67060 0.34610 0.06000
H 	H 	0.13650 0.14370 0.22260 0.04300
H 	H 	0.47690 0.37120 0.29490 0.06300
H 	H 	0.14590 0.05390 0.38100 0.03700
H 	H 	0.76540 0.80110 0.82850 0.07500
H 	H 	0.43490 0.02690 0.11900 0.03600
H 	H 	0.93490 0.55390 0.09200 0.04000
H 	H 	0.11510 0.57920 0.84330 0.04000
H 	H 	0.99540 0.87290 0.70890 0.02900
H 	H 	0.25130 0.73670 0.92880 0.05200
H 	H 	0.69130 0.83310 0.30460 0.08000
H 	H 	0.33450 0.31990 0.42880 0.05200
H 	H 	0.06620 0.92260 0.57600 0.04600
H 	H 	0.50680 0.93380 0.13600 0.03600
H 	H 	0.08380 0.51160 0.91460 0.12700
H 	H 	0.44540 0.23570 0.71850 0.07400
H 	H 	0.19130 0.99590 0.64180 0.08100
H 	H 	0.99860 0.42260 0.14360 0.04800
H 	H 	0.56620 0.64220 0.35640 0.04500
H 	H 	0.40370 0.43620 0.43150 0.03800
H 	H 	0.05750 0.59160 0.06790 0.04500
H 	H 	0.66380 0.01710 0.08590 0.07700
H 	H 	0.97900 0.13020 0.65820 0.05100
H 	H 	0.66610 0.27180 0.20510 0.06300
H 	H 	0.95910 0.63770 0.09720 0.06600
H 	H 	0.30870 0.16690 0.69540 0.08000
H 	H 	0.43550 0.62230 0.60220 0.12800
H 	H 	0.23460 0.19890 0.17150 0.07500
H 	H 	0.26540 0.59390 0.53570 0.07500
H 	H 	0.81100 0.43690 0.97930 0.12900
H 	H 	0.49860 0.14220 0.92400 0.04500
H 	H 	0.45600 0.68450 0.45710 0.13200
H 	H 	0.91190 0.90880 0.50530 0.12500
H 	H 	0.64640 0.68690 0.27050 0.06100
H 	H 	0.49940 0.41180 0.57020 0.12700
H 	H 	0.41190 0.41720 0.49690 0.12500
H 	H 	0.95740 0.41690 0.22950 0.06000
H 	H 	0.83620 0.25030 0.14670 0.07700
H 	H 	0.64160 0.18450 0.77150 0.13200
H 	H 	0.84080 0.33340 0.23760 0.07200
H 	H 	0.58590 0.08280 0.00530 0.12600
H 	H 	0.85840 0.58690 0.95710 0.13200
H 	H 	0.10300 0.24970 0.41410 0.07700
H 	H 	0.04090 0.36230 0.90280 0.06600
H 	H 	0.57380 0.50160 0.41460 0.12700
H 	H 	0.95600 0.91310 0.72850 0.13200
H 	H 	0.93020 0.85720 0.63600 0.03700
H 	H 	0.98200 0.56960 0.92980 0.12500
H 	H 	0.00460 0.12710 0.29110 0.02900
H 	H 	0.22450 0.53770 0.89780 0.12800
H 	H 	0.15950 0.09160 0.46590 0.04500
H 	H 	0.86230 0.50410 0.80460 0.08000
H 	H 	0.87880 0.86140 0.43280 0.04300
H 	H 	0.36350 0.64090 0.49280 0.04300
H 	H 	0.15870 0.22750 0.31640 0.06700
H 	H 	0.18900 0.56310 0.02070 0.12900
H 	H 	0.12960 0.30110 0.96430 0.07600
H 	H 	0.13370 0.35630 0.00720 0.04200
H 	H 	0.85560 0.99680 0.73020 0.03800
H 	H 	0.74870 0.26330 0.07120 0.05200
H 	H 	0.87040 0.69890 0.03570 0.07600
H 	H 	0.21340 0.44030 0.81670 0.06500
H 	H 	0.54260 0.81310 0.04050 0.06200
H 	H 	0.08810 0.09120 0.49470 0.12500
H 	H 	0.92900 0.16660 0.49260 0.07200
H 	H 	0.59630 0.56380 0.56850 0.03800
H 	H 	0.17390 0.53350 0.09920 0.03600
H 	H 	0.50060 0.58820 0.42980 0.12700
H 	H 	0.45420 0.73570 0.20970 0.07400
H 	H 	0.23490 0.13770 0.32140 0.06900
H 	H 	0.92250 0.07920 0.53590 0.04000
H 	H 	0.21160 0.86280 0.15820 0.05100
H 	H 	0.78840 0.13720 0.84180 0.05100
H 	H 	0.41620 0.29030 0.52070 0.12900
H 	H 	0.71160 0.36980 0.15120 0.05100
H 	H 	0.51800 0.08820 0.91240 0.12700
H 	H 	0.63370 0.14090 0.72260 0.04300
H 	H 	0.93380 0.07740 0.42400 0.04600
H 	H 	0.49320 0.06620 0.86400 0.03600
H 	H 	0.06510 0.44610 0.90800 0.04000
H 	H 	0.24870 0.81990 0.01460 0.05100
H 	H 	0.04580 0.33610 0.21850 0.07400
H 	H 	0.41820 0.79570 0.20890 0.03200
H 	H 	0.74300 0.46990 0.31670 0.06400
H 	H 	0.98330 0.41380 0.84610 0.05900
H 	H 	0.94250 0.40840 0.93210 0.04500
H 	H 	0.55750 0.12540 0.03410 0.04500
H 	H 	0.13770 0.49590 0.19540 0.08000
H 	H 	0.99940 0.06960 0.41240 0.12700
H 	H 	0.13230 0.66480 0.93150 0.03900
H 	H 	0.76510 0.86230 0.67860 0.06900
H 	H 	0.00140 0.57740 0.85640 0.04800
H 	H 	0.56980 0.43380 0.57300 0.03700
H 	H 	0.14640 0.91690 0.54050 0.06100
H 	H 	0.75130 0.18010 0.98540 0.05100
H 	H 	0.07380 0.98840 0.42780 0.12700
H 	H 	0.94540 0.16390 0.29030 0.07500
H 	H 	0.48330 0.82940 0.93050 0.06000
H 	H 	0.39700 0.48290 0.35330 0.07700
H 	H 	0.80870 0.00410 0.35820 0.08100
H 	H 	0.91820 0.62710 0.87750 0.03100
H 	H 	0.70580 0.18840 0.93280 0.04300
H 	H 	0.45740 0.18690 0.95950 0.06200
H 	H 	0.77550 0.46230 0.10220 0.12800
H 	H 	0.32610 0.72690 0.14040 0.03700
H 	H 	0.85410 0.94610 0.61900 0.03700
H 	H 	0.52100 0.36280 0.34880 0.05100
H 	H 	0.36730 0.22690 0.59920 0.03700
H 	H 	0.00060 0.93040 0.58760 0.12700
H 	H 	0.01670 0.58620 0.15390 0.05900
H 	H 	0.67390 0.27310 0.85960 0.03700
H 	H 	0.08180 0.37290 0.12250 0.03100
H 	H 	0.57100 0.57840 0.26240 0.07200
H 	H 	0.02310 0.22820 0.60570 0.06300
H 	H 	0.86730 0.96650 0.35960 0.03500
H 	H 	0.16610 0.87120 0.10570 0.06300
H 	H 	0.62960 0.09390 0.67150 0.07500
H 	H 	0.14440 0.00320 0.26980 0.03800
H 	H 	0.63270 0.77310 0.40080 0.03700
H 	H 	0.86630 0.64370 0.99280 0.04200
H 	H 	0.34050 0.37460 0.56790 0.04500
H 	H 	0.86770 0.33520 0.06850 0.03900
H 	H 	0.42250 0.45840 0.65670 0.04000
H 	H 	0.04390 0.72750 0.93120 0.06300
H 	H 	0.37040 0.90610 0.32850 0.07500
H 	H 	0.97690 0.77180 0.39430 0.06300
H 	H 	0.08590 0.59120 0.99690 0.12500
H 	H 	0.12120 0.13860 0.56720 0.04300
H 	H 	0.75700 0.94030 0.77310 0.06400
H 	H 	0.65870 0.47510 0.56880 0.06700
H 	H 	0.93550 0.03770 0.68680 0.12800
H 	H 	0.92620 0.01160 0.57220 0.12700
H 	H 	0.99320 0.35720 0.07300 0.04400
H 	H 	0.84130 0.77250 0.68360 0.06700
H 	H 	0.06450 0.96230 0.31320 0.12800
H 	H 	0.83390 0.12880 0.89430 0.06300
H 	H 	0.33620 0.98290 0.91410 0.07700
H 	H 	0.14160 0.41310 0.04290 0.13200
H 	H 	0.58380 0.99840 0.92780 0.12800
H 	H 	0.37880 0.31160 0.48260 0.04300
H 	H 	0.90370 0.83520 0.53250 0.03800
H 	H 	0.95420 0.66390 0.78150 0.07400
H 	H 	0.91620 0.48840 0.08540 0.12700
H 	H 	0.38490 0.04160 0.03590 0.03900
H 	H 	0.25700 0.53010 0.68330 0.06400
H 	H 	0.95610 0.27250 0.06880 0.06300
H 	H 	0.63770 0.33310 0.85820 0.08000
H 	H 	0.64590 0.52690 0.40800 0.03700
H 	H 	0.41620 0.00160 0.07220 0.12800
H 	H 	0.82610 0.46650 0.90080 0.03600
H 	H 	0.52310 0.62880 0.70510 0.06300
H 	H 	0.04260 0.58310 0.77050 0.06000
H 	H 	0.60300 0.51710 0.64670 0.07700
H 	H 	0.06980 0.14280 0.36400 0.03700
H 	H 	0.89700 0.75030 0.58590 0.07700
H 	H 	0.41410 0.91720 0.99470 0.12600
H 	H 	0.15920 0.66660 0.76240 0.07200
H 	H 	0.63230 0.06380 0.03250 0.03800
H 	H 	0.63650 0.35910 0.50720 0.04300
H 	H 	0.56450 0.37770 0.39780 0.12800
H 	H 	0.43020 0.56620 0.42700 0.03700
H 	H 	0.72450 0.12230 0.81320 0.12800
H 	H 	0.48200 0.91180 0.08760 0.12700
H 	H 	0.56510 0.97310 0.88100 0.03600
H 	H 	0.35560 0.58580 0.64120 0.03800
H 	H 	0.65920 0.92160 0.00740 0.07200
H 	H 	0.66550 0.68010 0.57120 0.05200
H 	H 	0.20580 0.63860 0.98260 0.04300
H 	H 	0.78660 0.55970 0.18330 0.06500
H 	H 	0.34080 0.07840 0.99260 0.07200
H 	H 	0.04400 0.08690 0.27150 0.13200
H 	H 	0.35410 0.47310 0.59200 0.03700
H 	H 	0.36630 0.85910 0.27740 0.04300
H 	H 	0.36230 0.66690 0.14180 0.08000
H 	H 	0.43380 0.35780 0.64360 0.04500
H 	H 	0.24300 0.05970 0.22690 0.06400
H 	H 	0.88490 0.42080 0.15670 0.04000
H 	H 	0.73490 0.55630 0.40280 0.06900
H 	H 	0.16380 0.74970 0.85330 0.07700
H 	H 	0.91620 0.93690 0.37410 0.13000
H 	H 	0.51670 0.17060 0.06950 0.06000
H 	H 	0.83450 0.76330 0.48540 0.05200
H 	H 	0.09630 0.16480 0.46750 0.03800
H 	H 	0.54580 0.26430 0.79030 0.07400
H 	H 	0.45610 0.02490 0.81640 0.06800
H 	H 	0.54090 0.94370 0.82140 0.07000
H 	H 	0.28660 0.96990 0.27310 0.06400
H 	H 	0.65950 0.62540 0.43210 0.04500
H 	H 	0.58810 0.58280 0.50310 0.12500
H 	H 	0.27550 0.87770 0.18680 0.12800
H 	H 	0.64440 0.41420 0.35880 0.03800
H 	H 	0.00680 0.64280 0.92700 0.04400
H 	H 	0.72700 0.08580 0.76980 0.03800
H 	H 	0.75990 0.91380 0.56950 0.05900
H 	H 	0.68900 0.20970 0.87410 0.12900
H 	H 	0.73460 0.40610 0.46430 0.07500
H 	H 	0.16550 0.23670 0.51460 0.05200
H 	H 	0.33390 0.72820 0.79490 0.06300
H 	H 	0.31100 0.79030 0.12590 0.12900
H 	H 	0.08380 0.06310 0.62590 0.13000
H 	H 	0.42900 0.42160 0.73760 0.07200
H 	H 	0.27300 0.91420 0.23020 0.03800
H 	H 	0.57750 0.54160 0.34330 0.04000
C 	C 	0.24280 0.62490 0.92070 -0.02000
C 	C 	0.29870 0.46720 0.56230 -0.03400
C 	C 	0.58940 0.03750 0.97010 0.17300
C 	C 	0.05840 0.95680 0.67460 -0.05900
C 	C 	0.74110 0.28510 0.08760 0.00600
C 	C 	0.05820 0.38080 0.47560 0.28900
C 	C 	0.89640 0.85820 0.64340 -0.02900
C 	C 	0.42830 0.73410 0.19580 -0.05400
C 	C 	0.94740 0.98900 0.46100 0.16400
C 	C 	0.77880 0.92330 0.77630 -0.03100
C 	C 	0.85640 0.03380 0.02440 0.29400
C 	C 	0.87370 0.52900 0.81930 -0.04700
C 	C 	0.53720 0.55020 0.29680 -0.03100
C 	C 	0.41060 0.96250 0.02990 0.17300
C 	C 	0.01660 0.21730 0.45270 -0.03100
C 	C 	0.33870 0.79780 0.17650 0.18400
C 	C 	0.01280 0.55290 0.15190 -0.00000
C 	C 	0.98260 0.50060 0.20020 -0.08100
C 	C 	0.13550 0.66480 0.89790 -0.02400
C 	C 	0.00340 0.45720 0.36580 0.29900
C 	C 	0.11670 0.99350 0.65460 -0.00400
C 	C 	0.06270 0.16480 0.47070 -0.02400
C 	C 	0.65090 0.11890 0.72280 -0.02200
C 	C 	0.29920 0.31720 0.70020 -0.08000
C 	C 	0.03500 0.89790 0.69530 -0.00400
C 	C 	0.48640 0.33470 0.45450 0.17300
C 	C 	0.78080 0.14600 0.87120 -0.04400
C 	C 	0.46280 0.44980 0.70320 -0.03100
C 	C 	0.85090 0.65850 0.05740 -0.03400
C 	C 	0.34830 0.19300 0.68070 -0.04700
C 	C 	0.38180 0.98620 0.00460 -0.04900
C 	C 	0.87360 0.69310 0.47130 0.40100
C 	C 	0.42990 0.23410 0.69420 -0.05400
C 	C 	0.49780 0.85210 0.04650 -0.04400
C 	C 	0.24110 0.82870 0.04400 0.00500
C 	C 	0.19220 0.85900 0.09780 0.00200
C 	C 	0.29520 0.33530 0.65190 -0.00000
C 	C 	0.43730 0.46660 0.39790 -0.02400
C 	C 	0.71080 0.16530 0.84830 0.17300
C 	C 	0.84910 0.62630 0.03200 -0.01800
C 	C 	0.74930 0.71630 0.24640 0.33500
C 	C 	0.34320 0.36210 0.60070 -0.05000
C 	C 	0.64910 0.67440 0.30330 -0.00600
C 	C 	0.16130 0.48480 0.04090 0.18300
C 	C 	0.83000 0.28270 0.20070 -0.03000
C 	C 	0.67000 0.96930 0.04730 -0.03000
C 	C 	0.33700 0.58520 0.61940 -0.02600
C 	C 	0.67780 0.11460 0.75400 -0.03100
C 	C 	0.15090 0.37370 0.96800 -0.01800
C 	C 	0.64360 0.11920 0.32260 0.28900
C 	C 	0.72120 0.44490 0.35550 -0.03100
C 	C 	0.96280 0.16600 0.48700 -0.03000
C 	C 	0.84070 0.04320 0.07550 0.20100
C 	C 	0.94890 0.39950 0.39160 0.12600
C 	C 	0.04560 0.12490 0.61790 -0.02000
C 	C 	0.82300 0.86920 0.13420 0.30000
C 	C 	0.43840 0.65810 0.17530 0.26300
C 	C 	0.98280 0.84800 0.37120 -0.04500
C 	C 	0.04370 0.19170 0.89200 0.15900
C 	C 	0.97670 0.72400 0.57910 0.33700
C 	C 	0.10520 0.00790 0.52430 -0.03100
C 	C 	0.11820 0.61360 0.89560 -0.04500
C 	C 	0.20530 0.19050 0.31280 -0.04500
C 	C 	0.56270 0.53340 0.60210 -0.02400
C 	C 	0.97430 0.01520 0.32350 0.18700
C 	C 	0.43330 0.49200 0.35050 -0.03400
C 	C 	0.73190 0.17620 0.92490 -0.05100
C 	C 	0.95430 0.58940 0.05930 -0.03300
C 	C 	0.62630 0.30700 0.84470 -0.04700
C 	C 	0.65300 0.94980 0.01300 -0.03300
C 	C 	0.09890 0.24210 0.55480 -0.07500
C 	C 	0.12630 0.47100 0.18070 -0.04700
C 	C 	0.61280 0.66800 0.88140 0.19300
C 	C 	0.54570 0.98640 0.86490 -0.02000
C 	C 	0.35130 0.48640 0.55930 -0.02300
C 	C 	0.79540 0.54360 0.11940 -0.02400
C 	C 	0.47050 0.03280 0.16850 -0.03700
C 	C 	0.39480 0.37050 0.59730 -0.03000
C 	C 	0.50330 0.01810 0.18720 -0.04200
C 	C 	0.47090 0.94850 0.78700 0.31100
C 	C 	0.20480 0.05290 0.45990 0.00000
C 	C 	0.30780 0.71000 0.83320 0.00200
C 	C 	0.30040 0.94490 0.27630 -0.03100
C 	C 	0.96780 0.49210 0.90270 -0.02800
C 	C 	0.14810 0.49350 0.12320 -0.00800
C 	C 	0.49840 0.96020 0.14340 -0.02700
C 	C 	0.90680 0.60210 0.86290 -0.00900
C 	C 	0.56160 0.34190 0.82470 0.26300
C 	C 	0.51890 0.98330 0.17300 -0.02900
C 	C 	0.11280 0.49420 0.55520 0.19300
C 	C 	0.54940 0.99420 0.61860 0.19300
C 	C 	0.52950 0.96720 0.83150 -0.03700
C 	C 	0.86860 0.93180 0.74600 -0.03100
C 	C 	0.90000 0.90930 0.62470 -0.04800
C 	C 	0.17460 0.36570 0.88630 -0.01500
C 	C 	0.88180 0.38640 0.10440 -0.04500
C 	C 	0.31750 0.85030 0.21280 0.17400
C 	C 	0.45880 0.47170 0.65510 -0.02900
C 	C 	0.26450 0.24210 0.28700 0.31100
C 	C 	0.50920 0.51380 0.60440 -0.04500
C 	C 	0.38330 0.22870 0.62320 -0.00800
C 	C 	0.45630 0.06430 0.35200 0.15900
C 	C 	0.29690 0.74210 0.85680 -0.07400
C 	C 	0.91630 0.56430 0.39200 0.15900
C 	C 	0.38720 0.33200 0.11860 0.19300
C 	C 	0.35090 0.90830 0.30760 -0.03200
C 	C 	0.25200 0.56090 0.61370 -0.01600
C 	C 	0.11870 0.41620 0.42450 0.20200
C 	C 	0.55260 0.59160 0.45840 0.16500
C 	C 	0.99240 0.94050 0.47010 0.17100
C 	C 	0.84700 0.33400 0.20320 -0.03100
C 	C 	0.40680 0.76970 0.19530 -0.00900
C 	C 	0.90110 0.75790 0.44520 -0.07500
C 	C 	0.95130 0.53650 0.00780 0.17700
C 	C 	0.55000 0.09160 0.96100 0.16600
C 	C 	0.93840 0.61370 0.71970 0.26300
C 	C 	0.94180 0.61920 0.52440 0.28900
C 	C 	0.60000 0.47530 0.49070 -0.04900
C 	C 	0.91160 0.58720 0.78420 0.00500
C 	C 	0.29470 0.48190 0.51480 -0.04500
C 	C 	0.03400 0.40930 0.99070 -0.03800
C 	C 	0.14910 0.34150 0.94260 -0.03400
C 	C 	0.92990 0.12410 0.30420 -0.05600
C 	C 	0.52230 0.82560 0.02530 -0.00800
C 	C 	0.18250 0.46970 0.96720 0.17500
C 	C 	0.95880 0.11390 0.51290 -0.02800
C 	C 	0.60110 0.67620 0.55570 -0.05100
C 	C 	0.41160 0.69580 0.17560 0.00500
C 	C 	0.61870 0.54320 0.79750 0.20300
C 	C 	0.31280 0.17540 0.15220 0.27300
C 	C 	0.35190 0.72870 0.15460 -0.00800
C 	C 	0.60140 0.64790 0.35430 -0.04600
C 	C 	0.36450 0.96660 0.97070 -0.02100
C 	C 	0.15680 0.05610 0.48110 -0.05100
C 	C 	0.49660 0.63080 0.04620 0.30000
C 	C 	0.20310 0.84630 0.05480 -0.07400
C 	C 	0.55840 0.73300 0.39840 -0.05600
C 	C 	0.83870 0.51520 0.95910 0.18300
C 	C 	0.46270 0.21630 0.03300 0.33500
C 	C 	0.08840 0.41280 0.21580 0.00500
C 	C 	0.81280 0.46500 0.36260 0.27300
C 	C 	0.82220 0.56820 0.06320 -0.03200
C 	C 	0.82540 0.63430 0.11370 -0.01500
C 	C 	0.87320 0.38610 0.15510 -0.02900
C 	C 	0.19690 0.77600 0.74730 0.33800
C 	C 	0.58370 0.69170 0.85200 0.15900
C 	C 	0.65830 0.38110 0.46800 -0.02200
C 	C 	0.23190 0.65680 0.94430 -0.05100
C 	C 	0.33560 0.80690 0.81950 0.40100
C 	C 	0.44890 0.34050 0.95060 0.12500
C 	C 	0.04940 0.16800 0.94480 0.19400
C 	C 	0.58840 0.30420 0.82440 0.00500
C 	C 	0.46500 0.26970 0.63710 -0.00900
C 	C 	0.34700 0.05020 0.98700 -0.03300
C 	C 	0.48110 0.01670 0.82700 -0.02900
C 	C 	0.45000 0.90840 0.03900 0.16600
C 	C 	0.79470 0.80950 0.68720 -0.04500
C 	C 	0.63550 0.03340 0.02930 -0.02100
C 	C 	0.85190 0.50650 0.87680 -0.00800
C 	C 	0.98110 0.30810 0.03560 -0.01000
C 	C 	0.51280 0.16470 0.04010 -0.00200
C 	C 	0.16440 0.84490 0.02870 0.39900
C 	C 	0.02950 0.36100 0.93770 -0.02300
C 	C 	0.61670 0.77130 0.37680 -0.00800
C 	C 	0.57170 0.26590 0.80420 -0.05400
C 	C 	0.00330 0.69050 0.01480 -0.05600
C 	C 	0.60520 0.62950 0.40270 -0.03000
C 	C 	0.02570 0.98480 0.67650 0.18700
C 	C 	0.28920 0.83470 0.15170 0.17300
C 	C 	0.66300 0.41480 0.38060 -0.02600
C 	C 	0.46600 0.97530 0.12470 -0.05100
C 	C 	0.59890 0.65370 0.64320 -0.07400
C 	C 	0.93690 0.96970 0.71280 0.17300
C 	C 	0.03720 0.55610 0.10070 -0.05200
C 	C 	0.02910 0.74210 0.02240 0.31300
C 	C 	0.01360 0.05910 0.65170 0.17300
C 	C 	0.34170 0.61890 0.53200 -0.02200
C 	C 	0.83560 0.15510 0.97130 0.39900
C 	C 	0.95570 0.96350 0.58520 0.17800
C 	C 	0.70130 0.53280 0.43770 -0.03400
C 	C 	0.23550 0.44850 0.52240 0.31100
C 	C 	0.39890 0.32380 0.44430 -0.05100
C 	C 	0.89890 0.84320 0.42490 -0.05100
C 	C 	0.95680 0.79000 0.40220 0.00200
C 	C 	0.65750 0.00800 0.05870 -0.03400
C 	C 	0.21080 0.55910 0.95450 0.17400
C 	C 	0.65170 0.80700 0.31930 -0.04700
C 	C 	0.93730 0.83520 0.52930 -0.02400
C 	C 	0.76450 0.55150 0.47760 0.31100
C 	C 	0.99780 0.54430 0.85430 -0.05100
C 	C 	0.65630 0.48330 0.53560 -0.02600
C 	C 	0.30310 0.05580 0.92090 0.33800
C 	C 	0.37360 0.34490 0.31950 0.40100
C 	C 	0.20130 0.13900 0.33150 -0.03400
C 	C 	0.45680 0.35900 0.33320 0.00200
C 	C 	0.75070 0.00430 0.53300 0.33600
C 	C 	0.15170 0.97100 0.65530 -0.04900
C 	C 	0.62860 0.80420 0.28420 0.00500
C 	C 	0.44740 0.40840 0.54160 0.16500
C 	C 	0.25890 0.71490 0.91240 0.00600
C 	C 	0.96500 0.10210 0.30470 -0.00400
C 	C 	0.01720 0.15200 0.62880 -0.04500
C 	C 	0.36860 0.76700 0.17460 -0.05600
C 	C 	0.64910 0.09170 0.69240 -0.03200
C 	C 	0.83340 0.11370 0.32470 0.26300
C 	C 	0.28080 0.65200 0.86520 -0.04400
C 	C 	0.06310 0.03030 0.28720 0.17300
C 	C 	0.56310 0.35030 0.46720 0.17400
C 	C 	0.34910 0.88110 0.27720 -0.02200
C 	C 	0.21920 0.85400 0.12880 -0.04400
C 	C 	0.70530 0.51810 0.48520 -0.04500
C 	C 	0.34070 0.91620 0.70250 0.20200
C 	C 	0.29540 0.91480 0.24820 -0.02600
C 	C 	0.15750 0.71620 0.85050 -0.03400
C 	C 	0.78410 0.84150 0.80760 -0.03200
C 	C 	0.06670 0.21620 0.44130 -0.03400
C 	C 	0.60360 0.46020 0.53820 -0.02900
C 	C 	0.44180 0.46620 0.17740 0.28900
C 	C 	0.52570 0.70220 0.45910 0.18400
C 	C 	0.34370 0.51670 0.46440 -0.02600
C 	C 	0.79110 0.84050 0.10840 0.12500
C 	C 	0.37370 0.69300 0.15530 -0.04700
C 	C 	0.88130 0.58380 0.57550 0.20200
C 	C 	0.50340 0.36920 0.95380 0.30000
C 	C 	0.00920 0.11360 0.50460 -0.04600
C 	C 	0.15630 0.19190 0.32700 -0.02600
C 	C 	0.79870 0.86100 0.66850 -0.03400
C 	C 	0.74800 0.43910 0.38630 -0.01600
C 	C 	0.67240 0.03500 0.65220 0.27300
C 	C 	0.86450 0.33520 0.10210 -0.02400
C 	C 	0.70480 0.66470 0.34810 -0.00000
C 	C 	0.74280 0.16350 0.88210 -0.02000
C 	C 	0.22120 0.07670 0.22370 -0.03100
C 	C 	0.40110 0.34630 0.35680 -0.07400
C 	C 	0.24800 0.13430 0.19110 -0.01600
C 	C 	0.52330 0.44420 0.75270 0.33800
C 	C 	0.39640 0.53980 0.46180 -0.02900
C 	C 	0.68720 0.82460 0.84780 0.27300
C 	C 	0.47430 0.29780 0.54090 0.18400
C 	C 	0.14910 0.95240 0.52530 -0.00500
C 	C 	0.84250 0.28380 0.14950 -0.03400
C 	C 	0.39860 0.35210 0.64570 -0.04600
C 	C 	0.06160 0.38630 0.28030 0.26300
C 	C 	0.54430 0.45910 0.49220 0.17900
C 	C 	0.87270 0.78510 0.45600 0.00600
C 	C 	0.12860 0.91280 0.67560 0.00700
C 	C 	0.45060 0.00580 0.38140 0.19300
C 	C 	0.20890 0.15950 0.89160 0.12500
C 	C 	0.02330 0.27600 0.42090 0.33700
C 	C 	0.80040 0.57670 0.14450 -0.03200
C 	C 	0.95000 0.48900 0.95840 0.16300
C 	C 	0.17700 0.13080 0.86580 0.30000
C 	C 	0.46280 0.86210 0.98110 -0.04800
C 	C 	0.10360 0.14180 0.35660 -0.02900
C 	C 	0.48720 0.83530 0.95990 -0.00200
C 	C 	0.32540 0.93910 0.30890 -0.01600
C 	C 	0.32220 0.88540 0.24600 -0.03100
C 	C 	0.75890 0.17130 0.95600 0.00500
C 	C 	0.98720 0.44710 0.84810 -0.00000
C 	C 	0.84170 0.87370 0.77720 -0.02200
C 	C 	0.13140 0.45680 0.10160 -0.05600
C 	C 	0.38130 0.45680 0.20250 0.20300
C 	C 	0.62730 0.67130 0.58760 0.00600
C 	C 	0.70080 0.68280 0.29980 -0.08000
C 	C 	0.04870 0.46350 0.99220 0.17700
C 	C 	0.63140 0.23300 0.82540 -0.05600
C 	C 	0.09320 0.39790 0.13710 -0.00900
C 	C 	0.04430 0.03650 0.41480 0.17800
C 	C 	0.71920 0.34800 0.13480 -0.04400
C 	C 	0.49670 0.98190 0.81280 -0.04200
C 	C 	0.53720 0.13790 0.01890 -0.04800
C 	C 	0.17000 0.71730 0.79930 -0.03000
C 	C 	0.75200 0.86570 0.80890 -0.01600
C 	C 	0.33000 0.03070 0.95270 -0.03000
C 	C 	0.84320 0.94390 0.51890 -0.05100
C 	C 	0.67460 0.06090 0.69110 -0.01600
C 	C 	0.12680 0.61390 0.84490 -0.02900
C 	C 	0.45440 0.33650 0.42070 -0.02000
C 	C 	0.01890 0.69190 0.96440 -0.01000
C 	C 	0.95440 0.87510 0.38210 -0.02000
C 	C 	0.96600 0.59070 0.00930 -0.03800
C 	C 	0.57010 0.76590 0.30580 -0.05400
C 	C 	0.50160 0.03980 0.85660 -0.02700
C 	C 	0.37320 0.02830 0.01290 -0.02500
C 	C 	0.64870 0.51360 0.44070 -0.02300
C 	C 	0.53730 0.78370 0.96700 0.33500
C 	C 	0.25720 0.83650 0.11790 -0.02000
C 	C 	0.37270 0.32870 0.41240 0.00600
C 	C 	0.85130 0.91060 0.63510 -0.02400
C 	C 	0.12730 0.21490 0.54400 0.00600
C 	C 	0.03730 0.50430 0.74640 0.33600
C 	C 	0.88330 0.00650 0.34540 -0.00400
C 	C 	0.07170 0.37590 0.19420 -0.05400
C 	C 	0.21590 0.15850 0.19240 -0.03200
C 	C 	0.85090 0.04760 0.47470 -0.00500
C 	C 	0.41630 0.30830 0.14800 0.15900
C 	C 	0.65930 0.08380 0.29750 0.20200
C 	C 	0.15830 0.12630 0.22280 -0.02200
C 	C 	0.66440 0.19310 0.18050 0.40100
C 	C 	0.62640 0.65510 0.68050 0.40100
C 	C 	0.04320 0.21000 0.59780 0.00200
C 	C 	0.04120 0.88610 0.48710 -0.02800
C 	C 	0.03220 0.50790 0.09730 -0.02800
C 	C 	0.00160 0.35820 0.03820 -0.04600
C 	C 	0.24930 0.99570 0.46700 0.33600
C 	C 	0.88720 0.50580 0.44480 0.19300
C 	C 	0.16300 0.04360 0.25180 -0.02600
C 	C 	0.80780 0.14100 0.90220 0.00200
C 	C 	0.53220 0.12950 0.97570 -0.03300
C 	C 	0.08940 0.55950 0.94810 0.17200
C 	C 	0.62680 0.97170 0.98710 -0.02500
C 	C 	0.44160 0.26700 0.60160 -0.05600
C 	C 	0.13140 0.06820 0.25400 -0.03100
C 	C 	0.68250 0.14970 0.78720 0.17400
C 	C 	0.69220 0.29000 0.16680 0.00200
C 	C 	0.71590 0.40830 0.44260 -0.03200
C 	C 	0.54120 0.52830 0.34490 -0.02900
C 	C 	0.99660 0.54280 0.63420 0.29900
C 	C 	0.45570 0.54090 0.50780 0.17900
C 	C 	0.43690 0.64970 0.53280 0.17400
C 	C 	0.17780 0.43180 0.93680 -0.03200
C 	C 	0.97050 0.63900 0.06230 -0.02300
C 	C 	0.37140 0.19580 0.71580 0.00500
C 	C 	0.98640 0.94090 0.34830 0.17300
C 	C 	0.56670 0.50800 0.64950 -0.03400
C 	C 	0.70310 0.25790 0.14320 -0.07400
C 	C 	0.80310 0.22400 0.25270 0.33800
C 	C 	0.84830 0.02900 0.34470 -0.04900
C 	C 	0.49080 0.48620 0.39560 -0.04500
C 	C 	0.32300 0.95720 0.54620 0.30000
C 	C 	0.32760 0.96500 0.34780 0.27300
C 	C 	0.07010 0.87590 0.69580 -0.05600
C 	C 	0.35090 0.32560 0.69670 -0.00600
C 	C 	0.14870 0.08940 0.36490 -0.02400
C 	C 	0.54560 0.66350 0.57930 -0.02000
C 	C 	0.51720 0.64600 0.63480 -0.04400
C 	C 	0.94160 0.04320 0.32540 -0.05900
C 	C 	0.51360 0.66530 0.54550 0.17300
C 	C 	0.45130 0.95910 0.08520 0.18000
C 	C 	0.78920 0.44090 0.04550 0.17400
C 	C 	0.10000 0.09070 0.37530 -0.04800
C 	C 	0.54320 0.64100 0.66680 0.00200
C 	C 	0.45430 0.01360 0.13510 -0.02000
C 	C 	0.35640 0.88080 0.67740 0.28900
C 	C 	0.53400 0.02470 0.87530 -0.05100
C 	C 	0.75720 0.37510 0.07930 -0.02000
C 	C 	0.28410 0.59170 0.55740 -0.03200
C 	C 	0.48280 0.35400 0.36520 -0.04400
C 	C 	0.53500 0.73030 0.36290 -0.00900
C 	C 	0.96270 0.49570 0.25360 0.33600
C 	C 	0.29110 0.89950 0.54940 0.12500
C 	C 	0.87140 0.08720 0.32440 0.00700
C 	C 	0.51740 0.81720 0.98200 -0.07800
C 	C 	0.93330 0.78380 0.55870 -0.03400
C 	C 	0.27880 0.55510 0.64450 -0.03100
C 	C 	0.08370 0.43570 0.60800 0.15900
C 	C 	0.55820 0.53380 0.82260 0.28900
C 	C 	0.05110 0.60050 0.60840 0.12600
C 	C 	0.51660 0.46930 0.70070 -0.03000
C 	C 	0.46780 0.87050 0.02430 -0.03300
C 	C 	0.05260 0.01100 0.53900 0.16400
C 	C 	0.20460 0.45640 0.88060 -0.02400
C 	C 	0.82760 0.67540 0.13740 0.27300
C 	C 	0.97090 0.25790 0.97760 0.31300
C 	C 	0.10140 0.95570 0.54650 -0.04500
C 	C 	0.86860 0.54320 0.89840 -0.05600
C 	C 	0.00220 0.45570 0.14570 -0.05100
C 	C 	0.26810 0.82380 0.07510 -0.05100
C 	C 	0.66660 0.84190 0.21970 0.26300
C 	C 	0.61820 0.01380 0.99540 -0.04900
C 	C 	0.50760 0.53750 0.55190 0.17200
C 	C 	0.47770 0.17440 0.97470 -0.00800
C 	C 	0.83700 0.95640 0.74820 -0.02600
C 	C 	0.48340 0.53070 0.29930 -0.03000
C 	C 	0.54370 0.93570 0.64800 0.15900
C 	C 	0.34250 0.99200 0.94130 -0.03400
C 	C 	0.05000 0.51100 0.04160 0.16300
C 	C 	0.14360 0.96620 0.97560 0.29400
C 	C 	0.52910 0.05150 0.21300 0.31100
C 	C 	0.33340 0.15810 0.78030 0.26300
C 	C 	0.50220 0.14790 0.95350 -0.04400
C 	C 	0.92830 0.62410 0.80580 -0.05400
C 	C 	0.20080 0.00060 0.48200 -0.08200
C 	C 	0.79920 0.99940 0.51800 -0.08200
C 	C 	0.96280 0.44390 0.89930 -0.05200
C 	C 	0.63140 0.38540 0.43680 -0.03100
C 	C 	0.73550 0.75790 0.71300 0.31100
C 	C 	0.04570 0.41060 0.94070 -0.03300
C 	C 	0.91060 0.44050 0.05190 0.17200
C 	C 	0.25070 0.28370 0.75360 0.33500
C 	C 	0.64810 0.27130 0.84540 -0.00800
C 	C 	0.98340 0.78270 0.54730 -0.03100
C 	C 	0.59320 0.23030 0.80470 -0.00900
C 	C 	0.55110 0.65950 0.04940 0.12500
C 	C 	0.47670 0.55580 0.24730 0.33800
C 	C 	0.10110 0.15680 0.57510 -0.05100
C 	C 	0.15930 0.95680 0.92450 0.20100
C 	C 	0.79520 0.94710 0.54010 0.00000
C 	C 	0.54870 0.04090 0.91480 0.18000
C 	C 	0.95060 0.83200 0.05520 0.19400
C 	C 	0.36860 0.61460 0.56320 -0.03100
C 	C 	0.99840 0.64180 0.96180 -0.04600
C 	C 	0.99080 0.88640 0.49540 -0.04600
C 	C 	0.12640 0.30690 0.52870 0.40100
C 	C 	0.19960 0.42330 0.85550 -0.03200
C 	C 	0.49240 0.46250 0.44810 0.17200
C 	C 	0.69690 0.94420 0.07910 0.33800
C 	C 	0.79690 0.15370 0.94520 -0.07400
C 	C 	0.67700 0.04280 0.45380 0.30000
C 	C 	0.70890 0.10050 0.45060 0.12500
C 	C 	0.76810 0.34320 0.05570 -0.05100
C 	C 	0.40000 0.52470 0.50930 -0.04900
C 	C 	0.89480 0.99210 0.47570 -0.03100
C 	C 	0.70460 0.08520 0.75180 -0.02600
C 	C 	0.48260 0.18280 0.01800 -0.07800
C 	C 	0.17240 0.32460 0.86260 0.27300
C 	C 	0.95630 0.80830 0.10800 0.15900
C 	C 	0.89860 0.04430 0.45350 -0.04500
C 	C 	0.16660 0.88630 0.67530 0.26300
C 	C 	0.15300 0.66600 0.79680 -0.03100
C 	C 	0.97770 0.45240 0.19670 -0.00200
C 	C 	0.84370 0.80810 0.67300 -0.02600
C 	C 	0.00760 0.05950 0.52990 0.17100
C 	C 	0.81750 0.53030 0.03280 0.17500
C 	C 	0.02230 0.54760 0.80330 -0.00200
C 	C 	0.18720 0.53500 0.63740 0.27300
C 	C 	0.03720 0.83400 0.51300 -0.03000
C 	C 	0.99670 0.30950 0.98520 -0.05600
C 	C 	0.01740 0.49940 0.79980 -0.08100
C 	C 	0.69960 0.05510 0.72370 -0.03100
C 	C 	0.65680 0.63790 0.39930 -0.05000
C 	C 	0.66130 0.20220 0.82350 0.18400
N 	N 	0.04200 0.98860 0.43620 -0.24600
N 	N 	0.68750 0.19470 0.85200 -0.24900
N 	N 	0.45800 0.52180 0.55340 -0.24700
N 	N 	0.49760 0.42450 0.53950 -0.24500
N 	N 	0.65900 0.17950 0.79090 -0.24800
N 	N 	0.94520 0.94100 0.48240 -0.24400
N 	N 	0.04180 0.97570 0.31570 -0.24500
N 	N 	0.97040 0.94990 0.70910 -0.24900
N 	N 	0.02960 0.05010 0.29090 -0.24900
N 	N 	0.53600 0.07550 0.92690 -0.24600
N 	N 	0.18750 0.53950 0.00720 -0.24900
N 	N 	0.45820 0.64250 0.56610 -0.24500
N 	N 	0.03600 0.46290 0.03950 -0.24500
N 	N 	0.05480 0.05900 0.51760 -0.24400
N 	N 	0.31250 0.80530 0.14800 -0.24900
N 	N 	0.96400 0.53710 0.96050 -0.24500
N 	N 	0.57520 0.02180 0.93620 -0.24800
N 	N 	0.45330 0.30530 0.50720 -0.24900
N 	N 	0.04670 0.03950 0.64800 -0.25000
N 	N 	0.46400 0.92450 0.07310 -0.24600
N 	N 	0.95820 0.02430 0.68430 -0.24500
N 	N 	0.54200 0.47820 0.44660 -0.24700
N 	N 	0.79140 0.47570 0.06610 -0.24500
N 	N 	0.99760 0.03710 0.42690 -0.24400
N 	N 	0.07660 0.55900 0.99580 -0.24300
N 	N 	0.70860 0.14250 0.81570 -0.24500
N 	N 	0.47040 0.67950 0.47950 -0.24800
N 	N 	0.00240 0.96290 0.57310 -0.24400
N 	N 	0.92480 0.48860 0.05340 -0.24600
N 	N 	0.81250 0.46050 0.99280 -0.24900
N 	N 	0.42340 0.92760 0.01760 -0.24600
N 	N 	0.34100 0.82050 0.20910 -0.24800
N 	N 	0.44520 0.42760 0.49580 -0.24500
N 	N 	0.92340 0.44100 0.00420 -0.24300
N 	N 	0.84100 0.55010 0.97950 -0.24900
N 	N 	0.54670 0.69470 0.49280 -0.24900
N 	N 	0.50240 0.57550 0.46050 -0.24500
N 	N 	0.29140 0.85750 0.18430 -0.24500
N 	N 	0.57660 0.07240 0.98240 -0.24600
N 	N 	0.07520 0.51140 0.94660 -0.24600
N 	N 	0.20860 0.52430 0.93390 -0.24500
N 	N 	0.42480 0.97820 0.06380 -0.24800
N 	N 	0.55480 0.57240 0.50420 -0.24500
N 	N 	0.95330 0.96050 0.35200 -0.25000
N 	N 	0.54180 0.35750 0.43390 -0.24500
N 	N 	0.15900 0.44990 0.02050 -0.24900
N 	N 	0.95800 0.01140 0.56380 -0.24600
N 	N 	0.52960 0.32050 0.52050 -0.24800
O 	O 	0.68200 0.03820 0.41440 -0.42400
O 	O 	0.05210 0.37900 0.51910 -0.40800
O 	O 	0.33890 0.41000 0.21890 -0.38900
O 	O 	0.70800 0.96400 0.10760 -0.46900
O 	O 	0.81800 0.90360 0.14380 -0.42400
O 	O 	0.60050 0.69570 0.00860 -0.30800
O 	O 	0.39380 0.34220 0.27640 -0.59200
O 	O 	0.83050 0.44060 0.39050 -0.52000
O 	O 	0.83820 0.50960 0.31400 -0.26400
O 	O 	0.40400 0.61640 0.17560 -0.43200
O 	O 	0.36040 0.35190 0.15090 -0.40700
O 	O 	0.54840 0.64180 0.09760 -0.36700
O 	O 	0.02120 0.36390 0.46290 -0.44700
O 	O 	0.68980 0.75590 0.72910 -0.41700
O 	O 	0.97930 0.66250 0.69120 -0.33200
O 	O 	0.99670 0.49900 0.34890 -0.45900
O 	O 	0.50420 0.11140 0.31260 -0.32200
O 	O 	0.38140 0.82980 0.77640 -0.59200
O 	O 	0.66110 0.59000 0.78110 -0.38900
O 	O 	0.88140 0.15780 0.94840 -0.59100
O 	O 	0.20800 0.92040 0.67560 -0.43200
O 	O 	0.25700 0.27550 0.79530 -0.44500
O 	O 	0.66760 0.65310 0.65970 -0.31500
O 	O 	0.10620 0.32980 0.55160 -0.59200
O 	O 	0.65210 0.00100 0.50230 -0.46000
O 	O 	0.29200 0.11640 0.78760 -0.43200
O 	O 	0.52120 0.48410 0.84270 -0.44600
O 	O 	0.57160 0.46400 0.74400 -0.46900
O 	O 	0.93840 0.56760 0.34400 -0.39200
O 	O 	0.61860 0.17020 0.22360 -0.59200
O 	O 	0.98020 0.27640 0.43340 -0.41700
O 	O 	0.29020 0.08640 0.93340 -0.41800
O 	O 	0.02940 0.46050 0.74390 -0.39600
O 	O 	0.20800 0.81560 0.75600 -0.46900
O 	O 	0.39810 0.87900 0.67310 -0.40800
O 	O 	0.70440 0.96050 0.56890 -0.39600
O 	O 	0.67320 0.13610 0.34270 -0.44600
O 	O 	0.79200 0.07960 0.32440 -0.43200
O 	O 	0.42920 0.22450 0.01850 -0.44500
O 	O 	0.57600 0.68320 0.81260 -0.32200
O 	O 	0.31280 0.82730 0.84030 -0.31500
O 	O 	0.97880 0.63610 0.53710 -0.44700
O 	O 	0.50280 0.01130 0.34910 -0.40700
O 	O 	0.16760 0.32730 0.48550 -0.31500
O 	O 	0.66890 0.05940 0.61010 -0.52000
O 	O 	0.99580 0.18320 0.89280 -0.32300
O 	O 	0.55210 0.57120 0.82690 -0.40800
O 	O 	0.69580 0.07400 0.30320 -0.37600
O 	O 	0.20430 0.19570 0.90480 -0.30800
O 	O 	0.81280 0.15310 0.01450 -0.31300
O 	O 	0.35370 0.17050 0.80880 -0.33200
O 	O 	0.00420 0.81680 0.10720 -0.32300
O 	O 	0.00280 0.85190 0.00850 -0.40900
O 	O 	0.90750 0.82810 0.05560 -0.38400
O 	O 	0.07600 0.38860 0.60720 -0.32200
O 	O 	0.01980 0.72360 0.56660 -0.41700
O 	O 	0.81020 0.58110 0.43390 -0.41700
O 	O 	0.20440 0.27330 0.75610 -0.39600
O 	O 	0.83240 0.67270 0.51450 -0.31500
O 	O 	0.66180 0.84780 0.82860 -0.26400
O 	O 	0.42840 0.53600 0.25600 -0.46900
O 	O 	0.15210 0.15440 0.84890 -0.46000
O 	O 	0.92400 0.61140 0.39280 -0.32200
O 	O 	0.97060 0.53950 0.25610 -0.39600
O 	O 	0.33110 0.94060 0.38990 -0.52000
O 	O 	0.01500 0.74410 0.06610 -0.41800
O 	O 	0.54740 0.40360 0.91440 -0.42400
O 	O 	0.94790 0.62100 0.48090 -0.40800
O 	O 	0.60190 0.12100 0.32690 -0.40800
O 	O 	0.29560 0.03950 0.43110 -0.39600
O 	O 	0.45260 0.59640 0.08560 -0.42400
O 	O 	0.26520 0.28780 0.27320 -0.42900
O 	O 	0.75700 0.05230 0.51850 -0.44600
O 	O 	0.52940 0.77330 0.93110 -0.39600
O 	O 	0.61630 0.67190 0.92060 -0.38400
O 	O 	0.76060 0.85820 0.09340 -0.36700
O 	O 	0.04840 0.64600 0.59340 -0.36700
O 	O 	0.49580 0.88860 0.68740 -0.32200
O 	O 	0.14630 0.83750 0.68320 -0.33100
O 	O 	0.59250 0.03690 0.57940 -0.38400
O 	O 	0.82360 0.65220 0.18600 -0.26400
O 	O 	0.49720 0.98870 0.65090 -0.40700
O 	O 	0.33050 0.22100 0.11010 -0.52000
O 	O 	0.70430 0.10910 0.49140 -0.30800
O 	O 	0.16890 0.27900 0.89050 -0.52000
O 	O 	0.41160 0.06760 0.37080 -0.39200
O 	O 	0.09250 0.17190 0.94440 -0.38400
O 	O 	0.89380 0.67020 0.44840 -0.59200
O 	O 	0.18980 0.41890 0.56610 -0.41700
O 	O 	0.37720 0.49900 0.19680 -0.37600
O 	O 	0.59600 0.38360 0.82440 -0.43200
O 	O 	0.73480 0.71220 0.72680 -0.42900
O 	O 	0.83890 0.55780 0.57110 -0.38900
O 	O 	0.98500 0.25590 0.93390 -0.41800
O 	O 	0.58840 0.93240 0.62920 -0.39200
O 	O 	0.31020 0.24410 0.27090 -0.41700
O 	O 	0.17640 0.34780 0.81400 -0.26400
O 	O 	0.40750 0.96310 0.42060 -0.38400
O 	O 	0.79020 0.22360 0.29620 -0.41800
O 	O 	0.86040 0.51130 0.49150 -0.40700
O 	O 	0.79560 0.72670 0.24390 -0.39600
O 	O 	0.87110 0.09000 0.07110 -0.38800
O 	O 	0.16110 0.44220 0.42890 -0.38900
O 	O 	0.74300 0.72450 0.20470 -0.44500
O 	O 	0.79570 0.80430 0.09520 -0.30800
O 	O 	0.32680 0.86390 0.65730 -0.44600
O 	O 	0.11860 0.84220 0.05160 -0.59100
O 	O 	0.11630 0.53690 0.55560 -0.38400
O 	O 	0.73940 0.14600 0.40240 -0.36700
O 	O 	0.66950 0.77900 0.88990 -0.52000
O 	O 	0.29200 0.03600 0.89240 -0.46900
O 	O 	0.47930 0.67050 0.18320 -0.33200
O 	O 	0.07160 0.31560 0.39240 -0.46800
O 	O 	0.31800 0.96180 0.58560 -0.42400
O 	O 	0.20980 0.77640 0.70380 -0.41800
O 	O 	0.56100 0.03840 0.22680 -0.42900
O 	O 	0.70800 0.88360 0.21240 -0.43200
O 	O 	0.88370 0.46310 0.44440 -0.38400
O 	O 	0.67640 0.99040 0.67140 -0.26400
O 	O 	0.92920 0.44770 0.29530 -0.44500
O 	O 	0.10190 0.92880 0.01910 -0.41100
O 	O 	0.90400 0.57960 0.71240 -0.43200
O 	O 	0.18720 0.84690 0.98550 -0.31300
O 	O 	0.33240 0.34690 0.34030 -0.31500
O 	O 	0.38370 0.32810 0.07940 -0.38400
O 	O 	0.33820 0.15220 0.17140 -0.26400
O 	O 	0.43900 0.96160 0.77320 -0.42900
O 	O 	0.95260 0.53820 0.64380 -0.42400
O 	O 	0.09600 0.42040 0.28760 -0.43200
O 	O 	0.17320 0.01590 0.96290 -0.44900
O 	O 	0.89810 0.07120 0.98090 -0.41100
O 	O 	0.51500 0.08110 0.22910 -0.41700
O 	O 	0.07080 0.55230 0.70470 -0.44500
O 	O 	0.10050 0.60910 0.59520 -0.30800
O 	O 	0.34790 0.99900 0.49770 -0.46000
O 	O 	0.57080 0.77550 0.98150 -0.44500
O 	O 	0.00330 0.50100 0.65110 -0.45900
O 	O 	0.48020 0.41360 0.79620 -0.41800
O 	O 	0.85370 0.16250 0.31680 -0.33100
O 	O 	0.87720 0.57400 0.62180 -0.37600
O 	O 	0.60620 0.65780 0.72360 -0.59200
O 	O 	0.04740 0.46180 0.35620 -0.42400
O 	O 	0.83110 0.72100 0.10950 -0.52000
O 	O 	0.13960 0.48870 0.50850 -0.40700
O 	O 	0.30420 0.92600 0.69680 -0.37600
O 	O 	0.45160 0.35820 0.90240 -0.36700
O 	O 	0.48500 0.91890 0.77090 -0.41700
O 	O 	0.63960 0.64810 0.84910 -0.40700
O 	O 	0.56160 0.71760 0.87080 -0.39200
O 	O 	0.47060 0.22670 0.06890 -0.39600
O 	O 	0.89950 0.39090 0.40480 -0.30800
O 	O 	0.62890 0.05780 0.28110 -0.38900
O 	O 	0.80420 0.00100 0.12180 -0.37500
O 	O 	0.42400 0.31680 0.18740 -0.32200
O 	O 	0.99720 0.14810 0.99150 -0.40900
O 	O 	0.62280 0.50100 0.80320 -0.37600
O 	O 	0.19580 0.99900 0.87820 -0.37500
O 	O 	0.82680 0.98410 0.03710 -0.44900
O 	O 	0.64630 0.82950 0.19120 -0.33200
O 	O 	0.23940 0.14180 0.90660 -0.36700
O 	O 	0.93900 0.21220 0.02260 -0.42800
O 	O 	0.23480 0.46160 0.47740 -0.42900
O 	O 	0.39950 0.30430 0.99140 -0.30800
O 	O 	0.50330 0.65440 0.99770 -0.45900
O 	O 	0.37110 0.94220 0.71890 -0.38900
O 	O 	0.51980 0.58640 0.20380 -0.41800
O 	O 	0.12280 0.42600 0.37820 -0.37600
O 	O 	0.32360 0.00960 0.32860 -0.26400
O 	O 	0.06160 0.43240 0.65600 -0.39200
O 	O 	0.06100 0.78780 0.97740 -0.42800
O 	O 	0.08840 0.21760 0.84400 -0.39200
O 	O 	0.44790 0.42880 0.17310 -0.40800
O 	O 	0.92840 0.68440 0.60760 -0.46800
O 	O 	0.26060 0.85400 0.59760 -0.36700
O 	O 	0.24300 0.94770 0.48150 -0.44600
O 	O 	0.02070 0.33750 0.30880 -0.33200
O 	O 	0.18200 0.09640 0.85620 -0.42400
O 	O 	0.16180 0.49040 0.68600 -0.26400
O 	O 	0.52070 0.32950 0.81680 -0.33200
O 	O 	0.95160 0.35400 0.40660 -0.36700
O 	O 	0.68720 0.17270 0.15970 -0.31500
O 	O 	0.76520 0.53840 0.52260 -0.42900
O 	O 	0.29570 0.89090 0.50860 -0.30800
O 	O 	0.12890 0.91000 0.92890 -0.38800
O 	O 	0.79200 0.18440 0.24400 -0.46900
O 	O 	0.47880 0.51590 0.15730 -0.44600
O 	O 	0.16950 0.55940 0.60950 -0.52000
O 	O 	0.49670 0.34560 0.00230 -0.45900
O 	O 	0.84790 0.84560 0.15110 -0.46000
O 	O 	0.70980 0.91360 0.06660 -0.41800
O 	O 	0.91160 0.78240 0.15600 -0.39200
O 	O 	0.43840 0.28240 0.12920 -0.39200
