data_crystal

_cell_length_a 13.64300
_cell_length_b 19.75980
_cell_length_c 22.18340
_cell_angle_alpha 77.88820
_cell_angle_beta  72.09110
_cell_angle_gamma 69.80470

_symmetry_space_group_name_	'P 1'
_symmetry_space_group_name_H-M	'P 1'

loop_
_symmetry_equiv_pos_as_xyz
  x,y,z

loop_
_atom_site_label
_atom_site_type_symbol
_atom_site_fract_x
_atom_site_fract_y
_atom_site_fract_z
_atom_site_charge
Mn	Mn	0.28511 0.45281 0.47359 1.29100
Mn	Mn	0.71151 0.04719 0.02641 1.27900
Mn	Mn	0.71489 0.54719 0.52641 1.29200
Mn	Mn	0.28849 0.95281 0.97359 1.30300
Mn	Mn	0.50000 0.50000 0.50000 1.32300
Mn	Mn	-0.00000 0.00000 -0.00000 1.29100
H 	H 	0.12910 0.67910 0.39750 -0.06000
H 	H 	0.06310 0.80050 0.36610 0.22600
H 	H 	0.26460 0.84320 0.43900 0.27800
H 	H 	0.33910 0.72000 0.46480 -0.04500
H 	H 	0.08600 0.55810 0.41490 0.03300
H 	H 	0.91810 0.44680 0.38740 0.07600
H 	H 	0.97270 0.30330 0.42730 0.11700
H 	H 	0.96690 0.01670 0.20450 -0.06600
H 	H 	0.96170 0.00260 0.31020 0.28600
H 	H 	0.24950 0.85330 0.27930 0.22200
H 	H 	0.26050 0.87070 0.17210 -0.06200
H 	H 	0.54720 0.38750 0.27830 -0.01900
H 	H 	0.71360 0.32460 0.22040 0.21700
H 	H 	0.83150 0.28530 0.37250 0.24900
H 	H 	0.66580 0.35050 0.42950 -0.03700
H 	H 	0.94410 0.55160 0.38500 0.06600
H 	H 	0.39770 0.28610 0.53090 0.02700
H 	H 	0.25010 0.15300 0.50920 0.12200
H 	H 	0.37300 0.16900 0.54740 0.07900
H 	H 	0.09420 0.20970 0.45330 0.14700
H 	H 	0.70570 0.82090 0.10250 -0.05400
H 	H 	0.72970 0.69950 0.13390 0.22500
H 	H 	0.04680 0.65680 0.06100 0.24700
H 	H 	0.02390 0.78000 0.03520 -0.07200
H 	H 	0.55900 0.94190 0.08510 0.03000
H 	H 	0.25230 0.05320 0.11260 0.09600
H 	H 	0.20330 0.19670 0.07270 0.09700
H 	H 	0.68810 0.48330 0.29550 -0.05000
H 	H 	0.77450 0.49740 0.18980 0.29100
H 	H 	0.88210 0.64670 0.22070 0.22000
H 	H 	0.80330 0.62930 0.32790 -0.05500
H 	H 	0.71300 0.11250 0.22170 -0.02300
H 	H 	0.75860 0.17540 0.27960 0.21900
H 	H 	0.98930 0.21470 0.12750 0.25200
H 	H 	0.94580 0.14950 0.07050 -0.04400
H 	H 	0.38070 0.94840 0.11500 0.04500
H 	H 	0.71470 0.21390 0.96910 0.01500
H 	H 	0.41230 0.34700 0.99080 0.10600
H 	H 	0.58940 0.33100 0.95260 0.10900
H 	H 	0.25720 0.29030 0.04670 0.13200
H 	H 	0.87090 0.32090 0.60250 -0.04800
H 	H 	0.93690 0.19950 0.63390 0.23000
H 	H 	0.73540 0.15680 0.56100 0.27100
H 	H 	0.66090 0.28000 0.53520 -0.04200
H 	H 	0.91400 0.44190 0.58510 0.00900
H 	H 	0.08190 0.55320 0.61260 0.05300
H 	H 	0.02730 0.69670 0.57270 0.02200
H 	H 	0.03310 0.98330 0.79550 -0.04300
H 	H 	0.03830 0.99740 0.68980 0.29800
H 	H 	0.75050 0.14670 0.72070 0.21400
H 	H 	0.73950 0.12930 0.82790 -0.05500
H 	H 	0.45280 0.61250 0.72170 -0.01200
H 	H 	0.28640 0.67540 0.77960 0.21700
H 	H 	0.16850 0.71470 0.62750 0.24100
H 	H 	0.33420 0.64950 0.57050 -0.03300
H 	H 	0.05590 0.44840 0.61500 0.09900
H 	H 	0.60230 0.71390 0.46910 0.03400
H 	H 	0.74990 0.84700 0.49080 0.14800
H 	H 	0.62700 0.83100 0.45260 0.07600
H 	H 	0.90580 0.79030 0.54670 0.20900
H 	H 	0.29430 0.17910 0.89750 -0.05200
H 	H 	0.27030 0.30050 0.86610 0.23100
H 	H 	0.95320 0.34320 0.93900 0.30100
H 	H 	0.97610 0.22000 0.96480 -0.01400
H 	H 	0.44100 0.05810 0.91490 0.01300
H 	H 	0.74770 0.94680 0.88740 0.03900
H 	H 	0.79670 0.80330 0.92730 0.05000
H 	H 	0.31190 0.51670 0.70450 -0.05200
H 	H 	0.22550 0.50260 0.81020 0.29600
H 	H 	0.11790 0.35330 0.77930 0.21500
H 	H 	0.19670 0.37070 0.67210 -0.06200
H 	H 	0.28700 0.88750 0.77830 -0.00900
H 	H 	0.24140 0.82460 0.72040 0.21400
H 	H 	0.01070 0.78530 0.87250 0.23800
H 	H 	0.05420 0.85050 0.92950 -0.02800
H 	H 	0.61930 0.05160 0.88500 0.11400
H 	H 	0.28530 0.78610 0.03090 0.04400
H 	H 	0.58770 0.65300 0.00920 0.15900
H 	H 	0.41060 0.66900 0.04740 0.05000
H 	H 	0.74280 0.70970 0.95330 0.21600
C 	C 	0.28900 0.60673 0.45427 0.48800
C 	C 	0.24153 0.68656 0.43518 -0.31600
C 	C 	0.15814 0.71172 0.40520 0.31800
C 	C 	0.11846 0.78458 0.38670 -0.45100
C 	C 	0.15757 0.83432 0.39774 0.50300
C 	C 	0.23877 0.81016 0.42910 -0.42200
C 	C 	0.28164 0.73622 0.44590 0.31800
C 	C 	0.07540 0.51320 0.41880 0.02100
C 	C 	0.97400 0.44800 0.40240 -0.01800
C 	C 	0.03110 0.30920 0.43640 -0.03900
C 	C 	0.12510 0.38980 0.44740 0.04200
C 	C 	0.19250 0.32830 0.47370 0.01400
C 	C 	0.02512 0.98439 0.21917 0.37100
C 	C 	0.02146 0.97498 0.28250 -0.43200
C 	C 	0.10382 0.92594 0.30622 0.52100
C 	C 	0.19274 0.88702 0.26410 -0.43500
C 	C 	0.19924 0.89702 0.19990 0.33200
C 	C 	0.11528 0.94597 0.17667 -0.32700
C 	C 	0.12238 0.95742 0.10702 0.49100
C 	C 	0.10560 0.91570 0.37670 -0.64800
C 	C 	0.99389 0.93862 0.42220 1.05500
C 	C 	0.16640 0.96450 0.38210 1.04500
C 	C 	0.47773 0.41064 0.39950 0.42100
C 	C 	0.58931 0.37415 0.36043 -0.26300
C 	C 	0.60425 0.36661 0.29749 0.26700
C 	C 	0.70373 0.32822 0.26312 -0.38600
C 	C 	0.78910 0.29504 0.29096 0.45700
C 	C 	0.77429 0.30500 0.35342 -0.37800
C 	C 	0.67498 0.34416 0.38748 0.27100
C 	C 	0.95560 0.30400 0.21020 1.03100
C 	C 	0.99080 0.50900 0.40000 -0.03800
C 	C 	0.03970 0.38360 0.42740 0.01400
C 	C 	0.34240 0.28000 0.51840 0.04000
C 	C 	0.25390 0.19970 0.50690 -0.05800
C 	C 	0.32880 0.20830 0.52730 -0.03200
C 	C 	0.09680 0.25560 0.45540 -0.06300
C 	C 	0.17620 0.26140 0.48040 0.06600
C 	C 	0.85000 0.89327 0.04573 0.48700
C 	C 	0.86327 0.81344 0.06482 -0.31700
C 	C 	0.77506 0.78828 0.09480 0.31100
C 	C 	0.78974 0.71542 0.11330 -0.43500
C 	C 	0.88963 0.66568 0.10226 0.48100
C 	C 	0.97803 0.68984 0.07090 -0.38000
C 	C 	0.96376 0.76378 0.05410 0.33700
C 	C 	0.50740 0.98680 0.08120 0.04900
C 	C 	0.32440 0.05200 0.09760 -0.12600
C 	C 	0.27670 0.19080 0.06360 -0.04600
C 	C 	0.46230 0.11020 0.05260 0.01400
C 	C 	0.49450 0.17170 0.02630 0.03700
C 	C 	0.72868 0.51561 0.28083 0.34300
C 	C 	0.77894 0.52502 0.21750 -0.42400
C 	C 	0.83598 0.57406 0.19378 0.50300
C 	C 	0.84386 0.61298 0.23590 -0.41800
C 	C 	0.79616 0.60298 0.30010 0.31700
C 	C 	0.73792 0.55403 0.32333 -0.31300
C 	C 	0.68682 0.54258 0.39298 0.48500
C 	C 	0.89800 0.58430 0.12330 -0.59500
C 	C 	0.85471 0.56138 0.07780 1.00400
C 	C 	0.01300 0.53550 0.11790 0.99600
C 	C 	0.78787 0.08936 0.10050 0.42200
C 	C 	0.82389 0.12585 0.13957 -0.27100
C 	C 	0.76835 0.13339 0.20251 0.27300
C 	C 	0.79507 0.17178 0.23688 -0.39200
C 	C 	0.87510 0.20496 0.20904 0.46300
C 	C 	0.93271 0.19500 0.14658 -0.38400
C 	C 	0.90662 0.15584 0.11252 0.27600
C 	C 	0.96980 0.19600 0.28980 1.04600
C 	C 	0.39980 0.99100 0.10000 0.01700
C 	C 	0.35070 0.11640 0.07260 0.06300
C 	C 	0.64080 0.22000 0.98160 0.10500
C 	C 	0.46050 0.30030 0.99310 0.03000
C 	C 	0.56440 0.29170 0.97270 -0.09000
C 	C 	0.30780 0.24440 0.04460 -0.03200
C 	C 	0.41800 0.23860 0.01960 0.00100
C 	C 	0.71100 0.39327 0.54573 0.48500
C 	C 	0.75847 0.31344 0.56482 -0.30500
C 	C 	0.84186 0.28828 0.59480 0.30900
C 	C 	0.88154 0.21542 0.61330 -0.43000
C 	C 	0.84243 0.16568 0.60226 0.48800
C 	C 	0.76123 0.18984 0.57090 -0.40400
C 	C 	0.71836 0.26378 0.55410 0.30600
C 	C 	0.92460 0.48680 0.58120 0.12300
C 	C 	0.02600 0.55200 0.59760 0.02700
C 	C 	0.96890 0.69080 0.56360 0.15100
C 	C 	0.87490 0.61020 0.55260 0.08200
C 	C 	0.80750 0.67170 0.52630 -0.02200
C 	C 	0.97488 0.01561 0.78083 0.33300
C 	C 	0.97854 0.02502 0.71750 -0.43000
C 	C 	0.89618 0.07406 0.69378 0.49700
C 	C 	0.80726 0.11298 0.73590 -0.41700
C 	C 	0.80076 0.10298 0.80010 0.31100
C 	C 	0.88472 0.05403 0.82333 -0.30800
C 	C 	0.87762 0.04258 0.89298 0.47900
C 	C 	0.89440 0.08430 0.62330 -0.58900
C 	C 	0.00611 0.06138 0.57780 0.96600
C 	C 	0.83360 0.03550 0.61790 0.98700
C 	C 	0.52227 0.58936 0.60050 0.41800
C 	C 	0.41069 0.62585 0.63957 -0.25500
C 	C 	0.39575 0.63339 0.70251 0.25900
C 	C 	0.29627 0.67178 0.73688 -0.37400
C 	C 	0.21090 0.70496 0.70904 0.44300
C 	C 	0.22571 0.69500 0.64658 -0.36500
C 	C 	0.32502 0.65584 0.61252 0.26100
C 	C 	0.04440 0.69600 0.78980 0.98700
C 	C 	0.00920 0.49100 0.60000 -0.15800
C 	C 	0.96030 0.61640 0.57260 -0.02900
C 	C 	0.65760 0.72000 0.48160 0.02700
C 	C 	0.74610 0.80030 0.49310 -0.10300
C 	C 	0.67120 0.79170 0.47270 0.00300
C 	C 	0.90320 0.74440 0.54460 -0.20800
C 	C 	0.82380 0.73860 0.51960 0.14300
C 	C 	0.15000 0.10673 0.95427 0.48300
C 	C 	0.13673 0.18656 0.93518 -0.30000
C 	C 	0.22494 0.21172 0.90520 0.31400
C 	C 	0.21026 0.28458 0.88670 -0.44300
C 	C 	0.11037 0.33432 0.89774 0.50900
C 	C 	0.02197 0.31016 0.92910 -0.44200
C 	C 	0.03624 0.23622 0.94590 0.28600
C 	C 	0.49260 0.01320 0.91880 0.09400
C 	C 	0.67560 0.94800 0.90240 0.11300
C 	C 	0.72330 0.80920 0.93640 0.13800
C 	C 	0.53770 0.88980 0.94740 0.10100
C 	C 	0.50550 0.82830 0.97370 -0.03800
C 	C 	0.27132 0.48439 0.71917 0.35200
C 	C 	0.22106 0.47498 0.78250 -0.43800
C 	C 	0.16402 0.42594 0.80622 0.51300
C 	C 	0.15614 0.38702 0.76410 -0.43200
C 	C 	0.20384 0.39702 0.69990 0.32300
C 	C 	0.26208 0.44597 0.67667 -0.32100
C 	C 	0.31318 0.45742 0.60702 0.48700
C 	C 	0.10200 0.41570 0.87670 -0.63900
C 	C 	0.14529 0.43862 0.92220 1.01100
C 	C 	0.98700 0.46450 0.88210 1.03500
C 	C 	0.21213 0.91064 0.89950 0.41400
C 	C 	0.17611 0.87415 0.86043 -0.24700
C 	C 	0.23165 0.86661 0.79749 0.25400
C 	C 	0.20493 0.82822 0.76312 -0.36800
C 	C 	0.12490 0.79504 0.79096 0.43700
C 	C 	0.06729 0.80500 0.85342 -0.35900
C 	C 	0.09338 0.84416 0.88748 0.25500
C 	C 	0.03020 0.80400 0.71020 0.97100
C 	C 	0.60020 0.00900 0.90000 -0.19200
C 	C 	0.64930 0.88360 0.92740 -0.06500
C 	C 	0.35920 0.78000 0.01840 -0.02500
C 	C 	0.53950 0.69970 0.00690 -0.17300
C 	C 	0.43560 0.70830 0.02730 0.04900
C 	C 	0.69220 0.75560 0.95540 -0.21900
C 	C 	0.58200 0.76140 0.98040 0.19200
C 	C 	0.89850 0.25000 0.25000 -0.61500
C 	C 	0.10150 0.75000 0.75000 -0.58300
N 	N 	0.14231 0.45438 0.44260 -0.21000
N 	N 	0.27505 0.33730 0.49220 -0.20100
N 	N 	0.53929 0.04562 0.05740 -0.22500
N 	N 	0.60455 0.16270 0.00780 -0.23100
N 	N 	0.85769 0.54562 0.55740 -0.23000
N 	N 	0.72495 0.66270 0.50780 -0.19000
N 	N 	0.46071 0.95438 0.94260 -0.21700
N 	N 	0.39545 0.83730 0.99220 -0.16600
O 	O 	0.37314 0.58838 0.47134 -0.47400
O 	O 	0.23863 0.56527 0.45147 -0.48300
O 	O 	0.46684 0.42131 0.45555 -0.53200
O 	O 	0.40008 0.42641 0.37683 -0.39600
O 	O 	0.03620 0.97882 0.09018 -0.45700
O 	O 	0.21648 0.94430 0.07074 -0.49900
O 	O 	0.93286 0.91162 0.02866 -0.45800
O 	O 	0.75537 0.93473 0.04853 -0.47100
O 	O 	0.84370 0.07869 0.04445 -0.54300
O 	O 	0.70332 0.07359 0.12317 -0.40400
O 	O 	0.60520 0.52118 0.40982 -0.45700
O 	O 	0.73152 0.55570 0.42926 -0.49300
O 	O 	0.62686 0.41162 0.52866 -0.47300
O 	O 	0.76137 0.43473 0.54853 -0.47700
O 	O 	0.53316 0.57869 0.54445 -0.53100
O 	O 	0.59992 0.57359 0.62317 -0.39200
O 	O 	0.96380 0.02118 0.90982 -0.44600
O 	O 	0.78352 0.05570 0.92926 -0.48400
O 	O 	0.06714 0.08838 0.97134 -0.47300
O 	O 	0.24463 0.06527 0.95147 -0.48300
O 	O 	0.15630 0.92131 0.95555 -0.51400
O 	O 	0.29668 0.92641 0.87683 -0.38500
O 	O 	0.39480 0.47882 0.59018 -0.45800
O 	O 	0.26848 0.44430 0.57074 -0.49500
F 	F 	0.27171 0.94092 0.35026 -0.49000
F 	F 	0.16702 0.96781 0.44095 -0.42200
F 	F 	0.13072 0.03219 0.35657 -0.43800
F 	F 	0.94622 0.01078 0.41858 -0.41700
F 	F 	0.99552 0.91691 0.48245 -0.41300
F 	F 	0.92455 0.91115 0.41115 -0.50500
F 	F 	0.95766 0.35092 0.24516 -0.44400
F 	F 	0.90683 0.34487 0.16507 -0.46300
F 	F 	0.05804 0.27411 0.17981 -0.47300
F 	F 	0.06289 0.55908 0.14974 -0.49800
F 	F 	0.07578 0.53219 0.05905 -0.43100
F 	F 	0.01948 0.46781 0.14343 -0.41900
F 	F 	0.87558 0.48922 0.08142 -0.39800
F 	F 	0.89488 0.58309 0.01755 -0.42400
F 	F 	0.74685 0.58885 0.08885 -0.51400
F 	F 	0.05374 0.14908 0.25484 -0.46900
F 	F 	0.91677 0.15513 0.33493 -0.46300
F 	F 	0.01196 0.22589 0.32019 -0.47600
F 	F 	0.72829 0.05908 0.64974 -0.49500
F 	F 	0.83298 0.03219 0.55905 -0.42300
F 	F 	0.86928 0.96781 0.64343 -0.38400
F 	F 	0.05378 0.98922 0.58142 -0.38100
F 	F 	0.00448 0.08309 0.51755 -0.42600
F 	F 	0.07545 0.08885 0.58885 -0.51500
F 	F 	0.04234 0.64908 0.75484 -0.45100
F 	F 	0.09317 0.65513 0.83493 -0.45900
F 	F 	0.94196 0.72589 0.82019 -0.43500
F 	F 	0.93711 0.44092 0.85026 -0.48800
F 	F 	0.92422 0.46781 0.94095 -0.41300
F 	F 	0.98052 0.53219 0.85657 -0.40300
F 	F 	0.12442 0.51078 0.91858 -0.39700
F 	F 	0.10512 0.41691 0.98245 -0.41300
F 	F 	0.25315 0.41115 0.91115 -0.50600
F 	F 	0.94626 0.85092 0.74516 -0.42400
F 	F 	0.08323 0.84487 0.66507 -0.45900
F 	F 	0.98804 0.77411 0.67981 -0.43200
