data_crystal

_cell_length_a 10.67200
_cell_length_b 10.71940
_cell_length_c 11.93510
_cell_angle_alpha 70.34100
_cell_angle_beta  77.92800
_cell_angle_gamma 60.85440

_symmetry_space_group_name_	'P 1'
_symmetry_space_group_name_H-M	'P 1'

loop_
_symmetry_equiv_pos_as_xyz
  x,y,z

loop_
_atom_site_label
_atom_site_type_symbol
_atom_site_fract_x
_atom_site_fract_y
_atom_site_fract_z
_atom_site_charge
Tb	Tb	0.54938 0.99827 0.16246 2.00900
Tb	Tb	0.45062 0.00173 0.83754 1.72600
Cu	Cu	-0.00000 0.00000 -0.00000 0.80200
Cu	Cu	0.00000 0.00000 0.50000 0.81800
H 	H 	0.01060 0.27080 0.51480 -0.11400
H 	H 	0.91400 0.52100 0.42850 0.13300
H 	H 	0.68550 0.47940 0.23310 0.09400
H 	H 	0.78110 0.23120 0.32880 -0.02000
H 	H 	0.99480 0.72150 0.17690 0.12300
H 	H 	0.13140 0.46920 0.22060 0.01000
H 	H 	0.39340 0.53050 0.93650 0.05400
H 	H 	0.25180 0.77930 0.90060 0.01400
H 	H 	0.98940 0.72920 0.48520 0.12200
H 	H 	0.08600 0.47900 0.57150 0.01800
H 	H 	0.31450 0.52060 0.76690 0.06800
H 	H 	0.21890 0.76880 0.67120 0.02700
H 	H 	0.00520 0.27850 0.82310 -0.10700
H 	H 	0.86860 0.53080 0.77940 0.15100
H 	H 	0.60660 0.46950 0.06350 0.10700
H 	H 	0.74820 0.22070 0.09940 -0.04300
C 	C 	0.17820 0.97720 0.28310 -0.04900
C 	C 	0.17290 0.98820 0.16510 0.06000
C 	C 	0.28370 0.96520 0.35810 0.39100
C 	C 	0.26470 0.00190 0.05530 0.22500
C 	C 	0.94370 0.31340 0.45730 0.26000
C 	C 	0.88630 0.46380 0.40530 -0.20500
C 	C 	0.78860 0.53020 0.31960 0.06500
C 	C 	0.75120 0.43960 0.29100 -0.14300
C 	C 	0.81040 0.29000 0.34780 0.10700
C 	C 	0.72390 0.69360 0.25700 0.26900
C 	C 	0.07660 0.68190 0.12870 -0.13000
C 	C 	0.15730 0.53050 0.15470 0.03700
C 	C 	0.27830 0.46910 0.08170 -0.12800
C 	C 	0.31260 0.56690 0.98640 0.01200
C 	C 	0.22810 0.71570 0.96590 0.06800
C 	C 	0.37060 0.30540 0.10830 0.33100
C 	C 	0.82180 0.02280 0.71690 -0.00600
C 	C 	0.82710 0.01180 0.83490 -0.12500
C 	C 	0.71630 0.03480 0.64190 0.34700
C 	C 	0.73530 0.99810 0.94470 0.49700
C 	C 	0.05630 0.68660 0.54270 -0.10200
C 	C 	0.11370 0.53620 0.59470 0.00800
C 	C 	0.21140 0.46980 0.68040 -0.05900
C 	C 	0.24880 0.56040 0.70900 -0.04800
C 	C 	0.18960 0.71000 0.65220 0.03900
C 	C 	0.27610 0.30640 0.74300 0.31100
C 	C 	0.92340 0.31810 0.87130 0.27300
C 	C 	0.84270 0.46950 0.84530 -0.22700
C 	C 	0.72170 0.53090 0.91830 0.12400
C 	C 	0.68740 0.43310 0.01360 -0.21200
C 	C 	0.77190 0.28430 0.03410 0.10300
C 	C 	0.62940 0.69460 0.89170 0.23500
N 	N 	0.05480 0.97610 0.33770 -0.16900
N 	N 	0.97610 0.98150 0.26130 -0.00600
N 	N 	0.04760 0.98970 0.15530 -0.18500
N 	N 	0.90720 0.22660 0.42830 -0.24100
N 	N 	0.11150 0.77470 0.03640 -0.19000
N 	N 	0.94520 0.02390 0.66230 -0.13400
N 	N 	0.02390 0.01850 0.73870 -0.14200
N 	N 	0.95240 0.01030 0.84470 -0.11200
N 	N 	0.09280 0.77340 0.57170 -0.16600
N 	N 	0.88850 0.22530 0.96360 -0.22300
O 	O 	0.23460 0.99180 0.45590 -0.31000
O 	O 	0.41360 0.92310 0.31920 -0.45400
O 	O 	0.38180 0.00410 0.05630 -0.57700
O 	O 	0.22320 0.01290 0.95880 -0.44900
O 	O 	0.73960 0.78110 0.29490 -0.38100
O 	O 	0.64990 0.74030 0.16920 -0.39700
O 	O 	0.48630 0.25520 0.04750 -0.46600
O 	O 	0.33250 0.21950 0.19250 -0.46400
O 	O 	0.76540 0.00820 0.54410 -0.35900
O 	O 	0.58640 0.07690 0.68080 -0.45900
O 	O 	0.61820 0.99590 0.94370 -0.49400
O 	O 	0.77680 0.98710 0.04120 -0.49500
O 	O 	0.26040 0.21890 0.70510 -0.39800
O 	O 	0.35010 0.25970 0.83080 -0.38600
O 	O 	0.51370 0.74480 0.95250 -0.33400
O 	O 	0.66750 0.78050 0.80750 -0.32900
