data_crystal

_cell_length_a 6.66760
_cell_length_b 17.11070
_cell_length_c 17.80620
_cell_angle_alpha 74.83600
_cell_angle_beta  79.20900
_cell_angle_gamma 78.76480

_symmetry_space_group_name_	'P 1'
_symmetry_space_group_name_H-M	'P 1'

loop_
_symmetry_equiv_pos_as_xyz
  x,y,z

loop_
_atom_site_label
_atom_site_type_symbol
_atom_site_fract_x
_atom_site_fract_y
_atom_site_fract_z
_atom_site_charge
Cu	Cu	0.55700 0.85217 0.35313 0.88800
Cu	Cu	0.51433 0.81693 0.18043 0.88600
Cu	Cu	0.76230 0.64783 0.14687 0.88800
Cu	Cu	0.51169 0.68307 0.31957 0.88600
Cu	Cu	0.44300 0.14783 0.64687 0.88700
Cu	Cu	0.48567 0.18307 0.81957 0.88500
Cu	Cu	0.23770 0.35217 0.85313 0.88700
Cu	Cu	0.48831 0.31693 0.68043 0.88500
H 	H 	0.48210 0.06400 0.05780 0.04100
H 	H 	0.35470 0.29290 0.09050 0.04300
H 	H 	0.43290 0.10400 0.27400 0.04200
H 	H 	0.89580 0.95090 0.31350 -0.00600
H 	H 	0.07660 0.01400 0.36880 0.09000
H 	H 	0.76750 0.92450 0.57830 0.09300
H 	H 	0.58640 0.86710 0.51770 0.02100
H 	H 	0.60390 0.43600 0.44220 0.04100
H 	H 	0.73810 0.20710 0.40950 0.04300
H 	H 	0.81090 0.39600 0.22600 0.04200
H 	H 	0.16020 0.54910 0.18650 -0.00500
H 	H 	0.45940 0.48600 0.13120 0.08900
H 	H 	0.27030 0.57550 0.92170 0.09300
H 	H 	0.97120 0.63290 0.98230 0.02100
H 	H 	0.51790 0.93600 0.94220 0.04100
H 	H 	0.64530 0.70710 0.90950 0.04300
H 	H 	0.56710 0.89600 0.72600 0.04200
H 	H 	0.10420 0.04910 0.68650 -0.00600
H 	H 	0.92340 0.98600 0.63120 0.09000
H 	H 	0.23250 0.07550 0.42170 0.09300
H 	H 	0.41360 0.13290 0.48230 0.02100
H 	H 	0.39610 0.56400 0.55780 0.04100
H 	H 	0.26190 0.79290 0.59050 0.04300
H 	H 	0.18910 0.60400 0.77400 0.04200
H 	H 	0.83980 0.45090 0.81350 -0.00500
H 	H 	0.54060 0.51400 0.86880 0.08900
H 	H 	0.72970 0.42450 0.07830 0.09300
H 	H 	0.02880 0.36710 0.01770 0.02100
C 	C 	0.46500 0.06960 0.17180 -0.12200
C 	C 	0.45760 0.09980 0.09100 0.06100
C 	C 	0.41320 0.18370 0.06110 -0.12200
C 	C 	0.38030 0.23680 0.11100 0.06100
C 	C 	0.38510 0.20710 0.18990 -0.08900
C 	C 	0.42820 0.12400 0.22040 0.06300
C 	C 	0.50870 0.97840 0.20420 0.38600
C 	C 	0.40210 0.21560 0.97540 0.37300
C 	C 	0.33540 0.26780 0.24180 0.31000
C 	C 	0.86770 0.94590 0.36750 0.08100
C 	C 	0.97700 0.98400 0.40060 -0.13400
C 	C 	0.94280 0.97920 0.48100 0.06200
C 	C 	0.79460 0.93190 0.52390 -0.13300
C 	C 	0.68820 0.89650 0.48690 0.08400
C 	C 	0.70640 0.43040 0.32820 -0.12200
C 	C 	0.64840 0.40020 0.40900 0.06200
C 	C 	0.65800 0.31630 0.43890 -0.12200
C 	C 	0.72810 0.26320 0.38900 0.06100
C 	C 	0.78210 0.29290 0.31010 -0.08900
C 	C 	0.77260 0.37600 0.27960 0.06400
C 	C 	0.69130 0.52160 0.29580 0.38600
C 	C 	0.59310 0.28440 0.52460 0.37400
C 	C 	0.84500 0.23220 0.25820 0.31000
C 	C 	0.18110 0.55410 0.13250 0.08100
C 	C 	0.36160 0.51600 0.09940 -0.13300
C 	C 	0.40300 0.52080 0.01900 0.06200
C 	C 	0.25040 0.56810 0.97610 -0.13400
C 	C 	0.07160 0.60350 0.01310 0.08500
C 	C 	0.53500 0.93040 0.82820 -0.12200
C 	C 	0.54240 0.90020 0.90900 0.06100
C 	C 	0.58680 0.81630 0.93890 -0.12200
C 	C 	0.61970 0.76320 0.88900 0.06100
C 	C 	0.61490 0.79290 0.81010 -0.08900
C 	C 	0.57180 0.87600 0.77960 0.06300
C 	C 	0.49130 0.02160 0.79580 0.38600
C 	C 	0.59790 0.78440 0.02460 0.37300
C 	C 	0.66460 0.73220 0.75820 0.31000
C 	C 	0.13230 0.05410 0.63250 0.08100
C 	C 	0.02300 0.01600 0.59940 -0.13400
C 	C 	0.05720 0.02080 0.51900 0.06200
C 	C 	0.20540 0.06810 0.47610 -0.13300
C 	C 	0.31180 0.10350 0.51310 0.08400
C 	C 	0.29360 0.56960 0.67180 -0.12200
C 	C 	0.35160 0.59980 0.59100 0.06200
C 	C 	0.34200 0.68370 0.56110 -0.12200
C 	C 	0.27190 0.73680 0.61100 0.06100
C 	C 	0.21790 0.70710 0.68990 -0.08900
C 	C 	0.22740 0.62400 0.72040 0.06400
C 	C 	0.30870 0.47840 0.70420 0.38600
C 	C 	0.40690 0.71560 0.47540 0.37400
C 	C 	0.15500 0.76780 0.74180 0.31000
C 	C 	0.81890 0.44590 0.86750 0.08100
C 	C 	0.63840 0.48400 0.90060 -0.13300
C 	C 	0.59700 0.47920 0.98100 0.06200
C 	C 	0.74960 0.43190 0.02390 -0.13400
C 	C 	0.92840 0.39650 0.98690 0.08500
N 	N 	0.71950 0.90100 0.40940 -0.22500
N 	N 	0.02990 0.59900 0.09060 -0.22500
N 	N 	0.28050 0.09900 0.59060 -0.22500
N 	N 	0.97010 0.40100 0.90940 -0.22500
O 	O 	0.53730 0.95620 0.27560 -0.43200
O 	O 	0.50782 0.93296 0.16060 -0.43500
O 	O 	0.46868 0.16664 0.93120 -0.42600
O 	O 	0.31696 0.28868 0.95420 -0.42800
O 	O 	0.31510 0.34070 0.21450 -0.24200
O 	O 	0.31060 0.23290 0.31730 -0.22100
O 	O 	0.41950 0.80240 0.29460 -0.57100
O 	O 	0.76910 0.54380 0.22440 -0.43200
O 	O 	0.60138 0.56704 0.33940 -0.43500
O 	O 	0.56652 0.33336 0.56880 -0.42600
O 	O 	0.55984 0.21132 0.54580 -0.42800
O 	O 	0.87030 0.15930 0.28550 -0.24200
O 	O 	0.86080 0.26710 0.18270 -0.22100
O 	O 	0.51650 0.69760 0.20540 -0.57100
O 	O 	0.46270 0.04380 0.72440 -0.43200
O 	O 	0.49218 0.06704 0.83940 -0.43500
O 	O 	0.53132 0.83336 0.06880 -0.42600
O 	O 	0.68304 0.71132 0.04580 -0.42800
O 	O 	0.68490 0.65930 0.78550 -0.24200
O 	O 	0.68940 0.76710 0.68270 -0.22100
O 	O 	0.58050 0.19760 0.70540 -0.57100
O 	O 	0.23090 0.45620 0.77560 -0.43200
O 	O 	0.39862 0.43296 0.66060 -0.43500
O 	O 	0.43348 0.66664 0.43120 -0.42600
O 	O 	0.44016 0.78868 0.45420 -0.42800
O 	O 	0.12970 0.84070 0.71450 -0.24200
O 	O 	0.13920 0.73290 0.81730 -0.22100
O 	O 	0.48350 0.30240 0.79460 -0.57100
