data_crystal

_cell_length_a 12.80800
_cell_length_b 14.15500
_cell_length_c 18.04790
_cell_angle_alpha 101.46000
_cell_angle_beta  110.78300
_cell_angle_gamma 90.00000

_symmetry_space_group_name_	'P 1'
_symmetry_space_group_name_H-M	'P 1'

loop_
_symmetry_equiv_pos_as_xyz
  x,y,z

loop_
_atom_site_label
_atom_site_type_symbol
_atom_site_fract_x
_atom_site_fract_y
_atom_site_fract_z
_atom_site_charge
Fe	Fe	0.25409 0.64481 0.03816 1.17800
Fe	Fe	0.53433 0.99273 0.43080 1.15200
Fe	Fe	0.21593 0.85519 0.96184 1.22900
Fe	Fe	0.10353 0.50727 0.56920 1.11500
Fe	Fe	0.74591 0.35519 0.96184 1.23400
Fe	Fe	0.46567 0.00727 0.56920 1.10900
Fe	Fe	0.78407 0.14481 0.03816 1.18000
Fe	Fe	0.89647 0.49273 0.43080 1.14500
Fe	Fe	-0.00000 0.50000 -0.00000 1.16800
Fe	Fe	-0.00000 0.00000 -0.00000 1.14700
H 	H 	0.32650 0.73430 0.27900 0.02500
H 	H 	0.26640 0.72290 0.48040 0.02400
H 	H 	0.08460 0.54590 0.26840 0.00200
H 	H 	0.89940 0.62960 0.86460 0.43900
H 	H 	0.95610 0.65820 0.80740 0.43500
H 	H 	0.93400 0.73840 0.87240 0.44100
H 	H 	0.56860 0.61100 0.01020 0.02500
H 	H 	0.04750 0.76570 0.72100 -0.04000
H 	H 	0.78600 0.77710 0.51960 0.02100
H 	H 	0.81620 0.95410 0.73160 0.02800
H 	H 	0.03480 0.87040 0.13540 0.45200
H 	H 	0.14870 0.84180 0.19260 0.46200
H 	H 	0.06160 0.76160 0.12760 0.44200
H 	H 	0.55840 0.88900 0.98980 0.04100
H 	H 	0.67350 0.26570 0.72100 0.02400
H 	H 	0.73360 0.27710 0.51960 0.02600
H 	H 	0.91540 0.45410 0.73160 0.02300
H 	H 	0.10060 0.37040 0.13540 0.49400
H 	H 	0.04390 0.34180 0.19260 0.49000
H 	H 	0.06600 0.26160 0.12760 0.48500
H 	H 	0.43140 0.38900 0.98980 -0.01400
H 	H 	0.95250 0.23430 0.27900 0.08900
H 	H 	0.21400 0.22290 0.48040 0.02900
H 	H 	0.18380 0.04590 0.26840 -0.00400
H 	H 	0.96520 0.12960 0.86460 0.48300
H 	H 	0.85130 0.15820 0.80740 0.46300
H 	H 	0.93840 0.23840 0.87240 0.48400
H 	H 	0.44160 0.11100 0.01020 -0.03100
H 	H 	0.83560 0.75000 -0.00000 0.03400
H 	H 	0.16440 0.25000 -0.00000 -0.14200
C 	C 	0.20263 0.63290 0.25986 -0.16100
C 	C 	0.28520 0.70840 0.30440 0.07200
C 	C 	0.30585 0.74470 0.38510 -0.14400
C 	C 	0.24936 0.70130 0.42492 0.08000
C 	C 	0.16742 0.62560 0.38144 -0.15600
C 	C 	0.14223 0.59370 0.29826 0.08500
C 	C 	0.17808 0.59800 0.16936 0.38900
C 	C 	0.38616 0.83360 0.42972 0.38800
C 	C 	0.10561 0.58000 0.42462 0.40500
C 	C 	0.06603 0.66290 0.92086 0.68500
C 	C 	0.95391 0.67320 0.86102 -1.28200
C 	C 	0.71159 0.66520 0.00418 -0.13500
C 	C 	0.60286 0.66640 0.00552 0.07500
C 	C 	0.77032 0.57390 0.00464 0.38200
C 	C 	0.94277 0.86710 0.74014 -0.11500
C 	C 	0.98080 0.79160 0.69560 0.17100
C 	C 	0.92075 0.75530 0.61490 -0.18700
C 	C 	0.82444 0.79870 0.57508 0.10300
C 	C 	0.78598 0.87440 0.61856 -0.14300
C 	C 	0.84397 0.90630 0.70174 0.07100
C 	C 	0.00872 0.90200 0.83064 0.27900
C 	C 	0.95644 0.66640 0.57028 0.47100
C 	C 	0.68099 0.92000 0.57538 0.40100
C 	C 	0.14517 0.83710 0.07914 0.76300
C 	C 	0.09289 0.82680 0.13898 -1.40600
C 	C 	0.70741 0.83480 0.99582 -0.08700
C 	C 	0.59734 0.83360 0.99448 0.13000
C 	C 	0.76568 0.92610 0.99536 0.41300
C 	C 	0.79737 0.36710 0.74014 -0.14500
C 	C 	0.71480 0.29160 0.69560 0.06600
C 	C 	0.69415 0.25530 0.61490 -0.14300
C 	C 	0.75064 0.29870 0.57508 0.07600
C 	C 	0.83258 0.37440 0.61856 -0.13900
C 	C 	0.85777 0.40630 0.70174 0.07500
C 	C 	0.82192 0.40200 0.83064 0.38000
C 	C 	0.61384 0.16640 0.57028 0.38900
C 	C 	0.89439 0.42000 0.57538 0.39600
C 	C 	0.93397 0.33710 0.07914 0.84800
C 	C 	0.04609 0.32680 0.13898 -1.56300
C 	C 	0.28841 0.33480 0.99582 -0.30000
C 	C 	0.39714 0.33360 0.99448 0.26500
C 	C 	0.22968 0.42610 0.99536 0.44700
C 	C 	0.05723 0.13290 0.25986 -0.19000
C 	C 	0.01920 0.20840 0.30440 -0.03300
C 	C 	0.07925 0.24470 0.38510 -0.10100
C 	C 	0.17556 0.20130 0.42492 0.05300
C 	C 	0.21402 0.12560 0.38144 -0.15100
C 	C 	0.15603 0.09370 0.29826 0.08900
C 	C 	0.99128 0.09800 0.16936 0.48900
C 	C 	0.04356 0.33360 0.42972 0.30700
C 	C 	0.31901 0.08000 0.42462 0.40000
C 	C 	0.85483 0.16290 0.92086 0.76800
C 	C 	0.90711 0.17320 0.86102 -1.43900
C 	C 	0.29259 0.16520 0.00418 -0.34900
C 	C 	0.40266 0.16640 0.00552 0.20400
C 	C 	0.23432 0.07390 0.00464 0.40300
C 	C 	0.54570 0.75000 -0.00000 -0.18600
C 	C 	0.76300 0.75000 -0.00000 -0.00200
C 	C 	0.42900 0.75000 -0.00000 0.34900
C 	C 	0.45430 0.25000 -0.00000 -0.30000
C 	C 	0.23700 0.25000 1.00000 0.38100
C 	C 	0.57100 0.25000 -0.00000 0.38000
O 	O 	0.08606 0.55350 0.12832 -0.45600
O 	O 	0.25260 0.62050 0.14460 -0.45500
O 	O 	0.44255 0.86180 0.39290 -0.44700
O 	O 	0.38787 0.87350 0.49894 -0.44400
O 	O 	0.16015 0.57330 0.49570 -0.46200
O 	O 	0.00509 0.55270 0.38578 -0.48600
O 	O 	0.15424 0.69680 0.91628 -0.54800
O 	O 	0.07495 0.62410 0.97990 -0.59700
O 	O 	0.86901 0.58030 0.00622 -0.43600
O 	O 	0.71661 0.49800 0.00202 -0.43800
O 	O 	0.39970 0.68590 0.02940 -0.43700
O 	O 	0.95774 0.94650 0.87168 -0.33300
O 	O 	0.10800 0.87950 0.85540 -0.40900
O 	O 	0.04965 0.63820 0.60710 -0.51200
O 	O 	0.88893 0.62650 0.50106 -0.46500
O 	O 	0.66445 0.92670 0.50430 -0.44200
O 	O 	0.61931 0.94730 0.61422 -0.43900
O 	O 	0.23796 0.80320 0.08372 -0.58700
O 	O 	0.09505 0.87590 0.02010 -0.66300
O 	O 	0.86279 0.91970 0.99378 -0.38000
O 	O 	0.71459 0.00200 0.99798 -0.41800
O 	O 	0.37030 0.81410 0.97060 -0.37600
O 	O 	0.91394 0.44650 0.87168 -0.39500
O 	O 	0.74740 0.37950 0.85540 -0.42800
O 	O 	0.55745 0.13820 0.60710 -0.46400
O 	O 	0.61213 0.12650 0.50106 -0.47100
O 	O 	0.83985 0.42670 0.50430 -0.45100
O 	O 	0.99491 0.44730 0.61422 -0.42800
O 	O 	0.84576 0.30320 0.08372 -0.60700
O 	O 	0.92505 0.37590 0.02010 -0.66900
O 	O 	0.13099 0.41970 0.99378 -0.43800
O 	O 	0.28339 0.50200 0.99798 -0.40500
O 	O 	0.60030 0.31410 0.97060 -0.38500
O 	O 	0.04226 0.05350 0.12832 -0.51400
O 	O 	0.89200 0.12050 0.14460 -0.47400
O 	O 	0.95035 0.36180 0.39290 -0.39900
O 	O 	0.11107 0.37350 0.49894 -0.45000
O 	O 	0.33555 0.07330 0.49570 -0.47000
O 	O 	0.38069 0.05270 0.38578 -0.47600
O 	O 	0.76204 0.19680 0.91628 -0.56500
O 	O 	0.90495 0.12410 0.97990 -0.59100
O 	O 	0.13721 0.08030 0.00622 -0.48800
O 	O 	0.28541 0.99800 0.00202 -0.41000
O 	O 	0.62970 0.18590 0.02940 -0.45000
