data_crystal

_cell_length_a 10.86400
_cell_length_b 21.56200
_cell_length_c 45.16500
_cell_angle_alpha 90.00000
_cell_angle_beta  93.85800
_cell_angle_gamma 90.00000

_symmetry_space_group_name_	'P 1'
_symmetry_space_group_name_H-M	'P 1'

loop_
_symmetry_equiv_pos_as_xyz
  x,y,z

loop_
_atom_site_label
_atom_site_type_symbol
_atom_site_fract_x
_atom_site_fract_y
_atom_site_fract_z
_atom_site_charge
Na	Na	0.37322 0.28387 0.13108 0.60400
Na	Na	0.62328 0.77353 0.37765 0.60300
Na	Na	0.12678 0.78387 0.36892 0.60400
Na	Na	0.87672 0.27353 0.12235 0.60200
Na	Na	0.62678 0.71613 0.86892 0.60400
Na	Na	0.37672 0.22647 0.62235 0.60300
Na	Na	0.87322 0.21613 0.63108 0.60400
Na	Na	0.12328 0.72647 0.87765 0.60200
Zn	Zn	0.90161 0.77511 0.13054 1.16300
Zn	Zn	0.36837 0.77529 0.11447 1.16400
Zn	Zn	0.59839 0.27511 0.36946 1.16300
Zn	Zn	0.13163 0.27529 0.38553 1.16400
Zn	Zn	0.09839 0.22489 0.86946 1.16300
Zn	Zn	0.63163 0.22471 0.88553 1.16400
Zn	Zn	0.40161 0.72489 0.63054 1.16300
Zn	Zn	0.86837 0.72471 0.61447 1.16400
H 	H 	0.69370 0.68420 0.21910 0.06600
H 	H 	0.71100 0.59580 0.18610 0.06500
H 	H 	0.84460 0.57110 0.07510 0.06700
H 	H 	0.95770 0.63470 0.04190 0.06400
H 	H 	0.17140 0.85780 0.05080 0.06200
H 	H 	0.15190 0.94680 0.08360 0.06100
H 	H 	0.90800 0.98880 0.18070 0.06300
H 	H 	0.79420 0.92240 0.21380 0.06900
H 	H 	0.86090 0.77860 0.25460 0.10300
H 	H 	0.76490 0.79080 0.29870 0.01700
H 	H 	0.45870 0.84770 0.25330 0.01900
H 	H 	0.55550 0.83650 0.20940 0.09100
H 	H 	0.39240 0.83680 0.32410 0.22700
H 	H 	0.92640 0.51280 0.12680 0.10000
H 	H 	0.84890 0.41370 0.12310 0.01300
H 	H 	0.51050 0.47860 0.13410 0.01100
H 	H 	0.57950 0.57760 0.13330 0.08700
H 	H 	0.98670 0.81580 0.01550 0.09100
H 	H 	0.05600 0.80430 0.96830 0.02000
H 	H 	0.24550 0.65330 0.99600 0.02100
H 	H 	0.18770 0.66740 0.04310 0.10000
H 	H 	0.28380 0.66790 0.92310 0.21700
H 	H 	0.87790 0.02940 0.11500 0.13200
H 	H 	0.93970 0.13070 0.11720 -0.01600
H 	H 	0.27310 0.08200 0.14490 -0.01500
H 	H 	0.20870 0.98020 0.14560 0.13200
H 	H 	0.10850 0.26340 0.13570 0.23300
H 	H 	0.38200 0.56120 0.06760 0.06700
H 	H 	0.49040 0.62450 0.03350 0.06600
H 	H 	0.58040 0.86770 0.02610 0.06600
H 	H 	0.56100 0.95850 0.06020 0.06000
H 	H 	0.44990 0.97400 0.17320 0.06300
H 	H 	0.32810 0.91240 0.20560 0.06800
H 	H 	0.08400 0.69500 0.19230 0.06300
H 	H 	0.10170 0.60730 0.15880 0.06300
H 	H 	0.31200 0.53980 0.15440 0.09200
H 	H 	0.25980 0.43680 0.15660 0.02700
H 	H 	0.07510 0.44940 0.07720 0.02500
H 	H 	0.13360 0.55300 0.07430 0.09200
H 	H 	0.41830 0.76640 0.99030 0.10600
H 	H 	0.52610 0.75040 0.94810 0.02300
H 	H 	0.82290 0.69690 0.99910 0.01800
H 	H 	0.71630 0.71670 0.04070 0.09000
H 	H 	0.90330 0.67670 0.92980 0.22700
H 	H 	0.37600 0.03020 0.08960 0.08800
H 	H 	0.44180 0.13470 0.09420 0.03200
H 	H 	0.72860 0.07950 0.14840 0.02200
H 	H 	0.65950 0.97800 0.14440 0.08100
H 	H 	0.60700 0.26240 0.11240 0.22300
H 	H 	0.27320 0.72890 0.22800 0.09500
H 	H 	0.21430 0.74320 0.27610 0.02500
H 	H 	0.03820 0.89960 0.25080 0.01900
H 	H 	0.10320 0.88780 0.20380 0.10000
H 	H 	0.01200 0.87390 0.32600 0.21800
H 	H 	0.80630 0.18420 0.28090 0.06500
H 	H 	0.78900 0.09580 0.31390 0.06500
H 	H 	0.65540 0.07110 0.42490 0.06700
H 	H 	0.54230 0.13470 0.45810 0.06500
H 	H 	0.32860 0.35780 0.44920 0.06200
H 	H 	0.34810 0.44680 0.41640 0.06200
H 	H 	0.59200 0.48880 0.31930 0.06500
H 	H 	0.70580 0.42240 0.28620 0.06800
H 	H 	0.63910 0.27860 0.24540 0.10200
H 	H 	0.73510 0.29080 0.20130 0.02000
H 	H 	0.04130 0.34770 0.24670 0.02800
H 	H 	0.94450 0.33650 0.29060 0.08600
H 	H 	0.10760 0.33680 0.17590 0.22700
H 	H 	0.57360 0.01280 0.37320 0.10100
H 	H 	0.65110 0.91370 0.37690 0.01400
H 	H 	0.98950 0.97860 0.36590 0.01000
H 	H 	0.92050 0.07760 0.36670 0.08600
H 	H 	0.51330 0.31580 0.48450 0.09200
H 	H 	0.44400 0.30430 0.53170 0.02000
H 	H 	0.25450 0.15330 0.50400 0.02100
H 	H 	0.31230 0.16740 0.45690 0.10000
H 	H 	0.21620 0.16790 0.57690 0.21700
H 	H 	0.62210 0.52940 0.38500 0.13300
H 	H 	0.56030 0.63070 0.38280 -0.01900
H 	H 	0.22690 0.58200 0.35510 -0.01700
H 	H 	0.29130 0.48020 0.35440 0.13500
H 	H 	0.39150 0.76340 0.36430 0.23300
H 	H 	0.11800 0.06120 0.43240 0.06800
H 	H 	0.00960 0.12450 0.46650 0.06600
H 	H 	0.91960 0.36770 0.47390 0.06600
H 	H 	0.93900 0.45850 0.43980 0.06000
H 	H 	0.05010 0.47400 0.32680 0.06400
H 	H 	0.17190 0.41240 0.29440 0.06800
H 	H 	0.41600 0.19500 0.30770 0.06200
H 	H 	0.39830 0.10730 0.34120 0.06200
H 	H 	0.18800 0.03980 0.34560 0.09200
H 	H 	0.24020 0.93680 0.34340 0.02800
H 	H 	0.42490 0.94940 0.42280 0.02500
H 	H 	0.36640 0.05300 0.42570 0.09100
H 	H 	0.08170 0.26640 0.50970 0.10500
H 	H 	0.97390 0.25040 0.55190 0.02400
H 	H 	0.67710 0.19690 0.50090 0.01800
H 	H 	0.78370 0.21670 0.45930 0.08900
H 	H 	0.59670 0.17670 0.57020 0.22700
H 	H 	0.12400 0.53020 0.41040 0.08700
H 	H 	0.05820 0.63470 0.40580 0.03200
H 	H 	0.77140 0.57950 0.35160 0.02200
H 	H 	0.84050 0.47800 0.35560 0.08100
H 	H 	0.89300 0.76240 0.38760 0.22300
H 	H 	0.22680 0.22890 0.27200 0.09500
H 	H 	0.28570 0.24320 0.22390 0.02500
H 	H 	0.46180 0.39960 0.24920 0.01800
H 	H 	0.39680 0.38780 0.29620 0.09900
H 	H 	0.48800 0.37390 0.17400 0.21700
H 	H 	0.30630 0.31580 0.78090 0.06600
H 	H 	0.28900 0.40420 0.81390 0.06500
H 	H 	0.15540 0.42890 0.92490 0.06700
H 	H 	0.04230 0.36530 0.95810 0.06400
H 	H 	0.82860 0.14220 0.94920 0.06200
H 	H 	0.84810 0.05320 0.91640 0.06100
H 	H 	0.09200 0.01120 0.81930 0.06300
H 	H 	0.20580 0.07760 0.78620 0.06900
H 	H 	0.13910 0.22140 0.74540 0.10300
H 	H 	0.23510 0.20920 0.70130 0.01700
H 	H 	0.54130 0.15230 0.74670 0.01900
H 	H 	0.44450 0.16350 0.79060 0.09100
H 	H 	0.60760 0.16320 0.67590 0.22700
H 	H 	0.07360 0.48720 0.87320 0.10000
H 	H 	0.15110 0.58630 0.87690 0.01300
H 	H 	0.48950 0.52140 0.86590 0.01100
H 	H 	0.42050 0.42240 0.86670 0.08700
H 	H 	0.01330 0.18420 0.98450 0.09100
H 	H 	0.94400 0.19570 0.03170 0.02000
H 	H 	0.75450 0.34670 0.00400 0.02100
H 	H 	0.81230 0.33260 0.95690 0.10000
H 	H 	0.71620 0.33210 0.07690 0.21700
H 	H 	0.12210 0.97060 0.88500 0.13200
H 	H 	0.06030 0.86930 0.88280 -0.01600
H 	H 	0.72690 0.91800 0.85510 -0.01500
H 	H 	0.79130 0.01980 0.85440 0.13200
H 	H 	0.89150 0.73660 0.86430 0.23300
H 	H 	0.61800 0.43880 0.93240 0.06700
H 	H 	0.50960 0.37550 0.96650 0.06600
H 	H 	0.41960 0.13230 0.97390 0.06600
H 	H 	0.43900 0.04150 0.93980 0.06000
H 	H 	0.55010 0.02600 0.82680 0.06300
H 	H 	0.67190 0.08760 0.79440 0.06800
H 	H 	0.91600 0.30500 0.80770 0.06300
H 	H 	0.89830 0.39270 0.84120 0.06300
H 	H 	0.68800 0.46020 0.84560 0.09200
H 	H 	0.74020 0.56320 0.84340 0.02700
H 	H 	0.92490 0.55060 0.92280 0.02500
H 	H 	0.86640 0.44700 0.92570 0.09200
H 	H 	0.58170 0.23360 0.00970 0.10600
H 	H 	0.47390 0.24960 0.05190 0.02300
H 	H 	0.17710 0.30310 0.00090 0.01800
H 	H 	0.28370 0.28330 0.95930 0.09000
H 	H 	0.09670 0.32330 0.07020 0.22700
H 	H 	0.62400 0.96980 0.91040 0.08800
H 	H 	0.55820 0.86530 0.90580 0.03200
H 	H 	0.27140 0.92050 0.85160 0.02200
H 	H 	0.34050 0.02200 0.85560 0.08100
H 	H 	0.39300 0.73760 0.88760 0.22300
H 	H 	0.72680 0.27110 0.77200 0.09500
H 	H 	0.78570 0.25680 0.72390 0.02500
H 	H 	0.96180 0.10040 0.74920 0.01900
H 	H 	0.89680 0.11220 0.79620 0.10000
H 	H 	0.98800 0.12610 0.67400 0.21800
H 	H 	0.19370 0.81580 0.71910 0.06500
H 	H 	0.21100 0.90420 0.68610 0.06500
H 	H 	0.34460 0.92890 0.57510 0.06700
H 	H 	0.45770 0.86530 0.54190 0.06500
H 	H 	0.67140 0.64220 0.55080 0.06200
H 	H 	0.65190 0.55320 0.58360 0.06200
H 	H 	0.40800 0.51120 0.68070 0.06500
H 	H 	0.29420 0.57760 0.71380 0.06800
H 	H 	0.36090 0.72140 0.75460 0.10200
H 	H 	0.26490 0.70920 0.79870 0.02000
H 	H 	0.95870 0.65230 0.75330 0.02800
H 	H 	0.05550 0.66350 0.70940 0.08600
H 	H 	0.89240 0.66320 0.82410 0.22700
H 	H 	0.42640 0.98720 0.62680 0.10100
H 	H 	0.34890 0.08630 0.62310 0.01400
H 	H 	0.01050 0.02140 0.63410 0.01000
H 	H 	0.07950 0.92240 0.63330 0.08600
H 	H 	0.48670 0.68420 0.51550 0.09200
H 	H 	0.55600 0.69570 0.46830 0.02000
H 	H 	0.74550 0.84670 0.49600 0.02100
H 	H 	0.68770 0.83260 0.54310 0.10000
H 	H 	0.78380 0.83210 0.42310 0.21700
H 	H 	0.37790 0.47060 0.61500 0.13300
H 	H 	0.43970 0.36930 0.61720 -0.01900
H 	H 	0.77310 0.41800 0.64490 -0.01700
H 	H 	0.70870 0.51980 0.64560 0.13500
H 	H 	0.60850 0.23660 0.63570 0.23300
H 	H 	0.88200 0.93880 0.56760 0.06800
H 	H 	0.99040 0.87550 0.53350 0.06600
H 	H 	0.08040 0.63230 0.52610 0.06600
H 	H 	0.06100 0.54150 0.56020 0.06000
H 	H 	0.94990 0.52600 0.67320 0.06400
H 	H 	0.82810 0.58760 0.70560 0.06800
H 	H 	0.58400 0.80500 0.69230 0.06200
H 	H 	0.60170 0.89270 0.65880 0.06200
H 	H 	0.81200 0.96020 0.65440 0.09200
H 	H 	0.75980 0.06320 0.65660 0.02800
H 	H 	0.57510 0.05060 0.57720 0.02500
H 	H 	0.63360 0.94700 0.57430 0.09100
H 	H 	0.91830 0.73360 0.49030 0.10500
H 	H 	0.02610 0.74960 0.44810 0.02400
H 	H 	0.32290 0.80310 0.49910 0.01800
H 	H 	0.21630 0.78330 0.54070 0.08900
H 	H 	0.40330 0.82330 0.42980 0.22700
H 	H 	0.87600 0.46980 0.58960 0.08700
H 	H 	0.94180 0.36530 0.59420 0.03200
H 	H 	0.22860 0.42050 0.64840 0.02200
H 	H 	0.15950 0.52200 0.64440 0.08100
H 	H 	0.10700 0.23760 0.61240 0.22300
H 	H 	0.77320 0.77110 0.72800 0.09500
H 	H 	0.71430 0.75680 0.77610 0.02500
H 	H 	0.53820 0.60040 0.75080 0.01800
H 	H 	0.60320 0.61220 0.70380 0.09900
H 	H 	0.51200 0.62610 0.82600 0.21700
C 	C 	0.82830 0.84906 0.18431 0.11000
C 	C 	0.78030 0.79742 0.19816 -0.16500
C 	C 	0.77950 0.73639 0.18731 0.09900
C 	C 	0.72800 0.68462 0.20074 -0.09200
C 	C 	0.73680 0.63610 0.18265 -0.08700
C 	C 	0.79330 0.65785 0.15699 0.09600
C 	C 	0.81020 0.62293 0.13135 -0.15600
C 	C 	0.86890 0.64350 0.10664 0.09700
C 	C 	0.87710 0.61024 0.07936 -0.08700
C 	C 	0.93920 0.64499 0.06110 -0.08400
C 	C 	0.97240 0.70179 0.07672 0.09100
C 	C 	0.03840 0.75177 0.06488 -0.16200
C 	C 	0.05640 0.80888 0.07887 0.08200
C 	C 	0.12660 0.85903 0.06766 -0.10700
C 	C 	0.11620 0.90792 0.08568 -0.08800
C 	C 	0.03970 0.88893 0.10876 0.09900
C 	C 	0.00290 0.92698 0.13163 -0.18400
C 	C 	0.92780 0.90757 0.15445 0.09500
C 	C 	0.89170 0.94664 0.17832 -0.08500
C 	C 	0.82950 0.91009 0.19658 -0.09500
C 	C 	0.71810 0.80687 0.22707 0.14600
C 	C 	0.78000 0.79285 0.25408 -0.18400
C 	C 	0.72200 0.79991 0.28070 0.10200
C 	C 	0.60420 0.81979 0.28034 -0.15900
C 	C 	0.53990 0.83390 0.25368 0.09600
C 	C 	0.59870 0.82710 0.22733 -0.18800
C 	C 	0.54180 0.82499 0.30887 0.40300
C 	C 	0.76250 0.55687 0.13066 0.13300
C 	C 	0.84210 0.50609 0.12760 -0.17700
C 	C 	0.79620 0.44688 0.12573 0.09700
C 	C 	0.67210 0.43671 0.12779 -0.14900
C 	C 	0.59340 0.48619 0.13171 0.09700
C 	C 	0.63470 0.54488 0.13210 -0.18000
C 	C 	0.62290 0.37133 0.12684 0.35500
C 	C 	0.08310 0.74283 0.03489 0.13500
C 	C 	0.04100 0.78390 0.01166 -0.16800
C 	C 	0.08090 0.77655 0.98326 0.08400
C 	C 	0.15800 0.72759 0.97750 -0.13700
C 	C 	0.19540 0.68676 0.00008 0.09200
C 	C 	0.15980 0.69470 0.02825 -0.18900
C 	C 	0.19430 0.71815 0.94661 0.35600
C 	C 	0.03700 0.99268 0.13096 0.23100
C 	C 	0.95820 0.03892 0.12195 -0.28500
C 	C 	0.99650 0.10010 0.12300 0.20200
C 	C 	0.10970 0.11718 0.13188 -0.24800
C 	C 	0.19120 0.07218 0.13958 0.18200
C 	C 	0.15190 0.01050 0.13945 -0.27500
C 	C 	0.16060 0.18146 0.13398 0.46300
C 	C 	0.22640 0.66210 0.13517 0.08900
C 	C 	0.26550 0.62494 0.11261 -0.15100
C 	C 	0.34020 0.64234 0.09040 0.09400
C 	C 	0.39050 0.60411 0.06867 -0.08900
C 	C 	0.45160 0.63823 0.05001 -0.07800
C 	C 	0.44490 0.70171 0.06099 0.09200
C 	C 	0.49240 0.75560 0.04712 -0.16100
C 	C 	0.48820 0.81601 0.05767 0.10100
C 	C 	0.54420 0.86766 0.04415 -0.09700
C 	C 	0.53420 0.91818 0.06318 -0.08300
C 	C 	0.47380 0.89479 0.08834 0.08700
C 	C 	0.46460 0.92669 0.11483 -0.14700
C 	C 	0.41060 0.90479 0.14035 0.08300
C 	C 	0.41110 0.93650 0.16848 -0.08300
C 	C 	0.34630 0.90249 0.18634 -0.09300
C 	C 	0.30910 0.84693 0.17005 0.09900
C 	C 	0.23810 0.79947 0.18013 -0.16000
C 	C 	0.21080 0.74136 0.16540 0.07500
C 	C 	0.13190 0.69303 0.17597 -0.11000
C 	C 	0.14190 0.64515 0.15756 -0.08200
C 	C 	0.23110 0.55756 0.11359 0.12900
C 	C 	0.26570 0.52178 0.13855 -0.16600
C 	C 	0.23260 0.46029 0.14021 0.07100
C 	C 	0.15980 0.43350 0.11775 -0.12500
C 	C 	0.12300 0.46759 0.09271 0.06400
C 	C 	0.15890 0.52987 0.09098 -0.16500
C 	C 	0.11590 0.36660 0.11975 0.32700
C 	C 	0.55870 0.74333 0.01940 0.15200
C 	C 	0.49990 0.75320 0.99207 -0.18700
C 	C 	0.56460 0.74290 0.96673 0.09300
C 	C 	0.68540 0.72180 0.96913 -0.15400
C 	C 	0.74220 0.71140 0.99706 0.09700
C 	C 	0.67760 0.72300 0.02194 -0.19400
C 	C 	0.74870 0.70810 0.94160 0.38500
C 	C 	0.51100 0.99354 0.11633 0.12000
C 	C 	0.44670 0.03989 0.10146 -0.15600
C 	C 	0.48640 0.10300 0.10392 0.06500
C 	C 	0.59030 0.11484 0.12066 -0.11600
C 	C 	0.65800 0.06955 0.13652 0.05800
C 	C 	0.61600 0.00920 0.13395 -0.16000
C 	C 	0.64050 0.18199 0.12382 0.36300
C 	C 	0.18910 0.80675 0.21053 0.13500
C 	C 	0.22610 0.76312 0.23265 -0.17200
C 	C 	0.19110 0.77194 0.26145 0.08700
C 	C 	0.12290 0.82259 0.26835 -0.14000
C 	C 	0.08670 0.86580 0.24631 0.09100
C 	C 	0.12340 0.85781 0.21811 -0.18700
C 	C 	0.09100 0.83040 0.29965 0.36300
C 	C 	0.67170 0.34906 0.31569 0.10900
C 	C 	0.71970 0.29742 0.30184 -0.16200
C 	C 	0.72050 0.23639 0.31269 0.09800
C 	C 	0.77200 0.18462 0.29926 -0.09100
C 	C 	0.76320 0.13610 0.31735 -0.08700
C 	C 	0.70670 0.15785 0.34301 0.09700
C 	C 	0.68980 0.12293 0.36865 -0.15600
C 	C 	0.63110 0.14350 0.39336 0.09700
C 	C 	0.62290 0.11024 0.42064 -0.08600
C 	C 	0.56080 0.14499 0.43890 -0.08500
C 	C 	0.52760 0.20179 0.42328 0.09300
C 	C 	0.46160 0.25177 0.43512 -0.16500
C 	C 	0.44360 0.30888 0.42113 0.08200
C 	C 	0.37340 0.35903 0.43234 -0.10700
C 	C 	0.38380 0.40792 0.41432 -0.08900
C 	C 	0.46030 0.38893 0.39124 0.10100
C 	C 	0.49710 0.42698 0.36837 -0.19000
C 	C 	0.57220 0.40757 0.34555 0.10100
C 	C 	0.60830 0.44664 0.32168 -0.08800
C 	C 	0.67050 0.41009 0.30342 -0.09200
C 	C 	0.78190 0.30687 0.27293 0.14000
C 	C 	0.72000 0.29285 0.24592 -0.17800
C 	C 	0.77800 0.29991 0.21930 0.09500
C 	C 	0.89580 0.31979 0.21966 -0.15000
C 	C 	0.96010 0.33390 0.24632 0.08000
C 	C 	0.90130 0.32710 0.27267 -0.17800
C 	C 	0.95820 0.32499 0.19113 0.39500
C 	C 	0.73750 0.05687 0.36934 0.13300
C 	C 	0.65790 0.00609 0.37240 -0.17700
C 	C 	0.70380 0.94688 0.37427 0.09700
C 	C 	0.82790 0.93671 0.37221 -0.14900
C 	C 	0.90660 0.98619 0.36829 0.09700
C 	C 	0.86530 0.04488 0.36790 -0.18000
C 	C 	0.87710 0.87133 0.37316 0.35600
C 	C 	0.41690 0.24283 0.46511 0.13600
C 	C 	0.45900 0.28390 0.48834 -0.17000
C 	C 	0.41910 0.27655 0.51674 0.08500
C 	C 	0.34200 0.22759 0.52250 -0.13800
C 	C 	0.30460 0.18676 0.49992 0.09300
C 	C 	0.34020 0.19470 0.47175 -0.19000
C 	C 	0.30570 0.21815 0.55339 0.35600
C 	C 	0.46300 0.49268 0.36904 0.23500
C 	C 	0.54180 0.53892 0.37805 -0.28900
C 	C 	0.50350 0.60010 0.37700 0.21300
C 	C 	0.39030 0.61718 0.36812 -0.25800
C 	C 	0.30880 0.57218 0.36042 0.19000
C 	C 	0.34810 0.51050 0.36055 -0.28300
C 	C 	0.33940 0.68146 0.36602 0.46600
C 	C 	0.27360 0.16210 0.36483 0.08900
C 	C 	0.23450 0.12494 0.38739 -0.15100
C 	C 	0.15980 0.14234 0.40960 0.09400
C 	C 	0.10950 0.10411 0.43133 -0.08900
C 	C 	0.04840 0.13823 0.44999 -0.07800
C 	C 	0.05510 0.20171 0.43901 0.09200
C 	C 	0.00760 0.25560 0.45288 -0.15900
C 	C 	0.01180 0.31601 0.44233 0.10200
C 	C 	0.95580 0.36766 0.45585 -0.09800
C 	C 	0.96580 0.41818 0.43682 -0.08500
C 	C 	0.02620 0.39479 0.41166 0.08800
C 	C 	0.03540 0.42669 0.38517 -0.14400
C 	C 	0.08940 0.40479 0.35965 0.08300
C 	C 	0.08890 0.43650 0.33152 -0.08200
C 	C 	0.15370 0.40249 0.31366 -0.09300
C 	C 	0.19090 0.34693 0.32995 0.10000
C 	C 	0.26190 0.29947 0.31987 -0.16000
C 	C 	0.28920 0.24136 0.33460 0.07500
C 	C 	0.36810 0.19303 0.32403 -0.11100
C 	C 	0.35810 0.14515 0.34244 -0.08200
C 	C 	0.26890 0.05756 0.38641 0.12800
C 	C 	0.23430 0.02178 0.36145 -0.16400
C 	C 	0.26740 0.96029 0.35979 0.06900
C 	C 	0.34020 0.93350 0.38225 -0.12500
C 	C 	0.37700 0.96759 0.40729 0.06200
C 	C 	0.34110 0.02987 0.40902 -0.16400
C 	C 	0.38410 0.86660 0.38025 0.32700
C 	C 	0.94130 0.24333 0.48060 0.15000
C 	C 	0.00010 0.25320 0.50793 -0.18500
C 	C 	0.93540 0.24290 0.53327 0.09100
C 	C 	0.81460 0.22180 0.53087 -0.15300
C 	C 	0.75780 0.21140 0.50294 0.09500
C 	C 	0.82240 0.22300 0.47806 -0.19200
C 	C 	0.75130 0.20810 0.55840 0.38500
C 	C 	0.98900 0.49354 0.38367 0.11500
C 	C 	0.05330 0.53989 0.39854 -0.15300
C 	C 	0.01360 0.60300 0.39608 0.06800
C 	C 	0.90970 0.61484 0.37934 -0.11800
C 	C 	0.84200 0.56955 0.36348 0.05800
C 	C 	0.88400 0.50920 0.36605 -0.16000
C 	C 	0.85950 0.68199 0.37618 0.36400
C 	C 	0.31090 0.30675 0.28947 0.13500
C 	C 	0.27390 0.26312 0.26735 -0.17300
C 	C 	0.30890 0.27194 0.23855 0.08700
C 	C 	0.37710 0.32259 0.23165 -0.14100
C 	C 	0.41330 0.36580 0.25369 0.09100
C 	C 	0.37660 0.35781 0.28189 -0.18800
C 	C 	0.40900 0.33040 0.20035 0.36300
C 	C 	0.17170 0.15094 0.81569 0.11000
C 	C 	0.21970 0.20258 0.80184 -0.16500
C 	C 	0.22050 0.26361 0.81269 0.09900
C 	C 	0.27200 0.31538 0.79926 -0.09200
C 	C 	0.26320 0.36390 0.81735 -0.08700
C 	C 	0.20670 0.34215 0.84301 0.09600
C 	C 	0.18980 0.37707 0.86865 -0.15600
C 	C 	0.13110 0.35650 0.89336 0.09700
C 	C 	0.12290 0.38976 0.92064 -0.08700
C 	C 	0.06080 0.35501 0.93890 -0.08400
C 	C 	0.02760 0.29821 0.92328 0.09100
C 	C 	0.96160 0.24823 0.93512 -0.16200
C 	C 	0.94360 0.19112 0.92113 0.08200
C 	C 	0.87340 0.14097 0.93234 -0.10700
C 	C 	0.88380 0.09208 0.91432 -0.08800
C 	C 	0.96030 0.11107 0.89124 0.09900
C 	C 	0.99710 0.07302 0.86837 -0.18400
C 	C 	0.07220 0.09243 0.84555 0.09500
C 	C 	0.10830 0.05336 0.82168 -0.08500
C 	C 	0.17050 0.08991 0.80342 -0.09500
C 	C 	0.28190 0.19313 0.77293 0.14600
C 	C 	0.22000 0.20715 0.74592 -0.18400
C 	C 	0.27800 0.20009 0.71930 0.10200
C 	C 	0.39580 0.18021 0.71966 -0.15900
C 	C 	0.46010 0.16610 0.74632 0.09600
C 	C 	0.40130 0.17290 0.77267 -0.18800
C 	C 	0.45820 0.17501 0.69113 0.40300
C 	C 	0.23750 0.44313 0.86934 0.13300
C 	C 	0.15790 0.49391 0.87240 -0.17700
C 	C 	0.20380 0.55312 0.87427 0.09700
C 	C 	0.32790 0.56329 0.87221 -0.14900
C 	C 	0.40660 0.51381 0.86829 0.09700
C 	C 	0.36530 0.45512 0.86790 -0.18000
C 	C 	0.37710 0.62867 0.87316 0.35500
C 	C 	0.91690 0.25717 0.96511 0.13500
C 	C 	0.95900 0.21610 0.98834 -0.16800
C 	C 	0.91910 0.22345 0.01674 0.08400
C 	C 	0.84200 0.27241 0.02250 -0.13700
C 	C 	0.80460 0.31324 0.99992 0.09200
C 	C 	0.84020 0.30530 0.97175 -0.18900
C 	C 	0.80570 0.28185 0.05339 0.35600
C 	C 	0.96300 0.00732 0.86904 0.23100
C 	C 	0.04180 0.96108 0.87805 -0.28500
C 	C 	0.00350 0.89990 0.87700 0.20200
C 	C 	0.89030 0.88282 0.86812 -0.24800
C 	C 	0.80880 0.92782 0.86042 0.18200
C 	C 	0.84810 0.98950 0.86055 -0.27500
C 	C 	0.83940 0.81854 0.86602 0.46300
C 	C 	0.77360 0.33790 0.86483 0.08900
C 	C 	0.73450 0.37506 0.88739 -0.15100
C 	C 	0.65980 0.35766 0.90960 0.09400
C 	C 	0.60950 0.39589 0.93133 -0.08900
C 	C 	0.54840 0.36177 0.94999 -0.07800
C 	C 	0.55510 0.29829 0.93901 0.09200
C 	C 	0.50760 0.24440 0.95288 -0.16100
C 	C 	0.51180 0.18399 0.94233 0.10100
C 	C 	0.45580 0.13234 0.95585 -0.09700
C 	C 	0.46580 0.08182 0.93682 -0.08300
C 	C 	0.52620 0.10521 0.91166 0.08700
C 	C 	0.53540 0.07331 0.88517 -0.14700
C 	C 	0.58940 0.09521 0.85965 0.08300
C 	C 	0.58890 0.06350 0.83152 -0.08300
C 	C 	0.65370 0.09751 0.81366 -0.09300
C 	C 	0.69090 0.15307 0.82995 0.09900
C 	C 	0.76190 0.20053 0.81987 -0.16000
C 	C 	0.78920 0.25864 0.83460 0.07500
C 	C 	0.86810 0.30697 0.82403 -0.11000
C 	C 	0.85810 0.35485 0.84244 -0.08200
C 	C 	0.76890 0.44244 0.88641 0.12900
C 	C 	0.73430 0.47822 0.86145 -0.16600
C 	C 	0.76740 0.53971 0.85979 0.07100
C 	C 	0.84020 0.56650 0.88225 -0.12500
C 	C 	0.87700 0.53241 0.90729 0.06400
C 	C 	0.84110 0.47013 0.90902 -0.16500
C 	C 	0.88410 0.63340 0.88025 0.32700
C 	C 	0.44130 0.25667 0.98060 0.15200
C 	C 	0.50010 0.24680 0.00793 -0.18700
C 	C 	0.43540 0.25710 0.03327 0.09300
C 	C 	0.31460 0.27820 0.03087 -0.15400
C 	C 	0.25780 0.28860 0.00294 0.09700
C 	C 	0.32240 0.27700 0.97806 -0.19400
C 	C 	0.25130 0.29190 0.05840 0.38500
C 	C 	0.48900 0.00646 0.88367 0.12000
C 	C 	0.55330 0.96011 0.89854 -0.15600
C 	C 	0.51360 0.89700 0.89608 0.06500
C 	C 	0.40970 0.88516 0.87934 -0.11600
C 	C 	0.34200 0.93045 0.86348 0.05800
C 	C 	0.38400 0.99080 0.86605 -0.16000
C 	C 	0.35950 0.81801 0.87618 0.36300
C 	C 	0.81090 0.19325 0.78947 0.13500
C 	C 	0.77390 0.23688 0.76735 -0.17200
C 	C 	0.80890 0.22806 0.73855 0.08700
C 	C 	0.87710 0.17741 0.73165 -0.14000
C 	C 	0.91330 0.13420 0.75369 0.09100
C 	C 	0.87660 0.14219 0.78189 -0.18700
C 	C 	0.90900 0.16960 0.70035 0.36300
C 	C 	0.32830 0.65094 0.68431 0.10900
C 	C 	0.28030 0.70258 0.69816 -0.16200
C 	C 	0.27950 0.76361 0.68731 0.09800
C 	C 	0.22800 0.81538 0.70074 -0.09100
C 	C 	0.23680 0.86390 0.68265 -0.08700
C 	C 	0.29330 0.84215 0.65699 0.09700
C 	C 	0.31020 0.87707 0.63135 -0.15600
C 	C 	0.36890 0.85650 0.60664 0.09700
C 	C 	0.37710 0.88976 0.57936 -0.08600
C 	C 	0.43920 0.85501 0.56110 -0.08500
C 	C 	0.47240 0.79821 0.57672 0.09300
C 	C 	0.53840 0.74823 0.56488 -0.16500
C 	C 	0.55640 0.69112 0.57887 0.08200
C 	C 	0.62660 0.64097 0.56766 -0.10700
C 	C 	0.61620 0.59208 0.58568 -0.08900
C 	C 	0.53970 0.61107 0.60876 0.10100
C 	C 	0.50290 0.57302 0.63163 -0.19000
C 	C 	0.42780 0.59243 0.65445 0.10100
C 	C 	0.39170 0.55336 0.67832 -0.08800
C 	C 	0.32950 0.58991 0.69658 -0.09200
C 	C 	0.21810 0.69313 0.72707 0.14000
C 	C 	0.28000 0.70715 0.75408 -0.17800
C 	C 	0.22200 0.70009 0.78070 0.09500
C 	C 	0.10420 0.68021 0.78034 -0.15000
C 	C 	0.03990 0.66610 0.75368 0.08000
C 	C 	0.09870 0.67290 0.72733 -0.17800
C 	C 	0.04180 0.67501 0.80887 0.39500
C 	C 	0.26250 0.94313 0.63066 0.13300
C 	C 	0.34210 0.99391 0.62760 -0.17700
C 	C 	0.29620 0.05312 0.62573 0.09700
C 	C 	0.17210 0.06329 0.62779 -0.14900
C 	C 	0.09340 0.01381 0.63171 0.09700
C 	C 	0.13470 0.95512 0.63210 -0.18000
C 	C 	0.12290 0.12867 0.62684 0.35600
C 	C 	0.58310 0.75717 0.53489 0.13600
C 	C 	0.54100 0.71610 0.51166 -0.17000
C 	C 	0.58090 0.72345 0.48326 0.08500
C 	C 	0.65800 0.77241 0.47750 -0.13800
C 	C 	0.69540 0.81324 0.50008 0.09300
C 	C 	0.65980 0.80530 0.52825 -0.19000
C 	C 	0.69430 0.78185 0.44661 0.35600
C 	C 	0.53700 0.50732 0.63096 0.23500
C 	C 	0.45820 0.46108 0.62195 -0.28900
C 	C 	0.49650 0.39990 0.62300 0.21300
C 	C 	0.60970 0.38282 0.63188 -0.25800
C 	C 	0.69120 0.42782 0.63958 0.19000
C 	C 	0.65190 0.48950 0.63945 -0.28300
C 	C 	0.66060 0.31854 0.63398 0.46600
C 	C 	0.72640 0.83790 0.63517 0.08900
C 	C 	0.76550 0.87506 0.61261 -0.15100
C 	C 	0.84020 0.85766 0.59040 0.09400
C 	C 	0.89050 0.89589 0.56867 -0.08900
C 	C 	0.95160 0.86177 0.55001 -0.07800
C 	C 	0.94490 0.79829 0.56099 0.09200
C 	C 	0.99240 0.74440 0.54712 -0.15900
C 	C 	0.98820 0.68399 0.55767 0.10200
C 	C 	0.04420 0.63234 0.54415 -0.09800
C 	C 	0.03420 0.58182 0.56318 -0.08500
C 	C 	0.97380 0.60521 0.58834 0.08800
C 	C 	0.96460 0.57331 0.61483 -0.14400
C 	C 	0.91060 0.59521 0.64035 0.08300
C 	C 	0.91110 0.56350 0.66848 -0.08200
C 	C 	0.84630 0.59751 0.68634 -0.09300
C 	C 	0.80910 0.65307 0.67005 0.10000
C 	C 	0.73810 0.70053 0.68013 -0.16000
C 	C 	0.71080 0.75864 0.66540 0.07500
C 	C 	0.63190 0.80697 0.67597 -0.11100
C 	C 	0.64190 0.85485 0.65756 -0.08200
C 	C 	0.73110 0.94244 0.61359 0.12800
C 	C 	0.76570 0.97822 0.63855 -0.16400
C 	C 	0.73260 0.03971 0.64021 0.06900
C 	C 	0.65980 0.06650 0.61775 -0.12500
C 	C 	0.62300 0.03241 0.59271 0.06200
C 	C 	0.65890 0.97013 0.59098 -0.16400
C 	C 	0.61590 0.13340 0.61975 0.32700
C 	C 	0.05870 0.75667 0.51940 0.15000
C 	C 	0.99990 0.74680 0.49207 -0.18500
C 	C 	0.06460 0.75710 0.46673 0.09100
C 	C 	0.18540 0.77820 0.46913 -0.15300
C 	C 	0.24220 0.78860 0.49706 0.09500
C 	C 	0.17760 0.77700 0.52194 -0.19200
C 	C 	0.24870 0.79190 0.44160 0.38500
C 	C 	0.01100 0.50646 0.61633 0.11500
C 	C 	0.94670 0.46011 0.60146 -0.15300
C 	C 	0.98640 0.39700 0.60392 0.06800
C 	C 	0.09030 0.38516 0.62066 -0.11800
C 	C 	0.15800 0.43045 0.63652 0.05800
C 	C 	0.11600 0.49080 0.63395 -0.16000
C 	C 	0.14050 0.31801 0.62382 0.36400
C 	C 	0.68910 0.69325 0.71053 0.13500
C 	C 	0.72610 0.73688 0.73265 -0.17300
C 	C 	0.69110 0.72806 0.76145 0.08700
C 	C 	0.62290 0.67741 0.76835 -0.14100
C 	C 	0.58670 0.63420 0.74631 0.09100
C 	C 	0.62340 0.64219 0.71811 -0.18800
C 	C 	0.59100 0.66960 0.79965 0.36300
N 	N 	0.81880 0.71948 0.16017 -0.29400
N 	N 	0.92490 0.70000 0.10389 -0.29100
N 	N 	0.01010 0.82694 0.10457 -0.29400
N 	N 	0.88720 0.84810 0.15926 -0.29500
N 	N 	0.37770 0.70248 0.08520 -0.28700
N 	N 	0.44460 0.83227 0.08440 -0.29100
N 	N 	0.35070 0.84843 0.14214 -0.29200
N 	N 	0.26210 0.72276 0.14034 -0.29300
N 	N 	0.68120 0.21948 0.33983 -0.29400
N 	N 	0.57510 0.20000 0.39611 -0.29000
N 	N 	0.48990 0.32694 0.39543 -0.29600
N 	N 	0.61280 0.34810 0.34074 -0.29400
N 	N 	0.12230 0.20248 0.41480 -0.28700
N 	N 	0.05540 0.33227 0.41560 -0.29100
N 	N 	0.14930 0.34843 0.35786 -0.29200
N 	N 	0.23790 0.22276 0.35966 -0.29300
N 	N 	0.18120 0.28052 0.83983 -0.29400
N 	N 	0.07510 0.30000 0.89611 -0.29100
N 	N 	0.98990 0.17306 0.89543 -0.29400
N 	N 	0.11280 0.15190 0.84074 -0.29500
N 	N 	0.62230 0.29752 0.91480 -0.28700
N 	N 	0.55540 0.16773 0.91560 -0.29100
N 	N 	0.64930 0.15157 0.85786 -0.29200
N 	N 	0.73790 0.27724 0.85966 -0.29300
N 	N 	0.31880 0.78052 0.66017 -0.29400
N 	N 	0.42490 0.80000 0.60389 -0.29000
N 	N 	0.51010 0.67306 0.60457 -0.29600
N 	N 	0.38720 0.65190 0.65926 -0.29400
N 	N 	0.87770 0.79752 0.58520 -0.28700
N 	N 	0.94460 0.66773 0.58440 -0.29100
N 	N 	0.85070 0.65157 0.64214 -0.29200
N 	N 	0.76210 0.77724 0.64034 -0.29300
O 	O 	0.59670 0.81789 0.33209 -0.35200
O 	O 	0.42330 0.83860 0.30497 -0.39000
O 	O 	0.52180 0.36026 0.13762 -0.33300
O 	O 	0.68060 0.33004 0.11265 -0.34200
O 	O 	0.16420 0.75284 0.92652 -0.32200
O 	O 	0.26350 0.66661 0.94323 -0.36800
O 	O 	0.26720 0.19296 0.13630 -0.35700
O 	O 	0.07410 0.22320 0.13284 -0.45300
O 	O 	0.16600 0.33380 0.14040 -0.32900
O 	O 	0.03100 0.34696 0.10188 -0.30900
O 	O 	0.70120 0.70876 0.91729 -0.34100
O 	O 	0.86810 0.69019 0.94748 -0.37400
O 	O 	0.56420 0.22394 0.11231 -0.41100
O 	O 	0.74380 0.19171 0.13507 -0.31700
O 	O 	0.11640 0.79106 0.31827 -0.31700
O 	O 	0.03070 0.88179 0.30605 -0.37400
O 	O 	0.90330 0.31789 0.16791 -0.35100
O 	O 	0.07670 0.33860 0.19503 -0.38600
O 	O 	0.97820 0.86026 0.36238 -0.33500
O 	O 	0.81940 0.83004 0.38735 -0.34200
O 	O 	0.33580 0.25284 0.57348 -0.32200
O 	O 	0.23650 0.16661 0.55677 -0.36800
O 	O 	0.23280 0.69296 0.36370 -0.35700
O 	O 	0.42590 0.72320 0.36716 -0.45500
O 	O 	0.33400 0.83380 0.35960 -0.32900
O 	O 	0.46900 0.84696 0.39812 -0.31000
O 	O 	0.79880 0.20876 0.58271 -0.34000
O 	O 	0.63190 0.19019 0.55252 -0.37400
O 	O 	0.93580 0.72394 0.38769 -0.41200
O 	O 	0.75620 0.69171 0.36493 -0.31700
O 	O 	0.38360 0.29106 0.18173 -0.31800
O 	O 	0.46930 0.38179 0.19395 -0.37500
O 	O 	0.40330 0.18211 0.66791 -0.35200
O 	O 	0.57670 0.16140 0.69503 -0.39000
O 	O 	0.47820 0.63974 0.86238 -0.33300
O 	O 	0.31940 0.66996 0.88735 -0.34200
O 	O 	0.83580 0.24716 0.07348 -0.32200
O 	O 	0.73650 0.33339 0.05677 -0.36800
O 	O 	0.73280 0.80704 0.86370 -0.35700
O 	O 	0.92590 0.77680 0.86716 -0.45300
O 	O 	0.83400 0.66620 0.85960 -0.32900
O 	O 	0.96900 0.65304 0.89812 -0.30900
O 	O 	0.29880 0.29124 0.08271 -0.34100
O 	O 	0.13190 0.30981 0.05252 -0.37400
O 	O 	0.43580 0.77606 0.88769 -0.41100
O 	O 	0.25620 0.80829 0.86493 -0.31700
O 	O 	0.88360 0.20894 0.68173 -0.31700
O 	O 	0.96930 0.11821 0.69395 -0.37400
O 	O 	0.09670 0.68211 0.83209 -0.35100
O 	O 	0.92330 0.66140 0.80497 -0.38600
O 	O 	0.02180 0.13974 0.63762 -0.33500
O 	O 	0.18060 0.16996 0.61265 -0.34200
O 	O 	0.66420 0.74716 0.42652 -0.32200
O 	O 	0.76350 0.83339 0.44323 -0.36800
O 	O 	0.76720 0.30704 0.63630 -0.35700
O 	O 	0.57410 0.27680 0.63284 -0.45500
O 	O 	0.66600 0.16620 0.64040 -0.32900
O 	O 	0.53100 0.15304 0.60188 -0.31000
O 	O 	0.20120 0.79124 0.41729 -0.34000
O 	O 	0.36810 0.80981 0.44748 -0.37400
O 	O 	0.06420 0.27606 0.61231 -0.41200
O 	O 	0.24380 0.30829 0.63507 -0.31700
O 	O 	0.61640 0.70894 0.81827 -0.31800
O 	O 	0.53070 0.61821 0.80605 -0.37500
