data_crystal

_cell_length_a 10.88600
_cell_length_b 11.47370
_cell_length_c 13.47340
_cell_angle_alpha 69.54400
_cell_angle_beta  80.14900
_cell_angle_gamma 62.65200

_symmetry_space_group_name_	'P 1'
_symmetry_space_group_name_H-M	'P 1'

loop_
_symmetry_equiv_pos_as_xyz
  x,y,z

loop_
_atom_site_label
_atom_site_type_symbol
_atom_site_fract_x
_atom_site_fract_y
_atom_site_fract_z
_atom_site_charge
U 	U 	0.63171 0.70253 0.83336 -0.00900
Pr	Pr	0.61975 0.21572 0.77469 1.95400
O 	O 	0.85810 0.52950 0.90560 -0.20600
O 	O 	0.77430 0.48420 0.79480 -0.23200
O 	O 	0.85280 0.20750 0.76110 -0.53900
O 	O 	0.89990 0.35570 0.62260 -0.24500
O 	O 	0.42700 0.90890 0.82740 -0.22900
O 	O 	0.51510 0.06060 0.77480 -0.49000
O 	O 	0.47560 0.17500 0.93150 -0.50600
O 	O 	0.31240 0.21330 0.05450 -0.23300
O 	O 	0.50800 0.69100 0.71280 -0.21600
O 	O 	0.42840 0.69620 0.56970 -0.30700
O 	O 	0.73910 0.63170 0.53500 -0.21300
O 	O 	0.85830 0.75120 0.47720 -0.20700
C 	C 	0.00930 0.33700 0.84490 -0.03300
C 	C 	0.11660 0.31160 0.90410 -0.02200
H 	H 	0.09790 0.36160 0.95070 0.06700
C 	C 	0.25110 0.21390 0.89610 -0.09300
C 	C 	0.27740 0.13550 0.82710 -0.10100
C 	C 	0.16740 0.15550 0.77440 0.02200
H 	H 	0.18340 0.09910 0.73360 0.04000
C 	C 	0.03230 0.25780 0.78000 -0.07400
C 	C 	0.62050 0.00200 0.45150 -0.01400
H 	H 	0.70250 0.00320 0.41870 0.05100
C 	C 	0.61690 0.87550 0.50410 -0.04300
C 	C 	0.49360 0.87390 0.55380 -0.04400
C 	C 	0.87180 0.45460 0.84960 0.27200
C 	C 	0.35610 0.19830 0.96320 0.34100
C 	C 	0.41840 0.02920 0.80820 0.36500
C 	C 	0.91860 0.27650 0.71720 0.37400
C 	C 	0.47770 0.74430 0.61440 0.29100
C 	C 	0.74410 0.74510 0.50630 0.27800
U 	U 	0.36829 0.29747 0.16664 -0.00800
Pr	Pr	0.38025 0.78428 0.22531 1.95400
O 	O 	0.14190 0.47050 0.09440 -0.20600
O 	O 	0.22570 0.51580 0.20520 -0.23200
O 	O 	0.14720 0.79250 0.23890 -0.53900
O 	O 	0.10010 0.64430 0.37740 -0.24500
O 	O 	0.57300 0.09110 0.17260 -0.22900
O 	O 	0.48490 0.93940 0.22520 -0.49000
O 	O 	0.52440 0.82500 0.06850 -0.50600
O 	O 	0.68760 0.78670 0.94550 -0.23300
O 	O 	0.49200 0.30900 0.28720 -0.21600
O 	O 	0.57160 0.30380 0.43030 -0.30700
O 	O 	0.26090 0.36830 0.46500 -0.21300
O 	O 	0.14170 0.24880 0.52280 -0.20700
C 	C 	0.99070 0.66300 0.15510 -0.03300
C 	C 	0.88340 0.68840 0.09590 -0.02200
H 	H 	0.90210 0.63840 0.04930 0.06700
C 	C 	0.74890 0.78610 0.10390 -0.09300
C 	C 	0.72260 0.86450 0.17290 -0.10100
C 	C 	0.83260 0.84450 0.22560 0.02200
H 	H 	0.81660 0.90090 0.26640 0.04000
C 	C 	0.96770 0.74220 0.22000 -0.07400
C 	C 	0.37950 0.99800 0.54850 -0.01400
H 	H 	0.29750 0.99680 0.58130 0.05100
C 	C 	0.38310 0.12450 0.49590 -0.04300
C 	C 	0.50640 0.12610 0.44620 -0.04400
C 	C 	0.12820 0.54540 0.15040 0.27200
C 	C 	0.64390 0.80170 0.03680 0.34100
C 	C 	0.58160 0.97080 0.19180 0.36500
C 	C 	0.08140 0.72350 0.28280 0.37400
C 	C 	0.52230 0.25570 0.38560 0.29100
C 	C 	0.25590 0.25490 0.49370 0.27800
U 	U 	-0.00000 0.50000 0.50000 0.00100
