data_crystal

_cell_length_a 17.30600
_cell_length_b 19.51700
_cell_length_c 18.72200
_cell_angle_alpha 90.00000
_cell_angle_beta  90.00000
_cell_angle_gamma 90.00000

_symmetry_space_group_name_	'P 1'
_symmetry_space_group_name_H-M	'P 1'

loop_
_symmetry_equiv_pos_as_xyz
  x,y,z

loop_
_atom_site_label
_atom_site_type_symbol
_atom_site_fract_x
_atom_site_fract_y
_atom_site_fract_z
_atom_site_charge
Cd	Cd	0.78050 0.55875 0.65708 1.23700
Cd	Cd	0.92918 0.57745 0.78640 1.16900
Cd	Cd	0.28050 0.94125 0.15708 1.23800
Cd	Cd	0.42918 0.92255 0.28640 1.16900
H 	H 	0.43530 0.50280 0.11000 0.06000
H 	H 	0.41860 0.49700 0.19420 0.04400
H 	H 	0.43010 0.37420 0.18360 0.02600
H 	H 	0.44880 0.38190 0.10000 0.04300
H 	H 	0.50840 0.44210 0.27540 0.03000
H 	H 	0.57540 0.39230 0.24720 0.03500
H 	H 	0.61350 0.49490 0.12420 0.05100
H 	H 	0.62190 0.41310 0.11890 0.04100
H 	H 	0.34110 0.16340 0.13390 -0.00900
H 	H 	0.28480 0.68860 0.16100 -0.00600
H 	H 	0.35080 0.58460 0.15110 0.13200
H 	H 	0.63250 0.44500 0.48330 0.00800
H 	H 	0.38430 0.27500 0.11770 0.13400
H 	H 	0.58110 0.41890 0.37080 0.11200
H 	H 	0.59320 0.50120 0.81940 -0.02800
H 	H 	0.51790 0.46900 0.91630 0.14900
H 	H 	0.59480 0.21850 0.19260 0.12400
H 	H 	0.54500 0.10990 0.21830 -0.02100
H 	H 	0.70920 0.47700 0.04090 0.15700
H 	H 	0.77710 0.51310 0.94580 -0.06400
H 	H 	0.69150 0.58470 0.28750 0.11100
H 	H 	0.74750 0.60760 0.39860 0.00400
H 	H 	0.55370 0.68120 0.19430 0.11600
H 	H 	0.48760 0.78640 0.19320 -0.04900
H 	H 	0.93530 0.99720 0.61000 0.05800
H 	H 	0.91860 0.00300 0.69420 0.04300
H 	H 	0.93010 0.12580 0.68360 0.02500
H 	H 	0.94880 0.11810 0.60000 0.04100
H 	H 	0.00840 0.05790 0.77540 0.02900
H 	H 	0.07540 0.10770 0.74720 0.03400
H 	H 	0.11350 0.00510 0.62420 0.04900
H 	H 	0.12190 0.08690 0.61890 0.03800
H 	H 	0.84110 0.33660 0.63390 -0.01000
H 	H 	0.78480 0.81140 0.66100 -0.00600
H 	H 	0.85080 0.91540 0.65110 0.13200
H 	H 	0.13250 0.05500 0.98330 0.00300
H 	H 	0.88430 0.22500 0.61770 0.13300
H 	H 	0.08110 0.08110 0.87080 0.11200
H 	H 	0.09320 0.99880 0.31940 -0.02800
H 	H 	0.01790 0.03100 0.41630 0.15100
H 	H 	0.09480 0.28150 0.69260 0.12300
H 	H 	0.04500 0.39010 0.71830 -0.02200
H 	H 	0.20920 0.02300 0.54090 0.14000
H 	H 	0.27710 0.98690 0.44580 -0.05600
H 	H 	0.19150 0.91530 0.78750 0.11000
H 	H 	0.24750 0.89240 0.89860 0.00000
H 	H 	0.05370 0.81880 0.69430 0.11600
H 	H 	0.98760 0.71360 0.69320 -0.05000
C 	C 	0.33990 0.81544 0.17495 0.38800
C 	C 	0.72510 0.54380 0.52390 0.34500
C 	C 	0.51848 0.44350 0.16340 0.00900
C 	C 	0.45962 0.50251 0.15790 0.00500
C 	C 	0.47218 0.37909 0.14810 0.02100
C 	C 	0.69310 0.52940 0.45325 -0.16600
C 	C 	0.55100 0.43766 0.24045 0.03100
C 	C 	0.58550 0.45189 0.11352 0.02800
C 	C 	0.49084 0.25828 0.15920 0.27800
C 	C 	0.39250 0.17505 0.14710 0.16500
C 	C 	0.44010 0.12480 0.17484 -0.22300
C 	C 	0.33940 0.68736 0.16580 0.15200
C 	C 	0.37860 0.62536 0.16140 -0.26300
C 	C 	0.63040 0.49970 0.31908 0.25000
C 	C 	0.64470 0.47333 0.44354 0.11300
C 	C 	0.38070 0.74756 0.17730 -0.21800
C 	C 	0.41740 0.24143 0.13810 -0.27800
C 	C 	0.60470 0.47158 0.98884 0.31500
C 	C 	0.69380 0.51164 0.87157 -0.29700
C 	C 	0.61350 0.45776 0.37673 -0.23900
C 	C 	0.45640 0.62216 0.17160 0.26600
C 	C 	0.74070 0.53260 0.80957 0.48100
C 	C 	0.41080 0.05294 0.18560 0.42500
C 	C 	0.61660 0.49740 0.86513 0.21500
C 	C 	0.57140 0.47790 0.92259 -0.31400
C 	C 	0.54200 0.20812 0.18400 -0.26400
C 	C 	0.51320 0.14299 0.19550 0.15700
C 	C 	0.68430 0.48340 0.99616 -0.36400
C 	C 	0.72380 0.50350 0.93940 0.25500
C 	C 	0.68010 0.55620 0.32730 -0.22200
C 	C 	0.71250 0.57050 0.39340 0.10300
C 	C 	0.49960 0.68290 0.18570 -0.24000
C 	C 	0.45970 0.74500 0.18640 0.13700
C 	C 	0.83990 0.68456 0.67495 0.38700
C 	C 	0.22510 0.95620 0.02390 0.35400
C 	C 	0.01848 0.05650 0.66340 0.00600
C 	C 	0.95962 0.99749 0.65790 0.00700
C 	C 	0.97218 0.12091 0.64810 0.02300
C 	C 	0.19310 0.97060 0.95325 -0.17500
C 	C 	0.05100 0.06234 0.74045 0.03300
C 	C 	0.08550 0.04811 0.61352 0.03200
C 	C 	0.99084 0.24172 0.65920 0.27700
C 	C 	0.89250 0.32495 0.64710 0.16400
C 	C 	0.94010 0.37520 0.67484 -0.22500
C 	C 	0.83940 0.81264 0.66580 0.15200
C 	C 	0.87860 0.87464 0.66140 -0.26400
C 	C 	0.13040 0.00030 0.81908 0.24900
C 	C 	0.14470 0.02667 0.94354 0.11500
C 	C 	0.88070 0.75244 0.67730 -0.21900
C 	C 	0.91740 0.25857 0.63810 -0.27900
C 	C 	0.10470 0.02842 0.48884 0.31700
C 	C 	0.19380 0.98836 0.37157 -0.29000
C 	C 	0.11350 0.04224 0.87673 -0.24100
C 	C 	0.95640 0.87784 0.67160 0.26500
C 	C 	0.24070 0.96740 0.30957 0.47800
C 	C 	0.91080 0.44706 0.68560 0.42500
C 	C 	0.11660 0.00260 0.36513 0.21400
C 	C 	0.07140 0.02210 0.42259 -0.31100
C 	C 	0.04200 0.29188 0.68400 -0.26500
C 	C 	0.01320 0.35701 0.69550 0.15700
C 	C 	0.18430 0.01660 0.49616 -0.33600
C 	C 	0.22380 0.99650 0.43940 0.23900
C 	C 	0.18010 0.94380 0.82730 -0.22400
C 	C 	0.21250 0.92950 0.89340 0.10600
C 	C 	0.99960 0.81710 0.68570 -0.24200
C 	C 	0.95970 0.75500 0.68640 0.13700
O 	O 	0.27097 0.81843 0.16477 -0.40300
O 	O 	0.38043 0.86939 0.18529 -0.55900
O 	O 	0.78492 0.58122 0.52789 -0.36100
O 	O 	0.69428 0.51918 0.57750 -0.40900
O 	O 	0.52246 0.32183 0.15202 -0.25100
O 	O 	0.34562 0.03878 0.16088 -0.45600
O 	O 	0.50085 0.56477 0.16950 -0.22700
O 	O 	0.55529 0.45374 0.04188 -0.24600
O 	O 	0.70767 0.53928 0.75096 -0.46800
O 	O 	0.60587 0.48971 0.25190 -0.24200
O 	O 	0.45410 0.01374 0.22121 -0.49100
O 	O 	0.81100 0.54100 0.81885 -0.52800
O 	O 	0.77097 0.68157 0.66477 -0.40400
O 	O 	0.88043 0.63061 0.68529 -0.55900
O 	O 	0.28492 0.91878 0.02789 -0.36100
O 	O 	0.19428 0.98082 0.07750 -0.41100
O 	O 	0.02246 0.17817 0.65202 -0.25200
O 	O 	0.84562 0.46122 0.66088 -0.45700
O 	O 	0.00085 0.93523 0.66950 -0.22700
O 	O 	0.05529 0.04626 0.54188 -0.25400
O 	O 	0.20767 0.96072 0.25096 -0.46800
O 	O 	0.10587 0.01029 0.75190 -0.24400
O 	O 	0.95410 0.48626 0.72121 -0.49300
O 	O 	0.31100 0.95900 0.31885 -0.52700
Cd	Cd	0.21950 0.44125 0.15708 1.23800
Cd	Cd	0.07082 0.42256 0.28640 1.17000
Cd	Cd	0.71950 0.05875 0.65708 1.23800
Cd	Cd	0.57082 0.07744 0.78640 1.16900
H 	H 	0.56470 0.49720 0.61000 0.05800
H 	H 	0.58140 0.50300 0.69420 0.04400
H 	H 	0.56990 0.62580 0.68360 0.02500
H 	H 	0.55120 0.61810 0.60000 0.04100
H 	H 	0.49160 0.55790 0.77540 0.02900
H 	H 	0.42460 0.60770 0.74720 0.03400
H 	H 	0.38650 0.50510 0.62420 0.04900
H 	H 	0.37810 0.58690 0.61890 0.03800
H 	H 	0.65890 0.83660 0.63390 -0.01000
H 	H 	0.71520 0.31140 0.66100 -0.00600
H 	H 	0.64920 0.41540 0.65110 0.13100
H 	H 	0.36750 0.55500 0.98330 0.00000
H 	H 	0.61570 0.72500 0.61770 0.13400
H 	H 	0.41890 0.58110 0.87080 0.11300
H 	H 	0.40680 0.49880 0.31940 -0.02600
H 	H 	0.48210 0.53100 0.41630 0.15000
H 	H 	0.40520 0.78150 0.69260 0.12300
H 	H 	0.45500 0.89010 0.71830 -0.02200
H 	H 	0.29080 0.52300 0.54090 0.14000
H 	H 	0.22290 0.48690 0.44580 -0.05600
H 	H 	0.30850 0.41530 0.78750 0.11200
H 	H 	0.25250 0.39240 0.89860 -0.00200
H 	H 	0.44630 0.31880 0.69430 0.11500
H 	H 	0.51240 0.21360 0.69320 -0.05000
H 	H 	0.06470 0.00280 0.11000 0.06000
H 	H 	0.08140 0.99700 0.19420 0.04300
H 	H 	0.06990 0.87420 0.18360 0.02700
H 	H 	0.05120 0.88190 0.10000 0.04300
H 	H 	0.99160 0.94210 0.27540 0.03000
H 	H 	0.92460 0.89230 0.24720 0.03500
H 	H 	0.88650 0.99490 0.12420 0.05100
H 	H 	0.87810 0.91310 0.11890 0.04100
H 	H 	0.15890 0.66340 0.13390 -0.00900
H 	H 	0.21520 0.18860 0.16100 -0.00600
H 	H 	0.14920 0.08460 0.15110 0.13200
H 	H 	0.86750 0.94500 0.48330 0.00800
H 	H 	0.11570 0.77500 0.11770 0.13400
H 	H 	0.91890 0.91890 0.37080 0.11100
H 	H 	0.90680 0.00120 0.81940 -0.03000
H 	H 	0.98210 0.96900 0.91630 0.15000
H 	H 	0.90520 0.71850 0.19260 0.12400
H 	H 	0.95500 0.60990 0.21830 -0.02100
H 	H 	0.79080 0.97700 0.04090 0.15300
H 	H 	0.72290 0.01310 0.94580 -0.06300
H 	H 	0.80850 0.08470 0.28750 0.11000
H 	H 	0.75250 0.10760 0.39860 0.00400
H 	H 	0.94630 0.18120 0.19430 0.11700
H 	H 	0.01240 0.28640 0.19320 -0.04900
C 	C 	0.66010 0.18456 0.67495 0.38700
C 	C 	0.27490 0.45620 0.02390 0.35900
C 	C 	0.48152 0.55650 0.66340 0.00600
C 	C 	0.54038 0.49749 0.65790 0.00700
C 	C 	0.52782 0.62091 0.64810 0.02300
C 	C 	0.30690 0.47060 0.95325 -0.18400
C 	C 	0.44900 0.56234 0.74045 0.03400
C 	C 	0.41450 0.54811 0.61352 0.03200
C 	C 	0.50916 0.74172 0.65920 0.27800
C 	C 	0.60750 0.82495 0.64710 0.16400
C 	C 	0.55990 0.87520 0.67484 -0.22500
C 	C 	0.66060 0.31264 0.66580 0.15200
C 	C 	0.62140 0.37464 0.66140 -0.26400
C 	C 	0.36960 0.50030 0.81908 0.25400
C 	C 	0.35530 0.52667 0.94354 0.12200
C 	C 	0.61930 0.25244 0.67730 -0.21900
C 	C 	0.58260 0.75857 0.63810 -0.27900
C 	C 	0.39530 0.52842 0.48884 0.31600
C 	C 	0.30620 0.48836 0.37157 -0.28800
C 	C 	0.38650 0.54224 0.87673 -0.24600
C 	C 	0.54360 0.37784 0.67160 0.26500
C 	C 	0.25930 0.46740 0.30957 0.47700
C 	C 	0.58920 0.94706 0.68560 0.42500
C 	C 	0.38340 0.50260 0.36513 0.21000
C 	C 	0.42860 0.52210 0.42259 -0.30900
C 	C 	0.45800 0.79188 0.68400 -0.26500
C 	C 	0.48680 0.85701 0.69550 0.15700
C 	C 	0.31570 0.51660 0.49616 -0.33500
C 	C 	0.27620 0.49650 0.43940 0.23800
C 	C 	0.31990 0.44380 0.82730 -0.22900
C 	C 	0.28750 0.42950 0.89340 0.11100
C 	C 	0.50040 0.31710 0.68570 -0.24100
C 	C 	0.54030 0.25500 0.68640 0.13700
C 	C 	0.16010 0.31544 0.17495 0.38800
C 	C 	0.77490 0.04380 0.52390 0.34500
C 	C 	0.98152 0.94350 0.16340 0.00900
C 	C 	0.04038 0.00251 0.15790 0.00600
C 	C 	0.02782 0.87909 0.14810 0.01900
C 	C 	0.80690 0.02940 0.45325 -0.16400
C 	C 	0.94900 0.93766 0.24045 0.03100
C 	C 	0.91450 0.95189 0.11352 0.02800
C 	C 	0.00916 0.75828 0.15920 0.27600
C 	C 	0.10750 0.67505 0.14710 0.16400
C 	C 	0.05990 0.62480 0.17484 -0.22400
C 	C 	0.16060 0.18736 0.16580 0.15300
C 	C 	0.12140 0.12536 0.16140 -0.26300
C 	C 	0.86960 0.99970 0.31908 0.24800
C 	C 	0.85530 0.97333 0.44354 0.11100
C 	C 	0.11930 0.24756 0.17730 -0.21800
C 	C 	0.08260 0.74143 0.13810 -0.27700
C 	C 	0.89530 0.97158 0.98884 0.31400
C 	C 	0.80620 0.01164 0.87157 -0.29800
C 	C 	0.88650 0.95776 0.37673 -0.23700
C 	C 	0.04360 0.12216 0.17160 0.26600
C 	C 	0.75930 0.03260 0.80957 0.48100
C 	C 	0.08920 0.55294 0.18560 0.42500
C 	C 	0.88340 0.99740 0.86513 0.21900
C 	C 	0.92860 0.97790 0.92259 -0.31400
C 	C 	0.95800 0.70812 0.18400 -0.26200
C 	C 	0.98680 0.64299 0.19550 0.15700
C 	C 	0.81570 0.98340 0.99616 -0.35600
C 	C 	0.77620 0.00350 0.93940 0.24900
C 	C 	0.81990 0.05620 0.32730 -0.22000
C 	C 	0.78750 0.07050 0.39340 0.10100
C 	C 	0.00040 0.18290 0.18570 -0.24200
C 	C 	0.04030 0.24500 0.18640 0.13800
O 	O 	0.72903 0.18157 0.66477 -0.40400
O 	O 	0.61957 0.13061 0.68529 -0.55900
O 	O 	0.21508 0.41878 0.02789 -0.36100
O 	O 	0.30572 0.48082 0.07750 -0.41100
O 	O 	0.47754 0.67817 0.65202 -0.25200
O 	O 	0.65438 0.96122 0.66088 -0.45700
O 	O 	0.49915 0.43523 0.66950 -0.22800
O 	O 	0.44471 0.54626 0.54188 -0.25300
O 	O 	0.29233 0.46072 0.25096 -0.46700
O 	O 	0.39413 0.51029 0.75190 -0.24400
O 	O 	0.54590 0.98626 0.72121 -0.49200
O 	O 	0.18900 0.45900 0.31885 -0.52600
O 	O 	0.22903 0.31843 0.16477 -0.40300
O 	O 	0.11957 0.36939 0.18529 -0.55800
O 	O 	0.71508 0.08122 0.52789 -0.36100
O 	O 	0.80572 0.01918 0.57750 -0.40900
O 	O 	0.97754 0.82183 0.15202 -0.24900
O 	O 	0.15438 0.53878 0.16088 -0.45600
O 	O 	0.99915 0.06477 0.16950 -0.22600
O 	O 	0.94471 0.95374 0.04188 -0.24600
O 	O 	0.79233 0.03928 0.75096 -0.46900
O 	O 	0.89413 0.98971 0.25190 -0.24200
O 	O 	0.04590 0.51374 0.22121 -0.49200
O 	O 	0.68900 0.04100 0.81885 -0.52900
