data_crystal

_cell_length_a 10.92200
_cell_length_b 11.40200
_cell_length_c 14.65400
_cell_angle_alpha 90.00000
_cell_angle_beta  109.30000
_cell_angle_gamma 90.00000

_symmetry_space_group_name_	'P 1'
_symmetry_space_group_name_H-M	'P 1'

loop_
_symmetry_equiv_pos_as_xyz
  x,y,z

loop_
_atom_site_label
_atom_site_type_symbol
_atom_site_fract_x
_atom_site_fract_y
_atom_site_fract_z
_atom_site_charge
Cu	Cu	0.40685 0.41843 0.97658 0.91900
Cu	Cu	0.59315 0.91843 0.52342 0.91900
Cu	Cu	0.59315 0.58157 0.02342 0.91900
Cu	Cu	0.40685 0.08157 0.47658 0.91900
H 	H 	0.87840 0.37290 0.94160 0.08200
H 	H 	0.88040 0.13400 0.73730 0.09100
H 	H 	0.54150 0.25340 0.75890 0.07300
H 	H 	0.09320 0.42210 0.90680 0.01400
H 	H 	0.12160 0.87290 0.55840 0.08300
H 	H 	0.11960 0.63400 0.76270 0.09200
H 	H 	0.45850 0.75340 0.74110 0.07300
H 	H 	0.90680 0.92210 0.59320 0.01300
H 	H 	0.12160 0.62710 0.05840 0.08300
H 	H 	0.11960 0.86600 0.26270 0.09200
H 	H 	0.45850 0.74660 0.24110 0.07300
H 	H 	0.90680 0.57790 0.09320 0.01400
H 	H 	0.87840 0.12710 0.44160 0.08300
H 	H 	0.88040 0.36600 0.23730 0.09200
H 	H 	0.54150 0.24660 0.25890 0.07300
H 	H 	0.09320 0.07790 0.40680 0.01300
C 	C 	0.62540 0.39170 0.90930 0.35100
C 	C 	0.69950 0.32470 0.85900 -0.04000
C 	C 	0.83220 0.32440 0.89090 -0.07600
C 	C 	0.89730 0.25080 0.84690 0.11200
C 	C 	0.83470 0.18000 0.76740 -0.07700
C 	C 	0.69930 0.18250 0.73580 -0.03200
C 	C 	0.63170 0.25350 0.78090 -0.00900
C 	C 	0.62690 0.11220 0.64910 0.33400
C 	C 	0.11760 0.34390 0.90740 0.10900
C 	C 	0.37460 0.89170 0.59070 0.35100
C 	C 	0.30050 0.82470 0.64100 -0.04000
C 	C 	0.16780 0.82440 0.60910 -0.07600
C 	C 	0.10270 0.75080 0.65310 0.11100
C 	C 	0.16530 0.68000 0.73260 -0.07700
C 	C 	0.30070 0.68250 0.76420 -0.03200
C 	C 	0.36830 0.75350 0.71910 -0.00900
C 	C 	0.37310 0.61220 0.85090 0.33400
C 	C 	0.88240 0.84390 0.59260 0.10900
C 	C 	0.37460 0.60830 0.09070 0.35100
C 	C 	0.30050 0.67530 0.14100 -0.04000
C 	C 	0.16780 0.67560 0.10910 -0.07600
C 	C 	0.10270 0.74920 0.15310 0.11200
C 	C 	0.16530 0.82000 0.23260 -0.07700
C 	C 	0.30070 0.81750 0.26420 -0.03200
C 	C 	0.36830 0.74650 0.21910 -0.00900
C 	C 	0.37310 0.88780 0.35090 0.33400
C 	C 	0.88240 0.65610 0.09260 0.10900
C 	C 	0.62540 0.10830 0.40930 0.35100
C 	C 	0.69950 0.17530 0.35900 -0.04000
C 	C 	0.83220 0.17560 0.39090 -0.07600
C 	C 	0.89730 0.24920 0.34690 0.11100
C 	C 	0.83470 0.32000 0.26740 -0.07700
C 	C 	0.69930 0.31750 0.23580 -0.03200
C 	C 	0.63170 0.24650 0.28090 -0.00900
C 	C 	0.62690 0.38780 0.14910 0.33400
C 	C 	0.11760 0.15610 0.40740 0.10900
N 	N 	0.03760 0.25190 0.88120 -0.10500
N 	N 	0.10930 0.15410 0.89230 -0.03400
N 	N 	0.22970 0.18760 0.92380 -0.03200
N 	N 	0.23930 0.30260 0.93470 -0.14200
N 	N 	0.96240 0.75190 0.61880 -0.10500
N 	N 	0.89070 0.65410 0.60770 -0.03300
N 	N 	0.77030 0.68760 0.57620 -0.03200
N 	N 	0.76070 0.80260 0.56530 -0.14200
N 	N 	0.96240 0.74810 0.11880 -0.10500
N 	N 	0.89070 0.84590 0.10770 -0.03400
N 	N 	0.77030 0.81240 0.07620 -0.03200
N 	N 	0.76070 0.69740 0.06530 -0.14200
N 	N 	0.03760 0.24810 0.38120 -0.10500
N 	N 	0.10930 0.34590 0.39230 -0.03300
N 	N 	0.22970 0.31240 0.42380 -0.03200
N 	N 	0.23930 0.19740 0.43470 -0.14200
O 	O 	0.51750 0.35290 0.90740 -0.39100
O 	O 	0.67760 0.48370 0.94950 -0.38500
O 	O 	0.51610 0.15250 0.59760 -0.38000
O 	O 	0.67840 0.02020 0.63560 -0.38300
O 	O 	0.48250 0.85290 0.59260 -0.39100
O 	O 	0.32240 0.98370 0.55050 -0.38600
O 	O 	0.48390 0.65250 0.90240 -0.37900
O 	O 	0.32160 0.52020 0.86440 -0.38300
O 	O 	0.48250 0.64710 0.09260 -0.39100
O 	O 	0.32240 0.51630 0.05050 -0.38500
O 	O 	0.48390 0.84750 0.40240 -0.38000
O 	O 	0.32160 0.97980 0.36440 -0.38300
O 	O 	0.51750 0.14710 0.40740 -0.39100
O 	O 	0.67760 0.01630 0.44950 -0.38600
O 	O 	0.51610 0.34750 0.09760 -0.37900
O 	O 	0.67840 0.47980 0.13560 -0.38300
