data_crystal

_cell_length_a 20.37300
_cell_length_b 23.78840
_cell_length_c 38.34470
_cell_angle_alpha 81.53910
_cell_angle_beta  74.59400
_cell_angle_gamma 64.64570

_symmetry_space_group_name_	'P 1'
_symmetry_space_group_name_H-M	'P 1'

loop_
_symmetry_equiv_pos_as_xyz
  x,y,z

loop_
_atom_site_label
_atom_site_type_symbol
_atom_site_fract_x
_atom_site_fract_y
_atom_site_fract_z
_atom_site_charge
Zn	Zn	0.81134 0.84410 0.86028 1.18000
Zn	Zn	0.71880 0.75499 0.84265 1.13300
Zn	Zn	0.51905 0.84221 0.86623 1.17900
Zn	Zn	0.77003 0.72468 0.74778 1.18200
Zn	Zn	0.76983 0.60932 0.89696 1.17600
Zn	Zn	0.48428 0.34410 0.36028 1.18000
Zn	Zn	0.68356 0.25499 0.34265 1.13300
Zn	Zn	0.77251 0.34221 0.36623 1.17900
Zn	Zn	0.75751 0.22468 0.24778 1.18200
Zn	Zn	0.72389 0.10932 0.39696 1.17600
H 	H 	0.74260 0.21550 0.13830 0.00700
H 	H 	0.42090 0.87110 0.79790 0.09200
H 	H 	0.95230 0.42460 0.93040 -0.00900
H 	H 	0.91510 0.98840 0.84800 -0.00100
H 	H 	0.76360 0.41220 0.92620 -0.00700
H 	H 	0.99740 0.79670 0.64990 0.19600
H 	H 	0.01040 0.85370 0.65750 0.19300
H 	H 	0.06540 0.78600 0.66580 0.18500
H 	H 	0.00360 0.32110 0.94730 0.11300
H 	H 	0.46120 0.99140 0.89060 0.09700
H 	H 	0.45410 0.13510 0.91430 0.18600
H 	H 	0.41890 0.11980 0.88720 0.19400
H 	H 	0.40720 0.09520 0.92760 0.19500
H 	H 	0.81470 0.30720 0.94180 0.10600
H 	H 	0.32430 0.73630 0.96750 0.21100
H 	H 	0.34960 0.66430 0.96610 0.20400
H 	H 	0.35680 0.69190 0.99890 0.20500
H 	H 	0.70020 0.99020 0.88720 0.08000
H 	H 	0.17310 0.09680 0.90840 0.11200
H 	H 	0.87420 0.10770 0.98130 0.03700
H 	H 	0.95240 0.05100 0.97900 0.05000
H 	H 	0.90720 0.77110 0.69590 0.10500
H 	H 	0.96020 0.14490 0.13450 -0.00300
H 	H 	0.87180 0.01410 0.97150 0.12300
H 	H 	0.98850 0.12980 0.07420 0.11800
H 	H 	0.86420 0.21670 0.97270 0.03700
H 	H 	0.90780 0.20000 0.93240 0.03800
H 	H 	0.06570 0.14140 0.95040 0.03500
H 	H 	0.04190 0.11960 0.92080 0.04200
H 	H 	0.41920 0.77140 0.92620 0.11600
H 	H 	0.61370 0.58170 0.95070 0.06800
H 	H 	0.03820 0.88780 0.74460 0.20600
H 	H 	0.08380 0.84520 0.71140 0.18800
H 	H 	0.01970 0.91040 0.70640 0.19300
H 	H 	0.94660 0.05960 0.86760 0.11000
H 	H 	0.62440 0.77820 0.70100 0.08900
H 	H 	0.94480 0.86680 0.78420 0.09700
H 	H 	0.76860 0.20590 0.07410 0.09900
H 	H 	0.83860 0.94380 0.95180 0.00300
H 	H 	0.87900 0.37600 0.82780 0.20600
H 	H 	0.83080 0.38400 0.80020 0.19700
H 	H 	0.91650 0.36710 0.78650 0.19700
H 	H 	0.85830 0.47790 0.70430 0.17000
H 	H 	0.91610 0.41810 0.72010 0.16100
H 	H 	0.83120 0.43100 0.73060 0.16100
H 	H 	0.53520 0.54180 0.98340 0.16400
H 	H 	0.46080 0.58770 0.00710 0.15900
H 	H 	0.45930 0.56100 0.97240 0.15900
H 	H 	0.54760 0.14170 0.90490 0.15900
H 	H 	0.61740 0.10040 0.92100 0.17400
H 	H 	0.62750 0.11650 0.87930 0.17100
H 	H 	0.54460 0.80500 0.66100 0.18800
H 	H 	0.46850 0.80060 0.68000 0.18000
H 	H 	0.47180 0.86580 0.67000 0.18800
H 	H 	0.33590 0.89900 0.76180 0.20100
H 	H 	0.36560 0.91760 0.72180 0.19800
H 	H 	0.35830 0.85380 0.73060 0.18700
H 	H 	0.04410 0.59540 0.98260 0.17300
H 	H 	0.98590 0.56540 0.99400 0.17200
H 	H 	0.05010 0.54380 0.95920 0.17200
H 	H 	0.93380 0.77250 0.91570 0.09300
H 	H 	0.90480 0.58480 0.94180 0.08200
H 	H 	0.29570 0.03850 0.87590 -0.00600
H 	H 	0.16020 0.93930 0.95690 0.14000
H 	H 	0.28350 0.88470 0.92710 -0.01300
H 	H 	0.03110 0.73750 0.95150 0.21100
H 	H 	0.01940 0.69200 0.98420 0.20500
H 	H 	0.08090 0.66570 0.94910 0.19800
H 	H 	0.83280 0.57290 0.72610 0.07000
H 	H 	0.84150 0.48310 0.84830 0.11500
H 	H 	0.99610 0.09550 0.01770 0.04300
H 	H 	0.98970 0.16450 0.01130 0.03700
H 	H 	0.90360 0.71550 0.63830 0.00700
H 	H 	0.91010 0.37110 0.29790 0.09200
H 	H 	0.69270 0.92460 0.43040 -0.00900
H 	H 	0.24850 0.48840 0.34800 -0.00200
H 	H 	0.89800 0.91220 0.42620 -0.00700
H 	H 	0.55600 0.29670 0.14990 0.19800
H 	H 	0.47840 0.35370 0.15750 0.19500
H 	H 	0.48280 0.28600 0.16580 0.18700
H 	H 	0.72800 0.82110 0.44730 0.11400
H 	H 	0.65680 0.49140 0.39060 0.09700
H 	H 	0.49650 0.63510 0.41430 0.18600
H 	H 	0.57410 0.61980 0.38720 0.19500
H 	H 	0.57000 0.59520 0.42760 0.19500
H 	H 	0.93630 0.80720 0.44180 0.10600
H 	H 	0.97190 0.23630 0.46750 0.21000
H 	H 	0.02000 0.16430 0.46610 0.20300
H 	H 	0.95240 0.19190 0.49890 0.20400
H 	H 	0.42240 0.49020 0.38720 0.08000
H 	H 	0.82170 0.59680 0.40840 0.11300
H 	H 	0.03680 0.60770 0.48130 0.03700
H 	H 	0.01760 0.55100 0.47900 0.04900
H 	H 	0.62580 0.27110 0.19590 0.10500
H 	H 	0.76040 0.64490 0.63450 -0.00300
H 	H 	0.14260 0.51410 0.47150 0.12400
H 	H 	0.80750 0.62980 0.57420 0.11800
H 	H 	0.94640 0.71670 0.47270 0.03700
H 	H 	0.95980 0.70000 0.43240 0.03700
H 	H 	0.84250 0.64140 0.45040 0.03400
H 	H 	0.91770 0.61960 0.42080 0.04200
H 	H 	0.88320 0.27140 0.42620 0.11600
H 	H 	0.85390 0.08170 0.45070 0.06800
H 	H 	0.32940 0.38780 0.24460 0.20600
H 	H 	0.35960 0.34520 0.21140 0.18800
H 	H 	0.36350 0.41040 0.20640 0.19300
H 	H 	0.12620 0.55960 0.36760 0.11100
H 	H 	0.89640 0.27820 0.20100 0.09000
H 	H 	0.40420 0.36680 0.28420 0.09800
H 	H 	0.95140 0.70590 0.57410 0.09900
H 	H 	0.26580 0.44380 0.45180 0.00200
H 	H 	0.91720 0.87600 0.32780 0.20500
H 	H 	0.98500 0.88400 0.30020 0.19600
H 	H 	0.92990 0.86710 0.28650 0.19700
H 	H 	0.95950 0.97790 0.20430 0.17100
H 	H 	0.94570 0.91810 0.22010 0.16200
H 	H 	0.00720 0.93100 0.23060 0.16300
H 	H 	0.93960 0.04180 0.48340 0.16300
H 	H 	0.94440 0.08770 0.50710 0.15800
H 	H 	0.00730 0.06100 0.47240 0.15700
H 	H 	0.40580 0.64170 0.40490 0.15900
H 	H 	0.36120 0.60040 0.42100 0.17400
H 	H 	0.37670 0.61650 0.37930 0.17100
H 	H 	0.98940 0.30500 0.16100 0.19000
H 	H 	0.05090 0.30060 0.18000 0.18100
H 	H 	0.99240 0.36580 0.17000 0.19000
H 	H 	0.00330 0.39900 0.26180 0.20100
H 	H 	0.99500 0.41760 0.22180 0.19800
H 	H 	0.05730 0.35380 0.23060 0.18700
H 	H 	0.37790 0.09540 0.48260 0.17300
H 	H 	0.45470 0.06540 0.49400 0.17200
H 	H 	0.44690 0.04380 0.45920 0.17300
H 	H 	0.37800 0.27250 0.41570 0.09400
H 	H 	0.56860 0.08480 0.44180 0.08200
H 	H 	0.78990 0.53850 0.37590 -0.00700
H 	H 	0.94360 0.43930 0.45690 0.14100
H 	H 	0.90470 0.38470 0.42710 -0.01400
H 	H 	0.27990 0.23750 0.45150 0.21100
H 	H 	0.30440 0.19200 0.48420 0.20500
H 	H 	0.30430 0.16570 0.44910 0.19800
H 	H 	0.86820 0.07290 0.22610 0.07000
H 	H 	0.82710 0.98310 0.34830 0.11500
H 	H 	0.89070 0.59550 0.51770 0.04200
H 	H 	0.83450 0.66450 0.51130 0.03600
C 	C 	0.79176 0.19981 0.12507 0.08600
C 	C 	0.46086 0.85305 0.77863 -0.19800
C 	C 	0.92519 0.40063 0.93279 0.11700
C 	C 	0.30238 0.95513 0.90031 -0.18600
C 	C 	0.90562 0.99414 0.87262 0.10200
C 	C 	0.81170 0.39340 0.93000 0.10700
C 	C 	0.01432 0.81258 0.66578 -0.58400
C 	C 	0.95612 0.33938 0.94278 -0.25400
C 	C 	0.44020 0.68920 0.95280 0.15900
C 	C 	0.50680 0.99199 0.89001 -0.20500
C 	C 	0.44154 0.10432 0.90760 -0.58300
C 	C 	0.84143 0.33139 0.93955 -0.24100
C 	C 	0.64502 0.93872 0.87964 0.06600
C 	C 	0.36000 0.69608 0.97332 -0.63100
C 	C 	0.65403 0.99114 0.88720 -0.16500
C 	C 	0.19559 0.05385 0.91217 -0.24300
C 	C 	0.91057 0.04408 0.92198 0.25100
C 	C 	0.15631 0.02224 0.93714 0.26400
C 	C 	0.53394 0.72183 0.91389 0.09400
C 	C 	0.92611 0.09134 0.96830 0.00000
C 	C 	0.91405 0.79015 0.71335 -0.20800
C 	C 	0.92165 0.15699 0.12271 0.12100
C 	C 	0.96220 0.13686 0.96954 0.01700
C 	C 	0.87208 0.96016 0.89808 -0.15400
C 	C 	0.57721 0.93949 0.88129 0.07700
C 	C 	0.87963 0.00943 0.94691 -0.24800
C 	C 	0.93874 0.14792 0.08640 -0.24500
C 	C 	0.91334 0.20152 0.95660 0.00800
C 	C 	0.91417 0.30512 0.94594 0.23400
C 	C 	0.04245 0.11569 0.94625 0.01500
C 	C 	0.45718 0.73341 0.93063 -0.24000
C 	C 	0.96544 0.81485 0.70487 0.12500
C 	C 	0.88316 0.16530 0.06758 0.22500
C 	C 	0.57636 0.61868 0.94460 -0.14000
C 	C 	0.88406 0.82264 0.77504 0.06600
C 	C 	0.03542 0.87493 0.72263 -0.58400
C 	C 	0.92472 0.03647 0.88429 -0.22600
C 	C 	0.58454 0.79666 0.72026 -0.18600
C 	C 	0.87118 0.79393 0.74911 0.08000
C 	C 	0.93753 0.84826 0.76668 -0.18900
C 	C 	0.82628 0.19263 0.18281 0.34000
C 	C 	0.80697 0.19285 0.08621 -0.20200
C 	C 	0.85985 0.96728 0.93502 0.10600
C 	C 	0.84843 0.18377 0.14257 -0.16200
C 	C 	0.53427 0.82569 0.78297 0.07400
C 	C 	0.59594 0.79724 0.75488 0.07000
C 	C 	0.87213 0.39014 0.80380 -0.61000
C 	C 	0.86620 0.44988 0.72512 -0.48600
C 	C 	0.97849 0.84451 0.73151 0.11800
C 	C 	0.85409 0.48942 0.76040 0.04100
C 	C 	0.85520 0.46340 0.79840 0.16000
C 	C 	0.85378 0.42869 0.92595 -0.16400
C 	C 	0.49840 0.63279 0.95901 0.04900
C 	C 	0.48740 0.57490 0.98290 -0.49800
C 	C 	0.51490 0.04270 0.89730 0.13000
C 	C 	0.58630 0.04520 0.89480 0.07200
C 	C 	0.59569 0.10722 0.90060 -0.50900
C 	C 	0.44993 0.85244 0.74470 0.13400
C 	C 	0.51335 0.82403 0.71607 0.10700
C 	C 	0.49803 0.82388 0.67806 -0.56600
C 	C 	0.36997 0.88363 0.73923 -0.59700
C 	C 	0.81715 0.56160 0.81610 0.10800
C 	C 	0.81486 0.58881 0.78187 0.03200
C 	C 	0.01631 0.57871 0.97387 -0.52400
C 	C 	0.92948 0.73463 0.92061 -0.20600
C 	C 	0.97308 0.68813 0.94191 0.12700
C 	C 	0.96387 0.63173 0.94993 0.07500
C 	C 	0.91150 0.62165 0.93615 -0.17200
C 	C 	0.26959 0.01900 0.89302 0.11900
C 	C 	0.18702 0.96032 0.94184 -0.27400
C 	C 	0.26155 0.92766 0.92324 0.14800
C 	C 	0.81849 0.49728 0.91594 0.30500
C 	C 	0.03188 0.69675 0.95829 -0.60200
C 	C 	0.38439 0.91500 0.88302 0.37000
C 	C 	0.83357 0.55561 0.74945 -0.14100
C 	C 	0.83876 0.49911 0.82477 -0.25200
C 	C 	0.96666 0.13717 0.00939 0.00800
C 	C 	0.59278 0.66555 0.92009 0.03600
C 	C 	0.87009 0.66837 0.91385 0.06200
C 	C 	0.87987 0.72332 0.90694 0.07800
C 	C 	0.85176 0.91148 0.88560 0.33500
C 	C 	0.88336 0.69981 0.62507 0.08600
C 	C 	0.90746 0.35305 0.27863 -0.19800
C 	C 	0.74139 0.90063 0.43279 0.11800
C 	C 	0.84218 0.45513 0.40031 -0.18800
C 	C 	0.22762 0.49414 0.37262 0.10500
C 	C 	0.86490 0.89340 0.43000 0.10700
C 	C 	0.50732 0.31258 0.16578 -0.59000
C 	C 	0.76172 0.83938 0.44278 -0.25500
C 	C 	0.91780 0.18920 0.45280 0.15900
C 	C 	0.61120 0.49199 0.39001 -0.20500
C 	C 	0.54654 0.60432 0.40760 -0.58400
C 	C 	0.88763 0.83139 0.43955 -0.24200
C 	C 	0.53662 0.43872 0.37964 0.06600
C 	C 	0.97060 0.19608 0.47332 -0.62800
C 	C 	0.46763 0.49114 0.38720 -0.16400
C 	C 	0.83839 0.55385 0.41217 -0.24500
C 	C 	0.12337 0.54408 0.42198 0.25300
C 	C 	0.88431 0.52224 0.43714 0.26700
C 	C 	0.83034 0.22183 0.41389 0.09400
C 	C 	0.01425 0.59134 0.46830 0.00200
C 	C 	0.58245 0.29015 0.21335 -0.20900
C 	C 	0.79865 0.65699 0.62271 0.12100
C 	C 	0.93140 0.63686 0.46954 0.01500
C 	C 	0.26968 0.46016 0.39808 -0.15600
C 	C 	0.60201 0.43949 0.38129 0.07700
C 	C 	0.16403 0.50943 0.44691 -0.25200
C 	C 	0.82694 0.64792 0.58640 -0.24500
C 	C 	0.92854 0.70152 0.45660 0.01000
C 	C 	0.83477 0.80512 0.44594 0.23500
C 	C 	0.89561 0.61569 0.44625 0.01700
C 	C 	0.87878 0.23341 0.43063 -0.24000
C 	C 	0.51484 0.31485 0.20487 0.12800
C 	C 	0.88396 0.66530 0.56758 0.22500
C 	C 	0.86036 0.11868 0.44460 -0.13900
C 	C 	0.51826 0.32264 0.27504 0.06600
C 	C 	0.36702 0.37493 0.22263 -0.58500
C 	C 	0.15452 0.53647 0.38429 -0.23000
C 	C 	0.89854 0.29666 0.22026 -0.18700
C 	C 	0.58578 0.29393 0.24911 0.08100
C 	C 	0.44753 0.34826 0.26668 -0.18900
C 	C 	0.79828 0.69263 0.68281 0.34000
C 	C 	0.91397 0.69285 0.58621 -0.20200
C 	C 	0.23785 0.46728 0.43502 0.11000
C 	C 	0.82523 0.68377 0.64257 -0.16200
C 	C 	0.85707 0.32569 0.28297 0.07300
C 	C 	0.85194 0.29724 0.25488 0.07000
C 	C 	0.93393 0.89014 0.30380 -0.61000
C 	C 	0.95880 0.94988 0.22512 -0.49000
C 	C 	0.44549 0.34451 0.23151 0.11800
C 	C 	0.89609 0.98942 0.26040 0.04000
C 	C 	0.88300 0.96340 0.29840 0.16000
C 	C 	0.79158 0.92869 0.42595 -0.16400
C 	C 	0.90980 0.13279 0.45901 0.04900
C 	C 	0.95480 0.07490 0.48290 -0.49300
C 	C 	0.54510 0.54270 0.39730 0.13000
C 	C 	0.47370 0.54520 0.39480 0.07200
C 	C 	0.39649 0.60722 0.40060 -0.50900
C 	C 	0.95293 0.35244 0.24470 0.13300
C 	C 	0.94655 0.32403 0.21607 0.10800
C 	C 	0.00003 0.32388 0.17806 -0.57100
C 	C 	0.00717 0.38363 0.23923 -0.59800
C 	C 	0.80515 0.06160 0.31610 0.11000
C 	C 	0.81446 0.08881 0.28187 0.03200
C 	C 	0.43111 0.07871 0.47387 -0.52500
C 	C 	0.41528 0.23463 0.42061 -0.20600
C 	C 	0.39688 0.18813 0.44191 0.12800
C 	C 	0.45447 0.13173 0.44993 0.07500
C 	C 	0.53070 0.12165 0.43615 -0.17200
C 	C 	0.81839 0.51900 0.39302 0.12200
C 	C 	0.91082 0.46032 0.44184 -0.27700
C 	C 	0.88755 0.42766 0.42324 0.15100
C 	C 	0.76829 0.99728 0.41594 0.30300
C 	C 	0.31308 0.19675 0.45829 -0.60200
C 	C 	0.81759 0.41500 0.38302 0.37100
C 	C 	0.86137 0.05561 0.24945 -0.13900
C 	C 	0.83736 0.99911 0.32477 -0.25400
C 	C 	0.88678 0.63717 0.50939 0.00900
C 	C 	0.82158 0.16555 0.42009 0.03600
C 	C 	0.54769 0.16837 0.41385 0.06200
C 	C 	0.48987 0.22332 0.40694 0.07900
C 	C 	0.35116 0.41148 0.38560 0.33600
N 	N 	0.81747 0.77198 0.76596 -0.24600
N 	N 	0.79558 0.78668 0.80146 -0.21700
N 	N 	0.83547 0.81729 0.80733 -0.23800
N 	N 	0.83291 0.75808 0.88490 -0.24900
N 	N 	0.79672 0.72542 0.87910 -0.21000
N 	N 	0.81821 0.67002 0.89696 -0.24400
N 	N 	0.66021 0.66829 0.90049 -0.24400
N 	N 	0.63999 0.72514 0.88248 -0.21600
N 	N 	0.56403 0.75744 0.89030 -0.25600
N 	N 	0.56294 0.81837 0.81335 -0.24600
N 	N 	0.63899 0.78688 0.80396 -0.20600
N 	N 	0.66071 0.77373 0.76795 -0.25200
N 	N 	0.58641 0.88216 0.87240 -0.24800
N 	N 	0.66150 0.84924 0.86496 -0.20800
N 	N 	0.69843 0.88228 0.86958 -0.24700
N 	N 	0.78918 0.65277 0.78309 -0.25900
N 	N 	0.77617 0.66111 0.81957 -0.20800
N 	N 	0.79071 0.60790 0.84036 -0.23900
N 	N 	0.64459 0.27198 0.26596 -0.24600
N 	N 	0.61628 0.28668 0.30146 -0.21700
N 	N 	0.53991 0.31729 0.30733 -0.23800
N 	N 	0.52411 0.25808 0.38490 -0.24900
N 	N 	0.59876 0.22542 0.37910 -0.21000
N 	N 	0.61481 0.17002 0.39696 -0.24400
N 	N 	0.77101 0.16829 0.40049 -0.24400
N 	N 	0.75239 0.22514 0.38248 -0.21600
N 	N 	0.78823 0.25744 0.39030 -0.25600
N 	N 	0.80534 0.31837 0.31335 -0.24600
N 	N 	0.77017 0.28688 0.30396 -0.20600
N 	N 	0.79761 0.27373 0.26795 -0.25200
N 	N 	0.65903 0.38216 0.37240 -0.24800
N 	N 	0.62430 0.34924 0.36496 -0.20800
N 	N 	0.54971 0.38228 0.36958 -0.24700
N 	N 	0.77496 0.15277 0.28309 -0.25800
N 	N 	0.74315 0.16111 0.31957 -0.20800
N 	N 	0.76103 0.10790 0.34036 -0.24000
O 	O 	0.75906 0.21848 0.19750 -0.49100
O 	O 	0.87882 0.17627 0.19889 -0.36200
O 	O 	0.41250 0.86296 0.89164 -0.50700
O 	O 	0.41418 0.94298 0.85586 -0.36800
O 	O 	0.86050 0.90524 0.85378 -0.46500
O 	O 	0.82127 0.88193 0.91013 -0.38800
O 	O 	0.86044 0.52702 0.90930 -0.42500
O 	O 	0.75345 0.52232 0.91138 -0.41700
O 	O 	0.93233 0.08652 0.92984 -0.23900
O 	O 	0.89207 0.15898 0.03070 -0.24000
O 	O 	0.94920 0.24208 0.95644 -0.24100
O 	O 	0.08307 0.05220 0.95622 -0.24300
O 	O 	0.82496 0.71848 0.69750 -0.49100
O 	O 	0.74602 0.67627 0.69889 -0.36200
O 	O 	0.83290 0.36296 0.39164 -0.50700
O 	O 	0.78698 0.44298 0.35586 -0.36900
O 	O 	0.38048 0.40524 0.35378 -0.46500
O 	O 	0.38667 0.38193 0.41013 -0.38800
O 	O 	0.70324 0.02702 0.40930 -0.42400
O 	O 	0.81285 0.02232 0.41138 -0.41600
O 	O 	0.05131 0.58652 0.42984 -0.24000
O 	O 	0.91825 0.65898 0.53070 -0.24000
O 	O 	0.85228 0.74208 0.45644 -0.24100
O 	O 	0.90851 0.55220 0.45622 -0.24300
Zn	Zn	0.51572 0.65590 0.63972 1.18000
Zn	Zn	0.31644 0.74501 0.65735 1.13300
Zn	Zn	0.22749 0.65779 0.63377 1.17900
Zn	Zn	0.24249 0.77532 0.75222 1.18200
Zn	Zn	0.27611 0.89068 0.60304 1.17600
Zn	Zn	0.18866 0.15590 0.13972 1.18000
Zn	Zn	0.28120 0.24501 0.15735 1.13300
Zn	Zn	0.48095 0.15779 0.13377 1.17900
Zn	Zn	0.22997 0.27532 0.25222 1.18200
Zn	Zn	0.23017 0.39068 0.10304 1.17600
H 	H 	0.09640 0.28450 0.36170 0.00700
H 	H 	0.08990 0.62890 0.70210 0.09200
H 	H 	0.30730 0.07540 0.56960 -0.00900
H 	H 	0.75150 0.51160 0.65200 -0.00200
H 	H 	0.10200 0.08780 0.57380 -0.00700
H 	H 	0.44400 0.70330 0.85010 0.19800
H 	H 	0.52160 0.64630 0.84250 0.19500
H 	H 	0.51720 0.71400 0.83420 0.18700
H 	H 	0.27200 0.17890 0.55270 0.11400
H 	H 	0.34320 0.50860 0.60940 0.09700
H 	H 	0.50350 0.36490 0.58570 0.18600
H 	H 	0.42590 0.38020 0.61280 0.19500
H 	H 	0.43000 0.40480 0.57240 0.19500
H 	H 	0.06370 0.19280 0.55820 0.10600
H 	H 	0.02810 0.76370 0.53250 0.21000
H 	H 	0.98000 0.83570 0.53390 0.20300
H 	H 	0.04760 0.80810 0.50110 0.20400
H 	H 	0.57760 0.50980 0.61280 0.08000
H 	H 	0.17830 0.40320 0.59160 0.11300
H 	H 	0.96320 0.39230 0.51870 0.03700
H 	H 	0.98240 0.44900 0.52100 0.04900
H 	H 	0.37420 0.72890 0.80410 0.10500
H 	H 	0.23960 0.35510 0.36550 -0.00300
H 	H 	0.85740 0.48590 0.52850 0.12400
H 	H 	0.19250 0.37020 0.42580 0.11800
H 	H 	0.05360 0.28330 0.52730 0.03700
H 	H 	0.04020 0.30000 0.56760 0.03700
H 	H 	0.15750 0.35860 0.54960 0.03400
H 	H 	0.08230 0.38040 0.57920 0.04200
H 	H 	0.11680 0.72860 0.57380 0.11600
H 	H 	0.14610 0.91830 0.54930 0.06800
H 	H 	0.67060 0.61220 0.75540 0.20600
H 	H 	0.64040 0.65480 0.78860 0.18800
H 	H 	0.63650 0.58960 0.79360 0.19300
H 	H 	0.87380 0.44040 0.63240 0.11100
H 	H 	0.10360 0.72180 0.79900 0.09000
H 	H 	0.59580 0.63320 0.71580 0.09800
H 	H 	0.04860 0.29410 0.42590 0.09900
H 	H 	0.73420 0.55620 0.54820 0.00200
H 	H 	0.08280 0.12400 0.67220 0.20500
H 	H 	0.01500 0.11600 0.69980 0.19600
H 	H 	0.07010 0.13290 0.71350 0.19700
H 	H 	0.04050 0.02210 0.79570 0.17100
H 	H 	0.05430 0.08190 0.77990 0.16200
H 	H 	0.99280 0.06900 0.76940 0.16300
H 	H 	0.06040 0.95820 0.51660 0.16300
H 	H 	0.05560 0.91230 0.49290 0.15800
H 	H 	0.99270 0.93900 0.52760 0.15700
H 	H 	0.59420 0.35830 0.59510 0.15900
H 	H 	0.63880 0.39960 0.57900 0.17400
H 	H 	0.62330 0.38350 0.62070 0.17100
H 	H 	0.01060 0.69500 0.83900 0.19000
H 	H 	0.94910 0.69940 0.82000 0.18100
H 	H 	0.00760 0.63420 0.83000 0.19000
H 	H 	0.99670 0.60100 0.73820 0.20100
H 	H 	0.00500 0.58240 0.77820 0.19800
H 	H 	0.94270 0.64620 0.76940 0.18700
H 	H 	0.62210 0.90460 0.51740 0.17300
H 	H 	0.54530 0.93460 0.50600 0.17200
H 	H 	0.55310 0.95620 0.54080 0.17300
H 	H 	0.62200 0.72750 0.58430 0.09400
H 	H 	0.43140 0.91520 0.55820 0.08200
H 	H 	0.21010 0.46150 0.62410 -0.00700
H 	H 	0.05640 0.56070 0.54310 0.14100
H 	H 	0.09530 0.61530 0.57290 -0.01400
H 	H 	0.72010 0.76250 0.54850 0.21100
H 	H 	0.69560 0.80800 0.51580 0.20500
H 	H 	0.69570 0.83430 0.55090 0.19800
H 	H 	0.13180 0.92710 0.77390 0.07000
H 	H 	0.17290 0.01690 0.65170 0.11500
H 	H 	0.10930 0.40450 0.48230 0.04200
H 	H 	0.16550 0.33550 0.48870 0.03600
H 	H 	0.25740 0.78450 0.86170 0.00700
H 	H 	0.57910 0.12890 0.20210 0.09200
H 	H 	0.04770 0.57540 0.06960 -0.00900
H 	H 	0.08490 0.01160 0.15200 -0.00100
H 	H 	0.23640 0.58780 0.07380 -0.00700
H 	H 	0.00260 0.20330 0.35010 0.19600
H 	H 	0.98960 0.14630 0.34250 0.19300
H 	H 	0.93460 0.21400 0.33420 0.18500
H 	H 	0.99640 0.67890 0.05270 0.11300
H 	H 	0.53880 0.00860 0.10940 0.09700
H 	H 	0.54590 0.86490 0.08570 0.18600
H 	H 	0.58110 0.88020 0.11280 0.19400
H 	H 	0.59280 0.90480 0.07240 0.19500
H 	H 	0.18530 0.69280 0.05820 0.10600
H 	H 	0.67570 0.26370 0.03250 0.21100
H 	H 	0.65040 0.33570 0.03390 0.20400
H 	H 	0.64320 0.30810 0.00110 0.20500
H 	H 	0.29980 0.00980 0.11280 0.08000
H 	H 	0.82690 0.90320 0.09160 0.11200
H 	H 	0.12580 0.89230 0.01870 0.03700
H 	H 	0.04760 0.94900 0.02100 0.05000
H 	H 	0.09280 0.22890 0.30410 0.10500
H 	H 	0.03980 0.85510 0.86550 -0.00300
H 	H 	0.12820 0.98590 0.02850 0.12300
H 	H 	0.01150 0.87020 0.92580 0.11800
H 	H 	0.13580 0.78330 0.02730 0.03700
H 	H 	0.09220 0.80000 0.06760 0.03800
H 	H 	0.93430 0.85860 0.04960 0.03500
H 	H 	0.95810 0.88040 0.07920 0.04200
H 	H 	0.58080 0.22860 0.07380 0.11600
H 	H 	0.38630 0.41830 0.04930 0.06800
H 	H 	0.96180 0.11220 0.25540 0.20600
H 	H 	0.91620 0.15480 0.28860 0.18800
H 	H 	0.98030 0.08960 0.29360 0.19300
H 	H 	0.05340 0.94040 0.13240 0.11000
H 	H 	0.37560 0.22180 0.29900 0.08900
H 	H 	0.05520 0.13320 0.21580 0.09700
H 	H 	0.23140 0.79410 0.92590 0.09900
H 	H 	0.16140 0.05620 0.04820 0.00300
H 	H 	0.12100 0.62400 0.17220 0.20600
H 	H 	0.16920 0.61600 0.19980 0.19700
H 	H 	0.08350 0.63290 0.21350 0.19700
H 	H 	0.14170 0.52210 0.29570 0.17000
H 	H 	0.08390 0.58190 0.27990 0.16100
H 	H 	0.16880 0.56900 0.26940 0.16100
H 	H 	0.46480 0.45820 0.01660 0.16400
H 	H 	0.53920 0.41230 0.99290 0.15900
H 	H 	0.54070 0.43900 0.02760 0.15900
H 	H 	0.45240 0.85830 0.09510 0.15900
H 	H 	0.38260 0.89960 0.07900 0.17400
H 	H 	0.37250 0.88350 0.12070 0.17100
H 	H 	0.45540 0.19500 0.33900 0.18800
H 	H 	0.53150 0.19940 0.32000 0.18000
H 	H 	0.52820 0.13420 0.33000 0.18800
H 	H 	0.66410 0.10100 0.23820 0.20100
H 	H 	0.63440 0.08240 0.27820 0.19800
H 	H 	0.64170 0.14620 0.26940 0.18700
H 	H 	0.95590 0.40460 0.01740 0.17300
H 	H 	0.01410 0.43460 0.00600 0.17200
H 	H 	0.94990 0.45620 0.04080 0.17200
H 	H 	0.06620 0.22750 0.08430 0.09300
H 	H 	0.09520 0.41520 0.05820 0.08200
H 	H 	0.70430 0.96150 0.12410 -0.00600
H 	H 	0.83980 0.06070 0.04310 0.14000
H 	H 	0.71650 0.11530 0.07290 -0.01300
H 	H 	0.96890 0.26250 0.04850 0.21100
H 	H 	0.98060 0.30800 0.01580 0.20500
H 	H 	0.91910 0.33430 0.05090 0.19800
H 	H 	0.16720 0.42710 0.27390 0.07000
H 	H 	0.15850 0.51690 0.15170 0.11500
H 	H 	0.00390 0.90450 0.98230 0.04300
H 	H 	0.01030 0.83550 0.98870 0.03700
C 	C 	0.11664 0.30019 0.37493 0.08600
C 	C 	0.09254 0.64695 0.72137 -0.19800
C 	C 	0.25861 0.09937 0.56721 0.11800
C 	C 	0.15782 0.54487 0.59969 -0.18800
C 	C 	0.77238 0.50586 0.62738 0.10500
C 	C 	0.13510 0.10660 0.57000 0.10700
C 	C 	0.49268 0.68742 0.83422 -0.59000
C 	C 	0.23828 0.16062 0.55722 -0.25500
C 	C 	0.08220 0.81080 0.54720 0.15900
C 	C 	0.38880 0.50801 0.60999 -0.20500
C 	C 	0.45346 0.39568 0.59240 -0.58400
C 	C 	0.11237 0.16861 0.56045 -0.24200
C 	C 	0.46338 0.56128 0.62036 0.06600
C 	C 	0.02940 0.80392 0.52668 -0.62800
C 	C 	0.53237 0.50886 0.61280 -0.16400
C 	C 	0.16161 0.44615 0.58783 -0.24500
C 	C 	0.87663 0.45592 0.57802 0.25300
C 	C 	0.11569 0.47776 0.56286 0.26700
C 	C 	0.16966 0.77817 0.58611 0.09400
C 	C 	0.98575 0.40866 0.53170 0.00200
C 	C 	0.41755 0.70985 0.78665 -0.20900
C 	C 	0.20135 0.34301 0.37729 0.12100
C 	C 	0.06860 0.36314 0.53046 0.01500
C 	C 	0.73032 0.53984 0.60192 -0.15600
C 	C 	0.39799 0.56051 0.61871 0.07700
C 	C 	0.83597 0.49057 0.55309 -0.25200
C 	C 	0.17306 0.35208 0.41360 -0.24500
C 	C 	0.07146 0.29848 0.54340 0.01000
C 	C 	0.16523 0.19488 0.55406 0.23500
C 	C 	0.10439 0.38431 0.55375 0.01700
C 	C 	0.12122 0.76659 0.56937 -0.24000
C 	C 	0.48516 0.68515 0.79513 0.12800
C 	C 	0.11604 0.33470 0.43242 0.22500
C 	C 	0.13964 0.88132 0.55540 -0.13900
C 	C 	0.48174 0.67736 0.72496 0.06600
C 	C 	0.63298 0.62507 0.77737 -0.58500
C 	C 	0.84548 0.46353 0.61571 -0.23000
C 	C 	0.10146 0.70334 0.77974 -0.18700
C 	C 	0.41422 0.70607 0.75089 0.08100
C 	C 	0.55247 0.65174 0.73332 -0.18900
C 	C 	0.20172 0.30737 0.31719 0.34000
C 	C 	0.08603 0.30715 0.41379 -0.20200
C 	C 	0.76215 0.53272 0.56498 0.11000
C 	C 	0.17477 0.31623 0.35743 -0.16200
C 	C 	0.14293 0.67431 0.71703 0.07300
C 	C 	0.14806 0.70276 0.74512 0.07000
C 	C 	0.06607 0.10986 0.69620 -0.61000
C 	C 	0.04120 0.05012 0.77488 -0.49000
C 	C 	0.55451 0.65549 0.76849 0.11800
C 	C 	0.10391 0.01058 0.73960 0.04000
C 	C 	0.11700 0.03660 0.70160 0.16000
C 	C 	0.20842 0.07131 0.57405 -0.16400
C 	C 	0.09020 0.86721 0.54099 0.04900
C 	C 	0.04520 0.92510 0.51710 -0.49300
C 	C 	0.45490 0.45730 0.60270 0.13000
C 	C 	0.52630 0.45480 0.60520 0.07200
C 	C 	0.60351 0.39278 0.59940 -0.50900
C 	C 	0.04707 0.64756 0.75530 0.13300
C 	C 	0.05345 0.67597 0.78393 0.10800
C 	C 	0.99997 0.67612 0.82194 -0.57100
C 	C 	0.99283 0.61637 0.76077 -0.59800
C 	C 	0.19485 0.93840 0.68390 0.11000
C 	C 	0.18554 0.91119 0.71813 0.03200
C 	C 	0.56889 0.92129 0.52613 -0.52500
C 	C 	0.58472 0.76537 0.57939 -0.20600
C 	C 	0.60312 0.81187 0.55809 0.12800
C 	C 	0.54553 0.86827 0.55007 0.07500
C 	C 	0.46930 0.87835 0.56385 -0.17200
C 	C 	0.18161 0.48100 0.60698 0.12200
C 	C 	0.08918 0.53968 0.55816 -0.27700
C 	C 	0.11245 0.57234 0.57676 0.15100
C 	C 	0.23171 0.00272 0.58406 0.30300
C 	C 	0.68692 0.80325 0.54171 -0.60200
C 	C 	0.18241 0.58500 0.61698 0.37100
C 	C 	0.13863 0.94439 0.75055 -0.13900
C 	C 	0.16264 0.00089 0.67523 -0.25400
C 	C 	0.11322 0.36283 0.49061 0.00900
C 	C 	0.17842 0.83445 0.57991 0.03600
C 	C 	0.45231 0.83163 0.58615 0.06200
C 	C 	0.51013 0.77668 0.59306 0.07900
C 	C 	0.64884 0.58852 0.61440 0.33600
C 	C 	0.20824 0.80019 0.87493 0.08600
C 	C 	0.53914 0.14695 0.22137 -0.19800
C 	C 	0.07481 0.59937 0.06721 0.11700
C 	C 	0.69762 0.04487 0.09969 -0.18600
C 	C 	0.09438 0.00586 0.12738 0.10200
C 	C 	0.18830 0.60660 0.07000 0.10700
C 	C 	0.98568 0.18742 0.33422 -0.58400
C 	C 	0.04388 0.66062 0.05722 -0.25400
C 	C 	0.55980 0.31080 0.04720 0.15900
C 	C 	0.49320 0.00801 0.10999 -0.20500
C 	C 	0.55846 0.89568 0.09240 -0.58300
C 	C 	0.15857 0.66861 0.06045 -0.24100
C 	C 	0.35498 0.06128 0.12036 0.06600
C 	C 	0.64000 0.30392 0.02668 -0.63100
C 	C 	0.34597 0.00886 0.11280 -0.16500
C 	C 	0.80441 0.94615 0.08783 -0.24300
C 	C 	0.08943 0.95592 0.07802 0.25100
C 	C 	0.84369 0.97776 0.06286 0.26400
C 	C 	0.46606 0.27817 0.08611 0.09400
C 	C 	0.07389 0.90866 0.03170 0.00000
C 	C 	0.08595 0.20985 0.28665 -0.20800
C 	C 	0.07835 0.84301 0.87729 0.12100
C 	C 	0.03780 0.86314 0.03046 0.01700
C 	C 	0.12792 0.03984 0.10192 -0.15400
C 	C 	0.42279 0.06051 0.11871 0.07700
C 	C 	0.12037 0.99057 0.05309 -0.24800
C 	C 	0.06126 0.85208 0.91360 -0.24500
C 	C 	0.08666 0.79848 0.04340 0.00800
C 	C 	0.08583 0.69488 0.05406 0.23400
C 	C 	0.95755 0.88431 0.05375 0.01500
C 	C 	0.54282 0.26659 0.06937 -0.24000
C 	C 	0.03456 0.18515 0.29513 0.12500
C 	C 	0.11684 0.83470 0.93242 0.22500
C 	C 	0.42364 0.38132 0.05540 -0.14000
C 	C 	0.11594 0.17736 0.22496 0.06600
C 	C 	0.96458 0.12507 0.27737 -0.58400
C 	C 	0.07528 0.96353 0.11571 -0.22600
C 	C 	0.41546 0.20334 0.27974 -0.18600
C 	C 	0.12882 0.20607 0.25089 0.08000
C 	C 	0.06247 0.15174 0.23332 -0.18900
C 	C 	0.17372 0.80737 0.81719 0.34000
C 	C 	0.19303 0.80715 0.91379 -0.20200
C 	C 	0.14015 0.03272 0.06498 0.10600
C 	C 	0.15157 0.81623 0.85743 -0.16200
C 	C 	0.46573 0.17431 0.21703 0.07400
C 	C 	0.40406 0.20276 0.24512 0.07000
C 	C 	0.12787 0.60986 0.19620 -0.61000
C 	C 	0.13380 0.55012 0.27488 -0.48600
C 	C 	0.02151 0.15549 0.26849 0.11800
C 	C 	0.14591 0.51058 0.23960 0.04100
C 	C 	0.14480 0.53660 0.20160 0.16000
C 	C 	0.14622 0.57131 0.07405 -0.16400
C 	C 	0.50160 0.36721 0.04099 0.04900
C 	C 	0.51260 0.42510 0.01710 -0.49800
C 	C 	0.48510 0.95730 0.10270 0.13000
C 	C 	0.41370 0.95480 0.10520 0.07200
C 	C 	0.40431 0.89278 0.09940 -0.50900
C 	C 	0.55007 0.14756 0.25530 0.13400
C 	C 	0.48665 0.17597 0.28393 0.10700
C 	C 	0.50197 0.17612 0.32194 -0.56600
C 	C 	0.63003 0.11637 0.26077 -0.59700
C 	C 	0.18285 0.43840 0.18390 0.10800
C 	C 	0.18514 0.41119 0.21813 0.03200
C 	C 	0.98369 0.42129 0.02613 -0.52400
C 	C 	0.07052 0.26537 0.07939 -0.20600
C 	C 	0.02692 0.31187 0.05809 0.12700
C 	C 	0.03613 0.36827 0.05007 0.07500
C 	C 	0.08850 0.37835 0.06385 -0.17200
C 	C 	0.73041 0.98100 0.10698 0.11900
C 	C 	0.81298 0.03968 0.05816 -0.27400
C 	C 	0.73845 0.07234 0.07676 0.14800
C 	C 	0.18151 0.50272 0.08406 0.30500
C 	C 	0.96812 0.30325 0.04171 -0.60200
C 	C 	0.61561 0.08500 0.11698 0.37000
C 	C 	0.16643 0.44439 0.25055 -0.14100
C 	C 	0.16124 0.50089 0.17523 -0.25200
C 	C 	0.03334 0.86283 0.99061 0.00800
C 	C 	0.40722 0.33445 0.07991 0.03600
C 	C 	0.12991 0.33163 0.08615 0.06200
C 	C 	0.12013 0.27668 0.09306 0.07800
C 	C 	0.14824 0.08852 0.11440 0.33500
N 	N 	0.35541 0.72802 0.73404 -0.24600
N 	N 	0.38372 0.71332 0.69854 -0.21700
N 	N 	0.46009 0.68271 0.69267 -0.23800
N 	N 	0.47589 0.74192 0.61510 -0.24900
N 	N 	0.40124 0.77458 0.62090 -0.21000
N 	N 	0.38519 0.82998 0.60304 -0.24400
N 	N 	0.22899 0.83171 0.59951 -0.24400
N 	N 	0.24761 0.77486 0.61752 -0.21600
N 	N 	0.21177 0.74256 0.60970 -0.25600
N 	N 	0.19466 0.68163 0.68665 -0.24600
N 	N 	0.22983 0.71312 0.69604 -0.20600
N 	N 	0.20239 0.72627 0.73205 -0.25200
N 	N 	0.34097 0.61784 0.62760 -0.24800
N 	N 	0.37570 0.65076 0.63504 -0.20800
N 	N 	0.45029 0.61772 0.63042 -0.24700
N 	N 	0.22504 0.84723 0.71691 -0.25800
N 	N 	0.25685 0.83889 0.68043 -0.20800
N 	N 	0.23897 0.89210 0.65964 -0.24000
N 	N 	0.18253 0.22802 0.23404 -0.24600
N 	N 	0.20442 0.21332 0.19854 -0.21700
N 	N 	0.16453 0.18271 0.19267 -0.23800
N 	N 	0.16709 0.24192 0.11510 -0.24900
N 	N 	0.20328 0.27458 0.12090 -0.21000
N 	N 	0.18179 0.32998 0.10304 -0.24400
N 	N 	0.33979 0.33171 0.09951 -0.24400
N 	N 	0.36001 0.27486 0.11752 -0.21600
N 	N 	0.43597 0.24256 0.10970 -0.25600
N 	N 	0.43706 0.18163 0.18665 -0.24600
N 	N 	0.36101 0.21312 0.19604 -0.20600
N 	N 	0.33929 0.22627 0.23205 -0.25200
N 	N 	0.41359 0.11784 0.12760 -0.24800
N 	N 	0.33850 0.15076 0.13504 -0.20800
N 	N 	0.30157 0.11772 0.13042 -0.24700
N 	N 	0.21082 0.34723 0.21691 -0.25900
N 	N 	0.22383 0.33889 0.18043 -0.20800
N 	N 	0.20929 0.39210 0.15964 -0.23900
O 	O 	0.17504 0.28152 0.30250 -0.49100
O 	O 	0.25398 0.32373 0.30111 -0.36200
O 	O 	0.16710 0.63704 0.60836 -0.50700
O 	O 	0.21302 0.55702 0.64414 -0.36900
O 	O 	0.61952 0.59476 0.64622 -0.46500
O 	O 	0.61333 0.61807 0.58987 -0.38800
O 	O 	0.29676 0.97298 0.59070 -0.42400
O 	O 	0.18715 0.97768 0.58862 -0.41600
O 	O 	0.94869 0.41348 0.57016 -0.24000
O 	O 	0.08175 0.34102 0.46930 -0.24000
O 	O 	0.14772 0.25792 0.54356 -0.24100
O 	O 	0.09149 0.44780 0.54378 -0.24300
O 	O 	0.24094 0.78152 0.80250 -0.49100
O 	O 	0.12118 0.82373 0.80111 -0.36200
O 	O 	0.58750 0.13704 0.10836 -0.50700
O 	O 	0.58582 0.05702 0.14414 -0.36800
O 	O 	0.13950 0.09476 0.14622 -0.46500
O 	O 	0.17873 0.11807 0.08987 -0.38800
O 	O 	0.13956 0.47298 0.09070 -0.42500
O 	O 	0.24655 0.47768 0.08862 -0.41700
O 	O 	0.06767 0.91348 0.07016 -0.23900
O 	O 	0.10793 0.84102 0.96930 -0.24000
O 	O 	0.05080 0.75792 0.04356 -0.24100
O 	O 	0.91693 0.94780 0.04378 -0.24300
