data_crystal

_cell_length_a 14.07100
_cell_length_b 15.26500
_cell_length_c 15.35100
_cell_angle_alpha 88.33700
_cell_angle_beta  85.77900
_cell_angle_gamma 85.20500

_symmetry_space_group_name_	'P 1'
_symmetry_space_group_name_H-M	'P 1'

loop_
_symmetry_equiv_pos_as_xyz
  x,y,z

loop_
_atom_site_label
_atom_site_type_symbol
_atom_site_fract_x
_atom_site_fract_y
_atom_site_fract_z
_atom_site_charge
Zn	Zn	0.89497 0.83529 0.60048 1.21000
Zn	Zn	0.68621 0.85101 0.61409 1.21100
H 	H 	0.91490 0.76950 0.88180 0.02400
H 	H 	0.91290 0.75660 0.03070 0.07800
H 	H 	0.65510 0.87810 0.05050 0.07700
H 	H 	0.64810 0.82430 0.18840 0.06400
H 	H 	0.64910 0.87870 0.90280 0.02400
H 	H 	0.65120 0.83460 0.33630 0.03400
H 	H 	0.93570 0.83450 0.30830 0.03200
H 	H 	0.93290 0.82350 0.16000 0.06600
H 	H 	0.92670 0.11260 0.61490 0.03400
H 	H 	0.63960 0.14170 0.61670 0.03500
H 	H 	0.64540 0.29140 0.61560 0.06400
H 	H 	0.93140 0.26160 0.61410 0.06900
H 	H 	0.92050 0.39740 0.54580 0.08000
H 	H 	0.92800 0.54490 0.54510 0.01800
H 	H 	0.04250 0.96860 0.60470 0.00400
H 	H 	0.06870 0.71250 0.61420 -0.00500
H 	H 	0.23010 0.71190 0.62010 0.08000
H 	H 	0.20100 0.97560 0.60140 0.08600
H 	H 	0.37530 0.72430 0.66840 0.06600
H 	H 	0.35380 0.96800 0.55900 0.07900
H 	H 	0.53560 0.71930 0.64910 0.01400
H 	H 	0.51350 0.97310 0.56480 0.00600
H 	H 	0.67020 0.57190 0.67400 0.02400
H 	H 	0.66420 0.42210 0.67630 0.07400
C 	C 	0.78370 0.83250 0.77660 0.39100
C 	C 	0.78250 0.82550 0.87330 -0.13800
C 	C 	0.86030 0.79060 0.91520 0.06600
C 	C 	0.86050 0.78550 0.00560 -0.13200
C 	C 	0.70850 0.85500 0.01680 -0.13100
C 	C 	0.79740 0.84520 0.43830 0.37800
C 	C 	0.79440 0.83770 0.33920 -0.10700
C 	C 	0.70670 0.82670 0.21210 -0.09600
C 	C 	0.70490 0.85650 0.92730 0.06600
C 	C 	0.70810 0.83320 0.30130 0.03100
C 	C 	0.87720 0.83310 0.28420 0.03200
C 	C 	0.87570 0.82630 0.19460 -0.09700
C 	C 	0.78980 0.82360 0.15520 0.02800
C 	C 	0.78650 0.82120 0.05870 0.06700
C 	C 	0.77980 0.01290 0.61200 0.37400
C 	C 	0.78390 0.11060 0.61510 -0.11000
C 	C 	0.86990 0.14840 0.61480 0.03800
C 	C 	0.69830 0.16580 0.61580 0.03200
C 	C 	0.70220 0.25550 0.61540 -0.09600
C 	C 	0.87240 0.23820 0.61450 -0.10100
C 	C 	0.79020 0.29550 0.61460 0.03000
C 	C 	0.79400 0.39170 0.61230 0.06000
C 	C 	0.86980 0.43210 0.57260 -0.13500
C 	C 	0.87380 0.52090 0.57090 0.07100
C 	C 	0.80010 0.57540 0.60610 -0.13400
C 	C 	0.08150 0.91630 0.60540 0.08500
C 	C 	0.09600 0.76600 0.61220 0.08900
C 	C 	0.19340 0.76510 0.61510 -0.13800
C 	C 	0.23800 0.84460 0.61040 0.06800
C 	C 	0.17610 0.92100 0.60510 -0.13900
C 	C 	0.34220 0.84590 0.61130 0.03700
C 	C 	0.40370 0.77250 0.64290 -0.10300
C 	C 	0.38950 0.91940 0.58120 -0.11400
C 	C 	0.49830 0.77090 0.63710 0.04400
C 	C 	0.48520 0.92220 0.58320 0.06200
C 	C 	0.80240 0.67320 0.60360 0.39000
C 	C 	0.72070 0.53650 0.64780 0.05700
C 	C 	0.71760 0.44680 0.64980 -0.12400
N 	N 	0.03920 0.83920 0.60670 -0.25300
N 	N 	0.54140 0.85000 0.61220 -0.23500
O 	O 	0.69860 0.98280 0.60770 -0.45100
O 	O 	0.85820 0.96670 0.61310 -0.46800
O 	O 	0.86130 0.81570 0.73260 -0.45900
O 	O 	0.70340 0.85250 0.74470 -0.45100
O 	O 	0.72320 0.71810 0.61790 -0.46300
O 	O 	0.88200 0.70460 0.58720 -0.45500
O 	O 	0.71790 0.84740 0.48140 -0.46400
O 	O 	0.87780 0.84870 0.46700 -0.45100
Zn	Zn	0.10503 0.16471 0.39952 1.21100
Zn	Zn	0.31379 0.14899 0.38591 1.21200
H 	H 	0.08510 0.23050 0.11820 0.02400
H 	H 	0.08710 0.24340 0.96930 0.07800
H 	H 	0.34490 0.12190 0.94950 0.07700
H 	H 	0.35190 0.17570 0.81160 0.06400
H 	H 	0.35090 0.12130 0.09720 0.02400
H 	H 	0.34880 0.16540 0.66370 0.03400
H 	H 	0.06430 0.16550 0.69170 0.03200
H 	H 	0.06710 0.17650 0.84000 0.06600
H 	H 	0.07330 0.88740 0.38510 0.03400
H 	H 	0.36040 0.85830 0.38330 0.03500
H 	H 	0.35460 0.70860 0.38440 0.06400
H 	H 	0.06860 0.73840 0.38590 0.06900
H 	H 	0.07950 0.60260 0.45420 0.08000
H 	H 	0.07200 0.45510 0.45490 0.01800
H 	H 	0.95750 0.03140 0.39530 0.00400
H 	H 	0.93130 0.28750 0.38580 -0.00500
H 	H 	0.76990 0.28810 0.37990 0.08000
H 	H 	0.79900 0.02440 0.39860 0.08600
H 	H 	0.62470 0.27570 0.33160 0.06600
H 	H 	0.64620 0.03200 0.44100 0.07900
H 	H 	0.46440 0.28070 0.35090 0.01400
H 	H 	0.48650 0.02690 0.43520 0.00600
H 	H 	0.32980 0.42810 0.32600 0.02400
H 	H 	0.33580 0.57790 0.32370 0.07400
C 	C 	0.21630 0.16750 0.22340 0.39100
C 	C 	0.21750 0.17450 0.12670 -0.13800
C 	C 	0.13970 0.20940 0.08480 0.06600
C 	C 	0.13950 0.21450 0.99440 -0.13200
C 	C 	0.29150 0.14500 0.98320 -0.13100
C 	C 	0.20260 0.15480 0.56170 0.37800
C 	C 	0.20560 0.16230 0.66080 -0.10700
C 	C 	0.29330 0.17330 0.78790 -0.09600
C 	C 	0.29510 0.14350 0.07270 0.06600
C 	C 	0.29190 0.16680 0.69870 0.03100
C 	C 	0.12280 0.16690 0.71580 0.03200
C 	C 	0.12430 0.17370 0.80540 -0.09700
C 	C 	0.21020 0.17640 0.84480 0.02800
C 	C 	0.21350 0.17880 0.94130 0.06700
C 	C 	0.22020 0.98710 0.38800 0.37400
C 	C 	0.21610 0.88940 0.38490 -0.11000
C 	C 	0.13010 0.85160 0.38520 0.03800
C 	C 	0.30170 0.83420 0.38420 0.03200
C 	C 	0.29780 0.74450 0.38460 -0.09600
C 	C 	0.12760 0.76180 0.38550 -0.10100
C 	C 	0.20980 0.70450 0.38540 0.03000
C 	C 	0.20600 0.60830 0.38770 0.06000
C 	C 	0.13020 0.56790 0.42740 -0.13500
C 	C 	0.12620 0.47910 0.42910 0.07100
C 	C 	0.19990 0.42460 0.39390 -0.13400
C 	C 	0.91850 0.08370 0.39460 0.08500
C 	C 	0.90400 0.23400 0.38780 0.08900
C 	C 	0.80660 0.23490 0.38490 -0.13800
C 	C 	0.76200 0.15540 0.38960 0.06800
C 	C 	0.82390 0.07900 0.39490 -0.13900
C 	C 	0.65780 0.15410 0.38870 0.03700
C 	C 	0.59630 0.22750 0.35710 -0.10300
C 	C 	0.61050 0.08060 0.41880 -0.11400
C 	C 	0.50170 0.22910 0.36290 0.04400
C 	C 	0.51480 0.07780 0.41680 0.06200
C 	C 	0.19760 0.32680 0.39640 0.39000
C 	C 	0.27930 0.46350 0.35220 0.05700
C 	C 	0.28240 0.55320 0.35020 -0.12400
N 	N 	0.96080 0.16080 0.39330 -0.25300
N 	N 	0.45860 0.15000 0.38780 -0.23500
O 	O 	0.30140 0.01720 0.39230 -0.45100
O 	O 	0.14180 0.03330 0.38690 -0.46800
O 	O 	0.13870 0.18430 0.26740 -0.45900
O 	O 	0.29660 0.14750 0.25530 -0.45100
O 	O 	0.27680 0.28190 0.38210 -0.46300
O 	O 	0.11800 0.29540 0.41280 -0.45500
O 	O 	0.28210 0.15260 0.51860 -0.46400
O 	O 	0.12220 0.15130 0.53300 -0.45100
