data_crystal

_cell_length_a 10.00400
_cell_length_b 10.29300
_cell_length_c 17.91400
_cell_angle_alpha 103.66000
_cell_angle_beta  99.58000
_cell_angle_gamma 93.45000

_symmetry_space_group_name_	'P 1'
_symmetry_space_group_name_H-M	'P 1'

loop_
_symmetry_equiv_pos_as_xyz
  x,y,z

loop_
_atom_site_label
_atom_site_type_symbol
_atom_site_fract_x
_atom_site_fract_y
_atom_site_fract_z
_atom_site_charge
C 	C 	0.68290 0.49550 0.71640 0.29600
C 	C 	0.57960 0.52410 0.76927 0.01300
C 	C 	0.44190 0.49770 0.73620 -0.06300
H 	H 	0.41520 0.46570 0.68230 0.09000
C 	C 	0.34400 0.51890 0.78291 0.01500
C 	C 	0.19540 0.49030 0.74710 0.26900
C 	C 	0.38370 0.56880 0.86310 -0.13400
H 	H 	0.31810 0.58200 0.89460 0.11600
C 	C 	0.52090 0.59910 0.89677 0.16700
C 	C 	0.61860 0.57640 0.84910 -0.13500
H 	H 	0.71070 0.59660 0.87120 0.10600
C 	C 	0.49580 0.73440 0.02510 0.21900
C 	C 	0.54770 0.76580 0.11120 -0.03500
C 	C 	0.68590 0.78230 0.14410 -0.02200
H 	H 	0.75070 0.76860 0.11210 0.05200
C 	C 	0.72640 0.81930 0.22470 -0.03400
H 	H 	0.81870 0.83110 0.24660 0.06300
C 	C 	0.63120 0.83860 0.27270 -0.03000
C 	C 	0.49400 0.81850 0.24010 -0.02600
H 	H 	0.42940 0.82980 0.27230 0.06700
C 	C 	0.45230 0.78160 0.15990 -0.02400
H 	H 	0.35980 0.76730 0.13840 0.06500
C 	C 	0.67160 0.89100 0.35960 0.22700
C 	C 	0.82050 0.86760 0.47820 0.17900
C 	C 	0.85390 0.76670 0.51550 -0.14100
H 	H 	0.84240 0.67730 0.48730 0.11800
C 	C 	0.90460 0.80060 0.59550 0.02200
C 	C 	0.93760 0.69370 0.63920 0.28900
C 	C 	0.92160 0.93430 0.63740 -0.06600
H 	H 	0.95550 0.95660 0.69090 0.09000
C 	C 	0.88810 0.03550 0.59987 0.01400
C 	C 	0.90710 0.18000 0.64590 0.28200
C 	C 	0.84030 0.00090 0.52000 -0.13700
H 	H 	0.82120 0.06800 0.49410 0.12300
N 	N 	0.76860 0.83050 0.39606 -0.25200
H 	H 	0.80170 0.76500 0.36790 0.15900
N 	N 	0.56360 0.64950 0.97849 -0.24600
H 	H 	0.63770 0.62450 0.00010 0.14000
O 	O 	0.80640 0.49560 0.74891 -0.39300
O 	O 	0.64300 0.47590 0.64537 -0.25200
O 	O 	0.16120 0.43410 0.67511 -0.36400
O 	O 	0.10770 0.52220 0.78863 -0.32600
O 	O 	0.39470 0.78370 0.99959 -0.20600
O 	O 	0.61590 0.98410 0.39305 -0.20500
O 	O 	0.91250 0.57120 0.60148 -0.38200
O 	O 	0.98650 0.72960 0.70941 -0.27600
O 	O 	0.94260 0.20810 0.71797 -0.28300
O 	O 	0.88710 0.27030 0.60817 -0.38400
Zn	Zn	0.94399 0.45780 0.67947 1.23600
C 	C 	0.31710 0.50450 0.28360 0.29500
C 	C 	0.42040 0.47590 0.23073 0.01200
C 	C 	0.55810 0.50230 0.26380 -0.06300
H 	H 	0.58480 0.53430 0.31770 0.09000
C 	C 	0.65600 0.48110 0.21709 0.01500
C 	C 	0.80460 0.50970 0.25290 0.26900
C 	C 	0.61630 0.43120 0.13690 -0.13400
H 	H 	0.68190 0.41800 0.10540 0.11600
C 	C 	0.47910 0.40090 0.10323 0.16700
C 	C 	0.38140 0.42360 0.15090 -0.13500
H 	H 	0.28930 0.40340 0.12880 0.10600
C 	C 	0.50420 0.26560 0.97490 0.21900
C 	C 	0.45230 0.23420 0.88880 -0.03500
C 	C 	0.31410 0.21770 0.85590 -0.02200
H 	H 	0.24930 0.23140 0.88790 0.05200
C 	C 	0.27360 0.18070 0.77530 -0.03400
H 	H 	0.18130 0.16890 0.75340 0.06300
C 	C 	0.36880 0.16140 0.72730 -0.03000
C 	C 	0.50600 0.18150 0.75990 -0.02600
H 	H 	0.57060 0.17020 0.72770 0.06700
C 	C 	0.54770 0.21840 0.84010 -0.02400
H 	H 	0.64020 0.23270 0.86160 0.06500
C 	C 	0.32840 0.10900 0.64040 0.22700
C 	C 	0.17950 0.13240 0.52180 0.17900
C 	C 	0.14610 0.23330 0.48450 -0.14100
H 	H 	0.15760 0.32270 0.51270 0.11800
C 	C 	0.09540 0.19940 0.40450 0.02200
C 	C 	0.06240 0.30630 0.36080 0.28900
C 	C 	0.07840 0.06570 0.36260 -0.06600
H 	H 	0.04450 0.04340 0.30910 0.09000
C 	C 	0.11190 0.96450 0.40013 0.01400
C 	C 	0.09290 0.82000 0.35410 0.28200
C 	C 	0.15970 0.99910 0.48000 -0.13700
H 	H 	0.17880 0.93200 0.50590 0.12300
N 	N 	0.23140 0.16950 0.60394 -0.25200
H 	H 	0.19830 0.23500 0.63210 0.15900
N 	N 	0.43640 0.35050 0.02151 -0.24600
H 	H 	0.36230 0.37550 0.99990 0.14000
O 	O 	0.19360 0.50440 0.25109 -0.39300
O 	O 	0.35700 0.52410 0.35463 -0.25200
O 	O 	0.83880 0.56590 0.32489 -0.36400
O 	O 	0.89230 0.47780 0.21137 -0.32600
O 	O 	0.60530 0.21630 0.00041 -0.20600
O 	O 	0.38410 0.01590 0.60695 -0.20500
O 	O 	0.08750 0.42880 0.39852 -0.38200
O 	O 	0.01350 0.27040 0.29059 -0.27600
O 	O 	0.05740 0.79190 0.28203 -0.28300
O 	O 	0.11290 0.72970 0.39183 -0.38400
Zn	Zn	0.05601 0.54220 0.32053 1.23600
