data_crystal

_cell_length_a 9.57920
_cell_length_b 14.13330
_cell_length_c 22.71910
_cell_angle_alpha 78.29650
_cell_angle_beta  77.82970
_cell_angle_gamma 70.19090

_symmetry_space_group_name_	'P 1'
_symmetry_space_group_name_H-M	'P 1'

loop_
_symmetry_equiv_pos_as_xyz
  x,y,z

loop_
_atom_site_label
_atom_site_type_symbol
_atom_site_fract_x
_atom_site_fract_y
_atom_site_fract_z
_atom_site_charge
Sn	Sn	0.61514 0.86501 0.23417 1.33400
Sn	Sn	0.40501 0.24798 0.49518 1.33800
Sn	Sn	0.68405 0.18722 0.03440 1.33100
Sn	Sn	0.28568 0.36501 0.73417 1.33400
Sn	Sn	0.85183 0.74798 0.99518 1.33600
Sn	Sn	0.09433 0.68722 0.53440 1.32700
H 	H 	0.56920 0.01580 0.34520 0.02500
H 	H 	0.40160 0.31110 0.27410 0.03600
H 	H 	0.44780 0.25840 0.17840 0.05900
H 	H 	0.83400 0.94630 0.20070 0.11400
H 	H 	0.81650 0.90500 0.14320 0.14500
H 	H 	0.97970 0.78350 0.23810 0.02500
H 	H 	0.95560 0.73780 0.18320 0.02800
H 	H 	0.10440 0.89220 0.16420 0.01300
H 	H 	0.08550 0.84160 0.11060 0.02000
H 	H 	0.23930 0.68040 0.15780 0.13800
H 	H 	0.32740 0.76110 0.12870 0.14300
H 	H 	0.27500 0.74360 0.20060 0.14000
H 	H 	0.41760 0.84260 0.32920 0.12400
H 	H 	0.40340 0.78300 0.27960 0.13000
H 	H 	0.26480 0.99480 0.28100 0.01700
H 	H 	0.24820 0.93320 0.23240 0.02200
H 	H 	0.14280 0.90150 0.35970 0.00800
H 	H 	0.13070 0.83590 0.31250 0.01300
H 	H 	0.97420 0.99820 0.26380 0.14300
H 	H 	0.89970 0.94620 0.32620 0.16200
H 	H 	0.96010 0.03890 0.32630 0.15400
H 	H 	0.78280 0.52220 0.99240 0.00900
H 	H 	0.53370 0.45200 0.15360 0.03600
H 	H 	0.54670 0.59430 0.18590 0.05200
H 	H 	0.51560 0.38940 0.43400 0.13200
H 	H 	0.65230 0.29110 0.44970 0.11900
H 	H 	0.48500 0.42450 0.53770 0.05600
H 	H 	0.63820 0.33390 0.54550 0.02900
H 	H 	0.62120 0.51130 0.45410 0.01300
H 	H 	0.77390 0.42270 0.46590 0.01600
H 	H 	0.72770 0.46550 0.56810 0.15000
H 	H 	0.76520 0.55190 0.51570 0.15000
H 	H 	0.59520 0.56360 0.54700 0.15800
H 	H 	0.17290 0.19570 0.55250 0.13600
H 	H 	0.30260 0.09540 0.53440 0.12200
H 	H 	0.24580 0.13230 0.43450 0.02100
H 	H 	0.12420 0.23780 0.44880 0.02600
H 	H 	0.09240 0.04720 0.50300 0.03600
H 	H 	0.96850 0.15490 0.51170 0.03600
H 	H 	0.06540 0.06840 0.40200 0.12200
H 	H 	0.90190 0.08770 0.44190 0.13000
H 	H 	0.95560 0.18200 0.40560 0.12200
H 	H 	0.87040 0.77970 0.42110 0.01900
H 	H 	0.89010 0.54680 0.33840 0.03500
H 	H 	0.05120 0.43650 0.40170 0.06100
H 	H 	0.90880 0.07090 0.09070 0.12400
H 	H 	0.77500 0.12150 0.14070 0.12500
H 	H 	0.84740 0.27560 0.11360 0.02600
H 	H 	0.98860 0.21750 0.06810 0.01900
H 	H 	0.08210 0.09520 0.15320 0.02800
H 	H 	0.94210 0.15500 0.19840 0.02800
H 	H 	0.02730 0.29730 0.17850 0.13000
H 	H 	0.16880 0.20120 0.19340 0.13800
H 	H 	0.15350 0.25150 0.12430 0.13500
H 	H 	0.49970 0.16090 0.97390 0.12900
H 	H 	0.56570 0.24780 0.93440 0.11700
H 	H 	0.39180 0.37150 0.98610 0.03100
H 	H 	0.34500 0.28990 0.03950 0.04100
H 	H 	0.28200 0.32130 0.91930 0.00900
H 	H 	0.23270 0.24190 0.97350 0.00800
H 	H 	0.11950 0.45750 0.97210 0.15600
H 	H 	0.02740 0.39090 0.95830 0.17400
H 	H 	0.06770 0.37700 0.02500 0.16000
H 	H 	0.06980 0.51580 0.84520 0.02000
H 	H 	0.01320 0.81110 0.77410 0.03200
H 	H 	0.11540 0.75840 0.67840 0.06000
H 	H 	0.01900 0.44630 0.70070 0.11000
H 	H 	0.13530 0.40500 0.64320 0.14100
H 	H 	0.99870 0.28350 0.73810 0.03500
H 	H 	0.12340 0.23780 0.68320 0.03400
H 	H 	0.83920 0.39220 0.66420 0.00700
H 	H 	0.96230 0.34160 0.61060 0.01400
H 	H 	0.92250 0.18040 0.65780 0.14700
H 	H 	0.78280 0.26110 0.62870 0.14800
H 	H 	0.78080 0.24360 0.70060 0.14700
H 	H 	0.41060 0.34260 0.82920 0.12500
H 	H 	0.53400 0.28300 0.77960 0.13100
H 	H 	0.45940 0.49480 0.78100 0.02000
H 	H 	0.58620 0.43320 0.73240 0.02300
H 	H 	0.59600 0.40150 0.85970 0.01200
H 	H 	0.72090 0.33590 0.81250 0.01600
H 	H 	0.76380 0.49820 0.76380 0.14000
H 	H 	0.82790 0.44620 0.82620 0.15800
H 	H 	0.67470 0.53890 0.82630 0.14200
H 	H 	0.70260 0.02220 0.49240 0.02000
H 	H 	0.86070 0.95200 0.65360 0.04100
H 	H 	0.67310 0.09430 0.68590 0.04800
H 	H 	0.66100 0.88940 0.93400 0.14100
H 	H 	0.60690 0.79110 0.94970 0.12900
H 	H 	0.55280 0.92450 0.03770 0.03200
H 	H 	0.48240 0.83390 0.04550 0.00700
H 	H 	0.41340 0.01130 0.95410 0.05700
H 	H 	0.33750 0.92270 0.96590 0.04900
H 	H 	0.23870 0.96550 0.06810 0.10200
H 	H 	0.16720 0.05190 0.01570 0.10900
H 	H 	0.29420 0.06360 0.04700 0.11800
H 	H 	0.07890 0.69570 0.05250 0.13400
H 	H 	0.06760 0.59540 0.03440 0.11800
H 	H 	0.18740 0.63230 0.93450 0.02000
H 	H 	0.18920 0.73780 0.94880 0.02600
H 	H 	0.35740 0.54720 0.00300 0.04500
H 	H 	0.36490 0.65490 0.01170 0.04200
H 	H 	0.46420 0.56840 0.90200 0.12300
H 	H 	0.56850 0.58770 0.94190 0.12700
H 	H 	0.45680 0.68200 0.90560 0.12000
H 	H 	0.92880 0.27970 0.92110 0.01900
H 	H 	0.22470 0.04680 0.83840 0.04100
H 	H 	0.11060 0.93650 0.90170 0.04600
H 	H 	0.92960 0.57090 0.59070 0.11800
H 	H 	0.96280 0.62150 0.64070 0.12300
H 	H 	0.76340 0.77560 0.61360 0.03000
H 	H 	0.72580 0.71750 0.56810 0.02000
H 	H 	0.66950 0.59520 0.65320 0.01800
H 	H 	0.70450 0.65500 0.69840 0.01600
H 	H 	0.49690 0.79730 0.67850 0.13600
H 	H 	0.43660 0.70120 0.69340 0.14300
H 	H 	0.47070 0.75150 0.62430 0.14000
H 	H 	0.36550 0.66090 0.47390 0.13400
H 	H 	0.25210 0.74780 0.43440 0.12000
H 	H 	0.25060 0.87150 0.48610 0.02100
H 	H 	0.32560 0.78990 0.53950 0.02400
H 	H 	0.47740 0.82130 0.41930 0.02000
H 	H 	0.55190 0.74190 0.47350 0.02100
H 	H 	0.45090 0.95750 0.47210 0.13900
H 	H 	0.62340 0.89090 0.45830 0.15800
H 	H 	0.53030 0.87700 0.52500 0.13800
C 	C 	0.53720 0.06570 0.31170 0.04600
C 	C 	0.48740 0.16740 0.31820 -0.09500
C 	C 	0.44320 0.24120 0.26940 0.00500
C 	C 	0.46150 0.20980 0.21400 -0.05900
C 	C 	0.49980 0.10760 0.21020 -0.05100
C 	C 	0.50440 0.06860 0.15400 0.30300
C 	C 	0.47030 0.19830 0.38030 0.29900
C 	C 	0.82330 0.88710 0.18710 -0.44800
C 	C 	0.96440 0.79900 0.19500 -0.00100
C 	C 	0.10060 0.82860 0.15360 0.00400
C 	C 	0.24860 0.74620 0.16080 -0.40200
C 	C 	0.40980 0.84860 0.28580 -0.45400
C 	C 	0.26190 0.92810 0.27510 -0.01400
C 	C 	0.12950 0.90440 0.31720 0.02400
C 	C 	0.97760 0.97840 0.30760 -0.43800
C 	C 	0.73510 0.53600 0.03220 0.05600
C 	C 	0.66010 0.47130 0.06910 -0.10200
C 	C 	0.58720 0.49410 0.12770 0.00200
C 	C 	0.59490 0.57780 0.14660 -0.05500
C 	C 	0.67300 0.63820 0.10840 -0.03400
C 	C 	0.68710 0.73020 0.12660 0.31000
C 	C 	0.65240 0.37850 0.04870 0.30300
C 	C 	0.55420 0.33560 0.46720 -0.44100
C 	C 	0.58240 0.38680 0.51560 -0.04000
C 	C 	0.67380 0.46090 0.48570 0.03900
C 	C 	0.69210 0.51530 0.53330 -0.43300
C 	C 	0.24970 0.16680 0.51880 -0.46200
C 	C 	0.16910 0.16640 0.46660 -0.00000
C 	C 	0.05080 0.11720 0.48260 -0.02600
C 	C 	0.98800 0.11350 0.42830 -0.35400
C 	C 	0.91090 0.71000 0.41600 0.05600
C 	C 	0.86830 0.67590 0.37130 -0.10500
C 	C 	0.92080 0.57200 0.36760 0.01900
C 	C 	0.01380 0.50710 0.40470 -0.06700
C 	C 	0.05440 0.54660 0.44840 -0.03900
C 	C 	0.16270 0.48000 0.48980 0.31300
C 	C 	0.76870 0.74790 0.32810 0.29600
C 	C 	0.83360 0.13620 0.10040 -0.44700
C 	C 	0.91970 0.20820 0.10640 -0.00500
C 	C 	0.01090 0.16310 0.15990 -0.02200
C 	C 	0.09820 0.23480 0.16440 -0.37900
C 	C 	0.52200 0.22350 0.97590 -0.44300
C 	C 	0.37510 0.30420 0.99500 -0.05100
C 	C 	0.25050 0.30880 0.96380 0.05100
C 	C 	0.10310 0.39080 0.98140 -0.46600
C 	C 	0.08540 0.56570 0.81170 0.04800
C 	C 	0.02700 0.66740 0.81820 -0.10300
C 	C 	0.04620 0.74120 0.76940 0.00900
C 	C 	0.11470 0.70980 0.71400 -0.06400
C 	C 	0.18240 0.60760 0.71020 -0.04900
C 	C 	0.27300 0.56860 0.65400 0.29200
C 	C 	0.95110 0.69830 0.88030 0.30500
C 	C 	0.10250 0.38710 0.68710 -0.43600
C 	C 	0.04160 0.29900 0.69500 -0.03100
C 	C 	0.91720 0.32860 0.65360 0.03200
C 	C 	0.84440 0.24620 0.66080 -0.42500
C 	C 	0.45580 0.34860 0.78580 -0.45400
C 	C 	0.53490 0.42810 0.77510 -0.01200
C 	C 	0.64890 0.40440 0.81720 0.02100
C 	C 	0.73640 0.47840 0.80760 -0.42000
C 	C 	0.69670 0.03600 0.53220 0.04800
C 	C 	0.79950 0.97130 0.56910 -0.10400
C 	C 	0.79100 0.99410 0.62770 -0.01600
C 	C 	0.68070 0.07780 0.64660 -0.03700
C 	C 	0.58040 0.13820 0.60840 -0.04100
C 	C 	0.45610 0.23020 0.62660 0.31100
C 	C 	0.92040 0.87850 0.54870 0.30700
C 	C 	0.64300 0.83560 0.96720 -0.48400
C 	C 	0.51520 0.88680 0.01560 0.04600
C 	C 	0.37960 0.96090 0.98570 -0.09700
C 	C 	0.25930 0.01530 0.03330 -0.28100
C 	C 	0.06470 0.66680 0.01880 -0.45200
C 	C 	0.19790 0.66640 0.96660 -0.00500
C 	C 	0.34940 0.61720 0.98260 -0.04200
C 	C 	0.47020 0.61350 0.92830 -0.35900
C 	C 	0.96310 0.21000 0.91600 0.05200
C 	C 	0.08450 0.17590 0.87130 -0.10100
C 	C 	0.13960 0.07200 0.86760 -0.00000
C 	C 	0.07440 0.00710 0.90470 -0.04300
C 	C 	0.95060 0.04660 0.94840 -0.02900
C 	C 	0.86750 0.98000 0.98980 0.28200
C 	C 	0.15530 0.24790 0.82810 0.29200
C 	C 	0.92980 0.63620 0.60040 -0.43800
C 	C 	0.76570 0.70820 0.60640 -0.02300
C 	C 	0.66610 0.66310 0.65990 0.00600
C 	C 	0.50260 0.73480 0.66440 -0.39900
C 	C 	0.27860 0.72350 0.47590 -0.45400
C 	C 	0.32570 0.80420 0.49500 -0.01300
C 	C 	0.47690 0.80880 0.46380 0.01100
C 	C 	0.52470 0.89080 0.48140 -0.40900
N 	N 	0.54080 0.03640 0.25840 -0.19000
N 	N 	0.74120 0.61910 0.05230 -0.19300
N 	N 	0.00810 0.64640 0.45200 -0.20000
N 	N 	0.16440 0.53640 0.75840 -0.19400
N 	N 	0.58740 0.11910 0.55230 -0.19300
N 	N 	0.89350 0.14640 0.95200 -0.19900
O 	O 	0.51240 0.97690 0.15790 -0.39700
O 	O 	0.50210 0.13190 0.10430 -0.36900
O 	O 	0.38050 0.28270 0.39090 -0.36900
O 	O 	0.54100 0.13740 0.42100 -0.38100
O 	O 	0.77040 0.77620 0.09160 -0.40700
O 	O 	0.61720 0.75110 0.17970 -0.39000
O 	O 	0.57010 0.33100 0.08240 -0.38200
O 	O 	0.73690 0.34590 0.00150 -0.37300
O 	O 	0.20680 0.52120 0.52360 -0.40400
O 	O 	0.20230 0.38570 0.48790 -0.38800
O 	O 	0.73390 0.71160 0.28880 -0.37200
O 	O 	0.72100 0.84250 0.33070 -0.36500
O 	O 	0.35280 0.47690 0.65790 -0.39000
O 	O 	0.26170 0.63190 0.60430 -0.37000
O 	O 	0.94590 0.78270 0.89090 -0.37000
O 	O 	0.90060 0.63740 0.92100 -0.38400
O 	O 	0.36180 0.27620 0.59160 -0.41100
O 	O 	0.45200 0.25110 0.67970 -0.39100
O 	O 	0.01650 0.83100 0.58240 -0.38900
O 	O 	0.91570 0.84590 0.50150 -0.38000
O 	O 	0.74840 0.02120 0.02360 -0.38200
O 	O 	0.92410 0.88570 0.98790 -0.38300
O 	O 	0.26570 0.21160 0.78880 -0.37200
O 	O 	0.10580 0.34250 0.83070 -0.36400
