data_crystal

_cell_length_a 30.75300
_cell_length_b 15.72850
_cell_length_c 22.11900
_cell_angle_alpha 90.00000
_cell_angle_beta  133.11800
_cell_angle_gamma 90.00000

_symmetry_space_group_name_	'P 1'
_symmetry_space_group_name_H-M	'P 1'

loop_
_symmetry_equiv_pos_as_xyz
  x,y,z

loop_
_atom_site_label
_atom_site_type_symbol
_atom_site_fract_x
_atom_site_fract_y
_atom_site_fract_z
_atom_site_charge
Ce	Ce	0.89005 0.63692 0.32743 2.03400
Ce	Ce	0.83061 0.62847 0.98577 2.03600
N 	N 	0.83860 0.49640 0.24270 -0.19600
N 	N 	0.63340 0.73140 0.03540 -0.20000
O 	O 	0.86550 0.52720 0.38150 -0.61800
O 	O 	0.82610 0.40260 0.37390 -0.55100
O 	O 	0.87580 0.61540 0.20330 -0.57000
O 	O 	0.84050 0.54680 0.09040 -0.60500
O 	O 	0.74760 0.76620 0.12740 -0.58100
O 	O 	0.77700 0.65080 0.20580 -0.51900
O 	O 	0.55940 0.85370 0.93110 -0.58000
O 	O 	0.48100 0.78200 0.88780 -0.60200
C 	C 	0.83860 0.46000 0.34630 0.38800
C 	C 	0.81500 0.44280 0.26180 -0.12400
C 	C 	0.77560 0.38200 0.20830 0.04300
H 	H 	0.76030 0.34580 0.22330 -0.01400
C 	C 	0.75730 0.37270 0.13120 -0.13800
H 	H 	0.72750 0.33470 0.09180 0.03400
C 	C 	0.78620 0.42350 0.11650 0.04400
H 	H 	0.77890 0.41530 0.06860 -0.02400
C 	C 	0.82590 0.48650 0.17220 -0.14200
C 	C 	0.84890 0.55190 0.15360 0.40200
C 	C 	0.73750 0.69850 0.14670 0.38500
C 	C 	0.67450 0.67630 0.09590 -0.11900
C 	C 	0.65580 0.60000 0.10580 0.01400
H 	H 	0.68340 0.56030 0.14560 0.00800
C 	C 	0.59580 0.58610 0.05520 -0.10900
H 	H 	0.58280 0.53600 0.06080 0.03100
C 	C 	0.55330 0.64610 0.99480 0.01100
H 	H 	0.51250 0.63760 0.96070 -0.01300
C 	C 	0.57660 0.71910 0.98970 -0.12400
C 	C 	0.53520 0.78980 0.93070 0.40500
Ce	Ce	0.39005 0.13692 0.32743 2.03400
Ce	Ce	0.33061 0.12847 0.98577 2.03500
N 	N 	0.33860 0.99640 0.24270 -0.19600
N 	N 	0.13340 0.23140 0.03540 -0.19900
O 	O 	0.36550 0.02720 0.38150 -0.61700
O 	O 	0.32610 0.90260 0.37390 -0.55100
O 	O 	0.37580 0.11540 0.20330 -0.57000
O 	O 	0.34050 0.04680 0.09040 -0.60500
O 	O 	0.24760 0.26620 0.12740 -0.58000
O 	O 	0.27700 0.15080 0.20580 -0.51800
O 	O 	0.05940 0.35370 0.93110 -0.58100
O 	O 	0.98100 0.28200 0.88780 -0.60400
C 	C 	0.33860 0.96000 0.34630 0.38800
C 	C 	0.31500 0.94280 0.26180 -0.12400
C 	C 	0.27560 0.88200 0.20830 0.04300
H 	H 	0.26030 0.84580 0.22330 -0.01500
C 	C 	0.25730 0.87270 0.13120 -0.13900
H 	H 	0.22750 0.83470 0.09180 0.03300
C 	C 	0.28620 0.92350 0.11650 0.04500
H 	H 	0.27890 0.91530 0.06860 -0.02500
C 	C 	0.32590 0.98650 0.17220 -0.14400
C 	C 	0.34890 0.05190 0.15360 0.40300
C 	C 	0.23750 0.19850 0.14670 0.38500
C 	C 	0.17450 0.17630 0.09590 -0.11800
C 	C 	0.15580 0.10000 0.10580 0.01200
H 	H 	0.18340 0.06030 0.14560 0.00900
C 	C 	0.09580 0.08610 0.05520 -0.10500
H 	H 	0.08280 0.03600 0.06080 0.02900
C 	C 	0.05330 0.14610 0.99480 0.00700
H 	H 	0.01250 0.13760 0.96070 -0.01300
C 	C 	0.07660 0.21910 0.98970 -0.12600
C 	C 	0.03520 0.28980 0.93070 0.40500
Ce	Ce	0.10995 0.63692 0.17257 2.03400
Ce	Ce	0.16939 0.62847 0.51423 2.03600
N 	N 	0.16140 0.49640 0.25730 -0.19600
N 	N 	0.36660 0.73140 0.46460 -0.20000
O 	O 	0.13450 0.52720 0.11850 -0.61700
O 	O 	0.17390 0.40260 0.12610 -0.55100
O 	O 	0.12420 0.61540 0.29670 -0.57000
O 	O 	0.15950 0.54680 0.40960 -0.60600
O 	O 	0.25240 0.76620 0.37260 -0.58100
O 	O 	0.22300 0.65080 0.29420 -0.51900
O 	O 	0.44060 0.85370 0.56890 -0.58100
O 	O 	0.51900 0.78200 0.61220 -0.60300
C 	C 	0.16140 0.46000 0.15370 0.38800
C 	C 	0.18500 0.44280 0.23820 -0.12400
C 	C 	0.22440 0.38200 0.29170 0.04300
H 	H 	0.23970 0.34580 0.27670 -0.01400
C 	C 	0.24270 0.37270 0.36880 -0.13800
H 	H 	0.27250 0.33470 0.40820 0.03300
C 	C 	0.21380 0.42350 0.38350 0.04400
H 	H 	0.22110 0.41530 0.43140 -0.02400
C 	C 	0.17410 0.48650 0.32780 -0.14200
C 	C 	0.15110 0.55190 0.34640 0.40200
C 	C 	0.26250 0.69850 0.35330 0.38500
C 	C 	0.32550 0.67630 0.40410 -0.11900
C 	C 	0.34420 0.60000 0.39420 0.01300
H 	H 	0.31660 0.56030 0.35440 0.00800
C 	C 	0.40420 0.58610 0.44480 -0.10800
H 	H 	0.41720 0.53600 0.43920 0.03000
C 	C 	0.44670 0.64610 0.50520 0.00900
H 	H 	0.48750 0.63760 0.53930 -0.01300
C 	C 	0.42340 0.71910 0.51030 -0.12600
C 	C 	0.46480 0.78980 0.56930 0.40500
Ce	Ce	0.60995 0.13692 0.17257 2.03500
Ce	Ce	0.66939 0.12847 0.51423 2.03600
N 	N 	0.66140 0.99640 0.25730 -0.19600
N 	N 	0.86660 0.23140 0.46460 -0.20000
O 	O 	0.63450 0.02720 0.11850 -0.61500
O 	O 	0.67390 0.90260 0.12610 -0.55100
O 	O 	0.62420 0.11540 0.29670 -0.57000
O 	O 	0.65950 0.04680 0.40960 -0.60600
O 	O 	0.75240 0.26620 0.37260 -0.58000
O 	O 	0.72300 0.15080 0.29420 -0.51800
O 	O 	0.94060 0.35370 0.56890 -0.58100
O 	O 	0.01900 0.28200 0.61220 -0.60300
C 	C 	0.66140 0.96000 0.15370 0.38500
C 	C 	0.68500 0.94280 0.23820 -0.12300
C 	C 	0.72440 0.88200 0.29170 0.04300
H 	H 	0.73970 0.84580 0.27670 -0.01400
C 	C 	0.74270 0.87270 0.36880 -0.13800
H 	H 	0.77250 0.83470 0.40820 0.03300
C 	C 	0.71380 0.92350 0.38350 0.04400
H 	H 	0.72110 0.91530 0.43140 -0.02500
C 	C 	0.67410 0.98650 0.32780 -0.14400
C 	C 	0.65110 0.05190 0.34640 0.40300
C 	C 	0.76250 0.19850 0.35330 0.38500
C 	C 	0.82550 0.17630 0.40410 -0.11900
C 	C 	0.84420 0.10000 0.39420 0.01300
H 	H 	0.81660 0.06030 0.35440 0.00800
C 	C 	0.90420 0.08610 0.44480 -0.10800
H 	H 	0.91720 0.03600 0.43920 0.03000
C 	C 	0.94670 0.14610 0.50520 0.00900
H 	H 	0.98750 0.13760 0.53930 -0.01400
C 	C 	0.92340 0.21910 0.51030 -0.12600
C 	C 	0.96480 0.28980 0.56930 0.40500
Ce	Ce	0.10995 0.36308 0.67257 2.03400
Ce	Ce	0.16939 0.37153 0.01423 2.03600
N 	N 	0.16140 0.50360 0.75730 -0.19600
N 	N 	0.36660 0.26860 0.96460 -0.20000
O 	O 	0.13450 0.47280 0.61850 -0.61800
O 	O 	0.17390 0.59740 0.62610 -0.55100
O 	O 	0.12420 0.38460 0.79670 -0.57000
O 	O 	0.15950 0.45320 0.90960 -0.60500
O 	O 	0.25240 0.23380 0.87260 -0.58100
O 	O 	0.22300 0.34920 0.79420 -0.51900
O 	O 	0.44060 0.14630 0.06890 -0.58000
O 	O 	0.51900 0.21800 0.11220 -0.60200
C 	C 	0.16140 0.54000 0.65370 0.38800
C 	C 	0.18500 0.55720 0.73820 -0.12400
C 	C 	0.22440 0.61800 0.79170 0.04300
H 	H 	0.23970 0.65420 0.77670 -0.01400
C 	C 	0.24270 0.62730 0.86880 -0.13800
H 	H 	0.27250 0.66530 0.90820 0.03400
C 	C 	0.21380 0.57650 0.88350 0.04400
H 	H 	0.22110 0.58470 0.93140 -0.02400
C 	C 	0.17410 0.51350 0.82780 -0.14200
C 	C 	0.15110 0.44810 0.84640 0.40200
C 	C 	0.26250 0.30150 0.85330 0.38500
C 	C 	0.32550 0.32370 0.90410 -0.11900
C 	C 	0.34420 0.40000 0.89420 0.01400
H 	H 	0.31660 0.43970 0.85440 0.00800
C 	C 	0.40420 0.41390 0.94480 -0.10900
H 	H 	0.41720 0.46400 0.93920 0.03100
C 	C 	0.44670 0.35390 0.00520 0.01100
H 	H 	0.48750 0.36240 0.03930 -0.01300
C 	C 	0.42340 0.28090 0.01030 -0.12400
C 	C 	0.46480 0.21020 0.06930 0.40500
Ce	Ce	0.60995 0.86308 0.67257 2.03400
Ce	Ce	0.66939 0.87153 0.01423 2.03500
N 	N 	0.66140 0.00360 0.75730 -0.19600
N 	N 	0.86660 0.76860 0.96460 -0.19900
O 	O 	0.63450 0.97280 0.61850 -0.61700
O 	O 	0.67390 0.09740 0.62610 -0.55100
O 	O 	0.62420 0.88460 0.79670 -0.57000
O 	O 	0.65950 0.95320 0.90960 -0.60500
O 	O 	0.75240 0.73380 0.87260 -0.58000
O 	O 	0.72300 0.84920 0.79420 -0.51800
O 	O 	0.94060 0.64630 0.06890 -0.58100
O 	O 	0.01900 0.71800 0.11220 -0.60400
C 	C 	0.66140 0.04000 0.65370 0.38800
C 	C 	0.68500 0.05720 0.73820 -0.12400
C 	C 	0.72440 0.11800 0.79170 0.04300
H 	H 	0.73970 0.15420 0.77670 -0.01500
C 	C 	0.74270 0.12730 0.86880 -0.13900
H 	H 	0.77250 0.16530 0.90820 0.03300
C 	C 	0.71380 0.07650 0.88350 0.04500
H 	H 	0.72110 0.08470 0.93140 -0.02500
C 	C 	0.67410 0.01350 0.82780 -0.14400
C 	C 	0.65110 0.94810 0.84640 0.40300
C 	C 	0.76250 0.80150 0.85330 0.38500
C 	C 	0.82550 0.82370 0.90410 -0.11800
C 	C 	0.84420 0.90000 0.89420 0.01200
H 	H 	0.81660 0.93970 0.85440 0.00900
C 	C 	0.90420 0.91390 0.94480 -0.10500
H 	H 	0.91720 0.96400 0.93920 0.02900
C 	C 	0.94670 0.85390 0.00520 0.00700
H 	H 	0.98750 0.86240 0.03930 -0.01300
C 	C 	0.92340 0.78090 0.01030 -0.12600
C 	C 	0.96480 0.71020 0.06930 0.40500
Ce	Ce	0.89005 0.36308 0.82743 2.03400
Ce	Ce	0.83061 0.37153 0.48577 2.03600
N 	N 	0.83860 0.50360 0.74270 -0.19600
N 	N 	0.63340 0.26860 0.53540 -0.20000
O 	O 	0.86550 0.47280 0.88150 -0.61700
O 	O 	0.82610 0.59740 0.87390 -0.55100
O 	O 	0.87580 0.38460 0.70330 -0.57000
O 	O 	0.84050 0.45320 0.59040 -0.60600
O 	O 	0.74760 0.23380 0.62740 -0.58100
O 	O 	0.77700 0.34920 0.70580 -0.51900
O 	O 	0.55940 0.14630 0.43110 -0.58100
O 	O 	0.48100 0.21800 0.38780 -0.60300
C 	C 	0.83860 0.54000 0.84630 0.38800
C 	C 	0.81500 0.55720 0.76180 -0.12400
C 	C 	0.77560 0.61800 0.70830 0.04300
H 	H 	0.76030 0.65420 0.72330 -0.01400
C 	C 	0.75730 0.62730 0.63120 -0.13800
H 	H 	0.72750 0.66530 0.59180 0.03300
C 	C 	0.78620 0.57650 0.61650 0.04400
H 	H 	0.77890 0.58470 0.56860 -0.02400
C 	C 	0.82590 0.51350 0.67220 -0.14200
C 	C 	0.84890 0.44810 0.65360 0.40200
C 	C 	0.73750 0.30150 0.64670 0.38500
C 	C 	0.67450 0.32370 0.59590 -0.11900
C 	C 	0.65580 0.40000 0.60580 0.01300
H 	H 	0.68340 0.43970 0.64560 0.00800
C 	C 	0.59580 0.41390 0.55520 -0.10800
H 	H 	0.58280 0.46400 0.56080 0.03000
C 	C 	0.55330 0.35390 0.49480 0.00900
H 	H 	0.51250 0.36240 0.46070 -0.01300
C 	C 	0.57660 0.28090 0.48970 -0.12600
C 	C 	0.53520 0.21020 0.43070 0.40500
Ce	Ce	0.39005 0.86308 0.82743 2.03500
Ce	Ce	0.33061 0.87153 0.48577 2.03600
N 	N 	0.33860 0.00360 0.74270 -0.19600
N 	N 	0.13340 0.76860 0.53540 -0.20000
O 	O 	0.36550 0.97280 0.88150 -0.61500
O 	O 	0.32610 0.09740 0.87390 -0.55100
O 	O 	0.37580 0.88460 0.70330 -0.57000
O 	O 	0.34050 0.95320 0.59040 -0.60600
O 	O 	0.24760 0.73380 0.62740 -0.58000
O 	O 	0.27700 0.84920 0.70580 -0.51800
O 	O 	0.05940 0.64630 0.43110 -0.58100
O 	O 	0.98100 0.71800 0.38780 -0.60300
C 	C 	0.33860 0.04000 0.84630 0.38500
C 	C 	0.31500 0.05720 0.76180 -0.12300
C 	C 	0.27560 0.11800 0.70830 0.04300
H 	H 	0.26030 0.15420 0.72330 -0.01400
C 	C 	0.25730 0.12730 0.63120 -0.13800
H 	H 	0.22750 0.16530 0.59180 0.03300
C 	C 	0.28620 0.07650 0.61650 0.04400
H 	H 	0.27890 0.08470 0.56860 -0.02500
C 	C 	0.32590 0.01350 0.67220 -0.14400
C 	C 	0.34890 0.94810 0.65360 0.40300
C 	C 	0.23750 0.80150 0.64670 0.38500
C 	C 	0.17450 0.82370 0.59590 -0.11900
C 	C 	0.15580 0.90000 0.60580 0.01300
H 	H 	0.18340 0.93970 0.64560 0.00800
C 	C 	0.09580 0.91390 0.55520 -0.10800
H 	H 	0.08280 0.96400 0.56080 0.03000
C 	C 	0.05330 0.85390 0.49480 0.00900
H 	H 	0.01250 0.86240 0.46070 -0.01400
C 	C 	0.07660 0.78090 0.48970 -0.12600
C 	C 	0.03520 0.71020 0.43070 0.40500
