data_crystal

_cell_length_a 13.81630
_cell_length_b 27.58140
_cell_length_c 44.23600
_cell_angle_alpha 90.00000
_cell_angle_beta  90.00000
_cell_angle_gamma 90.00000

_symmetry_space_group_name_	'P 1'
_symmetry_space_group_name_H-M	'P 1'

loop_
_symmetry_equiv_pos_as_xyz
  x,y,z

loop_
_atom_site_label
_atom_site_type_symbol
_atom_site_fract_x
_atom_site_fract_y
_atom_site_fract_z
_atom_site_charge
Zn	Zn	0.35904 0.04396 0.08831 1.16300
Zn	Zn	0.38160 0.52515 0.08568 1.16400
Zn	Zn	0.31358 0.23974 0.82026 1.16600
Zn	Zn	0.64096 0.45604 0.58831 1.16300
Zn	Zn	0.61840 0.97485 0.58568 1.16400
Zn	Zn	0.68642 0.26026 0.32026 1.16600
Zn	Zn	0.85904 0.95604 0.41169 1.16400
Zn	Zn	0.88160 0.47485 0.41432 1.16500
Zn	Zn	0.81358 0.76026 0.67974 1.16700
Zn	Zn	0.14096 0.54396 0.91169 1.16400
Zn	Zn	0.11840 0.02515 0.91432 1.16500
Zn	Zn	0.18642 0.73974 0.17974 1.16700
H 	H 	0.98270 0.03710 0.96650 -0.00500
H 	H 	0.82220 0.06570 0.97550 0.09000
H 	H 	0.96130 0.08090 0.88170 -0.00600
H 	H 	0.80630 0.10720 0.88860 0.09800
H 	H 	0.52860 0.21830 0.83580 -0.01100
H 	H 	0.61390 0.17910 0.87220 0.08700
H 	H 	0.28190 0.18810 0.87630 -0.01400
H 	H 	0.36680 0.14810 0.91610 0.07900
H 	H 	0.30020 0.07320 0.02590 -0.00800
H 	H 	0.36920 0.09830 0.98110 0.07800
H 	H 	0.54510 0.02220 0.05780 -0.01000
H 	H 	0.62810 0.04840 0.01390 0.08700
H 	H 	0.44240 0.08260 0.14770 -0.00500
H 	H 	0.47490 0.15480 0.16900 0.07500
H 	H 	0.37750 0.14860 0.07010 -0.00800
H 	H 	0.40800 0.22270 0.09100 0.07000
H 	H 	0.39710 0.41750 0.06940 -0.00300
H 	H 	0.42460 0.34450 0.09310 0.07600
H 	H 	0.44080 0.48810 0.14650 -0.00500
H 	H 	0.47380 0.41750 0.17080 0.07700
H 	H 	0.62640 0.33820 0.28030 -0.01600
H 	H 	0.56420 0.34980 0.23040 0.08300
H 	H 	0.56330 0.20140 0.27740 0.00100
H 	H 	0.50640 0.20840 0.22770 0.08600
H 	H 	0.01730 0.46290 0.46650 -0.00600
H 	H 	0.17780 0.43430 0.47550 0.09000
H 	H 	0.03870 0.41910 0.38170 -0.00600
H 	H 	0.19370 0.39280 0.38860 0.09800
H 	H 	0.47140 0.28170 0.33580 -0.01100
H 	H 	0.38610 0.32090 0.37220 0.08700
H 	H 	0.71810 0.31190 0.37630 -0.01400
H 	H 	0.63320 0.35190 0.41610 0.07900
H 	H 	0.69980 0.42680 0.52590 -0.00800
H 	H 	0.63080 0.40170 0.48110 0.07800
H 	H 	0.45490 0.47780 0.55780 -0.01000
H 	H 	0.37190 0.45160 0.51390 0.08700
H 	H 	0.55760 0.41740 0.64770 -0.00500
H 	H 	0.52510 0.34520 0.66900 0.07500
H 	H 	0.62250 0.35140 0.57010 -0.00800
H 	H 	0.59200 0.27730 0.59100 0.07000
H 	H 	0.60290 0.08250 0.56940 -0.00300
H 	H 	0.57540 0.15550 0.59310 0.07700
H 	H 	0.55920 0.01190 0.64650 -0.00500
H 	H 	0.52620 0.08250 0.67080 0.07700
H 	H 	0.37360 0.16180 0.78030 -0.01600
H 	H 	0.43580 0.15020 0.73040 0.08300
H 	H 	0.43670 0.29860 0.77740 0.00100
H 	H 	0.49360 0.29160 0.72770 0.08600
H 	H 	0.48270 0.96290 0.53350 -0.00500
H 	H 	0.32220 0.93430 0.52450 0.09000
H 	H 	0.46130 0.91910 0.61830 -0.00600
H 	H 	0.30630 0.89280 0.61140 0.09800
H 	H 	0.02860 0.78170 0.66420 -0.01000
H 	H 	0.11390 0.82090 0.62780 0.08700
H 	H 	0.78190 0.81190 0.62370 -0.01400
H 	H 	0.86680 0.85190 0.58390 0.07900
H 	H 	0.80020 0.92680 0.47410 -0.00800
H 	H 	0.86920 0.90170 0.51890 0.07800
H 	H 	0.04510 0.97780 0.44220 -0.01000
H 	H 	0.12810 0.95160 0.48610 0.08700
H 	H 	0.94240 0.91740 0.35230 -0.00500
H 	H 	0.97490 0.84520 0.33100 0.07400
H 	H 	0.87750 0.85140 0.42990 -0.00800
H 	H 	0.90800 0.77730 0.40900 0.07000
H 	H 	0.89710 0.58250 0.43060 -0.00300
H 	H 	0.92460 0.65550 0.40690 0.07600
H 	H 	0.94080 0.51190 0.35350 -0.00500
H 	H 	0.97380 0.58250 0.32920 0.07700
H 	H 	0.12640 0.66180 0.21970 -0.01600
H 	H 	0.06420 0.65020 0.26960 0.08300
H 	H 	0.06330 0.79860 0.22260 0.00100
H 	H 	0.00640 0.79160 0.27230 0.08600
H 	H 	0.51730 0.53710 0.03350 -0.00600
H 	H 	0.67780 0.56570 0.02450 0.09000
H 	H 	0.53870 0.58090 0.11830 -0.00600
H 	H 	0.69370 0.60720 0.11140 0.09800
H 	H 	0.97140 0.71830 0.16420 -0.01200
H 	H 	0.88610 0.67910 0.12780 0.08800
H 	H 	0.21810 0.68810 0.12370 -0.01400
H 	H 	0.13320 0.64810 0.08390 0.07900
H 	H 	0.19980 0.57320 0.97410 -0.00800
H 	H 	0.13080 0.59830 0.01890 0.07800
H 	H 	0.95490 0.52220 0.94220 -0.01000
H 	H 	0.87190 0.54840 0.98610 0.08700
H 	H 	0.05760 0.58260 0.85230 -0.00500
H 	H 	0.02510 0.65480 0.83100 0.07500
H 	H 	0.12250 0.64860 0.92990 -0.00800
H 	H 	0.09200 0.72270 0.90900 0.07000
H 	H 	0.10290 0.91750 0.93060 -0.00300
H 	H 	0.07540 0.84450 0.90690 0.07700
H 	H 	0.05920 0.98810 0.85350 -0.00500
H 	H 	0.02620 0.91750 0.82920 0.07700
H 	H 	0.87360 0.83820 0.71970 -0.01600
H 	H 	0.93580 0.84980 0.76960 0.08300
H 	H 	0.93670 0.70140 0.72260 0.00100
H 	H 	0.99360 0.70840 0.77230 0.08500
C 	C 	0.94660 0.05140 0.95050 0.07000
C 	C 	0.85000 0.06850 0.95590 -0.12300
C 	C 	0.93220 0.07710 0.90100 0.07300
C 	C 	0.84080 0.09310 0.90500 -0.13300
C 	C 	0.79830 0.08890 0.93300 0.05700
C 	C 	0.69450 0.10180 0.93780 0.08600
C 	C 	0.49420 0.20330 0.85190 0.07500
C 	C 	0.54530 0.18030 0.87360 -0.13600
C 	C 	0.35040 0.18620 0.87530 0.07200
C 	C 	0.39990 0.16190 0.89930 -0.11100
C 	C 	0.50340 0.15980 0.89630 0.07300
C 	C 	0.55650 0.13650 0.92090 0.09200
C 	C 	0.36800 0.06920 0.02330 0.07600
C 	C 	0.40770 0.08400 0.99650 -0.11300
C 	C 	0.51170 0.03940 0.04240 0.05500
C 	C 	0.56050 0.05410 0.01590 -0.10700
C 	C 	0.50960 0.07690 0.99250 0.04400
C 	C 	0.55790 0.09460 0.96540 0.09800
C 	C 	0.43470 0.11130 0.13610 0.05500
C 	C 	0.45220 0.15470 0.14880 -0.10000
C 	C 	0.39660 0.15040 0.09070 0.04700
C 	C 	0.41360 0.19460 0.10330 -0.09300
C 	C 	0.43990 0.20010 0.13460 0.03000
C 	C 	0.45210 0.24420 0.15000 0.10900
C 	C 	0.41120 0.41730 0.09040 0.06100
C 	C 	0.42600 0.37350 0.10460 -0.10200
C 	C 	0.43740 0.45860 0.13550 0.06000
C 	C 	0.45430 0.41660 0.15030 -0.10300
C 	C 	0.44310 0.37110 0.13550 0.04300
C 	C 	0.45550 0.32560 0.15110 0.10400
C 	C 	0.60300 0.31090 0.26940 0.08000
C 	C 	0.56520 0.31860 0.23950 -0.12500
C 	C 	0.56720 0.23200 0.26750 0.07000
C 	C 	0.53080 0.23620 0.23790 -0.12600
C 	C 	0.53050 0.27820 0.22450 0.06300
C 	C 	0.49360 0.28390 0.19260 0.10800
C 	C 	0.05340 0.44860 0.45050 0.07000
C 	C 	0.15000 0.43150 0.45590 -0.12300
C 	C 	0.06780 0.42290 0.40100 0.07300
C 	C 	0.15920 0.40690 0.40500 -0.13400
C 	C 	0.20170 0.41110 0.43300 0.05700
C 	C 	0.30550 0.39820 0.43780 0.08600
C 	C 	0.50580 0.29670 0.35190 0.07500
C 	C 	0.45470 0.31970 0.37360 -0.13600
C 	C 	0.64960 0.31380 0.37530 0.07200
C 	C 	0.60010 0.33810 0.39930 -0.11100
C 	C 	0.49660 0.34020 0.39630 0.07300
C 	C 	0.44350 0.36350 0.42090 0.09200
C 	C 	0.63200 0.43080 0.52330 0.07600
C 	C 	0.59230 0.41600 0.49650 -0.11300
C 	C 	0.48830 0.46060 0.54240 0.05500
C 	C 	0.43950 0.44590 0.51590 -0.10700
C 	C 	0.49040 0.42310 0.49250 0.04400
C 	C 	0.44210 0.40540 0.46540 0.09800
C 	C 	0.56530 0.38870 0.63610 0.05500
C 	C 	0.54780 0.34530 0.64880 -0.10000
C 	C 	0.60340 0.34960 0.59070 0.04700
C 	C 	0.58640 0.30540 0.60330 -0.09300
C 	C 	0.56010 0.29990 0.63460 0.03000
C 	C 	0.54790 0.25580 0.65000 0.10900
C 	C 	0.58880 0.08270 0.59040 0.06100
C 	C 	0.57400 0.12650 0.60460 -0.10200
C 	C 	0.56260 0.04140 0.63550 0.06000
C 	C 	0.54570 0.08340 0.65030 -0.10300
C 	C 	0.55690 0.12890 0.63550 0.04300
C 	C 	0.54450 0.17440 0.65110 0.10400
C 	C 	0.39700 0.18910 0.76940 0.08000
C 	C 	0.43480 0.18140 0.73950 -0.12500
C 	C 	0.43280 0.26800 0.76750 0.07000
C 	C 	0.46920 0.26380 0.73790 -0.12600
C 	C 	0.46950 0.22180 0.72450 0.06300
C 	C 	0.50640 0.21610 0.69260 0.10800
C 	C 	0.44660 0.94860 0.54950 0.07000
C 	C 	0.35000 0.93150 0.54410 -0.12300
C 	C 	0.43220 0.92290 0.59900 0.07300
C 	C 	0.34080 0.90690 0.59500 -0.13300
C 	C 	0.29830 0.91110 0.56700 0.05700
C 	C 	0.19450 0.89820 0.56220 0.08600
C 	C 	0.99420 0.79670 0.64810 0.07300
C 	C 	0.04530 0.81970 0.62640 -0.13500
C 	C 	0.85040 0.81380 0.62470 0.07200
C 	C 	0.89990 0.83810 0.60070 -0.11200
C 	C 	0.00340 0.84020 0.60370 0.07300
C 	C 	0.05650 0.86350 0.57910 0.09200
C 	C 	0.86800 0.93080 0.47670 0.07600
C 	C 	0.90770 0.91600 0.50350 -0.11500
C 	C 	0.01170 0.96060 0.45760 0.05600
C 	C 	0.06050 0.94590 0.48410 -0.10800
C 	C 	0.00960 0.92310 0.50750 0.04500
C 	C 	0.05790 0.90540 0.53460 0.09800
C 	C 	0.93470 0.88870 0.36390 0.05500
C 	C 	0.95220 0.84530 0.35120 -0.10000
C 	C 	0.89660 0.84960 0.40930 0.04700
C 	C 	0.91360 0.80540 0.39670 -0.09300
C 	C 	0.93990 0.79990 0.36540 0.03000
C 	C 	0.95210 0.75580 0.35000 0.10900
C 	C 	0.91120 0.58270 0.40960 0.06100
C 	C 	0.92600 0.62650 0.39540 -0.10200
C 	C 	0.93740 0.54140 0.36450 0.06000
C 	C 	0.95430 0.58340 0.34970 -0.10300
C 	C 	0.94310 0.62890 0.36450 0.04300
C 	C 	0.95550 0.67440 0.34890 0.10400
C 	C 	0.10300 0.68910 0.23060 0.08000
C 	C 	0.06520 0.68140 0.26050 -0.12500
C 	C 	0.06720 0.76800 0.23250 0.07000
C 	C 	0.03080 0.76380 0.26210 -0.12600
C 	C 	0.03050 0.72180 0.27550 0.06300
C 	C 	0.99360 0.71610 0.30740 0.10800
C 	C 	0.55340 0.55140 0.04950 0.07000
C 	C 	0.65000 0.56850 0.04410 -0.12300
C 	C 	0.56780 0.57710 0.09900 0.07300
C 	C 	0.65920 0.59310 0.09500 -0.13400
C 	C 	0.70170 0.58890 0.06700 0.05700
C 	C 	0.80550 0.60180 0.06220 0.08600
C 	C 	0.00580 0.70330 0.14810 0.07600
C 	C 	0.95470 0.68030 0.12640 -0.13700
C 	C 	0.14960 0.68620 0.12470 0.07200
C 	C 	0.10010 0.66190 0.10070 -0.11100
C 	C 	0.99660 0.65980 0.10370 0.07300
C 	C 	0.94350 0.63650 0.07910 0.09200
C 	C 	0.13200 0.56920 0.97670 0.07500
C 	C 	0.09230 0.58400 0.00350 -0.11300
C 	C 	0.98830 0.53940 0.95760 0.05500
C 	C 	0.93950 0.55410 0.98410 -0.10700
C 	C 	0.99040 0.57690 0.00750 0.04300
C 	C 	0.94210 0.59460 0.03460 0.09800
C 	C 	0.06530 0.61130 0.86390 0.05500
C 	C 	0.04780 0.65470 0.85120 -0.10000
C 	C 	0.10340 0.65040 0.90930 0.04700
C 	C 	0.08640 0.69460 0.89670 -0.09300
C 	C 	0.06010 0.70010 0.86540 0.03000
C 	C 	0.04790 0.74420 0.85000 0.10900
C 	C 	0.08880 0.91730 0.90960 0.06100
C 	C 	0.07400 0.87350 0.89540 -0.10200
C 	C 	0.06260 0.95860 0.86450 0.06100
C 	C 	0.04570 0.91660 0.84970 -0.10300
C 	C 	0.05690 0.87110 0.86450 0.04300
C 	C 	0.04450 0.82560 0.84890 0.10400
C 	C 	0.89700 0.81090 0.73060 0.07900
C 	C 	0.93480 0.81860 0.76050 -0.12500
C 	C 	0.93280 0.73200 0.73250 0.06900
C 	C 	0.96920 0.73620 0.76210 -0.12600
C 	C 	0.96950 0.77820 0.77550 0.06200
C 	C 	0.00640 0.78390 0.80740 0.10800
I 	I 	0.44623 0.97849 0.11781 -0.36100
I 	I 	0.17669 0.05282 0.08466 -0.38500
I 	I 	0.30553 0.50686 0.03415 -0.39100
I 	I 	0.29542 0.57357 0.12587 -0.37000
I 	I 	0.30566 0.33040 0.83134 -0.37200
I 	I 	0.15661 0.19313 0.81287 -0.37000
I 	I 	0.55377 0.52151 0.61781 -0.36100
I 	I 	0.82331 0.44718 0.58466 -0.38400
I 	I 	0.69447 0.99314 0.53415 -0.39100
I 	I 	0.70458 0.92643 0.62587 -0.37100
I 	I 	0.69434 0.16960 0.33134 -0.37200
I 	I 	0.84339 0.30687 0.31287 -0.36900
I 	I 	0.94623 0.02151 0.38219 -0.36000
I 	I 	0.67669 0.94718 0.41534 -0.38400
I 	I 	0.80553 0.49314 0.46585 -0.39100
I 	I 	0.79542 0.42643 0.37413 -0.37000
I 	I 	0.80566 0.66960 0.66866 -0.37200
I 	I 	0.65661 0.80687 0.68713 -0.36900
I 	I 	0.05377 0.47849 0.88219 -0.36100
I 	I 	0.32331 0.55282 0.91534 -0.38400
I 	I 	0.19447 0.00686 0.96585 -0.39200
I 	I 	0.20458 0.07357 0.87413 -0.37100
I 	I 	0.19434 0.83040 0.16866 -0.37200
I 	I 	0.34339 0.69313 0.18713 -0.36900
N 	N 	0.98500 0.05560 0.92340 -0.27000
N 	N 	0.39360 0.20630 0.85190 -0.28100
N 	N 	0.41740 0.05000 0.04550 -0.27100
N 	N 	0.65320 0.12870 0.91660 -0.13100
N 	N 	0.50580 0.11920 0.94490 -0.13500
N 	N 	0.65110 0.08300 0.96250 -0.14300
N 	N 	0.40640 0.10820 0.10700 -0.26500
N 	N 	0.41590 0.46040 0.10540 -0.26600
N 	N 	0.60680 0.26900 0.28210 -0.28200
N 	N 	0.44190 0.28550 0.13460 -0.14000
N 	N 	0.48400 0.32590 0.18040 -0.14200
N 	N 	0.48010 0.24150 0.17900 -0.14300
N 	N 	0.01500 0.44440 0.42340 -0.27100
N 	N 	0.60640 0.29370 0.35190 -0.28100
N 	N 	0.58260 0.45000 0.54550 -0.27100
N 	N 	0.34680 0.37130 0.41660 -0.13100
N 	N 	0.49420 0.38080 0.44490 -0.13500
N 	N 	0.34890 0.41700 0.46250 -0.14300
N 	N 	0.59360 0.39180 0.60700 -0.26500
N 	N 	0.58410 0.03960 0.60540 -0.26600
N 	N 	0.39320 0.23100 0.78210 -0.28200
N 	N 	0.55810 0.21450 0.63460 -0.14000
N 	N 	0.51600 0.17410 0.68040 -0.14200
N 	N 	0.51990 0.25850 0.67900 -0.14300
N 	N 	0.48500 0.94440 0.57660 -0.27100
N 	N 	0.89360 0.79370 0.64810 -0.28000
N 	N 	0.91740 0.95000 0.45450 -0.27200
N 	N 	0.15320 0.87130 0.58340 -0.13100
N 	N 	0.00580 0.88080 0.55510 -0.13500
N 	N 	0.15110 0.91700 0.53750 -0.14300
N 	N 	0.90640 0.89180 0.39300 -0.26500
N 	N 	0.91590 0.53960 0.39460 -0.26600
N 	N 	0.10680 0.73100 0.21790 -0.28200
N 	N 	0.94190 0.71450 0.36540 -0.14000
N 	N 	0.98400 0.67410 0.31960 -0.14200
N 	N 	0.98010 0.75850 0.32100 -0.14300
N 	N 	0.51500 0.55560 0.07660 -0.27100
N 	N 	0.10640 0.70630 0.14810 -0.28100
N 	N 	0.08260 0.55000 0.95450 -0.27100
N 	N 	0.84680 0.62870 0.08340 -0.13100
N 	N 	0.99420 0.61920 0.05510 -0.13500
N 	N 	0.84890 0.58300 0.03750 -0.14300
N 	N 	0.09360 0.60820 0.89300 -0.26500
N 	N 	0.08410 0.96040 0.89460 -0.26600
N 	N 	0.89320 0.76900 0.71790 -0.28200
N 	N 	0.05810 0.78550 0.86540 -0.14000
N 	N 	0.01600 0.82590 0.81960 -0.14200
N 	N 	0.01990 0.74150 0.82100 -0.14300
Zn	Zn	0.64096 0.95604 0.91169 1.16400
Zn	Zn	0.61840 0.47485 0.91432 1.16500
Zn	Zn	0.68642 0.76026 0.17974 1.16700
Zn	Zn	0.35904 0.54396 0.41169 1.16400
Zn	Zn	0.38160 0.02515 0.41432 1.16500
Zn	Zn	0.31358 0.73974 0.67974 1.16700
Zn	Zn	0.14096 0.04396 0.58831 1.16400
Zn	Zn	0.11840 0.52515 0.58568 1.16500
Zn	Zn	0.18642 0.23974 0.32026 1.16700
Zn	Zn	0.85904 0.45604 0.08831 1.16400
Zn	Zn	0.88160 0.97485 0.08568 1.16500
Zn	Zn	0.81358 0.26026 0.82026 1.16700
H 	H 	0.01730 0.96290 0.03350 -0.00500
H 	H 	0.17780 0.93430 0.02450 0.09000
H 	H 	0.03870 0.91910 0.11830 -0.00600
H 	H 	0.19370 0.89280 0.11140 0.09800
H 	H 	0.47140 0.78170 0.16420 -0.01100
H 	H 	0.38610 0.82090 0.12780 0.08700
H 	H 	0.71810 0.81190 0.12370 -0.01400
H 	H 	0.63320 0.85190 0.08390 0.07900
H 	H 	0.69980 0.92680 0.97410 -0.00800
H 	H 	0.63080 0.90170 0.01890 0.07800
H 	H 	0.45490 0.97780 0.94220 -0.01000
H 	H 	0.37190 0.95160 0.98610 0.08700
H 	H 	0.55760 0.91740 0.85230 -0.00500
H 	H 	0.52510 0.84520 0.83100 0.07500
H 	H 	0.62250 0.85140 0.92990 -0.00800
H 	H 	0.59200 0.77730 0.90900 0.07000
H 	H 	0.60290 0.58250 0.93060 -0.00300
H 	H 	0.57540 0.65550 0.90690 0.07600
H 	H 	0.55920 0.51190 0.85350 -0.00500
H 	H 	0.52620 0.58250 0.82920 0.07700
H 	H 	0.37360 0.66180 0.71970 -0.01600
H 	H 	0.43580 0.65020 0.76960 0.08300
H 	H 	0.43670 0.79860 0.72260 0.00100
H 	H 	0.49360 0.79160 0.77230 0.08600
H 	H 	0.98270 0.53710 0.53350 -0.00600
H 	H 	0.82220 0.56570 0.52450 0.09000
H 	H 	0.96130 0.58090 0.61830 -0.00600
H 	H 	0.80630 0.60720 0.61140 0.09800
H 	H 	0.52860 0.71830 0.66420 -0.01100
H 	H 	0.61390 0.67910 0.62780 0.08700
H 	H 	0.28190 0.68810 0.62370 -0.01400
H 	H 	0.36680 0.64810 0.58390 0.07900
H 	H 	0.30020 0.57320 0.47410 -0.00800
H 	H 	0.36920 0.59830 0.51890 0.07800
H 	H 	0.54510 0.52220 0.44220 -0.01000
H 	H 	0.62810 0.54840 0.48610 0.08700
H 	H 	0.44240 0.58260 0.35230 -0.00500
H 	H 	0.47490 0.65480 0.33100 0.07500
H 	H 	0.37750 0.64860 0.42990 -0.00800
H 	H 	0.40800 0.72270 0.40900 0.07000
H 	H 	0.39710 0.91750 0.43060 -0.00300
H 	H 	0.42460 0.84450 0.40690 0.07700
H 	H 	0.44080 0.98810 0.35350 -0.00500
H 	H 	0.47380 0.91750 0.32920 0.07700
H 	H 	0.62640 0.83820 0.21970 -0.01600
H 	H 	0.56420 0.84980 0.26960 0.08300
H 	H 	0.56330 0.70140 0.22260 0.00100
H 	H 	0.50640 0.70840 0.27230 0.08600
H 	H 	0.51730 0.03710 0.46650 -0.00500
H 	H 	0.67780 0.06570 0.47550 0.09000
H 	H 	0.53870 0.08090 0.38170 -0.00600
H 	H 	0.69370 0.10720 0.38860 0.09800
H 	H 	0.97140 0.21830 0.33580 -0.01000
H 	H 	0.88610 0.17910 0.37220 0.08700
H 	H 	0.21810 0.18810 0.37630 -0.01400
H 	H 	0.13320 0.14810 0.41610 0.07900
H 	H 	0.19980 0.07320 0.52590 -0.00800
H 	H 	0.13080 0.09830 0.48110 0.07800
H 	H 	0.95490 0.02220 0.55780 -0.01000
H 	H 	0.87190 0.04840 0.51390 0.08700
H 	H 	0.05760 0.08260 0.64770 -0.00500
H 	H 	0.02510 0.15480 0.66900 0.07400
H 	H 	0.12250 0.14860 0.57010 -0.00800
H 	H 	0.09200 0.22270 0.59100 0.07000
H 	H 	0.10290 0.41750 0.56940 -0.00300
H 	H 	0.07540 0.34450 0.59310 0.07600
H 	H 	0.05920 0.48810 0.64650 -0.00500
H 	H 	0.02620 0.41750 0.67080 0.07700
H 	H 	0.87360 0.33820 0.78030 -0.01600
H 	H 	0.93580 0.34980 0.73040 0.08300
H 	H 	0.93670 0.20140 0.77740 0.00100
H 	H 	0.99360 0.20840 0.72770 0.08600
H 	H 	0.48270 0.46290 0.96650 -0.00600
H 	H 	0.32220 0.43430 0.97550 0.09000
H 	H 	0.46130 0.41910 0.88170 -0.00600
H 	H 	0.30630 0.39280 0.88860 0.09800
H 	H 	0.02860 0.28170 0.83580 -0.01200
H 	H 	0.11390 0.32090 0.87220 0.08800
H 	H 	0.78190 0.31190 0.87630 -0.01400
H 	H 	0.86680 0.35190 0.91610 0.07900
H 	H 	0.80020 0.42680 0.02590 -0.00800
H 	H 	0.86920 0.40170 0.98110 0.07800
H 	H 	0.04510 0.47780 0.05780 -0.01000
H 	H 	0.12810 0.45160 0.01390 0.08700
H 	H 	0.94240 0.41740 0.14770 -0.00500
H 	H 	0.97490 0.34520 0.16900 0.07500
H 	H 	0.87750 0.35140 0.07010 -0.00800
H 	H 	0.90800 0.27730 0.09100 0.07000
H 	H 	0.89710 0.08250 0.06940 -0.00300
H 	H 	0.92460 0.15550 0.09310 0.07700
H 	H 	0.94080 0.01190 0.14650 -0.00500
H 	H 	0.97380 0.08250 0.17080 0.07700
H 	H 	0.12640 0.16180 0.28030 -0.01600
H 	H 	0.06420 0.15020 0.23040 0.08300
H 	H 	0.06330 0.29860 0.27740 0.00100
H 	H 	0.00640 0.29160 0.22770 0.08500
C 	C 	0.05340 0.94860 0.04950 0.07000
C 	C 	0.15000 0.93150 0.04410 -0.12300
C 	C 	0.06780 0.92290 0.09900 0.07300
C 	C 	0.15920 0.90690 0.09500 -0.13300
C 	C 	0.20170 0.91110 0.06700 0.05700
C 	C 	0.30550 0.89820 0.06220 0.08600
C 	C 	0.50580 0.79670 0.14810 0.07500
C 	C 	0.45470 0.81970 0.12640 -0.13600
C 	C 	0.64960 0.81380 0.12470 0.07200
C 	C 	0.60010 0.83810 0.10070 -0.11100
C 	C 	0.49660 0.84020 0.10370 0.07300
C 	C 	0.44350 0.86350 0.07910 0.09200
C 	C 	0.63200 0.93080 0.97670 0.07600
C 	C 	0.59230 0.91600 0.00350 -0.11300
C 	C 	0.48830 0.96060 0.95760 0.05500
C 	C 	0.43950 0.94590 0.98410 -0.10700
C 	C 	0.49040 0.92310 0.00750 0.04400
C 	C 	0.44210 0.90540 0.03460 0.09800
C 	C 	0.56530 0.88870 0.86390 0.05500
C 	C 	0.54780 0.84530 0.85120 -0.10000
C 	C 	0.60340 0.84960 0.90930 0.04700
C 	C 	0.58640 0.80540 0.89670 -0.09300
C 	C 	0.56010 0.79990 0.86540 0.03000
C 	C 	0.54790 0.75580 0.85000 0.10900
C 	C 	0.58880 0.58270 0.90960 0.06100
C 	C 	0.57400 0.62650 0.89540 -0.10200
C 	C 	0.56260 0.54140 0.86450 0.06000
C 	C 	0.54570 0.58340 0.84970 -0.10300
C 	C 	0.55690 0.62890 0.86450 0.04300
C 	C 	0.54450 0.67440 0.84890 0.10400
C 	C 	0.39700 0.68910 0.73060 0.08000
C 	C 	0.43480 0.68140 0.76050 -0.12500
C 	C 	0.43280 0.76800 0.73250 0.07000
C 	C 	0.46920 0.76380 0.76210 -0.12600
C 	C 	0.46950 0.72180 0.77550 0.06300
C 	C 	0.50640 0.71610 0.80740 0.10800
C 	C 	0.94660 0.55140 0.54950 0.07000
C 	C 	0.85000 0.56850 0.54410 -0.12300
C 	C 	0.93220 0.57710 0.59900 0.07300
C 	C 	0.84080 0.59310 0.59500 -0.13400
C 	C 	0.79830 0.58890 0.56700 0.05700
C 	C 	0.69450 0.60180 0.56220 0.08600
C 	C 	0.49420 0.70330 0.64810 0.07500
C 	C 	0.54530 0.68030 0.62640 -0.13600
C 	C 	0.35040 0.68620 0.62470 0.07200
C 	C 	0.39990 0.66190 0.60070 -0.11100
C 	C 	0.50340 0.65980 0.60370 0.07300
C 	C 	0.55650 0.63650 0.57910 0.09200
C 	C 	0.36800 0.56920 0.47670 0.07600
C 	C 	0.40770 0.58400 0.50350 -0.11300
C 	C 	0.51170 0.53940 0.45760 0.05500
C 	C 	0.56050 0.55410 0.48410 -0.10700
C 	C 	0.50960 0.57690 0.50750 0.04400
C 	C 	0.55790 0.59460 0.53460 0.09800
C 	C 	0.43470 0.61130 0.36390 0.05500
C 	C 	0.45220 0.65470 0.35120 -0.10000
C 	C 	0.39660 0.65040 0.40930 0.04700
C 	C 	0.41360 0.69460 0.39670 -0.09300
C 	C 	0.43990 0.70010 0.36540 0.03000
C 	C 	0.45210 0.74420 0.35000 0.10900
C 	C 	0.41120 0.91730 0.40960 0.06100
C 	C 	0.42600 0.87350 0.39540 -0.10200
C 	C 	0.43740 0.95860 0.36450 0.06000
C 	C 	0.45430 0.91660 0.34970 -0.10300
C 	C 	0.44310 0.87110 0.36450 0.04300
C 	C 	0.45550 0.82560 0.34890 0.10400
C 	C 	0.60300 0.81090 0.23060 0.08000
C 	C 	0.56520 0.81860 0.26050 -0.12500
C 	C 	0.56720 0.73200 0.23250 0.07000
C 	C 	0.53080 0.73620 0.26210 -0.12600
C 	C 	0.53050 0.77820 0.27550 0.06300
C 	C 	0.49360 0.78390 0.30740 0.10800
C 	C 	0.55340 0.05140 0.45050 0.07000
C 	C 	0.65000 0.06850 0.45590 -0.12300
C 	C 	0.56780 0.07710 0.40100 0.07300
C 	C 	0.65920 0.09310 0.40500 -0.13300
C 	C 	0.70170 0.08890 0.43300 0.05700
C 	C 	0.80550 0.10180 0.43780 0.08600
C 	C 	0.00580 0.20330 0.35190 0.07300
C 	C 	0.95470 0.18030 0.37360 -0.13500
C 	C 	0.14960 0.18620 0.37530 0.07200
C 	C 	0.10010 0.16190 0.39930 -0.11200
C 	C 	0.99660 0.15980 0.39630 0.07300
C 	C 	0.94350 0.13650 0.42090 0.09200
C 	C 	0.13200 0.06920 0.52330 0.07600
C 	C 	0.09230 0.08400 0.49650 -0.11500
C 	C 	0.98830 0.03940 0.54240 0.05600
C 	C 	0.93950 0.05410 0.51590 -0.10800
C 	C 	0.99040 0.07690 0.49250 0.04500
C 	C 	0.94210 0.09460 0.46540 0.09800
C 	C 	0.06530 0.11130 0.63610 0.05500
C 	C 	0.04780 0.15470 0.64880 -0.10000
C 	C 	0.10340 0.15040 0.59070 0.04700
C 	C 	0.08640 0.19460 0.60330 -0.09300
C 	C 	0.06010 0.20010 0.63460 0.03000
C 	C 	0.04790 0.24420 0.65000 0.10900
C 	C 	0.08880 0.41730 0.59040 0.06100
C 	C 	0.07400 0.37350 0.60460 -0.10200
C 	C 	0.06260 0.45860 0.63550 0.06000
C 	C 	0.04570 0.41660 0.65030 -0.10300
C 	C 	0.05690 0.37110 0.63550 0.04300
C 	C 	0.04450 0.32560 0.65110 0.10400
C 	C 	0.89700 0.31090 0.76940 0.08000
C 	C 	0.93480 0.31860 0.73950 -0.12500
C 	C 	0.93280 0.23200 0.76750 0.07000
C 	C 	0.96920 0.23620 0.73790 -0.12600
C 	C 	0.96950 0.27820 0.72450 0.06300
C 	C 	0.00640 0.28390 0.69260 0.10800
C 	C 	0.44660 0.44860 0.95050 0.07000
C 	C 	0.35000 0.43150 0.95590 -0.12300
C 	C 	0.43220 0.42290 0.90100 0.07300
C 	C 	0.34080 0.40690 0.90500 -0.13400
C 	C 	0.29830 0.41110 0.93300 0.05700
C 	C 	0.19450 0.39820 0.93780 0.08600
C 	C 	0.99420 0.29670 0.85190 0.07600
C 	C 	0.04530 0.31970 0.87360 -0.13700
C 	C 	0.85040 0.31380 0.87530 0.07200
C 	C 	0.89990 0.33810 0.89930 -0.11100
C 	C 	0.00340 0.34020 0.89630 0.07300
C 	C 	0.05650 0.36350 0.92090 0.09200
C 	C 	0.86800 0.43080 0.02330 0.07500
C 	C 	0.90770 0.41600 0.99650 -0.11300
C 	C 	0.01170 0.46060 0.04240 0.05500
C 	C 	0.06050 0.44590 0.01590 -0.10700
C 	C 	0.00960 0.42310 0.99250 0.04300
C 	C 	0.05790 0.40540 0.96540 0.09800
C 	C 	0.93470 0.38870 0.13610 0.05500
C 	C 	0.95220 0.34530 0.14880 -0.10000
C 	C 	0.89660 0.34960 0.09070 0.04700
C 	C 	0.91360 0.30540 0.10330 -0.09300
C 	C 	0.93990 0.29990 0.13460 0.03000
C 	C 	0.95210 0.25580 0.15000 0.10900
C 	C 	0.91120 0.08270 0.09040 0.06100
C 	C 	0.92600 0.12650 0.10460 -0.10200
C 	C 	0.93740 0.04140 0.13550 0.06100
C 	C 	0.95430 0.08340 0.15030 -0.10300
C 	C 	0.94310 0.12890 0.13550 0.04300
C 	C 	0.95550 0.17440 0.15110 0.10400
C 	C 	0.10300 0.18910 0.26940 0.07900
C 	C 	0.06520 0.18140 0.23950 -0.12500
C 	C 	0.06720 0.26800 0.26750 0.06900
C 	C 	0.03080 0.26380 0.23790 -0.12600
C 	C 	0.03050 0.22180 0.22450 0.06200
C 	C 	0.99360 0.21610 0.19260 0.10800
I 	I 	0.55377 0.02151 0.88219 -0.36100
I 	I 	0.82331 0.94718 0.91534 -0.38500
I 	I 	0.69447 0.49314 0.96585 -0.39100
I 	I 	0.70458 0.42643 0.87413 -0.37000
I 	I 	0.69434 0.66960 0.16866 -0.37200
I 	I 	0.84339 0.80687 0.18713 -0.37000
I 	I 	0.44623 0.47849 0.38219 -0.36100
I 	I 	0.17669 0.55282 0.41534 -0.38400
I 	I 	0.30553 0.00686 0.46585 -0.39100
I 	I 	0.29542 0.07357 0.37413 -0.37100
I 	I 	0.30566 0.83040 0.66866 -0.37200
I 	I 	0.15661 0.69313 0.68713 -0.36900
I 	I 	0.05377 0.97849 0.61781 -0.36000
I 	I 	0.32331 0.05282 0.58466 -0.38400
I 	I 	0.19447 0.50686 0.53415 -0.39100
I 	I 	0.20458 0.57357 0.62587 -0.37000
I 	I 	0.19434 0.33040 0.33134 -0.37200
I 	I 	0.34339 0.19313 0.31287 -0.36900
I 	I 	0.94623 0.52151 0.11781 -0.36100
I 	I 	0.67669 0.44718 0.08466 -0.38400
I 	I 	0.80553 0.99314 0.03415 -0.39200
I 	I 	0.79542 0.92643 0.12587 -0.37100
I 	I 	0.80566 0.16960 0.83134 -0.37200
I 	I 	0.65661 0.30687 0.81287 -0.36900
N 	N 	0.01500 0.94440 0.07660 -0.27000
N 	N 	0.60640 0.79370 0.14810 -0.28100
N 	N 	0.58260 0.95000 0.95450 -0.27100
N 	N 	0.34680 0.87130 0.08340 -0.13100
N 	N 	0.49420 0.88080 0.05510 -0.13500
N 	N 	0.34890 0.91700 0.03750 -0.14300
N 	N 	0.59360 0.89180 0.89300 -0.26500
N 	N 	0.58410 0.53960 0.89460 -0.26600
N 	N 	0.39320 0.73100 0.71790 -0.28200
N 	N 	0.55810 0.71450 0.86540 -0.14000
N 	N 	0.51600 0.67410 0.81960 -0.14200
N 	N 	0.51990 0.75850 0.82100 -0.14300
N 	N 	0.98500 0.55560 0.57660 -0.27100
N 	N 	0.39360 0.70630 0.64810 -0.28100
N 	N 	0.41740 0.55000 0.45450 -0.27100
N 	N 	0.65320 0.62870 0.58340 -0.13100
N 	N 	0.50580 0.61920 0.55510 -0.13500
N 	N 	0.65110 0.58300 0.53750 -0.14300
N 	N 	0.40640 0.60820 0.39300 -0.26500
N 	N 	0.41590 0.96040 0.39460 -0.26600
N 	N 	0.60680 0.76900 0.21790 -0.28200
N 	N 	0.44190 0.78550 0.36540 -0.14000
N 	N 	0.48400 0.82590 0.31960 -0.14200
N 	N 	0.48010 0.74150 0.32100 -0.14300
N 	N 	0.51500 0.05560 0.42340 -0.27100
N 	N 	0.10640 0.20630 0.35190 -0.28000
N 	N 	0.08260 0.05000 0.54550 -0.27200
N 	N 	0.84680 0.12870 0.41660 -0.13100
N 	N 	0.99420 0.11920 0.44490 -0.13500
N 	N 	0.84890 0.08300 0.46250 -0.14300
N 	N 	0.09360 0.10820 0.60700 -0.26500
N 	N 	0.08410 0.46040 0.60540 -0.26600
N 	N 	0.89320 0.26900 0.78210 -0.28200
N 	N 	0.05810 0.28550 0.63460 -0.14000
N 	N 	0.01600 0.32590 0.68040 -0.14200
N 	N 	0.01990 0.24150 0.67900 -0.14300
N 	N 	0.48500 0.44440 0.92340 -0.27100
N 	N 	0.89360 0.29370 0.85190 -0.28100
N 	N 	0.91740 0.45000 0.04550 -0.27100
N 	N 	0.15320 0.37130 0.91660 -0.13100
N 	N 	0.00580 0.38080 0.94490 -0.13500
N 	N 	0.15110 0.41700 0.96250 -0.14300
N 	N 	0.90640 0.39180 0.10700 -0.26500
N 	N 	0.91590 0.03960 0.10540 -0.26600
N 	N 	0.10680 0.23100 0.28210 -0.28200
N 	N 	0.94190 0.21450 0.13460 -0.14000
N 	N 	0.98400 0.17410 0.18040 -0.14200
N 	N 	0.98010 0.25850 0.17900 -0.14300
