data_crystal

_cell_length_a 10.80380
_cell_length_b 17.53870
_cell_length_c 17.72830
_cell_angle_alpha 104.79300
_cell_angle_beta  90.00000
_cell_angle_gamma 90.00000

_symmetry_space_group_name_	'P 1'
_symmetry_space_group_name_H-M	'P 1'

loop_
_symmetry_equiv_pos_as_xyz
  x,y,z

loop_
_atom_site_label
_atom_site_type_symbol
_atom_site_fract_x
_atom_site_fract_y
_atom_site_fract_z
_atom_site_charge
Gd	Gd	0.61505 0.58311 0.98698 1.63000
Gd	Gd	0.57362 0.88833 0.01272 1.68500
Gd	Gd	0.11505 0.91689 0.51302 1.61600
Gd	Gd	0.07362 0.61167 0.48728 1.68200
Gd	Gd	0.38495 0.41689 0.01302 1.63100
Gd	Gd	0.42638 0.11167 0.98728 1.68600
Gd	Gd	0.88495 0.08311 0.48698 1.61600
Gd	Gd	0.92638 0.38833 0.51272 1.68200
H 	H 	0.73800 0.79370 0.77960 0.03400
H 	H 	0.85240 0.72540 0.66130 0.04500
H 	H 	0.67210 0.17610 0.68270 0.04500
H 	H 	0.57870 0.23410 0.81190 0.05600
H 	H 	0.37630 0.58760 0.67450 0.03400
H 	H 	0.45810 0.58150 0.80210 0.04600
H 	H 	0.44800 0.75000 0.97500 0.17600
H 	H 	0.23800 0.70630 0.72040 0.03300
H 	H 	0.35240 0.77460 0.83870 0.04500
H 	H 	0.17210 0.32390 0.81730 0.04500
H 	H 	0.07870 0.26590 0.68810 0.05700
H 	H 	0.87630 0.91240 0.82550 0.03400
H 	H 	0.95810 0.91850 0.69790 0.05000
H 	H 	0.94800 0.75000 0.52500 0.17600
H 	H 	0.26200 0.20630 0.22040 0.03400
H 	H 	0.14760 0.27460 0.33870 0.04500
H 	H 	0.32790 0.82390 0.31730 0.04500
H 	H 	0.42130 0.76590 0.18810 0.05600
H 	H 	0.62370 0.41240 0.32550 0.03400
H 	H 	0.54190 0.41850 0.19790 0.04600
H 	H 	0.55200 0.25000 0.02500 0.17600
H 	H 	0.76200 0.29370 0.27960 0.03300
H 	H 	0.64760 0.22540 0.16130 0.04500
H 	H 	0.82790 0.67610 0.18270 0.04500
H 	H 	0.92130 0.73410 0.31190 0.05700
H 	H 	0.12370 0.08760 0.17450 0.03400
H 	H 	0.04190 0.08150 0.30210 0.05000
H 	H 	0.05200 0.25000 0.47500 0.17600
C 	C 	0.61950 0.71060 0.87230 0.44700
C 	C 	0.69000 0.68890 0.79830 -0.15300
C 	C 	0.74330 0.73790 0.76160 0.01700
C 	C 	0.80840 0.69900 0.69360 -0.00500
C 	C 	0.80050 0.61950 0.67980 -0.12200
C 	C 	0.85440 0.55810 0.61450 0.43600
C 	C 	0.83760 0.26550 0.61660 0.43700
C 	C 	0.76690 0.27880 0.69180 -0.13000
C 	C 	0.68900 0.22800 0.71340 0.00300
C 	C 	0.63560 0.26130 0.78730 0.00200
C 	C 	0.67420 0.33650 0.81940 -0.12600
C 	C 	0.63550 0.39050 0.89380 0.43200
C 	C 	0.16160 0.50210 0.61190 0.44300
C 	C 	0.23560 0.51400 0.68520 -0.12700
C 	C 	0.33910 0.55760 0.70600 0.00900
C 	C 	0.38630 0.55400 0.77880 -0.01100
C 	C 	0.31760 0.50700 0.81170 -0.11300
C 	C 	0.33470 0.48940 0.88800 0.37200
C 	C 	0.11950 0.78940 0.62770 0.44600
C 	C 	0.19000 0.81110 0.70170 -0.15300
C 	C 	0.24330 0.76210 0.73840 0.01700
C 	C 	0.30840 0.80100 0.80640 -0.00600
C 	C 	0.30050 0.88050 0.82020 -0.12100
C 	C 	0.35440 0.94190 0.88550 0.43400
C 	C 	0.33760 0.23450 0.88340 0.43900
C 	C 	0.26690 0.22120 0.80820 -0.13000
C 	C 	0.18900 0.27200 0.78660 0.00400
C 	C 	0.13560 0.23870 0.71270 0.00100
C 	C 	0.17420 0.16350 0.68060 -0.12500
C 	C 	0.13550 0.10950 0.60620 0.43000
C 	C 	0.66160 0.99790 0.88810 0.44500
C 	C 	0.73560 0.98600 0.81480 -0.12500
C 	C 	0.83910 0.94240 0.79400 0.01200
C 	C 	0.88630 0.94600 0.72120 -0.01700
C 	C 	0.81760 0.99300 0.68830 -0.10000
C 	C 	0.83470 0.01060 0.61200 0.35700
C 	C 	0.38050 0.28940 0.12770 0.44700
C 	C 	0.31000 0.31110 0.20170 -0.15300
C 	C 	0.25670 0.26210 0.23840 0.01700
C 	C 	0.19160 0.30100 0.30640 -0.00500
C 	C 	0.19950 0.38050 0.32020 -0.12200
C 	C 	0.14560 0.44190 0.38550 0.43600
C 	C 	0.16240 0.73450 0.38340 0.43700
C 	C 	0.23310 0.72120 0.30820 -0.13000
C 	C 	0.31100 0.77200 0.28660 0.00300
C 	C 	0.36440 0.73870 0.21270 0.00200
C 	C 	0.32580 0.66350 0.18060 -0.12600
C 	C 	0.36450 0.60950 0.10620 0.43200
C 	C 	0.83840 0.49790 0.38810 0.44300
C 	C 	0.76440 0.48600 0.31480 -0.12700
C 	C 	0.66090 0.44240 0.29400 0.00900
C 	C 	0.61370 0.44600 0.22120 -0.01100
C 	C 	0.68240 0.49300 0.18830 -0.11300
C 	C 	0.66530 0.51060 0.11200 0.37200
C 	C 	0.88050 0.21060 0.37230 0.44600
C 	C 	0.81000 0.18890 0.29830 -0.15300
C 	C 	0.75670 0.23790 0.26160 0.01700
C 	C 	0.69160 0.19900 0.19360 -0.00600
C 	C 	0.69950 0.11950 0.17980 -0.12100
C 	C 	0.64560 0.05810 0.11450 0.43400
C 	C 	0.66240 0.76550 0.11660 0.43900
C 	C 	0.73310 0.77880 0.19180 -0.13000
C 	C 	0.81100 0.72800 0.21340 0.00400
C 	C 	0.86440 0.76130 0.28730 0.00100
C 	C 	0.82580 0.83650 0.31940 -0.12500
C 	C 	0.86450 0.89050 0.39380 0.43000
C 	C 	0.33840 0.00210 0.11190 0.44500
C 	C 	0.26440 0.01400 0.18520 -0.12500
C 	C 	0.16090 0.05760 0.20600 0.01200
C 	C 	0.11370 0.05400 0.27880 -0.01700
C 	C 	0.18240 0.00700 0.31170 -0.10000
C 	C 	0.16530 0.98940 0.38800 0.35700
S 	S 	0.71534 0.59162 0.75011 0.06000
S 	S 	0.77759 0.36803 0.75988 0.07800
S 	S 	0.19350 0.46644 0.75420 0.08400
S 	S 	0.21534 0.90838 0.74989 0.05700
S 	S 	0.27759 0.13197 0.74012 0.08000
S 	S 	0.69350 0.03356 0.74580 0.07500
S 	S 	0.28466 0.40838 0.24989 0.06000
S 	S 	0.22241 0.63197 0.24012 0.07800
S 	S 	0.80650 0.53356 0.24580 0.08400
S 	S 	0.78466 0.09162 0.25011 0.05700
S 	S 	0.72241 0.86803 0.25988 0.08000
S 	S 	0.30650 0.96644 0.25420 0.07500
O 	O 	0.57370 0.65620 0.89870 -0.48500
O 	O 	0.60800 0.78230 0.90300 -0.47300
O 	O 	0.82280 0.48790 0.60860 -0.43800
O 	O 	0.92780 0.57960 0.56880 -0.47200
O 	O 	0.90920 0.32010 0.60980 -0.44600
O 	O 	0.81800 0.20260 0.56660 -0.47400
O 	O 	0.67770 0.45870 0.91170 -0.46300
O 	O 	0.55560 0.36350 0.93410 -0.42200
O 	O 	0.08290 0.44790 0.59970 -0.43200
O 	O 	0.18610 0.54740 0.56930 -0.44600
O 	O 	0.25630 0.45020 0.91290 -0.40500
O 	O 	0.43700 0.51090 0.92620 -0.48500
O 	O 	0.39500 0.78330 0.00410 -0.33900
O 	O 	0.07370 0.84380 0.60130 -0.48600
O 	O 	0.10800 0.71770 0.59700 -0.47400
O 	O 	0.32280 0.01210 0.89140 -0.43700
O 	O 	0.42780 0.92040 0.93120 -0.47200
O 	O 	0.40920 0.17990 0.89020 -0.44600
O 	O 	0.31800 0.29740 0.93340 -0.47500
O 	O 	0.17770 0.04130 0.58830 -0.46000
O 	O 	0.05560 0.13650 0.56590 -0.41900
O 	O 	0.58290 0.05210 0.90030 -0.43500
O 	O 	0.68610 0.95260 0.93070 -0.44500
O 	O 	0.75630 0.04980 0.58710 -0.40200
O 	O 	0.93700 0.98910 0.57380 -0.47500
O 	O 	0.89500 0.71670 0.49590 -0.33700
O 	O 	0.42630 0.34380 0.10130 -0.48500
O 	O 	0.39200 0.21770 0.09700 -0.47300
O 	O 	0.17720 0.51210 0.39140 -0.43800
O 	O 	0.07220 0.42040 0.43120 -0.47200
O 	O 	0.09080 0.67990 0.39020 -0.44600
O 	O 	0.18200 0.79740 0.43340 -0.47400
O 	O 	0.32230 0.54130 0.08830 -0.46300
O 	O 	0.44440 0.63650 0.06590 -0.42200
O 	O 	0.91710 0.55210 0.40030 -0.43200
O 	O 	0.81390 0.45260 0.43070 -0.44600
O 	O 	0.74370 0.54980 0.08710 -0.40500
O 	O 	0.56300 0.48910 0.07380 -0.48500
O 	O 	0.60500 0.21670 0.99590 -0.33900
O 	O 	0.92630 0.15620 0.39870 -0.48600
O 	O 	0.89200 0.28230 0.40300 -0.47400
O 	O 	0.67720 0.98790 0.10860 -0.43700
O 	O 	0.57220 0.07960 0.06880 -0.47200
O 	O 	0.59080 0.82010 0.10980 -0.44600
O 	O 	0.68200 0.70260 0.06660 -0.47500
O 	O 	0.82230 0.95870 0.41170 -0.46000
O 	O 	0.94440 0.86350 0.43410 -0.41900
O 	O 	0.41710 0.94790 0.09970 -0.43500
O 	O 	0.31390 0.04740 0.06930 -0.44500
O 	O 	0.24370 0.95020 0.41290 -0.40200
O 	O 	0.06300 0.01090 0.42620 -0.47500
O 	O 	0.10500 0.28330 0.50410 -0.33700
