data_crystal

_cell_length_a 11.52100
_cell_length_b 14.00800
_cell_length_c 15.70100
_cell_angle_alpha 96.67900
_cell_angle_beta  90.00000
_cell_angle_gamma 90.00000

_symmetry_space_group_name_	'P 1'
_symmetry_space_group_name_H-M	'P 1'

loop_
_symmetry_equiv_pos_as_xyz
  x,y,z

loop_
_atom_site_label
_atom_site_type_symbol
_atom_site_fract_x
_atom_site_fract_y
_atom_site_fract_z
_atom_site_charge
Zn	Zn	0.09520 0.19570 0.98308 1.20100
Zn	Zn	0.09560 0.40460 0.00210 1.19700
H 	H 	0.40690 0.17990 0.15160 0.04100
H 	H 	0.52020 0.17460 0.27470 0.06300
H 	H 	0.38900 0.43190 0.37470 0.05600
H 	H 	0.27580 0.43720 0.25160 0.03300
H 	H 	0.79640 0.29660 0.49560 0.05100
H 	H 	0.39910 0.27760 0.48340 0.05500
H 	H 	0.81050 0.41250 0.63670 0.07700
H 	H 	0.92650 0.41210 0.76600 0.02900
H 	H 	0.76450 0.16770 0.80720 0.00900
H 	H 	0.66000 0.16570 0.68540 0.08900
H 	H 	0.80160 0.16420 0.32800 0.13800
H 	H 	0.89860 0.17020 0.21030 -0.02400
H 	H 	0.77170 0.42850 0.18640 0.00100
H 	H 	0.65950 0.41560 0.31070 0.11100
H 	H 	0.36840 0.16780 0.60970 0.07000
H 	H 	0.28720 0.15470 0.73600 0.01900
H 	H 	0.40440 0.41970 0.82730 0.03000
H 	H 	0.53370 0.40280 0.71720 0.07700
H 	H 	0.27210 0.56780 0.99120 0.02800
H 	H 	0.26780 0.71680 0.02850 0.03000
H 	H 	0.91740 0.73880 0.99860 0.04000
H 	H 	0.93280 0.56490 0.02100 0.10100
H 	H 	0.26500 0.85220 0.97240 0.07400
H 	H 	0.25100 0.03520 0.92860 0.01600
H 	H 	0.95200 0.03880 0.03750 0.04800
H 	H 	0.94100 0.87860 0.07380 0.15300
C 	C 	0.24000 0.31300 0.11400 0.33700
C 	C 	0.33070 0.30900 0.19000 -0.07100
C 	C 	0.40330 0.23100 0.19690 0.01200
C 	C 	0.47060 0.22790 0.27000 -0.08900
C 	C 	0.46520 0.30270 0.33630 0.03300
C 	C 	0.39270 0.38070 0.32940 -0.09100
C 	C 	0.32540 0.38390 0.25630 0.00700
C 	C 	0.53200 0.28100 0.41500 0.02500
C 	C 	0.64900 0.30200 0.41100 -0.06200
C 	C 	0.71400 0.29200 0.49300 -0.04100
C 	C 	0.65000 0.27500 0.56600 -0.02100
C 	C 	0.52500 0.29500 0.56900 -0.00600
C 	C 	0.48100 0.28400 0.48700 -0.08100
C 	C 	0.72700 0.28800 0.65000 0.09000
C 	C 	0.80400 0.36200 0.67200 -0.13500
C 	C 	0.87400 0.36100 0.74800 0.07800
C 	C 	0.86200 0.28600 0.78900 -0.15200
C 	C 	0.77700 0.21600 0.77000 0.09700
C 	C 	0.71400 0.21600 0.70100 -0.15700
C 	C 	0.73200 0.29300 0.33300 0.19700
C 	C 	0.79900 0.22100 0.30100 -0.30400
C 	C 	0.86000 0.22700 0.23500 0.23000
C 	C 	0.87400 0.30400 0.19700 -0.21500
C 	C 	0.78300 0.37700 0.22000 0.12400
C 	C 	0.71600 0.36800 0.29200 -0.22100
C 	C 	0.46400 0.27600 0.64700 0.06900
C 	C 	0.38600 0.21500 0.65700 -0.13500
C 	C 	0.32800 0.21200 0.72900 0.04300
C 	C 	0.31900 0.29700 0.80600 -0.13400
C 	C 	0.39900 0.36300 0.78800 0.06000
C 	C 	0.47400 0.35600 0.71900 -0.11700
C 	C 	0.20100 0.60100 0.00190 0.00300
C 	C 	0.19700 0.68500 0.01200 -0.02400
C 	C 	0.10100 0.74500 0.00230 -0.08800
C 	C 	0.98900 0.70500 0.00270 0.08500
C 	C 	0.00200 0.59900 0.01100 -0.11800
C 	C 	0.08500 0.85200 0.00100 0.12200
C 	C 	0.19600 0.88900 0.97700 -0.11900
C 	C 	0.19000 0.00600 0.95700 0.02600
C 	C 	0.01800 0.00100 0.02000 0.03000
C 	C 	0.00100 0.90200 0.04000 -0.24200
C 	C 	0.24600 0.29600 0.86900 0.29700
C 	C 	0.93700 0.30600 0.11600 0.39400
C 	C 	0.94600 0.28300 0.87500 0.54900
N 	N 	0.09700 0.54990 0.00620 -0.21300
N 	N 	0.09400 0.05530 0.98570 -0.25800
O 	O 	0.22900 0.38500 0.08620 -0.45700
O 	O 	0.22910 0.22320 0.06740 -0.41700
O 	O 	0.23200 0.37600 0.91970 -0.42200
O 	O 	0.23380 0.20900 0.90360 -0.40200
O 	O 	0.99120 0.23470 0.08540 -0.46300
O 	O 	0.98600 0.39000 0.10120 -0.41600
O 	O 	0.98330 0.36400 0.90470 -0.50700
O 	O 	0.98340 0.21600 0.88770 -0.56400
Zn	Zn	0.59520 0.80430 0.01692 1.21700
Zn	Zn	0.59560 0.59540 0.99790 1.21300
H 	H 	0.90690 0.82010 0.84840 0.06200
H 	H 	0.02020 0.82540 0.72530 0.01700
H 	H 	0.88900 0.56810 0.62530 0.08600
H 	H 	0.77580 0.56280 0.74840 0.02900
H 	H 	0.29640 0.70340 0.50440 0.07300
H 	H 	0.89910 0.72240 0.51660 -0.04100
H 	H 	0.31050 0.58750 0.36330 0.06500
H 	H 	0.42650 0.58790 0.23400 0.02400
H 	H 	0.26450 0.83230 0.19280 0.00900
H 	H 	0.16000 0.83430 0.31460 0.06600
H 	H 	0.30160 0.83580 0.67200 0.10300
H 	H 	0.39860 0.82980 0.78970 -0.01000
H 	H 	0.27170 0.57150 0.81360 0.01100
H 	H 	0.15950 0.58440 0.68930 0.07500
H 	H 	0.86840 0.83220 0.39030 0.11800
H 	H 	0.78720 0.84530 0.26400 0.00600
H 	H 	0.90440 0.58030 0.17270 0.04100
H 	H 	0.03370 0.59720 0.28280 0.03200
H 	H 	0.77210 0.43220 0.00880 -0.01100
H 	H 	0.76780 0.28320 0.97150 0.07700
H 	H 	0.41740 0.26120 0.00140 0.10000
H 	H 	0.43280 0.43510 0.97900 0.00900
H 	H 	0.76500 0.14780 0.02760 0.06300
H 	H 	0.75100 0.96480 0.07140 0.02200
H 	H 	0.45200 0.96120 0.96250 -0.00400
H 	H 	0.44100 0.12140 0.92620 0.09200
C 	C 	0.74000 0.68700 0.88600 0.34700
C 	C 	0.83070 0.69100 0.81000 -0.06900
C 	C 	0.90330 0.76900 0.80310 0.00000
C 	C 	0.97060 0.77210 0.73000 -0.03600
C 	C 	0.96520 0.69730 0.66370 0.14500
C 	C 	0.89270 0.61930 0.67060 -0.14400
C 	C 	0.82540 0.61610 0.74370 0.03900
C 	C 	0.03200 0.71900 0.58500 -0.23800
C 	C 	0.14900 0.69800 0.58900 0.04900
C 	C 	0.21400 0.70800 0.50700 -0.12700
C 	C 	0.15000 0.72500 0.43400 0.06100
C 	C 	0.02500 0.70500 0.43100 -0.24600
C 	C 	0.98100 0.71600 0.51300 0.26100
C 	C 	0.22700 0.71200 0.35000 0.04600
C 	C 	0.30400 0.63800 0.32800 -0.11500
C 	C 	0.37400 0.63900 0.25200 0.06200
C 	C 	0.36200 0.71400 0.21100 -0.15100
C 	C 	0.27700 0.78400 0.23000 0.07600
C 	C 	0.21400 0.78400 0.29900 -0.13400
C 	C 	0.23200 0.70700 0.66700 0.10600
C 	C 	0.29900 0.77900 0.69900 -0.22100
C 	C 	0.36000 0.77300 0.76500 0.16100
C 	C 	0.37400 0.69600 0.80300 -0.18500
C 	C 	0.28300 0.62300 0.78000 0.07700
C 	C 	0.21600 0.63200 0.70800 -0.16300
C 	C 	0.96400 0.72400 0.35300 0.21400
C 	C 	0.88600 0.78500 0.34300 -0.24200
C 	C 	0.82800 0.78800 0.27100 0.10700
C 	C 	0.81900 0.70300 0.19400 -0.14500
C 	C 	0.89900 0.63700 0.21200 0.05700
C 	C 	0.97400 0.64400 0.28100 -0.07500
C 	C 	0.70100 0.39900 0.99810 0.11800
C 	C 	0.69700 0.31500 0.98800 -0.16700
C 	C 	0.60100 0.25500 0.99770 0.06700
C 	C 	0.48900 0.29500 0.99730 -0.11900
C 	C 	0.50200 0.40100 0.98900 0.08400
C 	C 	0.58500 0.14800 0.99900 0.05100
C 	C 	0.69600 0.11100 0.02300 -0.09100
C 	C 	0.69000 0.99400 0.04300 0.02700
C 	C 	0.51800 0.99900 0.98000 0.09400
C 	C 	0.50100 0.09800 0.96000 -0.13900
C 	C 	0.74600 0.70400 0.13100 0.31300
C 	C 	0.43700 0.69400 0.88400 0.38700
C 	C 	0.44600 0.71700 0.12500 0.56000
N 	N 	0.59700 0.45010 0.99380 -0.25700
N 	N 	0.59400 0.94470 0.01430 -0.25400
O 	O 	0.72900 0.61500 0.91380 -0.44900
O 	O 	0.72910 0.77680 0.93260 -0.40400
O 	O 	0.73200 0.62400 0.08030 -0.41700
O 	O 	0.73380 0.79100 0.09640 -0.39400
O 	O 	0.49120 0.76530 0.91460 -0.48400
O 	O 	0.48600 0.61000 0.89880 -0.43800
O 	O 	0.48330 0.63600 0.09530 -0.53400
O 	O 	0.48340 0.78400 0.11230 -0.59400
