data_crystal

_cell_length_a 17.99600
_cell_length_b 17.99600
_cell_length_c 17.99600
_cell_angle_alpha 90.00000
_cell_angle_beta  90.00000
_cell_angle_gamma 90.00000

_symmetry_space_group_name_	'P 1'
_symmetry_space_group_name_H-M	'P 1'

loop_
_symmetry_equiv_pos_as_xyz
  x,y,z

loop_
_atom_site_label
_atom_site_type_symbol
_atom_site_fract_x
_atom_site_fract_y
_atom_site_fract_z
_atom_site_charge
C 	C 	0.24919 0.55749 0.94459 -0.05200
C 	C 	0.18915 0.59228 0.90749 0.01000
C 	C 	0.28168 0.58996 0.00771 0.06800
C 	C 	0.19539 0.69272 0.99869 -0.05300
C 	C 	0.15818 0.65812 0.93860 0.00900
C 	C 	0.25845 0.66006 0.03109 0.06900
O 	O 	0.29891 0.69599 0.08687 -0.60700
O 	O 	0.33737 0.55382 0.04811 -0.60600
H 	H 	0.27186 0.50229 0.92332 0.06600
H 	H 	0.17424 0.74792 0.02147 0.06600
C 	C 	0.25081 0.44251 0.44459 -0.05300
C 	C 	0.31085 0.40772 0.40749 0.00900
C 	C 	0.21832 0.41004 0.50771 0.06900
C 	C 	0.30461 0.30728 0.49869 -0.05300
C 	C 	0.34182 0.34188 0.43860 0.00900
C 	C 	0.24155 0.33994 0.53109 0.06900
O 	O 	0.20109 0.30401 0.58687 -0.60700
O 	O 	0.16263 0.44618 0.54811 -0.60600
H 	H 	0.22814 0.49771 0.42332 0.06600
H 	H 	0.32576 0.25208 0.52147 0.06600
C 	C 	0.75081 0.05749 0.55541 -0.05300
C 	C 	0.81085 0.09228 0.59251 0.00900
C 	C 	0.71832 0.08996 0.49229 0.06900
C 	C 	0.80461 0.19272 0.50131 -0.05300
C 	C 	0.84182 0.15812 0.56140 0.00900
C 	C 	0.74155 0.16006 0.46891 0.06900
O 	O 	0.70109 0.19599 0.41313 -0.60700
O 	O 	0.66263 0.05382 0.45189 -0.60600
H 	H 	0.72814 0.00229 0.57668 0.06600
H 	H 	0.82576 0.24792 0.47853 0.06600
C 	C 	0.74919 0.94251 0.05541 -0.05300
C 	C 	0.68915 0.90772 0.09251 0.00900
C 	C 	0.78168 0.91004 0.99229 0.06800
C 	C 	0.69539 0.80728 0.00131 -0.05300
C 	C 	0.65818 0.84188 0.06140 0.00900
C 	C 	0.75845 0.83994 0.96891 0.06900
O 	O 	0.79891 0.80401 0.91313 -0.60700
O 	O 	0.83737 0.94618 0.95189 -0.60600
H 	H 	0.77186 0.99771 0.07668 0.06600
H 	H 	0.67424 0.75208 0.97853 0.06600
C 	C 	0.94459 0.24919 0.55749 -0.05300
C 	C 	0.90749 0.18915 0.59228 0.00900
C 	C 	0.00771 0.28168 0.58996 0.06800
C 	C 	0.99869 0.19539 0.69272 -0.05300
C 	C 	0.93860 0.15818 0.65812 0.00900
C 	C 	0.03109 0.25845 0.66006 0.06900
O 	O 	0.08687 0.29891 0.69599 -0.60700
O 	O 	0.04811 0.33737 0.55382 -0.60600
H 	H 	0.92332 0.27186 0.50229 0.06600
H 	H 	0.02147 0.17424 0.74792 0.06600
C 	C 	0.44459 0.25081 0.44251 -0.05300
C 	C 	0.40749 0.31085 0.40772 0.00900
C 	C 	0.50771 0.21832 0.41004 0.06900
C 	C 	0.49869 0.30461 0.30728 -0.05300
C 	C 	0.43860 0.34182 0.34188 0.00900
C 	C 	0.53109 0.24155 0.33994 0.06900
O 	O 	0.58687 0.20109 0.30401 -0.60700
O 	O 	0.54811 0.16263 0.44618 -0.60600
H 	H 	0.42332 0.22814 0.49771 0.06600
H 	H 	0.52147 0.32576 0.25208 0.06600
C 	C 	0.55541 0.75081 0.05749 -0.05300
C 	C 	0.59251 0.81085 0.09228 0.00900
C 	C 	0.49229 0.71832 0.08996 0.06900
C 	C 	0.50131 0.80461 0.19272 -0.05300
C 	C 	0.56140 0.84182 0.15812 0.00900
C 	C 	0.46891 0.74155 0.16006 0.06900
O 	O 	0.41313 0.70109 0.19599 -0.60700
O 	O 	0.45189 0.66263 0.05382 -0.60600
H 	H 	0.57668 0.72814 0.00229 0.06600
H 	H 	0.47853 0.82576 0.24792 0.06600
C 	C 	0.05541 0.74919 0.94251 -0.05300
C 	C 	0.09251 0.68915 0.90772 0.00900
C 	C 	0.99229 0.78168 0.91004 0.06800
C 	C 	0.00131 0.69539 0.80728 -0.05300
C 	C 	0.06140 0.65818 0.84188 0.00900
C 	C 	0.96891 0.75845 0.83994 0.06900
O 	O 	0.91313 0.79891 0.80401 -0.60700
O 	O 	0.95189 0.83737 0.94618 -0.60600
H 	H 	0.07668 0.77186 0.99771 0.06600
H 	H 	0.97853 0.67424 0.75208 0.06600
C 	C 	0.55749 0.94459 0.24919 -0.05300
C 	C 	0.59228 0.90749 0.18915 0.00900
C 	C 	0.58996 0.00771 0.28168 0.06800
C 	C 	0.69272 0.99869 0.19539 -0.05300
C 	C 	0.65812 0.93860 0.15818 0.00900
C 	C 	0.66006 0.03109 0.25845 0.06900
O 	O 	0.69599 0.08687 0.29891 -0.60700
O 	O 	0.55382 0.04811 0.33737 -0.60600
H 	H 	0.50229 0.92332 0.27186 0.06600
H 	H 	0.74792 0.02147 0.17424 0.06600
C 	C 	0.44251 0.44459 0.25081 -0.05300
C 	C 	0.40772 0.40749 0.31085 0.00900
C 	C 	0.41004 0.50771 0.21832 0.06900
C 	C 	0.30728 0.49869 0.30461 -0.05300
C 	C 	0.34188 0.43860 0.34182 0.00900
C 	C 	0.33994 0.53109 0.24155 0.06900
O 	O 	0.30401 0.58687 0.20109 -0.60700
O 	O 	0.44618 0.54811 0.16263 -0.60600
H 	H 	0.49771 0.42332 0.22814 0.06600
H 	H 	0.25208 0.52147 0.32576 0.06600
C 	C 	0.05749 0.55541 0.75081 -0.05300
C 	C 	0.09228 0.59251 0.81085 0.00900
C 	C 	0.08996 0.49229 0.71832 0.06900
C 	C 	0.19272 0.50131 0.80461 -0.05300
C 	C 	0.15812 0.56140 0.84182 0.00900
C 	C 	0.16006 0.46891 0.74155 0.06900
O 	O 	0.19599 0.41313 0.70109 -0.60700
O 	O 	0.05382 0.45189 0.66263 -0.60600
H 	H 	0.00229 0.57668 0.72814 0.06600
H 	H 	0.24792 0.47853 0.82576 0.06600
C 	C 	0.94251 0.05541 0.74919 -0.05300
C 	C 	0.90772 0.09251 0.68915 0.00900
C 	C 	0.91004 0.99229 0.78168 0.06800
C 	C 	0.80728 0.00131 0.69539 -0.05300
C 	C 	0.84188 0.06140 0.65818 0.00900
C 	C 	0.83994 0.96891 0.75845 0.06900
O 	O 	0.80401 0.91313 0.79891 -0.60700
O 	O 	0.94618 0.95189 0.83737 -0.60600
H 	H 	0.99771 0.07668 0.77186 0.06600
H 	H 	0.75208 0.97853 0.67424 0.06600
Ti	Ti	0.37525 0.62475 0.12475 3.09500
Ti	Ti	0.12475 0.37525 0.62475 3.09500
Ti	Ti	0.62475 0.12475 0.37525 3.09500
Ti	Ti	0.87525 0.87525 0.87525 3.09500
C 	C 	0.75084 0.44253 0.05537 -0.05300
C 	C 	0.81088 0.40775 0.09247 0.00900
C 	C 	0.71835 0.41005 0.99225 0.06800
C 	C 	0.80465 0.30729 0.00129 -0.05300
C 	C 	0.84185 0.34191 0.06136 0.00900
C 	C 	0.74158 0.33994 0.96889 0.06900
O 	O 	0.70112 0.30401 0.91311 -0.60700
O 	O 	0.66265 0.44618 0.95186 -0.60600
H 	H 	0.72816 0.49773 0.07664 0.06600
H 	H 	0.82581 0.25210 0.97851 0.06600
C 	C 	0.74916 0.55747 0.55537 -0.05300
C 	C 	0.68912 0.59225 0.59247 0.00900
C 	C 	0.78165 0.58995 0.49225 0.06800
C 	C 	0.69535 0.69271 0.50129 -0.05300
C 	C 	0.65815 0.65809 0.56136 0.00900
C 	C 	0.75842 0.66006 0.46889 0.06900
O 	O 	0.79888 0.69599 0.41311 -0.60700
O 	O 	0.83735 0.55382 0.45186 -0.60600
H 	H 	0.77184 0.50227 0.57664 0.06600
H 	H 	0.67419 0.74790 0.47851 0.06600
C 	C 	0.24916 0.94253 0.44463 -0.05300
C 	C 	0.18912 0.90775 0.40753 0.00900
C 	C 	0.28165 0.91005 0.50775 0.06800
C 	C 	0.19535 0.80729 0.49871 -0.05300
C 	C 	0.15815 0.84191 0.43864 0.00900
C 	C 	0.25842 0.83994 0.53111 0.06900
O 	O 	0.29888 0.80401 0.58689 -0.60700
O 	O 	0.33735 0.94618 0.54814 -0.60600
H 	H 	0.27184 0.99773 0.42336 0.06600
H 	H 	0.17419 0.75210 0.52149 0.06600
C 	C 	0.25084 0.05747 0.94463 -0.05300
C 	C 	0.31088 0.09225 0.90753 0.00900
C 	C 	0.21835 0.08995 0.00775 0.06800
C 	C 	0.30465 0.19271 0.99871 -0.05300
C 	C 	0.34185 0.15809 0.93864 0.00900
C 	C 	0.24158 0.16006 0.03111 0.06900
O 	O 	0.20112 0.19599 0.08689 -0.60700
O 	O 	0.16265 0.05382 0.04814 -0.60600
H 	H 	0.22816 0.00227 0.92336 0.06600
H 	H 	0.32581 0.24790 0.02149 0.06600
C 	C 	0.05537 0.75084 0.44253 -0.05300
C 	C 	0.09247 0.81088 0.40775 0.00900
C 	C 	0.99225 0.71835 0.41005 0.06800
C 	C 	0.00129 0.80465 0.30729 -0.05300
C 	C 	0.06136 0.84185 0.34191 0.00900
C 	C 	0.96889 0.74158 0.33994 0.06900
O 	O 	0.91311 0.70112 0.30401 -0.60700
O 	O 	0.95186 0.66265 0.44618 -0.60600
H 	H 	0.07664 0.72816 0.49773 0.06600
H 	H 	0.97851 0.82581 0.25210 0.06600
C 	C 	0.55537 0.74916 0.55747 -0.05300
C 	C 	0.59247 0.68912 0.59225 0.00900
C 	C 	0.49225 0.78165 0.58995 0.06800
C 	C 	0.50129 0.69535 0.69271 -0.05300
C 	C 	0.56136 0.65815 0.65809 0.00900
C 	C 	0.46889 0.75842 0.66006 0.06900
O 	O 	0.41311 0.79888 0.69599 -0.60700
O 	O 	0.45186 0.83735 0.55382 -0.60600
H 	H 	0.57664 0.77184 0.50227 0.06600
H 	H 	0.47851 0.67419 0.74790 0.06600
C 	C 	0.44463 0.24916 0.94253 -0.05300
C 	C 	0.40753 0.18912 0.90775 0.00900
C 	C 	0.50775 0.28165 0.91005 0.06800
C 	C 	0.49871 0.19535 0.80729 -0.05300
C 	C 	0.43864 0.15815 0.84191 0.00900
C 	C 	0.53111 0.25842 0.83994 0.06900
O 	O 	0.58689 0.29888 0.80401 -0.60700
O 	O 	0.54814 0.33735 0.94618 -0.60600
H 	H 	0.42336 0.27184 0.99773 0.06600
H 	H 	0.52149 0.17419 0.75210 0.06600
C 	C 	0.94463 0.25084 0.05747 -0.05300
C 	C 	0.90753 0.31088 0.09225 0.00900
C 	C 	0.00775 0.21835 0.08995 0.06800
C 	C 	0.99871 0.30465 0.19271 -0.05300
C 	C 	0.93864 0.34185 0.15809 0.00900
C 	C 	0.03111 0.24158 0.16006 0.06900
O 	O 	0.08689 0.20112 0.19599 -0.60700
O 	O 	0.04814 0.16265 0.05382 -0.60600
H 	H 	0.92336 0.22816 0.00227 0.06600
H 	H 	0.02149 0.32581 0.24790 0.06600
C 	C 	0.44253 0.05537 0.75084 -0.05300
C 	C 	0.40775 0.09247 0.81088 0.00900
C 	C 	0.41005 0.99225 0.71835 0.06800
C 	C 	0.30729 0.00129 0.80465 -0.05300
C 	C 	0.34191 0.06136 0.84185 0.00900
C 	C 	0.33994 0.96889 0.74158 0.06900
O 	O 	0.30401 0.91311 0.70112 -0.60700
O 	O 	0.44618 0.95186 0.66265 -0.60600
H 	H 	0.49773 0.07664 0.72816 0.06600
H 	H 	0.25210 0.97851 0.82581 0.06600
C 	C 	0.55747 0.55537 0.74916 -0.05300
C 	C 	0.59225 0.59247 0.68912 0.00900
C 	C 	0.58995 0.49225 0.78165 0.06800
C 	C 	0.69271 0.50129 0.69535 -0.05300
C 	C 	0.65809 0.56136 0.65815 0.00900
C 	C 	0.66006 0.46889 0.75842 0.06900
O 	O 	0.69599 0.41311 0.79888 -0.60700
O 	O 	0.55382 0.45186 0.83735 -0.60600
H 	H 	0.50227 0.57664 0.77184 0.06600
H 	H 	0.74790 0.47851 0.67419 0.06600
C 	C 	0.94253 0.44463 0.24916 -0.05300
C 	C 	0.90775 0.40753 0.18912 0.00900
C 	C 	0.91005 0.50775 0.28165 0.06800
C 	C 	0.80729 0.49871 0.19535 -0.05300
C 	C 	0.84191 0.43864 0.15815 0.00900
C 	C 	0.83994 0.53111 0.25842 0.06900
O 	O 	0.80401 0.58689 0.29888 -0.60700
O 	O 	0.94618 0.54814 0.33735 -0.60600
H 	H 	0.99773 0.42336 0.27184 0.06600
H 	H 	0.75210 0.52149 0.17419 0.06600
C 	C 	0.05747 0.94463 0.25084 -0.05300
C 	C 	0.09225 0.90753 0.31088 0.00900
C 	C 	0.08995 0.00775 0.21835 0.06800
C 	C 	0.19271 0.99871 0.30465 -0.05300
C 	C 	0.15809 0.93864 0.34185 0.00900
C 	C 	0.16006 0.03111 0.24158 0.06900
O 	O 	0.19599 0.08689 0.20112 -0.60700
O 	O 	0.05382 0.04814 0.16265 -0.60600
H 	H 	0.00227 0.92336 0.22816 0.06600
H 	H 	0.24790 0.02149 0.32581 0.06600
Ti	Ti	0.62477 0.37523 0.87523 3.09500
Ti	Ti	0.87523 0.62477 0.37523 3.09500
Ti	Ti	0.37523 0.87523 0.62477 3.09500
Ti	Ti	0.12477 0.12477 0.12477 3.09500
