data_crystal

_cell_length_a 12.88420
_cell_length_b 14.59560
_cell_length_c 14.59560
_cell_angle_alpha 90.00000
_cell_angle_beta  90.00000
_cell_angle_gamma 90.00000

_symmetry_space_group_name_	'P 1'
_symmetry_space_group_name_H-M	'P 1'

loop_
_symmetry_equiv_pos_as_xyz
  x,y,z

loop_
_atom_site_label
_atom_site_type_symbol
_atom_site_fract_x
_atom_site_fract_y
_atom_site_fract_z
_atom_site_charge
Zn	Zn	-0.00000 0.50000 -0.00000 1.16600
Zn	Zn	0.50000 0.00000 0.50000 1.17200
H 	H 	0.97840 0.19170 0.18860 -0.00100
H 	H 	0.86200 0.09850 0.27030 0.08100
H 	H 	0.62310 0.24370 0.16880 0.10200
H 	H 	0.73650 0.33800 0.09040 -0.02600
H 	H 	0.56360 0.05780 0.17880 -0.03300
H 	H 	0.78730 0.09570 0.44300 0.23300
H 	H 	0.74780 0.19510 0.41680 0.26400
H 	H 	0.69190 0.13940 0.49580 0.24700
H 	H 	0.97840 0.80830 0.81140 0.03000
H 	H 	0.86200 0.90150 0.72970 0.13300
H 	H 	0.62310 0.75630 0.83120 0.13100
H 	H 	0.73650 0.66200 0.90960 0.02300
H 	H 	0.56360 0.94220 0.82120 0.04000
H 	H 	0.78730 0.90430 0.55700 0.30200
H 	H 	0.74780 0.80490 0.58320 0.28800
H 	H 	0.69190 0.86060 0.50420 0.28900
H 	H 	0.47840 0.69170 0.31140 0.01400
H 	H 	0.36200 0.59850 0.22970 0.10200
H 	H 	0.12310 0.74370 0.33120 0.11000
H 	H 	0.23650 0.83800 0.40960 0.01800
H 	H 	0.06360 0.55780 0.32120 0.00100
H 	H 	0.28730 0.59570 0.05700 0.21500
H 	H 	0.24780 0.69510 0.08320 0.23500
H 	H 	0.19190 0.63940 0.00420 0.19500
H 	H 	0.47840 0.30830 0.68860 0.00700
H 	H 	0.36200 0.40150 0.77030 0.10600
H 	H 	0.12310 0.25630 0.66880 0.11500
H 	H 	0.23650 0.16200 0.59040 -0.01500
H 	H 	0.06360 0.44220 0.67880 0.00100
H 	H 	0.28730 0.40430 0.94300 0.31100
H 	H 	0.24780 0.30490 0.91680 0.30500
H 	H 	0.19190 0.36060 0.99580 0.33200
C 	C 	0.94450 0.33530 0.08020 0.38500
C 	C 	0.86990 0.27340 0.12890 -0.18600
C 	C 	0.90660 0.20230 0.18420 0.09500
C 	C 	0.83760 0.14650 0.23330 -0.20900
C 	C 	0.73230 0.16420 0.22560 0.16800
C 	C 	0.69500 0.23370 0.17280 -0.22200
C 	C 	0.76250 0.28910 0.12540 0.11200
C 	C 	0.57880 0.06070 0.24170 0.08200
C 	C 	0.65530 0.09470 0.36950 0.29400
C 	C 	0.72660 0.13460 0.43700 -0.77900
C 	C 	0.94450 0.66470 0.91980 0.36400
C 	C 	0.86990 0.72660 0.87110 -0.13600
C 	C 	0.90660 0.79770 0.81580 0.10700
C 	C 	0.83760 0.85350 0.76670 -0.19600
C 	C 	0.73230 0.83580 0.77440 0.20100
C 	C 	0.69500 0.76630 0.82720 -0.20300
C 	C 	0.76250 0.71090 0.87460 0.11900
C 	C 	0.57880 0.93930 0.75830 0.11300
C 	C 	0.65530 0.90530 0.63050 0.35600
C 	C 	0.72660 0.86540 0.56300 -0.86200
C 	C 	0.44450 0.83530 0.41980 0.34500
C 	C 	0.36990 0.77340 0.37110 -0.13900
C 	C 	0.40660 0.70230 0.31580 0.08600
C 	C 	0.33760 0.64650 0.26670 -0.19100
C 	C 	0.23230 0.66420 0.27440 0.17300
C 	C 	0.19500 0.73370 0.32720 -0.19600
C 	C 	0.26250 0.78910 0.37460 0.10000
C 	C 	0.07880 0.56070 0.25830 0.09400
C 	C 	0.15530 0.59470 0.13050 0.28200
C 	C 	0.22660 0.63460 0.06300 -0.72200
C 	C 	0.44450 0.16470 0.58020 0.35000
C 	C 	0.36990 0.22660 0.62890 -0.16700
C 	C 	0.40660 0.29770 0.68420 0.09800
C 	C 	0.33760 0.35350 0.73330 -0.20800
C 	C 	0.23230 0.33580 0.72560 0.18600
C 	C 	0.19500 0.26630 0.67280 -0.21900
C 	C 	0.26250 0.21090 0.62540 0.11500
C 	C 	0.07880 0.43930 0.74170 0.09700
C 	C 	0.15530 0.40530 0.86950 0.35900
C 	C 	0.22660 0.36540 0.93700 -0.90200
N 	N 	0.52400 0.01980 0.30480 -0.14600
N 	N 	0.57400 0.04170 0.38620 -0.30300
N 	N 	0.66050 0.10830 0.27750 -0.20700
N 	N 	0.52400 0.98020 0.69520 -0.08600
N 	N 	0.57400 0.95830 0.61380 -0.26100
N 	N 	0.66050 0.89170 0.72250 -0.20400
N 	N 	0.02400 0.51980 0.19520 -0.12400
N 	N 	0.07400 0.54170 0.11380 -0.29600
N 	N 	0.16050 0.60830 0.22250 -0.19700
N 	N 	0.02400 0.48020 0.80480 -0.11800
N 	N 	0.07400 0.45830 0.88620 -0.27100
N 	N 	0.16050 0.39170 0.77750 -0.21200
O 	O 	0.90270 0.40430 0.04010 -0.51900
O 	O 	0.03920 0.31810 0.08000 -0.40100
O 	O 	0.90270 0.59570 0.95990 -0.41400
O 	O 	0.03920 0.68190 0.92000 -0.29500
O 	O 	0.40270 0.90430 0.45990 -0.42800
O 	O 	0.53920 0.81810 0.42000 -0.31400
O 	O 	0.40270 0.09570 0.54010 -0.50700
O 	O 	0.53920 0.18190 0.58000 -0.33900
Zn	Zn	0.00000 0.00000 0.50000 1.16700
Zn	Zn	0.50000 0.50000 -0.00000 1.17300
H 	H 	0.97840 0.81140 0.19170 0.02100
H 	H 	0.86200 0.72970 0.09850 0.07900
H 	H 	0.62310 0.83120 0.24370 0.12100
H 	H 	0.73650 0.90960 0.33800 0.02700
H 	H 	0.56360 0.82120 0.05780 0.00200
H 	H 	0.78730 0.55700 0.09570 0.23300
H 	H 	0.74780 0.58320 0.19510 0.26400
H 	H 	0.69190 0.50420 0.13940 0.24600
H 	H 	0.97840 0.18860 0.80830 0.00900
H 	H 	0.86200 0.27030 0.90150 0.13600
H 	H 	0.62310 0.16880 0.75630 0.11300
H 	H 	0.73650 0.09040 0.66200 -0.03000
H 	H 	0.56360 0.17880 0.94220 0.00600
H 	H 	0.78730 0.44300 0.90430 0.30200
H 	H 	0.74780 0.41680 0.80490 0.28900
H 	H 	0.69190 0.49580 0.86060 0.28900
H 	H 	0.47840 0.31140 0.30830 0.00900
H 	H 	0.36200 0.22970 0.40150 0.10500
H 	H 	0.12310 0.33120 0.25630 0.11200
H 	H 	0.23650 0.40960 0.16200 -0.01400
H 	H 	0.06360 0.32120 0.44220 0.00200
H 	H 	0.28730 0.05700 0.40430 0.20400
H 	H 	0.24780 0.08320 0.30490 0.21300
H 	H 	0.19190 0.00420 0.36060 0.18200
H 	H 	0.47840 0.68860 0.69170 0.01300
H 	H 	0.36200 0.77030 0.59850 0.10300
H 	H 	0.12310 0.66880 0.74370 0.11300
H 	H 	0.23650 0.59040 0.83800 0.01700
H 	H 	0.06360 0.67880 0.55780 0.00100
H 	H 	0.28730 0.94300 0.59570 0.32200
H 	H 	0.24780 0.91680 0.69510 0.32800
H 	H 	0.19190 0.99580 0.63940 0.34600
C 	C 	0.94450 0.91980 0.33530 0.36200
C 	C 	0.86990 0.87110 0.27340 -0.13100
C 	C 	0.90660 0.81580 0.20230 0.07900
C 	C 	0.83760 0.76670 0.14650 -0.18200
C 	C 	0.73230 0.77440 0.16420 0.16600
C 	C 	0.69500 0.82720 0.23370 -0.18800
C 	C 	0.76250 0.87460 0.28910 0.10100
C 	C 	0.57880 0.75830 0.06070 0.08300
C 	C 	0.65530 0.63050 0.09470 0.29500
C 	C 	0.72660 0.56300 0.13460 -0.77800
C 	C 	0.94450 0.08020 0.66470 0.38700
C 	C 	0.86990 0.12890 0.72660 -0.19000
C 	C 	0.90660 0.18420 0.79770 0.12200
C 	C 	0.83760 0.23330 0.85350 -0.22400
C 	C 	0.73230 0.22560 0.83580 0.20400
C 	C 	0.69500 0.17280 0.76630 -0.23800
C 	C 	0.76250 0.12540 0.71090 0.13100
C 	C 	0.57880 0.24170 0.93930 0.11200
C 	C 	0.65530 0.36950 0.90530 0.35600
C 	C 	0.72660 0.43700 0.86540 -0.86300
C 	C 	0.44450 0.41980 0.16470 0.34800
C 	C 	0.36990 0.37110 0.22660 -0.16700
C 	C 	0.40660 0.31580 0.29770 0.09200
C 	C 	0.33760 0.26670 0.35350 -0.20400
C 	C 	0.23230 0.27440 0.33580 0.17800
C 	C 	0.19500 0.32720 0.26630 -0.21800
C 	C 	0.26250 0.37460 0.21090 0.10900
C 	C 	0.07880 0.25830 0.43930 0.09400
C 	C 	0.15530 0.13050 0.40530 0.27100
C 	C 	0.22660 0.06300 0.36540 -0.69300
C 	C 	0.44450 0.58020 0.83530 0.34700
C 	C 	0.36990 0.62890 0.77340 -0.14000
C 	C 	0.40660 0.68420 0.70230 0.09200
C 	C 	0.33760 0.73330 0.64650 -0.19500
C 	C 	0.23230 0.72560 0.66420 0.18200
C 	C 	0.19500 0.67280 0.73370 -0.19800
C 	C 	0.26250 0.62540 0.78910 0.10600
C 	C 	0.07880 0.74170 0.56070 0.09700
C 	C 	0.15530 0.86950 0.59470 0.37000
C 	C 	0.22660 0.93700 0.63460 -0.93100
N 	N 	0.52400 0.69520 0.01980 -0.13900
N 	N 	0.57400 0.61380 0.04170 -0.30200
N 	N 	0.66050 0.72250 0.10830 -0.20100
N 	N 	0.52400 0.30480 0.98020 -0.09300
N 	N 	0.57400 0.38620 0.95830 -0.26100
N 	N 	0.66050 0.27750 0.89170 -0.20900
N 	N 	0.02400 0.19520 0.48020 -0.12400
N 	N 	0.07400 0.11380 0.45830 -0.29500
N 	N 	0.16050 0.22250 0.39170 -0.19700
N 	N 	0.02400 0.80480 0.51980 -0.11800
N 	N 	0.07400 0.88620 0.54170 -0.27300
N 	N 	0.16050 0.77750 0.60830 -0.21200
O 	O 	0.90270 0.95990 0.40430 -0.41500
O 	O 	0.03920 0.92000 0.31810 -0.30700
O 	O 	0.90270 0.04010 0.59570 -0.51900
O 	O 	0.03920 0.08000 0.68190 -0.38900
O 	O 	0.40270 0.45990 0.09570 -0.50700
O 	O 	0.53920 0.42000 0.18190 -0.33900
O 	O 	0.40270 0.54010 0.90430 -0.42800
O 	O 	0.53920 0.58000 0.81810 -0.31400
