data_crystal

_cell_length_a 14.25430
_cell_length_b 15.44480
_cell_length_c 15.44480
_cell_angle_alpha 77.55480
_cell_angle_beta  90.00000
_cell_angle_gamma 90.00000

_symmetry_space_group_name_	'P 1'
_symmetry_space_group_name_H-M	'P 1'

loop_
_symmetry_equiv_pos_as_xyz
  x,y,z

loop_
_atom_site_label
_atom_site_type_symbol
_atom_site_fract_x
_atom_site_fract_y
_atom_site_fract_z
_atom_site_charge
Ca	Ca	0.11082 0.96118 0.44042 1.50000
Ca	Ca	0.61082 0.53882 0.05958 1.50100
Ca	Ca	0.38918 0.94042 0.46118 1.50100
Ca	Ca	0.88918 0.55958 0.03882 1.50000
Ca	Ca	0.88918 0.03882 0.55958 1.50000
Ca	Ca	0.38918 0.46118 0.94042 1.50100
Ca	Ca	0.61082 0.05958 0.53882 1.50100
Ca	Ca	0.11082 0.44042 0.96118 1.50000
H 	H 	0.89060 0.78810 0.30130 0.06900
H 	H 	0.88660 0.70390 0.20210 0.00400
H 	H 	0.32620 0.89980 0.69260 0.05300
H 	H 	0.39060 0.71190 0.19870 0.07000
H 	H 	0.38660 0.79610 0.29790 0.00500
H 	H 	0.82620 0.60020 0.80740 0.05400
H 	H 	0.60940 0.80130 0.28810 0.07000
H 	H 	0.61340 0.70210 0.20390 0.00500
H 	H 	0.17380 0.19260 0.39980 0.05400
H 	H 	0.10940 0.69870 0.21190 0.07000
H 	H 	0.11340 0.79790 0.29610 0.00500
H 	H 	0.67380 0.30740 0.10020 0.05300
H 	H 	0.10940 0.21190 0.69870 0.07000
H 	H 	0.11340 0.29610 0.79790 0.00500
H 	H 	0.67380 0.10020 0.30740 0.05300
H 	H 	0.60940 0.28810 0.80130 0.07000
H 	H 	0.61340 0.20390 0.70210 0.00500
H 	H 	0.17380 0.39980 0.19260 0.05400
H 	H 	0.39060 0.19870 0.71190 0.07000
H 	H 	0.38660 0.29790 0.79610 0.00500
H 	H 	0.82620 0.80740 0.60020 0.05400
H 	H 	0.89060 0.30130 0.78810 0.07000
H 	H 	0.88660 0.20210 0.70390 0.00500
H 	H 	0.32620 0.69260 0.89980 0.05300
H 	H 	0.75000 0.93930 0.43930 0.00900
H 	H 	0.25000 0.56070 0.06070 0.00900
H 	H 	0.25000 0.06070 0.56070 0.00900
H 	H 	0.75000 0.43930 0.93930 0.00900
H 	H 	0.13020 0.71050 0.71050 0.05100
H 	H 	0.63020 0.78950 0.78950 0.05200
H 	H 	0.36980 0.21050 0.21050 0.05200
H 	H 	0.86980 0.28950 0.28950 0.05100
C 	C 	0.92690 0.89739 0.40743 0.38000
C 	C 	0.83442 0.81039 0.31795 -0.05500
C 	C 	0.83452 0.86865 0.37533 -0.09500
C 	C 	0.18837 0.85606 0.59760 0.34300
C 	C 	0.82440 0.69206 0.19058 0.10400
C 	C 	0.22540 0.81097 0.68671 -0.08300
C 	C 	0.29960 0.84698 0.72290 -0.07800
C 	C 	0.44610 0.81670 0.92370 0.11400
C 	C 	0.42690 0.60261 0.09257 0.37700
C 	C 	0.33442 0.68961 0.18205 -0.05600
C 	C 	0.33452 0.63135 0.12467 -0.09500
C 	C 	0.68837 0.64394 0.90240 0.34200
C 	C 	0.32440 0.80794 0.30942 0.10400
C 	C 	0.72540 0.68903 0.81329 -0.08100
C 	C 	0.79960 0.65302 0.77710 -0.07800
C 	C 	0.94610 0.68330 0.57630 0.11600
C 	C 	0.57310 0.90743 0.39739 0.37700
C 	C 	0.66558 0.81795 0.31039 -0.05600
C 	C 	0.66548 0.87533 0.36865 -0.09500
C 	C 	0.31163 0.09760 0.35606 0.34200
C 	C 	0.67560 0.69058 0.19206 0.10400
C 	C 	0.27460 0.18671 0.31097 -0.08100
C 	C 	0.20040 0.22290 0.34698 -0.07800
C 	C 	0.05390 0.42370 0.31670 0.11600
C 	C 	0.07310 0.59257 0.10261 0.38000
C 	C 	0.16558 0.68205 0.18961 -0.05500
C 	C 	0.16548 0.62467 0.13135 -0.09500
C 	C 	0.81163 0.40240 0.14394 0.34300
C 	C 	0.17560 0.80942 0.30794 0.10400
C 	C 	0.77460 0.31329 0.18903 -0.08300
C 	C 	0.70040 0.27710 0.15302 -0.07800
C 	C 	0.55390 0.07630 0.18330 0.11400
C 	C 	0.07310 0.10261 0.59257 0.38000
C 	C 	0.16558 0.18961 0.68205 -0.05500
C 	C 	0.16548 0.13135 0.62467 -0.09500
C 	C 	0.81163 0.14394 0.40240 0.34300
C 	C 	0.17560 0.30794 0.80942 0.10400
C 	C 	0.77460 0.18903 0.31329 -0.08300
C 	C 	0.70040 0.15302 0.27710 -0.07800
C 	C 	0.55390 0.18330 0.07630 0.11400
C 	C 	0.57310 0.39739 0.90743 0.37700
C 	C 	0.66558 0.31039 0.81795 -0.05600
C 	C 	0.66548 0.36865 0.87533 -0.09500
C 	C 	0.31163 0.35606 0.09760 0.34200
C 	C 	0.67560 0.19206 0.69058 0.10400
C 	C 	0.27460 0.31097 0.18671 -0.08100
C 	C 	0.20040 0.34698 0.22290 -0.07800
C 	C 	0.05390 0.31670 0.42370 0.11600
C 	C 	0.42690 0.09257 0.60261 0.37700
C 	C 	0.33442 0.18205 0.68961 -0.05600
C 	C 	0.33452 0.12467 0.63135 -0.09500
C 	C 	0.68837 0.90240 0.64394 0.34200
C 	C 	0.32440 0.30942 0.80794 0.10400
C 	C 	0.72540 0.81329 0.68903 -0.08100
C 	C 	0.79960 0.77710 0.65302 -0.07800
C 	C 	0.94610 0.57630 0.68330 0.11600
C 	C 	0.92690 0.40743 0.89739 0.38000
C 	C 	0.83442 0.31795 0.81039 -0.05500
C 	C 	0.83452 0.37533 0.86865 -0.09500
C 	C 	0.18837 0.59760 0.85606 0.34300
C 	C 	0.82440 0.19058 0.69206 0.10400
C 	C 	0.22540 0.68671 0.81097 -0.08300
C 	C 	0.29960 0.72290 0.84698 -0.07800
C 	C 	0.44610 0.92370 0.81670 0.11400
C 	C 	0.75000 0.90065 0.40065 0.03200
C 	C 	0.75000 0.78595 0.28595 0.08100
C 	C 	0.25000 0.59935 0.09935 0.03200
C 	C 	0.25000 0.71405 0.21405 0.08100
C 	C 	0.25000 0.09935 0.59935 0.03200
C 	C 	0.25000 0.21405 0.71405 0.08100
C 	C 	0.75000 0.40065 0.90065 0.03200
C 	C 	0.75000 0.28595 0.78595 0.08100
C 	C 	0.18420 0.73224 0.73224 0.00400
C 	C 	0.33500 0.80469 0.80469 0.09000
C 	C 	0.68420 0.76776 0.76776 0.00300
C 	C 	0.83500 0.69531 0.69531 0.09100
C 	C 	0.31580 0.23224 0.23224 0.00300
C 	C 	0.16500 0.30469 0.30469 0.09100
C 	C 	0.81580 0.26776 0.26776 0.00400
C 	C 	0.66500 0.19531 0.19531 0.09000
N 	N 	0.79824 0.64104 0.13850 -0.20200
N 	N 	0.50370 0.87680 0.94400 -0.08400
N 	N 	0.29824 0.85896 0.36150 -0.20200
N 	N 	0.00370 0.62320 0.55600 -0.08600
N 	N 	0.70176 0.63850 0.14104 -0.20200
N 	N 	0.99630 0.44400 0.37680 -0.08600
N 	N 	0.20176 0.86150 0.35896 -0.20200
N 	N 	0.49630 0.05600 0.12320 -0.08400
N 	N 	0.20176 0.35896 0.86150 -0.20200
N 	N 	0.49630 0.12320 0.05600 -0.08400
N 	N 	0.70176 0.14104 0.63850 -0.20200
N 	N 	0.99630 0.37680 0.44400 -0.08600
N 	N 	0.29824 0.36150 0.85896 -0.20200
N 	N 	0.00370 0.55600 0.62320 -0.08600
N 	N 	0.79824 0.13850 0.64104 -0.20200
N 	N 	0.50370 0.94400 0.87680 -0.08400
N 	N 	0.75000 0.72595 0.22595 -0.15000
N 	N 	0.25000 0.77405 0.27405 -0.15000
N 	N 	0.25000 0.27405 0.77405 -0.15000
N 	N 	0.75000 0.22595 0.72595 -0.15000
N 	N 	0.40690 0.84582 0.84582 -0.16000
N 	N 	0.90690 0.65418 0.65418 -0.16000
N 	N 	0.09310 0.34582 0.34582 -0.16000
N 	N 	0.59310 0.15418 0.15418 -0.16000
O 	O 	0.24543 0.89998 0.54280 -0.54500
O 	O 	0.10247 0.84924 0.58030 -0.41400
O 	O 	0.00021 0.87350 0.37646 -0.44100
O 	O 	0.92634 0.94405 0.46507 -0.55400
O 	O 	0.74543 0.60002 0.95720 -0.54200
O 	O 	0.60247 0.65076 0.91970 -0.41100
O 	O 	0.50021 0.62650 0.12354 -0.43800
O 	O 	0.42634 0.55595 0.03493 -0.55500
O 	O 	0.25457 0.04280 0.39998 -0.54200
O 	O 	0.39753 0.08030 0.34924 -0.41100
O 	O 	0.49979 0.87646 0.37350 -0.43800
O 	O 	0.57366 0.96507 0.44405 -0.55500
O 	O 	0.75457 0.45720 0.10002 -0.54500
O 	O 	0.89753 0.41970 0.15076 -0.41400
O 	O 	0.99979 0.62354 0.12650 -0.44100
O 	O 	0.07366 0.53493 0.05595 -0.55400
O 	O 	0.75457 0.10002 0.45720 -0.54500
O 	O 	0.89753 0.15076 0.41970 -0.41400
O 	O 	0.99979 0.12650 0.62354 -0.44100
O 	O 	0.07366 0.05595 0.53493 -0.55400
O 	O 	0.25457 0.39998 0.04280 -0.54200
O 	O 	0.39753 0.34924 0.08030 -0.41100
O 	O 	0.49979 0.37350 0.87646 -0.43800
O 	O 	0.57366 0.44405 0.96507 -0.55500
O 	O 	0.74543 0.95720 0.60002 -0.54200
O 	O 	0.60247 0.91970 0.65076 -0.41100
O 	O 	0.50021 0.12354 0.62650 -0.43800
O 	O 	0.42634 0.03493 0.55595 -0.55500
O 	O 	0.24543 0.54280 0.89998 -0.54500
O 	O 	0.10247 0.58030 0.84924 -0.41400
O 	O 	0.00021 0.37646 0.87350 -0.44100
O 	O 	0.92634 0.46507 0.94405 -0.55400
