data_crystal

_cell_length_a 8.96900
_cell_length_b 9.41900
_cell_length_c 17.29000
_cell_angle_alpha 100.46800
_cell_angle_beta  92.75400
_cell_angle_gamma 117.70200

_symmetry_space_group_name_	'P 1'
_symmetry_space_group_name_H-M	'P 1'

loop_
_symmetry_equiv_pos_as_xyz
  x,y,z

loop_
_atom_site_label
_atom_site_type_symbol
_atom_site_fract_x
_atom_site_fract_y
_atom_site_fract_z
_atom_site_charge
Cd	Cd	0.45725 0.84964 0.79928 1.21600
Cd	Cd	0.54275 0.15036 0.20072 1.20100
Cd	Cd	0.50000 0.00000 -0.00000 1.20000
H 	H 	0.25100 0.44900 0.99200 0.13300
H 	H 	0.44760 0.41310 0.91250 0.04400
H 	H 	0.31350 0.35150 0.83570 0.04700
H 	H 	0.29700 0.17900 0.96500 0.07200
H 	H 	0.01500 0.97060 0.88400 0.08700
H 	H 	0.03910 0.06680 0.81640 0.05100
H 	H 	0.97500 0.16600 0.96400 0.14400
H 	H 	0.99060 0.40040 0.93420 0.01900
H 	H 	0.02810 0.34550 0.84940 0.03300
H 	H 	0.23320 0.50280 0.69220 -0.01700
H 	H 	0.05140 0.35470 0.57570 0.07600
H 	H 	0.11360 0.77390 0.52910 0.08500
H 	H 	0.29320 0.91190 0.64710 0.00900
H 	H 	0.74900 0.55100 0.00800 0.10000
H 	H 	0.55240 0.58690 0.08750 -0.00800
H 	H 	0.68650 0.64850 0.16430 0.02600
H 	H 	0.70300 0.82100 0.03500 0.06000
H 	H 	0.98500 0.02940 0.11600 -0.07100
H 	H 	0.96090 0.93320 0.18360 -0.00800
H 	H 	0.02500 0.83400 0.03600 0.17300
H 	H 	0.00940 0.59960 0.06580 -0.01100
H 	H 	0.97190 0.65450 0.15060 0.01600
H 	H 	0.76680 0.49720 0.30780 -0.01200
H 	H 	0.94860 0.64530 0.42430 0.07100
H 	H 	0.88640 0.22610 0.47090 0.06000
H 	H 	0.70680 0.08810 0.35290 -0.01400
C 	C 	0.31120 0.61620 0.92490 0.41100
C 	C 	0.23630 0.44020 0.93590 -0.22200
C 	C 	0.32680 0.35260 0.89180 0.00100
C 	C 	0.25370 0.17560 0.90190 -0.11700
C 	C 	0.33020 0.08210 0.85200 0.30400
C 	C 	0.06050 0.07970 0.87350 -0.06300
C 	C 	0.96850 0.16700 0.91480 -0.24700
C 	C 	0.78110 0.06460 0.88090 0.31900
C 	C 	0.04670 0.34580 0.90520 0.07800
C 	C 	0.20850 0.55920 0.65910 0.08100
C 	C 	0.09860 0.46880 0.58870 -0.14800
C 	C 	0.05890 0.54580 0.53820 0.07500
C 	C 	0.13530 0.71490 0.56160 -0.14400
C 	C 	0.24370 0.79760 0.63280 0.08100
C 	C 	0.68880 0.38380 0.07510 0.42300
C 	C 	0.76370 0.55980 0.06410 -0.26500
C 	C 	0.67320 0.64740 0.10820 0.06800
C 	C 	0.74630 0.82440 0.09810 -0.22800
C 	C 	0.66980 0.91790 0.14800 0.42900
C 	C 	0.93950 0.92030 0.12650 0.18400
C 	C 	0.03150 0.83300 0.08520 -0.36800
C 	C 	0.21890 0.93540 0.11910 0.45500
C 	C 	0.95330 0.65420 0.09480 0.10600
C 	C 	0.79150 0.44080 0.34090 0.06600
C 	C 	0.90140 0.53120 0.41130 -0.12800
C 	C 	0.94110 0.45420 0.46180 0.03600
C 	C 	0.86470 0.28510 0.43840 -0.12900
C 	C 	0.75630 0.20240 0.36720 0.06300
N 	N 	0.28060 0.72140 0.68210 -0.25000
N 	N 	0.71940 0.27860 0.31790 -0.25500
O 	O 	0.31880 0.63390 0.85480 -0.45100
O 	O 	0.35970 0.72800 0.98670 -0.40000
O 	O 	0.72920 0.07280 0.81380 -0.42000
O 	O 	0.68410 0.96260 0.91780 -0.43000
O 	O 	0.35870 0.09720 0.78430 -0.33600
O 	O 	0.35160 0.97920 0.88340 -0.46700
O 	O 	0.68120 0.36610 0.14520 -0.46800
O 	O 	0.64030 0.27200 0.01330 -0.49500
O 	O 	0.27080 0.92720 0.18620 -0.41900
O 	O 	0.31590 0.03740 0.08220 -0.57600
O 	O 	0.64130 0.90280 0.21570 -0.33800
O 	O 	0.64840 0.02080 0.11660 -0.59800
