data_crystal

_cell_length_a 9.51610
_cell_length_b 30.15750
_cell_length_c 45.93670
_cell_angle_alpha 90.00000
_cell_angle_beta  90.00000
_cell_angle_gamma 90.00000

_symmetry_space_group_name_	'P 1'
_symmetry_space_group_name_H-M	'P 1'

loop_
_symmetry_equiv_pos_as_xyz
  x,y,z

loop_
_atom_site_label
_atom_site_type_symbol
_atom_site_fract_x
_atom_site_fract_y
_atom_site_fract_z
_atom_site_charge
Zn	Zn	0.99646 0.17173 0.73679 1.16800
Zn	Zn	0.15798 0.68311 0.18749 1.17000
Zn	Zn	0.08772 0.23741 0.42481 1.16700
Zn	Zn	0.58772 0.26259 0.57519 1.16800
Zn	Zn	0.66414 0.00355 0.85796 1.16800
Zn	Zn	0.65175 0.28162 0.02992 1.17400
Zn	Zn	0.42792 0.86846 0.69598 1.17000
Zn	Zn	0.41228 0.76259 0.92481 1.16900
Zn	Zn	0.65511 0.47074 0.06723 1.17000
Zn	Zn	0.08599 0.35769 0.52476 1.16900
Zn	Zn	0.91401 0.85769 0.97524 1.16900
Zn	Zn	0.92962 0.77058 0.65271 1.17100
Zn	Zn	0.15175 0.21838 0.97008 1.17500
Zn	Zn	0.50354 0.82827 0.23679 1.17000
Zn	Zn	0.49855 0.05440 0.73536 1.17000
Zn	Zn	0.92792 0.63154 0.30402 1.17000
Zn	Zn	0.42962 0.72942 0.34729 1.17100
Zn	Zn	0.57038 0.22942 0.15271 1.17100
Zn	Zn	0.49646 0.32827 0.26321 1.17000
Zn	Zn	0.50145 0.55440 0.76464 1.17000
Zn	Zn	0.34202 0.31689 0.68749 1.17100
Zn	Zn	0.41401 0.64231 0.02476 1.16900
Zn	Zn	0.00145 0.94560 0.23536 1.16900
Zn	Zn	0.84825 0.71838 0.52992 1.17500
Zn	Zn	0.07208 0.13154 0.19598 1.17000
Zn	Zn	0.58599 0.14231 0.47524 1.16900
Zn	Zn	0.84489 0.52926 0.56723 1.17000
Zn	Zn	0.57208 0.36846 0.80402 1.17000
Zn	Zn	0.15511 0.02926 0.93277 1.17000
Zn	Zn	0.33586 0.50355 0.64204 1.16900
Zn	Zn	0.00354 0.67173 0.76321 1.16900
Zn	Zn	0.99855 0.44560 0.26464 1.16900
Zn	Zn	0.34825 0.78162 0.47008 1.17500
Zn	Zn	0.83586 0.99645 0.35796 1.16900
Zn	Zn	0.84202 0.18311 0.31251 1.17100
Zn	Zn	0.91228 0.73741 0.07519 1.16800
Zn	Zn	0.07038 0.27058 0.84729 1.17100
Zn	Zn	0.34489 0.97074 0.43277 1.17000
Zn	Zn	0.65798 0.81689 0.81251 1.17100
Zn	Zn	0.16414 0.49645 0.14204 1.16900
H 	H 	0.89470 0.63040 0.56750 -0.07300
H 	H 	0.66120 0.24060 0.96120 0.00800
H 	H 	0.07010 0.68610 0.12180 -0.05500
H 	H 	0.78610 0.22130 0.45720 -0.05800
H 	H 	0.23610 0.66790 0.31020 -0.06600
H 	H 	0.90120 0.07940 0.31750 -0.06100
H 	H 	0.96890 0.59140 0.80870 -0.00500
H 	H 	0.06060 0.55460 0.34510 -0.00400
H 	H 	0.19050 0.79620 0.97160 -0.06200
H 	H 	0.53370 0.25090 0.21900 -0.05500
H 	H 	0.27220 0.96130 0.19260 -0.00100
H 	H 	0.93860 0.54840 0.26450 -0.06800
H 	H 	0.91950 0.69240 0.36150 -0.00400
H 	H 	0.99540 0.82670 0.80310 -0.00400
H 	H 	0.94080 0.28720 0.06080 -0.00700
H 	H 	0.40120 0.42060 0.68250 -0.06100
H 	H 	0.69050 0.70380 0.02840 -0.06200
H 	H 	0.13680 0.80340 0.60250 0.00400
H 	H 	0.87370 0.85010 0.86090 -0.00600
H 	H 	0.49250 0.10750 0.54000 -0.00400
H 	H 	0.25320 0.68120 0.81230 -0.00400
H 	H 	0.46890 0.90860 0.19130 -0.00500
H 	H 	0.56140 0.45160 0.76450 -0.06800
H 	H 	0.89100 0.45160 0.11170 -0.06800
H 	H 	0.14410 0.73410 0.51250 -0.08100
H 	H 	0.71390 0.77870 0.95720 -0.05800
H 	H 	0.34850 0.03250 0.83830 0.00700
H 	H 	0.50590 0.37850 0.19990 -0.00300
H 	H 	0.79210 0.44390 0.21270 -0.01200
H 	H 	0.65150 0.53250 0.66170 0.00700
H 	H 	0.64410 0.76590 0.48750 -0.08100
H 	H 	0.96630 0.74910 0.71900 -0.05400
H 	H 	0.63610 0.99690 0.40950 -0.05700
H 	H 	0.06190 0.52420 0.51480 -0.00600
H 	H 	0.06820 0.13230 0.43210 -0.00100
H 	H 	0.93940 0.05460 0.15490 -0.00400
H 	H 	0.46530 0.62270 0.35620 0.00200
H 	H 	0.39470 0.86960 0.43250 -0.07300
H 	H 	0.86320 0.30340 0.89750 0.00400
H 	H 	0.22780 0.03870 0.69260 -0.00100
H 	H 	0.93810 0.02420 0.98520 -0.00600
H 	H 	0.74680 0.18120 0.68770 -0.00400
H 	H 	0.60530 0.36960 0.06750 -0.07300
H 	H 	0.93180 0.63230 0.06790 -0.00100
H 	H 	0.08330 0.57460 0.66120 -0.00200
H 	H 	0.36390 0.49690 0.09050 -0.05700
H 	H 	0.16120 0.25940 0.03880 0.00800
H 	H 	0.00590 0.12150 0.80010 -0.00300
H 	H 	0.92740 0.06360 0.40530 -0.00100
H 	H 	0.84850 0.46750 0.16170 0.00700
H 	H 	0.50750 0.60750 0.96000 -0.00400
H 	H 	0.62450 0.22480 0.51390 -0.06500
H 	H 	0.04270 0.36820 0.31260 0.00200
H 	H 	0.09880 0.57940 0.18250 -0.06100
H 	H 	0.29210 0.05610 0.78730 -0.01100
H 	H 	0.00750 0.89250 0.04000 -0.00300
H 	H 	0.10530 0.13040 0.93250 -0.07300
H 	H 	0.37820 0.94610 0.93980 -0.00100
H 	H 	0.59670 0.57530 0.05940 -0.05100
H 	H 	0.37250 0.70120 0.86540 -0.00600
H 	H 	0.63680 0.69660 0.39750 0.00400
H 	H 	0.43180 0.86770 0.93210 0.00100
H 	H 	0.32330 0.54470 0.99830 -0.00400
H 	H 	0.90330 0.42470 0.55940 -0.05100
H 	H 	0.87440 0.92560 0.88130 -0.00300
H 	H 	0.90000 0.28440 0.94890 -0.00600
H 	H 	0.62540 0.41510 0.12990 -0.00400
H 	H 	0.39100 0.04840 0.88830 -0.06900
H 	H 	0.73290 0.66500 0.24950 -0.00300
H 	H 	0.85950 0.26620 0.71740 -0.00200
H 	H 	0.60000 0.71560 0.44890 -0.00600
H 	H 	0.12560 0.42560 0.61870 -0.00300
H 	H 	0.42740 0.43640 0.59470 -0.00000
H 	H 	0.71810 0.89920 0.25490 -0.06400
H 	H 	0.60900 0.54840 0.61170 -0.06900
H 	H 	0.53110 0.40860 0.30870 -0.00500
H 	H 	0.97060 0.66300 0.65430 -0.00400
H 	H 	0.28610 0.27870 0.54280 -0.05800
H 	H 	0.07260 0.56360 0.09470 -0.00100
H 	H 	0.37370 0.26620 0.87960 -0.00900
H 	H 	0.16260 0.21190 0.90150 -0.05800
H 	H 	0.91670 0.07460 0.83880 -0.00200
H 	H 	0.75320 0.81880 0.18770 -0.00400
H 	H 	0.64050 0.73380 0.21740 -0.00200
H 	H 	0.40000 0.21560 0.05110 -0.00600
H 	H 	0.57010 0.81390 0.87820 -0.05400
H 	H 	0.20750 0.85790 0.50500 -0.01500
H 	H 	0.41670 0.42540 0.16120 -0.00300
H 	H 	0.89490 0.97910 0.17320 -0.00700
H 	H 	0.20760 0.86970 0.25090 -0.06700
H 	H 	0.87370 0.23380 0.12040 -0.00800
H 	H 	0.35590 0.26590 0.01250 -0.08100
H 	H 	0.85590 0.23410 0.98750 -0.08100
H 	H 	0.87550 0.77520 0.01390 -0.06500
H 	H 	0.83880 0.75940 0.46120 0.00800
H 	H 	0.47060 0.83700 0.34570 -0.00400
H 	H 	0.02050 0.27590 0.31850 0.00100
H 	H 	0.76390 0.16790 0.18980 -0.06600
H 	H 	0.36320 0.19660 0.10250 0.00400
H 	H 	0.56060 0.94540 0.65490 -0.00400
H 	H 	0.36280 0.40690 0.54680 -0.00500
H 	H 	0.64030 0.85260 0.74750 -0.06500
H 	H 	0.10510 0.47910 0.32680 -0.00700
H 	H 	0.40330 0.07530 0.44060 -0.05100
H 	H 	0.05920 0.78720 0.43920 -0.00700
H 	H 	0.10000 0.78440 0.55110 -0.00600
H 	H 	0.58330 0.92540 0.33880 -0.00300
H 	H 	0.15150 0.96750 0.33830 0.00700
H 	H 	0.20340 0.79460 0.68930 -0.06000
H 	H 	0.62630 0.14990 0.36090 -0.00600
H 	H 	0.70750 0.64210 0.49500 -0.01500
H 	H 	0.70760 0.63030 0.74910 -0.06700
H 	H 	0.79660 0.29460 0.81070 -0.06000
H 	H 	0.49410 0.87850 0.30010 -0.00300
H 	H 	0.80950 0.29620 0.52840 -0.06200
H 	H 	0.53820 0.15550 0.40770 -0.00500
H 	H 	0.16530 0.93460 0.48650 -0.00100
H 	H 	0.42990 0.31390 0.62180 -0.05400
H 	H 	0.12750 0.29880 0.36540 -0.00700
H 	H 	0.33610 0.19490 0.38600 -0.00100
H 	H 	0.32830 0.81630 0.79780 0.00000
H 	H 	0.97950 0.77590 0.18150 0.00100
H 	H 	0.37370 0.64990 0.13910 -0.00600
H 	H 	0.76710 0.33500 0.74950 -0.00300
H 	H 	0.74840 0.72510 0.78760 -0.06200
H 	H 	0.87820 0.55390 0.06020 -0.00000
H 	H 	0.96180 0.84450 0.90770 -0.00600
H 	H 	0.10900 0.95160 0.38830 -0.06800
H 	H 	0.52940 0.33700 0.15430 -0.00400
H 	H 	0.46180 0.65550 0.09230 -0.00500
H 	H 	0.67670 0.04470 0.50170 -0.00400
H 	H 	0.03470 0.37730 0.85620 0.00100
H 	H 	0.62180 0.44610 0.56020 -0.00100
H 	H 	0.99250 0.39250 0.46000 -0.00300
H 	H 	0.30670 0.52510 0.71080 -0.06700
H 	H 	0.96530 0.87730 0.64380 0.00100
H 	H 	0.39490 0.52090 0.82680 -0.00700
H 	H 	0.66390 0.69490 0.11400 -0.00100
H 	H 	0.03110 0.09140 0.69130 -0.00500
H 	H 	0.32950 0.08250 0.16130 -0.00600
H 	H 	0.69330 0.02510 0.78920 -0.06700
H 	H 	0.35950 0.23380 0.28260 -0.00200
H 	H 	0.33880 0.74060 0.53880 0.00800
H 	H 	0.62750 0.20120 0.63460 -0.00600
H 	H 	0.33740 0.78810 0.40150 -0.05800
H 	H 	0.12630 0.35010 0.63910 -0.00600
H 	H 	0.35970 0.35260 0.75250 -0.06500
H 	H 	0.87250 0.79880 0.13460 -0.00700
H 	H 	0.29240 0.13030 0.75090 -0.06700
H 	H 	0.56190 0.97580 0.48520 -0.00700
H 	H 	0.06140 0.04840 0.23550 -0.06800
H 	H 	0.79250 0.35790 0.99500 -0.01500
H 	H 	0.50110 0.15670 0.58290 -0.00200
H 	H 	0.82330 0.95530 0.00170 -0.00400
H 	H 	0.30950 0.20380 0.47160 -0.06200
H 	H 	0.17670 0.45530 0.49830 -0.00400
H 	H 	0.33470 0.06540 0.98650 -0.00100
H 	H 	0.37550 0.72480 0.98610 -0.06500
H 	H 	0.77220 0.53870 0.80740 -0.00100
H 	H 	0.41950 0.80760 0.63850 -0.00200
H 	H 	0.57260 0.93640 0.90530 -0.00000
H 	H 	0.29250 0.14210 0.00500 -0.01500
H 	H 	0.50460 0.17330 0.30310 -0.00400
H 	H 	0.12180 0.05390 0.43980 -0.00000
H 	H 	0.37440 0.57440 0.11870 -0.00300
H 	H 	0.00460 0.32670 0.69690 -0.00400
H 	H 	0.37460 0.91510 0.37010 -0.00400
H 	H 	0.25160 0.22510 0.71240 -0.06200
H 	H 	0.53470 0.12270 0.14380 0.00200
H 	H 	0.79240 0.36970 0.24910 -0.06700
H 	H 	0.56820 0.36770 0.56790 0.00100
H 	H 	0.20790 0.94390 0.28730 -0.01200
H 	H 	0.29660 0.20540 0.18930 -0.06000
H 	H 	0.62560 0.07440 0.38130 -0.00300
H 	H 	0.24680 0.31880 0.31230 -0.00400
H 	H 	0.83470 0.43460 0.01350 -0.00100
H 	H 	0.99890 0.84330 0.08290 -0.00200
H 	H 	0.17170 0.18370 0.29780 0.00100
H 	H 	0.21390 0.72130 0.04280 -0.05800
H 	H 	0.16390 0.80510 0.88600 -0.00100
H 	H 	0.80670 0.97490 0.28920 -0.06800
H 	H 	0.66530 0.56540 0.51350 -0.00100
H 	H 	0.00110 0.34330 0.41710 -0.00200
H 	H 	0.12450 0.27520 0.48610 -0.06500
H 	H 	0.03820 0.34450 0.59230 -0.00600
H 	H 	0.46630 0.75090 0.28100 -0.05500
H 	H 	0.85970 0.14740 0.24750 -0.06600
H 	H 	0.08050 0.19240 0.13850 -0.00400
H 	H 	0.02940 0.16300 0.84570 -0.00400
H 	H 	0.54270 0.13180 0.68740 0.00200
H 	H 	0.59880 0.92060 0.81750 -0.06100
H 	H 	0.66260 0.28810 0.09850 -0.05800
H 	H 	0.12540 0.08490 0.87010 -0.00400
H 	H 	0.19330 0.47490 0.21080 -0.06800
H 	H 	0.45730 0.63180 0.81260 0.00200
H 	H 	0.24840 0.77490 0.21240 -0.06200
H 	H 	0.23290 0.83500 0.75050 -0.00300
H 	H 	0.52050 0.22410 0.68150 0.00100
H 	H 	0.87460 0.58490 0.62990 -0.00400
H 	H 	0.70340 0.70540 0.31070 -0.06000
H 	H 	0.13610 0.50310 0.59050 -0.05600
H 	H 	0.67050 0.58250 0.33870 -0.00600
H 	H 	0.55920 0.71280 0.56080 -0.00700
H 	H 	0.99410 0.62150 0.69990 -0.00300
H 	H 	0.43940 0.44540 0.84510 -0.00400
H 	H 	0.60510 0.02090 0.67320 -0.00700
H 	H 	0.78190 0.10080 0.75490 -0.06400
H 	H 	0.86390 0.00310 0.90950 -0.05600
H 	H 	0.95730 0.86820 0.18740 0.00200
H 	H 	0.83740 0.71190 0.59850 -0.05800
H 	H 	0.26710 0.16500 0.25050 -0.00300
H 	H 	0.03370 0.24910 0.78100 -0.05400
H 	H 	0.70790 0.55610 0.71270 -0.01100
H 	H 	0.43810 0.47580 0.01480 -0.00700
H 	H 	0.86280 0.09310 0.45320 -0.00400
H 	H 	0.67170 0.31630 0.70220 0.00000
H 	H 	0.43860 0.95160 0.73550 -0.06800
H 	H 	0.83610 0.30510 0.61400 -0.00100
H 	H 	0.47950 0.72410 0.81850 0.00100
H 	H 	0.63720 0.90690 0.95320 -0.00500
H 	H 	0.12630 0.73380 0.37960 -0.00800
H 	H 	0.14030 0.64740 0.25250 -0.06600
H 	H 	0.49890 0.65670 0.91710 -0.00200
H 	H 	0.73610 0.83210 0.68980 -0.06600
H 	H 	0.21810 0.60080 0.74510 -0.06400
H 	H 	0.92990 0.18610 0.37820 -0.05500
H 	H 	0.28190 0.39920 0.24510 -0.06400
H 	H 	0.58050 0.30760 0.86150 -0.00300
H 	H 	0.75160 0.27490 0.28760 -0.06200
H 	H 	0.14050 0.76620 0.78260 -0.00200
H 	H 	0.49540 0.67330 0.19690 -0.00400
H 	H 	0.82830 0.68370 0.20220 0.00100
H 	H 	0.26390 0.33210 0.81020 -0.06600
H 	H 	0.44080 0.21280 0.93920 -0.00700
H 	H 	0.62630 0.76620 0.62040 -0.00900
H 	H 	0.72780 0.46130 0.30740 -0.00100
H 	H 	0.13720 0.59310 0.04680 -0.00400
H 	H 	0.09670 0.92470 0.94060 -0.05100
H 	H 	0.82950 0.41750 0.83870 -0.00500
H 	H 	0.17050 0.91750 0.66130 -0.00500
C 	C 	0.84850 0.38700 0.83504 -0.00300
C 	C 	0.03410 0.71180 0.13108 0.08100
C 	C 	0.98600 0.03810 0.40660 -0.01000
C 	C 	0.02870 0.17570 0.82679 -0.00700
C 	C 	0.38150 0.82550 0.78137 -0.01400
C 	C 	0.43050 0.43860 0.14267 -0.01200
C 	C 	0.62690 0.87560 0.95150 -0.00100
C 	C 	0.54190 0.95560 0.67410 -0.01200
C 	C 	0.31760 0.58460 0.13440 -0.01500
C 	C 	0.83130 0.32050 0.81994 0.08300
C 	C 	0.53140 0.27790 0.20837 0.07100
C 	C 	0.61770 0.13110 0.70108 -0.01900
C 	C 	0.27160 0.65850 0.79841 0.00000
C 	C 	0.98650 0.14600 0.43993 -0.01200
C 	C 	0.59030 0.20150 0.52589 0.06800
C 	C 	0.92710 0.77290 0.13773 0.00100
C 	C 	0.58500 0.52160 0.60203 0.11200
C 	C 	0.01070 0.69210 0.35310 -0.01000
C 	C 	0.54230 0.73510 0.21380 -0.01000
C 	C 	0.21740 0.06400 0.70460 -0.01100
C 	C 	0.25590 0.13060 0.98740 0.01400
C 	C 	0.06950 0.25570 0.03100 -0.02000
C 	C 	0.03410 0.82980 0.91820 -0.00700
C 	C 	0.48440 0.84730 0.30177 -0.01200
C 	C 	0.53880 0.63490 0.34471 -0.01900
C 	C 	0.34850 0.11300 0.16496 -0.00300
C 	C 	0.59730 0.97710 0.39556 0.07600
C 	C 	0.15810 0.80340 0.95261 0.09200
C 	C 	0.87310 0.12440 0.45150 -0.00200
C 	C 	0.65810 0.69660 0.04739 0.09200
C 	C 	0.93520 0.00260 0.18420 -0.00200
C 	C 	0.54870 0.84500 0.75406 0.09200
C 	C 	0.55220 0.73010 0.54360 -0.01500
C 	C 	0.67040 0.33610 0.74447 -0.00800
C 	C 	0.82950 0.74340 0.78879 0.08000
C 	C 	0.32960 0.83610 0.75553 -0.00800
C 	C 	0.66720 0.80600 0.95366 0.08000
C 	C 	0.60890 0.40700 0.29580 -0.00300
C 	C 	0.34190 0.19660 0.45261 0.09200
C 	C 	0.94780 0.26990 0.04360 -0.01500
C 	C 	0.15150 0.88700 0.66496 -0.00300
C 	C 	0.97600 0.83510 0.06353 -0.01200
C 	C 	0.09030 0.29850 0.47411 0.06800
C 	C 	0.07040 0.78260 0.59528 -0.02500
C 	C 	0.81760 0.91540 0.86560 -0.01500
C 	C 	0.12470 0.71500 0.36300 -0.00200
C 	C 	0.31580 0.62620 0.14547 -0.00500
C 	C 	0.07290 0.27290 0.36227 0.00100
C 	C 	0.96590 0.32980 0.58180 -0.00700
C 	C 	0.51350 0.85400 0.93993 -0.01600
C 	C 	0.75590 0.36940 0.01260 0.01400
C 	C 	0.57290 0.22710 0.63773 0.00100
C 	C 	0.64460 0.69220 0.09379 -0.01600
C 	C 	0.02400 0.33510 0.43647 -0.01200
C 	C 	0.45770 0.23510 0.28620 -0.01000
C 	C 	0.77370 0.41280 0.02140 -0.02900
C 	C 	0.40460 0.96660 0.92510 -0.01000
C 	C 	0.08500 0.97840 0.39797 0.11000
C 	C 	0.96860 0.72210 0.70837 0.07100
C 	C 	0.12690 0.62440 0.04850 -0.00200
C 	C 	0.33280 0.30600 0.54634 0.08000
C 	C 	0.33150 0.41230 0.66872 0.09500
C 	C 	0.33130 0.17950 0.18006 0.08300
C 	C 	0.48930 0.30790 0.85310 -0.01300
C 	C 	0.08720 0.96500 0.32250 -0.04200
C 	C 	0.94970 0.27190 0.93290 -0.00400
C 	C 	0.38230 0.63110 0.79892 -0.01900
C 	C 	0.27370 0.08720 0.97860 -0.02900
C 	C 	0.01490 0.26010 0.33634 -0.01700
C 	C 	0.59270 0.26720 0.09292 0.08100
C 	C 	0.51560 0.34730 0.19823 -0.01200
C 	C 	0.43520 0.49740 0.81580 -0.00100
C 	C 	0.05220 0.76990 0.45640 -0.01500
C 	C 	0.71740 0.43600 0.29540 -0.01100
C 	C 	0.09300 0.74050 0.49520 0.14600
C 	C 	0.74410 0.63060 0.51260 0.01400
C 	C 	0.75250 0.88540 0.23768 0.08200
C 	C 	0.53410 0.67020 0.08180 -0.00800
C 	C 	0.68130 0.82070 0.67417 0.10000
C 	C 	0.81870 0.17930 0.17417 0.10000
C 	C 	0.01350 0.64600 0.06007 -0.01200
C 	C 	0.45810 0.45560 0.82590 -0.01200
C 	C 	0.03860 0.29860 0.70290 -0.00300
C 	C 	0.39110 0.90700 0.20420 -0.00300
C 	C 	0.51490 0.23990 0.66366 -0.01500
C 	C 	0.10890 0.09300 0.70420 -0.00200
C 	C 	0.98510 0.76010 0.16366 -0.01700
C 	C 	0.48600 0.46190 0.59340 -0.01300
C 	C 	0.85540 0.30780 0.59379 -0.01700
C 	C 	0.60540 0.04270 0.48730 -0.00600
C 	C 	0.06950 0.56140 0.64267 -0.01500
C 	C 	0.37310 0.37560 0.54850 -0.00100
C 	C 	0.48650 0.35400 0.56007 -0.01600
C 	C 	0.98030 0.86220 0.03982 -0.00500
C 	C 	0.87530 0.21500 0.13700 -0.00200
C 	C 	0.88170 0.45280 0.20580 0.00200
C 	C 	0.72840 0.15850 0.70159 0.00000
C 	C 	0.95770 0.26490 0.71380 -0.01200
C 	C 	0.62470 0.78500 0.63700 -0.00100
C 	C 	0.51400 0.96190 0.90660 -0.01300
C 	C 	0.37530 0.28500 0.86300 -0.00100
C 	C 	0.53410 0.78820 0.86892 0.07900
C 	C 	0.55030 0.72810 0.43290 -0.00400
C 	C 	0.46860 0.77790 0.29163 0.07100
C 	C 	0.16850 0.58770 0.16872 0.09500
C 	C 	0.47600 0.66490 0.93647 -0.01200
C 	C 	0.90970 0.79850 0.02589 0.06800
C 	C 	0.96140 0.79860 0.79710 -0.00300
C 	C 	0.93050 0.06140 0.85733 -0.01500
C 	C 	0.43050 0.74430 0.53100 -0.02000
C 	C 	0.84840 0.62320 0.54980 0.13300
C 	C 	0.95130 0.15500 0.25406 0.09500
C 	C 	0.88230 0.86890 0.20108 -0.01900
C 	C 	0.41280 0.03500 0.82250 -0.03900
C 	C 	0.95730 0.99530 0.97800 -0.00600
C 	C 	0.11830 0.95280 0.29420 0.00200
C 	C 	0.03140 0.22210 0.79163 0.07100
C 	C 	0.04190 0.54440 0.32590 -0.00800
C 	C 	0.42960 0.21740 0.09528 -0.02400
C 	C 	0.18420 0.37380 0.64547 -0.00500
C 	C 	0.44970 0.22810 0.06710 -0.00400
C 	C 	0.97130 0.67570 0.67321 -0.00700
C 	C 	0.95810 0.04440 0.17410 -0.00800
C 	C 	0.35540 0.19220 0.40621 -0.01600
C 	C 	0.72630 0.58720 0.52140 -0.02900
C 	C 	0.83280 0.19400 0.45366 0.08000
C 	C 	0.09730 0.52290 0.60444 0.07500
C 	C 	0.52870 0.32430 0.17321 -0.00700
C 	C 	0.61830 0.54720 0.70580 0.00200
C 	C 	0.42710 0.72710 0.86227 0.00100
C 	C 	0.89460 0.95730 0.98730 -0.00500
C 	C 	0.83150 0.08770 0.33128 0.09500
C 	C 	0.67050 0.25660 0.28879 0.08000
C 	C 	0.90700 0.24050 0.00480 0.14600
C 	C 	0.95400 0.56700 0.62547 -0.00300
C 	C 	0.47130 0.82430 0.32679 -0.00700
C 	C 	0.96120 0.36510 0.84471 -0.01900
C 	C 	0.61850 0.32550 0.71863 -0.01400
C 	C 	0.34840 0.87680 0.45020 0.13300
C 	C 	0.46590 0.17020 0.41820 -0.00800
C 	C 	0.90460 0.53340 0.07490 -0.01300
C 	C 	0.45400 0.93300 0.37453 -0.00600
C 	C 	0.46140 0.70140 0.20290 -0.00500
C 	C 	0.11850 0.17450 0.28137 -0.01700
C 	C 	0.93050 0.75570 0.46900 -0.02000
C 	C 	0.18130 0.67930 0.32583 0.10000
C 	C 	0.44780 0.23010 0.95640 -0.01500
C 	C 	0.16870 0.82050 0.68006 0.08300
C 	C 	0.89110 0.59300 0.79580 -0.00200
C 	C 	0.45730 0.50470 0.02200 -0.00500
C 	C 	0.40700 0.25950 0.99520 0.14600
C 	C 	0.47700 0.95950 0.71709 0.10400
C 	C 	0.52400 0.16490 0.56353 -0.01200
C 	C 	0.25250 0.61460 0.76232 0.08200
C 	C 	0.48510 0.73990 0.83634 -0.01500
C 	C 	0.04600 0.06700 0.87453 -0.00300
C 	C 	0.68240 0.08460 0.36560 -0.01500
C 	C 	0.66850 0.91230 0.83128 0.09500
C 	C 	0.38170 0.04720 0.79420 0.00200
C 	C 	0.81580 0.87380 0.85453 -0.00500
C 	C 	0.06480 0.50260 0.31580 -0.00200
C 	C 	0.40730 0.76720 0.40708 0.08100
C 	C 	0.03880 0.86510 0.65529 -0.01900
C 	C 	0.09540 0.03340 0.42510 -0.01300
C 	C 	0.51070 0.80790 0.64690 -0.01300
C 	C 	0.91280 0.46500 0.17750 -0.04200
C 	C 	0.09270 0.23280 0.90708 0.08100
C 	C 	0.45760 0.05890 0.45421 0.07400
C 	C 	0.96590 0.21180 0.36892 0.08100
C 	C 	0.22840 0.34150 0.29841 0.00000
C 	C 	0.11770 0.36890 0.29892 -0.01900
C 	C 	0.16720 0.69400 0.04634 0.08000
C 	C 	0.54600 0.43300 0.12547 -0.00600
C 	C 	0.14460 0.80780 0.90621 -0.01700
C 	C 	0.04240 0.94110 0.95421 0.07500
C 	C 	0.98930 0.19210 0.14690 -0.01000
C 	C 	0.39460 0.54270 0.01270 -0.00600
C 	C 	0.74940 0.38670 0.26410 0.10500
C 	C 	0.41500 0.02160 0.89797 0.11200
C 	C 	0.91500 0.47840 0.10203 0.11000
C 	C 	0.59540 0.46660 0.57490 -0.01000
C 	C 	0.95760 0.44110 0.54579 0.07500
C 	C 	0.31870 0.32070 0.82583 0.10000
C 	C 	0.56480 0.99740 0.68420 -0.00100
C 	C 	0.84190 0.30340 0.54739 0.09200
C 	C 	0.77160 0.84150 0.20159 0.00000
C 	C 	0.52300 0.45950 0.78291 0.10400
C 	C 	0.53860 0.20140 0.29710 -0.00500
C 	C 	0.05030 0.77190 0.56710 -0.00400
C 	C 	0.82960 0.66390 0.24447 -0.00700
C 	C 	0.46120 0.13490 0.15529 -0.01900
C 	C 	0.58720 0.53500 0.67750 -0.03900
C 	C 	0.17050 0.24340 0.71121 0.08000
C 	C 	0.74750 0.11460 0.73768 0.08200
C 	C 	0.92960 0.28260 0.90472 -0.02500
C 	C 	0.60050 0.03110 0.79574 0.09900
C 	C 	0.90730 0.73280 0.59292 0.08100
C 	C 	0.04870 0.65500 0.24594 0.09500
C 	C 	0.39950 0.53110 0.70426 0.09900
C 	C 	0.68420 0.12620 0.35453 -0.00500
C 	C 	0.25060 0.88670 0.23590 0.10500
C 	C 	0.98440 0.65270 0.69823 -0.01200
C 	C 	0.04270 0.49530 0.52200 -0.00600
C 	C 	0.46590 0.28820 0.63108 0.07900
C 	C 	0.24940 0.11330 0.73590 0.10500
C 	C 	0.56950 0.93860 0.35733 -0.01200
C 	C 	0.28260 0.93600 0.20460 -0.01100
C 	C 	0.24750 0.38540 0.26232 0.08200
C 	C 	0.54240 0.55890 0.04579 0.07400
C 	C 	0.90270 0.02290 0.89556 0.07500
C 	C 	0.04230 0.76490 0.78620 -0.01200
C 	C 	0.89950 0.96890 0.29574 0.10200
C 	C 	0.48030 0.63780 0.96018 -0.00500
C 	C 	0.75060 0.61330 0.76410 0.10500
C 	C 	0.65160 0.37680 0.04980 0.13300
C 	C 	0.97700 0.54050 0.28291 0.10100
C 	C 	0.10050 0.46890 0.20426 0.10200
C 	C 	0.01560 0.15270 0.80177 -0.01200
C 	C 	0.59300 0.75950 0.50480 0.14600
C 	C 	0.45130 0.34500 0.74594 0.09200
C 	C 	0.88150 0.67450 0.21863 -0.01700
C 	C 	0.10540 0.45730 0.51270 -0.00500
C 	C 	0.01400 0.53810 0.09340 -0.01000
C 	C 	0.65150 0.61300 0.33504 -0.00300
C 	C 	0.66870 0.67950 0.31994 0.08300
C 	C 	0.57040 0.71740 0.40472 -0.02400
C 	C 	0.02300 0.04050 0.21709 0.10100
C 	C 	0.54270 0.00470 0.47800 -0.00500
C 	C 	0.56950 0.24430 0.96900 -0.02000
C 	C 	0.17040 0.16390 0.25553 -0.00700
C 	C 	0.51970 0.13780 0.53982 -0.00500
C 	C 	0.40270 0.47710 0.10444 0.07600
C 	C 	0.40970 0.70150 0.97411 0.06800
C 	C 	0.18240 0.41540 0.63440 -0.01500
C 	C 	0.78260 0.56400 0.79540 -0.01100
C 	C 	0.01970 0.36220 0.46018 -0.00500
C 	C 	0.24410 0.86940 0.48740 0.01400
C 	C 	0.15160 0.12320 0.95020 0.13300
C 	C 	0.22630 0.91280 0.47860 -0.02900
C 	C 	0.32950 0.75660 0.21121 0.08000
N 	N 	0.45060 0.33095 0.82940 -0.29500
N 	N 	0.81660 0.58320 0.54404 -0.30600
N 	N 	0.77780 0.05946 0.35003 -0.28700
N 	N 	0.69210 0.57768 0.77477 -0.29100
N 	N 	0.93520 0.65121 0.26284 -0.29600
N 	N 	0.54930 0.07738 0.47256 -0.28700
N 	N 	0.87290 0.62411 0.77541 -0.29800
N 	N 	0.99940 0.45580 0.22191 -0.30000
N 	N 	0.04090 0.21976 0.82096 -0.29400
N 	N 	0.83730 0.03352 0.87099 -0.29400
N 	N 	0.22310 0.79035 0.92843 -0.29000
N 	N 	0.19210 0.92232 0.22523 -0.29100
N 	N 	0.03780 0.69044 0.05842 -0.28400
N 	N 	0.47650 0.74210 0.38821 -0.29000
N 	N 	0.03630 0.23440 0.00458 -0.30700
N 	N 	0.06180 0.47301 0.17655 -0.29200
N 	N 	0.02200 0.49980 0.28837 -0.29900
N 	N 	0.54750 0.67860 0.33506 -0.28700
N 	N 	0.43980 0.66076 0.98400 -0.29500
N 	N 	0.76690 0.20678 0.15448 -0.29600
N 	N 	0.98820 0.56888 0.30399 -0.30200
N 	N 	0.27690 0.20965 0.42843 -0.29100
N 	N 	0.98140 0.68237 0.72070 -0.28800
N 	N 	0.18340 0.08320 0.95596 -0.30600
N 	N 	0.50060 0.54420 0.72191 -0.29900
N 	N 	0.49940 0.04420 0.77809 -0.29900
N 	N 	0.23540 0.85931 0.68081 -0.29200
N 	N 	0.68310 0.34580 0.03122 -0.31200
N 	N 	0.97640 0.16996 0.28053 -0.29300
N 	N 	0.04400 0.82741 0.94762 -0.29200
N 	N 	0.00060 0.95580 0.27809 -0.30000
N 	N 	0.95770 0.72954 0.78157 -0.29000
N 	N 	0.52200 0.00020 0.71163 -0.30100
N 	N 	0.47310 0.49886 0.60947 -0.29600
N 	N 	0.78130 0.12886 0.33293 -0.29700
N 	N 	0.18990 0.64891 0.77508 -0.29500
N 	N 	0.43300 0.70577 0.94544 -0.29500
N 	N 	0.76460 0.35931 0.81919 -0.29200
N 	N 	0.80790 0.42232 0.27477 -0.29100
N 	N 	0.22220 0.55946 0.14997 -0.28700
N 	N 	0.04930 0.42262 0.52744 -0.28800
N 	N 	0.95910 0.71976 0.67904 -0.29400
N 	N 	0.97650 0.75790 0.61179 -0.29000
N 	N 	0.73310 0.79322 0.65448 -0.29600
N 	N 	0.16210 0.99408 0.41912 -0.30100
N 	N 	0.12710 0.12411 0.72459 -0.29800
N 	N 	0.55350 0.26010 0.06485 -0.29300
N 	N 	0.77690 0.29035 0.57157 -0.29000
N 	N 	0.94690 0.22046 0.34066 -0.28800
N 	N 	0.30790 0.07768 0.72523 -0.29100
N 	N 	0.33790 0.00592 0.91912 -0.30100
N 	N 	0.96220 0.19044 0.44158 -0.28400
N 	N 	0.37290 0.87589 0.22459 -0.29800
N 	N 	0.45070 0.57738 0.02744 -0.28800
N 	N 	0.56180 0.02699 0.82345 -0.29300
N 	N 	0.72220 0.94054 0.85003 -0.28700
N 	N 	0.93820 0.97301 0.32345 -0.29200
N 	N 	0.96050 0.74237 0.11734 -0.29200
N 	N 	0.66210 0.50592 0.58088 -0.30100
N 	N 	0.04990 0.98571 0.95706 -0.28700
N 	N 	0.23310 0.70678 0.34552 -0.29600
N 	N 	0.06700 0.29423 0.44544 -0.29500
N 	N 	0.26460 0.14069 0.18081 -0.29300
N 	N 	0.71870 0.87114 0.83293 -0.29700
N 	N 	0.43520 0.84879 0.73716 -0.29500
N 	N 	0.72040 0.84544 0.95996 -0.28900
N 	N 	0.31660 0.91680 0.45596 -0.30600
N 	N 	0.45010 0.01429 0.45706 -0.28700
N 	N 	0.51860 0.31763 0.22070 -0.28900
N 	N 	0.48140 0.81763 0.27930 -0.28900
N 	N 	0.96370 0.73440 0.49542 -0.30700
N 	N 	0.47640 0.33004 0.71947 -0.29400
N 	N 	0.56480 0.34879 0.76284 -0.29500
N 	N 	0.47800 0.50020 0.78837 -0.30100
N 	N 	0.66240 0.74490 0.52718 -0.31000
N 	N 	0.46220 0.30956 0.55842 -0.28400
N 	N 	0.53780 0.80956 0.94158 -0.28400
N 	N 	0.01180 0.06888 0.19601 -0.30200
N 	N 	0.45600 0.17259 0.44762 -0.29200
N 	N 	0.52350 0.24210 0.11179 -0.29000
N 	N 	0.63170 0.10166 0.72386 -0.29100
N 	N 	0.54230 0.27046 0.28157 -0.29100
N 	N 	0.27780 0.44054 0.64997 -0.28700
N 	N 	0.05310 0.72046 0.15934 -0.28800
N 	N 	0.05350 0.23990 0.93515 -0.29300
N 	N 	0.43820 0.52699 0.67655 -0.29300
N 	N 	0.95060 0.16905 0.17060 -0.29500
N 	N 	0.32600 0.71451 0.20214 -0.29400
N 	N 	0.04230 0.22954 0.71843 -0.29000
N 	N 	0.21870 0.62886 0.16707 -0.29700
N 	N 	0.54990 0.51429 0.04294 -0.28700
N 	N 	0.95600 0.32741 0.55238 -0.29200
N 	N 	0.52730 0.45759 0.10093 -0.28700
N 	N 	0.77960 0.15456 0.45996 -0.28800
N 	N 	0.81690 0.65420 0.53122 -0.31200
N 	N 	0.46050 0.75763 0.88266 -0.29100
N 	N 	0.81010 0.14891 0.72492 -0.29500
N 	N 	0.66270 0.96648 0.37099 -0.29500
N 	N 	0.02350 0.25790 0.88821 -0.29000
N 	N 	0.54090 0.28024 0.17904 -0.29400
N 	N 	0.36830 0.60166 0.77614 -0.29100
N 	N 	0.52690 0.99886 0.89053 -0.29600
N 	N 	0.95250 0.32140 0.83506 -0.28800
N 	N 	0.52360 0.83004 0.78053 -0.29400
N 	N 	0.27960 0.34544 0.54004 -0.28900
N 	N 	0.45770 0.77046 0.21843 -0.29100
N 	N 	0.55310 0.77954 0.84066 -0.28800
N 	N 	0.53950 0.25763 0.61734 -0.29100
N 	N 	0.45910 0.78024 0.32096 -0.29400
N 	N 	0.51180 0.43112 0.80399 -0.30100
N 	N 	0.48820 0.93112 0.69601 -0.30100
N 	N 	0.46370 0.76560 0.50458 -0.30700
N 	N 	0.56700 0.20577 0.55456 -0.29500
N 	N 	0.04940 0.66905 0.32940 -0.29500
N 	N 	0.33730 0.46648 0.12901 -0.29500
N 	N 	0.97310 0.00114 0.39053 -0.29500
N 	N 	0.54940 0.83095 0.67060 -0.29500
N 	N 	0.28130 0.37114 0.66707 -0.29700
N 	N 	0.03950 0.24237 0.38266 -0.29200
N 	N 	0.97270 0.54241 0.60093 -0.28600
N 	N 	0.44690 0.27954 0.65934 -0.28800
N 	N 	0.16240 0.75510 0.47282 -0.31000
N 	N 	0.22040 0.65456 0.04004 -0.28800
N 	N 	0.93980 0.83924 0.01600 -0.29500
N 	N 	0.54400 0.67259 0.05238 -0.29200
N 	N 	0.83760 0.25510 0.02718 -0.31000
N 	N 	0.73540 0.64069 0.31919 -0.29300
N 	N 	0.02360 0.66996 0.21947 -0.29300
N 	N 	0.82600 0.78549 0.79786 -0.29500
N 	N 	0.72310 0.70965 0.07157 -0.29100
N 	N 	0.53630 0.26560 0.99542 -0.30700
N 	N 	0.02690 0.50114 0.10947 -0.29500
N 	N 	0.95010 0.48571 0.54294 -0.28700
N 	N 	0.83790 0.49408 0.08088 -0.30100
N 	N 	0.06480 0.15121 0.23716 -0.29600
N 	N 	0.47270 0.95759 0.39907 -0.28700
N 	N 	0.45250 0.17860 0.16494 -0.28700
N 	N 	0.17400 0.28549 0.70214 -0.29500
N 	N 	0.13170 0.39834 0.27614 -0.29100
N 	N 	0.86830 0.89834 0.22386 -0.29100
N 	N 	0.16270 0.53352 0.62901 -0.29400
N 	N 	0.95070 0.92262 0.97256 -0.28800
N 	N 	0.68340 0.41680 0.04404 -0.30600
N 	N 	0.94650 0.73990 0.56485 -0.29300
N 	N 	0.68990 0.85109 0.22492 -0.29400
N 	N 	0.97800 0.99980 0.21163 -0.29900
N 	N 	0.67400 0.21451 0.29786 -0.29400
N 	N 	0.62710 0.37589 0.27541 -0.29800
N 	N 	0.26690 0.29322 0.84552 -0.29600
N 	N 	0.33760 0.24490 0.97282 -0.31000
N 	N 	0.93300 0.79423 0.05456 -0.29500
N 	N 	0.56020 0.16076 0.51600 -0.29500
N 	N 	0.01860 0.18237 0.77930 -0.28800
N 	N 	0.18310 0.15420 0.96878 -0.31200
N 	N 	0.31010 0.35109 0.27508 -0.29400
N 	N 	0.06020 0.33924 0.48400 -0.29500
N 	N 	0.02730 0.04241 0.89907 -0.28600
N 	N 	0.44650 0.76010 0.43515 -0.29300
N 	N 	0.31690 0.84580 0.46878 -0.31200
N 	N 	0.04750 0.82140 0.66494 -0.28800
