data_crystal

_cell_length_a 13.84740
_cell_length_b 32.65300
_cell_length_c 18.53430
_cell_angle_alpha 101.24200
_cell_angle_beta  90.00000
_cell_angle_gamma 90.00000

_symmetry_space_group_name_	'P 1'
_symmetry_space_group_name_H-M	'P 1'

loop_
_symmetry_equiv_pos_as_xyz
  x,y,z

loop_
_atom_site_label
_atom_site_type_symbol
_atom_site_fract_x
_atom_site_fract_y
_atom_site_fract_z
_atom_site_charge
Cu	Cu	0.33685 0.70809 0.30902 0.91800
Cu	Cu	0.67492 0.70395 0.56259 0.91800
Cu	Cu	0.00351 0.49331 0.75374 0.93700
Cu	Cu	0.17105 0.80121 0.49270 0.89800
Cu	Cu	0.82442 0.80729 0.73756 0.89800
Cu	Cu	0.83685 0.79191 0.19098 0.91800
Cu	Cu	0.17492 0.79605 0.93741 0.92100
Cu	Cu	0.50351 0.00669 0.74626 0.93700
Cu	Cu	0.67105 0.69879 0.00730 0.88800
Cu	Cu	0.32442 0.69271 0.76244 0.89800
Cu	Cu	0.66315 0.29191 0.69098 0.91900
Cu	Cu	0.32508 0.29605 0.43741 0.91900
Cu	Cu	0.99649 0.50669 0.24626 0.94800
Cu	Cu	0.82895 0.19879 0.50730 0.89800
Cu	Cu	0.17558 0.19271 0.26244 0.89700
Cu	Cu	0.16315 0.20809 0.80902 0.91900
Cu	Cu	0.82508 0.20395 0.06259 0.91600
Cu	Cu	0.49649 0.99331 0.25374 0.95100
Cu	Cu	0.32895 0.30121 0.99270 0.90800
Cu	Cu	0.67558 0.30729 0.23756 0.89700
Cu	Cu	0.00000 0.50000 0.50000 0.94100
Cu	Cu	0.50000 0.00000 -0.00000 0.92900
Cu	Cu	0.50000 0.00000 0.50000 0.93700
Cu	Cu	-0.00000 0.50000 -0.00000 0.93100
H 	H 	0.91260 0.59860 0.39690 0.30800
H 	H 	0.99260 0.59330 0.33470 0.28300
H 	H 	0.00730 0.62630 0.40880 0.29700
H 	H 	0.30910 0.54950 0.51310 0.28900
H 	H 	0.31490 0.54350 0.42630 0.28500
H 	H 	0.30600 0.50410 0.46390 0.29300
H 	H 	0.24310 0.62690 0.49120 0.12100
H 	H 	0.16850 0.57110 0.28660 0.13600
H 	H 	0.25030 0.62340 0.24330 -0.03100
H 	H 	0.32330 0.67710 0.44390 -0.00300
H 	H 	0.28710 0.77700 0.21820 0.05100
H 	H 	0.37820 0.82610 0.17370 0.04700
H 	H 	0.63030 0.82400 0.43290 0.04500
H 	H 	0.72410 0.77680 0.47980 0.05200
H 	H 	0.69140 0.67570 0.70130 -0.00700
H 	H 	0.75470 0.61870 0.50140 -0.03100
H 	H 	0.83320 0.56560 0.54500 0.13800
H 	H 	0.76320 0.62390 0.75020 0.12100
H 	H 	0.69670 0.50320 0.73430 0.29200
H 	H 	0.68840 0.53770 0.68520 0.28100
H 	H 	0.69820 0.55120 0.77180 0.28600
H 	H 	0.09340 0.59100 0.64860 0.31800
H 	H 	0.00370 0.62120 0.66850 0.31700
H 	H 	0.00750 0.58980 0.59170 0.30000
H 	H 	0.22280 0.72530 0.56650 0.04600
H 	H 	0.13550 0.67060 0.59630 0.03100
H 	H 	0.17760 0.81620 0.34060 -0.01000
H 	H 	0.26250 0.88360 0.52850 -0.05500
H 	H 	0.24900 0.86260 0.27700 0.13200
H 	H 	0.33760 0.93100 0.46780 0.15200
H 	H 	0.18970 0.98210 0.26900 0.30000
H 	H 	0.18140 0.95270 0.32720 0.29000
H 	H 	0.18970 0.93300 0.24230 0.29400
H 	H 	0.57530 0.88540 0.34070 0.33100
H 	H 	0.47510 0.87210 0.37040 0.32200
H 	H 	0.53660 0.90840 0.41850 0.30500
H 	H 	0.27590 0.77220 0.69540 0.04400
H 	H 	0.36950 0.82300 0.65710 0.03400
H 	H 	0.82250 0.82440 0.58650 -0.01800
H 	H 	0.75010 0.87040 0.52330 0.13300
H 	H 	0.73290 0.88900 0.77390 -0.05300
H 	H 	0.65980 0.93720 0.71500 0.15100
H 	H 	0.80990 0.94510 0.49440 0.29500
H 	H 	0.81400 0.96250 0.58030 0.29300
H 	H 	0.80590 0.99390 0.52530 0.30200
H 	H 	0.47570 0.90950 0.66430 0.30000
H 	H 	0.51890 0.87470 0.60090 0.31500
H 	H 	0.41730 0.89500 0.59020 0.31500
H 	H 	0.41260 0.90140 0.10310 0.32900
H 	H 	0.49260 0.90670 0.16530 0.30500
H 	H 	0.50730 0.87370 0.09120 0.32500
H 	H 	0.80910 0.95050 0.98690 0.34600
H 	H 	0.81490 0.95650 0.07370 0.32400
H 	H 	0.80600 0.99590 0.03610 0.33300
H 	H 	0.74310 0.87310 0.00880 0.11700
H 	H 	0.66850 0.92890 0.21340 0.14300
H 	H 	0.75030 0.87660 0.25670 -0.03000
H 	H 	0.82330 0.82290 0.05610 -0.01100
H 	H 	0.78710 0.72300 0.28180 0.05300
H 	H 	0.87820 0.67390 0.32630 0.04600
H 	H 	0.13030 0.67600 0.06710 0.03900
H 	H 	0.22410 0.72320 0.02020 0.05300
H 	H 	0.19140 0.82430 0.79870 -0.00700
H 	H 	0.25470 0.88130 0.99860 -0.02400
H 	H 	0.33320 0.93440 0.95500 0.14400
H 	H 	0.26320 0.87610 0.74980 0.11800
H 	H 	0.19670 0.99680 0.76570 0.29600
H 	H 	0.18840 0.96230 0.81480 0.28400
H 	H 	0.19820 0.94880 0.72820 0.28500
H 	H 	0.59340 0.90900 0.85140 0.31300
H 	H 	0.50370 0.87880 0.83150 0.31100
H 	H 	0.50750 0.91020 0.90830 0.30000
H 	H 	0.72280 0.77470 0.93350 0.04800
H 	H 	0.63550 0.82940 0.90370 0.03600
H 	H 	0.67760 0.68380 0.15940 -0.00800
H 	H 	0.76250 0.61640 0.97150 -0.02000
H 	H 	0.74900 0.63740 0.22300 0.13100
H 	H 	0.83760 0.56900 0.03220 0.13400
H 	H 	0.68970 0.51790 0.23100 0.29500
H 	H 	0.68140 0.54730 0.17280 0.28600
H 	H 	0.68970 0.56700 0.25770 0.29500
H 	H 	0.07530 0.61460 0.15930 0.34700
H 	H 	0.97510 0.62790 0.12960 0.34400
H 	H 	0.03660 0.59160 0.08150 0.31600
H 	H 	0.77590 0.72780 0.80460 0.04300
H 	H 	0.86950 0.67700 0.84290 0.03800
H 	H 	0.32250 0.67560 0.91350 -0.01200
H 	H 	0.25010 0.62960 0.97670 0.13600
H 	H 	0.23290 0.61100 0.72610 -0.05400
H 	H 	0.15980 0.56280 0.78500 0.14300
H 	H 	0.30990 0.55490 0.00560 0.24200
H 	H 	0.31400 0.53750 0.91970 0.25600
H 	H 	0.30590 0.50610 0.97470 0.26600
H 	H 	0.97570 0.59050 0.83570 0.27000
H 	H 	0.01890 0.62530 0.89910 0.27600
H 	H 	0.91730 0.60500 0.90980 0.28600
H 	H 	0.08740 0.40140 0.60310 0.35900
H 	H 	0.00740 0.40670 0.66530 0.32800
H 	H 	0.99270 0.37370 0.59120 0.36400
H 	H 	0.69090 0.45050 0.48690 0.29500
H 	H 	0.68510 0.45650 0.57370 0.29200
H 	H 	0.69400 0.49590 0.53610 0.29900
H 	H 	0.75690 0.37310 0.50880 0.12500
H 	H 	0.83150 0.42890 0.71340 0.14100
H 	H 	0.74970 0.37660 0.75670 -0.03000
H 	H 	0.67670 0.32290 0.55610 -0.00500
H 	H 	0.71290 0.22300 0.78180 0.05300
H 	H 	0.62180 0.17390 0.82630 0.04800
H 	H 	0.36970 0.17600 0.56710 0.04500
H 	H 	0.27590 0.22320 0.52020 0.05100
H 	H 	0.30860 0.32430 0.29870 -0.00600
H 	H 	0.24530 0.38130 0.49860 -0.03100
H 	H 	0.16680 0.43440 0.45500 0.13500
H 	H 	0.23680 0.37610 0.24980 0.11600
H 	H 	0.30330 0.49680 0.26570 0.28500
H 	H 	0.31160 0.46230 0.31480 0.27500
H 	H 	0.30180 0.44880 0.22820 0.27800
H 	H 	0.90660 0.40900 0.35140 0.29800
H 	H 	0.99630 0.37880 0.33150 0.30200
H 	H 	0.99250 0.41020 0.40830 0.28600
H 	H 	0.77720 0.27470 0.43350 0.04400
H 	H 	0.86450 0.32940 0.40370 0.03400
H 	H 	0.82240 0.18380 0.65940 -0.00800
H 	H 	0.73750 0.11640 0.47150 -0.05500
H 	H 	0.75100 0.13740 0.72300 0.13400
H 	H 	0.66240 0.06900 0.53220 0.14600
H 	H 	0.81030 0.01790 0.73100 0.29300
H 	H 	0.81860 0.04730 0.67280 0.28500
H 	H 	0.81030 0.06700 0.75770 0.29600
H 	H 	0.42470 0.11460 0.65930 0.33100
H 	H 	0.52490 0.12790 0.62960 0.32200
H 	H 	0.46340 0.09160 0.58150 0.30400
H 	H 	0.72410 0.22780 0.30460 0.04500
H 	H 	0.63050 0.17700 0.34290 0.03400
H 	H 	0.17750 0.17560 0.41350 -0.01800
H 	H 	0.24990 0.12960 0.47670 0.13100
H 	H 	0.26710 0.11100 0.22610 -0.05700
H 	H 	0.34020 0.06280 0.28500 0.14300
H 	H 	0.19010 0.05490 0.50560 0.28000
H 	H 	0.18600 0.03750 0.41970 0.27500
H 	H 	0.19410 0.00610 0.47470 0.28000
H 	H 	0.52430 0.09050 0.33570 0.29900
H 	H 	0.48110 0.12530 0.39910 0.31500
H 	H 	0.58270 0.10500 0.40980 0.31400
H 	H 	0.58740 0.09860 0.89690 0.33500
H 	H 	0.50740 0.09330 0.83470 0.30400
H 	H 	0.49270 0.12630 0.90880 0.33300
H 	H 	0.19090 0.04950 0.01310 0.24300
H 	H 	0.18510 0.04350 0.92630 0.25600
H 	H 	0.19400 0.00410 0.96390 0.26200
H 	H 	0.25690 0.12690 0.99120 0.12800
H 	H 	0.33150 0.07110 0.78660 0.13400
H 	H 	0.24970 0.12340 0.74330 -0.03100
H 	H 	0.17670 0.17710 0.94390 0.00100
H 	H 	0.21290 0.27700 0.71820 0.05100
H 	H 	0.12180 0.32610 0.67370 0.04900
H 	H 	0.86970 0.32400 0.93290 0.05200
H 	H 	0.77590 0.27680 0.97980 0.04800
H 	H 	0.80860 0.17570 0.20130 -0.00600
H 	H 	0.74530 0.11870 0.00140 -0.03800
H 	H 	0.66680 0.06560 0.04500 0.13000
H 	H 	0.73680 0.12390 0.25020 0.11800
H 	H 	0.80330 0.00320 0.23430 0.28000
H 	H 	0.81160 0.03770 0.18520 0.27100
H 	H 	0.80180 0.05120 0.27180 0.27800
H 	H 	0.40660 0.09100 0.14860 0.30200
H 	H 	0.49630 0.12120 0.16850 0.30600
H 	H 	0.49250 0.08980 0.09170 0.28500
H 	H 	0.27720 0.22530 0.06650 0.04300
H 	H 	0.36450 0.17060 0.09630 0.03000
H 	H 	0.32240 0.31620 0.84060 -0.01000
H 	H 	0.23750 0.38360 0.02850 -0.08400
H 	H 	0.25100 0.36260 0.77700 0.13400
H 	H 	0.16240 0.43100 0.96780 0.16000
H 	H 	0.31030 0.48210 0.76900 0.29500
H 	H 	0.31860 0.45270 0.82720 0.28700
H 	H 	0.31030 0.43300 0.74230 0.29300
H 	H 	0.92470 0.38540 0.84070 0.30500
H 	H 	0.02490 0.37210 0.87040 0.28600
H 	H 	0.96340 0.40840 0.91850 0.28600
H 	H 	0.22410 0.27220 0.19540 0.04500
H 	H 	0.13050 0.32300 0.15710 0.03200
H 	H 	0.67750 0.32440 0.08650 -0.02400
H 	H 	0.74990 0.37040 0.02330 0.12700
H 	H 	0.76710 0.38900 0.27390 -0.05600
H 	H 	0.84020 0.43720 0.21500 0.15000
H 	H 	0.69010 0.44510 0.99440 0.33800
H 	H 	0.68600 0.46250 0.08030 0.31300
H 	H 	0.69410 0.49390 0.02530 0.31800
H 	H 	0.02430 0.40950 0.16430 0.31700
H 	H 	0.98110 0.37470 0.10090 0.33800
H 	H 	0.08270 0.39500 0.09020 0.33100
C 	C 	0.98140 0.59901 0.38740 -0.87800
C 	C 	0.03070 0.56622 0.42100 0.46500
C 	C 	0.13250 0.56346 0.42600 -0.44500
C 	C 	0.17930 0.53545 0.46320 0.50500
C 	C 	0.28670 0.53290 0.46700 -0.91800
C 	C 	0.19270 0.59410 0.39440 0.26900
C 	C 	0.24210 0.62593 0.44020 -0.27300
C 	C 	0.19790 0.59299 0.31990 -0.29100
C 	C 	0.24690 0.62448 0.29430 0.14600
C 	C 	0.28970 0.65605 0.41170 0.14300
C 	C 	0.53450 0.71825 0.30400 0.29600
C 	C 	0.49360 0.75198 0.26770 -0.02100
C 	C 	0.35450 0.77777 0.22460 0.02000
C 	C 	0.40950 0.80753 0.19890 0.00600
C 	C 	0.54680 0.78312 0.24320 -0.00200
C 	C 	0.65360 0.79007 0.25430 0.31900
C 	C 	0.35350 0.77148 0.47760 0.33700
C 	C 	0.46150 0.77311 0.48500 -0.01700
C 	C 	0.51710 0.74457 0.51400 -0.01500
C 	C 	0.59940 0.80380 0.45460 0.00800
C 	C 	0.65640 0.77542 0.48190 0.01700
C 	C 	0.47740 0.71036 0.55000 0.29400
C 	C 	0.72190 0.65353 0.66940 0.15000
C 	C 	0.75960 0.62025 0.55240 0.15100
C 	C 	0.80660 0.58831 0.57810 -0.29300
C 	C 	0.76570 0.62293 0.69920 -0.28200
C 	C 	0.81370 0.59063 0.65360 0.28000
C 	C 	0.71770 0.53080 0.72890 -0.90800
C 	C 	0.82550 0.53127 0.72170 0.51300
C 	C 	0.87240 0.55928 0.68380 -0.46600
C 	C 	0.97360 0.56084 0.67710 0.52100
C 	C 	0.02410 0.59362 0.64350 -0.96200
C 	C 	0.98000 0.77798 0.46470 0.32600
C 	C 	0.02120 0.74554 0.50380 -0.05000
C 	C 	0.15690 0.72260 0.55460 0.01600
C 	C 	0.10400 0.68990 0.57280 0.01300
C 	C 	0.96820 0.71307 0.52290 0.02300
C 	C 	0.86220 0.70511 0.50710 0.31500
C 	C 	0.21150 0.83938 0.36680 0.14900
C 	C 	0.26140 0.87870 0.47680 0.16200
C 	C 	0.25490 0.86694 0.32840 -0.29100
C 	C 	0.30700 0.90728 0.44040 -0.31500
C 	C 	0.30680 0.90068 0.36550 0.29300
C 	C 	0.21020 0.95580 0.28090 -0.92800
C 	C 	0.31800 0.95536 0.28750 0.51400
C 	C 	0.36540 0.92894 0.32750 -0.46500
C 	C 	0.46710 0.92691 0.33290 0.50700
C 	C 	0.51810 0.89538 0.36880 -0.95600
C 	C 	0.64450 0.77444 0.72130 0.34700
C 	C 	0.51730 0.71310 0.78740 0.29700
C 	C 	0.47890 0.74526 0.74650 -0.01900
C 	C 	0.53550 0.77539 0.72230 -0.01800
C 	C 	0.34310 0.77249 0.70280 0.02000
C 	C 	0.39960 0.80309 0.68000 0.00900
C 	C 	0.78710 0.84695 0.61290 0.16200
C 	C 	0.74380 0.87452 0.57470 -0.29900
C 	C 	0.73500 0.88475 0.72230 0.16800
C 	C 	0.69050 0.91373 0.68710 -0.31800
C 	C 	0.69140 0.90815 0.61240 0.29800
C 	C 	0.78660 0.96670 0.53420 -0.92800
C 	C 	0.67890 0.96469 0.53790 0.51800
C 	C 	0.63210 0.93644 0.57540 -0.46600
C 	C 	0.53040 0.93344 0.57890 0.49900
C 	C 	0.48120 0.90021 0.61150 -0.94200
C 	C 	0.48140 0.90099 0.11260 -0.96700
C 	C 	0.53070 0.93378 0.07900 0.51400
C 	C 	0.63250 0.93654 0.07400 -0.48000
C 	C 	0.67930 0.96455 0.03680 0.55100
C 	C 	0.78670 0.96710 0.03300 -1.04700
C 	C 	0.69270 0.90590 0.10560 0.28300
C 	C 	0.74210 0.87407 0.05980 -0.28500
C 	C 	0.69790 0.90701 0.18010 -0.30000
C 	C 	0.74690 0.87552 0.20570 0.15100
C 	C 	0.78970 0.84395 0.08830 0.14700
C 	C 	0.03450 0.78175 0.19600 0.27500
C 	C 	0.99360 0.74802 0.23230 0.00000
C 	C 	0.85450 0.72223 0.27540 0.01800
C 	C 	0.90950 0.69247 0.30110 0.01700
C 	C 	0.04680 0.71688 0.25680 -0.01600
C 	C 	0.15360 0.70993 0.24570 0.32300
C 	C 	0.85350 0.72852 0.02240 0.30600
C 	C 	0.96150 0.72689 0.01500 -0.01200
C 	C 	0.01710 0.75543 0.98600 -0.02300
C 	C 	0.09940 0.69620 0.04540 0.01400
C 	C 	0.15640 0.72458 0.01810 -0.00800
C 	C 	0.97740 0.78964 0.95000 0.32300
C 	C 	0.22190 0.84647 0.83060 0.14800
C 	C 	0.25960 0.87975 0.94760 0.15000
C 	C 	0.30660 0.91169 0.92190 -0.28900
C 	C 	0.26570 0.87707 0.80080 -0.27900
C 	C 	0.31370 0.90937 0.84640 0.27400
C 	C 	0.21770 0.96920 0.77110 -0.90600
C 	C 	0.32550 0.96873 0.77830 0.50900
C 	C 	0.37240 0.94072 0.81620 -0.45400
C 	C 	0.47360 0.93916 0.82290 0.49100
C 	C 	0.52410 0.90638 0.85650 -0.92900
C 	C 	0.48000 0.72202 0.03530 0.27500
C 	C 	0.52120 0.75446 0.99620 0.00400
C 	C 	0.65690 0.77740 0.94540 0.02500
C 	C 	0.60400 0.81010 0.92720 0.01200
C 	C 	0.46820 0.78693 0.97710 -0.01300
C 	C 	0.36220 0.79489 0.99290 0.35300
C 	C 	0.71150 0.66062 0.13320 0.14300
C 	C 	0.76140 0.62130 0.02320 0.10900
C 	C 	0.75490 0.63306 0.17160 -0.28400
C 	C 	0.80700 0.59272 0.05960 -0.28900
C 	C 	0.80680 0.59932 0.13450 0.28300
C 	C 	0.71020 0.54420 0.21910 -0.92600
C 	C 	0.81800 0.54464 0.21250 0.51500
C 	C 	0.86540 0.57106 0.17250 -0.47400
C 	C 	0.96710 0.57309 0.16710 0.53800
C 	C 	0.01810 0.60462 0.13120 -1.01900
C 	C 	0.14450 0.72556 0.77870 0.35600
C 	C 	0.01730 0.78690 0.71260 0.26600
C 	C 	0.97890 0.75474 0.75350 0.01400
C 	C 	0.03550 0.72461 0.77770 -0.04700
C 	C 	0.84310 0.72751 0.79720 0.02500
C 	C 	0.89960 0.69691 0.82000 0.00800
C 	C 	0.28710 0.65305 0.88710 0.15700
C 	C 	0.24380 0.62548 0.92530 -0.28600
C 	C 	0.23500 0.61525 0.77770 0.16100
C 	C 	0.19050 0.58627 0.81290 -0.30700
C 	C 	0.19140 0.59185 0.88760 0.28100
C 	C 	0.28660 0.53330 0.96580 -0.80800
C 	C 	0.17890 0.53531 0.96210 0.47200
C 	C 	0.13210 0.56356 0.92460 -0.42700
C 	C 	0.03040 0.56656 0.92110 0.43600
C 	C 	0.98120 0.59979 0.88850 -0.82600
C 	C 	0.01860 0.40099 0.61260 -1.06200
C 	C 	0.96930 0.43378 0.57900 0.55900
C 	C 	0.86750 0.43654 0.57400 -0.48400
C 	C 	0.82070 0.46455 0.53680 0.52500
C 	C 	0.71330 0.46710 0.53300 -0.93900
C 	C 	0.80730 0.40590 0.60560 0.28700
C 	C 	0.75790 0.37407 0.55980 -0.28500
C 	C 	0.80210 0.40701 0.68010 -0.30100
C 	C 	0.75310 0.37552 0.70570 0.15200
C 	C 	0.71030 0.34395 0.58830 0.15000
C 	C 	0.46550 0.28175 0.69600 0.29600
C 	C 	0.50640 0.24802 0.73230 -0.02100
C 	C 	0.64550 0.22223 0.77540 0.01900
C 	C 	0.59050 0.19247 0.80110 0.00900
C 	C 	0.45320 0.21688 0.75680 -0.00100
C 	C 	0.34640 0.20993 0.74570 0.31900
C 	C 	0.64650 0.22852 0.52240 0.33700
C 	C 	0.53850 0.22689 0.51500 -0.01700
C 	C 	0.48290 0.25543 0.48600 -0.01500
C 	C 	0.40060 0.19620 0.54540 0.00800
C 	C 	0.34360 0.22458 0.51810 0.01700
C 	C 	0.52260 0.28964 0.45000 0.29400
C 	C 	0.27810 0.34647 0.33060 0.14500
C 	C 	0.24040 0.37975 0.44760 0.14600
C 	C 	0.19340 0.41169 0.42190 -0.28800
C 	C 	0.23430 0.37707 0.30080 -0.27500
C 	C 	0.18630 0.40937 0.34640 0.26700
C 	C 	0.28230 0.46920 0.27110 -0.89000
C 	C 	0.17450 0.46873 0.27830 0.49800
C 	C 	0.12760 0.44072 0.31620 -0.44500
C 	C 	0.02640 0.43916 0.32290 0.46000
C 	C 	0.97590 0.40638 0.35650 -0.88800
C 	C 	0.02000 0.22202 0.53530 0.27000
C 	C 	0.97880 0.25446 0.49620 0.00600
C 	C 	0.84310 0.27740 0.44540 0.02400
C 	C 	0.89600 0.31010 0.42720 0.00800
C 	C 	0.03180 0.28693 0.47710 -0.03000
C 	C 	0.13780 0.29489 0.49290 0.32900
C 	C 	0.78850 0.16062 0.63320 0.14900
C 	C 	0.73860 0.12130 0.52320 0.16100
C 	C 	0.74510 0.13306 0.67160 -0.29000
C 	C 	0.69300 0.09272 0.55960 -0.31500
C 	C 	0.69320 0.09932 0.63450 0.29100
C 	C 	0.78980 0.04420 0.71910 -0.92400
C 	C 	0.68200 0.04464 0.71250 0.51000
C 	C 	0.63460 0.07106 0.67250 -0.46800
C 	C 	0.53290 0.07309 0.66710 0.50700
C 	C 	0.48190 0.10462 0.63120 -0.95700
C 	C 	0.35550 0.22556 0.27870 0.34800
C 	C 	0.48270 0.28690 0.21260 0.29700
C 	C 	0.52110 0.25474 0.25350 -0.01900
C 	C 	0.46450 0.22461 0.27770 -0.01800
C 	C 	0.65690 0.22751 0.29720 0.02000
C 	C 	0.60040 0.19691 0.32000 0.01000
C 	C 	0.21290 0.15305 0.38710 0.15900
C 	C 	0.25620 0.12548 0.42530 -0.29800
C 	C 	0.26500 0.11525 0.27770 0.16400
C 	C 	0.30950 0.08627 0.31290 -0.31700
C 	C 	0.30860 0.09185 0.38760 0.29400
C 	C 	0.21340 0.03330 0.46580 -0.89700
C 	C 	0.32110 0.03531 0.46210 0.50500
C 	C 	0.36790 0.06356 0.42460 -0.46600
C 	C 	0.46960 0.06656 0.42110 0.49800
C 	C 	0.51880 0.09979 0.38850 -0.94200
C 	C 	0.51860 0.09901 0.88740 -0.96600
C 	C 	0.46930 0.06622 0.92100 0.50500
C 	C 	0.36750 0.06346 0.92600 -0.44700
C 	C 	0.32070 0.03545 0.96320 0.48100
C 	C 	0.21330 0.03290 0.96700 -0.82000
C 	C 	0.30730 0.09410 0.89440 0.27100
C 	C 	0.25790 0.12593 0.94020 -0.27200
C 	C 	0.30210 0.09299 0.81990 -0.29200
C 	C 	0.25310 0.12448 0.79430 0.14600
C 	C 	0.21030 0.15605 0.91170 0.14500
C 	C 	0.96550 0.21825 0.80400 0.32700
C 	C 	0.00640 0.25198 0.76770 -0.04900
C 	C 	0.14550 0.27777 0.72460 0.02200
C 	C 	0.09050 0.30753 0.69890 -0.00400
C 	C 	0.95320 0.28312 0.74320 0.01800
C 	C 	0.84640 0.29007 0.75430 0.31300
C 	C 	0.14650 0.27148 0.97760 0.36400
C 	C 	0.03850 0.27311 0.98500 -0.02300
C 	C 	0.98290 0.24457 0.01400 -0.01500
C 	C 	0.90060 0.30380 0.95460 0.00200
C 	C 	0.84360 0.27542 0.98190 0.04900
C 	C 	0.02260 0.21036 0.05000 0.27800
C 	C 	0.77810 0.15353 0.16940 0.14600
C 	C 	0.74040 0.12025 0.05240 0.14600
C 	C 	0.69340 0.08831 0.07810 -0.29200
C 	C 	0.73430 0.12293 0.19920 -0.27700
C 	C 	0.68630 0.09063 0.15360 0.27100
C 	C 	0.78230 0.03080 0.22890 -0.88800
C 	C 	0.67450 0.03127 0.22170 0.50000
C 	C 	0.62760 0.05928 0.18380 -0.45500
C 	C 	0.52640 0.06084 0.17710 0.48400
C 	C 	0.47590 0.09362 0.14350 -0.91300
C 	C 	0.52000 0.27798 0.96470 0.32200
C 	C 	0.47880 0.24554 0.00380 -0.04800
C 	C 	0.34310 0.22260 0.05460 0.01600
C 	C 	0.39600 0.18990 0.07280 0.00900
C 	C 	0.53180 0.21307 0.02290 0.00500
C 	C 	0.63780 0.20511 0.00710 0.28800
C 	C 	0.28850 0.33938 0.86680 0.15200
C 	C 	0.23860 0.37870 0.97680 0.20600
C 	C 	0.24510 0.36694 0.82840 -0.29400
C 	C 	0.19300 0.40728 0.94040 -0.33400
C 	C 	0.19320 0.40068 0.86550 0.29600
C 	C 	0.28980 0.45580 0.78090 -0.91900
C 	C 	0.18200 0.45536 0.78750 0.50300
C 	C 	0.13460 0.42894 0.82750 -0.45000
C 	C 	0.03290 0.42691 0.83290 0.45800
C 	C 	0.98190 0.39538 0.86880 -0.86000
C 	C 	0.85550 0.27444 0.22130 0.34100
C 	C 	0.98270 0.21310 0.28740 0.32000
C 	C 	0.02110 0.24526 0.24650 -0.04200
C 	C 	0.96450 0.27539 0.22230 0.00200
C 	C 	0.15690 0.27249 0.20280 0.01700
C 	C 	0.10040 0.30309 0.18000 0.01100
C 	C 	0.71290 0.34695 0.11290 0.16200
C 	C 	0.75620 0.37452 0.07470 -0.30900
C 	C 	0.76500 0.38475 0.22230 0.16900
C 	C 	0.80950 0.41373 0.18710 -0.32500
C 	C 	0.80860 0.40815 0.11240 0.30700
C 	C 	0.71340 0.46670 0.03420 -1.02400
C 	C 	0.82110 0.46469 0.03790 0.54900
C 	C 	0.86790 0.43644 0.07540 -0.49700
C 	C 	0.96960 0.43344 0.07890 0.53800
C 	C 	0.01880 0.40021 0.11150 -1.01300
N 	N 	0.28980 0.65658 0.34010 -0.24500
N 	N 	0.39770 0.75046 0.25830 -0.18400
N 	N 	0.50410 0.81080 0.20850 -0.10400
N 	N 	0.50430 0.80401 0.45730 -0.10500
N 	N 	0.61300 0.74612 0.51120 -0.18300
N 	N 	0.72060 0.65333 0.59780 -0.24600
N 	N 	0.11490 0.74995 0.52040 -0.18200
N 	N 	0.01060 0.68501 0.55820 -0.11600
N 	N 	0.21690 0.84501 0.44050 -0.25700
N 	N 	0.38380 0.74371 0.73480 -0.18600
N 	N 	0.49460 0.80492 0.68990 -0.10500
N 	N 	0.78040 0.85120 0.68510 -0.26100
N 	N 	0.78980 0.84342 0.15990 -0.24700
N 	N 	0.89770 0.74954 0.24170 -0.18500
N 	N 	0.00410 0.68920 0.29150 -0.10800
N 	N 	0.00430 0.69599 0.04270 -0.11500
N 	N 	0.11300 0.75388 0.98880 -0.16900
N 	N 	0.22060 0.84667 0.90220 -0.24500
N 	N 	0.61490 0.75005 0.97960 -0.18500
N 	N 	0.51060 0.81499 0.94180 -0.10100
N 	N 	0.71690 0.65499 0.05950 -0.24900
N 	N 	0.88380 0.75629 0.76520 -0.19100
N 	N 	0.99460 0.69508 0.81010 -0.09100
N 	N 	0.28040 0.64880 0.81490 -0.25800
N 	N 	0.71020 0.34342 0.65990 -0.24700
N 	N 	0.60230 0.24954 0.74170 -0.18300
N 	N 	0.49590 0.18920 0.79150 -0.10300
N 	N 	0.49570 0.19599 0.54270 -0.10500
N 	N 	0.38700 0.25388 0.48880 -0.18300
N 	N 	0.27940 0.34667 0.40220 -0.24500
N 	N 	0.88510 0.25005 0.47960 -0.19200
N 	N 	0.98940 0.31499 0.44180 -0.09600
N 	N 	0.78310 0.15499 0.55950 -0.25600
N 	N 	0.61620 0.25629 0.26520 -0.18600
N 	N 	0.50540 0.19508 0.31010 -0.10500
N 	N 	0.21960 0.14880 0.31490 -0.26100
N 	N 	0.21020 0.15658 0.84010 -0.24400
N 	N 	0.10230 0.25046 0.75830 -0.18000
N 	N 	0.99590 0.31080 0.70850 -0.09900
N 	N 	0.99570 0.30401 0.95730 -0.09100
N 	N 	0.88700 0.24612 0.01120 -0.19900
N 	N 	0.77940 0.15333 0.09780 -0.24700
N 	N 	0.38510 0.24995 0.02040 -0.18900
N 	N 	0.48940 0.18501 0.05820 -0.11000
N 	N 	0.28310 0.34501 0.94050 -0.26200
N 	N 	0.11620 0.24371 0.23480 -0.18300
N 	N 	0.00540 0.30492 0.18990 -0.11500
N 	N 	0.71960 0.35120 0.18510 -0.26200
O 	O 	0.13470 0.50985 0.49640 -0.45300
O 	O 	0.97170 0.54267 0.44740 -0.44200
O 	O 	0.47190 0.69391 0.32340 -0.37200
O 	O 	0.62260 0.71579 0.31130 -0.24300
O 	O 	0.70530 0.77215 0.20120 -0.37600
O 	O 	0.68190 0.81455 0.30930 -0.29300
O 	O 	0.31820 0.75059 0.42119 -0.37300
O 	O 	0.30480 0.79462 0.52778 -0.39000
O 	O 	0.38920 0.70685 0.55628 -0.25800
O 	O 	0.54060 0.68763 0.57300 -0.37700
O 	O 	0.03220 0.53541 0.69970 -0.47300
O 	O 	0.86960 0.50497 0.75250 -0.45500
O 	O 	0.04110 0.80458 0.45140 -0.38900
O 	O 	0.89390 0.77704 0.44830 -0.24600
O 	O 	0.80700 0.72411 0.55610 -0.37500
O 	O 	0.83850 0.67912 0.45200 -0.28900
O 	O 	0.36180 0.98117 0.25410 -0.44900
O 	O 	0.52560 0.95092 0.30670 -0.46100
O 	O 	0.68420 0.74996 0.67180 -0.37600
O 	O 	0.68840 0.80072 0.76910 -0.39200
O 	O 	0.60370 0.71342 0.80368 -0.25600
O 	O 	0.45490 0.68737 0.80180 -0.38000
O 	O 	0.63520 0.99041 0.50530 -0.45000
O 	O 	0.47190 0.95733 0.55220 -0.45800
O 	O 	0.63470 0.99015 0.00360 -0.46300
O 	O 	0.47170 0.95733 0.05260 -0.46400
O 	O 	0.97190 0.80609 0.17660 -0.36200
O 	O 	0.12260 0.78421 0.18870 -0.24000
O 	O 	0.20530 0.72785 0.29880 -0.37700
O 	O 	0.18190 0.68545 0.19070 -0.29700
O 	O 	0.81820 0.74941 0.07881 -0.36800
O 	O 	0.80480 0.70538 0.97222 -0.36200
O 	O 	0.88920 0.79315 0.94372 -0.25500
O 	O 	0.04060 0.81237 0.92700 -0.39000
O 	O 	0.53220 0.96459 0.80030 -0.44900
O 	O 	0.36960 0.99503 0.74750 -0.44800
O 	O 	0.54110 0.69542 0.04860 -0.37600
O 	O 	0.39390 0.72296 0.05170 -0.24200
O 	O 	0.30700 0.77589 0.94390 -0.38200
O 	O 	0.33850 0.82088 0.04800 -0.31800
O 	O 	0.86180 0.51883 0.24590 -0.45400
O 	O 	0.02560 0.54908 0.19330 -0.48100
O 	O 	0.18420 0.75004 0.82820 -0.37900
O 	O 	0.18840 0.69928 0.73090 -0.39600
O 	O 	0.10370 0.78658 0.69632 -0.25100
O 	O 	0.95490 0.81263 0.69820 -0.36500
O 	O 	0.13520 0.50959 0.99470 -0.43800
O 	O 	0.97190 0.54267 0.94780 -0.42500
O 	O 	0.86530 0.49015 0.50360 -0.45600
O 	O 	0.02830 0.45733 0.55260 -0.48200
O 	O 	0.52810 0.30609 0.67660 -0.37100
O 	O 	0.37740 0.28421 0.68870 -0.24300
O 	O 	0.29470 0.22785 0.79880 -0.37400
O 	O 	0.31810 0.18545 0.69070 -0.29400
O 	O 	0.68180 0.24941 0.57881 -0.37300
O 	O 	0.69520 0.20538 0.47222 -0.39000
O 	O 	0.61080 0.29315 0.44372 -0.25800
O 	O 	0.45940 0.31237 0.42700 -0.37700
O 	O 	0.96780 0.46459 0.30030 -0.44400
O 	O 	0.13040 0.49503 0.24750 -0.45800
O 	O 	0.95890 0.19542 0.54860 -0.36200
O 	O 	0.10610 0.22296 0.55170 -0.23500
O 	O 	0.19300 0.27589 0.44390 -0.38100
O 	O 	0.16150 0.32088 0.54800 -0.29900
O 	O 	0.63820 0.01883 0.74590 -0.45900
O 	O 	0.47440 0.04908 0.69330 -0.46900
O 	O 	0.31580 0.25004 0.32820 -0.37700
O 	O 	0.31160 0.19928 0.23090 -0.39400
O 	O 	0.39630 0.28658 0.19632 -0.25800
O 	O 	0.54510 0.31263 0.19820 -0.38300
O 	O 	0.36480 0.00959 0.49470 -0.46300
O 	O 	0.52810 0.04267 0.44780 -0.46800
O 	O 	0.36530 0.00985 0.99640 -0.44200
O 	O 	0.52830 0.04267 0.94740 -0.45300
O 	O 	0.02810 0.19391 0.82340 -0.38500
O 	O 	0.87740 0.21579 0.81130 -0.24700
O 	O 	0.79470 0.27215 0.70120 -0.37300
O 	O 	0.81810 0.31455 0.80930 -0.28900
O 	O 	0.18180 0.25059 0.92119 -0.37700
O 	O 	0.19520 0.29462 0.02778 -0.41300
O 	O 	0.11080 0.20685 0.05628 -0.26300
O 	O 	0.95940 0.18763 0.07300 -0.37200
O 	O 	0.46780 0.03541 0.19970 -0.46500
O 	O 	0.63040 0.00497 0.25250 -0.46500
O 	O 	0.45890 0.30458 0.95140 -0.37500
O 	O 	0.60610 0.27704 0.94830 -0.23800
O 	O 	0.69300 0.22411 0.05610 -0.37400
O 	O 	0.66150 0.17912 0.95200 -0.26600
O 	O 	0.13820 0.48117 0.75410 -0.45200
O 	O 	0.97440 0.45092 0.80670 -0.44100
O 	O 	0.81580 0.24996 0.17180 -0.37600
O 	O 	0.81160 0.30072 0.26910 -0.39100
O 	O 	0.89630 0.21342 0.30368 -0.26200
O 	O 	0.04510 0.18737 0.30180 -0.39400
O 	O 	0.86480 0.49041 0.00530 -0.47500
O 	O 	0.02810 0.45733 0.05220 -0.48700
