data_crystal

_cell_length_a 5.87510
_cell_length_b 15.06700
_cell_length_c 16.41600
_cell_angle_alpha 90.00000
_cell_angle_beta  90.00000
_cell_angle_gamma 90.00000

_symmetry_space_group_name_	'P 1'
_symmetry_space_group_name_H-M	'P 1'

loop_
_symmetry_equiv_pos_as_xyz
  x,y,z

loop_
_atom_site_label
_atom_site_type_symbol
_atom_site_fract_x
_atom_site_fract_y
_atom_site_fract_z
_atom_site_charge
Cd	Cd	0.38700 0.58859 0.96366 1.23200
Cd	Cd	0.11300 0.41141 0.46366 1.23100
Cd	Cd	0.61300 0.08859 0.53634 1.23200
Cd	Cd	0.88700 0.91141 0.03634 1.23000
H 	H 	0.47080 0.38710 0.24610 0.11400
H 	H 	0.65200 0.37060 0.36920 -0.00800
H 	H 	0.17710 0.50510 0.29220 -0.01300
H 	H 	0.01190 0.52660 0.16740 0.13300
H 	H 	0.78670 0.55460 0.04860 0.11000
H 	H 	0.43530 0.47000 0.12370 0.09900
H 	H 	0.63730 0.42490 0.07760 0.10700
H 	H 	0.74230 0.63870 0.16270 0.12600
H 	H 	0.38190 0.70830 0.18270 -0.01900
H 	H 	0.36850 0.60540 0.19650 -0.01600
H 	H 	0.19000 0.69000 0.07100 0.29600
H 	H 	0.02920 0.61290 0.74610 0.11100
H 	H 	0.84800 0.62940 0.86920 -0.00800
H 	H 	0.32290 0.49490 0.79220 -0.01600
H 	H 	0.48810 0.47340 0.66740 0.13300
H 	H 	0.71330 0.44540 0.54860 0.11000
H 	H 	0.06470 0.53000 0.62370 0.09300
H 	H 	0.86270 0.57510 0.57760 0.10500
H 	H 	0.75770 0.36130 0.66270 0.12500
H 	H 	0.11810 0.29170 0.68270 -0.01800
H 	H 	0.13150 0.39460 0.69650 -0.01500
H 	H 	0.31000 0.31000 0.57100 0.29500
H 	H 	0.52920 0.88710 0.25390 0.11200
H 	H 	0.34800 0.87060 0.13080 -0.00800
H 	H 	0.82290 0.00510 0.20780 -0.01000
H 	H 	0.98810 0.02660 0.33260 0.13100
H 	H 	0.21330 0.05460 0.45140 0.10900
H 	H 	0.56470 0.97000 0.37630 0.09700
H 	H 	0.36270 0.92490 0.42240 0.10600
H 	H 	0.25770 0.13870 0.33730 0.12600
H 	H 	0.61810 0.20830 0.31730 -0.01900
H 	H 	0.63150 0.10540 0.30350 -0.01600
H 	H 	0.81000 0.19000 0.42900 0.29600
H 	H 	0.97080 0.11290 0.75390 0.11600
H 	H 	0.15200 0.12940 0.63080 -0.01100
H 	H 	0.67710 0.99490 0.70780 -0.01500
H 	H 	0.51190 0.97340 0.83260 0.13800
H 	H 	0.28670 0.94540 0.95140 0.11000
H 	H 	0.93530 0.03000 0.87630 0.09700
H 	H 	0.13730 0.07510 0.92240 0.10700
H 	H 	0.24230 0.86130 0.83730 0.12600
H 	H 	0.88190 0.79170 0.81730 -0.01800
H 	H 	0.86850 0.89460 0.80350 -0.01500
H 	H 	0.69000 0.81000 0.92900 0.29600
C 	C 	0.61350 0.41230 0.25430 -0.21400
C 	C 	0.71900 0.46010 0.19270 0.19300
C 	C 	0.72380 0.40270 0.32820 0.12300
C 	C 	0.03270 0.48190 0.28290 0.12200
C 	C 	0.93520 0.49500 0.20760 -0.21800
C 	C 	0.59770 0.47360 0.11360 -0.21300
C 	C 	0.62900 0.64050 0.11890 -0.23700
C 	C 	0.39250 0.65110 0.15580 0.21200
C 	C 	0.67870 0.71960 0.06320 0.37700
C 	C 	0.88650 0.58770 0.75430 -0.20900
C 	C 	0.78100 0.53990 0.69270 0.19000
C 	C 	0.77620 0.59730 0.82820 0.12100
C 	C 	0.46730 0.51810 0.78290 0.12800
C 	C 	0.56480 0.50500 0.70760 -0.22200
C 	C 	0.90230 0.52640 0.61360 -0.20400
C 	C 	0.87100 0.35950 0.61890 -0.23200
C 	C 	0.10750 0.34890 0.65580 0.20600
C 	C 	0.82130 0.28040 0.56320 0.37800
C 	C 	0.38650 0.91230 0.24570 -0.21200
C 	C 	0.28100 0.96010 0.30730 0.19000
C 	C 	0.27620 0.90270 0.17180 0.12100
C 	C 	0.96730 0.98190 0.21710 0.11400
C 	C 	0.06480 0.99500 0.29240 -0.21300
C 	C 	0.40230 0.97360 0.38640 -0.21100
C 	C 	0.37100 0.14050 0.38110 -0.23800
C 	C 	0.60750 0.15110 0.34420 0.21200
C 	C 	0.32130 0.21960 0.43680 0.37800
C 	C 	0.11350 0.08770 0.74570 -0.22000
C 	C 	0.21900 0.03990 0.80730 0.19800
C 	C 	0.22380 0.09730 0.67180 0.12600
C 	C 	0.53270 0.01810 0.71710 0.13000
C 	C 	0.43520 0.00500 0.79240 -0.23200
C 	C 	0.09770 0.02640 0.88640 -0.21700
C 	C 	0.12900 0.85950 0.88110 -0.23400
C 	C 	0.89250 0.84890 0.84420 0.20800
C 	C 	0.17870 0.78040 0.93680 0.37800
N 	N 	0.93110 0.43760 0.34330 -0.24300
N 	N 	0.64430 0.55790 0.07020 -0.18600
N 	N 	0.56890 0.56240 0.84330 -0.24600
N 	N 	0.85570 0.44210 0.57020 -0.18600
N 	N 	0.06890 0.93760 0.15670 -0.24200
N 	N 	0.35570 0.05790 0.42980 -0.18600
N 	N 	0.43110 0.06240 0.65670 -0.24700
N 	N 	0.14430 0.94210 0.92980 -0.18400
Cl	Cl	0.09910 0.46916 0.96741 -0.51000
Cl	Cl	0.40090 0.53084 0.46741 -0.51000
Cl	Cl	0.90090 0.96916 0.53259 -0.50800
Cl	Cl	0.59910 0.03084 0.03259 -0.50700
O 	O 	0.66360 0.70740 0.98762 -0.41800
O 	O 	0.21950 0.64480 0.09460 -0.53200
O 	O 	0.71810 0.79170 0.09764 -0.41300
O 	O 	0.83640 0.29260 0.48762 -0.41700
O 	O 	0.28050 0.35520 0.59460 -0.53200
O 	O 	0.78190 0.20830 0.59764 -0.41100
O 	O 	0.33640 0.20740 0.51238 -0.41900
O 	O 	0.78050 0.14480 0.40540 -0.53200
O 	O 	0.28190 0.29170 0.40236 -0.41300
O 	O 	0.16360 0.79260 0.01238 -0.41700
O 	O 	0.71950 0.85520 0.90540 -0.53200
O 	O 	0.21810 0.70830 0.90236 -0.41200
