data_crystal

_cell_length_a 15.91900
_cell_length_b 18.33070
_cell_length_c 20.08700
_cell_angle_alpha 65.48420
_cell_angle_beta  66.65610
_cell_angle_gamma 64.26460

_symmetry_space_group_name_	'P 1'
_symmetry_space_group_name_H-M	'P 1'

loop_
_symmetry_equiv_pos_as_xyz
  x,y,z

loop_
_atom_site_label
_atom_site_type_symbol
_atom_site_fract_x
_atom_site_fract_y
_atom_site_fract_z
_atom_site_charge
Cu	Cu	0.94385 0.05279 0.54151 0.90100
Cu	Cu	0.48767 0.57365 0.44525 0.89400
Cu	Cu	0.53815 0.44721 0.95849 0.90100
Cu	Cu	0.50657 0.92635 0.05475 0.89400
Cu	Cu	0.05615 0.94721 0.45849 0.90100
Cu	Cu	0.51233 0.42635 0.55475 0.89400
Cu	Cu	0.46185 0.55279 0.04151 0.90100
Cu	Cu	0.49343 0.07365 0.94525 0.89400
H 	H 	0.37330 0.16550 0.24930 0.13600
H 	H 	0.57960 0.24350 0.36730 0.12400
H 	H 	0.27120 0.08500 0.30220 0.00700
H 	H 	0.75260 0.07240 0.25100 0.11500
H 	H 	0.58370 0.97880 0.21580 0.01000
H 	H 	0.87530 0.02830 0.31450 0.01500
H 	H 	0.39210 0.31220 0.48220 0.00500
H 	H 	0.35450 0.24620 0.42500 0.12400
H 	H 	0.53150 0.21120 0.06060 0.01700
H 	H 	0.09310 0.23110 0.43890 0.00900
H 	H 	0.54390 0.26830 0.13750 0.14000
H 	H 	0.39480 0.43010 0.22750 0.14600
H 	H 	0.60740 0.03580 0.29020 0.11500
H 	H 	0.43730 0.49470 0.28430 0.00800
H 	H 	0.91930 0.18130 0.73210 0.07500
H 	H 	0.70280 0.20090 0.42790 0.01800
H 	H 	0.18930 0.31690 0.38330 0.11700
H 	H 	0.98380 0.09450 0.65810 0.01600
H 	H 	0.75410 0.19880 0.58260 0.01400
H 	H 	0.67370 0.27230 0.67410 0.06900
H 	H 	0.78810 0.33450 0.25070 0.13700
H 	H 	0.19040 0.25650 0.13270 0.12400
H 	H 	0.65840 0.41500 0.19780 0.00600
H 	H 	0.07600 0.42760 0.24900 0.11500
H 	H 	0.77830 0.52120 0.28420 0.01200
H 	H 	0.21810 0.47170 0.18550 0.01500
H 	H 	0.18650 0.18780 0.01780 0.00500
H 	H 	0.02570 0.25380 0.07500 0.12500
H 	H 	0.80330 0.28880 0.43940 0.01700
H 	H 	0.76310 0.26890 0.06110 0.00900
H 	H 	0.94970 0.23170 0.36250 0.13900
H 	H 	0.05240 0.06990 0.27250 0.14700
H 	H 	0.93340 0.46420 0.20980 0.11400
H 	H 	0.21630 0.00530 0.21570 0.00800
H 	H 	0.83270 0.31870 0.76790 0.07500
H 	H 	0.33160 0.29910 0.07210 0.01900
H 	H 	0.88950 0.18310 0.11670 0.11700
H 	H 	0.73640 0.40550 0.84190 0.01600
H 	H 	0.53550 0.30120 0.91740 0.01400
H 	H 	0.62010 0.22770 0.82590 0.06900
H 	H 	0.62670 0.83450 0.75070 0.13600
H 	H 	0.42040 0.75650 0.63270 0.12400
H 	H 	0.72880 0.91500 0.69780 0.00700
H 	H 	0.24740 0.92760 0.74900 0.11500
H 	H 	0.41630 0.02120 0.78420 0.01000
H 	H 	0.12470 0.97170 0.68550 0.01500
H 	H 	0.60790 0.68780 0.51780 0.00500
H 	H 	0.64550 0.75380 0.57500 0.12400
H 	H 	0.46850 0.78880 0.93940 0.01700
H 	H 	0.90690 0.76890 0.56110 0.00900
H 	H 	0.45610 0.73170 0.86250 0.14000
H 	H 	0.60520 0.56990 0.77250 0.14600
H 	H 	0.39260 0.96420 0.70980 0.11500
H 	H 	0.56270 0.50530 0.71570 0.00800
H 	H 	0.08070 0.81870 0.26790 0.07500
H 	H 	0.29720 0.79910 0.57210 0.01800
H 	H 	0.81070 0.68310 0.61670 0.11700
H 	H 	0.01620 0.90550 0.34190 0.01600
H 	H 	0.24590 0.80120 0.41740 0.01400
H 	H 	0.32630 0.72770 0.32590 0.06900
H 	H 	0.21190 0.66550 0.74930 0.13700
H 	H 	0.80960 0.74350 0.86730 0.12400
H 	H 	0.34160 0.58500 0.80220 0.00600
H 	H 	0.92400 0.57240 0.75100 0.11500
H 	H 	0.22170 0.47880 0.71580 0.01200
H 	H 	0.78190 0.52830 0.81450 0.01500
H 	H 	0.81350 0.81220 0.98220 0.00500
H 	H 	0.97430 0.74620 0.92500 0.12500
H 	H 	0.19670 0.71120 0.56060 0.01700
H 	H 	0.23690 0.73110 0.93890 0.00900
H 	H 	0.05030 0.76830 0.63750 0.13900
H 	H 	0.94760 0.93010 0.72750 0.14700
H 	H 	0.06660 0.53580 0.79020 0.11400
H 	H 	0.78370 0.99470 0.78430 0.00800
H 	H 	0.16730 0.68130 0.23210 0.07500
H 	H 	0.66840 0.70090 0.92790 0.01900
H 	H 	0.11050 0.81690 0.88330 0.11700
H 	H 	0.26360 0.59450 0.15810 0.01600
H 	H 	0.46450 0.69880 0.08260 0.01400
H 	H 	0.37990 0.77230 0.17410 0.06900
C 	C 	0.87330 0.07840 0.42220 0.33300
C 	C 	0.10900 0.09370 0.41590 0.34200
C 	C 	0.17220 0.14880 0.37700 -0.15300
C 	C 	0.44350 0.45120 0.42720 0.36200
C 	C 	0.31800 0.17870 0.28790 -0.24200
C 	C 	0.63790 0.20110 0.35650 -0.20600
C 	C 	0.55460 0.08960 0.12900 -0.14500
C 	C 	0.25620 0.13000 0.31960 0.12500
C 	C 	0.78430 0.22740 0.72160 0.05200
C 	C 	0.53760 0.05340 0.08280 0.34300
C 	C 	0.74210 0.09770 0.28650 -0.22600
C 	C 	0.57780 0.03590 0.19950 0.09500
C 	C 	0.81660 0.07060 0.32500 0.08800
C 	C 	0.39230 0.33610 0.43130 0.11500
C 	C 	0.37390 0.33180 0.31780 0.28800
C 	C 	0.29900 0.24570 0.31230 0.26400
C 	C 	0.58250 0.15730 0.22050 0.25200
C 	C 	0.37060 0.29550 0.39690 -0.24400
C 	C 	0.54490 0.17640 0.10680 0.10700
C 	C 	0.41420 0.41160 0.39040 -0.15800
C 	C 	0.14920 0.21830 0.40070 0.11700
C 	C 	0.55500 0.21050 0.15190 -0.22100
C 	C 	0.79540 0.11150 0.37910 -0.12100
C 	C 	0.39540 0.40580 0.27820 -0.24900
C 	C 	0.59190 0.07060 0.24460 -0.22600
C 	C 	0.65710 0.16020 0.30300 0.25500
C 	C 	0.41910 0.44650 0.31270 0.11900
C 	C 	0.88100 0.18060 0.70760 -0.12200
C 	C 	0.71240 0.17440 0.39360 0.09000
C 	C 	0.20780 0.26890 0.36890 -0.22900
C 	C 	0.92200 0.13320 0.65860 0.06600
C 	C 	0.78650 0.19150 0.61570 0.06800
C 	C 	0.73730 0.23660 0.67140 -0.11400
C 	C 	0.37390 0.42160 0.07780 0.33300
C 	C 	0.61860 0.40630 0.08410 0.34200
C 	C 	0.69800 0.35120 0.12300 -0.15300
C 	C 	0.32190 0.04880 0.07280 0.36500
C 	C 	0.78460 0.32130 0.21210 -0.24300
C 	C 	0.19550 0.29890 0.14350 -0.20600
C 	C 	0.77320 0.41040 0.37100 -0.14300
C 	C 	0.70580 0.37000 0.18040 0.12600
C 	C 	0.73330 0.27260 0.77840 0.05200
C 	C 	0.67380 0.44660 0.41720 0.34100
C 	C 	0.12630 0.40230 0.21350 -0.22500
C 	C 	0.81320 0.46410 0.30050 0.09200
C 	C 	0.21220 0.42940 0.17500 0.08700
C 	C 	0.15970 0.16390 0.06870 0.11700
C 	C 	0.02350 0.16820 0.18220 0.29100
C 	C 	0.85700 0.25430 0.18770 0.26400
C 	C 	0.96030 0.34270 0.27950 0.25000
C 	C 	0.06300 0.20450 0.10310 -0.24600
C 	C 	0.82810 0.32360 0.39320 0.10500
C 	C 	0.21620 0.08840 0.10960 -0.15900
C 	C 	0.76820 0.28170 0.09930 0.11700
C 	C 	0.91740 0.28950 0.34810 -0.21900
C 	C 	0.28600 0.38850 0.12090 -0.12100
C 	C 	0.07940 0.09420 0.22180 -0.25100
C 	C 	0.90710 0.42940 0.25540 -0.22400
C 	C 	0.12030 0.33980 0.19700 0.25400
C 	C 	0.17830 0.05350 0.18730 0.12100
C 	C 	0.76920 0.31940 0.79240 -0.12200
C 	C 	0.28040 0.32560 0.10640 0.08900
C 	C 	0.84560 0.23110 0.13110 -0.23000
C 	C 	0.71380 0.36680 0.84140 0.06600
C 	C 	0.59370 0.30850 0.88430 0.06800
C 	C 	0.64530 0.26340 0.82860 -0.11400
C 	C 	0.12670 0.92160 0.57780 0.33300
C 	C 	0.89100 0.90630 0.58410 0.34200
C 	C 	0.82780 0.85120 0.62300 -0.15300
C 	C 	0.55650 0.54880 0.57280 0.36200
C 	C 	0.68200 0.82130 0.71210 -0.24200
C 	C 	0.36210 0.79890 0.64350 -0.20600
C 	C 	0.44540 0.91040 0.87100 -0.14500
C 	C 	0.74380 0.87000 0.68040 0.12500
C 	C 	0.21570 0.77260 0.27840 0.05200
C 	C 	0.46240 0.94660 0.91720 0.34300
C 	C 	0.25790 0.90230 0.71350 -0.22600
C 	C 	0.42220 0.96410 0.80050 0.09500
C 	C 	0.18340 0.92940 0.67500 0.08800
C 	C 	0.60770 0.66390 0.56870 0.11500
C 	C 	0.62610 0.66820 0.68220 0.28800
C 	C 	0.70100 0.75430 0.68770 0.26400
C 	C 	0.41750 0.84270 0.77950 0.25200
C 	C 	0.62940 0.70450 0.60310 -0.24400
C 	C 	0.45510 0.82360 0.89320 0.10700
C 	C 	0.58580 0.58840 0.60960 -0.15800
C 	C 	0.85080 0.78170 0.59930 0.11700
C 	C 	0.44500 0.78950 0.84810 -0.22100
C 	C 	0.20460 0.88850 0.62090 -0.12100
C 	C 	0.60460 0.59420 0.72180 -0.24900
C 	C 	0.40810 0.92940 0.75540 -0.22600
C 	C 	0.34290 0.83980 0.69700 0.25500
C 	C 	0.58090 0.55350 0.68730 0.11900
C 	C 	0.11900 0.81940 0.29240 -0.12200
C 	C 	0.28760 0.82560 0.60640 0.09000
C 	C 	0.79220 0.73110 0.63110 -0.22900
C 	C 	0.07800 0.86680 0.34140 0.06600
C 	C 	0.21350 0.80850 0.38430 0.06800
C 	C 	0.26270 0.76340 0.32860 -0.11400
C 	C 	0.62610 0.57840 0.92220 0.33300
C 	C 	0.38140 0.59370 0.91590 0.34200
C 	C 	0.30200 0.64880 0.87700 -0.15300
C 	C 	0.67810 0.95120 0.92720 0.36500
C 	C 	0.21540 0.67870 0.78790 -0.24300
C 	C 	0.80450 0.70110 0.85650 -0.20600
C 	C 	0.22680 0.58960 0.62900 -0.14300
C 	C 	0.29420 0.63000 0.81960 0.12600
C 	C 	0.26670 0.72740 0.22160 0.05200
C 	C 	0.32620 0.55340 0.58280 0.34100
C 	C 	0.87370 0.59770 0.78650 -0.22500
C 	C 	0.18680 0.53590 0.69950 0.09200
C 	C 	0.78780 0.57060 0.82500 0.08700
C 	C 	0.84030 0.83610 0.93130 0.11700
C 	C 	0.97650 0.83180 0.81780 0.29100
C 	C 	0.14300 0.74570 0.81230 0.26400
C 	C 	0.03970 0.65730 0.72050 0.25000
C 	C 	0.93700 0.79550 0.89690 -0.24600
C 	C 	0.17190 0.67640 0.60680 0.10500
C 	C 	0.78380 0.91160 0.89040 -0.15900
C 	C 	0.23180 0.71830 0.90070 0.11700
C 	C 	0.08260 0.71050 0.65190 -0.21900
C 	C 	0.71400 0.61150 0.87910 -0.12100
C 	C 	0.92060 0.90580 0.77820 -0.25100
C 	C 	0.09290 0.57060 0.74460 -0.22400
C 	C 	0.87970 0.66020 0.80300 0.25400
C 	C 	0.82170 0.94650 0.81270 0.12100
C 	C 	0.23080 0.68060 0.20760 -0.12200
C 	C 	0.71960 0.67440 0.89360 0.08900
C 	C 	0.15440 0.76890 0.86890 -0.23000
C 	C 	0.28620 0.63320 0.15860 0.06600
C 	C 	0.40630 0.69150 0.11570 0.06800
C 	C 	0.35470 0.73660 0.17140 -0.11400
N 	N 	0.87620 0.14000 0.61020 -0.18600
N 	N 	0.62640 0.36000 0.88980 -0.18600
N 	N 	0.12380 0.86000 0.38980 -0.18600
N 	N 	0.37360 0.64000 0.11020 -0.18600
O 	O 	0.85340 0.11030 0.47350 -0.38300
O 	O 	0.95280 0.02010 0.40230 -0.39200
O 	O 	0.03350 0.11690 0.46790 -0.39600
O 	O 	0.13390 0.02710 0.39630 -0.37900
O 	O 	0.44420 0.52540 0.39800 -0.40700
O 	O 	0.53760 0.97890 0.10710 -0.40200
O 	O 	0.52480 0.10530 0.01450 -0.38100
O 	O 	0.36040 0.29390 0.27930 -0.29500
O 	O 	0.46150 0.40250 0.49250 -0.39900
O 	O 	0.58620 0.19650 0.26470 -0.28000
O 	O 	0.43720 0.38970 0.02650 -0.38200
O 	O 	0.37520 0.47990 0.09770 -0.39200
O 	O 	0.61830 0.38310 0.03210 -0.39700
O 	O 	0.55730 0.47290 0.10370 -0.38000
O 	O 	0.36760 0.97460 0.10200 -0.41000
O 	O 	0.62360 0.52110 0.39290 -0.40000
O 	O 	0.64460 0.39470 0.48550 -0.38100
O 	O 	0.93360 0.20610 0.22070 -0.29700
O 	O 	0.35650 0.09750 0.00750 -0.39800
O 	O 	0.04740 0.30350 0.23530 -0.27900
O 	O 	0.14660 0.88970 0.52650 -0.38300
O 	O 	0.04720 0.97990 0.59770 -0.39200
O 	O 	0.96650 0.88310 0.53210 -0.39600
O 	O 	0.86610 0.97290 0.60370 -0.37900
O 	O 	0.55580 0.47460 0.60200 -0.40700
O 	O 	0.46240 0.02110 0.89290 -0.40200
O 	O 	0.47520 0.89470 0.98550 -0.38100
O 	O 	0.63960 0.70610 0.72070 -0.29500
O 	O 	0.53850 0.59750 0.50750 -0.39900
O 	O 	0.41380 0.80350 0.73530 -0.28000
O 	O 	0.56280 0.61030 0.97350 -0.38200
O 	O 	0.62480 0.52010 0.90230 -0.39200
O 	O 	0.38170 0.61690 0.96790 -0.39700
O 	O 	0.44270 0.52710 0.89630 -0.38000
O 	O 	0.63240 0.02540 0.89800 -0.41000
O 	O 	0.37640 0.47890 0.60710 -0.40000
O 	O 	0.35540 0.60530 0.51450 -0.38100
O 	O 	0.06640 0.79390 0.77930 -0.29700
O 	O 	0.64350 0.90250 0.99250 -0.39800
O 	O 	0.95260 0.69650 0.76470 -0.27900
