data_crystal

_cell_length_a 10.81400
_cell_length_b 10.81400
_cell_length_c 25.41000
_cell_angle_alpha 90.00000
_cell_angle_beta  90.00000
_cell_angle_gamma 90.00000

_symmetry_space_group_name_	'P 1'
_symmetry_space_group_name_H-M	'P 1'

loop_
_symmetry_equiv_pos_as_xyz
  x,y,z

loop_
_atom_site_label
_atom_site_type_symbol
_atom_site_fract_x
_atom_site_fract_y
_atom_site_fract_z
_atom_site_charge
Zn	Zn	0.45659 0.45906 0.92075 1.20800
Zn	Zn	0.54341 0.54094 0.42075 1.20800
Zn	Zn	0.04094 0.95659 0.17075 1.20300
Zn	Zn	0.95906 0.04341 0.67075 1.20300
Zn	Zn	0.04341 0.95906 0.32925 1.20300
Zn	Zn	0.95659 0.04094 0.82925 1.20300
Zn	Zn	0.45906 0.45659 0.07925 1.20700
Zn	Zn	0.54094 0.54341 0.57925 1.20700
H 	H 	0.33200 0.31600 0.79170 0.03900
H 	H 	0.16140 0.20030 0.76970 0.01500
H 	H 	0.09340 0.14470 0.91830 0.03400
H 	H 	0.69580 0.73690 0.92210 0.03600
H 	H 	0.66800 0.68400 0.29170 0.03900
H 	H 	0.83860 0.79970 0.26970 0.01500
H 	H 	0.90660 0.85530 0.41830 0.03400
H 	H 	0.30420 0.26310 0.42210 0.03700
H 	H 	0.18400 0.83200 0.04170 0.03600
H 	H 	0.29970 0.66140 0.01970 0.01300
H 	H 	0.35530 0.59340 0.16830 0.03200
H 	H 	0.76310 0.19580 0.17210 0.03700
H 	H 	0.81600 0.16800 0.54170 0.03700
H 	H 	0.70030 0.33860 0.51970 0.01400
H 	H 	0.64470 0.40660 0.66830 0.03200
H 	H 	0.23690 0.80420 0.67210 0.03600
H 	H 	0.16800 0.81600 0.45830 0.03700
H 	H 	0.33860 0.70030 0.48030 0.01400
H 	H 	0.40660 0.64470 0.33170 0.03200
H 	H 	0.80420 0.23690 0.32790 0.03600
H 	H 	0.83200 0.18400 0.95830 0.03600
H 	H 	0.66140 0.29970 0.98030 0.01400
H 	H 	0.59340 0.35530 0.83170 0.03200
H 	H 	0.19580 0.76310 0.82790 0.03700
H 	H 	0.31600 0.33200 0.20830 0.03900
H 	H 	0.20030 0.16140 0.23030 0.01600
H 	H 	0.14470 0.09340 0.08170 0.03400
H 	H 	0.73690 0.69580 0.07790 0.03700
H 	H 	0.68400 0.66800 0.70830 0.03900
H 	H 	0.79970 0.83860 0.73030 0.01500
H 	H 	0.85530 0.90660 0.58170 0.03400
H 	H 	0.26310 0.30420 0.57790 0.03700
H 	H 	0.94400 0.94400 1.00000 0.04700
H 	H 	0.05600 0.05600 0.50000 0.04700
H 	H 	0.55600 0.44400 0.25000 0.04500
H 	H 	0.44400 0.55600 0.75000 0.04500
C 	C 	0.28290 0.28340 0.81837 0.01200
C 	C 	0.18120 0.21120 0.80501 0.01600
C 	C 	0.14090 0.17940 0.89160 0.01200
C 	C 	0.24160 0.25340 0.90466 0.00500
C 	C 	0.27180 0.27760 0.95934 0.10000
C 	C 	0.73520 0.75860 0.95331 0.07100
C 	C 	0.82730 0.84800 0.95293 -0.10900
C 	C 	0.86640 0.90780 0.90232 0.33300
C 	C 	0.71710 0.71660 0.31837 0.01200
C 	C 	0.81880 0.78880 0.30501 0.01600
C 	C 	0.85910 0.82060 0.39160 0.01100
C 	C 	0.75840 0.74660 0.40466 0.00500
C 	C 	0.72820 0.72240 0.45934 0.09800
C 	C 	0.26480 0.24140 0.45331 0.06700
C 	C 	0.17270 0.15200 0.45293 -0.10700
C 	C 	0.13360 0.09220 0.40232 0.33200
C 	C 	0.21660 0.78290 0.06837 0.01100
C 	C 	0.28880 0.68120 0.05501 0.01500
C 	C 	0.32060 0.64090 0.14160 0.01100
C 	C 	0.24660 0.74160 0.15466 0.00400
C 	C 	0.22240 0.77180 0.20934 0.09700
C 	C 	0.74140 0.23520 0.20331 0.06900
C 	C 	0.65200 0.32730 0.20293 -0.10900
C 	C 	0.59220 0.36640 0.15232 0.33300
C 	C 	0.78340 0.21710 0.56837 0.01100
C 	C 	0.71120 0.31880 0.55501 0.01500
C 	C 	0.67940 0.35910 0.64160 0.01100
C 	C 	0.75340 0.25840 0.65466 0.00400
C 	C 	0.77760 0.22820 0.70934 0.09700
C 	C 	0.25860 0.76480 0.70331 0.06900
C 	C 	0.34800 0.67270 0.70293 -0.10900
C 	C 	0.40780 0.63360 0.65232 0.33300
C 	C 	0.21710 0.78340 0.43163 0.01100
C 	C 	0.31880 0.71120 0.44499 0.01500
C 	C 	0.35910 0.67940 0.35840 0.01100
C 	C 	0.25840 0.75340 0.34534 0.00400
C 	C 	0.22820 0.77760 0.29066 0.09700
C 	C 	0.76480 0.25860 0.29669 0.06900
C 	C 	0.67270 0.34800 0.29707 -0.10900
C 	C 	0.63360 0.40780 0.34768 0.33300
C 	C 	0.78290 0.21660 0.93163 0.01100
C 	C 	0.68120 0.28880 0.94499 0.01500
C 	C 	0.64090 0.32060 0.85840 0.01100
C 	C 	0.74160 0.24660 0.84534 0.00400
C 	C 	0.77180 0.22240 0.79066 0.09700
C 	C 	0.23520 0.74140 0.79669 0.06900
C 	C 	0.32730 0.65200 0.79707 -0.10900
C 	C 	0.36640 0.59220 0.84768 0.33300
C 	C 	0.28340 0.28290 0.18163 0.01200
C 	C 	0.21120 0.18120 0.19499 0.01600
C 	C 	0.17940 0.14090 0.10840 0.01100
C 	C 	0.25340 0.24160 0.09534 0.00500
C 	C 	0.27760 0.27180 0.04066 0.09800
C 	C 	0.75860 0.73520 0.04669 0.07000
C 	C 	0.84800 0.82730 0.04707 -0.11000
C 	C 	0.90780 0.86640 0.09768 0.33300
C 	C 	0.71660 0.71710 0.68163 0.01200
C 	C 	0.78880 0.81880 0.69499 0.01600
C 	C 	0.82060 0.85910 0.60840 0.01100
C 	C 	0.74660 0.75840 0.59534 0.00500
C 	C 	0.72240 0.72820 0.54066 0.09800
C 	C 	0.24140 0.26480 0.54669 0.06700
C 	C 	0.15200 0.17270 0.54707 -0.10700
C 	C 	0.09220 0.13360 0.59768 0.33200
C 	C 	0.60380 0.60380 -0.00000 0.42400
C 	C 	0.70170 0.70170 -0.00000 -0.14700
C 	C 	0.88320 0.88320 1.00000 0.05300
C 	C 	0.39620 0.39620 0.50000 0.42500
C 	C 	0.29830 0.29830 0.50000 -0.14400
C 	C 	0.11680 0.11680 0.50000 0.05000
C 	C 	0.89620 0.10380 0.25000 0.42600
C 	C 	0.79830 0.20170 0.25000 -0.14500
C 	C 	0.61680 0.38320 0.25000 0.05100
C 	C 	0.10380 0.89620 0.75000 0.42600
C 	C 	0.20170 0.79830 0.75000 -0.14500
C 	C 	0.38320 0.61680 0.75000 0.05100
N 	N 	0.11140 0.15740 0.84172 -0.22400
N 	N 	0.31190 0.30690 0.86821 -0.15900
N 	N 	0.35730 0.36040 0.97337 -0.24000
N 	N 	0.88860 0.84260 0.34172 -0.22400
N 	N 	0.68810 0.69310 0.36821 -0.15900
N 	N 	0.64270 0.63960 0.47337 -0.24000
N 	N 	0.34260 0.61140 0.09172 -0.22600
N 	N 	0.19310 0.81190 0.11821 -0.16100
N 	N 	0.13960 0.85730 0.22337 -0.24200
N 	N 	0.65740 0.38860 0.59172 -0.22600
N 	N 	0.80690 0.18810 0.61821 -0.16100
N 	N 	0.86040 0.14270 0.72337 -0.24200
N 	N 	0.38860 0.65740 0.40828 -0.22600
N 	N 	0.18810 0.80690 0.38179 -0.16100
N 	N 	0.14270 0.86040 0.27663 -0.24200
N 	N 	0.61140 0.34260 0.90828 -0.22600
N 	N 	0.81190 0.19310 0.88179 -0.16100
N 	N 	0.85730 0.13960 0.77663 -0.24200
N 	N 	0.15740 0.11140 0.15828 -0.22400
N 	N 	0.30690 0.31190 0.13179 -0.15900
N 	N 	0.36040 0.35730 0.02663 -0.24100
N 	N 	0.84260 0.88860 0.65828 -0.22400
N 	N 	0.69310 0.68810 0.63179 -0.15900
N 	N 	0.63960 0.64270 0.52663 -0.24000
N 	N 	0.21961 0.21961 -0.00000 -0.13100
N 	N 	0.78039 0.78039 0.50000 -0.13000
N 	N 	0.28039 0.71961 0.25000 -0.13000
N 	N 	0.71961 0.28039 0.75000 -0.13000
O 	O 	0.53720 0.59475 0.95988 -0.48900
O 	O 	0.80070 0.90280 0.86221 -0.34600
O 	O 	0.96640 0.96700 0.90209 -0.41700
O 	O 	0.46280 0.40525 0.45988 -0.49100
O 	O 	0.19930 0.09720 0.36221 -0.34600
O 	O 	0.03360 0.03300 0.40209 -0.41700
O 	O 	0.90525 0.03720 0.20988 -0.49100
O 	O 	0.59720 0.30070 0.11221 -0.34900
O 	O 	0.53300 0.46640 0.15209 -0.42200
O 	O 	0.09475 0.96280 0.70988 -0.49100
O 	O 	0.40280 0.69930 0.61221 -0.34900
O 	O 	0.46700 0.53360 0.65209 -0.42200
O 	O 	0.96280 0.09475 0.29012 -0.49200
O 	O 	0.69930 0.40280 0.38779 -0.34900
O 	O 	0.53360 0.46700 0.34791 -0.42200
O 	O 	0.03720 0.90525 0.79012 -0.49100
O 	O 	0.30070 0.59720 0.88779 -0.34900
O 	O 	0.46640 0.53300 0.84791 -0.42200
O 	O 	0.59475 0.53720 0.04012 -0.49100
O 	O 	0.90280 0.80070 0.13779 -0.34600
O 	O 	0.96700 0.96640 0.09791 -0.41700
O 	O 	0.40525 0.46280 0.54012 -0.49100
O 	O 	0.09720 0.19930 0.63779 -0.34600
O 	O 	0.03300 0.03360 0.59791 -0.41700
