data_crystal

_cell_length_a 18.38000
_cell_length_b 18.38000
_cell_length_c 18.38000
_cell_angle_alpha 60.25950
_cell_angle_beta  60.25950
_cell_angle_gamma 60.25950

_symmetry_space_group_name_	'P 1'
_symmetry_space_group_name_H-M	'P 1'

loop_
_symmetry_equiv_pos_as_xyz
  x,y,z

loop_
_atom_site_label
_atom_site_type_symbol
_atom_site_fract_x
_atom_site_fract_y
_atom_site_fract_z
_atom_site_charge
Zn	Zn	0.60933 0.78329 0.60933 1.20800
Zn	Zn	0.19614 0.02202 0.19614 1.19600
Zn	Zn	0.60933 0.60933 0.78329 1.20900
Zn	Zn	0.19614 0.19614 0.02202 1.19700
Zn	Zn	0.78329 0.60933 0.60933 1.20900
Zn	Zn	0.02202 0.19614 0.19614 1.19700
Zn	Zn	0.60879 0.60879 0.60879 1.20900
Zn	Zn	0.19661 0.19661 0.19661 1.20500
H 	H 	0.83930 0.05510 0.35670 0.08100
H 	H 	0.75090 0.96540 0.44480 0.03100
H 	H 	0.35670 0.83930 0.05510 0.08100
H 	H 	0.44480 0.75090 0.96540 0.03100
H 	H 	0.05510 0.35670 0.83930 0.08100
H 	H 	0.96540 0.44480 0.75090 0.03100
H 	H 	0.05510 0.83930 0.35670 0.08100
H 	H 	0.96540 0.75090 0.44480 0.03100
H 	H 	0.83930 0.35670 0.05510 0.08100
H 	H 	0.75090 0.44480 0.96540 0.03100
H 	H 	0.35670 0.05510 0.83930 0.08100
H 	H 	0.44480 0.96540 0.75090 0.03100
H 	H 	0.35850 0.05500 0.35850 0.04100
H 	H 	0.44760 0.96620 0.44760 0.05100
H 	H 	0.35800 0.83970 0.35800 0.05400
H 	H 	0.44630 0.75160 0.44630 0.04500
H 	H 	0.35850 0.35850 0.05500 0.04100
H 	H 	0.44760 0.44760 0.96620 0.05100
H 	H 	0.35800 0.35800 0.83970 0.05400
H 	H 	0.44630 0.44630 0.75160 0.04500
H 	H 	0.05500 0.35850 0.35850 0.04100
H 	H 	0.96620 0.44760 0.44760 0.05100
H 	H 	0.83970 0.35800 0.35800 0.05400
H 	H 	0.75160 0.44630 0.44630 0.04500
C 	C 	0.86557 0.99357 0.37447 -0.09100
C 	C 	0.81235 0.93945 0.42775 0.03400
C 	C 	0.37447 0.86557 0.99357 -0.09100
C 	C 	0.42775 0.81235 0.93945 0.03400
C 	C 	0.99357 0.37447 0.86557 -0.09100
C 	C 	0.93945 0.42775 0.81235 0.03400
C 	C 	0.99357 0.86557 0.37447 -0.09100
C 	C 	0.93945 0.81235 0.42775 0.03400
C 	C 	0.86557 0.37447 0.99357 -0.09100
C 	C 	0.81235 0.42775 0.93945 0.03400
C 	C 	0.37447 0.99357 0.86557 -0.09100
C 	C 	0.42775 0.93945 0.81235 0.03400
C 	C 	0.29093 0.01443 0.29093 0.35100
C 	C 	0.34934 0.95614 0.34934 -0.06300
C 	C 	0.37601 0.99361 0.37601 -0.00600
C 	C 	0.42980 0.94000 0.42980 -0.01800
C 	C 	0.37576 0.86586 0.37576 -0.03000
C 	C 	0.42903 0.81293 0.42903 -0.00900
C 	C 	0.45653 0.84883 0.45653 -0.08800
C 	C 	0.51439 0.79119 0.51439 0.38100
C 	C 	0.29093 0.29093 0.01443 0.35100
C 	C 	0.34934 0.34934 0.95614 -0.06300
C 	C 	0.37601 0.37601 0.99361 -0.00600
C 	C 	0.42980 0.42980 0.94000 -0.01800
C 	C 	0.37576 0.37576 0.86586 -0.03000
C 	C 	0.42903 0.42903 0.81293 -0.00900
C 	C 	0.45653 0.45653 0.84883 -0.08800
C 	C 	0.51439 0.51439 0.79119 0.38100
C 	C 	0.01443 0.29093 0.29093 0.35100
C 	C 	0.95614 0.34934 0.34934 -0.06300
C 	C 	0.99361 0.37601 0.37601 -0.00600
C 	C 	0.94000 0.42980 0.42980 -0.01800
C 	C 	0.86586 0.37576 0.37576 -0.03000
C 	C 	0.81293 0.42903 0.42903 -0.00900
C 	C 	0.84883 0.45653 0.45653 -0.08800
C 	C 	0.79119 0.51439 0.51439 0.38100
C 	C 	0.01460 0.01460 0.29090 0.29300
C 	C 	0.95626 0.95626 0.34836 -0.01100
C 	C 	0.84925 0.84925 0.45495 -0.12000
C 	C 	0.79099 0.79099 0.51459 0.39100
C 	C 	0.29090 0.01460 0.01460 0.29300
C 	C 	0.34836 0.95626 0.95626 -0.01100
C 	C 	0.45495 0.84925 0.84925 -0.12000
C 	C 	0.51459 0.79099 0.79099 0.39100
C 	C 	0.01460 0.29090 0.01460 0.29300
C 	C 	0.95626 0.34836 0.95626 -0.01100
C 	C 	0.84925 0.45495 0.84925 -0.12000
C 	C 	0.79099 0.51459 0.79099 0.39100
O 	O 	0.70787 0.82967 0.53677 -0.50800
O 	O 	0.97615 0.09705 0.26835 -0.46700
O 	O 	0.53677 0.70787 0.82967 -0.50800
O 	O 	0.26835 0.97615 0.09705 -0.46700
O 	O 	0.82967 0.53677 0.70787 -0.50800
O 	O 	0.09705 0.26835 0.97615 -0.46700
O 	O 	0.82967 0.70787 0.53677 -0.50800
O 	O 	0.09705 0.97615 0.26835 -0.46700
O 	O 	0.70787 0.53677 0.82967 -0.50800
O 	O 	0.97615 0.26835 0.09705 -0.46700
O 	O 	0.53677 0.82967 0.70787 -0.50800
O 	O 	0.26835 0.09705 0.97615 -0.46700
O 	O 	0.53696 0.82951 0.53696 -0.50600
O 	O 	0.53625 0.70805 0.53625 -0.50400
O 	O 	0.26927 0.09753 0.26927 -0.50200
O 	O 	0.26860 0.97635 0.26860 -0.48800
O 	O 	0.53696 0.53696 0.82951 -0.50600
O 	O 	0.53625 0.53625 0.70805 -0.50400
O 	O 	0.26927 0.26927 0.09753 -0.50200
O 	O 	0.26860 0.26860 0.97635 -0.48800
O 	O 	0.82951 0.53696 0.53696 -0.50600
O 	O 	0.70805 0.53625 0.53625 -0.50400
O 	O 	0.09753 0.26927 0.26927 -0.50200
O 	O 	0.97635 0.26860 0.26860 -0.48800
O 	O 	0.65253 0.65253 0.65253 -0.94300
O 	O 	0.15274 0.15274 0.15274 -0.95400
Zn	Zn	0.21671 0.39067 0.39067 1.20900
Zn	Zn	0.97798 0.80386 0.80386 1.19700
Zn	Zn	0.39067 0.39067 0.21671 1.20900
Zn	Zn	0.80386 0.80386 0.97798 1.19700
Zn	Zn	0.39067 0.21671 0.39067 1.20900
Zn	Zn	0.80386 0.97798 0.80386 1.19700
Zn	Zn	0.39121 0.39121 0.39121 1.20900
Zn	Zn	0.80339 0.80339 0.80339 1.20500
H 	H 	0.94490 0.16070 0.64330 0.08100
H 	H 	0.03460 0.24910 0.55520 0.03100
H 	H 	0.16070 0.64330 0.94490 0.08100
H 	H 	0.24910 0.55520 0.03460 0.03100
H 	H 	0.64330 0.94490 0.16070 0.08100
H 	H 	0.55520 0.03460 0.24910 0.03100
H 	H 	0.16070 0.94490 0.64330 0.08100
H 	H 	0.24910 0.03460 0.55520 0.03100
H 	H 	0.64330 0.16070 0.94490 0.08100
H 	H 	0.55520 0.24910 0.03460 0.03100
H 	H 	0.94490 0.64330 0.16070 0.08100
H 	H 	0.03460 0.55520 0.24910 0.03100
H 	H 	0.94500 0.64150 0.64150 0.04100
H 	H 	0.03380 0.55240 0.55240 0.05100
H 	H 	0.16030 0.64200 0.64200 0.05400
H 	H 	0.24840 0.55370 0.55370 0.04500
H 	H 	0.64150 0.64150 0.94500 0.04100
H 	H 	0.55240 0.55240 0.03380 0.05100
H 	H 	0.64200 0.64200 0.16030 0.05400
H 	H 	0.55370 0.55370 0.24840 0.04500
H 	H 	0.64150 0.94500 0.64150 0.04100
H 	H 	0.55240 0.03380 0.55240 0.05100
H 	H 	0.64200 0.16030 0.64200 0.05400
H 	H 	0.55370 0.24840 0.55370 0.04500
C 	C 	0.00643 0.13443 0.62553 -0.09100
C 	C 	0.06055 0.18765 0.57225 0.03400
C 	C 	0.13443 0.62553 0.00643 -0.09100
C 	C 	0.18765 0.57225 0.06055 0.03400
C 	C 	0.62553 0.00643 0.13443 -0.09100
C 	C 	0.57225 0.06055 0.18765 0.03400
C 	C 	0.13443 0.00643 0.62553 -0.09100
C 	C 	0.18765 0.06055 0.57225 0.03400
C 	C 	0.62553 0.13443 0.00643 -0.09100
C 	C 	0.57225 0.18765 0.06055 0.03400
C 	C 	0.00643 0.62553 0.13443 -0.09100
C 	C 	0.06055 0.57225 0.18765 0.03400
C 	C 	0.98557 0.70907 0.70907 0.35100
C 	C 	0.04386 0.65066 0.65066 -0.06300
C 	C 	0.00639 0.62399 0.62399 -0.00600
C 	C 	0.06000 0.57020 0.57020 -0.01800
C 	C 	0.13414 0.62424 0.62424 -0.03000
C 	C 	0.18707 0.57097 0.57097 -0.00900
C 	C 	0.15117 0.54347 0.54347 -0.08800
C 	C 	0.20881 0.48561 0.48561 0.38100
C 	C 	0.70907 0.70907 0.98557 0.35100
C 	C 	0.65066 0.65066 0.04386 -0.06300
C 	C 	0.62399 0.62399 0.00639 -0.00600
C 	C 	0.57020 0.57020 0.06000 -0.01800
C 	C 	0.62424 0.62424 0.13414 -0.03000
C 	C 	0.57097 0.57097 0.18707 -0.00900
C 	C 	0.54347 0.54347 0.15117 -0.08800
C 	C 	0.48561 0.48561 0.20881 0.38100
C 	C 	0.70907 0.98557 0.70907 0.35100
C 	C 	0.65066 0.04386 0.65066 -0.06300
C 	C 	0.62399 0.00639 0.62399 -0.00600
C 	C 	0.57020 0.06000 0.57020 -0.01800
C 	C 	0.62424 0.13414 0.62424 -0.03000
C 	C 	0.57097 0.18707 0.57097 -0.00900
C 	C 	0.54347 0.15117 0.54347 -0.08800
C 	C 	0.48561 0.20881 0.48561 0.38100
C 	C 	0.98540 0.98540 0.70910 0.29300
C 	C 	0.04374 0.04374 0.65164 -0.01100
C 	C 	0.15075 0.15075 0.54505 -0.12000
C 	C 	0.20901 0.20901 0.48541 0.39100
C 	C 	0.98540 0.70910 0.98540 0.29300
C 	C 	0.04374 0.65164 0.04374 -0.01100
C 	C 	0.15075 0.54505 0.15075 -0.12000
C 	C 	0.20901 0.48541 0.20901 0.39100
C 	C 	0.70910 0.98540 0.98540 0.29300
C 	C 	0.65164 0.04374 0.04374 -0.01100
C 	C 	0.54505 0.15075 0.15075 -0.12000
C 	C 	0.48541 0.20901 0.20901 0.39100
O 	O 	0.17033 0.29213 0.46323 -0.50800
O 	O 	0.90295 0.02385 0.73165 -0.46700
O 	O 	0.29213 0.46323 0.17033 -0.50800
O 	O 	0.02385 0.73165 0.90295 -0.46700
O 	O 	0.46323 0.17033 0.29213 -0.50800
O 	O 	0.73165 0.90295 0.02385 -0.46700
O 	O 	0.29213 0.17033 0.46323 -0.50800
O 	O 	0.02385 0.90295 0.73165 -0.46700
O 	O 	0.46323 0.29213 0.17033 -0.50800
O 	O 	0.73165 0.02385 0.90295 -0.46700
O 	O 	0.17033 0.46323 0.29213 -0.50800
O 	O 	0.90295 0.73165 0.02385 -0.46700
O 	O 	0.17049 0.46304 0.46304 -0.50600
O 	O 	0.29195 0.46375 0.46375 -0.50400
O 	O 	0.90247 0.73073 0.73073 -0.50200
O 	O 	0.02365 0.73140 0.73140 -0.48800
O 	O 	0.46304 0.46304 0.17049 -0.50600
O 	O 	0.46375 0.46375 0.29195 -0.50400
O 	O 	0.73073 0.73073 0.90247 -0.50200
O 	O 	0.73140 0.73140 0.02365 -0.48800
O 	O 	0.46304 0.17049 0.46304 -0.50600
O 	O 	0.46375 0.29195 0.46375 -0.50400
O 	O 	0.73073 0.90247 0.73073 -0.50200
O 	O 	0.73140 0.02365 0.73140 -0.48800
O 	O 	0.34747 0.34747 0.34747 -0.94300
O 	O 	0.84726 0.84726 0.84726 -0.95400
