data_crystal

_cell_length_a 18.36660
_cell_length_b 18.36660
_cell_length_c 18.36660
_cell_angle_alpha 60.05540
_cell_angle_beta  60.05540
_cell_angle_gamma 60.05540

_symmetry_space_group_name_	'P 1'
_symmetry_space_group_name_H-M	'P 1'

loop_
_symmetry_equiv_pos_as_xyz
  x,y,z

loop_
_atom_site_label
_atom_site_type_symbol
_atom_site_fract_x
_atom_site_fract_y
_atom_site_fract_z
_atom_site_charge
Zn	Zn	0.61047 0.78424 0.61047 1.20900
Zn	Zn	0.19740 0.02347 0.19740 1.19600
Zn	Zn	0.61047 0.61047 0.78424 1.20900
Zn	Zn	0.19740 0.19741 0.02347 1.19700
Zn	Zn	0.78424 0.61047 0.61047 1.21000
Zn	Zn	0.02347 0.19741 0.19740 1.19700
Zn	Zn	0.61011 0.61011 0.61011 1.21000
Zn	Zn	0.19754 0.19754 0.19754 1.20900
H 	H 	0.35690 0.83960 0.05730 0.08000
H 	H 	0.44620 0.75090 0.96820 0.03200
H 	H 	0.05730 0.35690 0.83960 0.08000
H 	H 	0.96820 0.44620 0.75090 0.03200
H 	H 	0.83960 0.05730 0.35690 0.08000
H 	H 	0.75090 0.96820 0.44620 0.03200
H 	H 	0.83960 0.35690 0.05730 0.08000
H 	H 	0.75090 0.44620 0.96820 0.03200
H 	H 	0.35690 0.05730 0.83960 0.08000
H 	H 	0.44620 0.96820 0.75090 0.03200
H 	H 	0.05730 0.83960 0.35690 0.08000
H 	H 	0.96820 0.75090 0.44620 0.03200
H 	H 	0.35940 0.05620 0.35940 0.04200
H 	H 	0.44800 0.96810 0.44800 0.05000
H 	H 	0.35920 0.84000 0.35920 0.05300
H 	H 	0.44820 0.75080 0.44820 0.04600
H 	H 	0.35940 0.35940 0.05620 0.04200
H 	H 	0.44800 0.44800 0.96810 0.05000
H 	H 	0.35920 0.35920 0.84000 0.05300
H 	H 	0.44820 0.44820 0.75080 0.04600
H 	H 	0.05620 0.35940 0.35940 0.04200
H 	H 	0.96810 0.44800 0.44800 0.05000
H 	H 	0.84000 0.35920 0.35920 0.05300
H 	H 	0.75080 0.44820 0.44820 0.04600
C 	C 	0.37541 0.86591 0.99571 -0.08600
C 	C 	0.42915 0.81265 0.94195 0.03000
C 	C 	0.99571 0.37541 0.86591 -0.08600
C 	C 	0.94195 0.42915 0.81265 0.03000
C 	C 	0.86591 0.99571 0.37541 -0.08600
C 	C 	0.81265 0.94195 0.42915 0.03000
C 	C 	0.86591 0.37541 0.99571 -0.08600
C 	C 	0.81265 0.42915 0.94195 0.03000
C 	C 	0.37541 0.99571 0.86591 -0.08600
C 	C 	0.42915 0.94195 0.81265 0.03000
C 	C 	0.99571 0.86591 0.37541 -0.08600
C 	C 	0.94195 0.81265 0.42915 0.03000
C 	C 	0.29181 0.01633 0.29181 0.36700
C 	C 	0.35013 0.95741 0.35013 -0.06900
C 	C 	0.37703 0.99463 0.37703 -0.00400
C 	C 	0.43056 0.94136 0.43056 -0.01500
C 	C 	0.37700 0.86620 0.37700 -0.02500
C 	C 	0.43048 0.81258 0.43048 -0.01100
C 	C 	0.45782 0.85069 0.45782 -0.09200
C 	C 	0.51556 0.79212 0.51556 0.39500
C 	C 	0.29181 0.29181 0.01633 0.36700
C 	C 	0.35013 0.35013 0.95741 -0.06900
C 	C 	0.37703 0.37703 0.99463 -0.00400
C 	C 	0.43056 0.43056 0.94136 -0.01500
C 	C 	0.37700 0.37700 0.86620 -0.02500
C 	C 	0.43048 0.43048 0.81258 -0.01100
C 	C 	0.45782 0.45782 0.85069 -0.09200
C 	C 	0.51556 0.51556 0.79212 0.39500
C 	C 	0.01633 0.29181 0.29181 0.36700
C 	C 	0.95741 0.35013 0.35013 -0.06900
C 	C 	0.99463 0.37703 0.37703 -0.00400
C 	C 	0.94136 0.43056 0.43056 -0.01500
C 	C 	0.86620 0.37700 0.37700 -0.02500
C 	C 	0.81258 0.43048 0.43048 -0.01100
C 	C 	0.85069 0.45782 0.45782 -0.09200
C 	C 	0.79212 0.51556 0.51556 0.39500
C 	C 	0.29170 0.01585 0.01585 0.30300
C 	C 	0.34919 0.95799 0.95799 -0.02000
C 	C 	0.45758 0.85008 0.85008 -0.11900
C 	C 	0.51583 0.79182 0.79182 0.40200
C 	C 	0.01585 0.29170 0.01585 0.30300
C 	C 	0.95799 0.34919 0.95799 -0.02000
C 	C 	0.85008 0.45758 0.85008 -0.11900
C 	C 	0.79182 0.51583 0.79182 0.40200
C 	C 	0.01585 0.01585 0.29170 0.30300
C 	C 	0.95799 0.95799 0.34919 -0.02000
C 	C 	0.85008 0.85008 0.45758 -0.11900
C 	C 	0.79182 0.79182 0.51583 0.40200
O 	O 	0.53831 0.83071 0.70901 -0.51400
O 	O 	0.26975 0.97725 0.09815 -0.47000
O 	O 	0.70901 0.53831 0.83071 -0.51400
O 	O 	0.09815 0.26975 0.97725 -0.47000
O 	O 	0.83071 0.70901 0.53831 -0.51400
O 	O 	0.97725 0.09815 0.26975 -0.47000
O 	O 	0.83071 0.53831 0.70901 -0.51400
O 	O 	0.97725 0.26975 0.09815 -0.47000
O 	O 	0.53831 0.70901 0.83071 -0.51400
O 	O 	0.26975 0.09815 0.97725 -0.47000
O 	O 	0.70901 0.83071 0.53831 -0.51400
O 	O 	0.09815 0.97725 0.26975 -0.47000
O 	O 	0.53776 0.83097 0.53776 -0.50800
O 	O 	0.53751 0.70973 0.53751 -0.51200
O 	O 	0.27019 0.09815 0.27019 -0.51200
O 	O 	0.26997 0.97718 0.26997 -0.49000
O 	O 	0.53776 0.53776 0.83097 -0.50800
O 	O 	0.53751 0.53751 0.70973 -0.51200
O 	O 	0.27019 0.27019 0.09815 -0.51200
O 	O 	0.26997 0.26997 0.97718 -0.49100
O 	O 	0.83097 0.53776 0.53776 -0.50800
O 	O 	0.70973 0.53751 0.53751 -0.51200
O 	O 	0.09815 0.27019 0.27019 -0.51200
O 	O 	0.97718 0.26997 0.26997 -0.49100
O 	O 	0.65368 0.65368 0.65368 -0.94900
O 	O 	0.15433 0.15433 0.15433 -0.96200
Zn	Zn	0.21576 0.38953 0.38953 1.21000
Zn	Zn	0.97653 0.80259 0.80259 1.19700
Zn	Zn	0.38953 0.38953 0.21576 1.21000
Zn	Zn	0.80259 0.80260 0.97653 1.19700
Zn	Zn	0.38953 0.21576 0.38953 1.21000
Zn	Zn	0.80259 0.97653 0.80259 1.19700
Zn	Zn	0.38989 0.38989 0.38989 1.21000
Zn	Zn	0.80246 0.80246 0.80246 1.20900
H 	H 	0.16040 0.64310 0.94270 0.08000
H 	H 	0.24910 0.55380 0.03180 0.03200
H 	H 	0.64310 0.94270 0.16040 0.08000
H 	H 	0.55380 0.03180 0.24910 0.03200
H 	H 	0.94270 0.16040 0.64310 0.08000
H 	H 	0.03180 0.24910 0.55380 0.03200
H 	H 	0.64310 0.16040 0.94270 0.08000
H 	H 	0.55380 0.24910 0.03180 0.03200
H 	H 	0.94270 0.64310 0.16040 0.08000
H 	H 	0.03180 0.55380 0.24910 0.03200
H 	H 	0.16040 0.94270 0.64310 0.08000
H 	H 	0.24910 0.03180 0.55380 0.03200
H 	H 	0.94380 0.64060 0.64060 0.04200
H 	H 	0.03190 0.55200 0.55200 0.05000
H 	H 	0.16000 0.64080 0.64080 0.05300
H 	H 	0.24920 0.55180 0.55180 0.04600
H 	H 	0.64060 0.64060 0.94380 0.04200
H 	H 	0.55200 0.55200 0.03190 0.05000
H 	H 	0.64080 0.64080 0.16000 0.05300
H 	H 	0.55180 0.55180 0.24920 0.04600
H 	H 	0.64060 0.94380 0.64060 0.04200
H 	H 	0.55200 0.03190 0.55200 0.05000
H 	H 	0.64080 0.16000 0.64080 0.05300
H 	H 	0.55180 0.24920 0.55180 0.04600
C 	C 	0.13409 0.62459 0.00429 -0.08600
C 	C 	0.18735 0.57085 0.05805 0.03000
C 	C 	0.62459 0.00429 0.13409 -0.08600
C 	C 	0.57085 0.05805 0.18735 0.03000
C 	C 	0.00429 0.13409 0.62459 -0.08600
C 	C 	0.05805 0.18735 0.57085 0.03000
C 	C 	0.62459 0.13409 0.00429 -0.08600
C 	C 	0.57085 0.18735 0.05805 0.03000
C 	C 	0.00429 0.62459 0.13409 -0.08600
C 	C 	0.05805 0.57085 0.18735 0.03000
C 	C 	0.13409 0.00429 0.62459 -0.08600
C 	C 	0.18735 0.05805 0.57085 0.03000
C 	C 	0.98367 0.70819 0.70819 0.36700
C 	C 	0.04259 0.64987 0.64987 -0.06900
C 	C 	0.00537 0.62297 0.62297 -0.00400
C 	C 	0.05864 0.56944 0.56944 -0.01500
C 	C 	0.13380 0.62300 0.62300 -0.02500
C 	C 	0.18742 0.56952 0.56952 -0.01100
C 	C 	0.14931 0.54218 0.54218 -0.09200
C 	C 	0.20788 0.48444 0.48444 0.39500
C 	C 	0.70819 0.70819 0.98367 0.36700
C 	C 	0.64987 0.64987 0.04259 -0.06900
C 	C 	0.62297 0.62297 0.00537 -0.00400
C 	C 	0.56944 0.56944 0.05864 -0.01500
C 	C 	0.62300 0.62300 0.13380 -0.02500
C 	C 	0.56952 0.56952 0.18742 -0.01100
C 	C 	0.54218 0.54218 0.14931 -0.09200
C 	C 	0.48444 0.48444 0.20788 0.39500
C 	C 	0.70819 0.98367 0.70819 0.36700
C 	C 	0.64987 0.04259 0.64987 -0.06900
C 	C 	0.62297 0.00537 0.62297 -0.00400
C 	C 	0.56944 0.05864 0.56944 -0.01500
C 	C 	0.62300 0.13380 0.62300 -0.02500
C 	C 	0.56952 0.18742 0.56952 -0.01100
C 	C 	0.54218 0.14931 0.54218 -0.09200
C 	C 	0.48444 0.20788 0.48444 0.39500
C 	C 	0.98415 0.70830 0.98415 0.30300
C 	C 	0.04201 0.65081 0.04201 -0.02000
C 	C 	0.14992 0.54242 0.14992 -0.11900
C 	C 	0.20818 0.48417 0.20818 0.40200
C 	C 	0.70830 0.98415 0.98415 0.30300
C 	C 	0.65081 0.04201 0.04201 -0.02000
C 	C 	0.54242 0.14992 0.14992 -0.11900
C 	C 	0.48417 0.20818 0.20818 0.40200
C 	C 	0.98415 0.98415 0.70830 0.30300
C 	C 	0.04201 0.04201 0.65081 -0.02000
C 	C 	0.14992 0.14992 0.54242 -0.11900
C 	C 	0.20818 0.20818 0.48417 0.40200
O 	O 	0.16929 0.46169 0.29099 -0.51400
O 	O 	0.02275 0.73025 0.90185 -0.47000
O 	O 	0.46169 0.29099 0.16929 -0.51400
O 	O 	0.73025 0.90185 0.02275 -0.47000
O 	O 	0.29099 0.16929 0.46169 -0.51400
O 	O 	0.90185 0.02275 0.73025 -0.47000
O 	O 	0.46169 0.16929 0.29099 -0.51400
O 	O 	0.73025 0.02275 0.90185 -0.47000
O 	O 	0.29099 0.46169 0.16929 -0.51400
O 	O 	0.90185 0.73025 0.02275 -0.47000
O 	O 	0.16929 0.29099 0.46169 -0.51400
O 	O 	0.02275 0.90185 0.73025 -0.47000
O 	O 	0.16903 0.46224 0.46224 -0.50800
O 	O 	0.29027 0.46249 0.46249 -0.51200
O 	O 	0.90185 0.72981 0.72981 -0.51200
O 	O 	0.02282 0.73003 0.73003 -0.49100
O 	O 	0.46224 0.46224 0.16903 -0.50800
O 	O 	0.46249 0.46249 0.29027 -0.51200
O 	O 	0.72981 0.72981 0.90185 -0.51200
O 	O 	0.73003 0.73003 0.02282 -0.49100
O 	O 	0.46224 0.16903 0.46224 -0.50800
O 	O 	0.46249 0.29027 0.46249 -0.51200
O 	O 	0.72981 0.90185 0.72981 -0.51200
O 	O 	0.73003 0.02282 0.73003 -0.49100
O 	O 	0.34632 0.34632 0.34632 -0.94900
O 	O 	0.84567 0.84567 0.84567 -0.96200
