data_crystal

_cell_length_a 9.05310
_cell_length_b 16.34200
_cell_length_c 19.21800
_cell_angle_alpha 90.00000
_cell_angle_beta  90.00000
_cell_angle_gamma 92.80400

_symmetry_space_group_name_	'P 1'
_symmetry_space_group_name_H-M	'P 1'

loop_
_symmetry_equiv_pos_as_xyz
  x,y,z

loop_
_atom_site_label
_atom_site_type_symbol
_atom_site_fract_x
_atom_site_fract_y
_atom_site_fract_z
_atom_site_charge
Zn	Zn	0.63241 0.59695 0.68554 1.20700
Zn	Zn	0.36759 0.40305 0.31446 1.20700
Zn	Zn	0.13241 0.09695 0.81446 1.20600
Zn	Zn	0.86759 0.90305 0.18554 1.20600
H 	H 	0.83700 0.30350 0.40210 0.08100
H 	H 	0.91480 0.81870 0.73130 0.06900
H 	H 	0.07930 0.26240 0.75780 -0.01000
H 	H 	0.03340 0.37290 0.86400 0.06100
H 	H 	0.41480 0.31870 0.76870 0.06600
H 	H 	0.91790 0.33140 0.69130 0.09800
H 	H 	0.63400 0.47300 0.39040 -0.00600
H 	H 	0.84350 0.50060 0.09370 0.05400
H 	H 	0.31740 0.56630 0.74450 -0.00900
H 	H 	0.58210 0.16860 0.19130 0.09800
H 	H 	0.81740 0.06630 0.75550 -0.00900
H 	H 	0.71580 0.12530 0.10240 0.06000
H 	H 	0.29000 0.34680 0.45950 -0.01200
H 	H 	0.21580 0.62530 0.39760 0.06200
H 	H 	0.46660 0.12710 0.36400 0.06100
H 	H 	0.39860 0.17390 0.42630 0.05700
H 	H 	0.42070 0.23760 0.25780 -0.00900
H 	H 	0.53340 0.87290 0.63600 0.06100
H 	H 	0.58520 0.68130 0.23130 0.06600
H 	H 	0.36600 0.52700 0.60960 -0.00600
H 	H 	0.96660 0.62710 0.13600 0.06100
H 	H 	0.34910 0.86900 0.31320 0.09600
H 	H 	0.78420 0.37470 0.60240 0.06200
H 	H 	0.73480 0.05400 0.99040 0.09700
H 	H 	0.15300 0.61450 0.97590 0.05900
H 	H 	0.18260 0.93370 0.24450 -0.00900
H 	H 	0.21000 0.15320 0.95950 -0.01000
H 	H 	0.39550 0.75310 0.56400 0.11800
H 	H 	0.26520 0.94600 0.00960 0.09700
H 	H 	0.08210 0.66860 0.30870 0.09800
H 	H 	0.57930 0.76240 0.74220 -0.00900
H 	H 	0.60450 0.24690 0.43600 0.11800
H 	H 	0.15090 0.63100 0.81320 0.09500
H 	H 	0.10140 0.32610 0.92630 0.05700
H 	H 	0.65650 0.99940 0.59370 0.05400
H 	H 	0.65300 0.11450 0.52410 0.05900
H 	H 	0.71000 0.65320 0.54050 -0.01200
H 	H 	0.34700 0.88550 0.47590 0.05900
H 	H 	0.68820 0.08520 0.32980 0.08600
H 	H 	0.59010 0.68300 0.44030 0.09800
H 	H 	0.79000 0.84680 0.04050 -0.01000
H 	H 	0.28420 0.87470 0.89760 0.06000
H 	H 	0.31180 0.91480 0.67020 0.08600
H 	H 	0.42420 0.74990 0.37760 0.06300
H 	H 	0.16300 0.69650 0.59790 0.08100
H 	H 	0.65090 0.13100 0.68680 0.09600
H 	H 	0.76520 0.44600 0.49040 0.09900
H 	H 	0.89550 0.25310 0.93600 0.11800
H 	H 	0.60140 0.82610 0.57370 0.05700
H 	H 	0.90990 0.81700 0.94030 0.09500
H 	H 	0.89860 0.67390 0.07370 0.05700
H 	H 	0.23480 0.55400 0.50960 0.09900
H 	H 	0.15650 0.49940 0.90630 0.05400
H 	H 	0.57580 0.25010 0.62240 0.06300
H 	H 	0.18820 0.58520 0.17020 0.08600
H 	H 	0.09010 0.18300 0.05970 0.09500
H 	H 	0.41790 0.83140 0.80870 0.09800
H 	H 	0.33700 0.80350 0.09790 0.08100
H 	H 	0.07580 0.75010 0.87760 0.06400
H 	H 	0.86600 0.02700 0.89040 -0.00500
H 	H 	0.92070 0.73760 0.24220 -0.01000
H 	H 	0.40990 0.31700 0.55970 0.09800
H 	H 	0.68260 0.43370 0.25550 -0.00900
H 	H 	0.10450 0.74690 0.06400 0.11800
H 	H 	0.13400 0.97300 0.10960 -0.00500
H 	H 	0.81180 0.41480 0.82980 0.08600
H 	H 	0.08520 0.18130 0.26870 0.06900
H 	H 	0.66300 0.19650 0.90210 0.08100
H 	H 	0.84910 0.36900 0.18680 0.09500
H 	H 	0.92420 0.24990 0.12240 0.06400
H 	H 	0.34350 0.00060 0.40630 0.05400
H 	H 	0.84700 0.38550 0.02410 0.05900
C 	C 	0.59190 0.45050 0.74410 0.29400
C 	C 	0.76140 0.34120 0.19990 -0.18400
C 	C 	0.16030 0.88000 0.25850 0.10400
C 	C 	0.35000 0.75750 0.12530 -0.10700
C 	C 	0.00750 0.76490 0.25710 0.09600
C 	C 	0.50090 0.31500 0.79470 -0.03400
C 	C 	0.09110 0.56890 0.98620 -0.06500
C 	C 	0.49910 0.68500 0.20530 -0.03400
C 	C 	0.38800 0.36550 0.46480 0.09900
C 	C 	0.41040 0.56050 0.57570 0.09400
C 	C 	0.88890 0.12260 0.29140 -0.02200
C 	C 	0.50750 0.26490 0.24290 0.09500
C 	C 	0.59110 0.06890 0.51380 -0.06500
C 	C 	0.50210 0.92970 0.54290 0.04900
C 	C 	0.83110 0.22420 0.12850 -0.09500
C 	C 	0.00210 0.42970 0.95710 0.04800
C 	C 	0.73860 0.15880 0.69990 -0.18300
C 	C 	0.15000 0.74250 0.62530 -0.10800
C 	C 	0.48480 0.14550 0.41130 -0.09200
C 	C 	0.83970 0.12000 0.74150 0.10400
C 	C 	0.99790 0.57030 0.04290 0.04800
C 	C 	0.09270 0.49930 0.94420 -0.07000
C 	C 	0.33110 0.72420 0.37150 -0.09200
C 	C 	0.09190 0.95050 0.75590 0.28900
C 	C 	0.40810 0.54950 0.25590 0.29400
C 	C 	0.08960 0.93950 0.07570 0.09200
C 	C 	0.91040 0.06050 0.92430 0.09200
C 	C 	0.49250 0.73510 0.75710 0.09500
C 	C 	0.04010 0.15330 0.02490 -0.17500
C 	C 	0.60390 0.22330 0.20240 -0.17800
C 	C 	0.76020 0.12780 0.33120 -0.10700
C 	C 	0.39610 0.77670 0.79760 -0.17800
C 	C 	0.10670 0.87160 0.96600 0.11700
C 	C 	0.69890 0.34330 0.59130 -0.09000
C 	C 	0.17030 0.92280 0.01580 -0.17600
C 	C 	0.89330 0.12840 0.03400 0.11700
C 	C 	0.90810 0.04950 0.24410 0.28900
C 	C 	0.59270 0.99930 0.55580 -0.07000
C 	C 	0.48050 0.75250 0.16330 -0.03000
C 	C 	0.30110 0.65670 0.40870 -0.09000
C 	C 	0.49790 0.07030 0.45710 0.04900
C 	C 	0.23900 0.69580 0.12720 0.12200
C 	C 	0.32970 0.57720 0.51580 -0.18200
C 	C 	0.23860 0.65880 0.80010 -0.18400
C 	C 	0.99250 0.23510 0.74290 0.09600
C 	C 	0.90890 0.43110 0.01380 -0.06500
C 	C 	0.90730 0.50070 0.05580 -0.07000
C 	C 	0.66890 0.27580 0.62850 -0.09200
C 	C 	0.76730 0.23810 0.67790 0.13500
C 	C 	0.33970 0.62000 0.75850 0.10500
C 	C 	0.98480 0.64550 0.08870 -0.09300
C 	C 	0.54010 0.65330 0.47510 -0.18600
C 	C 	0.23980 0.87220 0.66880 -0.10700
C 	C 	0.09720 0.32090 0.34260 0.31300
C 	C 	0.61200 0.63450 0.53520 0.09900
C 	C 	0.60670 0.37160 0.53400 0.12700
C 	C 	0.38890 0.62260 0.20860 -0.02400
C 	C 	0.11110 0.87740 0.70860 -0.02200
C 	C 	0.26730 0.73810 0.82210 0.13600
C 	C 	0.01520 0.35450 0.91130 -0.09300
C 	C 	0.58960 0.43950 0.42430 0.09400
C 	C 	0.26020 0.62780 0.16880 -0.10500
C 	C 	0.45990 0.34670 0.52490 -0.18600
C 	C 	0.90280 0.67910 0.65740 0.31300
C 	C 	0.89610 0.27670 0.70240 -0.17800
C 	C 	0.82970 0.07720 0.98420 -0.17600
C 	C 	0.16890 0.77580 0.87150 -0.09500
C 	C 	0.95990 0.84670 0.97510 -0.17500
C 	C 	0.26100 0.80420 0.62720 0.12200
C 	C 	0.26140 0.84120 0.30010 -0.18300
C 	C 	0.40730 0.00070 0.44420 -0.07000
C 	C 	0.51950 0.24750 0.83670 -0.03000
C 	C 	0.76100 0.30420 0.87280 0.12200
C 	C 	0.40280 0.17910 0.84260 0.31200
C 	C 	0.73980 0.37220 0.83120 -0.10500
C 	C 	0.01950 0.74750 0.66330 -0.03000
C 	C 	0.88800 0.86550 0.03520 0.09200
C 	C 	0.11200 0.13450 0.96480 0.09200
C 	C 	0.73900 0.19580 0.37280 0.12200
C 	C 	0.65000 0.24250 0.87470 -0.10700
C 	C 	0.73270 0.26190 0.17790 0.13600
C 	C 	0.19890 0.84330 0.90870 -0.08500
C 	C 	0.61110 0.37740 0.79140 -0.02400
C 	C 	0.99910 0.18500 0.29470 -0.03900
C 	C 	0.59720 0.82090 0.15740 0.31200
C 	C 	0.85000 0.25750 0.37470 -0.10800
C 	C 	0.80110 0.15670 0.09130 -0.08500
C 	C 	0.98050 0.25250 0.33670 -0.03000
C 	C 	0.39330 0.62840 0.46600 0.12700
C 	C 	0.51520 0.85450 0.58870 -0.09200
C 	C 	0.66030 0.38000 0.24150 0.10500
C 	C 	0.00090 0.81500 0.70530 -0.03900
C 	C 	0.23270 0.76190 0.32210 0.13500
C 	C 	0.40890 0.93110 0.48620 -0.06500
C 	C 	0.67030 0.42280 0.48420 -0.18200
C 	C 	0.10390 0.72330 0.29760 -0.17800
N 	N 	0.54830 0.59070 0.58646 -0.27500
N 	N 	0.46630 0.65620 0.73800 -0.26700
N 	N 	0.03370 0.84380 0.23800 -0.26700
N 	N 	0.88970 0.29630 0.91070 -0.19300
N 	N 	0.45170 0.40930 0.41354 -0.27500
N 	N 	0.53370 0.34380 0.26200 -0.26700
N 	N 	0.61030 0.20370 0.41070 -0.19400
N 	N 	0.95170 0.90930 0.08646 -0.27400
N 	N 	0.11030 0.70370 0.08930 -0.19300
N 	N 	0.38970 0.79630 0.58930 -0.19400
N 	N 	0.04830 0.09070 0.91354 -0.27400
N 	N 	0.96630 0.15620 0.76200 -0.26700
O 	O 	0.30190 0.49540 0.25946 -0.44300
O 	O 	0.52380 0.54370 0.28966 -0.32300
O 	O 	0.57790 0.87980 0.11900 -0.30700
O 	O 	0.80190 0.99540 0.24054 -0.44200
O 	O 	0.92210 0.62020 0.61900 -0.30600
O 	O 	0.07790 0.37980 0.38100 -0.30600
O 	O 	0.19810 0.00460 0.75946 -0.44200
O 	O 	0.02380 0.04370 0.21034 -0.32000
O 	O 	0.28420 0.18710 0.80788 -0.45000
O 	O 	0.42210 0.12020 0.88100 -0.30700
O 	O 	0.71580 0.81290 0.19212 -0.45000
O 	O 	0.78420 0.68710 0.69212 -0.45000
O 	O 	0.69810 0.50460 0.74054 -0.44300
O 	O 	0.21580 0.31290 0.30788 -0.45000
O 	O 	0.97620 0.95630 0.78966 -0.32000
O 	O 	0.47620 0.45630 0.71034 -0.32300
