data_crystal

_cell_length_a 24.42520
_cell_length_b 19.04250
_cell_length_c 26.71530
_cell_angle_alpha 90.00000
_cell_angle_beta  90.00000
_cell_angle_gamma 90.00000

_symmetry_space_group_name_	'P 1'
_symmetry_space_group_name_H-M	'P 1'

loop_
_symmetry_equiv_pos_as_xyz
  x,y,z

loop_
_atom_site_label
_atom_site_type_symbol
_atom_site_fract_x
_atom_site_fract_y
_atom_site_fract_z
_atom_site_charge
Mn	Mn	0.86911 0.73950 0.87022 1.32200
Mn	Mn	0.77205 0.81987 0.92449 1.32400
Mn	Mn	0.84852 0.95066 0.94610 1.32600
Mn	Mn	0.83223 0.89114 0.83900 1.32000
Mn	Mn	0.94578 0.87106 0.89032 1.30900
Mn	Mn	0.88583 0.79640 0.98259 1.28300
O 	O 	0.85439 0.84770 0.90383 -0.90000
C 	C 	0.99240 0.71040 0.92550 -0.08100
C 	C 	0.94110 0.67010 0.94240 0.09700
H 	H 	0.93880 0.62570 0.92320 -0.00900
H 	H 	0.94510 0.65780 0.97820 -0.01900
O 	O 	0.89122 0.70843 0.93580 -0.60400
C 	C 	0.98890 0.72890 0.87040 0.09700
H 	H 	0.02350 0.75180 0.86020 -0.01800
H 	H 	0.98520 0.68510 0.85080 -0.01500
O 	O 	0.94411 0.77462 0.85838 -0.59600
C 	C 	0.00300 0.77570 0.95680 0.11200
H 	H 	0.00800 0.76130 0.99210 -0.02000
H 	H 	0.03780 0.79720 0.94540 -0.02200
O 	O 	0.96142 0.82743 0.95466 -0.59800
C 	C 	0.04150 0.66020 0.93230 -0.28500
H 	H 	0.07490 0.68300 0.92010 0.09100
H 	H 	0.03510 0.61700 0.91330 0.09300
H 	H 	0.04580 0.64890 0.96790 0.09300
C 	C 	0.91400 0.03800 0.85310 -0.05000
C 	C 	0.92700 0.98140 0.81460 0.07500
H 	H 	0.90800 0.99330 0.78290 -0.00200
H 	H 	0.96680 0.98230 0.80780 -0.00000
O 	O 	0.91183 0.91134 0.82875 -0.58300
C 	C 	0.85290 0.04540 0.86160 0.08400
H 	H 	0.84660 0.08550 0.88450 0.00300
H 	H 	0.83530 0.05700 0.82920 0.00100
O 	O 	0.82690 0.98498 0.88186 -0.56200
C 	C 	0.94320 0.02430 0.90230 0.06200
H 	H 	0.98310 0.02220 0.89590 0.00500
H 	H 	0.93640 0.06440 0.92500 0.00700
O 	O 	0.92695 0.96067 0.92742 -0.56000
C 	C 	0.93540 0.10820 0.83190 -0.31100
H 	H 	0.91720 0.11810 0.79990 0.09400
H 	H 	0.97500 0.10490 0.82660 0.10400
H 	H 	0.92760 0.14610 0.85560 0.10100
C 	C 	0.74910 0.75030 0.80790 -0.05600
C 	C 	0.75390 0.70270 0.85300 0.07300
H 	H 	0.71730 0.69770 0.86860 0.00500
H 	H 	0.76570 0.65560 0.84170 0.00800
O 	O 	0.79165 0.72760 0.89003 -0.57400
C 	C 	0.72580 0.82150 0.82200 0.08200
H 	H 	0.72270 0.85040 0.79130 -0.00600
H 	H 	0.68840 0.81470 0.83550 -0.00400
O 	O 	0.75775 0.85998 0.85842 -0.57300
C 	C 	0.80380 0.75750 0.78030 0.08400
H 	H 	0.81540 0.71050 0.76860 -0.00900
H 	H 	0.79820 0.78730 0.75040 -0.01500
O 	O 	0.84673 0.78712 0.80999 -0.56800
C 	C 	0.70860 0.71580 0.77120 -0.30400
H 	H 	0.67230 0.71320 0.78680 0.09500
H 	H 	0.72130 0.66840 0.76300 0.09800
H 	H 	0.70650 0.74400 0.74060 0.09300
C 	C 	0.77870 0.88300 0.04420 -0.06300
C 	C 	0.74890 0.92470 0.00460 0.08500
H 	H 	0.71030 0.90890 0.00320 -0.00200
H 	H 	0.74890 0.97490 0.01420 -0.00800
O 	O 	0.77273 0.91780 0.95568 -0.57200
C 	C 	0.83790 0.90840 0.04930 0.08200
H 	H 	0.83740 0.95850 0.05920 -0.00700
H 	H 	0.85560 0.88180 0.07680 -0.01100
O 	O 	0.87068 0.90110 0.00510 -0.58200
C 	C 	0.77530 0.80370 0.03320 0.08800
H 	H 	0.79390 0.77820 0.06060 -0.01900
H 	H 	0.73630 0.78960 0.03360 -0.01400
O 	O 	0.79870 0.78180 0.98676 -0.57700
C 	C 	0.75030 0.89460 0.09430 -0.29500
H 	H 	0.75520 0.94350 0.10480 0.08700
H 	H 	0.76630 0.86330 0.11950 0.09000
H 	H 	0.71120 0.88450 0.09090 0.09200
C 	C 	0.81000 0.09140 0.98400 0.60100
C 	C 	0.81870 0.15490 0.01570 -0.91300
H 	H 	0.78890 0.15880 0.04020 0.26300
H 	H 	0.81920 0.19690 0.99450 0.29100
H 	H 	0.85380 0.15090 0.03340 0.27100
O 	O 	0.84906 0.04568 0.98449 -0.51800
O 	O 	0.76795 0.08480 0.95948 -0.47400
C 	C 	0.05400 0.88800 0.83660 0.61300
C 	C 	0.11190 0.91220 0.83620 -0.92900
H 	H 	0.13160 0.88930 0.80880 0.28300
H 	H 	0.12930 0.90000 0.86810 0.27400
H 	H 	0.11300 0.96320 0.83160 0.28100
O 	O 	0.02773 0.89910 0.87753 -0.52800
O 	O 	0.03307 0.86100 0.79908 -0.50000
C 	C 	0.86860 0.58330 0.85060 0.58500
C 	C 	0.89130 0.52200 0.82170 -0.88600
H 	H 	0.88630 0.47880 0.84110 0.28200
H 	H 	0.93040 0.52960 0.81550 0.26900
H 	H 	0.87200 0.51790 0.78970 0.27900
O 	O 	0.88282 0.64420 0.83392 -0.49500
O 	O 	0.83906 0.57320 0.88761 -0.46700
C 	C 	0.77180 0.97970 0.76930 0.64200
C 	C 	0.76900 0.01090 0.72050 -0.98800
H 	H 	0.74380 0.05100 0.72120 0.29900
H 	H 	0.75580 0.97600 0.69630 0.28900
H 	H 	0.80550 0.02700 0.71050 0.29400
O 	O 	0.81175 0.93390 0.77687 -0.54600
O 	O 	0.73964 0.99810 0.80196 -0.45100
C 	C 	0.94060 0.77840 0.08040 0.51800
C 	C 	0.95400 0.74200 0.12880 -0.79500
H 	H 	0.94430 0.77260 0.15700 0.23800
H 	H 	0.99320 0.73140 0.13000 0.23600
H 	H 	0.93300 0.69820 0.13110 0.24000
O 	O 	0.90940 0.75330 0.04820 -0.52900
O 	O 	0.96700 0.83940 0.07400 -0.39100
C 	C 	0.65140 0.83710 0.92690 0.58900
C 	C 	0.59720 0.80020 0.92640 -0.87800
H 	H 	0.56770 0.83490 0.92710 0.26900
H 	H 	0.59440 0.76960 0.95580 0.27200
H 	H 	0.59420 0.77180 0.89590 0.26400
O 	O 	0.69290 0.79750 0.93663 -0.51800
O 	O 	0.65403 0.89930 0.91632 -0.43500
Na	Na	0.93910 0.81533 0.77456 0.57700
Na	Na	0.96809 0.92324 0.01192 0.59200
Na	Na	0.72500 0.98193 0.88983 0.59000
Na	Na	0.81052 0.64605 0.95665 0.57900
O 	O 	0.94953 0.04282 0.02970 -0.81400
H 	H 	0.95130 0.06080 0.05830 0.36100
H 	H 	0.91850 0.05290 0.01820 0.36200
Mn	Mn	0.63089 0.76050 0.37022 1.32100
Mn	Mn	0.72795 0.68013 0.42449 1.32300
Mn	Mn	0.65148 0.54934 0.44610 1.32500
Mn	Mn	0.66777 0.60886 0.33900 1.31900
Mn	Mn	0.55422 0.62894 0.39032 1.30800
Mn	Mn	0.61417 0.70360 0.48259 1.28200
O 	O 	0.64561 0.65230 0.40383 -0.90100
C 	C 	0.50760 0.78960 0.42550 -0.07700
C 	C 	0.55890 0.82990 0.44240 0.09400
H 	H 	0.56120 0.87430 0.42320 -0.00900
H 	H 	0.55490 0.84220 0.47820 -0.01900
O 	O 	0.60878 0.79157 0.43580 -0.60400
C 	C 	0.51110 0.77110 0.37040 0.09700
H 	H 	0.47650 0.74820 0.36020 -0.02000
H 	H 	0.51480 0.81490 0.35080 -0.01500
O 	O 	0.55589 0.72538 0.35838 -0.59600
C 	C 	0.49700 0.72430 0.45680 0.10600
H 	H 	0.49200 0.73870 0.49210 -0.02000
H 	H 	0.46220 0.70280 0.44540 -0.02100
O 	O 	0.53858 0.67257 0.45466 -0.59600
C 	C 	0.45850 0.83980 0.43230 -0.29000
H 	H 	0.42510 0.81700 0.42010 0.09100
H 	H 	0.46490 0.88300 0.41330 0.09300
H 	H 	0.45420 0.85110 0.46790 0.09300
C 	C 	0.58600 0.46200 0.35310 -0.05000
C 	C 	0.57300 0.51860 0.31460 0.07600
H 	H 	0.59200 0.50670 0.28290 -0.00200
H 	H 	0.53320 0.51770 0.30780 0.00000
O 	O 	0.58817 0.58866 0.32875 -0.58300
C 	C 	0.64710 0.45460 0.36160 0.08200
H 	H 	0.65340 0.41450 0.38450 0.00300
H 	H 	0.66470 0.44300 0.32920 0.00100
O 	O 	0.67310 0.51502 0.38186 -0.56100
C 	C 	0.55680 0.47570 0.40230 0.06000
H 	H 	0.51690 0.47780 0.39590 0.00500
H 	H 	0.56360 0.43560 0.42500 0.00700
O 	O 	0.57305 0.53933 0.42742 -0.55800
C 	C 	0.56460 0.39180 0.33190 -0.31200
H 	H 	0.58280 0.38190 0.29990 0.09500
H 	H 	0.52500 0.39510 0.32660 0.10500
H 	H 	0.57240 0.35390 0.35560 0.10200
C 	C 	0.75090 0.74970 0.30790 -0.05600
C 	C 	0.74610 0.79730 0.35300 0.07300
H 	H 	0.78270 0.80230 0.36860 0.00500
H 	H 	0.73430 0.84440 0.34170 0.00800
O 	O 	0.70835 0.77240 0.39003 -0.57400
C 	C 	0.77420 0.67850 0.32200 0.08200
H 	H 	0.77730 0.64960 0.29130 -0.00600
H 	H 	0.81160 0.68530 0.33550 -0.00400
O 	O 	0.74225 0.64002 0.35842 -0.57300
C 	C 	0.69620 0.74250 0.28030 0.08400
H 	H 	0.68460 0.78950 0.26860 -0.00900
H 	H 	0.70180 0.71270 0.25040 -0.01500
O 	O 	0.65327 0.71288 0.30999 -0.56800
C 	C 	0.79140 0.78420 0.27120 -0.30400
H 	H 	0.82770 0.78680 0.28680 0.09500
H 	H 	0.77870 0.83160 0.26300 0.09800
H 	H 	0.79350 0.75600 0.24060 0.09300
C 	C 	0.72130 0.61700 0.54420 -0.06200
C 	C 	0.75110 0.57530 0.50460 0.08100
H 	H 	0.78970 0.59110 0.50320 -0.00200
H 	H 	0.75110 0.52510 0.51420 -0.00800
O 	O 	0.72727 0.58220 0.45568 -0.57100
C 	C 	0.66210 0.59160 0.54930 0.08200
H 	H 	0.66260 0.54150 0.55920 -0.00800
H 	H 	0.64440 0.61820 0.57680 -0.01100
O 	O 	0.62932 0.59890 0.50510 -0.58400
C 	C 	0.72470 0.69630 0.53320 0.08500
H 	H 	0.70610 0.72180 0.56060 -0.01800
H 	H 	0.76370 0.71040 0.53360 -0.01300
O 	O 	0.70130 0.71820 0.48676 -0.57500
C 	C 	0.74970 0.60540 0.59430 -0.29600
H 	H 	0.74480 0.55650 0.60480 0.08700
H 	H 	0.73370 0.63670 0.61950 0.09000
H 	H 	0.78880 0.61550 0.59090 0.09200
C 	C 	0.69000 0.40860 0.48400 0.60100
C 	C 	0.68130 0.34510 0.51570 -0.91300
H 	H 	0.71110 0.34120 0.54020 0.26300
H 	H 	0.68080 0.30310 0.49450 0.29100
H 	H 	0.64620 0.34910 0.53340 0.27100
O 	O 	0.65094 0.45432 0.48449 -0.51800
O 	O 	0.73205 0.41520 0.45948 -0.47400
C 	C 	0.44600 0.61200 0.33660 0.61300
C 	C 	0.38810 0.58780 0.33620 -0.93000
H 	H 	0.36840 0.61070 0.30880 0.28300
H 	H 	0.37070 0.60000 0.36810 0.27400
H 	H 	0.38700 0.53680 0.33160 0.28100
O 	O 	0.47227 0.60090 0.37753 -0.52800
O 	O 	0.46693 0.63900 0.29908 -0.50100
C 	C 	0.63140 0.91670 0.35060 0.58500
C 	C 	0.60870 0.97800 0.32170 -0.88400
H 	H 	0.61370 0.02120 0.34110 0.28100
H 	H 	0.56960 0.97040 0.31550 0.26900
H 	H 	0.62800 0.98210 0.28970 0.27900
O 	O 	0.61718 0.85580 0.33392 -0.49500
O 	O 	0.66094 0.92680 0.38761 -0.46600
C 	C 	0.72820 0.52030 0.26930 0.64400
C 	C 	0.73100 0.48910 0.22050 -0.99300
H 	H 	0.75620 0.44900 0.22120 0.30000
H 	H 	0.74420 0.52400 0.19630 0.29100
H 	H 	0.69450 0.47300 0.21050 0.29600
O 	O 	0.68825 0.56610 0.27687 -0.54700
O 	O 	0.76036 0.50190 0.30196 -0.45100
C 	C 	0.55940 0.72160 0.58040 0.51800
C 	C 	0.54600 0.75800 0.62880 -0.79400
H 	H 	0.55570 0.72740 0.65700 0.23700
H 	H 	0.50680 0.76860 0.63000 0.23500
H 	H 	0.56700 0.80180 0.63110 0.23900
O 	O 	0.59060 0.74670 0.54820 -0.53000
O 	O 	0.53300 0.66060 0.57400 -0.39200
C 	C 	0.84860 0.66290 0.42690 0.58900
C 	C 	0.90280 0.69980 0.42640 -0.87900
H 	H 	0.93230 0.66510 0.42710 0.27000
H 	H 	0.90560 0.73040 0.45580 0.27200
H 	H 	0.90580 0.72820 0.39590 0.26400
O 	O 	0.80710 0.70250 0.43663 -0.51700
O 	O 	0.84597 0.60070 0.41632 -0.43500
Na	Na	0.56090 0.68467 0.27456 0.57700
Na	Na	0.53191 0.57676 0.51192 0.59200
Na	Na	0.77500 0.51807 0.38983 0.59000
Na	Na	0.68948 0.85395 0.45665 0.57900
O 	O 	0.55047 0.45718 0.52970 -0.81400
H 	H 	0.54870 0.43920 0.55830 0.36100
H 	H 	0.58150 0.44710 0.51820 0.36200
Mn	Mn	0.13089 0.73950 0.62978 1.32100
Mn	Mn	0.22795 0.81987 0.57551 1.32300
Mn	Mn	0.15148 0.95066 0.55390 1.32500
Mn	Mn	0.16777 0.89114 0.66100 1.31900
Mn	Mn	0.05422 0.87106 0.60968 1.30800
Mn	Mn	0.11417 0.79640 0.51741 1.28200
O 	O 	0.14561 0.84770 0.59617 -0.90100
C 	C 	0.00760 0.71040 0.57450 -0.07700
C 	C 	0.05890 0.67010 0.55760 0.09300
H 	H 	0.06120 0.62570 0.57680 -0.00900
H 	H 	0.05490 0.65780 0.52180 -0.01900
O 	O 	0.10878 0.70843 0.56420 -0.60400
C 	C 	0.01110 0.72890 0.62960 0.09700
H 	H 	0.97650 0.75180 0.63980 -0.02000
H 	H 	0.01480 0.68510 0.64920 -0.01500
O 	O 	0.05589 0.77462 0.64162 -0.59600
C 	C 	0.99700 0.77570 0.54320 0.10500
H 	H 	0.99200 0.76130 0.50790 -0.02000
H 	H 	0.96220 0.79720 0.55460 -0.02100
O 	O 	0.03858 0.82743 0.54534 -0.59600
C 	C 	0.95850 0.66020 0.56770 -0.29100
H 	H 	0.92510 0.68300 0.57990 0.09100
H 	H 	0.96490 0.61700 0.58670 0.09300
H 	H 	0.95420 0.64890 0.53210 0.09300
C 	C 	0.08600 0.03800 0.64690 -0.04900
C 	C 	0.07300 0.98140 0.68540 0.07500
H 	H 	0.09200 0.99330 0.71710 -0.00200
H 	H 	0.03320 0.98230 0.69220 0.00100
O 	O 	0.08817 0.91134 0.67125 -0.58300
C 	C 	0.14710 0.04540 0.63840 0.08200
H 	H 	0.15340 0.08550 0.61550 0.00300
H 	H 	0.16470 0.05700 0.67080 0.00100
O 	O 	0.17310 0.98498 0.61814 -0.56100
C 	C 	0.05680 0.02430 0.59770 0.05900
H 	H 	0.01690 0.02220 0.60410 0.00600
H 	H 	0.06360 0.06440 0.57500 0.00700
O 	O 	0.07305 0.96067 0.57258 -0.55800
C 	C 	0.06460 0.10820 0.66810 -0.31200
H 	H 	0.08280 0.11810 0.70010 0.09500
H 	H 	0.02500 0.10490 0.67340 0.10500
H 	H 	0.07240 0.14610 0.64440 0.10200
C 	C 	0.25090 0.75030 0.69210 -0.05600
C 	C 	0.24610 0.70270 0.64700 0.07300
H 	H 	0.28270 0.69770 0.63140 0.00500
H 	H 	0.23430 0.65560 0.65830 0.00800
O 	O 	0.20835 0.72760 0.60997 -0.57400
C 	C 	0.27420 0.82150 0.67800 0.08200
H 	H 	0.27730 0.85040 0.70870 -0.00600
H 	H 	0.31160 0.81470 0.66450 -0.00400
O 	O 	0.24225 0.85998 0.64158 -0.57300
C 	C 	0.19620 0.75750 0.71970 0.08400
H 	H 	0.18460 0.71050 0.73140 -0.00900
H 	H 	0.20180 0.78730 0.74960 -0.01500
O 	O 	0.15327 0.78712 0.69001 -0.56800
C 	C 	0.29140 0.71580 0.72880 -0.30400
H 	H 	0.32770 0.71320 0.71320 0.09500
H 	H 	0.27870 0.66840 0.73700 0.09800
H 	H 	0.29350 0.74400 0.75940 0.09300
C 	C 	0.22130 0.88300 0.45580 -0.06200
C 	C 	0.25110 0.92470 0.49540 0.08200
H 	H 	0.28970 0.90890 0.49680 -0.00200
H 	H 	0.25110 0.97490 0.48580 -0.00800
O 	O 	0.22727 0.91780 0.54432 -0.57100
C 	C 	0.16210 0.90840 0.45070 0.08200
H 	H 	0.16260 0.95850 0.44080 -0.00800
H 	H 	0.14440 0.88180 0.42320 -0.01100
O 	O 	0.12932 0.90110 0.49490 -0.58400
C 	C 	0.22470 0.80370 0.46680 0.08500
H 	H 	0.20610 0.77820 0.43940 -0.01800
H 	H 	0.26370 0.78960 0.46640 -0.01300
O 	O 	0.20130 0.78180 0.51324 -0.57500
C 	C 	0.24970 0.89460 0.40570 -0.29600
H 	H 	0.24480 0.94350 0.39520 0.08700
H 	H 	0.23370 0.86330 0.38050 0.09000
H 	H 	0.28880 0.88450 0.40910 0.09200
C 	C 	0.19000 0.09140 0.51600 0.60100
C 	C 	0.18130 0.15490 0.48430 -0.91300
H 	H 	0.21110 0.15880 0.45980 0.26300
H 	H 	0.18080 0.19690 0.50550 0.29100
H 	H 	0.14620 0.15090 0.46660 0.27100
O 	O 	0.15094 0.04568 0.51551 -0.51800
O 	O 	0.23205 0.08480 0.54052 -0.47400
C 	C 	0.94600 0.88800 0.66340 0.61300
C 	C 	0.88810 0.91220 0.66380 -0.93000
H 	H 	0.86840 0.88930 0.69120 0.28300
H 	H 	0.87070 0.90000 0.63190 0.27400
H 	H 	0.88700 0.96320 0.66840 0.28100
O 	O 	0.97227 0.89910 0.62247 -0.52900
O 	O 	0.96693 0.86100 0.70092 -0.50100
C 	C 	0.13140 0.58330 0.64940 0.58600
C 	C 	0.10870 0.52200 0.67830 -0.88600
H 	H 	0.11370 0.47880 0.65890 0.28200
H 	H 	0.06960 0.52960 0.68450 0.27000
H 	H 	0.12800 0.51790 0.71030 0.28000
O 	O 	0.11718 0.64420 0.66608 -0.49500
O 	O 	0.16094 0.57320 0.61239 -0.46700
C 	C 	0.22820 0.97970 0.73070 0.64100
C 	C 	0.23100 0.01090 0.77950 -0.98600
H 	H 	0.25620 0.05100 0.77880 0.29900
H 	H 	0.24420 0.97600 0.80370 0.28800
H 	H 	0.19450 0.02700 0.78950 0.29400
O 	O 	0.18825 0.93390 0.72313 -0.54600
O 	O 	0.26036 0.99810 0.69804 -0.45000
C 	C 	0.05940 0.77840 0.41960 0.51700
C 	C 	0.04600 0.74200 0.37120 -0.79400
H 	H 	0.05570 0.77260 0.34300 0.23700
H 	H 	0.00680 0.73140 0.37000 0.23500
H 	H 	0.06700 0.69820 0.36890 0.23900
O 	O 	0.09060 0.75330 0.45180 -0.53000
O 	O 	0.03300 0.83940 0.42600 -0.39200
C 	C 	0.34860 0.83710 0.57310 0.58900
C 	C 	0.40280 0.80020 0.57360 -0.87900
H 	H 	0.43230 0.83490 0.57290 0.26900
H 	H 	0.40560 0.76960 0.54420 0.27200
H 	H 	0.40580 0.77180 0.60410 0.26400
O 	O 	0.30710 0.79750 0.56337 -0.51700
O 	O 	0.34597 0.89930 0.58368 -0.43500
Na	Na	0.06090 0.81533 0.72544 0.57700
Na	Na	0.03191 0.92324 0.48808 0.59200
Na	Na	0.27500 0.98193 0.61017 0.59000
Na	Na	0.18948 0.64605 0.54335 0.57900
O 	O 	0.05047 0.04282 0.47030 -0.81400
H 	H 	0.04870 0.06080 0.44170 0.36100
H 	H 	0.08150 0.05290 0.48180 0.36200
Mn	Mn	0.36911 0.76050 0.12978 1.32100
Mn	Mn	0.27205 0.68013 0.07551 1.32300
Mn	Mn	0.34852 0.54934 0.05390 1.32500
Mn	Mn	0.33223 0.60886 0.16100 1.31900
Mn	Mn	0.44578 0.62894 0.10968 1.30800
Mn	Mn	0.38583 0.70360 0.01741 1.28300
O 	O 	0.35439 0.65230 0.09617 -0.90100
C 	C 	0.49240 0.78960 0.07450 -0.07700
C 	C 	0.44110 0.82990 0.05760 0.09300
H 	H 	0.43880 0.87430 0.07680 -0.00900
H 	H 	0.44510 0.84220 0.02180 -0.01800
O 	O 	0.39122 0.79157 0.06420 -0.60400
C 	C 	0.48890 0.77110 0.12960 0.09600
H 	H 	0.52350 0.74820 0.13980 -0.01900
H 	H 	0.48520 0.81490 0.14920 -0.01500
O 	O 	0.44411 0.72538 0.14162 -0.59600
C 	C 	0.50300 0.72430 0.04320 0.10500
H 	H 	0.50800 0.73870 0.00790 -0.02000
H 	H 	0.53780 0.70280 0.05460 -0.02100
O 	O 	0.46142 0.67257 0.04534 -0.59600
C 	C 	0.54150 0.83980 0.06770 -0.29100
H 	H 	0.57490 0.81700 0.07990 0.09100
H 	H 	0.53510 0.88300 0.08670 0.09400
H 	H 	0.54580 0.85110 0.03210 0.09400
C 	C 	0.41400 0.46200 0.14690 -0.05000
C 	C 	0.42700 0.51860 0.18540 0.07600
H 	H 	0.40800 0.50670 0.21710 -0.00200
H 	H 	0.46680 0.51770 0.19220 0.00000
O 	O 	0.41183 0.58866 0.17125 -0.58300
C 	C 	0.35290 0.45460 0.13840 0.08200
H 	H 	0.34660 0.41450 0.11550 0.00300
H 	H 	0.33530 0.44300 0.17080 0.00100
O 	O 	0.32690 0.51502 0.11814 -0.56100
C 	C 	0.44320 0.47570 0.09770 0.06000
H 	H 	0.48310 0.47780 0.10410 0.00500
H 	H 	0.43640 0.43560 0.07500 0.00700
O 	O 	0.42695 0.53933 0.07258 -0.55800
C 	C 	0.43540 0.39180 0.16810 -0.31200
H 	H 	0.41720 0.38190 0.20010 0.09500
H 	H 	0.47500 0.39510 0.17340 0.10500
H 	H 	0.42760 0.35390 0.14440 0.10200
C 	C 	0.24910 0.74970 0.19210 -0.05600
C 	C 	0.25390 0.79730 0.14700 0.07300
H 	H 	0.21730 0.80230 0.13140 0.00500
H 	H 	0.26570 0.84440 0.15830 0.00800
O 	O 	0.29165 0.77240 0.10997 -0.57400
C 	C 	0.22580 0.67850 0.17800 0.08200
H 	H 	0.22270 0.64960 0.20870 -0.00600
H 	H 	0.18840 0.68530 0.16450 -0.00400
O 	O 	0.25775 0.64002 0.14158 -0.57300
C 	C 	0.30380 0.74250 0.21970 0.08400
H 	H 	0.31540 0.78950 0.23140 -0.00900
H 	H 	0.29820 0.71270 0.24960 -0.01500
O 	O 	0.34673 0.71288 0.19001 -0.56800
C 	C 	0.20860 0.78420 0.22880 -0.30400
H 	H 	0.17230 0.78680 0.21320 0.09500
H 	H 	0.22130 0.83160 0.23700 0.09800
H 	H 	0.20650 0.75600 0.25940 0.09300
C 	C 	0.27870 0.61700 0.95580 -0.06200
C 	C 	0.24890 0.57530 0.99540 0.08200
H 	H 	0.21030 0.59110 0.99680 -0.00200
H 	H 	0.24890 0.52510 0.98580 -0.00700
O 	O 	0.27273 0.58220 0.04432 -0.57100
C 	C 	0.33790 0.59160 0.95070 0.08200
H 	H 	0.33740 0.54150 0.94080 -0.00800
H 	H 	0.35560 0.61820 0.92320 -0.01100
O 	O 	0.37068 0.59890 0.99490 -0.58400
C 	C 	0.27530 0.69630 0.96680 0.08500
H 	H 	0.29390 0.72180 0.93940 -0.01800
H 	H 	0.23630 0.71040 0.96640 -0.01300
O 	O 	0.29870 0.71820 0.01324 -0.57500
C 	C 	0.25030 0.60540 0.90570 -0.29600
H 	H 	0.25520 0.55650 0.89520 0.08700
H 	H 	0.26630 0.63670 0.88050 0.09000
H 	H 	0.21120 0.61550 0.90910 0.09300
C 	C 	0.31000 0.40860 0.01600 0.59800
C 	C 	0.31870 0.34510 0.98430 -0.90600
H 	H 	0.28890 0.34120 0.95980 0.26200
H 	H 	0.31920 0.30310 0.00550 0.28800
H 	H 	0.35380 0.34910 0.96660 0.26900
O 	O 	0.34906 0.45432 0.01551 -0.51700
O 	O 	0.26795 0.41520 0.04052 -0.47400
C 	C 	0.55400 0.61200 0.16340 0.61300
C 	C 	0.61190 0.58780 0.16380 -0.93000
H 	H 	0.63160 0.61070 0.19120 0.28300
H 	H 	0.62930 0.60000 0.13190 0.27400
H 	H 	0.61300 0.53680 0.16840 0.28100
O 	O 	0.52773 0.60090 0.12247 -0.52800
O 	O 	0.53307 0.63900 0.20092 -0.50100
C 	C 	0.36860 0.91670 0.14940 0.58400
C 	C 	0.39130 0.97800 0.17830 -0.88200
H 	H 	0.38630 0.02120 0.15890 0.28000
H 	H 	0.43040 0.97040 0.18450 0.26800
H 	H 	0.37200 0.98210 0.21030 0.27800
O 	O 	0.38282 0.85580 0.16608 -0.49500
O 	O 	0.33906 0.92680 0.11239 -0.46600
C 	C 	0.27180 0.52030 0.23070 0.64400
C 	C 	0.26900 0.48910 0.27950 -0.99300
H 	H 	0.24380 0.44900 0.27880 0.30000
H 	H 	0.25580 0.52400 0.30370 0.29100
H 	H 	0.30550 0.47300 0.28950 0.29600
O 	O 	0.31175 0.56610 0.22313 -0.54700
O 	O 	0.23964 0.50190 0.19804 -0.45100
C 	C 	0.44060 0.72160 0.91960 0.51800
C 	C 	0.45400 0.75800 0.87120 -0.79400
H 	H 	0.44430 0.72740 0.84300 0.23700
H 	H 	0.49320 0.76860 0.87000 0.23500
H 	H 	0.43300 0.80180 0.86890 0.23900
O 	O 	0.40940 0.74670 0.95180 -0.53000
O 	O 	0.46700 0.66060 0.92600 -0.39200
C 	C 	0.15140 0.66290 0.07310 0.58900
C 	C 	0.09720 0.69980 0.07360 -0.87800
H 	H 	0.06770 0.66510 0.07290 0.26900
H 	H 	0.09440 0.73040 0.04420 0.27200
H 	H 	0.09420 0.72820 0.10410 0.26400
O 	O 	0.19290 0.70250 0.06337 -0.51700
O 	O 	0.15403 0.60070 0.08368 -0.43500
Na	Na	0.43910 0.68467 0.22544 0.57700
Na	Na	0.46809 0.57676 0.98808 0.59200
Na	Na	0.22500 0.51807 0.11017 0.59000
Na	Na	0.31052 0.85395 0.04335 0.57900
O 	O 	0.44953 0.45718 0.97030 -0.81400
H 	H 	0.45130 0.43920 0.94170 0.36100
H 	H 	0.41850 0.44710 0.98180 0.36200
Mn	Mn	0.13089 0.26050 0.12978 1.32100
Mn	Mn	0.22795 0.18013 0.07551 1.32300
Mn	Mn	0.15148 0.04934 0.05390 1.32500
Mn	Mn	0.16777 0.10886 0.16100 1.31900
Mn	Mn	0.05422 0.12894 0.10968 1.30800
Mn	Mn	0.11417 0.20360 0.01741 1.28200
O 	O 	0.14561 0.15230 0.09617 -0.90100
C 	C 	0.00760 0.28960 0.07450 -0.08200
C 	C 	0.05890 0.32990 0.05760 0.09600
H 	H 	0.06120 0.37430 0.07680 -0.01000
H 	H 	0.05490 0.34220 0.02180 -0.02000
O 	O 	0.10878 0.29157 0.06420 -0.60500
C 	C 	0.01110 0.27110 0.12960 0.09600
H 	H 	0.97650 0.24820 0.13980 -0.01900
H 	H 	0.01480 0.31490 0.14920 -0.01600
O 	O 	0.05589 0.22538 0.14162 -0.59700
C 	C 	0.99700 0.22430 0.04320 0.11100
H 	H 	0.99200 0.23870 0.00790 -0.02100
H 	H 	0.96220 0.20280 0.05460 -0.02300
O 	O 	0.03858 0.17257 0.04534 -0.59900
C 	C 	0.95850 0.33980 0.06770 -0.28600
H 	H 	0.92510 0.31700 0.07990 0.09000
H 	H 	0.96490 0.38300 0.08670 0.09300
H 	H 	0.95420 0.35110 0.03210 0.09300
C 	C 	0.08600 0.96200 0.14690 -0.05000
C 	C 	0.07300 0.01860 0.18540 0.07500
H 	H 	0.09200 0.00670 0.21710 -0.00200
H 	H 	0.03320 0.01770 0.19220 -0.00000
O 	O 	0.08817 0.08866 0.17125 -0.58300
C 	C 	0.14710 0.95460 0.13840 0.08400
H 	H 	0.15340 0.91450 0.11550 0.00300
H 	H 	0.16470 0.94300 0.17080 0.00100
O 	O 	0.17310 0.01502 0.11814 -0.56200
C 	C 	0.05680 0.97570 0.09770 0.06200
H 	H 	0.01690 0.97780 0.10410 0.00500
H 	H 	0.06360 0.93560 0.07500 0.00700
O 	O 	0.07305 0.03933 0.07258 -0.56000
C 	C 	0.06460 0.89180 0.16810 -0.31100
H 	H 	0.08280 0.88190 0.20010 0.09400
H 	H 	0.02500 0.89510 0.17340 0.10400
H 	H 	0.07240 0.85390 0.14440 0.10100
C 	C 	0.25090 0.24970 0.19210 -0.05600
C 	C 	0.24610 0.29730 0.14700 0.07300
H 	H 	0.28270 0.30230 0.13140 0.00500
H 	H 	0.23430 0.34440 0.15830 0.00800
O 	O 	0.20835 0.27240 0.10997 -0.57400
C 	C 	0.27420 0.17850 0.17800 0.08200
H 	H 	0.27730 0.14960 0.20870 -0.00600
H 	H 	0.31160 0.18530 0.16450 -0.00400
O 	O 	0.24225 0.14002 0.14158 -0.57300
C 	C 	0.19620 0.24250 0.21970 0.08400
H 	H 	0.18460 0.28950 0.23140 -0.00900
H 	H 	0.20180 0.21270 0.24960 -0.01500
O 	O 	0.15327 0.21288 0.19001 -0.56800
C 	C 	0.29140 0.28420 0.22880 -0.30400
H 	H 	0.32770 0.28680 0.21320 0.09500
H 	H 	0.27870 0.33160 0.23700 0.09800
H 	H 	0.29350 0.25600 0.25940 0.09300
C 	C 	0.22130 0.11700 0.95580 -0.06300
C 	C 	0.25110 0.07530 0.99540 0.08500
H 	H 	0.28970 0.09110 0.99680 -0.00200
H 	H 	0.25110 0.02510 0.98580 -0.00800
O 	O 	0.22727 0.08220 0.04432 -0.57200
C 	C 	0.16210 0.09160 0.95070 0.08200
H 	H 	0.16260 0.04150 0.94080 -0.00700
H 	H 	0.14440 0.11820 0.92320 -0.01100
O 	O 	0.12932 0.09890 0.99490 -0.58200
C 	C 	0.22470 0.19630 0.96680 0.08800
H 	H 	0.20610 0.22180 0.93940 -0.01900
H 	H 	0.26370 0.21040 0.96640 -0.01400
O 	O 	0.20130 0.21820 0.01324 -0.57700
C 	C 	0.24970 0.10540 0.90570 -0.29500
H 	H 	0.24480 0.05650 0.89520 0.08700
H 	H 	0.23370 0.13670 0.88050 0.09000
H 	H 	0.28880 0.11550 0.90910 0.09200
C 	C 	0.19000 0.90860 0.01600 0.60100
C 	C 	0.18130 0.84510 0.98430 -0.91300
H 	H 	0.21110 0.84120 0.95980 0.26300
H 	H 	0.18080 0.80310 0.00550 0.29100
H 	H 	0.14620 0.84910 0.96660 0.27100
O 	O 	0.15094 0.95432 0.01551 -0.51800
O 	O 	0.23205 0.91520 0.04052 -0.47400
C 	C 	0.94600 0.11200 0.16340 0.61300
C 	C 	0.88810 0.08780 0.16380 -0.92900
H 	H 	0.86840 0.11070 0.19120 0.28300
H 	H 	0.87070 0.10000 0.13190 0.27400
H 	H 	0.88700 0.03680 0.16840 0.28100
O 	O 	0.97227 0.10090 0.12247 -0.52800
O 	O 	0.96693 0.13900 0.20092 -0.50000
C 	C 	0.13140 0.41670 0.14940 0.58500
C 	C 	0.10870 0.47800 0.17830 -0.88600
H 	H 	0.11370 0.52120 0.15890 0.28200
H 	H 	0.06960 0.47040 0.18450 0.26900
H 	H 	0.12800 0.48210 0.21030 0.27900
O 	O 	0.11718 0.35580 0.16608 -0.49500
O 	O 	0.16094 0.42680 0.11239 -0.46700
C 	C 	0.22820 0.02030 0.23070 0.64200
C 	C 	0.23100 0.98910 0.27950 -0.98800
H 	H 	0.25620 0.94900 0.27880 0.29900
H 	H 	0.24420 0.02400 0.30370 0.28900
H 	H 	0.19450 0.97300 0.28950 0.29400
O 	O 	0.18825 0.06610 0.22313 -0.54600
O 	O 	0.26036 0.00190 0.19804 -0.45100
C 	C 	0.05940 0.22160 0.91960 0.51800
C 	C 	0.04600 0.25800 0.87120 -0.79500
H 	H 	0.05570 0.22740 0.84300 0.23800
H 	H 	0.00680 0.26860 0.87000 0.23600
H 	H 	0.06700 0.30180 0.86890 0.24000
O 	O 	0.09060 0.24670 0.95180 -0.52900
O 	O 	0.03300 0.16060 0.92600 -0.39100
C 	C 	0.34860 0.16290 0.07310 0.58900
C 	C 	0.40280 0.19980 0.07360 -0.87800
H 	H 	0.43230 0.16510 0.07290 0.26900
H 	H 	0.40560 0.23040 0.04420 0.27200
H 	H 	0.40580 0.22820 0.10410 0.26400
O 	O 	0.30710 0.20250 0.06337 -0.51800
O 	O 	0.34597 0.10070 0.08368 -0.43500
Na	Na	0.06090 0.18467 0.22544 0.57700
Na	Na	0.03191 0.07676 0.98808 0.59200
Na	Na	0.27500 0.01807 0.11017 0.59000
Na	Na	0.18948 0.35395 0.04335 0.57900
O 	O 	0.05047 0.95718 0.97030 -0.81400
H 	H 	0.04870 0.93920 0.94170 0.36100
H 	H 	0.08150 0.94710 0.98180 0.36200
Mn	Mn	0.36911 0.23950 0.62978 1.32100
Mn	Mn	0.27205 0.31987 0.57551 1.32300
Mn	Mn	0.34852 0.45066 0.55390 1.32500
Mn	Mn	0.33223 0.39114 0.66100 1.31900
Mn	Mn	0.44578 0.37106 0.60968 1.30800
Mn	Mn	0.38583 0.29640 0.51741 1.28200
O 	O 	0.35439 0.34770 0.59617 -0.90100
C 	C 	0.49240 0.21040 0.57450 -0.07700
C 	C 	0.44110 0.17010 0.55760 0.09400
H 	H 	0.43880 0.12570 0.57680 -0.00900
H 	H 	0.44510 0.15780 0.52180 -0.01900
O 	O 	0.39122 0.20843 0.56420 -0.60400
C 	C 	0.48890 0.22890 0.62960 0.09700
H 	H 	0.52350 0.25180 0.63980 -0.02000
H 	H 	0.48520 0.18510 0.64920 -0.01500
O 	O 	0.44411 0.27462 0.64162 -0.59600
C 	C 	0.50300 0.27570 0.54320 0.10600
H 	H 	0.50800 0.26130 0.50790 -0.02000
H 	H 	0.53780 0.29720 0.55460 -0.02100
O 	O 	0.46142 0.32743 0.54534 -0.59600
C 	C 	0.54150 0.16020 0.56770 -0.29000
H 	H 	0.57490 0.18300 0.57990 0.09100
H 	H 	0.53510 0.11700 0.58670 0.09300
H 	H 	0.54580 0.14890 0.53210 0.09300
C 	C 	0.41400 0.53800 0.64690 -0.05000
C 	C 	0.42700 0.48140 0.68540 0.07600
H 	H 	0.40800 0.49330 0.71710 -0.00200
H 	H 	0.46680 0.48230 0.69220 0.00000
O 	O 	0.41183 0.41134 0.67125 -0.58300
C 	C 	0.35290 0.54540 0.63840 0.08200
H 	H 	0.34660 0.58550 0.61550 0.00300
H 	H 	0.33530 0.55700 0.67080 0.00100
O 	O 	0.32690 0.48498 0.61814 -0.56100
C 	C 	0.44320 0.52430 0.59770 0.06000
H 	H 	0.48310 0.52220 0.60410 0.00500
H 	H 	0.43640 0.56440 0.57500 0.00700
O 	O 	0.42695 0.46067 0.57258 -0.55800
C 	C 	0.43540 0.60820 0.66810 -0.31200
H 	H 	0.41720 0.61810 0.70010 0.09500
H 	H 	0.47500 0.60490 0.67340 0.10500
H 	H 	0.42760 0.64610 0.64440 0.10200
C 	C 	0.24910 0.25030 0.69210 -0.05600
C 	C 	0.25390 0.20270 0.64700 0.07300
H 	H 	0.21730 0.19770 0.63140 0.00500
H 	H 	0.26570 0.15560 0.65830 0.00800
O 	O 	0.29165 0.22760 0.60997 -0.57400
C 	C 	0.22580 0.32150 0.67800 0.08200
H 	H 	0.22270 0.35040 0.70870 -0.00600
H 	H 	0.18840 0.31470 0.66450 -0.00400
O 	O 	0.25775 0.35998 0.64158 -0.57300
C 	C 	0.30380 0.25750 0.71970 0.08400
H 	H 	0.31540 0.21050 0.73140 -0.00900
H 	H 	0.29820 0.28730 0.74960 -0.01500
O 	O 	0.34673 0.28712 0.69001 -0.56800
C 	C 	0.20860 0.21580 0.72880 -0.30400
H 	H 	0.17230 0.21320 0.71320 0.09500
H 	H 	0.22130 0.16840 0.73700 0.09800
H 	H 	0.20650 0.24400 0.75940 0.09300
C 	C 	0.27870 0.38300 0.45580 -0.06200
C 	C 	0.24890 0.42470 0.49540 0.08100
H 	H 	0.21030 0.40890 0.49680 -0.00200
H 	H 	0.24890 0.47490 0.48580 -0.00800
O 	O 	0.27273 0.41780 0.54432 -0.57100
C 	C 	0.33790 0.40840 0.45070 0.08200
H 	H 	0.33740 0.45850 0.44080 -0.00800
H 	H 	0.35560 0.38180 0.42320 -0.01100
O 	O 	0.37068 0.40110 0.49490 -0.58400
C 	C 	0.27530 0.30370 0.46680 0.08500
H 	H 	0.29390 0.27820 0.43940 -0.01800
H 	H 	0.23630 0.28960 0.46640 -0.01300
O 	O 	0.29870 0.28180 0.51324 -0.57500
C 	C 	0.25030 0.39460 0.40570 -0.29600
H 	H 	0.25520 0.44350 0.39520 0.08700
H 	H 	0.26630 0.36330 0.38050 0.09000
H 	H 	0.21120 0.38450 0.40910 0.09200
C 	C 	0.31000 0.59140 0.51600 0.60100
C 	C 	0.31870 0.65490 0.48430 -0.91300
H 	H 	0.28890 0.65880 0.45980 0.26300
H 	H 	0.31920 0.69690 0.50550 0.29100
H 	H 	0.35380 0.65090 0.46660 0.27100
O 	O 	0.34906 0.54568 0.51551 -0.51800
O 	O 	0.26795 0.58480 0.54052 -0.47400
C 	C 	0.55400 0.38800 0.66340 0.61300
C 	C 	0.61190 0.41220 0.66380 -0.93000
H 	H 	0.63160 0.38930 0.69120 0.28300
H 	H 	0.62930 0.40000 0.63190 0.27400
H 	H 	0.61300 0.46320 0.66840 0.28100
O 	O 	0.52773 0.39910 0.62247 -0.52800
O 	O 	0.53307 0.36100 0.70092 -0.50100
C 	C 	0.36860 0.08330 0.64940 0.58500
C 	C 	0.39130 0.02200 0.67830 -0.88400
H 	H 	0.38630 0.97880 0.65890 0.28100
H 	H 	0.43040 0.02960 0.68450 0.26900
H 	H 	0.37200 0.01790 0.71030 0.27900
O 	O 	0.38282 0.14420 0.66608 -0.49500
O 	O 	0.33906 0.07320 0.61239 -0.46600
C 	C 	0.27180 0.47970 0.73070 0.64400
C 	C 	0.26900 0.51090 0.77950 -0.99300
H 	H 	0.24380 0.55100 0.77880 0.30000
H 	H 	0.25580 0.47600 0.80370 0.29100
H 	H 	0.30550 0.52700 0.78950 0.29600
O 	O 	0.31175 0.43390 0.72313 -0.54700
O 	O 	0.23964 0.49810 0.69804 -0.45100
C 	C 	0.44060 0.27840 0.41960 0.51800
C 	C 	0.45400 0.24200 0.37120 -0.79400
H 	H 	0.44430 0.27260 0.34300 0.23700
H 	H 	0.49320 0.23140 0.37000 0.23500
H 	H 	0.43300 0.19820 0.36890 0.23900
O 	O 	0.40940 0.25330 0.45180 -0.53000
O 	O 	0.46700 0.33940 0.42600 -0.39200
C 	C 	0.15140 0.33710 0.57310 0.58900
C 	C 	0.09720 0.30020 0.57360 -0.87900
H 	H 	0.06770 0.33490 0.57290 0.27000
H 	H 	0.09440 0.26960 0.54420 0.27200
H 	H 	0.09420 0.27180 0.60410 0.26400
O 	O 	0.19290 0.29750 0.56337 -0.51700
O 	O 	0.15403 0.39930 0.58368 -0.43500
Na	Na	0.43910 0.31533 0.72544 0.57700
Na	Na	0.46809 0.42324 0.48808 0.59200
Na	Na	0.22500 0.48193 0.61017 0.59000
Na	Na	0.31052 0.14605 0.54335 0.57900
O 	O 	0.44953 0.54282 0.47030 -0.81400
H 	H 	0.45130 0.56080 0.44170 0.36100
H 	H 	0.41850 0.55290 0.48180 0.36200
Mn	Mn	0.86911 0.26050 0.37022 1.32100
Mn	Mn	0.77205 0.18013 0.42449 1.32300
Mn	Mn	0.84852 0.04934 0.44610 1.32500
Mn	Mn	0.83223 0.10886 0.33900 1.31900
Mn	Mn	0.94578 0.12894 0.39032 1.30800
Mn	Mn	0.88583 0.20360 0.48259 1.28200
O 	O 	0.85439 0.15230 0.40383 -0.90100
C 	C 	0.99240 0.28960 0.42550 -0.07700
C 	C 	0.94110 0.32990 0.44240 0.09300
H 	H 	0.93880 0.37430 0.42320 -0.00900
H 	H 	0.94510 0.34220 0.47820 -0.01900
O 	O 	0.89122 0.29157 0.43580 -0.60400
C 	C 	0.98890 0.27110 0.37040 0.09700
H 	H 	0.02350 0.24820 0.36020 -0.02000
H 	H 	0.98520 0.31490 0.35080 -0.01500
O 	O 	0.94411 0.22538 0.35838 -0.59600
C 	C 	0.00300 0.22430 0.45680 0.10500
H 	H 	0.00800 0.23870 0.49210 -0.02000
H 	H 	0.03780 0.20280 0.44540 -0.02100
O 	O 	0.96142 0.17257 0.45466 -0.59600
C 	C 	0.04150 0.33980 0.43230 -0.29100
H 	H 	0.07490 0.31700 0.42010 0.09100
H 	H 	0.03510 0.38300 0.41330 0.09300
H 	H 	0.04580 0.35110 0.46790 0.09300
C 	C 	0.91400 0.96200 0.35310 -0.04900
C 	C 	0.92700 0.01860 0.31460 0.07500
H 	H 	0.90800 0.00670 0.28290 -0.00200
H 	H 	0.96680 0.01770 0.30780 0.00100
O 	O 	0.91183 0.08866 0.32875 -0.58300
C 	C 	0.85290 0.95460 0.36160 0.08200
H 	H 	0.84660 0.91450 0.38450 0.00300
H 	H 	0.83530 0.94300 0.32920 0.00100
O 	O 	0.82690 0.01502 0.38186 -0.56100
C 	C 	0.94320 0.97570 0.40230 0.05900
H 	H 	0.98310 0.97780 0.39590 0.00600
H 	H 	0.93640 0.93560 0.42500 0.00700
O 	O 	0.92695 0.03933 0.42742 -0.55800
C 	C 	0.93540 0.89180 0.33190 -0.31200
H 	H 	0.91720 0.88190 0.29990 0.09500
H 	H 	0.97500 0.89510 0.32660 0.10500
H 	H 	0.92760 0.85390 0.35560 0.10200
C 	C 	0.74910 0.24970 0.30790 -0.05600
C 	C 	0.75390 0.29730 0.35300 0.07300
H 	H 	0.71730 0.30230 0.36860 0.00500
H 	H 	0.76570 0.34440 0.34170 0.00800
O 	O 	0.79165 0.27240 0.39003 -0.57400
C 	C 	0.72580 0.17850 0.32200 0.08200
H 	H 	0.72270 0.14960 0.29130 -0.00600
H 	H 	0.68840 0.18530 0.33550 -0.00400
O 	O 	0.75775 0.14002 0.35842 -0.57300
C 	C 	0.80380 0.24250 0.28030 0.08400
H 	H 	0.81540 0.28950 0.26860 -0.00900
H 	H 	0.79820 0.21270 0.25040 -0.01500
O 	O 	0.84673 0.21288 0.30999 -0.56800
C 	C 	0.70860 0.28420 0.27120 -0.30400
H 	H 	0.67230 0.28680 0.28680 0.09500
H 	H 	0.72130 0.33160 0.26300 0.09800
H 	H 	0.70650 0.25600 0.24060 0.09300
C 	C 	0.77870 0.11700 0.54420 -0.06200
C 	C 	0.74890 0.07530 0.50460 0.08200
H 	H 	0.71030 0.09110 0.50320 -0.00200
H 	H 	0.74890 0.02510 0.51420 -0.00800
O 	O 	0.77273 0.08220 0.45568 -0.57100
C 	C 	0.83790 0.09160 0.54930 0.08200
H 	H 	0.83740 0.04150 0.55920 -0.00800
H 	H 	0.85560 0.11820 0.57680 -0.01100
O 	O 	0.87068 0.09890 0.50510 -0.58400
C 	C 	0.77530 0.19630 0.53320 0.08500
H 	H 	0.79390 0.22180 0.56060 -0.01800
H 	H 	0.73630 0.21040 0.53360 -0.01300
O 	O 	0.79870 0.21820 0.48676 -0.57500
C 	C 	0.75030 0.10540 0.59430 -0.29600
H 	H 	0.75520 0.05650 0.60480 0.08700
H 	H 	0.76630 0.13670 0.61950 0.09000
H 	H 	0.71120 0.11550 0.59090 0.09200
C 	C 	0.81000 0.90860 0.48400 0.60100
C 	C 	0.81870 0.84510 0.51570 -0.91300
H 	H 	0.78890 0.84120 0.54020 0.26300
H 	H 	0.81920 0.80310 0.49450 0.29100
H 	H 	0.85380 0.84910 0.53340 0.27100
O 	O 	0.84906 0.95432 0.48449 -0.51800
O 	O 	0.76795 0.91520 0.45948 -0.47400
C 	C 	0.05400 0.11200 0.33660 0.61300
C 	C 	0.11190 0.08780 0.33620 -0.93000
H 	H 	0.13160 0.11070 0.30880 0.28300
H 	H 	0.12930 0.10000 0.36810 0.27400
H 	H 	0.11300 0.03680 0.33160 0.28100
O 	O 	0.02773 0.10090 0.37753 -0.52900
O 	O 	0.03307 0.13900 0.29908 -0.50100
C 	C 	0.86860 0.41670 0.35060 0.58600
C 	C 	0.89130 0.47800 0.32170 -0.88600
H 	H 	0.88630 0.52120 0.34110 0.28200
H 	H 	0.93040 0.47040 0.31550 0.27000
H 	H 	0.87200 0.48210 0.28970 0.28000
O 	O 	0.88282 0.35580 0.33392 -0.49500
O 	O 	0.83906 0.42680 0.38761 -0.46700
C 	C 	0.77180 0.02030 0.26930 0.64100
C 	C 	0.76900 0.98910 0.22050 -0.98600
H 	H 	0.74380 0.94900 0.22120 0.29900
H 	H 	0.75580 0.02400 0.19630 0.28800
H 	H 	0.80550 0.97300 0.21050 0.29400
O 	O 	0.81175 0.06610 0.27687 -0.54600
O 	O 	0.73964 0.00190 0.30196 -0.45000
C 	C 	0.94060 0.22160 0.58040 0.51700
C 	C 	0.95400 0.25800 0.62880 -0.79400
H 	H 	0.94430 0.22740 0.65700 0.23700
H 	H 	0.99320 0.26860 0.63000 0.23500
H 	H 	0.93300 0.30180 0.63110 0.23900
O 	O 	0.90940 0.24670 0.54820 -0.53000
O 	O 	0.96700 0.16060 0.57400 -0.39200
C 	C 	0.65140 0.16290 0.42690 0.58900
C 	C 	0.59720 0.19980 0.42640 -0.87900
H 	H 	0.56770 0.16510 0.42710 0.26900
H 	H 	0.59440 0.23040 0.45580 0.27200
H 	H 	0.59420 0.22820 0.39590 0.26400
O 	O 	0.69290 0.20250 0.43663 -0.51700
O 	O 	0.65403 0.10070 0.41632 -0.43500
Na	Na	0.93910 0.18467 0.27456 0.57700
Na	Na	0.96809 0.07676 0.51192 0.59200
Na	Na	0.72500 0.01807 0.38983 0.59000
Na	Na	0.81052 0.35395 0.45665 0.57900
O 	O 	0.94953 0.95718 0.52970 -0.81400
H 	H 	0.95130 0.93920 0.55830 0.36100
H 	H 	0.91850 0.94710 0.51820 0.36200
Mn	Mn	0.63089 0.23950 0.87022 1.32100
Mn	Mn	0.72795 0.31987 0.92449 1.32300
Mn	Mn	0.65148 0.45066 0.94610 1.32500
Mn	Mn	0.66777 0.39114 0.83900 1.31900
Mn	Mn	0.55422 0.37106 0.89032 1.30800
Mn	Mn	0.61417 0.29640 0.98259 1.28300
O 	O 	0.64561 0.34770 0.90383 -0.90100
C 	C 	0.50760 0.21040 0.92550 -0.07700
C 	C 	0.55890 0.17010 0.94240 0.09300
H 	H 	0.56120 0.12570 0.92320 -0.00900
H 	H 	0.55490 0.15780 0.97820 -0.01800
O 	O 	0.60878 0.20843 0.93580 -0.60400
C 	C 	0.51110 0.22890 0.87040 0.09600
H 	H 	0.47650 0.25180 0.86020 -0.01900
H 	H 	0.51480 0.18510 0.85080 -0.01500
O 	O 	0.55589 0.27462 0.85838 -0.59600
C 	C 	0.49700 0.27570 0.95680 0.10500
H 	H 	0.49200 0.26130 0.99210 -0.02000
H 	H 	0.46220 0.29720 0.94540 -0.02100
O 	O 	0.53858 0.32743 0.95466 -0.59600
C 	C 	0.45850 0.16020 0.93230 -0.29100
H 	H 	0.42510 0.18300 0.92010 0.09100
H 	H 	0.46490 0.11700 0.91330 0.09400
H 	H 	0.45420 0.14890 0.96790 0.09400
C 	C 	0.58600 0.53800 0.85310 -0.05000
C 	C 	0.57300 0.48140 0.81460 0.07600
H 	H 	0.59200 0.49330 0.78290 -0.00200
H 	H 	0.53320 0.48230 0.80780 0.00000
O 	O 	0.58817 0.41134 0.82875 -0.58300
C 	C 	0.64710 0.54540 0.86160 0.08200
H 	H 	0.65340 0.58550 0.88450 0.00300
H 	H 	0.66470 0.55700 0.82920 0.00100
O 	O 	0.67310 0.48498 0.88186 -0.56100
C 	C 	0.55680 0.52430 0.90230 0.06000
H 	H 	0.51690 0.52220 0.89590 0.00500
H 	H 	0.56360 0.56440 0.92500 0.00700
O 	O 	0.57305 0.46067 0.92742 -0.55800
C 	C 	0.56460 0.60820 0.83190 -0.31200
H 	H 	0.58280 0.61810 0.79990 0.09500
H 	H 	0.52500 0.60490 0.82660 0.10500
H 	H 	0.57240 0.64610 0.85560 0.10200
C 	C 	0.75090 0.25030 0.80790 -0.05600
C 	C 	0.74610 0.20270 0.85300 0.07300
H 	H 	0.78270 0.19770 0.86860 0.00500
H 	H 	0.73430 0.15560 0.84170 0.00800
O 	O 	0.70835 0.22760 0.89003 -0.57400
C 	C 	0.77420 0.32150 0.82200 0.08200
H 	H 	0.77730 0.35040 0.79130 -0.00600
H 	H 	0.81160 0.31470 0.83550 -0.00400
O 	O 	0.74225 0.35998 0.85842 -0.57300
C 	C 	0.69620 0.25750 0.78030 0.08400
H 	H 	0.68460 0.21050 0.76860 -0.00900
H 	H 	0.70180 0.28730 0.75040 -0.01500
O 	O 	0.65327 0.28712 0.80999 -0.56800
C 	C 	0.79140 0.21580 0.77120 -0.30400
H 	H 	0.82770 0.21320 0.78680 0.09500
H 	H 	0.77870 0.16840 0.76300 0.09800
H 	H 	0.79350 0.24400 0.74060 0.09300
C 	C 	0.72130 0.38300 0.04420 -0.06200
C 	C 	0.75110 0.42470 0.00460 0.08200
H 	H 	0.78970 0.40890 0.00320 -0.00200
H 	H 	0.75110 0.47490 0.01420 -0.00700
O 	O 	0.72727 0.41780 0.95568 -0.57100
C 	C 	0.66210 0.40840 0.04930 0.08200
H 	H 	0.66260 0.45850 0.05920 -0.00800
H 	H 	0.64440 0.38180 0.07680 -0.01100
O 	O 	0.62932 0.40110 0.00510 -0.58400
C 	C 	0.72470 0.30370 0.03320 0.08500
H 	H 	0.70610 0.27820 0.06060 -0.01800
H 	H 	0.76370 0.28960 0.03360 -0.01300
O 	O 	0.70130 0.28180 0.98676 -0.57500
C 	C 	0.74970 0.39460 0.09430 -0.29600
H 	H 	0.74480 0.44350 0.10480 0.08700
H 	H 	0.73370 0.36330 0.11950 0.09000
H 	H 	0.78880 0.38450 0.09090 0.09300
C 	C 	0.69000 0.59140 0.98400 0.59800
C 	C 	0.68130 0.65490 0.01570 -0.90600
H 	H 	0.71110 0.65880 0.04020 0.26200
H 	H 	0.68080 0.69690 0.99450 0.28800
H 	H 	0.64620 0.65090 0.03340 0.26900
O 	O 	0.65094 0.54568 0.98449 -0.51700
O 	O 	0.73205 0.58480 0.95948 -0.47400
C 	C 	0.44600 0.38800 0.83660 0.61300
C 	C 	0.38810 0.41220 0.83620 -0.93000
H 	H 	0.36840 0.38930 0.80880 0.28300
H 	H 	0.37070 0.40000 0.86810 0.27400
H 	H 	0.38700 0.46320 0.83160 0.28100
O 	O 	0.47227 0.39910 0.87753 -0.52800
O 	O 	0.46693 0.36100 0.79908 -0.50100
C 	C 	0.63140 0.08330 0.85060 0.58400
C 	C 	0.60870 0.02200 0.82170 -0.88200
H 	H 	0.61370 0.97880 0.84110 0.28000
H 	H 	0.56960 0.02960 0.81550 0.26800
H 	H 	0.62800 0.01790 0.78970 0.27800
O 	O 	0.61718 0.14420 0.83392 -0.49500
O 	O 	0.66094 0.07320 0.88761 -0.46600
C 	C 	0.72820 0.47970 0.76930 0.64400
C 	C 	0.73100 0.51090 0.72050 -0.99300
H 	H 	0.75620 0.55100 0.72120 0.30000
H 	H 	0.74420 0.47600 0.69630 0.29100
H 	H 	0.69450 0.52700 0.71050 0.29600
O 	O 	0.68825 0.43390 0.77687 -0.54700
O 	O 	0.76036 0.49810 0.80196 -0.45100
C 	C 	0.55940 0.27840 0.08040 0.51800
C 	C 	0.54600 0.24200 0.12880 -0.79400
H 	H 	0.55570 0.27260 0.15700 0.23700
H 	H 	0.50680 0.23140 0.13000 0.23500
H 	H 	0.56700 0.19820 0.13110 0.23900
O 	O 	0.59060 0.25330 0.04820 -0.53000
O 	O 	0.53300 0.33940 0.07400 -0.39200
C 	C 	0.84860 0.33710 0.92690 0.58900
C 	C 	0.90280 0.30020 0.92640 -0.87800
H 	H 	0.93230 0.33490 0.92710 0.26900
H 	H 	0.90560 0.26960 0.95580 0.27200
H 	H 	0.90580 0.27180 0.89590 0.26400
O 	O 	0.80710 0.29750 0.93663 -0.51700
O 	O 	0.84597 0.39930 0.91632 -0.43500
Na	Na	0.56090 0.31533 0.77456 0.57700
Na	Na	0.53191 0.42324 0.01192 0.59200
Na	Na	0.77500 0.48193 0.88983 0.59000
Na	Na	0.68948 0.14605 0.95665 0.57900
O 	O 	0.55047 0.54282 0.02970 -0.81400
H 	H 	0.54870 0.56080 0.05830 0.36100
H 	H 	0.58150 0.55290 0.01820 0.36200
