data_crystal

_cell_length_a 19.74510
_cell_length_b 20.18180
_cell_length_c 30.28680
_cell_angle_alpha 90.00000
_cell_angle_beta  90.00000
_cell_angle_gamma 90.68800

_symmetry_space_group_name_	'P 1'
_symmetry_space_group_name_H-M	'P 1'

loop_
_symmetry_equiv_pos_as_xyz
  x,y,z

loop_
_atom_site_label
_atom_site_type_symbol
_atom_site_fract_x
_atom_site_fract_y
_atom_site_fract_z
_atom_site_charge
Zn	Zn	0.55232 0.27224 0.82118 1.21900
Zn	Zn	0.45187 0.31891 0.92594 1.25000
Zn	Zn	0.05529 0.38718 0.17646 1.21900
Zn	Zn	0.05232 0.27224 0.67882 1.22000
Zn	Zn	0.55529 0.38718 0.32354 1.21900
Zn	Zn	0.95110 0.33910 0.07348 1.21800
Zn	Zn	0.45110 0.33910 0.42652 1.21800
Zn	Zn	0.95187 0.31891 0.57406 1.25200
H 	H 	0.10770 0.05640 0.17540 0.13600
H 	H 	0.14890 0.73500 0.65680 0.06600
H 	H 	0.87140 0.89590 0.57880 0.02400
H 	H 	0.03490 0.87360 0.02130 0.06700
H 	H 	0.54410 0.19630 0.95380 -0.01800
H 	H 	0.87640 0.22390 0.11840 0.01200
H 	H 	0.04630 0.45660 0.04600 -0.01800
H 	H 	0.16620 0.85440 0.16070 0.03600
H 	H 	0.72940 0.28650 0.88690 0.05000
H 	H 	0.95240 0.14850 0.68810 -0.01700
H 	H 	0.35850 0.20110 0.91140 -0.01700
H 	H 	0.54560 0.10090 0.43000 0.08600
H 	H 	0.90890 0.00860 0.09450 0.13400
H 	H 	0.34100 0.80070 0.41180 0.06900
H 	H 	0.40310 0.98680 0.92630 0.14000
H 	H 	0.97030 0.26150 0.21180 -0.01000
H 	H 	0.83130 0.29550 0.92440 0.07300
H 	H 	0.04560 0.10090 0.07000 0.07600
H 	H 	0.86060 0.45940 0.09010 -0.01700
H 	H 	0.36760 0.11080 0.37840 0.05100
H 	H 	0.14190 0.96590 0.16640 0.02000
H 	H 	0.04920 0.54770 0.54250 0.11800
H 	H 	0.93260 0.80410 0.68920 0.05600
H 	H 	0.02450 0.21710 0.03380 0.00600
H 	H 	0.66620 0.85440 0.33930 0.03500
H 	H 	0.84550 0.78350 0.58520 0.07000
H 	H 	0.87860 0.80100 0.12400 0.03000
H 	H 	0.85500 0.10910 0.09510 0.05100
H 	H 	0.32970 0.36050 0.07600 0.08500
H 	H 	0.35500 0.10910 0.40490 0.05000
H 	H 	0.37270 0.55180 0.89260 0.12000
H 	H 	0.23560 0.32490 0.46210 0.07600
H 	H 	0.63760 0.15500 0.85160 -0.01500
H 	H 	0.87350 0.38650 0.25520 0.04800
H 	H 	0.47270 0.14910 0.28620 0.13400
H 	H 	0.14350 0.50760 0.15270 -0.01200
H 	H 	0.36800 0.91440 0.41130 0.04600
H 	H 	0.14380 0.04410 0.64730 0.12000
H 	H 	0.54920 0.54770 0.95750 0.11800
H 	H 	0.22940 0.28650 0.61310 0.05000
H 	H 	0.97940 0.80760 0.19540 0.03800
H 	H 	0.06260 0.85430 0.55210 0.04500
H 	H 	0.82970 0.36050 0.42400 0.08500
H 	H 	0.13680 0.85590 0.12880 0.04500
H 	H 	0.04410 0.19630 0.54620 -0.01800
H 	H 	0.28750 0.34970 0.36260 0.04700
H 	H 	0.90310 0.98680 0.57370 0.13800
H 	H 	0.25810 0.24250 0.71900 0.07400
H 	H 	0.37640 0.22390 0.38160 0.01300
H 	H 	0.64350 0.50760 0.34730 -0.01200
H 	H 	0.54680 0.21360 0.43650 0.02400
H 	H 	0.36060 0.45940 0.40990 -0.01800
H 	H 	0.13330 0.31220 0.99880 0.04200
H 	H 	0.75810 0.24250 0.78100 0.07400
H 	H 	0.95190 0.03520 0.68860 0.14500
H 	H 	0.47030 0.26150 0.28820 -0.01100
H 	H 	0.04680 0.21360 0.06350 0.01700
H 	H 	0.61030 0.96650 0.36220 0.03700
H 	H 	0.97090 0.91840 0.22860 0.03300
H 	H 	0.49160 0.80800 0.27970 0.01800
H 	H 	0.85120 0.08890 0.58710 0.11500
H 	H 	0.47090 0.91840 0.27140 0.03100
H 	H 	0.64560 0.62330 0.34660 0.14200
H 	H 	0.63600 0.39460 0.84750 -0.01700
H 	H 	0.76780 0.38890 0.28810 0.07400
H 	H 	0.73690 0.30540 0.53570 0.07900
H 	H 	0.53980 0.74280 0.94090 0.08100
H 	H 	0.95720 0.69270 0.68520 0.06700
H 	H 	0.87110 0.43940 0.60680 0.01700
H 	H 	0.13010 0.50940 0.64720 0.13900
H 	H 	0.45370 0.91880 0.29530 0.03800
H 	H 	0.13230 0.32220 0.49860 0.04800
H 	H 	0.18060 0.29650 0.83580 0.07800
H 	H 	0.86800 0.91440 0.08870 0.04200
H 	H 	0.13600 0.39460 0.65250 -0.01700
H 	H 	0.90480 0.91230 0.12010 0.01000
H 	H 	0.99160 0.80800 0.22030 0.01700
H 	H 	0.45020 0.61610 0.31060 0.13400
H 	H 	0.33130 0.29550 0.57560 0.07200
H 	H 	0.78850 0.30530 0.63480 0.04400
H 	H 	0.37350 0.38650 0.24480 0.04800
H 	H 	0.87270 0.55180 0.60740 0.12000
H 	H 	0.78750 0.34970 0.13740 0.04700
H 	H 	0.68060 0.29650 0.66420 0.07900
H 	H 	0.56090 0.87120 0.43470 0.03200
H 	H 	0.50330 0.66810 0.44430 0.16000
H 	H 	0.06090 0.87120 0.06530 0.02400
H 	H 	0.37110 0.43940 0.89320 0.01700
H 	H 	0.56260 0.85430 0.94790 0.04500
H 	H 	0.00410 0.71520 0.18650 0.16200
H 	H 	0.45360 0.50310 0.31210 -0.01300
H 	H 	0.05130 0.56930 0.04380 0.12700
H 	H 	0.09650 0.94120 0.66620 0.14100
H 	H 	0.47940 0.80760 0.30460 0.04000
H 	H 	0.03980 0.74280 0.55910 0.08000
H 	H 	0.14560 0.62330 0.15340 0.14300
H 	H 	0.63010 0.50940 0.85280 0.14000
H 	H 	0.03730 0.76280 0.06710 0.02700
H 	H 	0.59650 0.94120 0.83380 0.14100
H 	H 	0.12640 0.84760 0.66440 0.03000
H 	H 	0.73560 0.32490 0.03790 0.07700
H 	H 	0.43260 0.80410 0.81080 0.05600
H 	H 	0.18150 0.36200 0.33120 0.07500
H 	H 	0.35120 0.08890 0.91290 0.11500
H 	H 	0.99600 0.60030 0.69510 0.16500
H 	H 	0.45240 0.14850 0.81190 -0.01800
H 	H 	0.49600 0.60030 0.80490 0.16600
H 	H 	0.45720 0.69270 0.81480 0.06700
H 	H 	0.13760 0.15500 0.64840 -0.01500
H 	H 	0.95020 0.61610 0.18940 0.13400
H 	H 	0.64890 0.73500 0.84320 0.06600
H 	H 	0.54630 0.45660 0.45400 -0.01800
H 	H 	0.40480 0.91230 0.37990 0.00800
H 	H 	0.22630 0.36910 0.11150 0.04400
H 	H 	0.64380 0.04410 0.85270 0.12200
H 	H 	0.28850 0.30530 0.86520 0.04400
H 	H 	0.60770 0.05640 0.32460 0.13700
H 	H 	0.02560 0.10350 0.03210 0.08000
H 	H 	0.95360 0.50310 0.18790 -0.01400
H 	H 	0.51390 0.76500 0.47100 0.05800
H 	H 	0.40890 0.00860 0.40550 0.13400
H 	H 	0.45720 0.38180 0.92150 -0.22100
H 	H 	0.34550 0.78350 0.91480 0.07000
H 	H 	0.72630 0.36910 0.38850 0.04400
H 	H 	0.04340 0.08330 0.54500 0.14700
H 	H 	0.53730 0.76280 0.43290 0.02900
H 	H 	0.85850 0.20110 0.58860 -0.01700
H 	H 	0.96950 0.38540 0.72050 -0.01300
H 	H 	0.64190 0.96590 0.33360 0.01800
H 	H 	0.54340 0.08330 0.95500 0.14700
H 	H 	0.04340 0.43550 0.54400 0.02600
H 	H 	0.63330 0.31220 0.50120 0.04400
H 	H 	0.45190 0.03520 0.81140 0.14600
H 	H 	0.35620 0.21570 0.40350 0.00900
H 	H 	0.95930 0.49820 0.71960 0.12400
H 	H 	0.52560 0.10350 0.46790 0.07100
H 	H 	0.62640 0.84760 0.83560 0.03000
H 	H 	0.84100 0.80070 0.08820 0.06500
H 	H 	0.55130 0.56930 0.45620 0.12700
H 	H 	0.63230 0.32220 0.00140 0.04700
H 	H 	0.63680 0.85590 0.37120 0.04600
H 	H 	0.36540 0.24640 0.74910 0.04400
H 	H 	0.37860 0.80100 0.37600 0.02600
H 	H 	0.95720 0.38180 0.57850 -0.22100
H 	H 	0.53490 0.87360 0.47870 0.05800
H 	H 	0.11030 0.96650 0.13780 0.03700
H 	H 	0.36030 0.57210 0.40940 0.14200
H 	H 	0.00330 0.66810 0.05570 0.16000
H 	H 	0.45930 0.49820 0.78040 0.12500
H 	H 	0.95370 0.91880 0.20470 0.03500
H 	H 	0.85620 0.21570 0.09650 0.01000
H 	H 	0.54340 0.43550 0.95600 0.02600
H 	H 	0.68150 0.36200 0.16880 0.07400
H 	H 	0.23690 0.30540 0.96430 0.08000
H 	H 	0.46950 0.38540 0.77950 -0.01400
H 	H 	0.52450 0.21710 0.46620 -0.00200
H 	H 	0.97270 0.14910 0.21380 0.13600
H 	H 	0.26780 0.38890 0.21190 0.07400
H 	H 	0.37140 0.89590 0.92120 0.02400
H 	H 	0.50410 0.71520 0.31350 0.16100
H 	H 	0.86760 0.11080 0.12160 0.04900
H 	H 	0.01390 0.76500 0.02900 0.06300
H 	H 	0.86540 0.24640 0.75090 0.04400
H 	H 	0.86030 0.57210 0.09060 0.14200
C 	C 	0.97670 0.79110 0.68310 -0.00800
C 	C 	0.16810 0.34360 0.05840 -0.11400
C 	C 	0.40710 0.19900 0.39770 0.03100
C 	C 	0.49080 0.79500 0.45330 -0.07400
C 	C 	0.78340 0.35940 0.16730 0.01000
C 	C 	0.58990 0.93450 0.34440 -0.03000
C 	C 	0.60430 0.52990 0.33950 0.13200
C 	C 	0.94880 0.09170 0.08220 0.18000
C 	C 	0.79090 0.30050 0.93980 -0.05300
C 	C 	0.00640 0.90960 0.67840 0.24600
C 	C 	0.39860 0.54980 0.41870 -0.24700
C 	C 	0.52190 0.02500 0.30620 0.23700
C 	C 	0.49680 0.12630 0.44920 -0.07600
C 	C 	0.66930 0.30250 0.94040 -0.10500
C 	C 	0.88940 0.79760 0.57880 -0.07100
C 	C 	0.92630 0.88330 0.10100 0.04200
C 	C 	0.51230 0.52630 0.94460 -0.17200
C 	C 	0.90900 0.28490 0.67320 0.41000
C 	C 	0.70830 0.26990 0.72590 -0.03800
C 	C 	0.36180 0.33050 0.99350 0.29800
C 	C 	0.01580 0.85850 0.06900 0.05300
C 	C 	0.34070 0.36800 0.30650 -0.10400
C 	C 	0.44340 0.75020 0.92670 0.00200
C 	C 	0.00870 0.45920 0.55720 0.05600
C 	C 	0.66810 0.34360 0.44160 -0.11300
C 	C 	0.57720 0.63180 0.83420 0.23100
C 	C 	0.04390 0.95360 0.18900 -0.04500
C 	C 	0.22990 0.29500 0.58300 0.01000
C 	C 	0.88510 0.81610 0.08360 -0.08500
C 	C 	0.94710 0.07220 0.56520 0.24100
C 	C 	0.07720 0.63180 0.66580 0.23100
C 	C 	0.99500 0.47840 0.70490 -0.23300
C 	C 	0.50860 0.48030 0.44510 0.13700
C 	C 	0.00880 0.17260 0.20140 -0.21600
C 	C 	0.49210 0.12700 0.81960 0.14900
C 	C 	0.39120 0.11000 0.92140 -0.24100
C 	C 	0.39610 0.13030 0.41070 -0.07700
C 	C 	0.40520 0.86490 0.92570 0.01100
C 	C 	0.55530 0.70360 0.82780 -0.02200
C 	C 	0.50470 0.10600 0.94650 -0.25200
C 	C 	0.86180 0.33050 0.50650 0.29900
C 	C 	0.49030 0.59490 0.31780 -0.24200
C 	C 	0.44710 0.07220 0.93480 0.23900
C 	C 	0.36100 0.32160 0.49320 0.30600
C 	C 	0.79340 0.31300 0.98370 -0.03400
C 	C 	0.99080 0.79500 0.04670 -0.08500
C 	C 	0.72990 0.29500 0.91700 0.01200
C 	C 	0.99270 0.52720 0.18110 0.13400
C 	C 	0.29090 0.30050 0.56020 -0.05100
C 	C 	0.72000 0.36570 0.18640 -0.04900
C 	C 	0.01210 0.54800 0.05370 -0.24400
C 	C 	0.00500 0.77280 0.56320 -0.07200
C 	C 	0.39590 0.19400 0.41090 0.03100
C 	C 	0.60920 0.17960 0.34120 0.09100
C 	C 	0.01230 0.52630 0.55540 -0.17100
C 	C 	0.22000 0.36570 0.31360 -0.04900
C 	C 	0.49150 0.72400 0.81920 -0.05300
C 	C 	0.60920 0.93410 0.32680 -0.00400
C 	C 	0.59660 0.48550 0.83790 -0.23600
C 	C 	0.91080 0.81570 0.10380 0.02900
C 	C 	0.90780 0.46130 0.59400 0.07200
C 	C 	0.90150 0.88370 0.08270 -0.06900
C 	C 	0.94240 0.77080 0.07690 -0.04500
C 	C 	0.64450 0.38570 0.25180 0.32500
C 	C 	0.78260 0.29210 0.66400 0.02000
C 	C 	0.99210 0.12700 0.68040 0.14900
C 	C 	0.67210 0.31560 0.98570 0.01400
C 	C 	0.71800 0.28760 0.68190 -0.06000
C 	C 	0.49270 0.52720 0.31890 0.13400
C 	C 	0.89120 0.11000 0.57860 -0.24100
C 	C 	0.04820 0.02440 0.66900 0.24300
C 	C 	0.17260 0.32290 0.01430 0.02500
C 	C 	0.51870 0.84020 0.94140 0.00800
C 	C 	0.59000 0.74790 0.33350 0.23500
C 	C 	0.14450 0.38570 0.24820 0.32500
C 	C 	0.27150 0.38320 0.24230 -0.04600
C 	C 	0.00450 0.17420 0.55460 0.14700
C 	C 	0.99690 0.90700 0.19570 -0.02200
C 	C 	0.41040 0.36550 0.32670 0.40200
C 	C 	0.92000 0.68010 0.58190 0.19500
C 	C 	0.90180 0.13060 0.10500 -0.08300
C 	C 	0.61390 0.24660 0.32340 -0.06700
C 	C 	0.94340 0.75020 0.57330 0.00100
C 	C 	0.89860 0.54980 0.08130 -0.24700
C 	C 	0.04990 0.63240 0.17230 0.24400
C 	C 	0.50450 0.17420 0.94540 0.14700
C 	C 	0.50440 0.85880 0.45740 -0.05800
C 	C 	0.10920 0.93410 0.17320 -0.00800
C 	C 	0.89610 0.13030 0.08930 -0.07900
C 	C 	0.10920 0.17960 0.15880 0.10300
C 	C 	0.00440 0.85880 0.04260 -0.07800
C 	C 	0.99110 0.05820 0.68060 -0.25200
C 	C 	0.00860 0.48030 0.05490 0.13700
C 	C 	0.62290 0.86780 0.33170 -0.00400
C 	C 	0.71300 0.37750 0.23150 -0.04200
C 	C 	0.40780 0.46130 0.90600 0.07200
C 	C 	0.09860 0.41590 0.66430 0.12700
C 	C 	0.51580 0.85850 0.43100 0.02700
C 	C 	0.44880 0.09170 0.41780 0.18600
C 	C 	0.63710 0.26910 0.74530 0.33200
C 	C 	0.51280 0.83920 0.31090 -0.04200
C 	C 	0.38940 0.79760 0.92120 -0.07100
C 	C 	0.09660 0.48550 0.66210 -0.23600
C 	C 	0.29340 0.31300 0.51630 -0.03700
C 	C 	0.60380 0.06400 0.84370 -0.25100
C 	C 	0.05530 0.70360 0.67220 -0.02200
C 	C 	0.00470 0.10600 0.55350 -0.25400
C 	C 	0.50870 0.45920 0.94280 0.05700
C 	C 	0.78990 0.35120 0.43940 -0.06800
C 	C 	0.48820 0.95770 0.94000 0.25200
C 	C 	0.41080 0.81570 0.39620 0.04400
C 	C 	0.08990 0.93450 0.15560 -0.02800
C 	C 	0.11390 0.24660 0.17660 -0.07400
C 	C 	0.50880 0.17260 0.29860 -0.21400
C 	C 	0.13710 0.26910 0.75470 0.33300
C 	C 	0.02190 0.02500 0.19380 0.23300
C 	C 	0.50610 0.19290 0.42900 -0.01800
C 	C 	0.59860 0.41590 0.83570 0.12700
C 	C 	0.00560 0.12410 0.07390 -0.07700
C 	C 	0.28260 0.29210 0.83600 0.02000
C 	C 	0.89580 0.17720 0.57920 0.13000
C 	C 	0.51210 0.54800 0.44630 -0.24600
C 	C 	0.09130 0.81690 0.66800 -0.00600
C 	C 	0.32830 0.25750 0.76640 0.02000
C 	C 	0.49470 0.19420 0.44780 0.07800
C 	C 	0.02730 0.83970 0.67650 -0.06300
C 	C 	0.50220 0.79260 0.42940 0.02200
C 	C 	0.10450 0.86840 0.14950 -0.04100
C 	C 	0.01280 0.83920 0.18910 -0.03700
C 	C 	0.10570 0.74880 0.66440 -0.05400
C 	C 	0.45590 0.58520 0.43260 0.23800
C 	C 	0.59990 0.35150 0.42110 0.40000
C 	C 	0.59970 0.13060 0.84280 0.14900
C 	C 	0.16930 0.30250 0.55960 -0.10300
C 	C 	0.39580 0.17720 0.92080 0.12900
C 	C 	0.04400 0.51750 0.68250 0.23100
C 	C 	0.06930 0.81890 0.17520 -0.04700
C 	C 	0.97040 0.90750 0.07240 -0.07500
C 	C 	0.89590 0.19400 0.08910 0.02800
C 	C 	0.22810 0.35680 0.08190 0.02500
C 	C 	0.44240 0.77080 0.42310 -0.04500
C 	C 	0.00220 0.79260 0.07060 0.02900
C 	C 	0.10220 0.29930 0.58200 0.39600
C 	C 	0.47670 0.79110 0.81690 -0.00700
C 	C 	0.28340 0.35940 0.33270 0.01000
C 	C 	0.10730 0.24740 0.16110 0.12200
C 	C 	0.41820 0.69880 0.41840 0.22200
C 	C 	0.40180 0.13060 0.39500 -0.08700
C 	C 	0.98820 0.95770 0.56000 0.24800
C 	C 	0.96900 0.88640 0.56350 -0.07700
C 	C 	0.01720 0.83930 0.20490 0.00500
C 	C 	0.46900 0.88640 0.93650 -0.07800
C 	C 	0.83480 0.38020 0.23810 0.01200
C 	C 	0.60450 0.86840 0.35050 -0.04400
C 	C 	0.10620 0.60020 0.16090 -0.25200
C 	C 	0.26400 0.25460 0.74830 -0.05400
C 	C 	0.50770 0.24060 0.30040 0.13000
C 	C 	0.39930 0.48230 0.41890 0.13300
C 	C 	0.09970 0.13060 0.65720 0.14700
C 	C 	0.99030 0.59490 0.18220 -0.24300
C 	C 	0.95860 0.56260 0.57370 0.18100
C 	C 	0.20830 0.26990 0.77410 -0.03800
C 	C 	0.54820 0.02440 0.83100 0.24700
C 	C 	0.49110 0.05820 0.81940 -0.25600
C 	C 	0.56320 0.13970 0.31500 0.17300
C 	C 	0.00610 0.19290 0.07100 0.00500
C 	C 	0.42000 0.68010 0.91810 0.19500
C 	C 	0.09000 0.74790 0.16650 0.23600
C 	C 	0.50580 0.90530 0.29000 -0.00500
C 	C 	0.52730 0.83970 0.82350 -0.06400
C 	C 	0.01870 0.84020 0.55860 0.00900
C 	C 	0.77150 0.38320 0.25770 -0.04600
C 	C 	0.51720 0.83930 0.29510 0.00400
C 	C 	0.60570 0.74880 0.83560 -0.05400
C 	C 	0.50560 0.12410 0.42610 -0.10900
C 	C 	0.72810 0.35680 0.41810 0.02400
C 	C 	0.99680 0.12630 0.05080 -0.10600
C 	C 	0.99470 0.19420 0.05220 0.05600
C 	C 	0.40770 0.52900 0.90620 -0.18900
C 	C 	0.29310 0.33190 0.01660 -0.01900
C 	C 	0.48750 0.97760 0.43180 0.23300
C 	C 	0.33480 0.38020 0.26190 0.01200
C 	C 	0.12370 0.17860 0.17600 -0.17100
C 	C 	0.06320 0.13970 0.18500 0.17200
C 	C 	0.00090 0.41040 0.70460 0.13300
C 	C 	0.50640 0.90960 0.82160 0.24400
C 	C 	0.79310 0.33190 0.48340 -0.02000
C 	C 	0.38510 0.81610 0.41640 -0.09700
C 	C 	0.33850 0.27670 0.81010 -0.11500
C 	C 	0.49690 0.90700 0.30430 -0.02900
C 	C 	0.49500 0.47840 0.79510 -0.23500
C 	C 	0.12290 0.86780 0.16830 -0.00600
C 	C 	0.40150 0.88370 0.41730 -0.08000
C 	C 	0.40900 0.28490 0.82680 0.41000
C 	C 	0.56930 0.81890 0.32480 -0.04400
C 	C 	0.89930 0.48230 0.08110 0.13300
C 	C 	0.62370 0.17860 0.32400 -0.15900
C 	C 	0.91820 0.69880 0.08160 0.22100
C 	C 	0.91040 0.36550 0.17330 0.40200
C 	C 	0.60620 0.60020 0.33910 -0.25100
C 	C 	0.47040 0.90750 0.42760 -0.07100
C 	C 	0.54400 0.51750 0.81750 0.23200
C 	C 	0.50090 0.41040 0.79540 0.13500
C 	C 	0.98750 0.97760 0.06820 0.23000
C 	C 	0.50500 0.77280 0.93680 -0.07400
C 	C 	0.99150 0.72400 0.68080 -0.05300
C 	C 	0.23410 0.31880 0.49250 -0.05200
C 	C 	0.45860 0.56260 0.92630 0.18100
C 	C 	0.09990 0.35150 0.07890 0.40100
C 	C 	0.90770 0.52900 0.59380 -0.18900
C 	C 	0.73460 0.31810 0.50630 -0.06300
C 	C 	0.42630 0.88330 0.39900 0.05200
C 	C 	0.95590 0.58520 0.06740 0.23700
C 	C 	0.17210 0.31560 0.51430 0.01200
C 	C 	0.67260 0.32290 0.48570 0.02300
C 	C 	0.10380 0.06400 0.65630 -0.24900
C 	C 	0.86100 0.32160 0.00680 0.30500
C 	C 	0.60220 0.29930 0.91800 0.39700
C 	C 	0.83850 0.27670 0.68990 -0.11500
C 	C 	0.54990 0.63240 0.32770 0.24300
C 	C 	0.84070 0.36800 0.19350 -0.10400
C 	C 	0.90710 0.19900 0.10230 0.03300
C 	C 	0.59130 0.81690 0.83200 -0.00600
C 	C 	0.54390 0.95360 0.31100 -0.04900
C 	C 	0.82830 0.25750 0.73360 0.02000
C 	C 	0.60730 0.24740 0.33890 0.11500
C 	C 	0.73410 0.31880 0.00750 -0.05400
C 	C 	0.28990 0.35120 0.06060 -0.06900
C 	C 	0.00770 0.24060 0.19960 0.12900
C 	C 	0.21300 0.37750 0.26850 -0.04200
C 	C 	0.90520 0.86490 0.57430 0.01000
C 	C 	0.21800 0.28760 0.81810 -0.06000
C 	C 	0.23460 0.31810 0.99370 -0.06500
C 	C 	0.10430 0.52990 0.16050 0.13200
C 	C 	0.00580 0.90530 0.21000 -0.01500
C 	C 	0.76400 0.25460 0.75170 -0.05300
N 	N 	0.04940 0.37860 0.68260 -0.26000
N 	N 	0.45250 0.21080 0.93340 -0.25700
N 	N 	0.45410 0.44670 0.43170 -0.26200
N 	N 	0.46580 0.65300 0.43370 -0.26600
N 	N 	0.06900 0.07110 0.18370 -0.25100
N 	N 	0.05500 0.27860 0.18210 -0.23700
N 	N 	0.95410 0.44670 0.06830 -0.26200
N 	N 	0.54940 0.37860 0.81740 -0.26000
N 	N 	0.55500 0.27860 0.31790 -0.23700
N 	N 	0.94530 0.02430 0.08270 -0.25700
N 	N 	0.54900 0.49370 0.32930 -0.25500
N 	N 	0.44250 0.00230 0.93310 -0.27000
N 	N 	0.05630 0.95580 0.67060 -0.26300
N 	N 	0.55630 0.95580 0.82940 -0.26400
N 	N 	0.04480 0.16400 0.67000 -0.25400
N 	N 	0.54480 0.16400 0.83000 -0.25300
N 	N 	0.04230 0.70140 0.17660 -0.27100
N 	N 	0.54230 0.70140 0.32340 -0.27100
N 	N 	0.96830 0.63340 0.56910 -0.14600
N 	N 	0.03260 0.58620 0.68320 -0.26700
N 	N 	0.94250 0.00230 0.56690 -0.26700
N 	N 	0.45310 0.23150 0.42180 -0.22200
N 	N 	0.95250 0.21080 0.56660 -0.25600
N 	N 	0.46830 0.63340 0.93090 -0.14600
N 	N 	0.44530 0.02430 0.41730 -0.25900
N 	N 	0.04900 0.49370 0.17070 -0.25500
N 	N 	0.96580 0.65300 0.06630 -0.26700
N 	N 	0.95760 0.42430 0.57700 -0.09500
N 	N 	0.53260 0.58620 0.81680 -0.26700
N 	N 	0.45760 0.42430 0.92300 -0.09500
N 	N 	0.95310 0.23150 0.07820 -0.22300
N 	N 	0.56900 0.07110 0.31630 -0.25200
O 	O 	0.04770 0.97400 0.55200 -0.23700
O 	O 	0.12950 0.61870 0.64790 -0.25100
O 	O 	0.35750 0.33320 0.45120 -0.41800
O 	O 	0.91600 0.34190 0.13560 -0.49900
O 	O 	0.36680 0.66470 0.90170 -0.24000
O 	O 	0.45940 0.38580 0.30280 -0.47300
O 	O 	0.64420 0.73510 0.34870 -0.25700
O 	O 	0.59350 0.38780 0.22800 -0.31800
O 	O 	0.94880 0.92440 0.68670 -0.24300
O 	O 	0.09350 0.38780 0.27200 -0.31800
O 	O 	0.54950 0.33310 0.44310 -0.47900
O 	O 	0.35880 0.31870 0.95250 -0.41000
O 	O 	0.60150 0.27580 0.87910 -0.47400
O 	O 	0.54770 0.97400 0.94800 -0.24000
O 	O 	0.41600 0.34190 0.36440 -0.49800
O 	O 	0.91430 0.31890 0.98700 -0.34000
O 	O 	0.05150 0.31870 0.56070 -0.46200
O 	O 	0.95550 0.26580 0.69830 -0.47400
O 	O 	0.09790 0.37970 0.11650 -0.48200
O 	O 	0.96570 0.03870 0.20590 -0.24100
O 	O 	0.10150 0.27580 0.62090 -0.47400
O 	O 	0.36400 0.68340 0.40310 -0.25200
O 	O 	0.41410 0.34160 0.01460 -0.30100
O 	O 	0.58820 0.28030 0.72140 -0.31800
O 	O 	0.85750 0.33320 0.04880 -0.41700
O 	O 	0.04950 0.33310 0.05690 -0.47900
O 	O 	0.44880 0.92440 0.81330 -0.24200
O 	O 	0.95940 0.38580 0.19720 -0.47300
O 	O 	0.63520 0.25930 0.78630 -0.44200
O 	O 	0.08820 0.28030 0.77860 -0.31900
O 	O 	0.85880 0.31870 0.54750 -0.41000
O 	O 	0.41670 0.31100 0.86370 -0.48800
O 	O 	0.46570 0.03870 0.29410 -0.24300
O 	O 	0.86400 0.68340 0.09690 -0.25200
O 	O 	0.59790 0.37970 0.38350 -0.48200
O 	O 	0.55150 0.31870 0.93930 -0.46200
O 	O 	0.86680 0.66470 0.59830 -0.24000
O 	O 	0.41430 0.31890 0.51300 -0.34100
O 	O 	0.45550 0.26580 0.80170 -0.47500
O 	O 	0.91670 0.31100 0.63630 -0.48800
O 	O 	0.04310 0.99280 0.05190 -0.23700
O 	O 	0.13520 0.25930 0.71370 -0.44200
O 	O 	0.62950 0.61870 0.85210 -0.25200
O 	O 	0.14420 0.73510 0.15130 -0.25800
O 	O 	0.64440 0.39120 0.29330 -0.43100
O 	O 	0.91410 0.34160 0.48540 -0.30100
O 	O 	0.14440 0.39120 0.20670 -0.43100
O 	O 	0.54310 0.99280 0.44810 -0.24000
Zn	Zn	0.94471 0.61282 0.82354 1.21900
Zn	Zn	0.04890 0.66090 0.92652 1.21800
Zn	Zn	0.44471 0.61282 0.67646 1.21900
Zn	Zn	0.94768 0.72776 0.32118 1.22000
Zn	Zn	0.44768 0.72776 0.17882 1.22000
Zn	Zn	0.54813 0.68109 0.07406 1.25100
Zn	Zn	0.04813 0.68109 0.42594 1.25200
Zn	Zn	0.54890 0.66090 0.57348 1.21800
H 	H 	0.13460 0.75360 0.24910 0.04400
H 	H 	0.98610 0.23500 0.97100 0.06300
H 	H 	0.13240 0.88920 0.87840 0.04900
H 	H 	0.21250 0.65030 0.86260 0.04700
H 	H 	0.52060 0.19240 0.69540 0.04000
H 	H 	0.54810 0.96480 0.18860 0.14600
H 	H 	0.86670 0.68780 0.00120 0.04200
H 	H 	0.93740 0.14570 0.44790 0.04500
H 	H 	0.54280 0.61820 0.07850 -0.22100
H 	H 	0.23220 0.61110 0.71190 0.07400
H 	H 	0.15900 0.19930 0.91180 0.06500
H 	H 	0.04280 0.30730 0.31480 0.06700
H 	H 	0.85810 0.03410 0.83360 0.02000
H 	H 	0.95590 0.80370 0.45380 -0.01800
H 	H 	0.21150 0.69470 0.36520 0.04400
H 	H 	0.31940 0.70350 0.33580 0.07900
H 	H 	0.02730 0.85090 0.78620 0.13600
H 	H 	0.46020 0.25720 0.05910 0.08100
H 	H 	0.62650 0.61350 0.75520 0.04800
H 	H 	0.27370 0.63090 0.61150 0.04400
H 	H 	0.45440 0.89910 0.57000 0.08600
H 	H 	0.52970 0.73850 0.71180 -0.01100
H 	H 	0.37360 0.15240 0.16440 0.03000
H 	H 	0.13200 0.08560 0.91130 0.04200
H 	H 	0.04630 0.08120 0.79530 0.03500
H 	H 	0.89230 0.94360 0.82460 0.13600
H 	H 	0.97550 0.78290 0.96620 0.00600
H 	H 	0.63200 0.08560 0.58870 0.04600
H 	H 	0.09690 0.01320 0.42630 0.13800
H 	H 	0.40350 0.05880 0.16620 0.14100
H 	H 	0.04280 0.61820 0.42150 -0.22100
H 	H 	0.36990 0.49060 0.14720 0.14000
H 	H 	0.50840 0.19200 0.72030 0.01800
H 	H 	0.13940 0.54060 0.90990 -0.01700
H 	H 	0.47440 0.89650 0.53210 0.07100
H 	H 	0.59110 0.99140 0.59450 0.13400
H 	H 	0.36240 0.84500 0.14840 -0.01500
H 	H 	0.59690 0.01320 0.07370 0.14000
H 	H 	0.12650 0.61350 0.74480 0.04800
H 	H 	0.02060 0.19240 0.80460 0.03800
H 	H 	0.12860 0.10410 0.42120 0.02400
H 	H 	0.95320 0.78640 0.93650 0.01700
H 	H 	0.88970 0.03350 0.86220 0.03700
H 	H 	0.02970 0.73850 0.78820 -0.01000
H 	H 	0.24190 0.75750 0.21900 0.07400
H 	H 	0.12730 0.44820 0.39260 0.12000
H 	H 	0.45660 0.56450 0.04400 0.02600
H 	H 	0.09520 0.08770 0.87990 0.01000
H 	H 	0.54760 0.85150 0.18810 -0.01800
H 	H 	0.85110 0.26500 0.34320 0.06600
H 	H 	0.99670 0.33190 0.94430 0.16000
H 	H 	0.53050 0.61460 0.22050 -0.01400
H 	H 	0.35620 0.95590 0.14730 0.12200
H 	H 	0.54630 0.08120 0.70470 0.03800
H 	H 	0.74190 0.75750 0.28100 0.07400
H 	H 	0.62890 0.56060 0.10680 0.01700
H 	H 	0.46510 0.12640 0.52130 0.05800
H 	H 	0.93910 0.12880 0.93470 0.02400
H 	H 	0.64380 0.78430 0.59650 0.00900
H 	H 	0.04640 0.49690 0.81210 -0.01400
H 	H 	0.97440 0.89650 0.96790 0.08000
H 	H 	0.48610 0.23500 0.52900 0.05800
H 	H 	0.45590 0.80370 0.04620 -0.01800
H 	H 	0.71150 0.69470 0.13480 0.04400
H 	H 	0.77370 0.63090 0.88850 0.04400
H 	H 	0.45080 0.45230 0.04250 0.11800
H 	H 	0.63970 0.42790 0.59060 0.14200
H 	H 	0.64150 0.79890 0.08860 -0.01700
H 	H 	0.49670 0.33190 0.55570 0.16000
H 	H 	0.35110 0.26500 0.15680 0.06600
H 	H 	0.76310 0.69460 0.03570 0.08000
H 	H 	0.12360 0.77610 0.88160 0.01200
H 	H 	0.39230 0.94360 0.67540 0.13700
H 	H 	0.15450 0.21650 0.41480 0.07000
H 	H 	0.90350 0.05880 0.33380 0.14100
H 	H 	0.54280 0.30730 0.18520 0.06700
H 	H 	0.85650 0.49240 0.84730 -0.01200
H 	H 	0.94870 0.43070 0.95620 0.12700
H 	H 	0.62360 0.77610 0.61840 0.01300
H 	H 	0.86770 0.67780 0.50140 0.04800
H 	H 	0.81940 0.70350 0.16420 0.07800
H 	H 	0.09110 0.99140 0.90550 0.13400
H 	H 	0.99590 0.28480 0.81350 0.16200
H 	H 	0.81850 0.63800 0.66880 0.07500
H 	H 	0.95660 0.91670 0.45500 0.14700
H 	H 	0.36670 0.68780 0.49880 0.04400
H 	H 	0.35440 0.37670 0.65340 0.14200
H 	H 	0.14500 0.89090 0.90490 0.05100
H 	H 	0.04980 0.38390 0.81060 0.13400
H 	H 	0.59520 0.08770 0.62010 0.00800
H 	H 	0.54980 0.38390 0.68940 0.13400
H 	H 	0.13970 0.42790 0.90940 0.14200
H 	H 	0.50400 0.39970 0.19510 0.16600
H 	H 	0.62140 0.19900 0.62400 0.02600
H 	H 	0.96270 0.23720 0.93290 0.02700
H 	H 	0.49590 0.28480 0.68650 0.16100
H 	H 	0.00840 0.19200 0.77970 0.01700
H 	H 	0.76440 0.67510 0.53790 0.07600
H 	H 	0.43740 0.14570 0.05210 0.04500
H 	H 	0.02910 0.08160 0.77140 0.03300
H 	H 	0.95080 0.45230 0.45750 0.11800
H 	H 	0.26310 0.69460 0.46430 0.07900
H 	H 	0.43910 0.12880 0.56530 0.03200
H 	H 	0.27060 0.71350 0.11310 0.05000
H 	H 	0.95370 0.54340 0.95400 -0.01800
H 	H 	0.03050 0.61460 0.27950 -0.01300
H 	H 	0.52910 0.08160 0.72860 0.03100
H 	H 	0.83380 0.14560 0.83930 0.03600
H 	H 	0.36400 0.60540 0.15250 -0.01700
H 	H 	0.04760 0.85150 0.31190 -0.01700
H 	H 	0.31850 0.63800 0.83120 0.07400
H 	H 	0.67030 0.63950 0.92400 0.08500
H 	H 	0.63460 0.75360 0.25090 0.04400
H 	H 	0.54070 0.50180 0.21960 0.12500
H 	H 	0.35650 0.49240 0.65270 -0.01200
H 	H 	0.47550 0.78290 0.53380 -0.00200
H 	H 	0.36770 0.67780 0.99860 0.04700
H 	H 	0.17030 0.63950 0.57600 0.08500
H 	H 	0.35810 0.03410 0.66640 0.01800
H 	H 	0.86400 0.60540 0.34750 -0.01700
H 	H 	0.04810 0.96480 0.31140 0.14500
H 	H 	0.87360 0.15240 0.33560 0.03000
H 	H 	0.04070 0.50180 0.28040 0.12400
H 	H 	0.64880 0.91110 0.08710 0.11500
H 	H 	0.96020 0.25720 0.44090 0.08000
H 	H 	0.26440 0.67510 0.96210 0.07700
H 	H 	0.96510 0.12640 0.97870 0.06700
H 	H 	0.06740 0.19590 0.31080 0.05600
H 	H 	0.86320 0.14410 0.87120 0.04500
H 	H 	0.64500 0.89090 0.59510 0.05000
H 	H 	0.12890 0.56060 0.39320 0.01700
H 	H 	0.52730 0.85090 0.71380 0.13400
H 	H 	0.38970 0.03350 0.63780 0.03700
H 	H 	0.45320 0.78640 0.56350 0.02400
H 	H 	0.63240 0.88920 0.62160 0.05100
H 	H 	0.86240 0.84500 0.35160 -0.01500
H 	H 	0.66870 0.70450 0.42440 0.07200
H 	H 	0.16870 0.70450 0.07560 0.07300
H 	H 	0.14380 0.78430 0.90350 0.01000
H 	H 	0.95440 0.89910 0.93000 0.07600
H 	H 	0.14880 0.91110 0.41290 0.11500
H 	H 	0.33380 0.14560 0.66070 0.03500
H 	H 	0.63940 0.54060 0.59010 -0.01800
H 	H 	0.46270 0.23720 0.56710 0.02900
H 	H 	0.65900 0.19930 0.58820 0.06900
H 	H 	0.62860 0.10410 0.07880 0.02400
H 	H 	0.85620 0.95590 0.35270 0.12000
H 	H 	0.00400 0.39970 0.30490 0.16500
H 	H 	0.45370 0.54340 0.54600 -0.01800
H 	H 	0.14150 0.79890 0.41140 -0.01700
H 	H 	0.45660 0.91670 0.04500 0.14700
H 	H 	0.85440 0.37670 0.84660 0.14300
H 	H 	0.12140 0.19900 0.87600 0.03000
H 	H 	0.77060 0.71350 0.38690 0.05000
H 	H 	0.54640 0.49690 0.68790 -0.01300
H 	H 	0.56740 0.19590 0.18920 0.05600
H 	H 	0.86990 0.49060 0.35280 0.13900
H 	H 	0.71250 0.65030 0.63740 0.04700
H 	H 	0.62730 0.44820 0.10740 0.12000
H 	H 	0.73220 0.61110 0.78810 0.07400
H 	H 	0.44870 0.43070 0.54380 0.12700
H 	H 	0.95660 0.56450 0.45600 0.02600
H 	H 	0.36320 0.14410 0.62880 0.04600
H 	H 	0.65450 0.21650 0.08520 0.07000
C 	C 	0.60070 0.51770 0.58110 0.13300
C 	C 	0.98770 0.47370 0.44460 -0.17100
C 	C 	0.00530 0.80580 0.94780 0.05600
C 	C 	0.89570 0.47010 0.83950 0.13200
C 	C 	0.41010 0.06550 0.65560 -0.03000
C 	C 	0.49420 0.09470 0.71000 -0.00500
C 	C 	0.00320 0.87370 0.94920 -0.10600
C 	C 	0.45010 0.36760 0.67230 0.24300
C 	C 	0.03100 0.11360 0.43650 -0.07700
C 	C 	0.60410 0.80600 0.58910 0.03100
C 	C 	0.52330 0.20890 0.18310 -0.00700
C 	C 	0.49560 0.14120 0.54260 -0.05800
C 	C 	0.50970 0.40510 0.68220 -0.24200
C 	C 	0.49360 0.09040 0.17840 0.24400
C 	C 	0.11490 0.18390 0.91640 -0.08500
C 	C 	0.05660 0.24980 0.42670 0.00100
C 	C 	0.20660 0.68700 0.01630 -0.03400
C 	C 	0.45600 0.48250 0.18250 0.23200
C 	C 	0.85550 0.61430 0.75180 0.32500
C 	C 	0.87630 0.82140 0.82400 -0.17100
C 	C 	0.48770 0.47370 0.05540 -0.17200
C 	C 	0.39550 0.13160 0.64950 -0.04400
C 	C 	0.76590 0.68120 0.50750 -0.05200
C 	C 	0.94470 0.29640 0.32780 -0.02200
C 	C 	0.08000 0.31990 0.41810 0.19500
C 	C 	0.86290 0.73090 0.24530 0.33300
C 	C 	0.98790 0.45200 0.94630 -0.24400
C 	C 	0.39430 0.25120 0.16440 -0.05400
C 	C 	0.58000 0.31990 0.08190 0.19500
C 	C 	0.09290 0.80100 0.89770 0.03300
C 	C 	0.09100 0.71510 0.32680 0.41000
C 	C 	0.01180 0.04230 0.44000 0.24800
C 	C 	0.26590 0.68120 0.99250 -0.05400
C 	C 	0.99780 0.20740 0.92940 0.02900
C 	C 	0.05290 0.92780 0.43480 0.24100
C 	C 	0.99440 0.87590 0.92610 -0.07700
C 	C 	0.95600 0.48250 0.31750 0.23100
C 	C 	0.44470 0.29640 0.17220 -0.02200
C 	C 	0.52960 0.09250 0.57240 -0.07100
C 	C 	0.90010 0.64850 0.92110 0.40100
C 	C 	0.40030 0.86940 0.15720 0.14900
C 	C 	0.48790 0.45200 0.55370 -0.24600
C 	C 	0.83070 0.69750 0.44040 -0.10300
C 	C 	0.50730 0.47280 0.68110 0.13400
C 	C 	0.33190 0.65640 0.55840 -0.11300
C 	C 	0.59220 0.53870 0.09400 0.07200
C 	C 	0.09220 0.53870 0.40600 0.07200
C 	C 	0.54140 0.43740 0.07370 0.18100
C 	C 	0.10140 0.45020 0.91870 -0.24700
C 	C 	0.58180 0.30120 0.58160 0.22200
C 	C 	0.40340 0.51450 0.16210 -0.23600
C 	C 	0.66150 0.72330 0.18990 -0.11500
C 	C 	0.37710 0.13220 0.66830 -0.00400
C 	C 	0.00730 0.47280 0.81890 0.13400
C 	C 	0.09230 0.47100 0.40620 -0.18900
C 	C 	0.76540 0.68190 0.00630 -0.06500
C 	C 	0.50920 0.20500 0.54670 -0.07400
C 	C 	0.21010 0.64880 0.56060 -0.06800
C 	C 	0.54410 0.41480 0.56740 0.23800
C 	C 	0.27190 0.64320 0.58190 0.02400
C 	C 	0.61490 0.18390 0.58360 -0.09700
C 	C 	0.91010 0.06550 0.84440 -0.02800
C 	C 	0.90030 0.86940 0.34280 0.14700
C 	C 	0.91000 0.25210 0.83350 0.23600
C 	C 	0.08180 0.30120 0.91840 0.22100
C 	C 	0.00970 0.40510 0.81780 -0.24300
C 	C 	0.10410 0.80600 0.91090 0.02800
C 	C 	0.61060 0.20240 0.07880 -0.07100
C 	C 	0.77190 0.64320 0.91810 0.02500
C 	C 	0.99360 0.09040 0.32160 0.24600
C 	C 	0.77010 0.70500 0.41700 0.01000
C 	C 	0.49120 0.82740 0.70140 -0.21400
C 	C 	0.16520 0.61980 0.76190 0.01200
C 	C 	0.60140 0.45020 0.58130 -0.24700
C 	C 	0.04140 0.43740 0.42630 0.18100
C 	C 	0.35550 0.61430 0.74820 0.32500
C 	C 	0.27010 0.70500 0.08300 0.01200
C 	C 	0.37630 0.82140 0.67600 -0.15900
C 	C 	0.10420 0.82280 0.42080 0.13000
C 	C 	0.72850 0.61680 0.75770 -0.04600
C 	C 	0.53100 0.11360 0.06350 -0.07800
C 	C 	0.82790 0.68440 0.48570 0.01200
C 	C 	0.39380 0.39980 0.66090 -0.25100
C 	C 	0.05120 0.90830 0.91780 0.18000
C 	C 	0.57370 0.11670 0.60100 0.05200
C 	C 	0.15930 0.63200 0.80650 -0.10400
C 	C 	0.07370 0.11670 0.89900 0.04200
C 	C 	0.39080 0.82040 0.65880 0.09100
C 	C 	0.99390 0.80710 0.92900 0.00500
C 	C 	0.47810 0.97500 0.69380 0.23700
C 	C 	0.99530 0.89400 0.44650 -0.25400
C 	C 	0.49390 0.80710 0.57100 -0.01800
C 	C 	0.95010 0.36760 0.82770 0.24400
C 	C 	0.55760 0.22920 0.57690 -0.04500
C 	C 	0.70910 0.69950 0.43980 -0.05100
C 	C 	0.38610 0.75340 0.67660 -0.06700
C 	C 	0.79170 0.73010 0.22590 -0.03800
C 	C 	0.98130 0.15980 0.44140 0.00900
C 	C 	0.66520 0.61980 0.73810 0.01200
C 	C 	0.39780 0.70070 0.08200 0.39700
C 	C 	0.67170 0.74250 0.23360 0.02000
C 	C 	0.89780 0.70070 0.41800 0.39600
C 	C 	0.63900 0.67840 0.50680 0.30600
C 	C 	0.73600 0.74540 0.25170 -0.05400
C 	C 	0.51250 0.02240 0.56820 0.23300
C 	C 	0.99910 0.58960 0.29540 0.13300
C 	C 	0.50320 0.87370 0.55080 -0.07600
C 	C 	0.43070 0.18110 0.67520 -0.04400
C 	C 	0.47270 0.16030 0.17650 -0.06400
C 	C 	0.71010 0.64880 0.93940 -0.06900
C 	C 	0.90870 0.18310 0.33200 -0.00600
C 	C 	0.09850 0.11630 0.91730 -0.06900
C 	C 	0.70690 0.66810 0.98340 -0.01900
C 	C 	0.99130 0.54080 0.44280 0.05600
C 	C 	0.16150 0.72330 0.31010 -0.11500
C 	C 	0.00920 0.20500 0.95330 -0.08500
C 	C 	0.71660 0.64060 0.66730 0.01000
C 	C 	0.90340 0.51450 0.33790 -0.23600
C 	C 	0.82740 0.67710 0.98570 0.02500
C 	C 	0.49780 0.20740 0.57060 0.02200
C 	C 	0.50790 0.87300 0.18040 0.14900
C 	C 	0.20690 0.66810 0.51660 -0.02000
C 	C 	0.33070 0.69750 0.05960 -0.10500
C 	C 	0.32790 0.68440 0.01430 0.01400
C 	C 	0.59230 0.47100 0.09380 -0.18900
C 	C 	0.26540 0.68190 0.49370 -0.06300
C 	C 	0.95180 0.97560 0.33100 0.24300
C 	C 	0.99120 0.82740 0.79860 -0.21600
C 	C 	0.00310 0.09300 0.80430 -0.02200
C 	C 	0.55120 0.90830 0.58220 0.18600
C 	C 	0.00890 0.94180 0.31940 -0.25200
C 	C 	0.55290 0.92780 0.06520 0.23900
C 	C 	0.99420 0.09470 0.79000 -0.01500
C 	C 	0.50500 0.52160 0.20490 -0.23500
C 	C 	0.49500 0.22720 0.06320 -0.07400
C 	C 	0.59480 0.13510 0.07430 0.01100
C 	C 	0.58920 0.18430 0.60380 0.04400
C 	C 	0.39620 0.93600 0.15630 -0.25100
C 	C 	0.40140 0.58410 0.16430 0.12700
C 	C 	0.17170 0.74250 0.26640 0.02000
C 	C 	0.21660 0.64060 0.83270 0.01000
C 	C 	0.40870 0.18310 0.16800 -0.00600
C 	C 	0.70660 0.68700 0.48370 -0.03700
C 	C 	0.59820 0.86940 0.60500 -0.08700
C 	C 	0.89080 0.06590 0.82680 -0.00800
C 	C 	0.02960 0.09250 0.92760 -0.07500
C 	C 	0.89550 0.13160 0.85050 -0.04100
C 	C 	0.40010 0.64850 0.57890 0.40000
C 	C 	0.48720 0.16080 0.68910 -0.04200
C 	C 	0.42280 0.36820 0.16580 0.23100
C 	C 	0.89380 0.39980 0.83910 -0.25200
C 	C 	0.48280 0.16070 0.70490 0.00400
C 	C 	0.08920 0.18430 0.89620 0.02900
C 	C 	0.23600 0.74540 0.24830 -0.05300
C 	C 	0.78200 0.71240 0.18190 -0.06000
C 	C 	0.65930 0.63200 0.69350 -0.10400
C 	C 	0.00500 0.52160 0.29510 -0.23300
C 	C 	0.51180 0.04230 0.06000 0.25200
C 	C 	0.39080 0.06590 0.67320 -0.00400
C 	C 	0.58960 0.63450 0.67330 0.40200
C 	C 	0.50890 0.94180 0.18060 -0.25600
C 	C 	0.95610 0.04640 0.81100 -0.04500
C 	C 	0.48130 0.15980 0.05860 0.00800
C 	C 	0.88610 0.75340 0.82340 -0.07400
C 	C 	0.09820 0.86940 0.89500 -0.08300
C 	C 	0.28700 0.62250 0.76850 -0.04200
C 	C 	0.43680 0.86030 0.68500 0.17300
C 	C 	0.04410 0.41480 0.93260 0.23700
C 	C 	0.89270 0.75260 0.83890 0.12200
C 	C 	0.13900 0.67840 0.99320 0.30500
C 	C 	0.50850 0.27600 0.18080 -0.05300
C 	C 	0.99230 0.75940 0.80040 0.12900
C 	C 	0.59100 0.71510 0.17320 0.41000
C 	C 	0.48420 0.14150 0.56900 0.02700
C 	C 	0.60420 0.82280 0.07920 0.12900
C 	C 	0.11060 0.20240 0.42120 -0.07100
C 	C 	0.78700 0.62250 0.73150 -0.04200
C 	C 	0.05760 0.22920 0.92310 -0.04500
C 	C 	0.59290 0.80100 0.60230 0.03100
C 	C 	0.28200 0.71240 0.31810 -0.06000
C 	C 	0.50310 0.09300 0.69570 -0.02900
C 	C 	0.00850 0.27600 0.31920 -0.05300
C 	C 	0.50530 0.80580 0.55220 0.07800
C 	C 	0.49530 0.89400 0.05350 -0.25200
C 	C 	0.20910 0.69950 0.06020 -0.05300
C 	C 	0.93680 0.86030 0.81500 0.17200
C 	C 	0.92280 0.36820 0.33420 0.23100
C 	C 	0.97270 0.16030 0.32350 -0.06300
C 	C 	0.89620 0.93600 0.34370 -0.24900
C 	C 	0.45180 0.97560 0.16900 0.24700
C 	C 	0.49130 0.54080 0.05720 0.05700
C 	C 	0.78000 0.63430 0.68640 -0.04900
C 	C 	0.90140 0.58410 0.33570 0.12700
C 	C 	0.99500 0.22720 0.43680 -0.07200
C 	C 	0.13820 0.66950 0.49350 0.29900
C 	C 	0.02330 0.20890 0.31690 -0.00800
C 	C 	0.49550 0.82580 0.05460 0.14700
C 	C 	0.60390 0.86970 0.58930 -0.07700
C 	C 	0.32740 0.67710 0.51430 0.02300
C 	C 	0.49140 0.51970 0.55490 0.13700
C 	C 	0.99560 0.14120 0.95740 -0.07800
C 	C 	0.49440 0.87590 0.57390 -0.10900
C 	C 	0.93070 0.18110 0.82480 -0.04700
C 	C 	0.29170 0.73010 0.27410 -0.03800
C 	C 	0.01250 0.02240 0.93180 0.23000
C 	C 	0.83190 0.65640 0.94160 -0.11400
C 	C 	0.60880 0.89000 0.07860 -0.24100
C 	C 	0.10390 0.86970 0.91070 -0.07900
C 	C 	0.10880 0.89000 0.42140 -0.24100
C 	C 	0.87710 0.13220 0.83170 -0.00600
C 	C 	0.10070 0.51770 0.91890 0.13300
C 	C 	0.08960 0.63450 0.82670 0.40200
C 	C 	0.45610 0.04640 0.68900 -0.04900
C 	C 	0.22850 0.61680 0.74230 -0.04600
C 	C 	0.97810 0.97500 0.80620 0.23300
C 	C 	0.89430 0.25120 0.33560 -0.05400
C 	C 	0.39570 0.47010 0.66050 0.13200
C 	C 	0.00790 0.87300 0.31960 0.14900
C 	C 	0.98720 0.16080 0.81090 -0.03700
C 	C 	0.39270 0.75260 0.66110 0.11500
C 	C 	0.63820 0.66950 0.00650 0.29800
C 	C 	0.49910 0.58960 0.20460 0.13500
C 	C 	0.49230 0.75940 0.69960 0.13000
C 	C 	0.89080 0.82040 0.84120 0.10300
C 	C 	0.21740 0.70790 0.33600 0.02000
C 	C 	0.99140 0.51970 0.94510 0.13700
C 	C 	0.41000 0.25210 0.66650 0.23500
C 	C 	0.59850 0.11630 0.58270 -0.08000
C 	C 	0.09480 0.13510 0.42570 0.01000
C 	C 	0.55660 0.24980 0.07330 0.00200
C 	C 	0.36290 0.73090 0.25470 0.33200
C 	C 	0.71740 0.70790 0.16400 0.02000
C 	C 	0.99550 0.82580 0.44540 0.14700
C 	C 	0.98280 0.16070 0.79510 0.00500
C 	C 	0.98420 0.14150 0.93100 0.05300
C 	C 	0.28000 0.63430 0.81360 -0.04900
N 	N 	0.04590 0.55330 0.93170 -0.26200
N 	N 	0.44370 0.04420 0.17060 -0.26400
N 	N 	0.43100 0.92890 0.68370 -0.25200
N 	N 	0.95770 0.29860 0.82340 -0.27100
N 	N 	0.54240 0.57570 0.07700 -0.09500
N 	N 	0.45060 0.62140 0.18260 -0.26000
N 	N 	0.03170 0.36660 0.43090 -0.14600
N 	N 	0.54750 0.78920 0.06660 -0.25700
N 	N 	0.45520 0.83600 0.17000 -0.25300
N 	N 	0.94500 0.72140 0.81790 -0.23700
N 	N 	0.04240 0.57570 0.42300 -0.09500
N 	N 	0.95100 0.50630 0.82930 -0.25500
N 	N 	0.93100 0.92890 0.81630 -0.25100
N 	N 	0.53420 0.34700 0.56630 -0.26600
N 	N 	0.04690 0.76850 0.92180 -0.22300
N 	N 	0.55750 0.99770 0.06690 -0.27000
N 	N 	0.05470 0.97570 0.91730 -0.25700
N 	N 	0.45770 0.29860 0.67660 -0.27100
N 	N 	0.05750 0.99770 0.43310 -0.26700
N 	N 	0.44500 0.72140 0.68210 -0.23700
N 	N 	0.45100 0.50630 0.67070 -0.25500
N 	N 	0.03420 0.34700 0.93370 -0.26700
N 	N 	0.94370 0.04420 0.32940 -0.26300
N 	N 	0.53170 0.36660 0.06910 -0.14600
N 	N 	0.96740 0.41380 0.31680 -0.26700
N 	N 	0.95060 0.62140 0.31740 -0.26000
N 	N 	0.95520 0.83600 0.33000 -0.25400
N 	N 	0.04750 0.78920 0.43340 -0.25600
N 	N 	0.54690 0.76850 0.57820 -0.22200
N 	N 	0.46740 0.41380 0.18320 -0.26700
N 	N 	0.55470 0.97570 0.58270 -0.25900
N 	N 	0.54590 0.55330 0.56830 -0.26200
O 	O 	0.63600 0.31660 0.59690 -0.25200
O 	O 	0.40650 0.61220 0.77200 -0.31800
O 	O 	0.53430 0.96130 0.70590 -0.24300
O 	O 	0.89850 0.72420 0.37910 -0.47400
O 	O 	0.35560 0.60880 0.70670 -0.43100
O 	O 	0.95050 0.66690 0.94310 -0.47900
O 	O 	0.13320 0.33530 0.40170 -0.24000
O 	O 	0.04450 0.73420 0.30170 -0.47400
O 	O 	0.54060 0.61420 0.69720 -0.47300
O 	O 	0.37050 0.38130 0.14790 -0.25200
O 	O 	0.36480 0.74070 0.21370 -0.44200
O 	O 	0.64250 0.66680 0.54880 -0.41800
O 	O 	0.05120 0.07560 0.31330 -0.24300
O 	O 	0.14250 0.66680 0.95120 -0.41700
O 	O 	0.35580 0.26490 0.65130 -0.25700
O 	O 	0.44850 0.68130 0.06070 -0.46200
O 	O 	0.04060 0.61420 0.80280 -0.47300
O 	O 	0.64120 0.68130 0.04750 -0.41000
O 	O 	0.90210 0.62030 0.88350 -0.48200
O 	O 	0.58570 0.68110 0.48700 -0.34100
O 	O 	0.87050 0.38130 0.35210 -0.25100
O 	O 	0.95690 0.00720 0.94810 -0.23700
O 	O 	0.08590 0.65840 0.51460 -0.30100
O 	O 	0.08570 0.68110 0.01300 -0.34000
O 	O 	0.90650 0.61220 0.72800 -0.31800
O 	O 	0.45690 0.00720 0.55190 -0.24000
O 	O 	0.94850 0.68130 0.43930 -0.46200
O 	O 	0.85560 0.60880 0.79330 -0.43100
O 	O 	0.45230 0.02600 0.05200 -0.24000
O 	O 	0.91180 0.71970 0.22140 -0.31900
O 	O 	0.41180 0.71970 0.27860 -0.31800
O 	O 	0.08330 0.68900 0.36370 -0.48800
O 	O 	0.85580 0.26490 0.84870 -0.25800
O 	O 	0.58400 0.65810 0.63560 -0.49800
O 	O 	0.63320 0.33530 0.09830 -0.24000
O 	O 	0.40210 0.62030 0.61650 -0.48200
O 	O 	0.55120 0.07560 0.18670 -0.24200
O 	O 	0.54450 0.73420 0.19830 -0.47500
O 	O 	0.08400 0.65810 0.86440 -0.49900
O 	O 	0.03430 0.96130 0.79410 -0.24100
O 	O 	0.39850 0.72420 0.12090 -0.47400
O 	O 	0.86480 0.74070 0.28630 -0.44200
O 	O 	0.58590 0.65840 0.98540 -0.30100
O 	O 	0.13600 0.31660 0.90310 -0.25200
O 	O 	0.58330 0.68900 0.13630 -0.48800
O 	O 	0.45050 0.66690 0.55690 -0.47900
O 	O 	0.14120 0.68130 0.45250 -0.41000
O 	O 	0.95230 0.02600 0.44800 -0.23700
