data_crystal

_cell_length_a 48.25000
_cell_length_b 48.65000
_cell_length_c 35.65150
_cell_angle_alpha 90.00000
_cell_angle_beta  131.38600
_cell_angle_gamma 90.00000

_symmetry_space_group_name_	'P 1'
_symmetry_space_group_name_H-M	'P 1'

loop_
_symmetry_equiv_pos_as_xyz
  x,y,z

loop_
_atom_site_label
_atom_site_type_symbol
_atom_site_fract_x
_atom_site_fract_y
_atom_site_fract_z
_atom_site_charge
S 	S 	0.13134 0.87977 0.77844 -0.60200
S 	S 	0.25325 0.03770 0.65911 -0.49900
S 	S 	0.25273 0.97003 0.87447 -0.59700
S 	S 	0.19300 0.87505 0.93493 -0.54300
S 	S 	0.14952 0.96416 0.75905 -0.51600
S 	S 	0.08463 0.85390 0.53938 -0.54300
S 	S 	0.38351 0.86458 0.76556 -0.59300
S 	S 	0.24252 0.98579 0.55623 -0.50700
S 	S 	0.22549 0.77226 0.62621 -0.58600
S 	S 	0.15338 0.83694 0.52395 -0.53900
S 	S 	0.44708 0.79552 0.84611 -0.50100
S 	S 	0.31555 0.92687 0.65928 -0.52500
S 	S 	0.19956 0.93229 0.02122 -0.47600
S 	S 	0.33668 0.78357 0.72912 -0.52700
S 	S 	0.55256 0.80385 0.98936 -0.46600
S 	S 	0.19788 0.80793 0.86501 -0.52500
S 	S 	0.11455 0.90844 0.65091 -0.85700
S 	S 	0.11943 0.75586 0.51145 -0.50500
S 	S 	0.37510 0.81696 0.96864 -0.51800
S 	S 	0.27116 0.84874 0.63373 -0.86000
S 	S 	0.48323 0.86465 0.93390 -0.56700
S 	S 	0.16478 0.98441 0.66260 -0.59100
S 	S 	0.19785 0.91172 0.54206 -0.55200
S 	S 	0.15450 0.94569 0.87275 -0.51600
S 	S 	0.40960 0.92343 0.85230 -0.50400
S 	S 	0.15146 0.00504 0.53490 -0.57500
S 	S 	0.25367 0.00707 0.77174 -0.51900
S 	S 	0.11900 0.92991 0.54014 -0.52500
S 	S 	0.30255 0.86862 0.86275 -1.14300
S 	S 	0.15877 0.80083 0.63724 -1.10100
S 	S 	0.22812 0.92745 0.76133 -1.16100
S 	S 	0.13116 0.71912 0.62689 -0.49500
S 	S 	0.26942 0.81887 0.74461 -1.15500
S 	S 	0.30529 0.89920 0.75571 -1.14300
S 	S 	0.19291 0.84729 0.75403 -1.15300
S 	S 	0.19376 0.87776 0.64428 -1.15400
S 	S 	0.37681 0.83997 0.85365 -1.09000
S 	S 	0.23035 0.95555 0.65384 -1.08800
S 	S 	0.22471 0.89979 0.86533 -1.08900
S 	S 	0.41122 0.88534 0.96009 -0.57500
S 	S 	0.26974 0.78367 0.85441 -0.84500
S 	S 	0.24240 0.74098 0.73086 -0.52300
S 	S 	0.34054 0.91069 0.98218 -0.52200
S 	S 	0.04903 0.77794 0.53616 -0.51000
S 	S 	0.45978 0.79247 0.97159 -0.52200
S 	S 	0.28742 0.84157 0.95471 -0.53700
S 	S 	0.15731 0.76940 0.73381 -0.54900
S 	S 	0.32787 0.97836 0.75387 -0.56100
S 	S 	0.26926 0.94261 0.99627 -0.51600
S 	S 	0.08554 0.82865 0.65561 -0.52400
S 	S 	0.35249 0.76746 0.84988 -0.57400
S 	S 	0.33957 0.95137 0.87649 -0.86100
Cd	Cd	0.31145 0.85740 0.80238 1.12400
Cd	Cd	0.23719 0.88548 0.80932 1.12400
Cd	Cd	0.23929 0.91426 0.70402 1.12500
Cd	Cd	0.20517 0.83722 0.69687 1.12400
Cd	Cd	0.34817 0.90710 0.91723 1.14300
Cd	Cd	0.28342 0.77788 0.79926 1.14100
Cd	Cd	0.12939 0.86920 0.70573 1.14200
Cd	Cd	0.12778 0.89305 0.59803 1.14200
Cd	Cd	0.20873 0.86749 0.58940 1.14200
Cd	Cd	0.17749 0.75645 0.68516 1.14800
Cd	Cd	0.30476 0.82509 0.90434 1.14000
Cd	Cd	0.20630 0.80279 0.80145 1.13900
Cd	Cd	0.27352 0.96341 0.82476 1.14200
Cd	Cd	0.09403 0.81602 0.59551 1.14900
Cd	Cd	0.39159 0.80502 0.91689 1.15000
Cd	Cd	0.16221 0.79409 0.57017 1.14900
Cd	Cd	0.42036 0.88034 0.89696 1.15400
Cd	Cd	0.34462 0.93924 0.81358 1.14100
Cd	Cd	0.31664 0.88263 0.69899 1.14300
Cd	Cd	0.21822 0.85614 0.89683 1.15400
Cd	Cd	0.16205 0.94385 0.70561 1.14300
Cd	Cd	0.48404 0.81369 0.93375 1.16200
Cd	Cd	0.27674 0.92995 0.93433 1.15000
Cd	Cd	0.08616 0.73971 0.53964 1.15900
Cd	Cd	0.20634 0.92533 0.95756 1.16200
Cd	Cd	0.38323 0.81711 0.79607 1.14900
Cd	Cd	0.16276 0.96818 0.59316 1.15300
Cd	Cd	0.25008 0.94378 0.60517 1.15000
Cd	Cd	0.26327 0.99642 0.71165 1.14900
Cd	Cd	0.27512 0.80908 0.68007 1.14100
Cd	Cd	0.16459 0.92587 0.81646 1.15100
Cd	Cd	0.21257 0.97644 0.06809 1.16200
C 	C 	0.08311 0.77288 0.45541 0.04600
C 	C 	0.06984 0.76154 0.41039 -0.02600
C 	C 	0.04126 0.77434 0.36552 0.01300
C 	C 	0.02594 0.79849 0.36567 -0.01600
C 	C 	0.03920 0.80983 0.41069 0.03900
C 	C 	0.06778 0.79702 0.45556 -0.12300
C 	C 	0.03357 0.76595 0.56691 0.04600
C 	C 	0.99501 0.76513 0.53794 -0.02200
C 	C 	0.98123 0.75715 0.55999 0.00800
C 	C 	0.00542 0.75080 0.61224 -0.01100
C 	C 	0.04414 0.75214 0.64064 0.03600
C 	C 	0.05796 0.76015 0.61809 -0.10400
C 	C 	0.15333 0.69407 0.61783 0.04800
C 	C 	0.14237 0.66700 0.61300 -0.02500
C 	C 	0.15712 0.64620 0.60390 0.01200
C 	C 	0.18520 0.65392 0.60455 -0.01300
C 	C 	0.19570 0.68079 0.60694 0.03000
C 	C 	0.18008 0.70161 0.61559 -0.09700
C 	C 	0.15864 0.73946 0.76286 0.08000
C 	C 	0.13650 0.71760 0.73353 -0.05400
C 	C 	0.13555 0.69305 0.75407 0.02000
C 	C 	0.15811 0.69074 0.80516 -0.01600
C 	C 	0.18070 0.71343 0.83733 0.02600
C 	C 	0.18019 0.73729 0.81466 -0.08100
C 	C 	0.24103 0.70997 0.75758 0.04900
C 	C 	0.24701 0.68537 0.74265 -0.01700
C 	C 	0.24278 0.65953 0.76328 0.00900
C 	C 	0.23674 0.66288 0.79563 -0.01500
C 	C 	0.23311 0.68608 0.81016 0.02600
C 	C 	0.23539 0.71152 0.79035 -0.11200
C 	C 	0.23218 0.75179 0.59433 0.07600
C 	C 	0.20627 0.74328 0.54654 -0.07500
C 	C 	0.21319 0.72862 0.51802 0.00900
C 	C 	0.15987 0.82505 0.48484 0.07200
C 	C 	0.19895 0.82457 0.50255 -0.10300
C 	C 	0.20185 0.81657 0.46554 0.02600
C 	C 	0.17244 0.81026 0.41655 -0.02100
C 	C 	0.14388 0.80729 0.40393 0.02000
C 	C 	0.13742 0.81370 0.44496 -0.04800
C 	C 	0.03552 0.86425 0.50290 0.07000
C 	C 	0.00982 0.84783 0.48283 -0.07400
C 	C 	0.97186 0.85648 0.44800 0.02600
C 	C 	0.95971 0.88085 0.44880 -0.01600
C 	C 	0.99052 0.90172 0.47895 0.01900
C 	C 	0.03002 0.89371 0.50512 -0.07100
C 	C 	0.15910 0.97879 0.87293 0.09400
C 	C 	0.13308 0.99595 0.82755 -0.04300
C 	C 	0.14014 0.02697 0.82465 0.01900
C 	C 	0.16969 0.03666 0.87288 -0.01400
C 	C 	0.19524 0.02243 0.91625 0.02700
C 	C 	0.19065 0.99180 0.91378 -0.12500
C 	C 	0.15538 0.92188 0.98798 0.05400
C 	C 	0.15588 0.89156 0.00704 -0.01900
C 	C 	0.11677 0.87596 0.96440 0.00200
C 	C 	0.08632 0.90013 0.92989 -0.01100
C 	C 	0.08891 0.92405 0.91679 0.01900
C 	C 	0.12736 0.93576 0.94629 -0.08000
C 	C 	0.13521 0.01088 0.65388 0.07700
C 	C 	0.10551 0.01699 0.60419 -0.06700
C 	C 	0.08222 0.04093 0.60110 0.01200
C 	C 	0.09822 0.05148 0.65038 -0.00700
C 	C 	0.13231 0.04960 0.71149 0.01100
C 	C 	0.15397 0.02414 0.70816 -0.03100
C 	C 	0.08776 0.87976 0.75840 0.10000
C 	C 	0.05713 0.87111 0.71270 -0.07700
C 	C 	0.01909 0.86875 0.69801 0.02800
C 	C 	0.01026 0.88848 0.70846 -0.02500
C 	C 	0.03346 0.90980 0.73555 0.02900
C 	C 	0.07086 0.90819 0.75873 -0.07600
C 	C 	0.15155 0.80011 0.83463 0.08300
C 	C 	0.12317 0.80390 0.78532 -0.10400
C 	C 	0.08709 0.79413 0.76168 0.03500
C 	C 	0.08170 0.78206 0.79060 -0.01800
C 	C 	0.10807 0.77811 0.83912 0.01500
C 	C 	0.14626 0.78740 0.86571 -0.02900
C 	C 	0.36181 0.73490 0.87843 0.08500
C 	C 	0.33279 0.71755 0.86473 -0.08800
C 	C 	0.34084 0.69192 0.88829 0.02800
C 	C 	0.37831 0.68203 0.92206 -0.01900
C 	C 	0.40484 0.69992 0.93541 0.02400
C 	C 	0.39850 0.72583 0.91479 -0.06700
C 	C 	0.34651 0.78399 0.68890 0.06300
C 	C 	0.34395 0.80646 0.66628 -0.12900
C 	C 	0.35457 0.80655 0.63519 0.02500
C 	C 	0.36337 0.78273 0.62677 -0.01700
C 	C 	0.36509 0.76066 0.64714 0.01100
C 	C 	0.35138 0.75949 0.67599 -0.02700
C 	C 	0.20548 0.90105 0.50026 0.07200
C 	C 	0.21411 0.87092 0.50025 -0.08300
C 	C 	0.21808 0.86197 0.46356 0.02300
C 	C 	0.23326 0.88320 0.44636 -0.01300
C 	C 	0.23580 0.90875 0.46637 0.02500
C 	C 	0.22515 0.91620 0.49424 -0.08200
C 	C 	0.07483 0.94709 0.51539 0.03300
C 	C 	0.06160 0.95160 0.46785 -0.00800
C 	C 	0.02535 0.96176 0.43047 0.00500
C 	C 	0.01154 0.96632 0.45230 -0.00100
C 	C 	0.07074 0.95470 0.54763 -0.10800
C 	C 	0.12449 0.99521 0.47459 0.09100
C 	C 	0.08709 0.00679 0.43941 -0.02700
C 	C 	0.07391 0.99349 0.38056 0.00800
C 	C 	0.09148 0.97147 0.38482 -0.01700
C 	C 	0.12383 0.96177 0.42125 0.03800
C 	C 	0.14011 0.97279 0.46613 -0.10800
C 	C 	0.11835 0.02555 0.51976 0.11900
C 	C 	0.08295 0.01651 0.49107 -0.06100
C 	C 	0.05251 0.04233 0.47683 0.02100
C 	C 	0.07002 0.06032 0.50154 -0.02300
C 	C 	0.10461 0.07134 0.53460 0.03300
C 	C 	0.12695 0.05330 0.53739 -0.08700
C 	C 	0.09994 0.96505 0.71358 0.03200
C 	C 	0.07710 0.99328 0.68182 -0.01800
C 	C 	0.04126 0.99099 0.67015 0.01000
C 	C 	0.02106 0.96647 0.64372 -0.01300
C 	C 	0.03507 0.94331 0.66613 0.02300
C 	C 	0.07768 0.94135 0.70327 -0.10500
C 	C 	0.20073 0.85560 0.98049 0.09700
C 	C 	0.17569 0.83428 0.96558 -0.04200
C 	C 	0.18575 0.81670 0.00854 0.01200
C 	C 	0.21424 0.82401 0.05661 -0.01700
C 	C 	0.23752 0.84692 0.07043 0.02500
C 	C 	0.23066 0.86229 0.03129 -0.08500
C 	C 	0.28684 0.81161 0.98304 0.06900
C 	C 	0.27251 0.81518 0.00712 -0.06900
C 	C 	0.27245 0.79185 0.03210 0.02000
C 	C 	0.28853 0.76787 0.03590 -0.01500
C 	C 	0.30264 0.76432 0.01151 0.02700
C 	C 	0.30125 0.78686 0.98516 -0.08400
C 	C 	0.38374 0.78485 0.99920 0.05400
C 	C 	0.40946 0.78478 0.05157 -0.01900
C 	C 	0.41534 0.75871 0.07613 0.01100
C 	C 	0.39840 0.73596 0.04951 -0.01500
C 	C 	0.37386 0.73565 0.99784 0.02700
C 	C 	0.36615 0.76107 0.97279 -0.11200
C 	C 	0.44360 0.75868 0.85310 0.05000
C 	C 	0.46847 0.74554 0.89606 -0.10500
C 	C 	0.46634 0.71646 0.89954 0.02400
C 	C 	0.44056 0.70194 0.85927 -0.01500
C 	C 	0.41831 0.71587 0.81364 0.01700
C 	C 	0.41989 0.74522 0.80768 -0.04000
C 	C 	0.40803 0.86489 0.74500 0.13700
C 	C 	0.43684 0.84942 0.76749 -0.09200
C 	C 	0.45332 0.84168 0.73716 0.01700
C 	C 	0.44751 0.86537 0.71206 -0.02100
C 	C 	0.42216 0.88232 0.69674 0.03800
C 	C 	0.40014 0.87858 0.71016 -0.09900
C 	C 	0.32259 0.91548 0.61770 0.05200
C 	C 	0.31193 0.89104 0.59476 -0.09400
C 	C 	0.32038 0.88181 0.56276 0.02000
C 	C 	0.34009 0.90227 0.56138 -0.01200
C 	C 	0.35315 0.92524 0.58617 0.00900
C 	C 	0.34515 0.93325 0.61684 -0.01900
C 	C 	0.28952 0.99520 0.59062 0.04500
C 	C 	0.30159 0.99732 0.56373 -0.02400
C 	C 	0.33752 0.00539 0.58872 0.01100
C 	C 	0.36213 0.00922 0.63918 -0.01200
C 	C 	0.35132 0.00719 0.66738 0.03400
C 	C 	0.31390 0.00059 0.64191 -0.10500
C 	C 	0.22357 0.06166 0.65430 0.05300
C 	C 	0.22411 0.08834 0.63589 -0.03700
C 	C 	0.20101 0.10928 0.63244 0.01300
C 	C 	0.18011 0.10417 0.64583 -0.01300
C 	C 	0.17891 0.07709 0.66123 0.02600
C 	C 	0.20176 0.05610 0.66322 -0.09600
C 	C 	0.28592 0.03220 0.80885 0.03200
C 	C 	0.27264 0.06001 0.79387 -0.02000
C 	C 	0.29507 0.08216 0.82787 0.00700
C 	C 	0.33262 0.07335 0.88532 -0.01600
C 	C 	0.33696 0.04647 0.89735 0.03000
C 	C 	0.31651 0.02615 0.87226 -0.09200
C 	C 	0.26942 0.00172 0.90262 0.11500
C 	C 	0.24232 0.02081 0.85812 -0.03900
C 	C 	0.30138 0.05130 0.95320 -0.01700
C 	C 	0.30318 0.03476 0.97246 0.02900
C 	C 	0.29236 0.00456 0.94621 -0.11000
C 	C 	0.29574 0.91999 0.04852 0.04900
C 	C 	0.30550 0.93007 0.09299 -0.05000
C 	C 	0.32356 0.91310 0.13523 0.01000
C 	C 	0.33897 0.88708 0.13487 -0.01400
C 	C 	0.32751 0.87732 0.08918 0.03300
C 	C 	0.30595 0.89383 0.04697 -0.10800
C 	C 	0.36768 0.93863 0.02425 0.05700
C 	C 	0.37033 0.96280 0.00832 -0.10600
C 	C 	0.39255 0.98506 0.04266 0.02200
C 	C 	0.41158 0.97748 0.09441 -0.01400
C 	C 	0.40934 0.95440 0.10928 0.01300
C 	C 	0.38586 0.93387 0.07575 -0.02100
C 	C 	0.44299 0.90775 0.00827 0.11700
C 	C 	0.43719 0.92668 0.02227 -0.12600
C 	C 	0.46412 0.94299 0.06703 0.04100
C 	C 	0.49517 0.93410 0.09819 -0.02900
C 	C 	0.50571 0.91080 0.09985 0.01800
C 	C 	0.47653 0.89254 0.04182 -0.05700
C 	C 	0.48806 0.80895 0.03128 0.06500
C 	C 	0.47216 0.82339 0.04583 -0.07900
C 	C 	0.49750 0.83522 0.09475 0.03000
C 	C 	0.53461 0.83335 0.12535 -0.02100
C 	C 	0.54945 0.81813 0.10989 0.02400
C 	C 	0.52618 0.80573 0.06255 -0.09400
C 	C 	0.03258 0.86836 0.59807 -0.09900
C 	C 	0.03846 0.84150 0.61392 0.05200
C 	C 	0.01155 0.82346 0.60342 -0.02400
C 	C 	0.97466 0.83302 0.57292 0.00900
C 	C 	0.96531 0.85899 0.55141 -0.01100
C 	C 	0.99256 0.87894 0.56460 0.02000
C 	C 	0.56652 0.81145 0.95477 0.05800
C 	C 	0.60442 0.81769 0.98270 -0.04000
C 	C 	0.61987 0.82428 0.96050 0.01500
C 	C 	0.59111 0.82585 0.90507 -0.01300
C 	C 	0.55679 0.81807 0.87911 0.02100
C 	C 	0.54337 0.80971 0.90485 -0.07200
C 	C 	0.50762 0.87703 0.92362 0.12600
C 	C 	0.54836 0.87698 0.95978 -0.05500
C 	C 	0.56675 0.88641 0.94396 0.01800
C 	C 	0.54049 0.89417 0.88493 -0.02000
C 	C 	0.50125 0.88818 0.84968 0.04800
C 	C 	0.49021 0.87913 0.86683 -0.09300
C 	C 	0.35868 0.00578 0.78876 0.09000
C 	C 	0.38901 0.00350 0.83679 -0.09200
C 	C 	0.42157 0.02430 0.86425 0.02100
C 	C 	0.40882 0.04783 0.83721 -0.01900
C 	C 	0.37676 0.05200 0.78958 0.02500
C 	C 	0.35464 0.02965 0.76673 -0.07000
C 	C 	0.44320 0.94660 0.91490 -0.05400
S 	S 	0.63134 0.37977 0.77844 -0.60300
S 	S 	0.75325 0.53770 0.65911 -0.50000
S 	S 	0.75273 0.47003 0.87447 -0.59700
S 	S 	0.69300 0.37505 0.93493 -0.54200
S 	S 	0.64952 0.46416 0.75905 -0.51600
S 	S 	0.58463 0.35390 0.53938 -0.54300
S 	S 	0.88351 0.36458 0.76556 -0.59300
S 	S 	0.74252 0.48579 0.55623 -0.50700
S 	S 	0.72549 0.27226 0.62621 -0.58600
S 	S 	0.65338 0.33694 0.52395 -0.53900
S 	S 	0.94708 0.29552 0.84611 -0.50100
S 	S 	0.81555 0.42687 0.65928 -0.52500
S 	S 	0.69956 0.43229 0.02122 -0.47700
S 	S 	0.83668 0.28357 0.72912 -0.52700
S 	S 	0.05256 0.30385 0.98936 -0.46600
S 	S 	0.69788 0.30793 0.86501 -0.52500
S 	S 	0.61455 0.40844 0.65091 -0.85700
S 	S 	0.61943 0.25586 0.51145 -0.50500
S 	S 	0.87510 0.31696 0.96864 -0.51800
S 	S 	0.77116 0.34874 0.63373 -0.86000
S 	S 	0.98323 0.36465 0.93390 -0.56700
S 	S 	0.66478 0.48441 0.66260 -0.59100
S 	S 	0.69785 0.41172 0.54206 -0.55200
S 	S 	0.65450 0.44569 0.87275 -0.51600
S 	S 	0.90960 0.42343 0.85230 -0.50400
S 	S 	0.65146 0.50504 0.53490 -0.57500
S 	S 	0.75367 0.50707 0.77174 -0.51900
S 	S 	0.61900 0.42991 0.54014 -0.52500
S 	S 	0.80255 0.36862 0.86275 -1.14300
S 	S 	0.65877 0.30083 0.63724 -1.10100
S 	S 	0.72812 0.42745 0.76133 -1.16100
S 	S 	0.63116 0.21912 0.62689 -0.49500
S 	S 	0.76942 0.31887 0.74461 -1.15500
S 	S 	0.80529 0.39920 0.75571 -1.14300
S 	S 	0.69291 0.34729 0.75403 -1.15300
S 	S 	0.69376 0.37776 0.64428 -1.15400
S 	S 	0.87681 0.33997 0.85365 -1.09000
S 	S 	0.73035 0.45555 0.65384 -1.08800
S 	S 	0.72471 0.39979 0.86533 -1.08900
S 	S 	0.91122 0.38534 0.96009 -0.57500
S 	S 	0.76974 0.28367 0.85441 -0.84500
S 	S 	0.74240 0.24098 0.73086 -0.52300
S 	S 	0.84054 0.41069 0.98218 -0.52200
S 	S 	0.54903 0.27794 0.53616 -0.51000
S 	S 	0.95978 0.29247 0.97159 -0.52200
S 	S 	0.78742 0.34157 0.95471 -0.53700
S 	S 	0.65731 0.26940 0.73381 -0.54900
S 	S 	0.82787 0.47836 0.75387 -0.56100
S 	S 	0.76926 0.44261 0.99627 -0.51600
S 	S 	0.58554 0.32865 0.65561 -0.52400
S 	S 	0.85249 0.26746 0.84988 -0.57400
S 	S 	0.83957 0.45137 0.87649 -0.86100
Cd	Cd	0.81145 0.35740 0.80238 1.12400
Cd	Cd	0.73719 0.38548 0.80932 1.12400
Cd	Cd	0.73929 0.41426 0.70402 1.12500
Cd	Cd	0.70517 0.33722 0.69687 1.12400
Cd	Cd	0.84817 0.40710 0.91723 1.14300
Cd	Cd	0.78342 0.27788 0.79926 1.14100
Cd	Cd	0.62939 0.36920 0.70573 1.14200
Cd	Cd	0.62778 0.39305 0.59803 1.14200
Cd	Cd	0.70873 0.36749 0.58940 1.14200
Cd	Cd	0.67749 0.25645 0.68516 1.14800
Cd	Cd	0.80476 0.32509 0.90434 1.14000
Cd	Cd	0.70630 0.30279 0.80145 1.13900
Cd	Cd	0.77352 0.46341 0.82476 1.14200
Cd	Cd	0.59403 0.31602 0.59551 1.14900
Cd	Cd	0.89159 0.30502 0.91689 1.15000
Cd	Cd	0.66221 0.29409 0.57017 1.14900
Cd	Cd	0.92036 0.38034 0.89696 1.15400
Cd	Cd	0.84462 0.43924 0.81358 1.14100
Cd	Cd	0.81664 0.38263 0.69899 1.14300
Cd	Cd	0.71822 0.35614 0.89683 1.15400
Cd	Cd	0.66205 0.44385 0.70561 1.14300
Cd	Cd	0.98404 0.31369 0.93375 1.16200
Cd	Cd	0.77674 0.42995 0.93433 1.15000
Cd	Cd	0.58616 0.23971 0.53964 1.15900
Cd	Cd	0.70634 0.42533 0.95756 1.16200
Cd	Cd	0.88323 0.31711 0.79607 1.14900
Cd	Cd	0.66276 0.46818 0.59316 1.15300
Cd	Cd	0.75008 0.44378 0.60517 1.15000
Cd	Cd	0.76327 0.49642 0.71165 1.14900
Cd	Cd	0.77512 0.30908 0.68007 1.14100
Cd	Cd	0.66459 0.42587 0.81646 1.15100
Cd	Cd	0.71257 0.47644 0.06809 1.16200
C 	C 	0.58311 0.27288 0.45541 0.04600
C 	C 	0.56984 0.26154 0.41039 -0.02600
C 	C 	0.54126 0.27434 0.36552 0.01300
C 	C 	0.52594 0.29849 0.36567 -0.01600
C 	C 	0.53920 0.30983 0.41069 0.03900
C 	C 	0.56778 0.29702 0.45556 -0.12300
C 	C 	0.53357 0.26595 0.56691 0.04600
C 	C 	0.49501 0.26513 0.53794 -0.02200
C 	C 	0.48123 0.25715 0.55999 0.00800
C 	C 	0.50542 0.25080 0.61224 -0.01100
C 	C 	0.54414 0.25214 0.64064 0.03600
C 	C 	0.55796 0.26015 0.61809 -0.10400
C 	C 	0.65333 0.19407 0.61783 0.04800
C 	C 	0.64237 0.16700 0.61300 -0.02500
C 	C 	0.65712 0.14620 0.60390 0.01200
C 	C 	0.68520 0.15392 0.60455 -0.01300
C 	C 	0.69570 0.18079 0.60694 0.03000
C 	C 	0.68008 0.20161 0.61559 -0.09700
C 	C 	0.65864 0.23946 0.76286 0.08000
C 	C 	0.63650 0.21760 0.73353 -0.05400
C 	C 	0.63555 0.19305 0.75407 0.02000
C 	C 	0.65811 0.19074 0.80516 -0.01600
C 	C 	0.68070 0.21343 0.83733 0.02600
C 	C 	0.68019 0.23729 0.81466 -0.08100
C 	C 	0.74103 0.20997 0.75758 0.04900
C 	C 	0.74701 0.18537 0.74265 -0.01700
C 	C 	0.74278 0.15953 0.76328 0.00900
C 	C 	0.73674 0.16288 0.79563 -0.01500
C 	C 	0.73311 0.18608 0.81016 0.02600
C 	C 	0.73539 0.21152 0.79035 -0.11200
C 	C 	0.73218 0.25179 0.59433 0.07600
C 	C 	0.70627 0.24328 0.54654 -0.07500
C 	C 	0.71319 0.22862 0.51802 0.00900
C 	C 	0.65987 0.32505 0.48484 0.07200
C 	C 	0.69895 0.32457 0.50255 -0.10300
C 	C 	0.70185 0.31657 0.46554 0.02600
C 	C 	0.67244 0.31026 0.41655 -0.02100
C 	C 	0.64388 0.30729 0.40393 0.02000
C 	C 	0.63742 0.31370 0.44496 -0.04800
C 	C 	0.53552 0.36425 0.50290 0.07000
C 	C 	0.50982 0.34783 0.48283 -0.07400
C 	C 	0.47186 0.35648 0.44800 0.02600
C 	C 	0.45971 0.38085 0.44880 -0.01600
C 	C 	0.49052 0.40172 0.47895 0.01900
C 	C 	0.53002 0.39371 0.50512 -0.07100
C 	C 	0.65910 0.47879 0.87293 0.09400
C 	C 	0.63308 0.49595 0.82755 -0.04300
C 	C 	0.64014 0.52697 0.82465 0.01900
C 	C 	0.66969 0.53666 0.87288 -0.01400
C 	C 	0.69524 0.52243 0.91625 0.02700
C 	C 	0.69065 0.49180 0.91378 -0.12500
C 	C 	0.65538 0.42188 0.98798 0.05400
C 	C 	0.65588 0.39156 0.00704 -0.02000
C 	C 	0.61677 0.37596 0.96440 0.00300
C 	C 	0.58632 0.40013 0.92989 -0.01100
C 	C 	0.58891 0.42405 0.91679 0.01900
C 	C 	0.62736 0.43576 0.94629 -0.08000
C 	C 	0.63521 0.51088 0.65388 0.07700
C 	C 	0.60551 0.51699 0.60419 -0.06700
C 	C 	0.58222 0.54093 0.60110 0.01200
C 	C 	0.59822 0.55148 0.65038 -0.00700
C 	C 	0.63231 0.54960 0.71149 0.01100
C 	C 	0.65397 0.52414 0.70816 -0.03100
C 	C 	0.58776 0.37976 0.75840 0.10000
C 	C 	0.55713 0.37111 0.71270 -0.07700
C 	C 	0.51909 0.36875 0.69801 0.02800
C 	C 	0.51026 0.38848 0.70846 -0.02500
C 	C 	0.53346 0.40980 0.73555 0.02900
C 	C 	0.57086 0.40819 0.75873 -0.07600
C 	C 	0.65155 0.30011 0.83463 0.08300
C 	C 	0.62317 0.30390 0.78532 -0.10400
C 	C 	0.58709 0.29413 0.76168 0.03500
C 	C 	0.58170 0.28206 0.79060 -0.01800
C 	C 	0.60807 0.27811 0.83912 0.01500
C 	C 	0.64626 0.28740 0.86571 -0.02900
C 	C 	0.86181 0.23490 0.87843 0.08500
C 	C 	0.83279 0.21755 0.86473 -0.08800
C 	C 	0.84084 0.19192 0.88829 0.02800
C 	C 	0.87831 0.18203 0.92206 -0.01900
C 	C 	0.90484 0.19992 0.93541 0.02400
C 	C 	0.89850 0.22583 0.91479 -0.06700
C 	C 	0.84651 0.28399 0.68890 0.06300
C 	C 	0.84395 0.30646 0.66628 -0.12900
C 	C 	0.85457 0.30655 0.63519 0.02500
C 	C 	0.86337 0.28273 0.62677 -0.01700
C 	C 	0.86509 0.26066 0.64714 0.01100
C 	C 	0.85138 0.25949 0.67599 -0.02700
C 	C 	0.70548 0.40105 0.50026 0.07200
C 	C 	0.71411 0.37092 0.50025 -0.08300
C 	C 	0.71808 0.36197 0.46356 0.02300
C 	C 	0.73326 0.38320 0.44636 -0.01300
C 	C 	0.73580 0.40875 0.46637 0.02500
C 	C 	0.72515 0.41620 0.49424 -0.08200
C 	C 	0.57483 0.44709 0.51539 0.03300
C 	C 	0.56160 0.45160 0.46785 -0.00800
C 	C 	0.52535 0.46176 0.43047 0.00500
C 	C 	0.51154 0.46632 0.45230 -0.00000
C 	C 	0.57074 0.45470 0.54763 -0.10800
C 	C 	0.62449 0.49521 0.47459 0.09100
C 	C 	0.58709 0.50679 0.43941 -0.02700
C 	C 	0.57391 0.49349 0.38056 0.00800
C 	C 	0.59148 0.47147 0.38482 -0.01700
C 	C 	0.62383 0.46177 0.42125 0.03800
C 	C 	0.64011 0.47279 0.46613 -0.10800
C 	C 	0.61835 0.52555 0.51976 0.11900
C 	C 	0.58295 0.51651 0.49107 -0.06100
C 	C 	0.55251 0.54233 0.47683 0.02100
C 	C 	0.57002 0.56032 0.50154 -0.02300
C 	C 	0.60461 0.57134 0.53460 0.03300
C 	C 	0.62695 0.55330 0.53739 -0.08700
C 	C 	0.59994 0.46505 0.71358 0.03200
C 	C 	0.57710 0.49328 0.68182 -0.01800
C 	C 	0.54126 0.49099 0.67015 0.01000
C 	C 	0.52106 0.46647 0.64372 -0.01300
C 	C 	0.53507 0.44331 0.66613 0.02300
C 	C 	0.57768 0.44135 0.70327 -0.10500
C 	C 	0.70073 0.35560 0.98049 0.09700
C 	C 	0.67569 0.33428 0.96558 -0.04200
C 	C 	0.68575 0.31670 0.00854 0.01200
C 	C 	0.71424 0.32401 0.05661 -0.01600
C 	C 	0.73752 0.34692 0.07043 0.02500
C 	C 	0.73066 0.36229 0.03129 -0.08500
C 	C 	0.78684 0.31161 0.98304 0.06900
C 	C 	0.77251 0.31518 0.00712 -0.06900
C 	C 	0.77245 0.29185 0.03210 0.02000
C 	C 	0.78853 0.26787 0.03590 -0.01500
C 	C 	0.80264 0.26432 0.01151 0.02700
C 	C 	0.80125 0.28686 0.98516 -0.08300
C 	C 	0.88374 0.28485 0.99920 0.05400
C 	C 	0.90946 0.28478 0.05157 -0.01900
C 	C 	0.91534 0.25871 0.07613 0.01100
C 	C 	0.89840 0.23596 0.04951 -0.01500
C 	C 	0.87386 0.23565 0.99784 0.02700
C 	C 	0.86615 0.26107 0.97279 -0.11200
C 	C 	0.94360 0.25868 0.85310 0.05000
C 	C 	0.96847 0.24554 0.89606 -0.10600
C 	C 	0.96634 0.21646 0.89954 0.02400
C 	C 	0.94056 0.20194 0.85927 -0.01500
C 	C 	0.91831 0.21587 0.81364 0.01700
C 	C 	0.91989 0.24522 0.80768 -0.04000
C 	C 	0.90803 0.36489 0.74500 0.13700
C 	C 	0.93684 0.34942 0.76749 -0.09200
C 	C 	0.95332 0.34168 0.73716 0.01700
C 	C 	0.94751 0.36537 0.71206 -0.02100
C 	C 	0.92216 0.38232 0.69674 0.03800
C 	C 	0.90014 0.37858 0.71016 -0.09900
C 	C 	0.82259 0.41548 0.61770 0.05200
C 	C 	0.81193 0.39104 0.59476 -0.09400
C 	C 	0.82038 0.38181 0.56276 0.02000
C 	C 	0.84009 0.40227 0.56138 -0.01200
C 	C 	0.85315 0.42524 0.58617 0.00900
C 	C 	0.84515 0.43325 0.61684 -0.01900
C 	C 	0.78952 0.49520 0.59062 0.04500
C 	C 	0.80159 0.49732 0.56373 -0.02400
C 	C 	0.83752 0.50539 0.58872 0.01100
C 	C 	0.86213 0.50922 0.63918 -0.01200
C 	C 	0.85132 0.50719 0.66738 0.03400
C 	C 	0.81390 0.50059 0.64191 -0.10500
C 	C 	0.72357 0.56166 0.65430 0.05300
C 	C 	0.72411 0.58834 0.63589 -0.03700
C 	C 	0.70101 0.60928 0.63244 0.01300
C 	C 	0.68011 0.60417 0.64583 -0.01300
C 	C 	0.67891 0.57709 0.66123 0.02600
C 	C 	0.70176 0.55610 0.66322 -0.09600
C 	C 	0.78592 0.53220 0.80885 0.03200
C 	C 	0.77264 0.56001 0.79387 -0.02000
C 	C 	0.79507 0.58216 0.82787 0.00700
C 	C 	0.83262 0.57335 0.88532 -0.01600
C 	C 	0.83696 0.54647 0.89735 0.03000
C 	C 	0.81651 0.52615 0.87226 -0.09200
C 	C 	0.76942 0.50172 0.90262 0.11500
C 	C 	0.74232 0.52081 0.85812 -0.03900
C 	C 	0.80138 0.55130 0.95320 -0.01700
C 	C 	0.80318 0.53476 0.97246 0.02900
C 	C 	0.79236 0.50456 0.94621 -0.11000
C 	C 	0.79574 0.41999 0.04852 0.04900
C 	C 	0.80550 0.43007 0.09299 -0.05000
C 	C 	0.82356 0.41310 0.13523 0.01000
C 	C 	0.83897 0.38708 0.13487 -0.01400
C 	C 	0.82751 0.37732 0.08918 0.03300
C 	C 	0.80595 0.39383 0.04697 -0.10800
C 	C 	0.86768 0.43863 0.02425 0.05700
C 	C 	0.87033 0.46280 0.00832 -0.10600
C 	C 	0.89255 0.48506 0.04266 0.02200
C 	C 	0.91158 0.47748 0.09441 -0.01400
C 	C 	0.90934 0.45440 0.10928 0.01300
C 	C 	0.88586 0.43387 0.07575 -0.02100
C 	C 	0.94299 0.40775 0.00827 0.11700
C 	C 	0.93719 0.42668 0.02227 -0.12600
C 	C 	0.96412 0.44299 0.06703 0.04100
C 	C 	0.99517 0.43410 0.09819 -0.02900
C 	C 	0.00571 0.41080 0.09985 0.01800
C 	C 	0.97653 0.39254 0.04182 -0.05700
C 	C 	0.98806 0.30895 0.03128 0.06400
C 	C 	0.97216 0.32339 0.04583 -0.07900
C 	C 	0.99750 0.33522 0.09475 0.03000
C 	C 	0.03461 0.33335 0.12535 -0.02100
C 	C 	0.04945 0.31813 0.10989 0.02400
C 	C 	0.02618 0.30573 0.06255 -0.09400
C 	C 	0.53258 0.36836 0.59807 -0.09900
C 	C 	0.53846 0.34150 0.61392 0.05200
C 	C 	0.51155 0.32346 0.60342 -0.02400
C 	C 	0.47466 0.33302 0.57292 0.00900
C 	C 	0.46531 0.35899 0.55141 -0.01100
C 	C 	0.49256 0.37894 0.56460 0.02000
C 	C 	0.06652 0.31145 0.95477 0.05800
C 	C 	0.10442 0.31769 0.98270 -0.04000
C 	C 	0.11987 0.32428 0.96050 0.01500
C 	C 	0.09111 0.32585 0.90507 -0.01300
C 	C 	0.05679 0.31807 0.87911 0.02100
C 	C 	0.04337 0.30971 0.90485 -0.07200
C 	C 	0.00762 0.37703 0.92362 0.12600
C 	C 	0.04836 0.37698 0.95978 -0.05500
C 	C 	0.06675 0.38641 0.94396 0.01800
C 	C 	0.04049 0.39417 0.88493 -0.02000
C 	C 	0.00125 0.38818 0.84968 0.04800
C 	C 	0.99021 0.37913 0.86683 -0.09200
C 	C 	0.85868 0.50578 0.78876 0.09000
C 	C 	0.88901 0.50350 0.83679 -0.09200
C 	C 	0.92157 0.52430 0.86425 0.02100
C 	C 	0.90882 0.54783 0.83721 -0.01900
C 	C 	0.87676 0.55200 0.78958 0.02500
C 	C 	0.85464 0.52965 0.76673 -0.07000
C 	C 	0.94320 0.44660 0.91490 -0.05400
S 	S 	0.13134 0.12023 0.27844 -0.60300
S 	S 	0.25325 0.96230 0.15911 -0.50000
S 	S 	0.25273 0.02997 0.37447 -0.59700
S 	S 	0.19300 0.12495 0.43493 -0.54200
S 	S 	0.14952 0.03584 0.25905 -0.51600
S 	S 	0.08463 0.14610 0.03938 -0.54300
S 	S 	0.38351 0.13542 0.26556 -0.59300
S 	S 	0.24252 0.01421 0.05623 -0.50700
S 	S 	0.22549 0.22774 0.12621 -0.58600
S 	S 	0.15338 0.16306 0.02395 -0.53900
S 	S 	0.44708 0.20448 0.34611 -0.50100
S 	S 	0.31555 0.07313 0.15928 -0.52500
S 	S 	0.19956 0.06771 0.52122 -0.47600
S 	S 	0.33668 0.21643 0.22912 -0.52700
S 	S 	0.55256 0.19615 0.48936 -0.46600
S 	S 	0.19788 0.19207 0.36501 -0.52500
S 	S 	0.11455 0.09156 0.15091 -0.85700
S 	S 	0.11943 0.24414 0.01145 -0.50500
S 	S 	0.37510 0.18304 0.46864 -0.51800
S 	S 	0.27116 0.15126 0.13373 -0.86000
S 	S 	0.48323 0.13535 0.43390 -0.56700
S 	S 	0.16478 0.01559 0.16260 -0.59100
S 	S 	0.19785 0.08828 0.04206 -0.55200
S 	S 	0.15450 0.05431 0.37275 -0.51600
S 	S 	0.40960 0.07657 0.35230 -0.50400
S 	S 	0.15146 0.99496 0.03490 -0.57500
S 	S 	0.25367 0.99293 0.27174 -0.51900
S 	S 	0.11900 0.07009 0.04014 -0.52500
S 	S 	0.30255 0.13138 0.36275 -1.14300
S 	S 	0.15877 0.19917 0.13724 -1.10100
S 	S 	0.22812 0.07255 0.26133 -1.16100
S 	S 	0.13116 0.28088 0.12689 -0.49500
S 	S 	0.26942 0.18113 0.24461 -1.15500
S 	S 	0.30529 0.10080 0.25571 -1.14300
S 	S 	0.19291 0.15271 0.25403 -1.15300
S 	S 	0.19376 0.12224 0.14428 -1.15400
S 	S 	0.37681 0.16003 0.35365 -1.09000
S 	S 	0.23035 0.04445 0.15384 -1.08800
S 	S 	0.22471 0.10021 0.36533 -1.08900
S 	S 	0.41122 0.11466 0.46009 -0.57500
S 	S 	0.26974 0.21633 0.35441 -0.84500
S 	S 	0.24240 0.25902 0.23086 -0.52300
S 	S 	0.34054 0.08931 0.48218 -0.52200
S 	S 	0.04903 0.22206 0.03616 -0.51000
S 	S 	0.45978 0.20753 0.47159 -0.52200
S 	S 	0.28742 0.15843 0.45471 -0.53700
S 	S 	0.15731 0.23060 0.23381 -0.54900
S 	S 	0.32787 0.02164 0.25387 -0.56100
S 	S 	0.26926 0.05739 0.49627 -0.51500
S 	S 	0.08554 0.17135 0.15561 -0.52400
S 	S 	0.35249 0.23254 0.34988 -0.57400
S 	S 	0.33957 0.04863 0.37649 -0.86100
Cd	Cd	0.31145 0.14260 0.30238 1.12400
Cd	Cd	0.23719 0.11452 0.30932 1.12400
Cd	Cd	0.23929 0.08574 0.20402 1.12500
Cd	Cd	0.20517 0.16278 0.19687 1.12400
Cd	Cd	0.34817 0.09290 0.41723 1.14300
Cd	Cd	0.28342 0.22212 0.29926 1.14100
Cd	Cd	0.12939 0.13080 0.20573 1.14200
Cd	Cd	0.12778 0.10695 0.09803 1.14200
Cd	Cd	0.20873 0.13251 0.08940 1.14200
Cd	Cd	0.17749 0.24355 0.18516 1.14800
Cd	Cd	0.30476 0.17491 0.40434 1.14000
Cd	Cd	0.20630 0.19721 0.30145 1.13900
Cd	Cd	0.27352 0.03659 0.32476 1.14200
Cd	Cd	0.09403 0.18398 0.09551 1.14900
Cd	Cd	0.39159 0.19498 0.41689 1.15000
Cd	Cd	0.16221 0.20591 0.07017 1.14900
Cd	Cd	0.42036 0.11966 0.39696 1.15400
Cd	Cd	0.34462 0.06076 0.31358 1.14100
Cd	Cd	0.31664 0.11737 0.19899 1.14300
Cd	Cd	0.21822 0.14386 0.39683 1.15400
Cd	Cd	0.16205 0.05615 0.20561 1.14300
Cd	Cd	0.48404 0.18631 0.43375 1.16200
Cd	Cd	0.27674 0.07005 0.43433 1.15000
Cd	Cd	0.08616 0.26029 0.03964 1.15900
Cd	Cd	0.20634 0.07467 0.45756 1.16200
Cd	Cd	0.38323 0.18289 0.29607 1.14900
Cd	Cd	0.16276 0.03182 0.09316 1.15300
Cd	Cd	0.25008 0.05622 0.10517 1.15000
Cd	Cd	0.26327 0.00358 0.21165 1.14900
Cd	Cd	0.27512 0.19092 0.18007 1.14100
Cd	Cd	0.16459 0.07413 0.31646 1.15100
Cd	Cd	0.21257 0.02356 0.56809 1.16200
C 	C 	0.08311 0.22712 0.95541 0.04600
C 	C 	0.06984 0.23846 0.91039 -0.02600
C 	C 	0.04126 0.22566 0.86552 0.01300
C 	C 	0.02594 0.20151 0.86567 -0.01600
C 	C 	0.03920 0.19017 0.91069 0.03900
C 	C 	0.06778 0.20298 0.95556 -0.12300
C 	C 	0.03357 0.23405 0.06691 0.04600
C 	C 	0.99501 0.23487 0.03794 -0.02300
C 	C 	0.98123 0.24285 0.05999 0.00800
C 	C 	0.00542 0.24920 0.11224 -0.01100
C 	C 	0.04414 0.24786 0.14064 0.03600
C 	C 	0.05796 0.23985 0.11809 -0.10400
C 	C 	0.15333 0.30593 0.11783 0.04800
C 	C 	0.14237 0.33300 0.11300 -0.02500
C 	C 	0.15712 0.35380 0.10390 0.01200
C 	C 	0.18520 0.34608 0.10455 -0.01300
C 	C 	0.19570 0.31921 0.10694 0.03000
C 	C 	0.18008 0.29839 0.11559 -0.09700
C 	C 	0.15864 0.26054 0.26286 0.08000
C 	C 	0.13650 0.28240 0.23353 -0.05400
C 	C 	0.13555 0.30695 0.25407 0.02000
C 	C 	0.15811 0.30926 0.30516 -0.01600
C 	C 	0.18070 0.28657 0.33733 0.02600
C 	C 	0.18019 0.26271 0.31466 -0.08100
C 	C 	0.24103 0.29003 0.25758 0.04900
C 	C 	0.24701 0.31463 0.24265 -0.01700
C 	C 	0.24278 0.34047 0.26328 0.00900
C 	C 	0.23674 0.33712 0.29563 -0.01500
C 	C 	0.23311 0.31392 0.31016 0.02600
C 	C 	0.23539 0.28848 0.29035 -0.11200
C 	C 	0.23218 0.24821 0.09433 0.07600
C 	C 	0.20627 0.25672 0.04654 -0.07500
C 	C 	0.21319 0.27138 0.01802 0.00800
C 	C 	0.15987 0.17495 0.98484 0.07200
C 	C 	0.19895 0.17543 0.00255 -0.10300
C 	C 	0.20185 0.18343 0.96554 0.02600
C 	C 	0.17244 0.18974 0.91655 -0.02100
C 	C 	0.14388 0.19271 0.90393 0.02000
C 	C 	0.13742 0.18630 0.94496 -0.04800
C 	C 	0.03552 0.13575 0.00290 0.07000
C 	C 	0.00982 0.15217 0.98283 -0.07400
C 	C 	0.97186 0.14352 0.94800 0.02600
C 	C 	0.95971 0.11915 0.94880 -0.01600
C 	C 	0.99052 0.09828 0.97895 0.01900
C 	C 	0.03002 0.10629 0.00512 -0.07100
C 	C 	0.15910 0.02121 0.37293 0.09400
C 	C 	0.13308 0.00405 0.32755 -0.04300
C 	C 	0.14014 0.97303 0.32465 0.01900
C 	C 	0.16969 0.96334 0.37288 -0.01400
C 	C 	0.19524 0.97757 0.41625 0.02700
C 	C 	0.19065 0.00820 0.41378 -0.12500
C 	C 	0.15538 0.07812 0.48798 0.05400
C 	C 	0.15588 0.10844 0.50704 -0.01900
C 	C 	0.11677 0.12404 0.46440 0.00300
C 	C 	0.08632 0.09987 0.42989 -0.01100
C 	C 	0.08891 0.07595 0.41679 0.01900
C 	C 	0.12736 0.06424 0.44629 -0.08000
C 	C 	0.13521 0.98912 0.15388 0.07700
C 	C 	0.10551 0.98301 0.10419 -0.06700
C 	C 	0.08222 0.95907 0.10110 0.01200
C 	C 	0.09822 0.94852 0.15038 -0.00700
C 	C 	0.13231 0.95040 0.21149 0.01100
C 	C 	0.15397 0.97586 0.20816 -0.03100
C 	C 	0.08776 0.12024 0.25840 0.10000
C 	C 	0.05713 0.12889 0.21270 -0.07700
C 	C 	0.01909 0.13125 0.19801 0.02800
C 	C 	0.01026 0.11152 0.20846 -0.02500
C 	C 	0.03346 0.09020 0.23555 0.02900
C 	C 	0.07086 0.09181 0.25873 -0.07600
C 	C 	0.15155 0.19989 0.33463 0.08300
C 	C 	0.12317 0.19610 0.28532 -0.10400
C 	C 	0.08709 0.20587 0.26168 0.03500
C 	C 	0.08170 0.21794 0.29060 -0.01800
C 	C 	0.10807 0.22189 0.33912 0.01500
C 	C 	0.14626 0.21260 0.36571 -0.02900
C 	C 	0.36181 0.26510 0.37843 0.08500
C 	C 	0.33279 0.28245 0.36473 -0.08800
C 	C 	0.34084 0.30808 0.38829 0.02800
C 	C 	0.37831 0.31797 0.42206 -0.01900
C 	C 	0.40484 0.30008 0.43541 0.02400
C 	C 	0.39850 0.27417 0.41479 -0.06700
C 	C 	0.34651 0.21601 0.18890 0.06300
C 	C 	0.34395 0.19354 0.16628 -0.12900
C 	C 	0.35457 0.19345 0.13519 0.02500
C 	C 	0.36337 0.21727 0.12677 -0.01700
C 	C 	0.36509 0.23934 0.14714 0.01100
C 	C 	0.35138 0.24051 0.17599 -0.02700
C 	C 	0.20548 0.09895 0.00026 0.07200
C 	C 	0.21411 0.12908 0.00025 -0.08300
C 	C 	0.21808 0.13803 0.96356 0.02300
C 	C 	0.23326 0.11680 0.94636 -0.01400
C 	C 	0.23580 0.09125 0.96637 0.02400
C 	C 	0.22515 0.08380 0.99424 -0.08300
C 	C 	0.07483 0.05291 0.01539 0.03300
C 	C 	0.06160 0.04840 0.96785 -0.00800
C 	C 	0.02535 0.03824 0.93047 0.00500
C 	C 	0.01154 0.03368 0.95230 -0.00100
C 	C 	0.07074 0.04530 0.04763 -0.10800
C 	C 	0.12449 0.00479 0.97459 0.09100
C 	C 	0.08709 0.99321 0.93941 -0.02700
C 	C 	0.07391 0.00651 0.88056 0.00800
C 	C 	0.09148 0.02853 0.88482 -0.01700
C 	C 	0.12383 0.03823 0.92125 0.03800
C 	C 	0.14011 0.02721 0.96613 -0.10800
C 	C 	0.11835 0.97445 0.01976 0.11900
C 	C 	0.08295 0.98349 0.99107 -0.06100
C 	C 	0.05251 0.95767 0.97683 0.02000
C 	C 	0.07002 0.93968 0.00154 -0.02300
C 	C 	0.10461 0.92866 0.03460 0.03300
C 	C 	0.12695 0.94670 0.03739 -0.08700
C 	C 	0.09994 0.03495 0.21358 0.03200
C 	C 	0.07710 0.00672 0.18182 -0.01800
C 	C 	0.04126 0.00901 0.17015 0.01000
C 	C 	0.02106 0.03353 0.14372 -0.01300
C 	C 	0.03507 0.05669 0.16613 0.02300
C 	C 	0.07768 0.05865 0.20327 -0.10500
C 	C 	0.20073 0.14440 0.48049 0.09700
C 	C 	0.17569 0.16572 0.46558 -0.04200
C 	C 	0.18575 0.18330 0.50854 0.01200
C 	C 	0.21424 0.17599 0.55661 -0.01700
C 	C 	0.23752 0.15308 0.57043 0.02500
C 	C 	0.23066 0.13771 0.53129 -0.08500
C 	C 	0.28684 0.18839 0.48304 0.06900
C 	C 	0.27251 0.18482 0.50712 -0.06900
C 	C 	0.27245 0.20815 0.53210 0.02000
C 	C 	0.28853 0.23213 0.53590 -0.01500
C 	C 	0.30264 0.23568 0.51151 0.02700
C 	C 	0.30125 0.21314 0.48516 -0.08300
C 	C 	0.38374 0.21515 0.49920 0.05400
C 	C 	0.40946 0.21522 0.55157 -0.01900
C 	C 	0.41534 0.24129 0.57613 0.01100
C 	C 	0.39840 0.26404 0.54951 -0.01500
C 	C 	0.37386 0.26435 0.49784 0.02700
C 	C 	0.36615 0.23893 0.47279 -0.11200
C 	C 	0.44360 0.24132 0.35310 0.05000
C 	C 	0.46847 0.25446 0.39606 -0.10500
C 	C 	0.46634 0.28354 0.39954 0.02400
C 	C 	0.44056 0.29806 0.35927 -0.01500
C 	C 	0.41831 0.28413 0.31364 0.01700
C 	C 	0.41989 0.25478 0.30768 -0.04000
C 	C 	0.40803 0.13511 0.24500 0.13700
C 	C 	0.43684 0.15058 0.26749 -0.09200
C 	C 	0.45332 0.15832 0.23716 0.01700
C 	C 	0.44751 0.13463 0.21206 -0.02100
C 	C 	0.42216 0.11768 0.19674 0.03800
C 	C 	0.40014 0.12142 0.21016 -0.09900
C 	C 	0.32259 0.08452 0.11770 0.05200
C 	C 	0.31193 0.10896 0.09476 -0.09400
C 	C 	0.32038 0.11819 0.06276 0.02000
C 	C 	0.34009 0.09773 0.06138 -0.01200
C 	C 	0.35315 0.07476 0.08617 0.00900
C 	C 	0.34515 0.06675 0.11684 -0.01900
C 	C 	0.28952 0.00480 0.09062 0.04500
C 	C 	0.30159 0.00268 0.06373 -0.02400
C 	C 	0.33752 0.99461 0.08872 0.01100
C 	C 	0.36213 0.99078 0.13918 -0.01200
C 	C 	0.35132 0.99281 0.16738 0.03400
C 	C 	0.31390 0.99941 0.14191 -0.10500
C 	C 	0.22357 0.93834 0.15430 0.05300
C 	C 	0.22411 0.91166 0.13589 -0.03700
C 	C 	0.20101 0.89072 0.13244 0.01300
C 	C 	0.18011 0.89583 0.14583 -0.01300
C 	C 	0.17891 0.92291 0.16123 0.02600
C 	C 	0.20176 0.94390 0.16322 -0.09600
C 	C 	0.28592 0.96780 0.30885 0.03200
C 	C 	0.27264 0.93999 0.29387 -0.02000
C 	C 	0.29507 0.91784 0.32787 0.00700
C 	C 	0.33262 0.92665 0.38532 -0.01600
C 	C 	0.33696 0.95353 0.39735 0.03100
C 	C 	0.31651 0.97385 0.37226 -0.09200
C 	C 	0.26942 0.99828 0.40262 0.11500
C 	C 	0.24232 0.97919 0.35812 -0.03800
C 	C 	0.30138 0.94870 0.45320 -0.01700
C 	C 	0.30318 0.96524 0.47246 0.02900
C 	C 	0.29236 0.99544 0.44621 -0.11000
C 	C 	0.29574 0.08001 0.54852 0.04900
C 	C 	0.30550 0.06993 0.59299 -0.05000
C 	C 	0.32356 0.08690 0.63523 0.01000
C 	C 	0.33897 0.11292 0.63487 -0.01400
C 	C 	0.32751 0.12268 0.58918 0.03300
C 	C 	0.30595 0.10617 0.54697 -0.10800
C 	C 	0.36768 0.06137 0.52425 0.05700
C 	C 	0.37033 0.03720 0.50832 -0.10600
C 	C 	0.39255 0.01494 0.54266 0.02200
C 	C 	0.41158 0.02252 0.59441 -0.01400
C 	C 	0.40934 0.04560 0.60928 0.01300
C 	C 	0.38586 0.06613 0.57575 -0.02100
C 	C 	0.44299 0.09225 0.50827 0.11700
C 	C 	0.43719 0.07332 0.52227 -0.12600
C 	C 	0.46412 0.05701 0.56703 0.04100
C 	C 	0.49517 0.06590 0.59819 -0.02900
C 	C 	0.50571 0.08920 0.59985 0.01800
C 	C 	0.47653 0.10746 0.54182 -0.05700
C 	C 	0.48806 0.19105 0.53128 0.06500
C 	C 	0.47216 0.17661 0.54583 -0.07900
C 	C 	0.49750 0.16478 0.59475 0.03000
C 	C 	0.53461 0.16665 0.62535 -0.02100
C 	C 	0.54945 0.18187 0.60989 0.02400
C 	C 	0.52618 0.19427 0.56255 -0.09400
C 	C 	0.03258 0.13164 0.09807 -0.09900
C 	C 	0.03846 0.15850 0.11392 0.05200
C 	C 	0.01155 0.17654 0.10342 -0.02400
C 	C 	0.97466 0.16698 0.07292 0.00900
C 	C 	0.96531 0.14101 0.05141 -0.01100
C 	C 	0.99256 0.12106 0.06460 0.02000
C 	C 	0.56652 0.18855 0.45477 0.05800
C 	C 	0.60442 0.18231 0.48270 -0.04000
C 	C 	0.61987 0.17572 0.46050 0.01500
C 	C 	0.59111 0.17415 0.40507 -0.01300
C 	C 	0.55679 0.18193 0.37911 0.02100
C 	C 	0.54337 0.19029 0.40485 -0.07200
C 	C 	0.50762 0.12297 0.42362 0.12600
C 	C 	0.54836 0.12302 0.45978 -0.05500
C 	C 	0.56675 0.11359 0.44396 0.01800
C 	C 	0.54049 0.10583 0.38493 -0.02000
C 	C 	0.50125 0.11182 0.34968 0.04800
C 	C 	0.49021 0.12087 0.36683 -0.09300
C 	C 	0.35868 0.99422 0.28876 0.09000
C 	C 	0.38901 0.99650 0.33679 -0.09200
C 	C 	0.42157 0.97570 0.36425 0.02100
C 	C 	0.40882 0.95217 0.33721 -0.01900
C 	C 	0.37676 0.94800 0.28958 0.02500
C 	C 	0.35464 0.97035 0.26673 -0.07000
C 	C 	0.44320 0.05340 0.41490 -0.05400
S 	S 	0.63134 0.62023 0.27844 -0.60300
S 	S 	0.75325 0.46230 0.15911 -0.50000
S 	S 	0.75273 0.52997 0.37447 -0.59700
S 	S 	0.69300 0.62495 0.43493 -0.54200
S 	S 	0.64952 0.53584 0.25905 -0.51600
S 	S 	0.58463 0.64610 0.03938 -0.54300
S 	S 	0.88351 0.63542 0.26556 -0.59300
S 	S 	0.74252 0.51421 0.05623 -0.50700
S 	S 	0.72549 0.72774 0.12621 -0.58600
S 	S 	0.65338 0.66306 0.02395 -0.53900
S 	S 	0.94708 0.70448 0.34611 -0.50100
S 	S 	0.81555 0.57313 0.15928 -0.52500
S 	S 	0.69956 0.56771 0.52122 -0.47600
S 	S 	0.83668 0.71643 0.22912 -0.52700
S 	S 	0.05256 0.69615 0.48936 -0.46600
S 	S 	0.69788 0.69207 0.36501 -0.52500
S 	S 	0.61455 0.59156 0.15091 -0.85700
S 	S 	0.61943 0.74414 0.01145 -0.50500
S 	S 	0.87510 0.68304 0.46864 -0.51800
S 	S 	0.77116 0.65126 0.13373 -0.86000
S 	S 	0.98323 0.63535 0.43390 -0.56700
S 	S 	0.66478 0.51559 0.16260 -0.59100
S 	S 	0.69785 0.58828 0.04206 -0.55200
S 	S 	0.65450 0.55431 0.37275 -0.51600
S 	S 	0.90960 0.57657 0.35230 -0.50400
S 	S 	0.65146 0.49496 0.03490 -0.57500
S 	S 	0.75367 0.49293 0.27174 -0.51900
S 	S 	0.61900 0.57009 0.04014 -0.52500
S 	S 	0.80255 0.63138 0.36275 -1.14300
S 	S 	0.65877 0.69917 0.13724 -1.10100
S 	S 	0.72812 0.57255 0.26133 -1.16100
S 	S 	0.63116 0.78088 0.12689 -0.49500
S 	S 	0.76942 0.68113 0.24461 -1.15500
S 	S 	0.80529 0.60080 0.25571 -1.14300
S 	S 	0.69291 0.65271 0.25403 -1.15300
S 	S 	0.69376 0.62224 0.14428 -1.15400
S 	S 	0.87681 0.66003 0.35365 -1.09000
S 	S 	0.73035 0.54445 0.15384 -1.08800
S 	S 	0.72471 0.60021 0.36533 -1.08900
S 	S 	0.91122 0.61466 0.46009 -0.57500
S 	S 	0.76974 0.71633 0.35441 -0.84500
S 	S 	0.74240 0.75902 0.23086 -0.52300
S 	S 	0.84054 0.58931 0.48218 -0.52200
S 	S 	0.54903 0.72206 0.03616 -0.51000
S 	S 	0.95978 0.70753 0.47159 -0.52200
S 	S 	0.78742 0.65843 0.45471 -0.53700
S 	S 	0.65731 0.73060 0.23381 -0.54900
S 	S 	0.82787 0.52164 0.25387 -0.56100
S 	S 	0.76926 0.55739 0.49627 -0.51500
S 	S 	0.58554 0.67135 0.15561 -0.52400
S 	S 	0.85249 0.73254 0.34988 -0.57400
S 	S 	0.83957 0.54863 0.37649 -0.86100
Cd	Cd	0.81145 0.64260 0.30238 1.12400
Cd	Cd	0.73719 0.61452 0.30932 1.12400
Cd	Cd	0.73929 0.58574 0.20402 1.12500
Cd	Cd	0.70517 0.66278 0.19687 1.12400
Cd	Cd	0.84817 0.59290 0.41723 1.14300
Cd	Cd	0.78342 0.72212 0.29926 1.14100
Cd	Cd	0.62939 0.63080 0.20573 1.14200
Cd	Cd	0.62778 0.60695 0.09803 1.14200
Cd	Cd	0.70873 0.63251 0.08940 1.14200
Cd	Cd	0.67749 0.74355 0.18516 1.14800
Cd	Cd	0.80476 0.67491 0.40434 1.14000
Cd	Cd	0.70630 0.69721 0.30145 1.13900
Cd	Cd	0.77352 0.53659 0.32476 1.14200
Cd	Cd	0.59403 0.68398 0.09551 1.14900
Cd	Cd	0.89159 0.69498 0.41689 1.15000
Cd	Cd	0.66221 0.70591 0.07017 1.14900
Cd	Cd	0.92036 0.61966 0.39696 1.15400
Cd	Cd	0.84462 0.56076 0.31358 1.14100
Cd	Cd	0.81664 0.61737 0.19899 1.14300
Cd	Cd	0.71822 0.64386 0.39683 1.15400
Cd	Cd	0.66205 0.55615 0.20561 1.14300
Cd	Cd	0.98404 0.68631 0.43375 1.16200
Cd	Cd	0.77674 0.57005 0.43433 1.15000
Cd	Cd	0.58616 0.76029 0.03964 1.15900
Cd	Cd	0.70634 0.57467 0.45756 1.16200
Cd	Cd	0.88323 0.68289 0.29607 1.14900
Cd	Cd	0.66276 0.53182 0.09316 1.15300
Cd	Cd	0.75008 0.55622 0.10517 1.15000
Cd	Cd	0.76327 0.50358 0.21165 1.14900
Cd	Cd	0.77512 0.69092 0.18007 1.14100
Cd	Cd	0.66459 0.57413 0.31646 1.15100
Cd	Cd	0.71257 0.52356 0.56809 1.16200
C 	C 	0.58311 0.72712 0.95541 0.04600
C 	C 	0.56984 0.73846 0.91039 -0.02600
C 	C 	0.54126 0.72566 0.86552 0.01300
C 	C 	0.52594 0.70151 0.86567 -0.01600
C 	C 	0.53920 0.69017 0.91069 0.03900
C 	C 	0.56778 0.70298 0.95556 -0.12300
C 	C 	0.53357 0.73405 0.06691 0.04600
C 	C 	0.49501 0.73487 0.03794 -0.02200
C 	C 	0.48123 0.74285 0.05999 0.00800
C 	C 	0.50542 0.74920 0.11224 -0.01100
C 	C 	0.54414 0.74786 0.14064 0.03600
C 	C 	0.55796 0.73985 0.11809 -0.10400
C 	C 	0.65333 0.80593 0.11783 0.04800
C 	C 	0.64237 0.83300 0.11300 -0.02500
C 	C 	0.65712 0.85380 0.10390 0.01200
C 	C 	0.68520 0.84608 0.10455 -0.01300
C 	C 	0.69570 0.81921 0.10694 0.03000
C 	C 	0.68008 0.79839 0.11559 -0.09700
C 	C 	0.65864 0.76054 0.26286 0.08000
C 	C 	0.63650 0.78240 0.23353 -0.05400
C 	C 	0.63555 0.80695 0.25407 0.02000
C 	C 	0.65811 0.80926 0.30516 -0.01600
C 	C 	0.68070 0.78657 0.33733 0.02600
C 	C 	0.68019 0.76271 0.31466 -0.08100
C 	C 	0.74103 0.79003 0.25758 0.04900
C 	C 	0.74701 0.81463 0.24265 -0.01700
C 	C 	0.74278 0.84047 0.26328 0.00900
C 	C 	0.73674 0.83712 0.29563 -0.01500
C 	C 	0.73311 0.81392 0.31016 0.02600
C 	C 	0.73539 0.78848 0.29035 -0.11200
C 	C 	0.73218 0.74821 0.09433 0.07600
C 	C 	0.70627 0.75672 0.04654 -0.07500
C 	C 	0.71319 0.77138 0.01802 0.00800
C 	C 	0.65987 0.67495 0.98484 0.07200
C 	C 	0.69895 0.67543 0.00255 -0.10300
C 	C 	0.70185 0.68343 0.96554 0.02600
C 	C 	0.67244 0.68974 0.91655 -0.02100
C 	C 	0.64388 0.69271 0.90393 0.02000
C 	C 	0.63742 0.68630 0.94496 -0.04800
C 	C 	0.53552 0.63575 0.00290 0.07000
C 	C 	0.50982 0.65217 0.98283 -0.07400
C 	C 	0.47186 0.64352 0.94800 0.02600
C 	C 	0.45971 0.61915 0.94880 -0.01600
C 	C 	0.49052 0.59828 0.97895 0.01900
C 	C 	0.53002 0.60629 0.00512 -0.07100
C 	C 	0.65910 0.52121 0.37293 0.09400
C 	C 	0.63308 0.50405 0.32755 -0.04300
C 	C 	0.64014 0.47303 0.32465 0.01900
C 	C 	0.66969 0.46334 0.37288 -0.01400
C 	C 	0.69524 0.47757 0.41625 0.02700
C 	C 	0.69065 0.50820 0.41378 -0.12500
C 	C 	0.65538 0.57812 0.48798 0.05400
C 	C 	0.65588 0.60844 0.50704 -0.01900
C 	C 	0.61677 0.62404 0.46440 0.00300
C 	C 	0.58632 0.59987 0.42989 -0.01100
C 	C 	0.58891 0.57595 0.41679 0.01900
C 	C 	0.62736 0.56424 0.44629 -0.08000
C 	C 	0.63521 0.48912 0.15388 0.07700
C 	C 	0.60551 0.48301 0.10419 -0.06700
C 	C 	0.58222 0.45907 0.10110 0.01200
C 	C 	0.59822 0.44852 0.15038 -0.00700
C 	C 	0.63231 0.45040 0.21149 0.01100
C 	C 	0.65397 0.47586 0.20816 -0.03100
C 	C 	0.58776 0.62024 0.25840 0.10000
C 	C 	0.55713 0.62889 0.21270 -0.07700
C 	C 	0.51909 0.63125 0.19801 0.02800
C 	C 	0.51026 0.61152 0.20846 -0.02500
C 	C 	0.53346 0.59020 0.23555 0.02900
C 	C 	0.57086 0.59181 0.25873 -0.07600
C 	C 	0.65155 0.69989 0.33463 0.08300
C 	C 	0.62317 0.69610 0.28532 -0.10400
C 	C 	0.58709 0.70587 0.26168 0.03500
C 	C 	0.58170 0.71794 0.29060 -0.01800
C 	C 	0.60807 0.72189 0.33912 0.01500
C 	C 	0.64626 0.71260 0.36571 -0.02900
C 	C 	0.86181 0.76510 0.37843 0.08500
C 	C 	0.83279 0.78245 0.36473 -0.08800
C 	C 	0.84084 0.80808 0.38829 0.02800
C 	C 	0.87831 0.81797 0.42206 -0.01900
C 	C 	0.90484 0.80008 0.43541 0.02400
C 	C 	0.89850 0.77417 0.41479 -0.06700
C 	C 	0.84651 0.71601 0.18890 0.06300
C 	C 	0.84395 0.69354 0.16628 -0.12900
C 	C 	0.85457 0.69345 0.13519 0.02500
C 	C 	0.86337 0.71727 0.12677 -0.01700
C 	C 	0.86509 0.73934 0.14714 0.01100
C 	C 	0.85138 0.74051 0.17599 -0.02700
C 	C 	0.70548 0.59895 0.00026 0.07200
C 	C 	0.71411 0.62908 0.00025 -0.08300
C 	C 	0.71808 0.63803 0.96356 0.02300
C 	C 	0.73326 0.61680 0.94636 -0.01400
C 	C 	0.73580 0.59125 0.96637 0.02400
C 	C 	0.72515 0.58380 0.99424 -0.08300
C 	C 	0.57483 0.55291 0.01539 0.03300
C 	C 	0.56160 0.54840 0.96785 -0.00800
C 	C 	0.52535 0.53824 0.93047 0.00500
C 	C 	0.51154 0.53368 0.95230 -0.00100
C 	C 	0.57074 0.54530 0.04763 -0.10800
C 	C 	0.62449 0.50479 0.97459 0.09100
C 	C 	0.58709 0.49321 0.93941 -0.02700
C 	C 	0.57391 0.50651 0.88056 0.00800
C 	C 	0.59148 0.52853 0.88482 -0.01700
C 	C 	0.62383 0.53823 0.92125 0.03800
C 	C 	0.64011 0.52721 0.96613 -0.10800
C 	C 	0.61835 0.47445 0.01976 0.11900
C 	C 	0.58295 0.48349 0.99107 -0.06100
C 	C 	0.55251 0.45767 0.97683 0.02100
C 	C 	0.57002 0.43968 0.00154 -0.02300
C 	C 	0.60461 0.42866 0.03460 0.03300
C 	C 	0.62695 0.44670 0.03739 -0.08700
C 	C 	0.59994 0.53495 0.21358 0.03200
C 	C 	0.57710 0.50672 0.18182 -0.01800
C 	C 	0.54126 0.50901 0.17015 0.01000
C 	C 	0.52106 0.53353 0.14372 -0.01300
C 	C 	0.53507 0.55669 0.16613 0.02300
C 	C 	0.57768 0.55865 0.20327 -0.10500
C 	C 	0.70073 0.64440 0.48049 0.09700
C 	C 	0.67569 0.66572 0.46558 -0.04200
C 	C 	0.68575 0.68330 0.50854 0.01200
C 	C 	0.71424 0.67599 0.55661 -0.01700
C 	C 	0.73752 0.65308 0.57043 0.02500
C 	C 	0.73066 0.63771 0.53129 -0.08500
C 	C 	0.78684 0.68839 0.48304 0.06900
C 	C 	0.77251 0.68482 0.50712 -0.06900
C 	C 	0.77245 0.70815 0.53210 0.02000
C 	C 	0.78853 0.73213 0.53590 -0.01500
C 	C 	0.80264 0.73568 0.51151 0.02700
C 	C 	0.80125 0.71314 0.48516 -0.08300
C 	C 	0.88374 0.71515 0.49920 0.05400
C 	C 	0.90946 0.71522 0.55157 -0.01900
C 	C 	0.91534 0.74129 0.57613 0.01100
C 	C 	0.89840 0.76404 0.54951 -0.01500
C 	C 	0.87386 0.76435 0.49784 0.02700
C 	C 	0.86615 0.73893 0.47279 -0.11200
C 	C 	0.94360 0.74132 0.35310 0.05000
C 	C 	0.96847 0.75446 0.39606 -0.10600
C 	C 	0.96634 0.78354 0.39954 0.02400
C 	C 	0.94056 0.79806 0.35927 -0.01500
C 	C 	0.91831 0.78413 0.31364 0.01700
C 	C 	0.91989 0.75478 0.30768 -0.04000
C 	C 	0.90803 0.63511 0.24500 0.13700
C 	C 	0.93684 0.65058 0.26749 -0.09200
C 	C 	0.95332 0.65832 0.23716 0.01700
C 	C 	0.94751 0.63463 0.21206 -0.02100
C 	C 	0.92216 0.61768 0.19674 0.03800
C 	C 	0.90014 0.62142 0.21016 -0.09900
C 	C 	0.82259 0.58452 0.11770 0.05200
C 	C 	0.81193 0.60896 0.09476 -0.09400
C 	C 	0.82038 0.61819 0.06276 0.02000
C 	C 	0.84009 0.59773 0.06138 -0.01200
C 	C 	0.85315 0.57476 0.08617 0.00900
C 	C 	0.84515 0.56675 0.11684 -0.01900
C 	C 	0.78952 0.50480 0.09062 0.04500
C 	C 	0.80159 0.50268 0.06373 -0.02400
C 	C 	0.83752 0.49461 0.08872 0.01100
C 	C 	0.86213 0.49078 0.13918 -0.01200
C 	C 	0.85132 0.49281 0.16738 0.03400
C 	C 	0.81390 0.49941 0.14191 -0.10500
C 	C 	0.72357 0.43834 0.15430 0.05300
C 	C 	0.72411 0.41166 0.13589 -0.03700
C 	C 	0.70101 0.39072 0.13244 0.01300
C 	C 	0.68011 0.39583 0.14583 -0.01300
C 	C 	0.67891 0.42291 0.16123 0.02600
C 	C 	0.70176 0.44390 0.16322 -0.09600
C 	C 	0.78592 0.46780 0.30885 0.03200
C 	C 	0.77264 0.43999 0.29387 -0.02000
C 	C 	0.79507 0.41784 0.32787 0.00700
C 	C 	0.83262 0.42665 0.38532 -0.01600
C 	C 	0.83696 0.45353 0.39735 0.03100
C 	C 	0.81651 0.47385 0.37226 -0.09200
C 	C 	0.76942 0.49828 0.40262 0.11500
C 	C 	0.74232 0.47919 0.35812 -0.03800
C 	C 	0.80138 0.44870 0.45320 -0.01700
C 	C 	0.80318 0.46524 0.47246 0.02900
C 	C 	0.79236 0.49544 0.44621 -0.11000
C 	C 	0.79574 0.58001 0.54852 0.04900
C 	C 	0.80550 0.56993 0.59299 -0.05000
C 	C 	0.82356 0.58690 0.63523 0.01000
C 	C 	0.83897 0.61292 0.63487 -0.01400
C 	C 	0.82751 0.62268 0.58918 0.03300
C 	C 	0.80595 0.60617 0.54697 -0.10800
C 	C 	0.86768 0.56137 0.52425 0.05700
C 	C 	0.87033 0.53720 0.50832 -0.10600
C 	C 	0.89255 0.51494 0.54266 0.02200
C 	C 	0.91158 0.52252 0.59441 -0.01400
C 	C 	0.90934 0.54560 0.60928 0.01300
C 	C 	0.88586 0.56613 0.57575 -0.02100
C 	C 	0.94299 0.59225 0.50827 0.11700
C 	C 	0.93719 0.57332 0.52227 -0.12600
C 	C 	0.96412 0.55701 0.56703 0.04100
C 	C 	0.99517 0.56590 0.59819 -0.02900
C 	C 	0.00571 0.58920 0.59985 0.01800
C 	C 	0.97653 0.60746 0.54182 -0.05700
C 	C 	0.98806 0.69105 0.53128 0.06500
C 	C 	0.97216 0.67661 0.54583 -0.07900
C 	C 	0.99750 0.66478 0.59475 0.03000
C 	C 	0.03461 0.66665 0.62535 -0.02100
C 	C 	0.04945 0.68187 0.60989 0.02400
C 	C 	0.02618 0.69427 0.56255 -0.09400
C 	C 	0.53258 0.63164 0.09807 -0.09900
C 	C 	0.53846 0.65850 0.11392 0.05200
C 	C 	0.51155 0.67654 0.10342 -0.02400
C 	C 	0.47466 0.66698 0.07292 0.00900
C 	C 	0.46531 0.64101 0.05141 -0.01100
C 	C 	0.49256 0.62106 0.06460 0.02000
C 	C 	0.06652 0.68855 0.45477 0.05800
C 	C 	0.10442 0.68231 0.48270 -0.04000
C 	C 	0.11987 0.67572 0.46050 0.01500
C 	C 	0.09111 0.67415 0.40507 -0.01300
C 	C 	0.05679 0.68193 0.37911 0.02100
C 	C 	0.04337 0.69029 0.40485 -0.07200
C 	C 	0.00762 0.62297 0.42362 0.12600
C 	C 	0.04836 0.62302 0.45978 -0.05500
C 	C 	0.06675 0.61359 0.44396 0.01800
C 	C 	0.04049 0.60583 0.38493 -0.02000
C 	C 	0.00125 0.61182 0.34968 0.04800
C 	C 	0.99021 0.62087 0.36683 -0.09300
C 	C 	0.85868 0.49422 0.28876 0.09000
C 	C 	0.88901 0.49650 0.33679 -0.09200
C 	C 	0.92157 0.47570 0.36425 0.02100
C 	C 	0.90882 0.45217 0.33721 -0.01900
C 	C 	0.87676 0.44800 0.28958 0.02500
C 	C 	0.85464 0.47035 0.26673 -0.07000
C 	C 	0.94320 0.55340 0.41490 -0.05400
S 	S 	0.86866 0.87977 0.72156 -0.60300
S 	S 	0.74675 0.03770 0.84089 -0.50000
S 	S 	0.74727 0.97003 0.62553 -0.59700
S 	S 	0.80700 0.87505 0.56507 -0.54200
S 	S 	0.85048 0.96416 0.74095 -0.51600
S 	S 	0.91537 0.85390 0.96062 -0.54300
S 	S 	0.61649 0.86458 0.73444 -0.59300
S 	S 	0.75748 0.98579 0.94377 -0.50700
S 	S 	0.77451 0.77226 0.87379 -0.58600
S 	S 	0.84662 0.83694 0.97605 -0.53900
S 	S 	0.55292 0.79552 0.65389 -0.50100
S 	S 	0.68445 0.92687 0.84072 -0.52500
S 	S 	0.80044 0.93229 0.47878 -0.47600
S 	S 	0.66332 0.78357 0.77088 -0.52700
S 	S 	0.44744 0.80385 0.51064 -0.46600
S 	S 	0.80212 0.80793 0.63499 -0.52500
S 	S 	0.88545 0.90844 0.84909 -0.85700
S 	S 	0.88057 0.75586 0.98855 -0.50500
S 	S 	0.62490 0.81696 0.53136 -0.51800
S 	S 	0.72884 0.84874 0.86627 -0.86000
S 	S 	0.51677 0.86465 0.56610 -0.56700
S 	S 	0.83522 0.98441 0.83740 -0.59100
S 	S 	0.80215 0.91172 0.95794 -0.55200
S 	S 	0.84550 0.94569 0.62725 -0.51600
S 	S 	0.59040 0.92343 0.64770 -0.50400
S 	S 	0.84854 0.00504 0.96510 -0.57500
S 	S 	0.74633 0.00707 0.72826 -0.51900
S 	S 	0.88100 0.92991 0.95986 -0.52500
S 	S 	0.69745 0.86862 0.63725 -1.14300
S 	S 	0.84123 0.80083 0.86276 -1.10100
S 	S 	0.77188 0.92745 0.73867 -1.16100
S 	S 	0.86884 0.71912 0.87311 -0.49500
S 	S 	0.73058 0.81887 0.75539 -1.15500
S 	S 	0.69471 0.89920 0.74429 -1.14300
S 	S 	0.80709 0.84729 0.74597 -1.15300
S 	S 	0.80624 0.87776 0.85572 -1.15400
S 	S 	0.62319 0.83997 0.64635 -1.09000
S 	S 	0.76965 0.95555 0.84616 -1.08800
S 	S 	0.77529 0.89979 0.63467 -1.08900
S 	S 	0.58878 0.88534 0.53991 -0.57500
S 	S 	0.73026 0.78367 0.64559 -0.84500
S 	S 	0.75760 0.74098 0.76914 -0.52300
S 	S 	0.65946 0.91069 0.51782 -0.52200
S 	S 	0.95097 0.77794 0.96384 -0.51000
S 	S 	0.54022 0.79247 0.52841 -0.52200
S 	S 	0.71258 0.84157 0.54529 -0.53700
S 	S 	0.84269 0.76940 0.76619 -0.54900
S 	S 	0.67213 0.97836 0.74613 -0.56100
S 	S 	0.73074 0.94261 0.50373 -0.51500
S 	S 	0.91446 0.82865 0.84439 -0.52400
S 	S 	0.64751 0.76746 0.65012 -0.57400
S 	S 	0.66043 0.95137 0.62351 -0.86100
Cd	Cd	0.68855 0.85740 0.69762 1.12400
Cd	Cd	0.76281 0.88548 0.69068 1.12400
Cd	Cd	0.76071 0.91426 0.79598 1.12500
Cd	Cd	0.79483 0.83722 0.80313 1.12400
Cd	Cd	0.65183 0.90710 0.58277 1.14300
Cd	Cd	0.71658 0.77788 0.70074 1.14100
Cd	Cd	0.87061 0.86920 0.79427 1.14200
Cd	Cd	0.87222 0.89305 0.90197 1.14200
Cd	Cd	0.79127 0.86749 0.91060 1.14200
Cd	Cd	0.82251 0.75645 0.81484 1.14800
Cd	Cd	0.69524 0.82509 0.59566 1.14000
Cd	Cd	0.79370 0.80279 0.69855 1.13900
Cd	Cd	0.72648 0.96341 0.67524 1.14200
Cd	Cd	0.90597 0.81602 0.90449 1.14900
Cd	Cd	0.60841 0.80502 0.58311 1.15000
Cd	Cd	0.83779 0.79409 0.92983 1.14900
Cd	Cd	0.57964 0.88034 0.60304 1.15400
Cd	Cd	0.65538 0.93924 0.68642 1.14100
Cd	Cd	0.68336 0.88263 0.80101 1.14300
Cd	Cd	0.78178 0.85614 0.60317 1.15400
Cd	Cd	0.83795 0.94385 0.79439 1.14300
Cd	Cd	0.51596 0.81369 0.56625 1.16200
Cd	Cd	0.72326 0.92995 0.56567 1.15000
Cd	Cd	0.91384 0.73971 0.96036 1.15900
Cd	Cd	0.79366 0.92533 0.54244 1.16200
Cd	Cd	0.61677 0.81711 0.70393 1.14900
Cd	Cd	0.83724 0.96818 0.90684 1.15300
Cd	Cd	0.74992 0.94378 0.89483 1.15000
Cd	Cd	0.73673 0.99642 0.78835 1.14900
Cd	Cd	0.72488 0.80908 0.81993 1.14100
Cd	Cd	0.83541 0.92587 0.68354 1.15100
Cd	Cd	0.78743 0.97644 0.43191 1.16200
C 	C 	0.91689 0.77288 0.04459 0.04600
C 	C 	0.93016 0.76154 0.08961 -0.02600
C 	C 	0.95874 0.77434 0.13448 0.01300
C 	C 	0.97406 0.79849 0.13433 -0.01600
C 	C 	0.96080 0.80983 0.08931 0.03900
C 	C 	0.93222 0.79702 0.04444 -0.12300
C 	C 	0.96643 0.76595 0.93309 0.04600
C 	C 	0.00499 0.76513 0.96206 -0.02300
C 	C 	0.01877 0.75715 0.94001 0.00800
C 	C 	0.99458 0.75080 0.88776 -0.01100
C 	C 	0.95586 0.75214 0.85936 0.03600
C 	C 	0.94204 0.76015 0.88191 -0.10400
C 	C 	0.84667 0.69407 0.88217 0.04800
C 	C 	0.85763 0.66700 0.88700 -0.02500
C 	C 	0.84288 0.64620 0.89610 0.01200
C 	C 	0.81480 0.65392 0.89545 -0.01300
C 	C 	0.80430 0.68079 0.89306 0.03000
C 	C 	0.81992 0.70161 0.88441 -0.09700
C 	C 	0.84136 0.73946 0.73714 0.08000
C 	C 	0.86350 0.71760 0.76647 -0.05400
C 	C 	0.86445 0.69305 0.74593 0.02000
C 	C 	0.84189 0.69074 0.69484 -0.01600
C 	C 	0.81930 0.71343 0.66267 0.02600
C 	C 	0.81981 0.73729 0.68534 -0.08100
C 	C 	0.75897 0.70997 0.74242 0.04900
C 	C 	0.75299 0.68537 0.75735 -0.01700
C 	C 	0.75722 0.65953 0.73672 0.00900
C 	C 	0.76326 0.66288 0.70437 -0.01500
C 	C 	0.76689 0.68608 0.68984 0.02600
C 	C 	0.76461 0.71152 0.70965 -0.11200
C 	C 	0.76782 0.75179 0.90567 0.07600
C 	C 	0.79373 0.74328 0.95346 -0.07500
C 	C 	0.78681 0.72862 0.98198 0.00800
C 	C 	0.84013 0.82505 0.01516 0.07200
C 	C 	0.80105 0.82457 0.99745 -0.10300
C 	C 	0.79815 0.81657 0.03446 0.02600
C 	C 	0.82756 0.81026 0.08345 -0.02100
C 	C 	0.85612 0.80729 0.09607 0.02000
C 	C 	0.86258 0.81370 0.05504 -0.04800
C 	C 	0.96448 0.86425 0.99710 0.07000
C 	C 	0.99018 0.84783 0.01717 -0.07400
C 	C 	0.02814 0.85648 0.05200 0.02600
C 	C 	0.04029 0.88085 0.05120 -0.01600
C 	C 	0.00948 0.90172 0.02105 0.01900
C 	C 	0.96998 0.89371 0.99488 -0.07100
C 	C 	0.84090 0.97879 0.62707 0.09400
C 	C 	0.86692 0.99595 0.67245 -0.04300
C 	C 	0.85986 0.02697 0.67535 0.01900
C 	C 	0.83031 0.03666 0.62712 -0.01400
C 	C 	0.80476 0.02243 0.58375 0.02700
C 	C 	0.80935 0.99180 0.58622 -0.12500
C 	C 	0.84462 0.92188 0.51202 0.05400
C 	C 	0.84412 0.89156 0.49296 -0.01900
C 	C 	0.88323 0.87596 0.53560 0.00300
C 	C 	0.91368 0.90013 0.57011 -0.01100
C 	C 	0.91109 0.92405 0.58321 0.01900
C 	C 	0.87264 0.93576 0.55371 -0.08000
C 	C 	0.86479 0.01088 0.84612 0.07700
C 	C 	0.89449 0.01699 0.89581 -0.06700
C 	C 	0.91778 0.04093 0.89890 0.01200
C 	C 	0.90178 0.05148 0.84962 -0.00700
C 	C 	0.86769 0.04960 0.78851 0.01100
C 	C 	0.84603 0.02414 0.79184 -0.03100
C 	C 	0.91224 0.87976 0.74160 0.10000
C 	C 	0.94287 0.87111 0.78730 -0.07700
C 	C 	0.98091 0.86875 0.80199 0.02800
C 	C 	0.98974 0.88848 0.79154 -0.02500
C 	C 	0.96654 0.90980 0.76445 0.02900
C 	C 	0.92914 0.90819 0.74127 -0.07600
C 	C 	0.84845 0.80011 0.66537 0.08300
C 	C 	0.87683 0.80390 0.71468 -0.10400
C 	C 	0.91291 0.79413 0.73832 0.03500
C 	C 	0.91830 0.78206 0.70940 -0.01800
C 	C 	0.89193 0.77811 0.66088 0.01500
C 	C 	0.85374 0.78740 0.63429 -0.02900
C 	C 	0.63819 0.73490 0.62157 0.08500
C 	C 	0.66721 0.71755 0.63527 -0.08800
C 	C 	0.65916 0.69192 0.61171 0.02800
C 	C 	0.62169 0.68203 0.57794 -0.01900
C 	C 	0.59516 0.69992 0.56459 0.02400
C 	C 	0.60150 0.72583 0.58521 -0.06700
C 	C 	0.65349 0.78399 0.81110 0.06300
C 	C 	0.65605 0.80646 0.83372 -0.12900
C 	C 	0.64543 0.80655 0.86481 0.02500
C 	C 	0.63663 0.78273 0.87323 -0.01700
C 	C 	0.63491 0.76066 0.85286 0.01100
C 	C 	0.64862 0.75949 0.82401 -0.02700
C 	C 	0.79452 0.90105 0.99974 0.07200
C 	C 	0.78589 0.87092 0.99975 -0.08300
C 	C 	0.78192 0.86197 0.03644 0.02300
C 	C 	0.76674 0.88320 0.05364 -0.01400
C 	C 	0.76420 0.90875 0.03363 0.02400
C 	C 	0.77485 0.91620 0.00576 -0.08300
C 	C 	0.92517 0.94709 0.98461 0.03300
C 	C 	0.93840 0.95160 0.03215 -0.00800
C 	C 	0.97465 0.96176 0.06953 0.00500
C 	C 	0.98846 0.96632 0.04770 -0.00100
C 	C 	0.92926 0.95470 0.95237 -0.10800
C 	C 	0.87551 0.99521 0.02541 0.09100
C 	C 	0.91291 0.00679 0.06059 -0.02700
C 	C 	0.92609 0.99349 0.11944 0.00800
C 	C 	0.90852 0.97147 0.11518 -0.01700
C 	C 	0.87617 0.96177 0.07875 0.03800
C 	C 	0.85989 0.97279 0.03387 -0.10800
C 	C 	0.88165 0.02555 0.98024 0.11900
C 	C 	0.91705 0.01651 0.00893 -0.06100
C 	C 	0.94749 0.04233 0.02317 0.02000
C 	C 	0.92998 0.06032 0.99846 -0.02300
C 	C 	0.89539 0.07134 0.96540 0.03300
C 	C 	0.87305 0.05330 0.96261 -0.08700
C 	C 	0.90006 0.96505 0.78642 0.03200
C 	C 	0.92290 0.99328 0.81818 -0.01800
C 	C 	0.95874 0.99099 0.82985 0.01000
C 	C 	0.97894 0.96647 0.85628 -0.01300
C 	C 	0.96493 0.94331 0.83387 0.02300
C 	C 	0.92232 0.94135 0.79673 -0.10500
C 	C 	0.79927 0.85560 0.51951 0.09700
C 	C 	0.82431 0.83428 0.53442 -0.04200
C 	C 	0.81425 0.81670 0.49146 0.01200
C 	C 	0.78576 0.82401 0.44339 -0.01700
C 	C 	0.76248 0.84692 0.42957 0.02500
C 	C 	0.76934 0.86229 0.46871 -0.08500
C 	C 	0.71316 0.81161 0.51696 0.06900
C 	C 	0.72749 0.81518 0.49288 -0.06900
C 	C 	0.72755 0.79185 0.46790 0.02000
C 	C 	0.71147 0.76787 0.46410 -0.01500
C 	C 	0.69736 0.76432 0.48849 0.02700
C 	C 	0.69875 0.78686 0.51484 -0.08300
C 	C 	0.61626 0.78485 0.50080 0.05400
C 	C 	0.59054 0.78478 0.44843 -0.01900
C 	C 	0.58466 0.75871 0.42387 0.01100
C 	C 	0.60160 0.73596 0.45049 -0.01500
C 	C 	0.62614 0.73565 0.50216 0.02700
C 	C 	0.63385 0.76107 0.52721 -0.11200
C 	C 	0.55640 0.75868 0.64690 0.05000
C 	C 	0.53153 0.74554 0.60394 -0.10500
C 	C 	0.53366 0.71646 0.60046 0.02400
C 	C 	0.55944 0.70194 0.64073 -0.01500
C 	C 	0.58169 0.71587 0.68636 0.01700
C 	C 	0.58011 0.74522 0.69232 -0.04000
C 	C 	0.59197 0.86489 0.75500 0.13700
C 	C 	0.56316 0.84942 0.73251 -0.09200
C 	C 	0.54668 0.84168 0.76284 0.01700
C 	C 	0.55249 0.86537 0.78794 -0.02100
C 	C 	0.57784 0.88232 0.80326 0.03800
C 	C 	0.59986 0.87858 0.78984 -0.09900
C 	C 	0.67741 0.91548 0.88230 0.05200
C 	C 	0.68807 0.89104 0.90524 -0.09400
C 	C 	0.67962 0.88181 0.93724 0.02000
C 	C 	0.65991 0.90227 0.93862 -0.01200
C 	C 	0.64685 0.92524 0.91383 0.00900
C 	C 	0.65485 0.93325 0.88316 -0.01900
C 	C 	0.71048 0.99520 0.90938 0.04500
C 	C 	0.69841 0.99732 0.93627 -0.02400
C 	C 	0.66248 0.00539 0.91128 0.01100
C 	C 	0.63787 0.00922 0.86082 -0.01200
C 	C 	0.64868 0.00719 0.83262 0.03400
C 	C 	0.68610 0.00059 0.85809 -0.10500
C 	C 	0.77643 0.06166 0.84570 0.05300
C 	C 	0.77589 0.08834 0.86411 -0.03700
C 	C 	0.79899 0.10928 0.86756 0.01300
C 	C 	0.81989 0.10417 0.85417 -0.01300
C 	C 	0.82109 0.07709 0.83877 0.02600
C 	C 	0.79824 0.05610 0.83678 -0.09600
C 	C 	0.71408 0.03220 0.69115 0.03200
C 	C 	0.72736 0.06001 0.70613 -0.02000
C 	C 	0.70493 0.08216 0.67213 0.00700
C 	C 	0.66738 0.07335 0.61468 -0.01600
C 	C 	0.66304 0.04647 0.60265 0.03100
C 	C 	0.68349 0.02615 0.62774 -0.09200
C 	C 	0.73058 0.00172 0.59738 0.11500
C 	C 	0.75768 0.02081 0.64188 -0.03800
C 	C 	0.69862 0.05130 0.54680 -0.01700
C 	C 	0.69682 0.03476 0.52754 0.02900
C 	C 	0.70764 0.00456 0.55379 -0.11000
C 	C 	0.70426 0.91999 0.45148 0.04900
C 	C 	0.69450 0.93007 0.40701 -0.05000
C 	C 	0.67644 0.91310 0.36477 0.01000
C 	C 	0.66103 0.88708 0.36513 -0.01400
C 	C 	0.67249 0.87732 0.41082 0.03300
C 	C 	0.69405 0.89383 0.45303 -0.10800
C 	C 	0.63232 0.93863 0.47575 0.05700
C 	C 	0.62967 0.96280 0.49168 -0.10600
C 	C 	0.60745 0.98506 0.45734 0.02200
C 	C 	0.58842 0.97748 0.40559 -0.01400
C 	C 	0.59066 0.95440 0.39072 0.01300
C 	C 	0.61414 0.93387 0.42425 -0.02100
C 	C 	0.55701 0.90775 0.49173 0.11700
C 	C 	0.56281 0.92668 0.47773 -0.12600
C 	C 	0.53588 0.94299 0.43297 0.04100
C 	C 	0.50483 0.93410 0.40181 -0.02900
C 	C 	0.49429 0.91080 0.40015 0.01800
C 	C 	0.52347 0.89254 0.45818 -0.05700
C 	C 	0.51194 0.80895 0.46872 0.06500
C 	C 	0.52784 0.82339 0.45417 -0.07900
C 	C 	0.50250 0.83522 0.40525 0.03000
C 	C 	0.46539 0.83335 0.37465 -0.02100
C 	C 	0.45055 0.81813 0.39011 0.02400
C 	C 	0.47382 0.80573 0.43745 -0.09400
C 	C 	0.96742 0.86836 0.90193 -0.09900
C 	C 	0.96154 0.84150 0.88608 0.05200
C 	C 	0.98845 0.82346 0.89658 -0.02400
C 	C 	0.02534 0.83302 0.92708 0.00900
C 	C 	0.03469 0.85899 0.94859 -0.01100
C 	C 	0.00744 0.87894 0.93540 0.02000
C 	C 	0.43348 0.81145 0.54523 0.05800
C 	C 	0.39558 0.81769 0.51730 -0.04000
C 	C 	0.38013 0.82428 0.53950 0.01500
C 	C 	0.40889 0.82585 0.59493 -0.01300
C 	C 	0.44321 0.81807 0.62089 0.02100
C 	C 	0.45663 0.80971 0.59515 -0.07200
C 	C 	0.49238 0.87703 0.57638 0.12600
C 	C 	0.45164 0.87698 0.54022 -0.05500
C 	C 	0.43325 0.88641 0.55604 0.01800
C 	C 	0.45951 0.89417 0.61507 -0.02000
C 	C 	0.49875 0.88818 0.65032 0.04800
C 	C 	0.50979 0.87913 0.63317 -0.09300
C 	C 	0.64132 0.00578 0.71124 0.09000
C 	C 	0.61099 0.00350 0.66321 -0.09200
C 	C 	0.57843 0.02430 0.63575 0.02100
C 	C 	0.59118 0.04783 0.66279 -0.01900
C 	C 	0.62324 0.05200 0.71042 0.02500
C 	C 	0.64536 0.02965 0.73327 -0.07000
C 	C 	0.55680 0.94660 0.58510 -0.05400
S 	S 	0.36866 0.37977 0.72156 -0.60300
S 	S 	0.24675 0.53770 0.84089 -0.50000
S 	S 	0.24727 0.47003 0.62553 -0.59700
S 	S 	0.30700 0.37505 0.56507 -0.54200
S 	S 	0.35048 0.46416 0.74095 -0.51600
S 	S 	0.41537 0.35390 0.96062 -0.54300
S 	S 	0.11649 0.36458 0.73444 -0.59300
S 	S 	0.25748 0.48579 0.94377 -0.50700
S 	S 	0.27451 0.27226 0.87379 -0.58600
S 	S 	0.34662 0.33694 0.97605 -0.53900
S 	S 	0.05292 0.29552 0.65389 -0.50100
S 	S 	0.18445 0.42687 0.84072 -0.52500
S 	S 	0.30044 0.43229 0.47878 -0.47600
S 	S 	0.16332 0.28357 0.77088 -0.52700
S 	S 	0.94744 0.30385 0.51064 -0.46600
S 	S 	0.30212 0.30793 0.63499 -0.52500
S 	S 	0.38545 0.40844 0.84909 -0.85700
S 	S 	0.38057 0.25586 0.98855 -0.50500
S 	S 	0.12490 0.31696 0.53136 -0.51800
S 	S 	0.22884 0.34874 0.86627 -0.86000
S 	S 	0.01677 0.36465 0.56610 -0.56700
S 	S 	0.33522 0.48441 0.83740 -0.59100
S 	S 	0.30215 0.41172 0.95794 -0.55200
S 	S 	0.34550 0.44569 0.62725 -0.51600
S 	S 	0.09040 0.42343 0.64770 -0.50400
S 	S 	0.34854 0.50504 0.96510 -0.57500
S 	S 	0.24633 0.50707 0.72826 -0.51900
S 	S 	0.38100 0.42991 0.95986 -0.52500
S 	S 	0.19745 0.36862 0.63725 -1.14300
S 	S 	0.34123 0.30083 0.86276 -1.10100
S 	S 	0.27188 0.42745 0.73867 -1.16100
S 	S 	0.36884 0.21912 0.87311 -0.49500
S 	S 	0.23058 0.31887 0.75539 -1.15500
S 	S 	0.19471 0.39920 0.74429 -1.14300
S 	S 	0.30709 0.34729 0.74597 -1.15300
S 	S 	0.30624 0.37776 0.85572 -1.15400
S 	S 	0.12319 0.33997 0.64635 -1.09000
S 	S 	0.26965 0.45555 0.84616 -1.08800
S 	S 	0.27529 0.39979 0.63467 -1.08900
S 	S 	0.08878 0.38534 0.53991 -0.57500
S 	S 	0.23026 0.28367 0.64559 -0.84500
S 	S 	0.25760 0.24098 0.76914 -0.52300
S 	S 	0.15946 0.41069 0.51782 -0.52200
S 	S 	0.45097 0.27794 0.96384 -0.51000
S 	S 	0.04022 0.29247 0.52841 -0.52200
S 	S 	0.21258 0.34157 0.54529 -0.53700
S 	S 	0.34269 0.26940 0.76619 -0.54900
S 	S 	0.17213 0.47836 0.74613 -0.56100
S 	S 	0.23074 0.44261 0.50373 -0.51500
S 	S 	0.41446 0.32865 0.84439 -0.52400
S 	S 	0.14751 0.26746 0.65012 -0.57400
S 	S 	0.16043 0.45137 0.62351 -0.86100
Cd	Cd	0.18855 0.35740 0.69762 1.12400
Cd	Cd	0.26281 0.38548 0.69068 1.12400
Cd	Cd	0.26071 0.41426 0.79598 1.12500
Cd	Cd	0.29483 0.33722 0.80313 1.12400
Cd	Cd	0.15183 0.40710 0.58277 1.14300
Cd	Cd	0.21658 0.27788 0.70074 1.14100
Cd	Cd	0.37061 0.36920 0.79427 1.14200
Cd	Cd	0.37222 0.39305 0.90197 1.14200
Cd	Cd	0.29127 0.36749 0.91060 1.14200
Cd	Cd	0.32251 0.25645 0.81484 1.14800
Cd	Cd	0.19524 0.32509 0.59566 1.14000
Cd	Cd	0.29370 0.30279 0.69855 1.13900
Cd	Cd	0.22648 0.46341 0.67524 1.14200
Cd	Cd	0.40597 0.31602 0.90449 1.14900
Cd	Cd	0.10841 0.30502 0.58311 1.15000
Cd	Cd	0.33779 0.29409 0.92983 1.14900
Cd	Cd	0.07964 0.38034 0.60304 1.15400
Cd	Cd	0.15538 0.43924 0.68642 1.14100
Cd	Cd	0.18336 0.38263 0.80101 1.14300
Cd	Cd	0.28178 0.35614 0.60317 1.15400
Cd	Cd	0.33795 0.44385 0.79439 1.14300
Cd	Cd	0.01596 0.31369 0.56625 1.16200
Cd	Cd	0.22326 0.42995 0.56567 1.15000
Cd	Cd	0.41384 0.23971 0.96036 1.15900
Cd	Cd	0.29366 0.42533 0.54244 1.16200
Cd	Cd	0.11677 0.31711 0.70393 1.14900
Cd	Cd	0.33724 0.46818 0.90684 1.15300
Cd	Cd	0.24992 0.44378 0.89483 1.15000
Cd	Cd	0.23673 0.49642 0.78835 1.14900
Cd	Cd	0.22488 0.30908 0.81993 1.14100
Cd	Cd	0.33541 0.42587 0.68354 1.15100
Cd	Cd	0.28743 0.47644 0.43191 1.16200
C 	C 	0.41689 0.27288 0.04459 0.04600
C 	C 	0.43016 0.26154 0.08961 -0.02600
C 	C 	0.45874 0.27434 0.13448 0.01300
C 	C 	0.47406 0.29849 0.13433 -0.01600
C 	C 	0.46080 0.30983 0.08931 0.03900
C 	C 	0.43222 0.29702 0.04444 -0.12300
C 	C 	0.46643 0.26595 0.93309 0.04600
C 	C 	0.50499 0.26513 0.96206 -0.02200
C 	C 	0.51877 0.25715 0.94001 0.00800
C 	C 	0.49458 0.25080 0.88776 -0.01100
C 	C 	0.45586 0.25214 0.85936 0.03600
C 	C 	0.44204 0.26015 0.88191 -0.10400
C 	C 	0.34667 0.19407 0.88217 0.04800
C 	C 	0.35763 0.16700 0.88700 -0.02500
C 	C 	0.34288 0.14620 0.89610 0.01200
C 	C 	0.31480 0.15392 0.89545 -0.01300
C 	C 	0.30430 0.18079 0.89306 0.03000
C 	C 	0.31992 0.20161 0.88441 -0.09700
C 	C 	0.34136 0.23946 0.73714 0.08000
C 	C 	0.36350 0.21760 0.76647 -0.05400
C 	C 	0.36445 0.19305 0.74593 0.02000
C 	C 	0.34189 0.19074 0.69484 -0.01600
C 	C 	0.31930 0.21343 0.66267 0.02600
C 	C 	0.31981 0.23729 0.68534 -0.08100
C 	C 	0.25897 0.20997 0.74242 0.04900
C 	C 	0.25299 0.18537 0.75735 -0.01700
C 	C 	0.25722 0.15953 0.73672 0.00900
C 	C 	0.26326 0.16288 0.70437 -0.01500
C 	C 	0.26689 0.18608 0.68984 0.02600
C 	C 	0.26461 0.21152 0.70965 -0.11200
C 	C 	0.26782 0.25179 0.90567 0.07600
C 	C 	0.29373 0.24328 0.95346 -0.07500
C 	C 	0.28681 0.22862 0.98198 0.00800
C 	C 	0.34013 0.32505 0.01516 0.07200
C 	C 	0.30105 0.32457 0.99745 -0.10300
C 	C 	0.29815 0.31657 0.03446 0.02600
C 	C 	0.32756 0.31026 0.08345 -0.02100
C 	C 	0.35612 0.30729 0.09607 0.02000
C 	C 	0.36258 0.31370 0.05504 -0.04800
C 	C 	0.46448 0.36425 0.99710 0.07000
C 	C 	0.49018 0.34783 0.01717 -0.07400
C 	C 	0.52814 0.35648 0.05200 0.02600
C 	C 	0.54029 0.38085 0.05120 -0.01600
C 	C 	0.50948 0.40172 0.02105 0.01900
C 	C 	0.46998 0.39371 0.99488 -0.07100
C 	C 	0.34090 0.47879 0.62707 0.09400
C 	C 	0.36692 0.49595 0.67245 -0.04300
C 	C 	0.35986 0.52697 0.67535 0.01900
C 	C 	0.33031 0.53666 0.62712 -0.01400
C 	C 	0.30476 0.52243 0.58375 0.02700
C 	C 	0.30935 0.49180 0.58622 -0.12500
C 	C 	0.34462 0.42188 0.51202 0.05400
C 	C 	0.34412 0.39156 0.49296 -0.01900
C 	C 	0.38323 0.37596 0.53560 0.00300
C 	C 	0.41368 0.40013 0.57011 -0.01100
C 	C 	0.41109 0.42405 0.58321 0.01900
C 	C 	0.37264 0.43576 0.55371 -0.08000
C 	C 	0.36479 0.51088 0.84612 0.07700
C 	C 	0.39449 0.51699 0.89581 -0.06700
C 	C 	0.41778 0.54093 0.89890 0.01200
C 	C 	0.40178 0.55148 0.84962 -0.00700
C 	C 	0.36769 0.54960 0.78851 0.01100
C 	C 	0.34603 0.52414 0.79184 -0.03100
C 	C 	0.41224 0.37976 0.74160 0.10000
C 	C 	0.44287 0.37111 0.78730 -0.07700
C 	C 	0.48091 0.36875 0.80199 0.02800
C 	C 	0.48974 0.38848 0.79154 -0.02500
C 	C 	0.46654 0.40980 0.76445 0.02900
C 	C 	0.42914 0.40819 0.74127 -0.07600
C 	C 	0.34845 0.30011 0.66537 0.08300
C 	C 	0.37683 0.30390 0.71468 -0.10400
C 	C 	0.41291 0.29413 0.73832 0.03500
C 	C 	0.41830 0.28206 0.70940 -0.01800
C 	C 	0.39193 0.27811 0.66088 0.01500
C 	C 	0.35374 0.28740 0.63429 -0.02900
C 	C 	0.13819 0.23490 0.62157 0.08500
C 	C 	0.16721 0.21755 0.63527 -0.08800
C 	C 	0.15916 0.19192 0.61171 0.02800
C 	C 	0.12169 0.18203 0.57794 -0.01900
C 	C 	0.09516 0.19992 0.56459 0.02400
C 	C 	0.10150 0.22583 0.58521 -0.06700
C 	C 	0.15349 0.28399 0.81110 0.06300
C 	C 	0.15605 0.30646 0.83372 -0.12900
C 	C 	0.14543 0.30655 0.86481 0.02500
C 	C 	0.13663 0.28273 0.87323 -0.01700
C 	C 	0.13491 0.26066 0.85286 0.01100
C 	C 	0.14862 0.25949 0.82401 -0.02700
C 	C 	0.29452 0.40105 0.99974 0.07200
C 	C 	0.28589 0.37092 0.99975 -0.08300
C 	C 	0.28192 0.36197 0.03644 0.02300
C 	C 	0.26674 0.38320 0.05364 -0.01400
C 	C 	0.26420 0.40875 0.03363 0.02400
C 	C 	0.27485 0.41620 0.00576 -0.08300
C 	C 	0.42517 0.44709 0.98461 0.03300
C 	C 	0.43840 0.45160 0.03215 -0.00800
C 	C 	0.47465 0.46176 0.06953 0.00500
C 	C 	0.48846 0.46632 0.04770 -0.00100
C 	C 	0.42926 0.45470 0.95237 -0.10800
C 	C 	0.37551 0.49521 0.02541 0.09100
C 	C 	0.41291 0.50679 0.06059 -0.02700
C 	C 	0.42609 0.49349 0.11944 0.00800
C 	C 	0.40852 0.47147 0.11518 -0.01700
C 	C 	0.37617 0.46177 0.07875 0.03800
C 	C 	0.35989 0.47279 0.03387 -0.10800
C 	C 	0.38165 0.52555 0.98024 0.11900
C 	C 	0.41705 0.51651 0.00893 -0.06100
C 	C 	0.44749 0.54233 0.02317 0.02100
C 	C 	0.42998 0.56032 0.99846 -0.02300
C 	C 	0.39539 0.57134 0.96540 0.03300
C 	C 	0.37305 0.55330 0.96261 -0.08700
C 	C 	0.40006 0.46505 0.78642 0.03200
C 	C 	0.42290 0.49328 0.81818 -0.01800
C 	C 	0.45874 0.49099 0.82985 0.01000
C 	C 	0.47894 0.46647 0.85628 -0.01300
C 	C 	0.46493 0.44331 0.83387 0.02300
C 	C 	0.42232 0.44135 0.79673 -0.10500
C 	C 	0.29927 0.35560 0.51951 0.09700
C 	C 	0.32431 0.33428 0.53442 -0.04200
C 	C 	0.31425 0.31670 0.49146 0.01200
C 	C 	0.28576 0.32401 0.44339 -0.01700
C 	C 	0.26248 0.34692 0.42957 0.02500
C 	C 	0.26934 0.36229 0.46871 -0.08500
C 	C 	0.21316 0.31161 0.51696 0.06900
C 	C 	0.22749 0.31518 0.49288 -0.06900
C 	C 	0.22755 0.29185 0.46790 0.02000
C 	C 	0.21147 0.26787 0.46410 -0.01500
C 	C 	0.19736 0.26432 0.48849 0.02700
C 	C 	0.19875 0.28686 0.51484 -0.08300
C 	C 	0.11626 0.28485 0.50080 0.05400
C 	C 	0.09054 0.28478 0.44843 -0.01900
C 	C 	0.08466 0.25871 0.42387 0.01100
C 	C 	0.10160 0.23596 0.45049 -0.01500
C 	C 	0.12614 0.23565 0.50216 0.02700
C 	C 	0.13385 0.26107 0.52721 -0.11200
C 	C 	0.05640 0.25868 0.64690 0.05000
C 	C 	0.03153 0.24554 0.60394 -0.10600
C 	C 	0.03366 0.21646 0.60046 0.02400
C 	C 	0.05944 0.20194 0.64073 -0.01500
C 	C 	0.08169 0.21587 0.68636 0.01700
C 	C 	0.08011 0.24522 0.69232 -0.04000
C 	C 	0.09197 0.36489 0.75500 0.13700
C 	C 	0.06316 0.34942 0.73251 -0.09200
C 	C 	0.04668 0.34168 0.76284 0.01700
C 	C 	0.05249 0.36537 0.78794 -0.02100
C 	C 	0.07784 0.38232 0.80326 0.03800
C 	C 	0.09986 0.37858 0.78984 -0.09900
C 	C 	0.17741 0.41548 0.88230 0.05200
C 	C 	0.18807 0.39104 0.90524 -0.09400
C 	C 	0.17962 0.38181 0.93724 0.02000
C 	C 	0.15991 0.40227 0.93862 -0.01200
C 	C 	0.14685 0.42524 0.91383 0.00900
C 	C 	0.15485 0.43325 0.88316 -0.01900
C 	C 	0.21048 0.49520 0.90938 0.04500
C 	C 	0.19841 0.49732 0.93627 -0.02400
C 	C 	0.16248 0.50539 0.91128 0.01100
C 	C 	0.13787 0.50922 0.86082 -0.01200
C 	C 	0.14868 0.50719 0.83262 0.03400
C 	C 	0.18610 0.50059 0.85809 -0.10500
C 	C 	0.27643 0.56166 0.84570 0.05300
C 	C 	0.27589 0.58834 0.86411 -0.03700
C 	C 	0.29899 0.60928 0.86756 0.01300
C 	C 	0.31989 0.60417 0.85417 -0.01300
C 	C 	0.32109 0.57709 0.83877 0.02600
C 	C 	0.29824 0.55610 0.83678 -0.09600
C 	C 	0.21408 0.53220 0.69115 0.03200
C 	C 	0.22736 0.56001 0.70613 -0.02000
C 	C 	0.20493 0.58216 0.67213 0.00700
C 	C 	0.16738 0.57335 0.61468 -0.01600
C 	C 	0.16304 0.54647 0.60265 0.03100
C 	C 	0.18349 0.52615 0.62774 -0.09200
C 	C 	0.23058 0.50172 0.59738 0.11500
C 	C 	0.25768 0.52081 0.64188 -0.03800
C 	C 	0.19862 0.55130 0.54680 -0.01700
C 	C 	0.19682 0.53476 0.52754 0.02900
C 	C 	0.20764 0.50456 0.55379 -0.11000
C 	C 	0.20426 0.41999 0.45148 0.04900
C 	C 	0.19450 0.43007 0.40701 -0.05000
C 	C 	0.17644 0.41310 0.36477 0.01000
C 	C 	0.16103 0.38708 0.36513 -0.01400
C 	C 	0.17249 0.37732 0.41082 0.03300
C 	C 	0.19405 0.39383 0.45303 -0.10800
C 	C 	0.13232 0.43863 0.47575 0.05700
C 	C 	0.12967 0.46280 0.49168 -0.10600
C 	C 	0.10745 0.48506 0.45734 0.02200
C 	C 	0.08842 0.47748 0.40559 -0.01400
C 	C 	0.09066 0.45440 0.39072 0.01300
C 	C 	0.11414 0.43387 0.42425 -0.02100
C 	C 	0.05701 0.40775 0.49173 0.11700
C 	C 	0.06281 0.42668 0.47773 -0.12600
C 	C 	0.03588 0.44299 0.43297 0.04100
C 	C 	0.00483 0.43410 0.40181 -0.02900
C 	C 	0.99429 0.41080 0.40015 0.01800
C 	C 	0.02347 0.39254 0.45818 -0.05700
C 	C 	0.01194 0.30895 0.46872 0.06500
C 	C 	0.02784 0.32339 0.45417 -0.07900
C 	C 	0.00250 0.33522 0.40525 0.03000
C 	C 	0.96539 0.33335 0.37465 -0.02100
C 	C 	0.95055 0.31813 0.39011 0.02400
C 	C 	0.97382 0.30573 0.43745 -0.09400
C 	C 	0.46742 0.36836 0.90193 -0.09900
C 	C 	0.46154 0.34150 0.88608 0.05200
C 	C 	0.48845 0.32346 0.89658 -0.02400
C 	C 	0.52534 0.33302 0.92708 0.00900
C 	C 	0.53469 0.35899 0.94859 -0.01100
C 	C 	0.50744 0.37894 0.93540 0.02000
C 	C 	0.93348 0.31145 0.54523 0.05800
C 	C 	0.89558 0.31769 0.51730 -0.04000
C 	C 	0.88013 0.32428 0.53950 0.01500
C 	C 	0.90889 0.32585 0.59493 -0.01300
C 	C 	0.94321 0.31807 0.62089 0.02100
C 	C 	0.95663 0.30971 0.59515 -0.07200
C 	C 	0.99238 0.37703 0.57638 0.12600
C 	C 	0.95164 0.37698 0.54022 -0.05500
C 	C 	0.93325 0.38641 0.55604 0.01800
C 	C 	0.95951 0.39417 0.61507 -0.02000
C 	C 	0.99875 0.38818 0.65032 0.04800
C 	C 	0.00979 0.37913 0.63317 -0.09300
C 	C 	0.14132 0.50578 0.71124 0.09000
C 	C 	0.11099 0.50350 0.66321 -0.09200
C 	C 	0.07843 0.52430 0.63575 0.02100
C 	C 	0.09118 0.54783 0.66279 -0.01900
C 	C 	0.12324 0.55200 0.71042 0.02500
C 	C 	0.14536 0.52965 0.73327 -0.07000
C 	C 	0.05680 0.44660 0.58510 -0.05400
S 	S 	0.86866 0.12023 0.22156 -0.60300
S 	S 	0.74675 0.96230 0.34089 -0.50000
S 	S 	0.74727 0.02997 0.12553 -0.59700
S 	S 	0.80700 0.12495 0.06507 -0.54300
S 	S 	0.85048 0.03584 0.24095 -0.51600
S 	S 	0.91537 0.14610 0.46062 -0.54300
S 	S 	0.61649 0.13542 0.23444 -0.59300
S 	S 	0.75748 0.01421 0.44377 -0.50700
S 	S 	0.77451 0.22774 0.37379 -0.58600
S 	S 	0.84662 0.16306 0.47605 -0.53900
S 	S 	0.55292 0.20448 0.15389 -0.50100
S 	S 	0.68445 0.07313 0.34072 -0.52500
S 	S 	0.80044 0.06771 0.97878 -0.47600
S 	S 	0.66332 0.21643 0.27088 -0.52700
S 	S 	0.44744 0.19615 0.01064 -0.46600
S 	S 	0.80212 0.19207 0.13499 -0.52500
S 	S 	0.88545 0.09156 0.34909 -0.85700
S 	S 	0.88057 0.24414 0.48855 -0.50500
S 	S 	0.62490 0.18304 0.03136 -0.51800
S 	S 	0.72884 0.15126 0.36627 -0.86000
S 	S 	0.51677 0.13535 0.06610 -0.56700
S 	S 	0.83522 0.01559 0.33740 -0.59100
S 	S 	0.80215 0.08828 0.45794 -0.55200
S 	S 	0.84550 0.05431 0.12725 -0.51600
S 	S 	0.59040 0.07657 0.14770 -0.50400
S 	S 	0.84854 0.99496 0.46510 -0.57500
S 	S 	0.74633 0.99293 0.22826 -0.51900
S 	S 	0.88100 0.07009 0.45986 -0.52500
S 	S 	0.69745 0.13138 0.13725 -1.14300
S 	S 	0.84123 0.19917 0.36276 -1.10100
S 	S 	0.77188 0.07255 0.23867 -1.16100
S 	S 	0.86884 0.28088 0.37311 -0.49500
S 	S 	0.73058 0.18113 0.25539 -1.15500
S 	S 	0.69471 0.10080 0.24429 -1.14300
S 	S 	0.80709 0.15271 0.24597 -1.15300
S 	S 	0.80624 0.12224 0.35572 -1.15400
S 	S 	0.62319 0.16003 0.14635 -1.09000
S 	S 	0.76965 0.04445 0.34616 -1.08800
S 	S 	0.77529 0.10021 0.13467 -1.08900
S 	S 	0.58878 0.11466 0.03991 -0.57500
S 	S 	0.73026 0.21633 0.14559 -0.84500
S 	S 	0.75760 0.25902 0.26914 -0.52300
S 	S 	0.65946 0.08931 0.01782 -0.52200
S 	S 	0.95097 0.22206 0.46384 -0.51000
S 	S 	0.54022 0.20753 0.02841 -0.52200
S 	S 	0.71258 0.15843 0.04529 -0.53700
S 	S 	0.84269 0.23060 0.26619 -0.54900
S 	S 	0.67213 0.02164 0.24613 -0.56100
S 	S 	0.73074 0.05739 0.00373 -0.51600
S 	S 	0.91446 0.17135 0.34439 -0.52400
S 	S 	0.64751 0.23254 0.15012 -0.57400
S 	S 	0.66043 0.04863 0.12351 -0.86100
Cd	Cd	0.68855 0.14260 0.19762 1.12400
Cd	Cd	0.76281 0.11452 0.19068 1.12400
Cd	Cd	0.76071 0.08574 0.29598 1.12500
Cd	Cd	0.79483 0.16278 0.30313 1.12400
Cd	Cd	0.65183 0.09290 0.08277 1.14300
Cd	Cd	0.71658 0.22212 0.20074 1.14100
Cd	Cd	0.87061 0.13080 0.29427 1.14200
Cd	Cd	0.87222 0.10695 0.40197 1.14200
Cd	Cd	0.79127 0.13251 0.41060 1.14200
Cd	Cd	0.82251 0.24355 0.31484 1.14800
Cd	Cd	0.69524 0.17491 0.09566 1.14000
Cd	Cd	0.79370 0.19721 0.19855 1.13900
Cd	Cd	0.72648 0.03659 0.17524 1.14200
Cd	Cd	0.90597 0.18398 0.40449 1.14900
Cd	Cd	0.60841 0.19498 0.08311 1.15000
Cd	Cd	0.83779 0.20591 0.42983 1.14900
Cd	Cd	0.57964 0.11966 0.10304 1.15400
Cd	Cd	0.65538 0.06076 0.18642 1.14100
Cd	Cd	0.68336 0.11737 0.30101 1.14300
Cd	Cd	0.78178 0.14386 0.10317 1.15400
Cd	Cd	0.83795 0.05615 0.29439 1.14300
Cd	Cd	0.51596 0.18631 0.06625 1.16200
Cd	Cd	0.72326 0.07005 0.06567 1.15000
Cd	Cd	0.91384 0.26029 0.46036 1.15900
Cd	Cd	0.79366 0.07467 0.04244 1.16200
Cd	Cd	0.61677 0.18289 0.20393 1.14900
Cd	Cd	0.83724 0.03182 0.40684 1.15300
Cd	Cd	0.74992 0.05622 0.39483 1.15000
Cd	Cd	0.73673 0.00358 0.28835 1.14900
Cd	Cd	0.72488 0.19092 0.31993 1.14100
Cd	Cd	0.83541 0.07413 0.18354 1.15100
Cd	Cd	0.78743 0.02356 0.93191 1.16200
C 	C 	0.91689 0.22712 0.54459 0.04600
C 	C 	0.93016 0.23846 0.58961 -0.02600
C 	C 	0.95874 0.22566 0.63448 0.01300
C 	C 	0.97406 0.20151 0.63433 -0.01600
C 	C 	0.96080 0.19017 0.58931 0.03900
C 	C 	0.93222 0.20298 0.54444 -0.12300
C 	C 	0.96643 0.23405 0.43309 0.04600
C 	C 	0.00499 0.23487 0.46206 -0.02200
C 	C 	0.01877 0.24285 0.44001 0.00800
C 	C 	0.99458 0.24920 0.38776 -0.01100
C 	C 	0.95586 0.24786 0.35936 0.03600
C 	C 	0.94204 0.23985 0.38191 -0.10400
C 	C 	0.84667 0.30593 0.38217 0.04800
C 	C 	0.85763 0.33300 0.38700 -0.02500
C 	C 	0.84288 0.35380 0.39610 0.01200
C 	C 	0.81480 0.34608 0.39545 -0.01300
C 	C 	0.80430 0.31921 0.39306 0.03000
C 	C 	0.81992 0.29839 0.38441 -0.09700
C 	C 	0.84136 0.26054 0.23714 0.08000
C 	C 	0.86350 0.28240 0.26647 -0.05400
C 	C 	0.86445 0.30695 0.24593 0.02000
C 	C 	0.84189 0.30926 0.19484 -0.01600
C 	C 	0.81930 0.28657 0.16267 0.02600
C 	C 	0.81981 0.26271 0.18534 -0.08100
C 	C 	0.75897 0.29003 0.24242 0.04900
C 	C 	0.75299 0.31463 0.25735 -0.01700
C 	C 	0.75722 0.34047 0.23672 0.00900
C 	C 	0.76326 0.33712 0.20437 -0.01500
C 	C 	0.76689 0.31392 0.18984 0.02600
C 	C 	0.76461 0.28848 0.20965 -0.11200
C 	C 	0.76782 0.24821 0.40567 0.07600
C 	C 	0.79373 0.25672 0.45346 -0.07500
C 	C 	0.78681 0.27138 0.48198 0.00900
C 	C 	0.84013 0.17495 0.51516 0.07200
C 	C 	0.80105 0.17543 0.49745 -0.10300
C 	C 	0.79815 0.18343 0.53446 0.02600
C 	C 	0.82756 0.18974 0.58345 -0.02100
C 	C 	0.85612 0.19271 0.59607 0.02000
C 	C 	0.86258 0.18630 0.55504 -0.04800
C 	C 	0.96448 0.13575 0.49710 0.07000
C 	C 	0.99018 0.15217 0.51717 -0.07400
C 	C 	0.02814 0.14352 0.55200 0.02600
C 	C 	0.04029 0.11915 0.55120 -0.01600
C 	C 	0.00948 0.09828 0.52105 0.01900
C 	C 	0.96998 0.10629 0.49488 -0.07100
C 	C 	0.84090 0.02121 0.12707 0.09400
C 	C 	0.86692 0.00405 0.17245 -0.04300
C 	C 	0.85986 0.97303 0.17535 0.01900
C 	C 	0.83031 0.96334 0.12712 -0.01400
C 	C 	0.80476 0.97757 0.08375 0.02700
C 	C 	0.80935 0.00820 0.08622 -0.12500
C 	C 	0.84462 0.07812 0.01202 0.05400
C 	C 	0.84412 0.10844 0.99296 -0.01900
C 	C 	0.88323 0.12404 0.03560 0.00200
C 	C 	0.91368 0.09987 0.07011 -0.01100
C 	C 	0.91109 0.07595 0.08321 0.01900
C 	C 	0.87264 0.06424 0.05371 -0.08000
C 	C 	0.86479 0.98912 0.34612 0.07700
C 	C 	0.89449 0.98301 0.39581 -0.06700
C 	C 	0.91778 0.95907 0.39890 0.01200
C 	C 	0.90178 0.94852 0.34962 -0.00700
C 	C 	0.86769 0.95040 0.28851 0.01100
C 	C 	0.84603 0.97586 0.29184 -0.03100
C 	C 	0.91224 0.12024 0.24160 0.10000
C 	C 	0.94287 0.12889 0.28730 -0.07700
C 	C 	0.98091 0.13125 0.30199 0.02800
C 	C 	0.98974 0.11152 0.29154 -0.02500
C 	C 	0.96654 0.09020 0.26445 0.02900
C 	C 	0.92914 0.09181 0.24127 -0.07600
C 	C 	0.84845 0.19989 0.16537 0.08300
C 	C 	0.87683 0.19610 0.21468 -0.10400
C 	C 	0.91291 0.20587 0.23832 0.03500
C 	C 	0.91830 0.21794 0.20940 -0.01800
C 	C 	0.89193 0.22189 0.16088 0.01500
C 	C 	0.85374 0.21260 0.13429 -0.02900
C 	C 	0.63819 0.26510 0.12157 0.08500
C 	C 	0.66721 0.28245 0.13527 -0.08800
C 	C 	0.65916 0.30808 0.11171 0.02800
C 	C 	0.62169 0.31797 0.07794 -0.01900
C 	C 	0.59516 0.30008 0.06459 0.02400
C 	C 	0.60150 0.27417 0.08521 -0.06700
C 	C 	0.65349 0.21601 0.31110 0.06300
C 	C 	0.65605 0.19354 0.33372 -0.12900
C 	C 	0.64543 0.19345 0.36481 0.02500
C 	C 	0.63663 0.21727 0.37323 -0.01700
C 	C 	0.63491 0.23934 0.35286 0.01100
C 	C 	0.64862 0.24051 0.32401 -0.02700
C 	C 	0.79452 0.09895 0.49974 0.07200
C 	C 	0.78589 0.12908 0.49975 -0.08300
C 	C 	0.78192 0.13803 0.53644 0.02300
C 	C 	0.76674 0.11680 0.55364 -0.01300
C 	C 	0.76420 0.09125 0.53363 0.02500
C 	C 	0.77485 0.08380 0.50576 -0.08200
C 	C 	0.92517 0.05291 0.48461 0.03300
C 	C 	0.93840 0.04840 0.53215 -0.00800
C 	C 	0.97465 0.03824 0.56953 0.00500
C 	C 	0.98846 0.03368 0.54770 -0.00100
C 	C 	0.92926 0.04530 0.45237 -0.10800
C 	C 	0.87551 0.00479 0.52541 0.09100
C 	C 	0.91291 0.99321 0.56059 -0.02700
C 	C 	0.92609 0.00651 0.61944 0.00800
C 	C 	0.90852 0.02853 0.61518 -0.01700
C 	C 	0.87617 0.03823 0.57875 0.03800
C 	C 	0.85989 0.02721 0.53387 -0.10800
C 	C 	0.88165 0.97445 0.48024 0.11900
C 	C 	0.91705 0.98349 0.50893 -0.06100
C 	C 	0.94749 0.95767 0.52317 0.02100
C 	C 	0.92998 0.93968 0.49846 -0.02300
C 	C 	0.89539 0.92866 0.46540 0.03300
C 	C 	0.87305 0.94670 0.46261 -0.08700
C 	C 	0.90006 0.03495 0.28642 0.03200
C 	C 	0.92290 0.00672 0.31818 -0.01800
C 	C 	0.95874 0.00901 0.32985 0.01000
C 	C 	0.97894 0.03353 0.35628 -0.01300
C 	C 	0.96493 0.05669 0.33387 0.02300
C 	C 	0.92232 0.05865 0.29673 -0.10500
C 	C 	0.79927 0.14440 0.01951 0.09700
C 	C 	0.82431 0.16572 0.03442 -0.04200
C 	C 	0.81425 0.18330 0.99146 0.01200
C 	C 	0.78576 0.17599 0.94339 -0.01700
C 	C 	0.76248 0.15308 0.92957 0.02500
C 	C 	0.76934 0.13771 0.96871 -0.08500
C 	C 	0.71316 0.18839 0.01696 0.06900
C 	C 	0.72749 0.18482 0.99288 -0.06900
C 	C 	0.72755 0.20815 0.96790 0.02000
C 	C 	0.71147 0.23213 0.96410 -0.01500
C 	C 	0.69736 0.23568 0.98849 0.02700
C 	C 	0.69875 0.21314 0.01484 -0.08400
C 	C 	0.61626 0.21515 0.00080 0.05400
C 	C 	0.59054 0.21522 0.94843 -0.01900
C 	C 	0.58466 0.24129 0.92387 0.01100
C 	C 	0.60160 0.26404 0.95049 -0.01500
C 	C 	0.62614 0.26435 0.00216 0.02700
C 	C 	0.63385 0.23893 0.02721 -0.11200
C 	C 	0.55640 0.24132 0.14690 0.05000
C 	C 	0.53153 0.25446 0.10394 -0.10500
C 	C 	0.53366 0.28354 0.10046 0.02400
C 	C 	0.55944 0.29806 0.14073 -0.01500
C 	C 	0.58169 0.28413 0.18636 0.01700
C 	C 	0.58011 0.25478 0.19232 -0.04000
C 	C 	0.59197 0.13511 0.25500 0.13700
C 	C 	0.56316 0.15058 0.23251 -0.09200
C 	C 	0.54668 0.15832 0.26284 0.01700
C 	C 	0.55249 0.13463 0.28794 -0.02100
C 	C 	0.57784 0.11768 0.30326 0.03800
C 	C 	0.59986 0.12142 0.28984 -0.09900
C 	C 	0.67741 0.08452 0.38230 0.05200
C 	C 	0.68807 0.10896 0.40524 -0.09400
C 	C 	0.67962 0.11819 0.43724 0.02000
C 	C 	0.65991 0.09773 0.43862 -0.01200
C 	C 	0.64685 0.07476 0.41383 0.00900
C 	C 	0.65485 0.06675 0.38316 -0.01900
C 	C 	0.71048 0.00480 0.40938 0.04500
C 	C 	0.69841 0.00268 0.43627 -0.02400
C 	C 	0.66248 0.99461 0.41128 0.01100
C 	C 	0.63787 0.99078 0.36082 -0.01200
C 	C 	0.64868 0.99281 0.33262 0.03400
C 	C 	0.68610 0.99941 0.35809 -0.10500
C 	C 	0.77643 0.93834 0.34570 0.05300
C 	C 	0.77589 0.91166 0.36411 -0.03700
C 	C 	0.79899 0.89072 0.36756 0.01300
C 	C 	0.81989 0.89583 0.35417 -0.01300
C 	C 	0.82109 0.92291 0.33877 0.02600
C 	C 	0.79824 0.94390 0.33678 -0.09600
C 	C 	0.71408 0.96780 0.19115 0.03200
C 	C 	0.72736 0.93999 0.20613 -0.02000
C 	C 	0.70493 0.91784 0.17213 0.00700
C 	C 	0.66738 0.92665 0.11468 -0.01600
C 	C 	0.66304 0.95353 0.10265 0.03000
C 	C 	0.68349 0.97385 0.12774 -0.09200
C 	C 	0.73058 0.99828 0.09738 0.11500
C 	C 	0.75768 0.97919 0.14188 -0.03900
C 	C 	0.69862 0.94870 0.04680 -0.01700
C 	C 	0.69682 0.96524 0.02754 0.02900
C 	C 	0.70764 0.99544 0.05379 -0.11000
C 	C 	0.70426 0.08001 0.95148 0.04900
C 	C 	0.69450 0.06993 0.90701 -0.05000
C 	C 	0.67644 0.08690 0.86477 0.01000
C 	C 	0.66103 0.11292 0.86513 -0.01400
C 	C 	0.67249 0.12268 0.91082 0.03300
C 	C 	0.69405 0.10617 0.95303 -0.10800
C 	C 	0.63232 0.06137 0.97575 0.05700
C 	C 	0.62967 0.03720 0.99168 -0.10600
C 	C 	0.60745 0.01494 0.95734 0.02200
C 	C 	0.58842 0.02252 0.90559 -0.01400
C 	C 	0.59066 0.04560 0.89072 0.01300
C 	C 	0.61414 0.06613 0.92425 -0.02100
C 	C 	0.55701 0.09225 0.99173 0.11700
C 	C 	0.56281 0.07332 0.97773 -0.12600
C 	C 	0.53588 0.05701 0.93297 0.04100
C 	C 	0.50483 0.06590 0.90181 -0.02900
C 	C 	0.49429 0.08920 0.90015 0.01800
C 	C 	0.52347 0.10746 0.95818 -0.05700
C 	C 	0.51194 0.19105 0.96872 0.06500
C 	C 	0.52784 0.17661 0.95417 -0.07900
C 	C 	0.50250 0.16478 0.90525 0.03000
C 	C 	0.46539 0.16665 0.87465 -0.02100
C 	C 	0.45055 0.18187 0.89011 0.02400
C 	C 	0.47382 0.19427 0.93745 -0.09400
C 	C 	0.96742 0.13164 0.40193 -0.09900
C 	C 	0.96154 0.15850 0.38608 0.05200
C 	C 	0.98845 0.17654 0.39658 -0.02400
C 	C 	0.02534 0.16698 0.42708 0.00900
C 	C 	0.03469 0.14101 0.44859 -0.01100
C 	C 	0.00744 0.12106 0.43540 0.02000
C 	C 	0.43348 0.18855 0.04523 0.05800
C 	C 	0.39558 0.18231 0.01730 -0.04000
C 	C 	0.38013 0.17572 0.03950 0.01500
C 	C 	0.40889 0.17415 0.09493 -0.01300
C 	C 	0.44321 0.18193 0.12089 0.02100
C 	C 	0.45663 0.19029 0.09515 -0.07200
C 	C 	0.49238 0.12297 0.07638 0.12600
C 	C 	0.45164 0.12302 0.04022 -0.05500
C 	C 	0.43325 0.11359 0.05604 0.01800
C 	C 	0.45951 0.10583 0.11507 -0.02000
C 	C 	0.49875 0.11182 0.15032 0.04800
C 	C 	0.50979 0.12087 0.13317 -0.09300
C 	C 	0.64132 0.99422 0.21124 0.09000
C 	C 	0.61099 0.99650 0.16321 -0.09200
C 	C 	0.57843 0.97570 0.13575 0.02100
C 	C 	0.59118 0.95217 0.16279 -0.01900
C 	C 	0.62324 0.94800 0.21042 0.02500
C 	C 	0.64536 0.97035 0.23327 -0.07000
C 	C 	0.55680 0.05340 0.08510 -0.05400
S 	S 	0.36866 0.62023 0.22156 -0.60300
S 	S 	0.24675 0.46230 0.34089 -0.50000
S 	S 	0.24727 0.52997 0.12553 -0.59700
S 	S 	0.30700 0.62495 0.06507 -0.54200
S 	S 	0.35048 0.53584 0.24095 -0.51600
S 	S 	0.41537 0.64610 0.46062 -0.54300
S 	S 	0.11649 0.63542 0.23444 -0.59300
S 	S 	0.25748 0.51421 0.44377 -0.50700
S 	S 	0.27451 0.72774 0.37379 -0.58600
S 	S 	0.34662 0.66306 0.47605 -0.53900
S 	S 	0.05292 0.70448 0.15389 -0.50100
S 	S 	0.18445 0.57313 0.34072 -0.52500
S 	S 	0.30044 0.56771 0.97878 -0.47700
S 	S 	0.16332 0.71643 0.27088 -0.52700
S 	S 	0.94744 0.69615 0.01064 -0.46600
S 	S 	0.30212 0.69207 0.13499 -0.52500
S 	S 	0.38545 0.59156 0.34909 -0.85700
S 	S 	0.38057 0.74414 0.48855 -0.50500
S 	S 	0.12490 0.68304 0.03136 -0.51800
S 	S 	0.22884 0.65126 0.36627 -0.86000
S 	S 	0.01677 0.63535 0.06610 -0.56700
S 	S 	0.33522 0.51559 0.33740 -0.59100
S 	S 	0.30215 0.58828 0.45794 -0.55200
S 	S 	0.34550 0.55431 0.12725 -0.51600
S 	S 	0.09040 0.57657 0.14770 -0.50400
S 	S 	0.34854 0.49496 0.46510 -0.57500
S 	S 	0.24633 0.49293 0.22826 -0.51900
S 	S 	0.38100 0.57009 0.45986 -0.52500
S 	S 	0.19745 0.63138 0.13725 -1.14300
S 	S 	0.34123 0.69917 0.36276 -1.10100
S 	S 	0.27188 0.57255 0.23867 -1.16100
S 	S 	0.36884 0.78088 0.37311 -0.49500
S 	S 	0.23058 0.68113 0.25539 -1.15500
S 	S 	0.19471 0.60080 0.24429 -1.14300
S 	S 	0.30709 0.65271 0.24597 -1.15300
S 	S 	0.30624 0.62224 0.35572 -1.15400
S 	S 	0.12319 0.66003 0.14635 -1.09000
S 	S 	0.26965 0.54445 0.34616 -1.08800
S 	S 	0.27529 0.60021 0.13467 -1.08900
S 	S 	0.08878 0.61466 0.03991 -0.57500
S 	S 	0.23026 0.71633 0.14559 -0.84500
S 	S 	0.25760 0.75902 0.26914 -0.52300
S 	S 	0.15946 0.58931 0.01782 -0.52200
S 	S 	0.45097 0.72206 0.46384 -0.51000
S 	S 	0.04022 0.70753 0.02841 -0.52200
S 	S 	0.21258 0.65843 0.04529 -0.53700
S 	S 	0.34269 0.73060 0.26619 -0.54900
S 	S 	0.17213 0.52164 0.24613 -0.56100
S 	S 	0.23074 0.55739 0.00373 -0.51600
S 	S 	0.41446 0.67135 0.34439 -0.52400
S 	S 	0.14751 0.73254 0.15012 -0.57400
S 	S 	0.16043 0.54863 0.12351 -0.86100
Cd	Cd	0.18855 0.64260 0.19762 1.12400
Cd	Cd	0.26281 0.61452 0.19068 1.12400
Cd	Cd	0.26071 0.58574 0.29598 1.12500
Cd	Cd	0.29483 0.66278 0.30313 1.12400
Cd	Cd	0.15183 0.59290 0.08277 1.14300
Cd	Cd	0.21658 0.72212 0.20074 1.14100
Cd	Cd	0.37061 0.63080 0.29427 1.14200
Cd	Cd	0.37222 0.60695 0.40197 1.14200
Cd	Cd	0.29127 0.63251 0.41060 1.14200
Cd	Cd	0.32251 0.74355 0.31484 1.14800
Cd	Cd	0.19524 0.67491 0.09566 1.14000
Cd	Cd	0.29370 0.69721 0.19855 1.13900
Cd	Cd	0.22648 0.53659 0.17524 1.14200
Cd	Cd	0.40597 0.68398 0.40449 1.14900
Cd	Cd	0.10841 0.69498 0.08311 1.15000
Cd	Cd	0.33779 0.70591 0.42983 1.14900
Cd	Cd	0.07964 0.61966 0.10304 1.15400
Cd	Cd	0.15538 0.56076 0.18642 1.14100
Cd	Cd	0.18336 0.61737 0.30101 1.14300
Cd	Cd	0.28178 0.64386 0.10317 1.15400
Cd	Cd	0.33795 0.55615 0.29439 1.14300
Cd	Cd	0.01596 0.68631 0.06625 1.16200
Cd	Cd	0.22326 0.57005 0.06567 1.15000
Cd	Cd	0.41384 0.76029 0.46036 1.15900
Cd	Cd	0.29366 0.57467 0.04244 1.16200
Cd	Cd	0.11677 0.68289 0.20393 1.14900
Cd	Cd	0.33724 0.53182 0.40684 1.15300
Cd	Cd	0.24992 0.55622 0.39483 1.15000
Cd	Cd	0.23673 0.50358 0.28835 1.14900
Cd	Cd	0.22488 0.69092 0.31993 1.14100
Cd	Cd	0.33541 0.57413 0.18354 1.15100
Cd	Cd	0.28743 0.52356 0.93191 1.16200
C 	C 	0.41689 0.72712 0.54459 0.04600
C 	C 	0.43016 0.73846 0.58961 -0.02600
C 	C 	0.45874 0.72566 0.63448 0.01300
C 	C 	0.47406 0.70151 0.63433 -0.01600
C 	C 	0.46080 0.69017 0.58931 0.03900
C 	C 	0.43222 0.70298 0.54444 -0.12300
C 	C 	0.46643 0.73405 0.43309 0.04600
C 	C 	0.50499 0.73487 0.46206 -0.02200
C 	C 	0.51877 0.74285 0.44001 0.00800
C 	C 	0.49458 0.74920 0.38776 -0.01100
C 	C 	0.45586 0.74786 0.35936 0.03600
C 	C 	0.44204 0.73985 0.38191 -0.10400
C 	C 	0.34667 0.80593 0.38217 0.04800
C 	C 	0.35763 0.83300 0.38700 -0.02500
C 	C 	0.34288 0.85380 0.39610 0.01200
C 	C 	0.31480 0.84608 0.39545 -0.01300
C 	C 	0.30430 0.81921 0.39306 0.03000
C 	C 	0.31992 0.79839 0.38441 -0.09700
C 	C 	0.34136 0.76054 0.23714 0.08000
C 	C 	0.36350 0.78240 0.26647 -0.05400
C 	C 	0.36445 0.80695 0.24593 0.02000
C 	C 	0.34189 0.80926 0.19484 -0.01600
C 	C 	0.31930 0.78657 0.16267 0.02600
C 	C 	0.31981 0.76271 0.18534 -0.08100
C 	C 	0.25897 0.79003 0.24242 0.04900
C 	C 	0.25299 0.81463 0.25735 -0.01700
C 	C 	0.25722 0.84047 0.23672 0.00900
C 	C 	0.26326 0.83712 0.20437 -0.01500
C 	C 	0.26689 0.81392 0.18984 0.02600
C 	C 	0.26461 0.78848 0.20965 -0.11200
C 	C 	0.26782 0.74821 0.40567 0.07600
C 	C 	0.29373 0.75672 0.45346 -0.07500
C 	C 	0.28681 0.77138 0.48198 0.00900
C 	C 	0.34013 0.67495 0.51516 0.07200
C 	C 	0.30105 0.67543 0.49745 -0.10300
C 	C 	0.29815 0.68343 0.53446 0.02600
C 	C 	0.32756 0.68974 0.58345 -0.02100
C 	C 	0.35612 0.69271 0.59607 0.02000
C 	C 	0.36258 0.68630 0.55504 -0.04800
C 	C 	0.46448 0.63575 0.49710 0.07000
C 	C 	0.49018 0.65217 0.51717 -0.07400
C 	C 	0.52814 0.64352 0.55200 0.02600
C 	C 	0.54029 0.61915 0.55120 -0.01600
C 	C 	0.50948 0.59828 0.52105 0.01900
C 	C 	0.46998 0.60629 0.49488 -0.07100
C 	C 	0.34090 0.52121 0.12707 0.09400
C 	C 	0.36692 0.50405 0.17245 -0.04300
C 	C 	0.35986 0.47303 0.17535 0.01900
C 	C 	0.33031 0.46334 0.12712 -0.01400
C 	C 	0.30476 0.47757 0.08375 0.02700
C 	C 	0.30935 0.50820 0.08622 -0.12500
C 	C 	0.34462 0.57812 0.01202 0.05400
C 	C 	0.34412 0.60844 0.99296 -0.02000
C 	C 	0.38323 0.62404 0.03560 0.00300
C 	C 	0.41368 0.59987 0.07011 -0.01100
C 	C 	0.41109 0.57595 0.08321 0.01900
C 	C 	0.37264 0.56424 0.05371 -0.08000
C 	C 	0.36479 0.48912 0.34612 0.07700
C 	C 	0.39449 0.48301 0.39581 -0.06700
C 	C 	0.41778 0.45907 0.39890 0.01200
C 	C 	0.40178 0.44852 0.34962 -0.00700
C 	C 	0.36769 0.45040 0.28851 0.01100
C 	C 	0.34603 0.47586 0.29184 -0.03100
C 	C 	0.41224 0.62024 0.24160 0.10000
C 	C 	0.44287 0.62889 0.28730 -0.07700
C 	C 	0.48091 0.63125 0.30199 0.02800
C 	C 	0.48974 0.61152 0.29154 -0.02500
C 	C 	0.46654 0.59020 0.26445 0.02900
C 	C 	0.42914 0.59181 0.24127 -0.07600
C 	C 	0.34845 0.69989 0.16537 0.08300
C 	C 	0.37683 0.69610 0.21468 -0.10400
C 	C 	0.41291 0.70587 0.23832 0.03500
C 	C 	0.41830 0.71794 0.20940 -0.01800
C 	C 	0.39193 0.72189 0.16088 0.01500
C 	C 	0.35374 0.71260 0.13429 -0.02900
C 	C 	0.13819 0.76510 0.12157 0.08500
C 	C 	0.16721 0.78245 0.13527 -0.08800
C 	C 	0.15916 0.80808 0.11171 0.02800
C 	C 	0.12169 0.81797 0.07794 -0.01900
C 	C 	0.09516 0.80008 0.06459 0.02400
C 	C 	0.10150 0.77417 0.08521 -0.06700
C 	C 	0.15349 0.71601 0.31110 0.06300
C 	C 	0.15605 0.69354 0.33372 -0.12900
C 	C 	0.14543 0.69345 0.36481 0.02500
C 	C 	0.13663 0.71727 0.37323 -0.01700
C 	C 	0.13491 0.73934 0.35286 0.01100
C 	C 	0.14862 0.74051 0.32401 -0.02700
C 	C 	0.29452 0.59895 0.49974 0.07200
C 	C 	0.28589 0.62908 0.49975 -0.08300
C 	C 	0.28192 0.63803 0.53644 0.02300
C 	C 	0.26674 0.61680 0.55364 -0.01300
C 	C 	0.26420 0.59125 0.53363 0.02500
C 	C 	0.27485 0.58380 0.50576 -0.08200
C 	C 	0.42517 0.55291 0.48461 0.03300
C 	C 	0.43840 0.54840 0.53215 -0.00800
C 	C 	0.47465 0.53824 0.56953 0.00500
C 	C 	0.48846 0.53368 0.54770 -0.00000
C 	C 	0.42926 0.54530 0.45237 -0.10800
C 	C 	0.37551 0.50479 0.52541 0.09100
C 	C 	0.41291 0.49321 0.56059 -0.02700
C 	C 	0.42609 0.50651 0.61944 0.00800
C 	C 	0.40852 0.52853 0.61518 -0.01700
C 	C 	0.37617 0.53823 0.57875 0.03800
C 	C 	0.35989 0.52721 0.53387 -0.10800
C 	C 	0.38165 0.47445 0.48024 0.11900
C 	C 	0.41705 0.48349 0.50893 -0.06100
C 	C 	0.44749 0.45767 0.52317 0.02100
C 	C 	0.42998 0.43968 0.49846 -0.02300
C 	C 	0.39539 0.42866 0.46540 0.03300
C 	C 	0.37305 0.44670 0.46261 -0.08700
C 	C 	0.40006 0.53495 0.28642 0.03200
C 	C 	0.42290 0.50672 0.31818 -0.01800
C 	C 	0.45874 0.50901 0.32985 0.01000
C 	C 	0.47894 0.53353 0.35628 -0.01300
C 	C 	0.46493 0.55669 0.33387 0.02300
C 	C 	0.42232 0.55865 0.29673 -0.10500
C 	C 	0.29927 0.64440 0.01951 0.09700
C 	C 	0.32431 0.66572 0.03442 -0.04200
C 	C 	0.31425 0.68330 0.99146 0.01200
C 	C 	0.28576 0.67599 0.94339 -0.01600
C 	C 	0.26248 0.65308 0.92957 0.02500
C 	C 	0.26934 0.63771 0.96871 -0.08500
C 	C 	0.21316 0.68839 0.01696 0.06900
C 	C 	0.22749 0.68482 0.99288 -0.06900
C 	C 	0.22755 0.70815 0.96790 0.02000
C 	C 	0.21147 0.73213 0.96410 -0.01500
C 	C 	0.19736 0.73568 0.98849 0.02700
C 	C 	0.19875 0.71314 0.01484 -0.08300
C 	C 	0.11626 0.71515 0.00080 0.05400
C 	C 	0.09054 0.71522 0.94843 -0.01900
C 	C 	0.08466 0.74129 0.92387 0.01100
C 	C 	0.10160 0.76404 0.95049 -0.01500
C 	C 	0.12614 0.76435 0.00216 0.02700
C 	C 	0.13385 0.73893 0.02721 -0.11200
C 	C 	0.05640 0.74132 0.14690 0.05000
C 	C 	0.03153 0.75446 0.10394 -0.10600
C 	C 	0.03366 0.78354 0.10046 0.02400
C 	C 	0.05944 0.79806 0.14073 -0.01500
C 	C 	0.08169 0.78413 0.18636 0.01700
C 	C 	0.08011 0.75478 0.19232 -0.04000
C 	C 	0.09197 0.63511 0.25500 0.13700
C 	C 	0.06316 0.65058 0.23251 -0.09200
C 	C 	0.04668 0.65832 0.26284 0.01700
C 	C 	0.05249 0.63463 0.28794 -0.02100
C 	C 	0.07784 0.61768 0.30326 0.03800
C 	C 	0.09986 0.62142 0.28984 -0.09900
C 	C 	0.17741 0.58452 0.38230 0.05200
C 	C 	0.18807 0.60896 0.40524 -0.09400
C 	C 	0.17962 0.61819 0.43724 0.02000
C 	C 	0.15991 0.59773 0.43862 -0.01200
C 	C 	0.14685 0.57476 0.41383 0.00900
C 	C 	0.15485 0.56675 0.38316 -0.01900
C 	C 	0.21048 0.50480 0.40938 0.04500
C 	C 	0.19841 0.50268 0.43627 -0.02400
C 	C 	0.16248 0.49461 0.41128 0.01100
C 	C 	0.13787 0.49078 0.36082 -0.01200
C 	C 	0.14868 0.49281 0.33262 0.03400
C 	C 	0.18610 0.49941 0.35809 -0.10500
C 	C 	0.27643 0.43834 0.34570 0.05300
C 	C 	0.27589 0.41166 0.36411 -0.03700
C 	C 	0.29899 0.39072 0.36756 0.01300
C 	C 	0.31989 0.39583 0.35417 -0.01300
C 	C 	0.32109 0.42291 0.33877 0.02600
C 	C 	0.29824 0.44390 0.33678 -0.09600
C 	C 	0.21408 0.46780 0.19115 0.03200
C 	C 	0.22736 0.43999 0.20613 -0.02000
C 	C 	0.20493 0.41784 0.17213 0.00700
C 	C 	0.16738 0.42665 0.11468 -0.01600
C 	C 	0.16304 0.45353 0.10265 0.03000
C 	C 	0.18349 0.47385 0.12774 -0.09200
C 	C 	0.23058 0.49828 0.09738 0.11500
C 	C 	0.25768 0.47919 0.14188 -0.03900
C 	C 	0.19862 0.44870 0.04680 -0.01700
C 	C 	0.19682 0.46524 0.02754 0.02900
C 	C 	0.20764 0.49544 0.05379 -0.11000
C 	C 	0.20426 0.58001 0.95148 0.04900
C 	C 	0.19450 0.56993 0.90701 -0.05000
C 	C 	0.17644 0.58690 0.86477 0.01000
C 	C 	0.16103 0.61292 0.86513 -0.01400
C 	C 	0.17249 0.62268 0.91082 0.03300
C 	C 	0.19405 0.60617 0.95303 -0.10800
C 	C 	0.13232 0.56137 0.97575 0.05700
C 	C 	0.12967 0.53720 0.99168 -0.10600
C 	C 	0.10745 0.51494 0.95734 0.02200
C 	C 	0.08842 0.52252 0.90559 -0.01400
C 	C 	0.09066 0.54560 0.89072 0.01300
C 	C 	0.11414 0.56613 0.92425 -0.02100
C 	C 	0.05701 0.59225 0.99173 0.11700
C 	C 	0.06281 0.57332 0.97773 -0.12600
C 	C 	0.03588 0.55701 0.93297 0.04100
C 	C 	0.00483 0.56590 0.90181 -0.02900
C 	C 	0.99429 0.58920 0.90015 0.01800
C 	C 	0.02347 0.60746 0.95818 -0.05700
C 	C 	0.01194 0.69105 0.96872 0.06400
C 	C 	0.02784 0.67661 0.95417 -0.07900
C 	C 	0.00250 0.66478 0.90525 0.03000
C 	C 	0.96539 0.66665 0.87465 -0.02100
C 	C 	0.95055 0.68187 0.89011 0.02400
C 	C 	0.97382 0.69427 0.93745 -0.09400
C 	C 	0.46742 0.63164 0.40193 -0.09900
C 	C 	0.46154 0.65850 0.38608 0.05200
C 	C 	0.48845 0.67654 0.39658 -0.02400
C 	C 	0.52534 0.66698 0.42708 0.00900
C 	C 	0.53469 0.64101 0.44859 -0.01100
C 	C 	0.50744 0.62106 0.43540 0.02000
C 	C 	0.93348 0.68855 0.04523 0.05800
C 	C 	0.89558 0.68231 0.01730 -0.04000
C 	C 	0.88013 0.67572 0.03950 0.01500
C 	C 	0.90889 0.67415 0.09493 -0.01300
C 	C 	0.94321 0.68193 0.12089 0.02100
C 	C 	0.95663 0.69029 0.09515 -0.07200
C 	C 	0.99238 0.62297 0.07638 0.12600
C 	C 	0.95164 0.62302 0.04022 -0.05500
C 	C 	0.93325 0.61359 0.05604 0.01800
C 	C 	0.95951 0.60583 0.11507 -0.02000
C 	C 	0.99875 0.61182 0.15032 0.04800
C 	C 	0.00979 0.62087 0.13317 -0.09200
C 	C 	0.14132 0.49422 0.21124 0.09000
C 	C 	0.11099 0.49650 0.16321 -0.09200
C 	C 	0.07843 0.47570 0.13575 0.02100
C 	C 	0.09118 0.45217 0.16279 -0.01900
C 	C 	0.12324 0.44800 0.21042 0.02500
C 	C 	0.14536 0.47035 0.23327 -0.07000
C 	C 	0.05680 0.55340 0.08510 -0.05400
