data_crystal

_cell_length_a 18.17700
_cell_length_b 23.86700
_cell_length_c 22.42500
_cell_angle_alpha 90.00000
_cell_angle_beta  90.00000
_cell_angle_gamma 90.00000

_symmetry_space_group_name_	'P 1'
_symmetry_space_group_name_H-M	'P 1'

loop_
_symmetry_equiv_pos_as_xyz
  x,y,z

loop_
_atom_site_label
_atom_site_type_symbol
_atom_site_fract_x
_atom_site_fract_y
_atom_site_fract_z
_atom_site_charge
Cu	Cu	0.42968 0.74238 0.65523 0.83500
Cu	Cu	0.92948 0.75435 0.31064 0.83200
Cu	Cu	0.92723 0.89034 0.37472 0.85000
Cu	Cu	0.42681 0.87806 0.59275 0.86400
Cu	Cu	0.69023 0.77757 0.49380 0.78100
Cu	Cu	0.17242 0.77648 0.48855 0.81400
Cu	Cu	0.78930 0.88320 0.49980 0.79600
Cu	Cu	0.57032 0.25762 0.15523 0.83700
Cu	Cu	0.07052 0.24565 0.81064 0.83400
Cu	Cu	0.07277 0.10966 0.87472 0.84900
Cu	Cu	0.57319 0.12194 0.09275 0.86900
Cu	Cu	0.30977 0.22243 0.99380 0.75900
Cu	Cu	0.82758 0.22352 0.98855 0.79100
Cu	Cu	0.21070 0.11680 0.99980 0.76900
Cu	Cu	0.07032 0.24238 0.65523 0.83700
Cu	Cu	0.57052 0.25435 0.31064 0.83400
Cu	Cu	0.57277 0.39034 0.37472 0.85100
Cu	Cu	0.07319 0.37806 0.59275 0.86500
Cu	Cu	0.80977 0.27757 0.49380 0.78200
Cu	Cu	0.32758 0.27648 0.48855 0.81500
Cu	Cu	0.71070 0.38320 0.49980 0.79600
Cu	Cu	0.92968 0.75762 0.15523 0.83600
Cu	Cu	0.42948 0.74565 0.81064 0.83400
Cu	Cu	0.42723 0.60966 0.87472 0.84900
Cu	Cu	0.92681 0.62194 0.09275 0.86800
Cu	Cu	0.19023 0.72243 0.99380 0.75900
Cu	Cu	0.67242 0.72352 0.98855 0.79100
Cu	Cu	0.28930 0.61680 0.99980 0.76900
H 	H 	0.96410 0.52260 0.29650 0.02100
H 	H 	0.97190 0.46990 0.38520 0.07200
H 	H 	0.95890 0.61250 0.48100 0.07400
H 	H 	0.94680 0.66280 0.39390 -0.01800
H 	H 	0.92770 0.03230 0.06220 0.08400
H 	H 	0.92490 0.84070 0.07610 0.00400
H 	H 	0.92940 0.99050 0.15540 0.02300
H 	H 	0.93550 0.88100 0.98450 -0.00600
H 	H 	0.59450 0.68280 0.66860 -0.01100
H 	H 	0.63230 0.58930 0.67300 0.08900
H 	H 	0.91590 0.54680 0.55990 0.02000
H 	H 	0.04020 0.43980 0.46950 -0.02500
H 	H 	0.59590 0.67370 0.48830 -0.02000
H 	H 	0.63590 0.58100 0.49360 0.08700
H 	H 	0.91240 0.93740 0.89420 0.01400
H 	H 	0.77110 0.69560 0.30320 -0.01900
H 	H 	0.78880 0.66240 0.47880 -0.02500
H 	H 	0.76650 0.56870 0.45910 0.08900
H 	H 	0.62230 0.51840 0.39520 -0.01000
H 	H 	0.96980 0.00450 0.82260 0.02100
H 	H 	0.81310 0.48010 0.32280 0.02600
H 	H 	0.12480 0.67340 0.44370 -0.05000
H 	H 	0.27090 0.68640 0.68350 -0.02700
H 	H 	0.09650 0.72620 0.27640 -0.02500
H 	H 	0.23790 0.59650 0.69970 0.09600
H 	H 	0.11950 0.50500 0.57250 -0.01500
H 	H 	0.73760 0.39710 0.32500 0.01100
H 	H 	0.28160 0.48470 0.68570 0.02800
H 	H 	0.14240 0.64200 0.24120 0.09300
H 	H 	0.24260 0.66070 0.50680 -0.03100
H 	H 	0.73520 0.60220 0.28560 0.08800
H 	H 	0.26410 0.53590 0.35940 -0.00400
H 	H 	0.16900 0.58760 0.41000 0.09800
H 	H 	0.21750 0.56800 0.52500 0.09200
H 	H 	0.95970 0.47380 0.62760 0.01700
H 	H 	0.18100 0.44200 0.23210 0.02900
H 	H 	0.21820 0.39340 0.67030 0.01600
H 	H 	0.01500 0.05500 0.98490 -0.05900
H 	H 	0.11720 0.53290 0.23260 0.02600
H 	H 	0.77430 0.42840 0.52880 -0.08700
H 	H 	0.77730 0.52980 0.55600 0.01200
H 	H 	0.57550 0.46980 0.59620 -0.00000
H 	H 	0.03590 0.47740 0.79650 0.02100
H 	H 	0.02810 0.53010 0.88520 0.06800
H 	H 	0.04110 0.38750 0.98100 0.06100
H 	H 	0.05320 0.33720 0.89390 -0.02000
H 	H 	0.07230 0.96770 0.56220 0.07900
H 	H 	0.07510 0.15930 0.57610 -0.03100
H 	H 	0.07060 0.00950 0.65540 0.01100
H 	H 	0.06450 0.11900 0.48450 0.08700
H 	H 	0.40550 0.31720 0.16860 -0.01300
H 	H 	0.36770 0.41070 0.17300 0.08900
H 	H 	0.08410 0.45320 0.05990 0.01200
H 	H 	0.95980 0.56020 0.96950 -0.12100
H 	H 	0.40410 0.32630 0.98830 -0.08900
H 	H 	0.36410 0.41900 0.99360 0.02000
H 	H 	0.08760 0.06260 0.39420 0.02200
H 	H 	0.22890 0.30440 0.80320 -0.02000
H 	H 	0.21120 0.33760 0.97880 -0.03800
H 	H 	0.23350 0.43130 0.95910 0.07300
H 	H 	0.37770 0.48160 0.89520 -0.01300
H 	H 	0.03020 0.99550 0.32260 0.02100
H 	H 	0.18690 0.51990 0.82280 0.02500
H 	H 	0.87520 0.32660 0.94370 -0.06300
H 	H 	0.72910 0.31360 0.18350 -0.02500
H 	H 	0.90350 0.27380 0.77640 -0.02700
H 	H 	0.76210 0.40350 0.19970 0.09600
H 	H 	0.88050 0.49500 0.07250 -0.01000
H 	H 	0.26240 0.60290 0.82500 0.00900
H 	H 	0.71840 0.51530 0.18570 0.02900
H 	H 	0.85760 0.35800 0.74120 0.09000
H 	H 	0.75740 0.33930 0.00680 -0.01200
H 	H 	0.26480 0.39780 0.78560 0.08600
H 	H 	0.73590 0.46410 0.85940 -0.01000
H 	H 	0.83100 0.41240 0.91000 0.08600
H 	H 	0.78250 0.43200 0.02500 0.10600
H 	H 	0.04030 0.52620 0.12760 0.02800
H 	H 	0.81900 0.55800 0.73210 0.02500
H 	H 	0.78180 0.60660 0.17030 0.01800
H 	H 	0.98500 0.94500 0.48490 -0.04500
H 	H 	0.88280 0.46710 0.73260 0.02500
H 	H 	0.22570 0.57160 0.02880 -0.07000
H 	H 	0.22270 0.47020 0.05600 0.02400
H 	H 	0.42450 0.53020 0.09620 0.00500
H 	H 	0.53590 0.02260 0.29650 0.02200
H 	H 	0.52810 0.96990 0.38520 0.07300
H 	H 	0.54110 0.11250 0.48100 0.07500
H 	H 	0.55320 0.16280 0.39390 -0.01800
H 	H 	0.57230 0.53230 0.06220 0.08300
H 	H 	0.57510 0.34070 0.07610 0.00700
H 	H 	0.57060 0.49050 0.15540 0.02500
H 	H 	0.56450 0.38100 0.98450 -0.01100
H 	H 	0.90550 0.18280 0.66860 -0.01200
H 	H 	0.86770 0.08930 0.67300 0.08900
H 	H 	0.58410 0.04680 0.55990 0.02100
H 	H 	0.45980 0.93980 0.46950 -0.02500
H 	H 	0.90410 0.17370 0.48830 -0.02000
H 	H 	0.86410 0.08100 0.49360 0.08600
H 	H 	0.58760 0.43740 0.89420 0.01300
H 	H 	0.72890 0.19560 0.30320 -0.01900
H 	H 	0.71120 0.16240 0.47880 -0.02500
H 	H 	0.73350 0.06870 0.45910 0.08900
H 	H 	0.87770 0.01840 0.39520 -0.01100
H 	H 	0.53020 0.50450 0.82260 0.02100
H 	H 	0.68690 0.98010 0.32280 0.02600
H 	H 	0.37520 0.17340 0.44370 -0.05000
H 	H 	0.22910 0.18640 0.68350 -0.02700
H 	H 	0.40350 0.22620 0.27640 -0.02600
H 	H 	0.26210 0.09650 0.69970 0.09600
H 	H 	0.38050 0.00500 0.57250 -0.01700
H 	H 	0.76240 0.89710 0.32500 0.01100
H 	H 	0.21840 0.98470 0.68570 0.02900
H 	H 	0.35760 0.14200 0.24120 0.09200
H 	H 	0.25740 0.16070 0.50680 -0.03100
H 	H 	0.76480 0.10220 0.28560 0.08800
H 	H 	0.23590 0.03590 0.35940 -0.00300
H 	H 	0.33100 0.08760 0.41000 0.09800
H 	H 	0.28250 0.06800 0.52500 0.09200
H 	H 	0.54030 0.97380 0.62760 0.01600
H 	H 	0.31900 0.94200 0.23210 0.02800
H 	H 	0.28180 0.89340 0.67030 0.01600
H 	H 	0.48500 0.55500 0.98490 -0.05800
H 	H 	0.38280 0.03290 0.23260 0.02600
H 	H 	0.72570 0.92840 0.52880 -0.08700
H 	H 	0.72270 0.02980 0.55600 0.01200
H 	H 	0.92450 0.96980 0.59620 -0.00100
H 	H 	0.46410 0.97740 0.79650 0.02100
H 	H 	0.47190 0.03010 0.88520 0.06600
H 	H 	0.45890 0.88750 0.98100 0.06100
H 	H 	0.44680 0.83720 0.89390 -0.02000
H 	H 	0.42770 0.46770 0.56220 0.07600
H 	H 	0.42490 0.65930 0.57610 -0.03100
H 	H 	0.42940 0.50950 0.65540 0.01300
H 	H 	0.43550 0.61900 0.48450 0.08600
H 	H 	0.09450 0.81720 0.16860 -0.01200
H 	H 	0.13230 0.91070 0.17300 0.08900
H 	H 	0.41590 0.95320 0.05990 0.01200
H 	H 	0.54020 0.06020 0.96950 -0.12600
H 	H 	0.09590 0.82630 0.98830 -0.08900
H 	H 	0.13590 0.91900 0.99360 0.02100
H 	H 	0.41240 0.56260 0.39420 0.02100
H 	H 	0.27110 0.80440 0.80320 -0.02000
H 	H 	0.28880 0.83760 0.97880 -0.03800
H 	H 	0.26650 0.93130 0.95910 0.07300
H 	H 	0.12230 0.98160 0.89520 -0.01100
H 	H 	0.46980 0.49550 0.32260 0.02200
H 	H 	0.31310 0.01990 0.82280 0.02500
H 	H 	0.62480 0.82660 0.94370 -0.06300
H 	H 	0.77090 0.81360 0.18350 -0.02500
H 	H 	0.59650 0.77380 0.77640 -0.02700
H 	H 	0.73790 0.90350 0.19970 0.09600
H 	H 	0.61950 0.99500 0.07250 -0.01000
H 	H 	0.23760 0.10290 0.82500 0.00900
H 	H 	0.78160 0.01530 0.18570 0.02900
H 	H 	0.64240 0.85800 0.74120 0.09000
H 	H 	0.74260 0.83930 0.00680 -0.01200
H 	H 	0.23520 0.89780 0.78560 0.08600
H 	H 	0.76410 0.96410 0.85940 -0.01000
H 	H 	0.66900 0.91240 0.91000 0.08600
H 	H 	0.71750 0.93200 0.02500 0.10600
H 	H 	0.45970 0.02620 0.12760 0.02900
H 	H 	0.68100 0.05800 0.73210 0.02500
H 	H 	0.71820 0.10660 0.17030 0.01700
H 	H 	0.51500 0.44500 0.48490 -0.03900
H 	H 	0.61720 0.96710 0.73260 0.02500
H 	H 	0.27430 0.07160 0.02880 -0.07000
H 	H 	0.27730 0.97020 0.05600 0.02300
H 	H 	0.07550 0.03020 0.09620 0.00600
C 	C 	0.92930 0.88490 0.18570 0.12800
C 	C 	0.94980 0.62730 0.27920 0.12600
C 	C 	0.95540 0.59840 0.33600 -0.08200
C 	C 	0.96280 0.54060 0.33330 0.03100
C 	C 	0.96860 0.50880 0.38670 -0.14900
C 	C 	0.96950 0.53600 0.44050 0.12700
C 	C 	0.96020 0.59440 0.44420 -0.15300
C 	C 	0.95320 0.62420 0.39200 0.04600
C 	C 	0.92970 0.91000 0.12720 -0.06300
C 	C 	0.93140 0.99350 0.06530 -0.14200
C 	C 	0.92910 0.87950 0.07370 -0.01300
C 	C 	0.93790 0.96190 0.01460 0.13500
C 	C 	0.93010 0.96820 0.12140 0.02400
C 	C 	0.93430 0.90310 0.01860 -0.02600
C 	C 	0.59190 0.68810 0.57720 -0.13800
C 	C 	0.60290 0.66270 0.63370 0.04100
C 	C 	0.62650 0.60710 0.63640 -0.16200
C 	C 	0.56720 0.74570 0.57120 0.12200
C 	C 	0.94620 0.51670 0.55020 0.00000
C 	C 	0.01470 0.45690 0.50050 0.09500
C 	C 	0.64140 0.57830 0.58310 0.13300
C 	C 	0.60410 0.65720 0.52530 0.03900
C 	C 	0.62850 0.60170 0.52820 -0.16900
C 	C 	0.93820 0.96980 0.90390 0.00700
C 	C 	0.80200 0.74780 0.40260 0.11800
C 	C 	0.76780 0.67040 0.33460 0.04700
C 	C 	0.78220 0.68830 0.39300 -0.14000
C 	C 	0.78030 0.65050 0.44000 0.05800
C 	C 	0.76550 0.59460 0.42810 -0.18500
C 	C 	0.74980 0.57690 0.37220 0.14800
C 	C 	0.66050 0.49810 0.37800 0.07900
C 	C 	0.97050 0.00720 0.86400 -0.00200
C 	C 	0.76560 0.47770 0.33800 -0.00200
C 	C 	0.10530 0.70630 0.36420 -0.16000
C 	C 	0.12770 0.66640 0.40290 0.08800
C 	C 	0.26060 0.66300 0.65140 0.07400
C 	C 	0.11100 0.69820 0.30280 0.07900
C 	C 	0.22460 0.57210 0.61530 0.16100
C 	C 	0.24080 0.60930 0.66060 -0.19400
C 	C 	0.15240 0.48790 0.59860 0.11200
C 	C 	0.15980 0.60740 0.32230 0.16500
C 	C 	0.72370 0.43200 0.33950 -0.02400
C 	C 	0.07420 0.76050 0.38620 0.13200
C 	C 	0.24180 0.47790 0.66070 0.00400
C 	C 	0.13830 0.64830 0.28200 -0.19500
C 	C 	0.24480 0.64730 0.54570 0.07100
C 	C 	0.74840 0.61420 0.32360 -0.17000
C 	C 	0.28580 0.74110 0.57840 0.13900
C 	C 	0.26550 0.68380 0.59140 -0.15100
C 	C 	0.23620 0.52430 0.32690 0.09500
C 	C 	0.15480 0.61540 0.38330 -0.20200
C 	C 	0.22740 0.59210 0.55660 -0.18700
C 	C 	0.97000 0.47590 0.58710 -0.01000
C 	C 	0.19110 0.47200 0.25720 -0.00300
C 	C 	0.20600 0.42720 0.65220 -0.00300
C 	C 	0.99460 0.03550 0.95300 0.08400
C 	C 	0.15540 0.52230 0.25790 0.00800
C 	C 	0.62400 0.47210 0.58320 0.07100
C 	C 	0.73570 0.44880 0.54530 -0.11300
C 	C 	0.73740 0.50580 0.56060 0.02800
C 	C 	0.07070 0.11510 0.68570 0.14300
C 	C 	0.05020 0.37270 0.77920 0.12800
C 	C 	0.04460 0.40160 0.83600 -0.08300
C 	C 	0.03720 0.45940 0.83330 0.03200
C 	C 	0.03140 0.49120 0.88670 -0.15500
C 	C 	0.03050 0.46400 0.94050 0.12700
C 	C 	0.03980 0.40560 0.94420 -0.15900
C 	C 	0.04680 0.37580 0.89200 0.04700
C 	C 	0.07030 0.09000 0.62720 -0.10400
C 	C 	0.06860 0.00650 0.56530 -0.16700
C 	C 	0.07090 0.12050 0.57370 0.07500
C 	C 	0.06210 0.03810 0.51460 0.14300
C 	C 	0.06990 0.03180 0.62140 0.05400
C 	C 	0.06570 0.09690 0.51860 -0.17200
C 	C 	0.40810 0.31190 0.07720 -0.16100
C 	C 	0.39710 0.33730 0.13370 0.05000
C 	C 	0.37350 0.39290 0.13640 -0.15700
C 	C 	0.43280 0.25430 0.07120 0.14100
C 	C 	0.05380 0.48330 0.05020 0.07300
C 	C 	0.98530 0.54310 0.00050 0.25900
C 	C 	0.35860 0.42170 0.08310 0.11400
C 	C 	0.39590 0.34280 0.02530 0.12300
C 	C 	0.37150 0.39830 0.02820 -0.08900
C 	C 	0.06180 0.03020 0.40390 0.00700
C 	C 	0.19800 0.25220 0.90260 0.11400
C 	C 	0.23220 0.32960 0.83460 0.04500
C 	C 	0.21780 0.31170 0.89300 -0.14100
C 	C 	0.21970 0.34950 0.94000 0.05400
C 	C 	0.23450 0.40540 0.92810 -0.18200
C 	C 	0.25020 0.42310 0.87220 0.14300
C 	C 	0.33950 0.50190 0.87800 0.07400
C 	C 	0.02950 0.99280 0.36400 0.00700
C 	C 	0.23440 0.52230 0.83800 -0.00600
C 	C 	0.89470 0.29370 0.86420 -0.16300
C 	C 	0.87230 0.33360 0.90290 0.08500
C 	C 	0.73940 0.33700 0.15140 0.07300
C 	C 	0.88900 0.30180 0.80280 0.07700
C 	C 	0.77540 0.42790 0.11530 0.16300
C 	C 	0.75920 0.39070 0.16060 -0.19300
C 	C 	0.84760 0.51210 0.09860 0.11600
C 	C 	0.84020 0.39260 0.82230 0.16200
C 	C 	0.27630 0.56800 0.83950 -0.02600
C 	C 	0.92580 0.23950 0.88620 0.12900
C 	C 	0.75820 0.52210 0.16070 0.00600
C 	C 	0.86170 0.35170 0.78200 -0.19600
C 	C 	0.75520 0.35270 0.04570 0.07300
C 	C 	0.25160 0.38580 0.82360 -0.16800
C 	C 	0.71420 0.25890 0.07840 0.14300
C 	C 	0.73450 0.31620 0.09140 -0.14500
C 	C 	0.76380 0.47570 0.82690 0.09300
C 	C 	0.84520 0.38460 0.88330 -0.20400
C 	C 	0.77260 0.40790 0.05660 -0.18300
C 	C 	0.03000 0.52410 0.08710 -0.03200
C 	C 	0.80890 0.52800 0.75720 -0.00400
C 	C 	0.79400 0.57280 0.15220 -0.00100
C 	C 	0.00540 0.96450 0.45300 0.09800
C 	C 	0.84460 0.47770 0.75790 0.00600
C 	C 	0.37600 0.52790 0.08320 0.08100
C 	C 	0.26430 0.55120 0.04530 -0.10000
C 	C 	0.26260 0.49420 0.06060 0.03600
C 	C 	0.57070 0.38490 0.18570 0.12700
C 	C 	0.55020 0.12730 0.27920 0.12700
C 	C 	0.54460 0.09840 0.33600 -0.08200
C 	C 	0.53720 0.04060 0.33330 0.03200
C 	C 	0.53140 0.00880 0.38670 -0.15000
C 	C 	0.53050 0.03600 0.44050 0.12700
C 	C 	0.53980 0.09440 0.44420 -0.15300
C 	C 	0.54680 0.12420 0.39200 0.04700
C 	C 	0.57030 0.41000 0.12720 -0.05900
C 	C 	0.56860 0.49350 0.06530 -0.13700
C 	C 	0.57090 0.37950 0.07370 -0.01900
C 	C 	0.56210 0.46190 0.01460 0.13400
C 	C 	0.56990 0.46820 0.12140 0.02100
C 	C 	0.56570 0.40310 0.01860 -0.01500
C 	C 	0.90810 0.18810 0.57720 -0.13800
C 	C 	0.89710 0.16270 0.63370 0.04000
C 	C 	0.87350 0.10710 0.63640 -0.16200
C 	C 	0.93280 0.24570 0.57120 0.12200
C 	C 	0.55380 0.01670 0.55020 -0.00200
C 	C 	0.48530 0.95690 0.50050 0.09300
C 	C 	0.85860 0.07830 0.58310 0.13200
C 	C 	0.89590 0.15720 0.52530 0.03900
C 	C 	0.87150 0.10170 0.52820 -0.16900
C 	C 	0.56180 0.46980 0.90390 0.00700
C 	C 	0.69800 0.24780 0.40260 0.11800
C 	C 	0.73220 0.17040 0.33460 0.04700
C 	C 	0.71780 0.18830 0.39300 -0.14000
C 	C 	0.71970 0.15050 0.44000 0.05800
C 	C 	0.73450 0.09460 0.42810 -0.18500
C 	C 	0.75020 0.07690 0.37220 0.14800
C 	C 	0.83950 0.99810 0.37800 0.07800
C 	C 	0.52950 0.50720 0.86400 -0.00200
C 	C 	0.73440 0.97770 0.33800 -0.00300
C 	C 	0.39470 0.20630 0.36420 -0.16000
C 	C 	0.37230 0.16640 0.40290 0.08800
C 	C 	0.23940 0.16300 0.65140 0.07400
C 	C 	0.38900 0.19820 0.30280 0.07900
C 	C 	0.27540 0.07210 0.61530 0.16100
C 	C 	0.25920 0.10930 0.66060 -0.19500
C 	C 	0.34760 0.98790 0.59860 0.11400
C 	C 	0.34020 0.10740 0.32230 0.16500
C 	C 	0.77630 0.93200 0.33950 -0.02400
C 	C 	0.42580 0.26050 0.38620 0.13200
C 	C 	0.25820 0.97790 0.66070 0.00500
C 	C 	0.36170 0.14830 0.28200 -0.19500
C 	C 	0.25520 0.14730 0.54570 0.07100
C 	C 	0.75160 0.11420 0.32360 -0.17000
C 	C 	0.21420 0.24110 0.57840 0.13900
C 	C 	0.23450 0.18380 0.59140 -0.15100
C 	C 	0.26380 0.02430 0.32690 0.09400
C 	C 	0.34520 0.11540 0.38330 -0.20200
C 	C 	0.27260 0.09210 0.55660 -0.18800
C 	C 	0.53000 0.97590 0.58710 -0.00700
C 	C 	0.30890 0.97200 0.25720 -0.00300
C 	C 	0.29400 0.92720 0.65220 -0.00300
C 	C 	0.50540 0.53550 0.95300 0.08200
C 	C 	0.34460 0.02230 0.25790 0.00700
C 	C 	0.87600 0.97210 0.58320 0.07100
C 	C 	0.76430 0.94880 0.54530 -0.11300
C 	C 	0.76260 0.00580 0.56060 0.02800
C 	C 	0.42930 0.61510 0.68570 0.14200
C 	C 	0.44980 0.87270 0.77920 0.12700
C 	C 	0.45540 0.90160 0.83600 -0.08300
C 	C 	0.46280 0.95940 0.83330 0.03100
C 	C 	0.46860 0.99120 0.88670 -0.15300
C 	C 	0.46950 0.96400 0.94050 0.12600
C 	C 	0.46020 0.90560 0.94420 -0.15800
C 	C 	0.45320 0.87580 0.89200 0.04600
C 	C 	0.42970 0.59000 0.62720 -0.10200
C 	C 	0.43140 0.50650 0.56530 -0.16200
C 	C 	0.42910 0.62050 0.57370 0.07300
C 	C 	0.43790 0.53810 0.51460 0.14000
C 	C 	0.43010 0.53180 0.62140 0.05100
C 	C 	0.43430 0.59690 0.51860 -0.17000
C 	C 	0.09190 0.81190 0.07720 -0.16100
C 	C 	0.10290 0.83730 0.13370 0.05100
C 	C 	0.12650 0.89290 0.13640 -0.15700
C 	C 	0.06720 0.75430 0.07120 0.14200
C 	C 	0.44620 0.98330 0.05020 0.07100
C 	C 	0.51470 0.04310 0.00050 0.26700
C 	C 	0.14140 0.92170 0.08310 0.11500
C 	C 	0.10410 0.84280 0.02530 0.12400
C 	C 	0.12850 0.89830 0.02820 -0.09000
C 	C 	0.43820 0.53020 0.40390 0.01000
C 	C 	0.30200 0.75220 0.90260 0.11400
C 	C 	0.26780 0.82960 0.83460 0.04500
C 	C 	0.28220 0.81170 0.89300 -0.14100
C 	C 	0.28030 0.84950 0.94000 0.05400
C 	C 	0.26550 0.90540 0.92810 -0.18200
C 	C 	0.24980 0.92310 0.87220 0.14300
C 	C 	0.16050 0.00190 0.87800 0.07000
C 	C 	0.47050 0.49280 0.36400 0.00200
C 	C 	0.26560 0.02230 0.83800 -0.00800
C 	C 	0.60530 0.79370 0.86420 -0.16300
C 	C 	0.62770 0.83360 0.90290 0.08600
C 	C 	0.76060 0.83700 0.15140 0.07400
C 	C 	0.61100 0.80180 0.80280 0.07700
C 	C 	0.72460 0.92790 0.11530 0.16400
C 	C 	0.74080 0.89070 0.16060 -0.19200
C 	C 	0.65240 0.01210 0.09860 0.11600
C 	C 	0.65980 0.89260 0.82230 0.16200
C 	C 	0.22370 0.06800 0.83950 -0.02500
C 	C 	0.57420 0.73950 0.88620 0.12900
C 	C 	0.74180 0.02210 0.16070 0.00600
C 	C 	0.63830 0.85170 0.78200 -0.19600
C 	C 	0.74480 0.85270 0.04570 0.07300
C 	C 	0.24840 0.88580 0.82360 -0.16800
C 	C 	0.78580 0.75890 0.07840 0.14300
C 	C 	0.76550 0.81620 0.09140 -0.14400
C 	C 	0.73620 0.97570 0.82690 0.09300
C 	C 	0.65480 0.88460 0.88330 -0.20400
C 	C 	0.72740 0.90790 0.05660 -0.18300
C 	C 	0.47000 0.02410 0.08710 -0.03600
C 	C 	0.69110 0.02800 0.75720 -0.00500
C 	C 	0.70600 0.07280 0.15220 -0.00100
C 	C 	0.49460 0.46450 0.45300 0.08700
C 	C 	0.65540 0.97770 0.75790 0.00600
C 	C 	0.12400 0.02790 0.08320 0.08100
C 	C 	0.23570 0.05120 0.04530 -0.10000
C 	C 	0.23740 0.99420 0.06060 0.03600
N 	N 	0.25240 0.77640 0.54090 -0.24800
N 	N 	0.09740 0.78910 0.43240 -0.24800
N 	N 	0.05490 0.83490 0.43570 -0.08900
N 	N 	0.00820 0.83380 0.39260 -0.16100
N 	N 	0.01700 0.78570 0.36030 -0.20900
N 	N 	0.93000 0.82950 0.19710 -0.22600
N 	N 	0.92890 0.82510 0.25730 -0.18300
N 	N 	0.92930 0.87580 0.27970 -0.14300
N 	N 	0.34310 0.76570 0.60280 -0.21700
N 	N 	0.34460 0.81940 0.58030 -0.16000
N 	N 	0.29090 0.82530 0.54150 -0.09700
N 	N 	0.95710 0.60030 0.22700 -0.10600
N 	N 	0.93800 0.68790 0.20870 -0.18400
N 	N 	0.93800 0.68330 0.26880 -0.22600
N 	N 	0.59880 0.78170 0.53260 -0.25100
N 	N 	0.50890 0.76810 0.59520 -0.21100
N 	N 	0.50370 0.82060 0.57170 -0.16500
N 	N 	0.55980 0.82880 0.53390 -0.09600
N 	N 	0.94770 0.63800 0.18520 -0.14400
N 	N 	0.97600 0.50450 0.49530 -0.14900
N 	N 	0.93060 0.91470 0.23570 -0.10800
N 	N 	0.01190 0.43760 0.55560 -0.22800
N 	N 	0.77580 0.77980 0.44750 -0.26600
N 	N 	0.00340 0.04840 0.89650 -0.23200
N 	N 	0.95110 0.98910 0.95820 -0.16900
N 	N 	0.81000 0.82920 0.44330 -0.23200
N 	N 	0.85410 0.82680 0.39690 -0.16500
N 	N 	0.72620 0.52050 0.36270 -0.15000
N 	N 	0.85170 0.77640 0.37250 -0.21300
N 	N 	0.18550 0.55440 0.30210 -0.15500
N 	N 	0.24380 0.47360 0.29960 -0.12500
N 	N 	0.14870 0.43540 0.61220 -0.23000
N 	N 	0.20680 0.51560 0.62480 -0.15700
N 	N 	0.65660 0.44390 0.36570 -0.23900
N 	N 	0.66830 0.52020 0.58400 -0.14300
N 	N 	0.66560 0.42800 0.55930 -0.23800
N 	N 	0.74760 0.22360 0.04090 -0.23300
N 	N 	0.90260 0.21090 0.93240 -0.25400
N 	N 	0.94510 0.16510 0.93570 -0.09700
N 	N 	0.99180 0.16620 0.89260 -0.16400
N 	N 	0.98300 0.21430 0.86030 -0.21100
N 	N 	0.07000 0.17050 0.69710 -0.22800
N 	N 	0.07110 0.17490 0.75730 -0.18200
N 	N 	0.07070 0.12420 0.77970 -0.14300
N 	N 	0.65690 0.23430 0.10280 -0.21600
N 	N 	0.65540 0.18060 0.08030 -0.15700
N 	N 	0.70910 0.17470 0.04150 -0.08500
N 	N 	0.04290 0.39970 0.72700 -0.10600
N 	N 	0.06200 0.31210 0.70870 -0.18400
N 	N 	0.06200 0.31670 0.76880 -0.22600
N 	N 	0.40120 0.21830 0.03260 -0.23500
N 	N 	0.49110 0.23190 0.09520 -0.21300
N 	N 	0.49630 0.17940 0.07170 -0.16100
N 	N 	0.44020 0.17120 0.03390 -0.08400
N 	N 	0.05230 0.36200 0.68520 -0.14400
N 	N 	0.02400 0.49550 0.99530 -0.22900
N 	N 	0.06940 0.08530 0.73570 -0.11000
N 	N 	0.98810 0.56240 0.05560 -0.25100
N 	N 	0.22420 0.22020 0.94750 -0.27200
N 	N 	0.99660 0.95160 0.39650 -0.23600
N 	N 	0.04890 0.01090 0.45820 -0.15000
N 	N 	0.19000 0.17080 0.94330 -0.23900
N 	N 	0.14590 0.17320 0.89690 -0.16700
N 	N 	0.27380 0.47950 0.86270 -0.15000
N 	N 	0.14830 0.22360 0.87250 -0.21300
N 	N 	0.81450 0.44560 0.80210 -0.15600
N 	N 	0.75620 0.52640 0.79960 -0.12800
N 	N 	0.85130 0.56460 0.11220 -0.22800
N 	N 	0.79320 0.48440 0.12480 -0.15700
N 	N 	0.34340 0.55610 0.86570 -0.24000
N 	N 	0.33170 0.47980 0.08400 -0.13600
N 	N 	0.33440 0.57200 0.05930 -0.22200
N 	N 	0.24760 0.27640 0.54090 -0.24800
N 	N 	0.40260 0.28910 0.43240 -0.24800
N 	N 	0.44510 0.33490 0.43570 -0.08900
N 	N 	0.49180 0.33380 0.39260 -0.16200
N 	N 	0.48300 0.28570 0.36030 -0.21000
N 	N 	0.57000 0.32950 0.19710 -0.22500
N 	N 	0.57110 0.32510 0.25730 -0.18200
N 	N 	0.57070 0.37580 0.27970 -0.14200
N 	N 	0.15690 0.26570 0.60280 -0.21700
N 	N 	0.15540 0.31940 0.58030 -0.16000
N 	N 	0.20910 0.32530 0.54150 -0.09700
N 	N 	0.54290 0.10030 0.22700 -0.10600
N 	N 	0.56200 0.18790 0.20870 -0.18400
N 	N 	0.56200 0.18330 0.26880 -0.22600
N 	N 	0.90120 0.28170 0.53260 -0.25100
N 	N 	0.99110 0.26810 0.59520 -0.21200
N 	N 	0.99630 0.32060 0.57170 -0.16600
N 	N 	0.94020 0.32880 0.53390 -0.09600
N 	N 	0.55230 0.13800 0.18520 -0.14400
N 	N 	0.52400 0.00450 0.49530 -0.14800
N 	N 	0.56940 0.41470 0.23570 -0.10700
N 	N 	0.48810 0.93760 0.55560 -0.22900
N 	N 	0.72420 0.27980 0.44750 -0.26600
N 	N 	0.49660 0.54840 0.89650 -0.23200
N 	N 	0.54890 0.48910 0.95820 -0.16900
N 	N 	0.69000 0.32920 0.44330 -0.23200
N 	N 	0.64590 0.32680 0.39690 -0.16500
N 	N 	0.77380 0.02050 0.36270 -0.15000
N 	N 	0.64830 0.27640 0.37250 -0.21300
N 	N 	0.31450 0.05440 0.30210 -0.15500
N 	N 	0.25620 0.97360 0.29960 -0.12400
N 	N 	0.35130 0.93540 0.61220 -0.23000
N 	N 	0.29320 0.01560 0.62480 -0.15900
N 	N 	0.84340 0.94390 0.36570 -0.23900
N 	N 	0.83170 0.02020 0.58400 -0.14300
N 	N 	0.83440 0.92800 0.55930 -0.23800
N 	N 	0.75240 0.72360 0.04090 -0.23200
N 	N 	0.59740 0.71090 0.93240 -0.25400
N 	N 	0.55490 0.66510 0.93570 -0.09800
N 	N 	0.50820 0.66620 0.89260 -0.16400
N 	N 	0.51700 0.71430 0.86030 -0.21100
N 	N 	0.43000 0.67050 0.69710 -0.22800
N 	N 	0.42890 0.67490 0.75730 -0.18200
N 	N 	0.42930 0.62420 0.77970 -0.14300
N 	N 	0.84310 0.73430 0.10280 -0.21600
N 	N 	0.84460 0.68060 0.08030 -0.15700
N 	N 	0.79090 0.67470 0.04150 -0.08500
N 	N 	0.45710 0.89970 0.72700 -0.10600
N 	N 	0.43800 0.81210 0.70870 -0.18400
N 	N 	0.43800 0.81670 0.76880 -0.22600
N 	N 	0.09880 0.71830 0.03260 -0.23500
N 	N 	0.00890 0.73190 0.09520 -0.21200
N 	N 	0.00370 0.67940 0.07170 -0.16000
N 	N 	0.05980 0.67120 0.03390 -0.08400
N 	N 	0.44770 0.86200 0.68520 -0.14400
N 	N 	0.47600 0.99550 0.99530 -0.23000
N 	N 	0.43060 0.58530 0.73570 -0.11000
N 	N 	0.51190 0.06240 0.05560 -0.24900
N 	N 	0.27580 0.72020 0.94750 -0.27200
N 	N 	0.50340 0.45160 0.39650 -0.23000
N 	N 	0.45110 0.51090 0.45820 -0.14800
N 	N 	0.31000 0.67080 0.94330 -0.23900
N 	N 	0.35410 0.67320 0.89690 -0.16700
N 	N 	0.22620 0.97950 0.86270 -0.14800
N 	N 	0.35170 0.72360 0.87250 -0.21300
N 	N 	0.68550 0.94560 0.80210 -0.15600
N 	N 	0.74380 0.02640 0.79960 -0.12900
N 	N 	0.64870 0.06460 0.11220 -0.22800
N 	N 	0.70680 0.98440 0.12480 -0.15700
N 	N 	0.15660 0.05610 0.86570 -0.24000
N 	N 	0.16830 0.97980 0.08400 -0.13600
N 	N 	0.16560 0.07200 0.05930 -0.22200
