data_crystal

_cell_length_a 13.49500
_cell_length_b 19.01640
_cell_length_c 25.96640
_cell_angle_alpha 81.03770
_cell_angle_beta  74.93850
_cell_angle_gamma 69.21720

_symmetry_space_group_name_	'P 1'
_symmetry_space_group_name_H-M	'P 1'

loop_
_symmetry_equiv_pos_as_xyz
  x,y,z

loop_
_atom_site_label
_atom_site_type_symbol
_atom_site_fract_x
_atom_site_fract_y
_atom_site_fract_z
_atom_site_charge
Mg	Mg	0.57446 0.41916 0.19012 1.47100
Mg	Mg	0.68679 0.58595 0.74243 1.47700
Mg	Mg	0.71622 0.67882 0.63124 1.47000
Mg	Mg	0.70182 0.27511 0.12591 1.47800
Mg	Mg	0.18374 0.08084 0.30988 1.47000
Mg	Mg	0.01517 0.91405 0.75757 1.47600
Mg	Mg	0.02628 0.82118 0.86876 1.46900
Mg	Mg	0.10284 0.22489 0.37409 1.47800
Mg	Mg	0.42554 0.58084 0.80988 1.47000
Mg	Mg	0.31321 0.41405 0.25757 1.47600
Mg	Mg	0.28378 0.32118 0.36876 1.47000
Mg	Mg	0.29818 0.72489 0.87409 1.47800
Mg	Mg	0.81626 0.91916 0.69012 1.47000
Mg	Mg	0.98483 0.08595 0.24243 1.47600
Mg	Mg	0.97372 0.17882 0.13124 1.46900
Mg	Mg	0.89716 0.77511 0.62591 1.47800
H 	H 	0.70430 0.50120 0.01060 0.12300
H 	H 	0.57590 0.51980 0.02080 0.12800
H 	H 	0.73510 0.39580 0.96500 0.03700
H 	H 	0.60710 0.41010 0.97750 0.02900
H 	H 	0.71520 0.50810 0.90930 0.03200
H 	H 	0.58550 0.53110 0.92590 0.02300
H 	H 	0.58700 0.43580 0.87900 0.13300
H 	H 	0.71630 0.39870 0.86990 0.13800
H 	H 	0.49960 0.28310 0.08990 0.14900
H 	H 	0.50890 0.21340 0.13360 0.15300
H 	H 	0.36580 0.24220 0.08500 0.00100
H 	H 	0.30280 0.31450 0.11890 0.01500
H 	H 	0.35950 0.16480 0.16660 0.02400
H 	H 	0.28670 0.23870 0.19770 0.04600
H 	H 	0.15030 0.25830 0.15150 0.13100
H 	H 	0.22330 0.18580 0.11900 0.11000
H 	H 	0.85960 0.39290 0.63750 0.13600
H 	H 	0.76800 0.42800 0.60340 0.12600
H 	H 	0.98420 0.43560 0.57240 0.02200
H 	H 	0.89240 0.48590 0.54090 0.03000
H 	H 	0.88010 0.37800 0.51400 0.03500
H 	H 	0.96240 0.32460 0.54980 0.02500
H 	H 	0.02540 0.42290 0.46350 0.13100
H 	H 	0.10500 0.35850 0.49550 0.12000
H 	H 	0.94530 0.52700 0.72740 0.14500
H 	H 	0.89390 0.57850 0.77710 0.15000
H 	H 	0.09130 0.52080 0.75540 0.00100
H 	H 	0.09090 0.58190 0.70550 0.01500
H 	H 	0.02170 0.68060 0.76140 0.04600
H 	H 	0.00080 0.62520 0.81300 0.03200
H 	H 	0.21330 0.62100 0.75060 0.12700
H 	H 	0.19480 0.56230 0.80030 0.10900
H 	H 	0.21610 0.99880 0.48940 0.11000
H 	H 	0.11650 0.98020 0.47920 0.11500
H 	H 	0.09590 0.10420 0.53500 0.04400
H 	H 	0.99470 0.08990 0.52250 0.03100
H 	H 	0.13260 0.99190 0.59070 0.01600
H 	H 	0.04250 0.96890 0.57410 0.00600
H 	H 	0.90180 0.06420 0.62100 0.13800
H 	H 	0.98490 0.10130 0.63010 0.14300
H 	H 	0.87260 0.21690 0.41010 0.14700
H 	H 	0.85590 0.28660 0.36640 0.15100
H 	H 	0.69300 0.25780 0.41500 0.00200
H 	H 	0.73620 0.18550 0.38110 0.01500
H 	H 	0.69090 0.33520 0.33340 0.02300
H 	H 	0.72310 0.26130 0.30230 0.04600
H 	H 	0.56010 0.24170 0.34850 0.13000
H 	H 	0.52810 0.31420 0.38100 0.11000
H 	H 	0.89000 0.10710 0.86250 0.13800
H 	H 	0.79940 0.07200 0.89660 0.12700
H 	H 	0.99220 0.06440 0.92760 0.02000
H 	H 	0.91920 0.01410 0.95910 0.02700
H 	H 	0.77210 0.12200 0.98600 0.03500
H 	H 	0.83680 0.17540 0.95020 0.02600
H 	H 	0.91180 0.07710 0.03650 0.12900
H 	H 	0.95900 0.14150 0.00450 0.11800
H 	H 	0.19970 0.97300 0.77260 0.14400
H 	H 	0.24950 0.92150 0.72290 0.15000
H 	H 	0.36750 0.97920 0.74460 -0.00100
H 	H 	0.37830 0.91810 0.79450 0.01400
H 	H 	0.46370 0.81940 0.73860 0.04800
H 	H 	0.43900 0.87480 0.68700 0.03400
H 	H 	0.58490 0.87900 0.74940 0.12600
H 	H 	0.55740 0.93770 0.69970 0.10800
H 	H 	0.29570 0.49880 0.98940 0.12300
H 	H 	0.42410 0.48020 0.97920 0.12800
H 	H 	0.26490 0.60420 0.03500 0.03700
H 	H 	0.39290 0.58990 0.02250 0.02900
H 	H 	0.28480 0.49190 0.09070 0.03200
H 	H 	0.41450 0.46890 0.07410 0.02300
H 	H 	0.41300 0.56420 0.12100 0.13300
H 	H 	0.28370 0.60130 0.13010 0.13800
H 	H 	0.50040 0.71690 0.91010 0.14900
H 	H 	0.49110 0.78660 0.86640 0.15300
H 	H 	0.63420 0.75780 0.91500 0.00100
H 	H 	0.69720 0.68550 0.88110 0.01500
H 	H 	0.64050 0.83520 0.83340 0.02400
H 	H 	0.71330 0.76130 0.80230 0.04600
H 	H 	0.84970 0.74170 0.84850 0.13100
H 	H 	0.77670 0.81420 0.88100 0.11000
H 	H 	0.14040 0.60710 0.36250 0.13600
H 	H 	0.23200 0.57200 0.39660 0.12600
H 	H 	0.01580 0.56440 0.42760 0.02200
H 	H 	0.10760 0.51410 0.45910 0.03000
H 	H 	0.11990 0.62200 0.48600 0.03500
H 	H 	0.03760 0.67540 0.45020 0.02500
H 	H 	0.97460 0.57710 0.53650 0.13100
H 	H 	0.89500 0.64150 0.50450 0.12000
H 	H 	0.05470 0.47300 0.27260 0.14500
H 	H 	0.10610 0.42150 0.22290 0.15000
H 	H 	0.90870 0.47920 0.24460 0.00100
H 	H 	0.90910 0.41810 0.29450 0.01500
H 	H 	0.97830 0.31940 0.23860 0.04600
H 	H 	0.99920 0.37480 0.18700 0.03200
H 	H 	0.78670 0.37900 0.24940 0.12700
H 	H 	0.80520 0.43770 0.19970 0.10900
H 	H 	0.78390 0.00120 0.51060 0.11000
H 	H 	0.88350 0.01980 0.52080 0.11500
H 	H 	0.90410 0.89580 0.46500 0.04400
H 	H 	0.00530 0.91010 0.47750 0.03100
H 	H 	0.86740 0.00810 0.40930 0.01600
H 	H 	0.95750 0.03110 0.42590 0.00600
H 	H 	0.09820 0.93580 0.37900 0.13800
H 	H 	0.01510 0.89870 0.36990 0.14300
H 	H 	0.12740 0.78310 0.58990 0.14700
H 	H 	0.14410 0.71340 0.63360 0.15100
H 	H 	0.30700 0.74220 0.58500 0.00200
H 	H 	0.26380 0.81450 0.61890 0.01500
H 	H 	0.30910 0.66480 0.66660 0.02300
H 	H 	0.27690 0.73870 0.69770 0.04600
H 	H 	0.43990 0.75830 0.65150 0.13000
H 	H 	0.47190 0.68580 0.61900 0.11000
H 	H 	0.11000 0.89290 0.13750 0.13800
H 	H 	0.20060 0.92800 0.10340 0.12700
H 	H 	0.00780 0.93560 0.07240 0.02000
H 	H 	0.08080 0.98590 0.04090 0.02700
H 	H 	0.22790 0.87800 0.01400 0.03500
H 	H 	0.16320 0.82460 0.04980 0.02600
H 	H 	0.08820 0.92290 0.96350 0.12900
H 	H 	0.04100 0.85850 0.99550 0.11800
H 	H 	0.80030 0.02700 0.22740 0.14400
H 	H 	0.75050 0.07850 0.27710 0.15000
H 	H 	0.63250 0.02080 0.25540 -0.00100
H 	H 	0.62170 0.08190 0.20550 0.01400
H 	H 	0.53630 0.18060 0.26140 0.04800
H 	H 	0.56100 0.12520 0.31300 0.03400
H 	H 	0.41510 0.12100 0.25060 0.12600
H 	H 	0.44260 0.06230 0.30030 0.10800
C 	C 	0.64750 0.42910 0.07090 0.48200
C 	C 	0.64626 0.47828 0.01740 -0.34800
C 	C 	0.66260 0.43530 0.97030 -0.00500
C 	C 	0.65390 0.48800 0.91900 -0.00200
C 	C 	0.65570 0.44710 0.87230 -0.37700
C 	C 	0.66882 0.49346 0.82090 0.44300
C 	C 	0.45913 0.31414 0.16600 0.54800
C 	C 	0.46290 0.26550 0.12510 -0.45300
C 	C 	0.35470 0.26260 0.11960 0.05000
C 	C 	0.30517 0.21546 0.16340 -0.00300
C 	C 	0.20460 0.20740 0.15400 -0.40300
C 	C 	0.15234 0.15882 0.19590 0.53700
C 	C 	0.78664 0.50772 0.64220 0.47900
C 	C 	0.82936 0.43598 0.61310 -0.36300
C 	C 	0.91738 0.43764 0.56220 -0.00800
C 	C 	0.94452 0.37286 0.52770 -0.00000
C 	C 	0.03849 0.37172 0.48150 -0.36100
C 	C 	0.05835 0.31650 0.44060 0.45300
C 	C 	0.88170 0.64100 0.70420 0.54400
C 	C 	0.93950 0.57490 0.74030 -0.43100
C 	C 	0.05120 0.57220 0.74220 0.05300
C 	C 	0.05006 0.62908 0.77780 -0.02100
C 	C 	0.16560 0.61510 0.78590 -0.39400
C 	C 	0.17080 0.66710 0.82290 0.54400
C 	C 	0.14750 0.07090 0.42910 0.47500
C 	C 	0.14194 0.02172 0.48260 -0.31600
C 	C 	0.06820 0.06470 0.52970 -0.02600
C 	C 	0.06090 0.01200 0.58100 0.04200
C 	C 	0.97510 0.05290 0.62770 -0.40000
C 	C 	0.98318 0.00654 0.67910 0.44300
C 	C 	0.93927 0.18586 0.33400 0.54100
C 	C 	0.85350 0.23450 0.37490 -0.44900
C 	C 	0.73690 0.23740 0.38040 0.04700
C 	C 	0.68403 0.28454 0.33660 -0.00200
C 	C 	0.56600 0.29260 0.34600 -0.40300
C 	C 	0.50706 0.34118 0.30410 0.53700
C 	C 	0.93656 0.99228 0.85780 0.48600
C 	C 	0.87844 0.06402 0.88690 -0.37400
C 	C 	0.91722 0.06236 0.93780 -0.00300
C 	C 	0.84508 0.12714 0.97230 -0.00100
C 	C 	0.89171 0.12828 0.01850 -0.36100
C 	C 	0.81545 0.18350 0.05940 0.44800
C 	C 	0.22690 0.85900 0.79580 0.54600
C 	C 	0.25470 0.92510 0.75970 -0.43600
C 	C 	0.36560 0.92780 0.75780 0.05800
C 	C 	0.45694 0.87092 0.72220 -0.02500
C 	C 	0.56660 0.88490 0.71410 -0.39100
C 	C 	0.66080 0.83290 0.67710 0.54300
C 	C 	0.35250 0.57090 0.92910 0.48200
C 	C 	0.35374 0.52172 0.98260 -0.34800
C 	C 	0.33740 0.56470 0.02970 -0.00500
C 	C 	0.34610 0.51200 0.08100 -0.00200
C 	C 	0.34430 0.55290 0.12770 -0.37700
C 	C 	0.33118 0.50654 0.17910 0.44300
C 	C 	0.54087 0.68586 0.83400 0.54800
C 	C 	0.53710 0.73450 0.87490 -0.45300
C 	C 	0.64530 0.73740 0.88040 0.05000
C 	C 	0.69483 0.78454 0.83660 -0.00300
C 	C 	0.79540 0.79260 0.84600 -0.40300
C 	C 	0.84766 0.84118 0.80410 0.53700
C 	C 	0.21336 0.49228 0.35780 0.47900
C 	C 	0.17064 0.56402 0.38690 -0.36300
C 	C 	0.08262 0.56236 0.43780 -0.00800
C 	C 	0.05548 0.62714 0.47230 -0.00000
C 	C 	0.96151 0.62828 0.51850 -0.36100
C 	C 	0.94165 0.68350 0.55940 0.45300
C 	C 	0.11830 0.35900 0.29580 0.54400
C 	C 	0.06050 0.42510 0.25970 -0.43100
C 	C 	0.94880 0.42780 0.25780 0.05300
C 	C 	0.94994 0.37092 0.22220 -0.02100
C 	C 	0.83440 0.38490 0.21410 -0.39400
C 	C 	0.82920 0.33290 0.17710 0.54400
C 	C 	0.85250 0.92910 0.57090 0.47500
C 	C 	0.85806 0.97828 0.51740 -0.31600
C 	C 	0.93180 0.93530 0.47030 -0.02600
C 	C 	0.93910 0.98800 0.41900 0.04200
C 	C 	0.02490 0.94710 0.37230 -0.40000
C 	C 	0.01682 0.99346 0.32090 0.44300
C 	C 	0.06073 0.81414 0.66600 0.54100
C 	C 	0.14650 0.76550 0.62510 -0.44900
C 	C 	0.26310 0.76260 0.61960 0.04700
C 	C 	0.31597 0.71546 0.66340 -0.00200
C 	C 	0.43400 0.70740 0.65400 -0.40300
C 	C 	0.49294 0.65882 0.69590 0.53700
C 	C 	0.06344 0.00772 0.14220 0.48600
C 	C 	0.12156 0.93598 0.11310 -0.37400
C 	C 	0.08278 0.93764 0.06220 -0.00300
C 	C 	0.15492 0.87286 0.02770 -0.00100
C 	C 	0.10829 0.87172 0.98150 -0.36100
C 	C 	0.18455 0.81650 0.94060 0.44800
C 	C 	0.77310 0.14100 0.20420 0.54600
C 	C 	0.74530 0.07490 0.24030 -0.43600
C 	C 	0.63440 0.07220 0.24220 0.05800
C 	C 	0.54306 0.12908 0.27780 -0.02500
C 	C 	0.43340 0.11510 0.28590 -0.39100
C 	C 	0.33920 0.16710 0.32290 0.54300
O 	O 	0.60552 0.46340 0.11276 -0.55300
O 	O 	0.68916 0.35942 0.06766 -0.52500
O 	O 	0.59059 0.52391 0.79631 -0.64800
O 	O 	0.75673 0.50643 0.80211 -0.45600
O 	O 	0.54460 0.33047 0.16353 -0.68700
O 	O 	0.37303 0.33771 0.20023 -0.52900
O 	O 	0.19382 0.12988 0.23528 -0.58200
O 	O 	0.06686 0.14977 0.18911 -0.70000
O 	O 	0.75431 0.50079 0.69199 -0.52500
O 	O 	0.78287 0.56870 0.61396 -0.55200
O 	O 	0.15540 0.28975 0.41265 -0.67300
O 	O 	0.98545 0.29589 0.43521 -0.46300
O 	O 	0.78917 0.64430 0.69976 -0.68200
O 	O 	0.92958 0.68554 0.68090 -0.53700
O 	O 	0.08473 0.71274 0.84640 -0.56700
O 	O 	0.26409 0.66059 0.82823 -0.69200
O 	O 	0.18168 0.03660 0.38724 -0.54900
O 	O 	0.11624 0.14058 0.43234 -0.52100
O 	O 	0.91081 0.97609 0.70369 -0.64300
O 	O 	0.06527 0.99357 0.69789 -0.45900
O 	O 	0.03860 0.16953 0.33647 -0.68100
O 	O 	0.91097 0.16229 0.29977 -0.52900
O 	O 	0.55898 0.37012 0.26472 -0.58200
O 	O 	0.40574 0.35023 0.31089 -0.70300
O 	O 	0.94709 0.99921 0.80801 -0.52300
O 	O 	0.96553 0.93130 0.88604 -0.54900
O 	O 	0.85780 0.21025 0.08735 -0.67300
O 	O 	0.71655 0.20411 0.06479 -0.45900
O 	O 	0.13323 0.85570 0.80024 -0.68500
O 	O 	0.29602 0.81446 0.81910 -0.54000
O 	O 	0.64387 0.78726 0.65360 -0.56500
O 	O 	0.75291 0.83941 0.67177 -0.69100
O 	O 	0.39448 0.53660 0.88724 -0.55300
O 	O 	0.31084 0.64058 0.93234 -0.52500
O 	O 	0.40941 0.47609 0.20369 -0.64800
O 	O 	0.24327 0.49357 0.19789 -0.45600
O 	O 	0.45540 0.66953 0.83647 -0.68700
O 	O 	0.62697 0.66229 0.79977 -0.52900
O 	O 	0.80618 0.87012 0.76472 -0.58200
O 	O 	0.93314 0.85023 0.81089 -0.70000
O 	O 	0.24569 0.49921 0.30801 -0.52500
O 	O 	0.21713 0.43130 0.38604 -0.55200
O 	O 	0.84460 0.71025 0.58735 -0.67300
O 	O 	0.01455 0.70411 0.56479 -0.46300
O 	O 	0.21083 0.35570 0.30024 -0.68200
O 	O 	0.07042 0.31446 0.31910 -0.53700
O 	O 	0.91527 0.28726 0.15360 -0.56700
O 	O 	0.73591 0.33941 0.17177 -0.69200
O 	O 	0.81832 0.96340 0.61276 -0.54900
O 	O 	0.88376 0.85942 0.56766 -0.52100
O 	O 	0.08919 0.02391 0.29631 -0.64300
O 	O 	0.93473 0.00643 0.30211 -0.45900
O 	O 	0.96140 0.83047 0.66353 -0.68100
O 	O 	0.08903 0.83771 0.70023 -0.52900
O 	O 	0.44102 0.62988 0.73528 -0.58200
O 	O 	0.59426 0.64977 0.68911 -0.70300
O 	O 	0.05291 0.00079 0.19199 -0.52300
O 	O 	0.03447 0.06870 0.11396 -0.54900
O 	O 	0.14220 0.78975 0.91265 -0.67300
O 	O 	0.28345 0.79589 0.93521 -0.45900
O 	O 	0.86677 0.14430 0.19976 -0.68500
O 	O 	0.70398 0.18554 0.18090 -0.54000
O 	O 	0.35613 0.21274 0.34640 -0.56500
O 	O 	0.24709 0.16059 0.32823 -0.69100
