data_crystal

_cell_length_a 5.14620
_cell_length_b 18.97980
_cell_length_c 18.97980
_cell_angle_alpha 88.94690
_cell_angle_beta  82.20840
_cell_angle_gamma 82.20830

_symmetry_space_group_name_	'P 1'
_symmetry_space_group_name_H-M	'P 1'

loop_
_symmetry_equiv_pos_as_xyz
  x,y,z

loop_
_atom_site_label
_atom_site_type_symbol
_atom_site_fract_x
_atom_site_fract_y
_atom_site_fract_z
_atom_site_charge
Zn	Zn	0.19842 0.94087 0.51214 1.21900
Zn	Zn	0.65142 0.05913 0.48786 1.22000
Zn	Zn	0.28945 0.51214 0.05912 1.22000
Zn	Zn	0.86071 0.48786 0.94088 1.21800
H 	H 	0.44630 0.81150 0.59590 -0.00100
H 	H 	0.18080 0.05960 0.52740 0.24600
H 	H 	0.70630 0.99250 0.63250 0.03600
H 	H 	0.29950 0.04910 0.70670 0.05500
H 	H 	0.02730 0.05970 0.81490 0.03500
H 	H 	0.13440 0.98780 0.91180 0.03200
H 	H 	0.50400 0.90400 0.90080 0.05600
H 	H 	0.89370 0.83880 0.82580 0.07400
H 	H 	0.46050 0.70120 0.63740 0.11300
H 	H 	0.60750 0.59260 0.69060 0.01400
H 	H 	0.47750 0.68950 0.88250 -0.00300
H 	H 	0.33850 0.79760 0.82700 0.10000
H 	H 	0.85370 0.18850 0.40410 -0.00100
H 	H 	0.76780 0.94040 0.47260 0.24700
H 	H 	0.33130 0.00750 0.36750 0.03300
H 	H 	0.05530 0.95090 0.29330 0.05400
H 	H 	0.90190 0.94030 0.18510 0.03500
H 	H 	0.03400 0.01220 0.08820 0.03200
H 	H 	0.30880 0.09600 0.09920 0.05800
H 	H 	0.55830 0.16120 0.17420 0.07600
H 	H 	0.79910 0.29880 0.36260 0.11300
H 	H 	0.89070 0.40740 0.30940 0.01500
H 	H 	0.04950 0.31050 0.11750 -0.00300
H 	H 	0.96310 0.20240 0.17300 0.10100
H 	H 	0.95780 0.59590 0.18850 -0.01000
H 	H 	0.29180 0.52740 0.94040 0.24700
H 	H 	0.66120 0.63250 0.00750 0.03500
H 	H 	0.99380 0.70670 0.95090 0.05800
H 	H 	0.15780 0.81490 0.94030 0.02800
H 	H 	0.95380 0.91180 0.01220 0.03700
H 	H 	0.59520 0.90080 0.09600 0.05300
H 	H 	0.28050 0.82580 0.16120 0.07400
H 	H 	0.90210 0.63740 0.29880 0.11000
H 	H 	0.70190 0.69060 0.40740 0.01500
H 	H 	0.64000 0.88250 0.31050 -0.00200
H 	H 	0.83450 0.82700 0.20240 0.09800
H 	H 	0.74220 0.40410 0.81150 -0.00000
H 	H 	0.75960 0.47260 0.05960 0.24500
H 	H 	0.30120 0.36750 0.99250 0.03500
H 	H 	0.65140 0.29330 0.04910 0.05400
H 	H 	0.91300 0.18510 0.05970 0.03400
H 	H 	0.87780 0.08820 0.98780 0.03100
H 	H 	0.59200 0.09920 0.90400 0.05700
H 	H 	0.26750 0.17420 0.83880 0.07600
H 	H 	0.83830 0.36260 0.70120 0.11300
H 	H 	0.79990 0.30940 0.59260 0.01400
H 	H 	0.83300 0.11750 0.68950 -0.00200
H 	H 	0.86390 0.17300 0.79760 0.10000
C 	C 	0.30106 0.83551 0.62637 0.10100
C 	C 	0.95642 0.90980 0.66516 0.04800
C 	C 	0.74217 0.96208 0.67138 -0.12100
C 	C 	0.57783 0.96910 0.73704 0.03500
C 	C 	0.34379 0.01970 0.74552 -0.07600
C 	C 	0.18255 0.02589 0.80961 -0.02900
C 	C 	0.24628 0.98234 0.86750 -0.02400
C 	C 	0.46487 0.93275 0.86111 -0.08500
C 	C 	0.63644 0.92335 0.79517 0.04000
C 	C 	0.85486 0.86959 0.78749 -0.12200
C 	C 	0.00903 0.86342 0.72272 0.07600
C 	C 	0.35259 0.75455 0.72867 0.18500
C 	C 	0.45560 0.69790 0.68750 -0.20000
C 	C 	0.55510 0.63450 0.71830 0.10300
C 	C 	0.57667 0.63390 0.79316 -0.18000
C 	C 	0.48032 0.69143 0.83233 0.11600
C 	C 	0.38304 0.75490 0.80022 -0.20000
C 	C 	0.65920 0.56240 0.82580 0.41500
C 	C 	0.76294 0.16449 0.37363 0.10200
C 	C 	0.53138 0.09020 0.33484 0.04200
C 	C 	0.37563 0.03792 0.32862 -0.11800
C 	C 	0.28397 0.03090 0.26296 0.03200
C 	C 	0.10901 0.98030 0.25448 -0.07400
C 	C 	0.01805 0.97411 0.19039 -0.03200
C 	C 	0.09612 0.01766 0.13250 -0.02100
C 	C 	0.25873 0.06725 0.13889 -0.08700
C 	C 	0.35496 0.07665 0.20483 0.04300
C 	C 	0.51194 0.13041 0.21251 -0.12600
C 	C 	0.59517 0.13658 0.27728 0.08100
C 	C 	0.83581 0.24545 0.27133 0.18600
C 	C 	0.84100 0.30210 0.31250 -0.19900
C 	C 	0.90790 0.36550 0.28170 0.09600
C 	C 	0.00373 0.36610 0.20684 -0.17500
C 	C 	0.00408 0.30857 0.16767 0.11900
C 	C 	0.93816 0.24510 0.19978 -0.20600
C 	C 	0.04740 0.43760 0.17420 0.41400
C 	C 	0.07257 0.62637 0.16449 0.11300
C 	C 	0.37842 0.66516 0.09020 0.04500
C 	C 	0.58645 0.67138 0.03792 -0.12400
C 	C 	0.68513 0.73704 0.03090 0.04200
C 	C 	0.91069 0.74552 0.98030 -0.09400
C 	C 	0.00784 0.80961 0.97411 -0.00800
C 	C 	0.88622 0.86750 0.01766 -0.04000
C 	C 	0.67402 0.86111 0.06725 -0.07500
C 	C 	0.56839 0.79517 0.07665 0.03400
C 	C 	0.35765 0.78749 0.13041 -0.12100
C 	C 	0.26825 0.72272 0.13658 0.07800
C 	C 	0.91874 0.72867 0.24545 0.17900
C 	C 	0.85690 0.68750 0.30210 -0.19700
C 	C 	0.72660 0.71830 0.36550 0.10100
C 	C 	0.63017 0.79316 0.36610 -0.17800
C 	C 	0.68735 0.83233 0.30857 0.11300
C 	C 	0.81674 0.80022 0.24510 -0.19700
C 	C 	0.51500 0.82580 0.43760 0.41400
C 	C 	0.86343 0.37363 0.83551 0.10100
C 	C 	0.13378 0.33484 0.90980 0.04800
C 	C 	0.29575 0.32862 0.96208 -0.12000
C 	C 	0.45307 0.26296 0.96910 0.03300
C 	C 	0.63651 0.25448 0.01970 -0.07500
C 	C 	0.79156 0.19039 0.02589 -0.03000
C 	C 	0.77138 0.13250 0.98234 -0.02400
C 	C 	0.60238 0.13889 0.93275 -0.08600
C 	C 	0.44021 0.20483 0.92335 0.04300
C 	C 	0.27555 0.21251 0.86959 -0.12600
C 	C 	0.12755 0.27728 0.86342 0.08300
C 	C 	0.89286 0.27133 0.75455 0.18500
C 	C 	0.84650 0.31250 0.69790 -0.20000
C 	C 	0.81040 0.28170 0.63450 0.10300
C 	C 	0.78943 0.20684 0.63390 -0.17900
C 	C 	0.82825 0.16767 0.69143 0.11500
C 	C 	0.86206 0.19978 0.75490 -0.20000
C 	C 	0.77840 0.17420 0.56240 0.41400
N 	N 	0.14779 0.89002 0.60660 -0.27600
N 	N 	0.23297 0.81608 0.69558 -0.16100
N 	N 	0.64441 0.10998 0.39340 -0.27400
N 	N 	0.74463 0.18392 0.30442 -0.16200
N 	N 	0.24561 0.60660 0.10998 -0.27600
N 	N 	0.07145 0.69558 0.18392 -0.16100
N 	N 	0.96219 0.39340 0.89002 -0.27800
N 	N 	0.95095 0.30442 0.81608 -0.16400
O 	O 	0.32362 0.02954 0.52882 -0.76900
O 	O 	0.63515 0.55541 0.88769 -0.54200
O 	O 	0.77496 0.51193 0.78275 -0.31100
O 	O 	0.88198 0.97046 0.47118 -0.76600
O 	O 	0.07825 0.44459 0.11231 -0.53900
O 	O 	0.06964 0.48807 0.21725 -0.30800
O 	O 	0.14756 0.52882 0.97046 -0.76400
O 	O 	0.47716 0.88769 0.44459 -0.54200
O 	O 	0.44229 0.78275 0.48807 -0.31100
O 	O 	0.64684 0.47118 0.02954 -0.76800
O 	O 	0.80944 0.11231 0.55541 -0.54100
O 	O 	0.71311 0.21725 0.51193 -0.31000
