data_crystal

_cell_length_a 11.55390
_cell_length_b 15.42280
_cell_length_c 17.68600
_cell_angle_alpha 114.09500
_cell_angle_beta  90.00000
_cell_angle_gamma 111.99800

_symmetry_space_group_name_	'P 1'
_symmetry_space_group_name_H-M	'P 1'

loop_
_symmetry_equiv_pos_as_xyz
  x,y,z

loop_
_atom_site_label
_atom_site_type_symbol
_atom_site_fract_x
_atom_site_fract_y
_atom_site_fract_z
_atom_site_charge
Cu	Cu	0.83723 0.60182 0.77019 0.90500
Cu	Cu	0.23541 0.39818 0.72981 0.90500
Cu	Cu	0.16277 0.39818 0.22981 0.90500
Cu	Cu	0.76459 0.60182 0.27019 0.90500
H 	H 	0.89350 0.53780 0.57780 0.01000
H 	H 	0.12180 0.65060 0.78480 0.02000
H 	H 	0.33040 0.66400 0.72600 0.09100
H 	H 	0.30730 0.59040 0.62970 0.10000
H 	H 	0.22420 0.80280 0.68660 0.08300
H 	H 	0.32970 0.94840 0.66550 0.03900
H 	H 	0.59810 0.84740 0.58500 0.04800
H 	H 	0.49360 0.70280 0.60730 0.08500
H 	H 	0.40720 0.05320 0.60770 0.03300
H 	H 	0.52150 0.20000 0.58780 0.09500
H 	H 	0.83290 0.15020 0.59840 0.08700
H 	H 	0.72190 0.00920 0.62170 0.03500
H 	H 	0.73900 0.34240 0.61340 0.09800
H 	H 	0.72790 0.26900 0.51840 0.10400
H 	H 	0.95420 0.38060 0.71300 0.00800
H 	H 	0.14770 0.32560 0.53460 0.00600
H 	H 	0.71130 0.61360 0.54030 0.05100
H 	H 	0.35570 0.46220 0.92220 0.00900
H 	H 	0.47120 0.34940 0.71520 0.01900
H 	H 	0.66640 0.33600 0.77400 0.09000
H 	H 	0.71690 0.40960 0.87030 0.09900
H 	H 	0.42140 0.19720 0.81340 0.08300
H 	H 	0.38130 0.05160 0.83450 0.03800
H 	H 	0.75070 0.15260 0.91500 0.04800
H 	H 	0.79080 0.29720 0.89270 0.08500
H 	H 	0.35400 0.94680 0.89230 0.03400
H 	H 	0.32150 0.80000 0.91220 0.09500
H 	H 	0.68270 0.84980 0.90160 0.08700
H 	H 	0.71270 0.99080 0.87830 0.03500
H 	H 	0.39660 0.65760 0.88660 0.09700
H 	H 	0.45890 0.73100 0.98160 0.10400
H 	H 	0.57360 0.61940 0.78700 0.00800
H 	H 	0.82210 0.67440 0.96540 0.00500
H 	H 	0.09770 0.38640 0.95970 0.05000
H 	H 	0.10650 0.46220 0.42220 0.00900
H 	H 	0.87820 0.34940 0.21520 0.01900
H 	H 	0.66960 0.33600 0.27400 0.09000
H 	H 	0.69270 0.40960 0.37030 0.09900
H 	H 	0.77580 0.19720 0.31340 0.08300
H 	H 	0.67030 0.05160 0.33450 0.03900
H 	H 	0.40190 0.15260 0.41500 0.04800
H 	H 	0.50640 0.29720 0.39270 0.08500
H 	H 	0.59280 0.94680 0.39230 0.03300
H 	H 	0.47850 0.80000 0.41220 0.09500
H 	H 	0.16710 0.84980 0.40160 0.08700
H 	H 	0.27810 0.99080 0.37830 0.03500
H 	H 	0.26100 0.65760 0.38660 0.09800
H 	H 	0.27210 0.73100 0.48160 0.10400
H 	H 	0.04580 0.61940 0.28700 0.00800
H 	H 	0.85230 0.67440 0.46540 0.00600
H 	H 	0.28870 0.38640 0.45970 0.05100
H 	H 	0.64430 0.53780 0.07780 0.00900
H 	H 	0.52880 0.65060 0.28480 0.01900
H 	H 	0.33360 0.66400 0.22600 0.09000
H 	H 	0.28310 0.59040 0.12970 0.09900
H 	H 	0.57860 0.80280 0.18660 0.08300
H 	H 	0.61870 0.94840 0.16550 0.03800
H 	H 	0.24930 0.84740 0.08500 0.04800
H 	H 	0.20920 0.70280 0.10730 0.08500
H 	H 	0.64600 0.05320 0.10770 0.03400
H 	H 	0.67850 0.20000 0.08780 0.09500
H 	H 	0.31730 0.15020 0.09840 0.08700
H 	H 	0.28730 0.00920 0.12170 0.03500
H 	H 	0.60340 0.34240 0.11340 0.09700
H 	H 	0.54110 0.26900 0.01840 0.10400
H 	H 	0.42640 0.38060 0.21300 0.00800
H 	H 	0.17790 0.32560 0.03460 0.00500
H 	H 	0.90230 0.61360 0.04030 0.05000
C 	C 	0.96760 0.56500 0.61600 0.11100
C 	C 	0.08830 0.62540 0.72850 0.08400
C 	C 	0.29160 0.64800 0.67060 -0.16600
C 	C 	0.35190 0.73940 0.65390 0.11600
C 	C 	0.30150 0.81280 0.66820 -0.11400
C 	C 	0.36490 0.90020 0.65540 -0.01700
C 	C 	0.48070 0.91760 0.62760 0.00100
C 	C 	0.52450 0.84060 0.60780 -0.01600
C 	C 	0.46120 0.75320 0.62100 -0.12300
C 	C 	0.55120 0.01300 0.61550 -0.01300
C 	C 	0.49330 0.07220 0.60610 0.00500
C 	C 	0.56250 0.16100 0.59400 -0.14500
C 	C 	0.68760 0.19080 0.59140 0.12600
C 	C 	0.74710 0.13180 0.60090 -0.13000
C 	C 	0.67950 0.04640 0.61370 0.00000
C 	C 	0.75780 0.28480 0.57580 -0.17500
C 	C 	0.97590 0.35760 0.65990 0.10200
C 	C 	0.08010 0.32600 0.56310 0.09400
C 	C 	0.65140 0.52640 0.64400 0.30200
C 	C 	0.57220 0.51360 0.57110 -0.04900
C 	C 	0.44400 0.44620 0.54660 -0.04800
C 	C 	0.62620 0.56760 0.52390 -0.01500
C 	C 	0.37420 0.38980 0.59680 0.32400
C 	C 	0.40260 0.43500 0.88400 0.11100
C 	C 	0.46290 0.37460 0.77150 0.08300
C 	C 	0.64360 0.35200 0.82940 -0.16600
C 	C 	0.61250 0.26060 0.84610 0.11700
C 	C 	0.48870 0.18720 0.83180 -0.11500
C 	C 	0.46470 0.09980 0.84460 -0.01600
C 	C 	0.56310 0.08240 0.87240 -0.00100
C 	C 	0.68390 0.15940 0.89220 -0.01500
C 	C 	0.70800 0.24680 0.87900 -0.12400
C 	C 	0.53820 0.98700 0.88450 -0.01200
C 	C 	0.42110 0.92780 0.89390 0.00300
C 	C 	0.40150 0.83900 0.90600 -0.14400
C 	C 	0.49680 0.80920 0.90860 0.12600
C 	C 	0.61530 0.86820 0.89910 -0.12900
C 	C 	0.63310 0.95360 0.88630 -0.00100
C 	C 	0.47300 0.71520 0.92420 -0.17400
C 	C 	0.61830 0.64240 0.84010 0.10300
C 	C 	0.75410 0.67400 0.93690 0.09400
C 	C 	0.12500 0.47360 0.85600 0.30200
C 	C 	0.05860 0.48640 0.92890 -0.04700
C 	C 	0.99780 0.55380 0.95340 -0.05100
C 	C 	0.05860 0.43240 0.97610 -0.01300
C 	C 	0.98440 0.61020 0.90320 0.32200
C 	C 	0.03240 0.43500 0.38400 0.11100
C 	C 	0.91170 0.37460 0.27150 0.08400
C 	C 	0.70840 0.35200 0.32940 -0.16600
C 	C 	0.64810 0.26060 0.34610 0.11600
C 	C 	0.69850 0.18720 0.33180 -0.11400
C 	C 	0.63510 0.09980 0.34460 -0.01700
C 	C 	0.51930 0.08240 0.37240 0.00100
C 	C 	0.47550 0.15940 0.39220 -0.01600
C 	C 	0.53880 0.24680 0.37900 -0.12300
C 	C 	0.44880 0.98700 0.38450 -0.01300
C 	C 	0.50670 0.92780 0.39390 0.00500
C 	C 	0.43750 0.83900 0.40600 -0.14500
C 	C 	0.31240 0.80920 0.40860 0.12600
C 	C 	0.25290 0.86820 0.39910 -0.13000
C 	C 	0.32050 0.95360 0.38630 0.00000
C 	C 	0.24220 0.71520 0.42420 -0.17500
C 	C 	0.02410 0.64240 0.34010 0.10200
C 	C 	0.91990 0.67400 0.43690 0.09400
C 	C 	0.34860 0.47360 0.35600 0.30200
C 	C 	0.42780 0.48640 0.42890 -0.04900
C 	C 	0.55600 0.55380 0.45340 -0.04800
C 	C 	0.37380 0.43240 0.47610 -0.01500
C 	C 	0.62580 0.61020 0.40320 0.32400
C 	C 	0.59740 0.56500 0.11600 0.11100
C 	C 	0.53710 0.62540 0.22850 0.08300
C 	C 	0.35640 0.64800 0.17060 -0.16600
C 	C 	0.38750 0.73940 0.15390 0.11700
C 	C 	0.51130 0.81280 0.16820 -0.11500
C 	C 	0.53530 0.90020 0.15540 -0.01600
C 	C 	0.43690 0.91760 0.12760 -0.00100
C 	C 	0.31610 0.84060 0.10780 -0.01500
C 	C 	0.29200 0.75320 0.12100 -0.12400
C 	C 	0.46180 0.01300 0.11550 -0.01200
C 	C 	0.57890 0.07220 0.10610 0.00300
C 	C 	0.59850 0.16100 0.09400 -0.14400
C 	C 	0.50320 0.19080 0.09140 0.12600
C 	C 	0.38470 0.13180 0.10090 -0.12900
C 	C 	0.36690 0.04640 0.11370 -0.00100
C 	C 	0.52700 0.28480 0.07580 -0.17400
C 	C 	0.38170 0.35760 0.15990 0.10300
C 	C 	0.24590 0.32600 0.06310 0.09400
C 	C 	0.87500 0.52640 0.14400 0.30200
C 	C 	0.94140 0.51360 0.07110 -0.04700
C 	C 	0.00220 0.44620 0.04660 -0.05100
C 	C 	0.94140 0.56760 0.02390 -0.01300
C 	C 	0.01560 0.38980 0.09680 0.32200
N 	N 	0.96919 0.59478 0.69930 -0.22800
N 	N 	0.07670 0.57680 0.59340 -0.09100
N 	N 	0.15521 0.61582 0.66690 -0.07400
N 	N 	0.08679 0.36238 0.64760 -0.22700
N 	N 	0.96250 0.29220 0.52890 -0.09100
N 	N 	0.89527 0.31634 0.58860 -0.07500
N 	N 	0.37441 0.40522 0.80070 -0.22700
N 	N 	0.49990 0.42320 0.90660 -0.09100
N 	N 	0.53939 0.38418 0.83310 -0.07300
N 	N 	0.72441 0.63762 0.85240 -0.22700
N 	N 	0.67030 0.70780 0.97110 -0.09200
N 	N 	0.57893 0.68366 0.91140 -0.07500
N 	N 	0.03081 0.40522 0.30070 -0.22800
N 	N 	0.92330 0.42320 0.40660 -0.09100
N 	N 	0.84479 0.38418 0.33310 -0.07400
N 	N 	0.91321 0.63762 0.35240 -0.22700
N 	N 	0.03750 0.70780 0.47110 -0.09100
N 	N 	0.10473 0.68366 0.41140 -0.07500
N 	N 	0.62559 0.59478 0.19930 -0.22700
N 	N 	0.50010 0.57680 0.09340 -0.09100
N 	N 	0.46061 0.61582 0.16690 -0.07300
N 	N 	0.27559 0.36238 0.14760 -0.22700
N 	N 	0.32970 0.29220 0.02890 -0.09200
N 	N 	0.42107 0.31634 0.08860 -0.07500
O 	O 	0.74285 0.61690 0.68640 -0.37700
O 	O 	0.63289 0.45298 0.66080 -0.30800
O 	O 	0.35706 0.45152 0.66610 -0.38900
O 	O 	0.33827 0.29574 0.57010 -0.28900
O 	O 	0.12595 0.38310 0.81360 -0.37600
O 	O 	0.17991 0.54702 0.83920 -0.30800
O 	O 	0.90554 0.54848 0.83390 -0.38900
O 	O 	0.04253 0.70426 0.92990 -0.28700
O 	O 	0.25715 0.38310 0.31360 -0.37700
O 	O 	0.36711 0.54702 0.33920 -0.30800
O 	O 	0.64294 0.54848 0.33390 -0.38900
O 	O 	0.66173 0.70426 0.42990 -0.28900
O 	O 	0.87405 0.61690 0.18640 -0.37600
O 	O 	0.82009 0.45298 0.16080 -0.30800
O 	O 	0.09446 0.45152 0.16610 -0.38900
O 	O 	0.95747 0.29574 0.07010 -0.28700
