data_crystal

_cell_length_a 13.20520
_cell_length_b 14.12080
_cell_length_c 14.56610
_cell_angle_alpha 90.00000
_cell_angle_beta  114.03100
_cell_angle_gamma 90.00000

_symmetry_space_group_name_	'P 1'
_symmetry_space_group_name_H-M	'P 1'

loop_
_symmetry_equiv_pos_as_xyz
  x,y,z

loop_
_atom_site_label
_atom_site_type_symbol
_atom_site_fract_x
_atom_site_fract_y
_atom_site_fract_z
_atom_site_charge
Co	Co	0.48220 0.60208 0.73893 1.18400
Co	Co	0.66239 0.73307 0.92467 1.09200
Co	Co	0.01780 0.10208 0.76107 1.18300
Co	Co	0.83761 0.23307 0.57533 1.09100
H 	H 	0.80530 0.45260 0.06000 0.08500
H 	H 	0.97140 0.18580 0.15030 0.04200
H 	H 	0.07430 0.25380 0.17780 0.04600
H 	H 	0.24550 0.41970 0.45670 0.09500
H 	H 	0.76120 0.39740 0.77630 0.04200
H 	H 	0.04530 0.21570 0.47670 0.07100
H 	H 	0.96290 0.23530 0.00190 0.07100
H 	H 	0.06410 0.17280 0.32070 0.03900
H 	H 	0.96110 0.23730 0.30490 0.03800
H 	H 	0.24590 0.35530 0.72420 0.05200
H 	H 	0.69470 0.95260 0.44000 0.08600
H 	H 	0.52860 0.68580 0.34970 0.04500
H 	H 	0.42570 0.75380 0.32220 0.04800
H 	H 	0.25450 0.91970 0.04330 0.09600
H 	H 	0.73880 0.89740 0.72370 0.04300
H 	H 	0.45470 0.71570 0.02330 0.07600
H 	H 	0.53710 0.73530 0.49810 0.08100
H 	H 	0.43590 0.67280 0.17930 0.03800
H 	H 	0.53890 0.73730 0.19510 0.03800
H 	H 	0.25410 0.85530 0.77580 0.05200
C 	C 	0.81960 0.41600 0.01360 -0.09500
C 	C 	0.00600 0.24300 0.18630 0.00100
C 	C 	0.69570 0.52310 0.87630 0.36500
C 	C 	0.21850 0.38380 0.49540 -0.13100
C 	C 	0.79440 0.38380 0.84470 0.01600
C 	C 	0.09910 0.26160 0.50710 -0.13300
C 	C 	0.77090 0.44010 0.91200 -0.06300
C 	C 	0.86620 0.30840 0.87790 -0.07800
C 	C 	0.13870 0.31590 0.44980 0.18300
C 	C 	0.88890 0.33840 0.04630 0.15300
C 	C 	0.91390 0.28590 0.97940 -0.08300
C 	C 	0.02960 0.23350 0.29540 0.01700
C 	C 	0.25930 0.39940 0.59820 -0.03600
C 	C 	0.14000 0.27580 0.60990 -0.05600
C 	C 	0.21950 0.34530 0.65530 -0.02000
C 	C 	0.34340 0.47360 0.64590 0.30100
C 	C 	0.09700 0.21870 0.67110 0.30800
C 	C 	0.89680 0.25210 0.80660 0.39900
C 	C 	0.68040 0.91600 0.48640 -0.09700
C 	C 	0.49400 0.74300 0.31370 -0.00500
C 	C 	0.80430 0.02310 0.62370 0.36500
C 	C 	0.28150 0.88380 0.00460 -0.12800
C 	C 	0.70560 0.88380 0.65530 0.01100
C 	C 	0.40090 0.76160 0.99290 -0.14300
C 	C 	0.72910 0.94010 0.58800 -0.06300
C 	C 	0.63380 0.80840 0.62210 -0.07100
C 	C 	0.36130 0.81590 0.05020 0.18800
C 	C 	0.61110 0.83840 0.45370 0.16300
C 	C 	0.58610 0.78590 0.52060 -0.10200
C 	C 	0.47040 0.73350 0.20460 0.01800
C 	C 	0.24070 0.89940 0.90180 -0.03800
C 	C 	0.36000 0.77580 0.89010 -0.05200
C 	C 	0.28050 0.84530 0.84470 -0.02200
C 	C 	0.15660 0.97360 0.85410 0.29400
C 	C 	0.40300 0.71870 0.82890 0.30700
C 	C 	0.60320 0.75210 0.69340 0.39600
O 	O 	0.10250 0.30900 0.34820 -0.21600
O 	O 	0.71780 0.59470 0.93240 -0.45800
O 	O 	0.93230 0.32270 0.14890 -0.20100
O 	O 	0.61440 0.51660 0.79140 -0.43400
O 	O 	0.36380 0.50120 0.73180 -0.38900
O 	O 	0.39800 0.50850 0.60170 -0.35600
O 	O 	0.15170 0.20910 0.76430 -0.37200
O 	O 	0.00490 0.17460 0.63110 -0.53100
O 	O 	0.84580 0.26630 0.71560 -0.49200
O 	O 	0.97410 0.19230 0.84250 -0.45600
O 	O 	0.39750 0.80900 0.15180 -0.21700
O 	O 	0.78220 0.09470 0.56760 -0.45800
O 	O 	0.56770 0.82270 0.35110 -0.20100
O 	O 	0.88560 0.01660 0.70860 -0.43300
O 	O 	0.13620 0.00120 0.76820 -0.38600
O 	O 	0.10200 0.00850 0.89830 -0.35200
O 	O 	0.34830 0.70910 0.73570 -0.37100
O 	O 	0.49510 0.67460 0.86890 -0.53100
O 	O 	0.65420 0.76630 0.78440 -0.49100
O 	O 	0.52590 0.69230 0.65750 -0.45700
Co	Co	0.51780 0.39792 0.26107 1.18300
Co	Co	0.33761 0.26693 0.07533 1.09100
Co	Co	0.98220 0.89792 0.23893 1.18300
Co	Co	0.16239 0.76693 0.42467 1.09100
H 	H 	0.19470 0.54740 0.94000 0.08500
H 	H 	0.02860 0.81420 0.84970 0.04200
H 	H 	0.92570 0.74620 0.82220 0.04600
H 	H 	0.75450 0.58030 0.54330 0.09500
H 	H 	0.23880 0.60260 0.22370 0.04200
H 	H 	0.95470 0.78430 0.52330 0.07100
H 	H 	0.03710 0.76470 0.99810 0.07100
H 	H 	0.93590 0.82720 0.67930 0.03900
H 	H 	0.03890 0.76270 0.69510 0.03800
H 	H 	0.75410 0.64470 0.27580 0.05200
H 	H 	0.30530 0.04740 0.56000 0.08600
H 	H 	0.47140 0.31420 0.65030 0.04500
H 	H 	0.57430 0.24620 0.67780 0.04800
H 	H 	0.74550 0.08030 0.95670 0.09600
H 	H 	0.26120 0.10260 0.27630 0.04300
H 	H 	0.54530 0.28430 0.97670 0.07600
H 	H 	0.46290 0.26470 0.50190 0.08100
H 	H 	0.56410 0.32720 0.82070 0.03800
H 	H 	0.46110 0.26270 0.80490 0.03800
H 	H 	0.74590 0.14470 0.22420 0.05200
C 	C 	0.18040 0.58400 0.98640 -0.09500
C 	C 	0.99400 0.75700 0.81370 0.00100
C 	C 	0.30430 0.47690 0.12370 0.36500
C 	C 	0.78150 0.61620 0.50460 -0.13100
C 	C 	0.20560 0.61620 0.15530 0.01600
C 	C 	0.90090 0.73840 0.49290 -0.13300
C 	C 	0.22910 0.55990 0.08800 -0.06300
C 	C 	0.13380 0.69160 0.12210 -0.07800
C 	C 	0.86130 0.68410 0.55020 0.18300
C 	C 	0.11110 0.66160 0.95370 0.15300
C 	C 	0.08610 0.71410 0.02060 -0.08300
C 	C 	0.97040 0.76650 0.70460 0.01700
C 	C 	0.74070 0.60060 0.40180 -0.03600
C 	C 	0.86000 0.72420 0.39010 -0.05600
C 	C 	0.78050 0.65470 0.34470 -0.02000
C 	C 	0.65660 0.52640 0.35410 0.30100
C 	C 	0.90300 0.78130 0.32890 0.30800
C 	C 	0.10320 0.74790 0.19340 0.39900
C 	C 	0.31960 0.08400 0.51360 -0.09700
C 	C 	0.50600 0.25700 0.68630 -0.00500
C 	C 	0.19570 0.97690 0.37630 0.36500
C 	C 	0.71850 0.11620 0.99540 -0.12800
C 	C 	0.29440 0.11620 0.34470 0.01100
C 	C 	0.59910 0.23840 0.00710 -0.14300
C 	C 	0.27090 0.05990 0.41200 -0.06300
C 	C 	0.36620 0.19160 0.37790 -0.07100
C 	C 	0.63870 0.18410 0.94980 0.18800
C 	C 	0.38890 0.16160 0.54630 0.16300
C 	C 	0.41390 0.21410 0.47940 -0.10200
C 	C 	0.52960 0.26650 0.79540 0.01800
C 	C 	0.75930 0.10060 0.09820 -0.03800
C 	C 	0.64000 0.22420 0.10990 -0.05200
C 	C 	0.71950 0.15470 0.15530 -0.02200
C 	C 	0.84340 0.02640 0.14590 0.29400
C 	C 	0.59700 0.28130 0.17110 0.30700
C 	C 	0.39680 0.24790 0.30660 0.39600
O 	O 	0.89750 0.69100 0.65180 -0.21600
O 	O 	0.28220 0.40530 0.06760 -0.45800
O 	O 	0.06770 0.67730 0.85110 -0.20100
O 	O 	0.38560 0.48340 0.20860 -0.43400
O 	O 	0.63620 0.49880 0.26820 -0.38900
O 	O 	0.60200 0.49150 0.39830 -0.35600
O 	O 	0.84830 0.79090 0.23570 -0.37200
O 	O 	0.99510 0.82540 0.36890 -0.53100
O 	O 	0.15420 0.73370 0.28440 -0.49200
O 	O 	0.02590 0.80770 0.15750 -0.45600
O 	O 	0.60250 0.19100 0.84820 -0.21700
O 	O 	0.21780 0.90530 0.43240 -0.45800
O 	O 	0.43230 0.17730 0.64890 -0.20100
O 	O 	0.11440 0.98340 0.29140 -0.43300
O 	O 	0.86380 0.99880 0.23180 -0.38600
O 	O 	0.89800 0.99150 0.10170 -0.35200
O 	O 	0.65170 0.29090 0.26430 -0.37100
O 	O 	0.50490 0.32540 0.13110 -0.53100
O 	O 	0.34580 0.23370 0.21560 -0.49100
O 	O 	0.47410 0.30770 0.34250 -0.45700
