data_crystal

_cell_length_a 8.67160
_cell_length_b 8.67160
_cell_length_c 10.86500
_cell_angle_alpha 90.00000
_cell_angle_beta  90.00000
_cell_angle_gamma 120.00000

_symmetry_space_group_name_	'P 1'
_symmetry_space_group_name_H-M	'P 1'

loop_
_symmetry_equiv_pos_as_xyz
  x,y,z

loop_
_atom_site_label
_atom_site_type_symbol
_atom_site_fract_x
_atom_site_fract_y
_atom_site_fract_z
_atom_site_charge
Fe	Fe	0.94182 0.00000 0.50000 1.21600
Fe	Fe	0.05818 0.05818 0.16667 1.21200
Fe	Fe	0.00000 0.94182 0.83333 1.26100
H 	H 	0.39080 0.48820 0.49020 0.10000
H 	H 	0.09740 0.60920 0.15687 0.09100
H 	H 	0.51180 0.90260 0.82353 0.06900
H 	H 	0.90260 0.51180 0.50980 0.09300
H 	H 	0.48820 0.39080 0.84313 0.09900
H 	H 	0.60920 0.09740 0.17647 0.06500
C 	C 	0.62460 0.68520 0.56250 0.14600
C 	C 	0.46510 0.52430 0.56090 -0.10800
C 	C 	0.06060 0.37540 0.22917 0.13500
C 	C 	0.05920 0.53490 0.22757 -0.09300
C 	C 	0.31480 0.93940 0.89583 0.09100
C 	C 	0.47570 0.94080 0.89423 0.03600
C 	C 	0.93940 0.31480 0.43750 0.14200
C 	C 	0.94080 0.47570 0.43910 -0.07900
C 	C 	0.68520 0.62460 0.77083 0.14700
C 	C 	0.52430 0.46510 0.77243 -0.10900
C 	C 	0.37540 0.06060 0.10417 0.02500
C 	C 	0.53490 0.05920 0.10577 -0.06400
C 	C 	0.73060 0.73060 0.66667 0.00900
C 	C 	0.41640 0.41640 0.66667 -0.01100
C 	C 	0.24530 0.24530 0.66667 0.34600
C 	C 	0.00000 0.26940 0.33333 0.00200
C 	C 	-0.00000 0.58360 0.33333 -0.04900
C 	C 	1.00000 0.75470 0.33333 0.39200
C 	C 	0.26940 1.00000 -0.00000 0.11000
C 	C 	0.58360 0.00000 1.00000 -0.14100
C 	C 	0.75470 1.00000 -0.00000 0.46900
O 	O 	0.68710 0.80750 0.47030 -0.28700
O 	O 	0.18910 0.16640 0.56470 -0.41500
O 	O 	0.12040 0.31290 0.13697 -0.33300
O 	O 	0.97730 0.81090 0.23137 -0.37300
O 	O 	0.19250 0.87960 0.80363 -0.29700
O 	O 	0.83360 0.02270 0.89803 -0.46800
O 	O 	0.87960 0.19250 0.52970 -0.33000
O 	O 	0.02270 0.83360 0.43530 -0.39500
O 	O 	0.80750 0.68710 0.86303 -0.29900
O 	O 	0.16640 0.18910 0.76863 -0.41800
O 	O 	0.31290 0.12040 0.19637 -0.31500
O 	O 	0.81090 0.97730 0.10197 -0.38200
O 	O 	0.88740 0.88740 0.66667 -0.39100
O 	O 	-0.00000 0.11260 0.33333 -0.46000
O 	O 	0.11260 1.00000 -0.00000 -0.43900
