data_crystal

_cell_length_a 42.98060
_cell_length_b 42.98060
_cell_length_c 42.98060
_cell_angle_alpha 90.00000
_cell_angle_beta  90.00000
_cell_angle_gamma 90.00000

_symmetry_space_group_name_	'P 1'
_symmetry_space_group_name_H-M	'P 1'

loop_
_symmetry_equiv_pos_as_xyz
  x,y,z

loop_
_atom_site_label
_atom_site_type_symbol
_atom_site_fract_x
_atom_site_fract_y
_atom_site_fract_z
_atom_site_charge
Zn	Zn	0.27722 0.21555 0.27884 1.23900
Zn	Zn	0.72709 0.26832 0.23161 1.24200
Zn	Zn	0.72732 0.71435 0.78115 1.23700
Zn	Zn	0.27652 0.21758 0.72835 1.24200
Zn	Zn	0.22776 0.21752 0.77944 1.23900
Zn	Zn	0.77608 0.76564 0.23491 1.24100
Zn	Zn	0.72528 0.71548 0.23692 1.23800
Zn	Zn	0.77739 0.21872 0.23259 1.23800
Zn	Zn	0.27764 0.26745 0.77871 1.24100
Zn	Zn	0.22857 0.76378 0.23161 1.23800
Zn	Zn	0.77637 0.71354 0.73067 1.23900
Zn	Zn	0.22952 0.76797 0.77926 1.24200
Zn	Zn	0.72696 0.26658 0.77821 1.24200
Zn	Zn	0.27807 0.76469 0.28230 1.24400
Zn	Zn	0.22809 0.26782 0.72919 1.24300
Zn	Zn	0.77868 0.76386 0.78046 1.24100
Zn	Zn	0.72683 0.21592 0.72933 1.24100
Zn	Zn	0.77653 0.71583 0.28511 1.23600
Zn	Zn	0.72717 0.21981 0.28275 1.24000
Zn	Zn	0.27922 0.76657 0.73039 1.24400
Zn	Zn	0.77698 0.26563 0.72917 1.24300
Zn	Zn	0.22885 0.71724 0.73025 1.24100
Zn	Zn	0.22743 0.71577 0.28338 1.23900
Zn	Zn	0.72773 0.76382 0.73126 1.23900
Zn	Zn	0.27858 0.71665 0.78017 1.23900
Zn	Zn	0.22729 0.26566 0.27901 1.24200
Zn	Zn	0.72643 0.76580 0.28540 1.23800
Zn	Zn	0.27834 0.71424 0.23380 1.23900
Zn	Zn	0.22655 0.21656 0.22884 1.24100
Zn	Zn	0.77762 0.26906 0.28098 1.24300
Zn	Zn	0.77630 0.21614 0.77982 1.23700
Zn	Zn	0.27715 0.26510 0.22905 1.24300
H 	H 	0.80538 0.96408 0.24236 0.05000
H 	H 	0.28871 0.56376 0.78763 0.05600
H 	H 	0.47938 0.90660 0.23627 0.06100
H 	H 	0.79305 0.28229 0.42924 0.06300
H 	H 	0.29693 0.72630 0.03382 0.04900
H 	H 	0.57475 0.20328 0.72375 0.05400
H 	H 	0.87656 0.70754 0.29091 0.04100
H 	H 	0.30205 0.46163 0.23394 0.04700
H 	H 	0.07729 0.70666 0.72332 0.05400
H 	H 	0.29050 0.71358 0.93257 0.05400
H 	H 	0.29389 0.46098 0.03700 0.06500
H 	H 	0.71294 0.21394 0.57641 0.06000
H 	H 	0.51641 0.44684 0.83779 0.06200
H 	H 	0.70849 0.76338 0.93314 0.04500
H 	H 	0.21674 0.86437 0.78436 0.03600
H 	H 	0.77208 0.03529 0.64845 0.07100
H 	H 	0.22559 0.61650 0.30040 0.03500
H 	H 	0.21387 0.12324 0.21775 0.03400
H 	H 	0.64069 0.93793 0.49688 0.06200
H 	H 	0.64046 0.44504 0.99328 0.06300
H 	H 	0.47127 0.23836 0.29920 0.04600
H 	H 	0.80364 0.72653 0.93461 0.05000
H 	H 	0.29020 0.12014 0.28309 0.03300
H 	H 	0.07490 0.71932 0.29874 0.05500
H 	H 	0.94201 0.32907 0.62153 0.06200
H 	H 	0.37306 0.21019 0.71331 0.03800
H 	H 	0.97402 0.74570 0.30253 0.04800
H 	H 	0.54880 0.78818 0.36822 0.06100
H 	H 	0.29117 0.21133 0.43145 0.05400
H 	H 	0.49848 0.86534 0.29944 0.06000
H 	H 	0.29411 0.91625 0.71663 0.05100
H 	H 	0.26629 0.92010 0.30628 0.05200
H 	H 	0.14829 0.44297 0.50452 0.06600
H 	H 	0.78407 0.62104 0.71763 0.03400
H 	H 	0.53349 0.36419 0.28662 0.06000
H 	H 	0.16889 0.52647 0.54047 0.06500
H 	H 	0.28591 0.95930 0.54427 0.06500
H 	H 	0.71457 0.36174 0.78495 0.03500
H 	H 	0.71151 0.27891 0.92796 0.05100
H 	H 	0.72278 0.78069 0.63821 0.03400
H 	H 	0.28478 0.03143 0.14079 0.06600
H 	H 	0.35526 0.76944 0.94556 0.06100
H 	H 	0.08019 0.78402 0.78764 0.06200
H 	H 	0.03325 0.36695 0.78496 0.06000
H 	H 	0.62352 0.42057 0.47409 0.06400
H 	H 	0.21580 0.56600 0.71910 0.06500
H 	H 	0.75971 0.96208 0.07862 0.06500
H 	H 	0.01965 0.79373 0.71248 0.07000
H 	H 	0.37327 0.27131 0.79276 0.03600
H 	H 	0.77506 0.20192 0.07513 0.04800
H 	H 	0.03734 0.28425 0.36837 0.06100
H 	H 	0.53225 0.86450 0.78547 0.06100
H 	H 	0.87609 0.20744 0.78717 0.04100
H 	H 	0.63231 0.78078 0.29364 0.03400
H 	H 	0.72163 0.92334 0.29288 0.05400
H 	H 	0.24137 0.91787 0.20779 0.05000
H 	H 	0.27932 0.53091 0.64606 0.06800
H 	H 	0.61733 0.95468 0.18903 0.06600
H 	H 	0.52628 0.29236 0.19113 0.06300
H 	H 	0.80501 0.10262 0.57957 0.06300
H 	H 	0.27995 0.50396 0.56131 0.08100
H 	H 	0.62277 0.83929 0.55734 0.06500
H 	H 	0.68689 0.01683 0.65303 0.05900
H 	H 	0.36504 0.53278 0.21029 0.06300
H 	H 	0.20542 0.02151 0.23265 0.05800
H 	H 	0.05148 0.78584 0.86459 0.06100
H 	H 	0.99784 0.39929 0.74348 0.06200
H 	H 	0.07880 0.27481 0.71197 0.05200
H 	H 	0.29348 0.27319 0.07871 0.05500
H 	H 	0.79121 0.36744 0.48981 0.06000
H 	H 	0.80421 0.72604 0.87768 0.03300
H 	H 	0.12114 0.32859 0.04493 0.06400
H 	H 	0.20235 0.97669 0.12382 0.06600
H 	H 	0.83706 0.94144 0.93793 0.06200
H 	H 	0.81525 0.56765 0.55636 0.06100
H 	H 	0.28990 0.62036 0.78823 0.03300
H 	H 	0.79017 0.70944 0.43620 0.05400
H 	H 	0.04012 0.78386 0.36559 0.06100
H 	H 	0.71326 0.12070 0.72283 0.03300
H 	H 	0.85581 0.26980 0.94740 0.06000
H 	H 	0.78390 0.36305 0.29514 0.03400
H 	H 	0.97155 0.25460 0.30377 0.04700
H 	H 	0.79195 0.27967 0.37411 0.03500
H 	H 	0.20207 0.25091 0.47334 0.04500
H 	H 	0.30108 0.36723 0.99929 0.05900
H 	H 	0.20250 0.75737 0.97427 0.04400
H 	H 	0.21011 0.79868 0.48758 0.06800
H 	H 	0.47981 0.40542 0.73745 0.06100
H 	H 	0.72408 0.78324 0.58251 0.06200
H 	H 	0.20837 0.74635 0.47715 0.04500
H 	H 	0.80537 0.45971 0.74341 0.04800
H 	H 	0.13387 0.02666 0.18093 0.06100
H 	H 	0.73017 0.40028 0.43251 0.06800
H 	H 	0.21799 0.71414 0.43676 0.05400
H 	H 	0.67530 0.47651 0.53306 0.06500
H 	H 	0.92726 0.78527 0.22026 0.05800
H 	H 	0.21881 0.41721 0.71528 0.05700
H 	H 	0.03526 0.24680 0.70264 0.04500
H 	H 	0.22150 0.20748 0.93217 0.05400
H 	H 	0.70530 0.74099 0.97948 0.04400
H 	H 	0.71932 0.86490 0.29405 0.04500
H 	H 	0.51661 0.29116 0.71230 0.07100
H 	H 	0.51254 0.41872 0.62762 0.06400
H 	H 	0.70774 0.56533 0.23357 0.06000
H 	H 	0.43085 0.20515 0.28434 0.05200
H 	H 	0.78120 0.47735 0.06239 0.07800
H 	H 	0.21912 0.20733 0.87566 0.03300
H 	H 	0.63232 0.84580 0.05990 0.06600
H 	H 	0.67872 0.49434 0.14652 0.06300
H 	H 	0.78831 0.21384 0.93186 0.05400
H 	H 	0.02818 0.29432 0.68921 0.06200
H 	H 	0.30659 0.74369 0.53678 0.04800
H 	H 	0.01856 0.94881 0.83824 0.06200
H 	H 	0.49752 0.36319 0.79884 0.06000
H 	H 	0.66824 0.49949 0.03871 0.06600
H 	H 	0.21470 0.71437 0.57801 0.05800
H 	H 	0.47102 0.74760 0.31031 0.04800
H 	H 	0.73229 0.91962 0.71446 0.05200
H 	H 	0.99961 0.41800 0.13284 0.06400
H 	H 	0.72023 0.21285 0.43472 0.05400
H 	H 	0.78168 0.01812 0.13410 0.07100
H 	H 	0.79116 0.35996 0.71991 0.03300
H 	H 	0.80527 0.24481 0.53644 0.04800
H 	H 	0.93334 0.71018 0.71526 0.05500
H 	H 	0.98334 0.42313 0.82650 0.06200
H 	H 	0.03465 0.74676 0.20507 0.04400
H 	H 	0.78506 0.56579 0.71600 0.06100
H 	H 	0.29389 0.86050 0.72022 0.03400
H 	H 	0.71329 0.06438 0.72337 0.05200
H 	H 	0.71733 0.21257 0.37842 0.03300
H 	H 	0.94519 0.31469 0.12132 0.06200
H 	H 	0.53374 0.74161 0.70532 0.04500
H 	H 	0.66403 0.91548 0.72024 0.06100
H 	H 	0.22714 0.93013 0.70052 0.06600
H 	H 	0.62307 0.34603 0.05554 0.06500
H 	H 	0.52556 0.79026 0.69271 0.06300
H 	H 	0.73020 0.90436 0.91553 0.06500
H 	H 	0.49407 0.89677 0.74364 0.06300
H 	H 	0.72936 0.43977 0.70366 0.06900
H 	H 	0.69021 0.00029 0.14379 0.06200
H 	H 	0.84877 0.92997 0.46482 0.06200
H 	H 	0.97501 0.74752 0.80504 0.04900
H 	H 	0.49379 0.92595 0.63223 0.06500
H 	H 	0.21387 0.27573 0.42951 0.05000
H 	H 	0.73824 0.41004 0.94231 0.06700
H 	H 	0.79135 0.12146 0.78614 0.03300
H 	H 	0.28390 0.36392 0.79355 0.03400
H 	H 	0.07408 0.20370 0.22487 0.05300
H 	H 	0.53327 0.23427 0.70719 0.04700
H 	H 	0.21472 0.06720 0.21332 0.05200
H 	H 	0.57751 0.28251 0.78571 0.06100
H 	H 	0.01638 0.36757 0.29203 0.06000
H 	H 	0.27993 0.20349 0.57621 0.05200
H 	H 	0.29124 0.21002 0.37493 0.03300
H 	H 	0.70816 0.71979 0.07997 0.05400
H 	H 	0.36392 0.78485 0.45482 0.06100
H 	H 	0.17889 0.98091 0.53324 0.06600
H 	H 	0.29335 0.35926 0.22310 0.03600
H 	H 	0.95985 0.81792 0.61721 0.06200
H 	H 	0.57422 0.71529 0.79854 0.05400
H 	H 	0.29200 0.27219 0.13479 0.03500
H 	H 	0.63123 0.20314 0.72210 0.03300
H 	H 	0.07923 0.77303 0.21382 0.05200
H 	H 	0.70876 0.62153 0.23324 0.03300
H 	H 	0.92816 0.28542 0.71783 0.05800
H 	H 	0.87518 0.71055 0.71428 0.04400
H 	H 	0.63045 0.21796 0.29911 0.03300
H 	H 	0.78898 0.21163 0.87541 0.03300
H 	H 	0.78438 0.51501 0.63252 0.07200
H 	H 	0.87465 0.77183 0.79532 0.04300
H 	H 	0.54140 0.78214 0.86523 0.06100
H 	H 	0.63191 0.93063 0.97991 0.06200
H 	H 	0.13336 0.27951 0.28822 0.03400
H 	H 	0.87124 0.78115 0.22115 0.04400
H 	H 	0.03237 0.23254 0.20868 0.04500
H 	H 	0.14925 0.42313 0.72115 0.05900
H 	H 	0.28990 0.06398 0.28217 0.05400
H 	H 	0.29653 0.77041 0.63684 0.03400
H 	H 	0.57667 0.78323 0.29276 0.06200
H 	H 	0.11682 0.94831 0.67774 0.06600
H 	H 	0.79292 0.41609 0.72021 0.05400
H 	H 	0.12509 0.92409 0.48407 0.06300
H 	H 	0.78418 0.86362 0.96223 0.06200
H 	H 	0.27752 0.69578 0.13372 0.04100
H 	H 	0.21903 0.36160 0.71696 0.03300
H 	H 	0.57723 0.27199 0.21227 0.05100
H 	H 	0.24290 0.41676 0.01402 0.05900
H 	H 	0.05187 0.90406 0.73743 0.06600
H 	H 	0.53382 0.24309 0.20314 0.04500
H 	H 	0.51590 0.79057 0.21609 0.07000
H 	H 	0.20632 0.80800 0.98940 0.06400
H 	H 	0.28645 0.01891 0.61905 0.07200
H 	H 	0.29804 0.77062 0.58061 0.05600
H 	H 	0.14158 0.94467 0.00861 0.06500
H 	H 	0.21978 0.45655 0.13562 0.06800
H 	H 	0.69800 0.43358 0.12795 0.06200
H 	H 	0.63376 0.76748 0.71364 0.03400
H 	H 	0.20658 0.23875 0.97377 0.04600
H 	H 	0.34699 0.93471 0.96004 0.06200
H 	H 	0.23031 0.78814 0.08073 0.05500
H 	H 	0.20877 0.51967 0.26715 0.04900
H 	H 	0.12317 0.83123 0.55539 0.06400
H 	H 	0.13498 0.27281 0.71274 0.03300
H 	H 	0.75097 0.90989 0.51520 0.06100
H 	H 	0.87284 0.27976 0.29111 0.03400
H 	H 	0.24168 0.86114 0.20822 0.03800
H 	H 	0.18303 0.92252 0.18489 0.05900
H 	H 	0.73564 0.06604 0.30599 0.05400
H 	H 	0.13539 0.77015 0.21484 0.03400
H 	H 	0.02272 0.28626 0.20153 0.06800
H 	H 	0.86395 0.28496 0.45582 0.06100
H 	H 	0.03811 0.28307 0.86349 0.06100
H 	H 	0.21675 0.92083 0.78102 0.05900
H 	H 	0.71161 0.21235 0.63308 0.03500
H 	H 	0.13141 0.71613 0.29950 0.03300
H 	H 	0.37479 0.70164 0.78520 0.03200
H 	H 	0.63994 0.02047 0.67999 0.06000
H 	H 	0.48657 0.41421 0.32687 0.06200
H 	H 	0.83126 0.44938 0.45843 0.06200
H 	H 	0.13585 0.78207 0.78775 0.03400
H 	H 	0.77772 0.20215 0.13332 0.04300
H 	H 	0.42851 0.78480 0.72607 0.06200
H 	H 	0.63829 0.43328 0.23505 0.05800
H 	H 	0.45938 0.31501 0.61537 0.06200
H 	H 	0.50158 0.42914 0.13251 0.06600
H 	H 	0.71155 0.29785 0.48648 0.06900
H 	H 	0.57751 0.93821 0.75992 0.06500
H 	H 	0.12731 0.84206 0.06573 0.06300
H 	H 	0.21199 0.21207 0.07689 0.05700
H 	H 	0.77539 0.69666 0.57933 0.05400
H 	H 	0.99387 0.93263 0.13577 0.06400
H 	H 	0.79991 0.76442 0.08401 0.04900
H 	H 	0.71583 0.77740 0.43504 0.05100
H 	H 	0.28692 0.28384 0.92820 0.06100
H 	H 	0.43173 0.70233 0.78309 0.05300
H 	H 	0.28712 0.28112 0.87256 0.03500
H 	H 	0.22549 0.06300 0.79072 0.05400
H 	H 	0.80376 0.74001 0.03895 0.04700
H 	H 	0.78015 0.12482 0.21747 0.03500
H 	H 	0.85427 0.05018 0.72691 0.06100
H 	H 	0.21404 0.27421 0.37331 0.03400
H 	H 	0.84865 0.43502 0.96439 0.06200
H 	H 	0.97494 0.40810 0.32649 0.06100
H 	H 	0.18578 0.48306 0.03019 0.06700
H 	H 	0.61640 0.45225 0.68653 0.06500
H 	H 	0.28213 0.12493 0.71188 0.03400
H 	H 	0.37429 0.20411 0.28676 0.03200
H 	H 	0.22244 0.11955 0.79231 0.03300
H 	H 	0.03182 0.86771 0.28732 0.06100
H 	H 	0.21153 0.21196 0.13357 0.03600
H 	H 	0.79642 0.46173 0.26746 0.05000
H 	H 	0.78176 0.06920 0.21675 0.06100
H 	H 	0.25685 0.40853 0.52273 0.06000
H 	H 	0.98342 0.92293 0.33006 0.06200
H 	H 	0.28229 0.06988 0.70802 0.06300
H 	H 	0.72399 0.29013 0.07927 0.05500
H 	H 	0.72465 0.61790 0.79845 0.03300
H 	H 	0.07783 0.28233 0.28752 0.06300
H 	H 	0.12605 0.34127 0.55807 0.06500
H 	H 	0.30393 0.24929 0.03416 0.04900
H 	H 	0.37029 0.27910 0.22008 0.03600
H 	H 	0.77798 0.69673 0.63579 0.03300
H 	H 	0.77407 0.85950 0.80554 0.04500
H 	H 	0.73105 0.12269 0.30480 0.03500
H 	H 	0.55122 0.40156 0.73747 0.06600
H 	H 	0.79845 0.96231 0.77033 0.05000
H 	H 	0.24699 0.41081 0.45039 0.06700
H 	H 	0.47293 0.74448 0.80290 0.04700
H 	H 	0.99501 0.90075 0.24642 0.06200
H 	H 	0.25262 0.91482 0.01714 0.06100
H 	H 	0.93420 0.20823 0.78415 0.04800
H 	H 	0.79276 0.35837 0.98478 0.06100
H 	H 	0.29598 0.77750 0.42846 0.06200
H 	H 	0.78421 0.58942 0.08486 0.06200
H 	H 	0.21286 0.36298 0.28262 0.03700
H 	H 	0.72947 0.56151 0.79970 0.05500
H 	H 	0.35068 0.55489 0.73318 0.06100
H 	H 	0.19829 0.46073 0.63006 0.06200
H 	H 	0.81723 0.05851 0.05252 0.06100
H 	H 	0.54994 0.28383 0.86350 0.06100
H 	H 	0.42595 0.28208 0.21975 0.06300
H 	H 	0.71632 0.41807 0.78556 0.06000
H 	H 	0.13217 0.21682 0.79615 0.03300
H 	H 	0.35923 0.26718 0.45035 0.06000
H 	H 	0.69471 0.49550 0.64499 0.06200
H 	H 	0.78091 0.41933 0.29802 0.05500
H 	H 	0.70080 0.25898 0.97348 0.04500
H 	H 	0.61886 0.32877 0.54679 0.06400
H 	H 	0.70283 0.02254 0.75125 0.06400
H 	H 	0.42952 0.27147 0.79291 0.05500
H 	H 	0.01420 0.92124 0.62858 0.06400
H 	H 	0.51321 0.91382 0.12631 0.06400
H 	H 	0.78088 0.51056 0.14631 0.06700
H 	H 	0.07559 0.21895 0.79560 0.05500
H 	H 	0.27936 0.62223 0.21604 0.03600
H 	H 	0.63325 0.28065 0.78593 0.03500
H 	H 	0.70239 0.75168 0.47754 0.04600
H 	H 	0.28764 0.99957 0.05710 0.08200
H 	H 	0.20879 0.02119 0.76303 0.04900
H 	H 	0.22839 0.55966 0.29824 0.05300
H 	H 	0.79149 0.06497 0.78670 0.05500
H 	H 	0.07620 0.94186 0.26395 0.06500
H 	H 	0.13367 0.70653 0.72166 0.03300
H 	H 	0.94059 0.82956 0.12504 0.06200
H 	H 	0.42974 0.20873 0.71414 0.05700
H 	H 	0.17983 0.04285 0.03309 0.06600
H 	H 	0.79049 0.56419 0.29085 0.05500
H 	H 	0.37193 0.77327 0.29610 0.03400
H 	H 	0.72291 0.28751 0.13517 0.04300
H 	H 	0.52004 0.95062 0.33471 0.06200
H 	H 	0.07825 0.44019 0.76294 0.06300
H 	H 	0.15799 0.51721 0.65564 0.06300
H 	H 	0.26867 0.86114 0.30624 0.04100
H 	H 	0.13373 0.42293 0.97756 0.06400
H 	H 	0.98433 0.39131 0.24362 0.06400
H 	H 	0.30250 0.96321 0.73094 0.04700
H 	H 	0.71624 0.36315 0.22087 0.03300
H 	H 	0.35482 0.05374 0.22933 0.06100
H 	H 	0.70708 0.71865 0.13827 0.04300
H 	H 	0.29762 0.23261 0.53433 0.04700
H 	H 	0.13056 0.20334 0.22289 0.03300
H 	H 	0.57379 0.21927 0.29785 0.05400
H 	H 	0.34236 0.44865 0.97048 0.06100
H 	H 	0.49582 0.39581 0.24256 0.06300
H 	H 	0.71546 0.77605 0.37895 0.03300
H 	H 	0.29034 0.51593 0.12449 0.07200
H 	H 	0.21654 0.29608 0.98973 0.07100
H 	H 	0.63344 0.27122 0.21399 0.03400
H 	H 	0.22892 0.90276 0.43541 0.06700
H 	H 	0.29894 0.35594 0.49131 0.06100
H 	H 	0.93467 0.70975 0.28841 0.04800
H 	H 	0.28233 0.20411 0.63266 0.03300
H 	H 	0.37214 0.78280 0.72587 0.03600
H 	H 	0.28018 0.42055 0.79489 0.05700
H 	H 	0.29438 0.41495 0.22007 0.05000
H 	H 	0.21387 0.71323 0.63467 0.03500
H 	H 	0.70785 0.24461 0.47541 0.04600
H 	H 	0.86444 0.54049 0.70993 0.06200
H 	H 	0.21574 0.95537 0.63764 0.06800
H 	H 	0.99653 0.43146 0.63290 0.06500
H 	H 	0.22079 0.28337 0.63457 0.03600
H 	H 	0.84452 0.55923 0.22888 0.06100
H 	H 	0.21513 0.71173 0.38046 0.03200
H 	H 	0.37338 0.70574 0.22167 0.03500
H 	H 	0.85667 0.76386 0.45082 0.06000
H 	H 	0.79881 0.76227 0.14035 0.04100
H 	H 	0.29232 0.85718 0.98524 0.06100
H 	H 	0.23794 0.91808 0.50667 0.05900
H 	H 	0.47246 0.24580 0.80403 0.04800
H 	H 	0.66671 0.01655 0.53982 0.06500
H 	H 	0.06621 0.45120 0.27094 0.06500
H 	H 	0.23557 0.90849 0.94577 0.06700
H 	H 	0.36334 0.03611 0.70293 0.06300
H 	H 	0.02715 0.79516 0.19246 0.06200
H 	H 	0.71232 0.27647 0.87192 0.03400
H 	H 	0.45667 0.81105 0.11962 0.06200
H 	H 	0.43916 0.82335 0.62441 0.06200
H 	H 	0.28769 0.61241 0.59776 0.06100
H 	H 	0.57380 0.70440 0.23027 0.05400
H 	H 	0.98043 0.90844 0.73803 0.06100
H 	H 	0.29849 0.96335 0.26902 0.05000
H 	H 	0.69873 0.52215 0.26100 0.05200
H 	H 	0.33209 0.94894 0.45823 0.06200
H 	H 	0.74526 0.91118 0.98666 0.06000
H 	H 	0.67608 0.96762 0.03427 0.06500
H 	H 	0.11964 0.45611 0.17196 0.06500
H 	H 	0.75056 0.00110 0.57911 0.06300
H 	H 	0.30725 0.10884 0.08483 0.06200
H 	H 	0.86487 0.04078 0.20951 0.06200
H 	H 	0.70790 0.75772 0.87539 0.03200
H 	H 	0.92908 0.28028 0.29023 0.05300
H 	H 	0.21552 0.62250 0.72077 0.03300
H 	H 	0.73864 0.90353 0.44363 0.06700
H 	H 	0.79023 0.70888 0.37976 0.03300
H 	H 	0.79612 0.72579 0.53855 0.04800
H 	H 	0.79433 0.26939 0.63635 0.03400
H 	H 	0.21341 0.41957 0.28017 0.05600
H 	H 	0.30758 0.07028 0.56685 0.06000
H 	H 	0.79126 0.91812 0.21885 0.04800
H 	H 	0.36335 0.28208 0.95325 0.06100
H 	H 	0.27975 0.56700 0.21209 0.06400
H 	H 	0.76289 0.46628 0.57318 0.06200
H 	H 	0.92863 0.20960 0.21853 0.05900
H 	H 	0.24045 0.40259 0.94252 0.06800
H 	H 	0.42813 0.77368 0.29702 0.05700
H 	H 	0.73482 0.41781 0.50384 0.06000
H 	H 	0.77178 0.91834 0.80807 0.05200
H 	H 	0.71572 0.41915 0.22148 0.05800
H 	H 	0.86161 0.77970 0.95340 0.06000
H 	H 	0.73208 0.86282 0.71301 0.04100
H 	H 	0.69495 0.79103 0.98078 0.06200
H 	H 	0.29427 0.77314 0.37387 0.03500
H 	H 	0.58066 0.44015 0.26526 0.06000
H 	H 	0.53869 0.27880 0.36353 0.06100
H 	H 	0.70612 0.30958 0.98483 0.06500
H 	H 	0.71352 0.02599 0.27631 0.04900
H 	H 	0.03578 0.73730 0.70795 0.04600
H 	H 	0.53223 0.73428 0.21386 0.04600
H 	H 	0.22876 0.78479 0.13669 0.04200
H 	H 	0.35723 0.43177 0.47690 0.06200
H 	H 	0.29145 0.71181 0.87607 0.03300
H 	H 	0.48524 0.92054 0.82706 0.06200
H 	H 	0.57765 0.76960 0.71388 0.05100
H 	H 	0.97452 0.24237 0.80015 0.04700
H 	H 	0.87201 0.28259 0.71900 0.04400
H 	H 	0.79480 0.85304 0.48894 0.06100
H 	H 	0.00011 0.86502 0.79897 0.06000
H 	H 	0.79103 0.62066 0.29091 0.03200
H 	H 	0.87213 0.21021 0.21860 0.03600
H 	H 	0.63018 0.70418 0.22882 0.03300
H 	H 	0.79495 0.22927 0.03352 0.04800
H 	H 	0.78938 0.86137 0.22041 0.04200
H 	H 	0.75040 0.41785 0.01491 0.06200
H 	H 	0.42992 0.70572 0.22281 0.05900
H 	H 	0.55011 0.90013 0.23555 0.06600
H 	H 	0.70874 0.80277 0.49045 0.06500
H 	H 	0.22137 0.28537 0.57877 0.06200
H 	H 	0.44382 0.32782 0.11926 0.06200
H 	H 	0.27551 0.69702 0.07523 0.04800
H 	H 	0.71187 0.52020 0.77156 0.04900
H 	H 	0.79588 0.27077 0.58028 0.05600
H 	H 	0.22648 0.42884 0.20171 0.06600
H 	H 	0.29060 0.86685 0.48853 0.06000
H 	H 	0.73069 0.94783 0.20609 0.06800
H 	H 	0.20493 0.30242 0.48398 0.06500
H 	H 	0.31054 0.56475 0.08448 0.06100
H 	H 	0.93105 0.77295 0.79569 0.05100
H 	H 	0.63089 0.71162 0.79864 0.03500
H 	H 	0.21483 0.77985 0.92899 0.05100
H 	H 	0.21566 0.77767 0.87279 0.03400
C 	C 	0.03891 0.80247 0.34861 -0.09200
C 	C 	0.75301 0.85593 0.75998 -0.08100
C 	C 	0.75046 0.65943 0.26169 0.42000
C 	C 	0.12225 0.72321 0.73670 0.04800
C 	C 	0.14323 0.46952 0.65724 -0.02200
C 	C 	0.75246 0.82304 0.25881 0.31600
C 	C 	0.67096 0.48007 0.16576 -0.08700
C 	C 	0.72632 0.42337 0.00990 -0.08200
C 	C 	0.53292 0.29004 0.31538 -0.00600
C 	C 	0.80901 0.90292 0.92329 -0.02100
C 	C 	0.75466 0.24578 0.37110 -0.15100
C 	C 	0.53638 0.40740 0.81505 -0.02100
C 	C 	0.12262 0.75871 0.23332 0.04600
C 	C 	0.71739 0.06550 0.64998 0.08700
C 	C 	0.23069 0.26072 0.41836 -0.07600
C 	C 	0.18401 0.94710 0.72038 -0.00600
C 	C 	0.27282 0.57605 0.77245 -0.08100
C 	C 	0.73182 0.76164 0.42369 -0.07900
C 	C 	0.02895 0.44601 0.76535 -0.02100
C 	C 	0.41774 0.72102 0.23869 -0.07700
C 	C 	0.97089 0.74673 0.25245 -0.00100
C 	C 	0.01442 0.94235 0.67504 0.14400
C 	C 	0.47399 0.24794 0.69790 0.00300
C 	C 	0.20284 0.94067 0.47925 -0.02200
C 	C 	0.67966 0.47984 0.55764 -0.08300
C 	C 	0.88469 0.76520 0.23526 0.01200
C 	C 	0.17182 0.24347 0.75457 0.41700
C 	C 	0.75208 0.74021 0.14434 -0.08400
C 	C 	0.14977 0.92352 0.48914 -0.08700
C 	C 	0.53049 0.26103 0.81081 -0.01200
C 	C 	0.77751 0.26540 0.41960 -0.08200
C 	C 	0.74542 0.07840 0.28634 -0.07600
C 	C 	0.65271 0.84794 0.01468 -0.00600
C 	C 	0.72949 0.24449 0.48841 -0.04400
C 	C 	0.50511 0.41644 0.65162 -0.08600
C 	C 	0.92147 0.22471 0.76997 -0.06000
C 	C 	0.93830 0.74117 0.75481 0.03000
C 	C 	0.84790 0.53305 0.69240 -0.08700
C 	C 	0.01945 0.23652 0.22998 -0.04400
C 	C 	0.29577 0.53541 0.66449 -0.08400
C 	C 	0.80713 0.25165 0.97842 -0.01200
C 	C 	0.30203 0.08477 0.07941 -0.08300
C 	C 	0.27958 0.75763 0.59176 -0.07800
C 	C 	0.14212 0.44806 0.18009 -0.08300
C 	C 	0.76312 0.90669 0.78748 -0.06000
C 	C 	0.77402 0.72465 0.42426 -0.07800
C 	C 	0.63641 0.74192 0.26180 -0.15100
C 	C 	0.64274 0.97562 0.63589 0.03900
C 	C 	0.54368 0.91130 0.25722 -0.09200
C 	C 	0.22929 0.22540 0.12180 0.04300
C 	C 	0.98932 0.25138 0.72191 0.01300
C 	C 	0.19242 0.89956 0.51749 0.14300
C 	C 	0.17173 0.74111 0.25739 0.41700
C 	C 	0.77922 0.00755 0.76060 0.02300
C 	C 	0.81322 0.02365 0.23616 -0.01000
C 	C 	0.80091 0.45304 0.96498 0.13900
C 	C 	0.02055 0.74975 0.78469 0.02700
C 	C 	0.68714 0.31619 0.99962 -0.09500
C 	C 	0.75470 0.85955 0.40889 0.09400
C 	C 	0.30057 0.81749 0.48946 0.13600
C 	C 	0.52568 0.94918 0.73189 0.03300
C 	C 	0.03232 0.30281 0.35207 -0.09200
C 	C 	0.51688 0.24575 0.28028 0.02300
C 	C 	0.47260 0.75494 0.69770 0.00500
C 	C 	0.25274 0.05894 0.24833 0.04000
C 	C 	0.13721 0.24108 0.25576 -0.14600
C 	C 	0.01876 0.44324 0.23513 0.02600
C 	C 	0.81050 0.02879 0.71678 -0.00800
C 	C 	0.26205 0.36892 0.41320 0.09500
C 	C 	0.76545 0.71539 0.62438 0.05000
C 	C 	0.92141 0.72444 0.73223 -0.05600
C 	C 	0.74690 0.24433 0.03683 0.00200
C 	C 	0.26828 0.22159 0.62119 0.04400
C 	C 	0.25859 0.74693 0.47301 -0.01200
C 	C 	0.03587 0.88982 0.84143 0.02800
C 	C 	0.66861 0.96449 0.72833 -0.00700
C 	C 	0.02424 0.46910 0.14496 0.10100
C 	C 	0.48214 0.32653 0.75847 0.09800
C 	C 	0.27897 0.76165 0.41972 -0.08300
C 	C 	0.01352 0.33250 0.24819 0.09800
C 	C 	0.80074 0.94723 0.46591 0.13900
C 	C 	0.88689 0.72398 0.73208 0.01200
C 	C 	0.45951 0.28921 0.14859 0.13700
C 	C 	0.20530 0.90326 0.03019 0.14400
C 	C 	0.71052 0.41812 0.49716 -0.08500
C 	C 	0.53534 0.89124 0.34030 0.02800
C 	C 	0.75504 0.42279 0.75330 0.04400
C 	C 	0.31909 0.99195 0.56466 0.14400
C 	C 	0.72696 0.74596 0.99126 -0.04500
C 	C 	0.53972 0.83230 0.85719 0.14200
C 	C 	0.29619 0.51758 0.17411 0.13300
C 	C 	0.76094 0.06188 0.26239 0.04600
C 	C 	0.17512 0.84425 0.00283 0.14600
C 	C 	0.78603 0.39484 0.93754 0.14000
C 	C 	0.15876 0.95596 0.15566 0.13900
C 	C 	0.01791 0.43990 0.26773 -0.01900
C 	C 	0.72920 0.75436 0.92218 -0.05900
C 	C 	0.64059 0.33710 0.03977 -0.08200
C 	C 	0.15148 0.94860 0.71510 0.13600
C 	C 	0.04633 0.44238 0.28358 -0.08800
C 	C 	0.69141 0.49014 0.62062 -0.08400
C 	C 	0.66752 0.90096 0.99806 -0.00700
C 	C 	0.19599 0.85242 0.95489 0.08900
C 	C 	0.47179 0.25914 0.19450 0.00400
C 	C 	0.52708 0.94035 0.31283 -0.08500
C 	C 	0.30812 0.24931 0.47713 -0.01200
C 	C 	0.48742 0.23894 0.72648 0.01100
C 	C 	0.70116 0.84505 0.45287 0.08900
C 	C 	0.31823 0.40750 0.95587 -0.02200
C 	C 	0.27737 0.75996 0.38718 0.05000
C 	C 	0.32701 0.48746 0.59142 0.10500
C 	C 	0.03829 0.24758 0.75286 -0.00400
C 	C 	0.16592 0.90956 0.13114 0.09700
C 	C 	0.34884 0.52120 0.10458 0.03700
C 	C 	0.75218 0.48597 0.66814 0.09500
C 	C 	0.61989 0.28091 0.57957 0.09800
C 	C 	0.33314 0.42799 0.47055 -0.08600
C 	C 	0.08813 0.26333 0.27494 -0.07900
C 	C 	0.75182 0.74273 0.47466 -0.00900
C 	C 	0.51395 0.93697 0.17178 0.14400
C 	C 	0.97086 0.24499 0.74873 -0.00400
C 	C 	0.48960 0.88626 0.16040 -0.00500
C 	C 	0.38530 0.25757 0.77541 0.03100
C 	C 	0.61978 0.22029 0.73659 0.04700
C 	C 	0.74700 0.42490 0.26093 0.04900
C 	C 	0.74284 0.11111 0.28580 0.03500
C 	C 	0.05207 0.89856 0.78748 0.14200
C 	C 	0.12309 0.04499 0.04407 0.09600
C 	C 	0.74543 0.99932 0.17276 0.09500
C 	C 	0.30968 0.45015 0.47871 0.13900
C 	C 	0.01998 0.24830 0.78040 0.02300
C 	C 	0.24256 0.01506 0.65559 0.09900
C 	C 	0.22961 0.50673 0.26111 -0.04100
C 	C 	0.25399 0.42326 0.25003 0.03600
C 	C 	0.18370 0.44926 0.21872 -0.00700
C 	C 	0.92076 0.26202 0.12168 0.09600
C 	C 	0.20247 0.93115 0.69849 -0.09700
C 	C 	0.30942 0.93948 0.45254 -0.08600
C 	C 	0.77698 0.02940 0.04087 0.14200
C 	C 	0.76272 0.90915 0.44841 -0.09000
C 	C 	0.75567 0.12859 0.26128 -0.12100
C 	C 	0.68909 0.45868 0.98597 0.14200
C 	C 	0.51798 0.45227 0.73004 0.03500
C 	C 	0.03132 0.88898 0.34501 0.03300
C 	C 	0.22467 0.00875 0.24165 -0.03900
C 	C 	0.69200 0.44814 0.10825 -0.08600
C 	C 	0.25180 0.24381 0.46997 -0.00700
C 	C 	0.75217 0.12633 0.75460 -0.14400
C 	C 	0.81570 0.55761 0.12549 0.02900
C 	C 	0.84420 0.79794 0.95369 -0.08900
C 	C 	0.23109 0.40703 0.26737 -0.07100
C 	C 	0.85076 0.32043 0.94699 0.14100
C 	C 	0.00555 0.94733 0.18312 0.14300
C 	C 	0.01030 0.43568 0.71143 -0.01200
C 	C 	0.71483 0.52439 0.17806 0.09200
C 	C 	0.65027 0.99920 0.58487 0.14100
C 	C 	0.68229 0.82860 0.93979 0.08900
C 	C 	0.17219 0.43612 0.50865 -0.08400
C 	C 	0.53604 0.40950 0.32355 -0.02200
C 	C 	0.13689 0.03215 0.23900 0.09500
C 	C 	0.26677 0.40814 0.77752 -0.07900
C 	C 	0.27422 0.72817 0.92006 -0.07600
C 	C 	0.66458 0.43975 0.99822 -0.08500
C 	C 	0.72613 0.57671 0.24643 -0.08100
C 	C 	0.25622 0.74282 0.57392 0.04700
C 	C 	0.03750 0.30168 0.84647 -0.09100
C 	C 	0.30460 0.53539 0.59263 0.14300
C 	C 	0.22983 0.00858 0.75709 -0.04000
C 	C 	0.38117 0.59291 0.70193 0.09800
C 	C 	0.81981 0.51943 0.70258 -0.01500
C 	C 	0.19861 0.25492 0.03291 0.00400
C 	C 	0.15435 0.29041 0.03849 0.13700
C 	C 	0.25337 0.24331 0.07136 0.04100
C 	C 	0.98149 0.27088 0.17731 -0.00600
C 	C 	0.47254 0.74717 0.20448 0.00300
C 	C 	0.77747 0.25743 0.59109 -0.07900
C 	C 	0.24340 0.49624 0.04038 0.03000
C 	C 	0.98294 0.28188 0.67119 -0.00700
C 	C 	0.25268 0.45636 0.61189 0.09200
C 	C 	0.48697 0.90802 0.21226 -0.08400
C 	C 	0.89922 0.81326 0.92472 0.09500
C 	C 	0.30529 0.83793 0.97547 -0.08000
C 	C 	0.90275 0.55693 0.66974 0.10000
C 	C 	0.53657 0.24121 0.75689 -0.01400
C 	C 	0.27449 0.25895 0.12239 0.04300
C 	C 	0.74941 0.55917 0.26178 0.04900
C 	C 	0.51022 0.84827 0.31377 -0.08200
C 	C 	0.31257 0.03013 0.08868 0.14200
C 	C 	0.47634 0.86846 0.64246 0.01700
C 	C 	0.64712 0.44639 0.21540 -0.09200
C 	C 	0.81565 0.52478 0.58188 -0.01800
C 	C 	0.24530 0.51295 0.15914 0.09700
C 	C 	0.27595 0.37217 0.23596 0.03200
C 	C 	0.83397 0.03285 0.10594 0.02700
C 	C 	0.70598 0.94841 0.20321 -0.09500
C 	C 	0.75279 0.24086 0.63989 -0.14700
C 	C 	0.60597 0.96250 0.24535 0.10600
C 	C 	0.27897 0.23968 0.48852 0.02300
C 	C 	0.28078 0.47364 0.23983 -0.04400
C 	C 	0.27435 0.03742 0.54693 0.13900
C 	C 	0.04188 0.83549 0.85896 0.14200
C 	C 	0.53099 0.44054 0.26628 -0.02100
C 	C 	0.67064 0.24123 0.75400 0.41800
C 	C 	0.67777 0.29674 0.02424 -0.00800
C 	C 	0.66982 0.01713 0.56483 -0.08500
C 	C 	0.12349 0.76503 0.77391 0.04900
C 	C 	0.25190 0.16093 0.75358 0.41000
C 	C 	0.23321 0.72584 0.39091 0.04800
C 	C 	0.15747 0.42252 0.98599 -0.08700
C 	C 	0.33965 0.35614 0.96992 -0.01100
C 	C 	0.51269 0.44227 0.18048 0.14400
C 	C 	0.16537 0.49783 0.70172 0.13900
C 	C 	0.78770 0.95411 0.93771 0.13900
C 	C 	0.02644 0.93986 0.81608 -0.08500
C 	C 	0.19750 0.45534 0.49872 0.14300
C 	C 	0.24908 0.24330 0.57143 0.04500
C 	C 	0.98529 0.82835 0.75848 0.09800
C 	C 	0.00654 0.91916 0.65248 -0.08600
C 	C 	0.36700 0.24101 0.25309 -0.14500
C 	C 	0.80108 0.54484 0.09914 -0.02100
C 	C 	0.54213 0.31517 0.40824 0.09700
C 	C 	0.25575 0.24453 0.93629 0.04600
C 	C 	0.77377 0.72390 0.39153 0.04800
C 	C 	0.61283 0.91040 0.79635 0.10000
C 	C 	0.75224 0.05914 0.75536 0.04500
C 	C 	0.19058 0.42258 0.16861 0.14100
C 	C 	0.17533 0.51105 0.55937 -0.08300
C 	C 	0.53068 0.75941 0.81084 -0.01200
C 	C 	0.02969 0.26301 0.31210 -0.01300
C 	C 	0.72923 0.40767 0.23920 -0.08000
C 	C 	0.50626 0.94138 0.67915 0.14400
C 	C 	0.34584 0.28690 0.45855 -0.09000
C 	C 	0.28198 0.95809 0.45537 0.13800
C 	C 	0.63874 0.88986 0.67475 0.09600
C 	C 	0.35990 0.52961 0.15980 0.14200
C 	C 	0.33642 0.94200 0.56708 0.09700
C 	C 	0.34914 0.52864 0.19116 -0.09200
C 	C 	0.74643 0.45842 0.26231 -0.00800
C 	C 	0.25777 0.74558 0.43923 0.04800
C 	C 	0.78217 0.74264 0.02626 -0.04700
C 	C 	0.30344 0.02181 0.63730 -0.08600
C 	C 	0.83399 0.24476 0.25557 0.41500
C 	C 	0.83482 0.73970 0.75443 0.31600
C 	C 	0.62426 0.45051 0.54453 0.10000
C 	C 	0.25523 0.85718 0.75252 -0.14400
C 	C 	0.83372 0.74201 0.25811 0.31600
C 	C 	0.25121 0.24336 0.63891 -0.14400
C 	C 	0.12111 0.29012 0.58491 0.09800
C 	C 	0.17112 0.46142 0.07375 0.14000
C 	C 	0.03016 0.38819 0.84268 0.03200
C 	C 	0.76510 0.22072 0.12188 0.00900
C 	C 	0.54433 0.82043 0.90858 0.09700
C 	C 	0.53181 0.82854 0.74225 0.09500
C 	C 	0.53678 0.96651 0.13437 0.10300
C 	C 	0.17375 0.90980 0.02394 -0.00500
C 	C 	0.45168 0.44259 0.28999 0.09600
C 	C 	0.75331 0.43292 0.11387 0.08700
C 	C 	0.72237 0.25518 0.98588 -0.04100
C 	C 	0.02283 0.73878 0.72955 -0.04300
C 	C 	0.52476 0.29186 0.82116 -0.01100
C 	C 	0.25191 0.49018 0.67458 0.09600
C 	C 	0.75211 0.74125 0.34120 0.42300
C 	C 	0.62092 0.26320 0.77257 0.04700
C 	C 	0.96824 0.24421 0.25472 -0.00700
C 	C 	0.85363 0.03717 0.15985 0.13900
C 	C 	0.14288 0.33195 0.54178 -0.08200
C 	C 	0.77415 0.10940 0.77221 0.04500
C 	C 	0.14885 0.98725 0.15427 -0.02100
C 	C 	0.38611 0.71967 0.77174 0.04700
C 	C 	0.06760 0.82524 0.90403 0.09800
C 	C 	0.69379 0.94347 0.17301 0.14100
C 	C 	0.46196 0.31916 0.13448 -0.08300
C 	C 	0.80451 0.51961 0.25055 -0.00900
C 	C 	0.63745 0.24144 0.75442 -0.14900
C 	C 	0.77920 0.75307 0.12748 0.01300
C 	C 	0.77218 0.60853 0.73598 0.04800
C 	C 	0.67128 0.41215 0.01447 -0.00500
C 	C 	0.66801 0.83133 0.99092 0.14200
C 	C 	0.19321 0.47457 0.05272 -0.08200
C 	C 	0.01967 0.74945 0.28275 0.02400
C 	C 	0.26655 0.36036 0.91182 0.09300
C 	C 	0.56075 0.91735 0.80302 0.14000
C 	C 	0.00841 0.80169 0.17744 -0.09100
C 	C 	0.75985 0.51074 0.55093 -0.00600
C 	C 	0.48638 0.73891 0.23310 0.01200
C 	C 	0.45816 0.35401 0.23098 0.09600
C 	C 	0.70103 0.43890 0.47379 -0.02200
C 	C 	0.26559 0.71645 0.08783 -0.05900
C 	C 	0.02694 0.94717 0.26793 -0.02000
C 	C 	0.50835 0.82213 0.17834 0.14700
C 	C 	0.29028 0.39569 0.94336 0.14100
C 	C 	0.23029 0.38868 0.16010 0.09300
C 	C 	0.33793 0.34292 0.46336 -0.01000
C 	C 	0.68104 0.28400 0.52380 -0.00600
C 	C 	0.73272 0.40602 0.77077 -0.07700
C 	C 	0.03624 0.32011 0.90778 0.09600
C 	C 	0.77009 0.12429 0.53822 0.09800
C 	C 	0.68913 0.95189 0.48883 0.14100
C 	C 	0.28486 0.74479 0.52403 -0.04000
C 	C 	0.83395 0.24211 0.75376 0.31700
C 	C 	0.51905 0.74654 0.78313 0.02300
C 	C 	0.81837 0.05271 0.65560 -0.00800
C 	C 	0.83177 0.35741 0.46268 -0.01200
C 	C 	0.07158 0.74639 0.25616 0.05000
C 	C 	0.68827 0.99208 0.12008 -0.08400
C 	C 	0.90029 0.32320 0.43168 0.09600
C 	C 	0.81868 0.02332 0.20363 -0.01300
C 	C 	0.72891 0.75172 0.88795 0.01500
C 	C 	0.34000 0.56463 0.68434 0.14100
C 	C 	0.94863 0.95251 0.29415 0.09600
C 	C 	0.81448 0.28306 0.97173 -0.00600
C 	C 	0.48805 0.36330 0.64001 0.01700
C 	C 	0.83147 0.54822 0.21031 -0.08900
C 	C 	0.14569 0.00356 0.12600 0.02800
C 	C 	0.78649 0.88819 0.44001 0.14000
C 	C 	0.25508 0.54669 0.56684 -0.01100
C 	C 	0.22986 0.96613 0.59195 0.14300
C 	C 	0.75326 0.82113 0.75826 0.31500
C 	C 	0.33005 0.84448 0.95507 -0.01100
C 	C 	0.65394 0.29224 0.54063 0.13700
C 	C 	0.76612 0.07628 0.55994 0.14400
C 	C 	0.75761 0.24690 0.43835 0.04700
C 	C 	0.32004 0.43927 0.96347 -0.08700
C 	C 	0.99415 0.90830 0.22253 -0.08200
C 	C 	0.72617 0.75094 0.02534 0.01000
C 	C 	0.53676 0.38464 0.34466 0.03500
C 	C 	0.51794 0.24790 0.78365 0.02600
C 	C 	0.75433 0.24269 0.57292 0.04800
C 	C 	0.64817 0.45739 0.15993 -0.02300
C 	C 	0.72729 0.72840 0.12681 0.01400
C 	C 	0.52454 0.43780 0.81567 -0.08400
C 	C 	0.73275 0.50711 0.76607 -0.04100
C 	C 	0.70477 0.44197 0.70074 -0.09700
C 	C 	0.10221 0.43938 0.31464 0.10500
C 	C 	0.21491 0.01839 0.05854 -0.01800
C 	C 	0.66013 0.80412 0.05062 0.14000
C 	C 	0.89482 0.79831 0.42389 0.09500
C 	C 	0.75099 0.32481 0.25707 0.41800
C 	C 	0.28337 0.25094 0.98860 0.02600
C 	C 	0.17767 0.40652 0.52138 -0.00600
C 	C 	0.75364 0.85789 0.25789 -0.08100
C 	C 	0.89427 0.30459 0.92134 0.09500
C 	C 	0.80753 0.01755 0.74755 -0.00900
C 	C 	0.23788 0.76659 0.09122 -0.05300
C 	C 	0.15470 0.99458 0.98146 0.09700
C 	C 	0.11111 0.91269 0.29978 0.10200
C 	C 	0.31954 0.55737 0.65967 -0.01000
C 	C 	0.15602 0.85515 0.02721 -0.00900
C 	C 	0.25244 0.74676 0.93637 0.04500
C 	C 	0.55101 0.89703 0.28581 0.14200
C 	C 	0.98953 0.86607 0.64085 0.01700
C 	C 	0.27061 0.95296 0.62353 0.09700
C 	C 	0.48404 0.74499 0.28887 -0.03800
C 	C 	0.21360 0.33902 0.95269 0.09500
C 	C 	0.27673 0.40479 0.23477 -0.07500
C 	C 	0.66494 0.93282 0.50144 -0.08400
C 	C 	0.81658 0.40055 0.94800 -0.02200
C 	C 	0.78258 0.56457 0.08094 -0.08400
C 	C 	0.98669 0.24042 0.22744 0.01200
C 	C 	0.19807 0.76765 0.03699 0.00500
C 	C 	0.95970 0.82109 0.13913 -0.08300
C 	C 	0.27439 0.22568 0.41935 -0.07600
C 	C 	0.29840 0.48384 0.04664 -0.07300
C 	C 	0.29249 0.45790 0.96491 0.13700
C 	C 	0.16046 0.47955 0.60376 -0.02100
C 	C 	0.80329 0.94209 0.11108 0.09400
C 	C 	0.27747 0.90598 0.73242 -0.08000
C 	C 	0.23918 0.37188 0.56420 0.08900
C 	C 	0.98667 0.39507 0.66526 -0.00600
C 	C 	0.05780 0.43676 0.77730 -0.08700
C 	C 	0.25606 0.55736 0.25590 0.04700
C 	C 	0.14463 0.00390 0.18206 -0.08400
C 	C 	0.77612 0.40496 0.73528 -0.08100
C 	C 	0.36829 0.24087 0.75301 -0.11700
C 	C 	0.25291 0.62421 0.25884 -0.12100
C 	C 	0.25369 0.45855 0.48775 0.03700
C 	C 	0.26718 0.22152 0.58834 -0.07800
C 	C 	0.23957 0.57286 0.27993 -0.07500
C 	C 	0.00398 0.42749 0.81267 -0.08800
C 	C 	0.52023 0.23606 0.72871 -0.04400
C 	C 	0.47634 0.88601 0.19043 0.14300
C 	C 	0.18800 0.81413 0.00519 -0.09400
C 	C 	0.98601 0.39878 0.21982 -0.08100
C 	C 	0.41229 0.77202 0.62800 0.09500
C 	C 	0.80905 0.43926 0.45208 -0.08500
C 	C 	0.58693 0.72697 0.78021 -0.07400
C 	C 	0.75162 0.02559 0.75702 -0.00300
C 	C 	0.98426 0.34148 0.64456 -0.00700
C 	C 	0.72592 0.54285 0.63193 0.09500
C 	C 	0.76470 0.46713 0.17994 0.10000
C 	C 	0.73497 0.87594 0.27769 0.01100
C 	C 	0.17969 0.79382 0.02938 -0.00900
C 	C 	0.72181 0.04621 0.12685 0.09300
C 	C 	0.15238 0.84320 0.51710 -0.00900
C 	C 	0.67478 0.48437 0.05782 -0.08500
C 	C 	0.70947 0.50568 0.59788 0.14000
C 	C 	0.27828 0.44161 0.47423 -0.02100
C 	C 	0.98173 0.88791 0.19999 0.14100
C 	C 	0.77600 0.90705 0.23553 -0.05900
C 	C 	0.16572 0.95887 0.57711 0.13900
C 	C 	0.14030 0.94205 0.68449 -0.08300
C 	C 	0.30017 0.30609 0.48607 0.13800
C 	C 	0.34324 0.03121 0.59737 0.03400
C 	C 	0.17062 0.94530 0.47508 0.14100
C 	C 	0.28525 0.58840 0.59047 -0.08400
C 	C 	0.02974 0.85765 0.83815 -0.01000
C 	C 	0.13148 0.97262 0.45240 0.10000
C 	C 	0.69561 0.27056 0.03348 0.00400
C 	C 	0.65415 0.95674 0.22412 0.13600
C 	C 	0.65868 0.96287 0.08199 0.14100
C 	C 	0.99126 0.89166 0.66139 -0.00500
C 	C 	0.23137 0.76429 0.91816 -0.07700
C 	C 	0.16104 0.93249 0.66125 -0.02000
C 	C 	0.05959 0.41899 0.80505 0.13800
C 	C 	0.02755 0.45290 0.73346 0.03300
C 	C 	0.22470 0.47837 0.06079 -0.02100
C 	C 	0.65469 0.85063 0.52105 -0.00900
C 	C 	0.23532 0.45719 0.96908 0.03600
C 	C 	0.86859 0.74321 0.25642 -0.08200
C 	C 	0.53340 0.88700 0.84255 0.03300
C 	C 	0.15484 0.94158 0.63025 0.02900
C 	C 	0.58698 0.22058 0.73739 -0.08100
C 	C 	0.25124 0.35745 0.75555 -0.14500
C 	C 	0.81824 0.99458 0.95274 0.09800
C 	C 	0.31660 0.02302 0.69245 -0.01100
C 	C 	0.79490 0.97464 0.60553 0.09700
C 	C 	0.70305 0.89936 0.52628 0.14300
C 	C 	0.56614 0.32338 0.90305 0.09800
C 	C 	0.74474 0.95537 0.47504 0.03600
C 	C 	0.26771 0.94234 0.96363 -0.02100
C 	C 	0.69816 0.46655 0.75230 0.00200
C 	C 	0.78700 0.01011 0.25022 0.02900
C 	C 	0.72798 0.50688 0.54389 0.03100
C 	C 	0.30465 0.56613 0.60423 -0.02100
C 	C 	0.19635 0.39818 0.01909 0.14400
C 	C 	0.91737 0.26415 0.27486 -0.07800
C 	C 	0.75013 0.73840 0.64205 -0.15400
C 	C 	0.41548 0.27716 0.12175 0.09500
C 	C 	0.28222 0.50649 0.24122 0.02800
C 	C 	0.29911 0.95198 0.96448 0.13900
C 	C 	0.80755 0.44517 0.60330 0.09300
C 	C 	0.84306 0.78359 0.45860 -0.09000
C 	C 	0.50696 0.93237 0.20354 -0.02100
C 	C 	0.73304 0.26925 0.08987 -0.05300
C 	C 	0.14162 0.82301 0.54030 -0.08200
C 	C 	0.49002 0.33221 0.65054 -0.00900
C 	C 	0.47038 0.74318 0.75302 -0.00600
C 	C 	0.72760 0.24764 0.52117 0.01300
C 	C 	0.81351 0.26236 0.47970 -0.01300
C 	C 	0.17656 0.95054 0.60694 -0.00700
C 	C 	0.54026 0.83770 0.36032 0.14200
C 	C 	0.78153 0.07046 0.00792 0.10000
C 	C 	0.23061 0.11055 0.23164 0.04200
C 	C 	0.38461 0.76485 0.73843 0.04900
C 	C 	0.12085 0.22960 0.77761 0.04600
C 	C 	0.72685 0.60943 0.24595 0.04800
C 	C 	0.25395 0.74341 0.83602 0.41300
C 	C 	0.23042 0.07793 0.22977 -0.07200
C 	C 	0.22221 0.25189 0.51907 0.01600
C 	C 	0.83495 0.53684 0.60578 0.02700
C 	C 	0.76399 0.22104 0.08723 -0.05800
C 	C 	0.66959 0.74123 0.26161 0.42200
C 	C 	0.84743 0.03431 0.19246 -0.08800
C 	C 	0.36751 0.73944 0.25888 -0.15000
C 	C 	0.77779 0.24109 0.98835 0.02200
C 	C 	0.98789 0.24244 0.77873 -0.04900
C 	C 	0.83524 0.98474 0.47993 0.10000
C 	C 	0.50690 0.79645 0.67745 -0.09100
C 	C 	0.17722 0.34119 0.49790 0.14500
C 	C 	0.26361 0.44283 0.96100 -0.02100
C 	C 	0.75356 0.24525 0.33797 0.42100
C 	C 	0.50730 0.93214 0.71067 -0.01100
C 	C 	0.08949 0.72353 0.73750 -0.08200
C 	C 	0.66199 0.94978 0.16793 -0.02100
C 	C 	0.64994 0.95411 0.13773 0.02900
C 	C 	0.25666 0.02603 0.74878 -0.01000
C 	C 	0.53495 0.84651 0.80279 -0.08300
C 	C 	0.22824 0.92073 0.01452 -0.08100
C 	C 	0.69840 0.03726 0.60926 0.13800
C 	C 	0.53000 0.44729 0.23428 0.03000
C 	C 	0.50551 0.91298 0.15028 -0.08600
C 	C 	0.77192 0.22644 0.88656 0.04500
C 	C 	0.22886 0.74863 0.52260 0.01300
C 	C 	0.98808 0.91104 0.71415 -0.08300
C 	C 	0.48640 0.74333 0.78156 -0.04700
C 	C 	0.69036 0.30281 0.49868 -0.09500
C 	C 	0.48724 0.85981 0.14102 0.01700
C 	C 	0.67907 0.97440 0.05835 -0.08200
C 	C 	0.73843 0.88019 0.03518 0.09600
C 	C 	0.03518 0.29337 0.81488 -0.00600
C 	C 	0.75232 0.41093 0.43813 -0.09000
C 	C 	0.38497 0.72071 0.23829 0.04900
C 	C 	0.74760 0.73906 0.54159 -0.00600
C 	C 	0.04237 0.82112 0.40972 0.09700
C 	C 	0.50811 0.82586 0.66278 0.14400
C 	C 	0.25319 0.24280 0.83556 0.41400
C 	C 	0.53971 0.33344 0.85836 0.14300
C 	C 	0.13095 0.46724 0.03968 0.09900
C 	C 	0.74989 0.24659 0.93561 0.04500
C 	C 	0.23620 0.10883 0.77413 0.04400
C 	C 	0.75375 0.36659 0.90650 0.09400
C 	C 	0.18397 0.02706 0.05230 -0.08000
C 	C 	0.70633 0.49658 0.56648 -0.01900
C 	C 	0.25960 0.57890 0.57174 0.13700
C 	C 	0.13818 0.46817 0.62491 0.03800
C 	C 	0.18176 0.33128 0.99431 0.14700
C 	C 	0.34151 0.78893 0.95370 -0.09100
C 	C 	0.56034 0.43478 0.27919 -0.08700
C 	C 	0.13857 0.74269 0.25711 -0.14600
C 	C 	0.69238 0.43834 0.67050 0.14200
C 	C 	0.25359 0.74451 0.86924 -0.14400
C 	C 	0.25294 0.94316 0.45224 -0.02100
C 	C 	0.75979 0.32579 0.01734 0.09300
C 	C 	0.51668 0.74921 0.29011 0.02600
C 	C 	0.22824 0.24009 0.98666 -0.04500
C 	C 	0.99697 0.40689 0.71960 -0.08200
C 	C 	0.68419 0.48442 0.19542 0.13500
C 	C 	0.69853 0.97311 0.25453 0.00500
C 	C 	0.41801 0.25705 0.77582 -0.07200
C 	C 	0.74483 0.83092 0.98544 0.10400
C 	C 	0.23777 0.07589 0.77293 -0.07900
C 	C 	0.43535 0.23994 0.75360 0.04200
C 	C 	0.16540 0.49343 0.48100 0.09600
C 	C 	0.64473 0.97213 0.66843 -0.02300
C 	C 	0.50954 0.34564 0.81233 -0.08300
C 	C 	0.83266 0.83942 0.45966 -0.01000
C 	C 	0.03619 0.33329 0.85646 0.14200
C 	C 	0.08993 0.76003 0.23251 -0.07600
C 	C 	0.72687 0.91615 0.51130 -0.08400
C 	C 	0.72775 0.72966 0.09236 -0.05500
C 	C 	0.23472 0.22362 0.88690 0.04500
C 	C 	0.80072 0.31793 0.49035 0.13600
C 	C 	0.33438 0.73937 0.25844 0.42100
C 	C 	0.58446 0.86240 0.26378 0.09500
C 	C 	0.65689 0.99390 0.71985 0.13300
C 	C 	0.25337 0.85811 0.40710 0.09300
C 	C 	0.48524 0.24388 0.78239 -0.03800
C 	C 	0.24198 0.62849 0.56583 0.09400
C 	C 	0.33087 0.85702 0.46095 -0.01200
C 	C 	0.58820 0.26356 0.77326 -0.08100
C 	C 	0.86878 0.24332 0.75273 -0.08300
C 	C 	0.23232 0.72603 0.62323 0.04700
C 	C 	0.46804 0.24273 0.24936 -0.00700
C 	C 	0.72207 0.75038 0.52336 0.01600
C 	C 	0.88711 0.75835 0.77807 0.01000
C 	C 	0.62008 0.29532 0.08360 0.09900
C 	C 	0.16651 0.00281 0.10048 -0.00800
C 	C 	0.25215 0.02538 0.24876 -0.00400
C 	C 	0.31421 0.89960 0.94689 -0.02200
C 	C 	0.46801 0.73981 0.26062 -0.00700
C 	C 	0.91777 0.26660 0.73086 -0.05500
C 	C 	0.49991 0.42276 0.15683 -0.08300
C 	C 	0.15794 0.99299 0.21038 0.13100
C 	C 	0.24920 0.86426 0.91018 0.09400
C 	C 	0.24915 0.74138 0.03811 0.00300
C 	C 	0.25181 0.92405 0.25834 0.03000
C 	C 	0.18245 0.78544 0.52725 -0.00700
C 	C 	0.95996 0.29009 0.64904 0.13700
C 	C 	0.33834 0.52440 0.13561 -0.02000
C 	C 	0.73869 0.60667 0.78076 0.04800
C 	C 	0.00940 0.44559 0.68011 0.14400
C 	C 	0.97394 0.76001 0.19706 0.00400
C 	C 	0.84178 0.28940 0.95478 -0.09000
C 	C 	0.60527 0.45560 0.74361 0.10500
C 	C 	0.11655 0.27834 0.07354 0.09900
C 	C 	0.28918 0.02267 0.06670 -0.08600
C 	C 	0.10334 0.96131 0.73289 0.10700
C 	C 	0.98421 0.38670 0.69706 0.14100
C 	C 	0.96585 0.35288 0.73385 0.09600
C 	C 	0.26989 0.11192 0.72967 0.04500
C 	C 	0.12087 0.26251 0.27441 0.04600
C 	C 	0.02112 0.48279 0.64426 0.10700
C 	C 	0.93800 0.42962 0.28688 0.09400
C 	C 	0.70974 0.93935 0.96558 -0.02200
C 	C 	0.76166 0.02834 0.26223 -0.01000
C 	C 	0.03073 0.76213 0.31077 -0.01300
C 	C 	0.95000 0.45274 0.78929 0.09700
C 	C 	0.00042 0.94399 0.28708 0.13600
C 	C 	0.02016 0.31832 0.29891 0.13300
C 	C 	0.88699 0.22379 0.77141 0.01100
C 	C 	0.21570 0.48865 0.59184 0.14300
C 	C 	0.83875 0.37637 0.94877 0.02800
C 	C 	0.33581 0.54942 0.71357 -0.08800
C 	C 	0.80488 0.03706 0.05737 -0.08200
C 	C 	0.06055 0.83907 0.17571 0.09100
C 	C 	0.75618 0.92623 0.25648 0.02500
C 	C 	0.53463 0.34550 0.30338 -0.08300
C 	C 	0.74036 0.87443 0.73378 0.00900
C 	C 	0.64604 0.87981 0.01109 0.01800
C 	C 	0.53410 0.81496 0.79342 0.13600
C 	C 	0.63075 0.46878 0.44210 0.10100
C 	C 	0.23088 0.88841 0.66025 0.09300
C 	C 	0.22704 0.97621 0.75081 0.01200
C 	C 	0.02640 0.29458 0.32097 -0.01200
C 	C 	0.30280 0.04614 0.56137 -0.08600
C 	C 	0.73146 0.95608 0.94756 0.04000
C 	C 	0.20798 0.95590 0.61401 -0.08700
C 	C 	0.75034 0.92414 0.76300 0.02900
C 	C 	0.27095 0.07926 0.72814 -0.07800
C 	C 	0.25917 0.32363 0.51494 0.09700
C 	C 	0.28008 0.52654 0.57238 -0.08100
C 	C 	0.73989 0.92532 0.15404 0.09200
C 	C 	0.72326 0.00913 0.75428 -0.04500
C 	C 	0.48994 0.38885 0.66061 -0.00600
C 	C 	0.75487 0.74062 0.83745 0.32000
C 	C 	0.24382 0.96014 0.97744 0.03800
C 	C 	0.23365 0.26553 0.62227 0.04600
C 	C 	0.33429 0.02914 0.62899 -0.01700
C 	C 	0.31424 0.34838 0.98893 -0.08200
C 	C 	0.61873 0.72115 0.24349 0.04800
C 	C 	0.03028 0.26136 0.80854 -0.01300
C 	C 	0.28625 0.74975 0.49155 0.02700
C 	C 	0.66623 0.96889 0.11333 -0.00900
C 	C 	0.99082 0.43185 0.28451 0.13500
C 	C 	0.69523 0.03378 0.57670 -0.01900
C 	C 	0.27769 0.07708 0.05828 0.13700
C 	C 	0.68875 0.80910 0.50397 -0.09500
C 	C 	0.02158 0.95701 0.78800 0.14000
C 	C 	0.64656 0.99775 0.68870 -0.08600
C 	C 	0.46542 0.77690 0.15650 0.13700
C 	C 	0.69545 0.95867 0.74631 -0.00700
C 	C 	0.58500 0.36299 0.76501 0.09500
C 	C 	0.83495 0.55844 0.17891 0.14100
C 	C 	0.88876 0.07890 0.69024 0.09900
C 	C 	0.98232 0.38470 0.16532 -0.00600
C 	C 	0.78016 0.39405 0.43427 0.14000
C 	C 	0.75373 0.16342 0.26026 0.39900
C 	C 	0.03493 0.34865 0.80210 -0.08300
C 	C 	0.22634 0.24358 0.01949 0.01000
C 	C 	0.00617 0.29150 0.18356 -0.09200
C 	C 	0.55063 0.83502 0.20750 0.09300
C 	C 	0.52818 0.94281 0.76381 -0.02000
C 	C 	0.72838 0.26358 0.91732 -0.07700
C 	C 	0.24716 0.42475 0.75686 0.05300
C 	C 	0.00955 0.30077 0.67406 -0.09100
C 	C 	0.12432 0.78957 0.09074 0.09600
C 	C 	0.97454 0.25964 0.69388 0.00500
C 	C 	0.14363 0.47261 0.94860 0.10000
C 	C 	0.55027 0.39613 0.78751 0.14200
C 	C 	0.23078 0.37428 0.26900 0.03300
C 	C 	0.33660 0.87564 0.94672 0.02800
C 	C 	0.25341 0.74088 0.33893 0.42200
C 	C 	0.75289 0.65779 0.75767 0.42000
C 	C 	0.52860 0.47885 0.14560 0.10900
C 	C 	0.56645 0.82909 0.40545 0.09800
C 	C 	0.31112 0.52869 0.71860 -0.00900
C 	C 	0.79343 0.08027 0.57845 -0.08200
C 	C 	0.82995 0.02911 0.13854 -0.00800
C 	C 	0.23312 0.41599 0.51848 -0.08300
C 	C 	0.76283 0.02313 0.57903 -0.08400
C 	C 	0.76694 0.40764 0.28062 -0.08000
C 	C 	0.50697 0.42038 0.31338 -0.08800
C 	C 	0.98534 0.77621 0.68045 -0.00600
C 	C 	0.17195 0.94519 0.18393 -0.09300
C 	C 	0.23597 0.99646 0.54251 0.02900
C 	C 	0.73438 0.22756 0.38937 0.04800
C 	C 	0.82116 0.06534 0.62525 0.02800
C 	C 	0.22008 0.99519 0.08126 0.14400
C 	C 	0.49332 0.90390 0.71962 -0.08200
C 	C 	0.30698 0.54245 0.07325 -0.08600
C 	C 	0.18736 0.30999 0.49996 -0.09400
C 	C 	0.57022 0.24173 0.75633 0.04700
C 	C 	0.15565 0.80262 0.05009 0.13600
C 	C 	0.30921 0.00196 0.46665 0.09900
C 	C 	0.05623 0.93806 0.27888 -0.08800
C 	C 	0.32252 0.92972 0.95646 -0.08500
C 	C 	0.58720 0.76425 0.28030 -0.08200
C 	C 	0.22363 0.24893 0.48622 -0.04200
C 	C 	0.74899 0.52563 0.26192 -0.00800
C 	C 	0.15598 0.49670 0.67019 -0.08600
C 	C 	0.48343 0.27338 0.67926 -0.00600
C 	C 	0.76838 0.37495 0.27924 0.04800
C 	C 	0.00360 0.92777 0.31572 -0.08700
C 	C 	0.41729 0.76578 0.73816 -0.07600
C 	C 	0.15188 0.45376 0.21128 0.13500
C 	C 	0.35002 0.30091 0.96348 -0.09000
C 	C 	0.84828 0.30327 0.46321 -0.09200
C 	C 	0.04475 0.91397 0.75947 -0.09100
C 	C 	0.48623 0.24969 0.22234 0.01300
C 	C 	0.53853 0.30140 0.84943 -0.08900
C 	C 	0.67443 0.34619 0.99552 0.14500
C 	C 	0.66052 0.45550 0.10396 -0.02200
C 	C 	0.43828 0.86806 0.22258 0.09300
C 	C 	0.46818 0.27922 0.65066 0.13700
C 	C 	0.80381 0.49416 0.58340 0.13900
C 	C 	0.87140 0.59466 0.19182 0.09800
C 	C 	0.77614 0.53801 0.54245 0.14200
C 	C 	0.34013 0.04863 0.20946 -0.08900
C 	C 	0.71912 0.47681 0.25742 0.02600
C 	C 	0.25244 0.24358 0.43625 0.04400
C 	C 	0.78620 0.50554 0.74807 0.02700
C 	C 	0.55083 0.33644 0.70668 0.09400
C 	C 	0.25687 0.52381 0.25397 -0.01000
C 	C 	0.24588 0.90596 0.22951 -0.05700
C 	C 	0.67793 0.94734 0.96581 0.14200
C 	C 	0.98198 0.78256 0.17451 -0.00800
C 	C 	0.15726 0.35277 0.52124 -0.00900
C 	C 	0.78837 0.02178 0.69335 0.13900
C 	C 	0.50483 0.29535 0.69064 -0.09500
C 	C 	0.01979 0.34953 0.30906 -0.08700
C 	C 	0.18103 0.45333 0.10398 -0.00800
C 	C 	0.23218 0.76342 0.88542 0.04500
C 	C 	0.22486 0.53644 0.55891 0.02800
C 	C 	0.50009 0.49683 0.81253 0.09700
C 	C 	0.71719 0.04706 0.55618 0.03000
C 	C 	0.75255 0.74206 0.37427 -0.15100
C 	C 	0.11174 0.41116 0.80019 0.09600
C 	C 	0.41890 0.72009 0.77064 -0.08000
C 	C 	0.16778 0.46940 0.71774 -0.01200
C 	C 	0.98278 0.84228 0.14798 -0.00700
C 	C 	0.77616 0.26475 0.38694 0.04900
C 	C 	0.53798 0.80530 0.35318 -0.09000
C 	C 	0.17469 0.83252 0.49550 0.14600
C 	C 	0.81314 0.51888 0.73497 -0.01000
C 	C 	0.12429 0.96533 0.54473 0.09800
C 	C 	0.75094 0.73821 0.67507 0.42700
C 	C 	0.23808 0.60567 0.28140 0.03500
C 	C 	0.83137 0.34516 0.95629 -0.01000
C 	C 	0.68145 0.80218 0.99832 -0.09100
C 	C 	0.25166 0.24155 0.17241 0.41300
C 	C 	0.23576 0.22414 0.91975 -0.08000
C 	C 	0.20233 0.43234 0.19770 -0.09700
C 	C 	0.69529 0.76313 0.53748 0.00300
C 	C 	0.23387 0.87543 0.76955 0.04500
C 	C 	0.58631 0.23116 0.27951 -0.07600
C 	C 	0.03632 0.97419 0.63901 0.10200
C 	C 	0.65692 0.99858 0.61710 -0.02100
C 	C 	0.75857 0.55202 0.06190 0.13800
C 	C 	0.22274 0.97599 0.24452 0.02100
C 	C 	0.32878 0.51875 0.07892 -0.02000
C 	C 	0.30468 0.31730 0.99345 0.13600
C 	C 	0.26973 0.57651 0.23289 -0.07500
C 	C 	0.25638 0.74395 0.54044 -0.00600
C 	C 	0.33511 0.74133 0.75550 0.41900
C 	C 	0.48111 0.37209 0.13993 0.01800
C 	C 	0.78366 0.24549 0.52345 -0.04000
C 	C 	0.74896 0.04863 0.56397 -0.00700
C 	C 	0.72047 0.50940 0.26103 -0.03300
C 	C 	0.32638 0.49009 0.06316 0.14300
C 	C 	0.25049 0.74073 0.07167 0.02900
C 	C 	0.27631 0.23581 0.52120 -0.04100
C 	C 	0.03447 0.33170 0.74099 0.09300
C 	C 	0.38302 0.26238 0.23397 0.04700
C 	C 	0.39932 0.82316 0.42942 0.09500
C 	C 	0.56915 0.74269 0.26306 0.04800
C 	C 	0.27421 0.22454 0.38650 0.04300
C 	C 	0.80819 0.74618 0.48274 -0.01200
C 	C 	0.50663 0.43322 0.70583 -0.02000
C 	C 	0.23115 0.57732 0.73524 -0.08200
C 	C 	0.22837 0.88606 0.55393 0.09700
C 	C 	0.74955 0.24785 0.96913 -0.00700
C 	C 	0.34653 0.37426 0.45777 0.02700
C 	C 	0.61199 0.48704 0.04517 0.09500
C 	C 	0.01103 0.33031 0.65976 0.14500
C 	C 	0.51898 0.95193 0.22695 0.03500
C 	C 	0.08640 0.22086 0.23859 -0.08000
C 	C 	0.27969 0.74014 0.98923 0.02300
C 	C 	0.17757 0.29031 0.52425 -0.00800
C 	C 	0.40317 0.31886 0.93258 0.09600
C 	C 	0.62155 0.75574 0.73228 0.04300
C 	C 	0.77476 0.37224 0.73459 0.04600
C 	C 	0.53992 0.80041 0.84789 -0.09100
C 	C 	0.14152 0.32053 0.03250 -0.08200
C 	C 	0.00958 0.83137 0.16333 0.14500
C 	C 	0.83718 0.04599 0.70884 -0.08800
C 	C 	0.07174 0.24704 0.75371 0.05000
C 	C 	0.16107 0.89914 0.50776 -0.00400
C 	C 	0.30621 0.51708 0.74906 -0.00200
C 	C 	0.63895 0.37152 0.50787 0.01900
C 	C 	0.48171 0.77180 0.18467 -0.00600
C 	C 	0.61919 0.22995 0.28002 0.04300
C 	C 	0.00589 0.43453 0.18065 0.14100
C 	C 	0.73627 0.41531 0.65175 0.09200
C 	C 	0.69979 0.89746 0.00321 0.14000
C 	C 	0.01215 0.84758 0.81259 -0.08200
C 	C 	0.80290 0.05689 0.59926 -0.01600
C 	C 	0.53728 0.35318 0.33504 -0.01800
C 	C 	0.82089 0.29448 0.47881 -0.01000
C 	C 	0.04054 0.80343 0.85021 -0.09000
C 	C 	0.02442 0.41411 0.32722 -0.02400
C 	C 	0.77524 0.73093 0.52534 -0.04100
C 	C 	0.03596 0.24231 0.25808 -0.01100
C 	C 	0.03186 0.41312 0.82166 -0.02100
C 	C 	0.67054 0.24383 0.25709 0.41100
C 	C 	0.79692 0.30831 0.98370 0.13600
C 	C 	0.80111 0.98957 0.08772 0.14100
C 	C 	0.05310 0.83959 0.70655 0.09400
C 	C 	0.27112 0.41532 0.45619 -0.08900
C 	C 	0.75924 0.55750 0.75886 0.04900
C 	C 	0.64589 0.83310 0.04287 -0.08300
C 	C 	0.98449 0.89610 0.16818 -0.00600
C 	C 	0.22777 0.38364 0.05916 0.09900
C 	C 	0.68597 0.45128 0.72580 -0.00600
C 	C 	0.59690 0.40870 0.20267 0.09700
C 	C 	0.00720 0.79806 0.69122 -0.09400
C 	C 	0.05908 0.92012 0.30645 0.14000
C 	C 	0.20294 0.34963 0.45226 0.09100
C 	C 	0.75763 0.94140 0.93455 -0.02200
C 	C 	0.27409 0.50570 0.04609 -0.00700
C 	C 	0.88717 0.72405 0.27514 0.01000
C 	C 	0.50939 0.32429 0.67590 0.14700
C 	C 	0.94504 0.35091 0.23121 0.09700
C 	C 	0.26277 0.41267 0.94846 -0.09100
C 	C 	0.98718 0.74540 0.28097 -0.05000
C 	C 	0.52814 0.94006 0.25612 -0.02200
C 	C 	0.73014 0.22524 0.62190 0.04800
C 	C 	0.99153 0.83500 0.65146 -0.00900
C 	C 	0.79134 0.03654 0.66433 -0.08400
C 	C 	0.93733 0.74584 0.25321 0.02800
C 	C 	0.02830 0.94223 0.75947 -0.02200
C 	C 	0.15181 0.49451 0.57600 0.14000
C 	C 	0.40589 0.04831 0.66570 0.10100
C 	C 	0.34379 0.38750 0.96085 0.02700
C 	C 	0.63955 0.45110 0.12881 0.03800
C 	C 	0.08765 0.73092 0.28039 -0.07800
C 	C 	0.56123 0.33556 0.17639 0.09200
C 	C 	0.05622 0.33122 0.18861 0.09800
C 	C 	0.01171 0.81626 0.80300 0.13700
C 	C 	0.08632 0.86558 0.76416 0.09500
C 	C 	0.48866 0.82920 0.15304 -0.00900
C 	C 	0.25154 0.91276 0.44028 -0.09000
C 	C 	0.78408 0.74940 0.99425 0.02200
C 	C 	0.22512 0.95743 0.46202 0.03700
C 	C 	0.03196 0.91386 0.32389 -0.02200
C 	C 	0.78362 0.73413 0.88974 0.01500
C 	C 	0.80956 0.52541 0.21854 -0.00600
C 	C 	0.76425 0.71559 0.59166 -0.08100
C 	C 	0.76242 0.41563 0.94675 -0.09000
C 	C 	0.75921 0.00404 0.05177 -0.00600
C 	C 	0.74994 0.35792 0.25810 -0.14900
C 	C 	0.74124 0.57390 0.78121 -0.08100
C 	C 	0.49356 0.92037 0.65681 -0.08400
C 	C 	0.27493 0.45193 0.12165 0.09600
C 	C 	0.77859 0.73666 0.49313 0.02300
C 	C 	0.07279 0.74410 0.75713 0.04800
C 	C 	0.67203 0.90514 0.51724 -0.00500
C 	C 	0.58882 0.75657 0.73230 -0.07400
C 	C 	0.73026 0.07621 0.73772 -0.07600
C 	C 	0.25889 0.08761 0.54029 0.09600
C 	C 	0.86726 0.24496 0.25494 -0.14500
C 	C 	0.78538 0.25044 0.49098 0.02700
C 	C 	0.25451 0.74168 0.67409 0.41700
C 	C 	0.58814 0.25975 0.23136 -0.07400
C 	C 	0.31429 0.76188 0.48023 -0.01300
C 	C 	0.99379 0.92637 0.16019 -0.08400
C 	C 	0.17307 0.74319 0.75492 0.42000
C 	C 	0.81699 0.89445 0.45029 -0.02200
C 	C 	0.65939 0.46663 0.58053 0.14200
C 	C 	0.66902 0.44272 0.46759 0.14200
C 	C 	0.33325 0.24158 0.75296 0.39400
C 	C 	0.52101 0.74417 0.72689 -0.04100
C 	C 	0.72399 0.45563 0.45743 0.03800
C 	C 	0.25507 0.74181 0.64092 -0.14600
C 	C 	0.25305 0.73827 0.17529 0.31700
C 	C 	0.80553 0.33887 0.97528 -0.08100
C 	C 	0.26646 0.71544 0.12248 0.01100
C 	C 	0.96273 0.85448 0.23677 0.09600
C 	C 	0.00176 0.99864 0.81373 0.09600
C 	C 	0.52232 0.95635 0.28405 0.13900
C 	C 	0.75550 0.74584 0.93976 0.03000
C 	C 	0.46004 0.85159 0.73517 0.09400
C 	C 	0.26854 0.60898 0.23455 0.03600
C 	C 	0.97626 0.75074 0.69922 0.00400
C 	C 	0.15333 0.30047 0.54415 0.13600
C 	C 	0.35667 0.31793 0.45335 0.14100
C 	C 	0.82451 0.43046 0.95864 -0.08500
C 	C 	0.48330 0.89068 0.66562 -0.00600
C 	C 	0.23378 0.90824 0.76742 -0.07500
C 	C 	0.03557 0.85766 0.33595 -0.01500
C 	C 	0.73618 0.91044 0.27688 -0.05600
C 	C 	0.53735 0.74383 0.75558 -0.00400
C 	C 	0.27704 0.87324 0.73397 0.04300
C 	C 	0.34641 0.06227 0.17984 0.14100
C 	C 	0.29803 0.80733 0.98487 0.13600
C 	C 	0.72168 0.25705 0.01879 0.01500
C 	C 	0.48263 0.38531 0.19561 0.14100
C 	C 	0.22798 0.44340 0.50138 -0.02000
C 	C 	0.30593 0.84863 0.48037 -0.08100
C 	C 	0.77392 0.57594 0.73588 -0.08100
C 	C 	0.65680 0.92704 0.98148 -0.09000
C 	C 	0.23166 0.61017 0.73568 0.04600
C 	C 	0.32500 0.39913 0.45753 -0.02100
C 	C 	0.13993 0.74372 0.75521 -0.15000
C 	C 	0.65217 0.79915 0.54594 0.13700
C 	C 	0.66768 0.46920 0.61215 -0.00900
C 	C 	0.43852 0.36774 0.72176 0.09300
C 	C 	0.67443 0.33033 0.49069 0.14700
C 	C 	0.34697 0.03179 0.68425 -0.09200
C 	C 	0.64784 0.42066 0.48070 -0.08900
C 	C 	0.03419 0.81804 0.29435 0.13600
C 	C 	0.25394 0.24365 0.03777 -0.00500
C 	C 	0.01734 0.25095 0.28440 0.02800
C 	C 	0.80081 0.02010 0.15013 -0.08600
C 	C 	0.48819 0.74692 0.72537 0.01300
C 	C 	0.50394 0.43608 0.28444 0.13600
C 	C 	0.83954 0.87057 0.45131 0.02800
C 	C 	0.73036 0.37498 0.23806 0.04700
C 	C 	0.79333 0.50940 0.19472 0.13800
C 	C 	0.34942 0.81998 0.94502 0.14200
C 	C 	0.80793 0.40717 0.44585 -0.02200
C 	C 	0.15645 0.34159 0.01254 -0.00900
C 	C 	0.99005 0.74146 0.72751 0.00900
C 	C 	0.03474 0.35687 0.83376 -0.01500
C 	C 	0.15842 0.44550 0.12671 0.03000
C 	C 	0.26879 0.12779 0.04577 0.09500
C 	C 	0.75253 0.44163 0.44940 -0.02000
C 	C 	0.52635 0.25839 0.30887 -0.01300
C 	C 	0.00184 0.44342 0.78377 0.13700
C 	C 	0.72335 0.38553 0.55045 0.09400
C 	C 	0.18708 0.97244 0.55552 -0.08100
C 	C 	0.24074 0.87812 0.06045 0.08800
C 	C 	0.74761 0.24417 0.07055 0.02900
C 	C 	0.14968 0.44415 0.70718 -0.09100
C 	C 	0.65502 0.98727 0.46940 0.09500
C 	C 	0.64066 0.83012 0.54211 -0.08200
C 	C 	0.41803 0.22315 0.73113 -0.07000
C 	C 	0.83415 0.38829 0.45159 0.02800
C 	C 	0.72010 0.94125 0.49146 -0.02000
C 	C 	0.61694 0.78794 0.58380 0.09800
C 	C 	0.77665 0.50734 0.26251 0.02300
C 	C 	0.63950 0.98006 0.95009 0.10100
C 	C 	0.13621 0.44425 0.67681 0.14200
C 	C 	0.19573 0.46752 0.24331 0.00200
C 	C 	0.25458 0.85607 0.25820 -0.08300
C 	C 	0.80329 0.51742 0.64864 -0.08800
C 	C 	0.64861 0.88285 0.52291 0.02100
C 	C 	0.43450 0.73961 0.26005 0.04800
C 	C 	0.27285 0.26455 0.88513 0.04600
C 	C 	0.75011 0.62626 0.26189 -0.15000
C 	C 	0.36828 0.74182 0.75524 -0.14800
C 	C 	0.17563 0.96543 0.20925 -0.00900
C 	C 	0.29534 0.02088 0.18853 0.13700
C 	C 	0.50877 0.81652 0.30579 0.13700
C 	C 	0.78497 0.97722 0.24913 -0.04400
C 	C 	0.21970 0.47679 0.74744 0.00500
C 	C 	0.32823 0.97981 0.09370 0.10200
C 	C 	0.72469 0.50794 0.05454 0.02900
C 	C 	0.41684 0.75806 0.28083 -0.08000
C 	C 	0.75495 0.24395 0.53947 -0.00700
C 	C 	0.25482 0.82389 0.75363 0.41300
C 	C 	0.68022 0.78992 0.02869 -0.00700
C 	C 	0.97416 0.37882 0.19660 0.14100
C 	C 	0.79763 0.51023 0.68006 0.14000
C 	C 	0.38521 0.22355 0.73090 0.03300
C 	C 	0.82461 0.92481 0.45986 -0.08500
C 	C 	0.02185 0.74899 0.22662 -0.04000
C 	C 	0.40975 0.54013 0.17431 0.10100
C 	C 	0.73426 0.76198 0.62577 0.05200
C 	C 	0.77285 0.60893 0.27799 0.04800
C 	C 	0.25993 0.91411 0.94901 -0.09000
C 	C 	0.43509 0.74293 0.75356 0.04500
C 	C 	0.85056 0.82754 0.93990 0.14100
C 	C 	0.74986 0.24351 0.13960 -0.08000
C 	C 	0.55761 0.93450 0.77498 -0.08700
C 	C 	0.97848 0.36157 0.14238 0.01700
C 	C 	0.97797 0.88979 0.69134 0.14300
C 	C 	0.46898 0.23965 0.75404 -0.00500
C 	C 	0.80656 0.34913 0.48179 -0.08100
C 	C 	0.71997 0.44817 0.98960 -0.02000
C 	C 	0.75367 0.91239 0.92006 -0.09000
C 	C 	0.49603 0.40413 0.21893 -0.08200
C 	C 	0.43563 0.26204 0.61258 0.09500
C 	C 	0.02217 0.24878 0.72404 -0.04000
C 	C 	0.73189 0.76122 0.39103 0.04900
C 	C 	0.58595 0.72160 0.24408 -0.08100
C 	C 	0.00707 0.93726 0.21436 -0.01200
C 	C 	0.16093 0.55034 0.70352 0.09100
C 	C 	0.25459 0.74202 0.37202 -0.15200
C 	C 	0.73645 0.87678 0.56059 0.09000
C 	C 	0.91477 0.27783 0.62426 0.09500
C 	C 	0.74891 0.95928 0.76421 -0.00200
C 	C 	0.79907 0.80295 0.48858 0.13700
C 	C 	0.75287 0.35566 0.75263 -0.14700
C 	C 	0.16328 0.43695 0.15802 -0.02000
C 	C 	0.03288 0.76294 0.81184 -0.01300
C 	C 	0.27565 0.25916 0.08959 -0.07500
C 	C 	0.77633 0.25704 0.62375 0.04800
C 	C 	0.32074 0.57436 0.63153 0.03000
C 	C 	0.35355 0.83463 0.45339 0.14100
C 	C 	0.03444 0.84942 0.30436 -0.08300
C 	C 	0.75332 0.74207 0.07602 0.02900
C 	C 	0.25261 0.62681 0.75480 -0.14300
C 	C 	0.33450 0.98942 0.97627 0.09900
C 	C 	0.02712 0.79384 0.82185 -0.01100
C 	C 	0.76243 0.82077 0.52269 0.09400
C 	C 	0.51921 0.73646 0.23535 -0.04500
C 	C 	0.25644 0.24441 0.97008 -0.01400
C 	C 	0.85436 0.33491 0.45520 0.14200
C 	C 	0.79282 0.81510 0.97008 0.13900
C 	C 	0.30952 0.52053 0.23018 -0.01100
C 	C 	0.20004 0.95776 0.22948 -0.00500
C 	C 	0.22434 0.75427 0.98644 -0.04000
C 	C 	0.30679 0.51950 0.14305 -0.08800
C 	C 	0.43431 0.24235 0.25025 0.04500
C 	C 	0.72367 0.74832 0.49059 -0.04300
C 	C 	0.76457 0.87212 0.78592 0.01200
C 	C 	0.38527 0.22085 0.27145 0.04500
C 	C 	0.53908 0.32918 0.35726 0.14300
C 	C 	0.25301 0.66021 0.75519 0.41000
C 	C 	0.55907 0.83381 0.67513 0.09100
C 	C 	0.61954 0.72442 0.78014 0.03700
C 	C 	0.77177 0.22812 0.91933 -0.07700
C 	C 	0.50527 0.92488 0.81237 -0.08700
C 	C 	0.48166 0.82705 0.26127 0.09700
C 	C 	0.72934 0.98092 0.26245 0.00900
C 	C 	0.75718 0.96133 0.25563 -0.00200
C 	C 	0.76025 0.52376 0.75857 -0.01100
C 	C 	0.72905 0.26250 0.88459 0.04600
C 	C 	0.27362 0.26531 0.91789 -0.08100
C 	C 	0.84167 0.05799 0.67814 0.14000
C 	C 	0.74001 0.90695 0.73482 -0.05700
C 	C 	0.32093 0.79412 0.47813 -0.01100
C 	C 	0.68921 0.39812 0.51198 0.14200
C 	C 	0.28212 0.00827 0.73655 0.02900
C 	C 	0.26252 0.82420 0.02052 0.09400
C 	C 	0.51166 0.43198 0.21172 -0.01100
C 	C 	0.27736 0.97600 0.26345 -0.04500
C 	C 	0.48138 0.28091 0.17181 -0.00700
C 	C 	0.75442 0.62466 0.75836 -0.15000
C 	C 	0.29114 0.98347 0.54921 -0.07500
C 	C 	0.26736 0.00544 0.54491 -0.00900
C 	C 	0.81649 0.54446 0.15562 -0.01100
C 	C 	0.12039 0.72864 0.28060 0.04600
C 	C 	0.25546 0.92453 0.74865 0.04000
C 	C 	0.27611 0.73262 0.02102 -0.04500
C 	C 	0.24640 0.87350 0.22966 0.01000
C 	C 	0.63893 0.80366 0.09920 0.10000
C 	C 	0.53499 0.47159 0.63838 0.10300
C 	C 	0.19026 0.80426 0.50164 -0.09400
C 	C 	0.81615 0.77754 0.47628 -0.00600
C 	C 	0.97764 0.87444 0.14440 0.01700
C 	C 	0.56990 0.24575 0.25493 0.04700
C 	C 	0.65852 0.39678 0.50032 -0.00500
C 	C 	0.86966 0.74039 0.75437 -0.08200
C 	C 	0.68051 0.01797 0.62887 -0.09000
C 	C 	0.56336 0.41786 0.30740 0.13800
C 	C 	0.19498 0.30198 0.00090 -0.09400
C 	C 	0.77448 0.07661 0.77220 -0.07600
C 	C 	0.23501 0.46723 0.09006 0.14200
C 	C 	0.47689 0.38691 0.69071 0.14300
C 	C 	0.72045 0.91523 0.98494 -0.08500
C 	C 	0.23749 0.03965 0.04727 0.02900
C 	C 	0.74960 0.85752 0.88753 0.09400
C 	C 	0.27395 0.47455 0.76325 0.00500
C 	C 	0.30865 0.01781 0.24461 -0.01000
C 	C 	0.88459 0.26433 0.27501 0.04500
C 	C 	0.25004 0.95899 0.25805 -0.00100
C 	C 	0.08810 0.23129 0.77755 -0.07800
C 	C 	0.93456 0.24485 0.25436 0.04500
C 	C 	0.19875 0.83873 0.44868 0.09300
C 	C 	0.75896 0.33152 0.52017 0.09800
C 	C 	0.03542 0.79415 0.31715 -0.00600
C 	C 	0.00224 0.42623 0.21231 -0.00900
C 	C 	0.34483 0.48494 0.49742 0.09900
C 	C 	0.16596 0.93850 0.01025 -0.08300
C 	C 	0.03454 0.31727 0.79205 0.13600
C 	C 	0.26091 0.90766 0.28505 -0.06000
C 	C 	0.62090 0.25962 0.23253 0.04300
C 	C 	0.77248 0.98307 0.07300 -0.08700
C 	C 	0.25261 0.24189 0.36884 -0.14200
C 	C 	0.76955 0.44384 0.96172 -0.02100
C 	C 	0.24901 0.95437 0.09902 0.09100
C 	C 	0.51322 0.43951 0.67428 0.14400
C 	C 	0.24590 0.45846 0.75737 -0.01800
C 	C 	0.81432 0.01930 0.08320 -0.01800
C 	C 	0.11357 0.50876 0.54240 0.09500
C 	C 	0.96908 0.78227 0.65248 0.13700
C 	C 	0.25172 0.74759 0.96987 -0.00800
C 	C 	0.70220 0.40607 0.02382 0.14300
C 	C 	0.03395 0.83250 0.24341 0.09500
C 	C 	0.26861 0.04552 0.05599 -0.01000
C 	C 	0.93414 0.76587 0.61621 0.09600
C 	C 	0.08977 0.26160 0.73036 -0.07600
C 	C 	0.79977 0.84454 0.95744 -0.08200
C 	C 	0.74131 0.59986 0.04715 0.09700
C 	C 	0.67330 0.46555 0.22025 -0.01200
C 	C 	0.78005 0.75356 0.09497 -0.05800
C 	C 	0.98900 0.75202 0.22502 0.01200
C 	C 	0.80257 0.51291 0.09159 0.14100
C 	C 	0.75549 0.74252 0.87181 -0.08400
C 	C 	0.79614 0.52016 0.16377 -0.08200
C 	C 	0.25243 0.32417 0.75504 0.41400
C 	C 	0.34623 0.44200 0.05350 0.09600
C 	C 	0.26880 0.37529 0.77691 0.04500
C 	C 	0.25254 0.24111 0.33551 0.41000
C 	C 	0.50181 0.94020 0.78326 0.13700
C 	C 	0.90294 0.05449 0.16800 0.10000
C 	C 	0.16643 0.39791 0.00556 -0.00300
C 	C 	0.70052 0.25999 0.53522 0.00500
C 	C 	0.01894 0.95505 0.73078 0.03500
C 	C 	0.65281 0.30638 0.04347 0.13700
C 	C 	0.46980 0.80572 0.14046 -0.08200
C 	C 	0.14382 0.83370 0.04861 -0.08300
C 	C 	0.75079 0.24320 0.17457 0.31300
C 	C 	0.75064 0.24378 0.86849 -0.14600
C 	C 	0.15053 0.88745 0.03083 0.02100
C 	C 	0.18211 0.28169 0.02309 -0.00600
C 	C 	0.03810 0.74773 0.25532 -0.00500
C 	C 	0.61992 0.76360 0.27996 0.04900
C 	C 	0.52081 0.24631 0.22446 -0.04000
C 	C 	0.25176 0.24199 0.13911 -0.14200
C 	C 	0.53817 0.90969 0.31322 -0.02100
C 	C 	0.53327 0.38777 0.84122 0.02800
C 	C 	0.88421 0.22568 0.23442 0.04600
C 	C 	0.72150 0.97626 0.75612 0.02200
C 	C 	0.63722 0.24437 0.25659 -0.14200
C 	C 	0.19512 0.26386 0.53315 0.00200
C 	C 	0.05028 0.42887 0.31351 0.14300
C 	C 	0.22029 0.94613 0.99557 -0.01800
C 	C 	0.69926 0.35355 0.94931 0.09000
C 	C 	0.25146 0.55931 0.75367 0.05800
C 	C 	0.85190 0.81457 0.45026 0.14100
C 	C 	0.75209 0.24050 0.67304 0.41800
C 	C 	0.77481 0.47475 0.26663 -0.03600
C 	C 	0.26237 0.87309 0.28498 0.01300
C 	C 	0.75351 0.74377 0.04272 -0.00100
C 	C 	0.52745 0.32983 0.24247 0.09300
C 	C 	0.29395 0.01902 0.66876 0.13400
C 	C 	0.23108 0.40660 0.73445 -0.08000
C 	C 	0.21900 0.41800 0.00608 -0.08300
C 	C 	0.27373 0.07597 0.26706 -0.07500
C 	C 	0.52715 0.35562 0.83786 -0.01000
C 	C 	0.39144 0.80440 0.91695 0.09500
C 	C 	0.31415 0.02940 0.21429 -0.00700
C 	C 	0.65365 0.35771 0.01815 -0.00900
C 	C 	0.03854 0.90958 0.81526 -0.02100
C 	C 	0.31540 0.78235 0.97219 -0.00500
C 	C 	0.78425 0.47256 0.74819 -0.03800
C 	C 	0.02450 0.95453 0.23619 0.03200
C 	C 	0.64568 0.94192 0.68111 0.14400
C 	C 	0.97307 0.81183 0.63777 -0.08300
C 	C 	0.42987 0.75957 0.12127 0.09600
C 	C 	0.22630 0.47500 0.25282 0.01100
C 	C 	0.54355 0.41148 0.75935 -0.09100
C 	C 	0.25366 0.24352 0.86885 -0.14600
C 	C 	0.64010 0.04192 0.73425 0.09200
C 	C 	0.50373 0.79391 0.19450 -0.09500
C 	C 	0.33329 0.88802 0.45016 0.02700
C 	C 	0.00752 0.93618 0.70654 -0.02100
C 	C 	0.80737 0.83341 0.47947 -0.08100
C 	C 	0.77476 0.48816 0.56923 -0.08700
C 	C 	0.73186 0.37326 0.77066 0.04700
C 	C 	0.11383 0.39683 0.68322 0.09600
C 	C 	0.73395 0.01236 0.27036 -0.03900
C 	C 	0.29461 0.39486 0.44590 0.14000
C 	C 	0.53170 0.31436 0.29300 0.13600
C 	C 	0.25191 0.15979 0.25229 0.41300
C 	C 	0.04279 0.32162 0.41238 0.09800
C 	C 	0.64203 0.95256 0.19352 -0.08400
C 	C 	0.64105 0.44910 0.69101 -0.08200
C 	C 	0.28225 0.24747 0.02141 -0.03800
C 	C 	0.52712 0.43977 0.75898 -0.02200
C 	C 	0.78110 0.45728 0.45335 0.13800
C 	C 	0.83276 0.88094 0.92904 0.02700
C 	C 	0.74499 0.46201 0.97359 0.03800
C 	C 	0.38882 0.08844 0.19783 0.09900
C 	C 	0.70681 0.00544 0.09647 0.14200
C 	C 	0.35634 0.03487 0.65259 0.14200
C 	C 	0.63397 0.44215 0.18518 0.14200
C 	C 	0.77709 0.58337 0.51528 0.09700
C 	C 	0.23017 0.74572 0.48978 -0.04400
C 	C 	0.25916 0.83109 0.51975 0.09900
C 	C 	0.22385 0.75499 0.02118 0.01200
C 	C 	0.99536 0.41344 0.15726 -0.08300
C 	C 	0.98449 0.25026 0.28258 -0.04200
C 	C 	0.02967 0.38963 0.34821 0.03800
C 	C 	0.65327 0.45115 0.72186 0.13400
C 	C 	0.75696 0.35596 0.40566 0.09300
C 	C 	0.27946 0.53642 0.05609 0.14000
C 	C 	0.18942 0.95746 0.99601 0.14400
C 	C 	0.01436 0.98571 0.14769 0.10300
C 	C 	0.27456 0.72678 0.88727 0.04400
C 	C 	0.13869 0.24455 0.75445 -0.14700
C 	C 	0.70190 0.76773 0.03999 0.00800
C 	C 	0.32335 0.02345 0.57270 -0.02200
C 	C 	0.41812 0.22164 0.27019 -0.07900
C 	C 	0.32211 0.29325 0.97890 -0.01100
C 	C 	0.45732 0.78502 0.65269 0.13700
C 	C 	0.31580 0.06155 0.09766 -0.02100
C 	C 	0.91404 0.77794 0.12730 0.09400
C 	C 	0.73353 0.26853 0.12247 0.01000
C 	C 	0.94020 0.86970 0.72257 0.09300
C 	C 	0.61608 0.41473 0.30333 0.09400
C 	C 	0.31817 0.52127 0.19847 -0.01100
C 	C 	0.67604 0.83892 0.49907 0.14600
C 	C 	0.25566 0.05996 0.75011 0.04900
C 	C 	0.30105 0.03520 0.15953 -0.08100
C 	C 	0.77963 0.50082 0.07115 -0.08100
C 	C 	0.20233 0.76121 0.53746 0.00500
C 	C 	0.23464 0.72777 0.42367 -0.08100
C 	C 	0.70493 0.99285 0.06614 -0.01900
C 	C 	0.97177 0.74147 0.75514 0.00100
C 	C 	0.02602 0.35796 0.34004 -0.02100
C 	C 	0.22242 0.50964 0.74655 0.02500
C 	C 	0.85439 0.53788 0.66002 0.13800
C 	C 	0.10432 0.47219 0.22537 0.09800
C 	C 	0.51105 0.32847 0.16067 0.14400
C 	C 	0.77070 0.11237 0.23723 0.03500
C 	C 	0.82739 0.85071 0.94113 -0.01000
C 	C 	0.53685 0.85539 0.83413 -0.01500
C 	C 	0.29176 0.52013 0.69324 0.13900
C 	C 	0.61969 0.98284 0.54489 0.09500
C 	C 	0.53571 0.79150 0.81664 -0.00700
C 	C 	0.26357 0.33219 0.02365 0.09800
C 	C 	0.96102 0.32047 0.63568 -0.08300
C 	C 	0.50912 0.31435 0.80259 0.13800
C 	C 	0.21328 0.91914 0.50153 -0.08400
C 	C 	0.27944 0.00762 0.25526 0.02300
C 	C 	0.79491 0.01585 0.18205 0.13700
C 	C 	0.99463 0.41811 0.31430 -0.08700
C 	C 	0.28314 0.89347 0.93844 0.14000
C 	C 	0.77714 0.97562 0.76766 -0.04400
C 	C 	0.72764 0.00036 0.04360 0.03100
C 	C 	0.63825 0.73974 0.75549 -0.14100
C 	C 	0.30730 0.90756 0.44568 -0.02200
C 	C 	0.25432 0.95815 0.74514 -0.01000
C 	C 	0.20676 0.51063 0.56885 -0.01800
C 	C 	0.65008 0.45386 0.63539 0.03100
C 	C 	0.23809 0.76530 0.12372 0.01200
C 	C 	0.73067 0.22656 0.58912 -0.07600
C 	C 	0.62443 0.94278 0.04730 0.09700
C 	C 	0.96114 0.27745 0.15225 0.13800
C 	C 	0.93740 0.24478 0.74951 0.03000
C 	C 	0.45012 0.94906 0.79060 0.09600
C 	C 	0.47212 0.30894 0.63626 -0.08300
C 	C 	0.52889 0.76319 0.31691 -0.01200
C 	C 	0.32648 0.05520 0.15467 -0.01100
C 	C 	0.48046 0.77726 0.67485 -0.00800
C 	C 	0.52010 0.45481 0.78740 0.13900
C 	C 	0.75182 0.15959 0.75461 0.41400
C 	C 	0.80431 0.54503 0.55878 -0.08300
C 	C 	0.75594 0.45641 0.75343 -0.01100
C 	C 	0.15927 0.01961 0.07322 0.13700
C 	C 	0.75276 0.74325 0.44119 0.04700
C 	C 	0.53546 0.74218 0.26349 -0.01400
C 	C 	0.53375 0.91135 0.82077 -0.02200
C 	C 	0.74807 0.73902 0.57514 0.04900
C 	C 	0.67799 0.78949 0.52787 -0.00800
C 	C 	0.25422 0.82136 0.25782 0.31700
C 	C 	0.78334 0.73482 0.92232 -0.05700
C 	C 	0.91969 0.75845 0.77855 -0.05700
C 	C 	0.88520 0.26572 0.73228 0.01300
C 	C 	0.25683 0.99019 0.16835 0.09000
C 	C 	0.15301 0.38513 0.52512 0.02100
C 	C 	0.48020 0.88340 0.69760 0.14100
C 	C 	0.25239 0.65912 0.25971 0.40000
C 	C 	0.27697 0.50696 0.75949 0.01200
C 	C 	0.48528 0.33983 0.14390 -0.00700
C 	C 	0.25242 0.32139 0.25366 0.39800
C 	C 	0.98789 0.74564 0.78346 -0.04100
C 	C 	0.22916 0.22588 0.08907 -0.07000
C 	C 	0.65560 0.49437 0.96594 0.09600
C 	C 	0.82646 0.46607 0.09733 0.10100
C 	C 	0.45824 0.81511 0.63868 -0.08300
C 	C 	0.01132 0.82711 0.67644 0.14600
C 	C 	0.19634 0.98965 0.10333 -0.08700
C 	C 	0.97282 0.24735 0.19855 0.00300
C 	C 	0.77417 0.23508 0.02042 -0.04400
C 	C 	0.23261 0.72698 0.59046 -0.07600
C 	C 	0.30901 0.75099 0.97972 -0.01100
C 	C 	0.27337 0.10872 0.26819 0.04300
C 	C 	0.23307 0.26589 0.58947 -0.07400
C 	C 	0.73395 0.76274 0.59315 -0.07700
C 	C 	0.31747 0.28078 0.47379 -0.00700
C 	C 	0.64766 0.39000 0.02021 0.02100
C 	C 	0.25196 0.12659 0.25085 -0.14400
C 	C 	0.41571 0.26332 0.23291 -0.07500
C 	C 	0.97924 0.37368 0.64138 0.01800
C 	C 	0.98351 0.32989 0.14904 -0.00800
C 	C 	0.33029 0.07036 0.12570 0.03000
C 	C 	0.48725 0.40807 0.71350 -0.08300
C 	C 	0.76951 0.93757 0.46303 -0.02000
C 	C 	0.25177 0.24316 0.67222 0.41400
C 	C 	0.73528 0.38078 0.05663 0.09200
C 	C 	0.63854 0.32079 0.53324 -0.08200
C 	C 	0.18955 0.91970 0.67056 0.14000
C 	C 	0.75807 0.24706 0.47210 -0.01300
C 	C 	0.67134 0.73906 0.75555 0.41800
C 	C 	0.75115 0.74018 0.17900 0.31900
C 	C 	0.12555 0.78295 0.58743 0.09900
C 	C 	0.27322 0.60895 0.77317 0.04500
C 	C 	0.68680 0.95744 0.22814 -0.00800
C 	C 	0.48138 0.83642 0.64702 -0.00700
C 	C 	0.83582 0.48990 0.97974 0.09900
C 	C 	0.19208 0.46158 0.73836 -0.00100
C 	C 	0.31101 0.26238 0.97562 -0.01200
C 	C 	0.40095 0.30157 0.42946 0.09500
C 	C 	0.95890 0.79067 0.15242 0.13700
C 	C 	0.31109 0.33659 0.48085 -0.08100
C 	C 	0.50411 0.99968 0.30814 0.09700
C 	C 	0.75513 0.74747 0.97485 0.00400
C 	C 	0.51750 0.97794 0.64251 0.10600
C 	C 	0.81204 0.76253 0.98345 -0.01100
C 	C 	0.53766 0.29770 0.34685 -0.09200
C 	C 	0.99667 0.42510 0.65729 -0.08400
C 	C 	0.26246 0.58642 0.05997 0.09500
C 	C 	0.20815 0.39852 0.53059 0.14200
C 	C 	0.77474 0.87447 0.23618 0.01100
C 	C 	0.70654 0.48287 0.06607 -0.02000
C 	C 	0.91725 0.76671 0.23393 -0.05400
C 	C 	0.25025 0.52564 0.75365 -0.02300
C 	C 	0.03192 0.33446 0.36217 0.14200
C 	C 	0.81366 0.93409 0.93210 -0.08600
C 	C 	0.74714 0.99246 0.67661 0.09100
C 	C 	0.34801 0.80304 0.46201 -0.09200
C 	C 	0.65809 0.93845 0.71160 -0.09400
C 	C 	0.19210 0.47520 0.61035 -0.08700
C 	C 	0.25340 0.45678 0.24706 -0.00900
C 	C 	0.23242 0.37392 0.73441 0.04600
C 	C 	0.77280 0.07984 0.23750 -0.07500
C 	C 	0.03832 0.83412 0.35855 0.14200
C 	C 	0.91704 0.22571 0.23405 -0.07500
C 	C 	0.92167 0.72571 0.27387 -0.05900
C 	C 	0.53631 0.24572 0.25341 -0.00300
C 	C 	0.21875 0.97687 0.56276 -0.02300
C 	C 	0.71558 0.46135 0.08953 0.14300
C 	C 	0.14603 0.37274 0.01080 0.02000
C 	C 	0.70163 0.33617 0.44560 0.09400
C 	C 	0.25301 0.35633 0.25301 -0.11900
C 	C 	0.80685 0.50199 0.46480 0.10000
C 	C 	0.09079 0.76542 0.77465 -0.08200
C 	C 	0.17977 0.44471 0.97519 0.14100
C 	C 	0.77277 0.57617 0.27756 -0.08000
C 	C 	0.17047 0.24084 0.25497 0.41500
C 	C 	0.25257 0.12758 0.75267 -0.14300
C 	C 	0.96252 0.30750 0.13816 -0.08200
C 	C 	0.21123 0.44008 0.98323 -0.02300
C 	C 	0.28120 0.97527 0.73671 -0.04400
C 	C 	0.52393 0.79467 0.32548 -0.01100
C 	C 	0.35947 0.33246 0.95910 0.14200
C 	C 	0.52837 0.85912 0.33861 -0.01100
C 	C 	0.79110 0.02649 0.59538 0.14000
C 	C 	0.11926 0.22034 0.23767 0.04500
C 	C 	0.24842 0.24268 0.53761 -0.00500
C 	C 	0.81548 0.79137 0.96805 -0.00900
C 	C 	0.57082 0.74266 0.75616 0.04700
C 	C 	0.38415 0.75825 0.27997 0.04800
C 	C 	0.73051 0.10899 0.73700 0.04400
C 	C 	0.72915 0.47511 0.75923 0.01300
C 	C 	0.66119 0.44696 0.66544 -0.02300
C 	C 	0.25255 0.73892 0.14042 -0.08200
C 	C 	0.00814 0.32075 0.16872 0.14500
C 	C 	0.65038 0.34082 0.51040 -0.00900
C 	C 	0.75101 0.24255 0.83530 0.41600
C 	C 	0.27856 0.75780 0.62446 0.04700
C 	C 	0.73581 0.22816 0.42212 -0.08100
C 	C 	0.19629 0.96706 0.74353 0.00300
C 	C 	0.50838 0.29913 0.17525 -0.09100
C 	C 	0.15682 0.79402 0.54611 0.13800
C 	C 	0.48769 0.39340 0.16408 -0.00600
C 	C 	0.14148 0.87417 0.51601 0.02100
C 	C 	0.23106 0.26021 0.38556 0.04300
C 	C 	0.03916 0.74350 0.75779 -0.01500
C 	C 	0.21246 0.45778 0.11183 -0.08600
C 	C 	0.33372 0.24045 0.25372 0.41500
C 	C 	0.06199 0.33756 0.67236 0.09000
C 	C 	0.27878 0.89531 0.43499 0.14000
C 	C 	0.12245 0.26085 0.73106 0.04600
C 	C 	0.68860 0.46292 0.24926 -0.01000
C 	C 	0.65121 0.47026 0.07641 0.14200
C 	C 	0.75470 0.51939 0.06146 -0.01200
C 	C 	0.48455 0.23982 0.27775 -0.04600
C 	C 	0.31934 0.50226 0.97478 0.09900
C 	C 	0.30914 0.02191 0.72449 -0.01200
C 	C 	0.75232 0.32246 0.75282 0.41700
C 	C 	0.77942 0.89348 0.91259 0.13700
C 	C 	0.06976 0.24204 0.25768 0.04700
C 	C 	0.83146 0.52979 0.63795 -0.00600
O 	O 	0.38327 0.32492 0.43874 -0.22600
O 	O 	0.32741 0.51633 0.60194 -0.22600
O 	O 	0.74553 0.45438 0.09327 -0.23800
O 	O 	0.45381 0.86527 0.19622 -0.22700
O 	O 	0.68454 0.48468 0.96944 -0.22500
O 	O 	0.24554 0.48090 0.59479 -0.23600
O 	O 	0.63325 0.94584 0.07650 -0.22600
O 	O 	0.23447 0.26186 0.68750 -0.52000
O 	O 	0.31848 0.25852 0.23583 -0.52300
O 	O 	0.31542 0.47732 0.49278 -0.22800
O 	O 	0.27115 0.49715 0.69745 -0.22800
O 	O 	0.27131 0.67483 0.77360 -0.51400
O 	O 	0.68569 0.26103 0.23812 -0.52000
O 	O 	0.47691 0.44641 0.27288 -0.22700
O 	O 	0.77155 0.80546 0.77557 -0.49300
O 	O 	0.27927 0.30979 0.00975 -0.23400
O 	O 	0.86681 0.07410 0.66928 -0.22600
O 	O 	0.27319 0.75921 0.68912 -0.52300
O 	O 	0.73359 0.26185 0.19001 -0.49400
O 	O 	0.52865 0.46576 0.66785 -0.22800
O 	O 	0.56914 0.37143 0.78989 -0.22700
O 	O 	0.68331 0.85701 0.47475 -0.22900
O 	O 	0.77701 0.30956 0.50868 -0.23200
O 	O 	0.66929 0.97259 0.94978 -0.22500
O 	O 	0.50724 0.48313 0.78597 -0.22600
O 	O 	0.76966 0.67429 0.27882 -0.52400
O 	O 	0.77061 0.25822 0.68810 -0.52500
O 	O 	0.03284 0.81010 0.26437 -0.23100
O 	O 	0.27931 0.86779 0.42033 -0.22800
O 	O 	0.63314 0.45130 0.57387 -0.22500
O 	O 	0.27301 0.71794 0.19072 -0.45900
O 	O 	0.52735 0.30711 0.26311 -0.23100
O 	O 	0.87939 0.34440 0.43928 -0.22600
O 	O 	0.31890 0.25998 0.77139 -0.51600
O 	O 	0.70897 0.87883 0.02648 -0.22700
O 	O 	0.96922 0.36027 0.70420 -0.22900
O 	O 	0.75407 0.09828 0.54151 -0.22400
O 	O 	0.25403 0.74201 0.75507 -1.00900
O 	O 	0.68581 0.72098 0.77426 -0.52100
O 	O 	0.14303 0.28042 0.56567 -0.22700
O 	O 	0.14915 0.77487 0.56948 -0.22700
O 	O 	0.53620 0.34682 0.16261 -0.22700
O 	O 	0.18754 0.72441 0.73704 -0.52200
O 	O 	0.03431 0.85033 0.16438 -0.22800
O 	O 	0.76713 0.00703 0.19287 -0.23400
O 	O 	0.88096 0.55004 0.64923 -0.22600
O 	O 	0.93592 0.77020 0.14742 -0.22700
O 	O 	0.76932 0.75815 0.19400 -0.50100
O 	O 	0.26543 0.46685 0.09646 -0.23600
O 	O 	0.55475 0.84918 0.38537 -0.22600
O 	O 	0.23393 0.30708 0.27195 -0.51600
O 	O 	0.19157 0.34969 0.97116 -0.23000
O 	O 	0.25246 0.05766 0.53791 -0.22400
O 	O 	0.81961 0.47328 0.60032 -0.22600
O 	O 	0.17977 0.84984 0.47008 -0.22900
O 	O 	0.76826 0.71901 0.68949 -0.52900
O 	O 	0.66072 0.46543 0.44799 -0.22600
O 	O 	0.23428 0.25913 0.32047 -0.51900
O 	O 	0.65274 0.01506 0.74222 -0.23200
O 	O 	0.18723 0.75755 0.23808 -0.52600
O 	O 	0.19403 0.48297 0.48479 -0.22600
O 	O 	0.78131 0.36979 0.91960 -0.22700
O 	O 	0.76506 0.04646 0.01773 -0.22000
O 	O 	0.32021 0.75984 0.73773 -0.52600
O 	O 	0.77196 0.26256 0.32239 -0.52500
O 	O 	0.02050 0.46135 0.17446 -0.22700
O 	O 	0.58764 0.90537 0.81322 -0.22500
O 	O 	0.56947 0.87211 0.28872 -0.22700
O 	O 	0.76254 0.55715 0.52200 -0.22000
O 	O 	0.95587 0.86836 0.69617 -0.22700
O 	O 	0.68124 0.36475 0.97143 -0.22900
O 	O 	0.77023 0.72300 0.32645 -0.52700
O 	O 	0.16950 0.52428 0.71745 -0.22900
O 	O 	0.23490 0.80632 0.23657 -0.46300
O 	O 	0.34919 0.46929 0.06732 -0.22500
O 	O 	0.63645 0.96253 0.24912 -0.22700
O 	O 	0.77055 0.30720 0.73512 -0.52200
O 	O 	0.46446 0.85759 0.70535 -0.22900
O 	O 	0.17311 0.46838 0.95610 -0.22700
O 	O 	0.63777 0.91809 0.66266 -0.22400
O 	O 	0.65714 0.79026 0.07840 -0.22800
O 	O 	0.81930 0.72158 0.27880 -0.45900
O 	O 	0.60996 0.42330 0.17900 -0.22300
O 	O 	0.73422 0.75745 0.69020 -0.53200
O 	O 	0.59051 0.40777 0.31888 -0.22400
O 	O 	0.02155 0.47353 0.67356 -0.22500
O 	O 	0.30510 0.98061 0.97514 -0.22600
O 	O 	0.71069 0.93335 0.14883 -0.22800
O 	O 	0.03347 0.30936 0.76204 -0.23100
O 	O 	0.53128 0.34475 0.68451 -0.23000
O 	O 	0.27061 0.30628 0.23575 -0.52100
O 	O 	0.64313 0.28643 0.06536 -0.22700
O 	O 	0.20136 0.37997 0.04388 -0.22500
O 	O 	0.87691 0.82153 0.43303 -0.22600
O 	O 	0.16166 0.96855 0.45643 -0.22700
O 	O 	0.32036 0.72266 0.77332 -0.51900
O 	O 	0.14226 0.27015 0.05885 -0.22700
O 	O 	0.21163 0.88111 0.05117 -0.22900
O 	O 	0.54165 0.84188 0.88676 -0.22500
O 	O 	0.15386 0.00656 0.23810 -0.23000
O 	O 	0.14085 0.45792 0.06721 -0.22500
O 	O 	0.77703 0.79710 0.50974 -0.23000
O 	O 	0.26616 0.51382 0.18166 -0.23200
O 	O 	0.20513 0.40277 0.14945 -0.22700
O 	O 	0.46492 0.36034 0.20166 -0.22900
O 	O 	0.24614 0.97845 0.08010 -0.23600
O 	O 	0.23531 0.75652 0.19045 -0.50000
O 	O 	0.78008 0.48754 0.46059 -0.22400
O 	O 	0.44982 0.25674 0.63932 -0.22700
O 	O 	0.27184 0.75806 0.32330 -0.53000
O 	O 	0.27306 0.80829 0.73617 -0.52000
O 	O 	0.95542 0.35457 0.20250 -0.22700
O 	O 	0.62638 0.98189 0.57484 -0.22300
O 	O 	0.27020 0.17403 0.27111 -0.51700
O 	O 	0.80636 0.00295 0.60897 -0.22600
O 	O 	0.81915 0.22190 0.77442 -0.46000
O 	O 	0.23366 0.17519 0.23470 -0.52300
O 	O 	0.68646 0.75668 0.73726 -0.52700
O 	O 	0.70860 0.42747 0.64619 -0.22800
O 	O 	0.33161 0.00925 0.10177 -0.22600
O 	O 	0.77734 0.86633 0.89740 -0.22600
O 	O 	0.73252 0.72190 0.82337 -0.46300
O 	O 	0.73151 0.67426 0.24437 -0.52700
O 	O 	0.37826 0.84419 0.43702 -0.22600
O 	O 	0.94000 0.25580 0.14481 -0.22700
O 	O 	0.27476 0.30010 0.50293 -0.23100
O 	O 	0.51847 0.96913 0.67193 -0.22500
O 	O 	0.43423 0.76457 0.64819 -0.22600
O 	O 	0.53178 0.80649 0.76362 -0.23100
O 	O 	0.75197 0.24101 0.75412 -1.00900
O 	O 	0.20427 0.90060 0.65084 -0.22700
O 	O 	0.45473 0.36556 0.69574 -0.22700
O 	O 	0.93677 0.26983 0.64416 -0.22700
O 	O 	0.73313 0.26057 0.81975 -0.52100
O 	O 	0.76977 0.80721 0.24067 -0.49600
O 	O 	0.27389 0.99863 0.19248 -0.22800
O 	O 	0.02987 0.96858 0.66851 -0.22800
O 	O 	0.87738 0.83484 0.92585 -0.22600
O 	O 	0.82545 0.49599 0.10423 -0.22600
O 	O 	0.70683 0.38428 0.04563 -0.22800
O 	O 	0.25248 0.24254 0.75399 -1.00800
O 	O 	0.77434 0.30221 0.00416 -0.23000
O 	O 	0.27732 0.80914 0.50838 -0.23200
O 	O 	0.96685 0.86142 0.20711 -0.22900
O 	O 	0.81927 0.71922 0.73466 -0.46000
O 	O 	0.20044 0.88183 0.54183 -0.22500
O 	O 	0.81894 0.22600 0.23814 -0.52200
O 	O 	0.70809 0.87850 0.54890 -0.22700
O 	O 	0.23487 0.22443 0.82109 -0.51800
O 	O 	0.75277 0.73913 0.75621 -1.01100
O 	O 	0.38949 0.53518 0.15174 -0.22600
O 	O 	0.29164 0.36907 0.92719 -0.22800
O 	O 	0.68082 0.34718 0.46526 -0.23000
O 	O 	0.27063 0.22259 0.32076 -0.51500
O 	O 	0.03600 0.34895 0.66060 -0.22700
O 	O 	0.27129 0.26076 0.82022 -0.52000
O 	O 	0.36213 0.58585 0.67886 -0.22500
O 	O 	0.68520 0.22649 0.27630 -0.51400
O 	O 	0.78197 0.36634 0.42009 -0.22900
O 	O 	0.81924 0.26311 0.27366 -0.51900
O 	O 	0.96324 0.43710 0.27104 -0.22700
O 	O 	0.68402 0.72239 0.24397 -0.52700
O 	O 	0.00866 0.98530 0.78693 -0.22600
O 	O 	0.13356 0.95954 0.73810 -0.22700
O 	O 	0.27763 0.86825 0.92099 -0.22700
O 	O 	0.18590 0.72360 0.27676 -0.51900
O 	O 	0.76649 0.00034 0.69917 -0.22800
O 	O 	0.49516 0.80653 0.27966 -0.23400
O 	O 	0.18496 0.22270 0.23646 -0.51900
O 	O 	0.77147 0.17807 0.24157 -0.52600
O 	O 	0.27153 0.80610 0.27641 -0.49500
O 	O 	0.27190 0.72450 0.82173 -0.51800
O 	O 	0.53006 0.96247 0.16408 -0.22800
O 	O 	0.76983 0.67269 0.73861 -0.53200
O 	O 	0.80598 0.97603 0.47651 -0.22600
O 	O 	0.97543 0.45529 0.77224 -0.22500
O 	O 	0.97353 0.95560 0.27643 -0.22600
O 	O 	0.81826 0.25954 0.73567 -0.49800
O 	O 	0.18568 0.36070 0.47509 -0.22900
O 	O 	0.34080 0.97163 0.57393 -0.22500
O 	O 	0.75137 0.74093 0.26032 -1.01000
O 	O 	0.63575 0.45526 0.74728 -0.22700
O 	O 	0.73369 0.30799 0.77094 -0.52000
O 	O 	0.26429 0.01465 0.67729 -0.23200
O 	O 	0.23418 0.17541 0.77268 -0.51100
O 	O 	0.94968 0.76020 0.64210 -0.22700
O 	O 	0.68411 0.97787 0.47244 -0.22600
O 	O 	0.23509 0.67547 0.73702 -0.51700
O 	O 	0.23793 0.59844 0.56079 -0.22600
O 	O 	0.81984 0.75763 0.77266 -0.49700
O 	O 	0.80647 0.48154 0.97621 -0.22600
O 	O 	0.53282 0.84487 0.66362 -0.22700
O 	O 	0.76668 0.80947 0.98588 -0.23200
O 	O 	0.18822 0.76155 0.77268 -0.52400
O 	O 	0.81763 0.75968 0.24060 -0.49700
O 	O 	0.68567 0.25994 0.77145 -0.52400
O 	O 	0.73326 0.22277 0.68763 -0.51800
O 	O 	0.08584 0.40621 0.81595 -0.22500
O 	O 	0.01621 0.97592 0.17675 -0.22600
O 	O 	0.76906 0.22372 0.82116 -0.52200
O 	O 	0.71781 0.05925 0.61988 -0.22800
O 	O 	0.05567 0.84603 0.88481 -0.22500
O 	O 	0.23546 0.72415 0.68870 -0.51900
O 	O 	0.55383 0.34406 0.88398 -0.22500
O 	O 	0.62066 0.47279 0.07097 -0.22600
O 	O 	0.26944 0.22423 0.68678 -0.51900
O 	O 	0.73462 0.67252 0.77610 -0.51900
O 	O 	0.26932 0.17629 0.73504 -0.52200
O 	O 	0.38515 0.04282 0.64371 -0.22600
O 	O 	0.13527 0.95522 0.57156 -0.22600
O 	O 	0.68530 0.22243 0.73625 -0.52100
O 	O 	0.31915 0.22201 0.27203 -0.51500
O 	O 	0.87624 0.32768 0.93060 -0.22600
O 	O 	0.29218 0.48820 0.97195 -0.22600
O 	O 	0.18363 0.98422 0.98118 -0.22600
O 	O 	0.01711 0.31030 0.26898 -0.23400
O 	O 	0.21153 0.37546 0.55127 -0.22800
O 	O 	0.69620 0.38072 0.53688 -0.22500
O 	O 	0.12990 0.02939 0.06966 -0.22500
O 	O 	0.03977 0.84305 0.38838 -0.22500
O 	O 	0.81566 0.96992 0.10704 -0.22600
O 	O 	0.47485 0.95156 0.77254 -0.22600
O 	O 	0.99899 0.80729 0.77607 -0.23400
O 	O 	0.37017 0.08168 0.17435 -0.22500
O 	O 	0.64103 0.77904 0.56694 -0.22700
O 	O 	0.43615 0.26932 0.14309 -0.22700
O 	O 	0.23606 0.76158 0.82066 -0.52100
O 	O 	0.73367 0.17434 0.73627 -0.51800
O 	O 	0.73035 0.72053 0.19424 -0.46200
O 	O 	0.18575 0.25907 0.27282 -0.52100
O 	O 	0.14660 0.78154 0.07118 -0.22700
O 	O 	0.28196 0.98818 0.46333 -0.22500
O 	O 	0.77687 0.48413 0.20244 -0.22400
O 	O 	0.73345 0.75902 0.32641 -0.52900
O 	O 	0.23622 0.80962 0.77194 -0.51500
O 	O 	0.53066 0.84266 0.18552 -0.23100
O 	O 	0.03323 0.84771 0.68464 -0.23100
O 	O 	0.37367 0.82738 0.92697 -0.22600
O 	O 	0.73434 0.22751 0.32393 -0.52300
O 	O 	0.28979 0.37128 0.42612 -0.22600
O 	O 	0.12004 0.42054 0.66471 -0.22400
O 	O 	0.78198 0.86275 0.42260 -0.22700
O 	O 	0.25719 0.55757 0.05078 -0.22500
O 	O 	0.76969 0.17459 0.77308 -0.52100
O 	O 	0.73767 0.56935 0.04659 -0.22500
O 	O 	0.13357 0.46665 0.23296 -0.23000
O 	O 	0.70625 0.50564 0.20090 -0.22800
O 	O 	0.72483 0.03053 0.10061 -0.22900
O 	O 	0.18624 0.22529 0.77318 -0.51900
O 	O 	0.27093 0.30936 0.77287 -0.51700
O 	O 	0.64499 0.27319 0.56361 -0.22700
O 	O 	0.51032 0.98499 0.28188 -0.22600
O 	O 	0.03180 0.34072 0.17255 -0.23000
O 	O 	0.73248 0.80841 0.27974 -0.46000
O 	O 	0.12162 0.49455 0.56842 -0.22600
O 	O 	0.27070 0.25867 0.18749 -0.51900
O 	O 	0.23456 0.30918 0.73653 -0.52100
O 	O 	0.08580 0.90756 0.31643 -0.22500
O 	O 	0.27706 0.80088 0.00692 -0.23000
O 	O 	0.23424 0.72305 0.32493 -0.52000
O 	O 	0.27107 0.67381 0.24201 -0.52800
O 	O 	0.44561 0.75470 0.14720 -0.22700
O 	O 	0.52693 0.46940 0.17479 -0.22500
O 	O 	0.18018 0.86337 0.97877 -0.22900
O 	O 	0.77051 0.22238 0.18975 -0.45900
O 	O 	0.79001 0.98315 0.94872 -0.22300
O 	O 	0.85428 0.58126 0.17011 -0.22600
O 	O 	0.03739 0.34348 0.39148 -0.22600
O 	O 	0.25206 0.24063 0.25403 -1.00800
O 	O 	0.26082 0.09824 0.04283 -0.22600
O 	O 	0.72772 0.53020 0.60401 -0.22900
O 	O 	0.26017 0.96767 0.59856 -0.23700
O 	O 	0.54151 0.33752 0.38718 -0.22600
O 	O 	0.18696 0.26094 0.73590 -0.52400
O 	O 	0.88070 0.04712 0.14812 -0.22600
O 	O 	0.23359 0.67379 0.27746 -0.51200
O 	O 	0.75222 0.24396 0.25678 -1.01000
O 	O 	0.07770 0.42669 0.32818 -0.22600
O 	O 	0.31814 0.22373 0.73465 -0.51500
O 	O 	0.31972 0.72075 0.24065 -0.52500
O 	O 	0.77134 0.49667 0.68948 -0.23500
O 	O 	0.15629 0.93872 0.12983 -0.22700
O 	O 	0.31937 0.75799 0.27605 -0.52500
O 	O 	0.23268 0.22405 0.18714 -0.51700
O 	O 	0.25303 0.73978 0.25762 -1.01100
O 	O 	0.73309 0.30985 0.23871 -0.52300
O 	O 	0.03567 0.34212 0.88635 -0.22500
O 	O 	0.66910 0.84440 0.96260 -0.22700
O 	O 	0.07107 0.87396 0.78943 -0.22700
O 	O 	0.76984 0.31018 0.27480 -0.52300
O 	O 	0.73468 0.17806 0.27775 -0.51400
O 	O 	0.73336 0.80641 0.73731 -0.46100
O 	O 	0.68488 0.75963 0.27927 -0.52500
O 	O 	0.77390 0.75687 0.82170 -0.49800
O 	O 	0.38491 0.34109 0.94334 -0.22600
O 	O 	0.49623 0.30547 0.77573 -0.23400
