data_crystal

_cell_length_a 37.15100
_cell_length_b 37.15100
_cell_length_c 30.04200
_cell_angle_alpha 90.00000
_cell_angle_beta  90.00000
_cell_angle_gamma 120.00000

_symmetry_space_group_name_	'P 1'
_symmetry_space_group_name_H-M	'P 1'

loop_
_symmetry_equiv_pos_as_xyz
  x,y,z

loop_
_atom_site_label
_atom_site_type_symbol
_atom_site_fract_x
_atom_site_fract_y
_atom_site_fract_z
_atom_site_charge
C 	C 	1.02042 0.97700 0.25373 -0.00300
C 	C 	1.04094 1.02121 0.25382 -0.04700
C 	C 	1.01908 1.04356 0.25320 -0.00200
C 	C 	0.97501 1.01994 0.25302 -0.04700
C 	C 	0.95329 0.97611 0.25339 -0.00100
C 	C 	0.97629 0.95524 0.25390 -0.04700
H 	H 	1.07437 1.03852 0.25426 0.04000
H 	H 	0.95691 1.03536 0.25371 0.04100
H 	H 	0.95920 0.92168 0.25308 0.04100
C 	C 	1.04641 1.02273 0.74983 -0.00100
C 	C 	1.02314 0.97859 0.74968 -0.04800
C 	C 	0.97928 0.95642 0.75009 -0.00000
C 	C 	0.95799 0.97889 0.75079 -0.04900
C 	C 	0.97957 1.02274 0.75101 0.00000
C 	C 	1.02359 1.04410 0.75087 -0.04800
H 	H 	1.03883 0.96076 0.75167 0.04100
H 	H 	0.92435 0.96207 0.74973 0.04300
H 	H 	1.03978 1.07765 0.75028 0.04100
C 	C 	0.30720 0.62167 0.24581 -0.00100
C 	C 	0.35096 0.64321 0.24610 -0.04900
C 	C 	0.37395 0.68695 0.24634 -0.00100
C 	C 	0.35247 0.70923 0.24605 -0.05000
C 	C 	0.30869 0.68849 0.24582 -0.00100
C 	C 	0.28640 0.64468 0.24557 -0.05000
H 	H 	0.36723 0.62582 0.24645 0.04200
H 	H 	0.36992 0.74289 0.24630 0.04200
H 	H 	0.25274 0.62844 0.24550 0.04200
C 	C 	0.62378 0.31225 0.75126 -0.00000
C 	C 	0.64540 0.29012 0.75100 -0.05000
C 	C 	0.68915 0.31100 0.75123 -0.00100
C 	C 	0.71137 0.35478 0.75181 -0.05000
C 	C 	0.69055 0.37782 0.75190 -0.00000
C 	C 	0.64669 0.35604 0.75174 -0.05000
H 	H 	0.62810 0.25646 0.75043 0.04200
H 	H 	0.74500 0.37088 0.75076 0.04200
H 	H 	0.63019 0.37316 0.75304 0.04200
C 	C 	0.38146 0.27296 0.03559 -0.00200
C 	C 	0.35394 0.28102 0.06089 -0.04800
C 	C 	0.36339 0.29612 0.10510 -0.00100
C 	C 	0.40137 0.30408 0.12402 -0.04900
C 	C 	0.42985 0.29741 0.09972 -0.00100
C 	C 	0.41978 0.28243 0.05586 -0.04800
H 	H 	0.32391 0.27344 0.04763 0.04200
H 	H 	0.40878 0.31550 0.15788 0.04200
H 	H 	0.44337 0.28009 0.03714 0.04100
C 	C 	0.38648 1.11228 0.46258 -0.00300
C 	C 	0.42517 1.14047 0.44223 -0.04700
C 	C 	0.43498 1.13594 0.39765 -0.00300
C 	C 	0.40443 1.10133 0.37337 -0.04700
C 	C 	0.36636 1.07197 0.39264 -0.00200
C 	C 	0.35788 1.07762 0.43702 -0.04800
H 	H 	0.44922 1.16441 0.46241 0.04000
H 	H 	0.40939 1.09704 0.33879 0.04100
H 	H 	0.32766 1.05574 0.45031 0.04200
C 	C 	0.72279 1.10660 0.03493 -0.00100
C 	C 	0.71395 1.07123 0.06039 -0.04800
C 	C 	0.69923 1.06641 0.10454 -0.00100
C 	C 	0.69251 1.09749 0.12304 -0.04700
C 	C 	0.70120 1.13376 0.09879 -0.00300
C 	C 	0.71701 1.13779 0.05495 -0.04700
H 	H 	0.71837 1.04710 0.04578 0.04100
H 	H 	0.68148 1.09358 0.15700 0.04100
H 	H 	0.72359 1.16476 0.03535 0.04000
C 	C 	0.27085 0.38234 0.53767 0.00000
C 	C 	0.28104 0.42136 0.55599 -0.05000
C 	C 	0.29700 0.43265 0.59963 -0.00000
C 	C 	0.30286 0.40385 0.62496 -0.04900
C 	C 	0.29365 0.36500 0.60723 -0.00100
C 	C 	0.27731 0.35460 0.56376 -0.05000
H 	H 	0.27746 0.44346 0.53573 0.04200
H 	H 	0.31492 0.41171 0.65851 0.04200
H 	H 	0.26867 0.32423 0.55052 0.04200
C 	C 	1.10866 0.71583 0.52887 -0.00300
C 	C 	1.07286 0.70811 0.55311 -0.04700
C 	C 	1.06680 0.69473 0.59780 -0.00100
C 	C 	1.09693 0.68785 0.61830 -0.04700
C 	C 	1.13231 0.69246 0.59502 -0.00300
C 	C 	1.13718 0.70639 0.55016 -0.04600
H 	H 	1.05008 0.71418 0.53806 0.04000
H 	H 	1.09326 0.68099 0.65345 0.04000
H 	H 	1.16190 0.70741 0.53047 0.04000
C 	C 	1.10652 0.37981 0.96445 -0.00300
C 	C 	1.07104 0.35247 0.93914 -0.04700
C 	C 	1.06600 0.36151 0.89471 -0.00100
C 	C 	1.09662 0.39892 0.87541 -0.04800
C 	C 	1.13173 0.42765 0.89975 -0.00100
C 	C 	1.13612 0.41775 0.94400 -0.04700
H 	H 	1.04818 0.32272 0.95264 0.04200
H 	H 	1.09292 0.40566 0.84119 0.04100
H 	H 	1.16206 0.44099 0.96302 0.04100
C 	C 	-0.11399 0.27364 0.46438 -0.00000
C 	C 	-0.14471 0.27972 0.44341 -0.04900
C 	C 	-0.13962 0.29518 0.39952 0.00000
C 	C 	-0.10343 0.30335 0.37592 -0.04900
C 	C 	-0.07271 0.29683 0.39533 -0.00000
C 	C 	-0.07805 0.28263 0.43971 -0.04900
H 	H 	-0.17334 0.27136 0.46078 0.04100
H 	H 	-0.09841 0.31598 0.34256 0.04300
H 	H 	-0.05391 0.27859 0.45491 0.04100
C 	C 	0.72528 0.61321 0.46294 -0.00000
C 	C 	0.71735 0.57521 0.44361 -0.05000
C 	C 	0.70334 0.56520 0.39913 -0.00000
C 	C 	0.69626 0.59356 0.37458 -0.05000
C 	C 	0.70307 0.63115 0.39340 -0.00000
C 	C 	0.71784 0.64068 0.43746 -0.05000
H 	H 	0.72359 0.55419 0.46268 0.04200
H 	H 	0.68431 0.58589 0.34094 0.04300
H 	H 	0.72347 0.66970 0.45211 0.04300
C 	C 	-0.10949 0.61827 0.03331 -0.00300
C 	C 	-0.07588 0.64620 0.06055 -0.04800
C 	C 	-0.07095 0.63599 0.10451 -0.00200
C 	C 	-0.10087 0.59725 0.12203 -0.04900
C 	C 	-0.13498 0.56861 0.09626 -0.00200
C 	C 	-0.13872 0.57930 0.05203 -0.04800
H 	H 	-0.05221 0.67571 0.04726 0.04100
H 	H 	-0.09748 0.58928 0.15585 0.04200
H 	H 	-0.16538 0.55737 0.03283 0.04100
C 	C 	0.61096 -0.11298 0.53492 -0.00400
C 	C 	0.57261 -0.14215 0.55525 -0.04500
C 	C 	0.56220 -0.13763 0.59964 -0.00300
C 	C 	0.59171 -0.10199 0.62342 -0.04700
C 	C 	0.62970 -0.07229 0.60437 -0.00100
C 	C 	0.63872 -0.07785 0.56026 -0.04700
H 	H 	0.55080 -0.16882 0.53633 0.03800
H 	H 	0.58477 -0.09558 0.65641 0.04200
H 	H 	0.66888 -0.05567 0.54702 0.04200
C 	C 	0.27122 -0.11255 0.96158 -0.00100
C 	C 	0.27774 -0.14324 0.94133 -0.04700
C 	C 	0.29454 -0.13822 0.89782 -0.00300
C 	C 	0.30314 -0.10174 0.87406 -0.04700
C 	C 	0.29554 -0.07128 0.89264 -0.00100
C 	C 	0.27999 -0.07700 0.93650 -0.04800
H 	H 	0.27100 -0.17053 0.96042 0.04000
H 	H 	0.31478 -0.09720 0.84033 0.04100
H 	H 	0.27488 -0.05337 0.95124 0.04100
C 	C 	0.61370 0.72038 0.96587 -0.00200
C 	C 	0.57583 0.71237 0.94560 -0.04800
C 	C 	0.56455 0.69545 0.90245 -0.00100
C 	C 	0.59181 0.68649 0.87864 -0.04900
C 	C 	0.63008 0.69473 0.89707 -0.00100
C 	C 	0.64021 0.71095 0.94071 -0.04800
H 	H 	0.55355 0.71726 0.96383 0.04200
H 	H 	0.58388 0.67466 0.84498 0.04200
H 	H 	0.66992 0.71768 0.95407 0.04100
Zn	Zn	0.71441 0.33754 0.22420 1.24900
Zn	Zn	0.66523 0.33260 0.30683 1.24100
Zn	Zn	0.66145 0.37625 0.22357 1.24900
Zn	Zn	0.62220 0.28377 0.22400 1.24700
O 	O 	0.66577 0.33247 0.24493 -1.02000
O 	O 	0.74454 0.33383 0.26856 -0.52700
O 	O 	0.67181 0.38180 0.32932 -0.51200
O 	O 	0.70397 0.41061 0.18740 -0.51700
O 	O 	0.70790 0.32653 0.32954 -0.50200
O 	O 	0.74693 0.38607 0.19451 -0.50300
O 	O 	0.66562 0.41067 0.26744 -0.51400
O 	O 	0.58672 0.29206 0.18991 -0.52400
O 	O 	0.61641 0.28934 0.32938 -0.51300
O 	O 	0.61283 0.36011 0.19461 -0.50900
O 	O 	0.58928 0.25197 0.26832 -0.51500
O 	O 	0.63865 0.25219 0.19295 -0.51900
O 	O 	0.70654 0.29512 0.18844 -0.51200
C 	C 	0.73897 0.32736 0.31022 0.42400
C 	C 	0.67213 0.41225 0.30910 0.42300
C 	C 	0.73927 0.41388 0.18027 0.42000
C 	C 	0.58412 0.32440 0.18209 0.42100
C 	C 	0.58774 0.25698 0.31000 0.42100
C 	C 	0.67455 0.26027 0.17972 0.42300
Zn	Zn	0.28266 0.65852 0.77313 1.24800
Zn	Zn	0.33623 0.61957 0.77191 1.24800
Zn	Zn	0.33114 0.66451 0.68992 1.24100
Zn	Zn	0.37513 0.71182 0.77334 1.24700
O 	O 	0.33128 0.66359 0.75180 -1.01800
O 	O 	0.25100 0.61019 0.80322 -0.50700
O 	O 	0.33583 0.58759 0.72689 -0.51300
O 	O 	0.28710 0.66875 0.66762 -0.51300
O 	O 	0.29260 0.58356 0.80581 -0.52200
O 	O 	0.25082 0.66002 0.72909 -0.51100
O 	O 	0.32674 0.61662 0.66656 -0.51300
O 	O 	0.40889 0.74323 0.72936 -0.52700
O 	O 	0.38361 0.63532 0.80338 -0.50600
O 	O 	0.37947 0.70852 0.66755 -0.49900
O 	O 	0.40986 0.70322 0.80862 -0.52400
O 	O 	0.35874 0.74379 0.80345 -0.51000
O 	O 	0.29068 0.70168 0.80818 -0.52200
C 	C 	0.25804 0.58129 0.81488 0.42200
C 	C 	0.32991 0.58739 0.68520 0.42600
C 	C 	0.25515 0.66571 0.68727 0.42200
C 	C 	0.40969 0.73925 0.68738 0.42100
C 	C 	0.41205 0.67073 0.81693 0.42000
C 	C 	0.32298 0.73655 0.81622 0.42100
Zn	Zn	0.19949 0.36580 0.20829 1.25200
Zn	Zn	0.11064 0.30060 0.22777 1.24200
Zn	Zn	0.18318 0.29916 0.27401 1.24300
Zn	Zn	0.16250 0.36592 0.29419 1.25400
O 	O 	0.16365 0.33228 0.25101 -1.02300
O 	O 	0.17281 0.36215 0.15834 -0.52700
O 	O 	0.09414 0.24542 0.23039 -0.50300
O 	O 	0.22615 0.30231 0.24109 -0.50400
O 	O 	0.10703 0.31479 0.16924 -0.51100
O 	O 	0.23750 0.35166 0.19265 -0.52500
O 	O 	0.14324 0.24428 0.27148 -0.51500
O 	O 	0.18608 0.36258 0.34425 -0.53100
O 	O 	0.07134 0.30480 0.26109 -0.51600
O 	O 	0.20158 0.31316 0.33209 -0.49800
O 	O 	0.11100 0.35248 0.31016 -0.51400
O 	O 	0.18984 0.42023 0.27997 -0.51300
O 	O 	0.22594 0.42068 0.22157 -0.52600
C 	C 	0.13585 0.34156 0.14410 0.42600
C 	C 	0.10846 0.22513 0.25096 0.41400
C 	C 	0.24547 0.32428 0.20727 0.42300
C 	C 	0.20141 0.34069 0.35758 0.42400
C 	C 	0.07518 0.32631 0.29579 0.42400
C 	C 	0.21721 0.44016 0.25050 0.42500
Zn	Zn	0.36869 0.16491 0.79083 1.25200
Zn	Zn	0.30327 0.11471 0.72469 1.24200
Zn	Zn	0.30149 0.18605 0.77353 1.24300
Zn	Zn	0.36814 0.20369 0.70822 1.25400
O 	O 	0.33441 0.16682 0.74935 -1.02900
O 	O 	0.35356 0.11303 0.80769 -0.51200
O 	O 	0.24821 0.09914 0.72569 -0.50100
O 	O 	0.31653 0.20422 0.83178 -0.51100
O 	O 	0.30583 0.07440 0.75804 -0.51400
O 	O 	0.36717 0.18995 0.84063 -0.51600
O 	O 	0.24683 0.14557 0.77138 -0.51700
O 	O 	0.35186 0.23939 0.69158 -0.51200
O 	O 	0.31977 0.11247 0.66665 -0.50800
O 	O 	0.30334 0.22883 0.74076 -0.51800
O 	O 	0.36843 0.17822 0.65828 -0.51300
O 	O 	0.42167 0.23389 0.72554 -0.50900
O 	O 	0.42280 0.19014 0.77401 -0.52300
C 	C 	0.32665 0.07752 0.79313 0.42100
C 	C 	0.22784 0.11219 0.74836 0.41300
C 	C 	0.34524 0.20461 0.85580 0.42000
C 	C 	0.32438 0.24717 0.70604 0.42500
C 	C 	0.34812 0.14155 0.64295 0.41700
C 	C 	0.44209 0.22227 0.74962 0.41900
Zn	Zn	0.20370 0.83806 0.28901 1.25200
Zn	Zn	0.11468 0.81454 0.27383 1.24300
Zn	Zn	0.18501 0.88626 0.22455 1.24500
Zn	Zn	0.16370 0.79819 0.20699 1.25000
O 	O 	0.16620 0.83470 0.24856 -1.03300
O 	O 	0.17836 0.81014 0.33824 -0.51500
O 	O 	0.09980 0.85485 0.27478 -0.51300
O 	O 	0.22726 0.92726 0.25762 -0.49800
O 	O 	0.11271 0.79400 0.33068 -0.51000
O 	O 	0.23902 0.89027 0.30698 -0.52200
O 	O 	0.14433 0.89986 0.22563 -0.50300
O 	O 	0.19106 0.82470 0.15751 -0.51800
O 	O 	0.07412 0.77239 0.24044 -0.50500
O 	O 	0.20405 0.88944 0.16706 -0.50900
O 	O 	0.11134 0.76225 0.18974 -0.52700
O 	O 	0.18709 0.76810 0.22562 -0.52300
O 	O 	0.23434 0.81586 0.26930 -0.50700
C 	C 	0.14157 0.79329 0.35342 0.41800
C 	C 	0.11241 0.88742 0.25063 0.41000
C 	C 	0.24629 0.92533 0.29214 0.42000
C 	C 	0.20613 0.86180 0.14353 0.42300
C 	C 	0.07621 0.75405 0.20539 0.42200
C 	C 	0.22076 0.78213 0.24761 0.41900
Zn	Zn	0.62949 0.83115 0.20680 1.25200
Zn	Zn	0.69562 0.80953 0.22751 1.24400
Zn	Zn	0.69524 0.88290 0.27339 1.24000
Zn	Zn	0.62951 0.79428 0.29247 1.25400
O 	O 	0.66313 0.82990 0.25003 -1.02400
O 	O 	0.63279 0.80719 0.15686 -0.53200
O 	O 	0.75027 0.84903 0.22987 -0.50300
O 	O 	0.69160 0.92244 0.23959 -0.51700
O 	O 	0.68159 0.79096 0.16960 -0.49800
O 	O 	0.64343 0.88289 0.19077 -0.51600
O 	O 	0.75062 0.89868 0.27141 -0.51600
O 	O 	0.63189 0.82096 0.34197 -0.52200
O 	O 	0.69252 0.76663 0.26083 -0.51400
O 	O 	0.68009 0.88657 0.33174 -0.51100
O 	O 	0.64366 0.75673 0.30906 -0.50900
O 	O 	0.57525 0.76683 0.27803 -0.51200
O 	O 	0.57487 0.80373 0.22084 -0.52700
C 	C 	0.65431 0.79131 0.14387 0.42400
C 	C 	0.77017 0.88360 0.25054 0.41300
C 	C 	0.66998 0.91870 0.20496 0.42200
C 	C 	0.65243 0.85786 0.35637 0.42300
C 	C 	0.67072 0.74815 0.29505 0.42200
C 	C 	0.55535 0.77527 0.24948 0.42500
Zn	Zn	0.79381 0.16095 0.70767 1.25200
Zn	Zn	0.81155 0.11122 0.77255 1.24400
Zn	Zn	0.88202 0.18369 0.72529 1.24700
Zn	Zn	0.83186 0.19889 0.79157 1.25100
O 	O 	0.83018 0.16322 0.74929 -1.03100
O 	O 	0.75813 0.10886 0.68988 -0.52500
O 	O 	0.85241 0.09735 0.77166 -0.51600
O 	O 	0.88532 0.20369 0.66849 -0.51100
O 	O 	0.76934 0.07110 0.73894 -0.50400
O 	O 	0.82015 0.18893 0.65845 -0.51600
O 	O 	0.89780 0.14464 0.72513 -0.50300
O 	O 	0.88386 0.23476 0.80983 -0.52800
O 	O 	0.79189 0.10708 0.82982 -0.51200
O 	O 	0.92161 0.22567 0.75899 -0.50400
O 	O 	0.80394 0.17139 0.84039 -0.51900
O 	O 	0.80870 0.22931 0.77339 -0.52200
O 	O 	0.76348 0.18385 0.72629 -0.50600
C 	C 	0.75041 0.07361 0.70462 0.42300
C 	C 	0.88558 0.11173 0.74832 0.41300
C 	C 	0.85746 0.20519 0.64487 0.42400
C 	C 	0.91913 0.24346 0.79424 0.42400
C 	C 	0.78911 0.13412 0.85371 0.42400
C 	C 	0.77629 0.21665 0.74949 0.42200
Zn	Zn	0.86042 0.69962 0.70048 1.24900
Zn	Zn	0.77872 0.63256 0.73526 1.24600
Zn	Zn	0.85820 0.63453 0.76163 1.24500
Zn	Zn	0.83980 0.69962 0.79628 1.24700
O 	O 	0.83425 0.66646 0.74849 -1.01900
O 	O 	0.82757 0.68537 0.65135 -0.50500
O 	O 	0.76211 0.57826 0.74370 -0.52400
O 	O 	0.90451 0.64788 0.72744 -0.51300
O 	O 	0.76759 0.63493 0.67685 -0.52400
O 	O 	0.90384 0.69500 0.68328 -0.51400
O 	O 	0.82177 0.57964 0.75477 -0.51200
O 	O 	0.85895 0.68622 0.84573 -0.50800
O 	O 	0.74476 0.64481 0.76838 -0.50400
O 	O 	0.87214 0.63807 0.82004 -0.52000
O 	O 	0.79074 0.69398 0.81250 -0.53200
O 	O 	0.87262 0.75485 0.78476 -0.52000
O 	O 	0.88262 0.75471 0.71205 -0.50500
C 	C 	0.79010 0.65695 0.64461 0.42200
C 	C 	0.78246 0.55944 0.74983 0.42800
C 	C 	0.92040 0.67391 0.69547 0.42300
C 	C 	0.86997 0.65920 0.85227 0.42400
C 	C 	0.75340 0.67124 0.79957 0.42400
C 	C 	0.88767 0.77437 0.74841 0.42100
C 	C 	0.07993 0.34136 0.03645 -0.09400
C 	C 	0.11299 0.36948 0.00872 0.06000
C 	C 	0.15350 0.38678 0.02622 -0.13800
C 	C 	0.16111 0.37809 0.06960 0.19300
C 	C 	0.12776 0.35010 0.09722 -0.17500
C 	C 	0.08724 0.33195 0.07983 0.05800
H 	H 	0.04797 0.32750 0.02569 0.05200
H 	H 	0.18023 0.40557 0.00550 0.07000
H 	H 	0.06096 0.31080 0.10005 0.02700
O 	O 	0.20240 0.39513 0.08408 -0.19700
C 	C 	0.22485 0.43943 0.08702 -0.02300
H 	H 	0.20865 0.45038 0.10969 0.04400
H 	H 	0.22895 0.45397 0.05374 0.03400
H 	H 	0.25613 0.44952 0.10095 0.04600
C 	C 	0.22432 0.38155 0.47626 -0.09300
C 	C 	0.25293 0.37028 0.49157 0.05600
C 	C 	0.26387 0.34724 0.46276 -0.13200
C 	C 	0.24701 0.33604 0.41895 0.18500
C 	C 	0.21871 0.34845 0.40404 -0.16700
C 	C 	0.20764 0.37092 0.43346 0.05700
H 	H 	0.21438 0.39842 0.49762 0.05200
H 	H 	0.28627 0.33899 0.47452 0.06300
H 	H 	0.18579 0.38059 0.42333 0.03300
O 	O 	0.25802 0.31382 0.38899 -0.19400
C 	C 	0.28652 0.30103 0.40338 -0.02300
H 	H 	0.27381 0.27983 0.43246 0.03600
H 	H 	0.31718 0.32849 0.41141 0.03600
H 	H 	0.29115 0.28381 0.37593 0.04400
C 	C 	0.34229 0.25866 0.96370 -0.09200
C 	C 	0.37128 0.25539 0.99149 0.05800
C 	C 	0.39013 0.23349 0.97410 -0.13400
C 	C 	0.38254 0.21723 0.93033 0.18500
C 	C 	0.35378 0.22148 0.90273 -0.16600
C 	C 	0.33375 0.24202 0.92030 0.05400
H 	H 	0.32704 0.27547 0.97438 0.05200
H 	H 	0.40955 0.22721 0.99552 0.06500
H 	H 	0.31178 0.24587 0.90009 0.02700
O 	O 	0.40227 0.19596 0.91329 -0.19000
C 	C 	0.43609 0.19715 0.93717 -0.02500
H 	H 	0.42517 0.17990 0.96906 0.03300
H 	H 	0.46100 0.22979 0.94297 0.03800
H 	H 	0.44928 0.18156 0.91688 0.04700
C 	C 	0.34693 0.08654 0.53418 -0.09100
C 	C 	0.37680 0.11908 0.50723 0.05600
C 	C 	0.39658 0.15937 0.52592 -0.13300
C 	C 	0.38816 0.16734 0.56976 0.18300
C 	C 	0.35809 0.13402 0.59622 -0.16300
C 	C 	0.33784 0.09392 0.57760 0.05200
H 	H 	0.33121 0.05469 0.52276 0.05100
H 	H 	0.41734 0.18528 0.50542 0.06400
H 	H 	0.31500 0.06785 0.59691 0.02800
O 	O 	0.40845 0.20786 0.58809 -0.18800
C 	C 	0.44152 0.24121 0.56416 -0.02500
H 	H 	0.42980 0.24758 0.53284 0.03300
H 	H 	0.46679 0.23423 0.55730 0.03700
H 	H 	0.45452 0.26968 0.58493 0.04900
C 	C 	0.76342 0.09537 0.97330 -0.09400
C 	C 	0.73763 0.11099 0.98731 0.05700
C 	C 	0.72629 0.13139 0.95543 -0.13500
C 	C 	0.74199 0.13826 0.91127 0.19100
C 	C 	0.76866 0.12319 0.89836 -0.17200
C 	C 	0.77831 0.10100 0.92937 0.06000
H 	H 	0.77326 0.07980 0.99662 0.05300
H 	H 	0.70496 0.14169 0.96523 0.06600
H 	H 	0.79899 0.08958 0.92013 0.02200
O 	O 	0.73194 0.15943 0.87885 -0.20200
C 	C 	0.70688 0.17694 0.89140 -0.02200
H 	H 	0.72214 0.20016 0.91840 0.03700
H 	H 	0.67542 0.15213 0.90169 0.03700
H 	H 	0.70329 0.19312 0.86217 0.04500
C 	C 	0.23058 0.89872 0.02324 -0.09400
C 	C 	0.25602 0.88269 0.00914 0.05800
C 	C 	0.26719 0.86218 0.04108 -0.13400
C 	C 	0.25196 0.85596 0.08544 0.19000
C 	C 	0.22592 0.87175 0.09850 -0.17000
C 	C 	0.21619 0.89375 0.06733 0.05900
H 	H 	0.22071 0.91427 -0.00007 0.05300
H 	H 	0.28814 0.85143 0.03122 0.06600
H 	H 	0.19590 0.90562 0.07662 0.02300
O 	O 	0.26199 0.83486 0.11797 -0.20100
C 	C 	0.28656 0.81682 0.10541 -0.02200
H 	H 	0.31803 0.84129 0.09468 0.03700
H 	H 	0.27086 0.79335 0.07872 0.03800
H 	H 	0.29023 0.80081 0.13476 0.04600
C 	C 	0.08421 0.73061 0.45704 -0.09200
C 	C 	0.11644 0.73377 0.48488 0.05700
C 	C 	0.15739 0.75712 0.46827 -0.13200
C 	C 	0.16635 0.77662 0.42587 0.18500
C 	C 	0.13332 0.77312 0.39877 -0.16500
C 	C 	0.09253 0.74990 0.41509 0.05400
H 	H 	0.05193 0.71206 0.46651 0.05100
H 	H 	0.18284 0.76211 0.48949 0.06500
H 	H 	0.06666 0.74619 0.39505 0.02900
O 	O 	0.20752 0.80040 0.40976 -0.19000
C 	C 	0.24108 0.80225 0.43477 -0.02400
H 	H 	0.23655 0.77059 0.43964 0.03700
H 	H 	0.24441 0.81800 0.46718 0.03600
H 	H 	0.27032 0.82084 0.41584 0.04600
C 	C 	0.89795 0.23376 0.52630 -0.09400
C 	C 	0.88040 0.25773 0.51169 0.05700
C 	C 	0.85717 0.26628 0.54274 -0.13400
C 	C 	0.84990 0.24993 0.58665 0.19000
C 	C 	0.86756 0.22566 0.60025 -0.17100
C 	C 	0.89211 0.21852 0.57002 0.06000
H 	H 	0.91541 0.22564 0.50368 0.05300
H 	H 	0.84508 0.28604 0.53260 0.06400
H 	H 	0.90541 0.19956 0.57972 0.02400
O 	O 	0.82601 0.25722 0.61822 -0.19900
C 	C 	0.80494 0.27864 0.60455 -0.02200
H 	H 	0.78304 0.26175 0.57691 0.03800
H 	H 	0.82763 0.31106 0.59470 0.03500
H 	H 	0.78664 0.27993 0.63307 0.04800
C 	C 	0.72417 0.59654 0.54466 -0.09400
C 	C 	0.74185 0.62488 0.50948 0.05700
C 	C 	0.77511 0.66492 0.51900 -0.13300
C 	C 	0.79118 0.67668 0.56292 0.18700
C 	C 	0.77286 0.64762 0.59809 -0.16800
C 	C 	0.73915 0.60784 0.58824 0.05600
H 	H 	0.69833 0.56561 0.53851 0.05200
H 	H 	0.78862 0.68648 0.49163 0.06600
H 	H 	0.72480 0.58484 0.61433 0.02700
O 	O 	0.82472 0.71654 0.57333 -0.19200
C 	C 	0.84492 0.74565 0.53817 -0.02400
H 	H 	0.82294 0.75353 0.52175 0.03700
H 	H 	0.85839 0.73325 0.51368 0.03800
H 	H 	0.87072 0.77464 0.55246 0.04700
C 	C 	0.86764 0.59836 0.95510 -0.09300
C 	C 	0.88648 0.62905 0.98838 0.05800
C 	C 	0.90135 0.67086 0.97548 -0.13300
C 	C 	0.89684 0.68176 0.93117 0.18900
C 	C 	0.87803 0.65023 0.89869 -0.17000
C 	C 	0.86414 0.60886 0.91113 0.05700
H 	H 	0.85678 0.56599 0.96229 0.05200
H 	H 	0.91459 0.69476 1.00059 0.06500
H 	H 	0.84945 0.58416 0.88678 0.02800
O 	O 	0.91070 0.72309 0.91762 -0.19700
C 	C 	0.92995 0.75569 0.94963 -0.02300
H 	H 	0.95865 0.75740 0.96300 0.03700
H 	H 	0.90788 0.75122 0.97689 0.03800
H 	H 	0.93886 0.78568 0.93305 0.04600
C 	C 	0.60874 0.76215 0.02730 -0.09300
C 	C 	0.62499 0.73803 0.00979 0.05700
C 	C 	0.65291 0.73246 0.03735 -0.13200
C 	C 	0.66384 0.74985 0.08100 0.18500
C 	C 	0.64630 0.77330 0.09762 -0.16800
C 	C 	0.61911 0.77922 0.06992 0.05700
H 	H 	0.58894 0.76961 0.00772 0.05100
H 	H 	0.66467 0.71289 0.02568 0.06500
H 	H 	0.60557 0.79756 0.08113 0.03200
O 	O 	0.69107 0.74416 0.10914 -0.19400
C 	C 	0.71029 0.72177 0.09277 -0.02400
H 	H 	0.72938 0.73730 0.06285 0.03700
H 	H 	0.68651 0.68904 0.08538 0.03700
H 	H 	0.73122 0.72142 0.11890 0.04500
C 	C 	0.65037 0.91354 0.46339 -0.09400
C 	C 	0.62171 0.88046 0.49080 0.06000
C 	C 	0.60456 0.84001 0.47316 -0.13800
C 	C 	0.61398 0.83251 0.42999 0.19100
C 	C 	0.64278 0.86589 0.40288 -0.17200
C 	C 	0.66066 0.90633 0.42037 0.05600
H 	H 	0.66407 0.94549 0.47414 0.05200
H 	H 	0.58551 0.81325 0.49368 0.07000
H 	H 	0.68230 0.93265 0.40051 0.02600
O 	O 	0.59708 0.79129 0.41531 -0.19300
C 	C 	0.55276 0.76825 0.41302 -0.02500
H 	H 	0.54112 0.78419 0.39087 0.04600
H 	H 	0.53854 0.76366 0.44653 0.03300
H 	H 	0.54304 0.73717 0.39881 0.05200
C 	C 	0.29558 0.55208 0.22011 -0.09600
C 	C 	0.28338 0.57519 0.24667 0.05800
C 	C 	0.24875 0.55374 0.27469 -0.13500
C 	C 	0.22638 0.50964 0.27672 0.18800
C 	C 	0.23933 0.48675 0.24977 -0.17200
C 	C 	0.27384 0.50863 0.22152 0.05800
H 	H 	0.32189 0.56768 0.19783 0.05300
H 	H 	0.23997 0.57189 0.29537 0.06600
H 	H 	0.28434 0.49206 0.20043 0.02800
O 	O 	0.19130 0.48736 0.30445 -0.19100
C 	C 	0.17786 0.50979 0.33186 -0.02500
H 	H 	0.16875 0.52870 0.31110 0.03800
H 	H 	0.20254 0.52965 0.35601 0.03800
H 	H 	0.15017 0.48722 0.35103 0.04800
C 	C 	0.25171 0.70135 0.21928 -0.09500
C 	C 	0.28638 0.71267 0.24656 0.05700
C 	C 	0.29973 0.74723 0.27476 -0.13500
C 	C 	0.27896 0.77057 0.27603 0.18700
C 	C 	0.24412 0.75887 0.24789 -0.16700
C 	C 	0.23102 0.72412 0.21985 0.05700
H 	H 	0.24088 0.67509 0.19691 0.05300
H 	H 	0.32602 0.75520 0.29619 0.06600
H 	H 	0.20458 0.71446 0.19798 0.03100
O 	O 	0.29135 0.80497 0.30470 -0.19100
C 	C 	0.32565 0.81657 0.33404 -0.02400
H 	H 	0.35449 0.82557 0.31484 0.03700
H 	H 	0.31892 0.79091 0.35762 0.03600
H 	H 	0.33061 0.84392 0.35376 0.04500
C 	C 	0.44380 0.74414 0.22044 -0.09600
C 	C 	0.42038 0.70932 0.24748 0.05800
C 	C 	0.44145 0.69589 0.27578 -0.13600
C 	C 	0.48553 0.71671 0.27732 0.18700
C 	C 	0.50876 0.75182 0.24953 -0.17200
C 	C 	0.48723 0.76494 0.22134 0.05800
H 	H 	0.42846 0.75503 0.19801 0.05400
H 	H 	0.42302 0.66940 0.29693 0.06600
H 	H 	0.50406 0.79162 0.19979 0.03000
O 	O 	0.50742 0.70368 0.30534 -0.19300
C 	C 	0.48461 0.66876 0.33389 -0.02500
H 	H 	0.46481 0.64034 0.31405 0.03800
H 	H 	0.46561 0.67500 0.35787 0.03400
H 	H 	0.50692 0.66337 0.35322 0.04600
C 	C 	0.55425 0.25451 0.77755 -0.09400
C 	C 	0.57727 0.28962 0.75073 0.05700
C 	C 	0.55570 0.30292 0.72302 -0.13400
C 	C 	0.51156 0.28159 0.72171 0.18600
C 	C 	0.48875 0.24623 0.74933 -0.16700
C 	C 	0.51078 0.23328 0.77697 0.05700
H 	H 	0.56995 0.24369 0.79955 0.05300
H 	H 	0.57379 0.32963 0.70203 0.06500
H 	H 	0.49432 0.20647 0.79843 0.03100
O 	O 	0.48922 0.29407 0.69366 -0.19000
C 	C 	0.51158 0.32879 0.66474 -0.02500
H 	H 	0.53069 0.32264 0.64083 0.03500
H 	H 	0.53120 0.35747 0.68428 0.03600
H 	H 	0.48895 0.33366 0.64536 0.04600
C 	C 	0.74515 0.29715 0.77867 -0.09500
C 	C 	0.71154 0.28695 0.75014 0.05700
C 	C 	0.69921 0.25354 0.72051 -0.13500
C 	C 	0.71994 0.23018 0.71910 0.18600
C 	C 	0.75342 0.24041 0.74884 -0.16700
C 	C 	0.76561 0.27414 0.77819 0.05600
H 	H 	0.75522 0.32262 0.80201 0.05200
H 	H 	0.67370 0.24649 0.69821 0.06600
H 	H 	0.79110 0.28279 0.80117 0.03000
O 	O 	0.70880 0.19713 0.68881 -0.19000
C 	C 	0.67685 0.18796 0.65694 -0.02500
H 	H 	0.68560 0.21521 0.63503 0.03600
H 	H 	0.64676 0.17814 0.67390 0.03800
H 	H 	0.67302 0.16182 0.63577 0.04700
C 	C 	0.70012 0.44718 0.72758 -0.09500
C 	C 	0.71449 0.42450 0.75178 0.05800
C 	C 	0.75180 0.44668 0.77593 -0.13500
C 	C 	0.77476 0.49085 0.77590 0.18900
C 	C 	0.75972 0.51300 0.75106 -0.17300
C 	C 	0.72222 0.49065 0.72745 0.06000
H 	H 	0.67192 0.43131 0.70804 0.05100
H 	H 	0.76225 0.42917 0.79534 0.06500
H 	H 	0.71019 0.50694 0.70814 0.02500
O 	O 	0.81172 0.51405 0.80069 -0.19800
C 	C 	0.82679 0.49247 0.82713 -0.02300
H 	H 	0.83434 0.47268 0.80584 0.03700
H 	H 	0.80375 0.47361 0.85315 0.03500
H 	H 	0.85573 0.51561 0.84409 0.04400
C 	C 	0.48393 0.27685 0.11468 -0.09400
C 	C 	0.47013 0.30552 0.12007 0.05700
C 	C 	0.49490 0.34176 0.14493 -0.13400
C 	C 	0.53296 0.34944 0.16463 0.18600
C 	C 	0.54604 0.31974 0.15931 -0.16900
C 	C 	0.52106 0.28371 0.13417 0.05700
H 	H 	0.46545 0.24848 0.09601 0.05200
H 	H 	0.48423 0.36385 0.14843 0.06600
H 	H 	0.53018 0.26044 0.12970 0.02800
O 	O 	0.55804 0.38513 0.19057 -0.19400
C 	C 	0.54529 0.41522 0.19669 -0.02500
H 	H 	0.51493 0.40121 0.21425 0.03700
H 	H 	0.54368 0.42861 0.16418 0.03900
H 	H 	0.56868 0.44084 0.21765 0.04800
C 	C 	0.49831 0.20659 0.39348 -0.09200
C 	C 	0.47436 0.16522 0.37783 0.05700
C 	C 	0.49088 0.15393 0.34144 -0.13300
C 	C 	0.52851 0.18286 0.31999 0.18800
C 	C 	0.55076 0.22447 0.33530 -0.16800
C 	C 	0.53567 0.23545 0.37271 0.05600
H 	H 	0.48743 0.21798 0.42042 0.04900
H 	H 	0.47514 0.12202 0.33065 0.06600
H 	H 	0.55197 0.26713 0.38487 0.02400
O 	O 	0.54545 0.17179 0.28387 -0.19600
C 	C 	0.52332 0.13046 0.26670 -0.02300
H 	H 	0.49215 0.12315 0.25450 0.03800
H 	H 	0.52071 0.10774 0.29236 0.03600
H 	H 	0.54093 0.12806 0.23813 0.04400
C 	C 	0.66262 0.15528 0.14973 -0.09400
C 	C 	0.69405 0.16519 0.11769 0.05800
C 	C 	0.71802 0.20743 0.10482 -0.13400
C 	C 	0.71158 0.23890 0.12369 0.18900
C 	C 	0.67995 0.22788 0.15579 -0.17100
C 	C 	0.65543 0.18591 0.16788 0.05800
H 	H 	0.64227 0.12348 0.16004 0.05300
H 	H 	0.74326 0.21619 0.08173 0.06500
H 	H 	0.63112 0.17681 0.19256 0.02600
O 	O 	0.73541 0.28128 0.11166 -0.19700
C 	C 	0.76754 0.29345 0.07925 -0.02300
H 	H 	0.75440 0.27784 0.04693 0.03500
H 	H 	0.79175 0.28658 0.09125 0.03800
H 	H 	0.78246 0.32749 0.07398 0.04600
C 	C 	0.28353 0.49295 0.60903 -0.09300
C 	C 	0.30772 0.47442 0.61871 0.05700
C 	C 	0.34207 0.49589 0.64731 -0.13400
C 	C 	0.35118 0.53408 0.66769 0.19100
C 	C 	0.32532 0.55112 0.65896 -0.17000
C 	C 	0.29234 0.53080 0.62869 0.05900
H 	H 	0.25672 0.47744 0.58743 0.05200
H 	H 	0.36159 0.48254 0.65350 0.06600
H 	H 	0.27205 0.54325 0.62184 0.02200
O 	O 	0.38541 0.55643 0.69646 -0.19700
C 	C 	0.41398 0.54178 0.70292 -0.02300
H 	H 	0.42789 0.54037 0.67069 0.03600
H 	H 	0.39839 0.51094 0.71955 0.03600
H 	H 	0.43953 0.56395 0.72478 0.04500
C 	C 	0.82011 0.29586 0.33218 -0.09300
C 	C 	0.82805 0.30265 0.37797 0.05700
C 	C 	0.80552 0.31729 0.40250 -0.13200
C 	C 	0.77576 0.32543 0.38168 0.18700
C 	C 	0.76912 0.31917 0.33525 -0.16900
C 	C 	0.79155 0.30425 0.31127 0.05800
H 	H 	0.83579 0.28362 0.31219 0.05300
H 	H 	0.81206 0.32309 0.43761 0.06400
H 	H 	0.78663 0.29843 0.27584 0.03000
O 	O 	0.75303 0.34051 0.40512 -0.19500
C 	C 	0.75885 0.34654 0.45206 -0.02300
H 	H 	0.79143 0.37051 0.45978 0.03700
H 	H 	0.75029 0.31674 0.46903 0.03600
H 	H 	0.73819 0.35778 0.46480 0.04500
C 	C 	0.67866 0.48764 0.40005 -0.09300
C 	C 	0.69695 0.52591 0.37735 0.05700
C 	C 	0.70892 0.52673 0.33281 -0.13400
C 	C 	0.70175 0.49015 0.31037 0.18800
C 	C 	0.68170 0.45150 0.33316 -0.16800
C 	C 	0.67121 0.45097 0.37828 0.05700
H 	H 	0.66911 0.48584 0.43441 0.05200
H 	H 	0.72433 0.55639 0.31597 0.06500
H 	H 	0.65631 0.42192 0.39647 0.02500
O 	O 	0.71471 0.49061 0.26598 -0.19600
C 	C 	0.73571 0.52913 0.24250 -0.02300
H 	H 	0.76530 0.55097 0.25946 0.03600
H 	H 	0.71534 0.54293 0.23912 0.03700
H 	H 	0.74337 0.52320 0.20858 0.04700
C 	C 	0.79043 0.51324 0.11071 -0.09400
C 	C 	0.83305 0.52770 0.11589 0.05600
C 	C 	0.84504 0.50337 0.14088 -0.13300
C 	C 	0.81516 0.46534 0.16114 0.18500
C 	C 	0.77221 0.45173 0.15638 -0.16500
C 	C 	0.76060 0.47612 0.13084 0.05500
H 	H 	0.78009 0.53133 0.09201 0.05300
H 	H 	0.87792 0.51451 0.14423 0.06600
H 	H 	0.72808 0.46666 0.12675 0.03000
O 	O 	0.82647 0.44087 0.18719 -0.19300
C 	C 	0.86948 0.45410 0.19273 -0.02500
H 	H 	0.88579 0.48466 0.20992 0.03800
H 	H 	0.88414 0.45554 0.16005 0.03800
H 	H 	0.87226 0.43110 0.21381 0.04700
C 	C 	0.20302 0.69931 0.59971 -0.09100
C 	C 	0.16221 0.68397 0.61645 0.05700
C 	C 	0.15215 0.65993 0.65588 -0.13300
C 	C 	0.18173 0.65373 0.67942 0.18700
C 	C 	0.22230 0.66961 0.66190 -0.16800
C 	C 	0.23206 0.69175 0.62163 0.05500
H 	H 	0.21395 0.71887 0.57056 0.05000
H 	H 	0.12067 0.64445 0.66789 0.06500
H 	H 	0.26305 0.70490 0.60786 0.02700
O 	O 	0.17182 0.63122 0.71978 -0.19200
C 	C 	0.13729 0.62690 0.74504 -0.02500
H 	H 	0.10753 0.60458 0.72874 0.03400
H 	H 	0.13944 0.65758 0.74992 0.04000
H 	H 	0.13782 0.61425 0.77832 0.05000
C 	C 	0.20643 0.48460 0.88801 -0.09400
C 	C 	0.16388 0.46797 0.87899 0.05700
C 	C 	0.15226 0.48975 0.84934 -0.13400
C 	C 	0.18236 0.52694 0.82805 0.18700
C 	C 	0.22501 0.54337 0.83805 -0.17000
C 	C 	0.23642 0.52162 0.86789 0.05900
H 	H 	0.21676 0.46851 0.91004 0.05200
H 	H 	0.11955 0.47747 0.84310 0.06600
H 	H 	0.26890 0.53318 0.87544 0.02700
O 	O 	0.17170 0.54754 0.79557 -0.19500
C 	C 	0.13031 0.52689 0.77840 -0.02600
H 	H 	0.10792 0.52434 0.80444 0.03700
H 	H 	0.12200 0.49576 0.76509 0.03700
H 	H 	0.12848 0.54540 0.75050 0.05000
C 	C 	0.52002 0.82776 0.66688 -0.09200
C 	C 	0.52366 0.83195 0.62015 0.05700
C 	C 	0.48783 0.80462 0.59503 -0.13100
C 	C 	0.45004 0.77413 0.61560 0.18400
C 	C 	0.44774 0.77103 0.66258 -0.16600
C 	C 	0.48315 0.79836 0.68736 0.05600
H 	H 	0.54620 0.84581 0.68856 0.05100
H 	H 	0.48866 0.80811 0.55941 0.06400
H 	H 	0.48287 0.79653 0.72335 0.03100
O 	O 	0.41411 0.74686 0.59110 -0.19400
C 	C 	0.41571 0.74856 0.54363 -0.02400
H 	H 	0.43979 0.74176 0.53099 0.03600
H 	H 	0.42155 0.77933 0.53168 0.03500
H 	H 	0.38518 0.72452 0.53034 0.04400
C 	C 	0.27899 0.78871 0.89022 -0.09400
C 	C 	0.30276 0.83116 0.87863 0.05900
C 	C 	0.33507 0.84223 0.84724 -0.13300
C 	C 	0.34328 0.81217 0.82762 0.18700
C 	C 	0.31818 0.76978 0.83917 -0.17000
C 	C 	0.28621 0.75871 0.87042 0.05900
H 	H 	0.25304 0.77781 0.91296 0.05300
H 	H 	0.35486 0.87465 0.83927 0.06600
H 	H 	0.26630 0.72638 0.87939 0.02600
O 	O 	0.37491 0.82250 0.79566 -0.19800
C 	C 	0.40038 0.86492 0.78276 -0.02400
H 	H 	0.41805 0.88421 0.81179 0.03800
H 	H 	0.38122 0.87689 0.76739 0.03600
H 	H 	0.42311 0.86689 0.75755 0.04600
C 	C 	0.51345 0.71892 0.88289 -0.09300
C 	C 	0.52451 0.68793 0.88201 0.05600
C 	C 	0.49729 0.64989 0.86136 -0.13300
C 	C 	0.45945 0.64260 0.84135 0.18400
C 	C 	0.44943 0.67486 0.84123 -0.16700
C 	C 	0.47681 0.71265 0.86253 0.05500
H 	H 	0.53380 0.74860 0.89848 0.05200
H 	H 	0.50597 0.62613 0.86135 0.06500
H 	H 	0.47006 0.73783 0.86318 0.02900
O 	O 	0.43157 0.60455 0.82055 -0.19100
C 	C 	0.43897 0.57048 0.82421 -0.02400
H 	H 	0.43982 0.56259 0.85972 0.03800
H 	H 	0.46828 0.57767 0.80697 0.03400
H 	H 	0.41309 0.54295 0.80781 0.04600
C 	C 	0.02644 0.91413 0.26955 -0.09100
C 	C 	0.04349 0.95513 0.25306 0.05600
C 	C 	0.08439 0.97363 0.23565 -0.13100
C 	C 	0.10764 0.95262 0.23496 0.18300
C 	C 	0.08944 0.91140 0.25141 -0.16200
C 	C 	0.04891 0.89294 0.26880 0.05300
H 	H 	-0.00396 0.89830 0.28483 0.05200
H 	H 	0.09768 1.00390 0.22058 0.06500
H 	H 	0.03426 0.86163 0.28200 0.02900
O 	O 	0.14886 0.97143 0.21873 -0.19200
C 	C 	0.16914 1.01382 0.20473 -0.02400
H 	H 	0.17068 1.03428 0.23252 0.03700
H 	H 	0.15313 1.01753 0.17536 0.03800
H 	H 	0.20142 1.02328 0.19472 0.04700
C 	C 	0.08143 0.11245 0.26993 -0.09100
C 	C 	0.04079 0.08846 0.25262 0.05600
C 	C 	0.02248 0.11075 0.23446 -0.13100
C 	C 	0.04349 0.15505 0.23356 0.18400
C 	C 	0.08433 0.17813 0.25108 -0.16300
C 	C 	0.10251 0.15604 0.26919 0.05400
H 	H 	0.09702 0.09801 0.28603 0.05200
H 	H 	-0.00763 0.09356 0.21905 0.06500
H 	H 	0.13349 0.17261 0.28323 0.03200
O 	O 	0.02517 0.17735 0.21576 -0.19300
C 	C 	-0.01632 0.15507 0.19906 -0.02500
H 	H 	-0.03827 0.13589 0.22575 0.03700
H 	H 	-0.01822 0.13556 0.17014 0.03800
H 	H 	-0.02542 0.17776 0.18748 0.04500
C 	C 	0.88289 0.96499 0.27769 -0.09200
C 	C 	0.90633 0.95205 0.25258 0.05500
C 	C 	0.88462 0.91615 0.22621 -0.13200
C 	C 	0.84036 0.89318 0.22474 0.18300
C 	C 	0.81719 0.90673 0.25047 -0.16300
C 	C 	0.83926 0.94282 0.27661 0.05300
H 	H 	0.89833 0.99216 0.29882 0.05300
H 	H 	0.90268 0.90677 0.20620 0.06500
H 	H 	0.82268 0.95399 0.29674 0.02900
O 	O 	0.81822 0.85725 0.19815 -0.19100
C 	C 	0.84074 0.84272 0.17248 -0.02500
H 	H 	0.85961 0.83454 0.19449 0.03700
H 	H 	0.86061 0.86635 0.14742 0.03800
H 	H 	0.81821 0.81423 0.15437 0.04700
C 	C 	0.11509 0.08555 0.76577 -0.09100
C 	C 	0.09127 0.04470 0.74900 0.05600
C 	C 	0.11367 0.02632 0.73129 -0.13100
C 	C 	0.15794 0.04732 0.73070 0.18400
C 	C 	0.18088 0.08823 0.74798 -0.16300
C 	C 	0.15870 0.10661 0.76538 0.05400
H 	H 	0.10046 0.10128 0.78115 0.05200
H 	H 	0.09658 -0.00392 0.71612 0.06400
H 	H 	0.17522 0.13773 0.77906 0.02900
O 	O 	0.18037 0.02883 0.71370 -0.19400
C 	C 	0.15819 -0.01277 0.69726 -0.02400
H 	H 	0.13894 -0.01482 0.66802 0.03600
H 	H 	0.13875 -0.03455 0.72395 0.03600
H 	H 	0.18095 -0.02198 0.68625 0.04500
C 	C 	0.91887 0.03173 0.77447 -0.09100
C 	C 	0.95600 0.04611 0.75038 0.05500
C 	C 	0.97020 0.08269 0.72515 -0.13100
C 	C 	0.94816 0.10493 0.72390 0.18300
C 	C 	0.91050 0.08970 0.74830 -0.16200
C 	C 	0.89658 0.05304 0.77340 0.05300
H 	H 	0.90709 0.00402 0.79474 0.05200
H 	H 	0.99822 0.09322 0.70585 0.06500
H 	H 	0.86817 0.04065 0.79259 0.03000
O 	O 	0.96231 0.14191 0.69907 -0.19100
C 	C 	1.00093 0.15880 0.67589 -0.02500
H 	H 	0.99939 0.13695 0.64971 0.03800
H 	H 	1.02677 0.16633 0.69951 0.03800
H 	H 	1.00716 0.18805 0.65933 0.04600
C 	C 	0.92034 0.88679 0.77613 -0.09300
C 	C 	0.95578 0.90962 0.74951 0.05700
C 	C 	0.96903 0.88748 0.72247 -0.13300
C 	C 	0.94755 0.84327 0.72183 0.18700
C 	C 	0.91160 0.82092 0.74844 -0.16800
C 	C 	0.89877 0.84316 0.77579 0.05800
H 	H 	0.90952 0.90271 0.79778 0.05300
H 	H 	0.99599 0.90513 0.70166 0.06500
H 	H 	0.87156 0.82664 0.79672 0.02400
O 	O 	0.96126 0.82024 0.69668 -0.19300
C 	C 	1.00071 0.84207 0.67506 -0.02500
H 	H 	1.02567 0.86062 0.69951 0.03600
H 	H 	0.99999 0.86217 0.64811 0.03700
H 	H 	1.00783 0.81919 0.65986 0.05100
C 	C 	0.31426 0.32397 0.11340 -0.09300
C 	C 	0.33336 0.30312 0.13193 0.05700
C 	C 	0.32404 0.28944 0.17638 -0.13300
C 	C 	0.29563 0.29599 0.20219 0.18600
C 	C 	0.27679 0.31731 0.18287 -0.16800
C 	C 	0.28677 0.33121 0.13849 0.05600
H 	H 	0.32102 0.33520 0.07945 0.05400
H 	H 	0.33874 0.27317 0.19025 0.06500
H 	H 	0.27267 0.34733 0.12266 0.03300
O 	O 	0.28554 0.28247 0.24676 -0.19300
C 	C 	0.30348 0.26016 0.26652 -0.02300
H 	H 	0.33786 0.27989 0.26808 0.03600
H 	H 	0.29424 0.23097 0.24788 0.03700
H 	H 	0.29167 0.25163 0.30103 0.04400
C 	C 	-0.03756 0.29221 0.32508 -0.09400
C 	C 	-0.03468 0.30542 0.36944 0.05700
C 	C 	0.00475 0.32658 0.38932 -0.13400
C 	C 	0.04112 0.33430 0.36590 0.18700
C 	C 	0.03766 0.32033 0.32115 -0.16900
C 	C 	-0.00201 0.29931 0.30143 0.05700
H 	H 	-0.06757 0.27556 0.30888 0.05300
H 	H 	0.00668 0.33716 0.42319 0.06600
H 	H 	-0.00560 0.28818 0.26749 0.02800
O 	O 	0.08094 0.35469 0.38584 -0.19300
C 	C 	0.08512 0.36882 0.43074 -0.02400
H 	H 	0.06731 0.34221 0.45364 0.03600
H 	H 	0.07493 0.39219 0.43389 0.03800
H 	H 	0.11837 0.38401 0.44033 0.04400
C 	C 	0.31690 0.99509 0.38474 -0.09300
C 	C 	0.33528 1.03504 0.36628 0.05600
C 	C 	0.32425 1.03934 0.32253 -0.13200
C 	C 	0.29504 1.00425 0.29732 0.18500
C 	C 	0.27724 0.96402 0.31644 -0.16500
C 	C 	0.28870 0.96027 0.36021 0.05500
H 	H 	0.32489 0.99066 0.41817 0.05300
H 	H 	0.33836 1.07031 0.30874 0.06500
H 	H 	0.27549 0.93006 0.37594 0.03200
O 	O 	0.28324 1.00759 0.25347 -0.19200
C 	C 	0.29950 1.04790 0.23423 -0.02400
H 	H 	0.33386 1.06340 0.23117 0.03600
H 	H 	0.29018 1.06710 0.25418 0.03700
H 	H 	0.28638 1.04448 0.20030 0.04500
C 	C 	0.70297 1.03138 0.17563 -0.09400
C 	C 	0.69050 1.02849 0.13095 0.05700
C 	C 	0.67033 0.98904 0.11093 -0.13400
C 	C 	0.66306 0.95282 0.13438 0.18700
C 	C 	0.67611 0.95628 0.17947 -0.16900
C 	C 	0.69609 0.99589 0.19941 0.05600
H 	H 	0.71892 1.06135 0.19199 0.05300
H 	H 	0.66025 0.98696 0.07683 0.06600
H 	H 	0.70655 0.99949 0.23361 0.02600
O 	O 	0.64409 0.91315 0.11412 -0.19500
C 	C 	0.63181 0.90905 0.06853 -0.02400
H 	H 	0.65921 0.92773 0.04688 0.03600
H 	H 	0.60786 0.91828 0.06385 0.03800
H 	H 	0.61795 0.87596 0.05868 0.04400
C 	C 	0.29244 0.32790 0.67879 -0.09400
C 	C 	0.30193 0.33536 0.63323 0.05700
C 	C 	0.31909 0.31379 0.61180 -0.13400
C 	C 	0.32633 0.28469 0.63478 0.18700
C 	C 	0.31679 0.27763 0.68085 -0.17000
C 	C 	0.29957 0.29928 0.70220 0.05800
H 	H 	0.27885 0.34372 0.69624 0.05300
H 	H 	0.32697 0.32020 0.57698 0.06500
H 	H 	0.29179 0.29422 0.73724 0.02500
O 	O 	0.34177 0.26130 0.61323 -0.19100
C 	C 	0.34952 0.26627 0.56646 -0.02500
H 	H 	0.37436 0.29849 0.55871 0.03600
H 	H 	0.32052 0.25811 0.54796 0.03500
H 	H 	0.36033 0.24475 0.55552 0.05100
C 	C 	0.29471 -0.03511 0.82102 -0.09300
C 	C 	0.30428 -0.03308 0.86662 0.05700
C 	C 	0.32159 0.00578 0.88782 -0.13400
C 	C 	0.32863 0.04207 0.86472 0.18600
C 	C 	0.31932 0.03957 0.81856 -0.16800
C 	C 	0.30207 0.00062 0.79742 0.05700
H 	H 	0.28084 -0.06457 0.80364 0.05300
H 	H 	0.32973 0.00746 0.92256 0.06600
H 	H 	0.29423 -0.00224 0.76238 0.02700
O 	O 	0.34355 0.08080 0.88630 -0.19100
C 	C 	0.34817 0.08283 0.93356 -0.02600
H 	H 	0.37287 0.07595 0.94366 0.03800
H 	H 	0.31816 0.06126 0.94997 0.03700
H 	H 	0.35759 0.11478 0.94470 0.05200
C 	C 	0.00596 0.68524 0.11231 -0.09500
C 	C 	-0.03376 0.66558 0.13150 0.05700
C 	C 	-0.03759 0.67449 0.17624 -0.13300
C 	C 	-0.00234 0.70323 0.20158 0.18600
C 	C 	0.03752 0.72289 0.18138 -0.16900
C 	C 	0.04088 0.71315 0.13680 0.05700
H 	H 	0.01015 0.67872 0.07816 0.05400
H 	H 	-0.06836 0.65931 0.19067 0.06500
H 	H 	0.07083 0.72765 0.12036 0.02900
O 	O 	-0.00514 0.71280 0.24651 -0.19600
C 	C 	-0.04494 0.69334 0.26749 -0.02400
H 	H 	-0.05849 0.65907 0.26829 0.03600
H 	H 	-0.06608 0.70188 0.25026 0.03600
H 	H 	-0.04112 0.70453 0.30234 0.04400
C 	C 	1.00999 0.65863 0.65622 -0.09200
C 	C 	1.02969 0.68972 0.62363 0.05700
C 	C 	1.01363 0.71626 0.61556 -0.13500
C 	C 	0.97785 0.71136 0.63784 0.18600
C 	C 	0.95853 0.68007 0.67104 -0.16700
C 	C 	0.97527 0.65414 0.67977 0.05500
H 	H 	1.02105 0.63723 0.66322 0.05100
H 	H 	1.02972 0.74142 0.59223 0.06600
H 	H 	0.96104 0.62974 0.70447 0.02900
O 	O 	0.96104 0.73730 0.62854 -0.18800
C 	C 	0.97122 0.75934 0.58727 -0.02500
H 	H 	0.96452 0.73772 0.55887 0.03900
H 	H 	1.00422 0.78455 0.58694 0.03300
H 	H 	0.95174 0.77405 0.58353 0.04900
C 	C 	0.98898 0.31309 0.88701 -0.09500
C 	C 	1.02880 0.33152 0.86824 0.05800
C 	C 	1.03288 0.32132 0.82411 -0.13400
C 	C 	0.99771 0.29272 0.79879 0.18800
C 	C 	0.95765 0.27449 0.81839 -0.17000
C 	C 	0.95405 0.28529 0.86247 0.05800
H 	H 	0.98476 0.32057 0.92076 0.05300
H 	H 	1.06378 0.33546 0.81013 0.06600
H 	H 	0.92393 0.27176 0.87845 0.02900
O 	O 	1.00082 0.28184 0.75446 -0.19200
C 	C 	1.04095 0.29903 0.73452 -0.02400
H 	H 	1.06068 0.28966 0.75337 0.03800
H 	H 	1.05601 0.33342 0.73242 0.03700
H 	H 	1.03730 0.28672 0.70017 0.04600
C 	C 	0.70717 0.67111 0.32340 -0.09300
C 	C 	0.69385 0.66016 0.36760 0.05600
C 	C 	0.67169 0.67729 0.38764 -0.13300
C 	C 	0.66304 0.70544 0.36453 0.18500
C 	C 	0.67738 0.71687 0.32004 -0.16600
C 	C 	0.69937 0.69929 0.30013 0.05600
H 	H 	0.72445 0.65848 0.30709 0.05100
H 	H 	0.66110 0.66812 0.42143 0.06600
H 	H 	0.71069 0.70744 0.26632 0.02900
O 	O 	0.64130 0.72344 0.38457 -0.18700
C 	C 	0.62590 0.71160 0.42886 -0.02800
H 	H 	0.65195 0.72054 0.45260 0.04000
H 	H 	0.60338 0.67771 0.43058 0.03900
H 	H 	0.60934 0.72825 0.43863 0.05700
C 	C 	0.68041 0.00440 0.61168 -0.09400
C 	C 	0.66033 -0.03530 0.63085 0.05800
C 	C 	0.66973 -0.03951 0.67531 -0.13300
C 	C 	0.69909 -0.00460 0.70052 0.18700
C 	C 	0.71899 0.03527 0.68048 -0.16900
C 	C 	0.70900 0.03903 0.63609 0.05800
H 	H 	0.67364 0.00879 0.57770 0.05300
H 	H 	0.65433 -0.07031 0.68965 0.06500
H 	H 	0.72376 0.06907 0.61981 0.03000
O 	O 	0.70900 -0.00775 0.74524 -0.19400
C 	C 	0.68918 -0.04761 0.76610 -0.02400
H 	H 	0.69705 -0.06907 0.74846 0.03800
H 	H 	0.65499 -0.06064 0.76736 0.03700
H 	H 	0.70070 -0.04407 0.80079 0.04600
C 	C 	0.70322 0.71744 0.87271 -0.09500
C 	C 	0.66064 0.68831 0.87035 0.05700
C 	C 	0.64784 0.65332 0.84272 -0.13300
C 	C 	0.67715 0.64684 0.81844 0.18600
C 	C 	0.72012 0.67632 0.82225 -0.17000
C 	C 	0.73229 0.71151 0.84932 0.05800
H 	H 	0.71427 0.74531 0.89259 0.05300
H 	H 	0.61502 0.63089 0.84121 0.06400
H 	H 	0.76478 0.73493 0.85255 0.02900
O 	O 	0.66539 0.61168 0.79120 -0.19400
C 	C 	0.62229 0.58178 0.78670 -0.02400
H 	H 	0.60518 0.59633 0.77198 0.03600
H 	H 	0.60882 0.56736 0.81940 0.03700
H 	H 	0.61899 0.55683 0.76389 0.04500
