data_crystal

_cell_length_a 18.11580
_cell_length_b 22.15200
_cell_length_c 30.71800
_cell_angle_alpha 82.20820
_cell_angle_beta  72.85010
_cell_angle_gamma 65.86440

_symmetry_space_group_name_	'P 1'
_symmetry_space_group_name_H-M	'P 1'

loop_
_symmetry_equiv_pos_as_xyz
  x,y,z

loop_
_atom_site_label
_atom_site_type_symbol
_atom_site_fract_x
_atom_site_fract_y
_atom_site_fract_z
_atom_site_charge
Zn	Zn	0.00991 0.28508 0.31130 1.15100
Zn	Zn	0.48624 0.73382 0.69432 1.19800
Zn	Zn	0.60629 0.21492 0.18870 1.15200
Zn	Zn	0.12807 0.91269 0.70546 1.20900
Zn	Zn	0.39371 0.78508 0.81130 1.15200
Zn	Zn	0.87193 0.08731 0.29454 1.20900
Zn	Zn	0.91438 0.76618 0.80568 1.19800
Zn	Zn	0.74622 0.58731 0.79454 1.20900
Zn	Zn	0.08562 0.23382 0.19432 1.19800
Zn	Zn	0.51376 0.26618 0.30568 1.19800
Zn	Zn	0.25378 0.41269 0.20546 1.20900
Zn	Zn	0.99009 0.71492 0.68870 1.15100
H 	H 	0.18760 0.68780 0.45660 0.01500
H 	H 	0.00090 0.86240 0.12520 0.03700
H 	H 	0.26550 0.25300 0.42240 0.28200
H 	H 	0.32830 0.29570 0.51610 0.03400
H 	H 	0.91650 0.52580 0.09500 0.02500
H 	H 	0.66800 0.18780 0.95660 0.01500
H 	H 	0.82440 0.31680 0.88500 0.03600
H 	H 	0.53100 0.35500 0.43720 0.29400
H 	H 	0.08350 0.47420 0.90500 0.02500
H 	H 	0.08700 0.80440 0.32400 0.10200
H 	H 	0.86550 0.90120 0.10800 0.03800
H 	H 	0.05910 0.75300 0.92240 0.28200
H 	H 	0.43200 0.45630 0.51770 0.08600
H 	H 	0.17560 0.68320 0.11500 0.03600
H 	H 	0.23130 0.91990 0.47110 0.04100
H 	H 	0.71310 0.43440 0.11380 0.01200
H 	H 	0.51450 0.72890 0.86770 0.11600
H 	H 	0.28690 0.56560 0.88620 0.01200
H 	H 	0.19010 0.19200 0.51300 0.07700
H 	H 	0.03620 0.13300 0.18320 0.14400
H 	H 	0.77690 0.23070 0.72710 0.08500
H 	H 	0.87430 0.63560 0.67780 0.10100
H 	H 	0.89520 0.08340 0.70940 0.29300
H 	H 	0.37960 0.45750 0.89810 0.05800
H 	H 	0.27640 0.60580 0.49180 0.10400
H 	H 	0.40600 0.04370 0.98230 0.08600
H 	H 	0.24110 0.12590 0.44550 0.08700
H 	H 	0.72360 0.39420 0.50820 0.10400
H 	H 	0.81660 0.96210 0.84770 0.02000
H 	H 	0.85100 0.51150 0.04570 0.06400
H 	H 	0.74900 0.36860 0.41640 0.28700
H 	H 	0.46600 0.86860 0.91640 0.28700
H 	H 	0.77830 0.82370 0.44290 0.07800
H 	H 	0.62230 0.58010 0.02890 0.04000
H 	H 	0.37770 0.41990 0.97110 0.04000
H 	H 	0.53730 0.97420 0.40500 0.02500
H 	H 	0.73420 0.87380 0.00920 0.09500
H 	H 	0.11110 0.77110 0.63230 0.11600
H 	H 	0.09940 0.51410 0.62550 0.03800
H 	H 	0.21540 0.69560 0.17600 0.09800
H 	H 	0.35240 0.36700 0.31680 0.14500
H 	H 	0.39430 0.53350 0.51290 0.09000
H 	H 	0.15280 0.91960 0.79300 0.13000
H 	H 	0.89860 0.43910 0.68510 0.03200
H 	H 	0.18630 0.33100 0.13520 0.13300
H 	H 	0.95510 0.32370 0.94290 0.07800
H 	H 	0.23900 0.98590 0.87450 0.03700
H 	H 	0.68800 0.41660 0.79060 0.29300
H 	H 	0.05390 0.84130 0.81110 0.13900
H 	H 	0.78460 0.30440 0.82400 0.09800
H 	H 	0.26580 0.12620 0.99080 0.09500
H 	H 	0.47040 0.85700 0.57880 0.02900
H 	H 	0.85990 0.79570 0.01610 0.03300
H 	H 	0.13460 0.41960 0.29300 0.12900
H 	H 	0.59180 0.01150 0.54570 0.06500
H 	H 	0.40040 0.31950 0.13650 0.12100
H 	H 	0.52960 0.14300 0.42120 0.02900
H 	H 	0.85810 0.56760 0.97660 0.04100
H 	H 	0.44070 0.96650 0.98710 0.09000
H 	H 	0.53400 0.13140 0.08360 0.28700
H 	H 	0.13450 0.09880 0.89200 0.03800
H 	H 	0.64760 0.63300 0.68320 0.14500
H 	H 	0.25100 0.63140 0.58360 0.28700
H 	H 	0.16670 0.66780 0.39200 0.07200
H 	H 	0.26530 0.73070 0.22710 0.08500
H 	H 	0.98820 0.09470 0.20870 0.13900
H 	H 	0.10140 0.56090 0.31490 0.03200
H 	H 	0.97380 0.81680 0.38500 0.02900
H 	H 	0.04490 0.67630 0.05710 0.07800
H 	H 	0.73520 0.04250 0.60190 0.05700
H 	H 	0.46900 0.64500 0.56280 0.29400
H 	H 	0.87470 0.59880 0.39200 0.03900
H 	H 	0.56800 0.54370 0.48230 0.08600
H 	H 	0.22310 0.76930 0.27290 0.08500
H 	H 	0.65250 0.16900 0.36480 0.13300
H 	H 	0.07480 0.26400 0.59220 0.06600
H 	H 	0.94090 0.24700 0.07760 0.28200
H 	H 	0.84720 0.08040 0.20700 0.13000
H 	H 	0.14010 0.20430 0.98390 0.03300
H 	H 	0.74250 0.42530 0.65010 0.03400
H 	H 	0.26130 0.06560 0.38620 0.01400
H 	H 	0.68810 0.57120 0.94600 0.03600
H 	H 	0.18770 0.86440 0.82220 0.10100
H 	H 	0.77350 0.16780 0.89200 0.07200
H 	H 	0.40820 0.98850 0.45430 0.06500
H 	H 	0.62040 0.54250 0.10190 0.05800
H 	H 	0.73470 0.26930 0.77290 0.08500
H 	H 	0.90620 0.64300 0.92120 0.02900
H 	H 	0.02280 0.06090 0.81490 0.03100
H 	H 	0.90480 0.41900 0.86300 0.29800
H 	H 	0.79630 0.69280 0.43280 0.05800
H 	H 	0.55930 0.03350 0.01290 0.09000
H 	H 	0.26480 0.95750 0.39810 0.05700
H 	H 	0.76870 0.08010 0.52890 0.04100
H 	H 	0.67170 0.70430 0.48390 0.03400
H 	H 	0.02620 0.18320 0.61500 0.02900
H 	H 	0.59770 0.06760 0.47660 0.04100
H 	H 	0.18750 0.62590 0.94550 0.08900
H 	H 	0.22650 0.83220 0.10800 0.07200
H 	H 	0.14360 0.81950 0.63650 0.12100
H 	H 	0.81230 0.13560 0.17780 0.10100
H 	H 	0.40230 0.93240 0.52340 0.04100
H 	H 	0.75890 0.87410 0.55450 0.08700
H 	H 	0.81790 0.07470 0.84990 0.03500
H 	H 	0.97720 0.93910 0.18510 0.03100
H 	H 	0.67680 0.85500 0.93720 0.29400
H 	H 	0.20530 0.92880 0.55400 0.03500
H 	H 	0.94610 0.15870 0.18890 0.13900
H 	H 	0.93100 0.23600 0.90780 0.05900
H 	H 	0.81250 0.37410 0.05450 0.08900
H 	H 	0.92190 0.80720 0.06720 0.05800
H 	H 	0.37400 0.89420 0.00820 0.10400
H 	H 	0.18340 0.03790 0.15230 0.02000
H 	H 	0.26290 0.31980 0.14700 0.10900
H 	H 	0.59960 0.68050 0.86350 0.12100
H 	H 	0.22170 0.17630 0.55710 0.07800
H 	H 	0.33980 0.08780 0.57480 0.09400
H 	H 	0.73870 0.93440 0.61380 0.01400
H 	H 	0.33200 0.81220 0.04340 0.01500
H 	H 	0.10490 0.69200 0.01300 0.07700
H 	H 	0.61720 0.62620 0.49080 0.09400
H 	H 	0.14900 0.48850 0.95430 0.06400
H 	H 	0.27030 0.81980 0.64700 0.10900
H 	H 	0.59400 0.95630 0.01770 0.08600
H 	H 	0.25750 0.57470 0.34990 0.03400
H 	H 	0.46270 0.02580 0.59500 0.02500
H 	H 	0.85640 0.18050 0.36350 0.12100
H 	H 	0.70840 0.59470 0.70870 0.13900
H 	H 	0.89510 0.30800 0.98700 0.07700
H 	H 	0.60570 0.46650 0.48710 0.09000
H 	H 	0.09380 0.35700 0.07880 0.02900
H 	H 	0.81370 0.66900 0.86480 0.13300
H 	H 	0.29370 0.34130 0.31110 0.13900
H 	H 	0.81320 0.91900 0.36300 0.29800
H 	H 	0.62640 0.53790 0.65230 0.02000
H 	H 	0.81240 0.31220 0.54340 0.01500
H 	H 	0.32320 0.14500 0.06280 0.29400
H 	H 	0.20370 0.30720 0.56720 0.05800
H 	H 	0.88890 0.22890 0.36770 0.11600
H 	H 	0.18210 0.92530 0.15010 0.03500
H 	H 	0.86540 0.58040 0.70700 0.12900
H 	H 	0.12570 0.36440 0.32220 0.10100
H 	H 	0.76100 0.01410 0.12550 0.03700
H 	H 	0.29160 0.40530 0.29130 0.13900
H 	H 	0.00240 0.41220 0.92520 0.09400
H 	H 	0.12530 0.40120 0.60800 0.03900
H 	H 	0.01150 0.36240 0.62520 0.03100
H 	H 	0.99910 0.13760 0.87480 0.03700
H 	H 	0.48550 0.27110 0.13230 0.11600
H 	H 	0.07810 0.19280 0.93280 0.05800
H 	H 	0.92520 0.73600 0.40780 0.06600
H 	H 	0.98850 0.63760 0.37480 0.03100
H 	H 	0.73710 0.68020 0.85300 0.10900
H 	H 	0.31190 0.42880 0.05400 0.03600
H 	H 	0.14190 0.43240 0.02340 0.04100
H 	H 	0.91300 0.19560 0.67600 0.10200
H 	H 	0.83330 0.33220 0.60800 0.07200
H 	H 	0.80990 0.80800 0.48700 0.07700
H 	H 	0.99760 0.58780 0.07480 0.09400
H 	H 	0.96380 0.86700 0.81680 0.14400
H 	H 	0.31200 0.58340 0.20940 0.29300
H 	H 	0.18680 0.08100 0.63700 0.29800
H 	H 	0.01180 0.90530 0.79130 0.13900
H 	H 	0.06900 0.76400 0.09220 0.05900
H 	H 	0.62600 0.10580 0.99180 0.10400
H 	H 	0.79470 0.07120 0.44600 0.03500
H 	H 	0.37360 0.46210 0.34770 0.02000
H 	H 	0.72970 0.18020 0.35300 0.10900
H 	H 	0.34750 0.83100 0.63520 0.13300
H 	H 	0.38280 0.37380 0.50920 0.09400
H 	H 	0.09520 0.58100 0.13700 0.29800
H 	H 	0.73450 0.74700 0.57760 0.28200
H 	H 	0.70630 0.65870 0.68890 0.13900
H 	H 	0.90060 0.48590 0.37450 0.03800
H 	H 	0.66020 0.91220 0.42520 0.09400
H 	H 	0.10480 0.91660 0.29060 0.29300
C 	C 	0.77788 0.90564 0.46720 -0.08200
C 	C 	0.20990 0.63610 0.40310 -0.10100
C 	C 	0.72140 0.94320 0.05260 0.06700
C 	C 	0.82284 0.68278 0.80334 0.17800
C 	C 	0.25350 0.04770 0.41550 0.01400
C 	C 	0.31790 0.15861 0.49879 -0.08400
C 	C 	0.87480 0.37920 0.37080 0.35900
C 	C 	0.82210 0.44000 0.39880 -0.18400
C 	C 	0.52259 0.85195 0.55907 0.04100
C 	C 	0.32923 0.53854 0.44020 0.09200
C 	C 	0.73830 0.42010 0.62150 0.00400
C 	C 	0.15013 0.56804 0.07750 0.23600
C 	C 	0.23213 0.05994 0.49620 0.06800
C 	C 	0.21270 0.75000 0.25000 -0.08800
C 	C 	0.68811 0.93388 0.93630 0.24500
C 	C 	0.25070 0.96920 0.10160 -0.05700
C 	C 	0.47273 0.11304 0.48310 -0.03900
C 	C 	0.29800 0.33370 0.53350 0.01900
C 	C 	0.25830 0.55190 0.57090 0.23800
C 	C 	0.74170 0.44810 0.42910 0.23800
C 	C 	0.78689 0.51972 0.86730 0.34800
C 	C 	0.27253 0.47013 0.04901 0.02800
C 	C 	0.33650 0.90080 0.03700 -0.14000
C 	C 	0.22359 0.63282 0.25260 0.24600
C 	C 	0.87250 0.84100 0.06340 -0.07100
C 	C 	0.76520 0.94770 0.08250 -0.03300
C 	C 	0.02103 0.69463 0.95891 0.24100
C 	C 	0.69203 0.03854 0.94020 0.09300
C 	C 	0.74439 0.14215 0.23687 0.17400
C 	C 	0.46530 0.04670 0.56650 0.02300
C 	C 	0.30896 0.81722 0.69666 0.17800
C 	C 	0.54572 0.07226 0.49630 -0.01500
C 	C 	0.61890 0.05190 0.07090 0.24000
C 	C 	0.61287 0.51176 0.53950 -0.09100
C 	C 	0.78060 0.35310 0.55710 0.05100
C 	C 	0.74650 0.01660 0.57740 -0.07500
C 	C 	0.95708 0.08249 0.76815 -0.19400
C 	C 	0.69104 0.18278 0.30334 0.17800
C 	C 	0.38110 0.94810 0.92910 0.24000
C 	C 	0.80772 0.41751 0.73185 -0.20000
C 	C 	0.25350 0.98340 0.42260 -0.07500
C 	C 	0.22480 0.13800 0.13220 0.38800
C 	C 	0.11428 0.42774 0.00370 -0.01500
C 	C 	0.72570 0.40080 0.53700 -0.14000
C 	C 	0.30797 0.96146 0.05980 0.09300
C 	C 	0.76746 0.83978 0.47290 -0.08100
C 	C 	0.78827 0.44006 0.00380 0.07200
C 	C 	0.61967 0.66525 0.74101 0.18300
C 	C 	0.23079 0.52005 0.24457 0.36300
C 	C 	0.72747 0.52987 0.95099 0.02800
C 	C 	0.16110 0.10330 0.91230 -0.01900
C 	C 	0.43808 0.42274 0.39270 -0.21100
C 	C 	0.33910 0.94000 0.89880 -0.18500
C 	C 	0.91960 0.34390 0.67310 -0.04300
C 	C 	0.04292 0.91751 0.23185 -0.19400
C 	C 	0.88676 0.29258 0.69130 0.07100
C 	C 	0.77642 0.96936 0.87560 0.06100
C 	C 	0.67850 0.46920 0.60160 -0.05800
C 	C 	0.37520 0.87920 0.87080 0.36000
C 	C 	0.23950 0.11880 0.97140 -0.11000
C 	C 	0.04370 0.82990 0.13630 -0.01800
C 	C 	0.45730 0.96120 0.46240 -0.07600
C 	C 	0.47741 0.14805 0.44093 0.04100
C 	C 	0.78730 0.25000 0.75000 -0.08800
C 	C 	0.14780 0.72290 0.13050 0.02100
C 	C 	0.76050 0.88120 0.02860 -0.11000
C 	C 	0.32543 0.19463 0.45891 0.24000
C 	C 	0.38517 0.49386 0.51060 -0.08300
C 	C 	0.88572 0.57226 0.99630 -0.01500
C 	C 	0.87818 0.40599 0.69525 0.04100
C 	C 	0.22634 0.99562 0.50370 -0.03400
C 	C 	0.16520 0.16630 0.96650 0.02100
C 	C 	0.97530 0.34139 0.00121 -0.08300
C 	C 	0.61037 0.99386 0.01060 -0.08200
C 	C 	0.32150 0.53080 0.39840 -0.05800
C 	C 	0.23254 0.16022 0.52710 -0.08100
C 	C 	0.59080 0.77150 0.61390 0.39200
C 	C 	0.77990 0.07990 0.87850 0.00300
C 	C 	0.76921 0.47995 0.75543 0.36300
C 	C 	0.75780 0.91670 0.54870 -0.12400
C 	C 	0.27860 0.05680 0.94740 0.06700
C 	C 	0.22212 0.09436 0.53280 -0.08200
C 	C 	0.23650 0.96040 0.46600 -0.02300
C 	C 	0.08450 0.77160 0.11660 -0.07200
C 	C 	0.17188 0.73024 0.16680 -0.11300
C 	C 	0.39322 0.11876 0.51220 0.07000
C 	C 	0.44171 0.43388 0.43630 0.24500
C 	C 	0.67030 0.61880 0.47140 -0.10800
C 	C 	0.15032 0.80406 0.22790 -0.07400
C 	C 	0.02730 0.27160 0.61660 -0.09200
C 	C 	0.02058 0.90599 0.19525 0.03800
C 	C 	0.66290 0.53960 0.03400 -0.02000
C 	C 	0.83480 0.83370 0.03350 0.02100
C 	C 	0.11910 0.46120 0.96240 -0.07500
C 	C 	0.20460 0.44770 0.58250 -0.03000
C 	C 	0.19541 0.00666 0.58532 -0.18500
C 	C 	0.25561 0.85785 0.76313 0.17400
C 	C 	0.79567 0.93196 0.42250 0.23700
C 	C 	0.21173 0.55994 0.99620 0.07200
C 	C 	0.33587 0.01176 0.03950 -0.09300
C 	C 	0.17391 0.98028 0.63270 0.35200
C 	C 	0.76350 0.03960 0.53400 -0.02300
C 	C 	0.81772 0.30406 0.72790 -0.07700
C 	C 	0.77690 0.65900 0.43660 -0.06900
C 	C 	0.24220 0.08330 0.45130 -0.12400
C 	C 	0.00459 0.02005 0.74457 0.35500
C 	C 	0.21311 0.48028 0.13270 0.34800
C 	C 	0.85220 0.27710 0.86950 0.02100
C 	C 	0.43467 0.30986 0.18940 0.17200
C 	C 	0.60908 0.91524 0.44520 -0.11700
C 	C 	0.06639 0.35195 0.05907 0.04100
C 	C 	0.91550 0.22840 0.88340 -0.07200
C 	C 	0.30920 0.85310 0.05710 0.05100
C 	C 	0.19228 0.58249 0.26815 -0.20000
C 	C 	0.35024 0.00342 0.95410 -0.08000
C 	C 	0.72566 0.50438 0.99630 -0.03700
C 	C 	0.22310 0.34100 0.56340 -0.06900
C 	C 	0.75090 0.13610 0.90310 -0.10100
C 	C 	0.93108 0.23024 0.66680 -0.12500
C 	C 	0.99880 0.22290 0.63050 0.04000
C 	C 	0.27430 0.59920 0.46300 -0.14000
C 	C 	0.27434 0.49562 0.00370 -0.03700
C 	C 	0.67457 0.80537 0.54109 0.24000
C 	C 	0.93113 0.61304 0.98310 -0.03900
C 	C 	0.28330 0.54770 0.91550 0.02000
C 	C 	0.77680 0.41670 0.04870 -0.12800
C 	C 	0.93393 0.19014 0.31060 0.17200
C 	C 	0.65950 0.51660 0.07740 -0.08000
C 	C 	0.97270 0.72840 0.38340 -0.09200
C 	C 	0.82330 0.60330 0.41230 -0.02200
C 	C 	0.64976 0.99658 0.04590 -0.08000
C 	C 	0.87064 0.20742 0.80870 0.06400
C 	C 	0.18228 0.69594 0.27210 -0.07700
C 	C 	0.38033 0.33475 0.25899 0.18300
C 	C 	0.33710 0.46040 0.96600 -0.02000
C 	C 	0.74650 0.95230 0.58450 0.01400
C 	C 	0.02380 0.27150 0.11390 0.39000
C 	C 	0.21940 0.64690 0.44290 0.05100
C 	C 	0.15072 0.59436 0.03280 -0.08200
C 	C 	0.80459 0.99334 0.41468 -0.18500
C 	C 	0.21261 0.50666 0.08532 -0.18100
C 	C 	0.49500 0.36200 0.36780 0.38900
C 	C 	0.22010 0.92010 0.12150 0.00300
C 	C 	0.17716 0.31722 0.19666 0.17800
C 	C 	0.93361 0.64805 0.94093 0.04100
C 	C 	0.11324 0.70742 0.30870 0.07100
C 	C 	0.82812 0.26976 0.83320 -0.11300
C 	C 	0.00990 0.67010 0.36370 -0.00200
C 	C 	0.45428 0.92774 0.50370 -0.01500
C 	C 	0.25352 0.07726 0.10730 -0.21100
C 	C 	0.12520 0.62080 0.62920 0.35900
C 	C 	0.38713 0.48824 0.46050 -0.09100
C 	C 	0.32970 0.38120 0.52860 -0.10800
C 	C 	0.56533 0.69014 0.81060 0.17200
C 	C 	0.70200 0.66630 0.46650 0.01900
C 	C 	0.12182 0.59401 0.30475 0.04100
C 	C 	0.22320 0.58330 0.95130 -0.12800
C 	C 	0.60678 0.88124 0.48780 0.07000
C 	C 	0.10901 0.86718 0.24740 0.24300
C 	C 	0.97897 0.30537 0.04109 0.24100
C 	C 	0.84968 0.19594 0.77210 -0.07400
C 	C 	0.56192 0.57726 0.60730 -0.21100
C 	C 	0.97725 0.69029 0.92861 -0.20300
C 	C 	0.06340 0.84390 0.17310 -0.03500
C 	C 	0.79167 0.02987 0.45099 0.03000
C 	C 	0.02593 0.83475 0.75899 0.18400
C 	C 	0.02275 0.30971 0.07139 -0.20300
C 	C 	0.74648 0.92274 0.89270 -0.21100
C 	C 	0.92150 0.54670 0.06650 0.02200
C 	C 	0.69080 0.14690 0.94290 0.05100
C 	C 	0.02418 0.38124 0.98780 0.07000
C 	C 	0.77366 0.00438 0.49630 -0.03400
C 	C 	0.87659 0.64215 0.73687 0.17400
C 	C 	0.71720 0.55680 0.44740 0.06500
C 	C 	0.24910 0.86390 0.09690 -0.10100
C 	C 	0.06892 0.76976 0.33320 -0.12500
C 	C 	0.22358 0.03064 0.12440 0.06100
C 	C 	0.91986 0.33978 0.97290 -0.08200
C 	C 	0.55829 0.56612 0.56370 0.24500
C 	C 	0.96952 0.58476 0.05480 -0.11700
C 	C 	0.62480 0.12080 0.12920 0.36000
C 	C 	0.28280 0.44320 0.55260 0.06500
C 	C 	0.31189 0.06612 0.06370 0.24500
C 	C 	0.15180 0.50920 0.60640 0.02900
C 	C 	0.37862 0.46936 0.37560 0.06300
C 	C 	0.07850 0.45330 0.93350 0.02200
C 	C 	0.67077 0.46146 0.55980 0.09200
C 	C 	0.53470 0.95330 0.43350 0.02300
C 	C 	0.77520 0.86200 0.86780 0.38800
C 	C 	0.34050 0.48340 0.92260 -0.08000
C 	C 	0.66350 0.09920 0.96300 -0.14000
C 	C 	0.84820 0.49080 0.39360 0.02900
C 	C 	0.73260 0.00920 0.10640 0.03200
C 	C 	0.26740 0.99080 0.89360 0.03200
C 	C 	0.99010 0.32990 0.63630 -0.00200
C 	C 	0.17790 0.56000 0.60120 -0.18400
C 	C 	0.40920 0.22850 0.38610 0.39200
C 	C 	0.66090 0.06000 0.10120 -0.18500
C 	C 	0.40385 0.19029 0.42861 -0.20200
C 	C 	0.78739 0.49334 0.91468 -0.18100
C 	C 	0.00120 0.77710 0.36950 0.04000
C 	C 	0.99541 0.97995 0.25543 0.35500
C 	C 	0.02470 0.65861 0.99879 -0.08300
C 	C 	0.95630 0.17010 0.86370 -0.01800
C 	C 	0.62138 0.53064 0.62440 0.06300
C 	C 	0.08014 0.66022 0.02710 -0.08200
C 	C 	0.39092 0.08476 0.55480 -0.11700
C 	C 	0.17670 0.39670 0.58770 -0.02200
C 	C 	0.06607 0.80986 0.68940 0.17200
C 	C 	0.83890 0.89670 0.08770 -0.01900
C 	C 	0.03048 0.41524 0.94520 -0.11700
C 	C 	0.54270 0.03880 0.53760 -0.07600
C 	C 	0.97620 0.72850 0.88610 0.39000
C 	C 	0.77641 0.36718 0.74740 0.24600
C 	C 	0.26170 0.57990 0.37850 0.00400
C 	C 	0.12341 0.35785 0.26313 0.17400
C 	C 	0.76787 0.94006 0.50380 0.06800
C 	C 	0.06887 0.38696 0.01690 -0.03900
C 	C 	0.69224 0.50342 0.45410 -0.07800
C 	C 	0.20433 0.06804 0.57750 0.23700
C 	C 	0.12750 0.15900 0.93660 -0.07100
C 	C 	0.88090 0.53880 0.03760 -0.07500
C 	C 	0.74930 0.03080 0.89840 -0.05700
C 	C 	0.79540 0.55230 0.41750 -0.03000
C 	C 	0.23480 0.05230 0.91750 -0.03300
C 	C 	0.20833 0.97013 0.54901 0.03000
C 	C 	0.59615 0.80971 0.57139 -0.20200
C 	C 	0.79010 0.36390 0.59690 -0.10100
C 	C 	0.61483 0.50614 0.48940 -0.08300
C 	C 	0.89099 0.13282 0.75260 0.24300
C 	C 	0.30776 0.49658 0.54590 -0.07800
C 	C 	0.71670 0.45230 0.08450 0.02000
C 	C 	0.82609 0.01972 0.36730 0.35200
C 	C 	0.08040 0.65610 0.32690 -0.04300
C 	C 	0.97942 0.09401 0.80475 0.03800
C 	C 	0.84987 0.43196 0.92250 0.23600
C 	C 	0.50500 0.63800 0.63220 0.38900
C 	C 	0.84928 0.40564 0.96720 -0.08200
C 	C 	0.52727 0.88696 0.51690 -0.03900
C 	C 	0.68210 0.84139 0.50121 -0.08400
C 	C 	0.66413 0.98824 0.96050 -0.09300
C 	C 	0.97582 0.61876 0.01220 0.07000
C 	C 	0.12936 0.79258 0.19130 0.06400
C 	C 	0.93660 0.15610 0.82690 -0.03500
C 	C 	0.38963 0.00614 0.98940 -0.08200
C 	C 	0.97407 0.16525 0.24101 0.18400
N 	N 	0.17785 0.36286 0.22284 -0.30700
N 	N 	0.54533 0.70974 0.74180 -0.30000
N 	N 	0.09326 0.31332 0.26276 -0.29100
N 	N 	0.12786 0.28798 0.21810 -0.28700
N 	N 	0.01274 0.86459 0.79793 -0.40300
N 	N 	0.63394 0.21202 0.28190 -0.28700
N 	N 	0.23645 0.86286 0.72284 -0.30700
N 	N 	0.22029 0.30711 0.15251 -0.29300
N 	N 	0.49170 0.27338 0.21082 -0.31500
N 	N 	0.36606 0.78798 0.71810 -0.28700
N 	N 	0.80052 0.10745 0.19951 -0.29000
N 	N 	0.02410 0.77338 0.71082 -0.31400
N 	N 	0.19948 0.89255 0.80049 -0.29000
N 	N 	0.98726 0.13541 0.20207 -0.40300
N 	N 	0.45467 0.29026 0.25820 -0.30000
N 	N 	0.76355 0.13714 0.27716 -0.30700
N 	N 	0.92936 0.15021 0.28307 -0.31200
N 	N 	0.89252 0.60745 0.69951 -0.29000
N 	N 	0.55141 0.68937 0.85701 -0.30100
N 	N 	0.07064 0.84979 0.71693 -0.31200
N 	N 	0.33066 0.81332 0.76276 -0.29100
N 	N 	0.32009 0.80711 0.65251 -0.29300
N 	N 	0.10748 0.39255 0.30049 -0.29000
N 	N 	0.87214 0.71202 0.78190 -0.28700
N 	N 	0.00313 0.20974 0.24180 -0.30200
N 	N 	0.32474 0.36459 0.29793 -0.40400
N 	N 	0.44859 0.31063 0.14299 -0.30100
N 	N 	0.36264 0.34979 0.21693 -0.31100
N 	N 	0.09779 0.81063 0.64299 -0.30100
N 	N 	0.90221 0.18937 0.35701 -0.30100
N 	N 	0.97590 0.22662 0.28918 -0.31400
N 	N 	0.50830 0.72662 0.78918 -0.31500
N 	N 	0.99687 0.79026 0.75820 -0.30200
N 	N 	0.82215 0.63714 0.77716 -0.30700
N 	N 	0.67526 0.63541 0.70207 -0.40400
N 	N 	0.63736 0.65021 0.78307 -0.31100
N 	N 	0.67991 0.19289 0.34749 -0.29300
N 	N 	0.77971 0.69289 0.84749 -0.29300
N 	N 	0.90674 0.68668 0.73724 -0.29100
N 	N 	0.66934 0.18668 0.23724 -0.29100
O 	O 	0.17023 0.01005 0.66529 -0.35700
O 	O 	0.65416 0.72665 0.62223 -0.34800
O 	O 	0.66567 0.12520 0.15386 -0.46300
O 	O 	0.48119 0.35373 0.33069 -0.47500
O 	O 	0.80126 0.52424 0.74224 -0.45300
O 	O 	0.83855 0.07369 0.36181 -0.45200
O 	O 	0.82977 0.98995 0.33471 -0.35700
O 	O 	0.19874 0.47576 0.25776 -0.45300
O 	O 	0.16561 0.14627 0.16931 -0.47500
O 	O 	0.06609 0.73373 0.94649 -0.44800
O 	O 	0.15443 0.51005 0.16529 -0.35500
O 	O 	0.05305 0.28761 0.14169 -0.47500
O 	O 	0.54605 0.31663 0.38527 -0.32300
O 	O 	0.94695 0.71239 0.85831 -0.47500
O 	O 	0.34237 0.11495 0.04471 -0.43400
O 	O 	0.33433 0.87480 0.84614 -0.46300
O 	O 	0.34584 0.27335 0.37777 -0.34800
O 	O 	0.19664 0.10175 0.61337 -0.45000
O 	O 	0.55788 0.16864 0.12460 -0.37200
O 	O 	0.93226 0.02424 0.24224 -0.44900
O 	O 	0.01034 0.99113 0.28959 -0.37000
O 	O 	0.93391 0.26627 0.05351 -0.44800
O 	O 	0.51765 0.78761 0.64169 -0.47500
O 	O 	0.29106 0.50887 0.21041 -0.37400
O 	O 	0.54598 0.10088 0.06696 -0.43900
O 	O 	0.28618 0.60088 0.56696 -0.43900
O 	O 	0.70894 0.49113 0.78959 -0.37400
O 	O 	0.16145 0.92631 0.63819 -0.45200
O 	O 	0.51881 0.64627 0.66931 -0.47500
O 	O 	0.05527 0.62520 0.65386 -0.46200
O 	O 	0.70613 0.37859 0.78195 -0.45100
O 	O 	0.99696 0.22665 0.12223 -0.34600
O 	O 	0.49797 0.61495 0.54471 -0.43400
O 	O 	0.48235 0.21239 0.35831 -0.47500
O 	O 	0.08824 0.60175 0.11337 -0.45000
O 	O 	0.00304 0.77335 0.87777 -0.34600
O 	O 	0.86667 0.12141 0.71805 -0.45000
O 	O 	0.50203 0.38505 0.45529 -0.43400
O 	O 	0.44212 0.83136 0.87540 -0.37200
O 	O 	0.83439 0.85373 0.83069 -0.47500
O 	O 	0.25369 0.23373 0.44649 -0.44800
O 	O 	0.84557 0.48995 0.83471 -0.35500
O 	O 	0.45402 0.89912 0.93304 -0.43900
O 	O 	0.94473 0.37480 0.34614 -0.46200
O 	O 	0.98966 0.00887 0.71041 -0.37000
O 	O 	0.27405 0.42631 0.13819 -0.45100
O 	O 	0.13333 0.87859 0.28195 -0.45000
O 	O 	0.74631 0.76627 0.55351 -0.44800
O 	O 	0.65763 0.88505 0.95529 -0.43400
O 	O 	0.85112 0.33136 0.37540 -0.37100
O 	O 	0.80336 0.89825 0.38663 -0.45000
O 	O 	0.29387 0.62141 0.21805 -0.45100
O 	O 	0.24795 0.18337 0.11473 -0.32300
O 	O 	0.14888 0.66864 0.62460 -0.37100
O 	O 	0.72595 0.57369 0.86181 -0.45100
O 	O 	0.75205 0.81663 0.88527 -0.32300
O 	O 	0.71382 0.39912 0.43304 -0.43900
O 	O 	0.91176 0.39825 0.88663 -0.45000
O 	O 	0.45395 0.68337 0.61473 -0.32300
O 	O 	0.06774 0.97576 0.75776 -0.44900
