data_crystal

_cell_length_a 33.52560
_cell_length_b 33.52560
_cell_length_c 33.52560
_cell_angle_alpha 109.47100
_cell_angle_beta  109.47100
_cell_angle_gamma 109.47100

_symmetry_space_group_name_	'P 1'
_symmetry_space_group_name_H-M	'P 1'

loop_
_symmetry_equiv_pos_as_xyz
  x,y,z

loop_
_atom_site_label
_atom_site_type_symbol
_atom_site_fract_x
_atom_site_fract_y
_atom_site_fract_z
_atom_site_charge
In	In	0.36091 0.27884 0.66767 1.99700
In	In	0.11117 0.69324 0.83233 1.99700
In	In	0.38883 0.22115 0.58207 1.99700
In	In	0.13909 0.80677 0.91793 1.99700
In	In	0.08207 0.38883 0.72116 1.99700
In	In	0.41793 0.13909 0.30676 1.99700
In	In	0.16768 0.36092 0.77885 1.99700
In	In	0.33232 0.11116 0.19323 1.99700
In	In	0.69324 0.33233 0.61117 1.99700
In	In	0.27884 0.16767 0.86091 1.99700
In	In	0.80676 0.41793 0.63908 1.99700
In	In	0.22116 0.08207 0.88884 1.99700
In	In	0.19324 0.61117 0.33233 1.99700
In	In	0.77884 0.86091 0.16767 1.99700
In	In	0.30676 0.63908 0.41793 1.99700
In	In	0.72116 0.88884 0.08207 1.99700
In	In	0.86091 0.66767 0.27884 1.99700
In	In	0.61117 0.83233 0.69324 1.99700
In	In	0.88883 0.58207 0.22115 1.99700
In	In	0.63909 0.91793 0.80677 1.99700
In	In	0.58207 0.72116 0.38883 1.99700
In	In	0.91793 0.30676 0.13909 1.99700
In	In	0.66768 0.77885 0.36092 1.99700
In	In	0.83232 0.19323 0.11116 1.99700
In	In	0.45510 0.25000 0.70510 1.97400
In	In	0.04490 0.75000 0.79490 1.97400
In	In	0.20510 0.45510 0.75000 1.97400
In	In	0.29490 0.04490 0.25000 1.97400
In	In	0.75000 0.29490 0.54490 1.97400
In	In	0.25000 0.20510 0.95510 1.97400
In	In	0.25000 0.54490 0.29490 1.97400
In	In	0.75000 0.95510 0.20510 1.97400
In	In	0.95510 0.70510 0.25000 1.97400
In	In	0.54490 0.79490 0.75000 1.97400
In	In	0.70510 0.75000 0.45510 1.97400
In	In	0.79490 0.25000 0.04490 1.97400
H 	H 	0.37510 0.19930 0.85720 0.04000
H 	H 	0.25030 0.17760 0.76730 0.02800
H 	H 	0.44000 0.23010 0.80330 0.14900
H 	H 	0.44030 0.21940 0.84310 0.14200
H 	H 	0.28130 0.19700 0.72090 0.03600
H 	H 	0.43050 0.09660 0.65550 -0.03200
H 	H 	0.38020 0.87810 0.52730 0.11800
H 	H 	0.35690 0.07340 0.52250 -0.02500
H 	H 	0.23960 0.76690 0.37630 -0.00300
H 	H 	0.26370 0.84980 0.41350 0.10300
H 	H 	0.35900 0.79580 0.49040 0.00100
H 	H 	0.41060 0.01510 0.62090 0.14200
H 	H 	0.34450 0.99410 0.49080 0.13600
H 	H 	0.84210 0.51790 0.64280 0.04000
H 	H 	0.91030 0.48300 0.73270 0.02800
H 	H 	0.92680 0.63670 0.69670 0.14900
H 	H 	0.87630 0.59720 0.65690 0.14200
H 	H 	0.97610 0.56040 0.77910 0.03600
H 	H 	0.94110 0.77500 0.84450 -0.03200
H 	H 	0.85080 0.85290 0.97270 0.11700
H 	H 	0.05090 0.83440 0.97750 -0.02600
H 	H 	0.89060 0.86330 0.12370 -0.00400
H 	H 	0.93630 0.85020 0.08650 0.10200
H 	H 	0.80540 0.86860 0.00960 -0.00000
H 	H 	0.89420 0.78970 0.87910 0.14100
H 	H 	0.00330 0.85370 0.00920 0.13500
H 	H 	0.65790 0.30070 0.67580 0.03900
H 	H 	0.58970 0.32240 0.57270 0.02700
H 	H 	0.57320 0.26990 0.70990 0.14800
H 	H 	0.62370 0.28060 0.72090 0.14100
H 	H 	0.52390 0.30300 0.58430 0.03500
H 	H 	0.55890 0.40340 0.83390 -0.03300
H 	H 	0.64920 0.62190 0.00210 0.11700
H 	H 	0.44910 0.42660 0.78350 -0.02600
H 	H 	0.60940 0.73310 0.97270 -0.00400
H 	H 	0.56370 0.65020 0.91390 0.10200
H 	H 	0.69460 0.70420 0.06320 -0.00000
H 	H 	0.60580 0.48490 0.89550 0.14100
H 	H 	0.49670 0.50590 0.85040 0.13500
H 	H 	0.12490 0.98210 0.82420 0.03900
H 	H 	0.24970 0.01700 0.92730 0.02700
H 	H 	0.06000 0.86330 0.79010 0.14700
H 	H 	0.05970 0.90280 0.77910 0.14100
H 	H 	0.21870 0.93960 0.91570 0.03500
H 	H 	0.06950 0.72500 0.66610 -0.03400
H 	H 	0.11980 0.64710 0.49790 0.11700
H 	H 	0.14310 0.66560 0.71650 -0.02600
H 	H 	0.26040 0.63670 0.52730 -0.00400
H 	H 	0.23630 0.64980 0.58610 0.10200
H 	H 	0.14100 0.63140 0.43680 -0.00000
H 	H 	0.08940 0.71030 0.60450 0.14100
H 	H 	0.15550 0.64630 0.64960 0.13500
H 	H 	0.17580 0.65790 0.80070 0.03900
H 	H 	0.07270 0.58970 0.82240 0.02700
H 	H 	0.20990 0.57320 0.76990 0.14800
H 	H 	0.22090 0.62370 0.78060 0.14100
H 	H 	0.08430 0.52390 0.80300 0.03500
H 	H 	0.33390 0.55890 0.90340 -0.03400
H 	H 	0.50210 0.64920 0.12190 0.11700
H 	H 	0.28350 0.44910 0.92660 -0.02600
H 	H 	0.47270 0.60940 0.23310 -0.00400
H 	H 	0.41390 0.56370 0.15020 0.10200
H 	H 	0.56320 0.69460 0.20420 -0.00000
H 	H 	0.39550 0.60580 0.98490 0.14100
H 	H 	0.35040 0.49670 0.00590 0.13500
H 	H 	0.32420 0.12490 0.48210 0.03900
H 	H 	0.42730 0.24970 0.51700 0.02700
H 	H 	0.29010 0.06000 0.36330 0.14800
H 	H 	0.27910 0.05970 0.40280 0.14100
H 	H 	0.41570 0.21870 0.43960 0.03500
H 	H 	0.16610 0.06950 0.22500 -0.03400
H 	H 	0.99790 0.11980 0.14710 0.11700
H 	H 	0.21650 0.14310 0.16560 -0.02600
H 	H 	0.02730 0.26040 0.13670 -0.00400
H 	H 	0.08610 0.23630 0.14980 0.10200
H 	H 	0.93680 0.14100 0.13140 -0.00000
H 	H 	0.10450 0.08940 0.21030 0.14100
H 	H 	0.14960 0.15550 0.14630 0.13500
H 	H 	0.35720 0.37510 0.69930 0.03900
H 	H 	0.26730 0.25030 0.67760 0.02700
H 	H 	0.30330 0.44000 0.73010 0.14800
H 	H 	0.34310 0.44030 0.71940 0.14100
H 	H 	0.22090 0.28130 0.69700 0.03500
H 	H 	0.15550 0.43050 0.59660 -0.03300
H 	H 	0.02730 0.38020 0.37810 0.11700
H 	H 	0.02250 0.35690 0.57340 -0.02600
H 	H 	0.87630 0.23960 0.26690 -0.00400
H 	H 	0.91350 0.26370 0.34980 0.10200
H 	H 	0.99040 0.35900 0.29580 -0.00000
H 	H 	0.12090 0.41060 0.51510 0.14100
H 	H 	0.99080 0.34450 0.49410 0.13500
H 	H 	0.14280 0.84210 0.01790 0.03900
H 	H 	0.23270 0.91030 0.98300 0.02700
H 	H 	0.19670 0.92680 0.13670 0.14700
H 	H 	0.15690 0.87630 0.09720 0.14100
H 	H 	0.27910 0.97610 0.06040 0.03500
H 	H 	0.34450 0.94110 0.27500 -0.03400
H 	H 	0.47270 0.85080 0.35290 0.11700
H 	H 	0.47750 0.05090 0.33440 -0.02600
H 	H 	0.62370 0.89060 0.36330 -0.00400
H 	H 	0.58650 0.93630 0.35020 0.10200
H 	H 	0.50960 0.80540 0.36860 -0.00000
H 	H 	0.37910 0.89420 0.28970 0.14100
H 	H 	0.50920 0.00330 0.35370 0.13500
H 	H 	0.51790 0.14280 0.34210 0.03900
H 	H 	0.48300 0.23270 0.41030 0.02700
H 	H 	0.63670 0.19670 0.42680 0.14800
H 	H 	0.59720 0.15690 0.37630 0.14100
H 	H 	0.56040 0.27910 0.47610 0.03500
H 	H 	0.77500 0.34450 0.44110 -0.03300
H 	H 	0.85290 0.47270 0.35080 0.11700
H 	H 	0.83440 0.47750 0.55090 -0.02600
H 	H 	0.86330 0.62370 0.39060 -0.00400
H 	H 	0.85020 0.58650 0.43630 0.10200
H 	H 	0.86860 0.50960 0.30540 -0.00000
H 	H 	0.78970 0.37910 0.39420 0.14100
H 	H 	0.85370 0.50920 0.50330 0.13500
H 	H 	0.19930 0.35720 0.87510 0.03900
H 	H 	0.17760 0.26730 0.75030 0.02700
H 	H 	0.23010 0.30330 0.94000 0.14700
H 	H 	0.21940 0.34310 0.94030 0.14100
H 	H 	0.19700 0.22090 0.78130 0.03500
H 	H 	0.09660 0.15550 0.93050 -0.03300
H 	H 	0.87810 0.02730 0.88020 0.11700
H 	H 	0.07340 0.02250 0.85690 -0.02500
H 	H 	0.76690 0.87630 0.73960 -0.00400
H 	H 	0.84980 0.91350 0.76370 0.10200
H 	H 	0.79580 0.99040 0.85900 -0.00000
H 	H 	0.01510 0.12090 0.91060 0.14100
H 	H 	0.99410 0.99080 0.84450 0.13500
H 	H 	0.98210 0.32420 0.62490 0.03900
H 	H 	0.01700 0.42730 0.74970 0.02700
H 	H 	0.86330 0.29010 0.56000 0.14800
H 	H 	0.90280 0.27910 0.55970 0.14100
H 	H 	0.93960 0.41570 0.71870 0.03500
H 	H 	0.72500 0.16610 0.56950 -0.03400
H 	H 	0.64710 0.99790 0.61980 0.11800
H 	H 	0.66560 0.21650 0.64310 -0.02600
H 	H 	0.63670 0.02730 0.76040 -0.00400
H 	H 	0.64980 0.08610 0.73630 0.10200
H 	H 	0.63140 0.93680 0.64100 -0.00000
H 	H 	0.71030 0.10450 0.58940 0.14100
H 	H 	0.64630 0.14960 0.65550 0.13500
H 	H 	0.30070 0.17580 0.15790 0.03900
H 	H 	0.32240 0.07270 0.08970 0.02700
H 	H 	0.26990 0.20990 0.07320 0.14800
H 	H 	0.28060 0.22090 0.12370 0.14100
H 	H 	0.30300 0.08430 0.02390 0.03500
H 	H 	0.40340 0.33390 0.05890 -0.03400
H 	H 	0.62190 0.50210 0.14920 0.11700
H 	H 	0.42660 0.28350 0.94910 -0.02600
H 	H 	0.73310 0.47270 0.10940 -0.00400
H 	H 	0.65020 0.41390 0.06370 0.10200
H 	H 	0.70420 0.56320 0.19460 -0.00000
H 	H 	0.48490 0.39550 0.10580 0.14100
H 	H 	0.50590 0.35040 0.99670 0.13500
H 	H 	0.01790 0.34210 0.14280 0.03900
H 	H 	0.98300 0.41030 0.23270 0.02700
H 	H 	0.13670 0.42680 0.19670 0.14800
H 	H 	0.09720 0.37630 0.15690 0.14100
H 	H 	0.06040 0.47610 0.27910 0.03500
H 	H 	0.27500 0.44110 0.34450 -0.03300
H 	H 	0.35290 0.35080 0.47270 0.11700
H 	H 	0.33440 0.55090 0.47750 -0.02600
H 	H 	0.36330 0.39060 0.62370 -0.00400
H 	H 	0.35020 0.43630 0.58650 0.10200
H 	H 	0.36860 0.30540 0.50960 -0.00000
H 	H 	0.28970 0.39420 0.37910 0.14100
H 	H 	0.35370 0.50330 0.50920 0.13500
H 	H 	0.69930 0.87510 0.35720 0.03900
H 	H 	0.67760 0.75030 0.26730 0.02700
H 	H 	0.73010 0.94000 0.30330 0.14800
H 	H 	0.71940 0.94030 0.34310 0.14100
H 	H 	0.69700 0.78130 0.22090 0.03500
H 	H 	0.59660 0.93050 0.15550 -0.03400
H 	H 	0.37810 0.88020 0.02730 0.11700
H 	H 	0.57340 0.85690 0.02250 -0.02600
H 	H 	0.26690 0.73960 0.87630 -0.00400
H 	H 	0.34980 0.76370 0.91350 0.10200
H 	H 	0.29580 0.85900 0.99040 -0.00000
H 	H 	0.51510 0.91060 0.12090 0.14100
H 	H 	0.49410 0.84450 0.99080 0.13500
H 	H 	0.48210 0.62490 0.32420 0.03900
H 	H 	0.51700 0.74970 0.42730 0.02700
H 	H 	0.36330 0.56000 0.29010 0.14800
H 	H 	0.40280 0.55970 0.27910 0.14100
H 	H 	0.43960 0.71870 0.41570 0.03500
H 	H 	0.22500 0.56950 0.16610 -0.03400
H 	H 	0.14710 0.61980 0.99790 0.11700
H 	H 	0.16560 0.64310 0.21650 -0.02600
H 	H 	0.13670 0.76040 0.02730 -0.00400
H 	H 	0.14980 0.73630 0.08610 0.10200
H 	H 	0.13140 0.64100 0.93680 -0.00000
H 	H 	0.21030 0.58940 0.10450 0.14100
H 	H 	0.14630 0.65550 0.14960 0.13500
H 	H 	0.80070 0.15790 0.17580 0.03900
H 	H 	0.82240 0.08970 0.07270 0.02700
H 	H 	0.76990 0.07320 0.20990 0.14800
H 	H 	0.78060 0.12370 0.22090 0.14100
H 	H 	0.80300 0.02390 0.08430 0.03500
H 	H 	0.90340 0.05890 0.33390 -0.03400
H 	H 	0.12190 0.14920 0.50210 0.11700
H 	H 	0.92660 0.94910 0.28350 -0.02600
H 	H 	0.23310 0.10940 0.47270 -0.00400
H 	H 	0.15020 0.06370 0.41390 0.10200
H 	H 	0.20420 0.19460 0.56320 -0.00000
H 	H 	0.98490 0.10580 0.39550 0.14100
H 	H 	0.00590 0.99670 0.35040 0.13500
H 	H 	0.87510 0.85720 0.19930 0.03900
H 	H 	0.75030 0.76730 0.17760 0.02700
H 	H 	0.94000 0.80330 0.23010 0.14800
H 	H 	0.94030 0.84310 0.21940 0.14100
H 	H 	0.78130 0.72090 0.19700 0.03500
H 	H 	0.93050 0.65550 0.09660 -0.03300
H 	H 	0.88020 0.52730 0.87810 0.11700
H 	H 	0.85690 0.52250 0.07340 -0.02500
H 	H 	0.73960 0.37630 0.76690 -0.00400
H 	H 	0.76370 0.41350 0.84980 0.10200
H 	H 	0.85900 0.49040 0.79580 -0.00000
H 	H 	0.91060 0.62090 0.01510 0.14100
H 	H 	0.84450 0.49080 0.99410 0.13500
H 	H 	0.34210 0.64280 0.51790 0.03900
H 	H 	0.41030 0.73270 0.48300 0.02700
H 	H 	0.42680 0.69670 0.63670 0.14800
H 	H 	0.37630 0.65690 0.59720 0.14100
H 	H 	0.47610 0.77910 0.56040 0.03500
H 	H 	0.44110 0.84450 0.77500 -0.03300
H 	H 	0.35080 0.97270 0.85290 0.11700
H 	H 	0.55090 0.97750 0.83440 -0.02600
H 	H 	0.39060 0.12370 0.86330 -0.00400
H 	H 	0.43630 0.08650 0.85020 0.10200
H 	H 	0.30540 0.00960 0.86860 -0.00000
H 	H 	0.39420 0.87910 0.78970 0.14100
H 	H 	0.50330 0.00920 0.85370 0.13500
H 	H 	0.15790 0.67580 0.30070 0.03900
H 	H 	0.08970 0.57270 0.32240 0.02700
H 	H 	0.07320 0.70990 0.26990 0.14700
H 	H 	0.12370 0.72090 0.28060 0.14100
H 	H 	0.02390 0.58430 0.30300 0.03500
H 	H 	0.05890 0.83390 0.40340 -0.03400
H 	H 	0.14920 0.00210 0.62190 0.11800
H 	H 	0.94910 0.78350 0.42660 -0.02600
H 	H 	0.10940 0.97270 0.73310 -0.00400
H 	H 	0.06370 0.91390 0.65020 0.10200
H 	H 	0.19460 0.06320 0.70420 -0.00000
H 	H 	0.10580 0.89550 0.48490 0.14100
H 	H 	0.99670 0.85040 0.50590 0.13500
H 	H 	0.62490 0.82420 0.98210 0.03900
H 	H 	0.74970 0.92730 0.01700 0.02700
H 	H 	0.56000 0.79010 0.86330 0.14800
H 	H 	0.55970 0.77910 0.90280 0.14100
H 	H 	0.71870 0.91570 0.93960 0.03500
H 	H 	0.56950 0.66610 0.72500 -0.03400
H 	H 	0.61980 0.49790 0.64710 0.11700
H 	H 	0.64310 0.71650 0.66560 -0.02600
H 	H 	0.76040 0.52730 0.63670 -0.00400
H 	H 	0.73630 0.58610 0.64980 0.10200
H 	H 	0.64100 0.43680 0.63140 -0.00000
H 	H 	0.58940 0.60450 0.71030 0.14100
H 	H 	0.65550 0.64960 0.64630 0.13500
H 	H 	0.67580 0.80070 0.65790 0.03900
H 	H 	0.57270 0.82240 0.58970 0.02700
H 	H 	0.70990 0.76990 0.57320 0.14800
H 	H 	0.72090 0.78060 0.62370 0.14100
H 	H 	0.58430 0.80300 0.52390 0.03500
H 	H 	0.83390 0.90340 0.55890 -0.03300
H 	H 	0.00210 0.12190 0.64920 0.11800
H 	H 	0.78350 0.92660 0.44910 -0.02500
H 	H 	0.97270 0.23310 0.60940 -0.00400
H 	H 	0.91390 0.15020 0.56370 0.10200
H 	H 	0.06320 0.20420 0.69460 -0.00000
H 	H 	0.89550 0.98490 0.60580 0.14100
H 	H 	0.85040 0.00590 0.49670 0.13400
H 	H 	0.82420 0.48210 0.12490 0.03900
H 	H 	0.92730 0.51700 0.24970 0.02700
H 	H 	0.79010 0.36330 0.06000 0.14800
H 	H 	0.77910 0.40280 0.05970 0.14100
H 	H 	0.91570 0.43960 0.21870 0.03500
H 	H 	0.66610 0.22500 0.06950 -0.03400
H 	H 	0.49790 0.14710 0.11980 0.11700
H 	H 	0.71650 0.16560 0.14310 -0.02600
H 	H 	0.52730 0.13670 0.26040 -0.00400
H 	H 	0.58610 0.14980 0.23630 0.10200
H 	H 	0.43680 0.13140 0.14100 -0.00000
H 	H 	0.60450 0.21030 0.08940 0.14100
H 	H 	0.64960 0.14630 0.15550 0.13500
H 	H 	0.85720 0.69930 0.37510 0.03900
H 	H 	0.76730 0.67760 0.25030 0.02700
H 	H 	0.80330 0.73010 0.44000 0.14800
H 	H 	0.84310 0.71940 0.44030 0.14100
H 	H 	0.72090 0.69700 0.28130 0.03500
H 	H 	0.65550 0.59660 0.43050 -0.03300
H 	H 	0.52730 0.37810 0.38020 0.11700
H 	H 	0.52250 0.57340 0.35690 -0.02600
H 	H 	0.37630 0.26690 0.23960 -0.00400
H 	H 	0.41350 0.34980 0.26370 0.10200
H 	H 	0.49040 0.29580 0.35900 -0.00000
H 	H 	0.62090 0.51510 0.41060 0.14100
H 	H 	0.49080 0.49410 0.34450 0.13500
H 	H 	0.64280 0.01790 0.84210 0.03900
H 	H 	0.73270 0.98300 0.91030 0.02700
H 	H 	0.69670 0.13670 0.92680 0.14700
H 	H 	0.65690 0.09720 0.87630 0.14100
H 	H 	0.77910 0.06040 0.97610 0.03500
H 	H 	0.84450 0.27500 0.94110 -0.03400
H 	H 	0.97270 0.35290 0.85080 0.11700
H 	H 	0.97750 0.33440 0.05090 -0.02600
H 	H 	0.12370 0.36330 0.89060 -0.00400
H 	H 	0.08650 0.35020 0.93630 0.10200
H 	H 	0.00960 0.36860 0.80540 -0.00000
H 	H 	0.87910 0.28970 0.89420 0.14100
H 	H 	0.00920 0.35370 0.00330 0.13500
C 	C 	0.34923 0.21256 0.76181 -0.17000
C 	C 	0.28058 0.71945 0.40797 0.48900
C 	C 	0.35621 0.19846 0.82911 -0.05800
C 	C 	0.37850 0.21092 0.80218 0.16000
C 	C 	0.28258 0.18597 0.77629 -0.01200
C 	C 	0.36884 0.22832 0.73224 0.44500
C 	C 	0.30141 0.19833 0.74886 0.02700
C 	C 	0.40748 0.14609 0.61251 0.46700
C 	C 	0.39653 0.09402 0.59149 -0.25100
C 	C 	0.29647 0.77232 0.42957 -0.20500
C 	C 	0.41228 0.07633 0.62181 0.19300
C 	C 	0.35260 0.85590 0.49650 -0.21700
C 	C 	0.32650 0.87180 0.47370 0.18600
C 	C 	0.36977 0.06300 0.54357 0.19400
C 	C 	0.26810 0.78892 0.40642 0.12400
C 	C 	0.28270 0.83860 0.42850 -0.20400
C 	C 	0.37588 0.99775 0.55483 0.26400
C 	C 	0.33937 0.80604 0.47481 0.12700
C 	C 	0.40010 0.02690 0.60040 -0.30800
C 	C 	0.36080 0.01463 0.52443 -0.27900
C 	C 	0.95075 0.58742 0.73819 -0.17000
C 	C 	0.81148 0.87261 0.09203 0.48900
C 	C 	0.86935 0.52710 0.67089 -0.05800
C 	C 	0.90874 0.57632 0.69782 0.16000
C 	C 	0.90968 0.50629 0.72371 -0.01200
C 	C 	0.99608 0.63660 0.76776 0.44500
C 	C 	0.94947 0.55255 0.75114 0.02700
C 	C 	0.03358 0.79497 0.88749 0.46700
C 	C 	0.00253 0.80504 0.90851 -0.25100
C 	C 	0.84275 0.86690 0.07043 -0.20500
C 	C 	0.95452 0.79047 0.87819 0.19300
C 	C 	0.85940 0.85610 0.00350 -0.21700
C 	C 	0.89810 0.85280 0.02630 0.18600
C 	C 	0.01943 0.82620 0.95643 0.19300
C 	C 	0.88250 0.86168 0.09358 0.12400
C 	C 	0.91010 0.85420 0.07150 -0.20400
C 	C 	0.94292 0.82105 0.94517 0.26400
C 	C 	0.83123 0.86456 0.02519 0.12700
C 	C 	0.92650 0.79970 0.89960 -0.30800
C 	C 	0.99020 0.83637 0.97557 -0.27900
C 	C 	0.54925 0.28744 0.63667 -0.17000
C 	C 	0.68852 0.78055 0.06113 0.48900
C 	C 	0.63065 0.30154 0.65775 -0.05800
C 	C 	0.59126 0.28908 0.66758 0.16000
C 	C 	0.59032 0.31403 0.59661 -0.01200
C 	C 	0.50392 0.27168 0.64052 0.44500
C 	C 	0.55053 0.30167 0.60308 0.02700
C 	C 	0.46642 0.35391 0.76139 0.46700
C 	C 	0.49747 0.40598 0.80251 -0.25100
C 	C 	0.65725 0.72768 0.02415 -0.20500
C 	C 	0.54548 0.42367 0.83595 0.19300
C 	C 	0.64060 0.64410 0.99670 -0.21700
C 	C 	0.60190 0.62820 0.95470 0.18600
C 	C 	0.48057 0.43700 0.80677 0.19400
C 	C 	0.61750 0.71108 0.97918 0.12400
C 	C 	0.58990 0.66140 0.94410 -0.20400
C 	C 	0.55708 0.50225 0.87813 0.26500
C 	C 	0.66877 0.69396 0.03333 0.12700
C 	C 	0.57350 0.47310 0.87320 -0.30900
C 	C 	0.50980 0.48537 0.84617 -0.28000
C 	C 	0.15077 0.91258 0.86333 -0.17000
C 	C 	0.21942 0.62739 0.43887 0.48900
C 	C 	0.14379 0.97290 0.84225 -0.05800
C 	C 	0.12150 0.92368 0.83242 0.16000
C 	C 	0.21742 0.99371 0.90339 -0.01200
C 	C 	0.13116 0.86340 0.85948 0.44500
C 	C 	0.19859 0.94745 0.89692 0.02700
C 	C 	0.09252 0.70503 0.73861 0.46700
C 	C 	0.10347 0.69496 0.69749 -0.25100
C 	C 	0.20353 0.63310 0.47585 -0.20500
C 	C 	0.08772 0.70953 0.66405 0.19300
C 	C 	0.14740 0.64390 0.50330 -0.21700
C 	C 	0.17350 0.64720 0.54530 0.18600
C 	C 	0.13023 0.67380 0.69323 0.19400
C 	C 	0.23190 0.63832 0.52082 0.12400
C 	C 	0.21730 0.64580 0.55590 -0.20400
C 	C 	0.12412 0.67895 0.62187 0.26500
C 	C 	0.16063 0.63544 0.46667 0.12700
C 	C 	0.09990 0.70030 0.62680 -0.30900
C 	C 	0.13920 0.66363 0.65383 -0.28000
C 	C 	0.13667 0.54925 0.78744 -0.17000
C 	C 	0.56113 0.68852 0.28055 0.48900
C 	C 	0.15775 0.63065 0.80154 -0.05800
C 	C 	0.16758 0.59126 0.78908 0.16000
C 	C 	0.09661 0.59032 0.81403 -0.01200
C 	C 	0.14052 0.50392 0.77168 0.44500
C 	C 	0.10308 0.55053 0.80167 0.02700
C 	C 	0.26139 0.46642 0.85391 0.46700
C 	C 	0.30251 0.49747 0.90598 -0.25100
C 	C 	0.52415 0.65725 0.22768 -0.20500
C 	C 	0.33595 0.54548 0.92367 0.19300
C 	C 	0.49670 0.64060 0.14410 -0.21700
C 	C 	0.45470 0.60190 0.12820 0.18600
C 	C 	0.30677 0.48057 0.93700 0.19400
C 	C 	0.47918 0.61750 0.21108 0.12400
C 	C 	0.44410 0.58990 0.16140 -0.20400
C 	C 	0.37813 0.55708 0.00225 0.26500
C 	C 	0.53333 0.66877 0.19396 0.12700
C 	C 	0.37320 0.57350 0.97310 -0.30900
C 	C 	0.34617 0.50980 0.98537 -0.28000
C 	C 	0.36333 0.15077 0.41258 -0.17000
C 	C 	0.93887 0.21942 0.12739 0.48900
C 	C 	0.34225 0.14379 0.47290 -0.05800
C 	C 	0.33242 0.12150 0.42368 0.16000
C 	C 	0.40339 0.21742 0.49371 -0.01200
C 	C 	0.35948 0.13116 0.36340 0.44500
C 	C 	0.39692 0.19859 0.44745 0.02700
C 	C 	0.23861 0.09252 0.20503 0.46700
C 	C 	0.19749 0.10347 0.19496 -0.25100
C 	C 	0.97585 0.20353 0.13310 -0.20500
C 	C 	0.16405 0.08772 0.20953 0.19300
C 	C 	0.00330 0.14740 0.14390 -0.21700
C 	C 	0.04530 0.17350 0.14720 0.18600
C 	C 	0.19323 0.13023 0.17380 0.19400
C 	C 	0.02082 0.23190 0.13832 0.12400
C 	C 	0.05590 0.21730 0.14580 -0.20400
C 	C 	0.12187 0.12412 0.17895 0.26500
C 	C 	0.96667 0.16063 0.13544 0.12700
C 	C 	0.12680 0.09990 0.20030 -0.30900
C 	C 	0.15383 0.13920 0.16363 -0.28000
C 	C 	0.26181 0.34923 0.71256 -0.17000
C 	C 	0.90797 0.28058 0.21945 0.48900
C 	C 	0.32911 0.35621 0.69846 -0.05800
C 	C 	0.30218 0.37850 0.71092 0.16000
C 	C 	0.27629 0.28258 0.68597 -0.01200
C 	C 	0.23224 0.36884 0.72832 0.44500
C 	C 	0.24886 0.30141 0.69833 0.02700
C 	C 	0.11251 0.40748 0.64609 0.46700
C 	C 	0.09149 0.39653 0.59402 -0.25100
C 	C 	0.92957 0.29647 0.27232 -0.20500
C 	C 	0.12181 0.41228 0.57633 0.19300
C 	C 	0.99650 0.35260 0.35590 -0.21700
C 	C 	0.97370 0.32650 0.37180 0.18600
C 	C 	0.04357 0.36977 0.56300 0.19400
C 	C 	0.90642 0.26810 0.28892 0.12400
C 	C 	0.92850 0.28270 0.33860 -0.20400
C 	C 	0.05483 0.37588 0.49775 0.26500
C 	C 	0.97481 0.33937 0.30604 0.12700
C 	C 	0.10040 0.40010 0.52690 -0.30900
C 	C 	0.02443 0.36080 0.51463 -0.28000
C 	C 	0.23819 0.95075 0.08742 -0.17000
C 	C 	0.59203 0.81148 0.37261 0.48900
C 	C 	0.17089 0.86935 0.02710 -0.05800
C 	C 	0.19782 0.90874 0.07632 0.16000
C 	C 	0.22371 0.90968 0.00629 -0.01200
C 	C 	0.26776 0.99608 0.13660 0.44500
C 	C 	0.25114 0.94947 0.05255 0.02800
C 	C 	0.38749 0.03358 0.29497 0.46700
C 	C 	0.40851 0.00253 0.30504 -0.25100
C 	C 	0.57043 0.84275 0.36690 -0.20500
C 	C 	0.37819 0.95452 0.29047 0.19300
C 	C 	0.50350 0.85940 0.35610 -0.21700
C 	C 	0.52630 0.89810 0.35280 0.18600
C 	C 	0.45643 0.01943 0.32620 0.19400
C 	C 	0.59358 0.88250 0.36168 0.12400
C 	C 	0.57150 0.91010 0.35420 -0.20400
C 	C 	0.44517 0.94292 0.32105 0.26500
C 	C 	0.52519 0.83123 0.36456 0.12700
C 	C 	0.39960 0.92650 0.29970 -0.30900
C 	C 	0.47557 0.99020 0.33637 -0.28000
C 	C 	0.58742 0.23819 0.45075 -0.17000
C 	C 	0.87261 0.59203 0.31148 0.48900
C 	C 	0.52710 0.17089 0.36935 -0.05800
C 	C 	0.57632 0.19782 0.40874 0.16000
C 	C 	0.50629 0.22371 0.40968 -0.01200
C 	C 	0.63660 0.26776 0.49608 0.44500
C 	C 	0.55255 0.25114 0.44947 0.02700
C 	C 	0.79497 0.38749 0.53358 0.46700
C 	C 	0.80504 0.40851 0.50253 -0.25100
C 	C 	0.86690 0.57043 0.34275 -0.20500
C 	C 	0.79047 0.37819 0.45452 0.19300
C 	C 	0.85610 0.50350 0.35940 -0.21700
C 	C 	0.85280 0.52630 0.39810 0.18600
C 	C 	0.82620 0.45643 0.51943 0.19400
C 	C 	0.86168 0.59358 0.38250 0.12400
C 	C 	0.85420 0.57150 0.41010 -0.20400
C 	C 	0.82105 0.44517 0.44292 0.26500
C 	C 	0.86456 0.52519 0.33123 0.12700
C 	C 	0.79970 0.39960 0.42650 -0.30900
C 	C 	0.83637 0.47557 0.49020 -0.28000
C 	C 	0.21256 0.26181 0.84923 -0.17000
C 	C 	0.71945 0.90797 0.78058 0.48900
C 	C 	0.19846 0.32911 0.85621 -0.05800
C 	C 	0.21092 0.30218 0.87850 0.16000
C 	C 	0.18597 0.27629 0.78258 -0.01200
C 	C 	0.22832 0.23224 0.86884 0.44500
C 	C 	0.19833 0.24886 0.80141 0.02700
C 	C 	0.14609 0.11251 0.90748 0.46700
C 	C 	0.09402 0.09149 0.89653 -0.25100
C 	C 	0.77232 0.92957 0.79647 -0.20400
C 	C 	0.07633 0.12181 0.91228 0.19200
C 	C 	0.85590 0.99650 0.85260 -0.21600
C 	C 	0.87180 0.97370 0.82650 0.18600
C 	C 	0.06300 0.04357 0.86977 0.19300
C 	C 	0.78892 0.90642 0.76810 0.12400
C 	C 	0.83860 0.92850 0.78270 -0.20300
C 	C 	0.99775 0.05483 0.87588 0.26300
C 	C 	0.80604 0.97481 0.83937 0.12700
C 	C 	0.02690 0.10040 0.90010 -0.30700
C 	C 	0.01463 0.02443 0.86080 -0.27900
C 	C 	0.91258 0.36333 0.65077 -0.17000
C 	C 	0.62739 0.93887 0.71942 0.48900
C 	C 	0.97290 0.34225 0.64379 -0.05800
C 	C 	0.92368 0.33242 0.62150 0.16000
C 	C 	0.99371 0.40339 0.71742 -0.01200
C 	C 	0.86340 0.35948 0.63116 0.44500
C 	C 	0.94745 0.39692 0.69859 0.02800
C 	C 	0.70503 0.23861 0.59252 0.46700
C 	C 	0.69496 0.19749 0.60347 -0.25100
C 	C 	0.63310 0.97585 0.70353 -0.20500
C 	C 	0.70953 0.16405 0.58772 0.19300
C 	C 	0.64390 0.00330 0.64740 -0.21800
C 	C 	0.64720 0.04530 0.67350 0.18600
C 	C 	0.67380 0.19323 0.63023 0.19400
C 	C 	0.63832 0.02082 0.73190 0.12400
C 	C 	0.64580 0.05590 0.71730 -0.20400
C 	C 	0.67895 0.12187 0.62412 0.26500
C 	C 	0.63544 0.96667 0.66063 0.12800
C 	C 	0.70030 0.12680 0.59990 -0.30900
C 	C 	0.66363 0.15383 0.63920 -0.28000
C 	C 	0.28744 0.13667 0.04925 -0.17000
C 	C 	0.78055 0.56113 0.18852 0.48900
C 	C 	0.30154 0.15775 0.13065 -0.05800
C 	C 	0.28908 0.16758 0.09126 0.16000
C 	C 	0.31403 0.09661 0.09032 -0.01200
C 	C 	0.27168 0.14052 0.00392 0.44600
C 	C 	0.30167 0.10308 0.05053 0.02700
C 	C 	0.35391 0.26139 0.96642 0.46700
C 	C 	0.40598 0.30251 0.99747 -0.25100
C 	C 	0.72768 0.52415 0.15725 -0.20500
C 	C 	0.42367 0.33595 0.04548 0.19300
C 	C 	0.64410 0.49670 0.14060 -0.21700
C 	C 	0.62820 0.45470 0.10190 0.18600
C 	C 	0.43700 0.30677 0.98057 0.19400
C 	C 	0.71108 0.47918 0.11750 0.12400
C 	C 	0.66140 0.44410 0.08990 -0.20400
C 	C 	0.50225 0.37813 0.05708 0.26500
C 	C 	0.69396 0.53333 0.16877 0.12700
C 	C 	0.47310 0.37320 0.07350 -0.30900
C 	C 	0.48537 0.34617 0.00980 -0.28000
C 	C 	0.08742 0.45075 0.23819 -0.17000
C 	C 	0.37261 0.31148 0.59203 0.48900
C 	C 	0.02710 0.36935 0.17089 -0.05800
C 	C 	0.07632 0.40874 0.19782 0.16000
C 	C 	0.00629 0.40968 0.22371 -0.01200
C 	C 	0.13660 0.49608 0.26776 0.44500
C 	C 	0.05255 0.44947 0.25114 0.02700
C 	C 	0.29497 0.53358 0.38749 0.46700
C 	C 	0.30504 0.50253 0.40851 -0.25100
C 	C 	0.36690 0.34275 0.57043 -0.20500
C 	C 	0.29047 0.45452 0.37819 0.19300
C 	C 	0.35610 0.35940 0.50350 -0.21700
C 	C 	0.35280 0.39810 0.52630 0.18600
C 	C 	0.32620 0.51943 0.45643 0.19400
C 	C 	0.36168 0.38250 0.59358 0.12400
C 	C 	0.35420 0.41010 0.57150 -0.20400
C 	C 	0.32105 0.44292 0.44517 0.26500
C 	C 	0.36456 0.33123 0.52519 0.12700
C 	C 	0.29970 0.42650 0.39960 -0.30900
C 	C 	0.33637 0.49020 0.47557 -0.28000
C 	C 	0.71256 0.84923 0.26181 -0.17000
C 	C 	0.21945 0.78058 0.90797 0.48900
C 	C 	0.69846 0.85621 0.32911 -0.05800
C 	C 	0.71092 0.87850 0.30218 0.16000
C 	C 	0.68597 0.78258 0.27629 -0.01200
C 	C 	0.72832 0.86884 0.23224 0.44500
C 	C 	0.69833 0.80141 0.24886 0.02700
C 	C 	0.64609 0.90748 0.11251 0.46700
C 	C 	0.59402 0.89653 0.09149 -0.25100
C 	C 	0.27232 0.79647 0.92957 -0.20500
C 	C 	0.57633 0.91228 0.12181 0.19300
C 	C 	0.35590 0.85260 0.99650 -0.21700
C 	C 	0.37180 0.82650 0.97370 0.18600
C 	C 	0.56300 0.86977 0.04357 0.19400
C 	C 	0.28892 0.76810 0.90642 0.12400
C 	C 	0.33860 0.78270 0.92850 -0.20400
C 	C 	0.49775 0.87588 0.05483 0.26500
C 	C 	0.30604 0.83937 0.97481 0.12700
C 	C 	0.52690 0.90010 0.10040 -0.30900
C 	C 	0.51463 0.86080 0.02443 -0.28000
C 	C 	0.41258 0.65077 0.36333 -0.17000
C 	C 	0.12739 0.71942 0.93887 0.48900
C 	C 	0.47290 0.64379 0.34225 -0.05800
C 	C 	0.42368 0.62150 0.33242 0.16000
C 	C 	0.49371 0.71742 0.40339 -0.01200
C 	C 	0.36340 0.63116 0.35948 0.44500
C 	C 	0.44745 0.69859 0.39692 0.02700
C 	C 	0.20503 0.59252 0.23861 0.46700
C 	C 	0.19496 0.60347 0.19749 -0.25100
C 	C 	0.13310 0.70353 0.97585 -0.20500
C 	C 	0.20953 0.58772 0.16405 0.19300
C 	C 	0.14390 0.64740 0.00330 -0.21700
C 	C 	0.14720 0.67350 0.04530 0.18600
C 	C 	0.17380 0.63023 0.19323 0.19400
C 	C 	0.13832 0.73190 0.02082 0.12400
C 	C 	0.14580 0.71730 0.05590 -0.20400
C 	C 	0.17895 0.62412 0.12187 0.26500
C 	C 	0.13544 0.66063 0.96667 0.12700
C 	C 	0.20030 0.59990 0.12680 -0.30900
C 	C 	0.16363 0.63920 0.15383 -0.28000
C 	C 	0.78744 0.04925 0.13667 -0.17000
C 	C 	0.28055 0.18852 0.56113 0.48900
C 	C 	0.80154 0.13065 0.15775 -0.05800
C 	C 	0.78908 0.09126 0.16758 0.16000
C 	C 	0.81403 0.09032 0.09661 -0.01200
C 	C 	0.77168 0.00392 0.14052 0.44500
C 	C 	0.80167 0.05053 0.10308 0.02700
C 	C 	0.85391 0.96642 0.26139 0.46700
C 	C 	0.90598 0.99747 0.30251 -0.25100
C 	C 	0.22768 0.15725 0.52415 -0.20500
C 	C 	0.92367 0.04548 0.33595 0.19300
C 	C 	0.14410 0.14060 0.49670 -0.21700
C 	C 	0.12820 0.10190 0.45470 0.18600
C 	C 	0.93700 0.98057 0.30677 0.19400
C 	C 	0.21108 0.11750 0.47918 0.12400
C 	C 	0.16140 0.08990 0.44410 -0.20400
C 	C 	0.00225 0.05708 0.37813 0.26500
C 	C 	0.19396 0.16877 0.53333 0.12700
C 	C 	0.97310 0.07350 0.37320 -0.30900
C 	C 	0.98537 0.00980 0.34617 -0.28100
C 	C 	0.84923 0.76181 0.21256 -0.17000
C 	C 	0.78058 0.40797 0.71945 0.48900
C 	C 	0.85621 0.82911 0.19846 -0.05800
C 	C 	0.87850 0.80218 0.21092 0.16000
C 	C 	0.78258 0.77629 0.18597 -0.01200
C 	C 	0.86884 0.73224 0.22832 0.44500
C 	C 	0.80141 0.74886 0.19833 0.02700
C 	C 	0.90748 0.61251 0.14609 0.46700
C 	C 	0.89653 0.59149 0.09402 -0.25100
C 	C 	0.79647 0.42957 0.77232 -0.20500
C 	C 	0.91228 0.62181 0.07633 0.19300
C 	C 	0.85260 0.49650 0.85590 -0.21700
C 	C 	0.82650 0.47370 0.87180 0.18600
C 	C 	0.86977 0.54357 0.06300 0.19300
C 	C 	0.76810 0.40642 0.78892 0.12400
C 	C 	0.78270 0.42850 0.83860 -0.20400
C 	C 	0.87588 0.55483 0.99775 0.26400
C 	C 	0.83937 0.47481 0.80604 0.12700
C 	C 	0.90010 0.60040 0.02690 -0.30800
C 	C 	0.86080 0.52443 0.01463 -0.27900
C 	C 	0.45075 0.73819 0.58742 -0.17000
C 	C 	0.31148 0.09203 0.87261 0.48900
C 	C 	0.36935 0.67089 0.52710 -0.05800
C 	C 	0.40874 0.69782 0.57632 0.16000
C 	C 	0.40968 0.72371 0.50629 -0.01200
C 	C 	0.49608 0.76776 0.63660 0.44500
C 	C 	0.44947 0.75114 0.55255 0.02700
C 	C 	0.53358 0.88749 0.79497 0.46700
C 	C 	0.50253 0.90851 0.80504 -0.25100
C 	C 	0.34275 0.07043 0.86690 -0.20500
C 	C 	0.45452 0.87819 0.79047 0.19300
C 	C 	0.35940 0.00350 0.85610 -0.21700
C 	C 	0.39810 0.02630 0.85280 0.18600
C 	C 	0.51943 0.95643 0.82620 0.19400
C 	C 	0.38250 0.09358 0.86168 0.12400
C 	C 	0.41010 0.07150 0.85420 -0.20400
C 	C 	0.44292 0.94517 0.82105 0.26500
C 	C 	0.33123 0.02519 0.86456 0.12700
C 	C 	0.42650 0.89960 0.79970 -0.30800
C 	C 	0.49020 0.97557 0.83637 -0.28000
C 	C 	0.04925 0.63667 0.28744 -0.17000
C 	C 	0.18852 0.06113 0.78055 0.48900
C 	C 	0.13065 0.65775 0.30154 -0.05800
C 	C 	0.09126 0.66758 0.28908 0.16000
C 	C 	0.09032 0.59661 0.31403 -0.01200
C 	C 	0.00392 0.64052 0.27168 0.44500
C 	C 	0.05053 0.60308 0.30167 0.02700
C 	C 	0.96642 0.76139 0.35391 0.46700
C 	C 	0.99747 0.80251 0.40598 -0.25100
C 	C 	0.15725 0.02415 0.72768 -0.20500
C 	C 	0.04548 0.83595 0.42367 0.19300
C 	C 	0.14060 0.99670 0.64410 -0.21800
C 	C 	0.10190 0.95470 0.62820 0.18600
C 	C 	0.98057 0.80677 0.43700 0.19400
C 	C 	0.11750 0.97918 0.71108 0.12400
C 	C 	0.08990 0.94410 0.66140 -0.20400
C 	C 	0.05708 0.87813 0.50225 0.26500
C 	C 	0.16877 0.03333 0.69396 0.12800
C 	C 	0.07350 0.87320 0.47310 -0.30900
C 	C 	0.00980 0.84617 0.48537 -0.28100
C 	C 	0.65077 0.86333 0.91258 -0.17000
C 	C 	0.71942 0.43887 0.62739 0.48900
C 	C 	0.64379 0.84225 0.97290 -0.05800
C 	C 	0.62150 0.83242 0.92368 0.16000
C 	C 	0.71742 0.90339 0.99371 -0.01200
C 	C 	0.63116 0.85948 0.86340 0.44500
C 	C 	0.69859 0.89692 0.94745 0.02700
C 	C 	0.59252 0.73861 0.70503 0.46700
C 	C 	0.60347 0.69749 0.69496 -0.25100
C 	C 	0.70353 0.47585 0.63310 -0.20500
C 	C 	0.58772 0.66405 0.70953 0.19300
C 	C 	0.64740 0.50330 0.64390 -0.21700
C 	C 	0.67350 0.54530 0.64720 0.18600
C 	C 	0.63023 0.69323 0.67380 0.19400
C 	C 	0.73190 0.52082 0.63832 0.12400
C 	C 	0.71730 0.55590 0.64580 -0.20400
C 	C 	0.62412 0.62187 0.67895 0.26500
C 	C 	0.66063 0.46667 0.63544 0.12700
C 	C 	0.59990 0.62680 0.70030 -0.30900
C 	C 	0.63920 0.65383 0.66363 -0.28000
C 	C 	0.63667 0.78744 0.54925 -0.17000
C 	C 	0.06113 0.28055 0.68852 0.48900
C 	C 	0.65775 0.80154 0.63065 -0.05800
C 	C 	0.66758 0.78908 0.59126 0.16000
C 	C 	0.59661 0.81403 0.59032 -0.01200
C 	C 	0.64052 0.77168 0.50392 0.44500
C 	C 	0.60308 0.80167 0.55053 0.02700
C 	C 	0.76139 0.85391 0.46642 0.46700
C 	C 	0.80251 0.90598 0.49747 -0.25000
C 	C 	0.02415 0.22768 0.65725 -0.20500
C 	C 	0.83595 0.92367 0.54548 0.19200
C 	C 	0.99670 0.14410 0.64060 -0.21800
C 	C 	0.95470 0.12820 0.60190 0.18600
C 	C 	0.80677 0.93700 0.48057 0.19300
C 	C 	0.97918 0.21108 0.61750 0.12400
C 	C 	0.94410 0.16140 0.58990 -0.20400
C 	C 	0.87813 0.00225 0.55708 0.26300
C 	C 	0.03333 0.19396 0.66877 0.12800
C 	C 	0.87320 0.97310 0.57350 -0.30700
C 	C 	0.84617 0.98537 0.50980 -0.27900
C 	C 	0.86333 0.41258 0.15077 -0.17000
C 	C 	0.43887 0.12739 0.21942 0.48900
C 	C 	0.84225 0.47290 0.14379 -0.05800
C 	C 	0.83242 0.42368 0.12150 0.16000
C 	C 	0.90339 0.49371 0.21742 -0.01200
C 	C 	0.85948 0.36340 0.13116 0.44500
C 	C 	0.89692 0.44745 0.19859 0.02700
C 	C 	0.73861 0.20503 0.09252 0.46700
C 	C 	0.69749 0.19496 0.10347 -0.25100
C 	C 	0.47585 0.13310 0.20353 -0.20500
C 	C 	0.66405 0.20953 0.08772 0.19300
C 	C 	0.50330 0.14390 0.14740 -0.21700
C 	C 	0.54530 0.14720 0.17350 0.18600
C 	C 	0.69323 0.17380 0.13023 0.19400
C 	C 	0.52082 0.13832 0.23190 0.12400
C 	C 	0.55590 0.14580 0.21730 -0.20400
C 	C 	0.62187 0.17895 0.12412 0.26500
C 	C 	0.46667 0.13544 0.16063 0.12700
C 	C 	0.62680 0.20030 0.09990 -0.30900
C 	C 	0.65383 0.16363 0.13920 -0.28000
C 	C 	0.76181 0.71256 0.34923 -0.17000
C 	C 	0.40797 0.21945 0.28058 0.48900
C 	C 	0.82911 0.69846 0.35621 -0.05800
C 	C 	0.80218 0.71092 0.37850 0.16000
C 	C 	0.77629 0.68597 0.28258 -0.01200
C 	C 	0.73224 0.72832 0.36884 0.44500
C 	C 	0.74886 0.69833 0.30141 0.02700
C 	C 	0.61251 0.64609 0.40748 0.46700
C 	C 	0.59149 0.59402 0.39653 -0.25100
C 	C 	0.42957 0.27232 0.29647 -0.20500
C 	C 	0.62181 0.57633 0.41228 0.19300
C 	C 	0.49650 0.35590 0.35260 -0.21700
C 	C 	0.47370 0.37180 0.32650 0.18600
C 	C 	0.54357 0.56300 0.36977 0.19400
C 	C 	0.40642 0.28892 0.26810 0.12400
C 	C 	0.42850 0.33860 0.28270 -0.20400
C 	C 	0.55483 0.49775 0.37588 0.26500
C 	C 	0.47481 0.30604 0.33937 0.12700
C 	C 	0.60040 0.52690 0.40010 -0.30900
C 	C 	0.52443 0.51463 0.36080 -0.28000
C 	C 	0.73819 0.08742 0.95075 -0.17000
C 	C 	0.09203 0.37261 0.81148 0.48900
C 	C 	0.67089 0.02710 0.86935 -0.05800
C 	C 	0.69782 0.07632 0.90874 0.16000
C 	C 	0.72371 0.00629 0.90968 -0.01300
C 	C 	0.76776 0.13660 0.99608 0.44500
C 	C 	0.75114 0.05255 0.94947 0.02800
C 	C 	0.88749 0.29497 0.03358 0.46700
C 	C 	0.90851 0.30504 0.00253 -0.25100
C 	C 	0.07043 0.36690 0.84275 -0.20500
C 	C 	0.87819 0.29047 0.95452 0.19300
C 	C 	0.00350 0.35610 0.85940 -0.21700
C 	C 	0.02630 0.35280 0.89810 0.18600
C 	C 	0.95643 0.32620 0.01943 0.19400
C 	C 	0.09358 0.36168 0.88250 0.12400
C 	C 	0.07150 0.35420 0.91010 -0.20400
C 	C 	0.94517 0.32105 0.94292 0.26500
C 	C 	0.02519 0.36456 0.83123 0.12700
C 	C 	0.89960 0.29970 0.92650 -0.30900
C 	C 	0.97557 0.33637 0.99020 -0.28100
N 	N 	0.31019 0.18581 0.81624 -0.24900
N 	N 	0.42524 0.22138 0.81810 -0.31700
N 	N 	0.36670 0.94803 0.53693 -0.11600
N 	N 	0.33379 0.92033 0.49312 -0.10600
N 	N 	0.86957 0.49395 0.68376 -0.24900
N 	N 	0.90328 0.60714 0.68190 -0.31700
N 	N 	0.91110 0.82977 0.96307 -0.11600
N 	N 	0.92721 0.84067 0.00688 -0.10600
N 	N 	0.63043 0.31419 0.62438 -0.24900
N 	N 	0.59672 0.27862 0.70386 -0.31700
N 	N 	0.58890 0.55197 0.91867 -0.11600
N 	N 	0.57279 0.57967 0.91346 -0.10600
N 	N 	0.18981 0.00605 0.87562 -0.24900
N 	N 	0.07476 0.89286 0.79614 -0.31600
N 	N 	0.13330 0.67023 0.58133 -0.11600
N 	N 	0.16621 0.65933 0.58654 -0.10600
N 	N 	0.12438 0.63043 0.81419 -0.24900
N 	N 	0.20386 0.59672 0.77862 -0.31700
N 	N 	0.41867 0.58890 0.05197 -0.11600
N 	N 	0.41346 0.57279 0.07967 -0.10600
N 	N 	0.37562 0.18981 0.50605 -0.24900
N 	N 	0.29614 0.07476 0.39286 -0.31700
N 	N 	0.08133 0.13330 0.17023 -0.11600
N 	N 	0.08654 0.16621 0.15933 -0.10600
N 	N 	0.31624 0.31019 0.68581 -0.24900
N 	N 	0.31810 0.42524 0.72138 -0.31700
N 	N 	0.03693 0.36670 0.44803 -0.11600
N 	N 	0.99312 0.33379 0.42033 -0.10600
N 	N 	0.18376 0.86957 0.99395 -0.24900
N 	N 	0.18190 0.90328 0.10714 -0.31600
N 	N 	0.46307 0.91110 0.32977 -0.11600
N 	N 	0.50688 0.92721 0.34067 -0.10600
N 	N 	0.49395 0.18376 0.36957 -0.24900
N 	N 	0.60714 0.18190 0.40328 -0.31700
N 	N 	0.82977 0.46307 0.41110 -0.11600
N 	N 	0.84067 0.50688 0.42721 -0.10600
N 	N 	0.18581 0.31624 0.81019 -0.24900
N 	N 	0.22138 0.31810 0.92524 -0.31600
N 	N 	0.94803 0.03693 0.86670 -0.11600
N 	N 	0.92033 0.99312 0.83379 -0.10600
N 	N 	0.00605 0.37562 0.68981 -0.24900
N 	N 	0.89286 0.29614 0.57476 -0.31700
N 	N 	0.67023 0.08133 0.63330 -0.11600
N 	N 	0.65933 0.08654 0.66621 -0.10600
N 	N 	0.31419 0.12438 0.13043 -0.24900
N 	N 	0.27862 0.20386 0.09672 -0.31700
N 	N 	0.55197 0.41867 0.08890 -0.11600
N 	N 	0.57967 0.41346 0.07279 -0.10600
N 	N 	0.99395 0.36957 0.18376 -0.24900
N 	N 	0.10714 0.40328 0.18190 -0.31700
N 	N 	0.32977 0.41110 0.46307 -0.11600
N 	N 	0.34067 0.42721 0.50688 -0.10600
N 	N 	0.68581 0.81019 0.31624 -0.24900
N 	N 	0.72138 0.92524 0.31810 -0.31700
N 	N 	0.44803 0.86670 0.03693 -0.11600
N 	N 	0.42033 0.83379 0.99312 -0.10600
N 	N 	0.50605 0.68981 0.37562 -0.24900
N 	N 	0.39286 0.57476 0.29614 -0.31700
N 	N 	0.17023 0.63330 0.08133 -0.11600
N 	N 	0.15933 0.66621 0.08654 -0.10600
N 	N 	0.81419 0.13043 0.12438 -0.24900
N 	N 	0.77862 0.09672 0.20386 -0.31700
N 	N 	0.05197 0.08890 0.41867 -0.11600
N 	N 	0.07967 0.07279 0.41346 -0.10600
N 	N 	0.81019 0.81624 0.18581 -0.24900
N 	N 	0.92524 0.81810 0.22138 -0.31700
N 	N 	0.86670 0.53693 0.94803 -0.11600
N 	N 	0.83379 0.49312 0.92033 -0.10600
N 	N 	0.36957 0.68376 0.49395 -0.24900
N 	N 	0.40328 0.68190 0.60714 -0.31700
N 	N 	0.41110 0.96307 0.82977 -0.11600
N 	N 	0.42721 0.00688 0.84067 -0.10600
N 	N 	0.13043 0.62438 0.31419 -0.24900
N 	N 	0.09672 0.70386 0.27862 -0.31600
N 	N 	0.08890 0.91867 0.55197 -0.11600
N 	N 	0.07279 0.91346 0.57967 -0.10600
N 	N 	0.68981 0.87562 0.00605 -0.24900
N 	N 	0.57476 0.79614 0.89286 -0.31700
N 	N 	0.63330 0.58133 0.67023 -0.11600
N 	N 	0.66621 0.58654 0.65933 -0.10600
N 	N 	0.62438 0.81419 0.63043 -0.24900
N 	N 	0.70386 0.77862 0.59672 -0.31700
N 	N 	0.91867 0.05197 0.58890 -0.11600
N 	N 	0.91346 0.07967 0.57279 -0.10600
N 	N 	0.87562 0.50605 0.18981 -0.24900
N 	N 	0.79614 0.39286 0.07476 -0.31700
N 	N 	0.58133 0.17023 0.13330 -0.11600
N 	N 	0.58654 0.15933 0.16621 -0.10600
N 	N 	0.81624 0.68581 0.31019 -0.24900
N 	N 	0.81810 0.72138 0.42524 -0.31700
N 	N 	0.53693 0.44803 0.36670 -0.11600
N 	N 	0.49312 0.42033 0.33379 -0.10600
N 	N 	0.68376 0.99395 0.86957 -0.24800
N 	N 	0.68190 0.10714 0.90328 -0.31700
N 	N 	0.96307 0.32977 0.91110 -0.11600
N 	N 	0.00688 0.34067 0.92721 -0.10600
O 	O 	0.40957 0.23108 0.73775 -0.58500
O 	O 	0.42821 0.17230 0.65899 -0.58600
O 	O 	0.23987 0.69062 0.36951 -0.57400
O 	O 	0.30882 0.70733 0.42857 -0.58600
O 	O 	0.34332 0.23821 0.70399 -0.56100
O 	O 	0.39521 0.15912 0.58109 -0.58000
O 	O 	0.99333 0.67182 0.76225 -0.58500
O 	O 	0.01331 0.76922 0.84101 -0.58600
O 	O 	0.82111 0.87036 0.13049 -0.57400
O 	O 	0.77876 0.88025 0.07143 -0.58600
O 	O 	0.03422 0.63933 0.79601 -0.56100
O 	O 	0.07803 0.81412 0.91891 -0.58000
O 	O 	0.50667 0.26892 0.67849 -0.58500
O 	O 	0.48669 0.32770 0.75591 -0.58600
O 	O 	0.67889 0.80938 0.04925 -0.57400
O 	O 	0.72124 0.79267 0.10149 -0.58600
O 	O 	0.46578 0.26179 0.60511 -0.56100
O 	O 	0.42197 0.34088 0.73609 -0.57900
O 	O 	0.09043 0.82818 0.82151 -0.58500
O 	O 	0.07179 0.73078 0.74409 -0.58600
O 	O 	0.26013 0.62964 0.45075 -0.57400
O 	O 	0.19118 0.61975 0.39851 -0.58600
O 	O 	0.15668 0.86067 0.89489 -0.56100
O 	O 	0.10479 0.68588 0.76391 -0.57900
O 	O 	0.17849 0.50667 0.76892 -0.58500
O 	O 	0.25591 0.48669 0.82770 -0.58600
O 	O 	0.54925 0.67889 0.30938 -0.57400
O 	O 	0.60149 0.72124 0.29267 -0.58600
O 	O 	0.10511 0.46578 0.76179 -0.56100
O 	O 	0.23609 0.42197 0.84088 -0.58000
O 	O 	0.32151 0.09043 0.32818 -0.58500
O 	O 	0.24409 0.07179 0.23078 -0.58600
O 	O 	0.95075 0.26013 0.12964 -0.57400
O 	O 	0.89851 0.19118 0.11975 -0.58600
O 	O 	0.39489 0.15668 0.36067 -0.56100
O 	O 	0.26391 0.10479 0.18588 -0.58000
O 	O 	0.23775 0.40957 0.73108 -0.58500
O 	O 	0.15899 0.42821 0.67230 -0.58600
O 	O 	0.86951 0.23987 0.19062 -0.57400
O 	O 	0.92857 0.30882 0.20733 -0.58600
O 	O 	0.20399 0.34332 0.73821 -0.56100
O 	O 	0.08109 0.39521 0.65912 -0.57900
O 	O 	0.26225 0.99333 0.17182 -0.58600
O 	O 	0.34101 0.01331 0.26922 -0.58600
O 	O 	0.63049 0.82111 0.37036 -0.57400
O 	O 	0.57143 0.77876 0.38025 -0.58600
O 	O 	0.29601 0.03422 0.13933 -0.56100
O 	O 	0.41891 0.07803 0.31412 -0.57900
O 	O 	0.67182 0.26225 0.49333 -0.58500
O 	O 	0.76922 0.34101 0.51331 -0.58600
O 	O 	0.87036 0.63049 0.32111 -0.57400
O 	O 	0.88025 0.57143 0.27876 -0.58600
O 	O 	0.63933 0.29601 0.53422 -0.56100
O 	O 	0.81412 0.41891 0.57803 -0.58000
O 	O 	0.23108 0.23775 0.90957 -0.58500
O 	O 	0.17230 0.15899 0.92821 -0.58600
O 	O 	0.69062 0.86951 0.73987 -0.57400
O 	O 	0.70733 0.92857 0.80882 -0.58600
O 	O 	0.23821 0.20399 0.84332 -0.56100
O 	O 	0.15912 0.08109 0.89521 -0.57900
O 	O 	0.82818 0.32151 0.59043 -0.58500
O 	O 	0.73078 0.24409 0.57179 -0.58600
O 	O 	0.62964 0.95075 0.76013 -0.57400
O 	O 	0.61975 0.89851 0.69118 -0.58600
O 	O 	0.86067 0.39489 0.65668 -0.56100
O 	O 	0.68588 0.26391 0.60479 -0.57900
O 	O 	0.26892 0.17849 0.00667 -0.58500
O 	O 	0.32770 0.25591 0.98669 -0.58600
O 	O 	0.80938 0.54925 0.17889 -0.57400
O 	O 	0.79267 0.60149 0.22124 -0.58600
O 	O 	0.26179 0.10511 0.96578 -0.56100
O 	O 	0.34088 0.23609 0.92197 -0.57900
O 	O 	0.17182 0.49333 0.26225 -0.58500
O 	O 	0.26922 0.51331 0.34101 -0.58600
O 	O 	0.37036 0.32111 0.63049 -0.57400
O 	O 	0.38025 0.27876 0.57143 -0.58600
O 	O 	0.13933 0.53422 0.29601 -0.56100
O 	O 	0.31412 0.57803 0.41891 -0.58000
O 	O 	0.73108 0.90957 0.23775 -0.58500
O 	O 	0.67230 0.92821 0.15899 -0.58600
O 	O 	0.19062 0.73987 0.86951 -0.57400
O 	O 	0.20733 0.80882 0.92857 -0.58600
O 	O 	0.73821 0.84332 0.20399 -0.56100
O 	O 	0.65912 0.89521 0.08109 -0.58000
O 	O 	0.32818 0.59043 0.32151 -0.58500
O 	O 	0.23078 0.57179 0.24409 -0.58600
O 	O 	0.12964 0.76013 0.95075 -0.57400
O 	O 	0.11975 0.69118 0.89851 -0.58600
O 	O 	0.36067 0.65668 0.39489 -0.56100
O 	O 	0.18588 0.60479 0.26391 -0.57900
O 	O 	0.76892 0.00667 0.17849 -0.58600
O 	O 	0.82770 0.98669 0.25591 -0.58600
O 	O 	0.30938 0.17889 0.54925 -0.57400
O 	O 	0.29267 0.22124 0.60149 -0.58600
O 	O 	0.76179 0.96578 0.10511 -0.56100
O 	O 	0.84088 0.92197 0.23609 -0.57900
O 	O 	0.90957 0.73775 0.23108 -0.58500
O 	O 	0.92821 0.65899 0.17230 -0.58600
O 	O 	0.73987 0.36951 0.69062 -0.57400
O 	O 	0.80882 0.42857 0.70733 -0.58600
O 	O 	0.84332 0.70399 0.23821 -0.56100
O 	O 	0.89521 0.58109 0.15912 -0.58000
O 	O 	0.49333 0.76225 0.67182 -0.58500
O 	O 	0.51331 0.84101 0.76922 -0.58600
O 	O 	0.32111 0.13049 0.87036 -0.57400
O 	O 	0.27876 0.07143 0.88025 -0.58600
O 	O 	0.53422 0.79601 0.63933 -0.56100
O 	O 	0.57803 0.91891 0.81412 -0.58000
O 	O 	0.00667 0.67849 0.26892 -0.58600
O 	O 	0.98669 0.75591 0.32770 -0.58600
O 	O 	0.17889 0.04925 0.80938 -0.57400
O 	O 	0.22124 0.10149 0.79267 -0.58600
O 	O 	0.96578 0.60511 0.26179 -0.56100
O 	O 	0.92197 0.73609 0.34088 -0.57900
O 	O 	0.59043 0.82151 0.82818 -0.58500
O 	O 	0.57179 0.74409 0.73078 -0.58600
O 	O 	0.76013 0.45075 0.62964 -0.57400
O 	O 	0.69118 0.39851 0.61975 -0.58600
O 	O 	0.65668 0.89489 0.86067 -0.56100
O 	O 	0.60479 0.76391 0.68588 -0.57900
O 	O 	0.67849 0.76892 0.50667 -0.58500
O 	O 	0.75591 0.82770 0.48669 -0.58600
O 	O 	0.04925 0.30938 0.67889 -0.57400
O 	O 	0.10149 0.29267 0.72124 -0.58600
O 	O 	0.60511 0.76179 0.46578 -0.56100
O 	O 	0.73609 0.84088 0.42197 -0.58000
O 	O 	0.82151 0.32818 0.09043 -0.58500
O 	O 	0.74409 0.23078 0.07179 -0.58600
O 	O 	0.45075 0.12964 0.26013 -0.57400
O 	O 	0.39851 0.11975 0.19118 -0.58600
O 	O 	0.89489 0.36067 0.15668 -0.56100
O 	O 	0.76391 0.18588 0.10479 -0.58000
O 	O 	0.73775 0.73108 0.40957 -0.58500
O 	O 	0.65899 0.67230 0.42821 -0.58600
O 	O 	0.36951 0.19062 0.23987 -0.57400
O 	O 	0.42857 0.20733 0.30882 -0.58600
O 	O 	0.70399 0.73821 0.34332 -0.56100
O 	O 	0.58109 0.65912 0.39521 -0.57900
O 	O 	0.76225 0.17182 0.99333 -0.58600
O 	O 	0.84101 0.26922 0.01331 -0.58600
O 	O 	0.13049 0.37036 0.82111 -0.57400
O 	O 	0.07143 0.38025 0.77876 -0.58600
O 	O 	0.79601 0.13933 0.03422 -0.56100
O 	O 	0.91891 0.31412 0.07803 -0.57900
O 	O 	0.40214 0.25000 0.65214 -1.03600
O 	O 	0.09786 0.75000 0.84786 -1.03600
O 	O 	0.15214 0.40214 0.75000 -1.03600
O 	O 	0.34786 0.09786 0.25000 -1.03600
O 	O 	0.75000 0.34786 0.59786 -1.03600
O 	O 	0.25000 0.15214 0.90214 -1.03600
O 	O 	0.25000 0.59786 0.34786 -1.03600
O 	O 	0.75000 0.90214 0.15214 -1.03600
O 	O 	0.90214 0.65214 0.25000 -1.03600
O 	O 	0.59786 0.84786 0.75000 -1.03600
O 	O 	0.65214 0.75000 0.40214 -1.03600
O 	O 	0.84786 0.25000 0.09786 -1.03600
