data_crystal

_cell_length_a 7.02360
_cell_length_b 9.85890
_cell_length_c 10.06650
_cell_angle_alpha 90.82850
_cell_angle_beta  110.41800
_cell_angle_gamma 90.00000

_symmetry_space_group_name_	'P 1'
_symmetry_space_group_name_H-M	'P 1'

loop_
_symmetry_equiv_pos_as_xyz
  x,y,z

loop_
_atom_site_label
_atom_site_type_symbol
_atom_site_fract_x
_atom_site_fract_y
_atom_site_fract_z
_atom_site_charge
Cu	Cu	0.06378 0.25000 -0.00000 0.85600
Cu	Cu	0.93622 0.75000 -0.00000 0.85000
P 	P 	0.91308 0.99309 0.79116 0.39700
P 	P 	0.12192 0.50691 0.20884 0.42200
P 	P 	0.08692 0.00691 0.20884 0.42000
P 	P 	0.87808 0.49309 0.79116 0.40200
H 	H 	1.00000 0.79330 0.60700 0.08500
H 	H 	0.93970 0.19790 0.60500 0.07900
H 	H 	0.50370 0.96920 0.59600 0.08700
H 	H 	0.40900 0.03540 0.70100 0.10800
H 	H 	0.53360 0.90090 0.74140 0.11000
H 	H 	0.39300 0.70670 0.39300 0.05700
H 	H 	0.33470 0.30210 0.39500 0.05200
H 	H 	0.90770 0.53080 0.40400 0.04600
H 	H 	0.70800 0.46460 0.29900 0.04500
H 	H 	0.79220 0.59910 0.25860 0.03300
H 	H 	1.00000 0.20670 0.39300 0.01400
H 	H 	0.06030 0.80210 0.39500 0.02700
H 	H 	0.49630 0.03080 0.40400 0.07100
H 	H 	0.59100 0.96460 0.29900 0.07100
H 	H 	0.46640 0.09910 0.25860 0.05500
H 	H 	0.60700 0.29330 0.60700 0.06400
H 	H 	0.66530 0.69790 0.60500 0.05400
H 	H 	0.09230 0.46920 0.59600 0.10500
H 	H 	0.29200 0.53540 0.70100 0.12400
H 	H 	0.20780 0.40090 0.74140 0.12400
C 	C 	0.96280 0.99480 0.62620 0.01000
C 	C 	0.99980 0.87620 0.56400 -0.12100
C 	C 	0.96370 0.11840 0.56260 -0.12300
C 	C 	0.52280 0.98580 0.69400 -0.16500
C 	C 	0.33660 0.50520 0.37380 -0.04800
C 	C 	0.43580 0.62380 0.43600 -0.03900
C 	C 	0.40110 0.38160 0.43740 -0.03500
C 	C 	0.82880 0.51420 0.30600 -0.05400
C 	C 	0.03720 0.00520 0.37380 -0.10700
C 	C 	0.00020 0.12380 0.43600 0.05600
C 	C 	0.03630 0.88160 0.43740 0.05000
C 	C 	0.47720 0.01420 0.30600 -0.12600
C 	C 	0.66340 0.49480 0.62620 -0.03700
C 	C 	0.56420 0.37620 0.56400 -0.04500
C 	C 	0.59890 0.61840 0.56260 -0.04100
C 	C 	0.17120 0.48580 0.69400 -0.21100
O 	O 	0.06210 0.08550 0.89480 -0.26600
O 	O 	0.69800 0.06030 0.75640 -0.19300
O 	O 	0.90770 0.84700 0.82900 -0.30700
O 	O 	0.16730 0.41450 0.10520 -0.43600
O 	O 	0.94160 0.43970 0.24360 -0.27300
O 	O 	0.07870 0.65300 0.17100 -0.39800
O 	O 	0.93790 0.91450 0.10520 -0.44300
O 	O 	0.30200 0.93970 0.24360 -0.24200
O 	O 	0.09230 0.15300 0.17100 -0.40300
O 	O 	0.83270 0.58550 0.89480 -0.27800
O 	O 	0.05840 0.56030 0.75640 -0.17200
O 	O 	0.92130 0.34700 0.82900 -0.31100
