data_crystal

_cell_length_a 15.33010
_cell_length_b 15.33010
_cell_length_c 15.33010
_cell_angle_alpha 102.03800
_cell_angle_beta  102.03800
_cell_angle_gamma 102.03800

_symmetry_space_group_name_	'P 1'
_symmetry_space_group_name_H-M	'P 1'

loop_
_symmetry_equiv_pos_as_xyz
  x,y,z

loop_
_atom_site_label
_atom_site_type_symbol
_atom_site_fract_x
_atom_site_fract_y
_atom_site_fract_z
_atom_site_charge
Zn	Zn	0.02298 0.02298 0.41653 1.19200
Zn	Zn	0.41653 0.02298 0.02298 1.19300
Zn	Zn	0.02298 0.41653 0.02298 1.19300
Zn	Zn	0.97702 0.97702 0.58347 1.19500
Zn	Zn	0.97702 0.58347 0.97702 1.19500
Zn	Zn	0.58347 0.97702 0.97702 1.19400
H 	H 	0.30370 0.01420 0.49380 0.04400
H 	H 	0.49380 0.30370 0.01420 0.04400
H 	H 	0.01420 0.49380 0.30370 0.04400
H 	H 	0.98580 0.69630 0.50620 0.04500
H 	H 	0.69630 0.50620 0.98580 0.04500
H 	H 	0.50620 0.98580 0.69630 0.04400
H 	H 	0.69630 0.98580 0.50620 0.04500
H 	H 	0.50620 0.69630 0.98580 0.04500
H 	H 	0.98580 0.50620 0.69630 0.04400
H 	H 	0.01420 0.30370 0.49380 0.04400
H 	H 	0.30370 0.49380 0.01420 0.04500
H 	H 	0.49380 0.01420 0.30370 0.04400
H 	H 	0.25925 0.00000 0.74075 0.03700
H 	H 	0.74075 0.25925 -0.00000 0.03700
H 	H 	-0.00000 0.74075 0.25925 0.03700
H 	H 	0.74075 0.00000 0.25925 0.03700
H 	H 	0.25925 0.74075 1.00000 0.04000
H 	H 	-0.00000 0.25925 0.74075 0.03700
C 	C 	0.26686 0.00639 0.61237 -0.10800
C 	C 	0.32398 0.00806 0.55319 -0.01100
C 	C 	0.16914 0.01267 0.57820 0.40100
C 	C 	0.61237 0.26686 0.00639 -0.10800
C 	C 	0.55319 0.32398 0.00806 -0.01000
C 	C 	0.57820 0.16914 0.01267 0.40500
C 	C 	0.00639 0.61237 0.26686 -0.10700
C 	C 	0.00806 0.55319 0.32398 -0.01100
C 	C 	0.01267 0.57820 0.16914 0.40100
C 	C 	0.99361 0.73314 0.38763 -0.10500
C 	C 	0.99194 0.67602 0.44681 -0.00600
C 	C 	0.98733 0.83086 0.42180 0.41100
C 	C 	0.73314 0.38763 0.99361 -0.10700
C 	C 	0.67602 0.44681 0.99194 -0.00900
C 	C 	0.83086 0.42180 0.98733 0.40800
C 	C 	0.38763 0.99361 0.73314 -0.10600
C 	C 	0.44681 0.99194 0.67602 -0.00600
C 	C 	0.42180 0.98733 0.83086 0.41100
C 	C 	0.73314 0.99361 0.38763 -0.10500
C 	C 	0.67602 0.99194 0.44681 -0.00600
C 	C 	0.83086 0.98733 0.42180 0.41100
C 	C 	0.38763 0.73314 0.99361 -0.10600
C 	C 	0.44681 0.67602 0.99194 -0.01000
C 	C 	0.42180 0.83086 0.98733 0.40700
C 	C 	0.99361 0.38763 0.73314 -0.10600
C 	C 	0.99194 0.44681 0.67602 -0.00600
C 	C 	0.98733 0.42180 0.83086 0.41100
C 	C 	0.00639 0.26686 0.61237 -0.10800
C 	C 	0.00806 0.32398 0.55319 -0.01100
C 	C 	0.01267 0.16914 0.57820 0.40100
C 	C 	0.26686 0.61237 0.00639 -0.10700
C 	C 	0.32398 0.55319 0.00806 -0.01200
C 	C 	0.16914 0.57820 0.01267 0.40400
C 	C 	0.61237 0.00639 0.26686 -0.10700
C 	C 	0.55319 0.00806 0.32398 -0.01100
C 	C 	0.57820 0.01267 0.16914 0.40100
C 	C 	0.41357 0.00000 0.58643 -0.00100
C 	C 	0.29829 0.00000 0.70171 0.04400
C 	C 	0.47598 0.00000 0.52403 -0.01600
C 	C 	0.58643 0.41357 -0.00000 0.00100
C 	C 	0.70171 0.29829 -0.00000 0.04700
C 	C 	0.52403 0.47597 -0.00000 -0.01500
C 	C 	-0.00000 0.58643 0.41357 -0.00100
C 	C 	-0.00000 0.70171 0.29829 0.04400
C 	C 	-0.00000 0.52402 0.47597 -0.01600
C 	C 	0.58643 0.00000 0.41357 -0.00100
C 	C 	0.70171 0.00000 0.29829 0.04400
C 	C 	0.52402 -0.00000 0.47597 -0.01600
C 	C 	0.41357 0.58643 -0.00000 0.00300
C 	C 	0.29829 0.70171 -0.00000 0.04300
C 	C 	0.47597 0.52402 -0.00000 -0.01600
C 	C 	0.00000 0.41357 0.58643 -0.00100
C 	C 	-0.00000 0.29829 0.70171 0.04400
C 	C 	0.00000 0.47598 0.52403 -0.01600
O 	O 	0.14651 0.02603 0.49972 -0.49300
O 	O 	0.11697 0.99754 0.62837 -0.46900
O 	O 	0.49972 0.14651 0.02603 -0.49300
O 	O 	0.62837 0.11697 0.99754 -0.47200
O 	O 	0.02603 0.49972 0.14651 -0.49300
O 	O 	0.99754 0.62837 0.11697 -0.46800
O 	O 	0.97397 0.85349 0.50028 -0.49100
O 	O 	0.00246 0.88303 0.37163 -0.47500
O 	O 	0.85349 0.50028 0.97397 -0.49100
O 	O 	0.88303 0.37163 0.00246 -0.47300
O 	O 	0.50028 0.97397 0.85349 -0.49200
O 	O 	0.37163 0.00246 0.88303 -0.47700
O 	O 	0.85349 0.97397 0.50028 -0.49100
O 	O 	0.88303 0.00246 0.37163 -0.47500
O 	O 	0.50028 0.85349 0.97397 -0.49100
O 	O 	0.37163 0.88303 0.00246 -0.47300
O 	O 	0.97397 0.50028 0.85349 -0.49200
O 	O 	0.00246 0.37163 0.88303 -0.47700
O 	O 	0.02603 0.14651 0.49972 -0.49300
O 	O 	0.99754 0.11697 0.62837 -0.46900
O 	O 	0.14651 0.49972 0.02603 -0.49300
O 	O 	0.11697 0.62837 0.99754 -0.47200
O 	O 	0.49972 0.02603 0.14651 -0.49300
O 	O 	0.62837 0.99754 0.11697 -0.46800
