data_crystal

_cell_length_a 8.06590
_cell_length_b 21.26210
_cell_length_c 22.71820
_cell_angle_alpha 82.91900
_cell_angle_beta  82.36900
_cell_angle_gamma 80.02500

_symmetry_space_group_name_	'P 1'
_symmetry_space_group_name_H-M	'P 1'

loop_
_symmetry_equiv_pos_as_xyz
  x,y,z

loop_
_atom_site_label
_atom_site_type_symbol
_atom_site_fract_x
_atom_site_fract_y
_atom_site_fract_z
_atom_site_charge
Yb	Yb	0.80241 0.42291 0.28441 1.48000
Yb	Yb	0.38714 0.47082 0.43305 1.55500
Yb	Yb	0.46276 0.24693 0.09610 1.48100
Yb	Yb	0.23953 0.09279 0.03710 1.52500
Yb	Yb	0.19759 0.57709 0.71559 1.48000
Yb	Yb	0.61286 0.52918 0.56695 1.55500
Yb	Yb	0.53724 0.75307 0.90391 1.48100
Yb	Yb	0.76047 0.90721 0.96290 1.52500
H 	H 	0.56410 0.64420 0.25260 0.13900
H 	H 	0.53890 0.71290 0.43880 0.06200
H 	H 	0.44730 0.78460 0.36120 0.26300
H 	H 	0.40240 0.77130 0.12510 0.18600
H 	H 	0.97110 0.74720 0.14990 0.06400
H 	H 	0.76860 0.74610 0.23210 0.18700
H 	H 	0.34020 0.28210 0.43110 0.16200
H 	H 	0.33800 0.18530 0.26020 0.01600
H 	H 	0.23560 0.13780 0.35150 0.25900
H 	H 	0.97760 0.27040 0.41560 0.13900
H 	H 	0.97940 0.31380 0.61040 0.06300
H 	H 	0.13360 0.21900 0.57820 0.23300
H 	H 	0.64670 0.08900 0.21770 0.14600
H 	H 	0.84740 0.88530 0.16280 0.04000
H 	H 	0.89660 0.91130 0.25320 0.25500
H 	H 	0.03860 0.07150 0.21620 0.16000
H 	H 	0.77540 0.24460 0.31580 0.01700
H 	H 	0.71860 0.14320 0.35160 0.24600
H 	H 	0.43590 0.35580 0.74740 0.13800
H 	H 	0.46110 0.28710 0.56120 0.06100
H 	H 	0.55270 0.21540 0.63880 0.26200
H 	H 	0.59760 0.22870 0.87490 0.18500
H 	H 	0.02890 0.25280 0.85010 0.06300
H 	H 	0.23140 0.25390 0.76790 0.18600
H 	H 	0.65980 0.71790 0.56890 0.16100
H 	H 	0.66200 0.81470 0.73980 0.01500
H 	H 	0.76440 0.86220 0.64850 0.25800
H 	H 	0.02240 0.72960 0.58440 0.13900
H 	H 	0.02060 0.68620 0.38960 0.06300
H 	H 	0.86640 0.78100 0.42180 0.23300
H 	H 	0.35330 0.91100 0.78230 0.14600
H 	H 	0.15260 0.11470 0.83720 0.04000
H 	H 	0.10340 0.08870 0.74680 0.25500
H 	H 	0.96140 0.92850 0.78380 0.16000
H 	H 	0.22460 0.75540 0.68420 0.01700
H 	H 	0.28140 0.85680 0.64840 0.24600
C 	C 	0.43650 0.76720 0.24410 -0.48800
C 	C 	0.49660 0.72260 0.29730 0.34300
C 	C 	0.55330 0.65780 0.29050 -0.20500
C 	C 	0.59440 0.61260 0.33830 0.06100
C 	C 	0.58740 0.63340 0.39510 -0.14400
C 	C 	0.53790 0.69850 0.40180 0.15900
C 	C 	0.48760 0.74200 0.35480 -0.24800
C 	C 	0.65440 0.54450 0.32580 0.30100
C 	C 	0.62030 0.58970 0.44940 0.37700
C 	C 	0.56590 0.76080 0.18770 0.32700
C 	C 	0.51630 0.76810 0.13010 -0.19000
C 	C 	0.63800 0.77050 0.08000 0.04100
C 	C 	0.80920 0.76630 0.08680 -0.13300
C 	C 	0.85690 0.75430 0.14440 0.13100
C 	C 	0.73450 0.75280 0.19400 -0.25000
C 	C 	0.58440 0.77460 0.01980 0.28900
C 	C 	0.94310 0.77550 0.03540 0.35600
C 	C 	0.26180 0.75250 0.23530 0.96300
C 	C 	0.41740 0.83930 0.25510 0.96200
C 	C 	0.19760 0.18010 0.46350 -0.47600
C 	C 	0.27330 0.20550 0.40130 0.35400
C 	C 	0.33710 0.26300 0.39660 -0.22500
C 	C 	0.39560 0.29220 0.34220 0.05700
C 	C 	0.39270 0.26330 0.29000 -0.14500
C 	C 	0.33580 0.20540 0.29450 0.17500
C 	C 	0.27530 0.17670 0.34930 -0.26800
C 	C 	0.46840 0.35360 0.34150 0.35600
C 	C 	0.42520 0.30080 0.22970 0.36000
C 	C 	0.08190 0.23640 0.49200 0.32300
C 	C 	0.98110 0.27960 0.45440 -0.18000
C 	C 	0.88650 0.33570 0.47360 0.03700
C 	C 	0.88990 0.35020 0.53170 -0.09000
C 	C 	0.98130 0.30560 0.57100 0.12800
C 	C 	0.07530 0.24870 0.55150 -0.21600
C 	C 	0.78030 0.37890 0.43070 0.36000
C 	C 	0.81650 0.41440 0.54980 0.30200
C 	C 	0.35000 0.15190 0.49950 0.96100
C 	C 	0.09030 0.12690 0.46360 0.97300
C 	C 	0.82540 0.02730 0.30090 -0.46300
C 	C 	0.78460 0.00390 0.24360 0.33800
C 	C 	0.68860 0.04820 0.20620 -0.19500
C 	C 	0.65440 0.03260 0.15220 0.04700
C 	C 	0.71500 0.97170 0.13440 -0.09000
C 	C 	0.80720 0.92650 0.17360 0.16600
C 	C 	0.83860 0.94220 0.22740 -0.22800
C 	C 	0.56560 0.08480 0.11100 0.33900
C 	C 	0.71600 0.95380 0.07290 0.31400
C 	C 	0.86450 0.09670 0.28560 0.33700
C 	C 	0.98150 0.10660 0.23530 -0.20500
C 	C 	0.01380 0.16720 0.21360 0.03600
C 	C 	0.92750 0.22030 0.24320 -0.12900
C 	C 	0.82440 0.20990 0.29470 0.15700
C 	C 	0.79050 0.14900 0.31650 -0.25100
C 	C 	0.14680 0.17160 0.16030 0.37300
C 	C 	0.92870 0.28980 0.21310 0.37800
C 	C 	0.66980 0.02170 0.34790 0.97400
C 	C 	0.98410 0.98570 0.32610 0.95000
C 	C 	0.56350 0.23280 0.75590 -0.48800
C 	C 	0.50340 0.27740 0.70270 0.34300
C 	C 	0.44670 0.34220 0.70950 -0.20500
C 	C 	0.40560 0.38740 0.66170 0.06100
C 	C 	0.41260 0.36660 0.60490 -0.14400
C 	C 	0.46210 0.30150 0.59820 0.15900
C 	C 	0.51240 0.25800 0.64520 -0.24800
C 	C 	0.34560 0.45550 0.67420 0.30100
C 	C 	0.37970 0.41030 0.55060 0.37700
C 	C 	0.43410 0.23920 0.81230 0.32700
C 	C 	0.48370 0.23190 0.86990 -0.19000
C 	C 	0.36200 0.22950 0.92000 0.04100
C 	C 	0.19080 0.23370 0.91320 -0.13300
C 	C 	0.14310 0.24570 0.85560 0.13100
C 	C 	0.26550 0.24720 0.80600 -0.25000
C 	C 	0.41560 0.22540 0.98020 0.28900
C 	C 	0.05690 0.22450 0.96460 0.35600
C 	C 	0.73820 0.24750 0.76470 0.96300
C 	C 	0.58260 0.16070 0.74490 0.96200
C 	C 	0.80240 0.81990 0.53650 -0.47600
C 	C 	0.72670 0.79450 0.59870 0.35400
C 	C 	0.66290 0.73700 0.60340 -0.22500
C 	C 	0.60440 0.70780 0.65780 0.05700
C 	C 	0.60730 0.73670 0.71000 -0.14500
C 	C 	0.66420 0.79460 0.70550 0.17500
C 	C 	0.72470 0.82330 0.65070 -0.26800
C 	C 	0.53160 0.64640 0.65850 0.35600
C 	C 	0.57480 0.69920 0.77030 0.36000
C 	C 	0.91810 0.76360 0.50800 0.32300
C 	C 	0.01890 0.72040 0.54560 -0.18000
C 	C 	0.11350 0.66430 0.52640 0.03700
C 	C 	0.11010 0.64980 0.46830 -0.09000
C 	C 	0.01870 0.69440 0.42900 0.12800
C 	C 	0.92470 0.75130 0.44850 -0.21600
C 	C 	0.21970 0.62110 0.56930 0.36000
C 	C 	0.18350 0.58560 0.45020 0.30200
C 	C 	0.65000 0.84810 0.50050 0.96100
C 	C 	0.90970 0.87310 0.53640 0.97300
C 	C 	0.17460 0.97270 0.69910 -0.46300
C 	C 	0.21540 0.99610 0.75640 0.33800
C 	C 	0.31140 0.95180 0.79380 -0.19500
C 	C 	0.34560 0.96740 0.84780 0.04700
C 	C 	0.28500 0.02830 0.86560 -0.09000
C 	C 	0.19280 0.07350 0.82640 0.16600
C 	C 	0.16140 0.05780 0.77260 -0.22800
C 	C 	0.43440 0.91520 0.88900 0.33900
C 	C 	0.28400 0.04620 0.92710 0.31400
C 	C 	0.13550 0.90330 0.71440 0.33700
C 	C 	0.01850 0.89340 0.76470 -0.20500
C 	C 	0.98620 0.83280 0.78640 0.03600
C 	C 	0.07250 0.77970 0.75680 -0.12900
C 	C 	0.17560 0.79010 0.70530 0.15700
C 	C 	0.20950 0.85100 0.68350 -0.25100
C 	C 	0.85320 0.82840 0.83970 0.37300
C 	C 	0.07130 0.71020 0.78690 0.37800
C 	C 	0.33020 0.97830 0.65210 0.97400
C 	C 	0.01590 0.01430 0.67390 0.95000
O 	O 	0.79330 0.53170 0.29400 -0.41000
O 	O 	0.56810 0.50010 0.34366 -0.45200
O 	O 	0.56230 0.53710 0.45780 -0.46500
O 	O 	0.69250 0.60700 0.48903 -0.37400
O 	O 	0.64890 0.80930 0.97619 -0.47700
O 	O 	0.47900 0.74020 0.01020 -0.38400
O 	O 	0.94210 0.83280 0.01090 -0.40500
O 	O 	0.05210 0.72900 0.02140 -0.25800
O 	O 	0.61410 0.35510 0.31435 -0.42100
O 	O 	0.37960 0.39720 0.37000 -0.43000
O 	O 	0.49860 0.26920 0.18600 -0.43800
O 	O 	0.37330 0.36020 0.22440 -0.30500
O 	O 	0.85710 0.39280 0.37858 -0.42500
O 	O 	0.62730 0.39740 0.44653 -0.39100
O 	O 	0.74690 0.42250 0.60236 -0.34000
O 	O 	0.82390 0.46160 0.51000 -0.36200
O 	O 	0.55740 0.14150 0.12180 -0.42200
O 	O 	0.50690 0.06750 0.06670 -0.40200
O 	O 	0.61020 0.92190 0.05910 -0.34300
O 	O 	0.83610 0.96910 0.03410 -0.37000
O 	O 	0.23810 0.21420 0.15690 -0.42100
O 	O 	0.16180 0.12940 0.12480 -0.45500
O 	O 	0.93000 0.33170 0.24740 -0.45200
O 	O 	0.91790 0.29870 0.15840 -0.30500
O 	O 	0.20670 0.46830 0.70600 -0.41000
O 	O 	0.43190 0.49990 0.65634 -0.45200
O 	O 	0.43770 0.46290 0.54220 -0.46500
O 	O 	0.30750 0.39300 0.51097 -0.37400
O 	O 	0.35110 0.19070 0.02381 -0.47700
O 	O 	0.52100 0.25980 0.98980 -0.38400
O 	O 	0.05790 0.16720 0.98910 -0.40500
O 	O 	0.94790 0.27100 0.97860 -0.25800
O 	O 	0.38590 0.64490 0.68565 -0.42100
O 	O 	0.62040 0.60280 0.63000 -0.43000
O 	O 	0.50140 0.73080 0.81400 -0.43800
O 	O 	0.62670 0.63980 0.77560 -0.30400
O 	O 	0.14290 0.60720 0.62142 -0.42500
O 	O 	0.37270 0.60260 0.55347 -0.39100
O 	O 	0.25310 0.57750 0.39764 -0.34000
O 	O 	0.17610 0.53840 0.49000 -0.36200
O 	O 	0.44260 0.85850 0.87820 -0.42200
O 	O 	0.49310 0.93250 0.93330 -0.40200
O 	O 	0.38980 0.07810 0.94090 -0.34300
O 	O 	0.16390 0.03090 0.96590 -0.37000
O 	O 	0.76190 0.78580 0.84310 -0.42100
O 	O 	0.83820 0.87060 0.87520 -0.45500
O 	O 	0.07000 0.66830 0.75260 -0.45200
O 	O 	0.08210 0.70130 0.84160 -0.30500
F 	F 	0.16080 0.74750 0.28660 -0.46900
F 	F 	0.17630 0.79950 0.19884 -0.46600
F 	F 	0.27260 0.69840 0.21037 -0.52600
F 	F 	0.28630 0.85560 0.29677 -0.38700
F 	F 	0.55580 0.85230 0.27387 -0.46100
F 	F 	0.38710 0.87840 0.20600 -0.45600
F 	F 	0.43190 0.19697 0.51079 -0.48800
F 	F 	0.46240 0.10990 0.46900 -0.35500
F 	F 	0.30200 0.12030 0.55212 -0.35900
F 	F 	0.00760 0.11330 0.51727 -0.35700
F 	F 	0.18040 0.07242 0.44681 -0.34900
F 	F 	0.97230 0.14577 0.42594 -0.45600
F 	F 	0.62320 0.96409 0.35189 -0.36100
F 	F 	0.53690 0.06429 0.33242 -0.46600
F 	F 	0.69690 0.03180 0.40226 -0.34400
F 	F 	0.95530 0.92628 0.34971 -0.36100
F 	F 	0.11480 0.97814 0.28361 -0.43300
F 	F 	0.03140 0.01250 0.36950 -0.35900
F 	F 	0.83920 0.25250 0.71340 -0.46900
F 	F 	0.82370 0.20050 0.80116 -0.46600
F 	F 	0.72740 0.30160 0.78963 -0.52600
F 	F 	0.71370 0.14440 0.70323 -0.38700
F 	F 	0.44420 0.14770 0.72613 -0.46100
F 	F 	0.61290 0.12160 0.79400 -0.45600
F 	F 	0.56810 0.80303 0.48921 -0.48800
F 	F 	0.53760 0.89010 0.53100 -0.35500
F 	F 	0.69800 0.87970 0.44788 -0.35900
F 	F 	0.99240 0.88670 0.48273 -0.35700
F 	F 	0.81960 0.92758 0.55319 -0.34900
F 	F 	0.02770 0.85423 0.57406 -0.45600
F 	F 	0.37680 0.03591 0.64811 -0.36100
F 	F 	0.46310 0.93571 0.66758 -0.46600
F 	F 	0.30310 0.96820 0.59774 -0.34400
F 	F 	0.04470 0.07372 0.65029 -0.36100
F 	F 	0.88520 0.02186 0.71639 -0.43300
F 	F 	0.96860 0.98750 0.63050 -0.35900
