data_crystal

_cell_length_a 6.70170
_cell_length_b 14.39580
_cell_length_c 14.94050
_cell_angle_alpha 90.00000
_cell_angle_beta  90.00000
_cell_angle_gamma 90.00000

_symmetry_space_group_name_	'P 1'
_symmetry_space_group_name_H-M	'P 1'

loop_
_symmetry_equiv_pos_as_xyz
  x,y,z

loop_
_atom_site_label
_atom_site_type_symbol
_atom_site_fract_x
_atom_site_fract_y
_atom_site_fract_z
_atom_site_charge
Ca	Ca	0.86327 0.80386 0.45807 1.50400
Ca	Ca	0.63673 0.19614 0.95807 1.50400
Ca	Ca	0.13673 0.30386 0.04193 1.50400
Ca	Ca	0.36327 0.69614 0.54193 1.50400
H 	H 	0.85340 0.66020 0.75120 0.02400
H 	H 	0.89130 0.54860 0.86250 0.03800
H 	H 	0.86490 0.26750 0.71010 0.06000
H 	H 	0.86870 0.22630 0.56360 0.03700
H 	H 	0.87840 0.33880 0.45170 0.02900
H 	H 	0.87580 0.49310 0.48820 0.06600
H 	H 	0.64660 0.33980 0.25120 0.02400
H 	H 	0.60870 0.45140 0.36250 0.03800
H 	H 	0.63510 0.73250 0.21010 0.06000
H 	H 	0.63130 0.77370 0.06360 0.03800
H 	H 	0.62160 0.66120 0.95170 0.02700
H 	H 	0.62420 0.50690 0.98820 0.06400
H 	H 	0.14660 0.16020 0.74880 0.02200
H 	H 	0.10870 0.04860 0.63750 0.04000
H 	H 	0.13510 0.76750 0.78990 0.05900
H 	H 	0.13130 0.72630 0.93640 0.03900
H 	H 	0.12160 0.83880 0.04830 0.02500
H 	H 	0.12420 0.99310 0.01180 0.06500
H 	H 	0.35340 0.83980 0.24880 0.02300
H 	H 	0.39130 0.95140 0.13750 0.03900
H 	H 	0.36490 0.23250 0.28990 0.05900
H 	H 	0.36870 0.27370 0.43640 0.03800
H 	H 	0.37840 0.16120 0.54830 0.02800
H 	H 	0.37580 0.00690 0.51180 0.06700
C 	C 	0.86320 0.64910 0.57878 0.38400
C 	C 	0.86560 0.57299 0.64792 -0.16300
C 	C 	0.86470 0.59784 0.73556 -0.00900
C 	C 	0.88060 0.52986 0.80306 -0.02400
C 	C 	0.88090 0.43773 0.78351 -0.11500
C 	C 	0.87250 0.40853 0.69253 0.03500
C 	C 	0.87220 0.47751 0.62367 0.04600
C 	C 	0.86870 0.31344 0.66638 -0.07900
C 	C 	0.87050 0.28883 0.57912 -0.04000
C 	C 	0.87500 0.35666 0.51151 -0.01800
C 	C 	0.87460 0.44867 0.53344 -0.10700
C 	C 	0.89140 0.37012 0.86171 0.41000
C 	C 	0.63680 0.35090 0.07878 0.38600
C 	C 	0.63440 0.42701 0.14792 -0.16200
C 	C 	0.63530 0.40216 0.23556 -0.00900
C 	C 	0.61940 0.47014 0.30306 -0.02300
C 	C 	0.61910 0.56227 0.28351 -0.11500
C 	C 	0.62750 0.59147 0.19253 0.03500
C 	C 	0.62780 0.52249 0.12367 0.04600
C 	C 	0.63130 0.68656 0.16638 -0.07900
C 	C 	0.62950 0.71117 0.07912 -0.04000
C 	C 	0.62500 0.64334 0.01151 -0.01600
C 	C 	0.62540 0.55133 0.03344 -0.10500
C 	C 	0.60860 0.62988 0.36171 0.41200
C 	C 	0.13680 0.14910 0.92122 0.38800
C 	C 	0.13440 0.07299 0.85208 -0.16700
C 	C 	0.13530 0.09784 0.76444 -0.00500
C 	C 	0.11940 0.02986 0.69694 -0.02800
C 	C 	0.11910 0.93773 0.71649 -0.11200
C 	C 	0.12750 0.90853 0.80747 0.03200
C 	C 	0.12780 0.97751 0.87633 0.05000
C 	C 	0.13130 0.81344 0.83362 -0.07600
C 	C 	0.12950 0.78883 0.92088 -0.04300
C 	C 	0.12500 0.85666 0.98849 -0.01200
C 	C 	0.12540 0.94867 0.96656 -0.10700
C 	C 	0.10860 0.87012 0.63829 0.41300
C 	C 	0.36320 0.85090 0.42122 0.38700
C 	C 	0.36560 0.92701 0.35208 -0.16400
C 	C 	0.36470 0.90216 0.26444 -0.00600
C 	C 	0.38060 0.97014 0.19694 -0.02600
C 	C 	0.38090 0.06227 0.21649 -0.11200
C 	C 	0.37250 0.09147 0.30747 0.03300
C 	C 	0.37220 0.02249 0.37633 0.04800
C 	C 	0.36870 0.18656 0.33362 -0.07800
C 	C 	0.37050 0.21117 0.42088 -0.04100
C 	C 	0.37500 0.14334 0.48849 -0.01600
C 	C 	0.37460 0.05133 0.46656 -0.10800
C 	C 	0.39140 0.12988 0.13829 0.41100
O 	O 	0.71874 0.70453 0.57848 -0.56000
O 	O 	0.00807 0.65653 0.52528 -0.54500
O 	O 	0.78280 0.29948 0.85891 -0.49400
O 	O 	0.00760 0.39130 0.92411 -0.48300
O 	O 	0.78126 0.29547 0.07848 -0.55800
O 	O 	0.49193 0.34347 0.02528 -0.54500
O 	O 	0.71720 0.70052 0.35891 -0.49500
O 	O 	0.49240 0.60870 0.42411 -0.48400
O 	O 	0.28126 0.20453 0.92152 -0.56100
O 	O 	0.99193 0.15653 0.97472 -0.54800
O 	O 	0.21720 0.79948 0.64109 -0.49400
O 	O 	0.99240 0.89130 0.57589 -0.48600
O 	O 	0.21874 0.79547 0.42152 -0.56000
O 	O 	0.50807 0.84347 0.47472 -0.54700
O 	O 	0.28280 0.20052 0.14109 -0.49400
O 	O 	0.50760 0.10870 0.07589 -0.48200
