data_crystal

_cell_length_a 32.44100
_cell_length_b 32.44100
_cell_length_c 33.13240
_cell_angle_alpha 60.68790
_cell_angle_beta  60.68790
_cell_angle_gamma 90.00000

_symmetry_space_group_name_	'P 1'
_symmetry_space_group_name_H-M	'P 1'

loop_
_symmetry_equiv_pos_as_xyz
  x,y,z

loop_
_atom_site_label
_atom_site_type_symbol
_atom_site_fract_x
_atom_site_fract_y
_atom_site_fract_z
_atom_site_charge
K 	K 	0.87500 0.63362 0.75000 0.66400
K 	K 	0.37500 0.61638 0.75000 0.66400
K 	K 	0.38362 0.62500 0.25000 0.66400
K 	K 	0.36638 0.12500 0.25000 0.66400
Zn	Zn	0.03031 0.63196 0.70492 1.22800
Zn	Zn	0.03560 0.75136 0.63030 1.22800
Zn	Zn	0.03556 0.67652 0.58886 1.22900
Zn	Zn	0.77784 0.20551 0.41014 1.22100
Zn	Zn	0.26477 0.66312 0.70492 1.23000
Zn	Zn	0.33410 0.61834 0.63030 1.23000
Zn	Zn	0.37558 0.73462 0.58886 1.23100
Zn	Zn	0.81202 0.38435 0.41014 1.22100
Zn	Zn	0.38196 0.51477 0.20492 1.23000
Zn	Zn	0.50136 0.58410 0.13030 1.23000
Zn	Zn	0.42652 0.62558 0.08886 1.23100
Zn	Zn	0.95551 0.06202 0.91014 1.22200
Zn	Zn	0.41312 0.28031 0.20492 1.23000
Zn	Zn	0.36834 0.28560 0.13030 1.23000
Zn	Zn	0.48462 0.28556 0.08886 1.23100
Zn	Zn	0.13435 0.02784 0.91014 1.22200
Zn	Zn	0.48523 0.61804 0.79508 1.23000
Zn	Zn	0.41590 0.49864 0.86970 1.23000
Zn	Zn	0.37442 0.57348 0.91114 1.23200
Zn	Zn	0.93798 0.04449 0.08986 1.22100
Zn	Zn	0.71969 0.58688 0.79508 1.23000
Zn	Zn	0.71440 0.63166 0.86970 1.23000
Zn	Zn	0.71444 0.51538 0.91114 1.23200
Zn	Zn	0.97216 0.86565 0.08986 1.22300
Zn	Zn	0.33688 0.73523 0.29508 1.23000
Zn	Zn	0.38166 0.66590 0.36970 1.23000
Zn	Zn	0.26538 0.62442 0.41114 1.23100
Zn	Zn	0.61565 0.18798 0.58986 1.22100
Zn	Zn	0.36804 0.96969 0.29508 1.22900
Zn	Zn	0.24864 0.96440 0.36970 1.22900
Zn	Zn	0.32348 0.96444 0.41114 1.23100
Zn	Zn	0.79449 0.22216 0.58986 1.22100
Zn	Zn	0.81546 0.31546 0.36908 1.22900
Zn	Zn	0.06546 0.06546 0.86908 1.22700
Zn	Zn	0.93454 0.93454 0.13092 1.22900
Zn	Zn	0.68454 0.18454 0.63092 1.22900
Zn	Zn	0.75000 0.25000 0.50000 1.18400
Zn	Zn	-0.00000 0.00000 -0.00000 1.17700
H 	H 	0.74720 0.15610 0.50580 0.14100
H 	H 	0.98580 0.67320 0.66980 0.28800
H 	H 	0.72940 0.25380 0.43540 0.30500
H 	H 	0.95400 0.50680 0.88300 0.03100
H 	H 	0.88890 0.44630 0.97440 0.07800
H 	H 	0.79820 0.52590 0.95640 0.08100
H 	H 	0.86020 0.58300 0.86700 0.00600
H 	H 	0.82820 0.42760 0.07360 0.06800
H 	H 	0.68650 0.33630 0.17580 0.06800
H 	H 	0.74350 0.43860 0.01540 0.07700
H 	H 	0.80850 0.41350 0.15860 0.07400
H 	H 	0.82140 0.37710 0.22780 0.03000
H 	H 	0.73790 0.24550 0.28660 0.02500
H 	H 	0.72920 0.27990 0.21500 0.07800
H 	H 	0.61630 0.35040 0.18440 0.07200
H 	H 	0.54000 0.32590 0.19740 0.02700
H 	H 	0.61440 0.36060 0.04160 0.01500
H 	H 	0.68790 0.38440 0.03000 0.07900
H 	H 	0.95110 0.85430 0.65240 0.02400
H 	H 	0.88840 0.88730 0.67560 0.07600
H 	H 	0.79270 0.77090 0.72500 0.08000
H 	H 	0.85550 0.73990 0.69460 0.01000
H 	H 	0.82120 0.92300 0.67100 0.07300
H 	H 	0.68080 0.88560 0.79640 0.06800
H 	H 	0.74630 0.78200 0.79360 0.07900
H 	H 	0.82240 0.99650 0.67860 0.06900
H 	H 	0.82430 0.07770 0.63860 0.02700
H 	H 	0.68500 0.03940 0.68640 0.02400
H 	H 	0.68120 0.95820 0.72440 0.07200
H 	H 	0.60860 0.81660 0.85360 0.07600
H 	H 	0.54090 0.75210 0.93360 0.02300
H 	H 	0.62770 0.67700 0.97120 0.02700
H 	H 	0.69790 0.74420 0.88660 0.08200
H 	H 	0.79890 0.41000 0.93660 0.03700
H 	H 	0.86170 0.37450 0.92760 0.06100
H 	H 	0.95450 0.49220 0.77020 0.06600
H 	H 	0.89010 0.52650 0.77700 0.02400
H 	H 	0.92530 0.34010 0.88960 0.09200
H 	H 	0.06840 0.37220 0.83640 0.09200
H 	H 	0.00740 0.48040 0.79880 0.10400
H 	H 	0.92900 0.27470 0.97520 0.07700
H 	H 	0.92150 0.19100 0.02540 0.01900
H 	H 	0.04230 0.21150 0.88760 0.02900
H 	H 	0.04980 0.29520 0.83740 0.07100
H 	H 	0.14090 0.43820 0.75540 0.06500
H 	H 	0.21430 0.50050 0.71200 0.02700
H 	H 	0.13530 0.58160 0.75580 0.02900
H 	H 	0.06160 0.52180 0.79780 0.07400
H 	H 	0.74700 0.33810 0.50580 0.14100
H 	H 	0.34440 0.65700 0.66980 0.27300
H 	H 	0.83520 0.31080 0.43540 0.30600
H 	H 	0.16300 0.61020 0.88300 0.02600
H 	H 	0.13670 0.57930 0.97440 0.07800
H 	H 	0.24540 0.51770 0.95640 0.08300
H 	H 	0.27280 0.55000 0.86700 0.00400
H 	H 	0.09820 0.49880 0.07360 0.06000
H 	H 	0.13770 0.48790 0.17580 0.06200
H 	H 	0.24110 0.54600 0.01540 0.07400
H 	H 	0.03290 0.42790 0.15860 0.09400
H 	H 	0.95080 0.39510 0.22780 0.00800
H 	H 	0.97550 0.46790 0.28660 0.00300
H 	H 	0.05580 0.50510 0.21500 0.10000
H 	H 	0.19930 0.46520 0.18440 0.07300
H 	H 	0.26260 0.47670 0.19740 0.02600
H 	H 	0.34400 0.59780 0.04160 0.01300
H 	H 	0.28210 0.58560 0.03000 0.08100
H 	H 	0.39650 0.49330 0.65240 0.01900
H 	H 	0.43600 0.43710 0.67560 0.07600
H 	H 	0.48230 0.50410 0.72500 0.08100
H 	H 	0.44990 0.56550 0.69460 0.00900
H 	H 	0.50780 0.40600 0.67100 0.07100
H 	H 	0.52280 0.31800 0.79640 0.06700
H 	H 	0.46010 0.42440 0.79360 0.07800
H 	H 	0.49900 0.32490 0.67860 0.07800
H 	H 	0.53710 0.28370 0.63860 0.02100
H 	H 	0.62860 0.27420 0.68640 0.02300
H 	H 	0.59440 0.31740 0.72440 0.07300
H 	H 	0.53780 0.32980 0.85360 0.07600
H 	H 	0.52550 0.31430 0.93360 0.02200
H 	H 	0.40110 0.35180 0.97120 0.02600
H 	H 	0.41550 0.36920 0.88660 0.08200
H 	H 	0.26450 0.65340 0.93660 0.03300
H 	H 	0.21070 0.69790 0.92760 0.06500
H 	H 	0.27530 0.73760 0.77020 0.06800
H 	H 	0.33290 0.69650 0.77700 0.02100
H 	H 	0.18510 0.77030 0.88960 0.07800
H 	H 	0.09520 0.79140 0.83640 0.07600
H 	H 	0.19380 0.72080 0.79880 0.09000
H 	H 	0.09580 0.75010 0.97520 0.07900
H 	H 	0.05310 0.78360 0.02540 0.01300
H 	H 	0.07010 0.90090 0.88760 0.02300
H 	H 	0.11280 0.86740 0.83740 0.07200
H 	H 	0.10370 0.80640 0.75540 0.06900
H 	H 	0.07370 0.78750 0.71200 0.02300
H 	H 	0.10890 0.66260 0.75580 0.02500
H 	H 	0.14060 0.68040 0.79780 0.08200
H 	H 	0.90610 0.99700 0.00580 0.13700
H 	H 	0.42320 0.59440 0.16980 0.27300
H 	H 	0.00380 0.08520 0.93540 0.28800
H 	H 	0.25680 0.41300 0.38300 0.03000
H 	H 	0.19630 0.38670 0.47440 0.07100
H 	H 	0.27590 0.49540 0.45640 0.07500
H 	H 	0.33300 0.52280 0.36700 0.00800
H 	H 	0.17760 0.34820 0.57360 0.07400
H 	H 	0.08630 0.38770 0.67580 0.07200
H 	H 	0.18860 0.49110 0.51540 0.08500
H 	H 	0.16350 0.28290 0.65860 0.06500
H 	H 	0.12710 0.20080 0.72780 0.04000
H 	H 	0.99550 0.22550 0.78660 0.05600
H 	H 	0.02990 0.30580 0.71500 0.05900
H 	H 	0.10040 0.44930 0.68440 0.07000
H 	H 	0.07590 0.51260 0.69740 0.02700
H 	H 	0.11060 0.59400 0.54160 0.01700
H 	H 	0.13440 0.53210 0.53000 0.07900
H 	H 	0.60430 0.64650 0.15240 0.01900
H 	H 	0.63730 0.68600 0.17560 0.07600
H 	H 	0.52090 0.73230 0.22500 0.08100
H 	H 	0.48990 0.69990 0.19460 0.00900
H 	H 	0.67300 0.75780 0.17100 0.07000
H 	H 	0.63560 0.77280 0.29640 0.06600
H 	H 	0.53200 0.71010 0.29360 0.07700
H 	H 	0.74650 0.74900 0.17860 0.07800
H 	H 	0.82770 0.78710 0.13860 0.02100
H 	H 	0.78940 0.87860 0.18640 0.02300
H 	H 	0.70820 0.84440 0.22440 0.07300
H 	H 	0.56660 0.78780 0.35360 0.07900
H 	H 	0.50210 0.77550 0.43360 0.01800
H 	H 	0.42700 0.65110 0.47120 0.02100
H 	H 	0.49420 0.66550 0.38660 0.08400
H 	H 	0.16000 0.51450 0.43660 0.03100
H 	H 	0.12450 0.46070 0.42760 0.06400
H 	H 	0.24220 0.52530 0.27020 0.06800
H 	H 	0.27650 0.58290 0.27700 0.02000
H 	H 	0.09010 0.43510 0.38960 0.07300
H 	H 	0.12220 0.34520 0.33640 0.07300
H 	H 	0.23040 0.44380 0.29880 0.08800
H 	H 	0.02470 0.34580 0.47520 0.08800
H 	H 	0.94100 0.30310 0.52540 0.01500
H 	H 	0.96150 0.32010 0.38760 0.01200
H 	H 	0.04520 0.36280 0.33740 0.08500
H 	H 	0.18820 0.35370 0.25540 0.07000
H 	H 	0.25050 0.32370 0.21200 0.02400
H 	H 	0.33160 0.35890 0.25580 0.02500
H 	H 	0.27180 0.39060 0.29780 0.08200
H 	H 	0.08810 0.99720 0.00580 0.13500
H 	H 	0.40700 0.23580 0.16980 0.27300
H 	H 	0.06080 0.97940 0.93540 0.30100
H 	H 	0.36020 0.20400 0.38300 0.03100
H 	H 	0.32930 0.13890 0.47440 0.07100
H 	H 	0.26770 0.04820 0.45640 0.07600
H 	H 	0.30000 0.11020 0.36700 0.00900
H 	H 	0.24880 0.07820 0.57360 0.07300
H 	H 	0.23790 0.93650 0.67580 0.07200
H 	H 	0.29600 0.99350 0.51540 0.08600
H 	H 	0.17790 0.05850 0.65860 0.07800
H 	H 	0.14510 0.07140 0.72780 0.02400
H 	H 	0.21790 0.98790 0.78660 0.01100
H 	H 	0.25510 0.97920 0.71500 0.08700
H 	H 	0.21520 0.86630 0.68440 0.07000
H 	H 	0.22670 0.79000 0.69740 0.02800
H 	H 	0.34780 0.86440 0.54160 0.01800
H 	H 	0.33560 0.93790 0.53000 0.07800
H 	H 	0.24330 0.20110 0.15240 0.01900
H 	H 	0.18710 0.13840 0.17560 0.07500
H 	H 	0.25410 0.04270 0.22500 0.08100
H 	H 	0.31550 0.10550 0.19460 0.01000
H 	H 	0.15600 0.07120 0.17100 0.07100
H 	H 	0.06800 0.93080 0.29640 0.06500
H 	H 	0.17440 0.99630 0.29360 0.07900
H 	H 	0.07490 0.07240 0.17860 0.08100
H 	H 	0.03370 0.07430 0.13860 0.01100
H 	H 	0.02420 0.93500 0.18640 0.01400
H 	H 	0.06740 0.93120 0.22440 0.07600
H 	H 	0.07980 0.85860 0.35360 0.07600
H 	H 	0.06430 0.79090 0.43360 0.01700
H 	H 	0.10180 0.87770 0.47120 0.02000
H 	H 	0.11920 0.94790 0.38660 0.08200
H 	H 	0.40340 0.04890 0.43660 0.03300
H 	H 	0.44790 0.11170 0.42760 0.06500
H 	H 	0.48760 0.20450 0.27020 0.06700
H 	H 	0.44650 0.14010 0.27700 0.02100
H 	H 	0.52030 0.17530 0.38960 0.07900
H 	H 	0.54140 0.31840 0.33640 0.07900
H 	H 	0.47080 0.25740 0.29880 0.09100
H 	H 	0.50010 0.17900 0.47520 0.07200
H 	H 	0.53360 0.17150 0.52540 0.03100
H 	H 	0.65090 0.29230 0.38760 0.02900
H 	H 	0.61740 0.29980 0.33740 0.06800
H 	H 	0.55640 0.39090 0.25540 0.06900
H 	H 	0.53750 0.46430 0.21200 0.02500
H 	H 	0.41260 0.38530 0.25580 0.02600
H 	H 	0.43040 0.31160 0.29780 0.08100
H 	H 	0.00300 0.09390 0.99420 0.14500
H 	H 	0.40560 0.57680 0.83020 0.27300
H 	H 	0.91480 0.99620 0.06460 0.30000
H 	H 	0.58700 0.74320 0.61700 0.03000
H 	H 	0.61330 0.80370 0.52560 0.07200
H 	H 	0.50460 0.72410 0.54360 0.07600
H 	H 	0.47720 0.66700 0.63300 0.00800
H 	H 	0.65180 0.82240 0.42640 0.07300
H 	H 	0.61230 0.91370 0.32420 0.07100
H 	H 	0.50890 0.81140 0.48460 0.08400
H 	H 	0.71710 0.83650 0.34140 0.07200
H 	H 	0.79920 0.87290 0.27220 0.03300
H 	H 	0.77450 0.00450 0.21340 0.03300
H 	H 	0.69420 0.97010 0.28500 0.07200
H 	H 	0.55070 0.89960 0.31560 0.07000
H 	H 	0.48740 0.92410 0.30260 0.02700
H 	H 	0.40600 0.88940 0.45840 0.01700
H 	H 	0.46790 0.86560 0.47000 0.08000
H 	H 	0.35350 0.39570 0.84760 0.02000
H 	H 	0.31400 0.36270 0.82440 0.07700
H 	H 	0.26770 0.47910 0.77500 0.08100
H 	H 	0.30010 0.51010 0.80540 0.00900
H 	H 	0.24220 0.32700 0.82900 0.07000
H 	H 	0.22720 0.36440 0.70360 0.06600
H 	H 	0.28990 0.46800 0.70640 0.07700
H 	H 	0.25100 0.25350 0.82140 0.07900
H 	H 	0.21290 0.17230 0.86140 0.02200
H 	H 	0.12140 0.21060 0.81360 0.02300
H 	H 	0.15560 0.29180 0.77560 0.07200
H 	H 	0.21220 0.43340 0.64640 0.07900
H 	H 	0.22450 0.49790 0.56640 0.01800
H 	H 	0.34890 0.57300 0.52880 0.02100
H 	H 	0.33450 0.50580 0.61340 0.08400
H 	H 	0.48550 0.84000 0.56340 0.03200
H 	H 	0.53930 0.87550 0.57240 0.06400
H 	H 	0.47470 0.75780 0.72980 0.06800
H 	H 	0.41710 0.72350 0.72300 0.02000
H 	H 	0.56490 0.90990 0.61040 0.07700
H 	H 	0.65480 0.87780 0.66360 0.07700
H 	H 	0.55620 0.76960 0.70120 0.09000
H 	H 	0.65420 0.97530 0.52480 0.07600
H 	H 	0.69690 0.05900 0.47460 0.02600
H 	H 	0.67990 0.03850 0.61240 0.02400
H 	H 	0.63720 0.95480 0.66260 0.07300
H 	H 	0.64630 0.81180 0.74460 0.07000
H 	H 	0.67630 0.74950 0.78800 0.02400
H 	H 	0.64110 0.66840 0.74420 0.02600
H 	H 	0.60940 0.72820 0.70220 0.08200
H 	H 	0.00280 0.91190 0.99420 0.14100
H 	H 	0.76420 0.59300 0.83020 0.27300
H 	H 	0.02060 0.93920 0.06460 0.28800
H 	H 	0.79600 0.63980 0.61700 0.03200
H 	H 	0.86110 0.67070 0.52560 0.06900
H 	H 	0.95180 0.73230 0.54360 0.07600
H 	H 	0.88980 0.70000 0.63300 0.01100
H 	H 	0.92180 0.75120 0.42640 0.07600
H 	H 	0.06350 0.76210 0.32420 0.07700
H 	H 	0.00650 0.70400 0.48460 0.09200
H 	H 	0.94150 0.82210 0.34140 0.09300
H 	H 	0.92860 0.85490 0.27220 0.01200
H 	H 	0.01210 0.78210 0.21340 -0.02500
H 	H 	0.02080 0.74490 0.28500 0.11200
H 	H 	0.13370 0.78480 0.31560 0.06700
H 	H 	0.21000 0.77330 0.30260 0.03000
H 	H 	0.13560 0.65220 0.45840 0.02000
H 	H 	0.06210 0.66440 0.47000 0.07300
H 	H 	0.79890 0.75670 0.84760 0.02400
H 	H 	0.86160 0.81290 0.82440 0.07100
H 	H 	0.95730 0.74590 0.77500 0.07900
H 	H 	0.89450 0.68450 0.80540 0.01400
H 	H 	0.92880 0.84400 0.82900 0.08300
H 	H 	0.06920 0.93200 0.70360 0.07700
H 	H 	0.00370 0.82560 0.70640 0.08900
H 	H 	0.92760 0.92510 0.82140 0.07600
H 	H 	0.92570 0.96630 0.86140 0.02300
H 	H 	0.06500 0.97580 0.81360 0.02700
H 	H 	0.06880 0.93260 0.77560 0.07100
H 	H 	0.14140 0.92020 0.64640 0.07200
H 	H 	0.20910 0.93570 0.56640 0.02200
H 	H 	0.12230 0.89820 0.52880 0.02400
H 	H 	0.05210 0.88080 0.61340 0.07500
H 	H 	0.95110 0.59660 0.56340 0.03600
H 	H 	0.88830 0.55210 0.57240 0.06500
H 	H 	0.79550 0.51240 0.72980 0.06700
H 	H 	0.85990 0.55350 0.72300 0.02100
H 	H 	0.82470 0.47970 0.61040 0.08000
H 	H 	0.68160 0.45860 0.66360 0.07900
H 	H 	0.74260 0.52920 0.70120 0.09100
H 	H 	0.82100 0.49990 0.52480 0.07200
H 	H 	0.82850 0.46640 0.47460 0.03200
H 	H 	0.70770 0.34910 0.61240 0.02900
H 	H 	0.70020 0.38260 0.66260 0.06800
H 	H 	0.60910 0.44360 0.74460 0.06900
H 	H 	0.53570 0.46250 0.78800 0.02500
H 	H 	0.61470 0.58740 0.74420 0.02600
H 	H 	0.68840 0.56960 0.70220 0.08100
H 	H 	0.66190 0.25300 0.49420 0.14100
H 	H 	0.34300 0.65560 0.33020 0.27300
H 	H 	0.68920 0.16480 0.56460 0.30500
H 	H 	0.38980 0.83700 0.11700 0.03200
H 	H 	0.42070 0.86330 0.02560 0.06600
H 	H 	0.48230 0.75460 0.04360 0.07100
H 	H 	0.45000 0.72720 0.13300 0.01100
H 	H 	0.50120 0.90180 0.92640 0.07500
H 	H 	0.51210 0.86230 0.82420 0.07100
H 	H 	0.45400 0.75890 0.98460 0.08900
H 	H 	0.57210 0.96710 0.84140 0.07900
H 	H 	0.60490 0.04920 0.77220 0.02500
H 	H 	0.53210 0.02450 0.71340 0.02000
H 	H 	0.49490 0.94420 0.78500 0.08300
H 	H 	0.53480 0.80070 0.81560 0.07000
H 	H 	0.52330 0.73740 0.80260 0.02800
H 	H 	0.40220 0.65600 0.95840 0.02000
H 	H 	0.41440 0.71790 0.97000 0.08100
H 	H 	0.50670 0.60350 0.34760 0.01900
H 	H 	0.56290 0.56400 0.32440 0.07700
H 	H 	0.49590 0.51770 0.27500 0.08200
H 	H 	0.43450 0.55010 0.30540 0.00900
H 	H 	0.59400 0.49220 0.32900 0.07000
H 	H 	0.68200 0.47720 0.20360 0.06500
H 	H 	0.57560 0.53990 0.20640 0.07700
H 	H 	0.67510 0.50100 0.32140 0.07800
H 	H 	0.71630 0.46290 0.36140 0.02100
H 	H 	0.72580 0.37140 0.31360 0.02300
H 	H 	0.68260 0.40560 0.27560 0.07300
H 	H 	0.67020 0.46220 0.14640 0.08100
H 	H 	0.68570 0.47450 0.06640 0.01300
H 	H 	0.64820 0.59890 0.02880 0.01500
H 	H 	0.63080 0.58450 0.11340 0.08600
H 	H 	0.34660 0.73550 0.06340 0.03000
H 	H 	0.30210 0.78930 0.07240 0.06300
H 	H 	0.26240 0.72470 0.22980 0.06700
H 	H 	0.30350 0.66710 0.22300 0.02100
H 	H 	0.22970 0.81490 0.11040 0.07900
H 	H 	0.20860 0.90480 0.16360 0.07900
H 	H 	0.27920 0.80620 0.20120 0.09100
H 	H 	0.24990 0.90420 0.02480 0.06400
H 	H 	0.21640 0.94690 0.97460 0.04400
H 	H 	0.09910 0.92990 0.11240 0.03100
H 	H 	0.13260 0.88720 0.16260 0.06400
H 	H 	0.19360 0.89630 0.24460 0.06900
H 	H 	0.21250 0.92630 0.28800 0.02500
H 	H 	0.33740 0.89110 0.24420 0.02600
H 	H 	0.31960 0.85940 0.20220 0.08100
H 	H 	0.84390 0.25280 0.49420 0.14300
H 	H 	0.32680 0.01420 0.33020 0.27700
H 	H 	0.74620 0.27060 0.56460 0.30500
H 	H 	0.49320 0.04600 0.11700 0.03400
H 	H 	0.55370 0.11110 0.02560 0.06600
H 	H 	0.47410 0.20180 0.04360 0.07000
H 	H 	0.41700 0.13980 0.13300 0.01100
H 	H 	0.57240 0.17180 0.92640 0.07700
H 	H 	0.66370 0.31350 0.82420 0.07300
H 	H 	0.56140 0.25650 0.98460 0.09000
H 	H 	0.58650 0.19150 0.84140 0.07400
H 	H 	0.62290 0.17860 0.77220 0.03100
H 	H 	0.75450 0.26210 0.71340 0.02600
H 	H 	0.72010 0.27080 0.78500 0.07700
H 	H 	0.64960 0.38370 0.81560 0.07000
H 	H 	0.67410 0.46000 0.80260 0.02800
H 	H 	0.63940 0.38560 0.95840 0.02100
H 	H 	0.61560 0.31210 0.97000 0.08100
H 	H 	0.14570 0.04890 0.34760 0.02100
H 	H 	0.11270 0.11160 0.32440 0.07400
H 	H 	0.22910 0.20730 0.27500 0.08000
H 	H 	0.26010 0.14450 0.30540 0.01000
H 	H 	0.07700 0.17880 0.32900 0.07300
H 	H 	0.11440 0.31920 0.20360 0.06800
H 	H 	0.21800 0.25370 0.20640 0.07900
H 	H 	0.00350 0.17760 0.32140 0.04200
H 	H 	0.92230 0.17570 0.36140 0.03700
H 	H 	0.96060 0.31500 0.31360 0.02500
H 	H 	0.04180 0.31880 0.27560 0.07000
H 	H 	0.18340 0.39140 0.14640 0.08000
H 	H 	0.24790 0.45910 0.06640 0.01400
H 	H 	0.32300 0.37230 0.02880 0.01600
H 	H 	0.25580 0.30210 0.11340 0.08400
H 	H 	0.59000 0.20110 0.06340 0.03100
H 	H 	0.62550 0.13830 0.07240 0.06200
H 	H 	0.50780 0.04550 0.22980 0.06700
H 	H 	0.47350 0.10990 0.22300 0.02200
H 	H 	0.65990 0.07470 0.11040 0.08300
H 	H 	0.62780 0.93160 0.16360 0.08300
H 	H 	0.51960 0.99260 0.20120 0.09500
H 	H 	0.72530 0.07100 0.02480 0.06300
H 	H 	0.80900 0.07850 0.97460 0.04700
H 	H 	0.78850 0.95770 0.11240 0.03400
H 	H 	0.70480 0.95020 0.16260 0.06400
H 	H 	0.56180 0.85910 0.24460 0.06800
H 	H 	0.49950 0.78570 0.28800 0.02500
H 	H 	0.41840 0.86470 0.24420 0.02700
H 	H 	0.47820 0.93840 0.20220 0.07900
C 	C 	0.95269 0.58629 0.80382 0.36900
C 	C 	0.91291 0.55161 0.86398 -0.13800
C 	C 	0.92233 0.51013 0.89754 0.05600
C 	C 	0.88298 0.47428 0.95304 -0.12100
C 	C 	0.83615 0.47875 0.97710 0.06500
C 	C 	0.82927 0.52127 0.94206 -0.13500
C 	C 	0.86660 0.55550 0.88840 0.07400
C 	C 	0.79303 0.43813 0.03414 0.03400
C 	C 	0.79836 0.41646 0.07908 -0.10800
C 	C 	0.75795 0.37785 0.13250 0.03800
C 	C 	0.71316 0.36216 0.14068 -0.11500
C 	C 	0.70856 0.38536 0.09648 0.04200
C 	C 	0.74783 0.42292 0.04456 -0.11500
C 	C 	0.76647 0.35087 0.17926 0.05300
C 	C 	0.79476 0.37916 0.18448 -0.12500
C 	C 	0.80239 0.35779 0.22562 0.05900
C 	C 	0.78162 0.30662 0.26476 -0.13200
C 	C 	0.75312 0.27952 0.25956 0.06400
C 	C 	0.74670 0.29980 0.21800 -0.13200
C 	C 	0.79155 0.28185 0.30970 0.39800
C 	C 	0.66022 0.36972 0.10556 0.05900
C 	C 	0.61609 0.35259 0.15542 -0.12200
C 	C 	0.56977 0.33797 0.16326 0.05800
C 	C 	0.56941 0.34171 0.12018 -0.14700
C 	C 	0.61385 0.35855 0.07090 0.07100
C 	C 	0.65820 0.37250 0.06420 -0.13600
C 	C 	0.07570 0.59980 0.62960 0.40500
C 	C 	0.95054 0.76974 0.66052 0.36500
C 	C 	0.90949 0.79319 0.67262 -0.13300
C 	C 	0.91920 0.83750 0.66640 0.06700
C 	C 	0.88142 0.85652 0.68096 -0.12800
C 	C 	0.83334 0.83284 0.70312 0.06000
C 	C 	0.82501 0.78851 0.70898 -0.13100
C 	C 	0.86194 0.76904 0.69252 0.06400
C 	C 	0.79006 0.85088 0.72768 0.04900
C 	C 	0.79211 0.89891 0.70458 -0.11900
C 	C 	0.75233 0.91383 0.72894 0.04500
C 	C 	0.70857 0.87677 0.77966 -0.10900
C 	C 	0.70644 0.82616 0.80542 0.04100
C 	C 	0.74739 0.81519 0.77782 -0.11900
C 	C 	0.75452 0.96772 0.70316 0.04400
C 	C 	0.79456 0.00436 0.67948 -0.11100
C 	C 	0.79517 0.05327 0.65646 0.06100
C 	C 	0.75550 0.06713 0.65860 -0.13800
C 	C 	0.71291 0.03051 0.68438 0.07000
C 	C 	0.71051 0.98221 0.70678 -0.12600
C 	C 	0.87915 0.24375 0.36550 0.40700
C 	C 	0.66088 0.78735 0.85984 0.05800
C 	C 	0.61310 0.78850 0.87660 -0.13200
C 	C 	0.57257 0.75047 0.92486 0.07100
C 	C 	0.57759 0.70979 0.96082 -0.13700
C 	C 	0.62397 0.70537 0.94746 0.05400
C 	C 	0.66606 0.74576 0.89608 -0.12400
C 	C 	0.06591 0.78181 0.51638 0.42400
C 	C 	0.80043 0.49763 0.86514 0.35500
C 	C 	0.83970 0.47303 0.85768 -0.11000
C 	C 	0.83027 0.42657 0.90326 0.02800
C 	C 	0.86816 0.40576 0.89788 -0.08400
C 	C 	0.91676 0.43096 0.84828 0.00900
C 	C 	0.92339 0.47553 0.80402 -0.08400
C 	C 	0.88473 0.49680 0.80794 0.02800
C 	C 	0.96012 0.41332 0.84476 0.12000
C 	C 	0.95564 0.36364 0.87052 -0.17200
C 	C 	0.99620 0.34850 0.86820 0.10100
C 	C 	0.04087 0.38237 0.83926 -0.18200
C 	C 	0.04467 0.43307 0.81366 0.09800
C 	C 	0.00434 0.44674 0.81672 -0.20000
C 	C 	0.99017 0.29329 0.90130 0.05000
C 	C 	0.95173 0.26209 0.95760 -0.12100
C 	C 	0.94723 0.21193 0.98766 0.07300
C 	C 	0.98117 0.19297 0.96142 -0.13500
C 	C 	0.01960 0.22417 0.90514 0.04400
C 	C 	0.02410 0.27433 0.87508 -0.12700
C 	C 	0.72190 0.11020 0.50600 0.41600
C 	C 	0.09266 0.47236 0.78428 0.02500
C 	C 	0.13899 0.46629 0.75642 -0.10300
C 	C 	0.18331 0.50451 0.72958 0.05400
C 	C 	0.18071 0.54631 0.72958 -0.14900
C 	C 	0.13652 0.55322 0.75536 0.05500
C 	C 	0.09203 0.51643 0.78174 -0.10500
C 	C 	0.07074 0.71154 0.70352 0.42500
C 	C 	0.24349 0.60989 0.80382 0.37100
C 	C 	0.22311 0.58441 0.86398 -0.14300
C 	C 	0.18013 0.59233 0.89754 0.05900
C 	C 	0.16398 0.57268 0.95304 -0.12700
C 	C 	0.18675 0.54415 0.97710 0.07100
C 	C 	0.22867 0.53667 0.94206 -0.14100
C 	C 	0.24500 0.55610 0.88840 0.07900
C 	C 	0.17283 0.52773 0.03414 0.02300
C 	C 	0.12256 0.50446 0.07908 -0.09300
C 	C 	0.10955 0.48965 0.13250 0.01400
C 	C 	0.14616 0.49716 0.14068 -0.09800
C 	C 	0.19496 0.51816 0.09648 0.03100
C 	C 	0.20761 0.53252 0.04456 -0.10400
C 	C 	0.05427 0.46987 0.17926 0.09900
C 	C 	0.02076 0.43636 0.18448 -0.19400
C 	C 	0.97199 0.41659 0.22562 0.12900
C 	C 	0.95362 0.42862 0.26476 -0.17800
C 	C 	0.98732 0.46092 0.25956 0.13700
C 	C 	0.03530 0.48220 0.21800 -0.20600
C 	C 	0.89875 0.40845 0.30970 0.41500
C 	C 	0.23422 0.52472 0.10556 0.06500
C 	C 	0.22849 0.49199 0.15542 -0.12600
C 	C 	0.26697 0.49877 0.16326 0.06000
C 	C 	0.31041 0.53811 0.12018 -0.14900
C 	C 	0.31525 0.57055 0.07090 0.07400
C 	C 	0.27760 0.56330 0.06420 -0.14000
C 	C 	0.29470 0.77060 0.62960 0.40500
C 	C 	0.38894 0.56974 0.66052 0.36700
C 	C 	0.41789 0.53419 0.67262 -0.13700
C 	C 	0.41440 0.49610 0.66640 0.07100
C 	C 	0.43762 0.46252 0.68096 -0.13200
C 	C 	0.46354 0.46404 0.70312 0.06300
C 	C 	0.46601 0.50251 0.70898 -0.13500
C 	C 	0.44554 0.53844 0.69252 0.06700
C 	C 	0.48226 0.42144 0.72768 0.04600
C 	C 	0.50331 0.39651 0.70458 -0.11400
C 	C 	0.51873 0.35723 0.72894 0.03900
C 	C 	0.51177 0.34357 0.77966 -0.10500
C 	C 	0.48814 0.36842 0.80542 0.03800
C 	C 	0.47479 0.40699 0.77782 -0.11500
C 	C 	0.54232 0.32912 0.70316 0.05600
C 	C 	0.52596 0.31616 0.67948 -0.13400
C 	C 	0.54837 0.29027 0.65646 0.07300
C 	C 	0.58590 0.27427 0.65860 -0.14400
C 	C 	0.60271 0.28511 0.68438 0.07000
C 	C 	0.58271 0.31101 0.70678 -0.12600
C 	C 	0.75535 0.39075 0.36550 0.41200
C 	C 	0.47928 0.35281 0.85984 0.05900
C 	C 	0.51030 0.33490 0.87660 -0.13300
C 	C 	0.50257 0.32467 0.92486 0.07200
C 	C 	0.46159 0.32939 0.96082 -0.13700
C 	C 	0.42857 0.34717 0.94746 0.05400
C 	C 	0.43786 0.35816 0.89608 -0.12500
C 	C 	0.41771 0.70181 0.51638 0.42400
C 	C 	0.33443 0.63723 0.86514 0.35700
C 	C 	0.30262 0.66929 0.85768 -0.11700
C 	C 	0.26647 0.67017 0.90326 0.03800
C 	C 	0.23396 0.69636 0.89788 -0.09800
C 	C 	0.23496 0.72076 0.84828 0.02900
C 	C 	0.27259 0.72045 0.80402 -0.09800
C 	C 	0.30733 0.69526 0.80794 0.03700
C 	C 	0.19512 0.74192 0.84476 0.07300
C 	C 	0.17384 0.76584 0.87052 -0.13500
C 	C 	0.13560 0.78330 0.86820 0.05900
C 	C 	0.11987 0.77837 0.83926 -0.13200
C 	C 	0.14167 0.75327 0.81366 0.06200
C 	C 	0.17894 0.73654 0.81672 -0.14500
C 	C 	0.10853 0.80541 0.90130 0.05100
C 	C 	0.09067 0.78031 0.95760 -0.13200
C 	C 	0.06511 0.80041 0.98766 0.08100
C 	C 	0.05741 0.84561 0.96142 -0.15300
C 	C 	0.07526 0.87069 0.90514 0.06400
C 	C 	0.10082 0.85059 0.87508 -0.12500
C 	C 	0.77210 0.38380 0.50600 0.41200
C 	C 	0.12306 0.74336 0.78428 0.04300
C 	C 	0.10459 0.77729 0.75642 -0.11700
C 	C 	0.08711 0.76591 0.72958 0.06300
C 	C 	0.08971 0.72411 0.72958 -0.15800
C 	C 	0.10812 0.69142 0.75536 0.06500
C 	C 	0.12623 0.70183 0.78174 -0.12000
C 	C 	0.22574 0.58494 0.70352 0.42200
C 	C 	0.33629 0.49349 0.30382 0.36700
C 	C 	0.30161 0.47311 0.36398 -0.13400
C 	C 	0.26013 0.43013 0.39754 0.04800
C 	C 	0.22428 0.41398 0.45304 -0.11100
C 	C 	0.22875 0.43675 0.47710 0.04700
C 	C 	0.27127 0.47867 0.44206 -0.12400
C 	C 	0.30550 0.49500 0.38840 0.06500
C 	C 	0.18813 0.42283 0.53414 0.05400
C 	C 	0.16646 0.37256 0.57908 -0.12300
C 	C 	0.12785 0.35955 0.63250 0.05400
C 	C 	0.11216 0.39616 0.64068 -0.12700
C 	C 	0.13536 0.44496 0.59648 0.05300
C 	C 	0.17292 0.45761 0.54456 -0.12900
C 	C 	0.10087 0.30427 0.67926 0.02700
C 	C 	0.12916 0.27076 0.68448 -0.09800
C 	C 	0.10779 0.22199 0.72562 0.03000
C 	C 	0.05662 0.20362 0.76476 -0.10000
C 	C 	0.02952 0.23732 0.75956 0.00200
C 	C 	0.04980 0.28530 0.71800 -0.08900
C 	C 	0.03185 0.14875 0.80970 0.36900
C 	C 	0.11972 0.48422 0.60556 0.05300
C 	C 	0.10259 0.47849 0.65542 -0.11800
C 	C 	0.08797 0.51697 0.66326 0.05400
C 	C 	0.09171 0.56041 0.62018 -0.14600
C 	C 	0.10855 0.56525 0.57090 0.06800
C 	C 	0.12250 0.52760 0.56420 -0.13100
C 	C 	0.34980 0.54470 0.12960 0.40700
C 	C 	0.51974 0.63894 0.16052 0.36700
C 	C 	0.54319 0.66789 0.17262 -0.13800
C 	C 	0.58750 0.66440 0.16640 0.07100
C 	C 	0.60652 0.68762 0.18096 -0.13300
C 	C 	0.58284 0.71354 0.20312 0.06300
C 	C 	0.53851 0.71601 0.20898 -0.13600
C 	C 	0.51904 0.69554 0.19252 0.06800
C 	C 	0.60088 0.73226 0.22768 0.04400
C 	C 	0.64891 0.75331 0.20458 -0.11300
C 	C 	0.66383 0.76873 0.22894 0.03700
C 	C 	0.62677 0.76177 0.27966 -0.10400
C 	C 	0.57616 0.73814 0.30542 0.03500
C 	C 	0.56519 0.72479 0.27782 -0.11300
C 	C 	0.71772 0.79232 0.20316 0.05600
C 	C 	0.75436 0.77596 0.17948 -0.13400
C 	C 	0.80327 0.79837 0.15646 0.07300
C 	C 	0.81713 0.83590 0.15860 -0.14400
C 	C 	0.78051 0.85271 0.18438 0.06900
C 	C 	0.73221 0.83271 0.20678 -0.12700
C 	C 	0.99375 0.00535 0.86550 0.42900
C 	C 	0.53735 0.72928 0.35984 0.06500
C 	C 	0.53850 0.76030 0.37660 -0.14100
C 	C 	0.50047 0.75257 0.42486 0.08100
C 	C 	0.45979 0.71159 0.46082 -0.15100
C 	C 	0.45537 0.67857 0.44746 0.06300
C 	C 	0.49576 0.68786 0.39608 -0.13200
C 	C 	0.53181 0.66771 0.01638 0.41500
C 	C 	0.24763 0.58443 0.36514 0.35800
C 	C 	0.22303 0.55262 0.35768 -0.11900
C 	C 	0.17657 0.51647 0.40326 0.04000
C 	C 	0.15576 0.48396 0.39788 -0.10100
C 	C 	0.18096 0.48496 0.34828 0.03200
C 	C 	0.22553 0.52259 0.30402 -0.10100
C 	C 	0.24680 0.55733 0.30794 0.03900
C 	C 	0.16332 0.44512 0.34476 0.06600
C 	C 	0.11364 0.42384 0.37052 -0.12600
C 	C 	0.09850 0.38560 0.36820 0.04400
C 	C 	0.13237 0.36987 0.33926 -0.12300
C 	C 	0.18307 0.39167 0.31366 0.05700
C 	C 	0.19674 0.42894 0.31672 -0.13800
C 	C 	0.04329 0.35853 0.40130 0.07800
C 	C 	0.01209 0.34067 0.45760 -0.17000
C 	C 	0.96193 0.31511 0.48766 0.10700
C 	C 	0.94297 0.30741 0.46142 -0.17100
C 	C 	0.97417 0.32526 0.40514 0.10700
C 	C 	0.02433 0.35082 0.37508 -0.16900
C 	C 	0.86020 0.02210 0.00600 0.39900
C 	C 	0.22236 0.37306 0.28428 0.04600
C 	C 	0.21629 0.35459 0.25642 -0.11800
C 	C 	0.25451 0.33711 0.22958 0.06400
C 	C 	0.29631 0.33971 0.22958 -0.15700
C 	C 	0.30322 0.35812 0.25536 0.06600
C 	C 	0.26643 0.37623 0.28174 -0.12000
C 	C 	0.46154 0.47574 0.20352 0.42500
C 	C 	0.35989 0.20269 0.30382 0.36700
C 	C 	0.33441 0.16291 0.36398 -0.13400
C 	C 	0.34233 0.17233 0.39754 0.04700
C 	C 	0.32268 0.13298 0.45304 -0.11000
C 	C 	0.29415 0.08615 0.47710 0.04600
C 	C 	0.28667 0.07927 0.44206 -0.12300
C 	C 	0.30610 0.11660 0.38840 0.06500
C 	C 	0.27773 0.04303 0.53414 0.05800
C 	C 	0.25446 0.04836 0.57908 -0.11900
C 	C 	0.23965 0.00795 0.63250 0.04600
C 	C 	0.24716 0.96316 0.64068 -0.12700
C 	C 	0.26816 0.95856 0.59648 0.05500
C 	C 	0.28252 0.99783 0.54456 -0.13500
C 	C 	0.21987 0.01647 0.67926 0.06700
C 	C 	0.18636 0.04476 0.68448 -0.13700
C 	C 	0.16659 0.05239 0.72562 0.07300
C 	C 	0.17862 0.03162 0.76476 -0.14700
C 	C 	0.21092 0.00312 0.75956 0.09500
C 	C 	0.23220 0.99670 0.71800 -0.16100
C 	C 	0.15845 0.04155 0.80970 0.40400
C 	C 	0.27472 0.91022 0.60556 0.05200
C 	C 	0.24199 0.86609 0.65542 -0.11600
C 	C 	0.24877 0.81977 0.66326 0.05400
C 	C 	0.28811 0.81941 0.62018 -0.14300
C 	C 	0.32055 0.86385 0.57090 0.06600
C 	C 	0.31330 0.90820 0.56420 -0.12900
C 	C 	0.52060 0.32570 0.12960 0.40600
C 	C 	0.31974 0.20054 0.16052 0.36600
C 	C 	0.28419 0.15949 0.17262 -0.13700
C 	C 	0.24610 0.16920 0.16640 0.06900
C 	C 	0.21252 0.13142 0.18096 -0.13000
C 	C 	0.21404 0.08334 0.20312 0.06000
C 	C 	0.25251 0.07501 0.20898 -0.13300
C 	C 	0.28844 0.11194 0.19252 0.06600
C 	C 	0.17144 0.04006 0.22768 0.05200
C 	C 	0.14651 0.04211 0.20458 -0.11700
C 	C 	0.10723 0.00233 0.22894 0.04000
C 	C 	0.09357 0.95857 0.27966 -0.11000
C 	C 	0.11842 0.95644 0.30542 0.03900
C 	C 	0.15699 0.99739 0.27782 -0.12300
C 	C 	0.07912 0.00452 0.20316 0.06600
C 	C 	0.06616 0.04456 0.17948 -0.14800
C 	C 	0.04027 0.04517 0.15646 0.08900
C 	C 	0.02427 0.00550 0.15860 -0.16700
C 	C 	0.03511 0.96291 0.18438 0.08200
C 	C 	0.06101 0.96051 0.20678 -0.14200
C 	C 	0.14075 0.12915 0.86550 0.41200
C 	C 	0.10281 0.91088 0.35984 0.06000
C 	C 	0.08490 0.86310 0.37660 -0.13900
C 	C 	0.07467 0.82257 0.42486 0.07800
C 	C 	0.07939 0.82759 0.46082 -0.15100
C 	C 	0.09717 0.87397 0.44746 0.06000
C 	C 	0.10816 0.91606 0.39608 -0.13000
C 	C 	0.45181 0.31591 0.01638 0.41500
C 	C 	0.38723 0.05043 0.36514 0.35700
C 	C 	0.41929 0.08970 0.35768 -0.11700
C 	C 	0.42017 0.08027 0.40326 0.03800
C 	C 	0.44636 0.11816 0.39788 -0.09700
C 	C 	0.47076 0.16676 0.34828 0.02800
C 	C 	0.47045 0.17339 0.30402 -0.09700
C 	C 	0.44526 0.13473 0.30794 0.03600
C 	C 	0.49192 0.21012 0.34476 0.07500
C 	C 	0.51584 0.20564 0.37052 -0.14000
C 	C 	0.53330 0.24620 0.36820 0.06500
C 	C 	0.52837 0.29087 0.33926 -0.13700
C 	C 	0.50327 0.29467 0.31366 0.06600
C 	C 	0.48654 0.25434 0.31672 -0.14800
C 	C 	0.55541 0.24017 0.40130 0.04000
C 	C 	0.53031 0.20173 0.45760 -0.11300
C 	C 	0.55041 0.19723 0.48766 0.05100
C 	C 	0.59561 0.23117 0.46142 -0.13500
C 	C 	0.62069 0.26960 0.40514 0.05000
C 	C 	0.60059 0.27410 0.37508 -0.11200
C 	C 	0.13380 0.97190 0.00600 0.39600
C 	C 	0.49336 0.34266 0.28428 0.04200
C 	C 	0.52729 0.38899 0.25642 -0.11500
C 	C 	0.51591 0.43331 0.22958 0.06300
C 	C 	0.47411 0.43071 0.22958 -0.15600
C 	C 	0.44142 0.38652 0.25536 0.06400
C 	C 	0.45183 0.34203 0.28174 -0.11800
C 	C 	0.33494 0.32074 0.20352 0.42500
C 	C 	0.50651 0.66371 0.69618 0.36800
C 	C 	0.52689 0.69839 0.63602 -0.13400
C 	C 	0.56987 0.73987 0.60246 0.04900
C 	C 	0.58602 0.77572 0.54696 -0.11200
C 	C 	0.56325 0.77125 0.52290 0.04900
C 	C 	0.52133 0.72873 0.55794 -0.12500
C 	C 	0.50500 0.69450 0.61160 0.06600
C 	C 	0.57717 0.81187 0.46586 0.05100
C 	C 	0.62744 0.83354 0.42092 -0.11800
C 	C 	0.64045 0.87215 0.36750 0.04600
C 	C 	0.60384 0.88784 0.35932 -0.12200
C 	C 	0.55504 0.86464 0.40352 0.05100
C 	C 	0.54239 0.82708 0.45544 -0.12600
C 	C 	0.69573 0.89913 0.32074 0.04400
C 	C 	0.72924 0.87084 0.31552 -0.11700
C 	C 	0.77801 0.89221 0.27438 0.05000
C 	C 	0.79638 0.94338 0.23524 -0.12300
C 	C 	0.76268 0.97048 0.24044 0.04700
C 	C 	0.71470 0.95020 0.28200 -0.11900
C 	C 	0.85125 0.96815 0.19030 0.39000
C 	C 	0.51578 0.88028 0.39444 0.05500
C 	C 	0.52151 0.89741 0.34458 -0.11900
C 	C 	0.48303 0.91203 0.33674 0.05500
C 	C 	0.43959 0.90829 0.37982 -0.14500
C 	C 	0.43475 0.89145 0.42910 0.06900
C 	C 	0.47240 0.87750 0.43580 -0.13200
C 	C 	0.45530 0.65020 0.87040 0.40500
C 	C 	0.36106 0.48026 0.83948 0.36700
C 	C 	0.33211 0.45681 0.82738 -0.13700
C 	C 	0.33560 0.41250 0.83360 0.07100
C 	C 	0.31238 0.39348 0.81904 -0.13200
C 	C 	0.28646 0.41716 0.79688 0.06300
C 	C 	0.28399 0.46149 0.79102 -0.13500
C 	C 	0.30446 0.48096 0.80748 0.06700
C 	C 	0.26774 0.39912 0.77232 0.04400
C 	C 	0.24669 0.35109 0.79542 -0.11300
C 	C 	0.23127 0.33617 0.77106 0.03700
C 	C 	0.23823 0.37323 0.72034 -0.10400
C 	C 	0.26186 0.42384 0.69458 0.03500
C 	C 	0.27521 0.43481 0.72218 -0.11400
C 	C 	0.20768 0.28228 0.79684 0.05600
C 	C 	0.22404 0.24564 0.82052 -0.13400
C 	C 	0.20163 0.19673 0.84354 0.07300
C 	C 	0.16410 0.18287 0.84140 -0.14400
C 	C 	0.14729 0.21949 0.81562 0.06900
C 	C 	0.16729 0.26779 0.79322 -0.12700
C 	C 	0.99465 0.00625 0.13450 0.43500
C 	C 	0.27072 0.46265 0.64016 0.06400
C 	C 	0.23970 0.46150 0.62340 -0.14100
C 	C 	0.24743 0.49953 0.57514 0.08100
C 	C 	0.28841 0.54021 0.53918 -0.15100
C 	C 	0.32143 0.54463 0.55254 0.06200
C 	C 	0.31214 0.50424 0.60392 -0.13200
C 	C 	0.33229 0.46819 0.98362 0.43300
C 	C 	0.41557 0.75237 0.63486 0.35800
C 	C 	0.44738 0.77697 0.64232 -0.11800
C 	C 	0.48353 0.82343 0.59674 0.03900
C 	C 	0.51604 0.84424 0.60212 -0.09900
C 	C 	0.51504 0.81904 0.65172 0.02900
C 	C 	0.47741 0.77447 0.69598 -0.09900
C 	C 	0.44267 0.75320 0.69206 0.03700
C 	C 	0.55488 0.83668 0.65524 0.07300
C 	C 	0.57616 0.88636 0.62948 -0.13600
C 	C 	0.61440 0.90150 0.63180 0.05900
C 	C 	0.63013 0.86763 0.66074 -0.13300
C 	C 	0.60833 0.81693 0.68634 0.06300
C 	C 	0.57106 0.80326 0.68328 -0.14500
C 	C 	0.64147 0.95671 0.59870 0.05000
C 	C 	0.65933 0.98791 0.54240 -0.12800
C 	C 	0.68489 0.03807 0.51234 0.06600
C 	C 	0.69259 0.05703 0.53858 -0.14500
C 	C 	0.67474 0.02583 0.59486 0.06600
C 	C 	0.64918 0.97567 0.62492 -0.12800
C 	C 	0.97790 0.13980 0.99400 0.44000
C 	C 	0.62694 0.77764 0.71572 0.04300
C 	C 	0.64541 0.78371 0.74358 -0.11500
C 	C 	0.66289 0.74549 0.77042 0.06300
C 	C 	0.66029 0.70369 0.77042 -0.15600
C 	C 	0.64188 0.69678 0.74464 0.06500
C 	C 	0.62377 0.73357 0.71826 -0.11800
C 	C 	0.52426 0.53846 0.79648 0.42500
C 	C 	0.79731 0.64011 0.69618 0.36600
C 	C 	0.83709 0.66559 0.63602 -0.13000
C 	C 	0.82767 0.65767 0.60246 0.04300
C 	C 	0.86702 0.67732 0.54696 -0.10400
C 	C 	0.91385 0.70585 0.52290 0.03700
C 	C 	0.92073 0.71333 0.55794 -0.11600
C 	C 	0.88340 0.69390 0.61160 0.06000
C 	C 	0.95697 0.72227 0.46586 0.08100
C 	C 	0.95164 0.74554 0.42092 -0.12800
C 	C 	0.99205 0.76035 0.36750 0.05300
C 	C 	0.03684 0.75284 0.35932 -0.14700
C 	C 	0.04144 0.73184 0.40352 0.07200
C 	C 	0.00217 0.71748 0.45544 -0.16400
C 	C 	0.98353 0.78013 0.32074 0.11000
C 	C 	0.95524 0.81364 0.31552 -0.17500
C 	C 	0.94761 0.83341 0.27438 0.11400
C 	C 	0.96838 0.82138 0.23524 -0.18800
C 	C 	0.99688 0.78908 0.24044 0.18100
C 	C 	0.00330 0.76780 0.28200 -0.24200
C 	C 	0.95845 0.84155 0.19030 0.42000
C 	C 	0.08978 0.72528 0.39444 0.04100
C 	C 	0.13391 0.75801 0.34458 -0.10900
C 	C 	0.18023 0.75123 0.33674 0.04800
C 	C 	0.18059 0.71189 0.37982 -0.13900
C 	C 	0.13615 0.67945 0.42910 0.06000
C 	C 	0.09180 0.68670 0.43580 -0.12100
C 	C 	0.67430 0.47940 0.87040 0.40400
C 	C 	0.79946 0.68026 0.83948 0.36400
C 	C 	0.84051 0.71581 0.82738 -0.12800
C 	C 	0.83080 0.75390 0.83360 0.05900
C 	C 	0.86858 0.78748 0.81904 -0.11600
C 	C 	0.91666 0.78596 0.79688 0.04400
C 	C 	0.92499 0.74749 0.79102 -0.11800
C 	C 	0.88806 0.71156 0.80748 0.05600
C 	C 	0.95994 0.82856 0.77232 0.08700
C 	C 	0.95789 0.85349 0.79542 -0.14500
C 	C 	0.99767 0.89277 0.77106 0.07300
C 	C 	0.04143 0.90643 0.72034 -0.14500
C 	C 	0.04356 0.88158 0.69458 0.06600
C 	C 	0.00261 0.84301 0.72218 -0.16200
C 	C 	0.99548 0.92088 0.79684 0.05500
C 	C 	0.95544 0.93384 0.82052 -0.12600
C 	C 	0.95483 0.95973 0.84354 0.06800
C 	C 	0.99450 0.97573 0.84140 -0.13200
C 	C 	0.03709 0.96489 0.81562 0.05200
C 	C 	0.03949 0.93899 0.79322 -0.13000
C 	C 	0.87085 0.85925 0.13450 0.41200
C 	C 	0.08912 0.89719 0.64016 0.04400
C 	C 	0.13690 0.91510 0.62340 -0.12600
C 	C 	0.17743 0.92533 0.57514 0.06800
C 	C 	0.17241 0.92061 0.53918 -0.14300
C 	C 	0.12603 0.90283 0.55254 0.05100
C 	C 	0.08394 0.89184 0.60392 -0.11800
C 	C 	0.68409 0.54819 0.98362 0.43400
C 	C 	0.94957 0.61277 0.63486 0.35600
C 	C 	0.91030 0.58071 0.64232 -0.11500
C 	C 	0.91973 0.57983 0.59674 0.03700
C 	C 	0.88184 0.55364 0.60212 -0.09600
C 	C 	0.83324 0.52924 0.65172 0.02700
C 	C 	0.82661 0.52955 0.69598 -0.09600
C 	C 	0.86527 0.55474 0.69206 0.03500
C 	C 	0.78988 0.50808 0.65524 0.07600
C 	C 	0.79436 0.48416 0.62948 -0.14000
C 	C 	0.75380 0.46670 0.63180 0.06600
C 	C 	0.70913 0.47163 0.66074 -0.13700
C 	C 	0.70533 0.49673 0.68634 0.06600
C 	C 	0.74566 0.51346 0.68328 -0.14800
C 	C 	0.75983 0.44459 0.59870 0.04000
C 	C 	0.79827 0.46969 0.54240 -0.11200
C 	C 	0.80277 0.44959 0.51234 0.05100
C 	C 	0.76883 0.40439 0.53858 -0.13500
C 	C 	0.73040 0.37931 0.59486 0.05000
C 	C 	0.72590 0.39941 0.62492 -0.11200
C 	C 	0.02810 0.86620 0.99400 0.42800
C 	C 	0.65734 0.50664 0.71572 0.04200
C 	C 	0.61101 0.47271 0.74358 -0.11500
C 	C 	0.56669 0.48409 0.77042 0.06300
C 	C 	0.56929 0.52589 0.77042 -0.15500
C 	C 	0.61348 0.55858 0.74464 0.06400
C 	C 	0.65797 0.54817 0.71826 -0.11700
C 	C 	0.67926 0.66506 0.79648 0.42500
C 	C 	0.39011 0.75651 0.19618 0.36500
C 	C 	0.41559 0.77689 0.13602 -0.12900
C 	C 	0.40767 0.81987 0.10246 0.04100
C 	C 	0.42732 0.83602 0.04696 -0.10300
C 	C 	0.45585 0.81325 0.02290 0.03400
C 	C 	0.46333 0.77133 0.05794 -0.11600
C 	C 	0.44390 0.75500 0.11160 0.05800
C 	C 	0.47227 0.82717 0.96586 0.06400
C 	C 	0.49554 0.87744 0.92092 -0.12100
C 	C 	0.51035 0.89045 0.86750 0.04300
C 	C 	0.50284 0.85384 0.85932 -0.12200
C 	C 	0.48184 0.80504 0.90352 0.05400
C 	C 	0.46748 0.79239 0.95544 -0.13300
C 	C 	0.53013 0.94573 0.82074 0.06100
C 	C 	0.56364 0.97924 0.81552 -0.14000
C 	C 	0.58341 0.02801 0.77438 0.07600
C 	C 	0.57138 0.04638 0.73524 -0.14300
C 	C 	0.53908 0.01268 0.74044 0.08200
C 	C 	0.51780 0.96470 0.78200 -0.14800
C 	C 	0.59155 0.10125 0.69030 0.40200
C 	C 	0.47528 0.76578 0.89444 0.05400
C 	C 	0.50801 0.77151 0.84458 -0.11700
C 	C 	0.50123 0.73303 0.83674 0.05400
C 	C 	0.46189 0.68959 0.87982 -0.14300
C 	C 	0.42945 0.68475 0.92910 0.06700
C 	C 	0.43670 0.72240 0.93580 -0.12900
C 	C 	0.22940 0.70530 0.37040 0.40300
C 	C 	0.43026 0.61106 0.33948 0.36700
C 	C 	0.46581 0.58211 0.32738 -0.13800
C 	C 	0.50390 0.58560 0.33360 0.07200
C 	C 	0.53748 0.56238 0.31904 -0.13300
C 	C 	0.53596 0.53646 0.29688 0.06400
C 	C 	0.49749 0.53399 0.29102 -0.13600
C 	C 	0.46156 0.55446 0.30748 0.06800
C 	C 	0.57856 0.51774 0.27232 0.04300
C 	C 	0.60349 0.49669 0.29542 -0.11100
C 	C 	0.64277 0.48127 0.27106 0.03600
C 	C 	0.65643 0.48823 0.22034 -0.10200
C 	C 	0.63158 0.51186 0.19458 0.03200
C 	C 	0.59301 0.52521 0.22218 -0.11100
C 	C 	0.67088 0.45768 0.29684 0.05700
C 	C 	0.68384 0.47404 0.32052 -0.13500
C 	C 	0.70973 0.45163 0.34354 0.07400
C 	C 	0.72573 0.41410 0.34140 -0.14400
C 	C 	0.71489 0.39729 0.31562 0.07000
C 	C 	0.68899 0.41729 0.29322 -0.12700
C 	C 	0.60925 0.24465 0.63450 0.41200
C 	C 	0.64719 0.52072 0.14016 0.07000
C 	C 	0.66510 0.48970 0.12340 -0.14900
C 	C 	0.67533 0.49743 0.07514 0.09000
C 	C 	0.67061 0.53841 0.03918 -0.16500
C 	C 	0.65283 0.57143 0.05254 0.07100
C 	C 	0.64184 0.56214 0.10392 -0.13900
C 	C 	0.29819 0.58229 0.48362 0.42400
C 	C 	0.36277 0.66557 0.13486 0.35800
C 	C 	0.33071 0.69738 0.14232 -0.11800
C 	C 	0.32983 0.73353 0.09674 0.03800
C 	C 	0.30364 0.76604 0.10212 -0.09800
C 	C 	0.27924 0.76504 0.15172 0.02700
C 	C 	0.27955 0.72741 0.19598 -0.09800
C 	C 	0.30474 0.69267 0.19206 0.03700
C 	C 	0.25808 0.80488 0.15524 0.07600
C 	C 	0.23416 0.82616 0.12948 -0.14200
C 	C 	0.21670 0.86440 0.13180 0.06900
C 	C 	0.22163 0.88013 0.16074 -0.14000
C 	C 	0.24673 0.85833 0.18634 0.06700
C 	C 	0.26346 0.82106 0.18328 -0.14900
C 	C 	0.19459 0.89147 0.09870 0.03000
C 	C 	0.21969 0.90933 0.04240 -0.09700
C 	C 	0.19959 0.93489 0.01234 0.02400
C 	C 	0.15439 0.94259 0.03858 -0.12200
C 	C 	0.12931 0.92474 0.09486 0.03800
C 	C 	0.14941 0.89918 0.12492 -0.10300
C 	C 	0.61620 0.22790 0.49400 0.41200
C 	C 	0.25664 0.87694 0.21572 0.04100
C 	C 	0.22271 0.89541 0.24358 -0.11400
C 	C 	0.23409 0.91289 0.27042 0.06200
C 	C 	0.27589 0.91029 0.27042 -0.15500
C 	C 	0.30858 0.89188 0.24464 0.06400
C 	C 	0.29817 0.87377 0.21826 -0.11700
C 	C 	0.41506 0.77426 0.29648 0.42400
C 	C 	0.41371 0.04731 0.19618 0.36500
C 	C 	0.44839 0.08709 0.13602 -0.12800
C 	C 	0.48987 0.07767 0.10246 0.04000
C 	C 	0.52572 0.11702 0.04696 -0.10100
C 	C 	0.52125 0.16385 0.02290 0.03200
C 	C 	0.47873 0.17073 0.05794 -0.11400
C 	C 	0.44450 0.13340 0.11160 0.05700
C 	C 	0.56187 0.20697 0.96586 0.06800
C 	C 	0.58354 0.20164 0.92092 -0.12500
C 	C 	0.62215 0.24205 0.86750 0.05000
C 	C 	0.63784 0.28684 0.85932 -0.12700
C 	C 	0.61464 0.29144 0.90352 0.05800
C 	C 	0.57708 0.25217 0.95544 -0.13600
C 	C 	0.64913 0.23353 0.82074 0.04800
C 	C 	0.62084 0.20524 0.81552 -0.12100
C 	C 	0.64221 0.19761 0.77438 0.05600
C 	C 	0.69338 0.21838 0.73524 -0.13000
C 	C 	0.72048 0.24688 0.74044 0.06100
C 	C 	0.70020 0.25330 0.78200 -0.12800
C 	C 	0.71815 0.20845 0.69030 0.39700
C 	C 	0.63028 0.33978 0.89444 0.05200
C 	C 	0.64741 0.38391 0.84458 -0.11600
C 	C 	0.66203 0.43023 0.83674 0.05400
C 	C 	0.65829 0.43059 0.87982 -0.14200
C 	C 	0.64145 0.38615 0.92910 0.06700
C 	C 	0.62750 0.34180 0.93580 -0.12800
C 	C 	0.40020 0.92430 0.37040 0.40500
C 	C 	0.23026 0.04946 0.33948 0.36500
C 	C 	0.20681 0.09051 0.32738 -0.13500
C 	C 	0.16250 0.08080 0.33360 0.06700
C 	C 	0.14348 0.11858 0.31904 -0.12800
C 	C 	0.16716 0.16666 0.29688 0.05800
C 	C 	0.21149 0.17499 0.29102 -0.13100
C 	C 	0.23096 0.13806 0.30748 0.06400
C 	C 	0.14912 0.20994 0.27232 0.05100
C 	C 	0.10109 0.20789 0.29542 -0.12500
C 	C 	0.08617 0.24767 0.27106 0.05500
C 	C 	0.12323 0.29143 0.22034 -0.11400
C 	C 	0.17384 0.29356 0.19458 0.03900
C 	C 	0.18481 0.25261 0.22218 -0.12000
C 	C 	0.03228 0.24548 0.29684 0.01500
C 	C 	0.99564 0.20544 0.32052 -0.05700
C 	C 	0.94673 0.20483 0.34354 0.03300
C 	C 	0.93287 0.24450 0.34140 -0.12600
C 	C 	0.96949 0.28709 0.31562 0.07300
C 	C 	0.01779 0.28949 0.29322 -0.12700
C 	C 	0.75625 0.12085 0.63450 0.41000
C 	C 	0.21265 0.33912 0.14016 0.06500
C 	C 	0.21150 0.38690 0.12340 -0.14600
C 	C 	0.24953 0.42743 0.07514 0.08800
C 	C 	0.29021 0.42241 0.03918 -0.16300
C 	C 	0.29463 0.37603 0.05254 0.06800
C 	C 	0.25424 0.33394 0.10392 -0.13600
C 	C 	0.21819 0.93409 0.48362 0.42100
C 	C 	0.50237 0.19957 0.13486 0.35700
C 	C 	0.52697 0.16030 0.14232 -0.11600
C 	C 	0.57343 0.16973 0.09674 0.03600
C 	C 	0.59424 0.13184 0.10212 -0.09500
C 	C 	0.56904 0.08324 0.15172 0.02200
C 	C 	0.52447 0.07661 0.19598 -0.09400
C 	C 	0.50320 0.11527 0.19206 0.03500
C 	C 	0.58668 0.03988 0.15524 0.08900
C 	C 	0.63636 0.04436 0.12948 -0.15200
C 	C 	0.65150 0.00380 0.13180 0.08000
C 	C 	0.61763 0.95913 0.16074 -0.15200
C 	C 	0.56693 0.95533 0.18634 0.07600
C 	C 	0.55326 0.99566 0.18328 -0.16300
C 	C 	0.70671 0.00983 0.09870 0.02900
C 	C 	0.73791 0.04827 0.04240 -0.09300
C 	C 	0.78807 0.05277 0.01234 0.02100
C 	C 	0.80703 0.01883 0.03858 -0.11600
C 	C 	0.77583 0.98040 0.09486 0.03300
C 	C 	0.72567 0.97590 0.12492 -0.10200
C 	C 	0.88980 0.27810 0.49400 0.42600
C 	C 	0.52764 0.90734 0.21572 0.03600
C 	C 	0.53371 0.86101 0.24358 -0.11100
C 	C 	0.49549 0.81669 0.27042 0.06000
C 	C 	0.45369 0.81929 0.27042 -0.15300
C 	C 	0.44678 0.86348 0.24464 0.06100
C 	C 	0.48357 0.90797 0.21826 -0.11400
C 	C 	0.28846 0.92926 0.29648 0.42400
O 	O 	0.94384 0.62025 0.77466 -0.43100
O 	O 	0.99364 0.57740 0.78574 -0.43400
O 	O 	0.81924 0.30908 0.30814 -0.45700
O 	O 	0.77038 0.23556 0.34544 -0.45900
O 	O 	0.05557 0.58998 0.67786 -0.49900
O 	O 	0.08360 0.64063 0.58778 -0.50100
O 	O 	0.94050 0.72840 0.66776 -0.40200
O 	O 	0.99294 0.79241 0.64156 -0.45100
O 	O 	0.84739 0.20691 0.38282 -0.48800
O 	O 	0.87121 0.28145 0.36462 -0.47300
O 	O 	0.05313 0.74108 0.52548 -0.52400
O 	O 	0.07021 0.78950 0.54864 -0.50400
O 	O 	0.81004 0.53999 0.82446 -0.40100
O 	O 	0.99064 0.63587 0.58886 -0.45100
O 	O 	0.73873 0.13599 0.45408 -0.48000
O 	O 	0.73039 0.12533 0.52902 -0.49900
O 	O 	0.05343 0.74298 0.68070 -0.51600
O 	O 	0.07602 0.67405 0.70286 -0.50300
O 	O 	0.01745 0.68208 0.65120 -0.93600
O 	O 	0.75523 0.24928 0.43538 -0.91400
O 	O 	0.28150 0.60509 0.77466 -0.43400
O 	O 	0.22062 0.63686 0.78574 -0.44200
O 	O 	0.87262 0.38278 0.30814 -0.46100
O 	O 	0.88418 0.41900 0.34544 -0.46200
O 	O 	0.26657 0.73216 0.67786 -0.49500
O 	O 	0.32862 0.77159 0.58778 -0.49900
O 	O 	0.39174 0.60384 0.66776 -0.40500
O 	O 	0.36550 0.56603 0.64156 -0.45900
O 	O 	0.76979 0.41027 0.38282 -0.49000
O 	O 	0.76417 0.35393 0.36462 -0.47500
O 	O 	0.42139 0.73344 0.52548 -0.52000
O 	O 	0.38115 0.66186 0.54864 -0.50200
O 	O 	0.36550 0.63555 0.82446 -0.40200
O 	O 	0.42050 0.77527 0.58886 -0.45900
O 	O 	0.80719 0.40993 0.45408 -0.47800
O 	O 	0.74059 0.34565 0.52902 -0.49800
O 	O 	0.26587 0.57632 0.68070 -0.51100
O 	O 	0.22112 0.62309 0.70286 -0.50000
O 	O 	0.33135 0.66672 0.65120 -0.91900
O 	O 	0.80939 0.31534 0.43538 -0.91400
O 	O 	0.37025 0.53150 0.27466 -0.43300
O 	O 	0.32740 0.47062 0.28574 -0.44100
O 	O 	0.05908 0.12262 0.80814 -0.45300
O 	O 	0.98556 0.13418 0.84544 -0.44200
O 	O 	0.33998 0.51657 0.17786 -0.49600
O 	O 	0.39063 0.57862 0.08778 -0.50100
O 	O 	0.47840 0.64174 0.16776 -0.40600
O 	O 	0.54241 0.61550 0.14156 -0.46000
O 	O 	0.95691 0.01979 0.88282 -0.49000
O 	O 	0.03145 0.01417 0.86462 -0.48700
O 	O 	0.49108 0.67139 0.02548 -0.52100
O 	O 	0.53950 0.63115 0.04864 -0.50200
O 	O 	0.28999 0.61550 0.32446 -0.40200
O 	O 	0.38587 0.67050 0.08886 -0.46100
O 	O 	0.88599 0.05719 0.95408 -0.47000
O 	O 	0.87533 0.99059 0.02902 -0.49600
O 	O 	0.49298 0.51587 0.18070 -0.51200
O 	O 	0.42405 0.47112 0.20286 -0.50100
O 	O 	0.43208 0.58135 0.15120 -0.91900
O 	O 	0.99928 0.05939 0.93538 -0.88800
O 	O 	0.35509 0.19384 0.27466 -0.43300
O 	O 	0.38686 0.24364 0.28574 -0.44100
O 	O 	0.13278 0.06924 0.80814 -0.45900
O 	O 	0.16900 0.02038 0.84544 -0.45900
O 	O 	0.48216 0.30557 0.17786 -0.49500
O 	O 	0.52159 0.33360 0.08778 -0.50100
O 	O 	0.35384 0.19050 0.16776 -0.40500
O 	O 	0.31603 0.24294 0.14156 -0.46000
O 	O 	0.16027 0.09739 0.88282 -0.48900
O 	O 	0.10393 0.12121 0.86462 -0.47600
O 	O 	0.48344 0.30313 0.02548 -0.52100
O 	O 	0.41186 0.32021 0.04864 -0.50200
O 	O 	0.38555 0.06004 0.32446 -0.40100
O 	O 	0.52527 0.24064 0.08886 -0.46000
O 	O 	0.15993 0.98873 0.95408 -0.47200
O 	O 	0.09565 0.98039 0.02902 -0.49400
O 	O 	0.32632 0.30343 0.18070 -0.51200
O 	O 	0.37309 0.32602 0.20286 -0.50100
O 	O 	0.41672 0.26745 0.15120 -0.91900
O 	O 	0.06534 0.00523 0.93538 -0.90900
O 	O 	0.46850 0.62975 0.72534 -0.43400
O 	O 	0.52938 0.67260 0.71426 -0.44100
O 	O 	0.87738 0.94092 0.19186 -0.45500
O 	O 	0.86582 0.01444 0.15456 -0.45400
O 	O 	0.48343 0.66002 0.82214 -0.49500
O 	O 	0.42138 0.60937 0.91222 -0.49800
O 	O 	0.35826 0.52160 0.83224 -0.40500
O 	O 	0.38450 0.45759 0.85844 -0.45900
O 	O 	0.98021 0.04309 0.11718 -0.49100
O 	O 	0.98583 0.96855 0.13538 -0.47800
O 	O 	0.32861 0.50892 0.97452 -0.52000
O 	O 	0.36885 0.46050 0.95136 -0.50200
O 	O 	0.38450 0.71001 0.67554 -0.40200
O 	O 	0.32950 0.61413 0.91114 -0.45700
O 	O 	0.94281 0.11401 0.04592 -0.48900
O 	O 	0.00941 0.12467 0.97098 -0.51700
O 	O 	0.48413 0.50702 0.81930 -0.51200
O 	O 	0.52888 0.57595 0.79714 -0.50100
O 	O 	0.41865 0.56792 0.84880 -0.91900
O 	O 	0.94061 0.00072 0.06462 -0.90600
O 	O 	0.80616 0.64491 0.72534 -0.43300
O 	O 	0.75636 0.61314 0.71426 -0.44100
O 	O 	0.93076 0.86722 0.19186 -0.46200
O 	O 	0.97962 0.83100 0.15456 -0.45800
O 	O 	0.69443 0.51784 0.82214 -0.49500
O 	O 	0.66640 0.47841 0.91222 -0.49800
O 	O 	0.80950 0.64616 0.83224 -0.40400
O 	O 	0.75706 0.68397 0.85844 -0.45800
O 	O 	0.90261 0.83973 0.11718 -0.48900
O 	O 	0.87879 0.89607 0.13538 -0.47500
O 	O 	0.69687 0.51656 0.97452 -0.52000
O 	O 	0.67979 0.58814 0.95136 -0.50200
O 	O 	0.93996 0.61445 0.67554 -0.39900
O 	O 	0.75936 0.47473 0.91114 -0.45600
O 	O 	0.01127 0.84007 0.04592 -0.49500
O 	O 	0.01961 0.90435 0.97098 -0.50600
O 	O 	0.69657 0.67368 0.81930 -0.51200
O 	O 	0.67398 0.62691 0.79714 -0.50100
O 	O 	0.73255 0.58328 0.84880 -0.91900
O 	O 	0.99477 0.93466 0.06462 -0.89600
O 	O 	0.39491 0.71850 0.22534 -0.43300
O 	O 	0.36314 0.77938 0.21426 -0.44100
O 	O 	0.61722 0.12738 0.69186 -0.45800
O 	O 	0.58100 0.11582 0.65456 -0.46000
O 	O 	0.26784 0.73343 0.32214 -0.49500
O 	O 	0.22841 0.67138 0.41222 -0.49900
O 	O 	0.39616 0.60826 0.33224 -0.40500
O 	O 	0.43397 0.63450 0.35844 -0.45900
O 	O 	0.58973 0.23021 0.61718 -0.49000
O 	O 	0.64607 0.23583 0.63538 -0.47500
O 	O 	0.26656 0.57861 0.47452 -0.52000
O 	O 	0.33814 0.61885 0.45136 -0.50200
O 	O 	0.36445 0.63450 0.17554 -0.40200
O 	O 	0.22473 0.57950 0.41114 -0.45900
O 	O 	0.59007 0.19281 0.54592 -0.47900
O 	O 	0.65435 0.25941 0.47098 -0.49800
O 	O 	0.42368 0.73413 0.31930 -0.51200
O 	O 	0.37691 0.77888 0.29714 -0.50100
O 	O 	0.33328 0.66865 0.34880 -0.91900
O 	O 	0.68466 0.19061 0.56462 -0.91400
O 	O 	0.37975 0.05616 0.22534 -0.43200
O 	O 	0.42260 0.00636 0.21426 -0.43900
O 	O 	0.69092 0.18076 0.69186 -0.45700
O 	O 	0.76444 0.22962 0.65456 -0.45800
O 	O 	0.41002 0.94443 0.32214 -0.49600
O 	O 	0.35937 0.91640 0.41222 -0.50000
O 	O 	0.27160 0.05950 0.33224 -0.40400
O 	O 	0.20759 0.00706 0.35844 -0.45700
O 	O 	0.79309 0.15261 0.61718 -0.48900
O 	O 	0.71855 0.12879 0.63538 -0.47400
O 	O 	0.25892 0.94687 0.47452 -0.52000
O 	O 	0.21050 0.92979 0.45136 -0.50200
O 	O 	0.46001 0.18996 0.17554 -0.40200
O 	O 	0.36413 0.00936 0.41114 -0.45700
O 	O 	0.86401 0.26127 0.54592 -0.48200
O 	O 	0.87467 0.26961 0.47098 -0.50300
O 	O 	0.25702 0.94657 0.31930 -0.51300
O 	O 	0.32595 0.92398 0.29714 -0.50100
O 	O 	0.31792 0.98255 0.34880 -0.92300
O 	O 	0.75072 0.24477 0.56462 -0.91400
