data_crystal

_cell_length_a 12.60800
_cell_length_b 14.21450
_cell_length_c 14.89800
_cell_angle_alpha 69.32100
_cell_angle_beta  67.50300
_cell_angle_gamma 78.32900

_symmetry_space_group_name_	'P 1'
_symmetry_space_group_name_H-M	'P 1'

loop_
_symmetry_equiv_pos_as_xyz
  x,y,z

loop_
_atom_site_label
_atom_site_type_symbol
_atom_site_fract_x
_atom_site_fract_y
_atom_site_fract_z
_atom_site_charge
Tb	Tb	0.43554 0.48139 0.40405 1.83800
Tb	Tb	0.94881 0.94611 0.90663 1.82200
O 	O 	0.44470 0.50870 0.22300 -0.39000
O 	O 	0.07090 0.82040 0.82380 -0.39700
O 	O 	0.53060 0.60440 0.44060 -0.55600
O 	O 	0.80400 0.95280 0.06490 -0.48000
O 	O 	0.87000 0.98800 0.16830 -0.48700
O 	O 	0.36390 0.58180 0.63730 -0.46900
O 	O 	0.30820 0.56230 0.51920 -0.48500
O 	O 	0.99150 0.95100 0.73180 -0.43000
O 	O 	0.03680 0.85540 0.02520 -0.51500
C 	C 	0.53420 0.67160 0.35530 0.40900
O 	O 	0.50700 0.65450 0.29100 -0.40900
N 	N 	0.26480 0.36130 0.51810 -0.20000
O 	O 	0.28750 0.55970 0.32960 -0.41000
C 	C 	0.69980 0.90620 0.24190 -0.19400
C 	C 	0.79960 0.95300 0.15100 0.47700
O 	O 	0.10080 0.87590 0.13570 -0.47300
N 	N 	0.75290 0.97560 0.87450 -0.21300
N 	N 	0.83110 0.79150 0.97940 -0.21600
C 	C 	0.17260 0.73030 0.08270 -0.17600
C 	C 	0.57080 0.77310 0.33840 -0.18400
C 	C 	0.65900 0.81820 0.25040 0.11500
H 	H 	0.69050 0.78960 0.19750 0.00200
C 	C 	0.29390 0.59830 0.15940 -0.12400
C 	C 	0.21740 0.68280 0.16190 0.07800
H 	H 	0.19560 0.70830 0.21650 0.02400
N 	N 	0.44590 0.31520 0.36410 -0.21200
C 	C 	0.30410 0.60710 0.58000 0.45500
C 	C 	0.10650 0.82830 0.65240 -0.13000
C 	C 	0.09800 0.82680 0.08190 0.46200
C 	C 	0.51660 0.82020 0.41310 0.10100
H 	H 	0.45680 0.79080 0.47120 -0.01000
C 	C 	0.05260 0.86890 0.74120 0.34500
C 	C 	0.64730 0.95150 0.31850 0.10800
H 	H 	0.67610 0.00870 0.31450 0.00100
C 	C 	0.34570 0.55240 0.24220 0.33600
C 	C 	0.18120 0.74220 0.65680 0.08400
H 	H 	0.20200 0.71070 0.71470 0.02000
C 	C 	0.26540 0.27550 0.49710 0.03400
C 	C 	0.20090 0.69020 0.00350 0.07400
H 	H 	0.16860 0.72030 0.95230 0.01700
C 	C 	0.32510 0.55950 0.07820 0.05200
H 	H 	0.37750 0.50330 0.07560 0.02400
C 	C 	0.27750 0.60490 0.00050 -0.13400
H 	H 	0.29710 0.57820 0.94700 0.08100
C 	C 	0.35850 0.25320 0.41310 0.03700
C 	C 	0.22570 0.70210 0.57590 -0.17300
C 	C 	0.68150 0.89760 0.92290 0.03800
C 	C 	0.64750 0.72330 0.03030 0.01800
C 	C 	0.72170 0.80240 0.97850 0.02600
C 	C 	0.07760 0.87720 0.56430 0.06100
H 	H 	0.02780 0.93530 0.56090 0.02200
C 	C 	0.55210 0.91180 0.40080 -0.17100
H 	H 	0.51190 0.94660 0.44800 0.09000
C 	C 	0.17740 0.20810 0.55490 0.00700
C 	C 	0.53170 0.29480 0.28580 0.07500
H 	H 	0.59270 0.33590 0.25250 0.00300
C 	C 	0.56880 0.91320 0.91860 -0.01500
C 	C 	0.71460 0.06430 0.82200 0.09700
H 	H 	0.76330 0.11650 0.78780 0.00200
C 	C 	0.12290 0.83910 0.48180 -0.14300
H 	H 	0.10480 0.87210 0.42280 0.08800
C 	C 	0.79760 0.61990 0.08770 -0.09900
H 	H 	0.82610 0.55890 0.12390 0.06800
C 	C 	0.35870 0.16740 0.38590 0.00000
C 	C 	0.09080 0.31540 0.65950 -0.09600
H 	H 	0.03320 0.33180 0.71450 0.07000
C 	C 	0.18200 0.12140 0.52540 -0.05600
H 	H 	0.12460 0.07680 0.56360 0.06000
C 	C 	0.53510 0.21500 0.25090 -0.09300
H 	H 	0.59530 0.20540 0.19370 0.06400
C 	C 	0.18100 0.37860 0.59680 0.07800
H 	H 	0.18100 0.43640 0.61250 0.01000
C 	C 	0.86700 0.70180 0.03320 0.08100
H 	H 	0.94150 0.69320 0.03460 0.00000
C 	C 	0.08890 0.23110 0.63880 -0.02100
H 	H 	0.02990 0.18850 0.67930 0.04900
C 	C 	0.19490 0.75170 0.48890 0.08400
H 	H 	0.22360 0.72520 0.43460 0.01300
C 	C 	0.69060 0.63090 0.08660 -0.02000
H 	H 	0.64380 0.57740 0.12320 0.04900
C 	C 	0.60430 0.08130 0.81680 -0.11800
H 	H 	0.58170 0.14410 0.77850 0.08400
C 	C 	0.26500 0.10290 0.44560 -0.05200
H 	H 	0.26330 0.04720 0.42740 0.05000
C 	C 	0.53440 0.73990 0.02480 -0.04800
H 	H 	0.48580 0.68770 0.05820 0.06200
C 	C 	0.49740 0.82880 0.97260 -0.05200
H 	H 	0.42310 0.83720 0.97070 0.05000
C 	C 	0.44860 0.15090 0.30200 -0.03200
H 	H 	0.45030 0.09650 0.28050 0.04300
C 	C 	0.52970 0.00960 0.86550 0.00400
H 	H 	0.45480 0.02270 0.86450 0.04200
Tb	Tb	0.56446 0.51861 0.59595 1.83700
Tb	Tb	0.05119 0.05389 0.09337 1.82100
O 	O 	0.55530 0.49130 0.77700 -0.39000
O 	O 	0.92910 0.17960 0.17620 -0.39700
O 	O 	0.46940 0.39560 0.55940 -0.55600
O 	O 	0.19600 0.04720 0.93510 -0.48000
O 	O 	0.13000 0.01200 0.83170 -0.48700
O 	O 	0.63610 0.41820 0.36270 -0.46900
O 	O 	0.69180 0.43770 0.48080 -0.48500
O 	O 	0.00850 0.04900 0.26820 -0.43000
O 	O 	0.96320 0.14460 0.97480 -0.51500
C 	C 	0.46580 0.32840 0.64470 0.40900
O 	O 	0.49300 0.34550 0.70900 -0.40900
N 	N 	0.73520 0.63870 0.48190 -0.20000
O 	O 	0.71250 0.44030 0.67040 -0.41000
C 	C 	0.30020 0.09380 0.75810 -0.19400
C 	C 	0.20040 0.04700 0.84900 0.47700
O 	O 	0.89920 0.12410 0.86430 -0.47300
N 	N 	0.24710 0.02440 0.12550 -0.21300
N 	N 	0.16890 0.20850 0.02060 -0.21600
C 	C 	0.82740 0.26970 0.91730 -0.17600
C 	C 	0.42920 0.22690 0.66160 -0.18400
C 	C 	0.34100 0.18180 0.74960 0.11500
H 	H 	0.30950 0.21040 0.80250 0.00200
C 	C 	0.70610 0.40170 0.84060 -0.12400
C 	C 	0.78260 0.31720 0.83810 0.07800
H 	H 	0.80440 0.29170 0.78350 0.02400
N 	N 	0.55410 0.68480 0.63590 -0.21200
C 	C 	0.69590 0.39290 0.42000 0.45500
C 	C 	0.89350 0.17170 0.34760 -0.13000
C 	C 	0.90200 0.17320 0.91810 0.46200
C 	C 	0.48340 0.17980 0.58690 0.10100
H 	H 	0.54320 0.20920 0.52880 -0.01000
C 	C 	0.94740 0.13110 0.25880 0.34500
C 	C 	0.35270 0.04850 0.68150 0.10800
H 	H 	0.32390 0.99130 0.68550 0.00100
C 	C 	0.65430 0.44760 0.75780 0.33600
C 	C 	0.81880 0.25780 0.34320 0.08400
H 	H 	0.79800 0.28930 0.28530 0.02000
C 	C 	0.73460 0.72450 0.50290 0.03400
C 	C 	0.79910 0.30980 0.99650 0.07400
H 	H 	0.83140 0.27970 0.04770 0.01700
C 	C 	0.67490 0.44050 0.92180 0.05200
H 	H 	0.62250 0.49670 0.92440 0.02400
C 	C 	0.72250 0.39510 0.99950 -0.13400
H 	H 	0.70290 0.42180 0.05300 0.08100
C 	C 	0.64150 0.74680 0.58690 0.03700
C 	C 	0.77430 0.29790 0.42410 -0.17300
C 	C 	0.31850 0.10240 0.07710 0.03800
C 	C 	0.35250 0.27670 0.96970 0.01800
C 	C 	0.27830 0.19760 0.02150 0.02600
C 	C 	0.92240 0.12280 0.43570 0.06100
H 	H 	0.97220 0.06470 0.43910 0.02200
C 	C 	0.44790 0.08820 0.59920 -0.17100
H 	H 	0.48810 0.05340 0.55200 0.09000
C 	C 	0.82260 0.79190 0.44510 0.00700
C 	C 	0.46830 0.70520 0.71420 0.07500
H 	H 	0.40730 0.66410 0.74750 0.00300
C 	C 	0.43120 0.08680 0.08140 -0.01500
C 	C 	0.28540 0.93570 0.17800 0.09700
H 	H 	0.23670 0.88350 0.21220 0.00200
C 	C 	0.87710 0.16090 0.51820 -0.14300
H 	H 	0.89520 0.12790 0.57720 0.08800
C 	C 	0.20240 0.38010 0.91230 -0.09900
H 	H 	0.17390 0.44110 0.87610 0.06800
C 	C 	0.64130 0.83260 0.61410 0.00000
C 	C 	0.90920 0.68460 0.34050 -0.09600
H 	H 	0.96680 0.66820 0.28550 0.07000
C 	C 	0.81800 0.87860 0.47460 -0.05600
H 	H 	0.87540 0.92320 0.43640 0.06000
C 	C 	0.46490 0.78500 0.74910 -0.09300
H 	H 	0.40470 0.79460 0.80630 0.06400
C 	C 	0.81900 0.62140 0.40320 0.07800
H 	H 	0.81900 0.56360 0.38750 0.01000
C 	C 	0.13300 0.29820 0.96680 0.08100
H 	H 	0.05850 0.30680 0.96540 0.00000
C 	C 	0.91110 0.76890 0.36120 -0.02100
H 	H 	0.97010 0.81150 0.32070 0.04900
C 	C 	0.80510 0.24830 0.51110 0.08400
H 	H 	0.77640 0.27480 0.56540 0.01300
C 	C 	0.30940 0.36910 0.91340 -0.02000
H 	H 	0.35620 0.42260 0.87680 0.04900
C 	C 	0.39570 0.91870 0.18320 -0.11800
H 	H 	0.41830 0.85590 0.22150 0.08400
C 	C 	0.73500 0.89710 0.55440 -0.05200
H 	H 	0.73670 0.95280 0.57260 0.05000
C 	C 	0.46560 0.26010 0.97520 -0.04800
H 	H 	0.51420 0.31230 0.94180 0.06200
C 	C 	0.50260 0.17120 0.02740 -0.05200
H 	H 	0.57690 0.16280 0.02930 0.05000
C 	C 	0.55140 0.84910 0.69800 -0.03200
H 	H 	0.54970 0.90350 0.71950 0.04300
C 	C 	0.47030 0.99040 0.13450 0.00400
H 	H 	0.54520 0.97730 0.13550 0.04200
