data_crystal

_cell_length_a 31.38370
_cell_length_b 31.38370
_cell_length_c 15.04110
_cell_angle_alpha 90.00000
_cell_angle_beta  90.00000
_cell_angle_gamma 120.00000

_symmetry_space_group_name_	'P 1'
_symmetry_space_group_name_H-M	'P 1'

loop_
_symmetry_equiv_pos_as_xyz
  x,y,z

loop_
_atom_site_label
_atom_site_type_symbol
_atom_site_fract_x
_atom_site_fract_y
_atom_site_fract_z
_atom_site_charge
Zn	Zn	0.06126 0.73099 0.48673 1.21800
C 	C 	0.14864 0.73902 0.54580 0.34000
C 	C 	0.18600 0.72225 0.55150 -0.09600
C 	C 	0.17617 0.67775 0.51420 0.02700
H 	H 	0.14580 0.65740 0.48790 0.03400
C 	C 	0.21149 0.66367 0.51600 -0.10300
H 	H 	0.20430 0.63350 0.49170 0.06700
C 	C 	0.25809 0.69400 0.55392 0.03500
C 	C 	0.26604 0.73728 0.59470 -0.10100
H 	H 	0.29590 0.75720 0.62310 0.07200
C 	C 	0.23084 0.75127 0.59390 0.03000
H 	H 	0.23710 0.78030 0.62190 0.04100
C 	C 	0.29646 0.68001 0.55190 0.04700
C 	C 	0.34620 0.71595 0.55146 -0.10700
H 	H 	0.35490 0.74900 0.55090 0.07100
C 	C 	0.07503 0.81984 0.43320 0.34600
C 	C 	0.05805 0.85583 0.41630 -0.11100
C 	C 	0.08447 0.89570 0.35920 0.03900
H 	H 	0.11240 0.89940 0.33070 0.03400
C 	C 	0.06952 0.92960 0.34470 -0.11300
H 	H 	0.08810 0.95630 0.30770 0.07300
C 	C 	0.02734 0.92475 0.38419 0.04500
C 	C 	0.00008 0.88413 0.43920 -0.11700
H 	H 	0.97120 0.87950 0.46510 0.07600
C 	C 	0.01560 0.85074 0.45550 0.04400
H 	H 	0.99730 0.82430 0.49330 0.02700
C 	C 	0.01294 0.96315 0.37437 0.04200
C 	C 	0.96352 0.95086 0.37381 -0.10600
H 	H 	0.93910 0.91790 0.37310 0.06800
C 	C 	0.04298 0.67123 0.31720 0.22800
O 	O 	0.10901 0.82086 0.39120 -0.30100
O 	O 	0.05184 0.78754 0.49310 -0.46500
O 	O 	0.15106 0.77166 0.59555 -0.29400
O 	O 	0.11539 0.71745 0.48704 -0.46300
N 	N 	0.97183 0.65741 0.27910 -0.05200
N 	N 	0.00799 0.64808 0.25675 -0.25100
N 	N 	0.98428 0.68480 0.34910 -0.05300
N 	N 	0.08706 0.67365 0.31730 -0.35900
H 	H 	0.09430 0.65950 0.27590 0.17600
H 	H 	0.10790 0.68940 0.35880 0.17800
N 	N 	0.02920 0.69404 0.37588 -0.25100
Zn	Zn	0.72793 0.06433 0.82006 1.21700
C 	C 	0.81531 0.07235 0.87913 0.33900
C 	C 	0.85267 0.05558 0.88483 -0.09600
C 	C 	0.84284 0.01108 0.84753 0.02400
H 	H 	0.81247 0.99073 0.82123 0.03400
C 	C 	0.87816 0.99700 0.84933 -0.10100
H 	H 	0.87097 0.96683 0.82503 0.06500
C 	C 	0.92476 0.02733 0.88725 0.03300
C 	C 	0.93271 0.07061 0.92803 -0.10100
H 	H 	0.96257 0.09053 0.95643 0.07000
C 	C 	0.89751 0.08460 0.92723 0.02700
H 	H 	0.90377 0.11363 0.95523 0.04000
C 	C 	0.96313 0.01334 0.88523 0.04500
C 	C 	0.01287 0.04928 0.88479 -0.10600
H 	H 	0.02157 0.08233 0.88423 0.07000
C 	C 	0.74170 0.15317 0.76653 0.34500
C 	C 	0.72472 0.18916 0.74963 -0.11100
C 	C 	0.75114 0.22903 0.69253 0.03900
H 	H 	0.77907 0.23273 0.66403 0.03400
C 	C 	0.73619 0.26293 0.67803 -0.11300
H 	H 	0.75477 0.28963 0.64103 0.07300
C 	C 	0.69401 0.25808 0.71752 0.04500
C 	C 	0.66675 0.21746 0.77253 -0.11600
H 	H 	0.63787 0.21283 0.79843 0.07600
C 	C 	0.68227 0.18407 0.78883 0.04300
H 	H 	0.66397 0.15763 0.82663 0.02700
C 	C 	0.67961 0.29648 0.70770 0.04200
C 	C 	0.63019 0.28419 0.70714 -0.10700
H 	H 	0.60577 0.25123 0.70643 0.06900
C 	C 	0.70965 0.00456 0.65053 0.22800
O 	O 	0.77568 0.15419 0.72453 -0.30100
O 	O 	0.71851 0.12087 0.82643 -0.46500
O 	O 	0.81773 0.10499 0.92888 -0.29400
O 	O 	0.78206 0.05078 0.82037 -0.46300
N 	N 	0.63850 0.99074 0.61243 -0.05200
N 	N 	0.67466 0.98141 0.59008 -0.25100
N 	N 	0.65095 0.01813 0.68243 -0.05400
N 	N 	0.75373 0.00698 0.65063 -0.35900
H 	H 	0.76097 0.99283 0.60923 0.17600
H 	H 	0.77457 0.02273 0.69213 0.17800
N 	N 	0.69587 0.02737 0.70921 -0.25100
Zn	Zn	0.39460 0.39766 0.15340 1.21700
C 	C 	0.48197 0.40569 0.21247 0.33900
C 	C 	0.51933 0.38892 0.21817 -0.09700
C 	C 	0.50950 0.34442 0.18087 0.02600
H 	H 	0.47913 0.32407 0.15457 0.03300
C 	C 	0.54482 0.33034 0.18267 -0.10400
H 	H 	0.53763 0.30017 0.15837 0.06600
C 	C 	0.59142 0.36067 0.22059 0.03400
C 	C 	0.59937 0.40395 0.26137 -0.10200
H 	H 	0.62923 0.42387 0.28977 0.07100
C 	C 	0.56417 0.41794 0.26057 0.02900
H 	H 	0.57043 0.44697 0.28857 0.04000
C 	C 	0.62979 0.34668 0.21857 0.04600
C 	C 	0.67953 0.38262 0.21813 -0.10800
H 	H 	0.68823 0.41567 0.21757 0.07000
C 	C 	0.40836 0.48651 0.09987 0.34500
C 	C 	0.39138 0.52250 0.08297 -0.11100
C 	C 	0.41780 0.56237 0.02587 0.03900
H 	H 	0.44573 0.56607 0.99737 0.03400
C 	C 	0.40285 0.59627 0.01137 -0.11300
H 	H 	0.42143 0.62297 0.97437 0.07400
C 	C 	0.36067 0.59142 0.05086 0.04500
C 	C 	0.33341 0.55080 0.10587 -0.11700
H 	H 	0.30453 0.54617 0.13177 0.07600
C 	C 	0.34893 0.51741 0.12217 0.04300
H 	H 	0.33063 0.49097 0.15997 0.02700
C 	C 	0.34627 0.62982 0.04104 0.04200
C 	C 	0.29685 0.61753 0.04048 -0.10700
H 	H 	0.27243 0.58457 0.03977 0.06900
C 	C 	0.37631 0.33790 0.98387 0.22800
O 	O 	0.44234 0.48753 0.05787 -0.30200
O 	O 	0.38517 0.45421 0.15977 -0.46500
O 	O 	0.48439 0.43833 0.26222 -0.29400
O 	O 	0.44872 0.38412 0.15371 -0.46300
N 	N 	0.30516 0.32408 0.94577 -0.05200
N 	N 	0.34132 0.31475 0.92342 -0.25100
N 	N 	0.31761 0.35147 0.01577 -0.05400
N 	N 	0.42039 0.34032 0.98397 -0.35900
H 	H 	0.42763 0.32617 0.94257 0.17600
H 	H 	0.44123 0.35607 0.02547 0.17800
N 	N 	0.36253 0.36071 0.04255 -0.25100
Zn	Zn	0.26901 0.33027 0.48673 1.21700
C 	C 	0.26098 0.40962 0.54580 0.33900
C 	C 	0.27775 0.46375 0.55150 -0.09700
C 	C 	0.32225 0.49842 0.51420 0.02600
H 	H 	0.34260 0.48840 0.48790 0.03300
C 	C 	0.33633 0.54782 0.51600 -0.10400
H 	H 	0.36650 0.57080 0.49170 0.06600
C 	C 	0.30600 0.56409 0.55392 0.03400
C 	C 	0.26272 0.52876 0.59470 -0.10200
H 	H 	0.24280 0.53870 0.62310 0.07100
C 	C 	0.24873 0.47957 0.59390 0.02900
H 	H 	0.21970 0.45680 0.62190 0.04000
C 	C 	0.31999 0.61645 0.55190 0.04600
C 	C 	0.28405 0.63025 0.55146 -0.10800
H 	H 	0.25100 0.60590 0.55090 0.07000
C 	C 	0.18016 0.25519 0.43320 0.34500
C 	C 	0.14417 0.20222 0.41630 -0.11100
C 	C 	0.10430 0.18877 0.35920 0.03900
H 	H 	0.10060 0.21300 0.33070 0.03400
C 	C 	0.07040 0.13992 0.34470 -0.11300
H 	H 	0.04370 0.13180 0.30770 0.07300
C 	C 	0.07525 0.10259 0.38419 0.04500
C 	C 	0.11587 0.11595 0.43920 -0.11700
H 	H 	0.12050 0.09170 0.46510 0.07600
C 	C 	0.14926 0.16486 0.45550 0.04400
H 	H 	0.17570 0.17300 0.49330 0.02700
C 	C 	0.03685 0.04979 0.37437 0.04200
C 	C 	0.04914 0.01266 0.37381 -0.10600
H 	H 	0.08210 0.02120 0.37310 0.06800
C 	C 	0.32877 0.37175 0.31720 0.22800
O 	O 	0.17914 0.28815 0.39120 -0.30100
O 	O 	0.21246 0.26430 0.49310 -0.46500
O 	O 	0.22834 0.37940 0.59555 -0.29400
O 	O 	0.28255 0.39794 0.48704 -0.46300
N 	N 	0.34259 0.31442 0.27910 -0.05200
N 	N 	0.35192 0.35991 0.25675 -0.25100
N 	N 	0.31520 0.29948 0.34910 -0.05400
N 	N 	0.32635 0.41341 0.31730 -0.35900
H 	H 	0.34050 0.43480 0.27590 0.17600
H 	H 	0.31060 0.41850 0.35880 0.17800
N 	N 	0.30596 0.33516 0.37588 -0.25100
Zn	Zn	0.93567 0.66361 0.82006 1.21700
C 	C 	0.92765 0.74295 0.87913 0.33900
C 	C 	0.94442 0.79708 0.88483 -0.09500
C 	C 	0.98892 0.83175 0.84753 0.02300
H 	H 	0.00927 0.82173 0.82123 0.03500
C 	C 	0.00300 0.88115 0.84933 -0.10000
H 	H 	0.03317 0.90413 0.82503 0.06500
C 	C 	0.97267 0.89742 0.88725 0.03300
C 	C 	0.92939 0.86209 0.92803 -0.10000
H 	H 	0.90947 0.87203 0.95643 0.07000
C 	C 	0.91540 0.81290 0.92723 0.02700
H 	H 	0.88637 0.79013 0.95523 0.04000
C 	C 	0.98666 0.94978 0.88523 0.04500
C 	C 	0.95072 0.96358 0.88479 -0.10700
H 	H 	0.91767 0.93923 0.88423 0.07000
C 	C 	0.84683 0.58852 0.76653 0.34500
C 	C 	0.81084 0.53555 0.74963 -0.11100
C 	C 	0.77097 0.52210 0.69253 0.03900
H 	H 	0.76727 0.54633 0.66403 0.03500
C 	C 	0.73707 0.47325 0.67803 -0.11300
H 	H 	0.71037 0.46513 0.64103 0.07300
C 	C 	0.74192 0.43592 0.71752 0.04500
C 	C 	0.78254 0.44928 0.77253 -0.11600
H 	H 	0.78717 0.42503 0.79843 0.07600
C 	C 	0.81593 0.49819 0.78883 0.04300
H 	H 	0.84237 0.50633 0.82663 0.02700
C 	C 	0.70352 0.38312 0.70770 0.04200
C 	C 	0.71581 0.34599 0.70714 -0.10700
H 	H 	0.74877 0.35453 0.70643 0.06900
C 	C 	0.99544 0.70508 0.65053 0.22800
O 	O 	0.84581 0.62148 0.72453 -0.30100
O 	O 	0.87913 0.59763 0.82643 -0.46500
O 	O 	0.89501 0.71273 0.92888 -0.29400
O 	O 	0.94922 0.73127 0.82037 -0.46300
N 	N 	0.00926 0.64775 0.61243 -0.05200
N 	N 	0.01859 0.69324 0.59008 -0.25000
N 	N 	0.98187 0.63281 0.68243 -0.05400
N 	N 	0.99302 0.74674 0.65063 -0.35900
H 	H 	0.00717 0.76813 0.60923 0.17600
H 	H 	0.97727 0.75183 0.69213 0.17800
N 	N 	0.97263 0.66849 0.70921 -0.25100
Zn	Zn	0.60234 0.99694 0.15340 1.21700
C 	C 	0.59431 0.07629 0.21247 0.33900
C 	C 	0.61108 0.13042 0.21817 -0.09700
C 	C 	0.65558 0.16509 0.18087 0.02600
H 	H 	0.67593 0.15507 0.15457 0.03300
C 	C 	0.66966 0.21449 0.18267 -0.10400
H 	H 	0.69983 0.23747 0.15837 0.06600
C 	C 	0.63933 0.23076 0.22059 0.03400
C 	C 	0.59605 0.19543 0.26137 -0.10100
H 	H 	0.57613 0.20537 0.28977 0.07100
C 	C 	0.58206 0.14624 0.26057 0.02900
H 	H 	0.55303 0.12347 0.28857 0.04000
C 	C 	0.65332 0.28312 0.21857 0.04600
C 	C 	0.61738 0.29692 0.21813 -0.10800
H 	H 	0.58433 0.27257 0.21757 0.07000
C 	C 	0.51349 0.92186 0.09987 0.34500
C 	C 	0.47750 0.86889 0.08297 -0.11100
C 	C 	0.43763 0.85544 0.02587 0.03800
H 	H 	0.43393 0.87967 0.99737 0.03500
C 	C 	0.40373 0.80659 0.01137 -0.11300
H 	H 	0.37703 0.79847 0.97437 0.07400
C 	C 	0.40858 0.76926 0.05086 0.04500
C 	C 	0.44920 0.78262 0.10587 -0.11600
H 	H 	0.45383 0.75837 0.13177 0.07600
C 	C 	0.48259 0.83153 0.12217 0.04300
H 	H 	0.50903 0.83967 0.15997 0.02700
C 	C 	0.37018 0.71646 0.04104 0.04200
C 	C 	0.38247 0.67933 0.04048 -0.10700
H 	H 	0.41543 0.68787 0.03977 0.06900
C 	C 	0.66210 0.03842 0.98387 0.22700
O 	O 	0.51247 0.95482 0.05787 -0.30200
O 	O 	0.54579 0.93097 0.15977 -0.46500
O 	O 	0.56167 0.04607 0.26222 -0.29400
O 	O 	0.61588 0.06461 0.15371 -0.46300
N 	N 	0.67592 0.98109 0.94577 -0.05200
N 	N 	0.68525 0.02658 0.92342 -0.25100
N 	N 	0.64853 0.96615 0.01577 -0.05400
N 	N 	0.65968 0.08008 0.98397 -0.36000
H 	H 	0.67383 0.10147 0.94257 0.17600
H 	H 	0.64393 0.08517 0.02547 0.17800
N 	N 	0.63929 0.00183 0.04255 -0.25000
Zn	Zn	0.66973 0.93874 0.48673 1.21700
C 	C 	0.59038 0.85136 0.54580 0.33900
C 	C 	0.53625 0.81400 0.55150 -0.09700
C 	C 	0.50158 0.82383 0.51420 0.02600
H 	H 	0.51160 0.85420 0.48790 0.03300
C 	C 	0.45218 0.78851 0.51600 -0.10400
H 	H 	0.42920 0.79570 0.49170 0.06600
C 	C 	0.43591 0.74191 0.55392 0.03400
C 	C 	0.47124 0.73396 0.59470 -0.10200
H 	H 	0.46130 0.70410 0.62310 0.07100
C 	C 	0.52043 0.76916 0.59390 0.02900
H 	H 	0.54320 0.76290 0.62190 0.04000
C 	C 	0.38355 0.70354 0.55190 0.04600
C 	C 	0.36975 0.65380 0.55146 -0.10800
H 	H 	0.39410 0.64510 0.55090 0.07000
C 	C 	0.74481 0.92497 0.43320 0.34500
C 	C 	0.79778 0.94195 0.41630 -0.11100
C 	C 	0.81123 0.91553 0.35920 0.03900
H 	H 	0.78700 0.88760 0.33070 0.03400
C 	C 	0.86008 0.93048 0.34470 -0.11300
H 	H 	0.86820 0.91190 0.30770 0.07400
C 	C 	0.89741 0.97266 0.38419 0.04600
C 	C 	0.88405 0.99992 0.43920 -0.11700
H 	H 	0.90830 0.02880 0.46510 0.07600
C 	C 	0.83514 0.98440 0.45550 0.04400
H 	H 	0.82700 0.00270 0.49330 0.02700
C 	C 	0.95021 0.98706 0.37437 0.04200
C 	C 	0.98734 0.03648 0.37381 -0.10600
H 	H 	0.97880 0.06090 0.37310 0.06800
C 	C 	0.62825 0.95702 0.31720 0.22800
O 	O 	0.71185 0.89099 0.39120 -0.30100
O 	O 	0.73570 0.94816 0.49310 -0.46500
O 	O 	0.62060 0.84894 0.59555 -0.29400
O 	O 	0.60206 0.88461 0.48704 -0.46300
N 	N 	0.68558 0.02817 0.27910 -0.05200
N 	N 	0.64009 0.99201 0.25675 -0.25100
N 	N 	0.70052 0.01572 0.34910 -0.05300
N 	N 	0.58659 0.91294 0.31730 -0.35900
H 	H 	0.56520 0.90570 0.27590 0.17600
H 	H 	0.58150 0.89210 0.35880 0.17800
N 	N 	0.66484 0.97080 0.37588 -0.25100
Zn	Zn	0.33639 0.27207 0.82006 1.21700
C 	C 	0.25705 0.18469 0.87913 0.34000
C 	C 	0.20292 0.14733 0.88483 -0.09700
C 	C 	0.16825 0.15716 0.84753 0.02700
H 	H 	0.17827 0.18753 0.82123 0.03300
C 	C 	0.11885 0.12184 0.84933 -0.10400
H 	H 	0.09587 0.12903 0.82503 0.06600
C 	C 	0.10258 0.07524 0.88725 0.03500
C 	C 	0.13791 0.06729 0.92803 -0.10200
H 	H 	0.12797 0.03743 0.95643 0.07100
C 	C 	0.18710 0.10249 0.92723 0.02900
H 	H 	0.20987 0.09623 0.95523 0.03900
C 	C 	0.05022 0.03687 0.88523 0.04400
C 	C 	0.03642 0.98713 0.88479 -0.10600
H 	H 	0.06077 0.97843 0.88423 0.07000
C 	C 	0.41148 0.25830 0.76653 0.34500
C 	C 	0.46445 0.27528 0.74963 -0.11100
C 	C 	0.47790 0.24886 0.69253 0.03900
H 	H 	0.45367 0.22093 0.66403 0.03500
C 	C 	0.52675 0.26381 0.67803 -0.11300
H 	H 	0.53487 0.24523 0.64103 0.07300
C 	C 	0.56408 0.30599 0.71752 0.04500
C 	C 	0.55072 0.33325 0.77253 -0.11600
H 	H 	0.57497 0.36213 0.79843 0.07600
C 	C 	0.50181 0.31773 0.78883 0.04300
H 	H 	0.49367 0.33603 0.82663 0.02700
C 	C 	0.61688 0.32039 0.70770 0.04200
C 	C 	0.65401 0.36981 0.70714 -0.10700
H 	H 	0.64547 0.39423 0.70643 0.06900
C 	C 	0.29492 0.29035 0.65053 0.22800
O 	O 	0.37852 0.22432 0.72453 -0.30100
O 	O 	0.40237 0.28149 0.82643 -0.46500
O 	O 	0.28727 0.18227 0.92888 -0.29400
O 	O 	0.26873 0.21794 0.82037 -0.46300
N 	N 	0.35225 0.36150 0.61243 -0.05200
N 	N 	0.30676 0.32534 0.59008 -0.25100
N 	N 	0.36719 0.34905 0.68243 -0.05400
N 	N 	0.25326 0.24627 0.65063 -0.35900
H 	H 	0.23187 0.23903 0.60923 0.17600
H 	H 	0.24817 0.22543 0.69213 0.17800
N 	N 	0.33151 0.30413 0.70921 -0.25100
Zn	Zn	0.00306 0.60540 0.15340 1.21700
C 	C 	0.92371 0.51803 0.21247 0.33900
C 	C 	0.86958 0.48067 0.21817 -0.09700
C 	C 	0.83491 0.49050 0.18087 0.02600
H 	H 	0.84493 0.52087 0.15457 0.03300
C 	C 	0.78551 0.45518 0.18267 -0.10400
H 	H 	0.76253 0.46237 0.15837 0.06600
C 	C 	0.76924 0.40858 0.22059 0.03400
C 	C 	0.80457 0.40063 0.26137 -0.10100
H 	H 	0.79463 0.37077 0.28977 0.07100
C 	C 	0.85376 0.43583 0.26057 0.02900
H 	H 	0.87653 0.42957 0.28857 0.04000
C 	C 	0.71688 0.37021 0.21857 0.04600
C 	C 	0.70308 0.32047 0.21813 -0.10800
H 	H 	0.72743 0.31177 0.21757 0.07000
C 	C 	0.07814 0.59164 0.09987 0.34500
C 	C 	0.13111 0.60862 0.08297 -0.11100
C 	C 	0.14456 0.58220 0.02587 0.03800
H 	H 	0.12033 0.55427 0.99737 0.03500
C 	C 	0.19341 0.59715 0.01137 -0.11300
H 	H 	0.20153 0.57857 0.97437 0.07400
C 	C 	0.23074 0.63933 0.05086 0.04500
C 	C 	0.21738 0.66659 0.10587 -0.11600
H 	H 	0.24163 0.69547 0.13177 0.07600
C 	C 	0.16847 0.65107 0.12217 0.04300
H 	H 	0.16033 0.66937 0.15997 0.02700
C 	C 	0.28354 0.65373 0.04104 0.04200
C 	C 	0.32067 0.70315 0.04048 -0.10700
H 	H 	0.31213 0.72757 0.03977 0.06800
C 	C 	0.96158 0.62369 0.98387 0.22800
O 	O 	0.04518 0.55766 0.05787 -0.30200
O 	O 	0.06903 0.61483 0.15977 -0.46500
O 	O 	0.95393 0.51561 0.26222 -0.29400
O 	O 	0.93539 0.55128 0.15371 -0.46300
N 	N 	0.01891 0.69484 0.94577 -0.05200
N 	N 	0.97342 0.65868 0.92342 -0.25100
N 	N 	0.03385 0.68239 0.01577 -0.05400
N 	N 	0.91992 0.57961 0.98397 -0.35900
H 	H 	0.89853 0.57237 0.94257 0.17600
H 	H 	0.91483 0.55877 0.02547 0.17800
N 	N 	0.99817 0.63747 0.04255 -0.25100
Zn	Zn	0.93874 0.26901 0.51327 1.21700
C 	C 	0.85136 0.26098 0.45420 0.33900
C 	C 	0.81400 0.27775 0.44850 -0.09700
C 	C 	0.82383 0.32225 0.48580 0.02600
H 	H 	0.85420 0.34260 0.51210 0.03300
C 	C 	0.78851 0.33633 0.48400 -0.10400
H 	H 	0.79570 0.36650 0.50830 0.06600
C 	C 	0.74191 0.30600 0.44608 0.03400
C 	C 	0.73396 0.26272 0.40530 -0.10200
H 	H 	0.70410 0.24280 0.37690 0.07100
C 	C 	0.76916 0.24873 0.40610 0.02900
H 	H 	0.76290 0.21970 0.37810 0.04000
C 	C 	0.70354 0.31999 0.44810 0.04600
C 	C 	0.65380 0.28405 0.44854 -0.10800
H 	H 	0.64510 0.25100 0.44910 0.07000
C 	C 	0.92497 0.18016 0.56680 0.34500
C 	C 	0.94195 0.14417 0.58370 -0.11100
C 	C 	0.91553 0.10430 0.64080 0.03900
H 	H 	0.88760 0.10060 0.66930 0.03400
C 	C 	0.93048 0.07040 0.65530 -0.11300
H 	H 	0.91190 0.04370 0.69230 0.07300
C 	C 	0.97266 0.07525 0.61581 0.04500
C 	C 	0.99992 0.11587 0.56080 -0.11700
H 	H 	0.02880 0.12050 0.53490 0.07600
C 	C 	0.98440 0.14926 0.54450 0.04400
H 	H 	0.00270 0.17570 0.50670 0.02700
C 	C 	0.98706 0.03685 0.62563 0.04200
C 	C 	0.03648 0.04914 0.62619 -0.10600
H 	H 	0.06090 0.08210 0.62690 0.06800
C 	C 	0.95702 0.32877 0.68280 0.22800
O 	O 	0.89099 0.17914 0.60880 -0.30100
O 	O 	0.94816 0.21246 0.50690 -0.46500
O 	O 	0.84894 0.22834 0.40445 -0.29400
O 	O 	0.88461 0.28255 0.51296 -0.46300
N 	N 	0.02817 0.34259 0.72090 -0.05200
N 	N 	0.99201 0.35192 0.74325 -0.25100
N 	N 	0.01572 0.31520 0.65090 -0.05300
N 	N 	0.91294 0.32635 0.68270 -0.35900
H 	H 	0.90570 0.34050 0.72410 0.17600
H 	H 	0.89210 0.31060 0.64120 0.17800
N 	N 	0.97080 0.30596 0.62412 -0.25100
Zn	Zn	0.60540 0.60234 0.84660 1.21700
C 	C 	0.51803 0.59431 0.78753 0.33900
C 	C 	0.48067 0.61108 0.78183 -0.09700
C 	C 	0.49050 0.65558 0.81913 0.02600
H 	H 	0.52087 0.67593 0.84543 0.03300
C 	C 	0.45518 0.66966 0.81733 -0.10400
H 	H 	0.46237 0.69983 0.84163 0.06600
C 	C 	0.40858 0.63933 0.77941 0.03400
C 	C 	0.40063 0.59605 0.73863 -0.10200
H 	H 	0.37077 0.57613 0.71023 0.07100
C 	C 	0.43583 0.58206 0.73943 0.02900
H 	H 	0.42957 0.55303 0.71143 0.04000
C 	C 	0.37021 0.65332 0.78143 0.04600
C 	C 	0.32047 0.61738 0.78187 -0.10800
H 	H 	0.31177 0.58433 0.78243 0.07000
C 	C 	0.59164 0.51349 0.90013 0.34500
C 	C 	0.60862 0.47750 0.91703 -0.11100
C 	C 	0.58220 0.43763 0.97413 0.03900
H 	H 	0.55427 0.43393 0.00263 0.03400
C 	C 	0.59715 0.40373 0.98863 -0.11300
H 	H 	0.57857 0.37703 0.02563 0.07400
C 	C 	0.63933 0.40858 0.94914 0.04500
C 	C 	0.66659 0.44920 0.89413 -0.11700
H 	H 	0.69547 0.45383 0.86823 0.07600
C 	C 	0.65107 0.48259 0.87783 0.04300
H 	H 	0.66937 0.50903 0.84003 0.02700
C 	C 	0.65373 0.37018 0.95896 0.04200
C 	C 	0.70315 0.38247 0.95952 -0.10700
H 	H 	0.72757 0.41543 0.96023 0.06900
C 	C 	0.62369 0.66210 0.01613 0.22800
O 	O 	0.55766 0.51247 0.94213 -0.30200
O 	O 	0.61483 0.54579 0.84023 -0.46500
O 	O 	0.51561 0.56167 0.73778 -0.29400
O 	O 	0.55128 0.61588 0.84629 -0.46300
N 	N 	0.69484 0.67592 0.05423 -0.05200
N 	N 	0.65868 0.68525 0.07658 -0.25100
N 	N 	0.68239 0.64853 0.98423 -0.05400
N 	N 	0.57961 0.65968 0.01603 -0.35900
H 	H 	0.57237 0.67383 0.05743 0.17600
H 	H 	0.55877 0.64393 0.97453 0.17800
N 	N 	0.63747 0.63929 0.95745 -0.25100
Zn	Zn	0.27207 0.93567 0.17994 1.21700
C 	C 	0.18469 0.92765 0.12087 0.33900
C 	C 	0.14733 0.94442 0.11517 -0.09600
C 	C 	0.15716 0.98892 0.15247 0.02400
H 	H 	0.18753 0.00927 0.17877 0.03400
C 	C 	0.12184 0.00300 0.15067 -0.10100
H 	H 	0.12903 0.03317 0.17497 0.06500
C 	C 	0.07524 0.97267 0.11275 0.03300
C 	C 	0.06729 0.92939 0.07197 -0.10100
H 	H 	0.03743 0.90947 0.04357 0.07000
C 	C 	0.10249 0.91540 0.07277 0.02700
H 	H 	0.09623 0.88637 0.04477 0.04000
C 	C 	0.03687 0.98666 0.11477 0.04500
C 	C 	0.98713 0.95072 0.11521 -0.10600
H 	H 	0.97843 0.91767 0.11577 0.07000
C 	C 	0.25830 0.84683 0.23347 0.34500
C 	C 	0.27528 0.81084 0.25037 -0.11100
C 	C 	0.24886 0.77097 0.30747 0.03900
H 	H 	0.22093 0.76727 0.33597 0.03400
C 	C 	0.26381 0.73707 0.32197 -0.11300
H 	H 	0.24523 0.71037 0.35897 0.07300
C 	C 	0.30599 0.74192 0.28248 0.04500
C 	C 	0.33325 0.78254 0.22747 -0.11600
H 	H 	0.36213 0.78717 0.20157 0.07600
C 	C 	0.31773 0.81593 0.21117 0.04300
H 	H 	0.33603 0.84237 0.17337 0.02700
C 	C 	0.32039 0.70352 0.29230 0.04200
C 	C 	0.36981 0.71581 0.29286 -0.10700
H 	H 	0.39423 0.74877 0.29357 0.06900
C 	C 	0.29035 0.99544 0.34947 0.22800
O 	O 	0.22432 0.84581 0.27547 -0.30100
O 	O 	0.28149 0.87913 0.17357 -0.46500
O 	O 	0.18227 0.89501 0.07112 -0.29400
O 	O 	0.21794 0.94922 0.17963 -0.46300
N 	N 	0.36150 0.00926 0.38757 -0.05200
N 	N 	0.32534 0.01859 0.40992 -0.25100
N 	N 	0.34905 0.98187 0.31757 -0.05400
N 	N 	0.24627 0.99302 0.34937 -0.35900
H 	H 	0.23903 0.00717 0.39077 0.17600
H 	H 	0.22543 0.97727 0.30787 0.17800
N 	N 	0.30413 0.97263 0.29079 -0.25100
Zn	Zn	0.73099 0.66973 0.51327 1.21700
C 	C 	0.73902 0.59038 0.45420 0.33900
C 	C 	0.72225 0.53625 0.44850 -0.09700
C 	C 	0.67775 0.50158 0.48580 0.02600
H 	H 	0.65740 0.51160 0.51210 0.03300
C 	C 	0.66367 0.45218 0.48400 -0.10400
H 	H 	0.63350 0.42920 0.50830 0.06600
C 	C 	0.69400 0.43591 0.44608 0.03400
C 	C 	0.73728 0.47124 0.40530 -0.10200
H 	H 	0.75720 0.46130 0.37690 0.07100
C 	C 	0.75127 0.52043 0.40610 0.02900
H 	H 	0.78030 0.54320 0.37810 0.04000
C 	C 	0.68001 0.38355 0.44810 0.04600
C 	C 	0.71595 0.36975 0.44854 -0.10800
H 	H 	0.74900 0.39410 0.44910 0.07000
C 	C 	0.81984 0.74481 0.56680 0.34500
C 	C 	0.85583 0.79778 0.58370 -0.11100
C 	C 	0.89570 0.81123 0.64080 0.03900
H 	H 	0.89940 0.78700 0.66930 0.03400
C 	C 	0.92960 0.86008 0.65530 -0.11300
H 	H 	0.95630 0.86820 0.69230 0.07300
C 	C 	0.92475 0.89741 0.61581 0.04500
C 	C 	0.88413 0.88405 0.56080 -0.11700
H 	H 	0.87950 0.90830 0.53490 0.07600
C 	C 	0.85074 0.83514 0.54450 0.04400
H 	H 	0.82430 0.82700 0.50670 0.02700
C 	C 	0.96315 0.95021 0.62563 0.04200
C 	C 	0.95086 0.98734 0.62619 -0.10600
H 	H 	0.91790 0.97880 0.62690 0.06800
C 	C 	0.67123 0.62825 0.68280 0.22800
O 	O 	0.82086 0.71185 0.60880 -0.30100
O 	O 	0.78754 0.73570 0.50690 -0.46500
O 	O 	0.77166 0.62060 0.40445 -0.29400
O 	O 	0.71745 0.60206 0.51296 -0.46300
N 	N 	0.65741 0.68558 0.72090 -0.05200
N 	N 	0.64808 0.64009 0.74325 -0.25100
N 	N 	0.68480 0.70052 0.65090 -0.05400
N 	N 	0.67365 0.58659 0.68270 -0.35900
H 	H 	0.65950 0.56520 0.72410 0.17600
H 	H 	0.68940 0.58150 0.64120 0.17800
N 	N 	0.69404 0.66484 0.62412 -0.25100
Zn	Zn	0.39766 0.00306 0.84660 1.21700
C 	C 	0.40569 0.92371 0.78753 0.33900
C 	C 	0.38892 0.86958 0.78183 -0.09700
C 	C 	0.34442 0.83491 0.81913 0.02600
H 	H 	0.32407 0.84493 0.84543 0.03300
C 	C 	0.33034 0.78551 0.81733 -0.10400
H 	H 	0.30017 0.76253 0.84163 0.06600
C 	C 	0.36067 0.76924 0.77941 0.03400
C 	C 	0.40395 0.80457 0.73863 -0.10100
H 	H 	0.42387 0.79463 0.71023 0.07100
C 	C 	0.41794 0.85376 0.73943 0.02900
H 	H 	0.44697 0.87653 0.71143 0.04000
C 	C 	0.34668 0.71688 0.78143 0.04600
C 	C 	0.38262 0.70308 0.78187 -0.10800
H 	H 	0.41567 0.72743 0.78243 0.07000
C 	C 	0.48651 0.07814 0.90013 0.34500
C 	C 	0.52250 0.13111 0.91703 -0.11100
C 	C 	0.56237 0.14456 0.97413 0.03800
H 	H 	0.56607 0.12033 0.00263 0.03500
C 	C 	0.59627 0.19341 0.98863 -0.11300
H 	H 	0.62297 0.20153 0.02563 0.07400
C 	C 	0.59142 0.23074 0.94914 0.04500
C 	C 	0.55080 0.21738 0.89413 -0.11600
H 	H 	0.54617 0.24163 0.86823 0.07600
C 	C 	0.51741 0.16847 0.87783 0.04300
H 	H 	0.49097 0.16033 0.84003 0.02700
C 	C 	0.62982 0.28354 0.95896 0.04200
C 	C 	0.61753 0.32067 0.95952 -0.10700
H 	H 	0.58457 0.31213 0.96023 0.06900
C 	C 	0.33790 0.96158 0.01613 0.22700
O 	O 	0.48753 0.04518 0.94213 -0.30200
O 	O 	0.45421 0.06903 0.84023 -0.46500
O 	O 	0.43833 0.95393 0.73778 -0.29400
O 	O 	0.38412 0.93539 0.84629 -0.46300
N 	N 	0.32408 0.01891 0.05423 -0.05200
N 	N 	0.31475 0.97342 0.07658 -0.25100
N 	N 	0.35147 0.03385 0.98423 -0.05400
N 	N 	0.34032 0.91992 0.01603 -0.36000
H 	H 	0.32617 0.89853 0.05743 0.17600
H 	H 	0.35607 0.91483 0.97453 0.17800
N 	N 	0.36071 0.99817 0.95745 -0.25000
Zn	Zn	0.06433 0.33639 0.17994 1.21700
C 	C 	0.07235 0.25705 0.12087 0.33900
C 	C 	0.05558 0.20292 0.11517 -0.09500
C 	C 	0.01108 0.16825 0.15247 0.02300
H 	H 	0.99073 0.17827 0.17877 0.03500
C 	C 	0.99700 0.11885 0.15067 -0.10000
H 	H 	0.96683 0.09587 0.17497 0.06500
C 	C 	0.02733 0.10258 0.11275 0.03300
C 	C 	0.07061 0.13791 0.07197 -0.10000
H 	H 	0.09053 0.12797 0.04357 0.07000
C 	C 	0.08460 0.18710 0.07277 0.02700
H 	H 	0.11363 0.20987 0.04477 0.04000
C 	C 	0.01334 0.05022 0.11477 0.04500
C 	C 	0.04928 0.03642 0.11521 -0.10700
H 	H 	0.08233 0.06077 0.11577 0.07000
C 	C 	0.15317 0.41148 0.23347 0.34500
C 	C 	0.18916 0.46445 0.25037 -0.11100
C 	C 	0.22903 0.47790 0.30747 0.03900
H 	H 	0.23273 0.45367 0.33597 0.03500
C 	C 	0.26293 0.52675 0.32197 -0.11300
H 	H 	0.28963 0.53487 0.35897 0.07300
C 	C 	0.25808 0.56408 0.28248 0.04500
C 	C 	0.21746 0.55072 0.22747 -0.11600
H 	H 	0.21283 0.57497 0.20157 0.07600
C 	C 	0.18407 0.50181 0.21117 0.04300
H 	H 	0.15763 0.49367 0.17337 0.02700
C 	C 	0.29648 0.61688 0.29230 0.04200
C 	C 	0.28419 0.65401 0.29286 -0.10700
H 	H 	0.25123 0.64547 0.29357 0.06900
C 	C 	0.00456 0.29492 0.34947 0.22800
O 	O 	0.15419 0.37852 0.27547 -0.30100
O 	O 	0.12087 0.40237 0.17357 -0.46500
O 	O 	0.10499 0.28727 0.07112 -0.29400
O 	O 	0.05078 0.26873 0.17963 -0.46300
N 	N 	0.99074 0.35225 0.38757 -0.05200
N 	N 	0.98141 0.30676 0.40992 -0.25000
N 	N 	0.01813 0.36719 0.31757 -0.05400
N 	N 	0.00698 0.25326 0.34937 -0.35900
H 	H 	0.99283 0.23187 0.39077 0.17600
H 	H 	0.02273 0.24817 0.30787 0.17800
N 	N 	0.02737 0.33151 0.29079 -0.25100
Zn	Zn	0.33027 0.06126 0.51327 1.21700
C 	C 	0.40962 0.14864 0.45420 0.33900
C 	C 	0.46375 0.18600 0.44850 -0.09700
C 	C 	0.49842 0.17617 0.48580 0.02600
H 	H 	0.48840 0.14580 0.51210 0.03300
C 	C 	0.54782 0.21149 0.48400 -0.10400
H 	H 	0.57080 0.20430 0.50830 0.06600
C 	C 	0.56409 0.25809 0.44608 0.03400
C 	C 	0.52876 0.26604 0.40530 -0.10200
H 	H 	0.53870 0.29590 0.37690 0.07100
C 	C 	0.47957 0.23084 0.40610 0.02900
H 	H 	0.45680 0.23710 0.37810 0.04000
C 	C 	0.61645 0.29646 0.44810 0.04600
C 	C 	0.63025 0.34620 0.44854 -0.10800
H 	H 	0.60590 0.35490 0.44910 0.07000
C 	C 	0.25519 0.07503 0.56680 0.34500
C 	C 	0.20222 0.05805 0.58370 -0.11100
C 	C 	0.18877 0.08447 0.64080 0.03900
H 	H 	0.21300 0.11240 0.66930 0.03400
C 	C 	0.13992 0.06952 0.65530 -0.11300
H 	H 	0.13180 0.08810 0.69230 0.07400
C 	C 	0.10259 0.02734 0.61581 0.04600
C 	C 	0.11595 0.00008 0.56080 -0.11700
H 	H 	0.09170 0.97120 0.53490 0.07600
C 	C 	0.16486 0.01560 0.54450 0.04400
H 	H 	0.17300 0.99730 0.50670 0.02700
C 	C 	0.04979 0.01294 0.62563 0.04200
C 	C 	0.01266 0.96352 0.62619 -0.10600
H 	H 	0.02120 0.93910 0.62690 0.06800
C 	C 	0.37175 0.04298 0.68280 0.22800
O 	O 	0.28815 0.10901 0.60880 -0.30100
O 	O 	0.26430 0.05184 0.50690 -0.46500
O 	O 	0.37940 0.15106 0.40445 -0.29400
O 	O 	0.39794 0.11539 0.51296 -0.46300
N 	N 	0.31442 0.97183 0.72090 -0.05200
N 	N 	0.35991 0.00799 0.74325 -0.25100
N 	N 	0.29948 0.98428 0.65090 -0.05300
N 	N 	0.41341 0.08706 0.68270 -0.35900
H 	H 	0.43480 0.09430 0.72410 0.17600
H 	H 	0.41850 0.10790 0.64120 0.17800
N 	N 	0.33516 0.02920 0.62412 -0.25100
Zn	Zn	0.99694 0.39460 0.84660 1.21700
C 	C 	0.07629 0.48197 0.78753 0.33900
C 	C 	0.13042 0.51933 0.78183 -0.09700
C 	C 	0.16509 0.50950 0.81913 0.02600
H 	H 	0.15507 0.47913 0.84543 0.03300
C 	C 	0.21449 0.54482 0.81733 -0.10400
H 	H 	0.23747 0.53763 0.84163 0.06600
C 	C 	0.23076 0.59142 0.77941 0.03400
C 	C 	0.19543 0.59937 0.73863 -0.10100
H 	H 	0.20537 0.62923 0.71023 0.07100
C 	C 	0.14624 0.56417 0.73943 0.02900
H 	H 	0.12347 0.57043 0.71143 0.04000
C 	C 	0.28312 0.62979 0.78143 0.04600
C 	C 	0.29692 0.67953 0.78187 -0.10800
H 	H 	0.27257 0.68823 0.78243 0.07000
C 	C 	0.92186 0.40836 0.90013 0.34500
C 	C 	0.86889 0.39138 0.91703 -0.11100
C 	C 	0.85544 0.41780 0.97413 0.03800
H 	H 	0.87967 0.44573 0.00263 0.03500
C 	C 	0.80659 0.40285 0.98863 -0.11300
H 	H 	0.79847 0.42143 0.02563 0.07400
C 	C 	0.76926 0.36067 0.94914 0.04500
C 	C 	0.78262 0.33341 0.89413 -0.11600
H 	H 	0.75837 0.30453 0.86823 0.07600
C 	C 	0.83153 0.34893 0.87783 0.04300
H 	H 	0.83967 0.33063 0.84003 0.02700
C 	C 	0.71646 0.34627 0.95896 0.04200
C 	C 	0.67933 0.29685 0.95952 -0.10700
H 	H 	0.68787 0.27243 0.96023 0.06800
C 	C 	0.03842 0.37631 0.01613 0.22800
O 	O 	0.95482 0.44234 0.94213 -0.30200
O 	O 	0.93097 0.38517 0.84023 -0.46500
O 	O 	0.04607 0.48439 0.73778 -0.29400
O 	O 	0.06461 0.44872 0.84629 -0.46300
N 	N 	0.98109 0.30516 0.05423 -0.05200
N 	N 	0.02658 0.34132 0.07658 -0.25100
N 	N 	0.96615 0.31761 0.98423 -0.05400
N 	N 	0.08008 0.42039 0.01603 -0.35900
H 	H 	0.10147 0.42763 0.05743 0.17600
H 	H 	0.08517 0.44123 0.97453 0.17800
N 	N 	0.00183 0.36253 0.95745 -0.25100
Zn	Zn	0.66361 0.72793 0.17994 1.21700
C 	C 	0.74295 0.81531 0.12087 0.34000
C 	C 	0.79708 0.85267 0.11517 -0.09700
C 	C 	0.83175 0.84284 0.15247 0.02700
H 	H 	0.82173 0.81247 0.17877 0.03300
C 	C 	0.88115 0.87816 0.15067 -0.10400
H 	H 	0.90413 0.87097 0.17497 0.06600
C 	C 	0.89742 0.92476 0.11275 0.03500
C 	C 	0.86209 0.93271 0.07197 -0.10200
H 	H 	0.87203 0.96257 0.04357 0.07100
C 	C 	0.81290 0.89751 0.07277 0.02900
H 	H 	0.79013 0.90377 0.04477 0.03900
C 	C 	0.94978 0.96313 0.11477 0.04400
C 	C 	0.96358 0.01287 0.11521 -0.10600
H 	H 	0.93923 0.02157 0.11577 0.07000
C 	C 	0.58852 0.74170 0.23347 0.34500
C 	C 	0.53555 0.72472 0.25037 -0.11100
C 	C 	0.52210 0.75114 0.30747 0.03900
H 	H 	0.54633 0.77907 0.33597 0.03500
C 	C 	0.47325 0.73619 0.32197 -0.11300
H 	H 	0.46513 0.75477 0.35897 0.07300
C 	C 	0.43592 0.69401 0.28248 0.04500
C 	C 	0.44928 0.66675 0.22747 -0.11600
H 	H 	0.42503 0.63787 0.20157 0.07600
C 	C 	0.49819 0.68227 0.21117 0.04300
H 	H 	0.50633 0.66397 0.17337 0.02700
C 	C 	0.38312 0.67961 0.29230 0.04200
C 	C 	0.34599 0.63019 0.29286 -0.10700
H 	H 	0.35453 0.60577 0.29357 0.06900
C 	C 	0.70508 0.70965 0.34947 0.22800
O 	O 	0.62148 0.77568 0.27547 -0.30100
O 	O 	0.59763 0.71851 0.17357 -0.46500
O 	O 	0.71273 0.81773 0.07112 -0.29400
O 	O 	0.73127 0.78206 0.17963 -0.46300
N 	N 	0.64775 0.63850 0.38757 -0.05200
N 	N 	0.69324 0.67466 0.40992 -0.25100
N 	N 	0.63281 0.65095 0.31757 -0.05400
N 	N 	0.74674 0.75373 0.34937 -0.35900
H 	H 	0.76813 0.76097 0.39077 0.17600
H 	H 	0.75183 0.77457 0.30787 0.17800
N 	N 	0.66849 0.69587 0.29079 -0.25100
