data_crystal

_cell_length_a 18.65800
_cell_length_b 20.08900
_cell_length_c 21.13700
_cell_angle_alpha 90.00000
_cell_angle_beta  90.00000
_cell_angle_gamma 90.00000

_symmetry_space_group_name_	'P 1'
_symmetry_space_group_name_H-M	'P 1'

loop_
_symmetry_equiv_pos_as_xyz
  x,y,z

loop_
_atom_site_label
_atom_site_type_symbol
_atom_site_fract_x
_atom_site_fract_y
_atom_site_fract_z
_atom_site_charge
Ni	Ni	0.54918 0.14384 0.81094 1.06800
Ni	Ni	0.21956 0.99255 0.01360 1.09200
Ni	Ni	0.95082 0.85616 0.31094 1.06700
Ni	Ni	0.28044 0.00745 0.51360 1.09200
Ni	Ni	0.45082 0.64384 0.68906 1.06900
Ni	Ni	0.78044 0.49255 0.48640 1.09300
Ni	Ni	0.04918 0.35616 0.18906 1.06800
Ni	Ni	0.71956 0.50745 0.98640 1.09200
Mo	Mo	0.60955 0.54809 0.72467 1.17600
Mo	Mo	0.63708 0.44204 0.60055 1.17700
Mo	Mo	0.68740 0.29288 0.65843 1.08600
Mo	Mo	0.66984 0.29437 0.81954 1.16900
Mo	Mo	0.59189 0.44097 0.86202 1.18600
Mo	Mo	0.89045 0.45191 0.22467 1.17600
Mo	Mo	0.86292 0.55796 0.10055 1.17800
Mo	Mo	0.81260 0.70712 0.15843 1.08600
Mo	Mo	0.83016 0.70563 0.31954 1.16900
Mo	Mo	0.90811 0.55903 0.36202 1.18600
Mo	Mo	0.39045 0.04809 0.77533 1.17500
Mo	Mo	0.36292 0.94204 0.89945 1.17800
Mo	Mo	0.31260 0.79288 0.84157 1.08600
Mo	Mo	0.33016 0.79437 0.68046 1.16900
Mo	Mo	0.40811 0.94097 0.63798 1.18600
Mo	Mo	0.10955 0.95191 0.27533 1.17600
Mo	Mo	0.13708 0.05796 0.39945 1.17700
Mo	Mo	0.18740 0.20712 0.34157 1.08600
Mo	Mo	0.16984 0.20563 0.18046 1.16900
Mo	Mo	0.09189 0.05903 0.13798 1.18500
P 	P 	0.73230 0.43250 0.74499 0.52400
P 	P 	0.54100 0.37906 0.72352 0.53100
P 	P 	0.76770 0.56750 0.24499 0.52400
P 	P 	0.95900 0.62094 0.22352 0.53100
P 	P 	0.26770 0.93250 0.75501 0.52500
P 	P 	0.45900 0.87906 0.77648 0.53100
P 	P 	0.23230 0.06750 0.25501 0.52300
P 	P 	0.04100 0.12094 0.27648 0.52900
H 	H 	0.58150 0.99450 0.76180 0.01100
H 	H 	0.71490 0.14230 0.75010 -0.02300
H 	H 	0.83720 0.05840 0.74070 0.06700
H 	H 	0.81730 0.99760 0.69750 0.07700
H 	H 	0.87100 0.89990 0.73410 0.06300
H 	H 	0.93510 0.85170 0.82460 0.05400
H 	H 	0.86010 0.00790 0.93320 0.05100
H 	H 	0.79330 0.04490 0.85160 0.06700
H 	H 	0.94870 0.84850 0.93870 0.06300
H 	H 	0.92840 0.91090 0.98000 0.05600
H 	H 	0.04550 0.97200 0.01750 -0.03700
H 	H 	0.17370 0.91380 0.88460 -0.00100
H 	H 	0.67800 0.34980 0.97090 -0.02200
H 	H 	0.73770 0.43770 0.12390 0.01300
H 	H 	0.72560 0.21650 0.06820 0.07900
H 	H 	0.68620 0.22920 0.00380 0.06100
H 	H 	0.57050 0.20390 0.99140 0.05200
H 	H 	0.45930 0.17120 0.03290 0.07500
H 	H 	0.52830 0.18690 0.20570 0.06200
H 	H 	0.64140 0.22530 0.17060 0.06300
H 	H 	0.42810 0.12690 0.19110 0.09300
H 	H 	0.38510 0.17930 0.15180 0.07200
H 	H 	0.28670 0.12120 0.08660 -0.02100
H 	H 	0.38170 0.95240 0.06900 -0.01500
H 	H 	0.68450 0.14250 0.90540 -0.02300
H 	H 	0.52260 0.02710 0.91540 -0.02200
H 	H 	0.61900 0.98480 0.05040 0.07500
H 	H 	0.55810 0.95290 0.00890 0.06000
H 	H 	0.62040 0.91440 0.89930 0.08300
H 	H 	0.69740 0.83970 0.86290 0.05700
H 	H 	0.78670 0.82010 0.03250 0.00200
H 	H 	0.71610 0.90200 0.06480 0.05500
H 	H 	0.83390 0.77190 0.88440 0.07300
H 	H 	0.84560 0.75830 0.95690 0.05300
H 	H 	0.69940 0.58790 0.84990 -0.01000
H 	H 	0.76570 0.65820 0.00660 -0.02600
H 	H 	0.40790 0.12720 0.90400 -0.01100
H 	H 	0.49590 0.28980 0.84980 0.01000
H 	H 	0.34250 0.34600 0.93740 0.07300
H 	H 	0.41800 0.37370 0.91790 0.05900
H 	H 	0.32250 0.30530 0.04520 0.04500
H 	H 	0.35160 0.31220 0.15110 0.04300
H 	H 	0.54750 0.37800 0.10370 0.07700
H 	H 	0.51280 0.37950 0.99720 0.03400
H 	H 	0.42300 0.39440 0.22340 0.06800
H 	H 	0.45660 0.32330 0.23180 0.07500
H 	H 	0.68560 0.40480 0.24970 -0.00300
H 	H 	0.51280 0.49570 0.20520 -0.00500
H 	H 	0.62940 0.51010 0.24060 0.18800
H 	H 	0.91850 0.00550 0.26180 0.01300
H 	H 	0.78510 0.85770 0.25010 -0.02300
H 	H 	0.66280 0.94160 0.24070 0.06900
H 	H 	0.68270 0.00240 0.19750 0.08000
H 	H 	0.62900 0.10010 0.23410 0.06500
H 	H 	0.56490 0.14830 0.32460 0.05300
H 	H 	0.63990 0.99210 0.43320 0.04800
H 	H 	0.70670 0.95510 0.35160 0.07100
H 	H 	0.55130 0.15150 0.43870 0.06200
H 	H 	0.57160 0.08910 0.48000 0.05600
H 	H 	0.45450 0.02800 0.51750 -0.03700
H 	H 	0.32630 0.08620 0.38460 -0.00200
H 	H 	0.82200 0.65020 0.47090 -0.02000
H 	H 	0.76230 0.56230 0.62390 0.01300
H 	H 	0.77440 0.78350 0.56820 0.07900
H 	H 	0.81380 0.77080 0.50380 0.06100
H 	H 	0.92950 0.79610 0.49140 0.05300
H 	H 	0.04070 0.82880 0.53290 0.07500
H 	H 	0.97170 0.81310 0.70570 0.06300
H 	H 	0.85860 0.77470 0.67060 0.06300
H 	H 	0.07190 0.87310 0.69110 0.09400
H 	H 	0.11490 0.82070 0.65180 0.07200
H 	H 	0.21330 0.87880 0.58660 -0.02100
H 	H 	0.11830 0.04760 0.56900 -0.01300
H 	H 	0.81550 0.85750 0.40540 -0.02300
H 	H 	0.97740 0.97290 0.41540 -0.02200
H 	H 	0.88100 0.01520 0.55040 0.07500
H 	H 	0.94190 0.04710 0.50890 0.06100
H 	H 	0.87960 0.08560 0.39930 0.08400
H 	H 	0.80260 0.16030 0.36290 0.05700
H 	H 	0.71330 0.17990 0.53250 0.00100
H 	H 	0.78390 0.09800 0.56480 0.05600
H 	H 	0.66610 0.22810 0.38440 0.07300
H 	H 	0.65440 0.24170 0.45690 0.05300
H 	H 	0.80060 0.41210 0.34990 -0.01000
H 	H 	0.73430 0.34180 0.50660 -0.02700
H 	H 	0.09210 0.87280 0.40400 -0.01000
H 	H 	0.00410 0.71020 0.34980 0.01000
H 	H 	0.15750 0.65400 0.43740 0.07200
H 	H 	0.08200 0.62630 0.41790 0.05900
H 	H 	0.17750 0.69470 0.54520 0.04400
H 	H 	0.14840 0.68780 0.65110 0.04400
H 	H 	0.95250 0.62200 0.60370 0.07800
H 	H 	0.98720 0.62050 0.49720 0.03300
H 	H 	0.07700 0.60560 0.72340 0.06800
H 	H 	0.04340 0.67670 0.73180 0.07500
H 	H 	0.81440 0.59520 0.74970 -0.00300
H 	H 	0.98720 0.50430 0.70520 -0.00500
H 	H 	0.87060 0.48990 0.74060 0.18800
H 	H 	0.41850 0.49450 0.73820 0.01000
H 	H 	0.28510 0.64230 0.74990 -0.02300
H 	H 	0.16280 0.55840 0.75930 0.06900
H 	H 	0.18270 0.49760 0.80250 0.07900
H 	H 	0.12900 0.39990 0.76590 0.06500
H 	H 	0.06490 0.35170 0.67540 0.05300
H 	H 	0.13990 0.50790 0.56680 0.04800
H 	H 	0.20670 0.54490 0.64840 0.07000
H 	H 	0.05130 0.34850 0.56130 0.06200
H 	H 	0.07160 0.41090 0.52000 0.05600
H 	H 	0.95450 0.47200 0.48250 -0.03700
H 	H 	0.82630 0.41380 0.61540 -0.00100
H 	H 	0.32200 0.84980 0.52910 -0.02000
H 	H 	0.26230 0.93770 0.37610 0.01300
H 	H 	0.27440 0.71650 0.43180 0.07900
H 	H 	0.31380 0.72920 0.49620 0.06100
H 	H 	0.42950 0.70390 0.50860 0.05300
H 	H 	0.54070 0.67120 0.46710 0.07500
H 	H 	0.47170 0.68690 0.29430 0.06200
H 	H 	0.35860 0.72530 0.32940 0.06300
H 	H 	0.57190 0.62690 0.30890 0.09300
H 	H 	0.61490 0.67930 0.34820 0.07200
H 	H 	0.71330 0.62120 0.41340 -0.02100
H 	H 	0.61830 0.45240 0.43100 -0.01400
H 	H 	0.31550 0.64250 0.59460 -0.02300
H 	H 	0.47740 0.52710 0.58460 -0.02200
H 	H 	0.38100 0.48480 0.44960 0.07500
H 	H 	0.44190 0.45290 0.49110 0.06100
H 	H 	0.37960 0.41440 0.60070 0.08400
H 	H 	0.30260 0.33970 0.63710 0.05600
H 	H 	0.21330 0.32010 0.46750 0.00100
H 	H 	0.28390 0.40200 0.43520 0.05600
H 	H 	0.16610 0.27190 0.61560 0.07300
H 	H 	0.15440 0.25830 0.54310 0.05300
H 	H 	0.30060 0.08790 0.65010 -0.01000
H 	H 	0.23430 0.15820 0.49340 -0.02700
H 	H 	0.59210 0.62720 0.59600 -0.01100
H 	H 	0.50410 0.78980 0.65020 0.01000
H 	H 	0.65750 0.84600 0.56260 0.07300
H 	H 	0.58200 0.87370 0.58210 0.05900
H 	H 	0.67750 0.80530 0.45480 0.04500
H 	H 	0.64840 0.81220 0.34890 0.04300
H 	H 	0.45250 0.87800 0.39630 0.07700
H 	H 	0.48720 0.87950 0.50280 0.03500
H 	H 	0.57700 0.89440 0.27660 0.06800
H 	H 	0.54340 0.82330 0.26820 0.07500
H 	H 	0.31440 0.90480 0.25030 -0.00300
H 	H 	0.48720 0.99570 0.29480 -0.00500
H 	H 	0.37060 0.01010 0.25940 0.18700
H 	H 	0.08150 0.50550 0.23820 0.01000
H 	H 	0.21490 0.35770 0.24990 -0.02300
H 	H 	0.33720 0.44160 0.25930 0.06900
H 	H 	0.31730 0.50240 0.30250 0.07900
H 	H 	0.37100 0.60010 0.26590 0.06500
H 	H 	0.43510 0.64830 0.17540 0.05300
H 	H 	0.36010 0.49210 0.06680 0.04800
H 	H 	0.29330 0.45510 0.14840 0.07000
H 	H 	0.44870 0.65150 0.06130 0.06200
H 	H 	0.42840 0.58910 0.02000 0.05600
H 	H 	0.54550 0.52800 0.98250 -0.03800
H 	H 	0.67370 0.58620 0.11540 -0.00100
H 	H 	0.17800 0.15020 0.02910 -0.02100
H 	H 	0.23770 0.06230 0.87610 0.01200
H 	H 	0.22560 0.28350 0.93180 0.07800
H 	H 	0.18620 0.27080 0.99620 0.06100
H 	H 	0.07050 0.29610 0.00860 0.05100
H 	H 	0.95930 0.32880 0.96710 0.07500
H 	H 	0.02830 0.31310 0.79430 0.06200
H 	H 	0.14140 0.27470 0.82940 0.06300
H 	H 	0.92810 0.37310 0.80890 0.09300
H 	H 	0.88510 0.32070 0.84820 0.07200
H 	H 	0.78670 0.37880 0.91340 -0.02100
H 	H 	0.88170 0.54760 0.93100 -0.01500
H 	H 	0.18450 0.35750 0.09460 -0.02300
H 	H 	0.02260 0.47290 0.08460 -0.02200
H 	H 	0.11900 0.51520 0.94960 0.07500
H 	H 	0.05810 0.54710 0.99110 0.06100
H 	H 	0.12040 0.58560 0.10070 0.08300
H 	H 	0.19740 0.66030 0.13710 0.05700
H 	H 	0.28670 0.67990 0.96750 0.00200
H 	H 	0.21610 0.59800 0.93520 0.05500
H 	H 	0.33390 0.72810 0.11560 0.07300
H 	H 	0.34560 0.74170 0.04310 0.05300
H 	H 	0.19940 0.91210 0.15010 -0.01000
H 	H 	0.26570 0.84180 0.99340 -0.02700
H 	H 	0.90790 0.37280 0.09600 -0.01000
H 	H 	0.99590 0.21020 0.15020 0.01100
H 	H 	0.84250 0.15400 0.06260 0.07200
H 	H 	0.91800 0.12630 0.08210 0.05900
H 	H 	0.82250 0.19470 0.95480 0.04400
H 	H 	0.85160 0.18780 0.84890 0.04400
H 	H 	0.04750 0.12200 0.89630 0.07800
H 	H 	0.01280 0.12050 0.00280 0.03200
H 	H 	0.92300 0.10560 0.77660 0.06800
H 	H 	0.95660 0.17670 0.76820 0.07500
H 	H 	0.18560 0.09520 0.75030 -0.00300
H 	H 	0.01280 0.00430 0.79480 -0.00600
H 	H 	0.12940 0.98990 0.75940 0.19000
C 	C 	0.62330 0.01870 0.75550 0.11100
C 	C 	0.69400 0.10030 0.74970 0.06200
C 	C 	0.80650 0.01950 0.73730 -0.14400
C 	C 	0.82200 0.97530 0.78790 0.08800
C 	C 	0.86790 0.91830 0.77440 -0.08800
C 	C 	0.90940 0.89120 0.82860 -0.06100
C 	C 	0.90890 0.92580 0.88500 0.05100
C 	C 	0.86150 0.98610 0.89440 -0.05000
C 	C 	0.82190 0.00740 0.84620 -0.08300
C 	C 	0.95010 0.89670 0.94050 -0.11500
C 	C 	0.06400 0.95330 0.98080 0.09900
C 	C 	0.13220 0.92160 0.90780 0.10000
C 	C 	0.69180 0.35830 0.01240 0.10200
C 	C 	0.72430 0.40440 0.09570 0.08500
C 	C 	0.68580 0.23980 0.04860 -0.12500
C 	C 	0.61930 0.21580 0.07600 0.06500
C 	C 	0.56420 0.20040 0.03490 -0.05500
C 	C 	0.49700 0.17870 0.06080 -0.08700
C 	C 	0.48510 0.16860 0.12320 0.09500
C 	C 	0.53720 0.18850 0.16250 -0.09400
C 	C 	0.60650 0.21250 0.14160 -0.05800
C 	C 	0.41900 0.14290 0.14860 -0.14500
C 	C 	0.32020 0.08680 0.08710 0.09400
C 	C 	0.37370 0.99670 0.07960 0.09900
C 	C 	0.65310 0.10890 0.91750 0.10600
C 	C 	0.56680 0.04680 0.92340 0.09800
C 	C 	0.60660 0.97040 0.00800 -0.12500
C 	C 	0.65870 0.91600 0.98620 0.08700
C 	C 	0.65500 0.89650 0.92600 -0.10100
C 	C 	0.70200 0.84950 0.90580 -0.03100
C 	C 	0.75810 0.81100 0.93860 0.02700
C 	C 	0.75520 0.83810 0.00300 -0.02900
C 	C 	0.71100 0.88700 0.02340 -0.11000
C 	C 	0.80990 0.76090 0.92370 -0.11000
C 	C 	0.72350 0.61540 0.87810 0.09300
C 	C 	0.75780 0.65130 0.96370 0.09300
C 	C 	0.41800 0.17240 0.90070 0.08300
C 	C 	0.46800 0.25820 0.87050 0.07500
C 	C 	0.39380 0.33920 0.94190 -0.12200
C 	C 	0.41420 0.34450 0.01030 0.05400
C 	C 	0.36670 0.32270 0.05700 -0.05900
C 	C 	0.38440 0.32660 0.12090 -0.08600
C 	C 	0.45040 0.35180 0.14030 0.07700
C 	C 	0.50070 0.36700 0.09270 -0.08000
C 	C 	0.48040 0.36570 0.02790 -0.05500
C 	C 	0.46040 0.36480 0.20860 -0.13500
C 	C 	0.63700 0.41220 0.24280 0.15100
C 	C 	0.54530 0.46320 0.21780 0.14100
C 	C 	0.87670 0.98130 0.25550 0.10700
C 	C 	0.80600 0.89970 0.24970 0.06200
C 	C 	0.69350 0.98050 0.23730 -0.15200
C 	C 	0.67800 0.02470 0.28790 0.09600
C 	C 	0.63210 0.08170 0.27440 -0.09300
C 	C 	0.59060 0.10880 0.32860 -0.05700
C 	C 	0.59110 0.07420 0.38500 0.04700
C 	C 	0.63850 0.01390 0.39440 -0.04100
C 	C 	0.67810 0.99260 0.34620 -0.09300
C 	C 	0.54990 0.10330 0.44050 -0.11100
C 	C 	0.43600 0.04670 0.48080 0.09600
C 	C 	0.36780 0.07840 0.40780 0.09900
C 	C 	0.80820 0.64170 0.51240 0.09900
C 	C 	0.77570 0.59560 0.59570 0.08500
C 	C 	0.81420 0.76020 0.54860 -0.12600
C 	C 	0.88070 0.78420 0.57600 0.06600
C 	C 	0.93580 0.79960 0.53490 -0.05800
C 	C 	0.00300 0.82130 0.56080 -0.08500
C 	C 	0.01490 0.83140 0.62320 0.09700
C 	C 	0.96280 0.81150 0.66250 -0.09700
C 	C 	0.89350 0.78750 0.64160 -0.05800
C 	C 	0.08100 0.85710 0.64860 -0.14600
C 	C 	0.17980 0.91320 0.58710 0.09400
C 	C 	0.12630 0.00330 0.57960 0.09300
C 	C 	0.84690 0.89110 0.41750 0.10600
C 	C 	0.93320 0.95320 0.42340 0.09800
C 	C 	0.89340 0.02960 0.50800 -0.12700
C 	C 	0.84130 0.08400 0.48620 0.09000
C 	C 	0.84500 0.10350 0.42600 -0.10200
C 	C 	0.79800 0.15050 0.40580 -0.03000
C 	C 	0.74190 0.18900 0.43860 0.02800
C 	C 	0.74480 0.16190 0.50300 -0.03000
C 	C 	0.78900 0.11300 0.52340 -0.11200
C 	C 	0.69010 0.23910 0.42370 -0.11000
C 	C 	0.77650 0.38460 0.37810 0.09300
C 	C 	0.74220 0.34870 0.46370 0.09600
C 	C 	0.08200 0.82760 0.40070 0.08400
C 	C 	0.03200 0.74180 0.37050 0.07500
C 	C 	0.10620 0.66080 0.44190 -0.12000
C 	C 	0.08580 0.65550 0.51030 0.05200
C 	C 	0.13330 0.67730 0.55700 -0.05700
C 	C 	0.11560 0.67340 0.62090 -0.08800
C 	C 	0.04960 0.64820 0.64030 0.08000
C 	C 	0.99930 0.63300 0.59270 -0.08400
C 	C 	0.01960 0.63430 0.52790 -0.05200
C 	C 	0.03960 0.63520 0.70860 -0.13600
C 	C 	0.86300 0.58780 0.74280 0.15100
C 	C 	0.95470 0.53680 0.71780 0.14000
C 	C 	0.37670 0.51870 0.74450 0.11100
C 	C 	0.30600 0.60030 0.75030 0.06200
C 	C 	0.19350 0.51950 0.76270 -0.15000
C 	C 	0.17800 0.47530 0.71210 0.09400
C 	C 	0.13210 0.41830 0.72560 -0.09100
C 	C 	0.09060 0.39120 0.67140 -0.05800
C 	C 	0.09110 0.42580 0.61500 0.04800
C 	C 	0.13850 0.48610 0.60560 -0.04300
C 	C 	0.17810 0.50740 0.65380 -0.09100
C 	C 	0.04990 0.39670 0.55950 -0.11100
C 	C 	0.93600 0.45330 0.51920 0.09600
C 	C 	0.86780 0.42160 0.59220 0.09900
C 	C 	0.30820 0.85830 0.48760 0.09900
C 	C 	0.27570 0.90440 0.40430 0.08500
C 	C 	0.31420 0.73980 0.45140 -0.12600
C 	C 	0.38070 0.71580 0.42400 0.06600
C 	C 	0.43580 0.70040 0.46510 -0.05700
C 	C 	0.50300 0.67870 0.43920 -0.08600
C 	C 	0.51490 0.66860 0.37680 0.09400
C 	C 	0.46280 0.68850 0.33750 -0.09300
C 	C 	0.39350 0.71250 0.35840 -0.05900
C 	C 	0.58100 0.64290 0.35140 -0.14500
C 	C 	0.67980 0.58680 0.41290 0.09400
C 	C 	0.62630 0.49670 0.42040 0.09700
C 	C 	0.34690 0.60890 0.58250 0.10600
C 	C 	0.43320 0.54680 0.57660 0.09800
C 	C 	0.39340 0.47040 0.49200 -0.12800
C 	C 	0.34130 0.41600 0.51380 0.09000
C 	C 	0.34500 0.39650 0.57400 -0.10300
C 	C 	0.29800 0.34950 0.59420 -0.03000
C 	C 	0.24190 0.31100 0.56140 0.02800
C 	C 	0.24480 0.33810 0.49700 -0.03000
C 	C 	0.28900 0.38700 0.47660 -0.11300
C 	C 	0.19010 0.26090 0.57630 -0.11000
C 	C 	0.27650 0.11540 0.62190 0.09300
C 	C 	0.24220 0.15130 0.53630 0.09600
C 	C 	0.58200 0.67240 0.59930 0.08400
C 	C 	0.53200 0.75820 0.62950 0.07500
C 	C 	0.60620 0.83920 0.55810 -0.12200
C 	C 	0.58580 0.84450 0.48970 0.05400
C 	C 	0.63330 0.82270 0.44300 -0.06000
C 	C 	0.61560 0.82660 0.37910 -0.08600
C 	C 	0.54960 0.85180 0.35970 0.07700
C 	C 	0.49930 0.86700 0.40730 -0.07900
C 	C 	0.51960 0.86570 0.47210 -0.05600
C 	C 	0.53960 0.86480 0.29140 -0.13500
C 	C 	0.36300 0.91220 0.25720 0.15100
C 	C 	0.45470 0.96320 0.28220 0.14000
C 	C 	0.12330 0.48130 0.24450 0.11100
C 	C 	0.19400 0.39970 0.25030 0.06200
C 	C 	0.30650 0.48050 0.26270 -0.15000
C 	C 	0.32200 0.52470 0.21210 0.09400
C 	C 	0.36790 0.58170 0.22560 -0.09100
C 	C 	0.40940 0.60880 0.17140 -0.05800
C 	C 	0.40890 0.57420 0.11500 0.04800
C 	C 	0.36150 0.51390 0.10560 -0.04300
C 	C 	0.32190 0.49260 0.15380 -0.09100
C 	C 	0.45010 0.60330 0.05950 -0.11100
C 	C 	0.56400 0.54670 0.01920 0.09700
C 	C 	0.63220 0.57840 0.09220 0.09900
C 	C 	0.19180 0.14170 0.98760 0.10000
C 	C 	0.22430 0.09560 0.90430 0.08400
C 	C 	0.18580 0.26020 0.95140 -0.12500
C 	C 	0.11930 0.28420 0.92400 0.06400
C 	C 	0.06420 0.29960 0.96510 -0.05300
C 	C 	0.99700 0.32130 0.93920 -0.08800
C 	C 	0.98510 0.33140 0.87680 0.09500
C 	C 	0.03720 0.31150 0.83750 -0.09400
C 	C 	0.10650 0.28750 0.85840 -0.05700
C 	C 	0.91900 0.35710 0.85140 -0.14500
C 	C 	0.82020 0.41320 0.91290 0.09400
C 	C 	0.87370 0.50330 0.92040 0.09700
C 	C 	0.15310 0.39110 0.08250 0.10600
C 	C 	0.06680 0.45320 0.07660 0.09800
C 	C 	0.10660 0.52960 0.99200 -0.12500
C 	C 	0.15870 0.58400 0.01380 0.08800
C 	C 	0.15500 0.60350 0.07400 -0.10100
C 	C 	0.20200 0.65050 0.09420 -0.03100
C 	C 	0.25810 0.68900 0.06140 0.02800
C 	C 	0.25520 0.66190 0.99700 -0.03000
C 	C 	0.21100 0.61300 0.97660 -0.11000
C 	C 	0.30990 0.73910 0.07630 -0.11000
C 	C 	0.22350 0.88460 0.12190 0.09300
C 	C 	0.25780 0.84870 0.03630 0.09500
C 	C 	0.91800 0.32760 0.09930 0.08400
C 	C 	0.96800 0.24180 0.12950 0.07500
C 	C 	0.89380 0.16080 0.05810 -0.11700
C 	C 	0.91420 0.15550 0.98970 0.04900
C 	C 	0.86670 0.17730 0.94300 -0.05600
C 	C 	0.88440 0.17340 0.87910 -0.08900
C 	C 	0.95040 0.14820 0.85970 0.07900
C 	C 	0.00070 0.13300 0.90730 -0.08400
C 	C 	0.98040 0.13430 0.97210 -0.05000
C 	C 	0.96040 0.13520 0.79140 -0.13600
C 	C 	0.13700 0.08780 0.75720 0.15200
C 	C 	0.04530 0.03680 0.78220 0.14100
N 	N 	0.62480 0.08610 0.76160 -0.24300
N 	N 	0.67790 0.99250 0.74160 -0.10400
N 	N 	0.72730 0.04200 0.73720 -0.08100
N 	N 	0.13160 0.95500 0.96350 -0.24000
N 	N 	0.07130 0.90220 0.89040 -0.10200
N 	N 	0.02620 0.92040 0.93730 -0.08600
N 	N 	0.70860 0.41690 0.03480 -0.23500
N 	N 	0.71920 0.33960 0.11300 -0.09100
N 	N 	0.69710 0.31370 0.05650 -0.08600
N 	N 	0.31110 0.02630 0.06200 -0.23500
N 	N 	0.42270 0.02950 0.11100 -0.09800
N 	N 	0.38560 0.08970 0.11290 -0.07800
N 	N 	0.59130 0.10070 0.89160 -0.24200
N 	N 	0.66910 0.06430 0.96440 -0.09800
N 	N 	0.61020 0.02580 0.96550 -0.08700
N 	N 	0.73150 0.59800 0.94070 -0.24100
N 	N 	0.77300 0.69710 0.91750 -0.08600
N 	N 	0.75110 0.67170 0.86010 -0.10200
N 	N 	0.47180 0.19500 0.86360 -0.24900
N 	N 	0.38050 0.21710 0.93190 -0.09400
N 	N 	0.41400 0.27130 0.91540 -0.07500
N 	N 	0.59060 0.36570 0.23970 -0.10400
N 	N 	0.60850 0.47250 0.23500 -0.25300
N 	N 	0.53280 0.39590 0.22100 -0.08500
N 	N 	0.87520 0.91390 0.26160 -0.24200
N 	N 	0.82210 0.00750 0.24160 -0.10300
N 	N 	0.77270 0.95800 0.23720 -0.08100
N 	N 	0.36840 0.04500 0.46350 -0.24000
N 	N 	0.42870 0.09780 0.39040 -0.10200
N 	N 	0.47380 0.07960 0.43730 -0.08700
N 	N 	0.79140 0.58310 0.53480 -0.23500
N 	N 	0.78080 0.66040 0.61300 -0.09100
N 	N 	0.80290 0.68630 0.55650 -0.08600
N 	N 	0.18890 0.97370 0.56200 -0.23200
N 	N 	0.07730 0.97050 0.61100 -0.09600
N 	N 	0.11440 0.91030 0.61290 -0.07700
N 	N 	0.90870 0.89930 0.39160 -0.24300
N 	N 	0.83090 0.93570 0.46440 -0.09800
N 	N 	0.88980 0.97420 0.46550 -0.08700
N 	N 	0.76850 0.40200 0.44070 -0.24100
N 	N 	0.72700 0.30290 0.41750 -0.08700
N 	N 	0.74890 0.32830 0.36010 -0.10200
N 	N 	0.02820 0.80500 0.36360 -0.24900
N 	N 	0.11950 0.78290 0.43190 -0.09400
N 	N 	0.08600 0.72870 0.41540 -0.07600
N 	N 	0.90940 0.63430 0.73970 -0.10400
N 	N 	0.89150 0.52750 0.73500 -0.25300
N 	N 	0.96720 0.60410 0.72100 -0.08500
N 	N 	0.37520 0.58610 0.73840 -0.24300
N 	N 	0.32210 0.49250 0.75840 -0.10400
N 	N 	0.27270 0.54200 0.76280 -0.08100
N 	N 	0.86840 0.45500 0.53650 -0.24000
N 	N 	0.92870 0.40220 0.60960 -0.10200
N 	N 	0.97380 0.42040 0.56270 -0.08700
N 	N 	0.29140 0.91690 0.46520 -0.23500
N 	N 	0.28080 0.83960 0.38700 -0.09100
N 	N 	0.30290 0.81370 0.44350 -0.08600
N 	N 	0.68890 0.52630 0.43800 -0.23400
N 	N 	0.57730 0.52950 0.38900 -0.09800
N 	N 	0.61440 0.58970 0.38710 -0.07800
N 	N 	0.40870 0.60070 0.60840 -0.24200
N 	N 	0.33090 0.56430 0.53560 -0.09800
N 	N 	0.38980 0.52580 0.53450 -0.08600
N 	N 	0.26850 0.09800 0.55930 -0.24100
N 	N 	0.22700 0.19710 0.58250 -0.08700
N 	N 	0.24890 0.17170 0.63990 -0.10200
N 	N 	0.52820 0.69500 0.63640 -0.24900
N 	N 	0.61950 0.71710 0.56810 -0.09400
N 	N 	0.58600 0.77130 0.58460 -0.07500
N 	N 	0.40940 0.86570 0.26030 -0.10400
N 	N 	0.39150 0.97250 0.26500 -0.25200
N 	N 	0.46720 0.89590 0.27900 -0.08500
N 	N 	0.12480 0.41390 0.23840 -0.24300
N 	N 	0.17790 0.50750 0.25840 -0.10400
N 	N 	0.22730 0.45800 0.26280 -0.08100
N 	N 	0.63160 0.54500 0.03650 -0.24000
N 	N 	0.57130 0.59780 0.10960 -0.10200
N 	N 	0.52620 0.57960 0.06270 -0.08700
N 	N 	0.20860 0.08310 0.96520 -0.23600
N 	N 	0.21920 0.16040 0.88700 -0.09100
N 	N 	0.19710 0.18630 0.94350 -0.08600
N 	N 	0.81110 0.47370 0.93800 -0.23400
N 	N 	0.92270 0.47050 0.88900 -0.09800
N 	N 	0.88560 0.41030 0.88710 -0.07800
N 	N 	0.09130 0.39930 0.10840 -0.24300
N 	N 	0.16910 0.43570 0.03560 -0.09800
N 	N 	0.11020 0.47420 0.03450 -0.08700
N 	N 	0.23150 0.90200 0.05930 -0.24100
N 	N 	0.27300 0.80290 0.08250 -0.08600
N 	N 	0.25110 0.82830 0.13990 -0.10200
N 	N 	0.97180 0.30500 0.13640 -0.24800
N 	N 	0.88050 0.28290 0.06810 -0.09300
N 	N 	0.91400 0.22870 0.08460 -0.07600
N 	N 	0.09060 0.13430 0.76030 -0.10400
N 	N 	0.10850 0.02750 0.76500 -0.25500
N 	N 	0.03280 0.10410 0.77900 -0.08500
O 	O 	0.52220 0.56790 0.70580 -0.54400
O 	O 	0.59310 0.51250 0.80830 -0.51100
O 	O 	0.64160 0.52630 0.64300 -0.48800
O 	O 	0.57550 0.43690 0.69060 -0.41900
O 	O 	0.71470 0.50530 0.74430 -0.36500
O 	O 	0.71060 0.45530 0.55580 -0.53500
O 	O 	0.63410 0.34610 0.60120 -0.51900
O 	O 	0.71290 0.40080 0.68080 -0.41500
O 	O 	0.72330 0.28080 0.74400 -0.51800
O 	O 	0.59260 0.31960 0.72710 -0.41600
O 	O 	0.61980 0.22210 0.82200 -0.54600
O 	O 	0.60630 0.34660 0.87090 -0.48300
O 	O 	0.65570 0.46800 0.91410 -0.52800
O 	O 	0.51930 0.40100 0.79030 -0.36200
O 	O 	0.68970 0.39910 0.79900 -0.42100
O 	O 	0.81320 0.42460 0.75690 -0.26300
O 	O 	0.47350 0.35960 0.68900 -0.25700
O 	O 	0.97780 0.43210 0.20580 -0.54300
O 	O 	0.90690 0.48750 0.30830 -0.51100
O 	O 	0.85840 0.47370 0.14300 -0.48800
O 	O 	0.92450 0.56310 0.19060 -0.41900
O 	O 	0.78530 0.49470 0.24430 -0.36500
O 	O 	0.78940 0.54470 0.05580 -0.53400
O 	O 	0.86590 0.65390 0.10120 -0.51900
O 	O 	0.78710 0.59920 0.18080 -0.41500
O 	O 	0.77670 0.71920 0.24400 -0.51800
O 	O 	0.90740 0.68040 0.22710 -0.41700
O 	O 	0.88020 0.77790 0.32200 -0.54600
O 	O 	0.89370 0.65340 0.37090 -0.48300
O 	O 	0.84430 0.53200 0.41410 -0.52800
O 	O 	0.98070 0.59900 0.29030 -0.36200
O 	O 	0.81030 0.60090 0.29900 -0.42100
O 	O 	0.68680 0.57540 0.25690 -0.26300
O 	O 	0.02650 0.64040 0.18900 -0.25800
O 	O 	0.47780 0.06790 0.79420 -0.54400
O 	O 	0.40690 0.01250 0.69170 -0.51100
O 	O 	0.35840 0.02630 0.85700 -0.48900
O 	O 	0.42450 0.93690 0.80940 -0.41900
O 	O 	0.28530 0.00530 0.75570 -0.36600
O 	O 	0.28940 0.95530 0.94420 -0.53400
O 	O 	0.36590 0.84610 0.89880 -0.51900
O 	O 	0.28710 0.90080 0.81920 -0.41500
O 	O 	0.27670 0.78080 0.75600 -0.51800
O 	O 	0.40740 0.81960 0.77290 -0.41600
O 	O 	0.38020 0.72210 0.67800 -0.54600
O 	O 	0.39370 0.84660 0.62910 -0.48300
O 	O 	0.34430 0.96800 0.58590 -0.52700
O 	O 	0.48070 0.90100 0.70970 -0.36200
O 	O 	0.31030 0.89910 0.70100 -0.42100
O 	O 	0.18680 0.92460 0.74310 -0.26300
O 	O 	0.52650 0.85960 0.81100 -0.25700
O 	O 	0.02220 0.93210 0.29420 -0.54400
O 	O 	0.09310 0.98750 0.19170 -0.51000
O 	O 	0.14160 0.97370 0.35700 -0.48700
O 	O 	0.07550 0.06310 0.30940 -0.42000
O 	O 	0.21470 0.99470 0.25570 -0.36400
O 	O 	0.21060 0.04470 0.44420 -0.53500
O 	O 	0.13410 0.15390 0.39880 -0.51900
O 	O 	0.21290 0.09920 0.31920 -0.41500
O 	O 	0.22330 0.21920 0.25600 -0.51800
O 	O 	0.09260 0.18040 0.27290 -0.41700
O 	O 	0.11980 0.27790 0.17800 -0.54700
O 	O 	0.10630 0.15340 0.12910 -0.48300
O 	O 	0.15570 0.03200 0.08590 -0.52900
O 	O 	0.01930 0.09900 0.20970 -0.36300
O 	O 	0.18970 0.10090 0.20100 -0.42100
O 	O 	0.31320 0.07540 0.24310 -0.26300
O 	O 	0.97350 0.14040 0.31100 -0.25500
