data_crystal

_cell_length_a 21.86300
_cell_length_b 26.74550
_cell_length_c 36.74100
_cell_angle_alpha 109.61700
_cell_angle_beta  90.00000
_cell_angle_gamma 114.12500

_symmetry_space_group_name_	'P 1'
_symmetry_space_group_name_H-M	'P 1'

loop_
_symmetry_equiv_pos_as_xyz
  x,y,z

loop_
_atom_site_label
_atom_site_type_symbol
_atom_site_fract_x
_atom_site_fract_y
_atom_site_fract_z
_atom_site_charge
Cu	Cu	0.15714 0.84324 0.33466 0.84600
Cu	Cu	0.84286 0.15676 0.66534 0.84700
Cu	Cu	0.22059 0.81324 0.52512 0.81900
Cu	Cu	0.68610 0.84324 0.83466 0.84700
Cu	Cu	0.69013 0.83588 0.60766 0.78100
Cu	Cu	0.84981 0.16008 0.19356 0.88700
Cu	Cu	0.51817 0.49880 0.21801 0.85600
Cu	Cu	0.30987 0.16412 0.39234 0.78100
Cu	Cu	-0.00000 0.50000 -0.00000 0.84900
Cu	Cu	0.15019 0.83992 0.80644 0.88600
Cu	Cu	0.01937 0.50120 0.28199 0.85300
Cu	Cu	0.98063 0.49880 0.71801 0.85600
Cu	Cu	0.59265 0.81324 0.02512 0.81800
Cu	Cu	0.50000 0.50000 0.50000 0.85200
Cu	Cu	0.14575 0.83588 0.10766 0.78000
Cu	Cu	0.31390 0.15676 0.16534 0.84500
Cu	Cu	0.31027 0.16008 0.69356 0.88500
Cu	Cu	0.77941 0.18676 0.47488 0.81800
Cu	Cu	0.68973 0.83992 0.30644 0.88600
Cu	Cu	0.40735 0.18676 0.97488 0.81900
Cu	Cu	0.85425 0.16412 0.89234 0.78100
Cu	Cu	0.48183 0.50120 0.78199 0.85500
P 	P 	0.49571 0.98662 0.69344 0.56400
P 	P 	0.50909 0.01338 0.80656 0.56400
P 	P 	0.49091 0.98662 0.19344 0.56300
P 	P 	0.50429 0.01338 0.30656 0.56400
H 	H 	0.65430 0.58460 0.19910 -0.02500
H 	H 	0.28810 0.02840 0.10280 -0.03900
H 	H 	0.71880 0.31940 0.80950 0.01000
H 	H 	0.60360 0.39540 0.61240 0.08400
H 	H 	0.28050 0.66800 0.75810 0.03800
H 	H 	0.38590 0.46740 0.35660 0.05100
H 	H 	0.15390 0.12940 0.40500 -0.02800
H 	H 	0.83770 0.35100 0.15550 0.06000
H 	H 	0.15620 0.71700 0.89710 0.03900
H 	H 	0.81570 0.92120 0.16440 0.05400
H 	H 	0.18430 0.07880 0.83560 0.05700
H 	H 	0.43920 0.28300 0.60290 0.03900
H 	H 	0.96490 0.57220 0.57960 0.03900
H 	H 	0.48930 0.02820 0.97560 0.07000
H 	H 	0.66340 0.64780 0.69380 0.07400
H 	H 	0.06970 0.41540 0.30090 -0.02700
H 	H 	0.38470 0.83660 0.42690 0.02900
H 	H 	0.53320 0.66980 0.99480 -0.01800
H 	H 	0.90220 0.01320 0.36190 0.06200
H 	H 	0.93030 0.58460 0.69910 -0.02400
H 	H 	0.43070 0.73800 0.89980 0.06700
H 	H 	0.89550 0.56200 0.18230 0.04600
H 	H 	0.61100 0.03040 0.00790 0.02900
H 	H 	0.77820 0.96060 0.67510 -0.04700
H 	H 	0.25530 0.25960 0.39220 -0.02900
H 	H 	0.86550 0.94480 0.97810 0.04600
H 	H 	0.05000 0.86680 0.63070 0.03600
H 	H 	0.13450 0.05520 0.02190 0.04800
H 	H 	0.91690 0.44060 0.40950 0.06500
H 	H 	0.09250 0.98620 0.93870 0.03200
H 	H 	0.16230 0.64900 0.84450 0.06000
H 	H 	0.77620 0.18320 0.26580 -0.00300
H 	H 	0.10470 0.81480 0.57810 -0.02400
H 	H 	0.75300 0.20980 0.72080 -0.01100
H 	H 	0.33550 0.05780 0.91230 0.00300
H 	H 	0.03030 0.09060 0.72640 0.07600
H 	H 	0.53210 0.89320 0.01180 -0.03900
H 	H 	0.46340 0.21780 0.90390 -0.03700
H 	H 	0.41330 0.54640 0.20280 -0.03200
H 	H 	0.81660 0.03060 0.18680 0.01700
H 	H 	0.42330 0.68940 0.75140 0.05100
H 	H 	0.78550 0.69400 0.65050 0.03900
H 	H 	0.97910 0.06240 0.79160 0.05900
H 	H 	0.32460 0.38560 0.38490 0.05700
H 	H 	0.83540 0.41780 0.45750 0.04900
H 	H 	0.99040 0.04220 0.32750 0.07200
H 	H 	0.39270 0.42780 0.92040 0.04200
H 	H 	0.69320 0.29160 0.28750 0.02700
H 	H 	0.33670 0.63780 0.80420 0.03400
H 	H 	0.42850 0.36720 0.71990 -0.02100
H 	H 	0.47270 0.72380 0.23340 0.06200
H 	H 	0.94560 0.06460 0.40110 0.05400
H 	H 	0.97870 0.83780 0.20450 0.06000
H 	H 	0.36010 0.48640 0.45850 -0.02100
H 	H 	0.16710 0.06340 0.52040 0.06500
H 	H 	0.01740 0.02520 0.22370 0.06500
H 	H 	0.63990 0.51360 0.54150 -0.02100
H 	H 	0.79330 0.79340 0.80590 -0.02500
H 	H 	0.57670 0.31060 0.24860 0.05100
H 	H 	0.05370 0.99300 0.49730 0.03600
H 	H 	0.01140 0.98640 0.35480 0.04200
H 	H 	0.06100 0.38560 0.88490 0.05000
H 	H 	0.50380 0.28800 0.34090 0.08200
H 	H 	0.46680 0.33020 0.00520 -0.02700
H 	H 	0.94820 0.95780 0.17250 0.05300
H 	H 	0.36110 0.89320 0.51180 -0.04000
H 	H 	0.33660 0.35220 0.30620 0.07400
H 	H 	0.10080 0.53400 0.21820 -0.02500
H 	H 	0.86850 0.34560 0.07330 0.01200
H 	H 	0.73390 0.31060 0.74860 0.05100
H 	H 	0.25970 0.97160 0.39720 -0.03900
H 	H 	0.46210 0.63500 0.17300 0.07500
H 	H 	0.63890 0.10680 0.48820 -0.04000
H 	H 	0.07320 0.95840 0.04410 0.04000
H 	H 	0.82270 0.01320 0.00290 0.08400
H 	H 	0.29040 0.09780 0.00940 -0.02100
H 	H 	0.04810 0.98380 0.43540 0.03900
H 	H 	0.93870 0.36720 0.21990 -0.02000
H 	H 	0.45540 0.13700 0.14700 0.00500
H 	H 	0.51990 0.67900 0.67980 0.10400
H 	H 	0.17290 0.63500 0.67300 0.07500
H 	H 	0.68160 0.13700 0.64700 0.00500
H 	H 	0.97550 0.12940 0.90500 -0.02700
H 	H 	0.89370 0.98620 0.43870 0.03200
H 	H 	0.94550 0.13740 0.80290 0.03800
H 	H 	0.76480 0.25840 0.09090 0.04000
H 	H 	0.10370 0.93660 0.97960 0.06300
H 	H 	0.70960 0.90220 0.99060 -0.02100
H 	H 	0.75440 0.21780 0.40390 -0.03700
H 	H 	0.28480 0.81620 0.80990 -0.01900
H 	H 	0.96770 0.89960 0.63660 0.04900
H 	H 	0.30020 0.73340 0.33180 0.07200
H 	H 	0.52740 0.47920 0.97730 0.04100
H 	H 	0.79530 0.33460 0.05820 0.01500
H 	H 	0.46860 0.18380 0.69010 -0.01900
H 	H 	0.52720 0.69980 0.14240 0.04800
H 	H 	0.97410 0.17020 0.24320 -0.03400
H 	H 	0.98580 0.38080 0.84220 0.09400
H 	H 	0.79180 0.39540 0.11240 0.08400
H 	H 	0.56680 0.26660 0.16820 0.07200
H 	H 	0.30730 0.73800 0.39980 0.06700
H 	H 	0.80390 0.82980 0.25680 -0.03400
H 	H 	0.01560 0.35220 0.80620 0.08100
H 	H 	0.51330 0.35100 0.65550 0.06000
H 	H 	0.53960 0.59380 0.46150 -0.03900
H 	H 	0.53550 0.26060 0.28900 0.02000
H 	H 	0.17420 0.09320 0.62720 -0.02000
H 	H 	0.05710 0.30420 0.81150 0.05300
H 	H 	0.26610 0.68940 0.25140 0.05100
H 	H 	0.84380 0.28300 0.10290 0.03900
H 	H 	0.16650 0.59080 0.14670 0.03900
H 	H 	0.95000 0.13320 0.36930 0.04400
H 	H 	0.25770 0.61740 0.71670 0.03600
H 	H 	0.71950 0.33200 0.24190 0.03800
H 	H 	0.91460 0.94160 0.21720 0.05700
H 	H 	0.12190 0.75400 0.85180 -0.02200
H 	H 	0.20100 0.63660 0.22350 0.06900
H 	H 	0.50640 0.74160 0.40910 0.04000
H 	H 	0.58210 0.98900 0.96410 0.04100
H 	H 	0.56130 0.42520 0.99890 0.04400
H 	H 	0.90850 0.69400 0.15050 0.03400
H 	H 	0.95190 0.01620 0.56460 0.03900
H 	H 	0.66330 0.36220 0.19580 0.03400
H 	H 	0.93570 0.98380 0.93540 0.04200
H 	H 	0.25860 0.91120 0.88380 -0.01100
H 	H 	0.39600 0.62320 0.62760 0.02900
H 	H 	0.18320 0.13320 0.86930 0.04100
H 	H 	0.50890 0.74920 0.17010 0.02700
H 	H 	0.03710 0.62920 0.05760 -0.04400
H 	H 	0.85650 0.10040 0.73160 -0.02900
H 	H 	0.46070 0.66540 0.44180 0.01600
H 	H 	0.83350 0.40920 0.85330 0.04000
H 	H 	0.88160 0.95640 0.74450 0.06000
H 	H 	0.38900 0.96960 0.99210 0.03100
H 	H 	0.58360 0.34480 0.84570 0.05000
H 	H 	0.76180 0.32860 0.13900 0.05600
H 	H 	0.34570 0.41540 0.80090 -0.02600
H 	H 	0.28990 0.18520 0.92190 -0.02300
H 	H 	0.94290 0.69580 0.18850 0.04700
H 	H 	0.04820 0.52080 0.52270 0.03400
H 	H 	0.41790 0.01100 0.03590 0.03800
H 	H 	0.43320 0.67140 0.36100 0.05600
H 	H 	0.71520 0.18380 0.19010 -0.01900
H 	H 	0.69980 0.26660 0.66820 0.07200
H 	H 	0.07880 0.61800 0.59390 0.08600
H 	H 	0.02450 0.87060 0.09500 -0.02800
H 	H 	0.13150 0.65440 0.92670 0.01200
H 	H 	0.23520 0.74160 0.90910 0.04100
H 	H 	0.91850 0.53260 0.14340 0.05700
H 	H 	0.77280 0.37680 0.87240 0.02900
H 	H 	0.13310 0.54640 0.70280 -0.03200
H 	H 	0.66570 0.70920 0.24080 -0.01300
H 	H 	0.46110 0.97180 0.52440 0.06300
H 	H 	0.47280 0.30020 0.85760 0.04800
H 	H 	0.24710 0.30420 0.31150 0.05000
H 	H 	0.03230 0.10040 0.36340 0.06500
H 	H 	0.60730 0.57220 0.07960 0.04100
H 	H 	0.52290 0.65440 0.42670 0.01200
H 	H 	0.01420 0.61920 0.15780 0.06800
H 	H 	0.30110 0.63780 0.30420 0.03400
H 	H 	0.43780 0.35720 0.16660 -0.01500
H 	H 	0.82710 0.36500 0.32700 0.07600
H 	H 	0.61410 0.53260 0.64340 0.05100
H 	H 	0.06810 0.10040 0.86340 0.06100
H 	H 	0.57570 0.40920 0.35330 0.04000
H 	H 	0.91900 0.09320 0.12720 -0.01800
H 	H 	0.35930 0.72760 0.83190 0.05400
H 	H 	0.00780 0.02520 0.72370 0.06300
H 	H 	0.23820 0.67140 0.86100 0.05600
H 	H 	0.06070 0.00700 0.00270 0.03800
H 	H 	0.04350 0.70920 0.74080 -0.01400
H 	H 	0.30680 0.70840 0.71250 0.02800
H 	H 	0.06030 0.09060 0.22640 0.07900
H 	H 	0.20820 0.60460 0.88760 0.08400
H 	H 	0.53790 0.36500 0.82700 0.07600
H 	H 	0.49110 0.25080 0.82990 0.02700
H 	H 	0.76120 0.34480 0.34570 0.05000
H 	H 	0.27770 0.94220 0.58770 0.00200
H 	H 	0.43320 0.73340 0.83180 0.07200
H 	H 	0.54560 0.50980 0.06640 0.03100
H 	H 	0.05420 0.59380 0.96150 -0.03900
H 	H 	0.72510 0.26060 0.78900 0.02000
H 	H 	0.43510 0.83380 0.88460 0.03100
H 	H 	0.65400 0.70980 0.78510 -0.01700
H 	H 	0.10630 0.01380 0.56130 0.02900
H 	H 	0.59210 0.62920 0.55760 -0.04200
H 	H 	0.53880 0.57580 0.02510 0.04600
H 	H 	0.51370 0.50620 0.86850 -0.03000
H 	H 	0.47710 0.34560 0.57330 0.01200
H 	H 	0.19190 0.13740 0.30290 0.04200
H 	H 	0.11840 0.04360 0.25550 0.05500
H 	H 	0.10170 0.12480 0.79100 0.04600
H 	H 	0.02590 0.82980 0.75680 -0.03500
H 	H 	0.84500 0.19720 0.81820 -0.03700
H 	H 	0.49620 0.71200 0.65910 0.08200
H 	H 	0.82580 0.90680 0.37280 -0.01800
H 	H 	0.96290 0.37080 0.94240 -0.04000
H 	H 	0.30310 0.64120 0.34750 0.03900
H 	H 	0.96750 0.96460 0.60320 0.04500
H 	H 	0.82740 0.30020 0.35760 0.04800
H 	H 	0.41760 0.58220 0.04250 0.05000
H 	H 	0.57150 0.63280 0.28010 -0.02100
H 	H 	0.39940 0.68060 0.69050 0.01000
H 	H 	0.54810 0.16340 0.07310 0.02800
H 	H 	0.16760 0.10340 0.11430 -0.02300
H 	H 	0.95650 0.29080 0.25920 -0.01200
H 	H 	0.67540 0.61440 0.61510 0.05700
H 	H 	0.21580 0.71200 0.15910 0.08200
H 	H 	0.59300 0.81680 0.23420 -0.00300
H 	H 	0.58670 0.45360 0.79720 -0.03100
H 	H 	0.54310 0.06080 0.52040 0.05500
H 	H 	0.58440 0.47180 0.42960 -0.02500
H 	H 	0.16840 0.03200 0.95450 0.04300
H 	H 	0.35970 0.61740 0.21670 0.03600
H 	H 	0.60130 0.16620 0.61540 0.03000
H 	H 	0.99250 0.50620 0.36850 -0.02200
H 	H 	0.61250 0.33200 0.74190 0.03800
H 	H 	0.93580 0.10340 0.61430 -0.02200
H 	H 	0.22720 0.62320 0.12760 0.02900
H 	H 	0.53140 0.81620 0.30990 -0.01900
H 	H 	0.86360 0.03200 0.45450 0.04300
H 	H 	0.06700 0.46220 0.76040 -0.03400
H 	H 	0.00750 0.49380 0.63150 -0.03800
H 	H 	0.56680 0.32860 0.63900 0.05600
H 	H 	0.63140 0.45260 0.21080 -0.02200
H 	H 	0.03250 0.03540 0.39680 0.03300
H 	H 	0.75290 0.69580 0.68850 0.05000
H 	H 	0.17260 0.69980 0.64240 0.04800
H 	H 	0.35420 0.18700 0.09230 -0.03800
H 	H 	0.87370 0.51360 0.04150 -0.02100
H 	H 	0.83160 0.96800 0.04550 0.04000
H 	H 	0.16720 0.81300 0.40770 -0.03800
H 	H 	0.33810 0.64120 0.84750 0.03900
H 	H 	0.31840 0.86300 0.35300 0.00500
H 	H 	0.66450 0.94220 0.08770 0.00200
H 	H 	0.19050 0.01320 0.50290 0.08300
H 	H 	0.78420 0.28800 0.84090 0.08200
H 	H 	0.07930 0.94480 0.47810 0.04600
H 	H 	0.63170 0.27240 0.66810 0.05400
H 	H 	0.88740 0.47180 0.92960 -0.02400
H 	H 	0.93900 0.61440 0.11510 0.06600
H 	H 	0.64580 0.81300 0.90770 -0.03700
H 	H 	0.03580 0.49020 0.43360 0.03400
H 	H 	0.43560 0.63660 0.72350 0.06900
H 	H 	0.48230 0.93920 0.97960 0.05100
H 	H 	0.93300 0.53780 0.23960 -0.03600
H 	H 	0.36830 0.72760 0.33190 0.05400
H 	H 	0.11480 0.04160 0.45590 0.04400
H 	H 	0.39640 0.60460 0.38760 0.08400
H 	H 	0.56930 0.26200 0.10020 0.06700
H 	H 	0.91940 0.35720 0.66660 -0.01400
H 	H 	0.72230 0.05780 0.41230 0.00200
H 	H 	0.14090 0.16220 0.29550 0.05500
H 	H 	0.06420 0.89660 0.38570 -0.02300
H 	H 	0.19610 0.17020 0.74320 -0.03500
H 	H 	0.34600 0.29020 0.21490 -0.01800
H 	H 	0.38300 0.74980 0.39740 0.05100
H 	H 	0.11960 0.40160 0.85970 0.04600
H 	H 	0.08540 0.05840 0.78280 0.05400
H 	H 	0.99570 0.74040 0.10780 -0.02200
H 	H 	0.46040 0.40620 0.53850 -0.03900
H 	H 	0.18240 0.96060 0.17510 -0.04700
H 	H 	0.88040 0.59840 0.14030 0.05900
H 	H 	0.08310 0.55940 0.59050 0.07200
H 	H 	0.11260 0.52820 0.07040 -0.02600
H 	H 	0.48010 0.32100 0.32020 0.10400
H 	H 	0.03510 0.42780 0.42040 0.04400
H 	H 	0.64780 0.80280 0.68180 -0.03700
H 	H 	0.05180 0.04220 0.82750 0.06200
H 	H 	0.71010 0.81480 0.07810 -0.02300
H 	H 	0.36790 0.24600 0.64820 -0.02200
H 	H 	0.97690 0.87520 0.70900 0.05700
H 	H 	0.48630 0.49380 0.13150 -0.03100
H 	H 	0.79900 0.36340 0.77650 0.06900
H 	H 	0.45680 0.20980 0.22080 -0.01100
H 	H 	0.39500 0.38080 0.34220 0.08200
H 	H 	0.18340 0.96940 0.81320 0.01700
H 	H 	0.95180 0.47920 0.47730 0.04400
H 	H 	0.80950 0.98680 0.49710 0.08200
H 	H 	0.88100 0.93540 0.09890 0.06300
H 	H 	0.56680 0.46600 0.28180 -0.02500
H 	H 	0.92070 0.05520 0.52190 0.04800
H 	H 	0.02500 0.01360 0.14520 0.05500
H 	H 	0.81680 0.86680 0.13070 0.03900
H 	H 	0.46790 0.10680 0.98820 -0.04000
H 	H 	0.56440 0.36340 0.27650 0.06900
H 	H 	0.94420 0.29020 0.71490 -0.01700
H 	H 	0.00010 0.79340 0.30590 -0.02500
H 	H 	0.52730 0.27620 0.76660 0.06200
H 	H 	0.40690 0.98900 0.46410 0.04000
H 	H 	0.02700 0.94160 0.71720 0.06100
H 	H 	0.60480 0.53780 0.73960 -0.03500
H 	H 	0.02130 0.16220 0.79550 0.04800
H 	H 	0.56220 0.64280 0.83340 -0.01400
H 	H 	0.86340 0.33020 0.50520 -0.02200
H 	H 	0.45440 0.49020 0.93360 0.03200
H 	H 	0.10450 0.43800 0.81770 0.03500
H 	H 	0.60500 0.61920 0.65780 0.08200
H 	H 	0.20670 0.20660 0.19410 -0.02600
H 	H 	0.15910 0.67900 0.17980 0.10400
H 	H 	0.17730 0.98680 0.99710 0.08200
H 	H 	0.60400 0.37680 0.37240 0.02900
H 	H 	0.98260 0.97480 0.77630 0.06000
H 	H 	0.84090 0.32100 0.82020 0.10400
H 	H 	0.09780 0.98680 0.63810 0.07400
H 	H 	0.25110 0.72380 0.73340 0.06200
H 	H 	0.17880 0.54740 0.28920 -0.02200
H 	H 	0.13660 0.66980 0.49480 -0.02300
H 	H 	0.40160 0.70840 0.21250 0.02800
H 	H 	0.53920 0.61800 0.09390 0.08300
H 	H 	0.99990 0.20660 0.69410 -0.02500
H 	H 	0.89630 0.06340 0.02040 0.06600
H 	H 	0.82120 0.45260 0.71080 -0.02200
H 	H 	0.84610 0.87060 0.59500 -0.02700
H 	H 	0.20470 0.66540 0.94180 0.01600
H 	H 	0.54460 0.86300 0.85300 0.00500
H 	H 	0.02310 0.12480 0.29100 0.03800
H 	H 	0.53660 0.78220 0.09610 -0.03700
H 	H 	0.88900 0.98680 0.13810 0.07200
H 	H 	0.45190 0.83660 0.92690 0.02900
H 	H 	0.86690 0.45360 0.29720 -0.03100
H 	H 	0.56080 0.71700 0.39710 0.03900
H 	H 	0.46120 0.42420 0.97490 0.04900
H 	H 	0.38750 0.66800 0.25810 0.03800
H 	H 	0.06430 0.01620 0.06460 0.03600
H 	H 	0.92120 0.38200 0.40610 0.07900
H 	H 	0.13160 0.58400 0.87260 0.08500
H 	H 	0.86840 0.41600 0.12740 0.08600
H 	H 	0.93930 0.99300 0.99730 0.03800
H 	H 	0.28200 0.40160 0.35970 0.05200
H 	H 	0.08060 0.64280 0.33340 -0.01500
H 	H 	0.52370 0.44060 0.90950 0.06800
H 	H 	0.16460 0.58220 0.54250 0.05100
H 	H 	0.02090 0.93760 0.20840 0.05700
H 	H 	0.41560 0.52820 0.57040 -0.02500
H 	H 	0.19260 0.90220 0.49060 -0.02100
H 	H 	0.33430 0.29080 0.75920 -0.01300
H 	H 	0.56490 0.16620 0.11540 0.03000
H 	H 	0.49360 0.25840 0.59090 0.04000
H 	H 	0.48670 0.64900 0.34450 0.06000
H 	H 	0.98440 0.64780 0.19380 0.06600
H 	H 	0.94580 0.40620 0.03850 -0.03800
H 	H 	0.05450 0.86260 0.19710 0.04300
H 	H 	0.14350 0.89960 0.26840 -0.02900
H 	H 	0.81760 0.03940 0.82490 -0.04700
H 	H 	0.24030 0.74920 0.67010 0.02700
H 	H 	0.41640 0.65520 0.15430 0.05000
H 	H 	0.47260 0.52080 0.02270 0.03800
H 	H 	0.36860 0.54740 0.78920 -0.02200
H 	H 	0.41940 0.03040 0.50790 0.03000
H 	H 	0.00430 0.25960 0.89220 -0.03400
H 	H 	0.93970 0.90940 0.77360 0.07300
H 	H 	0.13640 0.96800 0.54550 0.04100
H 	H 	0.74030 0.02840 0.60280 -0.03900
H 	H 	0.89450 0.07880 0.33560 0.06000
H 	H 	0.89830 0.87520 0.20900 0.04800
H 	H 	0.89920 0.46600 0.78180 -0.02500
H 	H 	0.83290 0.93660 0.47960 0.06400
H 	H 	0.80740 0.09780 0.50940 -0.02000
H 	H 	0.15500 0.80280 0.18180 -0.03800
H 	H 	0.40700 0.18320 0.76580 -0.00300
H 	H 	0.69270 0.26200 0.60020 0.06700
H 	H 	0.94630 0.00700 0.50270 0.04000
H 	H 	0.85910 0.83780 0.70450 0.05300
H 	H 	0.09150 0.30600 0.84950 0.04200
H 	H 	0.58060 0.96960 0.49210 0.03000
H 	H 	0.13610 0.57480 0.50110 0.04400
H 	H 	0.51070 0.97180 0.02440 0.05600
H 	H 	0.96420 0.50980 0.56640 0.02900
H 	H 	0.34740 0.08880 0.61620 -0.01100
H 	H 	0.63210 0.75400 0.35180 -0.02100
H 	H 	0.10550 0.92120 0.66440 0.05200
H 	H 	0.21450 0.30600 0.34950 0.03800
H 	H 	0.12630 0.48640 0.95850 -0.02100
H 	H 	0.97300 0.05840 0.28280 0.05000
H 	H 	0.24700 0.79020 0.27920 -0.01100
H 	H 	0.78600 0.96940 0.31320 0.01700
H 	H 	0.27490 0.73940 0.21100 0.02000
H 	H 	0.11100 0.01320 0.86190 0.06400
H 	H 	0.74890 0.27620 0.26660 0.06200
H 	H 	0.05440 0.93540 0.59890 0.06400
H 	H 	0.99220 0.97480 0.27630 0.06300
H 	H 	0.08330 0.06240 0.29160 0.05500
H 	H 	0.61530 0.16340 0.57310 0.02900
H 	H 	0.58240 0.41780 0.95750 0.05000
H 	H 	0.83240 0.89660 0.88570 -0.02100
H 	H 	0.74470 0.74040 0.60780 -0.02800
H 	H 	0.54320 0.79020 0.77920 -0.01100
H 	H 	0.92520 0.04360 0.75550 0.05800
H 	H 	0.35220 0.19720 0.31820 -0.03700
H 	H 	0.75970 0.25080 0.32990 0.02700
H 	H 	0.83280 0.18700 0.59230 -0.03700
H 	H 	0.96970 0.90940 0.27360 0.07700
H 	H 	0.23880 0.65520 0.65430 0.05000
H 	H 	0.66190 0.35880 0.15250 0.03900
H 	H 	0.43870 0.57480 0.00110 0.04200
H 	H 	0.64030 0.38260 0.78330 0.03700
H 	H 	0.24560 0.78220 0.59610 -0.03700
H 	H 	0.86390 0.42520 0.49890 0.04200
H 	H 	0.75610 0.89960 0.76840 -0.02900
H 	H 	0.93190 0.89960 0.13660 0.05200
H 	H 	0.64070 0.27240 0.16810 0.05400
H 	H 	0.71190 0.97160 0.89720 -0.03900
H 	H 	0.21400 0.03060 0.68680 0.01700
H 	H 	0.39520 0.46220 0.26040 -0.03500
H 	H 	0.89530 0.18520 0.42190 -0.02200
H 	H 	0.74140 0.08880 0.11620 -0.01100
H 	H 	0.43320 0.53400 0.71820 -0.02500
H 	H 	0.03700 0.57580 0.52510 0.04300
H 	H 	0.00960 0.95780 0.67250 0.04500
H 	H 	0.46450 0.73940 0.71100 0.02000
H 	H 	0.40790 0.37080 0.44240 -0.04200
H 	H 	0.42430 0.59080 0.64670 0.04000
H 	H 	0.69890 0.36220 0.69580 0.03400
H 	H 	0.97500 0.98640 0.85480 0.04400
H 	H 	0.11900 0.06460 0.90110 0.05600
H 	H 	0.66650 0.56200 0.68230 0.04100
H 	H 	0.96300 0.42420 0.47490 0.05200
H 	H 	0.46080 0.38200 0.90610 0.08200
H 	H 	0.07480 0.95640 0.24450 0.05800
H 	H 	0.45240 0.58400 0.37260 0.08600
H 	H 	0.71800 0.59840 0.64030 0.05200
H 	H 	0.91670 0.93760 0.70840 0.06200
H 	H 	0.06130 0.63280 0.78010 -0.02200
H 	H 	0.92680 0.04160 0.95590 0.04600
H 	H 	0.98860 0.01360 0.64520 0.05500
H 	H 	0.59840 0.29160 0.78750 0.02800
H 	H 	0.63320 0.25020 0.10260 0.05100
H 	H 	0.36680 0.74980 0.89740 0.05200
H 	H 	0.00290 0.03540 0.89680 0.03000
H 	H 	0.28120 0.68060 0.19050 0.01000
H 	H 	0.22380 0.81680 0.73420 -0.00300
H 	H 	0.87810 0.24600 0.14820 -0.02100
H 	H 	0.39870 0.83380 0.38460 0.03100
H 	H 	0.51770 0.06080 0.02040 0.06000
H 	H 	0.22180 0.03940 0.32490 -0.04700
H 	H 	0.69690 0.35880 0.65250 0.03900
H 	H 	0.47630 0.55940 0.09050 0.06900
H 	H 	0.53930 0.33460 0.55820 0.01500
H 	H 	0.90750 0.01380 0.06130 0.03000
H 	H 	0.61700 0.25020 0.60260 0.05100
H 	H 	0.88520 0.95840 0.54410 0.04400
H 	H 	0.54760 0.41600 0.62740 0.08600
H 	H 	0.45690 0.93920 0.47960 0.05500
H 	H 	0.08100 0.90680 0.87280 -0.01900
H 	H 	0.65260 0.91120 0.38380 -0.01100
H 	H 	0.33350 0.43800 0.31770 0.04000
H 	H 	0.99710 0.96460 0.10320 0.05100
H 	H 	0.24390 0.10040 0.23160 -0.02900
H 	H 	0.80810 0.86260 0.69710 0.04000
H 	H 	0.05580 0.70980 0.28510 -0.01800
H 	H 	0.53890 0.02820 0.47560 0.06300
H 	H 	0.60060 0.31940 0.30950 0.01000
H 	H 	0.74230 0.38260 0.28330 0.03700
H 	H 	0.59310 0.01100 0.53590 0.04000
H 	H 	0.08150 0.46740 0.85660 0.04500
W 	W 	0.40457 0.08848 0.81433 1.08700
W 	W 	0.39003 0.05684 0.70641 1.36000
W 	W 	0.47764 0.04060 0.62066 1.02700
W 	W 	0.43470 0.85932 0.78049 1.05500
W 	W 	0.58979 0.16698 0.82666 1.03200
W 	W 	0.43704 0.95940 0.87934 1.02600
W 	W 	0.40293 0.89354 0.59932 0.98400
W 	W 	0.57538 0.14068 0.71951 1.05500
W 	W 	0.68387 0.09180 0.81509 1.00300
W 	W 	0.42281 0.83302 0.67334 1.03200
W 	W 	0.57221 0.96632 0.60984 1.02500
W 	W 	0.42462 0.85932 0.28049 1.05500
W 	W 	0.33319 0.94316 0.79359 1.36000
W 	W 	0.39539 0.06748 0.20748 1.02000
W 	W 	0.59207 0.90820 0.68491 1.00200
W 	W 	0.40793 0.09180 0.31509 1.00200
W 	W 	0.67209 0.06748 0.70748 1.01900
W 	W 	0.50939 0.10646 0.90068 0.98400
W 	W 	0.32791 0.93252 0.29252 1.01900
W 	W 	0.52236 0.95940 0.37934 1.02600
W 	W 	0.68391 0.08848 0.31433 1.08700
W 	W 	0.59707 0.10646 0.40068 0.98400
W 	W 	0.57719 0.16698 0.32666 1.03200
W 	W 	0.56530 0.14068 0.21951 1.05500
W 	W 	0.60997 0.94316 0.29359 1.36000
W 	W 	0.42779 0.03368 0.39016 1.02600
W 	W 	0.66681 0.05684 0.20641 1.36000
W 	W 	0.60461 0.93252 0.79252 1.01900
W 	W 	0.41021 0.83302 0.17334 1.03200
W 	W 	0.60589 0.03368 0.89016 1.02600
W 	W 	0.31609 0.91152 0.68567 1.08700
W 	W 	0.31613 0.90820 0.18491 1.00200
W 	W 	0.56296 0.04060 0.12066 1.02700
W 	W 	0.39411 0.96632 0.10984 1.02400
W 	W 	0.49061 0.89354 0.09932 0.98400
W 	W 	0.59543 0.91152 0.18567 1.08700
C 	C 	0.62040 0.56920 0.17780 0.11200
C 	C 	0.59100 0.00960 0.50910 -0.02500
C 	C 	0.61850 0.71700 0.77820 0.08800
C 	C 	0.89580 0.98620 0.98510 -0.06800
C 	C 	0.15910 0.68660 0.52040 0.07400
C 	C 	0.07230 0.37660 0.85870 -0.07700
C 	C 	0.20960 0.18520 0.20890 0.09700
C 	C 	0.13240 0.97820 0.98580 -0.12300
C 	C 	0.77850 0.08040 0.11090 0.11000
C 	C 	0.55090 0.61700 0.56680 0.12300
C 	C 	0.52380 0.46360 0.28560 0.10900
C 	C 	0.16580 0.76480 0.84590 0.08500
C 	C 	0.21510 0.96560 0.39960 0.09900
C 	C 	0.85720 0.04960 0.84090 0.10300
C 	C 	0.30190 0.08040 0.61090 0.11000
C 	C 	0.11070 0.78100 0.16850 0.09300
C 	C 	0.39680 0.21500 0.77060 0.08500
C 	C 	0.93670 0.05360 0.37300 -0.08100
C 	C 	0.97720 0.93440 0.25850 -0.09800
C 	C 	0.25950 0.69200 0.71560 -0.08300
C 	C 	0.22150 0.91960 0.88910 0.11000
C 	C 	0.48040 0.68120 0.66980 -0.17600
C 	C 	0.40100 0.23520 0.65410 0.08500
C 	C 	0.98680 0.55000 0.58520 -0.00500
C 	C 	0.74640 0.20240 0.17620 0.11600
C 	C 	0.47210 0.66620 0.36860 -0.07800
C 	C 	0.50750 0.42560 0.54240 0.11700
C 	C 	0.84580 0.97820 0.48580 -0.12900
C 	C 	0.86320 0.00880 0.05170 -0.02100
C 	C 	0.61170 0.82060 0.89920 0.11200
C 	C 	0.55260 0.30320 0.29920 0.00200
C 	C 	0.90960 0.91320 0.22940 -0.06000
C 	C 	0.44570 0.57500 0.22440 0.11400
C 	C 	0.99870 0.94100 0.64420 -0.07100
C 	C 	0.37960 0.43080 0.82220 0.11200
C 	C 	0.15420 0.02180 0.51420 -0.13300
C 	C 	0.78250 0.25300 0.42390 0.07800
C 	C 	0.48710 0.02340 0.00070 -0.13100
C 	C 	0.86760 0.02180 0.01420 -0.13800
C 	C 	0.79920 0.31880 0.83020 -0.17600
C 	C 	0.52950 0.74700 0.07610 0.07800
C 	C 	0.67340 0.91200 0.99510 0.10900
C 	C 	0.52790 0.33380 0.63140 -0.07800
C 	C 	0.52600 0.36400 0.57490 0.03300
C 	C 	0.45620 0.59180 0.02880 -0.06600
C 	C 	0.02920 0.92840 0.23070 -0.10000
C 	C 	0.79680 0.23900 0.72430 0.10400
C 	C 	0.77300 0.32100 0.76690 -0.10100
C 	C 	0.51710 0.57560 0.07970 -0.13700
C 	C 	0.12540 0.91660 0.88230 0.09300
C 	C 	0.91810 0.42560 0.04240 0.11700
C 	C 	0.18630 0.07660 0.10660 0.09800
C 	C 	0.11690 0.05360 0.87300 -0.09400
C 	C 	0.64460 0.61720 0.66810 -0.10200
C 	C 	0.80760 0.95040 0.65910 0.10200
C 	C 	0.54380 0.40820 0.97120 -0.06400
C 	C 	0.44740 0.69680 0.70080 0.00200
C 	C 	0.41860 0.00960 0.00910 -0.02200
C 	C 	0.10430 0.56080 0.07380 0.09800
C 	C 	0.35540 0.38280 0.33190 -0.10200
C 	C 	0.47400 0.63600 0.42510 0.03200
C 	C 	0.19780 0.71960 0.88730 -0.05300
C 	C 	0.00130 0.05900 0.35580 -0.13700
C 	C 	0.88930 0.21900 0.83150 0.09300
C 	C 	0.02740 0.38280 0.83190 -0.13200
C 	C 	0.05850 0.57560 0.57970 -0.15100
C 	C 	0.49250 0.57440 0.45760 0.11700
C 	C 	0.45270 0.81740 0.89950 -0.02300
C 	C 	0.83420 0.23520 0.15410 0.08500
C 	C 	0.09390 0.99920 0.44890 -0.05700
C 	C 	0.78490 0.03440 0.60040 0.09900
C 	C 	0.91580 0.27480 0.26820 0.08900
C 	C 	0.85440 0.99120 0.44830 -0.02600
C 	C 	0.19950 0.05540 0.70510 0.09400
C 	C 	0.70970 0.15280 0.63080 0.08500
C 	C 	0.05120 0.43080 0.32220 0.11200
C 	C 	0.03060 0.46300 0.77320 0.12100
C 	C 	0.97260 0.61720 0.16810 -0.06900
C 	C 	0.94880 0.56920 0.67780 0.11300
C 	C 	0.97400 0.25040 0.87060 0.10300
C 	C 	0.94150 0.42440 0.42030 -0.12100
C 	C 	0.89920 0.92840 0.73070 -0.10700
C 	C 	0.99340 0.02860 0.86930 -0.02500
C 	C 	0.24950 0.03440 0.10040 0.09900
C 	C 	0.44910 0.38300 0.43320 0.12300
C 	C 	0.55430 0.42500 0.77560 0.11400
C 	C 	0.89030 0.07660 0.60660 0.09800
C 	C 	0.28870 0.65460 0.32910 -0.03100
C 	C 	0.69810 0.91960 0.38910 0.11000
C 	C 	0.97080 0.07160 0.76930 -0.09700
C 	C 	0.46880 0.47980 0.85780 0.11400
C 	C 	0.68700 0.92120 0.09200 0.10000
C 	C 	0.14560 0.00880 0.55170 -0.02300
C 	C 	0.75120 0.35080 0.26620 -0.04500
C 	C 	0.53630 0.02340 0.50070 -0.11400
C 	C 	0.63410 0.34540 0.17090 -0.03100
C 	C 	0.36590 0.65460 0.82910 -0.03200
C 	C 	0.79040 0.81480 0.79110 0.09800
C 	C 	0.25360 0.79760 0.82380 0.11600
C 	C 	0.65440 0.24520 0.61260 -0.10600
C 	C 	0.54350 0.43920 0.42620 0.09900
C 	C 	0.47250 0.31340 0.97960 0.08000
C 	C 	0.53120 0.52020 0.14220 0.11400
C 	C 	0.93980 0.46360 0.78560 0.11000
C 	C 	0.40900 0.99040 0.49090 -0.02600
C 	C 	0.40040 0.64920 0.23380 -0.04500
C 	C 	0.62810 0.56220 0.66960 -0.04800
C 	C 	0.52750 0.68660 0.02040 0.06700
C 	C 	0.39690 0.51840 0.45620 0.09400
C 	C 	0.67350 0.28120 0.65710 -0.10400
C 	C 	0.45600 0.20240 0.67620 0.11600
C 	C 	0.20880 0.08340 0.61770 0.09300
C 	C 	0.23860 0.91200 0.49510 0.10500
C 	C 	0.43730 0.62260 0.63690 -0.02200
C 	C 	0.18530 0.62260 0.13690 -0.02200
C 	C 	0.95720 0.93440 0.75850 -0.08800
C 	C 	0.09850 0.71700 0.27820 0.08800
C 	C 	0.54640 0.33160 0.82520 -0.11400
C 	C 	0.09040 0.08680 0.77060 -0.05800
C 	C 	0.34560 0.75480 0.38740 -0.10600
C 	C 	0.14110 0.85200 0.58670 0.09600
C 	C 	0.22840 0.12680 0.22930 0.08300
C 	C 	0.28910 0.14800 0.91330 0.09500
C 	C 	0.58140 0.99040 0.99090 -0.02900
C 	C 	0.27640 0.25040 0.37060 0.09500
C 	C 	0.36470 0.81740 0.39950 -0.02300
C 	C 	0.44310 0.15280 0.13080 0.08500
C 	C 	0.00360 0.91320 0.72940 -0.07800
C 	C 	0.05710 0.90000 0.11610 0.08100
C 	C 	0.83110 0.42180 0.69590 0.09100
C 	C 	0.81820 0.21500 0.27060 0.08500
C 	C 	0.48420 0.36920 0.17200 0.07000
C 	C 	0.44220 0.23900 0.22430 0.10400
C 	C 	0.55690 0.84720 0.86920 0.08500
C 	C 	0.55780 0.76100 0.77570 0.10400
C 	C 	0.13680 0.99120 0.94830 -0.02800
C 	C 	0.84290 0.90000 0.61610 0.08200
C 	C 	0.94290 0.10000 0.88390 0.08500
C 	C 	0.90960 0.01380 0.51490 -0.07700
C 	C 	0.51960 0.31880 0.33020 -0.17600
C 	C 	0.82720 0.38240 0.11170 -0.17600
C 	C 	0.43680 0.45000 0.91480 -0.02000
C 	C 	0.45200 0.67900 0.73310 -0.10200
C 	C 	0.79110 0.17940 0.60080 0.11200
C 	C 	0.51290 0.97660 0.99930 -0.09600
C 	C 	0.25690 0.31280 0.33930 -0.03800
C 	C 	0.06010 0.86820 0.76550 0.14300
C 	C 	0.19410 0.66620 0.86860 -0.07800
C 	C 	0.89840 0.12680 0.72930 0.08400
C 	C 	0.56270 0.37740 0.36310 -0.02300
C 	C 	0.10160 0.87320 0.27070 0.08300
C 	C 	0.96480 0.97140 0.63070 -0.06300
C 	C 	0.32650 0.71880 0.34290 -0.10500
C 	C 	0.02440 0.81480 0.29110 0.09300
C 	C 	0.67030 0.78100 0.66850 0.09300
C 	C 	0.93410 0.56220 0.16960 -0.06600
C 	C 	0.01320 0.45000 0.41480 -0.03200
C 	C 	0.14280 0.95040 0.15910 0.10200
C 	C 	0.04280 0.06560 0.24150 -0.11700
C 	C 	0.88310 0.94640 0.12700 -0.11700
C 	C 	0.99640 0.08680 0.27060 -0.04000
C 	C 	0.86440 0.40820 0.47120 -0.05900
C 	C 	0.84230 0.86660 0.71640 -0.03900
C 	C 	0.24880 0.64920 0.73380 -0.04500
C 	C 	0.12930 0.57500 0.72440 0.11400
C 	C 	0.43250 0.69200 0.21560 -0.08200
C 	C 	0.87460 0.08340 0.11770 0.09400
C 	C 	0.77160 0.87320 0.77070 0.08400
C 	C 	0.13560 0.59180 0.52880 -0.07100
C 	C 	0.08420 0.72520 0.73180 0.08900
C 	C 	0.91200 0.09480 0.36340 -0.05800
C 	C 	0.19190 0.13180 0.73450 0.14400
C 	C 	0.45650 0.56080 0.57380 0.09900
C 	C 	0.18280 0.09480 0.86340 -0.05200
C 	C 	0.59070 0.42180 0.19590 0.09100
C 	C 	0.85890 0.14800 0.41330 0.09500
C 	C 	0.75050 0.96560 0.89960 0.09900
C 	C 	0.11500 0.63080 0.32800 0.07000
C 	C 	0.49760 0.56300 0.03620 -0.07200
C 	C 	0.78520 0.33160 0.32520 -0.11500
C 	C 	0.40930 0.57820 0.80410 0.09100
C 	C 	0.80050 0.94460 0.29490 0.09500
C 	C 	0.06330 0.94640 0.62700 -0.12800
C 	C 	0.53020 0.62200 0.26560 0.09700
C 	C 	0.74310 0.68720 0.66070 -0.03900
C 	C 	0.87850 0.48160 0.04380 0.09400
C 	C 	0.46370 0.97660 0.49930 -0.11400
C 	C 	0.89570 0.43920 0.92620 0.09900
C 	C 	0.54730 0.18260 0.10050 -0.02300
C 	C 	0.56320 0.55000 0.08520 -0.01700
C 	C 	0.93460 0.43700 0.46380 -0.08500
C 	C 	0.81470 0.37740 0.86310 -0.02300
C 	C 	0.87070 0.42500 0.27560 0.11400
C 	C 	0.14410 0.94460 0.79490 0.09400
C 	C 	0.22700 0.67900 0.23310 -0.10200
C 	C 	0.57650 0.90600 0.00660 0.09700
C 	C 	0.83800 0.36400 0.07490 0.03300
C 	C 	0.16200 0.63600 0.92510 0.03200
C 	C 	0.08800 0.90520 0.63660 -0.03600
C 	C 	0.92770 0.62340 0.14130 -0.12200
C 	C 	0.20890 0.82060 0.39920 0.11200
C 	C 	0.02600 0.74960 0.12940 0.08600
C 	C 	0.06020 0.53640 0.21440 0.10800
C 	C 	0.59080 0.24520 0.11260 -0.10600
C 	C 	0.81720 0.90520 0.13660 -0.04200
C 	C 	0.10080 0.07160 0.26930 -0.09000
C 	C 	0.35900 0.27480 0.76820 0.08900
C 	C 	0.90820 0.37800 0.23440 0.09700
C 	C 	0.51580 0.63080 0.82800 0.07100
C 	C 	0.74050 0.30800 0.28440 -0.08200
C 	C 	0.59900 0.76480 0.34590 0.08500
C 	C 	0.09180 0.62200 0.76560 0.09700
C 	C 	0.52180 0.71960 0.38730 -0.05300
C 	C 	0.80140 0.28460 0.33170 -0.03600
C 	C 	0.54400 0.79760 0.32380 0.11600
C 	C 	0.19240 0.04960 0.34090 0.10300
C 	C 	0.56750 0.30800 0.78440 -0.08200
C 	C 	0.80590 0.33380 0.13140 -0.07800
C 	C 	0.10420 0.01380 0.01490 -0.08300
C 	C 	0.02280 0.06560 0.74150 -0.10700
C 	C 	0.93390 0.38300 0.93320 0.12300
C 	C 	0.40920 0.75480 0.88740 -0.10600
C 	C 	0.39230 0.71880 0.84290 -0.10400
C 	C 	0.76140 0.08800 0.50490 0.10500
C 	C 	0.32660 0.08800 0.00490 0.10100
C 	C 	0.38150 0.28300 0.22180 0.08800
C 	C 	0.19860 0.71540 0.66830 -0.03600
C 	C 	0.37190 0.43780 0.33040 -0.04800
C 	C 	0.06610 0.61700 0.06680 0.12200
C 	C 	0.98900 0.52020 0.64220 0.12500
C 	C 	0.05770 0.05900 0.85580 -0.12200
C 	C 	0.75060 0.30320 0.79920 0.00200
C 	C 	0.29030 0.84720 0.36920 0.08500
C 	C 	0.05590 0.31280 0.83930 -0.05300
C 	C 	0.69570 0.62340 0.64130 -0.09800
C 	C 	0.10970 0.92340 0.39340 0.09800
C 	C 	0.97570 0.13340 0.78360 -0.03400
C 	C 	0.02430 0.86660 0.21640 -0.05300
C 	C 	0.59960 0.35080 0.76620 -0.04500
C 	C 	0.88500 0.36920 0.67200 0.07100
C 	C 	0.31300 0.07880 0.90800 0.10000
C 	C 	0.93990 0.13180 0.23450 0.14500
C 	C 	0.90530 0.99920 0.94890 -0.05900
C 	C 	0.71130 0.34540 0.67090 -0.03200
C 	C 	0.90150 0.28300 0.72180 0.08800
C 	C 	0.21480 0.66840 0.67480 -0.11300
C 	C 	0.48290 0.42440 0.92030 -0.13400
C 	C 	0.20320 0.76100 0.27570 0.10400
C 	C 	0.18180 0.78500 0.72940 0.08500
C 	C 	0.12150 0.51840 0.95620 0.09500
C 	C 	0.72360 0.74960 0.62940 0.09500
C 	C 	0.16890 0.57820 0.30410 0.09100
C 	C 	0.45360 0.66840 0.17480 -0.11400
C 	C 	0.50240 0.43700 0.96380 -0.07600
C 	C 	0.21750 0.74700 0.57610 0.07800
C 	C 	0.46980 0.37800 0.73440 0.09700
C 	C 	0.96940 0.53700 0.22680 0.13400
C 	C 	0.94410 0.68720 0.16070 -0.02300
C 	C 	0.79120 0.91660 0.38230 0.09300
C 	C 	0.32970 0.21900 0.33150 0.09300
C 	C 	0.47820 0.28040 0.61270 -0.05300
C 	C 	0.06590 0.43780 0.83040 -0.03100
C 	C 	0.32950 0.90600 0.50660 0.10100
C 	C 	0.80220 0.28040 0.11270 -0.05300
C 	C 	0.01100 0.47980 0.35780 0.10300
C 	C 	0.80810 0.86820 0.26550 0.14400
C 	C 	0.76580 0.07880 0.40800 0.10000
C 	C 	0.44480 0.61760 0.38830 -0.17600
C 	C 	0.85590 0.05540 0.20510 0.09400
C 	C 	0.56760 0.53700 0.72680 0.12700
C 	C 	0.15770 0.13340 0.28360 -0.04700
C 	C 	0.15710 0.10000 0.38390 0.08400
C 	C 	0.23420 0.92120 0.59200 0.10000
C 	C 	0.43240 0.46300 0.27320 0.12700
C 	C 	0.81370 0.92340 0.89340 0.09800
C 	C 	0.60310 0.48160 0.54380 0.09400
C 	C 	0.64100 0.72520 0.23180 0.08900
C 	C 	0.47050 0.25300 0.92390 0.07800
C 	C 	0.97560 0.18520 0.70890 0.10200
C 	C 	0.54800 0.32100 0.26690 -0.10100
C 	C 	0.55520 0.38240 0.61170 -0.17600
C 	C 	0.09040 0.98620 0.48510 -0.07300
C 	C 	0.47620 0.53640 0.71440 0.10900
C 	C 	0.24940 0.69680 0.20080 0.00200
C 	C 	0.67050 0.09400 0.49340 0.10100
C 	C 	0.38830 0.17940 0.10080 0.11200
C 	C 	0.06540 0.56300 0.53620 -0.06400
C 	C 	0.00660 0.97140 0.13070 -0.07200
C 	C 	0.09470 0.00080 0.05110 -0.05000
C 	C 	0.60770 0.28120 0.15710 -0.10500
C 	C 	0.03520 0.02860 0.36930 -0.02900
C 	C 	0.84090 0.31340 0.47960 0.07500
C 	C 	0.90610 0.00080 0.55110 -0.05500
C 	C 	0.17280 0.61760 0.88830 -0.17500
C 	C 	0.60320 0.78500 0.22940 0.08500
C 	C 	0.08190 0.57440 0.95760 0.11700
C 	C 	0.51680 0.71540 0.16830 -0.03600
C 	C 	0.63530 0.18260 0.60050 -0.02300
C 	C 	0.20080 0.68120 0.16980 -0.17700
C 	C 	0.42350 0.09400 0.99340 0.10500
C 	C 	0.71090 0.85200 0.08670 0.09600
C 	C 	0.94230 0.94100 0.14420 -0.08200
C 	C 	0.48320 0.28460 0.83170 -0.03600
C 	C 	0.30430 0.37660 0.35870 -0.09800
N 	N 	0.53840 0.74860 0.35740 -0.09300
N 	N 	0.56300 0.67740 0.75300 -0.09300
N 	N 	0.61120 0.44800 0.56070 -0.10400
N 	N 	0.27010 0.10540 0.63790 -0.23600
N 	N 	0.46160 0.25140 0.64260 -0.09300
N 	N 	0.26650 0.77000 0.84290 -0.11400
N 	N 	0.85090 0.90900 0.25670 -0.11100
N 	N 	0.65600 0.04820 0.50430 -0.09900
N 	N 	0.15850 0.02580 0.07800 -0.09600
N 	N 	0.82180 0.37480 0.25780 -0.10200
N 	N 	0.15520 0.65860 0.76940 -0.09500
N 	N 	0.90740 0.21380 0.86490 -0.27500
N 	N 	0.33370 0.13560 0.92700 -0.25300
N 	N 	0.84220 0.04540 0.08260 -0.10000
N 	N 	0.89290 0.95040 0.63610 -0.09600
N 	N 	0.82650 0.81900 0.75840 -0.09400
N 	N 	0.07140 0.53240 0.97020 -0.25900
N 	N 	0.20120 0.69500 0.57810 -0.11000
N 	N 	0.75420 0.84300 0.79750 -0.24500
N 	N 	0.46090 0.34800 0.40420 -0.12000
N 	N 	0.78980 0.25140 0.14260 -0.09300
N 	N 	0.20210 0.94600 0.61830 -0.09000
N 	N 	0.18340 0.66680 0.33890 -0.09000
N 	N 	0.50550 0.55100 0.68640 -0.10100
N 	N 	0.34400 0.95180 0.49570 -0.09900
N 	N 	0.49450 0.44900 0.31360 -0.10100
N 	N 	0.47750 0.17080 0.10630 -0.09800
N 	N 	0.49380 0.69500 0.07810 -0.11000
N 	N 	0.02260 0.45080 0.37600 -0.10400
N 	N 	0.84080 0.26680 0.30180 -0.09200
N 	N 	0.92640 0.43300 0.26100 -0.24800
N 	N 	0.11530 0.96460 0.77510 -0.09300
N 	N 	0.88470 0.03540 0.22490 -0.09300
N 	N 	0.63230 0.58380 0.14760 -0.10200
N 	N 	0.16610 0.65800 0.54080 -0.09500
N 	N 	0.44330 0.18700 0.08430 -0.11600
N 	N 	0.79880 0.30500 0.42190 -0.10900
N 	N 	0.84930 0.96460 0.27510 -0.09300
N 	N 	0.69330 0.17080 0.60630 -0.09800
N 	N 	0.79990 0.99640 0.57590 -0.11800
N 	N 	0.39220 0.04820 0.00430 -0.10200
N 	N 	0.73500 0.95580 0.42250 -0.10100
N 	N 	0.15070 0.03540 0.72490 -0.09300
N 	N 	0.27980 0.27120 0.34370 -0.10000
N 	N 	0.53910 0.65200 0.59580 -0.12000
N 	N 	0.28460 0.95540 0.48920 -0.10300
N 	N 	0.13270 0.58740 0.93950 -0.11900
N 	N 	0.53900 0.46760 0.52980 -0.25900
N 	N 	0.83990 0.08500 0.62310 -0.25200
N 	N 	0.93660 0.25600 0.81840 -0.09600
N 	N 	0.72990 0.89460 0.36210 -0.23600
N 	N 	0.24330 0.10160 0.88620 -0.10100
N 	N 	0.15920 0.73320 0.69820 -0.09200
N 	N 	0.68060 0.74400 0.68160 -0.09600
N 	N 	0.78430 0.36820 0.67560 -0.09800
N 	N 	0.53270 0.42700 0.19270 -0.24000
N 	N 	0.31940 0.25600 0.31840 -0.09600
N 	N 	0.87020 0.98700 0.66380 -0.11000
N 	N 	0.95150 0.58380 0.64760 -0.10100
N 	N 	0.50810 0.34200 0.95920 -0.09700
N 	N 	0.11440 0.67740 0.25300 -0.09300
N 	N 	0.11680 0.98700 0.16380 -0.11000
N 	N 	0.39380 0.20160 0.67510 -0.23900
N 	N 	0.20010 0.00360 0.42410 -0.11800
N 	N 	0.04850 0.41620 0.35240 -0.10300
N 	N 	0.44700 0.62520 0.24220 -0.10200
N 	N 	0.19650 0.99640 0.07590 -0.11900
N 	N 	0.49650 0.23000 0.65710 -0.11400
N 	N 	0.13320 0.61120 0.10160 -0.10400
N 	N 	0.22340 0.83960 0.37020 -0.24800
N 	N 	0.52200 0.38880 0.39840 -0.10400
N 	N 	0.94190 0.09100 0.24330 -0.11200
N 	N 	0.52250 0.82920 0.89370 -0.09800
N 	N 	0.98710 0.47520 0.76280 -0.26100
N 	N 	0.51660 0.33320 0.16110 -0.09000
N 	N 	0.22750 0.11460 0.71310 -0.24800
N 	N 	0.47800 0.61120 0.60160 -0.10400
N 	N 	0.45470 0.58740 0.43950 -0.11900
N 	N 	0.46730 0.57300 0.80730 -0.24000
N 	N 	0.10570 0.57300 0.30730 -0.24000
N 	N 	0.50660 0.43300 0.76100 -0.25000
N 	N 	0.90130 0.30400 0.30040 -0.09000
N 	N 	0.43700 0.32260 0.24700 -0.09300
N 	N 	0.75490 0.91500 0.87690 -0.25200
N 	N 	0.43290 0.45080 0.30610 -0.10100
N 	N 	0.84480 0.34140 0.23060 -0.09500
N 	N 	0.19220 0.79840 0.82490 -0.23900
N 	N 	0.41610 0.63180 0.82440 -0.09800
N 	N 	0.61620 0.83960 0.87020 -0.24800
N 	N 	0.88710 0.34800 0.90420 -0.11900
N 	N 	0.07360 0.56700 0.73900 -0.25100
N 	N 	0.49660 0.34140 0.73060 -0.09500
N 	N 	0.80350 0.00360 0.92410 -0.11800
N 	N 	0.16470 0.89460 0.86210 -0.23600
N 	N 	0.73350 0.23000 0.15710 -0.11400
N 	N 	0.18830 0.14220 0.24900 -0.09400
N 	N 	0.81030 0.25460 0.45800 -0.26200
N 	N 	0.18390 0.70740 0.25400 -0.09300
N 	N 	0.88840 0.10280 0.86920 -0.26600
N 	N 	0.83680 0.44800 0.06070 -0.10400
N 	N 	0.50340 0.65860 0.26940 -0.09500
N 	N 	0.30670 0.82920 0.39370 -0.09800
N 	N 	0.77920 0.04420 0.07750 -0.10100
N 	N 	0.83390 0.34200 0.45920 -0.09700
N 	N 	0.57180 0.54920 0.12400 -0.10700
N 	N 	0.12980 0.01300 0.33620 -0.11000
N 	N 	0.14910 0.09100 0.74330 -0.11100
N 	N 	0.11290 0.65200 0.09580 -0.12000
N 	N 	0.15780 0.95460 0.91740 -0.09900
N 	N 	0.92860 0.46760 0.02980 -0.25800
N 	N 	0.18970 0.74540 0.54200 -0.26200
N 	N 	0.24580 0.15700 0.20250 -0.24500
N 	N 	0.55570 0.74540 0.04200 -0.26100
N 	N 	0.88560 0.32260 0.74700 -0.09300
N 	N 	0.83530 0.10540 0.13790 -0.23600
N 	N 	0.69360 0.78620 0.63510 -0.27400
N 	N 	0.50620 0.30500 0.92190 -0.10900
N 	N 	0.09260 0.78620 0.13510 -0.27400
N 	N 	0.79790 0.05400 0.38170 -0.09000
N 	N 	0.35180 0.21760 0.74790 -0.23000
N 	N 	0.05750 0.95040 0.13610 -0.09600
N 	N 	0.01790 0.45080 0.80610 -0.10400
N 	N 	0.26400 0.88100 0.50900 -0.26400
N 	N 	0.55300 0.37480 0.75780 -0.10200
N 	N 	0.74370 0.18700 0.58430 -0.11500
N 	N 	0.13270 0.97420 0.42200 -0.09500
N 	N 	0.95450 0.44900 0.81360 -0.09900
N 	N 	0.02700 0.46900 0.32270 -0.25500
N 	N 	0.98210 0.54920 0.19390 -0.09800
N 	N 	0.61700 0.88100 0.00900 -0.26600
N 	N 	0.86680 0.38880 0.89840 -0.10400
N 	N 	0.81660 0.33320 0.66110 -0.09000
N 	N 	0.40270 0.30400 0.80040 -0.09000
N 	N 	0.50350 0.56360 0.55060 -0.25300
N 	N 	0.44200 0.46900 0.82270 -0.25600
N 	N 	0.49190 0.65800 0.04080 -0.09500
N 	N 	0.95390 0.14220 0.74900 -0.09300
N 	N 	0.36770 0.41620 0.85240 -0.10200
N 	N 	0.55670 0.81300 0.91570 -0.11500
N 	N 	0.21440 0.10280 0.36920 -0.26600
N 	N 	0.79680 0.95460 0.41740 -0.09900
N 	N 	0.06340 0.74400 0.18160 -0.09700
N 	N 	0.93990 0.43640 0.94940 -0.25000
N 	N 	0.20320 0.04540 0.58260 -0.10000
N 	N 	0.19810 0.86440 0.57300 -0.25400
N 	N 	0.80190 0.13560 0.42700 -0.25300
N 	N 	0.71540 0.04460 0.51080 -0.10300
N 	N 	0.55800 0.53100 0.17730 -0.25700
N 	N 	0.78560 0.89720 0.63080 -0.26600
N 	N 	0.84560 0.22960 0.70740 -0.24600
N 	N 	0.04550 0.55100 0.18640 -0.10300
N 	N 	0.08880 0.84300 0.29750 -0.24500
N 	N 	0.77250 0.88540 0.28690 -0.24700
N 	N 	0.51190 0.52480 0.73720 -0.26500
N 	N 	0.58390 0.36820 0.17560 -0.09800
N 	N 	0.30640 0.21380 0.36490 -0.27500
N 	N 	0.49650 0.43640 0.44940 -0.25300
N 	N 	0.74390 0.94600 0.11830 -0.09000
N 	N 	0.56710 0.54920 0.69390 -0.10100
N 	N 	0.81170 0.85780 0.75100 -0.09500
N 	N 	0.00860 0.72880 0.15630 -0.10300
N 	N 	0.16320 0.55200 0.93930 -0.10400
N 	N 	0.48810 0.47520 0.26280 -0.26500
N 	N 	0.26500 0.04420 0.57750 -0.10100
N 	N 	0.60780 0.95180 0.99570 -0.09600
N 	N 	0.32920 0.04460 0.01080 -0.10300
N 	N 	0.15440 0.77040 0.29260 -0.24600
N 	N 	0.80780 0.20160 0.17510 -0.23900
N 	N 	0.01290 0.52480 0.23720 -0.26900
N 	N 	0.00750 0.18100 0.74160 -0.09800
N 	N 	0.38400 0.22960 0.20740 -0.24600
N 	N 	0.64820 0.78240 0.25210 -0.23000
N 	N 	0.72020 0.72880 0.65630 -0.10000
N 	N 	0.49340 0.56700 0.23900 -0.25000
N 	N 	0.11160 0.89720 0.13080 -0.26600
N 	N 	0.25630 0.81300 0.41570 -0.11500
N 	N 	0.99140 0.27120 0.84370 -0.09800
N 	N 	0.94250 0.04960 0.86390 -0.10100
N 	N 	0.21020 0.74860 0.85740 -0.09300
N 	N 	0.16010 0.91500 0.37690 -0.25200
N 	N 	0.73600 0.11900 0.49100 -0.26400
N 	N 	0.59730 0.69600 0.19960 -0.09000
N 	N 	0.81610 0.29260 0.74600 -0.09300
N 	N 	0.77660 0.16040 0.62980 -0.24800
N 	N 	0.25610 0.05400 0.88170 -0.09000
N 	N 	0.14170 0.89840 0.61380 -0.10300
N 	N 	0.88320 0.01300 0.83620 -0.11000
N 	N 	0.86730 0.02580 0.57800 -0.09500
N 	N 	0.44430 0.25460 0.95800 -0.26300
N 	N 	0.84150 0.97420 0.92200 -0.09400
N 	N 	0.42820 0.45080 0.87600 -0.10700
N 	N 	0.66630 0.86440 0.07300 -0.25400
N 	N 	0.38300 0.11900 0.99100 -0.26300
N 	N 	0.60620 0.79840 0.32490 -0.23900
N 	N 	0.42600 0.26680 0.80180 -0.09200
N 	N 	0.04610 0.85780 0.25100 -0.09500
N 	N 	0.97740 0.54920 0.62400 -0.11000
N 	N 	0.61600 0.77040 0.79260 -0.24600
N 	N 	0.24510 0.08500 0.12310 -0.25200
N 	N 	0.17820 0.62520 0.74220 -0.10200
N 	N 	0.48340 0.66680 0.83890 -0.09000
N 	N 	0.10710 0.04960 0.36390 -0.10100
N 	N 	0.91120 0.15700 0.70250 -0.24600
N 	N 	0.75670 0.89840 0.11380 -0.10200
N 	N 	0.85830 0.10160 0.38620 -0.10000
N 	N 	0.54530 0.41260 0.56050 -0.11900
N 	N 	0.38880 0.55200 0.43930 -0.10400
N 	N 	0.38380 0.16040 0.12980 -0.24800
N 	N 	0.97300 0.53100 0.67730 -0.25800
N 	N 	0.17350 0.18100 0.24160 -0.09500
N 	N 	0.21570 0.63180 0.32440 -0.09800
N 	N 	0.86730 0.41260 0.06050 -0.11900
N 	N 	0.05810 0.90900 0.75670 -0.10900
N 	N 	0.22080 0.95580 0.92250 -0.10100
N 	N 	0.67080 0.95540 0.98920 -0.10300
N 	N 	0.06010 0.56360 0.05060 -0.25400
N 	N 	0.57400 0.73320 0.19820 -0.09200
N 	N 	0.46100 0.53240 0.47020 -0.25900
N 	N 	0.11290 0.88540 0.78690 -0.24700
N 	N 	0.99250 0.81900 0.25840 -0.09000
N 	N 	0.88710 0.11460 0.21310 -0.24800
N 	N 	0.89430 0.42700 0.69270 -0.24000
N 	N 	0.13420 0.78240 0.75210 -0.23000
N 	N 	0.47650 0.29260 0.24600 -0.09300
N 	N 	0.09870 0.69600 0.69960 -0.09100
N 	N 	0.50350 0.77000 0.34290 -0.11400
N 	N 	0.86580 0.21760 0.24790 -0.23000
N 	N 	0.52350 0.70740 0.75400 -0.09300
O 	O 	0.56900 0.14900 0.87300 -0.45200
O 	O 	0.66000 0.13500 0.71130 -0.45300
O 	O 	0.38370 0.06580 0.75920 -0.46900
O 	O 	0.42370 0.08140 0.36330 -0.47900
O 	O 	0.59740 0.15800 0.77350 -0.44800
O 	O 	0.43100 0.85100 0.12700 -0.45200
O 	O 	0.63300 0.03020 0.65290 -0.46500
O 	O 	0.43200 0.93580 0.19840 -0.33300
O 	O 	0.42000 0.85100 0.62700 -0.45200
O 	O 	0.25250 0.89880 0.79690 -0.48600
O 	O 	0.47500 0.13500 0.21130 -0.45300
O 	O 	0.48790 0.90280 0.58010 -0.44900
O 	O 	0.63210 0.11540 0.22370 -0.47600
O 	O 	0.43940 0.84200 0.72650 -0.44800
O 	O 	0.48330 0.11540 0.72370 -0.47600
O 	O 	0.58000 0.14900 0.37300 -0.45200
O 	O 	0.58630 0.95700 0.34450 -0.47300
O 	O 	0.65850 0.00960 0.79420 -0.45800
O 	O 	0.68570 0.09260 0.76360 -0.43700
O 	O 	0.31250 0.98300 0.69000 -0.46500
O 	O 	0.74750 0.10120 0.20310 -0.48600
O 	O 	0.61630 0.93420 0.24080 -0.46900
O 	O 	0.54540 0.01800 0.59670 -0.44900
O 	O 	0.64890 0.99040 0.70580 -0.45800
O 	O 	0.36700 0.96980 0.34710 -0.46500
O 	O 	0.55960 0.98980 0.20680 -0.36000
O 	O 	0.50550 0.86260 0.18720 -0.46400
O 	O 	0.35110 0.00960 0.29420 -0.45700
O 	O 	0.67050 0.98300 0.19000 -0.46500
O 	O 	0.54550 0.10100 0.66330 -0.44700
O 	O 	0.48990 0.97660 0.64820 -0.38500
O 	O 	0.51670 0.88460 0.27630 -0.47600
O 	O 	0.51210 0.09720 0.41990 -0.44900
O 	O 	0.48670 0.97660 0.14820 -0.38500
O 	O 	0.56980 0.01020 0.29320 -0.36000
O 	O 	0.51180 0.83620 0.66740 -0.45400
O 	O 	0.40260 0.84200 0.22650 -0.44800
O 	O 	0.43910 0.09440 0.86390 -0.46300
O 	O 	0.49620 0.06420 0.30160 -0.33300
O 	O 	0.45460 0.98200 0.40330 -0.44900
O 	O 	0.31430 0.90740 0.23640 -0.43700
O 	O 	0.67560 0.16380 0.83260 -0.45400
O 	O 	0.41040 0.96140 0.58970 -0.44000
O 	O 	0.58960 0.03860 0.41030 -0.43900
O 	O 	0.34150 0.99040 0.20580 -0.45800
O 	O 	0.55860 0.04440 0.71410 -0.33700
O 	O 	0.31790 0.93420 0.74080 -0.46900
O 	O 	0.62930 0.04300 0.15550 -0.47300
O 	O 	0.68210 0.06580 0.25920 -0.46900
O 	O 	0.55100 0.96140 0.08970 -0.44000
O 	O 	0.47260 0.01800 0.09670 -0.44900
O 	O 	0.34230 0.91860 0.13670 -0.47900
O 	O 	0.57630 0.91860 0.63670 -0.47800
O 	O 	0.45450 0.89900 0.33670 -0.44700
O 	O 	0.65530 0.09440 0.36390 -0.46300
O 	O 	0.51420 0.95560 0.78590 -0.33700
O 	O 	0.41490 0.90280 0.08010 -0.44900
O 	O 	0.56800 0.06420 0.80160 -0.33300
O 	O 	0.44040 0.01020 0.79320 -0.36000
O 	O 	0.64290 0.13740 0.31280 -0.46400
O 	O 	0.39720 0.03020 0.15290 -0.46500
O 	O 	0.65770 0.08140 0.86330 -0.47800
O 	O 	0.34470 0.90560 0.63610 -0.46300
O 	O 	0.68750 0.01700 0.31000 -0.46400
O 	O 	0.58510 0.09720 0.91990 -0.44900
O 	O 	0.51330 0.02340 0.85180 -0.38500
O 	O 	0.52740 0.98200 0.90330 -0.44900
O 	O 	0.44140 0.95560 0.28590 -0.33700
O 	O 	0.36790 0.88460 0.77630 -0.47600
O 	O 	0.51010 0.02340 0.35180 -0.38500
O 	O 	0.35370 0.10120 0.70310 -0.48600
O 	O 	0.43020 0.98980 0.70680 -0.36000
O 	O 	0.48820 0.16380 0.33260 -0.45400
O 	O 	0.56060 0.15800 0.27350 -0.44800
O 	O 	0.56090 0.90560 0.13610 -0.46300
O 	O 	0.49450 0.13740 0.81280 -0.46400
O 	O 	0.64630 0.89880 0.29690 -0.48600
O 	O 	0.44900 0.03860 0.91030 -0.44000
O 	O 	0.32950 0.01700 0.81000 -0.46400
O 	O 	0.60280 0.96980 0.84710 -0.46500
O 	O 	0.35710 0.86260 0.68720 -0.46400
O 	O 	0.55550 0.10100 0.16330 -0.44700
O 	O 	0.48580 0.04440 0.21410 -0.33700
O 	O 	0.34000 0.86500 0.28870 -0.45300
O 	O 	0.37070 0.95700 0.84450 -0.47300
O 	O 	0.40690 0.09260 0.26360 -0.43700
O 	O 	0.32440 0.83620 0.16740 -0.45400
O 	O 	0.52500 0.86500 0.78870 -0.45300
O 	O 	0.50380 0.93580 0.69840 -0.33300
O 	O 	0.41370 0.04300 0.65550 -0.47300
O 	O 	0.44450 0.89900 0.83670 -0.44700
O 	O 	0.59310 0.90740 0.73640 -0.43700
