data_crystal

_cell_length_a 17.46820
_cell_length_b 17.46820
_cell_length_c 17.46820
_cell_angle_alpha 97.47010
_cell_angle_beta  115.78500
_cell_angle_gamma 115.78500

_symmetry_space_group_name_	'P 1'
_symmetry_space_group_name_H-M	'P 1'

loop_
_symmetry_equiv_pos_as_xyz
  x,y,z

loop_
_atom_site_label
_atom_site_type_symbol
_atom_site_fract_x
_atom_site_fract_y
_atom_site_fract_z
_atom_site_charge
Cd	Cd	0.45521 0.04939 0.16342 1.21600
Cd	Cd	0.95521 0.79179 0.40582 1.21500
H 	H 	0.64900 0.03410 0.32510 0.01800
H 	H 	0.45300 0.88480 0.06520 -0.02000
H 	H 	0.75520 0.94740 0.36840 0.02600
H 	H 	0.69430 0.82080 0.20970 0.13000
H 	H 	0.59400 0.28410 0.28450 0.03500
H 	H 	0.61460 0.16050 0.10070 -0.01200
H 	H 	0.70840 0.46220 0.30980 0.04500
H 	H 	0.81400 0.48660 0.22720 0.11400
H 	H 	0.56010 0.82890 0.12240 0.15700
H 	H 	0.71500 0.32190 0.14210 0.15300
H 	H 	0.14900 0.82390 0.61490 0.01600
H 	H 	0.95300 0.88780 0.56820 -0.03100
H 	H 	0.25520 0.88680 0.80780 0.02600
H 	H 	0.19430 0.98460 0.87350 0.13200
H 	H 	0.09400 0.80950 0.30990 0.03600
H 	H 	0.11460 0.01390 0.45410 -0.02300
H 	H 	0.20840 0.89860 0.24620 0.04300
H 	H 	0.31400 0.08680 0.32740 0.11600
H 	H 	0.06010 0.93770 0.73120 0.15900
H 	H 	0.21500 0.07290 0.39310 0.15400
C 	C 	0.63280 0.92480 0.24720 0.05500
C 	C 	0.61260 0.98780 0.26720 -0.02100
C 	C 	0.50630 0.90780 0.12630 0.14500
C 	C 	0.71480 0.91260 0.30500 0.02900
C 	C 	0.73490 0.85600 0.27290 -0.24200
C 	C 	0.81730 0.84540 0.33110 0.39400
C 	C 	0.67260 0.34160 0.22940 0.06500
C 	C 	0.61200 0.27440 0.24300 -0.02700
C 	C 	0.62270 0.20610 0.14320 0.12700
C 	C 	0.72610 0.44070 0.27280 -0.00100
C 	C 	0.79700 0.50490 0.26650 -0.19800
C 	C 	0.85080 0.60560 0.32040 0.34300
C 	C 	0.13280 0.88560 0.70800 0.05400
C 	C 	0.11260 0.84540 0.62480 -0.01500
C 	C 	0.00630 0.88000 0.59850 0.16100
C 	C 	0.21480 0.90980 0.80220 0.03200
C 	C 	0.23490 0.96200 0.87890 -0.24500
C 	C 	0.31730 0.98620 0.97190 0.40000
C 	C 	0.17260 0.94320 0.33100 0.06800
C 	C 	0.11200 0.86900 0.33760 -0.02700
C 	C 	0.12270 0.97950 0.41660 0.14800
C 	C 	0.22610 0.95330 0.28540 0.00700
C 	C 	0.29700 0.03050 0.29210 -0.20600
C 	C 	0.35080 0.03040 0.24520 0.34000
N 	N 	0.56500 0.87390 0.15550 -0.22500
N 	N 	0.53110 0.97350 0.19000 -0.25800
N 	N 	0.68010 0.29660 0.16450 -0.22000
N 	N 	0.57950 0.18960 0.18890 -0.23900
N 	N 	0.06500 0.90950 0.69110 -0.22700
N 	N 	0.03110 0.84110 0.55760 -0.26000
N 	N 	0.18010 0.01560 0.38350 -0.23000
N 	N 	0.07950 0.89060 0.38990 -0.24000
O 	O 	0.92940 0.66040 0.32240 -0.40300
O 	O 	0.82060 0.63280 0.36440 -0.38200
O 	O 	0.83220 0.79480 0.28920 -0.43600
O 	O 	0.86910 0.88240 0.41590 -0.37200
O 	O 	0.42940 0.10700 0.26900 -0.40200
O 	O 	0.32060 0.95620 0.18780 -0.37900
O 	O 	0.33220 0.04300 0.03740 -0.44000
O 	O 	0.36910 0.95320 0.98670 -0.37200
Cd	Cd	0.04479 0.20821 0.59418 1.21400
Cd	Cd	0.54479 0.95061 0.83658 1.21500
H 	H 	0.85100 0.17610 0.38510 0.01600
H 	H 	0.04700 0.11220 0.43180 -0.03100
H 	H 	0.74480 0.11320 0.19220 0.02600
H 	H 	0.80570 0.01540 0.12650 0.13200
H 	H 	0.90600 0.19050 0.69010 0.03600
H 	H 	0.88540 0.98610 0.54590 -0.02300
H 	H 	0.79160 0.10140 0.75380 0.04300
H 	H 	0.68600 0.91320 0.67260 0.11600
H 	H 	0.93990 0.06230 0.26880 0.15900
H 	H 	0.78500 0.92710 0.60690 0.15400
H 	H 	0.35100 0.96590 0.67490 0.01800
H 	H 	0.54700 0.11520 0.93480 -0.02000
H 	H 	0.24480 0.05260 0.63160 0.02600
H 	H 	0.30570 0.17920 0.79030 0.13000
H 	H 	0.40600 0.71590 0.71550 0.03500
H 	H 	0.38540 0.83950 0.89930 -0.01200
H 	H 	0.29160 0.53780 0.69020 0.04500
H 	H 	0.18600 0.51340 0.77280 0.11400
H 	H 	0.43990 0.17110 0.87760 0.15700
H 	H 	0.28500 0.67810 0.85790 0.15300
C 	C 	0.86720 0.11440 0.29200 0.05400
C 	C 	0.88740 0.15460 0.37520 -0.01500
C 	C 	0.99370 0.12000 0.40150 0.16100
C 	C 	0.78520 0.09020 0.19780 0.03200
C 	C 	0.76510 0.03800 0.12110 -0.24500
C 	C 	0.68270 0.01380 0.02810 0.40000
C 	C 	0.82740 0.05680 0.66900 0.06800
C 	C 	0.88800 0.13100 0.66240 -0.02700
C 	C 	0.87730 0.02050 0.58340 0.14800
C 	C 	0.77390 0.04670 0.71460 0.00700
C 	C 	0.70300 0.96950 0.70790 -0.20600
C 	C 	0.64920 0.96960 0.75480 0.34000
C 	C 	0.36720 0.07520 0.75280 0.05500
C 	C 	0.38740 0.01220 0.73280 -0.02100
C 	C 	0.49370 0.09220 0.87370 0.14500
C 	C 	0.28520 0.08740 0.69500 0.02900
C 	C 	0.26510 0.14400 0.72710 -0.24200
C 	C 	0.18270 0.15460 0.66890 0.39400
C 	C 	0.32740 0.65840 0.77060 0.06500
C 	C 	0.38800 0.72560 0.75700 -0.02700
C 	C 	0.37730 0.79390 0.85680 0.12700
C 	C 	0.27390 0.55930 0.72720 -0.00100
C 	C 	0.20300 0.49510 0.73350 -0.19800
C 	C 	0.14920 0.39440 0.67960 0.34300
N 	N 	0.93500 0.09050 0.30890 -0.22700
N 	N 	0.96890 0.15890 0.44240 -0.26000
N 	N 	0.81990 0.98440 0.61650 -0.23000
N 	N 	0.92050 0.10940 0.61010 -0.24000
N 	N 	0.43500 0.12610 0.84450 -0.22500
N 	N 	0.46890 0.02650 0.81000 -0.25800
N 	N 	0.31990 0.70340 0.83550 -0.22000
N 	N 	0.42050 0.81040 0.81110 -0.23900
O 	O 	0.57060 0.89300 0.73100 -0.40200
O 	O 	0.67940 0.04380 0.81220 -0.37900
O 	O 	0.66780 0.95700 0.96260 -0.44000
O 	O 	0.63090 0.04680 0.01330 -0.37200
O 	O 	0.07060 0.33960 0.67760 -0.40300
O 	O 	0.17940 0.36720 0.63560 -0.38200
O 	O 	0.16780 0.20520 0.71080 -0.43600
O 	O 	0.13090 0.11760 0.58410 -0.37200
Cd	Cd	0.11403 0.16342 0.20821 1.21300
Cd	Cd	0.61403 0.40582 0.95061 1.21600
H 	H 	0.29100 0.32510 0.17610 0.01500
H 	H 	0.18040 0.06520 0.11220 -0.02400
H 	H 	0.42100 0.36840 0.11320 0.02700
H 	H 	0.38890 0.20970 0.01540 0.12900
H 	H 	0.00040 0.28450 0.19050 0.02700
H 	H 	0.94020 0.10070 0.98610 -0.01000
H 	H 	0.84760 0.30980 0.10140 0.04400
H 	H 	0.74060 0.22720 0.91320 0.11400
H 	H 	0.29350 0.12240 0.06230 0.15600
H 	H 	0.82020 0.14210 0.92710 0.15300
H 	H 	0.79100 0.61490 0.96590 0.01400
H 	H 	0.68040 0.56820 0.11520 -0.02100
H 	H 	0.92100 0.80780 0.05260 0.02800
H 	H 	0.88890 0.87350 0.17920 0.12500
H 	H 	0.50040 0.30990 0.71590 0.03500
H 	H 	0.44020 0.45410 0.83950 -0.01200
H 	H 	0.34760 0.24620 0.53780 0.04400
H 	H 	0.24060 0.32740 0.51340 0.11300
H 	H 	0.79350 0.73120 0.17110 0.15700
H 	H 	0.32020 0.39310 0.67810 0.15300
C 	C 	0.32240 0.24720 0.11440 0.05400
C 	C 	0.27940 0.26720 0.15460 -0.01600
C 	C 	0.21850 0.12630 0.12000 0.14500
C 	C 	0.39240 0.30500 0.09020 0.03000
C 	C 	0.41690 0.27290 0.03800 -0.24200
C 	C 	0.48570 0.33110 0.01380 0.39400
C 	C 	0.88780 0.22940 0.05680 0.06100
C 	C 	0.96860 0.24300 0.13100 -0.01600
C 	C 	0.93710 0.14320 0.02050 0.12800
C 	C 	0.83210 0.27280 0.04670 0.00300
C 	C 	0.76160 0.26650 0.96950 -0.20000
C 	C 	0.71480 0.32040 0.96960 0.34300
C 	C 	0.82240 0.70800 0.07520 0.05500
C 	C 	0.77940 0.62480 0.01220 -0.01500
C 	C 	0.71850 0.59850 0.09220 0.14500
C 	C 	0.89240 0.80220 0.08740 0.02400
C 	C 	0.91690 0.87890 0.14400 -0.23100
C 	C 	0.98570 0.97190 0.15460 0.37100
C 	C 	0.38780 0.33100 0.65840 0.06500
C 	C 	0.46860 0.33760 0.72560 -0.02700
C 	C 	0.43710 0.41660 0.79390 0.12700
C 	C 	0.33210 0.28540 0.55930 -0.00100
C 	C 	0.26160 0.29210 0.49510 -0.19800
C 	C 	0.21480 0.24520 0.39440 0.34200
N 	N 	0.28160 0.15550 0.09050 -0.22500
N 	N 	0.21650 0.19000 0.15890 -0.26000
N 	N 	0.86790 0.16450 0.98440 -0.22000
N 	N 	0.99930 0.18890 0.10940 -0.23800
N 	N 	0.78160 0.69110 0.12610 -0.22500
N 	N 	0.71650 0.55760 0.02650 -0.25900
N 	N 	0.36790 0.38350 0.70340 -0.22000
N 	N 	0.49930 0.38990 0.81040 -0.23900
O 	O 	0.66200 0.32240 0.89300 -0.40200
O 	O 	0.73160 0.36440 0.04380 -0.38200
O 	O 	0.49440 0.28920 0.95700 -0.43500
O 	O 	0.53350 0.41590 0.04680 -0.37000
O 	O 	0.16200 0.26900 0.33960 -0.40400
O 	O 	0.23160 0.18780 0.36720 -0.38300
O 	O 	0.99440 0.03740 0.20520 -0.42300
O 	O 	0.03350 0.98670 0.11760 -0.35700
Cd	Cd	0.38597 0.59418 0.04939 1.21600
Cd	Cd	0.88597 0.83658 0.79179 1.21300
H 	H 	0.20900 0.38510 0.03410 0.01400
H 	H 	0.31960 0.43180 0.88480 -0.02100
H 	H 	0.07900 0.19220 0.94740 0.02800
H 	H 	0.11110 0.12650 0.82080 0.12500
H 	H 	0.49960 0.69010 0.28410 0.03500
H 	H 	0.55980 0.54590 0.16050 -0.01200
H 	H 	0.65240 0.75380 0.46220 0.04400
H 	H 	0.75940 0.67260 0.48660 0.11300
H 	H 	0.20650 0.26880 0.82890 0.15700
H 	H 	0.67980 0.60690 0.32190 0.15300
H 	H 	0.70900 0.67490 0.82390 0.01500
H 	H 	0.81960 0.93480 0.88780 -0.02400
H 	H 	0.57900 0.63160 0.88680 0.02700
H 	H 	0.61110 0.79030 0.98460 0.12900
H 	H 	0.99960 0.71550 0.80950 0.02700
H 	H 	0.05980 0.89930 0.01390 -0.01000
H 	H 	0.15240 0.69020 0.89860 0.04400
H 	H 	0.25940 0.77280 0.08680 0.11400
H 	H 	0.70650 0.87760 0.93770 0.15600
H 	H 	0.17980 0.85790 0.07290 0.15300
C 	C 	0.17760 0.29200 0.92480 0.05500
C 	C 	0.22060 0.37520 0.98780 -0.01500
C 	C 	0.28150 0.40150 0.90780 0.14500
C 	C 	0.10760 0.19780 0.91260 0.02400
C 	C 	0.08310 0.12110 0.85600 -0.23100
C 	C 	0.01430 0.02810 0.84540 0.37100
C 	C 	0.61220 0.66900 0.34160 0.06500
C 	C 	0.53140 0.66240 0.27440 -0.02700
C 	C 	0.56290 0.58340 0.20610 0.12700
C 	C 	0.66790 0.71460 0.44070 -0.00100
C 	C 	0.73840 0.70790 0.50490 -0.19800
C 	C 	0.78520 0.75480 0.60560 0.34200
C 	C 	0.67760 0.75280 0.88560 0.05400
C 	C 	0.72060 0.73280 0.84540 -0.01600
C 	C 	0.78150 0.87370 0.88000 0.14500
C 	C 	0.60760 0.69500 0.90980 0.03000
C 	C 	0.58310 0.72710 0.96200 -0.24200
C 	C 	0.51430 0.66890 0.98620 0.39400
C 	C 	0.11220 0.77060 0.94320 0.06100
C 	C 	0.03140 0.75700 0.86900 -0.01600
C 	C 	0.06290 0.85680 0.97950 0.12800
C 	C 	0.16790 0.72720 0.95330 0.00300
C 	C 	0.23840 0.73350 0.03050 -0.20000
C 	C 	0.28520 0.67960 0.03040 0.34300
N 	N 	0.21840 0.30890 0.87390 -0.22500
N 	N 	0.28350 0.44240 0.97350 -0.25900
N 	N 	0.63210 0.61650 0.29660 -0.22000
N 	N 	0.50070 0.61010 0.18960 -0.23900
N 	N 	0.71840 0.84450 0.90950 -0.22500
N 	N 	0.78350 0.81000 0.84110 -0.26000
N 	N 	0.13210 0.83550 0.01560 -0.22000
N 	N 	0.00070 0.81110 0.89060 -0.23800
O 	O 	0.83800 0.73100 0.66040 -0.40400
O 	O 	0.76840 0.81220 0.63280 -0.38300
O 	O 	0.00560 0.96260 0.79480 -0.42300
O 	O 	0.96650 0.01330 0.88240 -0.35700
O 	O 	0.33800 0.67760 0.10700 -0.40200
O 	O 	0.26840 0.63560 0.95620 -0.38200
O 	O 	0.50560 0.71080 0.04300 -0.43500
O 	O 	0.46650 0.58410 0.95320 -0.37000
