data_crystal

_cell_length_a 14.73280
_cell_length_b 14.73280
_cell_length_c 14.73280
_cell_angle_alpha 109.47100
_cell_angle_beta  109.47100
_cell_angle_gamma 109.47100

_symmetry_space_group_name_	'P 1'
_symmetry_space_group_name_H-M	'P 1'

loop_
_symmetry_equiv_pos_as_xyz
  x,y,z

loop_
_atom_site_label
_atom_site_type_symbol
_atom_site_fract_x
_atom_site_fract_y
_atom_site_fract_z
_atom_site_charge
H 	H 	0.89702 0.42689 0.77938 0.00200
C 	C 	0.94440 0.41500 0.73320 -0.02500
N 	N 	0.90717 0.34890 0.62133 -0.29400
H 	H 	0.64751 0.11764 0.22062 0.00200
C 	C 	0.68180 0.21120 0.26680 -0.01000
N 	N 	0.72757 0.28584 0.37867 -0.29200
H 	H 	0.35249 0.57311 0.47013 0.00200
C 	C 	0.31820 0.58500 0.52940 -0.00900
N 	N 	0.27243 0.65110 0.55827 -0.29200
H 	H 	0.10298 0.88236 0.52987 -0.00000
C 	C 	0.05560 0.78880 0.47060 0.00400
N 	N 	0.09283 0.71416 0.44173 -0.29300
H 	H 	0.77938 0.89702 0.42689 0.00100
C 	C 	0.73320 0.94440 0.41500 -0.01400
N 	N 	0.62133 0.90717 0.34890 -0.29200
H 	H 	0.22062 0.64751 0.11764 0.00400
C 	C 	0.26680 0.68180 0.21120 -0.00900
N 	N 	0.37867 0.72757 0.28584 -0.29100
H 	H 	0.47013 0.35249 0.57311 0.00200
C 	C 	0.52940 0.31820 0.58500 -0.01000
N 	N 	0.55827 0.27243 0.65110 -0.29200
H 	H 	0.52987 0.10298 0.88236 -0.00200
C 	C 	0.47060 0.05560 0.78880 -0.00700
N 	N 	0.44173 0.09283 0.71416 -0.29300
H 	H 	0.42689 0.77938 0.89702 0.00200
C 	C 	0.41500 0.73320 0.94440 -0.02000
N 	N 	0.34890 0.62133 0.90717 -0.29400
H 	H 	0.11764 0.22062 0.64751 0.00400
C 	C 	0.21120 0.26680 0.68180 -0.00900
N 	N 	0.28584 0.37867 0.72757 -0.29200
H 	H 	0.57311 0.47013 0.35249 0.00200
C 	C 	0.58500 0.52940 0.31820 -0.00900
N 	N 	0.65110 0.55827 0.27243 -0.29100
H 	H 	0.88236 0.52987 0.10298 -0.00200
C 	C 	0.78880 0.47060 0.05560 -0.00100
N 	N 	0.71416 0.44173 0.09283 -0.29200
H 	H 	0.42689 0.89702 0.77938 -0.00000
C 	C 	0.41500 0.94440 0.73320 -0.01400
N 	N 	0.34890 0.90717 0.62133 -0.29200
H 	H 	0.11764 0.64751 0.22062 0.00500
C 	C 	0.21120 0.68180 0.26680 -0.00800
N 	N 	0.28584 0.72757 0.37867 -0.29100
H 	H 	0.57311 0.35249 0.47013 0.00200
C 	C 	0.58500 0.31820 0.52940 -0.01100
N 	N 	0.65110 0.27243 0.55827 -0.29200
H 	H 	0.88236 0.10298 0.52987 -0.00100
C 	C 	0.78880 0.05560 0.47060 -0.00700
N 	N 	0.71416 0.09283 0.44173 -0.29300
H 	H 	0.89702 0.77938 0.42689 0.00300
C 	C 	0.94440 0.73320 0.41500 -0.02500
N 	N 	0.90717 0.62133 0.34890 -0.29400
H 	H 	0.64751 0.22062 0.11764 0.00300
C 	C 	0.68180 0.26680 0.21120 -0.00900
N 	N 	0.72757 0.37867 0.28584 -0.29100
H 	H 	0.35249 0.47013 0.57311 0.00200
C 	C 	0.31820 0.52940 0.58500 -0.01000
N 	N 	0.27243 0.55827 0.65110 -0.29100
H 	H 	0.10298 0.52987 0.88236 -0.00100
C 	C 	0.05560 0.47060 0.78880 0.00400
N 	N 	0.09283 0.44173 0.71416 -0.29300
H 	H 	0.77938 0.42689 0.89702 0.00200
C 	C 	0.73320 0.41500 0.94440 -0.02000
N 	N 	0.62133 0.34890 0.90717 -0.29400
H 	H 	0.22062 0.11764 0.64751 0.00200
C 	C 	0.26680 0.21120 0.68180 -0.01000
N 	N 	0.37867 0.28584 0.72757 -0.29200
H 	H 	0.47013 0.57311 0.35249 0.00200
C 	C 	0.52940 0.58500 0.31820 -0.01000
N 	N 	0.55827 0.65110 0.27243 -0.29100
H 	H 	0.52987 0.88236 0.10298 -0.00000
C 	C 	0.47060 0.78880 0.05560 -0.00000
N 	N 	0.44173 0.71416 0.09283 -0.29300
Zn	Zn	0.75000 0.25000 0.50000 1.17500
Zn	Zn	0.25000 0.75000 0.50000 1.17600
Zn	Zn	0.50000 0.75000 0.25000 1.17600
Zn	Zn	0.50000 0.25000 0.75000 1.17500
Zn	Zn	0.25000 0.50000 0.75000 1.17600
Zn	Zn	0.75000 0.50000 0.25000 1.17600
C 	C 	-0.00000 0.36875 0.61465 0.13400
C 	C 	0.75410 0.38535 0.38535 0.12800
C 	C 	0.24590 0.63125 0.63125 0.13100
C 	C 	-0.00000 0.61465 0.36875 0.13300
C 	C 	0.61465 -0.00000 0.36875 0.13100
C 	C 	0.38535 0.75410 0.38535 0.13000
C 	C 	0.63125 0.24590 0.63125 0.12800
C 	C 	0.36875 0.00000 0.61465 0.13200
C 	C 	0.36875 0.61465 -0.00000 0.13400
C 	C 	0.38535 0.38535 0.75410 0.12800
C 	C 	0.63125 0.63125 0.24590 0.12900
C 	C 	0.61465 0.36875 -0.00000 0.13300
C 	C 	-0.00000 0.31900 0.50940 -0.21300
C 	C 	0.80960 0.49060 0.49060 -0.23600
C 	C 	0.19040 0.68100 0.68100 -0.23900
C 	C 	-0.00000 0.50940 0.31900 -0.21300
C 	C 	0.50940 0.00000 0.31900 -0.23600
C 	C 	0.49060 0.80960 0.49060 -0.23600
C 	C 	0.68100 0.19040 0.68100 -0.23600
C 	C 	0.31900 -0.00000 0.50940 -0.23600
C 	C 	0.31900 0.50940 -0.00000 -0.23000
C 	C 	0.49060 0.49060 0.80960 -0.23600
C 	C 	0.68100 0.68100 0.19040 -0.23600
C 	C 	0.50940 0.31900 -0.00000 -0.22200
H 	H 	0.55724 0.47162 0.80108 0.02900
H 	H 	0.51832 0.53901 0.90142 0.04600
H 	H 	0.47743 0.54236 0.76911 0.03900
H 	H 	0.92398 0.23226 0.45027 0.02500
H 	H 	0.07867 0.31311 0.52703 0.03200
H 	H 	0.99736 0.37325 0.46971 0.03800
H 	H 	0.90306 0.52379 0.53401 0.04700
H 	H 	0.77638 0.47504 0.54680 0.03600
H 	H 	0.79217 0.55415 0.47217 0.03100
H 	H 	0.24638 0.77518 0.73297 0.04600
H 	H 	0.17362 0.64698 0.73629 0.03000
H 	H 	0.10839 0.65921 0.61212 0.04800
H 	H 	0.97931 0.46099 0.36240 0.03800
H 	H 	0.08562 0.52838 0.32946 0.02800
H 	H 	0.93507 0.45764 0.22676 0.03000
H 	H 	0.51447 0.04467 0.26931 0.04700
H 	H 	0.49488 0.04467 0.38778 0.04700
H 	H 	0.43766 0.91065 0.26153 0.02800
H 	H 	0.54811 0.77880 0.47442 0.03600
H 	H 	0.47248 0.78947 0.55308 0.03200
H 	H 	0.53240 0.90334 0.52549 0.04800
H 	H 	0.68301 0.21053 0.76361 0.03200
H 	H 	0.76931 0.22120 0.69562 0.03500
H 	H 	0.62905 0.09666 0.62215 0.04900
H 	H 	0.38778 0.04467 0.49488 0.04700
H 	H 	0.26931 0.04467 0.51447 0.04700
H 	H 	0.26153 0.91065 0.43766 0.02800
H 	H 	0.30134 0.52496 0.07176 0.03800
H 	H 	0.37927 0.47621 0.01022 0.05100
H 	H 	0.23802 0.44585 0.91802 0.02800
H 	H 	0.76556 0.68689 0.21392 0.03400
H 	H 	0.69172 0.76774 0.21801 0.03500
H 	H 	0.62410 0.62675 0.09645 0.05100
H 	H 	0.52663 0.35302 0.08930 0.02800
H 	H 	0.47120 0.22482 0.95779 0.03900
H 	H 	0.44918 0.34079 0.95291 0.03900
