data_crystal

_cell_length_a 17.35040
_cell_length_b 17.35040
_cell_length_c 17.35040
_cell_angle_alpha 64.97300
_cell_angle_beta  81.14640
_cell_angle_gamma 115.02700

_symmetry_space_group_name_	'P 1'
_symmetry_space_group_name_H-M	'P 1'

loop_
_symmetry_equiv_pos_as_xyz
  x,y,z

loop_
_atom_site_label
_atom_site_type_symbol
_atom_site_fract_x
_atom_site_fract_y
_atom_site_fract_z
_atom_site_charge
Cd	Cd	0.33432 0.53852 0.05196 1.21900
Cd	Cd	0.09048 0.03852 0.79580 1.21800
H 	H 	0.20460 0.39600 0.28720 0.03400
H 	H 	0.40780 0.39200 0.16200 -0.01000
H 	H 	0.17770 0.28140 0.46690 0.04100
H 	H 	0.27480 0.18940 0.48560 0.11800
H 	H 	0.16400 0.34580 0.04020 0.01800
H 	H 	0.42790 0.54600 0.87570 -0.01300
H 	H 	0.12230 0.23510 0.95420 0.02500
H 	H 	0.28250 0.30150 0.82260 0.12300
H 	H 	0.36300 0.29190 0.32290 0.15600
H 	H 	0.36630 0.43550 0.82480 0.15400
H 	H 	0.18320 0.89600 0.80860 0.03500
H 	H 	0.05400 0.89200 0.01580 -0.02100
H 	H 	0.24830 0.78140 0.89630 0.04000
H 	H 	0.17500 0.68940 0.08540 0.12000
H 	H 	0.88600 0.84580 0.81820 0.01600
H 	H 	0.92170 0.04600 0.88190 -0.01900
H 	H 	0.68930 0.73510 0.88720 0.02500
H 	H 	0.62410 0.80150 0.98100 0.12500
H 	H 	0.11480 0.79190 0.07110 0.15800
H 	H 	0.76030 0.93550 0.93080 0.15600
C 	C 	0.26580 0.32260 0.34500 0.06500
C 	C 	0.24920 0.38120 0.27680 -0.02500
C 	C 	0.36010 0.37920 0.20810 0.12500
C 	C 	0.21980 0.26850 0.44410 0.00600
C 	C 	0.23160 0.20240 0.50580 -0.20700
C 	C 	0.17780 0.14850 0.60610 0.34100
C 	C 	0.24130 0.35810 0.92920 0.04700
C 	C 	0.22210 0.38080 0.99290 -0.01700
C 	C 	0.36680 0.49090 0.90290 0.12200
C 	C 	0.18590 0.27710 0.91740 0.02900
C 	C 	0.21880 0.25950 0.85930 -0.22400
C 	C 	0.16130 0.17600 0.84690 0.37500
C 	C 	0.16760 0.82260 0.94320 0.06800
C 	C 	0.15800 0.88120 0.86800 -0.02500
C 	C 	0.08730 0.87920 0.98090 0.14600
C 	C 	0.21260 0.76850 0.95130 0.01300
C 	C 	0.20820 0.70240 0.02920 -0.21500
C 	C 	0.25460 0.64850 0.02930 0.33900
C 	C 	0.78730 0.85810 0.88320 0.04700
C 	C 	0.87370 0.88080 0.84130 -0.01200
C 	C 	0.89380 0.99090 0.87590 0.13300
C 	C 	0.69450 0.77710 0.90880 0.03200
C 	C 	0.61880 0.75950 0.95930 -0.22500
C 	C 	0.52290 0.67600 0.98530 0.37900
N 	N 	0.30680 0.41510 0.19150 -0.24000
N 	N 	0.33740 0.32300 0.29800 -0.22100
N 	N 	0.30090 0.46260 0.97690 -0.25100
N 	N 	0.33470 0.43050 0.87200 -0.21700
N 	N 	0.10660 0.91510 0.89170 -0.24100
N 	N 	0.12100 0.82300 0.01440 -0.23100
N 	N 	0.93950 0.96260 0.83830 -0.25200
N 	N 	0.80250 0.93050 0.90420 -0.21900
O 	O 	0.07600 0.12570 0.88330 -0.37200
O 	O 	0.20690 0.16020 0.79790 -0.43000
O 	O 	0.13470 0.17740 0.63890 -0.38200
O 	O 	0.17460 0.06700 0.66080 -0.39600
O 	O 	0.50900 0.62570 0.95030 -0.37200
O 	O 	0.45810 0.66020 0.04670 -0.43300
O 	O 	0.31630 0.67740 0.95730 -0.37900
O 	O 	0.22780 0.56700 0.10760 -0.39400
Cd	Cd	0.90952 0.96148 0.20420 1.21700
Cd	Cd	0.66568 0.46148 0.94804 1.21800
H 	H 	0.81680 0.10400 0.19140 0.03500
H 	H 	0.94600 0.10800 0.98420 -0.02100
H 	H 	0.75170 0.21860 0.10370 0.04000
H 	H 	0.82500 0.31060 0.91460 0.12000
H 	H 	0.11400 0.15420 0.18180 0.01600
H 	H 	0.07830 0.95400 0.11810 -0.01900
H 	H 	0.31070 0.26490 0.11280 0.02500
H 	H 	0.37590 0.19850 0.01900 0.12500
H 	H 	0.88520 0.20810 0.92890 0.15800
H 	H 	0.23970 0.06450 0.06920 0.15600
H 	H 	0.79540 0.60400 0.71280 0.03400
H 	H 	0.59220 0.60800 0.83800 -0.01000
H 	H 	0.82230 0.71860 0.53310 0.04100
H 	H 	0.72520 0.81060 0.51440 0.11800
H 	H 	0.83600 0.65420 0.95980 0.01800
H 	H 	0.57210 0.45400 0.12430 -0.01300
H 	H 	0.87770 0.76490 0.04580 0.02500
H 	H 	0.71750 0.69850 0.17740 0.12300
H 	H 	0.63700 0.70810 0.67710 0.15600
H 	H 	0.63370 0.56450 0.17520 0.15400
C 	C 	0.83240 0.17740 0.05680 0.06800
C 	C 	0.84200 0.11880 0.13200 -0.02500
C 	C 	0.91270 0.12080 0.01910 0.14600
C 	C 	0.78740 0.23150 0.04870 0.01300
C 	C 	0.79180 0.29760 0.97080 -0.21500
C 	C 	0.74540 0.35150 0.97070 0.33900
C 	C 	0.21270 0.14190 0.11680 0.04700
C 	C 	0.12630 0.11920 0.15870 -0.01200
C 	C 	0.10620 0.00910 0.12410 0.13300
C 	C 	0.30550 0.22290 0.09120 0.03200
C 	C 	0.38120 0.24050 0.04070 -0.22500
C 	C 	0.47710 0.32400 0.01470 0.37900
C 	C 	0.73420 0.67740 0.65500 0.06500
C 	C 	0.75080 0.61880 0.72320 -0.02500
C 	C 	0.63990 0.62080 0.79190 0.12500
C 	C 	0.78020 0.73150 0.55590 0.00600
C 	C 	0.76840 0.79760 0.49420 -0.20700
C 	C 	0.82220 0.85150 0.39390 0.34100
C 	C 	0.75870 0.64190 0.07080 0.04700
C 	C 	0.77790 0.61920 0.00710 -0.01700
C 	C 	0.63320 0.50910 0.09710 0.12200
C 	C 	0.81410 0.72290 0.08260 0.02900
C 	C 	0.78120 0.74050 0.14070 -0.22400
C 	C 	0.83870 0.82400 0.15310 0.37500
N 	N 	0.89340 0.08490 0.10830 -0.24100
N 	N 	0.87900 0.17700 0.98560 -0.23100
N 	N 	0.06050 0.03740 0.16170 -0.25200
N 	N 	0.19750 0.06950 0.09580 -0.21900
N 	N 	0.69320 0.58490 0.80850 -0.24000
N 	N 	0.66260 0.67700 0.70200 -0.22100
N 	N 	0.69910 0.53740 0.02310 -0.25100
N 	N 	0.66530 0.56950 0.12800 -0.21700
O 	O 	0.49100 0.37430 0.04970 -0.37200
O 	O 	0.54190 0.33980 0.95330 -0.43300
O 	O 	0.68370 0.32260 0.04270 -0.37900
O 	O 	0.77220 0.43300 0.89240 -0.39400
O 	O 	0.92400 0.87430 0.11670 -0.37200
O 	O 	0.79310 0.83980 0.20210 -0.43000
O 	O 	0.86530 0.82260 0.36110 -0.38200
O 	O 	0.82540 0.93300 0.33920 -0.39600
Cd	Cd	0.29580 0.88628 0.16568 1.21600
Cd	Cd	0.55196 0.38628 0.40952 1.21800
H 	H 	0.30860 0.99180 0.29540 0.02800
H 	H 	0.51580 0.06980 0.09220 -0.01000
H 	H 	0.39630 0.14460 0.32230 0.04100
H 	H 	0.58540 0.26040 0.22520 0.11900
H 	H 	0.31820 0.70420 0.33600 0.01600
H 	H 	0.38190 0.80360 0.07210 -0.01500
H 	H 	0.38720 0.57650 0.37770 0.02600
H 	H 	0.48100 0.60510 0.21750 0.12300
H 	H 	0.57110 0.18590 0.13700 0.15700
H 	H 	0.43080 0.69110 0.13370 0.15400
H 	H 	0.78720 0.49180 0.31680 0.03400
H 	H 	0.66200 0.56980 0.44600 -0.00900
H 	H 	0.96690 0.64460 0.25170 0.04200
H 	H 	0.98560 0.76040 0.32500 0.11700
H 	H 	0.54020 0.20420 0.61400 0.01600
H 	H 	0.37570 0.30360 0.57830 -0.01300
H 	H 	0.45420 0.07650 0.81070 0.02700
H 	H 	0.32260 0.10510 0.87590 0.11800
H 	H 	0.82290 0.68590 0.38520 0.15600
H 	H 	0.32480 0.19110 0.73970 0.15400
C 	C 	0.44320 0.11080 0.23420 0.06000
C 	C 	0.36800 0.02600 0.25080 -0.01400
C 	C 	0.48090 0.06820 0.13990 0.13100
C 	C 	0.45130 0.16390 0.28020 0.00900
C 	C 	0.52920 0.23740 0.26840 -0.20900
C 	C 	0.52930 0.28390 0.32220 0.34100
C 	C 	0.38320 0.67050 0.25870 0.04700
C 	C 	0.34130 0.71500 0.27790 -0.01300
C 	C 	0.37590 0.76970 0.13320 0.12200
C 	C 	0.40880 0.60330 0.31410 0.03000
C 	C 	0.45930 0.57810 0.28120 -0.22300
C 	C 	0.48530 0.50820 0.33870 0.37500
C 	C 	0.84500 0.61080 0.33240 0.06500
C 	C 	0.77680 0.52600 0.34200 -0.02600
C 	C 	0.70810 0.56820 0.41270 0.12500
C 	C 	0.94410 0.66390 0.28740 0.00400
C 	C 	0.00580 0.73740 0.29180 -0.20400
C 	C 	0.10610 0.78390 0.24540 0.33900
C 	C 	0.42920 0.17050 0.71270 0.04900
C 	C 	0.49290 0.21500 0.62630 -0.01400
C 	C 	0.40290 0.26970 0.60620 0.12200
C 	C 	0.41740 0.10330 0.80550 0.02200
C 	C 	0.35930 0.07810 0.88120 -0.21300
C 	C 	0.34690 0.00820 0.97710 0.35200
N 	N 	0.39170 0.99830 0.19320 -0.24600
N 	N 	0.51440 0.13540 0.16260 -0.22200
N 	N 	0.33830 0.77780 0.19910 -0.25200
N 	N 	0.40420 0.70670 0.16530 -0.21700
N 	N 	0.69150 0.49830 0.39340 -0.24000
N 	N 	0.79800 0.63540 0.37900 -0.22200
N 	N 	0.47690 0.27780 0.56050 -0.25100
N 	N 	0.37200 0.20670 0.69750 -0.21800
O 	O 	0.45030 0.45930 0.42400 -0.37100
O 	O 	0.54670 0.50480 0.29310 -0.42900
O 	O 	0.45730 0.27360 0.36530 -0.38100
O 	O 	0.60760 0.33540 0.32540 -0.39500
O 	O 	0.38330 0.95930 0.99100 -0.35800
O 	O 	0.29790 0.00480 0.04190 -0.41700
O 	O 	0.13890 0.77360 0.18370 -0.38200
O 	O 	0.16080 0.83540 0.27220 -0.39500
Cd	Cd	0.44804 0.61372 0.59048 1.21800
Cd	Cd	0.70420 0.11372 0.83432 1.21600
H 	H 	0.21280 0.50820 0.68320 0.03400
H 	H 	0.33800 0.43020 0.55400 -0.00900
H 	H 	0.03310 0.35540 0.74830 0.04200
H 	H 	0.01440 0.23960 0.67500 0.11700
H 	H 	0.45980 0.79580 0.38600 0.01600
H 	H 	0.62430 0.69640 0.42170 -0.01300
H 	H 	0.54580 0.92350 0.18930 0.02700
H 	H 	0.67740 0.89490 0.12410 0.11800
H 	H 	0.17710 0.31410 0.61480 0.15600
H 	H 	0.67520 0.80890 0.26030 0.15400
H 	H 	0.69140 0.00820 0.70460 0.02800
H 	H 	0.48420 0.93020 0.90780 -0.01000
H 	H 	0.60370 0.85540 0.67770 0.04100
H 	H 	0.41460 0.73960 0.77480 0.11900
H 	H 	0.68180 0.29580 0.66400 0.01600
H 	H 	0.61810 0.19640 0.92790 -0.01500
H 	H 	0.61280 0.42350 0.62230 0.02600
H 	H 	0.51900 0.39490 0.78250 0.12300
H 	H 	0.42890 0.81410 0.86300 0.15700
H 	H 	0.56920 0.30890 0.86630 0.15400
C 	C 	0.15500 0.38920 0.66760 0.06500
C 	C 	0.22320 0.47400 0.65800 -0.02600
C 	C 	0.29190 0.43180 0.58730 0.12500
C 	C 	0.05590 0.33610 0.71260 0.00400
C 	C 	0.99420 0.26260 0.70820 -0.20400
C 	C 	0.89390 0.21610 0.75460 0.33900
C 	C 	0.57080 0.82950 0.28730 0.04900
C 	C 	0.50710 0.78500 0.37370 -0.01400
C 	C 	0.59710 0.73030 0.39380 0.12200
C 	C 	0.58260 0.89670 0.19450 0.02200
C 	C 	0.64070 0.92190 0.11880 -0.21300
C 	C 	0.65310 0.99180 0.02290 0.35200
C 	C 	0.55680 0.88920 0.76580 0.06000
C 	C 	0.63200 0.97400 0.74920 -0.01400
C 	C 	0.51910 0.93180 0.86010 0.13100
C 	C 	0.54870 0.83610 0.71980 0.00900
C 	C 	0.47080 0.76260 0.73160 -0.20900
C 	C 	0.47070 0.71610 0.67780 0.34100
C 	C 	0.61680 0.32950 0.74130 0.04700
C 	C 	0.65870 0.28500 0.72210 -0.01300
C 	C 	0.62410 0.23030 0.86680 0.12200
C 	C 	0.59120 0.39670 0.68590 0.03000
C 	C 	0.54070 0.42190 0.71880 -0.22300
C 	C 	0.51470 0.49180 0.66130 0.37500
N 	N 	0.30850 0.50170 0.60660 -0.24000
N 	N 	0.20200 0.36460 0.62100 -0.22200
N 	N 	0.52310 0.72220 0.43950 -0.25100
N 	N 	0.62800 0.79330 0.30250 -0.21800
N 	N 	0.60830 0.00170 0.80680 -0.24600
N 	N 	0.48560 0.86460 0.83740 -0.22200
N 	N 	0.66170 0.22220 0.80090 -0.25200
N 	N 	0.59580 0.29330 0.83470 -0.21700
O 	O 	0.61670 0.04070 0.00900 -0.35800
O 	O 	0.70210 0.99520 0.95810 -0.41700
O 	O 	0.86110 0.22640 0.81630 -0.38200
O 	O 	0.83920 0.16460 0.72780 -0.39500
O 	O 	0.54970 0.54070 0.57600 -0.37100
O 	O 	0.45330 0.49520 0.70690 -0.42900
O 	O 	0.54270 0.72640 0.63470 -0.38100
O 	O 	0.39240 0.66460 0.67460 -0.39500
