data_crystal

_cell_length_a 45.67360
_cell_length_b 45.67360
_cell_length_c 45.67360
_cell_angle_alpha 94.98190
_cell_angle_beta  94.98190
_cell_angle_gamma 145.72200

_symmetry_space_group_name_	'P 1'
_symmetry_space_group_name_H-M	'P 1'

loop_
_symmetry_equiv_pos_as_xyz
  x,y,z

loop_
_atom_site_label
_atom_site_type_symbol
_atom_site_fract_x
_atom_site_fract_y
_atom_site_fract_z
_atom_site_charge
Ag	Ag	0.04266 0.47638 0.98158 0.46000
Ag	Ag	0.92681 0.41047 0.98864 0.43000
Ag	Ag	0.02023 0.47337 0.47714 0.42900
Ag	Ag	0.60793 0.81345 0.43466 0.42400
Ag	Ag	0.60028 0.76799 0.36791 0.43700
Ag	Ag	0.38956 0.50564 0.22342 0.45900
Ag	Ag	0.43947 0.03328 0.71273 0.45300
Ag	Ag	0.33775 0.98718 0.72753 0.42300
Ag	Ag	0.39140 0.97358 0.77028 0.44100
Ag	Ag	0.79962 0.63047 0.61043 0.42700
Ag	Ag	0.91434 0.72037 0.66373 0.43200
Ag	Ag	0.87995 0.76024 0.63605 0.45900
Ag	Ag	0.38867 0.70781 0.06262 0.43000
Ag	Ag	0.34053 0.64253 0.11454 0.43200
Ag	Ag	0.43810 0.68374 0.08712 0.46100
Ag	Ag	0.87339 0.14969 0.57202 0.43900
Ag	Ag	0.94492 0.27190 0.59224 0.41900
Ag	Ag	0.81817 0.16523 0.53984 0.45700
Ag	Ag	0.22418 0.35951 0.62329 0.44100
Ag	Ag	0.23908 0.40509 0.69405 0.45200
Ag	Ag	0.35019 0.46935 0.67894 0.42000
Ag	Ag	0.53264 0.80016 0.89898 0.43600
Ag	Ag	0.51395 0.74764 0.83151 0.43400
Ag	Ag	0.44926 0.66803 0.88087 0.44200
Ag	Ag	0.64425 0.03135 0.78836 0.44100
Ag	Ag	0.73377 0.15929 0.80862 0.43500
Ag	Ag	0.76745 0.12169 0.84106 0.44800
Ag	Ag	0.46239 0.52996 0.49749 0.45400
Ag	Ag	0.51733 0.52219 0.54142 0.41800
Ag	Ag	0.58306 0.60032 0.49224 0.44300
N 	N 	0.97124 0.40504 0.94788 -0.21300
N 	N 	0.92598 0.38176 0.95074 -0.22500
N 	N 	0.93210 0.40389 0.50859 -0.23500
N 	N 	0.97538 0.42366 0.50564 -0.23400
N 	N 	0.11469 0.56039 0.04368 -0.22300
N 	N 	0.11325 0.54184 0.01749 -0.21600
N 	N 	0.57699 0.74546 0.42805 -0.23700
N 	N 	0.57410 0.72672 0.40062 -0.22300
N 	N 	0.31470 0.47726 0.17636 -0.22200
N 	N 	0.36599 0.52063 0.19602 -0.21700
N 	N 	0.67216 0.91817 0.42553 -0.21500
N 	N 	0.64807 0.88698 0.44545 -0.23100
N 	N 	0.41331 0.04782 0.68893 -0.21700
N 	N 	0.37035 0.02759 0.69454 -0.23100
N 	N 	0.45196 0.18941 0.64377 -0.23900
N 	N 	0.44778 0.16738 0.61756 -0.22900
N 	N 	0.45595 0.00444 0.76159 -0.22500
N 	N 	0.47570 0.03038 0.73908 -0.22400
N 	N 	0.82110 0.60723 0.62473 -0.23500
N 	N 	0.86766 0.64401 0.64807 -0.23400
N 	N 	0.78086 0.46204 0.66530 -0.23100
N 	N 	0.77939 0.45079 0.63598 -0.21900
N 	N 	0.80464 0.70000 0.60344 -0.21200
N 	N 	0.77491 0.65000 0.59451 -0.22700
N 	N 	0.32385 0.67500 0.07245 -0.23500
N 	N 	0.30259 0.64699 0.09398 -0.23200
N 	N 	0.37133 0.62931 0.13144 -0.22700
N 	N 	0.40936 0.64467 0.12183 -0.21300
N 	N 	0.45682 0.71382 0.04884 -0.21300
N 	N 	0.44225 0.72975 0.04300 -0.22000
N 	N 	0.95348 0.21509 0.59817 -0.22200
N 	N 	0.98264 0.26507 0.60731 -0.23300
N 	N 	0.91475 0.28424 0.57139 -0.22900
N 	N 	0.86582 0.24302 0.54904 -0.21100
N 	N 	0.77642 0.09046 0.52508 -0.21600
N 	N 	0.79763 0.08434 0.53977 -0.21900
N 	N 	0.15826 0.32656 0.63242 -0.22000
N 	N 	0.16633 0.34736 0.66109 -0.22200
N 	N 	0.31246 0.47103 0.72709 -0.21700
N 	N 	0.35785 0.49669 0.72194 -0.22800
N 	N 	0.34298 0.44522 0.63500 -0.23600
N 	N 	0.29416 0.40204 0.61320 -0.22200
N 	N 	0.57036 0.84726 0.86882 -0.23300
N 	N 	0.55985 0.82347 0.84032 -0.23300
N 	N 	0.46513 0.67042 0.81915 -0.23400
N 	N 	0.43966 0.63764 0.83830 -0.22500
N 	N 	0.45965 0.70116 0.92261 -0.22600
N 	N 	0.49579 0.75452 0.92971 -0.23100
N 	N 	0.61921 0.05172 0.77473 -0.22700
N 	N 	0.65667 0.10521 0.78348 -0.22500
N 	N 	0.80717 0.21591 0.84168 -0.23300
N 	N 	0.81974 0.20098 0.85692 -0.21800
N 	N 	0.70795 0.03953 0.82928 -0.22400
N 	N 	0.66035 0.00472 0.80747 -0.22300
N 	N 	0.42526 0.48764 0.52990 -0.21600
N 	N 	0.44703 0.48296 0.54699 -0.23100
N 	N 	0.59322 0.56919 0.54221 -0.23500
N 	N 	0.62032 0.60192 0.52344 -0.22000
N 	N 	0.55022 0.60675 0.46557 -0.22000
N 	N 	0.50435 0.58188 0.46983 -0.21900
C 	C 	0.99839 0.38575 0.91714 -0.48200
C 	C 	0.95709 0.37168 0.92537 0.15300
C 	C 	0.90107 0.32512 0.91239 -0.10900
C 	C 	0.88317 0.33319 0.92916 0.14900
C 	C 	0.82703 0.29659 0.92682 -0.47600
C 	C 	0.85679 0.33861 0.53180 -0.51200
C 	C 	0.90503 0.36641 0.52344 0.16200
C 	C 	0.93086 0.36077 0.53043 -0.12600
C 	C 	0.97566 0.39859 0.51865 0.16500
C 	C 	0.01844 0.41253 0.51917 -0.51100
C 	C 	0.17538 0.62184 0.09562 -0.47200
C 	C 	0.16169 0.59416 0.06445 0.15200
C 	C 	0.19045 0.59737 0.05202 -0.11500
C 	C 	0.15868 0.56395 0.02203 0.15800
C 	C 	0.16770 0.55030 0.99740 -0.48300
C 	C 	0.56644 0.73061 0.47905 -0.48700
C 	C 	0.56580 0.71829 0.44709 0.15000
C 	C 	0.55517 0.68124 0.43301 -0.11900
C 	C 	0.56153 0.68823 0.40376 0.16400
C 	C 	0.55315 0.65843 0.37718 -0.49800
C 	C 	0.26152 0.45883 0.13275 -0.49900
C 	C 	0.31199 0.49640 0.15719 0.16200
C 	C 	0.36204 0.55254 0.16518 -0.12200
C 	C 	0.39455 0.56601 0.18936 0.16200
C 	C 	0.45169 0.62080 0.20689 -0.48400
C 	C 	0.73702 0.01076 0.42478 -0.49100
C 	C 	0.70511 0.96778 0.44069 0.16400
C 	C 	0.70355 0.96972 0.47107 -0.12000
C 	C 	0.66672 0.91769 0.47321 0.15700
C 	C 	0.64761 0.89498 0.49959 -0.50100
C 	C 	0.48254 0.10931 0.66205 -0.49100
C 	C 	0.43463 0.08114 0.67177 0.17000
C 	C 	0.40671 0.08359 0.66590 -0.12300
C 	C 	0.36620 0.04904 0.68044 0.15700
C 	C 	0.32249 0.03375 0.68184 -0.49300
C 	C 	0.43723 0.17592 0.69455 -0.49600
C 	C 	0.43583 0.16087 0.66350 0.14900
C 	C 	0.42111 0.11996 0.65047 -0.12100
C 	C 	0.42967 0.12648 0.62155 0.16500
C 	C 	0.41956 0.09368 0.59624 -0.50500
C 	C 	0.47975 0.98991 0.80166 -0.50100
C 	C 	0.48893 0.01107 0.77500 0.16800
C 	C 	0.53041 0.04131 0.76132 -0.12400
C 	C 	0.52134 0.05360 0.73914 0.16700
C 	C 	0.55223 0.08497 0.71720 -0.50700
C 	C 	0.74245 0.51155 0.59440 -0.49500
C 	C 	0.79519 0.55980 0.61919 0.15300
C 	C 	0.82495 0.56475 0.63910 -0.12400
C 	C 	0.87049 0.61923 0.65692 0.16200
C 	C 	0.91775 0.64952 0.68147 -0.51400
C 	C 	0.80202 0.52521 0.69963 -0.50400
C 	C 	0.79848 0.50481 0.67029 0.15900
C 	C 	0.80887 0.52193 0.64360 -0.11700
C 	C 	0.79596 0.48615 0.62291 0.16200
C 	C 	0.79896 0.48439 0.59075 -0.49900
C 	C 	0.79662 0.74616 0.59618 -0.49500
C 	C 	0.77445 0.69679 0.59044 0.16300
C 	C 	0.72397 0.64421 0.57278 -0.11700
C 	C 	0.72657 0.61622 0.57619 0.15000
C 	C 	0.68453 0.55761 0.56314 -0.48200
C 	C 	0.30119 0.68952 0.03151 -0.53800
C 	C 	0.28819 0.66333 0.05592 0.17800
C 	C 	0.24242 0.62662 0.06644 -0.12700
C 	C 	0.25316 0.61756 0.09072 0.15300
C 	C 	0.21906 0.58214 0.11080 -0.48800
C 	C 	0.30821 0.57191 0.16292 -0.48100
C 	C 	0.35054 0.59539 0.14833 0.14700
C 	C 	0.37498 0.58820 0.14998 -0.10800
C 	C 	0.41180 0.62070 0.13290 0.15300
C 	C 	0.45041 0.62991 0.12632 -0.47500
C 	C 	0.48766 0.69511 0.02397 -0.50800
C 	C 	0.46989 0.71083 0.02492 0.16800
C 	C 	0.46220 0.72450 0.00210 -0.11600
C 	C 	0.44532 0.73586 0.01458 0.14900
C 	C 	0.42909 0.75105 0.00094 -0.47400
C 	C 	0.96794 0.17356 0.59990 -0.53200
C 	C 	0.98752 0.22071 0.60563 0.17800
C 	C 	0.03956 0.27543 0.61979 -0.12100
C 	C 	0.03481 0.30183 0.62044 0.14500
C 	C 	0.07692 0.36086 0.63218 -0.48500
C 	C 	0.99785 0.38434 0.59059 -0.46700
C 	C 	0.94267 0.33120 0.56847 0.13700
C 	C 	0.91349 0.32165 0.54414 -0.10800
C 	C 	0.86490 0.26506 0.53256 0.15400
C 	C 	0.81609 0.23006 0.50695 -0.46800
C 	C 	0.70802 0.04504 0.47766 -0.49900
C 	C 	0.73947 0.05050 0.49877 0.16500
C 	C 	0.73676 0.01766 0.49642 -0.11500
C 	C 	0.77390 0.04027 0.52277 0.15000
C 	C 	0.78866 0.02239 0.53285 -0.47200
C 	C 	0.09261 0.27061 0.58122 -0.50000
C 	C 	0.11160 0.29764 0.61404 0.16200
C 	C 	0.08996 0.30062 0.63118 -0.11800
C 	C 	0.12491 0.33121 0.66032 0.15600
C 	C 	0.12289 0.34853 0.68862 -0.48600
C 	C 	0.28535 0.48175 0.76530 -0.49100
C 	C 	0.32675 0.49929 0.75384 0.16600
C 	C 	0.38290 0.54499 0.76629 -0.11400
C 	C 	0.40092 0.54182 0.74534 0.14600
C 	C 	0.45692 0.57833 0.74645 -0.48600
C 	C 	0.43988 0.51733 0.64041 -0.48800
C 	C 	0.38170 0.46835 0.62205 0.14300
C 	C 	0.35814 0.44045 0.59099 -0.12000
C 	C 	0.30260 0.39859 0.58639 0.16700
C 	C 	0.25644 0.35380 0.55864 -0.51200
C 	C 	0.61944 0.93224 0.89748 -0.50200
C 	C 	0.60352 0.89735 0.86987 0.16300
C 	C 	0.61505 0.90649 0.84174 -0.13000
C 	C 	0.58703 0.85921 0.82404 0.17600
C 	C 	0.58439 0.84480 0.79239 -0.51900
C 	C 	0.47099 0.66769 0.76628 -0.47100
C 	C 	0.45003 0.64186 0.79209 0.14700
C 	C 	0.41394 0.58978 0.79312 -0.12200
C 	C 	0.40890 0.58928 0.82278 0.17400
C 	C 	0.37710 0.54557 0.83807 -0.51800
C 	C 	0.40083 0.62541 0.94564 -0.46100
C 	C 	0.44416 0.68431 0.94747 0.14600
C 	C 	0.47016 0.72638 0.97114 -0.11900
C 	C 	0.50137 0.76921 0.95858 0.16500
C 	C 	0.53831 0.82590 0.97261 -0.50500
C 	C 	0.52014 0.96174 0.75368 -0.50100
C 	C 	0.56943 0.02173 0.76556 0.15900
C 	C 	0.57441 0.05681 0.76862 -0.11500
C 	C 	0.62994 0.10841 0.78015 0.16400
C 	C 	0.65980 0.16208 0.78788 -0.50200
C 	C 	0.83139 0.28850 0.84849 -0.50200
C 	C 	0.83533 0.26183 0.85956 0.16100
C 	C 	0.86745 0.27854 0.88639 -0.11900
C 	C 	0.85670 0.23954 0.88344 0.15600
C 	C 	0.88084 0.23677 0.90541 -0.47400
C 	C 	0.74332 0.03480 0.86912 -0.49500
C 	C 	0.69933 0.00962 0.84415 0.15700
C 	C 	0.64553 0.95473 0.83206 -0.11700
C 	C 	0.62299 0.95390 0.80869 0.16800
C 	C 	0.56731 0.90735 0.78746 -0.50900
C 	C 	0.35799 0.47032 0.52931 -0.52400
C 	C 	0.38926 0.47115 0.54261 0.18000
C 	C 	0.38809 0.45628 0.56837 -0.12300
C 	C 	0.42502 0.46395 0.57017 0.15300
C 	C 	0.43965 0.45312 0.59197 -0.48800
C 	C 	0.60760 0.55073 0.58593 -0.48400
C 	C 	0.62599 0.57984 0.56183 0.14300
C 	C 	0.67660 0.62098 0.55618 -0.11800
C 	C 	0.67108 0.63348 0.53196 0.16600
C 	C 	0.71056 0.67229 0.51465 -0.50000
C 	C 	0.62566 0.68003 0.44389 -0.47800
C 	C 	0.57414 0.64501 0.45155 0.15000
C 	C 	0.54339 0.64504 0.44623 -0.11000
C 	C 	0.50033 0.60491 0.45844 0.15600
C 	C 	0.45453 0.58651 0.45984 -0.48600
H 	H 	0.03470 0.42200 0.92990 0.11800
H 	H 	0.99640 0.38510 0.89550 0.14000
H 	H 	0.99080 0.35930 0.92070 0.13700
H 	H 	0.82830 0.31490 0.94140 0.11100
H 	H 	0.80610 0.26340 0.93150 0.13100
H 	H 	0.80980 0.28750 0.90590 0.13300
H 	H 	0.86550 0.36570 0.54200 0.14400
H 	H 	0.84660 0.31750 0.54570 0.15100
H 	H 	0.82650 0.31430 0.51320 0.13200
H 	H 	0.03120 0.42420 0.50100 0.12300
H 	H 	0.00390 0.38070 0.51920 0.14500
H 	H 	0.04860 0.44190 0.53770 0.14700
H 	H 	0.15250 0.62020 0.09510 0.11500
H 	H 	0.21360 0.65980 0.10180 0.13200
H 	H 	0.16900 0.60360 0.11040 0.12600
H 	H 	0.13280 0.51560 0.98260 0.11200
H 	H 	0.18540 0.54750 0.00630 0.13700
H 	H 	0.19080 0.57870 0.98690 0.13600
H 	H 	0.59190 0.76850 0.48580 0.11700
H 	H 	0.57780 0.72460 0.49300 0.13900
H 	H 	0.53000 0.70670 0.47910 0.13500
H 	H 	0.53000 0.64710 0.35870 0.13800
H 	H 	0.53580 0.62650 0.38150 0.14800
H 	H 	0.58830 0.68230 0.37400 0.12900
H 	H 	0.23960 0.42250 0.12810 0.11800
H 	H 	0.27060 0.47140 0.11440 0.14100
H 	H 	0.24100 0.45780 0.13960 0.13800
H 	H 	0.46430 0.61750 0.22260 0.11600
H 	H 	0.45390 0.64280 0.21670 0.13900
H 	H 	0.47460 0.63830 0.19290 0.13600
H 	H 	0.74760 0.00610 0.40970 0.12000
H 	H 	0.76960 0.04640 0.43980 0.13900
H 	H 	0.71480 0.00800 0.41440 0.13700
H 	H 	0.61020 0.85630 0.49210 0.12600
H 	H 	0.64890 0.91400 0.51330 0.14700
H 	H 	0.67090 0.89950 0.51080 0.13300
H 	H 	0.50380 0.11460 0.67740 0.11900
H 	H 	0.46990 0.08700 0.64230 0.14100
H 	H 	0.50510 0.14450 0.66000 0.13900
H 	H 	0.28950 0.99550 0.68140 0.11900
H 	H 	0.33400 0.05630 0.70090 0.13000
H 	H 	0.31520 0.03950 0.66430 0.13700
H 	H 	0.46630 0.21500 0.70110 0.11900
H 	H 	0.40240 0.15620 0.69380 0.13900
H 	H 	0.44400 0.16650 0.70910 0.14300
H 	H 	0.40120 0.08630 0.57670 0.13900
H 	H 	0.45430 0.11410 0.59520 0.13300
H 	H 	0.39670 0.05940 0.60030 0.15200
H 	H 	0.44690 0.97060 0.80590 0.12500
H 	H 	0.47550 0.96510 0.79700 0.14300
H 	H 	0.51090 0.02020 0.81970 0.14000
H 	H 	0.53030 0.07850 0.70140 0.12300
H 	H 	0.58580 0.12370 0.72810 0.14200
H 	H 	0.56090 0.07350 0.70760 0.14600
H 	H 	0.71980 0.51000 0.59500 0.12300
H 	H 	0.74960 0.51480 0.57440 0.14300
H 	H 	0.72350 0.47830 0.59760 0.14100
H 	H 	0.95130 0.68430 0.67800 0.14300
H 	H 	0.91510 0.65590 0.70140 0.13500
H 	H 	0.91800 0.62820 0.68120 0.15100
H 	H 	0.81600 0.52460 0.71660 0.12900
H 	H 	0.82660 0.56260 0.70200 0.14700
H 	H 	0.76590 0.50220 0.69970 0.13100
H 	H 	0.80940 0.47280 0.58640 0.12700
H 	H 	0.76350 0.45870 0.57680 0.13600
H 	H 	0.82590 0.52040 0.58790 0.14000
H 	H 	0.81900 0.76820 0.61740 0.12400
H 	H 	0.81870 0.76740 0.58230 0.14100
H 	H 	0.76660 0.73500 0.59260 0.14400
H 	H 	0.70160 0.55420 0.55660 0.11600
H 	H 	0.66720 0.53860 0.57880 0.12600
H 	H 	0.65710 0.54160 0.54550 0.13200
H 	H 	0.33800 0.72850 0.03910 0.15200
H 	H 	0.27530 0.68370 0.02560 0.16200
H 	H 	0.29890 0.67360 0.01370 0.14100
H 	H 	0.22380 0.56540 0.11520 0.12000
H 	H 	0.18080 0.55370 0.10030 0.13900
H 	H 	0.23010 0.60390 0.13000 0.13700
H 	H 	0.31310 0.59730 0.16760 0.12000
H 	H 	0.31160 0.56530 0.18190 0.14200
H 	H 	0.27210 0.53760 0.14870 0.12600
H 	H 	0.45550 0.63630 0.10620 0.11500
H 	H 	0.43550 0.59780 0.12650 0.13300
H 	H 	0.48530 0.66150 0.14200 0.13300
H 	H 	0.49270 0.69200 0.04410 0.12600
H 	H 	0.52210 0.72280 0.01870 0.14500
H 	H 	0.46020 0.66020 0.00860 0.13900
H 	H 	0.40740 0.74410 0.01250 0.10800
H 	H 	0.40770 0.72940 0.97950 0.13500
H 	H 	0.46170 0.78970 0.00200 0.13300
H 	H 	0.93490 0.14440 0.60630 0.14800
H 	H 	0.99580 0.18420 0.61160 0.16000
H 	H 	0.96000 0.16080 0.57800 0.14000
H 	H 	0.06770 0.36960 0.61930 0.11700
H 	H 	0.11250 0.38280 0.63170 0.13700
H 	H 	0.07800 0.36860 0.65320 0.12900
H 	H 	0.00030 0.37820 0.61010 0.10800
H 	H 	0.00300 0.41000 0.59400 0.13200
H 	H 	0.02600 0.39920 0.58200 0.12500
H 	H 	0.79190 0.19260 0.50210 0.11100
H 	H 	0.82730 0.24330 0.48880 0.13100
H 	H 	0.79700 0.23130 0.51310 0.13400
H 	H 	0.72120 0.07610 0.48510 0.12300
H 	H 	0.66960 0.01150 0.47670 0.14400
H 	H 	0.71230 0.04380 0.45710 0.14200
H 	H 	0.82600 0.05370 0.54610 0.11100
H 	H 	0.78540 0.00580 0.51480 0.13400
H 	H 	0.76400 0.99580 0.54420 0.13000
H 	H 	0.12390 0.29330 0.57320 0.12300
H 	H 	0.07250 0.23540 0.57930 0.13700
H 	H 	0.06910 0.26550 0.56960 0.14400
H 	H 	0.13290 0.34520 0.70630 0.12400
H 	H 	0.14830 0.38630 0.69200 0.12500
H 	H 	0.08610 0.32530 0.68600 0.13700
H 	H 	0.25590 0.46280 0.74790 0.11900
H 	H 	0.27070 0.45730 0.77780 0.14300
H 	H 	0.30230 0.51370 0.77780 0.14100
H 	H 	0.45550 0.55650 0.73840 0.11700
H 	H 	0.47210 0.60290 0.73400 0.12700
H 	H 	0.47980 0.59950 0.76770 0.13900
H 	H 	0.44610 0.53860 0.65670 0.11400
H 	H 	0.44880 0.50600 0.64940 0.13300
H 	H 	0.46290 0.53960 0.62710 0.14000
H 	H 	0.22550 0.32080 0.56450 0.13900
H 	H 	0.24640 0.36350 0.54830 0.13500
H 	H 	0.26690 0.34760 0.54470 0.15300
H 	H 	0.62320 0.92520 0.91600 0.12800
H 	H 	0.65410 0.97050 0.89860 0.14500
H 	H 	0.59150 0.92390 0.89600 0.13400
H 	H 	0.58840 0.82670 0.79190 0.13900
H 	H 	0.54930 0.82030 0.77840 0.13900
H 	H 	0.61360 0.87770 0.78590 0.15500
H 	H 	0.47190 0.68990 0.76640 0.11000
H 	H 	0.50770 0.69060 0.76890 0.12200
H 	H 	0.44710 0.63940 0.74670 0.13300
H 	H 	0.39860 0.56120 0.85920 0.14100
H 	H 	0.34360 0.52800 0.83820 0.14100
H 	H 	0.36820 0.51870 0.82690 0.15500
H 	H 	0.39430 0.60760 0.92630 0.11000
H 	H 	0.41290 0.62320 0.96290 0.12600
H 	H 	0.36720 0.60730 0.94650 0.12800
H 	H 	0.57290 0.85190 0.96780 0.13700
H 	H 	0.52130 0.82970 0.96420 0.13100
H 	H 	0.54470 0.83300 0.99490 0.14900
H 	H 	0.53000 0.95070 0.74590 0.13000
H 	H 	0.49410 0.94920 0.73710 0.14600
H 	H 	0.50370 0.94560 0.77030 0.13300
H 	H 	0.69220 0.18740 0.80520 0.12500
H 	H 	0.63630 0.15770 0.79340 0.14300
H 	H 	0.67070 0.17640 0.77010 0.15000
H 	H 	0.82520 0.28160 0.82620 0.13000
H 	H 	0.86530 0.32770 0.85840 0.14600
H 	H 	0.80120 0.27380 0.85360 0.12900
H 	H 	0.85400 0.19880 0.90340 0.11700
H 	H 	0.89120 0.25470 0.92650 0.13400
H 	H 	0.91300 0.25520 0.90060 0.13600
H 	H 	0.77680 0.06100 0.86280 0.12700
H 	H 	0.73280 0.00670 0.87330 0.14200
H 	H 	0.74960 0.05350 0.88770 0.12600
H 	H 	0.55710 0.91900 0.78270 0.12400
H 	H 	0.54190 0.87810 0.79720 0.14900
H 	H 	0.56630 0.89440 0.76850 0.15300
H 	H 	0.37860 0.49780 0.51820 0.13000
H 	H 	0.35140 0.47830 0.54570 0.15100
H 	H 	0.32330 0.43450 0.51520 0.15300
H 	H 	0.44720 0.44100 0.58120 0.11700
H 	H 	0.40950 0.42480 0.60050 0.13400
H 	H 	0.47200 0.48640 0.60860 0.12900
H 	H 	0.58310 0.54370 0.59340 0.11700
H 	H 	0.63920 0.57320 0.60300 0.14000
H 	H 	0.58860 0.51630 0.57710 0.13100
H 	H 	0.69090 0.65860 0.49330 0.13200
H 	H 	0.73510 0.67610 0.51520 0.14900
H 	H 	0.73170 0.70770 0.52400 0.13500
H 	H 	0.64370 0.67940 0.45630 0.11500
H 	H 	0.64950 0.71720 0.44810 0.13600
H 	H 	0.61740 0.66630 0.42210 0.13400
H 	H 	0.42510 0.55060 0.46330 0.11900
H 	H 	0.44140 0.58470 0.44050 0.13600
H 	H 	0.46700 0.61230 0.47670 0.13100
Ag	Ag	0.99480 0.06108 0.51842 0.46000
Ag	Ag	0.92183 0.93817 0.51136 0.42900
Ag	Ag	0.49623 0.54309 0.02286 0.42900
Ag	Ag	0.87879 0.17327 0.06534 0.42300
Ag	Ag	0.90008 0.23237 0.13209 0.43600
Ag	Ag	0.78222 0.16614 0.27658 0.45800
Ag	Ag	0.82055 0.72674 0.78727 0.45200
Ag	Ag	0.75965 0.61022 0.77247 0.42200
Ag	Ag	0.70330 0.62112 0.72972 0.44000
Ag	Ag	0.52004 0.18919 0.88957 0.42600
Ag	Ag	0.55664 0.25061 0.83627 0.43100
Ag	Ag	0.62419 0.24390 0.86395 0.45800
Ag	Ag	0.14519 0.32605 0.43738 0.42900
Ag	Ag	0.02799 0.22599 0.38546 0.43100
Ag	Ag	0.09662 0.35098 0.41288 0.46000
Ag	Ag	0.07767 0.30137 0.92798 0.43800
Ag	Ag	0.17966 0.35268 0.90776 0.41800
Ag	Ag	0.12539 0.27833 0.96016 0.45600
Ag	Ag	0.23622 0.60089 0.87671 0.44000
Ag	Ag	0.21104 0.54503 0.80595 0.45100
Ag	Ag	0.29041 0.67125 0.82106 0.41900
Ag	Ag	0.40118 0.63366 0.60102 0.43500
Ag	Ag	0.41613 0.68244 0.66849 0.43300
Ag	Ag	0.28716 0.56839 0.61913 0.44100
Ag	Ag	0.74299 0.85589 0.71164 0.44000
Ag	Ag	0.85067 0.92515 0.69138 0.43400
Ag	Ag	0.78063 0.92639 0.65894 0.44700
Ag	Ag	0.53247 0.96490 0.00251 0.45300
Ag	Ag	0.48077 0.97591 0.95858 0.41700
Ag	Ag	0.60808 0.09082 0.00776 0.44200
N 	N 	0.95716 0.02336 0.55212 -0.21300
N 	N 	0.93102 0.97524 0.54926 -0.22500
N 	N 	0.39530 0.42351 0.99141 -0.23500
N 	N 	0.41802 0.46974 0.99436 -0.23400
N 	N 	0.01671 0.07101 0.45632 -0.22300
N 	N 	0.02435 0.09576 0.48251 -0.21700
N 	N 	0.81741 0.14894 0.07195 -0.23700
N 	N 	0.82610 0.17348 0.09938 -0.22300
N 	N 	0.80090 0.13834 0.32364 -0.22200
N 	N 	0.82461 0.16997 0.30398 -0.21700
N 	N 	0.99264 0.24663 0.07447 -0.21500
N 	N 	0.94153 0.20262 0.05455 -0.23100
N 	N 	0.85889 0.72438 0.81107 -0.21700
N 	N 	0.83305 0.67581 0.80546 -0.23100
N 	N 	0.04564 0.80819 0.85623 -0.23900
N 	N 	0.04982 0.83022 0.88244 -0.22900
N 	N 	0.74285 0.69436 0.73841 -0.22500
N 	N 	0.79130 0.73662 0.76092 -0.22400
N 	N 	0.48250 0.19637 0.87527 -0.23500
N 	N 	0.49594 0.21959 0.85193 -0.23400
N 	N 	0.29674 0.11556 0.83470 -0.23100
N 	N 	0.31481 0.14341 0.86402 -0.21900
N 	N 	0.59656 0.20120 0.89656 -0.21200
N 	N 	0.55549 0.18040 0.90549 -0.22700
N 	N 	0.10255 0.25140 0.42755 -0.23500
N 	N 	0.05301 0.20861 0.40602 -0.23200
N 	N 	0.99787 0.23989 0.36856 -0.22700
N 	N 	0.02284 0.28753 0.37817 -0.21400
N 	N 	0.16498 0.40798 0.45116 -0.21300
N 	N 	0.18675 0.39925 0.45700 -0.22000
N 	N 	0.11692 0.35531 0.90183 -0.22200
N 	N 	0.15776 0.37533 0.89269 -0.23300
N 	N 	0.21285 0.34336 0.92861 -0.22900
N 	N 	0.19398 0.31678 0.95096 -0.21100
N 	N 	0.06538 0.25134 0.97492 -0.21600
N 	N 	0.04457 0.25786 0.96023 -0.21900
N 	N 	0.19414 0.52584 0.86758 -0.22000
N 	N 	0.18627 0.50524 0.83891 -0.22200
N 	N 	0.24394 0.58537 0.77291 -0.21700
N 	N 	0.27475 0.63591 0.77806 -0.22800
N 	N 	0.31022 0.70798 0.86500 -0.23600
N 	N 	0.28884 0.68096 0.88680 -0.22200
N 	N 	0.47844 0.70154 0.63118 -0.23300
N 	N 	0.48315 0.71953 0.65968 -0.23300
N 	N 	0.35127 0.64598 0.68085 -0.23400
N 	N 	0.29934 0.60136 0.66170 -0.22500
N 	N 	0.27855 0.53704 0.57739 -0.22600
N 	N 	0.32481 0.56608 0.57029 -0.23100
N 	N 	0.77699 0.84448 0.72527 -0.22700
N 	N 	0.82173 0.87319 0.71652 -0.22500
N 	N 	0.87423 0.96549 0.65832 -0.23400
N 	N 	0.84406 0.96282 0.64308 -0.21800
N 	N 	0.71025 0.87867 0.67072 -0.22400
N 	N 	0.69725 0.85288 0.69253 -0.22300
N 	N 	0.45774 0.89536 0.97010 -0.21600
N 	N 	0.43597 0.90004 0.95301 -0.23100
N 	N 	0.52698 0.05101 0.95779 -0.23500
N 	N 	0.57848 0.09688 0.97656 -0.22000
N 	N 	0.64118 0.08465 0.03443 -0.22000
N 	N 	0.61205 0.03452 0.03017 -0.21900
C 	C 	0.96861 0.08125 0.58286 -0.48400
C 	C 	0.94631 0.03172 0.57463 0.15500
C 	C 	0.91273 0.98868 0.58761 -0.11100
C 	C 	0.90403 0.95401 0.57084 0.14900
C 	C 	0.86977 0.90021 0.57318 -0.47600
C 	C 	0.30681 0.32499 0.96820 -0.51200
C 	C 	0.34297 0.38159 0.97656 0.16200
C 	C 	0.33034 0.40043 0.96957 -0.12600
C 	C 	0.37994 0.45701 0.98135 0.16500
C 	C 	0.39336 0.49927 0.98083 -0.51000
C 	C 	0.02622 0.07976 0.40438 -0.47600
C 	C 	0.02971 0.09724 0.43555 0.15300
C 	C 	0.04535 0.13843 0.44798 -0.11600
C 	C 	0.04192 0.13665 0.47797 0.15800
C 	C 	0.05290 0.17030 0.50260 -0.48300
C 	C 	0.75156 0.08739 0.02095 -0.48700
C 	C 	0.77120 0.11871 0.05291 0.15000
C 	C 	0.74823 0.12216 0.06699 -0.11900
C 	C 	0.78447 0.15777 0.09624 0.16400
C 	C 	0.78125 0.17597 0.12282 -0.49800
C 	C 	0.82608 0.12877 0.36725 -0.49900
C 	C 	0.83921 0.15480 0.34281 0.16200
C 	C 	0.88736 0.19686 0.33482 -0.12200
C 	C 	0.87665 0.20519 0.31064 0.16200
C 	C 	0.91391 0.24480 0.29311 -0.48400
C 	C 	0.08598 0.31224 0.07522 -0.49000
C 	C 	0.02709 0.26442 0.05931 0.16200
C 	C 	0.99865 0.23248 0.02893 -0.11700
C 	C 	0.94448 0.19351 0.02679 0.15600
C 	C 	0.89539 0.14802 0.00041 -0.49900
C 	C 	0.94726 0.82049 0.83795 -0.49000
C 	C 	0.90937 0.76286 0.82823 0.16900
C 	C 	0.91769 0.74081 0.83410 -0.12100
C 	C 	0.86860 0.68576 0.81956 0.15600
C 	C 	0.85191 0.64065 0.81816 -0.49000
C 	C 	0.98137 0.74268 0.80545 -0.49900
C 	C 	0.99737 0.77233 0.83650 0.14900
C 	C 	0.96949 0.77064 0.84953 -0.12400
C 	C 	0.00493 0.80812 0.87845 0.17000
C 	C 	0.99744 0.82332 0.90376 -0.51700
C 	C 	0.68825 0.67809 0.69834 -0.50100
C 	C 	0.73607 0.71393 0.72500 0.16800
C 	C 	0.77999 0.76909 0.73868 -0.12400
C 	C 	0.81446 0.78220 0.76086 0.16700
C 	C 	0.86777 0.83503 0.78280 -0.50700
C 	C 	0.41715 0.14805 0.90560 -0.49500
C 	C 	0.44061 0.17600 0.88081 0.15300
C 	C 	0.42565 0.18585 0.86090 -0.12400
C 	C 	0.46231 0.21357 0.84308 0.16200
C 	C 	0.46805 0.23628 0.81853 -0.51400
C 	C 	0.32558 0.10239 0.80037 -0.50400
C 	C 	0.33452 0.12819 0.82971 0.15900
C 	C 	0.37833 0.16527 0.85640 -0.11700
C 	C 	0.36324 0.17305 0.87709 0.16200
C 	C 	0.39364 0.20821 0.90925 -0.49900
C 	C 	0.64998 0.20044 0.90382 -0.49500
C 	C 	0.60635 0.18401 0.90956 0.16300
C 	C 	0.57143 0.15119 0.92722 -0.11700
C 	C 	0.54003 0.15038 0.92381 0.15000
C 	C 	0.49447 0.12139 0.93686 -0.48200
C 	C 	0.15801 0.26968 0.46849 -0.53800
C 	C 	0.10741 0.23227 0.44408 0.17800
C 	C 	0.06018 0.17598 0.43356 -0.12700
C 	C 	0.02684 0.16244 0.40928 0.15200
C 	C 	0.97134 0.10826 0.38920 -0.48600
C 	C 	0.90899 0.14529 0.33708 -0.48100
C 	C 	0.94706 0.20221 0.35167 0.14800
C 	C 	0.93822 0.22500 0.35002 -0.10900
C 	C 	0.98780 0.27890 0.36710 0.15500
C 	C 	0.00359 0.32409 0.37368 -0.47900
C 	C 	0.17114 0.46369 0.47603 -0.50800
C 	C 	0.18591 0.44497 0.47508 0.16800
C 	C 	0.22240 0.46010 0.49790 -0.11600
C 	C 	0.22128 0.43074 0.48542 0.14900
C 	C 	0.25011 0.42815 0.49906 -0.47400
C 	C 	0.07366 0.36804 0.90010 -0.53000
C 	C 	0.11508 0.38189 0.89437 0.17700
C 	C 	0.15564 0.41977 0.88021 -0.12000
C 	C 	0.18139 0.41437 0.87956 0.14500
C 	C 	0.22868 0.44474 0.86782 -0.48500
C 	C 	0.29375 0.40726 0.90941 -0.47100
C 	C 	0.26273 0.37420 0.93153 0.13800
C 	C 	0.27751 0.36935 0.95586 -0.10800
C 	C 	0.23250 0.33234 0.96744 0.15400
C 	C 	0.22311 0.30914 0.99305 -0.46800
C 	C 	0.06738 0.23036 0.02234 -0.49900
C 	C 	0.05173 0.24070 0.00123 0.16500
C 	C 	0.02124 0.24034 0.00358 -0.11700
C 	C 	0.01750 0.25113 0.97723 0.15000
C 	C 	0.98954 0.25581 0.96715 -0.47200
C 	C 	0.18939 0.51139 0.91878 -0.50000
C 	C 	0.18360 0.49756 0.88596 0.16200
C 	C 	0.16944 0.45878 0.86882 -0.11800
C 	C 	0.17089 0.46459 0.83968 0.15600
C 	C 	0.15991 0.43427 0.81138 -0.48600
C 	C 	0.21645 0.52005 0.73470 -0.49100
C 	C 	0.24545 0.57291 0.74616 0.16600
C 	C 	0.27870 0.61661 0.73371 -0.11400
C 	C 	0.29648 0.65558 0.75466 0.14600
C 	C 	0.33188 0.71047 0.75355 -0.48600
C 	C 	0.37692 0.79947 0.85959 -0.48800
C 	C 	0.34630 0.75965 0.87795 0.14300
C 	C 	0.34946 0.76715 0.90901 -0.12000
C 	C 	0.31220 0.71621 0.91361 0.16700
C 	C 	0.29516 0.69780 0.94136 -0.51200
C 	C 	0.53476 0.72196 0.60252 -0.50300
C 	C 	0.52748 0.73365 0.63013 0.16300
C 	C 	0.56475 0.77331 0.65826 -0.13000
C 	C 	0.53517 0.76299 0.67596 0.17600
C 	C 	0.55241 0.79200 0.70761 -0.52000
C 	C 	0.40141 0.70471 0.73372 -0.47100
C 	C 	0.34977 0.65794 0.70791 0.14700
C 	C 	0.29666 0.62082 0.70688 -0.12200
C 	C 	0.26650 0.58612 0.67722 0.17400
C 	C 	0.20750 0.53903 0.66193 -0.51800
C 	C 	0.17977 0.45519 0.55436 -0.46100
C 	C 	0.23684 0.49669 0.55253 0.14600
C 	C 	0.25524 0.49902 0.52886 -0.11900
C 	C 	0.31063 0.54279 0.54142 0.16500
C 	C 	0.35329 0.56570 0.52739 -0.50500
C 	C 	0.70806 0.76646 0.74632 -0.50100
C 	C 	0.75617 0.80387 0.73444 0.15900
C 	C 	0.78819 0.80579 0.73138 -0.11500
C 	C 	0.82826 0.84979 0.71985 0.16400
C 	C 	0.87420 0.87192 0.71212 -0.50100
C 	C 	0.94001 0.98290 0.65151 -0.50600
C 	C 	0.90227 0.97577 0.64044 0.16200
C 	C 	0.89215 0.98106 0.61361 -0.11900
C 	C 	0.85610 0.97326 0.61656 0.15700
C 	C 	0.83136 0.97543 0.59459 -0.47700
C 	C 	0.66568 0.87420 0.63088 -0.49300
C 	C 	0.66547 0.85518 0.65585 0.15600
C 	C 	0.62267 0.81347 0.66794 -0.11700
C 	C 	0.64521 0.81430 0.69131 0.16800
C 	C 	0.61989 0.77985 0.71254 -0.50900
C 	C 	0.44101 0.82868 0.97069 -0.52400
C 	C 	0.42854 0.84665 0.95739 0.18000
C 	C 	0.38791 0.81972 0.93163 -0.12300
C 	C 	0.39378 0.85485 0.92983 0.15300
C 	C 	0.36115 0.84768 0.90803 -0.48800
C 	C 	0.46480 0.02167 0.91407 -0.48500
C 	C 	0.51801 0.06416 0.93817 0.14400
C 	C 	0.56480 0.12042 0.94382 -0.11800
C 	C 	0.60152 0.13912 0.96804 0.16600
C 	C 	0.65764 0.19591 0.98535 -0.50100
C 	C 	0.73614 0.18177 0.05611 -0.47800
C 	C 	0.69346 0.12259 0.04845 0.15000
C 	C 	0.69881 0.09716 0.05377 -0.11000
C 	C 	0.64647 0.04189 0.04156 0.15700
C 	C 	0.62667 0.99469 0.04016 -0.48800
H 	H 	0.99210 0.10480 0.57010 0.11900
H 	H 	0.98960 0.10090 0.60450 0.14100
H 	H 	0.93860 0.07010 0.57930 0.13800
H 	H 	0.87350 0.88690 0.55860 0.11100
H 	H 	0.83190 0.87460 0.56850 0.13100
H 	H 	0.88160 0.90390 0.59410 0.13300
H 	H 	0.32370 0.32350 0.95800 0.14400
H 	H 	0.27180 0.30090 0.95430 0.15100
H 	H 	0.30110 0.31330 0.98680 0.13200
H 	H 	0.42320 0.53020 0.99900 0.12300
H 	H 	0.36150 0.48470 0.98080 0.14500
H 	H 	0.40420 0.51090 0.96230 0.14700
H 	H 	0.02510 0.05740 0.40490 0.11600
H 	H 	0.05800 0.11180 0.39820 0.13300
H 	H 	0.99320 0.05860 0.38960 0.12800
H 	H 	0.03300 0.15020 0.51740 0.11200
H 	H 	0.04120 0.17910 0.49370 0.13700
H 	H 	0.09180 0.20390 0.51310 0.13600
H 	H 	0.78270 0.10610 0.01420 0.11800
H 	H 	0.73160 0.08480 0.00700 0.13900
H 	H 	0.72760 0.05090 0.02090 0.13500
H 	H 	0.78840 0.17130 0.14130 0.13800
H 	H 	0.74500 0.15430 0.11850 0.14800
H 	H 	0.80830 0.21430 0.12600 0.12900
H 	H 	0.79440 0.11150 0.37190 0.11800
H 	H 	0.85700 0.15620 0.38560 0.14100
H 	H 	0.81820 0.10140 0.36040 0.13800
H 	H 	0.89490 0.24170 0.27740 0.11600
H 	H 	0.92610 0.23720 0.28330 0.13900
H 	H 	0.94540 0.28170 0.30710 0.13600
H 	H 	0.09640 0.33790 0.09030 0.11900
H 	H 	0.10660 0.32980 0.06020 0.13900
H 	H 	0.09360 0.30040 0.08560 0.13700
H 	H 	0.86420 0.11810 0.00790 0.12500
H 	H 	0.90070 0.13560 0.98670 0.14600
H 	H 	0.88870 0.16010 0.98920 0.13300
H 	H 	0.93720 0.82640 0.82260 0.11800
H 	H 	0.94470 0.82760 0.85770 0.14100
H 	H 	0.98450 0.84510 0.84000 0.13800
H 	H 	0.81410 0.60810 0.81860 0.11800
H 	H 	0.85540 0.63310 0.79910 0.12900
H 	H 	0.87520 0.65090 0.83570 0.13700
H 	H 	0.01390 0.76520 0.79890 0.12000
H 	H 	0.96240 0.70860 0.80620 0.14000
H 	H 	0.95740 0.73490 0.79090 0.14300
H 	H 	0.00960 0.82450 0.92330 0.14300
H 	H 	0.01890 0.85910 0.90480 0.13700
H 	H 	0.95910 0.79640 0.89970 0.15500
H 	H 	0.66470 0.64100 0.69410 0.12500
H 	H 	0.66810 0.67850 0.70300 0.14400
H 	H 	0.70050 0.69120 0.68030 0.14000
H 	H 	0.87710 0.82890 0.79860 0.12300
H 	H 	0.89560 0.85770 0.77190 0.14200
H 	H 	0.86590 0.85330 0.79240 0.14600
H 	H 	0.41500 0.12480 0.90500 0.12300
H 	H 	0.44040 0.17520 0.92560 0.14300
H 	H 	0.38070 0.12590 0.90240 0.14100
H 	H 	0.50630 0.27330 0.82200 0.14300
H 	H 	0.45450 0.21370 0.79860 0.13500
H 	H 	0.44700 0.23680 0.81880 0.15100
H 	H 	0.30800 0.09940 0.78340 0.12900
H 	H 	0.36060 0.12460 0.79800 0.14700
H 	H 	0.30250 0.06620 0.80030 0.13100
H 	H 	0.38640 0.22300 0.91360 0.12700
H 	H 	0.38190 0.18670 0.92320 0.13600
H 	H 	0.43250 0.23800 0.91210 0.14000
H 	H 	0.65080 0.20160 0.88260 0.12400
H 	H 	0.68510 0.23640 0.91770 0.14100
H 	H 	0.64240 0.17400 0.90740 0.14400
H 	H 	0.49760 0.14500 0.94340 0.11600
H 	H 	0.45980 0.08840 0.92120 0.12600
H 	H 	0.49610 0.11160 0.95450 0.13200
H 	H 	0.18940 0.29890 0.46090 0.15200
H 	H 	0.15810 0.24970 0.47440 0.16100
H 	H 	0.15990 0.28520 0.48630 0.14100
H 	H 	0.95020 0.10860 0.38480 0.12000
H 	H 	0.95340 0.08050 0.39970 0.13900
H 	H 	0.97390 0.10010 0.37000 0.13700
H 	H 	0.92970 0.14550 0.33240 0.12000
H 	H 	0.88340 0.12970 0.31810 0.14200
H 	H 	0.88890 0.12340 0.35130 0.12600
H 	H 	0.03010 0.34930 0.39380 0.11600
H 	H 	0.97130 0.30900 0.37350 0.13400
H 	H 	0.01950 0.34330 0.35800 0.13400
H 	H 	0.14790 0.44860 0.45590 0.12600
H 	H 	0.20410 0.50340 0.48130 0.14500
H 	H 	0.15160 0.45160 0.49140 0.13900
H 	H 	0.23160 0.39490 0.48750 0.10800
H 	H 	0.24990 0.42820 0.52050 0.13500
H 	H 	0.28770 0.45970 0.49800 0.13300
H 	H 	0.03810 0.32860 0.89370 0.14700
H 	H 	0.07260 0.38420 0.88840 0.16000
H 	H 	0.08280 0.38200 0.92200 0.13900
H 	H 	0.25030 0.44840 0.88070 0.11800
H 	H 	0.25110 0.48080 0.86830 0.13700
H 	H 	0.21540 0.42480 0.84680 0.12900
H 	H 	0.26810 0.39020 0.88990 0.10900
H 	H 	0.31600 0.40900 0.90600 0.13300
H 	H 	0.31720 0.44400 0.91800 0.12600
H 	H 	0.19050 0.28980 0.99790 0.11100
H 	H 	0.25450 0.33850 0.01120 0.13100
H 	H 	0.21820 0.28390 0.98690 0.13400
H 	H 	0.09100 0.23610 0.01490 0.12300
H 	H 	0.03480 0.19290 0.02330 0.14300
H 	H 	0.08670 0.25520 0.04290 0.14200
H 	H 	0.00760 0.27990 0.95390 0.11100
H 	H 	0.99100 0.27060 0.98520 0.13400
H 	H 	0.95160 0.21980 0.95580 0.13000
H 	H 	0.22010 0.55070 0.92680 0.12300
H 	H 	0.15610 0.49320 0.92070 0.13800
H 	H 	0.19590 0.49950 0.93040 0.14500
H 	H 	0.13890 0.42660 0.79370 0.12400
H 	H 	0.19430 0.45630 0.80800 0.12500
H 	H 	0.13930 0.40010 0.81400 0.13700
H 	H 	0.21490 0.50800 0.75210 0.11900
H 	H 	0.17950 0.49290 0.72220 0.14300
H 	H 	0.23590 0.52450 0.72220 0.14100
H 	H 	0.31810 0.71710 0.76160 0.11700
H 	H 	0.36890 0.73810 0.76600 0.12700
H 	H 	0.33180 0.71210 0.73230 0.13900
H 	H 	0.38190 0.78940 0.84330 0.11400
H 	H 	0.35660 0.79940 0.85060 0.13300
H 	H 	0.41250 0.83580 0.87290 0.14000
H 	H 	0.25630 0.66100 0.93550 0.13900
H 	H 	0.31520 0.69810 0.95170 0.13500
H 	H 	0.30290 0.72220 0.95530 0.15300
H 	H 	0.50920 0.70720 0.58400 0.12800
H 	H 	0.57190 0.75550 0.60140 0.14500
H 	H 	0.52790 0.69550 0.60400 0.13500
H 	H 	0.53480 0.79650 0.70810 0.13900
H 	H 	0.54190 0.77090 0.72160 0.13900
H 	H 	0.59180 0.82770 0.71410 0.15500
H 	H 	0.42350 0.70550 0.73360 0.11000
H 	H 	0.42170 0.73880 0.73110 0.12200
H 	H 	0.39270 0.70040 0.75330 0.13300
H 	H 	0.20200 0.53940 0.64080 0.14100
H 	H 	0.18980 0.50540 0.66180 0.14100
H 	H 	0.19180 0.54130 0.67310 0.15500
H 	H 	0.18130 0.46800 0.57370 0.11000
H 	H 	0.16030 0.45000 0.53710 0.12600
H 	H 	0.16080 0.42070 0.55350 0.12800
H 	H 	0.38410 0.60510 0.53220 0.13700
H 	H 	0.36550 0.55710 0.53580 0.13100
H 	H 	0.33810 0.54980 0.50510 0.14900
H 	H 	0.70480 0.78410 0.75410 0.13000
H 	H 	0.71210 0.75700 0.76290 0.14600
H 	H 	0.67530 0.73340 0.72970 0.13300
H 	H 	0.88220 0.88700 0.69480 0.12500
H 	H 	0.86430 0.84290 0.70660 0.14300
H 	H 	0.90630 0.90060 0.72990 0.15000
H 	H 	0.95540 0.99900 0.67380 0.13100
H 	H 	0.96930 0.00690 0.64160 0.14800
H 	H 	0.92020 0.94760 0.64640 0.13000
H 	H 	0.79540 0.95060 0.59660 0.11700
H 	H 	0.82820 0.96470 0.57350 0.13500
H 	H 	0.85460 0.01240 0.59940 0.13700
H 	H 	0.69820 0.91400 0.63720 0.12700
H 	H 	0.63340 0.85950 0.62670 0.14200
H 	H 	0.66580 0.86190 0.61230 0.12600
H 	H 	0.63630 0.77440 0.71730 0.12400
H 	H 	0.58090 0.74470 0.70280 0.14900
H 	H 	0.62590 0.79780 0.73150 0.15300
H 	H 	0.47960 0.86040 0.98180 0.13000
H 	H 	0.43260 0.80570 0.95430 0.15100
H 	H 	0.41930 0.80810 0.98480 0.15300
H 	H 	0.35980 0.86600 0.91880 0.11700
H 	H 	0.32430 0.80900 0.89950 0.13400
H 	H 	0.37780 0.86340 0.89140 0.12900
H 	H 	0.45030 0.98970 0.90660 0.11700
H 	H 	0.47020 0.03620 0.89700 0.14000
H 	H 	0.43920 0.01150 0.92290 0.13100
H 	H 	0.66530 0.19760 0.00670 0.13200
H 	H 	0.66090 0.21990 0.98480 0.14900
H 	H 	0.68370 0.20770 0.97600 0.13500
H 	H 	0.72310 0.18740 0.04370 0.11500
H 	H 	0.76910 0.20140 0.05190 0.13600
H 	H 	0.74420 0.19530 0.07790 0.13400
H 	H 	0.58730 0.96180 0.03670 0.11900
H 	H 	0.64420 0.00090 0.05950 0.13700
H 	H 	0.63560 0.99030 0.02330 0.13200
Ag	Ag	0.97638 0.49480 0.43372 0.45900
Ag	Ag	0.91047 0.42183 0.48366 0.42900
Ag	Ag	0.97337 0.99623 0.45314 0.42800
Ag	Ag	0.31345 0.37879 0.20552 0.42300
Ag	Ag	0.26799 0.40008 0.16771 0.43600
Ag	Ag	0.00564 0.28222 0.11608 0.45800
Ag	Ag	0.53328 0.32055 0.59381 0.45200
Ag	Ag	0.48718 0.25965 0.64943 0.42200
Ag	Ag	0.47358 0.20330 0.58218 0.44000
Ag	Ag	0.13047 0.02004 0.83085 0.42500
Ag	Ag	0.22037 0.05664 0.80603 0.43100
Ag	Ag	0.26024 0.12419 0.88029 0.45800
Ag	Ag	0.20781 0.64519 0.31914 0.42900
Ag	Ag	0.14253 0.52799 0.30200 0.43100
Ag	Ag	0.18374 0.59662 0.24564 0.46000
Ag	Ag	0.64969 0.57767 0.27630 0.43800
Ag	Ag	0.77190 0.67966 0.32698 0.41800
Ag	Ag	0.66523 0.62539 0.34706 0.45600
Ag	Ag	0.85951 0.73622 0.13533 0.44000
Ag	Ag	0.90509 0.71104 0.16601 0.45100
Ag	Ag	0.96935 0.79041 0.11916 0.41900
Ag	Ag	0.30016 0.90118 0.26752 0.43500
Ag	Ag	0.24764 0.91613 0.23369 0.43300
Ag	Ag	0.16803 0.78716 0.21877 0.44100
Ag	Ag	0.53135 0.24299 0.38710 0.44000
Ag	Ag	0.65929 0.35067 0.42552 0.43400
Ag	Ag	0.62169 0.28063 0.35424 0.44700
Ag	Ag	0.02996 0.03247 0.06757 0.45300
Ag	Ag	0.02219 0.98077 0.00486 0.41800
Ag	Ag	0.10032 0.10808 0.01726 0.44200
N 	N 	0.90504 0.45716 0.43380 -0.21300
N 	N 	0.88176 0.43102 0.45578 -0.22500
N 	N 	0.90389 0.89530 0.47179 -0.23500
N 	N 	0.92366 0.91802 0.44828 -0.23400
N 	N 	0.06039 0.51671 0.44570 -0.22300
N 	N 	0.04184 0.52435 0.42859 -0.21600
N 	N 	0.24546 0.31741 0.16847 -0.23700
N 	N 	0.22672 0.32610 0.15262 -0.22300
N 	N 	0.97726 0.30090 0.16256 -0.22200
N 	N 	0.02063 0.32461 0.15464 -0.21800
N 	N 	0.41817 0.49264 0.24601 -0.21500
N 	N 	0.38698 0.44153 0.23891 -0.23100
N 	N 	0.54782 0.35889 0.63451 -0.21700
N 	N 	0.52759 0.33305 0.65724 -0.23100
N 	N 	0.68941 0.54564 0.73745 -0.23900
N 	N 	0.66738 0.54982 0.71960 -0.22900
N 	N 	0.50444 0.24285 0.54849 -0.22500
N 	N 	0.53038 0.29130 0.55468 -0.22400
N 	N 	0.10723 0.98250 0.78613 -0.23400
N 	N 	0.14401 0.99594 0.77635 -0.23300
N 	N 	0.96204 0.79674 0.68118 -0.23200
N 	N 	0.95079 0.81481 0.67140 -0.21900
N 	N 	0.20000 0.09656 0.89536 -0.21200
N 	N 	0.15000 0.05549 0.87509 -0.22700
N 	N 	0.17500 0.60255 0.35115 -0.23500
N 	N 	0.14699 0.55301 0.34440 -0.23200
N 	N 	0.12931 0.49787 0.25798 -0.22700
N 	N 	0.14467 0.52284 0.23531 -0.21300
N 	N 	0.21382 0.66498 0.25700 -0.21300
N 	N 	0.22975 0.68675 0.28750 -0.22000
N 	N 	0.71509 0.61692 0.26161 -0.22200
N 	N 	0.76507 0.65776 0.28243 -0.23300
N 	N 	0.78424 0.71285 0.36949 -0.22900
N 	N 	0.74302 0.69398 0.37720 -0.21100
N 	N 	0.59046 0.56538 0.31404 -0.21600
N 	N 	0.58434 0.54457 0.28671 -0.21900
N 	N 	0.82656 0.69414 0.16830 -0.22000
N 	N 	0.84736 0.68627 0.18103 -0.22200
N 	N 	0.97103 0.74394 0.15857 -0.21700
N 	N 	0.99669 0.77475 0.13884 -0.22800
N 	N 	0.94522 0.81022 0.10224 -0.23600
N 	N 	0.90204 0.78884 0.10788 -0.22200
N 	N 	0.34726 0.97844 0.27690 -0.23200
N 	N 	0.32347 0.98315 0.26362 -0.23300
N 	N 	0.17042 0.85127 0.20529 -0.23400
N 	N 	0.13764 0.79934 0.19798 -0.22500
N 	N 	0.20116 0.77855 0.24151 -0.22600
N 	N 	0.25452 0.82481 0.25873 -0.23100
N 	N 	0.55172 0.27699 0.43251 -0.22700
N 	N 	0.60521 0.32173 0.44854 -0.22500
N 	N 	0.71591 0.37423 0.40874 -0.23300
N 	N 	0.70098 0.34406 0.38124 -0.21800
N 	N 	0.53953 0.21025 0.33158 -0.22400
N 	N 	0.50472 0.19725 0.34437 -0.22300
N 	N 	0.98764 0.95774 0.06238 -0.21600
N 	N 	0.98296 0.93597 0.03593 -0.23100
N 	N 	0.06919 0.02698 0.97597 -0.23500
N 	N 	0.10192 0.07848 0.98160 -0.22000
N 	N 	0.10675 0.14118 0.05653 -0.22000
N 	N 	0.08188 0.11205 0.07753 -0.21900
C 	C 	0.88575 0.46861 0.38736 -0.48200
C 	C 	0.87168 0.44631 0.41459 0.15300
C 	C 	0.82512 0.41273 0.42405 -0.11000
C 	C 	0.83319 0.40403 0.45002 0.14900
C 	C 	0.79659 0.36977 0.46956 -0.47600
C 	C 	0.83861 0.80681 0.48182 -0.51200
C 	C 	0.86641 0.84297 0.46138 0.16200
C 	C 	0.86077 0.83034 0.42991 -0.12600
C 	C 	0.89859 0.87994 0.42293 0.16400
C 	C 	0.91253 0.89336 0.39409 -0.51000
C 	C 	0.12184 0.52622 0.44646 -0.47200
C 	C 	0.09416 0.52971 0.43247 0.15200
C 	C 	0.09737 0.54535 0.40692 -0.11500
C 	C 	0.06395 0.54192 0.40527 0.15800
C 	C 	0.05030 0.55290 0.38260 -0.48300
C 	C 	0.23061 0.25156 0.16417 -0.48700
C 	C 	0.21829 0.27120 0.15249 0.15000
C 	C 	0.18124 0.24823 0.12607 -0.11900
C 	C 	0.18823 0.28447 0.12670 0.16400
C 	C 	0.15843 0.28125 0.10528 -0.49800
C 	C 	0.95883 0.32608 0.19731 -0.49900
C 	C 	0.99640 0.33921 0.18441 0.16300
C 	C 	0.05254 0.38736 0.19050 -0.12300
C 	C 	0.06601 0.37665 0.17146 0.16300
C 	C 	0.12080 0.41391 0.16911 -0.48400
C 	C 	0.51076 0.58598 0.27374 -0.49200
C 	C 	0.46778 0.52709 0.26267 0.16400
C 	C 	0.46972 0.49865 0.26617 -0.11900
C 	C 	0.41769 0.44448 0.25097 0.15700
C 	C 	0.39498 0.39539 0.24737 -0.50100
C 	C 	0.60931 0.44726 0.62677 -0.49100
C 	C 	0.58114 0.40937 0.64651 0.17000
C 	C 	0.58359 0.41769 0.67688 -0.12300
C 	C 	0.54904 0.36860 0.68284 0.15700
C 	C 	0.53375 0.35191 0.71126 -0.49100
C 	C 	0.67592 0.48137 0.73869 -0.49600
C 	C 	0.66087 0.49737 0.72504 0.14900
C 	C 	0.61996 0.46949 0.69885 -0.12100
C 	C 	0.62648 0.50493 0.69681 0.16500
C 	C 	0.59368 0.49744 0.67412 -0.50500
C 	C 	0.48991 0.18825 0.51016 -0.50100
C 	C 	0.51107 0.23607 0.52214 0.16800
C 	C 	0.54131 0.27999 0.51090 -0.12400
C 	C 	0.55360 0.31446 0.53226 0.16700
C 	C 	0.58497 0.36777 0.53274 -0.50700
C 	C 	0.01155 0.91715 0.76910 -0.49100
C 	C 	0.05980 0.94061 0.76461 0.15300
C 	C 	0.06475 0.92565 0.73980 -0.12300
C 	C 	0.11923 0.96231 0.74874 0.16100
C 	C 	0.14952 0.96805 0.73177 -0.51100
C 	C 	0.02521 0.82558 0.72319 -0.50500
C 	C 	0.00481 0.83452 0.70633 0.16000
C 	C 	0.02193 0.87833 0.71306 -0.11700
C 	C 	0.98615 0.86324 0.69019 0.16200
C 	C 	0.98439 0.89364 0.68543 -0.50300
C 	C 	0.24616 0.14998 0.94954 -0.49500
C 	C 	0.19679 0.10635 0.92234 0.16300
C 	C 	0.14421 0.07143 0.92024 -0.11700
C 	C 	0.11622 0.04003 0.88965 0.14900
C 	C 	0.05761 0.99447 0.87308 -0.48100
C 	C 	0.18952 0.65801 0.38833 -0.53800
C 	C 	0.16333 0.60741 0.37514 0.17800
C 	C 	0.12662 0.56018 0.38420 -0.12700
C 	C 	0.11756 0.52684 0.36440 0.15300
C 	C 	0.08214 0.47134 0.36308 -0.48800
C 	C 	0.07191 0.40899 0.26370 -0.48000
C 	C 	0.09539 0.44706 0.24485 0.14700
C 	C 	0.08820 0.43822 0.21322 -0.10800
C 	C 	0.12070 0.48780 0.20890 0.15300
C 	C 	0.12991 0.50359 0.17950 -0.47500
C 	C 	0.19511 0.67114 0.20745 -0.50800
C 	C 	0.21083 0.68591 0.24094 0.16800
C 	C 	0.22450 0.72240 0.26230 -0.11600
C 	C 	0.23586 0.72128 0.29054 0.14900
C 	C 	0.25105 0.75011 0.32196 -0.47400
C 	C 	0.67356 0.57366 0.20562 -0.53100
C 	C 	0.72071 0.61508 0.23319 0.17700
C 	C 	0.77543 0.65564 0.23587 -0.12000
C 	C 	0.80183 0.68139 0.26702 0.14500
C 	C 	0.86086 0.72868 0.28394 -0.48500
C 	C 	0.88434 0.79375 0.38649 -0.47000
C 	C 	0.83120 0.76273 0.38853 0.13800
C 	C 	0.82165 0.77751 0.40816 -0.10800
C 	C 	0.76506 0.73250 0.40016 0.15400
C 	C 	0.73006 0.72311 0.41397 -0.46800
C 	C 	0.54504 0.56738 0.33702 -0.49900
C 	C 	0.55050 0.55173 0.31103 0.16500
C 	C 	0.51766 0.52124 0.28090 -0.11600
C 	C 	0.54027 0.51750 0.26637 0.15000
C 	C 	0.52239 0.48954 0.23373 -0.47500
C 	C 	0.77061 0.68939 0.17800 -0.50000
C 	C 	0.79764 0.68360 0.18604 0.16200
C 	C 	0.80062 0.66944 0.21066 -0.11800
C 	C 	0.83121 0.67089 0.20630 0.15600
C 	C 	0.84853 0.65991 0.22564 -0.48600
C 	C 	0.98175 0.71645 0.19640 -0.49200
C 	C 	0.99929 0.74545 0.17254 0.16600
C 	C 	0.04499 0.77870 0.16209 -0.11400
C 	C 	0.04182 0.79648 0.14090 0.14700
C 	C 	0.07833 0.83188 0.12141 -0.48700
C 	C 	0.01733 0.87692 0.07745 -0.48600
C 	C 	0.96835 0.84630 0.08665 0.14200
C 	C 	0.94045 0.84946 0.08231 -0.11900
C 	C 	0.89859 0.81220 0.09599 0.16700
C 	C 	0.85380 0.79516 0.09736 -0.51200
C 	C 	0.43224 0.03476 0.31280 -0.50200
C 	C 	0.39735 0.02748 0.29383 0.16200
C 	C 	0.40649 0.06475 0.29144 -0.13000
C 	C 	0.35921 0.03517 0.27218 0.17500
C 	C 	0.34480 0.05241 0.26041 -0.51900
C 	C 	0.16769 0.90141 0.19670 -0.47200
C 	C 	0.14186 0.84977 0.19183 0.14700
C 	C 	0.08978 0.79666 0.17584 -0.12200
C 	C 	0.08928 0.76650 0.18038 0.17400
C 	C 	0.04557 0.70750 0.16847 -0.51900
C 	C 	0.12541 0.67977 0.22458 -0.46100
C 	C 	0.18431 0.73684 0.24015 0.14600
C 	C 	0.22638 0.75524 0.25622 -0.11900
C 	C 	0.26921 0.81063 0.26784 0.16500
C 	C 	0.32590 0.85329 0.28759 -0.50500
C 	C 	0.46174 0.20806 0.44160 -0.50100
C 	C 	0.52173 0.25617 0.45230 0.15900
C 	C 	0.55681 0.28819 0.48240 -0.11500
C 	C 	0.60841 0.32826 0.47847 0.16400
C 	C 	0.66208 0.37420 0.50228 -0.50200
C 	C 	0.78850 0.44001 0.45711 -0.50200
C 	C 	0.76183 0.40227 0.42650 0.16100
C 	C 	0.77854 0.39215 0.41109 -0.11900
C 	C 	0.73954 0.35610 0.38284 0.15600
C 	C 	0.73677 0.33136 0.35593 -0.47400
C 	C 	0.53480 0.16568 0.29148 -0.49400
C 	C 	0.50962 0.16547 0.31029 0.15600
C 	C 	0.45473 0.12267 0.30920 -0.11700
C 	C 	0.45390 0.14521 0.33091 0.16800
C 	C 	0.40735 0.11989 0.34004 -0.50900
C 	C 	0.97032 0.94101 0.11233 -0.52300
C 	C 	0.97115 0.92854 0.08189 0.18000
C 	C 	0.95628 0.88791 0.06819 -0.12300
C 	C 	0.96395 0.89378 0.03893 0.15300
C 	C 	0.95312 0.86115 0.01347 -0.48700
C 	C 	0.05073 0.96480 0.94313 -0.48300
C 	C 	0.07984 0.01801 0.95385 0.14200
C 	C 	0.12098 0.06480 0.94438 -0.11800
C 	C 	0.13348 0.10152 0.96240 0.16600
C 	C 	0.17229 0.15764 0.96173 -0.50000
C 	C 	0.18003 0.23614 0.05437 -0.47800
C 	C 	0.14501 0.19346 0.07087 0.15000
C 	C 	0.14504 0.19881 0.10165 -0.11000
C 	C 	0.10491 0.14647 0.10458 0.15600
C 	C 	0.08651 0.12667 0.13198 -0.48500
H 	H 	0.92200 0.49210 0.38730 0.11800
H 	H 	0.88510 0.48960 0.38870 0.14000
H 	H 	0.85930 0.43860 0.36850 0.13700
H 	H 	0.81490 0.37350 0.48660 0.11100
H 	H 	0.76340 0.33190 0.45730 0.13100
H 	H 	0.78750 0.38160 0.47770 0.13300
H 	H 	0.86570 0.82370 0.50020 0.14400
H 	H 	0.81750 0.77180 0.47090 0.15100
H 	H 	0.81430 0.80110 0.48780 0.13200
H 	H 	0.92420 0.92320 0.39300 0.12300
H 	H 	0.88070 0.86150 0.37680 0.14500
H 	H 	0.94190 0.90420 0.39330 0.14600
H 	H 	0.12020 0.52510 0.46770 0.11500
H 	H 	0.15980 0.55800 0.44620 0.13200
H 	H 	0.10360 0.49320 0.43460 0.12600
H 	H 	0.01560 0.53300 0.38280 0.11200
H 	H 	0.04750 0.54120 0.36210 0.13700
H 	H 	0.07870 0.59180 0.38790 0.13600
H 	H 	0.26850 0.28270 0.17660 0.11700
H 	H 	0.22460 0.23160 0.14680 0.13900
H 	H 	0.20670 0.22760 0.17670 0.13500
H 	H 	0.14710 0.28840 0.11710 0.13800
H 	H 	0.12650 0.24500 0.09070 0.14800
H 	H 	0.18230 0.30830 0.09400 0.12800
H 	H 	0.92250 0.29440 0.18290 0.11800
H 	H 	0.97140 0.35700 0.20080 0.14100
H 	H 	0.95780 0.31820 0.21680 0.13800
H 	H 	0.11750 0.39490 0.15320 0.11600
H 	H 	0.14280 0.42610 0.18890 0.13900
H 	H 	0.13830 0.44540 0.16370 0.13600
H 	H 	0.50610 0.59640 0.25850 0.12000
H 	H 	0.54640 0.60660 0.27680 0.13900
H 	H 	0.50800 0.59360 0.29320 0.13800
H 	H 	0.35630 0.36420 0.24610 0.12600
H 	H 	0.41400 0.40070 0.26510 0.14700
H 	H 	0.39950 0.38870 0.22860 0.13300
H 	H 	0.61460 0.43720 0.61080 0.11900
H 	H 	0.58700 0.44470 0.61710 0.14100
H 	H 	0.64450 0.48450 0.63940 0.13900
H 	H 	0.49550 0.31410 0.70600 0.11900
H 	H 	0.55630 0.35540 0.72230 0.12900
H 	H 	0.53950 0.37520 0.72430 0.13700
H 	H 	0.71500 0.51390 0.74870 0.11900
H 	H 	0.65620 0.46240 0.75380 0.13900
H 	H 	0.66650 0.45740 0.72250 0.14300
H 	H 	0.58630 0.50960 0.68510 0.13900
H 	H 	0.61410 0.51890 0.65980 0.13300
H 	H 	0.55940 0.45910 0.66270 0.15200
H 	H 	0.47060 0.16470 0.52370 0.12500
H 	H 	0.46510 0.16810 0.48960 0.14300
H 	H 	0.52020 0.20050 0.50930 0.14000
H 	H 	0.57850 0.37710 0.54820 0.12300
H 	H 	0.62370 0.39560 0.53790 0.14200
H 	H 	0.57350 0.36590 0.51260 0.14600
H 	H 	0.01000 0.91500 0.79020 0.12200
H 	H 	0.01480 0.94040 0.76520 0.14300
H 	H 	0.97830 0.88070 0.75480 0.14000
H 	H 	0.18430 0.00630 0.73300 0.14200
H 	H 	0.15590 0.95450 0.74080 0.13400
H 	H 	0.12820 0.94700 0.71020 0.15000
H 	H 	0.02460 0.80800 0.70860 0.12900
H 	H 	0.06260 0.86060 0.73600 0.14800
H 	H 	0.00220 0.80250 0.73630 0.13200
H 	H 	0.97280 0.88640 0.66340 0.12800
H 	H 	0.95870 0.88190 0.69520 0.13700
H 	H 	0.02040 0.93250 0.69450 0.14200
H 	H 	0.26820 0.15080 0.94920 0.12400
H 	H 	0.26740 0.18510 0.94870 0.14100
H 	H 	0.23500 0.14240 0.96840 0.14400
H 	H 	0.05420 0.99760 0.85260 0.11700
H 	H 	0.03860 0.95980 0.87140 0.12600
H 	H 	0.04160 0.99610 0.88450 0.13200
H 	H 	0.22850 0.68940 0.39050 0.15200
H 	H 	0.18370 0.65810 0.40840 0.16200
H 	H 	0.17360 0.65990 0.37470 0.14100
H 	H 	0.06540 0.45020 0.34160 0.12000
H 	H 	0.05370 0.45340 0.37290 0.13900
H 	H 	0.10390 0.47390 0.37380 0.13700
H 	H 	0.09730 0.42970 0.28420 0.12000
H 	H 	0.06530 0.38340 0.25370 0.14200
H 	H 	0.03760 0.38890 0.26550 0.12600
H 	H 	0.13630 0.53010 0.18080 0.11500
H 	H 	0.09780 0.47130 0.16230 0.13300
H 	H 	0.16150 0.51950 0.17620 0.13300
H 	H 	0.19200 0.64790 0.19930 0.12600
H 	H 	0.22280 0.70410 0.20070 0.14500
H 	H 	0.16020 0.65160 0.20000 0.13900
H 	H 	0.24410 0.73160 0.33670 0.10800
H 	H 	0.22940 0.74990 0.32170 0.13500
H 	H 	0.28970 0.78770 0.32800 0.13300
H 	H 	0.64440 0.53810 0.20950 0.14800
H 	H 	0.68420 0.57260 0.18840 0.16000
H 	H 	0.66080 0.58280 0.20080 0.13900
H 	H 	0.86960 0.75030 0.30190 0.11700
H 	H 	0.88280 0.75110 0.27030 0.13700
H 	H 	0.86860 0.71540 0.29060 0.12900
H 	H 	0.87820 0.76810 0.37790 0.10900
H 	H 	0.91000 0.81600 0.40700 0.13200
H 	H 	0.89920 0.81720 0.37320 0.12600
H 	H 	0.69260 0.69050 0.40070 0.11100
H 	H 	0.74330 0.75450 0.41600 0.13100
H 	H 	0.73130 0.71820 0.43430 0.13400
H 	H 	0.57610 0.59100 0.35490 0.12300
H 	H 	0.51150 0.53480 0.34190 0.14300
H 	H 	0.54380 0.58670 0.33150 0.14200
H 	H 	0.55370 0.50760 0.22770 0.11200
H 	H 	0.50580 0.49100 0.22040 0.13500
H 	H 	0.49580 0.45160 0.23180 0.13100
H 	H 	0.79330 0.72010 0.16940 0.12300
H 	H 	0.73540 0.65610 0.16290 0.13800
H 	H 	0.76550 0.69590 0.19640 0.14500
H 	H 	0.84520 0.63890 0.21230 0.12400
H 	H 	0.88630 0.69430 0.23800 0.12500
H 	H 	0.82530 0.63930 0.23920 0.13700
H 	H 	0.96280 0.71490 0.20690 0.12000
H 	H 	0.95730 0.67950 0.18660 0.14400
H 	H 	0.01370 0.73590 0.21140 0.14200
H 	H 	0.05650 0.81810 0.10100 0.11700
H 	H 	0.10290 0.86890 0.13080 0.12700
H 	H 	0.09950 0.83180 0.11970 0.13900
H 	H 	0.03860 0.88190 0.09250 0.11400
H 	H 	0.00600 0.85660 0.05720 0.13300
H 	H 	0.03960 0.91250 0.07670 0.14000
H 	H 	0.82080 0.75630 0.09530 0.13900
H 	H 	0.86350 0.81520 0.11710 0.13500
H 	H 	0.84760 0.80290 0.08070 0.15300
H 	H 	0.42520 0.00920 0.30200 0.12800
H 	H 	0.47050 0.07190 0.31640 0.14500
H 	H 	0.42390 0.02790 0.33240 0.13400
H 	H 	0.32670 0.03480 0.23830 0.13900
H 	H 	0.32030 0.04190 0.27100 0.13900
H 	H 	0.37770 0.09180 0.26410 0.15400
H 	H 	0.18990 0.92350 0.21800 0.11100
H 	H 	0.19060 0.92170 0.18290 0.12200
H 	H 	0.13940 0.89270 0.19230 0.13300
H 	H 	0.06120 0.70200 0.16260 0.14100
H 	H 	0.02800 0.68980 0.18440 0.14100
H 	H 	0.01870 0.69180 0.15050 0.15500
H 	H 	0.10760 0.68130 0.21330 0.11000
H 	H 	0.12320 0.66030 0.21030 0.12600
H 	H 	0.10730 0.66080 0.24010 0.12800
H 	H 	0.35190 0.88410 0.27900 0.13700
H 	H 	0.32970 0.86550 0.30840 0.13100
H 	H 	0.33300 0.83810 0.28830 0.14900
H 	H 	0.45070 0.20480 0.42070 0.13000
H 	H 	0.44920 0.21210 0.45510 0.14600
H 	H 	0.44560 0.17530 0.44190 0.13300
H 	H 	0.68740 0.38220 0.49520 0.12500
H 	H 	0.65770 0.36430 0.52140 0.14300
H 	H 	0.67640 0.40630 0.50570 0.15000
H 	H 	0.78160 0.45540 0.45640 0.13000
H 	H 	0.82770 0.46930 0.46240 0.14600
H 	H 	0.77380 0.42020 0.47260 0.12900
H 	H 	0.69880 0.29540 0.34480 0.11700
H 	H 	0.75470 0.32820 0.36350 0.13400
H 	H 	0.75520 0.35460 0.34220 0.13600
H 	H 	0.56100 0.19820 0.28420 0.12700
H 	H 	0.50670 0.13340 0.27390 0.14200
H 	H 	0.55350 0.16580 0.30390 0.12600
H 	H 	0.41900 0.13630 0.36190 0.12400
H 	H 	0.37810 0.08090 0.33620 0.14900
H 	H 	0.39440 0.12590 0.32810 0.15300
H 	H 	0.99780 0.97960 0.11920 0.13000
H 	H 	0.97830 0.93260 0.12690 0.15100
H 	H 	0.93450 0.91930 0.11120 0.15300
H 	H 	0.94100 0.85980 0.99380 0.11700
H 	H 	0.92480 0.82430 0.01530 0.13300
H 	H 	0.98640 0.87780 0.01440 0.12800
H 	H 	0.04370 0.95030 0.96060 0.11700
H 	H 	0.07320 0.97020 0.93400 0.14000
H 	H 	0.01630 0.93920 0.92770 0.13100
H 	H 	0.15860 0.16530 0.96770 0.13200
H 	H 	0.17610 0.16090 0.94100 0.14900
H 	H 	0.20770 0.18370 0.97600 0.13500
H 	H 	0.17940 0.22310 0.03570 0.11500
H 	H 	0.21720 0.26910 0.06770 0.13600
H 	H 	0.16630 0.24420 0.04890 0.13400
H 	H 	0.05060 0.08730 0.12550 0.11800
H 	H 	0.08470 0.14420 0.14330 0.13600
H 	H 	0.11230 0.13560 0.14530 0.13100
Ag	Ag	0.56108 0.54266 0.06628 0.45900
Ag	Ag	0.43817 0.42681 0.01634 0.42900
Ag	Ag	0.04309 0.52023 0.04686 0.42800
Ag	Ag	0.67327 0.10793 0.29448 0.42300
Ag	Ag	0.73237 0.10028 0.33229 0.43600
Ag	Ag	0.66614 0.88956 0.38392 0.45800
Ag	Ag	0.22674 0.93947 0.90619 0.45200
Ag	Ag	0.11022 0.83775 0.85057 0.42200
Ag	Ag	0.12112 0.89140 0.91782 0.44000
Ag	Ag	0.68919 0.29962 0.66915 0.42600
Ag	Ag	0.75061 0.41434 0.69397 0.43100
Ag	Ag	0.74390 0.37995 0.61971 0.45800
Ag	Ag	0.82605 0.88867 0.18086 0.42900
Ag	Ag	0.72599 0.84053 0.19800 0.43100
Ag	Ag	0.85098 0.93810 0.25436 0.46000
Ag	Ag	0.80137 0.37339 0.22370 0.43800
Ag	Ag	0.85268 0.44492 0.17302 0.41800
Ag	Ag	0.77833 0.31817 0.15294 0.45600
Ag	Ag	0.10089 0.72418 0.36467 0.44000
Ag	Ag	0.04503 0.73908 0.33399 0.45100
Ag	Ag	0.17125 0.85019 0.38084 0.41900
Ag	Ag	0.13366 0.03264 0.23248 0.43500
Ag	Ag	0.18244 0.01395 0.26631 0.43300
Ag	Ag	0.06839 0.94926 0.28123 0.44200
Ag	Ag	0.35589 0.14425 0.11290 0.44000
Ag	Ag	0.42515 0.23377 0.07448 0.43400
Ag	Ag	0.42639 0.26745 0.14576 0.44700
Ag	Ag	0.46490 0.96239 0.43243 0.45300
Ag	Ag	0.47591 0.01733 0.49514 0.41700
Ag	Ag	0.59082 0.08306 0.48274 0.44200
N 	N 	0.52336 0.47124 0.06620 -0.21300
N 	N 	0.47524 0.42598 0.04422 -0.22500
N 	N 	0.92351 0.43210 0.02821 -0.23500
N 	N 	0.96974 0.47538 0.05172 -0.23400
N 	N 	0.57101 0.61469 0.05430 -0.22300
N 	N 	0.59576 0.61325 0.07141 -0.21600
N 	N 	0.64894 0.07699 0.33153 -0.23700
N 	N 	0.67348 0.07410 0.34738 -0.22300
N 	N 	0.63834 0.81470 0.33744 -0.22200
N 	N 	0.66997 0.86599 0.34536 -0.21700
N 	N 	0.74663 0.17216 0.25399 -0.21500
N 	N 	0.70262 0.14807 0.26109 -0.23100
N 	N 	0.22438 0.91331 0.86549 -0.21700
N 	N 	0.17581 0.87035 0.84276 -0.23100
N 	N 	0.30819 0.95196 0.76255 -0.23900
N 	N 	0.33022 0.94778 0.78040 -0.22900
N 	N 	0.19436 0.95595 0.95151 -0.22500
N 	N 	0.23662 0.97570 0.94532 -0.22400
N 	N 	0.69637 0.32110 0.71387 -0.23500
N 	N 	0.71959 0.36766 0.72365 -0.23400
N 	N 	0.61556 0.28086 0.81882 -0.23100
N 	N 	0.64341 0.27939 0.82860 -0.21900
N 	N 	0.70120 0.30464 0.60464 -0.21200
N 	N 	0.68040 0.27491 0.62491 -0.22700
N 	N 	0.75140 0.82385 0.14885 -0.23500
N 	N 	0.70861 0.80259 0.15560 -0.23200
N 	N 	0.73989 0.87133 0.24202 -0.22700
N 	N 	0.78753 0.90936 0.26469 -0.21300
N 	N 	0.90798 0.95682 0.24300 -0.21300
N 	N 	0.89925 0.94225 0.21250 -0.22000
N 	N 	0.85531 0.45348 0.23839 -0.22200
N 	N 	0.87533 0.48264 0.21757 -0.23300
N 	N 	0.84336 0.41475 0.13051 -0.22900
N 	N 	0.81678 0.36582 0.12280 -0.21100
N 	N 	0.75134 0.27642 0.18596 -0.21600
N 	N 	0.75786 0.29763 0.21329 -0.21900
N 	N 	0.02584 0.65826 0.33170 -0.22000
N 	N 	0.00524 0.66633 0.31897 -0.22100
N 	N 	0.08537 0.81246 0.34143 -0.21600
N 	N 	0.13591 0.85785 0.36116 -0.22800
N 	N 	0.20798 0.84298 0.39776 -0.23600
N 	N 	0.18096 0.79416 0.39212 -0.22200
N 	N 	0.20154 0.07036 0.22310 -0.23300
N 	N 	0.21953 0.05985 0.23638 -0.23300
N 	N 	0.14598 0.96513 0.29471 -0.23300
N 	N 	0.10136 0.93966 0.30202 -0.22500
N 	N 	0.03704 0.95965 0.25849 -0.22500
N 	N 	0.06608 0.99579 0.24127 -0.23000
N 	N 	0.34448 0.11921 0.06749 -0.22700
N 	N 	0.37319 0.15667 0.05146 -0.22500
N 	N 	0.46549 0.30717 0.09126 -0.23300
N 	N 	0.46282 0.31974 0.11876 -0.21800
N 	N 	0.37867 0.20795 0.16842 -0.22400
N 	N 	0.35288 0.16035 0.15563 -0.22300
N 	N 	0.39536 0.92526 0.43762 -0.21600
N 	N 	0.40004 0.94703 0.46407 -0.23100
N 	N 	0.55101 0.09322 0.52403 -0.23500
N 	N 	0.59688 0.12032 0.51840 -0.22000
N 	N 	0.58465 0.05022 0.44347 -0.22000
N 	N 	0.53452 0.00435 0.42247 -0.21900
C 	C 	0.58125 0.49839 0.11264 -0.48200
C 	C 	0.53172 0.45709 0.08541 0.15300
C 	C 	0.48868 0.40107 0.07595 -0.11000
C 	C 	0.45401 0.38317 0.04998 0.14900
C 	C 	0.40021 0.32703 0.03044 -0.47600
C 	C 	0.82499 0.35679 0.01818 -0.51100
C 	C 	0.88159 0.40503 0.03862 0.16200
C 	C 	0.90043 0.43086 0.07009 -0.12600
C 	C 	0.95701 0.47566 0.07707 0.16500
C 	C 	0.99927 0.51844 0.10591 -0.51000
C 	C 	0.57976 0.67538 0.05354 -0.47200
C 	C 	0.59724 0.66169 0.06753 0.15200
C 	C 	0.63843 0.69045 0.09308 -0.11500
C 	C 	0.63665 0.65868 0.09473 0.15800
C 	C 	0.67030 0.66770 0.11740 -0.48300
C 	C 	0.58739 0.06644 0.33583 -0.48700
C 	C 	0.61871 0.06580 0.34751 0.15000
C 	C 	0.62216 0.05517 0.37393 -0.11900
C 	C 	0.65777 0.06153 0.37330 0.16400
C 	C 	0.67597 0.05315 0.39472 -0.49800
C 	C 	0.62877 0.76152 0.30269 -0.49900
C 	C 	0.65480 0.81199 0.31559 0.16200
C 	C 	0.69686 0.86204 0.30950 -0.12200
C 	C 	0.70519 0.89455 0.32854 0.16200
C 	C 	0.74480 0.95169 0.33089 -0.48300
C 	C 	0.81224 0.23702 0.22626 -0.49200
C 	C 	0.76442 0.20511 0.23733 0.16400
C 	C 	0.73248 0.20355 0.23383 -0.11900
C 	C 	0.69351 0.16672 0.24903 0.15700
C 	C 	0.64802 0.14761 0.25263 -0.50100
C 	C 	0.32049 0.98254 0.87323 -0.48700
C 	C 	0.26286 0.93463 0.85349 0.16900
C 	C 	0.24081 0.90671 0.82312 -0.12200
C 	C 	0.18576 0.86620 0.81716 0.15700
C 	C 	0.14065 0.82249 0.78874 -0.49100
C 	C 	0.24268 0.93723 0.76131 -0.49700
C 	C 	0.27233 0.93583 0.77496 0.14900
C 	C 	0.27064 0.92111 0.80115 -0.12100
C 	C 	0.30812 0.92967 0.80319 0.16500
C 	C 	0.32332 0.91956 0.82588 -0.50500
C 	C 	0.17809 0.97975 0.98984 -0.49900
C 	C 	0.21393 0.98893 0.97786 0.16800
C 	C 	0.26909 0.03041 0.98910 -0.12400
C 	C 	0.28220 0.02134 0.96774 0.16600
C 	C 	0.33503 0.05223 0.96726 -0.50700
C 	C 	0.64805 0.24245 0.73090 -0.49500
C 	C 	0.67600 0.29519 0.73539 0.15300
C 	C 	0.68585 0.32495 0.76020 -0.12400
C 	C 	0.71357 0.37049 0.75126 0.16200
C 	C 	0.73628 0.41775 0.76823 -0.51400
C 	C 	0.60239 0.30202 0.77681 -0.50400
C 	C 	0.62819 0.29848 0.79367 0.15900
C 	C 	0.66527 0.30887 0.78694 -0.11700
C 	C 	0.67305 0.29596 0.80981 0.16200
C 	C 	0.70821 0.29896 0.81457 -0.49900
C 	C 	0.70044 0.29662 0.55046 -0.49500
C 	C 	0.68401 0.27445 0.57766 0.16300
C 	C 	0.65119 0.22397 0.57976 -0.11700
C 	C 	0.65038 0.22657 0.61035 0.15000
C 	C 	0.62139 0.18453 0.62692 -0.48200
C 	C 	0.76968 0.80119 0.11167 -0.53800
C 	C 	0.73227 0.78819 0.12486 0.17800
C 	C 	0.67598 0.74242 0.11580 -0.12700
C 	C 	0.66244 0.75316 0.13560 0.15300
C 	C 	0.60826 0.71906 0.13692 -0.48800
C 	C 	0.64529 0.80821 0.23630 -0.48100
C 	C 	0.70221 0.85054 0.25515 0.14700
C 	C 	0.72500 0.87498 0.28678 -0.10800
C 	C 	0.77890 0.91180 0.29110 0.15300
C 	C 	0.82409 0.95041 0.32050 -0.47400
C 	C 	0.96369 0.98766 0.29255 -0.50700
C 	C 	0.94497 0.96989 0.25906 0.16800
C 	C 	0.96010 0.96220 0.23770 -0.11700
C 	C 	0.93074 0.94532 0.20946 0.14900
C 	C 	0.92815 0.92909 0.17804 -0.47400
C 	C 	0.86804 0.46794 0.29438 -0.53100
C 	C 	0.88189 0.48752 0.26681 0.17800
C 	C 	0.91977 0.53956 0.26413 -0.12100
C 	C 	0.91437 0.53481 0.23298 0.14500
C 	C 	0.94474 0.57692 0.21606 -0.48500
C 	C 	0.90726 0.49785 0.11351 -0.47100
C 	C 	0.87420 0.44267 0.11147 0.13800
C 	C 	0.86935 0.41349 0.09184 -0.10800
C 	C 	0.83234 0.36490 0.09984 0.15400
C 	C 	0.80914 0.31609 0.08603 -0.46800
C 	C 	0.73036 0.20802 0.16298 -0.49900
C 	C 	0.74070 0.23947 0.18897 0.16500
C 	C 	0.74034 0.23676 0.21910 -0.11600
C 	C 	0.75113 0.27390 0.23363 0.15000
C 	C 	0.75581 0.28866 0.26627 -0.47500
C 	C 	0.01139 0.59261 0.32200 -0.49800
C 	C 	0.99756 0.61160 0.31396 0.16100
C 	C 	0.95878 0.58996 0.28934 -0.11800
C 	C 	0.96459 0.62491 0.29370 0.15500
C 	C 	0.93427 0.62289 0.27436 -0.48500
C 	C 	0.02005 0.78535 0.30360 -0.48900
C 	C 	0.07291 0.82675 0.32746 0.16600
C 	C 	0.11661 0.88290 0.33791 -0.11400
C 	C 	0.15558 0.90092 0.35910 0.14700
C 	C 	0.21047 0.95692 0.37859 -0.48700
C 	C 	0.29947 0.93988 0.42255 -0.48800
C 	C 	0.25965 0.88170 0.41335 0.14300
C 	C 	0.26715 0.85814 0.41769 -0.12000
C 	C 	0.21621 0.80260 0.40401 0.16700
C 	C 	0.19780 0.75644 0.40264 -0.51300
C 	C 	0.22196 0.11944 0.18720 -0.50300
C 	C 	0.23365 0.10352 0.20617 0.16300
C 	C 	0.27331 0.11505 0.20856 -0.13000
C 	C 	0.26299 0.08703 0.22782 0.17600
C 	C 	0.29200 0.08439 0.23959 -0.51900
C 	C 	0.20471 0.97099 0.30330 -0.46900
C 	C 	0.15794 0.95003 0.30817 0.14600
C 	C 	0.12082 0.91394 0.32416 -0.12200
C 	C 	0.08612 0.90890 0.31962 0.17400
C 	C 	0.03903 0.87710 0.33153 -0.51900
C 	C 	0.95519 0.90083 0.27542 -0.46000
C 	C 	0.99669 0.94416 0.25985 0.14500
C 	C 	0.99902 0.97016 0.24378 -0.11800
C 	C 	0.04279 0.00137 0.23216 0.16400
C 	C 	0.06570 0.03831 0.21241 -0.50400
C 	C 	0.26646 0.02014 0.05840 -0.50300
C 	C 	0.30387 0.06943 0.04770 0.15900
C 	C 	0.30579 0.07441 0.01760 -0.11500
C 	C 	0.34979 0.12994 0.02153 0.16400
C 	C 	0.37192 0.15980 0.99772 -0.50200
C 	C 	0.48290 0.33139 0.04289 -0.50200
C 	C 	0.47577 0.33533 0.07350 0.16100
C 	C 	0.48106 0.36745 0.08891 -0.11900
C 	C 	0.47326 0.35670 0.11716 0.15600
C 	C 	0.47543 0.38084 0.14407 -0.47400
C 	C 	0.37420 0.24332 0.20852 -0.49400
C 	C 	0.35518 0.19933 0.18971 0.15600
C 	C 	0.31347 0.14553 0.19080 -0.11700
C 	C 	0.31430 0.12299 0.16909 0.16800
C 	C 	0.27985 0.06731 0.15996 -0.50900
C 	C 	0.32868 0.85799 0.38767 -0.52400
C 	C 	0.34665 0.88926 0.41811 0.18000
C 	C 	0.31972 0.88809 0.43181 -0.12300
C 	C 	0.35485 0.92502 0.46107 0.15400
C 	C 	0.34768 0.93965 0.48653 -0.48800
C 	C 	0.52167 0.10760 0.55687 -0.48400
C 	C 	0.56416 0.12599 0.54615 0.14300
C 	C 	0.62042 0.17660 0.55562 -0.11800
C 	C 	0.63912 0.17108 0.53760 0.16600
C 	C 	0.69591 0.21056 0.53827 -0.50000
C 	C 	0.68177 0.12566 0.44563 -0.47800
C 	C 	0.62259 0.07414 0.42913 0.15000
C 	C 	0.59716 0.04339 0.39835 -0.11000
C 	C 	0.54189 0.00033 0.39542 0.15600
C 	C 	0.49469 0.95453 0.36802 -0.48600
H 	H 	0.60480 0.53470 0.11270 0.11800
H 	H 	0.60090 0.49640 0.11130 0.14000
H 	H 	0.57010 0.49080 0.13150 0.13700
H 	H 	0.38690 0.32830 0.01340 0.11100
H 	H 	0.37460 0.30610 0.04270 0.13100
H 	H 	0.40390 0.30980 0.02230 0.13300
H 	H 	0.82350 0.36550 0.99980 0.14400
H 	H 	0.80090 0.34660 0.02910 0.15100
H 	H 	0.81330 0.32650 0.01220 0.13200
H 	H 	0.03020 0.53120 0.10700 0.12300
H 	H 	0.98470 0.50390 0.12320 0.14500
H 	H 	0.01090 0.54860 0.10670 0.14600
H 	H 	0.55740 0.65250 0.03230 0.11500
H 	H 	0.61180 0.71360 0.05380 0.13200
H 	H 	0.55860 0.66900 0.06540 0.12600
H 	H 	0.65020 0.63280 0.11720 0.11200
H 	H 	0.67910 0.68540 0.13790 0.13700
H 	H 	0.70390 0.69080 0.11210 0.13600
H 	H 	0.60610 0.09190 0.32340 0.11700
H 	H 	0.58480 0.07780 0.35320 0.13900
H 	H 	0.55090 0.03000 0.32330 0.13500
H 	H 	0.67130 0.03000 0.38290 0.13800
H 	H 	0.65430 0.03580 0.40930 0.14900
H 	H 	0.71430 0.08830 0.40600 0.12900
H 	H 	0.61150 0.73960 0.31710 0.11800
H 	H 	0.65620 0.77060 0.29920 0.14100
H 	H 	0.60140 0.74100 0.28320 0.13800
H 	H 	0.74170 0.96430 0.34680 0.11600
H 	H 	0.73720 0.95390 0.31110 0.13800
H 	H 	0.78170 0.97460 0.33630 0.13500
H 	H 	0.83790 0.24760 0.24150 0.12000
H 	H 	0.82980 0.26960 0.22320 0.13900
H 	H 	0.80040 0.21480 0.20680 0.13800
H 	H 	0.61810 0.11020 0.25390 0.12600
H 	H 	0.63560 0.14890 0.23490 0.14700
H 	H 	0.66010 0.17090 0.27140 0.13300
H 	H 	0.32640 0.00380 0.88920 0.11800
H 	H 	0.32760 0.96990 0.88290 0.14000
H 	H 	0.34510 0.00510 0.86060 0.13700
H 	H 	0.10810 0.78950 0.79400 0.11900
H 	H 	0.13310 0.83400 0.77770 0.12900
H 	H 	0.15090 0.81520 0.77570 0.13700
H 	H 	0.26520 0.96630 0.75130 0.11900
H 	H 	0.20860 0.90240 0.74620 0.13900
H 	H 	0.23490 0.94400 0.77750 0.14300
H 	H 	0.32450 0.90120 0.81490 0.13900
H 	H 	0.35910 0.95430 0.84020 0.13300
H 	H 	0.29640 0.89670 0.83730 0.15200
H 	H 	0.14100 0.94690 0.97630 0.12400
H 	H 	0.17850 0.97550 0.01040 0.14300
H 	H 	0.19120 0.01090 0.99070 0.13900
H 	H 	0.32890 0.03030 0.95180 0.12300
H 	H 	0.35770 0.08580 0.96210 0.14200
H 	H 	0.35330 0.06090 0.98740 0.14600
H 	H 	0.62480 0.21980 0.70980 0.12300
H 	H 	0.67520 0.24960 0.73480 0.14300
H 	H 	0.62590 0.22350 0.74520 0.14100
H 	H 	0.77330 0.45130 0.76700 0.14300
H 	H 	0.71370 0.41510 0.75920 0.13500
H 	H 	0.73680 0.41800 0.78980 0.15100
H 	H 	0.59940 0.31600 0.79140 0.12900
H 	H 	0.62460 0.32660 0.76400 0.14700
H 	H 	0.56620 0.26590 0.76370 0.13100
H 	H 	0.72300 0.30940 0.83660 0.12700
H 	H 	0.68670 0.26350 0.80480 0.13600
H 	H 	0.73800 0.32590 0.80550 0.14000
H 	H 	0.70160 0.31900 0.55080 0.12400
H 	H 	0.73640 0.31870 0.55130 0.14100
H 	H 	0.67400 0.26660 0.53160 0.14400
H 	H 	0.64500 0.20160 0.64740 0.11600
H 	H 	0.58840 0.16720 0.62860 0.12600
H 	H 	0.61160 0.15710 0.61550 0.13200
H 	H 	0.79890 0.83800 0.10950 0.15200
H 	H 	0.74970 0.77530 0.09160 0.16200
H 	H 	0.78520 0.79890 0.12530 0.14100
H 	H 	0.60860 0.72380 0.15840 0.12000
H 	H 	0.58050 0.68080 0.12710 0.13900
H 	H 	0.60010 0.73010 0.12620 0.13700
H 	H 	0.64550 0.81310 0.21580 0.12000
H 	H 	0.62970 0.81160 0.24630 0.14200
H 	H 	0.62340 0.77210 0.23450 0.12600
H 	H 	0.84930 0.95550 0.31920 0.11500
H 	H 	0.80900 0.93550 0.33770 0.13300
H 	H 	0.84330 0.98530 0.32380 0.13300
H 	H 	0.94860 0.99270 0.30070 0.12600
H 	H 	0.00340 0.02210 0.29930 0.14500
H 	H 	0.95160 0.96020 0.30000 0.13900
H 	H 	0.89490 0.90740 0.16330 0.10800
H 	H 	0.92820 0.90770 0.17830 0.13500
H 	H 	0.95970 0.96170 0.17200 0.13300
H 	H 	0.82860 0.43490 0.29050 0.14800
H 	H 	0.88420 0.49580 0.31160 0.16000
H 	H 	0.88200 0.46000 0.29920 0.13900
H 	H 	0.94840 0.56770 0.19810 0.11800
H 	H 	0.98080 0.61250 0.22970 0.13700
H 	H 	0.92480 0.57800 0.20940 0.12900
H 	H 	0.89020 0.50030 0.12210 0.10900
H 	H 	0.90900 0.50300 0.09300 0.13300
H 	H 	0.94400 0.52600 0.12680 0.12600
H 	H 	0.78980 0.29190 0.09930 0.11100
H 	H 	0.83850 0.32730 0.08400 0.13100
H 	H 	0.78390 0.29700 0.06570 0.13400
H 	H 	0.73610 0.22120 0.14510 0.12300
H 	H 	0.69290 0.16960 0.15810 0.14300
H 	H 	0.75520 0.21230 0.16850 0.14200
H 	H 	0.77990 0.32600 0.27230 0.11200
H 	H 	0.77060 0.28540 0.27960 0.13500
H 	H 	0.71980 0.26400 0.26820 0.13100
H 	H 	0.05070 0.62390 0.33060 0.12200
H 	H 	0.99320 0.57250 0.33710 0.13700
H 	H 	0.99950 0.56910 0.30360 0.14400
H 	H 	0.92660 0.63290 0.28770 0.12400
H 	H 	0.95630 0.64830 0.26200 0.12500
H 	H 	0.90010 0.58610 0.26080 0.13700
H 	H 	0.00800 0.75590 0.29310 0.11900
H 	H 	0.99290 0.77070 0.31340 0.14200
H 	H 	0.02450 0.80230 0.28860 0.14000
H 	H 	0.21710 0.95550 0.39900 0.11700
H 	H 	0.23810 0.97210 0.36920 0.12700
H 	H 	0.21210 0.97980 0.38030 0.13900
H 	H 	0.28940 0.94610 0.40750 0.11400
H 	H 	0.29940 0.94880 0.44280 0.13300
H 	H 	0.33580 0.96290 0.42330 0.14000
H 	H 	0.16100 0.72550 0.40470 0.13900
H 	H 	0.19810 0.74640 0.38290 0.13500
H 	H 	0.22220 0.76690 0.41930 0.15300
H 	H 	0.20720 0.12320 0.19800 0.12800
H 	H 	0.25550 0.15410 0.18360 0.14500
H 	H 	0.19550 0.09150 0.16760 0.13400
H 	H 	0.29650 0.08840 0.26170 0.13900
H 	H 	0.27090 0.04930 0.22900 0.13900
H 	H 	0.32770 0.11360 0.23590 0.15500
H 	H 	0.20550 0.97190 0.28200 0.11000
H 	H 	0.23880 0.00770 0.31710 0.12100
H 	H 	0.20040 0.94710 0.30770 0.13300
H 	H 	0.03940 0.89860 0.33740 0.14200
H 	H 	0.00540 0.84360 0.31560 0.14100
H 	H 	0.04130 0.86820 0.34950 0.15600
H 	H 	0.96800 0.89430 0.28670 0.10900
H 	H 	0.95000 0.91290 0.28970 0.12600
H 	H 	0.92070 0.86720 0.25990 0.12800
H 	H 	0.10510 0.07290 0.22100 0.13700
H 	H 	0.05710 0.02130 0.19160 0.13000
H 	H 	0.04980 0.04470 0.21170 0.14800
H 	H 	0.28410 0.03000 0.07930 0.13100
H 	H 	0.25700 0.99410 0.04490 0.14700
H 	H 	0.23340 0.00370 0.05810 0.13300
H 	H 	0.38700 0.19220 0.00480 0.12500
H 	H 	0.34290 0.13630 0.97860 0.14300
H 	H 	0.40060 0.17070 0.99430 0.15000
H 	H 	0.49900 0.32520 0.04360 0.13000
H 	H 	0.50690 0.36530 0.03760 0.14600
H 	H 	0.44760 0.30120 0.02740 0.12900
H 	H 	0.45060 0.35400 0.15520 0.11700
H 	H 	0.46470 0.39120 0.13650 0.13400
H 	H 	0.51240 0.41300 0.15780 0.13600
H 	H 	0.41400 0.27680 0.21580 0.12700
H 	H 	0.35950 0.23280 0.22610 0.14200
H 	H 	0.36190 0.24960 0.19610 0.12600
H 	H 	0.27440 0.05710 0.13810 0.12400
H 	H 	0.24470 0.04190 0.16380 0.14900
H 	H 	0.29780 0.06630 0.17190 0.15300
H 	H 	0.36040 0.87860 0.38080 0.13000
H 	H 	0.30570 0.85140 0.37310 0.15100
H 	H 	0.30810 0.82330 0.38880 0.15300
H 	H 	0.36600 0.94720 0.50620 0.11700
H 	H 	0.30900 0.90950 0.48470 0.13400
H 	H 	0.36340 0.97200 0.48560 0.12900
H 	H 	0.48970 0.08310 0.53940 0.11700
H 	H 	0.53620 0.13920 0.56600 0.14000
H 	H 	0.51150 0.08860 0.57230 0.13100
H 	H 	0.69760 0.19090 0.53230 0.13200
H 	H 	0.71990 0.23510 0.55900 0.14900
H 	H 	0.70770 0.23170 0.52400 0.13500
H 	H 	0.68740 0.14370 0.46430 0.11500
H 	H 	0.70140 0.14950 0.43230 0.13600
H 	H 	0.69530 0.11740 0.45110 0.13400
H 	H 	0.46180 0.92510 0.37450 0.11900
H 	H 	0.50090 0.94140 0.35670 0.13600
H 	H 	0.49030 0.96700 0.35470 0.13100
Ag	Ag	0.95734 0.52362 0.01842 0.45900
Ag	Ag	0.07319 0.58953 0.01136 0.42900
Ag	Ag	0.97977 0.52663 0.52286 0.42800
Ag	Ag	0.39207 0.18655 0.56534 0.42300
Ag	Ag	0.39972 0.23201 0.63209 0.43600
Ag	Ag	0.61044 0.49436 0.77658 0.45800
Ag	Ag	0.56053 0.96672 0.28727 0.45200
Ag	Ag	0.66225 0.01282 0.27247 0.42200
Ag	Ag	0.60860 0.02642 0.22972 0.44000
Ag	Ag	0.20038 0.36953 0.38957 0.42600
Ag	Ag	0.08566 0.27963 0.33627 0.43100
Ag	Ag	0.12005 0.23976 0.36395 0.45800
Ag	Ag	0.61133 0.29219 0.93738 0.42900
Ag	Ag	0.65947 0.35747 0.88546 0.43100
Ag	Ag	0.56190 0.31626 0.91288 0.46000
Ag	Ag	0.12661 0.85031 0.42798 0.43800
Ag	Ag	0.05508 0.72810 0.40776 0.41800
Ag	Ag	0.18183 0.83477 0.46016 0.45600
Ag	Ag	0.77582 0.64049 0.37671 0.44000
Ag	Ag	0.76092 0.59491 0.30595 0.45100
Ag	Ag	0.64981 0.53065 0.32106 0.41900
Ag	Ag	0.46736 0.19984 0.10102 0.43500
Ag	Ag	0.48605 0.25236 0.16849 0.43300
Ag	Ag	0.55074 0.33197 0.11913 0.44100
Ag	Ag	0.35575 0.96865 0.21164 0.44000
Ag	Ag	0.26623 0.84071 0.19138 0.43400
Ag	Ag	0.23255 0.87831 0.15894 0.44700
Ag	Ag	0.53761 0.47004 0.50251 0.45300
Ag	Ag	0.48267 0.47781 0.45858 0.41700
Ag	Ag	0.41694 0.39968 0.50776 0.44200
N 	N 	0.02876 0.59496 0.05212 -0.21300
N 	N 	0.07402 0.61824 0.04926 -0.22500
N 	N 	0.06790 0.59611 0.49141 -0.23500
N 	N 	0.02462 0.57634 0.49436 -0.23400
N 	N 	0.88531 0.43961 0.95632 -0.22300
N 	N 	0.88675 0.45816 0.98251 -0.21600
N 	N 	0.42301 0.25454 0.57195 -0.23700
N 	N 	0.42590 0.27328 0.59938 -0.22300
N 	N 	0.68530 0.52274 0.82364 -0.22200
N 	N 	0.63401 0.47937 0.80398 -0.21700
N 	N 	0.32784 0.08183 0.57447 -0.21500
N 	N 	0.35193 0.11302 0.55455 -0.23100
N 	N 	0.58669 0.95218 0.31107 -0.21700
N 	N 	0.62965 0.97241 0.30546 -0.23100
N 	N 	0.54804 0.81059 0.35623 -0.23900
N 	N 	0.55222 0.83262 0.38244 -0.22900
N 	N 	0.54405 0.99556 0.23841 -0.22500
N 	N 	0.52430 0.96962 0.26092 -0.22400
N 	N 	0.17890 0.39277 0.37527 -0.23500
N 	N 	0.13234 0.35599 0.35193 -0.23400
N 	N 	0.21914 0.53796 0.33470 -0.23100
N 	N 	0.22061 0.54921 0.36402 -0.21900
N 	N 	0.19536 0.30000 0.39656 -0.21200
N 	N 	0.22509 0.35000 0.40549 -0.22700
N 	N 	0.67615 0.32500 0.92755 -0.23500
N 	N 	0.69741 0.35301 0.90602 -0.23200
N 	N 	0.62867 0.37069 0.86856 -0.22700
N 	N 	0.59064 0.35533 0.87817 -0.21300
N 	N 	0.54318 0.28618 0.95116 -0.21300
N 	N 	0.55775 0.27025 0.95700 -0.22000
N 	N 	0.04652 0.78491 0.40183 -0.22200
N 	N 	0.01736 0.73493 0.39269 -0.23300
N 	N 	0.08525 0.71576 0.42861 -0.22900
N 	N 	0.13418 0.75698 0.45096 -0.21100
N 	N 	0.22358 0.90954 0.47492 -0.21600
N 	N 	0.20237 0.91566 0.46023 -0.21900
N 	N 	0.84174 0.67344 0.36758 -0.22000
N 	N 	0.83367 0.65264 0.33891 -0.22200
N 	N 	0.68754 0.52897 0.27291 -0.21700
N 	N 	0.64215 0.50331 0.27806 -0.22800
N 	N 	0.65702 0.55478 0.36500 -0.23600
N 	N 	0.70584 0.59796 0.38680 -0.22200
N 	N 	0.42964 0.15274 0.13118 -0.23300
N 	N 	0.44015 0.17653 0.15968 -0.23300
N 	N 	0.53487 0.32958 0.18085 -0.23400
N 	N 	0.56034 0.36236 0.16170 -0.22500
N 	N 	0.54035 0.29884 0.07739 -0.22600
N 	N 	0.50421 0.24548 0.07029 -0.23100
N 	N 	0.38079 0.94828 0.22527 -0.22700
N 	N 	0.34333 0.89479 0.21652 -0.22500
N 	N 	0.19283 0.78409 0.15832 -0.23300
N 	N 	0.18026 0.79902 0.14308 -0.21800
N 	N 	0.29205 0.96047 0.17072 -0.22400
N 	N 	0.33965 0.99528 0.19253 -0.22300
N 	N 	0.57474 0.51236 0.47010 -0.21600
N 	N 	0.55297 0.51704 0.45301 -0.23100
N 	N 	0.40678 0.43081 0.45779 -0.23500
N 	N 	0.37968 0.39808 0.47656 -0.22000
N 	N 	0.44978 0.39325 0.53443 -0.22000
N 	N 	0.49565 0.41812 0.53017 -0.21900
C 	C 	0.00161 0.61425 0.08286 -0.48200
C 	C 	0.04291 0.62832 0.07463 0.15300
C 	C 	0.09893 0.67488 0.08761 -0.10900
C 	C 	0.11683 0.66681 0.07084 0.14900
C 	C 	0.17297 0.70341 0.07318 -0.47600
C 	C 	0.14321 0.66139 0.46820 -0.51200
C 	C 	0.09497 0.63359 0.47656 0.16200
C 	C 	0.06914 0.63923 0.46957 -0.12600
C 	C 	0.02434 0.60141 0.48135 0.16500
C 	C 	0.98156 0.58747 0.48083 -0.51100
C 	C 	0.82462 0.37816 0.90438 -0.47200
C 	C 	0.83831 0.40584 0.93555 0.15200
C 	C 	0.80955 0.40263 0.94798 -0.11500
C 	C 	0.84132 0.43605 0.97797 0.15800
C 	C 	0.83230 0.44970 0.00260 -0.48300
C 	C 	0.43356 0.26939 0.52095 -0.48700
C 	C 	0.43420 0.28171 0.55291 0.15000
C 	C 	0.44483 0.31876 0.56699 -0.11900
C 	C 	0.43847 0.31177 0.59624 0.16400
C 	C 	0.44685 0.34157 0.62282 -0.49800
C 	C 	0.73848 0.54117 0.86725 -0.49900
C 	C 	0.68801 0.50360 0.84281 0.16200
C 	C 	0.63796 0.44746 0.83482 -0.12200
C 	C 	0.60545 0.43399 0.81064 0.16200
C 	C 	0.54831 0.37920 0.79311 -0.48400
C 	C 	0.26298 0.98924 0.57522 -0.49100
C 	C 	0.29489 0.03222 0.55931 0.16400
C 	C 	0.29645 0.03028 0.52893 -0.12000
C 	C 	0.33328 0.08231 0.52679 0.15700
C 	C 	0.35239 0.10502 0.50041 -0.50100
C 	C 	0.51746 0.89069 0.33795 -0.49100
C 	C 	0.56537 0.91886 0.32823 0.17000
C 	C 	0.59329 0.91641 0.33410 -0.12300
C 	C 	0.63380 0.95096 0.31956 0.15700
C 	C 	0.67751 0.96625 0.31816 -0.49300
C 	C 	0.56277 0.82408 0.30545 -0.49600
C 	C 	0.56417 0.83913 0.33650 0.14900
C 	C 	0.57889 0.88004 0.34953 -0.12100
C 	C 	0.57033 0.87352 0.37845 0.16500
C 	C 	0.58044 0.90632 0.40376 -0.50500
C 	C 	0.52025 0.01009 0.19834 -0.50100
C 	C 	0.51107 0.98893 0.22500 0.16800
C 	C 	0.46959 0.95869 0.23868 -0.12400
C 	C 	0.47866 0.94640 0.26086 0.16700
C 	C 	0.44777 0.91503 0.28280 -0.50700
C 	C 	0.25755 0.48845 0.40560 -0.49500
C 	C 	0.20481 0.44020 0.38081 0.15300
C 	C 	0.17505 0.43525 0.36090 -0.12400
C 	C 	0.12951 0.38077 0.34308 0.16200
C 	C 	0.08225 0.35048 0.31853 -0.51400
C 	C 	0.19798 0.47479 0.30037 -0.50400
C 	C 	0.20152 0.49519 0.32971 0.15900
C 	C 	0.19113 0.47807 0.35640 -0.11700
C 	C 	0.20404 0.51385 0.37709 0.16200
C 	C 	0.20104 0.51561 0.40925 -0.49900
C 	C 	0.20338 0.25384 0.40382 -0.49500
C 	C 	0.22555 0.30321 0.40956 0.16300
C 	C 	0.27603 0.35579 0.42722 -0.11700
C 	C 	0.27343 0.38378 0.42381 0.15000
C 	C 	0.31547 0.44239 0.43686 -0.48200
C 	C 	0.69881 0.31048 0.96849 -0.53800
C 	C 	0.71181 0.33667 0.94408 0.17800
C 	C 	0.75758 0.37338 0.93356 -0.12700
C 	C 	0.74684 0.38244 0.90928 0.15300
C 	C 	0.78094 0.41786 0.88920 -0.48800
C 	C 	0.69179 0.42809 0.83708 -0.48100
C 	C 	0.64946 0.40461 0.85167 0.14700
C 	C 	0.62502 0.41180 0.85002 -0.10800
C 	C 	0.58820 0.37930 0.86710 0.15300
C 	C 	0.54959 0.37009 0.87368 -0.47500
C 	C 	0.51234 0.30489 0.97603 -0.50800
C 	C 	0.53011 0.28917 0.97508 0.16800
C 	C 	0.53780 0.27550 0.99790 -0.11600
C 	C 	0.55468 0.26414 0.98542 0.14900
C 	C 	0.57091 0.24895 0.99906 -0.47400
C 	C 	0.03206 0.82644 0.40010 -0.53200
C 	C 	0.01248 0.77929 0.39437 0.17800
C 	C 	0.96044 0.72457 0.38021 -0.12100
C 	C 	0.96519 0.69817 0.37956 0.14500
C 	C 	0.92308 0.63914 0.36782 -0.48500
C 	C 	0.00215 0.61566 0.40941 -0.46700
C 	C 	0.05733 0.66880 0.43153 0.13700
C 	C 	0.08651 0.67835 0.45586 -0.10800
C 	C 	0.13510 0.73494 0.46744 0.15400
C 	C 	0.18391 0.76994 0.49305 -0.46800
C 	C 	0.29198 0.95496 0.52234 -0.49900
C 	C 	0.26053 0.94950 0.50123 0.16500
C 	C 	0.26324 0.98234 0.50358 -0.11500
C 	C 	0.22610 0.95973 0.47723 0.15000
C 	C 	0.21134 0.97761 0.46715 -0.47200
C 	C 	0.90739 0.72939 0.41878 -0.50000
C 	C 	0.88840 0.70236 0.38596 0.16200
C 	C 	0.91004 0.69938 0.36882 -0.11800
C 	C 	0.87509 0.66879 0.33968 0.15600
C 	C 	0.87711 0.65147 0.31138 -0.48600
C 	C 	0.71465 0.51825 0.23470 -0.49100
C 	C 	0.67325 0.50071 0.24616 0.16600
C 	C 	0.61710 0.45501 0.23371 -0.11400
C 	C 	0.59908 0.45818 0.25466 0.14600
C 	C 	0.54308 0.42167 0.25355 -0.48600
C 	C 	0.56012 0.48267 0.35959 -0.48800
C 	C 	0.61830 0.53165 0.37795 0.14300
C 	C 	0.64186 0.55955 0.40901 -0.12000
C 	C 	0.69740 0.60141 0.41361 0.16700
C 	C 	0.74356 0.64620 0.44136 -0.51200
C 	C 	0.38056 0.06776 0.10252 -0.50200
C 	C 	0.39648 0.10265 0.13013 0.16300
C 	C 	0.38495 0.09351 0.15826 -0.13000
C 	C 	0.41297 0.14079 0.17596 0.17600
C 	C 	0.41561 0.15520 0.20761 -0.51900
C 	C 	0.52901 0.33231 0.23372 -0.47100
C 	C 	0.54997 0.35814 0.20791 0.14700
C 	C 	0.58606 0.41022 0.20688 -0.12200
C 	C 	0.59110 0.41072 0.17722 0.17400
C 	C 	0.62290 0.45443 0.16193 -0.51800
C 	C 	0.59917 0.37459 0.05436 -0.46100
C 	C 	0.55584 0.31569 0.05253 0.14600
C 	C 	0.52984 0.27362 0.02886 -0.11900
C 	C 	0.49863 0.23079 0.04142 0.16500
C 	C 	0.46169 0.17410 0.02739 -0.50500
C 	C 	0.47986 0.03826 0.24632 -0.50100
C 	C 	0.43057 0.97827 0.23444 0.15900
C 	C 	0.42559 0.94319 0.23138 -0.11500
C 	C 	0.37006 0.89159 0.21985 0.16400
C 	C 	0.34020 0.83792 0.21212 -0.50200
C 	C 	0.16861 0.71150 0.15151 -0.50200
C 	C 	0.16467 0.73817 0.14044 0.16100
C 	C 	0.13255 0.72146 0.11361 -0.11900
C 	C 	0.14330 0.76046 0.11656 0.15600
C 	C 	0.11916 0.76323 0.09459 -0.47400
C 	C 	0.25668 0.96520 0.13088 -0.49500
C 	C 	0.30067 0.99038 0.15585 0.15700
C 	C 	0.35447 0.04527 0.16794 -0.11700
C 	C 	0.37701 0.04610 0.19131 0.16800
C 	C 	0.43269 0.09265 0.21254 -0.50900
C 	C 	0.64201 0.52968 0.47069 -0.52400
C 	C 	0.61074 0.52885 0.45739 0.18000
C 	C 	0.61191 0.54372 0.43163 -0.12300
C 	C 	0.57498 0.53605 0.42983 0.15300
C 	C 	0.56035 0.54688 0.40803 -0.48800
C 	C 	0.39240 0.44927 0.41407 -0.48400
C 	C 	0.37401 0.42016 0.43817 0.14300
C 	C 	0.32340 0.37902 0.44382 -0.11800
C 	C 	0.32892 0.36652 0.46804 0.16600
C 	C 	0.28944 0.32771 0.48535 -0.50000
C 	C 	0.37434 0.31997 0.55611 -0.47800
C 	C 	0.42586 0.35499 0.54845 0.15000
C 	C 	0.45661 0.35496 0.55377 -0.11000
C 	C 	0.49967 0.39509 0.54156 0.15600
C 	C 	0.54547 0.41349 0.54016 -0.48600
H 	H 	0.96530 0.57800 0.07010 0.11800
H 	H 	0.00360 0.61490 0.10450 0.14000
H 	H 	0.00920 0.64070 0.07930 0.13700
H 	H 	0.17170 0.68510 0.05860 0.11100
H 	H 	0.19390 0.73660 0.06850 0.13100
H 	H 	0.19020 0.71250 0.09410 0.13300
H 	H 	0.13450 0.63430 0.45800 0.14400
H 	H 	0.15340 0.68250 0.45430 0.15100
H 	H 	0.17350 0.68570 0.48680 0.13200
H 	H 	0.96880 0.57580 0.49900 0.12300
H 	H 	0.99610 0.61930 0.48080 0.14500
H 	H 	0.95140 0.55810 0.46230 0.14700
H 	H 	0.84750 0.37980 0.90490 0.11500
H 	H 	0.78640 0.34020 0.89820 0.13200
H 	H 	0.83100 0.39640 0.88960 0.12600
H 	H 	0.86720 0.48440 0.01740 0.11200
H 	H 	0.81460 0.45250 0.99370 0.13700
H 	H 	0.80920 0.42130 0.01310 0.13600
H 	H 	0.40810 0.23150 0.51420 0.11700
H 	H 	0.42220 0.27540 0.50700 0.13900
H 	H 	0.47000 0.29330 0.52090 0.13500
H 	H 	0.47000 0.35290 0.64130 0.13800
H 	H 	0.46420 0.37350 0.61850 0.14800
H 	H 	0.41170 0.31770 0.62600 0.12900
H 	H 	0.76040 0.57750 0.87190 0.11800
H 	H 	0.72940 0.52860 0.88560 0.14100
H 	H 	0.75900 0.54220 0.86040 0.13800
H 	H 	0.53570 0.38250 0.77740 0.11600
H 	H 	0.54610 0.35720 0.78330 0.13900
H 	H 	0.52540 0.36170 0.80710 0.13600
H 	H 	0.25240 0.99390 0.59030 0.12000
H 	H 	0.23040 0.95360 0.56020 0.13900
H 	H 	0.28520 0.99200 0.58560 0.13700
H 	H 	0.38980 0.14370 0.50790 0.12600
H 	H 	0.35110 0.08600 0.48670 0.14700
H 	H 	0.32910 0.10050 0.48920 0.13300
H 	H 	0.49620 0.88540 0.32260 0.11900
H 	H 	0.53010 0.91300 0.35770 0.14100
H 	H 	0.49490 0.85550 0.34000 0.13900
H 	H 	0.71050 0.00450 0.31860 0.11900
H 	H 	0.66600 0.94370 0.29910 0.13000
H 	H 	0.68480 0.96050 0.33570 0.13700
H 	H 	0.53370 0.78500 0.29890 0.11900
H 	H 	0.59760 0.84380 0.30620 0.13900
H 	H 	0.55600 0.83350 0.29090 0.14300
H 	H 	0.59880 0.91370 0.42330 0.13900
H 	H 	0.54570 0.88590 0.40480 0.13300
H 	H 	0.60330 0.94060 0.39970 0.15200
H 	H 	0.55310 0.02940 0.19410 0.12500
H 	H 	0.52450 0.03490 0.20300 0.14300
H 	H 	0.48910 0.97980 0.18030 0.14000
H 	H 	0.46970 0.92150 0.29860 0.12300
H 	H 	0.41420 0.87630 0.27190 0.14200
H 	H 	0.43910 0.92650 0.29240 0.14600
H 	H 	0.28020 0.49000 0.40500 0.12300
H 	H 	0.25040 0.48520 0.42560 0.14300
H 	H 	0.27650 0.52170 0.40240 0.14100
H 	H 	0.04870 0.31570 0.32200 0.14300
H 	H 	0.08490 0.34410 0.29860 0.13500
H 	H 	0.08200 0.37180 0.31880 0.15100
H 	H 	0.18400 0.47540 0.28340 0.12900
H 	H 	0.17340 0.43740 0.29800 0.14700
H 	H 	0.23410 0.49780 0.30030 0.13100
H 	H 	0.19060 0.52720 0.41360 0.12700
H 	H 	0.23650 0.54130 0.42320 0.13600
H 	H 	0.17410 0.47960 0.41210 0.14000
H 	H 	0.18100 0.23180 0.38260 0.12400
H 	H 	0.18130 0.23260 0.41770 0.14100
H 	H 	0.23340 0.26500 0.40740 0.14400
H 	H 	0.29840 0.44580 0.44340 0.11600
H 	H 	0.33280 0.46140 0.42120 0.12600
H 	H 	0.34290 0.45840 0.45450 0.13200
H 	H 	0.66200 0.27150 0.96090 0.15200
H 	H 	0.72470 0.31630 0.97440 0.16200
H 	H 	0.70110 0.32640 0.98630 0.14100
H 	H 	0.77620 0.43460 0.88480 0.12000
H 	H 	0.81920 0.44630 0.89970 0.13900
H 	H 	0.76990 0.39610 0.87000 0.13700
H 	H 	0.68690 0.40270 0.83240 0.12000
H 	H 	0.68840 0.43470 0.81810 0.14200
H 	H 	0.72790 0.46240 0.85130 0.12600
H 	H 	0.54450 0.36370 0.89380 0.11500
H 	H 	0.56450 0.40220 0.87350 0.13300
H 	H 	0.51470 0.33850 0.85800 0.13300
H 	H 	0.50730 0.30800 0.95590 0.12600
H 	H 	0.47790 0.27720 0.98130 0.14500
H 	H 	0.53980 0.33980 0.99140 0.13900
H 	H 	0.59260 0.25590 0.98750 0.10800
H 	H 	0.59230 0.27060 0.02050 0.13500
H 	H 	0.53830 0.21030 0.99800 0.13300
H 	H 	0.06510 0.85560 0.39370 0.14800
H 	H 	0.00420 0.81580 0.38840 0.16000
H 	H 	0.04000 0.83920 0.42200 0.14000
H 	H 	0.93230 0.63040 0.38070 0.11700
H 	H 	0.88750 0.61720 0.36830 0.13700
H 	H 	0.92200 0.63140 0.34680 0.12900
H 	H 	0.99970 0.62180 0.38990 0.10800
H 	H 	0.99700 0.59000 0.40600 0.13200
H 	H 	0.97400 0.60080 0.41800 0.12500
H 	H 	0.20810 0.80740 0.49790 0.11100
H 	H 	0.17270 0.75670 0.51120 0.13100
H 	H 	0.20300 0.76870 0.48690 0.13400
H 	H 	0.27880 0.92390 0.51490 0.12300
H 	H 	0.33040 0.98850 0.52330 0.14400
H 	H 	0.28770 0.95620 0.54290 0.14200
H 	H 	0.17400 0.94630 0.45390 0.11100
H 	H 	0.21460 0.99420 0.48520 0.13400
H 	H 	0.23600 0.00420 0.45580 0.13000
H 	H 	0.87610 0.70670 0.42680 0.12300
H 	H 	0.92750 0.76460 0.42070 0.13700
H 	H 	0.93090 0.73450 0.43040 0.14400
H 	H 	0.86710 0.65480 0.29370 0.12400
H 	H 	0.85170 0.61370 0.30800 0.12500
H 	H 	0.91390 0.67470 0.31400 0.13700
H 	H 	0.74410 0.53720 0.25210 0.11900
H 	H 	0.72930 0.54270 0.22220 0.14300
H 	H 	0.69770 0.48630 0.22220 0.14100
H 	H 	0.54450 0.44350 0.26160 0.11700
H 	H 	0.52790 0.39710 0.26600 0.12700
H 	H 	0.52020 0.40050 0.23230 0.13900
H 	H 	0.55390 0.46140 0.34330 0.11400
H 	H 	0.55120 0.49400 0.35060 0.13300
H 	H 	0.53710 0.46040 0.37290 0.14000
H 	H 	0.77450 0.67920 0.43550 0.13900
H 	H 	0.75360 0.63650 0.45170 0.13500
H 	H 	0.73310 0.65240 0.45530 0.15300
H 	H 	0.37680 0.07480 0.08400 0.12800
H 	H 	0.34590 0.02950 0.10140 0.14500
H 	H 	0.40850 0.07610 0.10400 0.13400
H 	H 	0.41160 0.17330 0.20810 0.13900
H 	H 	0.45070 0.17970 0.22160 0.13900
H 	H 	0.38640 0.12230 0.21410 0.15500
H 	H 	0.52810 0.31010 0.23360 0.11000
H 	H 	0.49230 0.30940 0.23110 0.12200
H 	H 	0.55290 0.36060 0.25330 0.13300
H 	H 	0.60140 0.43880 0.14080 0.14100
H 	H 	0.65640 0.47200 0.16180 0.14100
H 	H 	0.63180 0.48130 0.17310 0.15500
H 	H 	0.60570 0.39240 0.07370 0.11000
H 	H 	0.58710 0.37680 0.03710 0.12600
H 	H 	0.63280 0.39270 0.05350 0.12800
H 	H 	0.42710 0.14810 0.03220 0.13700
H 	H 	0.47870 0.17030 0.03580 0.13100
H 	H 	0.45530 0.16700 0.00510 0.14900
H 	H 	0.47000 0.04930 0.25410 0.13000
H 	H 	0.50590 0.05080 0.26290 0.14600
H 	H 	0.49630 0.05440 0.22970 0.13300
H 	H 	0.30780 0.81260 0.19480 0.12500
H 	H 	0.36370 0.84230 0.20660 0.14300
H 	H 	0.32930 0.82360 0.22990 0.15000
H 	H 	0.17480 0.71840 0.17380 0.13000
H 	H 	0.13470 0.67230 0.14160 0.14600
H 	H 	0.19880 0.72620 0.14640 0.12900
H 	H 	0.14600 0.80120 0.09660 0.11700
H 	H 	0.10880 0.74530 0.07350 0.13400
H 	H 	0.08700 0.74480 0.09940 0.13600
H 	H 	0.22320 0.93900 0.13720 0.12700
H 	H 	0.26720 0.99330 0.12670 0.14200
H 	H 	0.25040 0.94650 0.11230 0.12600
H 	H 	0.44290 0.08100 0.21730 0.12400
H 	H 	0.45810 0.12190 0.20280 0.14900
H 	H 	0.43370 0.10560 0.23150 0.15300
H 	H 	0.62140 0.50220 0.48180 0.13000
H 	H 	0.64860 0.52170 0.45430 0.15100
H 	H 	0.67670 0.56550 0.48480 0.15300
H 	H 	0.55280 0.55900 0.41880 0.11700
H 	H 	0.59050 0.57520 0.39950 0.13400
H 	H 	0.52800 0.51360 0.39140 0.12900
H 	H 	0.41690 0.45630 0.40660 0.11700
H 	H 	0.36080 0.42680 0.39700 0.14000
H 	H 	0.41140 0.48370 0.42290 0.13100
H 	H 	0.30910 0.34140 0.50670 0.13200
H 	H 	0.26490 0.32390 0.48480 0.14900
H 	H 	0.26830 0.29230 0.47600 0.13500
H 	H 	0.35630 0.32060 0.54370 0.11500
H 	H 	0.35050 0.28280 0.55190 0.13600
H 	H 	0.38260 0.33370 0.57790 0.13400
H 	H 	0.57490 0.44940 0.53670 0.11900
H 	H 	0.55860 0.41530 0.55950 0.13600
H 	H 	0.53300 0.38770 0.52330 0.13100
Ag	Ag	0.00520 0.93892 0.48158 0.46000
Ag	Ag	0.07817 0.06183 0.48864 0.42900
Ag	Ag	0.50377 0.45691 0.97714 0.42900
Ag	Ag	0.12121 0.82673 0.93466 0.42300
Ag	Ag	0.09992 0.76763 0.86791 0.43600
Ag	Ag	0.21778 0.83386 0.72342 0.45800
Ag	Ag	0.17945 0.27326 0.21273 0.45200
Ag	Ag	0.24035 0.38978 0.22753 0.42200
Ag	Ag	0.29670 0.37888 0.27028 0.44000
Ag	Ag	0.47996 0.81081 0.11043 0.42600
Ag	Ag	0.44336 0.74939 0.16373 0.43100
Ag	Ag	0.37581 0.75610 0.13605 0.45800
Ag	Ag	0.85481 0.67395 0.56262 0.42900
Ag	Ag	0.97201 0.77401 0.61454 0.43100
Ag	Ag	0.90338 0.64902 0.58712 0.46000
Ag	Ag	0.92233 0.69863 0.07202 0.43800
Ag	Ag	0.82034 0.64732 0.09224 0.41800
Ag	Ag	0.87461 0.72167 0.03984 0.45600
Ag	Ag	0.76378 0.39911 0.12329 0.44000
Ag	Ag	0.78896 0.45497 0.19405 0.45100
Ag	Ag	0.70959 0.32875 0.17894 0.41900
Ag	Ag	0.59882 0.36634 0.39898 0.43500
Ag	Ag	0.58387 0.31756 0.33151 0.43300
Ag	Ag	0.71284 0.43161 0.38087 0.44100
Ag	Ag	0.25701 0.14411 0.28836 0.44000
Ag	Ag	0.14933 0.07485 0.30862 0.43400
Ag	Ag	0.21937 0.07361 0.34106 0.44700
Ag	Ag	0.46753 0.03510 0.99749 0.45300
Ag	Ag	0.51923 0.02409 0.04142 0.41700
Ag	Ag	0.39192 0.90918 0.99224 0.44200
N 	N 	0.04284 0.97664 0.44788 -0.21300
N 	N 	0.06898 0.02476 0.45074 -0.22500
N 	N 	0.60470 0.57649 0.00859 -0.23500
N 	N 	0.58198 0.53026 0.00564 -0.23400
N 	N 	0.98329 0.92899 0.54368 -0.22300
N 	N 	0.97565 0.90424 0.51749 -0.21700
N 	N 	0.18259 0.85106 0.92805 -0.23700
N 	N 	0.17390 0.82652 0.90062 -0.22300
N 	N 	0.19910 0.86166 0.67636 -0.22200
N 	N 	0.17539 0.83003 0.69602 -0.21700
N 	N 	0.00736 0.75337 0.92553 -0.21500
N 	N 	0.05847 0.79738 0.94545 -0.23100
N 	N 	0.14111 0.27562 0.18893 -0.21700
N 	N 	0.16695 0.32419 0.19454 -0.23100
N 	N 	0.95436 0.19181 0.14377 -0.23900
N 	N 	0.95018 0.16978 0.11756 -0.22900
N 	N 	0.25715 0.30564 0.26159 -0.22500
N 	N 	0.20870 0.26338 0.23908 -0.22400
N 	N 	0.51750 0.80363 0.12473 -0.23500
N 	N 	0.50406 0.78041 0.14807 -0.23400
N 	N 	0.70326 0.88444 0.16530 -0.23100
N 	N 	0.68519 0.85659 0.13598 -0.21900
N 	N 	0.40344 0.79880 0.10344 -0.21200
N 	N 	0.44451 0.81960 0.09451 -0.22700
N 	N 	0.89745 0.74860 0.57245 -0.23500
N 	N 	0.94699 0.79139 0.59398 -0.23200
N 	N 	0.00213 0.76011 0.63144 -0.22700
N 	N 	0.97716 0.71247 0.62183 -0.21400
N 	N 	0.83502 0.59202 0.54884 -0.21300
N 	N 	0.81325 0.60075 0.54300 -0.22000
N 	N 	0.88308 0.64469 0.09817 -0.22200
N 	N 	0.84224 0.62467 0.10731 -0.23300
N 	N 	0.78715 0.65664 0.07139 -0.22900
N 	N 	0.80602 0.68322 0.04904 -0.21100
N 	N 	0.93462 0.74866 0.02508 -0.21600
N 	N 	0.95543 0.74214 0.03977 -0.21900
N 	N 	0.80586 0.47416 0.13242 -0.22000
N 	N 	0.81373 0.49476 0.16109 -0.22200
N 	N 	0.75606 0.41463 0.22709 -0.21700
N 	N 	0.72525 0.36409 0.22194 -0.22800
N 	N 	0.68978 0.29202 0.13500 -0.23600
N 	N 	0.71116 0.31904 0.11320 -0.22200
N 	N 	0.52156 0.29846 0.36882 -0.23300
N 	N 	0.51685 0.28047 0.34032 -0.23300
N 	N 	0.64873 0.35402 0.31915 -0.23400
N 	N 	0.70066 0.39864 0.33830 -0.22500
N 	N 	0.72145 0.46296 0.42261 -0.22600
N 	N 	0.67519 0.43392 0.42971 -0.23100
N 	N 	0.22301 0.15552 0.27473 -0.22700
N 	N 	0.17827 0.12681 0.28348 -0.22500
N 	N 	0.12577 0.03451 0.34168 -0.23400
N 	N 	0.15594 0.03718 0.35692 -0.21800
N 	N 	0.28975 0.12133 0.32928 -0.22400
N 	N 	0.30275 0.14712 0.30747 -0.22300
N 	N 	0.54226 0.10464 0.02990 -0.21600
N 	N 	0.56403 0.09996 0.04699 -0.23100
N 	N 	0.47302 0.94899 0.04221 -0.23500
N 	N 	0.42152 0.90312 0.02344 -0.22000
N 	N 	0.35882 0.91535 0.96557 -0.22000
N 	N 	0.38795 0.96548 0.96983 -0.21900
C 	C 	0.03139 0.91875 0.41714 -0.48400
C 	C 	0.05369 0.96828 0.42537 0.15500
C 	C 	0.08727 0.01132 0.41239 -0.11100
C 	C 	0.09597 0.04599 0.42916 0.14900
C 	C 	0.13023 0.09979 0.42682 -0.47600
C 	C 	0.69319 0.67501 0.03180 -0.51200
C 	C 	0.65703 0.61841 0.02344 0.16200
C 	C 	0.66966 0.59957 0.03043 -0.12600
C 	C 	0.62006 0.54299 0.01865 0.16500
C 	C 	0.60664 0.50073 0.01917 -0.51000
C 	C 	0.97378 0.92024 0.59562 -0.47600
C 	C 	0.97029 0.90276 0.56445 0.15300
C 	C 	0.95465 0.86157 0.55202 -0.11600
C 	C 	0.95808 0.86335 0.52203 0.15800
C 	C 	0.94710 0.82970 0.49740 -0.48300
C 	C 	0.24844 0.91261 0.97905 -0.48700
C 	C 	0.22880 0.88129 0.94709 0.15000
C 	C 	0.25177 0.87784 0.93301 -0.11900
C 	C 	0.21553 0.84223 0.90376 0.16400
C 	C 	0.21875 0.82403 0.87718 -0.49800
C 	C 	0.17392 0.87123 0.63275 -0.49900
C 	C 	0.16079 0.84520 0.65719 0.16200
C 	C 	0.11264 0.80314 0.66518 -0.12200
C 	C 	0.12335 0.79481 0.68936 0.16200
C 	C 	0.08609 0.75520 0.70689 -0.48400
C 	C 	0.91402 0.68776 0.92478 -0.49000
C 	C 	0.97291 0.73558 0.94069 0.16200
C 	C 	0.00135 0.76752 0.97107 -0.11700
C 	C 	0.05552 0.80649 0.97321 0.15600
C 	C 	0.10461 0.85198 0.99959 -0.49900
C 	C 	0.05274 0.17951 0.16205 -0.49000
C 	C 	0.09063 0.23714 0.17177 0.16900
C 	C 	0.08231 0.25919 0.16590 -0.12100
C 	C 	0.13140 0.31424 0.18044 0.15600
C 	C 	0.14809 0.35935 0.18184 -0.49000
C 	C 	0.01863 0.25732 0.19455 -0.49900
C 	C 	0.00263 0.22767 0.16350 0.14900
C 	C 	0.03051 0.22936 0.15047 -0.12400
C 	C 	0.99507 0.19188 0.12155 0.17000
C 	C 	0.00256 0.17668 0.09624 -0.51700
C 	C 	0.31175 0.32191 0.30166 -0.50100
C 	C 	0.26393 0.28607 0.27500 0.16800
C 	C 	0.22001 0.23091 0.26132 -0.12400
C 	C 	0.18554 0.21780 0.23914 0.16700
C 	C 	0.13223 0.16497 0.21720 -0.50700
C 	C 	0.58285 0.85195 0.09440 -0.49500
C 	C 	0.55939 0.82400 0.11919 0.15300
C 	C 	0.57435 0.81415 0.13910 -0.12400
C 	C 	0.53769 0.78643 0.15692 0.16200
C 	C 	0.53195 0.76372 0.18147 -0.51400
C 	C 	0.67442 0.89761 0.19963 -0.50400
C 	C 	0.66548 0.87181 0.17029 0.15900
C 	C 	0.62167 0.83473 0.14360 -0.11700
C 	C 	0.63676 0.82695 0.12291 0.16200
C 	C 	0.60636 0.79179 0.09075 -0.49900
C 	C 	0.35002 0.79956 0.09618 -0.49500
C 	C 	0.39365 0.81599 0.09044 0.16300
C 	C 	0.42857 0.84881 0.07278 -0.11700
C 	C 	0.45997 0.84962 0.07619 0.15000
C 	C 	0.50553 0.87861 0.06314 -0.48200
C 	C 	0.84199 0.73032 0.53151 -0.53800
C 	C 	0.89259 0.76773 0.55592 0.17800
C 	C 	0.93982 0.82402 0.56644 -0.12700
C 	C 	0.97316 0.83756 0.59072 0.15200
C 	C 	0.02866 0.89174 0.61080 -0.48600
C 	C 	0.09101 0.85471 0.66292 -0.48100
C 	C 	0.05294 0.79779 0.64833 0.14800
C 	C 	0.06178 0.77500 0.64998 -0.10900
C 	C 	0.01220 0.72110 0.63290 0.15500
C 	C 	0.99641 0.67591 0.62632 -0.47900
C 	C 	0.82886 0.53631 0.52397 -0.50800
C 	C 	0.81409 0.55503 0.52492 0.16800
C 	C 	0.77760 0.53990 0.50210 -0.11600
C 	C 	0.77872 0.56926 0.51458 0.14900
C 	C 	0.74989 0.57185 0.50094 -0.47400
C 	C 	0.92634 0.63196 0.09990 -0.53000
C 	C 	0.88492 0.61811 0.10563 0.17700
C 	C 	0.84436 0.58023 0.11979 -0.12000
C 	C 	0.81861 0.58563 0.12044 0.14500
C 	C 	0.77132 0.55526 0.13218 -0.48500
C 	C 	0.70625 0.59274 0.09059 -0.47100
C 	C 	0.73727 0.62580 0.06847 0.13800
C 	C 	0.72249 0.63065 0.04414 -0.10800
C 	C 	0.76750 0.66766 0.03256 0.15400
C 	C 	0.77689 0.69086 0.00695 -0.46800
C 	C 	0.93262 0.76964 0.97766 -0.49900
C 	C 	0.94827 0.75930 0.99877 0.16500
C 	C 	0.97876 0.75966 0.99642 -0.11700
C 	C 	0.98250 0.74887 0.02277 0.15000
C 	C 	0.01046 0.74419 0.03285 -0.47200
C 	C 	0.81061 0.48861 0.08122 -0.50000
C 	C 	0.81640 0.50244 0.11404 0.16200
C 	C 	0.83056 0.54122 0.13118 -0.11800
C 	C 	0.82911 0.53541 0.16032 0.15600
C 	C 	0.84009 0.56573 0.18862 -0.48600
C 	C 	0.78355 0.47995 0.26530 -0.49100
C 	C 	0.75455 0.42709 0.25384 0.16600
C 	C 	0.72130 0.38339 0.26629 -0.11400
C 	C 	0.70352 0.34442 0.24534 0.14600
C 	C 	0.66812 0.28953 0.24645 -0.48600
C 	C 	0.62308 0.20053 0.14041 -0.48800
C 	C 	0.65370 0.24035 0.12205 0.14300
C 	C 	0.65054 0.23285 0.09099 -0.12000
C 	C 	0.68780 0.28379 0.08639 0.16700
C 	C 	0.70484 0.30220 0.05864 -0.51200
C 	C 	0.46524 0.27804 0.39748 -0.50300
C 	C 	0.47252 0.26635 0.36987 0.16300
C 	C 	0.43525 0.22669 0.34174 -0.13000
C 	C 	0.46483 0.23701 0.32404 0.17600
C 	C 	0.44759 0.20800 0.29239 -0.52000
C 	C 	0.59859 0.29529 0.26628 -0.47100
C 	C 	0.65023 0.34206 0.29209 0.14700
C 	C 	0.70334 0.37918 0.29312 -0.12200
C 	C 	0.73350 0.41388 0.32278 0.17400
C 	C 	0.79250 0.46097 0.33807 -0.51800
C 	C 	0.82023 0.54481 0.44564 -0.46100
C 	C 	0.76316 0.50331 0.44747 0.14600
C 	C 	0.74476 0.50098 0.47114 -0.11900
C 	C 	0.68937 0.45721 0.45858 0.16500
C 	C 	0.64671 0.43430 0.47261 -0.50500
C 	C 	0.29194 0.23354 0.25368 -0.50100
C 	C 	0.24383 0.19613 0.26556 0.15900
C 	C 	0.21181 0.19421 0.26862 -0.11500
C 	C 	0.17174 0.15021 0.28015 0.16400
C 	C 	0.12580 0.12808 0.28788 -0.50100
C 	C 	0.05999 0.01710 0.34849 -0.50600
C 	C 	0.09773 0.02423 0.35956 0.16200
C 	C 	0.10785 0.01894 0.38639 -0.11900
C 	C 	0.14390 0.02674 0.38344 0.15700
C 	C 	0.16864 0.02457 0.40541 -0.47700
C 	C 	0.33432 0.12580 0.36912 -0.49300
C 	C 	0.33453 0.14482 0.34415 0.15600
C 	C 	0.37733 0.18653 0.33206 -0.11700
C 	C 	0.35479 0.18570 0.30869 0.16800
C 	C 	0.38011 0.22015 0.28746 -0.50900
C 	C 	0.55899 0.17132 0.02931 -0.52400
C 	C 	0.57146 0.15335 0.04261 0.18000
C 	C 	0.61209 0.18028 0.06837 -0.12300
C 	C 	0.60622 0.14515 0.07017 0.15300
C 	C 	0.63885 0.15232 0.09197 -0.48800
C 	C 	0.53520 0.97833 0.08593 -0.48500
C 	C 	0.48199 0.93584 0.06183 0.14400
C 	C 	0.43520 0.87958 0.05618 -0.11800
C 	C 	0.39848 0.86088 0.03196 0.16600
C 	C 	0.34236 0.80409 0.01465 -0.50100
C 	C 	0.26386 0.81823 0.94389 -0.47800
C 	C 	0.30654 0.87741 0.95155 0.15000
C 	C 	0.30119 0.90284 0.94623 -0.11000
C 	C 	0.35353 0.95811 0.95844 0.15700
C 	C 	0.37333 0.00531 0.95984 -0.48800
H 	H 	0.00790 0.89520 0.42990 0.11900
H 	H 	0.01040 0.89910 0.39550 0.14100
H 	H 	0.06140 0.92990 0.42070 0.13800
H 	H 	0.12650 0.11310 0.44140 0.11100
H 	H 	0.16810 0.12540 0.43150 0.13100
H 	H 	0.11840 0.09610 0.40590 0.13300
H 	H 	0.67630 0.67650 0.04200 0.14400
H 	H 	0.72820 0.69910 0.04570 0.15100
H 	H 	0.69890 0.68670 0.01320 0.13200
H 	H 	0.57680 0.46980 0.00100 0.12300
H 	H 	0.63850 0.51530 0.01920 0.14500
H 	H 	0.59580 0.48910 0.03770 0.14700
H 	H 	0.97490 0.94260 0.59510 0.11600
H 	H 	0.94200 0.88820 0.60180 0.13300
H 	H 	0.00680 0.94140 0.61040 0.12800
H 	H 	0.96700 0.84980 0.48260 0.11200
H 	H 	0.95880 0.82090 0.50630 0.13700
H 	H 	0.90820 0.79610 0.48690 0.13600
H 	H 	0.21730 0.89390 0.98580 0.11800
H 	H 	0.26840 0.91520 0.99300 0.13900
H 	H 	0.27240 0.94910 0.97910 0.13500
H 	H 	0.21160 0.82870 0.85870 0.13800
H 	H 	0.25500 0.84570 0.88150 0.14800
H 	H 	0.19170 0.78570 0.87400 0.12900
H 	H 	0.20560 0.88850 0.62810 0.11800
H 	H 	0.14300 0.84380 0.61440 0.14100
H 	H 	0.18180 0.89860 0.63960 0.13800
H 	H 	0.10510 0.75830 0.72260 0.11600
H 	H 	0.07390 0.76280 0.71670 0.13900
H 	H 	0.05460 0.71830 0.69290 0.13600
H 	H 	0.90360 0.66210 0.90970 0.11900
H 	H 	0.89340 0.67020 0.93980 0.13900
H 	H 	0.90640 0.69960 0.91440 0.13700
H 	H 	0.13580 0.88190 0.99210 0.12500
H 	H 	0.09930 0.86440 0.01330 0.14600
H 	H 	0.11130 0.83990 0.01080 0.13300
H 	H 	0.06280 0.17360 0.17740 0.11800
H 	H 	0.05530 0.17240 0.14230 0.14100
H 	H 	0.01550 0.15490 0.16000 0.13800
H 	H 	0.18590 0.39190 0.18140 0.11800
H 	H 	0.14460 0.36690 0.20090 0.12900
H 	H 	0.12480 0.34910 0.16430 0.13700
H 	H 	0.98610 0.23480 0.20110 0.12000
H 	H 	0.03760 0.29140 0.19380 0.14000
H 	H 	0.04260 0.26510 0.20910 0.14300
H 	H 	0.99040 0.17550 0.07670 0.14300
H 	H 	0.98110 0.14090 0.09520 0.13700
H 	H 	0.04090 0.20360 0.10030 0.15500
H 	H 	0.33530 0.35900 0.30590 0.12500
H 	H 	0.33190 0.32150 0.29700 0.14400
H 	H 	0.29950 0.30880 0.31970 0.14000
H 	H 	0.12290 0.17110 0.20140 0.12300
H 	H 	0.10440 0.14230 0.22810 0.14200
H 	H 	0.13410 0.14670 0.20760 0.14600
H 	H 	0.58500 0.87520 0.09500 0.12300
H 	H 	0.55960 0.82480 0.07440 0.14300
H 	H 	0.61930 0.87410 0.09760 0.14100
H 	H 	0.49370 0.72670 0.17800 0.14300
H 	H 	0.54550 0.78630 0.20140 0.13500
H 	H 	0.55300 0.76320 0.18120 0.15100
H 	H 	0.69200 0.90060 0.21660 0.12900
H 	H 	0.63940 0.87540 0.20200 0.14700
H 	H 	0.69750 0.93380 0.19970 0.13100
H 	H 	0.61360 0.77700 0.08640 0.12700
H 	H 	0.61810 0.81330 0.07680 0.13600
H 	H 	0.56750 0.76200 0.08790 0.14000
H 	H 	0.34920 0.79840 0.11740 0.12400
H 	H 	0.31490 0.76360 0.08230 0.14100
H 	H 	0.35760 0.82600 0.09260 0.14400
H 	H 	0.50240 0.85500 0.05660 0.11600
H 	H 	0.54020 0.91160 0.07880 0.12600
H 	H 	0.50390 0.88840 0.04550 0.13200
H 	H 	0.81060 0.70110 0.53910 0.15200
H 	H 	0.84190 0.75030 0.52560 0.16100
H 	H 	0.84010 0.71480 0.51370 0.14100
H 	H 	0.04980 0.89140 0.61520 0.12000
H 	H 	0.04660 0.91950 0.60030 0.13900
H 	H 	0.02610 0.89990 0.63000 0.13700
H 	H 	0.07030 0.85450 0.66760 0.12000
H 	H 	0.11660 0.87030 0.68190 0.14200
H 	H 	0.11110 0.87660 0.64870 0.12600
H 	H 	0.96990 0.65070 0.60620 0.11600
H 	H 	0.02870 0.69100 0.62650 0.13400
H 	H 	0.98050 0.65670 0.64200 0.13400
H 	H 	0.85210 0.55140 0.54410 0.12600
H 	H 	0.79590 0.49660 0.51870 0.14500
H 	H 	0.84840 0.54840 0.50860 0.13900
H 	H 	0.76840 0.60510 0.51250 0.10800
H 	H 	0.75010 0.57180 0.47950 0.13500
H 	H 	0.71230 0.54030 0.50200 0.13300
H 	H 	0.96190 0.67140 0.10630 0.14700
H 	H 	0.92740 0.61580 0.11160 0.16000
H 	H 	0.91720 0.61800 0.07800 0.13900
H 	H 	0.74970 0.55160 0.11930 0.11800
H 	H 	0.74890 0.51920 0.13170 0.13700
H 	H 	0.78460 0.57520 0.15320 0.12900
H 	H 	0.73190 0.60980 0.11010 0.10900
H 	H 	0.68400 0.59100 0.09400 0.13300
H 	H 	0.68280 0.55600 0.08200 0.12600
H 	H 	0.80950 0.71020 0.00210 0.11100
H 	H 	0.74550 0.66150 0.98880 0.13100
H 	H 	0.78180 0.71610 0.01310 0.13400
H 	H 	0.90900 0.76390 0.98510 0.12300
H 	H 	0.96520 0.80710 0.97670 0.14300
H 	H 	0.91330 0.74480 0.95710 0.14200
H 	H 	0.99240 0.72010 0.04610 0.11100
H 	H 	0.00900 0.72940 0.01480 0.13400
H 	H 	0.04840 0.78020 0.04420 0.13000
H 	H 	0.77990 0.44930 0.07320 0.12300
H 	H 	0.84390 0.50680 0.07930 0.13800
H 	H 	0.80410 0.50050 0.06960 0.14500
H 	H 	0.86110 0.57340 0.20630 0.12400
H 	H 	0.80570 0.54370 0.19200 0.12500
H 	H 	0.86070 0.59990 0.18600 0.13700
H 	H 	0.78510 0.49200 0.24790 0.11900
H 	H 	0.82050 0.50710 0.27780 0.14300
H 	H 	0.76410 0.47550 0.27780 0.14100
H 	H 	0.68190 0.28290 0.23840 0.11700
H 	H 	0.63110 0.26190 0.23400 0.12700
H 	H 	0.66820 0.28790 0.26770 0.13900
H 	H 	0.61810 0.21060 0.15670 0.11400
H 	H 	0.64340 0.20060 0.14940 0.13300
H 	H 	0.58750 0.16420 0.12710 0.14000
H 	H 	0.74370 0.33900 0.06450 0.13900
H 	H 	0.68480 0.30190 0.04830 0.13500
H 	H 	0.69710 0.27780 0.04470 0.15300
H 	H 	0.49080 0.29280 0.41600 0.12800
H 	H 	0.42810 0.24450 0.39860 0.14500
H 	H 	0.47210 0.30450 0.39600 0.13500
H 	H 	0.46520 0.20350 0.29190 0.13900
H 	H 	0.45810 0.22910 0.27840 0.13900
H 	H 	0.40820 0.17230 0.28590 0.15500
H 	H 	0.57650 0.29450 0.26640 0.11000
H 	H 	0.57830 0.26120 0.26890 0.12200
H 	H 	0.60730 0.29960 0.24670 0.13300
H 	H 	0.79800 0.46060 0.35920 0.14100
H 	H 	0.81020 0.49460 0.33820 0.14100
H 	H 	0.80820 0.45870 0.32690 0.15500
H 	H 	0.81870 0.53200 0.42630 0.11000
H 	H 	0.83970 0.55000 0.46290 0.12600
H 	H 	0.83920 0.57930 0.44650 0.12800
H 	H 	0.61590 0.39490 0.46780 0.13700
H 	H 	0.63450 0.44290 0.46420 0.13100
H 	H 	0.66190 0.45020 0.49490 0.14900
H 	H 	0.29520 0.21590 0.24590 0.13000
H 	H 	0.28790 0.24300 0.23710 0.14600
H 	H 	0.32470 0.26660 0.27030 0.13300
H 	H 	0.11780 0.11300 0.30520 0.12500
H 	H 	0.13570 0.15710 0.29340 0.14300
H 	H 	0.09370 0.09940 0.27010 0.15000
H 	H 	0.04460 0.00100 0.32620 0.13100
H 	H 	0.03070 0.99310 0.35840 0.14800
H 	H 	0.07980 0.05240 0.35360 0.13000
H 	H 	0.20460 0.04940 0.40340 0.11700
H 	H 	0.17180 0.03530 0.42650 0.13500
H 	H 	0.14540 0.98760 0.40060 0.13700
H 	H 	0.30180 0.08600 0.36280 0.12700
H 	H 	0.36660 0.14050 0.37330 0.14200
H 	H 	0.33420 0.13810 0.38770 0.12600
H 	H 	0.36370 0.22560 0.28270 0.12400
H 	H 	0.41910 0.25530 0.29720 0.14900
H 	H 	0.37410 0.20220 0.26850 0.15300
H 	H 	0.52040 0.13960 0.01820 0.13000
H 	H 	0.56740 0.19430 0.04570 0.15100
H 	H 	0.58070 0.19190 0.01520 0.15300
H 	H 	0.64020 0.13400 0.08120 0.11700
H 	H 	0.67570 0.19100 0.10050 0.13400
H 	H 	0.62220 0.13660 0.10860 0.12900
H 	H 	0.54970 0.01030 0.09340 0.11700
H 	H 	0.52980 0.96380 0.10300 0.14000
H 	H 	0.56080 0.98850 0.07710 0.13100
H 	H 	0.33470 0.80240 0.99330 0.13200
H 	H 	0.33910 0.78010 0.01520 0.14900
H 	H 	0.31630 0.79230 0.02400 0.13500
H 	H 	0.27690 0.81260 0.95630 0.11500
H 	H 	0.23090 0.79860 0.94810 0.13600
H 	H 	0.25580 0.80470 0.92210 0.13400
H 	H 	0.41270 0.03820 0.96330 0.11900
H 	H 	0.35580 0.99910 0.94050 0.13700
H 	H 	0.36440 0.00970 0.97670 0.13200
Ag	Ag	0.02362 0.50520 0.56628 0.45900
Ag	Ag	0.08953 0.57817 0.51634 0.42900
Ag	Ag	0.02663 0.00377 0.54686 0.42800
Ag	Ag	0.68655 0.62121 0.79448 0.42300
Ag	Ag	0.73201 0.59992 0.83229 0.43600
Ag	Ag	0.99436 0.71778 0.88392 0.45800
Ag	Ag	0.46672 0.67945 0.40619 0.45200
Ag	Ag	0.51282 0.74035 0.35057 0.42200
Ag	Ag	0.52642 0.79670 0.41782 0.44000
Ag	Ag	0.86953 0.97996 0.16915 0.42500
Ag	Ag	0.77963 0.94336 0.19397 0.43100
Ag	Ag	0.73976 0.87581 0.11971 0.45800
Ag	Ag	0.79219 0.35481 0.68086 0.42900
Ag	Ag	0.85747 0.47201 0.69800 0.43100
Ag	Ag	0.81626 0.40338 0.75436 0.46000
Ag	Ag	0.35031 0.42233 0.72370 0.43800
Ag	Ag	0.22810 0.32034 0.67302 0.41800
Ag	Ag	0.33477 0.37461 0.65294 0.45600
Ag	Ag	0.14049 0.26378 0.86467 0.44000
Ag	Ag	0.09491 0.28896 0.83399 0.45100
Ag	Ag	0.03065 0.20959 0.88084 0.41900
Ag	Ag	0.69984 0.09882 0.73248 0.43500
Ag	Ag	0.75236 0.08387 0.76631 0.43300
Ag	Ag	0.83197 0.21284 0.78123 0.44100
Ag	Ag	0.46865 0.75701 0.61290 0.44000
Ag	Ag	0.34071 0.64933 0.57448 0.43400
Ag	Ag	0.37831 0.71937 0.64576 0.44700
Ag	Ag	0.97004 0.96753 0.93243 0.45300
Ag	Ag	0.97781 0.01923 0.99514 0.41800
Ag	Ag	0.89968 0.89192 0.98274 0.44200
N 	N 	0.09496 0.54284 0.56620 -0.21300
N 	N 	0.11824 0.56898 0.54422 -0.22500
N 	N 	0.09611 0.10470 0.52821 -0.23500
N 	N 	0.07634 0.08198 0.55172 -0.23400
N 	N 	0.93961 0.48329 0.55430 -0.22300
N 	N 	0.95816 0.47565 0.57141 -0.21600
N 	N 	0.75454 0.68259 0.83153 -0.23700
N 	N 	0.77328 0.67390 0.84738 -0.22300
N 	N 	0.02274 0.69910 0.83744 -0.22200
N 	N 	0.97937 0.67539 0.84536 -0.21800
N 	N 	0.58183 0.50736 0.75399 -0.21500
N 	N 	0.61302 0.55847 0.76109 -0.23100
N 	N 	0.45218 0.64111 0.36549 -0.21700
N 	N 	0.47241 0.66695 0.34276 -0.23100
N 	N 	0.31059 0.45436 0.26255 -0.23900
N 	N 	0.33262 0.45018 0.28040 -0.22900
N 	N 	0.49556 0.75715 0.45151 -0.22500
N 	N 	0.46962 0.70870 0.44532 -0.22400
N 	N 	0.89277 0.01750 0.21387 -0.23400
N 	N 	0.85599 0.00406 0.22365 -0.23300
N 	N 	0.03796 0.20326 0.31882 -0.23200
N 	N 	0.04921 0.18519 0.32860 -0.21900
N 	N 	0.80000 0.90344 0.10464 -0.21200
N 	N 	0.85000 0.94451 0.12491 -0.22700
N 	N 	0.82500 0.39745 0.64885 -0.23500
N 	N 	0.85301 0.44699 0.65560 -0.23200
N 	N 	0.87069 0.50213 0.74202 -0.22700
N 	N 	0.85533 0.47716 0.76469 -0.21300
N 	N 	0.78618 0.33502 0.74300 -0.21300
N 	N 	0.77025 0.31325 0.71250 -0.22000
N 	N 	0.28491 0.38308 0.73839 -0.22200
N 	N 	0.23493 0.34224 0.71757 -0.23300
N 	N 	0.21576 0.28715 0.63051 -0.22900
N 	N 	0.25698 0.30602 0.62280 -0.21100
N 	N 	0.40954 0.43462 0.68596 -0.21600
N 	N 	0.41566 0.45543 0.71329 -0.21900
N 	N 	0.17344 0.30586 0.83170 -0.22000
N 	N 	0.15264 0.31373 0.81897 -0.22200
N 	N 	0.02897 0.25606 0.84143 -0.21700
N 	N 	0.00331 0.22525 0.86116 -0.22800
N 	N 	0.05478 0.18978 0.89776 -0.23600
N 	N 	0.09796 0.21116 0.89212 -0.22200
N 	N 	0.65274 0.02156 0.72310 -0.23200
N 	N 	0.67653 0.01685 0.73638 -0.23300
N 	N 	0.82958 0.14873 0.79471 -0.23400
N 	N 	0.86236 0.20066 0.80202 -0.22500
N 	N 	0.79884 0.22145 0.75849 -0.22600
N 	N 	0.74548 0.17519 0.74127 -0.23100
N 	N 	0.44828 0.72301 0.56749 -0.22700
N 	N 	0.39479 0.67827 0.55146 -0.22500
N 	N 	0.28409 0.62577 0.59126 -0.23300
N 	N 	0.29902 0.65594 0.61876 -0.21800
N 	N 	0.46047 0.78975 0.66842 -0.22400
N 	N 	0.49528 0.80275 0.65563 -0.22300
N 	N 	0.01236 0.04226 0.93762 -0.21600
N 	N 	0.01704 0.06403 0.96407 -0.23100
N 	N 	0.93081 0.97302 0.02403 -0.23500
N 	N 	0.89808 0.92152 0.01840 -0.22000
N 	N 	0.89325 0.85882 0.94347 -0.22000
N 	N 	0.91812 0.88795 0.92247 -0.21900
C 	C 	0.11425 0.53139 0.61264 -0.48200
C 	C 	0.12832 0.55369 0.58541 0.15300
C 	C 	0.17488 0.58727 0.57595 -0.11000
C 	C 	0.16681 0.59597 0.54998 0.14900
C 	C 	0.20341 0.63023 0.53044 -0.47600
C 	C 	0.16139 0.19319 0.51818 -0.51200
C 	C 	0.13359 0.15703 0.53862 0.16200
C 	C 	0.13923 0.16966 0.57009 -0.12600
C 	C 	0.10141 0.12006 0.57707 0.16400
C 	C 	0.08747 0.10664 0.60591 -0.51000
C 	C 	0.87816 0.47378 0.55354 -0.47200
C 	C 	0.90584 0.47029 0.56753 0.15200
C 	C 	0.90263 0.45465 0.59308 -0.11500
C 	C 	0.93605 0.45808 0.59473 0.15800
C 	C 	0.94970 0.44710 0.61740 -0.48300
C 	C 	0.76939 0.74844 0.83583 -0.48700
C 	C 	0.78171 0.72880 0.84751 0.15000
C 	C 	0.81876 0.75177 0.87393 -0.11900
C 	C 	0.81177 0.71553 0.87330 0.16400
C 	C 	0.84157 0.71875 0.89472 -0.49800
C 	C 	0.04117 0.67392 0.80269 -0.49900
C 	C 	0.00360 0.66079 0.81559 0.16300
C 	C 	0.94746 0.61264 0.80950 -0.12300
C 	C 	0.93399 0.62335 0.82854 0.16300
C 	C 	0.87920 0.58609 0.83089 -0.48400
C 	C 	0.48924 0.41402 0.72626 -0.49200
C 	C 	0.53222 0.47291 0.73733 0.16400
C 	C 	0.53028 0.50135 0.73383 -0.11900
C 	C 	0.58231 0.55552 0.74903 0.15700
C 	C 	0.60502 0.60461 0.75263 -0.50100
C 	C 	0.39069 0.55274 0.37323 -0.49100
C 	C 	0.41886 0.59063 0.35349 0.17000
C 	C 	0.41641 0.58231 0.32312 -0.12300
C 	C 	0.45096 0.63140 0.31716 0.15700
C 	C 	0.46625 0.64809 0.28874 -0.49100
C 	C 	0.32408 0.51863 0.26131 -0.49600
C 	C 	0.33913 0.50263 0.27496 0.14900
C 	C 	0.38004 0.53051 0.30115 -0.12100
C 	C 	0.37352 0.49507 0.30319 0.16500
C 	C 	0.40632 0.50256 0.32588 -0.50500
C 	C 	0.51009 0.81175 0.48984 -0.50100
C 	C 	0.48893 0.76393 0.47786 0.16800
C 	C 	0.45869 0.72001 0.48910 -0.12400
C 	C 	0.44640 0.68554 0.46774 0.16700
C 	C 	0.41503 0.63223 0.46726 -0.50700
C 	C 	0.98845 0.08285 0.23090 -0.49100
C 	C 	0.94020 0.05939 0.23539 0.15300
C 	C 	0.93525 0.07435 0.26020 -0.12300
C 	C 	0.88077 0.03769 0.25126 0.16100
C 	C 	0.85048 0.03195 0.26823 -0.51100
C 	C 	0.97479 0.17442 0.27681 -0.50500
C 	C 	0.99519 0.16548 0.29367 0.16000
C 	C 	0.97807 0.12167 0.28694 -0.11700
C 	C 	0.01385 0.13676 0.30981 0.16200
C 	C 	0.01561 0.10636 0.31457 -0.50300
C 	C 	0.75384 0.85002 0.05046 -0.49500
C 	C 	0.80321 0.89365 0.07766 0.16300
C 	C 	0.85579 0.92857 0.07976 -0.11700
C 	C 	0.88378 0.95997 0.11035 0.14900
C 	C 	0.94239 0.00553 0.12692 -0.48100
C 	C 	0.81048 0.34199 0.61167 -0.53800
C 	C 	0.83667 0.39259 0.62486 0.17800
C 	C 	0.87338 0.43982 0.61580 -0.12700
C 	C 	0.88244 0.47316 0.63560 0.15300
C 	C 	0.91786 0.52866 0.63692 -0.48800
C 	C 	0.92809 0.59101 0.73630 -0.48000
C 	C 	0.90461 0.55294 0.75515 0.14700
C 	C 	0.91180 0.56178 0.78678 -0.10800
C 	C 	0.87930 0.51220 0.79110 0.15300
C 	C 	0.87009 0.49641 0.82050 -0.47500
C 	C 	0.80489 0.32886 0.79255 -0.50800
C 	C 	0.78917 0.31409 0.75906 0.16800
C 	C 	0.77550 0.27760 0.73770 -0.11600
C 	C 	0.76414 0.27872 0.70946 0.14900
C 	C 	0.74895 0.24989 0.67804 -0.47400
C 	C 	0.32644 0.42634 0.79438 -0.53100
C 	C 	0.27929 0.38492 0.76681 0.17700
C 	C 	0.22457 0.34436 0.76413 -0.12000
C 	C 	0.19817 0.31861 0.73298 0.14500
C 	C 	0.13914 0.27132 0.71606 -0.48500
C 	C 	0.11566 0.20625 0.61351 -0.47000
C 	C 	0.16880 0.23727 0.61147 0.13800
C 	C 	0.17835 0.22249 0.59184 -0.10800
C 	C 	0.23494 0.26750 0.59984 0.15400
C 	C 	0.26994 0.27689 0.58603 -0.46800
C 	C 	0.45496 0.43262 0.66298 -0.49900
C 	C 	0.44950 0.44827 0.68897 0.16500
C 	C 	0.48234 0.47876 0.71910 -0.11600
C 	C 	0.45973 0.48250 0.73363 0.15000
C 	C 	0.47761 0.51046 0.76627 -0.47500
C 	C 	0.22939 0.31061 0.82200 -0.50000
C 	C 	0.20236 0.31640 0.81396 0.16200
C 	C 	0.19938 0.33056 0.78934 -0.11800
C 	C 	0.16879 0.32911 0.79370 0.15600
C 	C 	0.15147 0.34009 0.77436 -0.48600
C 	C 	0.01825 0.28355 0.80360 -0.49200
C 	C 	0.00071 0.25455 0.82746 0.16600
C 	C 	0.95501 0.22130 0.83791 -0.11400
C 	C 	0.95818 0.20352 0.85910 0.14700
C 	C 	0.92167 0.16812 0.87859 -0.48700
C 	C 	0.98267 0.12308 0.92255 -0.48600
C 	C 	0.03165 0.15370 0.91335 0.14200
C 	C 	0.05955 0.15054 0.91769 -0.11900
C 	C 	0.10141 0.18780 0.90401 0.16700
C 	C 	0.14620 0.20484 0.90264 -0.51200
C 	C 	0.56776 0.96524 0.68720 -0.50200
C 	C 	0.60265 0.97252 0.70617 0.16200
C 	C 	0.59351 0.93525 0.70856 -0.13000
C 	C 	0.64079 0.96483 0.72782 0.17500
C 	C 	0.65520 0.94759 0.73959 -0.51900
C 	C 	0.83231 0.09859 0.80330 -0.47200
C 	C 	0.85814 0.15023 0.80817 0.14700
C 	C 	0.91022 0.20334 0.82416 -0.12200
C 	C 	0.91072 0.23350 0.81962 0.17400
C 	C 	0.95443 0.29250 0.83153 -0.51900
C 	C 	0.87459 0.32023 0.77542 -0.46100
C 	C 	0.81569 0.26316 0.75985 0.14600
C 	C 	0.77362 0.24476 0.74378 -0.11900
C 	C 	0.73079 0.18937 0.73216 0.16500
C 	C 	0.67410 0.14671 0.71241 -0.50500
C 	C 	0.53826 0.79194 0.55840 -0.50100
C 	C 	0.47827 0.74383 0.54770 0.15900
C 	C 	0.44319 0.71181 0.51760 -0.11500
C 	C 	0.39159 0.67174 0.52153 0.16400
C 	C 	0.33792 0.62580 0.49772 -0.50200
C 	C 	0.21150 0.55999 0.54289 -0.50200
C 	C 	0.23817 0.59773 0.57350 0.16100
C 	C 	0.22146 0.60785 0.58891 -0.11900
C 	C 	0.26046 0.64390 0.61716 0.15600
C 	C 	0.26323 0.66864 0.64407 -0.47400
C 	C 	0.46520 0.83432 0.70852 -0.49400
C 	C 	0.49038 0.83453 0.68971 0.15600
C 	C 	0.54527 0.87733 0.69080 -0.11700
C 	C 	0.54610 0.85479 0.66909 0.16800
C 	C 	0.59265 0.88011 0.65996 -0.50900
C 	C 	0.02968 0.05899 0.88767 -0.52300
C 	C 	0.02885 0.07146 0.91811 0.18000
C 	C 	0.04372 0.11209 0.93181 -0.12300
C 	C 	0.03605 0.10622 0.96107 0.15300
C 	C 	0.04688 0.13885 0.98653 -0.48700
C 	C 	0.94927 0.03520 0.05687 -0.48300
C 	C 	0.92016 0.98199 0.04615 0.14200
C 	C 	0.87902 0.93520 0.05562 -0.11800
C 	C 	0.86652 0.89848 0.03760 0.16600
C 	C 	0.82771 0.84236 0.03827 -0.50000
C 	C 	0.81997 0.76386 0.94563 -0.47800
C 	C 	0.85499 0.80654 0.92913 0.15000
C 	C 	0.85496 0.80119 0.89835 -0.11000
C 	C 	0.89509 0.85353 0.89542 0.15600
C 	C 	0.91349 0.87333 0.86802 -0.48500
H 	H 	0.07800 0.50790 0.61270 0.11800
H 	H 	0.11490 0.51040 0.61130 0.14000
H 	H 	0.14070 0.56140 0.63150 0.13700
H 	H 	0.18510 0.62650 0.51340 0.11100
H 	H 	0.23660 0.66810 0.54270 0.13100
H 	H 	0.21250 0.61840 0.52230 0.13300
H 	H 	0.13430 0.17630 0.49980 0.14400
H 	H 	0.18250 0.22820 0.52910 0.15100
H 	H 	0.18570 0.19890 0.51220 0.13200
H 	H 	0.07580 0.07680 0.60700 0.12300
H 	H 	0.11930 0.13850 0.62320 0.14500
H 	H 	0.05810 0.09580 0.60670 0.14600
H 	H 	0.87980 0.47490 0.53230 0.11500
H 	H 	0.84020 0.44200 0.55380 0.13200
H 	H 	0.89640 0.50680 0.56540 0.12600
H 	H 	0.98440 0.46700 0.61720 0.11200
H 	H 	0.95250 0.45880 0.63790 0.13700
H 	H 	0.92130 0.40820 0.61210 0.13600
H 	H 	0.73150 0.71730 0.82340 0.11700
H 	H 	0.77540 0.76840 0.85320 0.13900
H 	H 	0.79330 0.77240 0.82330 0.13500
H 	H 	0.85290 0.71160 0.88290 0.13800
H 	H 	0.87350 0.75500 0.90930 0.14800
H 	H 	0.81770 0.69170 0.90600 0.12800
H 	H 	0.07750 0.70560 0.81710 0.11800
H 	H 	0.02860 0.64300 0.79920 0.14100
H 	H 	0.04220 0.68180 0.78320 0.13800
H 	H 	0.88250 0.60510 0.84680 0.11600
H 	H 	0.85720 0.57390 0.81110 0.13900
H 	H 	0.86170 0.55460 0.83630 0.13600
H 	H 	0.49390 0.40360 0.74150 0.12000
H 	H 	0.45360 0.39340 0.72320 0.13900
H 	H 	0.49200 0.40640 0.70680 0.13800
H 	H 	0.64370 0.63580 0.75390 0.12600
H 	H 	0.58600 0.59930 0.73490 0.14700
H 	H 	0.60050 0.61130 0.77140 0.13300
H 	H 	0.38540 0.56280 0.38920 0.11900
H 	H 	0.41300 0.55530 0.38290 0.14100
H 	H 	0.35550 0.51550 0.36060 0.13900
H 	H 	0.50450 0.68590 0.29400 0.11900
H 	H 	0.44370 0.64460 0.27770 0.12900
H 	H 	0.46050 0.62480 0.27570 0.13700
H 	H 	0.28500 0.48610 0.25130 0.11900
H 	H 	0.34380 0.53760 0.24620 0.13900
H 	H 	0.33350 0.54260 0.27750 0.14300
H 	H 	0.41370 0.49040 0.31490 0.13900
H 	H 	0.38590 0.48110 0.34020 0.13300
H 	H 	0.44060 0.54090 0.33730 0.15200
H 	H 	0.52940 0.83530 0.47630 0.12500
H 	H 	0.53490 0.83190 0.51040 0.14300
H 	H 	0.47980 0.79950 0.49070 0.14000
H 	H 	0.42150 0.62290 0.45180 0.12300
H 	H 	0.37630 0.60440 0.46210 0.14200
H 	H 	0.42650 0.63410 0.48740 0.14600
H 	H 	0.99000 0.08500 0.20980 0.12200
H 	H 	0.98520 0.05960 0.23480 0.14300
H 	H 	0.02170 0.11930 0.24520 0.14000
H 	H 	0.81570 0.99370 0.26700 0.14200
H 	H 	0.84410 0.04550 0.25920 0.13400
H 	H 	0.87180 0.05300 0.28980 0.15000
H 	H 	0.97540 0.19200 0.29140 0.12900
H 	H 	0.93740 0.13940 0.26400 0.14800
H 	H 	0.99780 0.19750 0.26370 0.13200
H 	H 	0.02720 0.11360 0.33660 0.12800
H 	H 	0.04130 0.11810 0.30480 0.13700
H 	H 	0.97960 0.06750 0.30550 0.14200
H 	H 	0.73180 0.84920 0.05080 0.12400
H 	H 	0.73260 0.81490 0.05130 0.14100
H 	H 	0.76500 0.85760 0.03160 0.14400
H 	H 	0.94580 0.00240 0.14740 0.11700
H 	H 	0.96140 0.04020 0.12860 0.12600
H 	H 	0.95840 0.00390 0.11550 0.13200
H 	H 	0.77150 0.31060 0.60950 0.15200
H 	H 	0.81630 0.34190 0.59160 0.16200
H 	H 	0.82640 0.34010 0.62530 0.14100
H 	H 	0.93460 0.54980 0.65840 0.12000
H 	H 	0.94630 0.54660 0.62710 0.13900
H 	H 	0.89610 0.52610 0.62620 0.13700
H 	H 	0.90270 0.57030 0.71580 0.12000
H 	H 	0.93470 0.61660 0.74630 0.14200
H 	H 	0.96240 0.61110 0.73450 0.12600
H 	H 	0.86370 0.46990 0.81920 0.11500
H 	H 	0.90220 0.52870 0.83770 0.13300
H 	H 	0.83850 0.48050 0.82380 0.13300
H 	H 	0.80800 0.35210 0.80070 0.12600
H 	H 	0.77720 0.29590 0.79930 0.14500
H 	H 	0.83980 0.34840 0.80000 0.13900
H 	H 	0.75590 0.26840 0.66330 0.10800
H 	H 	0.77060 0.25010 0.67830 0.13500
H 	H 	0.71030 0.21230 0.67200 0.13300
H 	H 	0.35560 0.46190 0.79050 0.14800
H 	H 	0.31580 0.42740 0.81160 0.16000
H 	H 	0.33920 0.41720 0.79920 0.13900
H 	H 	0.13040 0.24970 0.69810 0.11700
H 	H 	0.11720 0.24890 0.72970 0.13700
H 	H 	0.13140 0.28460 0.70940 0.12900
H 	H 	0.12180 0.23190 0.62210 0.10900
H 	H 	0.09000 0.18400 0.59300 0.13200
H 	H 	0.10080 0.18280 0.62680 0.12600
H 	H 	0.30740 0.30950 0.59930 0.11100
H 	H 	0.25670 0.24550 0.58400 0.13100
H 	H 	0.26870 0.28180 0.56570 0.13400
H 	H 	0.42390 0.40900 0.64510 0.12300
H 	H 	0.48850 0.46520 0.65810 0.14300
H 	H 	0.45620 0.41330 0.66850 0.14200
H 	H 	0.44630 0.49240 0.77230 0.11200
H 	H 	0.49420 0.50900 0.77960 0.13500
H 	H 	0.50420 0.54840 0.76820 0.13100
H 	H 	0.20670 0.27990 0.83060 0.12300
H 	H 	0.26460 0.34390 0.83710 0.13800
H 	H 	0.23450 0.30410 0.80360 0.14500
H 	H 	0.15480 0.36110 0.78770 0.12400
H 	H 	0.11370 0.30570 0.76200 0.12500
H 	H 	0.17470 0.36070 0.76080 0.13700
H 	H 	0.03720 0.28510 0.79310 0.12000
H 	H 	0.04270 0.32050 0.81340 0.14400
H 	H 	0.98630 0.26410 0.78860 0.14200
H 	H 	0.94350 0.18190 0.89900 0.11700
H 	H 	0.89710 0.13110 0.86920 0.12700
H 	H 	0.90050 0.16820 0.88030 0.13900
H 	H 	0.96140 0.11810 0.90750 0.11400
H 	H 	0.99400 0.14340 0.94280 0.13300
H 	H 	0.96040 0.08750 0.92330 0.14000
H 	H 	0.17920 0.24370 0.90470 0.13900
H 	H 	0.13650 0.18480 0.88290 0.13500
H 	H 	0.15240 0.19710 0.91930 0.15300
H 	H 	0.57480 0.99080 0.69800 0.12800
H 	H 	0.52950 0.92810 0.68360 0.14500
H 	H 	0.57610 0.97210 0.66760 0.13400
H 	H 	0.67330 0.96520 0.76170 0.13900
H 	H 	0.67970 0.95810 0.72900 0.13900
H 	H 	0.62230 0.90820 0.73590 0.15400
H 	H 	0.81010 0.07650 0.78200 0.11100
H 	H 	0.80940 0.07830 0.81710 0.12200
H 	H 	0.86060 0.10730 0.80770 0.13300
H 	H 	0.93880 0.29800 0.83740 0.14100
H 	H 	0.97200 0.31020 0.81560 0.14100
H 	H 	0.98130 0.30820 0.84950 0.15500
H 	H 	0.89240 0.31870 0.78670 0.11000
H 	H 	0.87680 0.33970 0.78970 0.12600
H 	H 	0.89270 0.33920 0.75990 0.12800
H 	H 	0.64810 0.11590 0.72100 0.13700
H 	H 	0.67030 0.13450 0.69160 0.13100
H 	H 	0.66700 0.16190 0.71170 0.14900
H 	H 	0.54930 0.79520 0.57930 0.13000
H 	H 	0.55080 0.78790 0.54490 0.14600
H 	H 	0.55440 0.82470 0.55810 0.13300
H 	H 	0.31260 0.61780 0.50480 0.12500
H 	H 	0.34230 0.63570 0.47860 0.14300
H 	H 	0.32360 0.59370 0.49430 0.15000
H 	H 	0.21840 0.54460 0.54360 0.13000
H 	H 	0.17230 0.53070 0.53760 0.14600
H 	H 	0.22620 0.57980 0.52740 0.12900
H 	H 	0.30120 0.70460 0.65520 0.11700
H 	H 	0.24530 0.67180 0.63650 0.13400
H 	H 	0.24480 0.64540 0.65780 0.13600
H 	H 	0.43900 0.80180 0.71580 0.12700
H 	H 	0.49330 0.86660 0.72610 0.14200
H 	H 	0.44650 0.83420 0.69610 0.12600
H 	H 	0.58100 0.86370 0.63810 0.12400
H 	H 	0.62190 0.91910 0.66380 0.14900
H 	H 	0.60560 0.87410 0.67190 0.15300
H 	H 	0.00220 0.02040 0.88080 0.13000
H 	H 	0.02170 0.06740 0.87310 0.15100
H 	H 	0.06550 0.08070 0.88880 0.15300
H 	H 	0.05900 0.14020 0.00620 0.11700
H 	H 	0.07520 0.17570 0.98470 0.13300
H 	H 	0.01360 0.12220 0.98560 0.12800
H 	H 	0.95630 0.04970 0.03940 0.11700
H 	H 	0.92680 0.02980 0.06600 0.14000
H 	H 	0.98370 0.06080 0.07230 0.13100
H 	H 	0.84140 0.83470 0.03230 0.13200
H 	H 	0.82390 0.83910 0.05900 0.14900
H 	H 	0.79230 0.81630 0.02400 0.13500
H 	H 	0.82060 0.77690 0.96430 0.11500
H 	H 	0.78280 0.73090 0.93230 0.13600
H 	H 	0.83370 0.75580 0.95110 0.13400
H 	H 	0.94940 0.91270 0.87450 0.11800
H 	H 	0.91530 0.85580 0.85670 0.13600
H 	H 	0.88770 0.86440 0.85470 0.13100
Ag	Ag	0.43892 0.45734 0.93372 0.45900
Ag	Ag	0.56183 0.57319 0.98366 0.42900
Ag	Ag	0.95691 0.47977 0.95314 0.42800
Ag	Ag	0.32673 0.89207 0.70552 0.42300
Ag	Ag	0.26763 0.89972 0.66771 0.43600
Ag	Ag	0.33386 0.11044 0.61608 0.45800
Ag	Ag	0.77326 0.06053 0.09381 0.45200
Ag	Ag	0.88978 0.16225 0.14943 0.42200
Ag	Ag	0.87888 0.10860 0.08218 0.44000
Ag	Ag	0.31081 0.70038 0.33085 0.42600
Ag	Ag	0.24939 0.58566 0.30603 0.43100
Ag	Ag	0.25610 0.62005 0.38029 0.45800
Ag	Ag	0.17395 0.11133 0.81914 0.42900
Ag	Ag	0.27401 0.15947 0.80200 0.43100
Ag	Ag	0.14902 0.06190 0.74564 0.46000
Ag	Ag	0.19863 0.62661 0.77630 0.43800
Ag	Ag	0.14732 0.55508 0.82698 0.41800
Ag	Ag	0.22167 0.68183 0.84706 0.45600
Ag	Ag	0.89911 0.27582 0.63533 0.44000
Ag	Ag	0.95497 0.26092 0.66601 0.45100
Ag	Ag	0.82875 0.14981 0.61916 0.41900
Ag	Ag	0.86634 0.96736 0.76752 0.43500
Ag	Ag	0.81756 0.98605 0.73369 0.43300
Ag	Ag	0.93161 0.05074 0.71877 0.44200
Ag	Ag	0.64411 0.85575 0.88710 0.44000
Ag	Ag	0.57485 0.76623 0.92552 0.43400
Ag	Ag	0.57361 0.73255 0.85424 0.44700
Ag	Ag	0.53510 0.03761 0.56757 0.45300
Ag	Ag	0.52409 0.98267 0.50486 0.41700
Ag	Ag	0.40918 0.91694 0.51726 0.44200
N 	N 	0.47664 0.52876 0.93380 -0.21300
N 	N 	0.52476 0.57402 0.95578 -0.22500
N 	N 	0.07649 0.56790 0.97179 -0.23500
N 	N 	0.03026 0.52462 0.94828 -0.23400
N 	N 	0.42899 0.38531 0.94570 -0.22300
N 	N 	0.40424 0.38675 0.92859 -0.21600
N 	N 	0.35106 0.92301 0.66847 -0.23700
N 	N 	0.32652 0.92590 0.65262 -0.22300
N 	N 	0.36166 0.18530 0.66256 -0.22200
N 	N 	0.33003 0.13401 0.65464 -0.21700
N 	N 	0.25337 0.82784 0.74601 -0.21500
N 	N 	0.29738 0.85193 0.73891 -0.23100
N 	N 	0.77562 0.08669 0.13451 -0.21700
N 	N 	0.82419 0.12965 0.15724 -0.23100
N 	N 	0.69181 0.04804 0.23745 -0.23900
N 	N 	0.66978 0.05222 0.21960 -0.22900
N 	N 	0.80564 0.04405 0.04849 -0.22500
N 	N 	0.76338 0.02430 0.05468 -0.22400
N 	N 	0.30363 0.67890 0.28613 -0.23500
N 	N 	0.28041 0.63234 0.27635 -0.23400
N 	N 	0.38444 0.71914 0.18118 -0.23100
N 	N 	0.35659 0.72061 0.17140 -0.21900
N 	N 	0.29880 0.69536 0.39536 -0.21200
N 	N 	0.31960 0.72509 0.37509 -0.22700
N 	N 	0.24860 0.17615 0.85115 -0.23500
N 	N 	0.29139 0.19741 0.84440 -0.23200
N 	N 	0.26011 0.12867 0.75798 -0.22700
N 	N 	0.21247 0.09064 0.73531 -0.21300
N 	N 	0.09202 0.04318 0.75700 -0.21300
N 	N 	0.10075 0.05775 0.78750 -0.22000
N 	N 	0.14469 0.54652 0.76161 -0.22200
N 	N 	0.12467 0.51736 0.78243 -0.23300
N 	N 	0.15664 0.58525 0.86949 -0.22900
N 	N 	0.18322 0.63418 0.87720 -0.21100
N 	N 	0.24866 0.72358 0.81404 -0.21600
N 	N 	0.24214 0.70237 0.78671 -0.21900
N 	N 	0.97416 0.34174 0.66830 -0.22000
N 	N 	0.99476 0.33367 0.68103 -0.22100
N 	N 	0.91463 0.18754 0.65857 -0.21600
N 	N 	0.86409 0.14215 0.63884 -0.22800
N 	N 	0.79202 0.15702 0.60224 -0.23600
N 	N 	0.81904 0.20584 0.60788 -0.22200
N 	N 	0.79846 0.92964 0.77690 -0.23300
N 	N 	0.78047 0.94015 0.76362 -0.23300
N 	N 	0.85402 0.03487 0.70529 -0.23300
N 	N 	0.89864 0.06034 0.69798 -0.22500
N 	N 	0.96296 0.04035 0.74151 -0.22500
N 	N 	0.93392 0.00421 0.75873 -0.23000
N 	N 	0.65552 0.88079 0.93251 -0.22700
N 	N 	0.62681 0.84333 0.94854 -0.22500
N 	N 	0.53451 0.69283 0.90874 -0.23300
N 	N 	0.53718 0.68026 0.88124 -0.21800
N 	N 	0.62133 0.79205 0.83158 -0.22400
N 	N 	0.64712 0.83965 0.84437 -0.22300
N 	N 	0.60464 0.07474 0.56238 -0.21600
N 	N 	0.59996 0.05297 0.53593 -0.23100
N 	N 	0.44899 0.90678 0.47597 -0.23500
N 	N 	0.40312 0.87968 0.48160 -0.22000
N 	N 	0.41535 0.94978 0.55653 -0.22000
N 	N 	0.46548 0.99565 0.57753 -0.21900
C 	C 	0.41875 0.50161 0.88736 -0.48200
C 	C 	0.46828 0.54291 0.91459 0.15300
C 	C 	0.51132 0.59893 0.92405 -0.11000
C 	C 	0.54599 0.61683 0.95002 0.14900
C 	C 	0.59979 0.67297 0.96956 -0.47600
C 	C 	0.17501 0.64321 0.98182 -0.51100
C 	C 	0.11841 0.59497 0.96138 0.16200
C 	C 	0.09957 0.56914 0.92991 -0.12600
C 	C 	0.04299 0.52434 0.92293 0.16500
C 	C 	0.00073 0.48156 0.89409 -0.51000
C 	C 	0.42024 0.32462 0.94646 -0.47200
C 	C 	0.40276 0.33831 0.93247 0.15200
C 	C 	0.36157 0.30955 0.90692 -0.11500
C 	C 	0.36335 0.34132 0.90527 0.15800
C 	C 	0.32970 0.33230 0.88260 -0.48300
C 	C 	0.41261 0.93356 0.66417 -0.48700
C 	C 	0.38129 0.93420 0.65249 0.15000
C 	C 	0.37784 0.94483 0.62607 -0.11900
C 	C 	0.34223 0.93847 0.62670 0.16400
C 	C 	0.32403 0.94685 0.60528 -0.49800
C 	C 	0.37123 0.23848 0.69731 -0.49900
C 	C 	0.34520 0.18801 0.68441 0.16200
C 	C 	0.30314 0.13796 0.69050 -0.12200
C 	C 	0.29481 0.10545 0.67146 0.16200
C 	C 	0.25520 0.04831 0.66911 -0.48300
C 	C 	0.18776 0.76298 0.77374 -0.49200
C 	C 	0.23558 0.79489 0.76267 0.16400
C 	C 	0.26752 0.79645 0.76617 -0.11900
C 	C 	0.30649 0.83328 0.75097 0.15700
C 	C 	0.35198 0.85239 0.74737 -0.50100
C 	C 	0.67951 0.01746 0.12677 -0.48700
C 	C 	0.73714 0.06537 0.14651 0.16900
C 	C 	0.75919 0.09329 0.17688 -0.12200
C 	C 	0.81424 0.13380 0.18284 0.15700
C 	C 	0.85935 0.17751 0.21126 -0.49100
C 	C 	0.75732 0.06277 0.23869 -0.49700
C 	C 	0.72767 0.06417 0.22504 0.14900
C 	C 	0.72936 0.07889 0.19885 -0.12100
C 	C 	0.69188 0.07033 0.19681 0.16500
C 	C 	0.67668 0.08044 0.17412 -0.50500
C 	C 	0.82191 0.02025 0.01016 -0.49900
C 	C 	0.78607 0.01107 0.02214 0.16800
C 	C 	0.73091 0.96959 0.01090 -0.12400
C 	C 	0.71780 0.97866 0.03226 0.16600
C 	C 	0.66497 0.94777 0.03274 -0.50700
C 	C 	0.35195 0.75755 0.26910 -0.49500
C 	C 	0.32400 0.70481 0.26461 0.15300
C 	C 	0.31415 0.67505 0.23980 -0.12400
C 	C 	0.28643 0.62951 0.24874 0.16200
C 	C 	0.26372 0.58225 0.23177 -0.51400
C 	C 	0.39761 0.69798 0.22319 -0.50400
C 	C 	0.37181 0.70152 0.20633 0.15900
C 	C 	0.33473 0.69113 0.21306 -0.11700
C 	C 	0.32695 0.70404 0.19019 0.16200
C 	C 	0.29179 0.70104 0.18543 -0.49900
C 	C 	0.29956 0.70338 0.44954 -0.49500
C 	C 	0.31599 0.72555 0.42234 0.16300
C 	C 	0.34881 0.77603 0.42024 -0.11700
C 	C 	0.34962 0.77343 0.38965 0.15000
C 	C 	0.37861 0.81547 0.37308 -0.48200
C 	C 	0.23032 0.19881 0.88833 -0.53800
C 	C 	0.26773 0.21181 0.87514 0.17800
C 	C 	0.32402 0.25758 0.88420 -0.12700
C 	C 	0.33756 0.24684 0.86440 0.15300
C 	C 	0.39174 0.28094 0.86308 -0.48800
C 	C 	0.35471 0.19179 0.76370 -0.48100
C 	C 	0.29779 0.14946 0.74485 0.14700
C 	C 	0.27500 0.12502 0.71322 -0.10800
C 	C 	0.22110 0.08820 0.70890 0.15300
C 	C 	0.17591 0.04959 0.67950 -0.47400
C 	C 	0.03631 0.01234 0.70745 -0.50700
C 	C 	0.05503 0.03011 0.74094 0.16800
C 	C 	0.03990 0.03780 0.76230 -0.11700
C 	C 	0.06926 0.05468 0.79054 0.14900
C 	C 	0.07185 0.07091 0.82196 -0.47400
C 	C 	0.13196 0.53206 0.70562 -0.53100
C 	C 	0.11811 0.51248 0.73319 0.17800
C 	C 	0.08023 0.46044 0.73587 -0.12100
C 	C 	0.08563 0.46519 0.76702 0.14500
C 	C 	0.05526 0.42308 0.78394 -0.48500
C 	C 	0.09274 0.50215 0.88649 -0.47100
C 	C 	0.12580 0.55733 0.88853 0.13800
C 	C 	0.13065 0.58651 0.90816 -0.10800
C 	C 	0.16766 0.63510 0.90016 0.15400
C 	C 	0.19086 0.68391 0.91397 -0.46800
C 	C 	0.26964 0.79198 0.83702 -0.49900
C 	C 	0.25930 0.76053 0.81103 0.16500
C 	C 	0.25966 0.76324 0.78090 -0.11600
C 	C 	0.24887 0.72610 0.76637 0.15000
C 	C 	0.24419 0.71134 0.73373 -0.47500
C 	C 	0.98861 0.40739 0.67800 -0.49800
C 	C 	0.00244 0.38840 0.68604 0.16100
C 	C 	0.04122 0.41004 0.71066 -0.11800
C 	C 	0.03541 0.37509 0.70630 0.15500
C 	C 	0.06573 0.37711 0.72564 -0.48500
C 	C 	0.97995 0.21465 0.69640 -0.48900
C 	C 	0.92709 0.17325 0.67254 0.16600
C 	C 	0.88339 0.11710 0.66209 -0.11400
C 	C 	0.84442 0.09908 0.64090 0.14700
C 	C 	0.78953 0.04308 0.62141 -0.48700
C 	C 	0.70053 0.06012 0.57745 -0.48800
C 	C 	0.74035 0.11830 0.58665 0.14300
C 	C 	0.73285 0.14186 0.58231 -0.12000
C 	C 	0.78379 0.19740 0.59599 0.16700
C 	C 	0.80220 0.24356 0.59736 -0.51300
C 	C 	0.77804 0.88056 0.81280 -0.50300
C 	C 	0.76635 0.89648 0.79383 0.16300
C 	C 	0.72669 0.88495 0.79144 -0.13000
C 	C 	0.73701 0.91297 0.77218 0.17600
C 	C 	0.70800 0.91561 0.76041 -0.51900
C 	C 	0.79529 0.02901 0.69670 -0.46900
C 	C 	0.84206 0.04997 0.69183 0.14600
C 	C 	0.87918 0.08606 0.67584 -0.12200
C 	C 	0.91388 0.09110 0.68038 0.17400
C 	C 	0.96097 0.12290 0.66847 -0.51900
C 	C 	0.04481 0.09917 0.72458 -0.46000
C 	C 	0.00331 0.05584 0.74015 0.14500
C 	C 	0.00098 0.02984 0.75622 -0.11800
C 	C 	0.95721 0.99863 0.76784 0.16400
C 	C 	0.93430 0.96169 0.78759 -0.50400
C 	C 	0.73354 0.97986 0.94160 -0.50300
C 	C 	0.69613 0.93057 0.95230 0.15900
C 	C 	0.69421 0.92559 0.98240 -0.11500
C 	C 	0.65021 0.87006 0.97847 0.16400
C 	C 	0.62808 0.84020 0.00228 -0.50200
C 	C 	0.51710 0.66861 0.95711 -0.50200
C 	C 	0.52423 0.66467 0.92650 0.16100
C 	C 	0.51894 0.63255 0.91109 -0.11900
C 	C 	0.52674 0.64330 0.88284 0.15600
C 	C 	0.52457 0.61916 0.85593 -0.47400
C 	C 	0.62580 0.75668 0.79148 -0.49400
C 	C 	0.64482 0.80067 0.81029 0.15600
C 	C 	0.68653 0.85447 0.80920 -0.11700
C 	C 	0.68570 0.87701 0.83091 0.16800
C 	C 	0.72015 0.93269 0.84004 -0.50900
C 	C 	0.67132 0.14201 0.61233 -0.52400
C 	C 	0.65335 0.11074 0.58189 0.18000
C 	C 	0.68028 0.11191 0.56819 -0.12300
C 	C 	0.64515 0.07498 0.53893 0.15400
C 	C 	0.65232 0.06035 0.51347 -0.48800
C 	C 	0.47833 0.89240 0.44313 -0.48400
C 	C 	0.43584 0.87401 0.45385 0.14300
C 	C 	0.37958 0.82340 0.44438 -0.11800
C 	C 	0.36088 0.82892 0.46240 0.16600
C 	C 	0.30409 0.78944 0.46173 -0.50000
C 	C 	0.31823 0.87434 0.55437 -0.47800
C 	C 	0.37741 0.92586 0.57087 0.15000
C 	C 	0.40284 0.95661 0.60165 -0.11000
C 	C 	0.45811 0.99967 0.60458 0.15600
C 	C 	0.50531 0.04547 0.63198 -0.48600
H 	H 	0.39520 0.46530 0.88730 0.11800
H 	H 	0.39910 0.50360 0.88870 0.14000
H 	H 	0.42990 0.50920 0.86850 0.13700
H 	H 	0.61310 0.67170 0.98660 0.11100
H 	H 	0.62540 0.69390 0.95730 0.13100
H 	H 	0.59610 0.69020 0.97770 0.13300
H 	H 	0.17650 0.63450 0.00020 0.14400
H 	H 	0.19910 0.65340 0.97090 0.15100
H 	H 	0.18670 0.67350 0.98780 0.13200
H 	H 	0.96980 0.46880 0.89300 0.12300
H 	H 	0.01530 0.49610 0.87680 0.14500
H 	H 	0.98910 0.45140 0.89330 0.14600
H 	H 	0.44260 0.34750 0.96770 0.11500
H 	H 	0.38820 0.28640 0.94620 0.13200
H 	H 	0.44140 0.33100 0.93460 0.12600
H 	H 	0.34980 0.36720 0.88280 0.11200
H 	H 	0.32090 0.31460 0.86210 0.13700
H 	H 	0.29610 0.30920 0.88790 0.13600
H 	H 	0.39390 0.90810 0.67660 0.11700
H 	H 	0.41520 0.92220 0.64680 0.13900
H 	H 	0.44910 0.97000 0.67670 0.13500
H 	H 	0.32870 0.97000 0.61710 0.13800
H 	H 	0.34570 0.96420 0.59070 0.14900
H 	H 	0.28570 0.91170 0.59400 0.12900
H 	H 	0.38850 0.26040 0.68290 0.11800
H 	H 	0.34380 0.22940 0.70080 0.14100
H 	H 	0.39860 0.25900 0.71680 0.13800
H 	H 	0.25830 0.03570 0.65320 0.11600
H 	H 	0.26280 0.04610 0.68890 0.13800
H 	H 	0.21830 0.02540 0.66370 0.13500
H 	H 	0.16210 0.75240 0.75850 0.12000
H 	H 	0.17020 0.73040 0.77680 0.13900
H 	H 	0.19960 0.78520 0.79320 0.13800
H 	H 	0.38190 0.88980 0.74610 0.12600
H 	H 	0.36440 0.85110 0.76510 0.14700
H 	H 	0.33990 0.82910 0.72860 0.13300
H 	H 	0.67360 0.99620 0.11080 0.11800
H 	H 	0.67240 0.03010 0.11710 0.14000
H 	H 	0.65490 0.99490 0.13940 0.13700
H 	H 	0.89190 0.21050 0.20600 0.11900
H 	H 	0.86690 0.16600 0.22230 0.12900
H 	H 	0.84910 0.18480 0.22430 0.13700
H 	H 	0.73480 0.03370 0.24870 0.11900
H 	H 	0.79140 0.09760 0.25380 0.13900
H 	H 	0.76510 0.05600 0.22250 0.14300
H 	H 	0.67550 0.09880 0.18510 0.13900
H 	H 	0.64090 0.04570 0.15980 0.13300
H 	H 	0.70360 0.10330 0.16270 0.15200
H 	H 	0.85900 0.05310 0.02370 0.12400
H 	H 	0.82150 0.02450 0.98960 0.14300
H 	H 	0.80880 0.98910 0.00930 0.13900
H 	H 	0.67110 0.96970 0.04820 0.12300
H 	H 	0.64230 0.91420 0.03790 0.14200
H 	H 	0.64670 0.93910 0.01260 0.14600
H 	H 	0.37520 0.78020 0.29020 0.12300
H 	H 	0.32480 0.75040 0.26520 0.14300
H 	H 	0.37410 0.77650 0.25480 0.14100
H 	H 	0.22670 0.54870 0.23300 0.14300
H 	H 	0.28630 0.58490 0.24080 0.13500
H 	H 	0.26320 0.58200 0.21020 0.15100
H 	H 	0.40060 0.68400 0.20860 0.12900
H 	H 	0.37540 0.67340 0.23600 0.14700
H 	H 	0.43380 0.73410 0.23630 0.13100
H 	H 	0.27700 0.69060 0.16340 0.12700
H 	H 	0.31330 0.73650 0.19520 0.13600
H 	H 	0.26200 0.67410 0.19450 0.14000
H 	H 	0.29840 0.68100 0.44920 0.12400
H 	H 	0.26360 0.68130 0.44870 0.14100
H 	H 	0.32600 0.73340 0.46840 0.14400
H 	H 	0.35500 0.79840 0.35260 0.11600
H 	H 	0.41160 0.83280 0.37140 0.12600
H 	H 	0.38840 0.84290 0.38450 0.13200
H 	H 	0.20110 0.16200 0.89050 0.15200
H 	H 	0.25030 0.22470 0.90840 0.16200
H 	H 	0.21480 0.20110 0.87470 0.14100
H 	H 	0.39140 0.27620 0.84160 0.12000
H 	H 	0.41950 0.31920 0.87290 0.13900
H 	H 	0.39990 0.26990 0.87380 0.13700
H 	H 	0.35450 0.18690 0.78420 0.12000
H 	H 	0.37030 0.18840 0.75370 0.14200
H 	H 	0.37660 0.22790 0.76550 0.12600
H 	H 	0.15070 0.04450 0.68080 0.11500
H 	H 	0.19100 0.06450 0.66230 0.13300
H 	H 	0.15670 0.01470 0.67620 0.13300
H 	H 	0.05140 0.00730 0.69930 0.12600
H 	H 	0.99660 0.97790 0.70070 0.14500
H 	H 	0.04840 0.03980 0.70000 0.13900
H 	H 	0.10510 0.09260 0.83670 0.10800
H 	H 	0.07180 0.09230 0.82170 0.13500
H 	H 	0.04030 0.03830 0.82800 0.13300
H 	H 	0.17140 0.56510 0.70950 0.14800
H 	H 	0.11580 0.50420 0.68840 0.16000
H 	H 	0.11800 0.54000 0.70080 0.13900
H 	H 	0.05160 0.43230 0.80190 0.11800
H 	H 	0.01920 0.38750 0.77030 0.13700
H 	H 	0.07520 0.42200 0.79060 0.12900
H 	H 	0.10980 0.49970 0.87790 0.10900
H 	H 	0.09100 0.49700 0.90700 0.13300
H 	H 	0.05600 0.47400 0.87320 0.12600
H 	H 	0.21020 0.70810 0.90070 0.11100
H 	H 	0.16150 0.67270 0.91600 0.13100
H 	H 	0.21610 0.70300 0.93430 0.13400
H 	H 	0.26390 0.77880 0.85490 0.12300
H 	H 	0.30710 0.83040 0.84190 0.14300
H 	H 	0.24480 0.78770 0.83150 0.14200
H 	H 	0.22010 0.67400 0.72770 0.11200
H 	H 	0.22940 0.71460 0.72040 0.13500
H 	H 	0.28020 0.73600 0.73180 0.13100
H 	H 	0.94930 0.37610 0.66940 0.12200
H 	H 	0.00680 0.42750 0.66290 0.13700
H 	H 	0.00050 0.43090 0.69640 0.14400
H 	H 	0.07340 0.36710 0.71230 0.12400
H 	H 	0.04370 0.35170 0.73800 0.12500
H 	H 	0.09990 0.41390 0.73920 0.13700
H 	H 	0.99200 0.24410 0.70690 0.11900
H 	H 	0.00710 0.22930 0.68660 0.14200
H 	H 	0.97550 0.19770 0.71140 0.14000
H 	H 	0.78290 0.04450 0.60100 0.11700
H 	H 	0.76190 0.02790 0.63080 0.12700
H 	H 	0.78790 0.02020 0.61970 0.13900
H 	H 	0.71060 0.05390 0.59250 0.11400
H 	H 	0.70060 0.05120 0.55720 0.13300
H 	H 	0.66420 0.03710 0.57670 0.14000
H 	H 	0.83900 0.27450 0.59530 0.13900
H 	H 	0.80190 0.25360 0.61710 0.13500
H 	H 	0.77780 0.23310 0.58070 0.15300
H 	H 	0.79280 0.87680 0.80200 0.12800
H 	H 	0.74450 0.84590 0.81640 0.14500
H 	H 	0.80450 0.90850 0.83240 0.13400
H 	H 	0.70350 0.91160 0.73830 0.13900
H 	H 	0.72910 0.95070 0.77100 0.13900
H 	H 	0.67230 0.88640 0.76410 0.15500
H 	H 	0.79450 0.02810 0.71800 0.11000
H 	H 	0.76120 0.99230 0.68290 0.12100
H 	H 	0.79960 0.05290 0.69230 0.13300
H 	H 	0.96060 0.10140 0.66260 0.14200
H 	H 	0.99460 0.15640 0.68440 0.14100
H 	H 	0.95870 0.13180 0.65050 0.15600
H 	H 	0.03200 0.10570 0.71330 0.10900
H 	H 	0.05000 0.08710 0.71030 0.12600
H 	H 	0.07930 0.13280 0.74010 0.12800
H 	H 	0.89490 0.92710 0.77900 0.13700
H 	H 	0.94290 0.97870 0.80840 0.13000
H 	H 	0.95020 0.95530 0.78830 0.14800
H 	H 	0.71590 0.97000 0.92070 0.13100
H 	H 	0.74300 0.00590 0.95510 0.14700
H 	H 	0.76660 0.99630 0.94190 0.13300
H 	H 	0.61300 0.80780 0.99520 0.12500
H 	H 	0.65710 0.86370 0.02140 0.14300
H 	H 	0.59940 0.82930 0.00570 0.15000
H 	H 	0.50100 0.67480 0.95640 0.13000
H 	H 	0.49310 0.63470 0.96240 0.14600
H 	H 	0.55240 0.69880 0.97260 0.12900
H 	H 	0.54940 0.64600 0.84480 0.11700
H 	H 	0.53530 0.60880 0.86350 0.13400
H 	H 	0.48760 0.58700 0.84220 0.13600
H 	H 	0.58600 0.72320 0.78420 0.12700
H 	H 	0.64050 0.76720 0.77390 0.14200
H 	H 	0.63810 0.75040 0.80390 0.12600
H 	H 	0.72560 0.94290 0.86190 0.12400
H 	H 	0.75530 0.95810 0.83620 0.14900
H 	H 	0.70220 0.93370 0.82810 0.15300
H 	H 	0.63960 0.12140 0.61920 0.13000
H 	H 	0.69430 0.14860 0.62690 0.15100
H 	H 	0.69190 0.17670 0.61120 0.15300
H 	H 	0.63400 0.05280 0.49380 0.11700
H 	H 	0.69100 0.09050 0.51530 0.13400
H 	H 	0.63660 0.02800 0.51440 0.12900
H 	H 	0.51030 0.91690 0.46060 0.11700
H 	H 	0.46380 0.86080 0.43400 0.14000
H 	H 	0.48850 0.91140 0.42770 0.13100
H 	H 	0.30240 0.80910 0.46770 0.13200
H 	H 	0.28010 0.76490 0.44100 0.14900
H 	H 	0.29230 0.76830 0.47600 0.13500
H 	H 	0.31260 0.85630 0.53570 0.11500
H 	H 	0.29860 0.85050 0.56770 0.13600
H 	H 	0.30470 0.88260 0.54890 0.13400
H 	H 	0.53820 0.07490 0.62550 0.11900
H 	H 	0.49910 0.05860 0.64330 0.13600
H 	H 	0.50970 0.03300 0.64530 0.13100
