data_crystal

_cell_length_a 15.86670
_cell_length_b 15.86670
_cell_length_c 54.08170
_cell_angle_alpha 87.37690
_cell_angle_beta  84.13390
_cell_angle_gamma 119.71200

_symmetry_space_group_name_	'P 1'
_symmetry_space_group_name_H-M	'P 1'

loop_
_symmetry_equiv_pos_as_xyz
  x,y,z

loop_
_atom_site_label
_atom_site_type_symbol
_atom_site_fract_x
_atom_site_fract_y
_atom_site_fract_z
_atom_site_charge
Cu	Cu	0.91534 0.68346 0.57696 0.85500
Cu	Cu	0.13958 0.26585 0.75729 0.85300
Cu	Cu	0.42700 0.18832 0.57326 0.82300
Cu	Cu	0.76042 0.49230 0.92304 0.85500
Cu	Cu	0.52314 0.89687 0.74271 0.85300
Cu	Cu	0.26158 0.00026 0.92674 0.82200
Cu	Cu	0.08466 0.31654 0.42304 0.85500
Cu	Cu	0.86042 0.73415 0.24271 0.85300
Cu	Cu	0.57300 0.81168 0.42674 0.82300
Cu	Cu	0.23958 0.50770 0.07696 0.85400
Cu	Cu	0.47686 0.10313 0.25729 0.85200
Cu	Cu	0.73842 0.99974 0.07326 0.82100
H 	H 	0.79400 0.63650 0.53030 -0.02000
H 	H 	0.01690 0.87890 0.54160 -0.00800
H 	H 	0.77140 0.70670 0.48510 0.02900
H 	H 	0.85330 0.81810 0.47580 0.05300
H 	H 	0.96600 0.75120 0.46980 0.06500
H 	H 	0.86730 0.64930 0.46960 0.05600
H 	H 	0.83280 0.73550 0.43530 0.03600
H 	H 	0.91410 0.70580 0.42770 0.03900
H 	H 	0.03900 0.86920 0.43340 0.05200
H 	H 	0.95530 0.89730 0.43820 0.06500
H 	H 	0.92050 0.87230 0.39740 0.05900
H 	H 	0.99450 0.83210 0.39240 0.04600
H 	H 	0.07920 0.98390 0.37330 0.03400
H 	H 	0.12350 0.99240 0.39890 0.03200
H 	H 	0.93350 0.16230 0.39100 -0.01200
H 	H 	0.14010 0.14470 0.41900 -0.01500
H 	H 	0.80980 0.45620 0.57700 -0.00600
H 	H 	0.04770 0.64650 0.53260 -0.00400
H 	H 	0.75090 0.31780 0.55610 0.02600
H 	H 	0.77370 0.34590 0.52620 0.02600
H 	H 	0.87050 0.27660 0.55510 0.06300
H 	H 	0.90650 0.31690 0.52560 0.07300
H 	H 	0.70830 0.16430 0.54700 0.02500
H 	H 	0.73490 0.21130 0.51820 0.02900
H 	H 	0.79380 0.09140 0.54120 0.05100
H 	H 	0.87100 0.17320 0.51960 0.05800
H 	H 	0.68040 0.02310 0.51190 0.04100
H 	H 	0.76050 0.10310 0.49040 0.04800
H 	H 	0.76390 0.94420 0.51410 0.04600
H 	H 	0.86080 0.03310 0.49830 0.06300
H 	H 	0.61360 0.89270 0.47930 -0.03300
H 	H 	0.80440 0.90500 0.42620 -0.00800
H 	H 	0.95440 0.51940 0.60780 -0.00400
H 	H 	0.84100 0.67640 0.63320 -0.01400
H 	H 	0.84620 0.52400 0.68620 0.04500
H 	H 	0.74950 0.51910 0.67840 0.03600
H 	H 	0.81440 0.63710 0.70450 0.04600
H 	H 	0.82070 0.68630 0.67760 0.05100
H 	H 	0.99520 0.74710 0.67110 0.05700
H 	H 	0.96130 0.79140 0.69350 0.04500
H 	H 	0.99880 0.63200 0.69980 0.05300
H 	H 	0.95530 0.66650 0.72260 0.04700
H 	H 	0.15490 0.78330 0.69480 0.06400
H 	H 	0.11120 0.83100 0.71420 0.07000
H 	H 	0.08380 0.70760 0.74640 0.04300
H 	H 	0.13540 0.66780 0.72700 0.04200
H 	H 	0.31130 0.73190 0.73200 -0.00800
H 	H 	0.38060 0.98590 0.75670 -0.00800
H 	H 	0.90880 0.19900 0.76360 -0.01700
H 	H 	0.09250 0.29190 0.70120 -0.02300
H 	H 	0.96860 0.31620 0.67340 0.03800
H 	H 	0.86400 0.28510 0.68850 0.05300
H 	H 	0.83280 0.11730 0.68670 0.06800
H 	H 	0.92300 0.16540 0.66480 0.05300
H 	H 	0.77500 0.09360 0.64720 0.04300
H 	H 	0.73940 0.15930 0.66170 0.05700
H 	H 	0.90400 0.22860 0.62400 0.04000
H 	H 	0.88690 0.30080 0.64090 0.05100
H 	H 	0.81880 0.29410 0.60370 0.06300
H 	H 	0.75360 0.17740 0.60900 0.05200
H 	H 	0.65640 0.18530 0.64230 0.04100
H 	H 	0.73080 0.30000 0.64280 0.05400
H 	H 	0.61840 0.39240 0.57740 -0.03800
H 	H 	0.53340 0.14010 0.61310 -0.01800
H 	H 	0.25140 0.96830 0.59670 -0.01100
H 	H 	0.37680 0.20550 0.62990 -0.01800
H 	H 	0.29430 0.13910 0.67420 0.03400
H 	H 	0.29790 0.04000 0.67870 0.04300
H 	H 	0.12030 0.94940 0.67430 0.07200
H 	H 	0.14250 0.00280 0.69930 0.06300
H 	H 	0.16140 0.14600 0.66940 0.03900
H 	H 	0.08510 0.05720 0.65590 0.05100
H 	H 	0.01680 0.11870 0.68930 0.05500
H 	H 	0.04350 0.05760 0.70830 0.06500
H 	H 	0.89830 0.99070 0.67760 0.05000
H 	H 	0.95580 0.93320 0.67700 0.04800
H 	H 	0.88290 0.86440 0.71730 0.04700
H 	H 	0.81120 0.83540 0.69660 0.03500
H 	H 	0.05270 0.36790 0.79220 -0.01900
H 	H 	0.27640 0.50030 0.73870 -0.01400
H 	H 	0.20060 0.20570 0.80810 -0.01400
H 	H 	0.37410 0.39300 0.74970 -0.01600
H 	H 	0.54030 0.45640 0.79090 0.04700
H 	H 	0.53770 0.45400 0.76130 0.04400
H 	H 	0.62370 0.37690 0.77020 0.04500
H 	H 	0.55090 0.31830 0.79520 0.05200
H 	H 	0.43620 0.20970 0.77170 0.05800
H 	H 	0.53760 0.21010 0.76770 0.04700
H 	H 	0.66680 0.32430 0.96970 -0.02000
H 	H 	0.92050 0.55850 0.95840 -0.01000
H 	H 	0.69180 0.25650 0.01490 0.02900
H 	H 	0.79390 0.32910 0.02420 0.05300
H 	H 	0.72100 0.43580 0.03020 0.06500
H 	H 	0.61890 0.33690 0.03040 0.05600
H 	H 	0.67080 0.26810 0.06470 0.03600
H 	H 	0.63350 0.34180 0.07230 0.03900
H 	H 	0.80260 0.47240 0.06660 0.05100
H 	H 	0.83550 0.39350 0.06180 0.06500
H 	H 	0.76970 0.31790 0.10260 0.05900
H 	H 	0.72450 0.38690 0.10760 0.04600
H 	H 	0.85720 0.45250 0.12670 0.03500
H 	H 	0.89130 0.52240 0.10110 0.03200
H 	H 	0.05330 0.32450 0.10900 -0.01200
H 	H 	0.06370 0.55910 0.08100 -0.01500
H 	H 	0.53320 0.38680 0.92300 -0.00600
H 	H 	0.67910 0.58030 0.96740 -0.00400
H 	H 	0.37390 0.30700 0.94390 0.02600
H 	H 	0.37210 0.29990 0.97380 0.02600
H 	H 	0.33170 0.42560 0.94490 0.06300
H 	H 	0.34250 0.43210 0.97440 0.07200
H 	H 	0.21130 0.25530 0.95300 0.02500
H 	H 	0.22950 0.25310 0.98180 0.02900
H 	H 	0.13260 0.33500 0.95880 0.05000
H 	H 	0.19280 0.39060 0.98040 0.05700
H 	H 	0.03500 0.19230 0.98810 0.04200
H 	H 	0.09350 0.25090 0.00960 0.04900
H 	H 	0.95830 0.27800 0.98590 0.04500
H 	H 	0.03140 0.35910 0.00170 0.06100
H 	H 	0.87200 0.09290 0.02070 -0.03300
H 	H 	0.83120 0.23060 0.07380 -0.00800
H 	H 	0.62720 0.56220 0.89220 -0.00300
H 	H 	0.80960 0.47420 0.86680 -0.01400
H 	H 	0.71020 0.53240 0.81380 0.04500
H 	H 	0.69750 0.42790 0.82160 0.03600
H 	H 	0.84160 0.51890 0.79550 0.04600
H 	H 	0.86390 0.49830 0.82240 0.05000
H 	H 	0.91820 0.66630 0.82890 0.05800
H 	H 	0.98490 0.65480 0.80650 0.04600
H 	H 	0.83180 0.69860 0.80020 0.05300
H 	H 	0.88910 0.67790 0.77740 0.04700
H 	H 	0.97810 0.84970 0.80520 0.06400
H 	H 	0.04520 0.82540 0.78580 0.07200
H 	H 	0.95400 0.83020 0.75360 0.04300
H 	H 	0.89480 0.86240 0.77300 0.04200
H 	H 	0.96390 0.04330 0.76800 -0.00600
H 	H 	0.24260 0.13730 0.74330 -0.00800
H 	H 	0.46260 0.67240 0.73640 -0.01700
H 	H 	0.49310 0.79370 0.79880 -0.02300
H 	H 	0.48960 0.64200 0.82660 0.03800
H 	H 	0.47360 0.55250 0.81150 0.05300
H 	H 	0.30400 0.51950 0.81330 0.06800
H 	H 	0.33020 0.58780 0.83520 0.05300
H 	H 	0.24080 0.42220 0.85280 0.04300
H 	H 	0.32100 0.40110 0.83830 0.05700
H 	H 	0.35260 0.52800 0.87600 0.04000
H 	H 	0.44170 0.52780 0.85910 0.05100
H 	H 	0.39780 0.42250 0.89630 0.06300
H 	H 	0.28640 0.36260 0.89100 0.05200
H 	H 	0.32760 0.29870 0.85770 0.04100
H 	H 	0.44280 0.37360 0.85720 0.05400
H 	H 	0.46980 0.19580 0.92260 -0.03800
H 	H 	0.25320 0.14650 0.88690 -0.01800
H 	H 	0.06500 0.84810 0.90330 -0.01300
H 	H 	0.33540 0.00670 0.87010 -0.02000
H 	H 	0.31330 0.96850 0.82580 0.03600
H 	H 	0.21870 0.97660 0.82130 0.04500
H 	H 	0.12370 0.79460 0.82570 0.06900
H 	H 	0.20210 0.84180 0.80070 0.06200
H 	H 	0.31540 0.83080 0.83060 0.04100
H 	H 	0.21310 0.74100 0.84410 0.05300
H 	H 	0.30800 0.70610 0.81070 0.05400
H 	H 	0.26590 0.75180 0.79170 0.06400
H 	H 	0.16830 0.57590 0.82240 0.05000
H 	H 	0.11020 0.63280 0.82300 0.04900
H 	H 	0.08170 0.60020 0.78270 0.04700
H 	H 	0.03200 0.50780 0.80340 0.03500
H 	H 	0.66010 0.84490 0.70780 -0.01900
H 	H 	0.73900 0.01510 0.76130 -0.01600
H 	H 	0.51380 0.00870 0.69190 -0.01400
H 	H 	0.64270 0.12380 0.75030 -0.01600
H 	H 	0.74730 0.33120 0.70910 0.04700
H 	H 	0.71530 0.29900 0.73870 0.04400
H 	H 	0.64710 0.39390 0.72980 0.04500
H 	H 	0.61350 0.34610 0.70480 0.05200
H 	H 	0.48140 0.20790 0.72830 0.05800
H 	H 	0.47780 0.30530 0.73230 0.04700
H 	H 	0.20600 0.36350 0.46970 -0.02000
H 	H 	0.98310 0.12110 0.45840 -0.00800
H 	H 	0.22860 0.29330 0.51490 0.02900
H 	H 	0.14670 0.18190 0.52420 0.05300
H 	H 	0.03400 0.24880 0.53020 0.06500
H 	H 	0.13270 0.35070 0.53040 0.05600
H 	H 	0.16720 0.26450 0.56470 0.03600
H 	H 	0.08590 0.29420 0.57230 0.03900
H 	H 	0.96100 0.13080 0.56660 0.05200
H 	H 	0.04470 0.10270 0.56180 0.06500
H 	H 	0.07950 0.12770 0.60260 0.05900
H 	H 	0.00550 0.16790 0.60760 0.04600
H 	H 	0.92080 0.01610 0.62670 0.03400
H 	H 	0.87650 0.00760 0.60110 0.03200
H 	H 	0.06650 0.83770 0.60900 -0.01200
H 	H 	0.85990 0.85530 0.58100 -0.01500
H 	H 	0.19020 0.54380 0.42300 -0.00600
H 	H 	0.95230 0.35350 0.46740 -0.00400
H 	H 	0.24910 0.68220 0.44390 0.02600
H 	H 	0.22630 0.65410 0.47380 0.02600
H 	H 	0.12950 0.72340 0.44490 0.06300
H 	H 	0.09350 0.68310 0.47440 0.07300
H 	H 	0.29170 0.83570 0.45300 0.02500
H 	H 	0.26510 0.78870 0.48180 0.02900
H 	H 	0.20620 0.90860 0.45880 0.05100
H 	H 	0.12900 0.82680 0.48040 0.05800
H 	H 	0.31960 0.97690 0.48810 0.04100
H 	H 	0.23950 0.89690 0.50960 0.04800
H 	H 	0.23610 0.05580 0.48590 0.04600
H 	H 	0.13920 0.96690 0.50170 0.06300
H 	H 	0.38640 0.10730 0.52070 -0.03300
H 	H 	0.19560 0.09500 0.57380 -0.00800
H 	H 	0.04560 0.48060 0.39220 -0.00400
H 	H 	0.15900 0.32360 0.36680 -0.01400
H 	H 	0.15380 0.47600 0.31380 0.04500
H 	H 	0.25050 0.48090 0.32160 0.03600
H 	H 	0.18560 0.36290 0.29550 0.04600
H 	H 	0.17930 0.31370 0.32240 0.05100
H 	H 	0.00480 0.25290 0.32890 0.05700
H 	H 	0.03870 0.20860 0.30650 0.04500
H 	H 	0.00120 0.36800 0.30020 0.05300
H 	H 	0.04470 0.33350 0.27740 0.04700
H 	H 	0.84510 0.21670 0.30520 0.06400
H 	H 	0.88880 0.16900 0.28580 0.07000
H 	H 	0.91620 0.29240 0.25360 0.04300
H 	H 	0.86460 0.33220 0.27300 0.04200
H 	H 	0.68870 0.26810 0.26800 -0.00800
H 	H 	0.61940 0.01410 0.24330 -0.00800
H 	H 	0.09120 0.80100 0.23640 -0.01700
H 	H 	0.90750 0.70810 0.29880 -0.02300
H 	H 	0.03140 0.68380 0.32660 0.03800
H 	H 	0.13600 0.71490 0.31150 0.05300
H 	H 	0.16720 0.88270 0.31330 0.06800
H 	H 	0.07700 0.83460 0.33520 0.05300
H 	H 	0.22500 0.90640 0.35280 0.04300
H 	H 	0.26060 0.84070 0.33830 0.05700
H 	H 	0.09600 0.77140 0.37600 0.04000
H 	H 	0.11310 0.69920 0.35910 0.05100
H 	H 	0.18120 0.70590 0.39630 0.06300
H 	H 	0.24640 0.82260 0.39100 0.05200
H 	H 	0.34360 0.81470 0.35770 0.04100
H 	H 	0.26920 0.70000 0.35720 0.05400
H 	H 	0.38160 0.60760 0.42260 -0.03800
H 	H 	0.46660 0.85990 0.38690 -0.01800
H 	H 	0.74860 0.03170 0.40330 -0.01100
H 	H 	0.62320 0.79450 0.37010 -0.01800
H 	H 	0.70570 0.86090 0.32580 0.03400
H 	H 	0.70210 0.96000 0.32130 0.04300
H 	H 	0.87970 0.05060 0.32570 0.07200
H 	H 	0.85750 0.99720 0.30070 0.06300
H 	H 	0.83860 0.85400 0.33060 0.03900
H 	H 	0.91490 0.94280 0.34410 0.05100
H 	H 	0.98320 0.88130 0.31070 0.05500
H 	H 	0.95650 0.94240 0.29170 0.06500
H 	H 	0.10170 0.00930 0.32240 0.05000
H 	H 	0.04420 0.06680 0.32300 0.04800
H 	H 	0.11710 0.13560 0.28270 0.04700
H 	H 	0.18880 0.16460 0.30340 0.03500
H 	H 	0.94730 0.63210 0.20780 -0.01900
H 	H 	0.72360 0.49970 0.26130 -0.01400
H 	H 	0.79940 0.79430 0.19190 -0.01400
H 	H 	0.62590 0.60700 0.25030 -0.01600
H 	H 	0.45970 0.54360 0.20910 0.04700
H 	H 	0.46230 0.54600 0.23870 0.04400
H 	H 	0.37630 0.62310 0.22980 0.04500
H 	H 	0.44910 0.68170 0.20480 0.05200
H 	H 	0.56380 0.79030 0.22830 0.05800
H 	H 	0.46240 0.78990 0.23230 0.04700
H 	H 	0.33320 0.67570 0.03030 -0.02000
H 	H 	0.07950 0.44150 0.04160 -0.01000
H 	H 	0.30820 0.74350 0.98510 0.02900
H 	H 	0.20610 0.67090 0.97580 0.05300
H 	H 	0.27900 0.56420 0.96980 0.06500
H 	H 	0.38110 0.66310 0.96960 0.05600
H 	H 	0.32920 0.73190 0.93530 0.03600
H 	H 	0.36650 0.65820 0.92770 0.03900
H 	H 	0.19740 0.52760 0.93340 0.05100
H 	H 	0.16450 0.60650 0.93820 0.06500
H 	H 	0.23030 0.68210 0.89740 0.05900
H 	H 	0.27550 0.61310 0.89240 0.04600
H 	H 	0.14280 0.54750 0.87330 0.03500
H 	H 	0.10870 0.47760 0.89890 0.03200
H 	H 	0.94670 0.67550 0.89100 -0.01200
H 	H 	0.93630 0.44090 0.91900 -0.01500
H 	H 	0.46680 0.61320 0.07700 -0.00600
H 	H 	0.32090 0.41970 0.03260 -0.00400
H 	H 	0.62610 0.69300 0.05610 0.02600
H 	H 	0.62790 0.70010 0.02620 0.02600
H 	H 	0.66830 0.57440 0.05510 0.06300
H 	H 	0.65750 0.56790 0.02560 0.07200
H 	H 	0.78870 0.74470 0.04700 0.02500
H 	H 	0.77050 0.74690 0.01820 0.02900
H 	H 	0.86740 0.66500 0.04120 0.05100
H 	H 	0.80720 0.60940 0.01960 0.05700
H 	H 	0.96500 0.80770 0.01190 0.04200
H 	H 	0.90650 0.74910 0.99040 0.04900
H 	H 	0.04170 0.72200 0.01410 0.04500
H 	H 	0.96860 0.64090 0.99830 0.06100
H 	H 	0.12800 0.90710 0.97930 -0.03300
H 	H 	0.16880 0.76940 0.92620 -0.00800
H 	H 	0.37280 0.43780 0.10780 -0.00300
H 	H 	0.19040 0.52580 0.13320 -0.01400
H 	H 	0.28980 0.46760 0.18620 0.04500
H 	H 	0.30250 0.57210 0.17840 0.03600
H 	H 	0.15840 0.48110 0.20450 0.04600
H 	H 	0.13610 0.50170 0.17760 0.05000
H 	H 	0.08180 0.33370 0.17110 0.05800
H 	H 	0.01510 0.34520 0.19350 0.04600
H 	H 	0.16820 0.30140 0.19980 0.05300
H 	H 	0.11090 0.32210 0.22260 0.04700
H 	H 	0.02190 0.15030 0.19480 0.06400
H 	H 	0.95480 0.17460 0.21420 0.07200
H 	H 	0.04600 0.16980 0.24640 0.04300
H 	H 	0.10520 0.13760 0.22700 0.04200
H 	H 	0.03610 0.95670 0.23200 -0.00600
H 	H 	0.75740 0.86270 0.25670 -0.00800
H 	H 	0.53740 0.32760 0.26360 -0.01700
H 	H 	0.50690 0.20630 0.20120 -0.02300
H 	H 	0.51040 0.35800 0.17340 0.03800
H 	H 	0.52640 0.44750 0.18850 0.05300
H 	H 	0.69600 0.48050 0.18670 0.06800
H 	H 	0.66980 0.41220 0.16480 0.05300
H 	H 	0.75920 0.57780 0.14720 0.04300
H 	H 	0.67900 0.59890 0.16170 0.05700
H 	H 	0.64740 0.47200 0.12400 0.04000
H 	H 	0.55830 0.47220 0.14090 0.05100
H 	H 	0.60220 0.57750 0.10370 0.06300
H 	H 	0.71360 0.63740 0.10900 0.05200
H 	H 	0.67240 0.70130 0.14230 0.04100
H 	H 	0.55720 0.62640 0.14280 0.05400
H 	H 	0.53020 0.80420 0.07740 -0.03800
H 	H 	0.74680 0.85350 0.11310 -0.01800
H 	H 	0.93500 0.15190 0.09670 -0.01300
H 	H 	0.66460 0.99330 0.12990 -0.02000
H 	H 	0.68670 0.03150 0.17420 0.03600
H 	H 	0.78130 0.02340 0.17870 0.04500
H 	H 	0.87630 0.20540 0.17430 0.06900
H 	H 	0.79790 0.15820 0.19930 0.06200
H 	H 	0.68460 0.16920 0.16940 0.04100
H 	H 	0.78690 0.25900 0.15590 0.05300
H 	H 	0.69200 0.29390 0.18930 0.05400
H 	H 	0.73410 0.24820 0.20830 0.06400
H 	H 	0.83170 0.42410 0.17760 0.05000
H 	H 	0.88980 0.36720 0.17700 0.04900
H 	H 	0.91830 0.39980 0.21730 0.04700
H 	H 	0.96800 0.49220 0.19660 0.03500
H 	H 	0.33990 0.15510 0.29220 -0.01900
H 	H 	0.26100 0.98490 0.23870 -0.01600
H 	H 	0.48620 0.99130 0.30810 -0.01400
H 	H 	0.35730 0.87620 0.24970 -0.01600
H 	H 	0.25270 0.66880 0.29090 0.04700
H 	H 	0.28470 0.70100 0.26130 0.04400
H 	H 	0.35290 0.60610 0.27020 0.04500
H 	H 	0.38650 0.65390 0.29520 0.05200
H 	H 	0.51860 0.79210 0.27170 0.05800
H 	H 	0.52220 0.69470 0.26770 0.04700
C 	C 	0.84760 0.70160 0.52820 0.08600
C 	C 	0.96690 0.83090 0.53360 0.11400
C 	C 	0.84260 0.75460 0.48320 -0.03300
C 	C 	0.89770 0.72110 0.46620 -0.11500
C 	C 	0.89870 0.74800 0.43790 -0.07300
C 	C 	0.97430 0.85510 0.42920 -0.09500
C 	C 	0.98320 0.87950 0.40130 -0.10000
C 	C 	0.06420 0.98050 0.39170 -0.02700
C 	C 	0.97770 0.14090 0.39460 0.09600
C 	C 	0.08860 0.13370 0.40970 0.09100
C 	C 	0.86130 0.48850 0.56340 0.08900
C 	C 	0.98990 0.58740 0.53950 0.05900
C 	C 	0.80270 0.34390 0.54140 -0.01400
C 	C 	0.85000 0.28800 0.53920 -0.13000
C 	C 	0.76110 0.19560 0.53250 -0.05100
C 	C 	0.80020 0.13160 0.52580 -0.11000
C 	C 	0.75180 0.06280 0.50600 -0.08300
C 	C 	0.78830 0.99630 0.50000 -0.05900
C 	C 	0.67290 0.90550 0.46960 0.08300
C 	C 	0.77620 0.91420 0.44140 0.08400
C 	C 	0.92410 0.54500 0.61870 0.08000
C 	C 	0.86400 0.63170 0.63170 0.08400
C 	C 	0.82190 0.55980 0.67650 -0.03700
C 	C 	0.84880 0.65390 0.68710 -0.09700
C 	C 	0.95680 0.73080 0.68800 -0.08600
C 	C 	0.99840 0.68910 0.70630 -0.08600
C 	C 	0.10840 0.76940 0.71020 -0.11400
C 	C 	0.13460 0.72710 0.73170 -0.03400
C 	C 	0.30900 0.78730 0.73710 0.08200
C 	C 	0.34530 0.92390 0.75080 0.07900
C 	C 	0.93660 0.22320 0.74660 0.09100
C 	C 	0.03730 0.27190 0.71360 0.09000
C 	C 	0.91360 0.26490 0.68550 -0.04000
C 	C 	0.86870 0.17210 0.67320 -0.10700
C 	C 	0.79710 0.15700 0.65390 -0.08700
C 	C 	0.85390 0.23830 0.63380 -0.07700
C 	C 	0.78260 0.23840 0.61700 -0.10500
C 	C 	0.70300 0.24740 0.63180 -0.03800
C 	C 	0.61510 0.34270 0.58860 0.09300
C 	C 	0.56920 0.20760 0.60720 0.08900
C 	C 	0.26990 0.01090 0.60940 0.08900
C 	C 	0.33810 0.13920 0.62670 0.08200
C 	C 	0.26430 0.07020 0.67070 -0.03300
C 	C 	0.15280 0.01360 0.68080 -0.11900
C 	C 	0.10970 0.07630 0.67200 -0.06400
C 	C 	0.02690 0.06220 0.69130 -0.10800
C 	C 	0.93250 0.96790 0.68800 -0.07800
C 	C 	0.85330 0.88970 0.70600 -0.04800
C 	C 	0.10620 0.41570 0.78050 0.07800
C 	C 	0.22710 0.48850 0.75220 0.09100
C 	C 	0.25760 0.25310 0.79730 0.08600
C 	C 	0.34990 0.35490 0.76560 0.08500
C 	C 	0.51520 0.41300 0.77760 -0.05100
C 	C 	0.55360 0.33970 0.77750 -0.08400
C 	C 	0.50640 0.24940 0.76440 -0.08200
C 	C 	0.72980 0.37580 0.97180 0.08600
C 	C 	0.86450 0.50050 0.96640 0.11600
C 	C 	0.73780 0.32580 0.01680 -0.03300
C 	C 	0.68730 0.36390 0.03380 -0.11500
C 	C 	0.68590 0.33660 0.06210 -0.07300
C 	C 	0.78430 0.40350 0.07080 -0.09400
C 	C 	0.78080 0.38450 0.09870 -0.10000
C 	C 	0.87220 0.45590 0.10830 -0.02800
C 	C 	0.03550 0.37230 0.10540 0.09400
C 	C 	0.04340 0.49830 0.09030 0.09100
C 	C 	0.55190 0.42470 0.93660 0.08900
C 	C 	0.62690 0.52940 0.96050 0.06000
C 	C 	0.38530 0.34410 0.95860 -0.01400
C 	C 	0.32720 0.38920 0.96080 -0.12900
C 	C 	0.22810 0.29360 0.96750 -0.05300
C 	C 	0.15740 0.32600 0.97420 -0.10700
C 	C 	0.06880 0.25780 0.99400 -0.08800
C 	C 	0.99630 0.28830 -0.00000 -0.05300
C 	C 	0.87510 0.14250 0.03040 0.08400
C 	C 	0.85560 0.21760 0.05860 0.08500
C 	C 	0.66370 0.54280 0.88130 0.08000
C 	C 	0.76340 0.49570 0.86830 0.08400
C 	C 	0.73630 0.49840 0.82350 -0.03700
C 	C 	0.84100 0.53590 0.81290 -0.09600
C 	C 	0.91880 0.64480 0.81200 -0.08700
C 	C 	0.89540 0.70470 0.79370 -0.08300
C 	C 	0.97960 0.81860 0.78980 -0.11800
C 	C 	0.95880 0.86630 0.76830 -0.03400
C 	C 	0.02440 0.04610 0.76290 0.07700
C 	C 	0.17470 0.09610 0.74920 0.07600
C 	C 	0.46980 0.68320 0.75340 0.09100
C 	C 	0.48550 0.75090 0.78640 0.09100
C 	C 	0.45040 0.59910 0.81450 -0.04000
C 	C 	0.34530 0.54190 0.82680 -0.10700
C 	C 	0.31090 0.45100 0.84610 -0.08700
C 	C 	0.37210 0.48770 0.86620 -0.07700
C 	C 	0.35540 0.39960 0.88300 -0.10500
C 	C 	0.37920 0.33480 0.86820 -0.03800
C 	C 	0.43130 0.20370 0.91140 0.09300
C 	C 	0.31480 0.17640 0.89280 0.08900
C 	C 	0.12030 0.87930 0.89060 0.09400
C 	C 	0.26590 0.96480 0.87330 0.08500
C 	C 	0.24090 0.93500 0.82930 -0.03600
C 	C 	0.19440 0.83360 0.81920 -0.11100
C 	C 	0.24830 0.78170 0.82800 -0.06900
C 	C 	0.25350 0.71820 0.80870 -0.10300
C 	C 	0.15590 0.62050 0.81200 -0.08100
C 	C 	0.09570 0.55930 0.79400 -0.04700
C 	C 	0.69620 0.88670 0.71950 0.07800
C 	C 	0.74070 0.97930 0.74780 0.09300
C 	C 	0.55040 0.05490 0.70270 0.08600
C 	C 	0.62050 0.11550 0.73440 0.08500
C 	C 	0.69060 0.29280 0.72240 -0.05100
C 	C 	0.61720 0.33110 0.72250 -0.08400
C 	C 	0.51380 0.27080 0.73560 -0.08300
C 	C 	0.15240 0.29840 0.47180 0.08600
C 	C 	0.03310 0.16910 0.46640 0.11400
C 	C 	0.15740 0.24540 0.51680 -0.03300
C 	C 	0.10230 0.27890 0.53380 -0.11500
C 	C 	0.10130 0.25200 0.56210 -0.07300
C 	C 	0.02570 0.14490 0.57080 -0.09500
C 	C 	0.01680 0.12050 0.59870 -0.10000
C 	C 	0.93580 0.01950 0.60830 -0.02700
C 	C 	0.02230 0.85910 0.60540 0.09600
C 	C 	0.91140 0.86630 0.59030 0.09100
C 	C 	0.13870 0.51150 0.43660 0.08900
C 	C 	0.01010 0.41260 0.46050 0.05900
C 	C 	0.19730 0.65610 0.45860 -0.01400
C 	C 	0.15000 0.71200 0.46080 -0.13000
C 	C 	0.23890 0.80440 0.46750 -0.05100
C 	C 	0.19980 0.86840 0.47420 -0.11000
C 	C 	0.24820 0.93720 0.49400 -0.08300
C 	C 	0.21170 0.00370 0.50000 -0.05900
C 	C 	0.32710 0.09450 0.53040 0.08300
C 	C 	0.22380 0.08580 0.55860 0.08400
C 	C 	0.07590 0.45500 0.38130 0.08000
C 	C 	0.13600 0.36830 0.36830 0.08400
C 	C 	0.17810 0.44020 0.32350 -0.03700
C 	C 	0.15120 0.34610 0.31290 -0.09700
C 	C 	0.04320 0.26920 0.31200 -0.08600
C 	C 	0.00160 0.31090 0.29370 -0.08600
C 	C 	0.89160 0.23060 0.28980 -0.11400
C 	C 	0.86540 0.27290 0.26830 -0.03400
C 	C 	0.69100 0.21270 0.26290 0.08200
C 	C 	0.65470 0.07610 0.24920 0.07900
C 	C 	0.06340 0.77680 0.25340 0.09100
C 	C 	0.96270 0.72810 0.28640 0.09000
C 	C 	0.08640 0.73510 0.31450 -0.04000
C 	C 	0.13130 0.82790 0.32680 -0.10700
C 	C 	0.20290 0.84300 0.34610 -0.08700
C 	C 	0.14610 0.76170 0.36620 -0.07700
C 	C 	0.21740 0.76160 0.38300 -0.10500
C 	C 	0.29700 0.75260 0.36820 -0.03800
C 	C 	0.38490 0.65730 0.41140 0.09300
C 	C 	0.43080 0.79240 0.39280 0.08900
C 	C 	0.73010 0.98910 0.39060 0.08900
C 	C 	0.66190 0.86080 0.37330 0.08200
C 	C 	0.73570 0.92980 0.32930 -0.03300
C 	C 	0.84720 0.98640 0.31920 -0.11900
C 	C 	0.89030 0.92370 0.32800 -0.06400
C 	C 	0.97310 0.93780 0.30870 -0.10800
C 	C 	0.06750 0.03210 0.31200 -0.07800
C 	C 	0.14670 0.11030 0.29400 -0.04800
C 	C 	0.89380 0.58430 0.21950 0.07800
C 	C 	0.77290 0.51150 0.24780 0.09100
C 	C 	0.74240 0.74690 0.20270 0.08600
C 	C 	0.65010 0.64510 0.23440 0.08500
C 	C 	0.48480 0.58700 0.22240 -0.05100
C 	C 	0.44640 0.66030 0.22250 -0.08400
C 	C 	0.49360 0.75060 0.23560 -0.08200
C 	C 	0.27020 0.62420 0.02820 0.08600
C 	C 	0.13550 0.49950 0.03360 0.11600
C 	C 	0.26220 0.67420 0.98320 -0.03300
C 	C 	0.31270 0.63610 0.96620 -0.11500
C 	C 	0.31410 0.66340 0.93790 -0.07300
C 	C 	0.21570 0.59650 0.92920 -0.09400
C 	C 	0.21920 0.61550 0.90130 -0.10000
C 	C 	0.12780 0.54410 0.89170 -0.02800
C 	C 	0.96450 0.62770 0.89460 0.09400
C 	C 	0.95660 0.50170 0.90970 0.09100
C 	C 	0.44810 0.57530 0.06340 0.08900
C 	C 	0.37310 0.47060 0.03950 0.06000
C 	C 	0.61470 0.65590 0.04140 -0.01400
C 	C 	0.67280 0.61080 0.03920 -0.12900
C 	C 	0.77190 0.70640 0.03250 -0.05300
C 	C 	0.84260 0.67400 0.02580 -0.10800
C 	C 	0.93120 0.74220 0.00600 -0.08800
C 	C 	0.00370 0.71170 -0.00000 -0.05300
C 	C 	0.12490 0.85750 0.96960 0.08400
C 	C 	0.14440 0.78240 0.94140 0.08500
C 	C 	0.33630 0.45720 0.11870 0.08000
C 	C 	0.23660 0.50430 0.13170 0.08400
C 	C 	0.26370 0.50160 0.17650 -0.03700
C 	C 	0.15900 0.46410 0.18710 -0.09600
C 	C 	0.08120 0.35520 0.18800 -0.08700
C 	C 	0.10460 0.29530 0.20630 -0.08300
C 	C 	0.02040 0.18140 0.21020 -0.11800
C 	C 	0.04120 0.13370 0.23170 -0.03400
C 	C 	0.97560 0.95390 0.23710 0.07700
C 	C 	0.82530 0.90390 0.25080 0.07600
C 	C 	0.53020 0.31680 0.24660 0.09100
C 	C 	0.51450 0.24910 0.21360 0.09100
C 	C 	0.54960 0.40090 0.18550 -0.04000
C 	C 	0.65470 0.45810 0.17320 -0.10700
C 	C 	0.68910 0.54900 0.15390 -0.08700
C 	C 	0.62790 0.51230 0.13380 -0.07700
C 	C 	0.64460 0.60040 0.11700 -0.10500
C 	C 	0.62080 0.66520 0.13180 -0.03800
C 	C 	0.56870 0.79630 0.08860 0.09300
C 	C 	0.68520 0.82360 0.10720 0.08900
C 	C 	0.87970 0.12070 0.10940 0.09400
C 	C 	0.73410 0.03520 0.12670 0.08500
C 	C 	0.75910 0.06500 0.17070 -0.03600
C 	C 	0.80560 0.16640 0.18080 -0.11100
C 	C 	0.75170 0.21830 0.17200 -0.06900
C 	C 	0.74650 0.28180 0.19130 -0.10300
C 	C 	0.84410 0.37950 0.18800 -0.08100
C 	C 	0.90430 0.44070 0.20600 -0.04700
C 	C 	0.30380 0.11330 0.28050 0.07800
C 	C 	0.25930 0.02070 0.25220 0.09300
C 	C 	0.44960 0.94510 0.29730 0.08600
C 	C 	0.37950 0.88450 0.26560 0.08500
C 	C 	0.30940 0.70720 0.27760 -0.05100
C 	C 	0.38280 0.66890 0.27750 -0.08400
C 	C 	0.48620 0.72920 0.26440 -0.08300
N 	N 	0.90720 0.74400 0.54480 -0.25400
N 	N 	0.95670 0.84940 0.51170 -0.10700
N 	N 	0.87550 0.76560 0.50810 -0.09800
N 	N 	0.96960 0.06080 0.38700 -0.09900
N 	N 	0.04490 0.05880 0.39710 -0.10100
N 	N 	0.94840 0.80760 0.59220 -0.24700
N 	N 	0.91800 0.57800 0.55960 -0.24700
N 	N 	0.96230 0.49990 0.53200 -0.08700
N 	N 	0.88470 0.44170 0.54460 -0.09200
N 	N 	0.75820 0.95100 0.47680 -0.09800
N 	N 	0.82920 0.96140 0.45860 -0.10100
N 	N 	0.32120 0.12060 0.55300 -0.26600
N 	N 	0.90330 0.61810 0.61060 -0.24100
N 	N 	0.89730 0.51650 0.64260 -0.09900
N 	N 	0.86140 0.57370 0.65050 -0.09400
N 	N 	0.25010 0.88020 0.74770 -0.09200
N 	N 	0.23250 0.79850 0.73840 -0.09400
N 	N 	0.11120 0.12790 0.75570 -0.24000
N 	N 	0.03250 0.24910 0.73740 -0.24300
N 	N 	0.88900 0.23490 0.73030 -0.09800
N 	N 	0.95170 0.26280 0.70950 -0.09500
N 	N 	0.65410 0.27000 0.61370 -0.09800
N 	N 	0.68050 0.35840 0.60190 -0.10900
N 	N 	0.53980 0.24970 0.59130 -0.26900
N 	N 	0.34050 0.10620 0.60490 -0.24600
N 	N 	0.27340 0.06460 0.64340 -0.09400
N 	N 	0.22980 0.98320 0.63280 -0.09600
N 	N 	0.21740 0.56010 0.76190 -0.09400
N 	N 	0.16050 0.39800 0.76330 -0.24100
N 	N 	0.79040 0.91780 0.72140 -0.09000
N 	N 	0.25470 0.29290 0.77420 -0.24200
N 	N 	0.34520 0.28680 0.80240 -0.10200
N 	N 	0.40520 0.35470 0.78230 -0.09100
N 	N 	0.78880 0.45200 0.95520 -0.25400
N 	N 	0.86110 0.46840 0.98830 -0.10700
N 	N 	0.77370 0.38360 0.99190 -0.09800
N 	N 	0.94780 0.35660 0.11300 -0.09900
N 	N 	0.95590 0.44200 0.10290 -0.10000
N 	N 	0.89980 0.54060 0.90780 -0.24600
N 	N 	0.63760 0.47760 0.94040 -0.24700
N 	N 	0.53190 0.49430 0.96800 -0.08700
N 	N 	0.48630 0.42930 0.95540 -0.09200
N 	N 	0.92780 0.23500 0.02320 -0.09900
N 	N 	0.92000 0.28780 0.04140 -0.10100
N 	N 	0.17360 0.87420 0.94700 -0.26600
N 	N 	0.72870 0.51390 0.88940 -0.24100
N 	N 	0.65910 0.53990 0.85740 -0.09900
N 	N 	0.72420 0.51190 0.84950 -0.09400
N 	N 	0.12790 0.99780 0.75230 -0.09000
N 	N 	0.03690 0.97090 0.76160 -0.09100
N 	N 	0.38360 0.86690 0.74430 -0.24100
N 	N 	0.48650 0.76990 0.76260 -0.24300
N 	N 	0.46520 0.61930 0.76970 -0.09800
N 	N 	0.47230 0.66120 0.79050 -0.09500
N 	N 	0.38370 0.26780 0.88630 -0.09800
N 	N 	0.46030 0.28240 0.89810 -0.10900
N 	N 	0.34100 0.13110 0.90870 -0.26900
N 	N 	0.21110 0.94540 0.89510 -0.24600
N 	N 	0.20800 0.91680 0.85660 -0.09300
N 	N 	0.11600 0.86260 0.86720 -0.09800
N 	N 	0.82200 0.97930 0.73810 -0.09400
N 	N 	0.66130 0.92380 0.73670 -0.24100
N 	N 	0.13920 0.51180 0.77860 -0.09000
N 	N 	0.56710 0.02890 0.72580 -0.24300
N 	N 	0.58920 0.14760 0.69760 -0.10200
N 	N 	0.63700 0.18750 0.71770 -0.09100
N 	N 	0.09280 0.25600 0.45520 -0.25400
N 	N 	0.04330 0.15060 0.48830 -0.10700
N 	N 	0.12450 0.23440 0.49190 -0.09800
N 	N 	0.03040 0.93920 0.61300 -0.09900
N 	N 	0.95510 0.94120 0.60290 -0.10100
N 	N 	0.05160 0.19240 0.40780 -0.24700
N 	N 	0.08200 0.42200 0.44040 -0.24700
N 	N 	0.03770 0.50010 0.46800 -0.08700
N 	N 	0.11530 0.55830 0.45540 -0.09200
N 	N 	0.24180 0.04900 0.52320 -0.09800
N 	N 	0.17080 0.03860 0.54140 -0.10100
N 	N 	0.67880 0.87940 0.44700 -0.26600
N 	N 	0.09670 0.38190 0.38940 -0.24100
N 	N 	0.10270 0.48350 0.35740 -0.09900
N 	N 	0.13860 0.42630 0.34950 -0.09400
N 	N 	0.74990 0.11980 0.25230 -0.09200
N 	N 	0.76750 0.20150 0.26160 -0.09400
N 	N 	0.88880 0.87210 0.24430 -0.24000
N 	N 	0.96750 0.75090 0.26260 -0.24300
N 	N 	0.11100 0.76510 0.26970 -0.09800
N 	N 	0.04830 0.73720 0.29050 -0.09500
N 	N 	0.34590 0.73000 0.38630 -0.09800
N 	N 	0.31950 0.64160 0.39810 -0.10900
N 	N 	0.46020 0.75030 0.40870 -0.26900
N 	N 	0.65950 0.89380 0.39510 -0.24600
N 	N 	0.72660 0.93540 0.35660 -0.09400
N 	N 	0.77020 0.01680 0.36720 -0.09600
N 	N 	0.78260 0.43990 0.23810 -0.09400
N 	N 	0.83950 0.60200 0.23670 -0.24100
N 	N 	0.20960 0.08220 0.27860 -0.09000
N 	N 	0.74530 0.70710 0.22580 -0.24200
N 	N 	0.65480 0.71320 0.19760 -0.10200
N 	N 	0.59480 0.64530 0.21770 -0.09100
N 	N 	0.21120 0.54800 0.04480 -0.25400
N 	N 	0.13890 0.53160 0.01170 -0.10700
N 	N 	0.22630 0.61640 0.00810 -0.09700
N 	N 	0.05220 0.64340 0.88700 -0.09900
N 	N 	0.04410 0.55800 0.89710 -0.10000
N 	N 	0.10020 0.45940 0.09220 -0.24600
N 	N 	0.36240 0.52240 0.05960 -0.24700
N 	N 	0.46810 0.50570 0.03200 -0.08700
N 	N 	0.51370 0.57070 0.04460 -0.09200
N 	N 	0.07220 0.76500 0.97680 -0.09900
N 	N 	0.08000 0.71220 0.95860 -0.10100
N 	N 	0.82640 0.12580 0.05300 -0.26600
N 	N 	0.27130 0.48610 0.11060 -0.24100
N 	N 	0.34090 0.46010 0.14260 -0.09900
N 	N 	0.27580 0.48810 0.15050 -0.09400
N 	N 	0.87210 0.00220 0.24770 -0.09000
N 	N 	0.96310 0.02910 0.23840 -0.09100
N 	N 	0.61640 0.13310 0.25570 -0.24100
N 	N 	0.51350 0.23010 0.23740 -0.24300
N 	N 	0.53480 0.38070 0.23030 -0.09800
N 	N 	0.52770 0.33880 0.20950 -0.09500
N 	N 	0.61630 0.73220 0.11370 -0.09800
N 	N 	0.53970 0.71760 0.10190 -0.10900
N 	N 	0.65900 0.86890 0.09130 -0.26900
N 	N 	0.78890 0.05460 0.10490 -0.24600
N 	N 	0.79200 0.08320 0.14340 -0.09300
N 	N 	0.88400 0.13740 0.13280 -0.09800
N 	N 	0.17800 0.02070 0.26190 -0.09400
N 	N 	0.33870 0.07620 0.26330 -0.24100
N 	N 	0.86080 0.48820 0.22140 -0.09000
N 	N 	0.43290 0.97110 0.27420 -0.24300
N 	N 	0.41080 0.85240 0.30240 -0.10200
N 	N 	0.36300 0.81250 0.28230 -0.09100
