data_crystal

_cell_length_a 9.25290
_cell_length_b 10.63550
_cell_length_c 11.04930
_cell_angle_alpha 63.62200
_cell_angle_beta  86.48900
_cell_angle_gamma 74.90700

_symmetry_space_group_name_	'P 1'
_symmetry_space_group_name_H-M	'P 1'

loop_
_symmetry_equiv_pos_as_xyz
  x,y,z

loop_
_atom_site_label
_atom_site_type_symbol
_atom_site_fract_x
_atom_site_fract_y
_atom_site_fract_z
_atom_site_charge
Co	Co	0.22196 0.27529 0.48166 1.14900
O 	O 	0.47340 0.30900 0.66770 -0.44100
O 	O 	0.32420 0.17650 0.66080 -0.47400
O 	O 	0.49040 0.41710 0.35920 -0.44300
O 	O 	0.31630 0.33390 0.30890 -0.46900
N 	N 	0.97790 0.33850 0.49050 -0.23200
N 	N 	0.80550 0.51250 0.52130 -0.19500
N 	N 	0.73440 0.41410 0.52130 -0.18900
N 	N 	0.77490 0.92860 0.50840 -0.23400
C 	C 	0.41660 0.20560 0.71800 0.39600
C 	C 	0.46080 0.09850 0.86480 -0.08800
C 	C 	0.55650 0.12090 0.94040 -0.01700
H 	H 	0.59400 0.20240 0.90080 0.04600
C 	C 	0.59690 0.02210 0.07530 -0.01800
H 	H 	0.66240 0.03690 0.12520 0.04900
C 	C 	0.42120 0.39740 0.27990 0.38700
C 	C 	0.46290 0.44920 0.13430 -0.08500
C 	C 	0.57590 0.51870 0.09330 -0.02000
H 	H 	0.62700 0.53180 0.15490 0.04800
C 	C 	0.61340 0.56940 0.95830 -0.01600
H 	H 	0.69020 0.61590 0.93030 0.04600
C 	C 	0.94540 0.46320 0.50180 0.03400
C 	C 	0.83920 0.31240 0.50240 0.10000
C 	C 	0.81030 0.18280 0.50170 0.03000
C 	C 	0.84760 0.15040 0.39250 -0.11500
H 	H 	0.88520 0.21340 0.31620 0.06700
C 	C 	0.82750 0.02300 0.40040 0.06900
H 	H 	0.85150 0.00180 0.32730 -0.00500
C 	C 	0.73770 0.96260 0.61120 0.06300
H 	H 	0.70000 0.89840 0.68660 0.00800
C 	C 	0.75300 0.08880 0.61030 -0.12100
H 	H 	0.72450 0.10930 0.68310 0.07700
Co	Co	0.77804 0.72471 0.51834 1.15000
O 	O 	0.52660 0.69100 0.33230 -0.44000
O 	O 	0.67580 0.82350 0.33920 -0.47300
O 	O 	0.50960 0.58290 0.64080 -0.44200
O 	O 	0.68370 0.66610 0.69110 -0.46800
N 	N 	0.02210 0.66150 0.50950 -0.23100
N 	N 	0.19450 0.48750 0.47870 -0.19500
N 	N 	0.26560 0.58590 0.47870 -0.18900
N 	N 	0.22510 0.07140 0.49160 -0.23400
C 	C 	0.58340 0.79440 0.28200 0.39600
C 	C 	0.53920 0.90150 0.13520 -0.08800
C 	C 	0.44350 0.87910 0.05960 -0.01700
H 	H 	0.40600 0.79760 0.09920 0.04600
C 	C 	0.40310 0.97790 0.92470 -0.01800
H 	H 	0.33760 0.96310 0.87480 0.04900
C 	C 	0.57880 0.60260 0.72010 0.38700
C 	C 	0.53710 0.55080 0.86570 -0.08500
C 	C 	0.42410 0.48130 0.90670 -0.02000
H 	H 	0.37300 0.46820 0.84510 0.04800
C 	C 	0.38660 0.43060 0.04170 -0.01600
H 	H 	0.30980 0.38410 0.06970 0.04600
C 	C 	0.05460 0.53680 0.49820 0.03400
C 	C 	0.16080 0.68760 0.49760 0.10000
C 	C 	0.18970 0.81720 0.49830 0.03000
C 	C 	0.15240 0.84960 0.60750 -0.11500
H 	H 	0.11480 0.78660 0.68380 0.06700
C 	C 	0.17250 0.97700 0.59960 0.06900
H 	H 	0.14850 0.99820 0.67270 -0.00500
C 	C 	0.26230 0.03740 0.38880 0.06300
H 	H 	0.30000 0.10160 0.31340 0.00800
C 	C 	0.24700 0.91120 0.38970 -0.12100
H 	H 	0.27550 0.89070 0.31690 0.07700
Co	Co	0.50000 0.50000 0.50000 1.18000
