data_crystal

_cell_length_a 9.19850
_cell_length_b 15.95760
_cell_length_c 16.09660
_cell_angle_alpha 73.17100
_cell_angle_beta  74.44000
_cell_angle_gamma 76.39200

_symmetry_space_group_name_	'P 1'
_symmetry_space_group_name_H-M	'P 1'

loop_
_symmetry_equiv_pos_as_xyz
  x,y,z

loop_
_atom_site_label
_atom_site_type_symbol
_atom_site_fract_x
_atom_site_fract_y
_atom_site_fract_z
_atom_site_charge
Co	Co	0.50000 0.50000 -0.00000 1.09800
Co	Co	-0.00000 0.00000 0.50000 1.07600
Co	Co	-0.00000 0.50000 0.50000 1.10200
H 	H 	0.97390 0.67590 0.02980 0.08200
H 	H 	0.96280 0.73110 0.15130 0.06900
H 	H 	0.17240 0.69150 0.21560 0.05100
H 	H 	0.38650 0.60180 0.16030 0.00500
H 	H 	0.18270 0.38880 0.64220 -0.03000
H 	H 	0.25960 0.39780 0.76230 0.11200
H 	H 	0.98250 0.63120 0.75590 0.20200
H 	H 	0.91580 0.61770 0.63390 -0.06700
H 	H 	0.95140 0.01080 0.81220 0.03100
H 	H 	0.10150 0.11710 0.78910 0.04900
H 	H 	0.21430 0.18370 0.64350 0.04900
H 	H 	0.17500 0.14160 0.52900 0.00400
H 	H 	0.63290 0.65770 0.99400 0.01200
H 	H 	0.73210 0.77770 0.90420 0.11100
H 	H 	0.65200 0.72030 0.69860 0.09700
H 	H 	0.55270 0.60030 0.79380 -0.00300
H 	H 	0.49130 0.41590 0.64860 0.08300
H 	H 	0.56070 0.26240 0.68210 0.00800
H 	H 	0.81740 0.20080 0.64220 0.09000
H 	H 	0.99200 0.29230 0.57010 0.00500
H 	H 	0.36200 0.95850 0.45880 0.01100
H 	H 	0.56260 0.84580 0.47370 0.08900
H 	H 	0.26870 0.67950 0.59790 0.09200
H 	H 	0.07510 0.79710 0.58040 -0.02000
H 	H 	0.02610 0.32410 0.97020 0.07500
H 	H 	0.03720 0.26890 0.84870 -0.05500
H 	H 	0.82760 0.30850 0.78440 0.11500
H 	H 	0.61350 0.39820 0.83970 -0.01500
H 	H 	0.81730 0.61120 0.35780 0.01100
H 	H 	0.74040 0.60220 0.23770 0.05300
H 	H 	0.01750 0.36880 0.24410 -0.01900
H 	H 	0.08420 0.38230 0.36610 0.04900
H 	H 	0.04860 0.98920 0.18780 0.12200
H 	H 	0.89850 0.88290 0.21090 -0.02300
H 	H 	0.78570 0.81630 0.35650 0.10700
H 	H 	0.82500 0.85840 0.47100 -0.01200
H 	H 	0.36710 0.34230 0.00600 -0.03600
H 	H 	0.26790 0.22230 0.09580 0.06800
H 	H 	0.34800 0.27970 0.30140 0.08600
H 	H 	0.44730 0.39970 0.20620 -0.00400
H 	H 	0.50870 0.58410 0.35140 0.08300
H 	H 	0.43930 0.73760 0.31790 0.00800
H 	H 	0.18260 0.79920 0.35780 0.08300
H 	H 	0.00800 0.70770 0.42990 -0.02700
H 	H 	0.63800 0.04150 0.54120 -0.02600
H 	H 	0.43740 0.15420 0.52630 0.07900
H 	H 	0.73130 0.32050 0.40210 0.09500
H 	H 	0.92490 0.20290 0.41960 0.00600
C 	C 	0.18780 0.52600 0.84590 0.04400
C 	C 	0.20770 0.56750 0.95230 0.14100
C 	C 	0.18870 0.60700 0.02610 -0.02300
C 	C 	0.05690 0.66140 0.05700 -0.10700
C 	C 	0.05010 0.69410 0.12920 -0.05800
C 	C 	0.17470 0.67070 0.16690 -0.07500
C 	C 	0.30300 0.61680 0.13350 0.04100
C 	C 	0.14320 0.43910 0.66460 0.13000
C 	C 	0.18980 0.44390 0.73690 -0.23000
C 	C 	0.13300 0.51690 0.77170 0.18000
C 	C 	0.02690 0.58170 0.73290 -0.38200
C 	C 	0.98660 0.57280 0.65980 0.27900
C 	C 	0.77610 0.83920 0.73170 0.08500
C 	C 	0.89320 0.94650 0.69010 0.14900
C 	C 	0.98020 0.01370 0.68310 -0.02500
C 	C 	0.99850 0.03740 0.75490 0.01300
C 	C 	0.08700 0.10090 0.74120 -0.09000
C 	C 	0.15440 0.14050 0.65470 -0.07000
C 	C 	0.13060 0.11450 0.58680 0.02100
C 	C 	0.63650 0.67020 0.93340 0.10200
C 	C 	0.69650 0.74240 0.87980 -0.14800
C 	C 	0.70510 0.76370 0.79010 0.08400
C 	C 	0.64940 0.70870 0.75900 -0.15000
C 	C 	0.58960 0.63650 0.81650 0.09600
C 	C 	0.56480 0.67050 0.54290 0.07600
C 	C 	0.67140 0.53820 0.56790 0.06500
C 	C 	0.70430 0.44130 0.59180 0.06200
C 	C 	0.59320 0.38960 0.63360 -0.12700
C 	C 	0.63410 0.29860 0.65330 0.06100
C 	C 	0.78620 0.26210 0.62940 -0.14700
C 	C 	0.88980 0.31730 0.58670 0.08900
C 	C 	0.34220 0.90140 0.48690 0.08800
C 	C 	0.46350 0.83360 0.49550 -0.14400
C 	C 	0.44190 0.74830 0.53560 0.07500
C 	C 	0.29120 0.73590 0.56860 -0.14800
C 	C 	0.17520 0.80740 0.55760 0.09200
C 	C 	0.81220 0.47400 0.15410 0.12200
C 	C 	0.79230 0.43250 0.04770 0.00700
C 	C 	0.81130 0.39300 0.97390 0.13100
C 	C 	0.94310 0.33860 0.94300 -0.12900
C 	C 	0.94990 0.30590 0.87080 0.17200
C 	C 	0.82530 0.32930 0.83310 -0.21000
C 	C 	0.69700 0.38320 0.86650 0.12800
C 	C 	0.85680 0.56090 0.33540 0.03700
C 	C 	0.81020 0.55610 0.26310 -0.05900
C 	C 	0.86700 0.48310 0.22830 -0.03400
C 	C 	0.97310 0.41830 0.26710 0.09300
C 	C 	0.01340 0.42720 0.34020 -0.11100
C 	C 	0.22390 0.16080 0.26830 0.07100
C 	C 	0.10680 0.05350 0.30990 -0.01600
C 	C 	0.01980 0.98630 0.31690 0.12500
C 	C 	0.00150 0.96260 0.24510 -0.24400
C 	C 	0.91300 0.89910 0.25880 0.17600
C 	C 	0.84560 0.85950 0.34530 -0.20600
C 	C 	0.86940 0.88550 0.41320 0.13000
C 	C 	0.36350 0.32980 0.06660 0.08000
C 	C 	0.30350 0.25760 0.12020 -0.15000
C 	C 	0.29490 0.23630 0.20990 0.06300
C 	C 	0.35060 0.29130 0.24100 -0.14500
C 	C 	0.41040 0.36350 0.18350 0.08200
C 	C 	0.43520 0.32950 0.45710 0.07600
C 	C 	0.32860 0.46180 0.43210 0.06200
C 	C 	0.29570 0.55870 0.40820 0.05900
C 	C 	0.40680 0.61040 0.36640 -0.12900
C 	C 	0.36590 0.70140 0.34670 0.06200
C 	C 	0.21380 0.73790 0.37060 -0.15400
C 	C 	0.11020 0.68270 0.41330 0.08700
C 	C 	0.65780 0.09860 0.51310 0.08300
C 	C 	0.53650 0.16640 0.50450 -0.15000
C 	C 	0.55810 0.25170 0.46440 0.07100
C 	C 	0.70880 0.26410 0.43140 -0.14300
C 	C 	0.82480 0.19260 0.44240 0.08800
N 	N 	0.33580 0.51160 0.93150 -0.20600
N 	N 	0.32500 0.48320 0.86220 -0.08700
N 	N 	0.11070 0.58050 0.89910 -0.12900
N 	N 	0.31250 0.58490 0.06340 -0.22700
N 	N 	0.04410 0.50300 0.62460 -0.30400
N 	N 	0.87300 0.93180 0.61640 -0.19500
N 	N 	0.79590 0.86130 0.64320 -0.08900
N 	N 	0.83430 0.89050 0.76460 -0.12100
N 	N 	0.04670 0.05180 0.59820 -0.24500
N 	N 	0.58270 0.61640 0.90400 -0.22700
N 	N 	0.78310 0.58540 0.52570 -0.19300
N 	N 	0.71450 0.67240 0.50920 -0.09400
N 	N 	0.53170 0.58740 0.58000 -0.12400
N 	N 	0.85200 0.40570 0.56760 -0.23500
N 	N 	0.19590 0.88970 0.51700 -0.23000
N 	N 	0.66420 0.48840 0.06850 -0.21500
N 	N 	0.67500 0.51680 0.13780 -0.10900
N 	N 	0.88930 0.41950 0.10090 -0.12100
N 	N 	0.68750 0.41510 0.93660 -0.23800
N 	N 	0.95590 0.49700 0.37540 -0.17800
N 	N 	0.12700 0.06820 0.38360 -0.21600
N 	N 	0.20410 0.13870 0.35680 -0.10700
N 	N 	0.16570 0.10950 0.23540 -0.13200
N 	N 	0.95330 0.94820 0.40180 -0.21900
N 	N 	0.41730 0.38360 0.09600 -0.24600
N 	N 	0.21690 0.41460 0.47430 -0.20400
N 	N 	0.28550 0.32760 0.49080 -0.10300
N 	N 	0.46830 0.41260 0.42000 -0.12400
N 	N 	0.14800 0.59430 0.43240 -0.25000
N 	N 	0.80410 0.11030 0.48300 -0.23700
