data_crystal

_cell_length_a 12.55830
_cell_length_b 14.59490
_cell_length_c 25.74100
_cell_angle_alpha 100.09300
_cell_angle_beta  90.00000
_cell_angle_gamma 90.00000

_symmetry_space_group_name_	'P 1'
_symmetry_space_group_name_H-M	'P 1'

loop_
_symmetry_equiv_pos_as_xyz
  x,y,z

loop_
_atom_site_label
_atom_site_type_symbol
_atom_site_fract_x
_atom_site_fract_y
_atom_site_fract_z
_atom_site_charge
Zn	Zn	0.10479 0.88344 0.87660 1.23300
Zn	Zn	0.72139 0.01732 0.19449 1.19700
Zn	Zn	0.92478 0.93005 0.47016 1.22100
Zn	Zn	0.60479 0.61656 0.62340 1.23400
Zn	Zn	0.22139 0.48268 0.30551 1.19900
Zn	Zn	0.42478 0.56995 0.02984 1.22100
Zn	Zn	0.89521 0.11656 0.12340 1.23400
Zn	Zn	0.27861 0.98268 0.80551 1.19800
Zn	Zn	0.07522 0.06995 0.52984 1.22100
Zn	Zn	0.39521 0.38344 0.37660 1.23400
Zn	Zn	0.77861 0.51732 0.69449 1.19900
Zn	Zn	0.57522 0.43005 0.97016 1.22100
H 	H 	0.81940 0.70140 0.31260 0.07900
H 	H 	0.59030 0.50910 0.45150 0.06300
H 	H 	0.04710 0.98680 0.68350 0.02400
H 	H 	0.77400 0.78740 0.49320 0.01400
H 	H 	0.61180 0.84460 0.20940 0.00200
H 	H 	0.70990 0.06020 0.31290 0.00400
H 	H 	0.88970 0.83520 0.35860 0.00800
H 	H 	0.51790 0.71240 0.23840 0.04100
H 	H 	0.71720 0.54940 0.31290 0.07100
H 	H 	0.45150 0.64440 0.30610 0.06100
H 	H 	0.62680 0.45720 0.36260 0.02600
H 	H 	0.64830 0.99630 0.38210 0.09000
H 	H 	0.66220 0.64710 0.49550 0.04200
H 	H 	0.47150 0.71960 0.39420 0.03500
H 	H 	0.55650 0.86040 0.41490 0.07500
H 	H 	0.92780 0.88880 0.00910 0.02600
H 	H 	0.90930 0.78550 0.75060 0.03100
H 	H 	0.68470 0.77120 0.07690 0.01900
H 	H 	0.83140 0.81170 0.60110 0.02800
H 	H 	0.80530 0.64250 0.93710 0.02200
H 	H 	0.31940 0.79860 0.18740 0.08000
H 	H 	0.09030 0.99090 0.04850 0.06400
H 	H 	0.54710 0.51320 0.81650 0.02500
H 	H 	0.27400 0.71260 0.00680 0.01400
H 	H 	0.11180 0.65540 0.29060 0.00100
H 	H 	0.20990 0.43980 0.18710 0.00400
H 	H 	0.38970 0.66480 0.14140 0.00800
H 	H 	0.01790 0.78760 0.26160 0.04100
H 	H 	0.21720 0.95060 0.18710 0.07200
H 	H 	0.95150 0.85560 0.19390 0.06200
H 	H 	0.12680 0.04280 0.13740 0.02400
H 	H 	0.14830 0.50370 0.11790 0.09100
H 	H 	0.16220 0.85290 0.00450 0.04100
H 	H 	0.97150 0.78040 0.10580 0.03400
H 	H 	0.05650 0.63960 0.08510 0.07500
H 	H 	0.42780 0.61120 0.49090 0.02600
H 	H 	0.40930 0.71450 0.74940 0.03100
H 	H 	0.18470 0.72880 0.42310 0.01900
H 	H 	0.33140 0.68830 0.89890 0.02800
H 	H 	0.30530 0.85750 0.56290 0.02200
H 	H 	0.18060 0.29860 0.68740 0.07900
H 	H 	0.40970 0.49090 0.54850 0.06300
H 	H 	0.95290 0.01320 0.31650 0.02400
H 	H 	0.22600 0.21260 0.50680 0.01400
H 	H 	0.38820 0.15540 0.79060 0.00200
H 	H 	0.29010 0.93980 0.68710 0.00400
H 	H 	0.11030 0.16480 0.64140 0.00800
H 	H 	0.48210 0.28760 0.76160 0.04100
H 	H 	0.28280 0.45060 0.68710 0.07100
H 	H 	0.54850 0.35560 0.69390 0.06100
H 	H 	0.37320 0.54280 0.63740 0.02600
H 	H 	0.35170 0.00370 0.61790 0.09000
H 	H 	0.33780 0.35290 0.50450 0.04200
H 	H 	0.52850 0.28040 0.60580 0.03500
H 	H 	0.44350 0.13960 0.58510 0.07500
H 	H 	0.07220 0.11120 0.99090 0.02600
H 	H 	0.09070 0.21450 0.24940 0.03100
H 	H 	0.31530 0.22880 0.92310 0.01900
H 	H 	0.16860 0.18830 0.39890 0.02800
H 	H 	0.19470 0.35750 0.06290 0.02200
H 	H 	0.68060 0.20140 0.81260 0.08000
H 	H 	0.90970 0.00910 0.95150 0.06400
H 	H 	0.45290 0.48680 0.18350 0.02500
H 	H 	0.72600 0.28740 0.99320 0.01400
H 	H 	0.88820 0.34460 0.70940 0.00100
H 	H 	0.79010 0.56020 0.81290 0.00400
H 	H 	0.61030 0.33520 0.85860 0.00800
H 	H 	0.98210 0.21240 0.73840 0.04100
H 	H 	0.78280 0.04940 0.81290 0.07200
H 	H 	0.04850 0.14440 0.80610 0.06200
H 	H 	0.87320 0.95720 0.86260 0.02400
H 	H 	0.85170 0.49630 0.88210 0.09100
H 	H 	0.83780 0.14710 0.99550 0.04100
H 	H 	0.02850 0.21960 0.89420 0.03400
H 	H 	0.94350 0.36040 0.91490 0.07500
H 	H 	0.57220 0.38880 0.50910 0.02600
H 	H 	0.59070 0.28550 0.25060 0.03100
H 	H 	0.81530 0.27120 0.57690 0.01900
H 	H 	0.66860 0.31170 0.10110 0.02800
H 	H 	0.69470 0.14250 0.43710 0.02200
C 	C 	0.57650 0.83150 0.28550 -0.03700
C 	C 	0.80930 0.71670 0.34970 -0.14000
C 	C 	0.05460 0.91730 0.77227 0.40600
C 	C 	0.63300 0.54620 0.43290 -0.07200
C 	C 	0.73380 0.69490 0.00713 -0.16600
C 	C 	0.95650 0.95110 0.58771 0.43200
C 	C 	0.65440 0.61810 0.00626 0.43800
C 	C 	0.98600 0.89140 0.72435 -0.15700
C 	C 	0.99880 0.93620 0.68147 0.09400
C 	C 	0.94060 0.90700 0.63529 -0.16200
C 	C 	0.75160 0.65770 0.37630 0.08400
C 	C 	0.78360 0.76890 0.45620 0.03800
C 	C 	0.61800 0.87550 0.24499 0.02800
C 	C 	0.67570 0.00130 0.30586 0.07800
C 	C 	0.85070 0.79550 0.37720 0.06900
C 	C 	0.52510 0.74310 0.27390 -0.02200
C 	C 	0.70770 0.56940 0.34980 -0.11000
C 	C 	0.73490 0.68300 0.43060 -0.03900
C 	C 	0.48650 0.70290 0.31370 -0.06700
C 	C 	0.65260 0.51630 0.37920 0.01000
C 	C 	0.63930 0.96380 0.34700 -0.13800
C 	C 	0.58820 0.87670 0.33790 0.08800
C 	C 	0.67430 0.62780 0.45880 -0.01600
C 	C 	0.49880 0.74840 0.36660 0.01600
C 	C 	0.54830 0.83190 0.37900 -0.11000
C 	C 	0.87790 0.83960 0.00826 0.09500
C 	C 	0.91720 0.81630 0.72120 0.08800
C 	C 	0.87710 0.76720 0.96556 -0.14800
C 	C 	0.80740 0.84160 0.04967 -0.17300
C 	C 	0.73430 0.76940 0.04882 0.10300
C 	C 	0.85960 0.78560 0.67497 -0.16000
C 	C 	0.87110 0.83170 0.63242 0.09300
C 	C 	0.80530 0.69360 0.96559 0.09000
C 	C 	0.95130 0.76860 0.91977 0.37300
C 	C 	0.80960 0.92320 0.09397 0.43200
C 	C 	0.79160 0.70180 0.66990 0.38600
C 	C 	0.07650 0.66850 0.21450 -0.03800
C 	C 	0.30930 0.78330 0.15030 -0.14100
C 	C 	0.55460 0.58270 0.72773 0.40600
C 	C 	0.13300 0.95380 0.06710 -0.07500
C 	C 	0.23380 0.80510 0.49287 -0.16700
C 	C 	0.45650 0.54890 0.91229 0.43300
C 	C 	0.15440 0.88190 0.49374 0.43800
C 	C 	0.48600 0.60860 0.77565 -0.15700
C 	C 	0.49880 0.56380 0.81853 0.09400
C 	C 	0.44060 0.59300 0.86471 -0.16200
C 	C 	0.25160 0.84230 0.12370 0.08600
C 	C 	0.28360 0.73110 0.04380 0.03900
C 	C 	0.11800 0.62450 0.25501 0.02900
C 	C 	0.17570 0.49870 0.19414 0.08100
C 	C 	0.35070 0.70450 0.12280 0.07000
C 	C 	0.02510 0.75690 0.22610 -0.02200
C 	C 	0.20770 0.93060 0.15020 -0.11300
C 	C 	0.23490 0.81700 0.06940 -0.04000
C 	C 	0.98650 0.79710 0.18630 -0.06700
C 	C 	0.15260 0.98370 0.12080 0.01500
C 	C 	0.13930 0.53620 0.15300 -0.14100
C 	C 	0.08820 0.62330 0.16210 0.08900
C 	C 	0.17430 0.87220 0.04120 -0.01400
C 	C 	0.99880 0.75160 0.13340 0.01700
C 	C 	0.04830 0.66810 0.12100 -0.11200
C 	C 	0.37790 0.66040 0.49174 0.09300
C 	C 	0.41720 0.68370 0.77880 0.08800
C 	C 	0.37710 0.73280 0.53444 -0.14600
C 	C 	0.30740 0.65840 0.45033 -0.17200
C 	C 	0.23430 0.73060 0.45118 0.10300
C 	C 	0.35960 0.71440 0.82503 -0.16000
C 	C 	0.37110 0.66830 0.86758 0.09300
C 	C 	0.30530 0.80640 0.53441 0.09100
C 	C 	0.45130 0.73140 0.58023 0.37300
C 	C 	0.30960 0.57680 0.40603 0.43200
C 	C 	0.29160 0.79820 0.83010 0.38600
C 	C 	0.42350 0.16850 0.71450 -0.03700
C 	C 	0.19070 0.28330 0.65030 -0.14000
C 	C 	0.94540 0.08270 0.22773 0.40600
C 	C 	0.36700 0.45380 0.56710 -0.07200
C 	C 	0.26620 0.30510 0.99287 -0.16600
C 	C 	0.04350 0.04890 0.41229 0.43200
C 	C 	0.34560 0.38190 0.99374 0.43800
C 	C 	0.01400 0.10860 0.27565 -0.15700
C 	C 	0.00120 0.06380 0.31853 0.09400
C 	C 	0.05940 0.09300 0.36471 -0.16200
C 	C 	0.24840 0.34230 0.62370 0.08400
C 	C 	0.21640 0.23110 0.54380 0.03800
C 	C 	0.38200 0.12450 0.75501 0.02800
C 	C 	0.32430 0.99870 0.69414 0.07800
C 	C 	0.14930 0.20450 0.62280 0.06900
C 	C 	0.47490 0.25690 0.72610 -0.02200
C 	C 	0.29230 0.43060 0.65020 -0.11000
C 	C 	0.26510 0.31700 0.56940 -0.03900
C 	C 	0.51350 0.29710 0.68630 -0.06700
C 	C 	0.34740 0.48370 0.62080 0.01000
C 	C 	0.36070 0.03620 0.65300 -0.13800
C 	C 	0.41180 0.12330 0.66210 0.08800
C 	C 	0.32570 0.37220 0.54120 -0.01600
C 	C 	0.50120 0.25160 0.63340 0.01600
C 	C 	0.45170 0.16810 0.62100 -0.11000
C 	C 	0.12210 0.16040 0.99174 0.09500
C 	C 	0.08280 0.18370 0.27880 0.08800
C 	C 	0.12290 0.23280 0.03444 -0.14800
C 	C 	0.19260 0.15840 0.95033 -0.17300
C 	C 	0.26570 0.23060 0.95118 0.10300
C 	C 	0.14040 0.21440 0.32503 -0.16000
C 	C 	0.12890 0.16830 0.36758 0.09300
C 	C 	0.19470 0.30640 0.03441 0.09000
C 	C 	0.04870 0.23140 0.08023 0.37300
C 	C 	0.19040 0.07680 0.90603 0.43200
C 	C 	0.20840 0.29820 0.33010 0.38600
C 	C 	0.92350 0.33150 0.78550 -0.03800
C 	C 	0.69070 0.21670 0.84970 -0.14100
C 	C 	0.44540 0.41730 0.27227 0.40600
C 	C 	0.86700 0.04620 0.93290 -0.07500
C 	C 	0.76620 0.19490 0.50713 -0.16700
C 	C 	0.54350 0.45110 0.08771 0.43300
C 	C 	0.84560 0.11810 0.50626 0.43800
C 	C 	0.51400 0.39140 0.22435 -0.15700
C 	C 	0.50120 0.43620 0.18147 0.09400
C 	C 	0.55940 0.40700 0.13529 -0.16200
C 	C 	0.74840 0.15770 0.87630 0.08600
C 	C 	0.71640 0.26890 0.95620 0.03900
C 	C 	0.88200 0.37550 0.74499 0.02900
C 	C 	0.82430 0.50130 0.80586 0.08100
C 	C 	0.64930 0.29550 0.87720 0.07000
C 	C 	0.97490 0.24310 0.77390 -0.02200
C 	C 	0.79230 0.06940 0.84980 -0.11300
C 	C 	0.76510 0.18300 0.93060 -0.04000
C 	C 	0.01350 0.20290 0.81370 -0.06700
C 	C 	0.84740 0.01630 0.87920 0.01500
C 	C 	0.86070 0.46380 0.84700 -0.14100
C 	C 	0.91180 0.37670 0.83790 0.08900
C 	C 	0.82570 0.12780 0.95880 -0.01400
C 	C 	0.00120 0.24840 0.86660 0.01700
C 	C 	0.95170 0.33190 0.87900 -0.11200
C 	C 	0.62210 0.33960 0.50826 0.09300
C 	C 	0.58280 0.31630 0.22120 0.08800
C 	C 	0.62290 0.26720 0.46556 -0.14600
C 	C 	0.69260 0.34160 0.54967 -0.17200
C 	C 	0.76570 0.26940 0.54882 0.10300
C 	C 	0.64040 0.28560 0.17497 -0.16000
C 	C 	0.62890 0.33170 0.13242 0.09300
C 	C 	0.69470 0.19360 0.46559 0.09100
C 	C 	0.54870 0.26860 0.41977 0.37300
C 	C 	0.69040 0.42320 0.59397 0.43200
C 	C 	0.70840 0.20180 0.16990 0.38600
N 	N 	0.66510 0.95760 0.25460 -0.25700
N 	N 	0.83950 0.82160 0.43126 -0.24400
N 	N 	0.16510 0.54240 0.24540 -0.25800
N 	N 	0.33950 0.67840 0.06874 -0.24400
N 	N 	0.33490 0.04240 0.74540 -0.25700
N 	N 	0.16050 0.17840 0.56874 -0.24400
N 	N 	0.83490 0.45760 0.75460 -0.25800
N 	N 	0.66050 0.32160 0.93126 -0.24400
O 	O 	0.75330 0.91900 0.13359 -0.51600
O 	O 	0.79050 0.65540 0.70675 -0.50100
O 	O 	0.01330 0.83940 0.92633 -0.46100
O 	O 	0.03180 0.87500 0.80991 -0.48900
O 	O 	0.12740 0.97560 0.77198 -0.47100
O 	O 	0.90960 0.91550 0.54635 -0.48500
O 	O 	0.57000 0.63690 0.03033 -0.47400
O 	O 	0.01780 0.01850 0.59228 -0.46800
O 	O 	0.67610 0.54020 0.98038 -0.47200
O 	O 	0.73920 0.68120 0.62721 -0.50100
O 	O 	0.86810 0.99000 0.08732 -0.50800
O 	O 	0.94760 0.70710 0.88105 -0.29300
O 	O 	0.25330 0.58100 0.36641 -0.51600
O 	O 	0.29050 0.84460 0.79325 -0.50100
O 	O 	0.51330 0.66060 0.57367 -0.46000
O 	O 	0.53180 0.62500 0.69009 -0.48900
O 	O 	0.62740 0.52440 0.72802 -0.47000
O 	O 	0.40960 0.58450 0.95365 -0.48500
O 	O 	0.07000 0.86310 0.46967 -0.47400
O 	O 	0.51780 0.48150 0.90772 -0.46900
O 	O 	0.17610 0.95980 0.51962 -0.47200
O 	O 	0.23920 0.81880 0.87279 -0.50200
O 	O 	0.36810 0.51000 0.41268 -0.50900
O 	O 	0.44760 0.79290 0.61895 -0.29300
O 	O 	0.24670 0.08100 0.86641 -0.51600
O 	O 	0.20950 0.34460 0.29325 -0.50100
O 	O 	0.98670 0.16060 0.07367 -0.46100
O 	O 	0.96820 0.12500 0.19009 -0.48900
O 	O 	0.87260 0.02440 0.22802 -0.47100
O 	O 	0.09040 0.08450 0.45365 -0.48500
O 	O 	0.43000 0.36310 0.96967 -0.47400
O 	O 	0.98220 0.98150 0.40772 -0.46800
O 	O 	0.32390 0.45980 0.01962 -0.47200
O 	O 	0.26080 0.31880 0.37279 -0.50100
O 	O 	0.13190 0.01000 0.91268 -0.50800
O 	O 	0.05240 0.29290 0.11895 -0.29300
O 	O 	0.74670 0.41900 0.63359 -0.51600
O 	O 	0.70950 0.15540 0.20675 -0.50100
O 	O 	0.48670 0.33940 0.42633 -0.46000
O 	O 	0.46820 0.37500 0.30991 -0.48900
O 	O 	0.37260 0.47560 0.27198 -0.47000
O 	O 	0.59040 0.41550 0.04635 -0.48500
O 	O 	0.93000 0.13690 0.53033 -0.47400
O 	O 	0.48220 0.51850 0.09228 -0.46900
O 	O 	0.82390 0.04020 0.48038 -0.47200
O 	O 	0.76080 0.18120 0.12721 -0.50200
O 	O 	0.63190 0.49000 0.58732 -0.50900
O 	O 	0.55240 0.20710 0.38105 -0.29300
