data_crystal

_cell_length_a 15.79910
_cell_length_b 11.42570
_cell_length_c 18.75820
_cell_angle_alpha 90.00000
_cell_angle_beta  103.36700
_cell_angle_gamma 90.00000

_symmetry_space_group_name_	'P 1'
_symmetry_space_group_name_H-M	'P 1'

loop_
_symmetry_equiv_pos_as_xyz
  x,y,z

loop_
_atom_site_label
_atom_site_type_symbol
_atom_site_fract_x
_atom_site_fract_y
_atom_site_fract_z
_atom_site_charge
Zn	Zn	0.57898 0.68356 0.19397 1.21700
Zn	Zn	0.77375 0.80838 0.17013 1.19700
Zn	Zn	0.58296 0.09088 0.99966 1.22600
O 	O 	0.43500 0.06830 0.15127 -0.30700
O 	O 	0.51453 0.20479 0.92611 -0.51600
O 	O 	0.45451 0.38014 0.90704 -0.48500
O 	O 	0.64041 0.01903 0.09969 -0.45800
O 	O 	0.77018 0.99103 0.17200 -0.43600
O 	O 	0.87804 0.55106 0.24218 -0.49100
O 	O 	0.76215 0.62597 0.16366 -0.51600
N 	N 	0.58381 0.25067 0.07509 -0.11000
N 	N 	0.29582 0.88780 0.03091 -0.24700
N 	N 	0.89142 0.82480 0.13143 -0.25600
N 	N 	0.46241 0.70200 0.22267 -0.25400
C 	C 	0.71241 0.05640 0.13721 0.38500
C 	C 	0.73172 0.18610 0.14186 -0.15100
C 	C 	0.81675 0.21610 0.17775 0.02700
H 	H 	0.85790 0.15530 0.19320 0.03600
C 	C 	0.84304 0.33090 0.19149 -0.04400
H 	H 	0.90120 0.34880 0.21610 0.05400
C 	C 	0.78297 0.41940 0.16865 -0.06200
C 	C 	0.69947 0.39320 0.12995 -0.06600
H 	H 	0.65960 0.45500 0.11330 0.06000
C 	C 	0.67270 0.27780 0.11497 0.06900
C 	C 	0.80908 0.54270 0.19198 0.38700
C 	C 	0.53107 0.21320 0.12761 -0.30300
H 	H 	0.49520 0.28060 0.13610 0.12100
H 	H 	0.57150 0.19460 0.17500 0.13200
C 	C 	0.47107 0.10880 0.10530 0.39600
C 	C 	0.54125 0.34570 0.02571 -0.41000
C 	C 	0.50007 0.30520 0.94836 0.42200
C 	C 	0.26110 0.78310 0.03943 0.08300
H 	H 	0.29410 0.71540 0.03430 -0.01400
C 	C 	0.18180 0.76740 0.05493 -0.13300
H 	H 	0.16030 0.69080 0.05970 0.07300
C 	C 	0.13220 0.86620 0.06372 0.05900
C 	C 	0.16740 0.97370 0.05530 -0.14000
H 	H 	0.13620 0.04290 0.06090 0.07800
C 	C 	0.24760 0.98150 0.03882 0.07400
H 	H 	0.27000 0.05710 0.03270 -0.01300
C 	C 	0.04709 0.85310 0.08440 0.04600
C 	C 	0.99460 0.75590 0.06510 -0.11600
H 	H 	0.01050 0.69660 0.03520 0.06400
C 	C 	0.91820 0.74540 0.08990 0.05700
H 	H 	0.88350 0.67750 0.07640 -0.01200
C 	C 	0.94210 0.92020 0.14790 0.06400
H 	H 	0.92420 0.97930 0.17690 0.00900
C 	C 	0.01800 0.93760 0.12550 -0.12700
H 	H 	0.05040 0.00760 0.13830 0.07700
C 	C 	0.41440 0.80020 0.21059 0.06800
H 	H 	0.43870 0.86780 0.19370 0.00900
C 	C 	0.33200 0.80650 0.22169 -0.11800
H 	H 	0.30030 0.87780 0.21320 0.07800
C 	C 	0.29515 0.70850 0.24533 0.04900
C 	C 	0.34530 0.60750 0.25940 -0.11700
H 	H 	0.32120 0.53830 0.27460 0.06500
C 	C 	0.42860 0.60713 0.25147 0.05300
H 	H 	0.46400 0.54020 0.26610 0.00100
H 	H 	0.49930 0.37940 0.05190 0.16100
H 	H 	0.58190 0.40160 0.02430 0.17800
O 	O 	0.66100 0.81008 0.21680 -0.63400
O 	O 	0.46111 0.07168 0.03900 -0.53300
Zn	Zn	0.92102 0.68356 0.30603 1.21600
Zn	Zn	0.72625 0.80838 0.32987 1.19700
Zn	Zn	0.91704 0.09088 0.50035 1.22600
O 	O 	0.06500 0.06830 0.34873 -0.30800
O 	O 	0.98547 0.20479 0.57389 -0.51700
O 	O 	0.04549 0.38014 0.59296 -0.48600
O 	O 	0.85959 0.01903 0.40031 -0.46000
O 	O 	0.72982 0.99103 0.32800 -0.43600
O 	O 	0.62196 0.55106 0.25782 -0.49300
O 	O 	0.73785 0.62597 0.33634 -0.51700
N 	N 	0.91619 0.25067 0.42491 -0.11000
N 	N 	0.20418 0.88780 0.46909 -0.24700
N 	N 	0.60858 0.82480 0.36857 -0.25500
N 	N 	0.03759 0.70200 0.27733 -0.25400
C 	C 	0.78759 0.05640 0.36279 0.38300
C 	C 	0.76828 0.18610 0.35814 -0.15100
C 	C 	0.68325 0.21610 0.32225 0.02700
H 	H 	0.64210 0.15530 0.30680 0.03600
C 	C 	0.65696 0.33090 0.30851 -0.04400
H 	H 	0.59880 0.34880 0.28390 0.05400
C 	C 	0.71703 0.41940 0.33135 -0.06200
C 	C 	0.80053 0.39320 0.37005 -0.06600
H 	H 	0.84040 0.45500 0.38670 0.06000
C 	C 	0.82730 0.27780 0.38503 0.06800
C 	C 	0.69092 0.54270 0.30802 0.38700
C 	C 	0.96893 0.21320 0.37239 -0.30500
H 	H 	0.00480 0.28060 0.36390 0.12200
H 	H 	0.92850 0.19460 0.32500 0.13300
C 	C 	0.02893 0.10880 0.39470 0.39700
C 	C 	0.95875 0.34570 0.47429 -0.41300
C 	C 	0.99993 0.30520 0.55164 0.42300
C 	C 	0.23890 0.78310 0.46057 0.08300
H 	H 	0.20590 0.71540 0.46570 -0.01400
C 	C 	0.31820 0.76740 0.44507 -0.13200
H 	H 	0.33970 0.69080 0.44030 0.07300
C 	C 	0.36780 0.86620 0.43628 0.05800
C 	C 	0.33260 0.97370 0.44470 -0.13400
H 	H 	0.36380 0.04290 0.43910 0.07400
C 	C 	0.25240 0.98150 0.46118 0.07800
H 	H 	0.23000 0.05710 0.46730 -0.01600
C 	C 	0.45291 0.85310 0.41560 0.04700
C 	C 	0.50540 0.75590 0.43490 -0.12000
H 	H 	0.48950 0.69660 0.46480 0.06600
C 	C 	0.58180 0.74540 0.41010 0.05900
H 	H 	0.61650 0.67750 0.42360 -0.01300
C 	C 	0.55790 0.92020 0.35210 0.05900
H 	H 	0.57580 0.97930 0.32310 0.01000
C 	C 	0.48200 0.93760 0.37450 -0.11800
H 	H 	0.44960 0.00760 0.36170 0.07300
C 	C 	0.08560 0.80020 0.28941 0.06700
H 	H 	0.06130 0.86780 0.30630 0.00900
C 	C 	0.16800 0.80650 0.27831 -0.11800
H 	H 	0.19970 0.87780 0.28680 0.07800
C 	C 	0.20485 0.70850 0.25467 0.04900
C 	C 	0.15470 0.60750 0.24060 -0.11700
H 	H 	0.17880 0.53830 0.22540 0.06500
C 	C 	0.07140 0.60713 0.24853 0.05300
H 	H 	0.03600 0.54020 0.23390 0.00100
H 	H 	0.00070 0.37940 0.44810 0.16200
H 	H 	0.91810 0.40160 0.47570 0.17900
O 	O 	0.83900 0.81008 0.28320 -0.63300
O 	O 	0.03889 0.07168 0.46100 -0.53400
Zn	Zn	0.42102 0.31644 0.80604 1.21600
Zn	Zn	0.22625 0.19162 0.82987 1.19600
Zn	Zn	0.41704 0.90912 0.00035 1.22500
O 	O 	0.56500 0.93170 0.84873 -0.30800
O 	O 	0.48547 0.79521 0.07389 -0.51700
O 	O 	0.54549 0.61986 0.09296 -0.48600
O 	O 	0.35959 0.98097 0.90031 -0.45900
O 	O 	0.22982 0.00897 0.82800 -0.43700
O 	O 	0.12196 0.44894 0.75782 -0.49200
O 	O 	0.23785 0.37403 0.83634 -0.51700
N 	N 	0.41619 0.74933 0.92491 -0.11000
N 	N 	0.70418 0.11220 0.96909 -0.24700
N 	N 	0.10858 0.17520 0.86857 -0.25600
N 	N 	0.53759 0.29800 0.77733 -0.25400
C 	C 	0.28759 0.94360 0.86279 0.38500
C 	C 	0.26828 0.81390 0.85814 -0.15100
C 	C 	0.18325 0.78390 0.82225 0.02700
H 	H 	0.14210 0.84470 0.80680 0.03600
C 	C 	0.15696 0.66910 0.80851 -0.04400
H 	H 	0.09880 0.65120 0.78390 0.05400
C 	C 	0.21703 0.58060 0.83135 -0.06200
C 	C 	0.30053 0.60680 0.87005 -0.06600
H 	H 	0.34040 0.54500 0.88670 0.06000
C 	C 	0.32730 0.72220 0.88503 0.06900
C 	C 	0.19092 0.45730 0.80802 0.38700
C 	C 	0.46893 0.78680 0.87239 -0.30300
H 	H 	0.50480 0.71940 0.86390 0.12100
H 	H 	0.42850 0.80540 0.82500 0.13200
C 	C 	0.52893 0.89120 0.89470 0.39600
C 	C 	0.45875 0.65430 0.97429 -0.41000
C 	C 	0.49993 0.69480 0.05164 0.42200
C 	C 	0.73890 0.21690 0.96057 0.08300
H 	H 	0.70590 0.28460 0.96570 -0.01400
C 	C 	0.81820 0.23260 0.94507 -0.13300
H 	H 	0.83970 0.30920 0.94030 0.07300
C 	C 	0.86780 0.13380 0.93628 0.05900
C 	C 	0.83260 0.02630 0.94470 -0.14000
H 	H 	0.86380 0.95710 0.93910 0.07800
C 	C 	0.75240 0.01850 0.96118 0.07400
H 	H 	0.73000 0.94290 0.96730 -0.01300
C 	C 	0.95291 0.14690 0.91560 0.04600
C 	C 	0.00540 0.24410 0.93490 -0.11600
H 	H 	0.98950 0.30340 0.96480 0.06400
C 	C 	0.08180 0.25460 0.91010 0.05700
H 	H 	0.11650 0.32250 0.92360 -0.01200
C 	C 	0.05790 0.07980 0.85210 0.06400
H 	H 	0.07580 0.02070 0.82310 0.00900
C 	C 	0.98200 0.06240 0.87450 -0.12700
H 	H 	0.94960 0.99240 0.86170 0.07700
C 	C 	0.58560 0.19980 0.78941 0.06800
H 	H 	0.56130 0.13220 0.80630 0.00900
C 	C 	0.66800 0.19350 0.77831 -0.11800
H 	H 	0.69970 0.12220 0.78680 0.07800
C 	C 	0.70485 0.29150 0.75467 0.04900
C 	C 	0.65470 0.39250 0.74060 -0.11700
H 	H 	0.67880 0.46170 0.72540 0.06500
C 	C 	0.57140 0.39287 0.74853 0.05300
H 	H 	0.53600 0.45980 0.73390 0.00100
H 	H 	0.50070 0.62060 0.94810 0.16100
H 	H 	0.41810 0.59840 0.97570 0.17800
O 	O 	0.33900 0.18992 0.78320 -0.63400
O 	O 	0.53889 0.92832 0.96100 -0.53300
Zn	Zn	0.07898 0.31644 0.69397 1.21600
Zn	Zn	0.27375 0.19162 0.67013 1.19700
Zn	Zn	0.08296 0.90912 0.49965 1.22600
O 	O 	0.93500 0.93170 0.65127 -0.30800
O 	O 	0.01453 0.79521 0.42611 -0.51700
O 	O 	0.95451 0.61986 0.40704 -0.48600
O 	O 	0.14041 0.98097 0.59969 -0.46000
O 	O 	0.27018 0.00897 0.67200 -0.43600
O 	O 	0.37804 0.44894 0.74218 -0.49300
O 	O 	0.26215 0.37403 0.66366 -0.51700
N 	N 	0.08381 0.74933 0.57509 -0.11000
N 	N 	0.79582 0.11220 0.53091 -0.24700
N 	N 	0.39142 0.17520 0.63143 -0.25500
N 	N 	0.96241 0.29800 0.72267 -0.25400
C 	C 	0.21241 0.94360 0.63721 0.38300
C 	C 	0.23172 0.81390 0.64186 -0.15100
C 	C 	0.31675 0.78390 0.67775 0.02700
H 	H 	0.35790 0.84470 0.69320 0.03600
C 	C 	0.34304 0.66910 0.69149 -0.04400
H 	H 	0.40120 0.65120 0.71610 0.05400
C 	C 	0.28297 0.58060 0.66865 -0.06200
C 	C 	0.19947 0.60680 0.62995 -0.06600
H 	H 	0.15960 0.54500 0.61330 0.06000
C 	C 	0.17270 0.72220 0.61497 0.06800
C 	C 	0.30908 0.45730 0.69198 0.38700
C 	C 	0.03107 0.78680 0.62761 -0.30500
H 	H 	0.99520 0.71940 0.63610 0.12200
H 	H 	0.07150 0.80540 0.67500 0.13300
C 	C 	0.97107 0.89120 0.60530 0.39700
C 	C 	0.04125 0.65430 0.52571 -0.41300
C 	C 	0.00007 0.69480 0.44836 0.42300
C 	C 	0.76110 0.21690 0.53943 0.08300
H 	H 	0.79410 0.28460 0.53430 -0.01400
C 	C 	0.68180 0.23260 0.55493 -0.13200
H 	H 	0.66030 0.30920 0.55970 0.07300
C 	C 	0.63220 0.13380 0.56372 0.05800
C 	C 	0.66740 0.02630 0.55530 -0.13400
H 	H 	0.63620 0.95710 0.56090 0.07400
C 	C 	0.74760 0.01850 0.53882 0.07800
H 	H 	0.77000 0.94290 0.53270 -0.01600
C 	C 	0.54709 0.14690 0.58440 0.04700
C 	C 	0.49460 0.24410 0.56510 -0.12000
H 	H 	0.51050 0.30340 0.53520 0.06600
C 	C 	0.41820 0.25460 0.58990 0.05900
H 	H 	0.38350 0.32250 0.57640 -0.01300
C 	C 	0.44210 0.07980 0.64790 0.05900
H 	H 	0.42420 0.02070 0.67690 0.01000
C 	C 	0.51800 0.06240 0.62550 -0.11800
H 	H 	0.55040 0.99240 0.63830 0.07300
C 	C 	0.91440 0.19980 0.71059 0.06700
H 	H 	0.93870 0.13220 0.69370 0.00900
C 	C 	0.83200 0.19350 0.72169 -0.11800
H 	H 	0.80030 0.12220 0.71320 0.07800
C 	C 	0.79515 0.29150 0.74533 0.04900
C 	C 	0.84530 0.39250 0.75940 -0.11700
H 	H 	0.82120 0.46170 0.77460 0.06500
C 	C 	0.92860 0.39287 0.75147 0.05300
H 	H 	0.96400 0.45980 0.76610 0.00100
H 	H 	0.99930 0.62060 0.55190 0.16200
H 	H 	0.08190 0.59840 0.52430 0.17900
O 	O 	0.16100 0.18992 0.71680 -0.63300
O 	O 	0.96111 0.92832 0.53900 -0.53400
