data_crystal

_cell_length_a 22.69400
_cell_length_b 29.69400
_cell_length_c 33.40800
_cell_angle_alpha 90.00000
_cell_angle_beta  90.00000
_cell_angle_gamma 90.00000

_symmetry_space_group_name_	'P 1'
_symmetry_space_group_name_H-M	'P 1'

loop_
_symmetry_equiv_pos_as_xyz
  x,y,z

loop_
_atom_site_label
_atom_site_type_symbol
_atom_site_fract_x
_atom_site_fract_y
_atom_site_fract_z
_atom_site_charge
O 	O 	0.53920 0.04030 0.79940 -0.48200
O 	O 	0.60720 0.07120 0.75860 -0.34400
N 	N 	0.69270 0.22170 0.97320 -0.26800
N 	N 	0.65360 0.25010 0.95540 -0.21800
H 	H 	0.64610 0.27730 0.96450 0.11600
C 	C 	0.58270 0.06690 0.79130 0.35200
C 	C 	0.60260 0.09720 0.82610 -0.17600
C 	C 	0.63650 0.13450 0.81750 0.10000
H 	H 	0.64990 0.13930 0.79090 -0.00700
C 	C 	0.65130 0.16490 0.84690 -0.22400
H 	H 	0.67240 0.19140 0.83990 0.10500
C 	C 	0.63580 0.15760 0.88630 0.19000
C 	C 	0.60430 0.11940 0.89480 -0.21700
H 	H 	0.59440 0.11250 0.92170 0.09300
C 	C 	0.58630 0.09030 0.86390 0.10300
H 	H 	0.56210 0.06510 0.87010 0.00800
C 	C 	0.65010 0.19060 0.91930 -0.27000
C 	C 	0.69110 0.18470 0.94940 0.28200
C 	C 	0.62810 0.23340 0.92340 0.27700
C 	C 	0.72820 0.14540 0.95940 -0.65600
H 	H 	0.74990 0.15150 0.98420 0.18700
H 	H 	0.75610 0.13990 0.93760 0.20900
H 	H 	0.70310 0.11890 0.96310 0.20200
C 	C 	0.58190 0.25930 0.89920 -0.61900
H 	H 	0.59270 0.29130 0.89830 0.19800
H 	H 	0.54330 0.25610 0.91200 0.19100
H 	H 	0.58020 0.24730 0.87200 0.20200
O 	O 	0.53920 0.54030 0.29940 -0.47700
O 	O 	0.60720 0.57120 0.25860 -0.34300
N 	N 	0.69270 0.72170 0.47320 -0.26500
N 	N 	0.65360 0.75010 0.45540 -0.22000
H 	H 	0.64610 0.77730 0.46450 0.12000
C 	C 	0.58270 0.56690 0.29130 0.35100
C 	C 	0.60260 0.59720 0.32610 -0.17500
C 	C 	0.63650 0.63450 0.31750 0.09900
H 	H 	0.64990 0.63930 0.29090 -0.00800
C 	C 	0.65130 0.66490 0.34690 -0.22500
H 	H 	0.67240 0.69140 0.33990 0.10400
C 	C 	0.63580 0.65760 0.38630 0.19000
C 	C 	0.60430 0.61940 0.39480 -0.21700
H 	H 	0.59440 0.61250 0.42170 0.09400
C 	C 	0.58630 0.59030 0.36390 0.10200
H 	H 	0.56210 0.56510 0.37010 0.01000
C 	C 	0.65010 0.69060 0.41930 -0.27300
C 	C 	0.69110 0.68470 0.44940 0.28700
C 	C 	0.62810 0.73340 0.42340 0.27900
C 	C 	0.72820 0.64540 0.45940 -0.67000
H 	H 	0.74990 0.65150 0.48420 0.19600
H 	H 	0.75610 0.63990 0.43760 0.21300
H 	H 	0.70310 0.61890 0.46310 0.21000
C 	C 	0.58190 0.75930 0.39920 -0.62100
H 	H 	0.59270 0.79130 0.39830 0.19900
H 	H 	0.54330 0.75610 0.41200 0.19200
H 	H 	0.58020 0.74730 0.37200 0.20300
O 	O 	0.03920 0.04030 0.29940 -0.49200
O 	O 	0.10720 0.07120 0.25860 -0.34800
N 	N 	0.19270 0.22170 0.47320 -0.26600
N 	N 	0.15360 0.25010 0.45540 -0.21900
H 	H 	0.14610 0.27730 0.46450 0.11800
C 	C 	0.08270 0.06690 0.29130 0.35200
C 	C 	0.10260 0.09720 0.32610 -0.18200
C 	C 	0.13650 0.13450 0.31750 0.10000
H 	H 	0.14990 0.13930 0.29090 -0.00900
C 	C 	0.15130 0.16490 0.34690 -0.22800
H 	H 	0.17240 0.19140 0.33990 0.10500
C 	C 	0.13580 0.15760 0.38630 0.19000
C 	C 	0.10430 0.11940 0.39480 -0.22300
H 	H 	0.09440 0.11250 0.42170 0.09400
C 	C 	0.08630 0.09030 0.36390 0.10400
H 	H 	0.06210 0.06510 0.37010 0.00200
C 	C 	0.15010 0.19060 0.41930 -0.27200
C 	C 	0.19110 0.18470 0.44940 0.28700
C 	C 	0.12810 0.23340 0.42340 0.27300
C 	C 	0.22820 0.14540 0.45940 -0.67000
H 	H 	0.24990 0.15150 0.48420 0.19600
H 	H 	0.25610 0.13990 0.43760 0.21300
H 	H 	0.20310 0.11890 0.46310 0.21000
C 	C 	0.08190 0.25930 0.39920 -0.60800
H 	H 	0.09270 0.29130 0.39830 0.19300
H 	H 	0.04330 0.25610 0.41200 0.18200
H 	H 	0.08020 0.24730 0.37200 0.19600
O 	O 	0.03920 0.54030 0.79940 -0.48600
O 	O 	0.10720 0.57120 0.75860 -0.34500
N 	N 	0.19270 0.72170 0.97320 -0.27000
N 	N 	0.15360 0.75010 0.95540 -0.21900
H 	H 	0.14610 0.77730 0.96450 0.11300
C 	C 	0.08270 0.56690 0.79130 0.35000
C 	C 	0.10260 0.59720 0.82610 -0.17800
C 	C 	0.13650 0.63450 0.81750 0.09700
H 	H 	0.14990 0.63930 0.79090 -0.00800
C 	C 	0.15130 0.66490 0.84690 -0.22500
H 	H 	0.17240 0.69140 0.83990 0.10400
C 	C 	0.13580 0.65760 0.88630 0.18600
C 	C 	0.10430 0.61940 0.89480 -0.21800
H 	H 	0.09440 0.61250 0.92170 0.09100
C 	C 	0.08630 0.59030 0.86390 0.10000
H 	H 	0.06210 0.56510 0.87010 0.00700
C 	C 	0.15010 0.69060 0.91930 -0.26900
C 	C 	0.19110 0.68470 0.94940 0.28000
C 	C 	0.12810 0.73340 0.92340 0.27000
C 	C 	0.22820 0.64540 0.95940 -0.65700
H 	H 	0.24990 0.65150 0.98420 0.18600
H 	H 	0.25610 0.63990 0.93760 0.20900
H 	H 	0.20310 0.61890 0.96310 0.20300
C 	C 	0.08190 0.75930 0.89920 -0.60600
H 	H 	0.09270 0.79130 0.89830 0.19200
H 	H 	0.04330 0.75610 0.91200 0.18000
H 	H 	0.08020 0.74730 0.87200 0.19500
O 	O 	0.46080 0.95970 0.79940 -0.46800
O 	O 	0.39280 0.92880 0.75860 -0.33900
N 	N 	0.30730 0.77830 0.97320 -0.26900
N 	N 	0.34640 0.74990 0.95540 -0.21900
H 	H 	0.35390 0.72270 0.96450 0.11500
C 	C 	0.41730 0.93310 0.79130 0.34900
C 	C 	0.39740 0.90280 0.82610 -0.17100
C 	C 	0.36350 0.86550 0.81750 0.09500
H 	H 	0.35010 0.86070 0.79090 -0.00700
C 	C 	0.34870 0.83510 0.84690 -0.22200
H 	H 	0.32760 0.80860 0.83990 0.10300
C 	C 	0.36420 0.84240 0.88630 0.18600
C 	C 	0.39570 0.88060 0.89480 -0.21300
H 	H 	0.40560 0.88750 0.92170 0.09200
C 	C 	0.41370 0.90970 0.86390 0.09800
H 	H 	0.43790 0.93490 0.87010 0.01500
C 	C 	0.34990 0.80940 0.91930 -0.27000
C 	C 	0.30890 0.81530 0.94940 0.28100
C 	C 	0.37190 0.76660 0.92340 0.27600
C 	C 	0.27180 0.85460 0.95940 -0.65700
H 	H 	0.25010 0.84850 0.98420 0.18600
H 	H 	0.24390 0.86010 0.93760 0.20900
H 	H 	0.29690 0.88110 0.96310 0.20300
C 	C 	0.41810 0.74070 0.89920 -0.61800
H 	H 	0.40730 0.70870 0.89830 0.19800
H 	H 	0.45670 0.74390 0.91200 0.19100
H 	H 	0.41980 0.75270 0.87200 0.20200
O 	O 	0.46080 0.45970 0.29940 -0.47700
O 	O 	0.39280 0.42880 0.25860 -0.34300
N 	N 	0.30730 0.27830 0.47320 -0.26500
N 	N 	0.34640 0.24990 0.45540 -0.22000
H 	H 	0.35390 0.22270 0.46450 0.12000
C 	C 	0.41730 0.43310 0.29130 0.35100
C 	C 	0.39740 0.40280 0.32610 -0.17500
C 	C 	0.36350 0.36550 0.31750 0.09900
H 	H 	0.35010 0.36070 0.29090 -0.00800
C 	C 	0.34870 0.33510 0.34690 -0.22500
H 	H 	0.32760 0.30860 0.33990 0.10400
C 	C 	0.36420 0.34240 0.38630 0.19000
C 	C 	0.39570 0.38060 0.39480 -0.21700
H 	H 	0.40560 0.38750 0.42170 0.09400
C 	C 	0.41370 0.40970 0.36390 0.10200
H 	H 	0.43790 0.43490 0.37010 0.01000
C 	C 	0.34990 0.30940 0.41930 -0.27300
C 	C 	0.30890 0.31530 0.44940 0.28800
C 	C 	0.37190 0.26660 0.42340 0.27900
C 	C 	0.27180 0.35460 0.45940 -0.67100
H 	H 	0.25010 0.34850 0.48420 0.19700
H 	H 	0.24390 0.36010 0.43760 0.21400
H 	H 	0.29690 0.38110 0.46310 0.21000
C 	C 	0.41810 0.24070 0.39920 -0.62100
H 	H 	0.40730 0.20870 0.39830 0.19900
H 	H 	0.45670 0.24390 0.41200 0.19200
H 	H 	0.41980 0.25270 0.37200 0.20300
O 	O 	0.96080 0.95970 0.29940 -0.45600
O 	O 	0.89280 0.92880 0.25860 -0.33600
N 	N 	0.80730 0.77830 0.47320 -0.26500
N 	N 	0.84640 0.74990 0.45540 -0.22100
H 	H 	0.85390 0.72270 0.46450 0.12100
C 	C 	0.91730 0.93310 0.29130 0.34900
C 	C 	0.89740 0.90280 0.32610 -0.16700
C 	C 	0.86350 0.86550 0.31750 0.09700
H 	H 	0.85010 0.86070 0.29090 -0.00700
C 	C 	0.84870 0.83510 0.34690 -0.22200
H 	H 	0.82760 0.80860 0.33990 0.10300
C 	C 	0.86420 0.84240 0.38630 0.18900
C 	C 	0.89570 0.88060 0.39480 -0.21200
H 	H 	0.90560 0.88750 0.42170 0.09500
C 	C 	0.91370 0.90970 0.36390 0.09900
H 	H 	0.93790 0.93490 0.37010 0.01900
C 	C 	0.84990 0.80940 0.41930 -0.27300
C 	C 	0.80890 0.81530 0.44940 0.28800
C 	C 	0.87190 0.76660 0.42340 0.28400
C 	C 	0.77180 0.85460 0.45940 -0.67000
H 	H 	0.75010 0.84850 0.48420 0.19600
H 	H 	0.74390 0.86010 0.43760 0.21300
H 	H 	0.79690 0.88110 0.46310 0.21000
C 	C 	0.91810 0.74070 0.39920 -0.63300
H 	H 	0.90730 0.70870 0.39830 0.20400
H 	H 	0.95670 0.74390 0.41200 0.20300
H 	H 	0.91980 0.75270 0.37200 0.21000
O 	O 	0.96080 0.45970 0.79940 -0.46500
O 	O 	0.89280 0.42880 0.75860 -0.34000
N 	N 	0.80730 0.27830 0.97320 -0.26900
N 	N 	0.84640 0.24990 0.95540 -0.22000
H 	H 	0.85390 0.22270 0.96450 0.11600
C 	C 	0.91730 0.43310 0.79130 0.35000
C 	C 	0.89740 0.40280 0.82610 -0.16900
C 	C 	0.86350 0.36550 0.81750 0.09800
H 	H 	0.85010 0.36070 0.79090 -0.00700
C 	C 	0.84870 0.33510 0.84690 -0.22200
H 	H 	0.82760 0.30860 0.83990 0.10300
C 	C 	0.86420 0.34240 0.88630 0.18800
C 	C 	0.89570 0.38060 0.89480 -0.21200
H 	H 	0.90560 0.38750 0.92170 0.09300
C 	C 	0.91370 0.40970 0.86390 0.10000
H 	H 	0.93790 0.43490 0.87010 0.01500
C 	C 	0.84990 0.30940 0.91930 -0.27100
C 	C 	0.80890 0.31530 0.94940 0.28200
C 	C 	0.87190 0.26660 0.92340 0.28200
C 	C 	0.77180 0.35460 0.95940 -0.65800
H 	H 	0.75010 0.34850 0.98420 0.18600
H 	H 	0.74390 0.36010 0.93760 0.20900
H 	H 	0.79690 0.38110 0.96310 0.20300
C 	C 	0.91810 0.24070 0.89920 -0.63200
H 	H 	0.90730 0.20870 0.89830 0.20400
H 	H 	0.95670 0.24390 0.91200 0.20200
H 	H 	0.91980 0.25270 0.87200 0.21000
O 	O 	0.78920 0.20970 0.04940 -0.47200
O 	O 	0.85720 0.17880 0.00860 -0.32700
N 	N 	0.94270 0.02830 0.22320 -0.26500
N 	N 	0.90360 0.99990 0.20540 -0.18700
H 	H 	0.89610 0.97270 0.21450 0.11700
C 	C 	0.83270 0.18310 0.04130 0.34700
C 	C 	0.85260 0.15280 0.07610 -0.16000
C 	C 	0.88650 0.11550 0.06750 0.08500
H 	H 	0.89990 0.11070 0.04090 0.00400
C 	C 	0.90130 0.08510 0.09690 -0.20200
H 	H 	0.92240 0.05860 0.08990 0.09800
C 	C 	0.88580 0.09240 0.13630 0.16600
C 	C 	0.85430 0.13060 0.14480 -0.19800
H 	H 	0.84440 0.13750 0.17170 0.08800
C 	C 	0.83630 0.15970 0.11390 0.08800
H 	H 	0.81210 0.18490 0.12010 0.01600
C 	C 	0.90010 0.05940 0.16930 -0.22700
C 	C 	0.94110 0.06530 0.19940 0.25300
C 	C 	0.87810 0.01660 0.17340 0.20100
C 	C 	0.97820 0.10460 0.20940 -0.57200
H 	H 	0.99990 0.09850 0.23420 0.17700
H 	H 	0.00610 0.11010 0.18760 0.16900
H 	H 	0.95310 0.13110 0.21310 0.18500
C 	C 	0.83190 0.99070 0.14920 -0.47100
H 	H 	0.84270 0.95870 0.14830 0.16000
H 	H 	0.79330 0.99390 0.16200 0.15700
H 	H 	0.83020 0.00270 0.12200 0.14600
O 	O 	0.78920 0.70970 0.54940 -0.47700
O 	O 	0.85720 0.67880 0.50860 -0.34000
N 	N 	0.94270 0.52830 0.72320 -0.25600
N 	N 	0.90360 0.49990 0.70540 -0.21900
H 	H 	0.89610 0.47270 0.71450 0.12100
C 	C 	0.83270 0.68310 0.54130 0.35100
C 	C 	0.85260 0.65280 0.57610 -0.17200
C 	C 	0.88650 0.61550 0.56750 0.09800
H 	H 	0.89990 0.61070 0.54090 -0.00500
C 	C 	0.90130 0.58510 0.59690 -0.22000
H 	H 	0.92240 0.55860 0.58990 0.10700
C 	C 	0.88580 0.59240 0.63630 0.18700
C 	C 	0.85430 0.63060 0.64480 -0.21300
H 	H 	0.84440 0.63750 0.67170 0.09300
C 	C 	0.83630 0.65970 0.61390 0.10000
H 	H 	0.81210 0.68490 0.62010 0.01200
C 	C 	0.90010 0.55940 0.66930 -0.26000
C 	C 	0.94110 0.56530 0.69940 0.26800
C 	C 	0.87810 0.51660 0.67340 0.27600
C 	C 	0.97820 0.60460 0.70940 -0.58600
H 	H 	0.99990 0.59850 0.73420 0.18100
H 	H 	0.00610 0.61010 0.68760 0.17400
H 	H 	0.95310 0.63110 0.71310 0.19000
C 	C 	0.83190 0.49070 0.64920 -0.61700
H 	H 	0.84270 0.45870 0.64830 0.19800
H 	H 	0.79330 0.49390 0.66200 0.19100
H 	H 	0.83020 0.50270 0.62200 0.20200
O 	O 	0.28920 0.20970 0.54940 -0.47700
O 	O 	0.35720 0.17880 0.50860 -0.34200
N 	N 	0.44270 0.02830 0.72320 -0.27400
N 	N 	0.40360 0.99990 0.70540 -0.18700
H 	H 	0.39610 0.97270 0.71450 0.11500
C 	C 	0.33270 0.18310 0.54130 0.34800
C 	C 	0.35260 0.15280 0.57610 -0.16800
C 	C 	0.38650 0.11550 0.56750 0.08800
H 	H 	0.39990 0.11070 0.54090 -0.00500
C 	C 	0.40130 0.08510 0.59690 -0.21100
H 	H 	0.42240 0.05860 0.58990 0.09600
C 	C 	0.38580 0.09240 0.63630 0.17000
C 	C 	0.35430 0.13060 0.64480 -0.20400
H 	H 	0.34440 0.13750 0.67170 0.08900
C 	C 	0.33630 0.15970 0.61390 0.09200
H 	H 	0.31210 0.18490 0.62010 0.01400
C 	C 	0.40010 0.05940 0.66930 -0.24000
C 	C 	0.44110 0.06530 0.69940 0.27200
C 	C 	0.37810 0.01660 0.67340 0.20300
C 	C 	0.47820 0.10460 0.70940 -0.65600
H 	H 	0.49990 0.09850 0.73420 0.19200
H 	H 	0.50610 0.11010 0.68760 0.20800
H 	H 	0.45310 0.13110 0.71310 0.20600
C 	C 	0.33190 0.99070 0.64920 -0.47100
H 	H 	0.34270 0.95870 0.64830 0.16000
H 	H 	0.29330 0.99390 0.66200 0.15700
H 	H 	0.33020 0.00270 0.62200 0.14600
O 	O 	0.28920 0.70970 0.04940 -0.47300
O 	O 	0.35720 0.67880 0.00860 -0.33000
N 	N 	0.44270 0.52830 0.22320 -0.26500
N 	N 	0.40360 0.49990 0.20540 -0.22000
H 	H 	0.39610 0.47270 0.21450 0.12000
C 	C 	0.33270 0.68310 0.04130 0.34900
C 	C 	0.35260 0.65280 0.07610 -0.17100
C 	C 	0.38650 0.61550 0.06750 0.09500
H 	H 	0.39990 0.61070 0.04090 -0.00200
C 	C 	0.40130 0.58510 0.09690 -0.22200
H 	H 	0.42240 0.55860 0.08990 0.10400
C 	C 	0.38580 0.59240 0.13630 0.18800
C 	C 	0.35430 0.63060 0.14480 -0.21500
H 	H 	0.34440 0.63750 0.17170 0.09400
C 	C 	0.33630 0.65970 0.11390 0.09900
H 	H 	0.31210 0.68490 0.12010 0.01200
C 	C 	0.40010 0.55940 0.16930 -0.27200
C 	C 	0.44110 0.56530 0.19940 0.28700
C 	C 	0.37810 0.51660 0.17340 0.27800
C 	C 	0.47820 0.60460 0.20940 -0.67000
H 	H 	0.49990 0.59850 0.23420 0.19600
H 	H 	0.50610 0.61010 0.18760 0.21300
H 	H 	0.45310 0.63110 0.21310 0.21000
C 	C 	0.33190 0.49070 0.14920 -0.62000
H 	H 	0.34270 0.45870 0.14830 0.19800
H 	H 	0.29330 0.49390 0.16200 0.19200
H 	H 	0.33020 0.50270 0.12200 0.20300
O 	O 	0.71080 0.29030 0.04940 -0.47300
O 	O 	0.64280 0.32120 0.00860 -0.32900
N 	N 	0.55730 0.47170 0.22320 -0.26500
N 	N 	0.59640 0.50010 0.20540 -0.22000
H 	H 	0.60390 0.52730 0.21450 0.12000
C 	C 	0.66730 0.31690 0.04130 0.34900
C 	C 	0.64740 0.34720 0.07610 -0.17100
C 	C 	0.61350 0.38450 0.06750 0.09500
H 	H 	0.60010 0.38930 0.04090 -0.00200
C 	C 	0.59870 0.41490 0.09690 -0.22200
H 	H 	0.57760 0.44140 0.08990 0.10400
C 	C 	0.61420 0.40760 0.13630 0.18800
C 	C 	0.64570 0.36940 0.14480 -0.21500
H 	H 	0.65560 0.36250 0.17170 0.09400
C 	C 	0.66370 0.34030 0.11390 0.09900
H 	H 	0.68790 0.31510 0.12010 0.01200
C 	C 	0.59990 0.44060 0.16930 -0.27200
C 	C 	0.55890 0.43470 0.19940 0.28700
C 	C 	0.62190 0.48340 0.17340 0.27800
C 	C 	0.52180 0.39540 0.20940 -0.67000
H 	H 	0.50010 0.40150 0.23420 0.19600
H 	H 	0.49390 0.38990 0.18760 0.21300
H 	H 	0.54690 0.36890 0.21310 0.21000
C 	C 	0.66810 0.50930 0.14920 -0.62100
H 	H 	0.65730 0.54130 0.14830 0.19900
H 	H 	0.70670 0.50610 0.16200 0.19200
H 	H 	0.66980 0.49730 0.12200 0.20300
O 	O 	0.71080 0.79030 0.54940 -0.47800
O 	O 	0.64280 0.82120 0.50860 -0.34300
N 	N 	0.55730 0.97170 0.72320 -0.25500
N 	N 	0.59640 0.00010 0.70540 -0.25200
H 	H 	0.60390 0.02730 0.71450 0.12500
C 	C 	0.66730 0.81690 0.54130 0.35300
C 	C 	0.64740 0.84720 0.57610 -0.18300
C 	C 	0.61350 0.88450 0.56750 0.11000
H 	H 	0.60010 0.88930 0.54090 -0.01000
C 	C 	0.59870 0.91490 0.59690 -0.24000
H 	H 	0.57760 0.94140 0.58990 0.11200
C 	C 	0.61420 0.90760 0.63630 0.20900
C 	C 	0.64570 0.86940 0.64480 -0.23000
H 	H 	0.65560 0.86250 0.67170 0.10000
C 	C 	0.66370 0.84030 0.61390 0.11200
H 	H 	0.68790 0.81510 0.62010 0.00700
C 	C 	0.59990 0.94060 0.66930 -0.30500
C 	C 	0.55890 0.93470 0.69940 0.30300
C 	C 	0.62190 0.98340 0.67340 0.35400
C 	C 	0.52180 0.89540 0.70940 -0.68500
H 	H 	0.50010 0.90150 0.73420 0.20100
H 	H 	0.49390 0.88990 0.68760 0.21900
H 	H 	0.54690 0.86890 0.71310 0.21500
C 	C 	0.66810 0.00930 0.64920 -0.77000
H 	H 	0.65730 0.04130 0.64830 0.23700
H 	H 	0.70670 0.00610 0.66200 0.22700
H 	H 	0.66980 0.99730 0.62200 0.26000
O 	O 	0.21080 0.29030 0.54940 -0.47800
O 	O 	0.14280 0.32120 0.50860 -0.34500
N 	N 	0.05730 0.47170 0.72320 -0.27200
N 	N 	0.09640 0.50010 0.70540 -0.22100
H 	H 	0.10390 0.52730 0.71450 0.11900
C 	C 	0.16730 0.31690 0.54130 0.35100
C 	C 	0.14740 0.34720 0.57610 -0.17900
C 	C 	0.11350 0.38450 0.56750 0.09900
H 	H 	0.10010 0.38930 0.54090 -0.01100
C 	C 	0.09870 0.41490 0.59690 -0.23100
H 	H 	0.07760 0.44140 0.58990 0.10100
C 	C 	0.11420 0.40760 0.63630 0.19300
C 	C 	0.14570 0.36940 0.64480 -0.22200
H 	H 	0.15560 0.36250 0.67170 0.09500
C 	C 	0.16370 0.34030 0.61390 0.10400
H 	H 	0.18790 0.31510 0.62010 0.00900
C 	C 	0.09990 0.44060 0.66930 -0.28600
C 	C 	0.05890 0.43470 0.69940 0.30800
C 	C 	0.12190 0.48340 0.67340 0.28200
C 	C 	0.02180 0.39540 0.70940 -0.75500
H 	H 	0.00010 0.40150 0.73420 0.21300
H 	H 	0.99390 0.38990 0.68760 0.25300
H 	H 	0.04690 0.36890 0.71310 0.23100
C 	C 	0.16810 0.50930 0.64920 -0.62400
H 	H 	0.15730 0.54130 0.64830 0.19900
H 	H 	0.20670 0.50610 0.66200 0.19300
H 	H 	0.16980 0.49730 0.62200 0.20400
O 	O 	0.21080 0.79030 0.04940 -0.47400
O 	O 	0.14280 0.82120 0.00860 -0.33300
N 	N 	0.05730 0.97170 0.22320 -0.26200
N 	N 	0.09640 0.00010 0.20540 -0.25400
H 	H 	0.10390 0.02730 0.21450 0.12400
C 	C 	0.16730 0.81690 0.04130 0.35200
C 	C 	0.14740 0.84720 0.07610 -0.18200
C 	C 	0.11350 0.88450 0.06750 0.10700
H 	H 	0.10010 0.88930 0.04090 -0.00800
C 	C 	0.09870 0.91490 0.09690 -0.24200
H 	H 	0.07760 0.94140 0.08990 0.11000
C 	C 	0.11420 0.90760 0.13630 0.21000
C 	C 	0.14570 0.86940 0.14480 -0.23300
H 	H 	0.15560 0.86250 0.17170 0.10000
C 	C 	0.16370 0.84030 0.11390 0.11000
H 	H 	0.18790 0.81510 0.12010 0.00700
C 	C 	0.09990 0.94060 0.16930 -0.31700
C 	C 	0.05890 0.93470 0.19940 0.32200
C 	C 	0.12190 0.98340 0.17340 0.35700
C 	C 	0.02180 0.89540 0.20940 -0.76700
H 	H 	0.00010 0.90150 0.23420 0.21700
H 	H 	0.99390 0.88990 0.18760 0.25700
H 	H 	0.04690 0.86890 0.21310 0.23500
C 	C 	0.16810 0.00930 0.14920 -0.77200
H 	H 	0.15730 0.04130 0.14830 0.23700
H 	H 	0.20670 0.00610 0.16200 0.22800
H 	H 	0.16980 0.99730 0.12200 0.26100
Zn	Zn	0.50000 0.00000 0.76288 1.20000
Zn	Zn	0.50000 0.50000 0.26288 1.20700
Zn	Zn	0.00000 0.00000 0.26288 1.19300
Zn	Zn	0.00000 0.50000 0.76288 1.20000
Zn	Zn	0.75000 0.25000 0.01288 1.21200
Zn	Zn	0.75000 0.75000 0.51288 1.20700
Zn	Zn	0.25000 0.25000 0.51288 1.20700
Zn	Zn	0.25000 0.75000 0.01288 1.21200
Zn	Zn	0.49759 0.25455 0.71821 1.20900
O 	O 	0.53740 0.29350 0.75560 -0.48200
O 	O 	0.61870 0.25300 0.76770 -0.32100
O 	O 	0.45650 0.29520 0.68140 -0.49000
O 	O 	0.37140 0.26060 0.66990 -0.33800
N 	N 	0.65040 0.44710 0.95420 -0.22000
H 	H 	0.63760 0.45520 0.97800 0.12000
N 	N 	0.69940 0.46390 0.93690 -0.27300
N 	N 	0.36720 0.46300 0.48640 -0.23200
H 	H 	0.38190 0.47740 0.46560 0.13500
N 	N 	0.30940 0.46770 0.49870 -0.28200
C 	C 	0.58690 0.28700 0.77290 0.35200
C 	C 	0.60700 0.32180 0.80280 -0.16000
C 	C 	0.57080 0.35700 0.81440 0.10200
H 	H 	0.53360 0.36050 0.80160 0.00400
C 	C 	0.58670 0.38660 0.84340 -0.21100
H 	H 	0.56050 0.41010 0.85080 0.10400
C 	C 	0.64170 0.38280 0.86230 0.17700
C 	C 	0.68000 0.34750 0.85080 -0.20000
H 	H 	0.71710 0.34410 0.86350 0.08500
C 	C 	0.66270 0.31740 0.82010 0.07700
H 	H 	0.68880 0.29440 0.81140 0.00900
C 	C 	0.65480 0.41280 0.89690 -0.27600
C 	C 	0.70430 0.44240 0.90160 0.27900
C 	C 	0.62330 0.41650 0.93070 0.31400
C 	C 	0.75430 0.45020 0.87390 -0.67300
H 	H 	0.78990 0.45710 0.88940 0.20400
H 	H 	0.74510 0.47560 0.85620 0.22300
H 	H 	0.76110 0.42310 0.85780 0.21800
C 	C 	0.56970 0.39260 0.94490 -0.69500
H 	H 	0.55410 0.37380 0.92320 0.22000
H 	H 	0.53990 0.41470 0.95290 0.22300
H 	H 	0.57980 0.37360 0.96780 0.22800
C 	C 	0.40760 0.29040 0.66410 0.38600
C 	C 	0.39680 0.32350 0.63120 -0.16500
C 	C 	0.43660 0.35840 0.62340 0.08500
H 	H 	0.47220 0.36040 0.63830 0.00400
C 	C 	0.42430 0.39020 0.59380 -0.19300
H 	H 	0.45150 0.41380 0.58880 0.08300
C 	C 	0.37160 0.38770 0.57110 0.17200
C 	C 	0.33230 0.35070 0.57930 -0.20100
H 	H 	0.29750 0.34720 0.56380 0.08800
C 	C 	0.34420 0.32120 0.60860 0.09400
H 	H 	0.31660 0.29810 0.61440 0.01100
C 	C 	0.35990 0.41970 0.53920 -0.27100
C 	C 	0.30570 0.44120 0.53070 0.27300
C 	C 	0.39850 0.43480 0.50860 0.31100
C 	C 	0.24930 0.43710 0.55340 -0.67400
H 	H 	0.22910 0.46620 0.55360 0.20400
H 	H 	0.25780 0.42780 0.58090 0.22100
H 	H 	0.22410 0.41450 0.54050 0.21000
C 	C 	0.46030 0.42580 0.50090 -0.70800
H 	H 	0.46940 0.43300 0.47300 0.22700
H 	H 	0.46840 0.39380 0.50580 0.22300
H 	H 	0.48460 0.44420 0.51870 0.22100
Zn	Zn	0.49759 0.75455 0.21821 1.20900
O 	O 	0.53740 0.79350 0.25560 -0.48200
O 	O 	0.61870 0.75300 0.26770 -0.32100
O 	O 	0.45650 0.79520 0.18140 -0.49000
O 	O 	0.37140 0.76060 0.16990 -0.33800
N 	N 	0.65040 0.94710 0.45420 -0.22200
H 	H 	0.63760 0.95520 0.47800 0.13400
N 	N 	0.69940 0.96390 0.43690 -0.26600
N 	N 	0.36720 0.96300 0.98640 -0.24200
H 	H 	0.38190 0.97740 0.96560 0.14300
N 	N 	0.30940 0.96770 0.99870 -0.28900
C 	C 	0.58690 0.78700 0.27290 0.35300
C 	C 	0.60700 0.82180 0.30280 -0.16200
C 	C 	0.57080 0.85700 0.31440 0.10400
H 	H 	0.53360 0.86050 0.30160 0.00300
C 	C 	0.58670 0.88660 0.34340 -0.21400
H 	H 	0.56050 0.91010 0.35080 0.10800
C 	C 	0.64170 0.88280 0.36230 0.18100
C 	C 	0.68000 0.84750 0.35080 -0.20300
H 	H 	0.71710 0.84410 0.36350 0.08600
C 	C 	0.66270 0.81740 0.32010 0.07800
H 	H 	0.68880 0.79440 0.31140 0.00800
C 	C 	0.65480 0.91280 0.39690 -0.28100
C 	C 	0.70430 0.94240 0.40160 0.28800
C 	C 	0.62330 0.91650 0.43070 0.32500
C 	C 	0.75430 0.95020 0.37390 -0.68700
H 	H 	0.78990 0.95710 0.38940 0.21300
H 	H 	0.74510 0.97560 0.35620 0.23300
H 	H 	0.76110 0.92310 0.35780 0.22200
C 	C 	0.56970 0.89260 0.44490 -0.71100
H 	H 	0.55410 0.87380 0.42320 0.22500
H 	H 	0.53990 0.91470 0.45290 0.23300
H 	H 	0.57980 0.87360 0.46780 0.23700
C 	C 	0.40760 0.79040 0.16410 0.38700
C 	C 	0.39680 0.82350 0.13120 -0.16600
C 	C 	0.43660 0.85840 0.12340 0.08900
H 	H 	0.47220 0.86040 0.13830 0.00400
C 	C 	0.42430 0.89020 0.09380 -0.19600
H 	H 	0.45150 0.91380 0.08880 0.08700
C 	C 	0.37160 0.88770 0.07110 0.17900
C 	C 	0.33230 0.85070 0.07930 -0.20400
H 	H 	0.29750 0.84720 0.06380 0.09200
C 	C 	0.34420 0.82120 0.10860 0.09700
H 	H 	0.31660 0.79810 0.11440 0.01000
C 	C 	0.35990 0.91970 0.03920 -0.27800
C 	C 	0.30570 0.94120 0.03070 0.30000
C 	C 	0.39850 0.93480 0.00860 0.32300
C 	C 	0.24930 0.93710 0.05340 -0.70100
H 	H 	0.22910 0.96620 0.05360 0.21800
H 	H 	0.25780 0.92780 0.08090 0.23000
H 	H 	0.22410 0.91450 0.04050 0.22200
C 	C 	0.46030 0.92580 0.00090 -0.67000
H 	H 	0.46940 0.93300 0.97300 0.20800
H 	H 	0.46840 0.89380 0.00580 0.21800
H 	H 	0.48460 0.94420 0.01870 0.21800
Zn	Zn	0.99759 0.25455 0.21821 1.21700
O 	O 	0.03740 0.29350 0.25560 -0.49300
O 	O 	0.11870 0.25300 0.26770 -0.32300
O 	O 	0.95650 0.29520 0.18140 -0.48000
O 	O 	0.87140 0.26060 0.16990 -0.33500
N 	N 	0.15040 0.44710 0.45420 -0.22000
H 	H 	0.13760 0.45520 0.47800 0.12600
N 	N 	0.19940 0.46390 0.43690 -0.27100
N 	N 	0.86720 0.46300 0.98640 -0.24200
H 	H 	0.88190 0.47740 0.96560 0.13700
N 	N 	0.80940 0.46770 0.99870 -0.29400
C 	C 	0.08690 0.28700 0.27290 0.35300
C 	C 	0.10700 0.32180 0.30280 -0.16300
C 	C 	0.07080 0.35700 0.31440 0.10100
H 	H 	0.03360 0.36050 0.30160 -0.00200
C 	C 	0.08670 0.38660 0.34340 -0.21200
H 	H 	0.06050 0.41010 0.35080 0.10000
C 	C 	0.14170 0.38280 0.36230 0.17600
C 	C 	0.18000 0.34750 0.35080 -0.20100
H 	H 	0.21710 0.34410 0.36350 0.08500
C 	C 	0.16270 0.31740 0.32010 0.07800
H 	H 	0.18880 0.29440 0.31140 0.00900
C 	C 	0.15480 0.41280 0.39690 -0.27500
C 	C 	0.20430 0.44240 0.40160 0.27900
C 	C 	0.12330 0.41650 0.43070 0.31300
C 	C 	0.25430 0.45020 0.37390 -0.67300
H 	H 	0.28990 0.45710 0.38940 0.20500
H 	H 	0.24510 0.47560 0.35620 0.22300
H 	H 	0.26110 0.42310 0.35780 0.21800
C 	C 	0.06970 0.39260 0.44490 -0.68800
H 	H 	0.05410 0.37380 0.42320 0.21200
H 	H 	0.03990 0.41470 0.45290 0.21600
H 	H 	0.07980 0.37360 0.46780 0.22600
C 	C 	0.90760 0.29040 0.16410 0.38600
C 	C 	0.89680 0.32350 0.13120 -0.16200
C 	C 	0.93660 0.35840 0.12340 0.08700
H 	H 	0.97220 0.36040 0.13830 0.01100
C 	C 	0.92430 0.39020 0.09380 -0.19300
H 	H 	0.95150 0.41380 0.08880 0.08800
C 	C 	0.87160 0.38770 0.07110 0.17700
C 	C 	0.83230 0.35070 0.07930 -0.20200
H 	H 	0.79750 0.34720 0.06380 0.09100
C 	C 	0.84420 0.32120 0.10860 0.09600
H 	H 	0.81660 0.29810 0.11440 0.01100
C 	C 	0.85990 0.41970 0.03920 -0.27800
C 	C 	0.80570 0.44120 0.03070 0.29600
C 	C 	0.89850 0.43480 0.00860 0.32500
C 	C 	0.74930 0.43710 0.05340 -0.69400
H 	H 	0.72910 0.46620 0.05360 0.21200
H 	H 	0.75780 0.42780 0.08090 0.22700
H 	H 	0.72410 0.41450 0.04050 0.21900
C 	C 	0.96030 0.42580 0.00090 -0.68000
H 	H 	0.96940 0.43300 0.97300 0.21400
H 	H 	0.96840 0.39380 0.00580 0.22500
H 	H 	0.98460 0.44420 0.01870 0.22400
Zn	Zn	0.99759 0.75455 0.71821 1.21700
O 	O 	0.03740 0.79350 0.75560 -0.49200
O 	O 	0.11870 0.75300 0.76770 -0.32300
O 	O 	0.95650 0.79520 0.68140 -0.48000
O 	O 	0.87140 0.76060 0.66990 -0.33500
N 	N 	0.15040 0.94710 0.95420 -0.21900
H 	H 	0.13760 0.95520 0.97800 0.12500
N 	N 	0.19940 0.96390 0.93690 -0.26800
N 	N 	0.86720 0.96300 0.48640 -0.23500
H 	H 	0.88190 0.97740 0.46560 0.14600
N 	N 	0.80940 0.96770 0.49870 -0.27600
C 	C 	0.08690 0.78700 0.77290 0.35300
C 	C 	0.10700 0.82180 0.80280 -0.16300
C 	C 	0.07080 0.85700 0.81440 0.10200
H 	H 	0.03360 0.86050 0.80160 -0.00200
C 	C 	0.08670 0.88660 0.84340 -0.21300
H 	H 	0.06050 0.91010 0.85080 0.10200
C 	C 	0.14170 0.88280 0.86230 0.17800
C 	C 	0.18000 0.84750 0.85080 -0.20200
H 	H 	0.21710 0.84410 0.86350 0.08600
C 	C 	0.16270 0.81740 0.82010 0.07800
H 	H 	0.18880 0.79440 0.81140 0.00900
C 	C 	0.15480 0.91280 0.89690 -0.27600
C 	C 	0.20430 0.94240 0.90160 0.28600
C 	C 	0.12330 0.91650 0.93070 0.31200
C 	C 	0.25430 0.95020 0.87390 -0.68600
H 	H 	0.28990 0.95710 0.88940 0.21300
H 	H 	0.24510 0.97560 0.85620 0.23300
H 	H 	0.26110 0.92310 0.85780 0.22200
C 	C 	0.06970 0.89260 0.94490 -0.68400
H 	H 	0.05410 0.87380 0.92320 0.21100
H 	H 	0.03990 0.91470 0.95290 0.21600
H 	H 	0.07980 0.87360 0.96780 0.22200
C 	C 	0.90760 0.79040 0.66410 0.38600
C 	C 	0.89680 0.82350 0.63120 -0.16200
C 	C 	0.93660 0.85840 0.62340 0.08700
H 	H 	0.97220 0.86040 0.63830 0.01100
C 	C 	0.92430 0.89020 0.59380 -0.19300
H 	H 	0.95150 0.91380 0.58880 0.08900
C 	C 	0.87160 0.88770 0.57110 0.17600
C 	C 	0.83230 0.85070 0.57930 -0.20200
H 	H 	0.79750 0.84720 0.56380 0.08900
C 	C 	0.84420 0.82120 0.60860 0.09500
H 	H 	0.81660 0.79810 0.61440 0.01100
C 	C 	0.85990 0.91970 0.53920 -0.27700
C 	C 	0.80570 0.94120 0.53070 0.28000
C 	C 	0.89850 0.93480 0.50860 0.32700
C 	C 	0.74930 0.93710 0.55340 -0.68300
H 	H 	0.72910 0.96620 0.55360 0.21200
H 	H 	0.75780 0.92780 0.58090 0.22500
H 	H 	0.72410 0.91450 0.54050 0.21300
C 	C 	0.96030 0.92580 0.50090 -0.73900
H 	H 	0.96940 0.93300 0.47300 0.24400
H 	H 	0.96840 0.89380 0.50580 0.23700
H 	H 	0.98460 0.94420 0.51870 0.24000
Zn	Zn	0.75241 0.50455 0.96821 1.20600
O 	O 	0.71260 0.54350 0.00560 -0.47100
O 	O 	0.63130 0.50300 0.01770 -0.31200
O 	O 	0.79350 0.54520 0.93140 -0.49200
O 	O 	0.87860 0.51060 0.91990 -0.33700
N 	N 	0.59960 0.69710 0.20420 -0.22100
H 	H 	0.61240 0.70520 0.22800 0.12800
N 	N 	0.55060 0.71390 0.18690 -0.27100
N 	N 	0.88280 0.71300 0.73640 -0.23400
H 	H 	0.86810 0.72740 0.71560 0.13700
N 	N 	0.94060 0.71770 0.74870 -0.28700
C 	C 	0.66310 0.53700 0.02290 0.35000
C 	C 	0.64300 0.57180 0.05280 -0.15600
C 	C 	0.67920 0.60700 0.06440 0.10000
H 	H 	0.71640 0.61050 0.05160 0.00800
C 	C 	0.66330 0.63660 0.09340 -0.20900
H 	H 	0.68950 0.66010 0.10080 0.10400
C 	C 	0.60830 0.63280 0.11230 0.17700
C 	C 	0.57000 0.59750 0.10080 -0.19800
H 	H 	0.53290 0.59410 0.11350 0.08500
C 	C 	0.58730 0.56740 0.07010 0.07600
H 	H 	0.56120 0.54440 0.06140 0.01200
C 	C 	0.59520 0.66280 0.14690 -0.27800
C 	C 	0.54570 0.69240 0.15160 0.28200
C 	C 	0.62670 0.66650 0.18070 0.32000
C 	C 	0.49570 0.70020 0.12390 -0.67800
H 	H 	0.46010 0.70710 0.13940 0.20600
H 	H 	0.50490 0.72560 0.10620 0.22600
H 	H 	0.48890 0.67310 0.10780 0.22100
C 	C 	0.68030 0.64260 0.19490 -0.70500
H 	H 	0.69590 0.62380 0.17320 0.22200
H 	H 	0.71010 0.66470 0.20290 0.22800
H 	H 	0.67020 0.62360 0.21780 0.23500
C 	C 	0.84240 0.54040 0.91410 0.38800
C 	C 	0.85320 0.57350 0.88120 -0.16800
C 	C 	0.81340 0.60840 0.87340 0.09100
H 	H 	0.77780 0.61040 0.88830 0.00300
C 	C 	0.82570 0.64020 0.84380 -0.20100
H 	H 	0.79850 0.66380 0.83880 0.08600
C 	C 	0.87840 0.63770 0.82110 0.18600
C 	C 	0.91770 0.60070 0.82930 -0.21100
H 	H 	0.95250 0.59720 0.81380 0.09700
C 	C 	0.90580 0.57120 0.85860 0.10100
H 	H 	0.93340 0.54810 0.86440 0.01300
C 	C 	0.89010 0.66970 0.78920 -0.29700
C 	C 	0.94430 0.69120 0.78070 0.33200
C 	C 	0.85150 0.68480 0.75860 0.32100
C 	C 	0.00070 0.68710 0.80340 -0.82400
H 	H 	0.02090 0.71620 0.80360 0.24100
H 	H 	0.99220 0.67780 0.83090 0.28000
H 	H 	0.02590 0.66450 0.79050 0.24600
C 	C 	0.78970 0.67580 0.75090 -0.71900
H 	H 	0.78060 0.68300 0.72300 0.23000
H 	H 	0.78160 0.64380 0.75580 0.22600
H 	H 	0.76540 0.69420 0.76870 0.22400
Zn	Zn	0.75241 0.00455 0.46821 1.20300
O 	O 	0.71260 0.04350 0.50560 -0.48800
O 	O 	0.63130 0.00300 0.51770 -0.33400
O 	O 	0.79350 0.04520 0.43140 -0.49600
O 	O 	0.87860 0.01060 0.41990 -0.34900
N 	N 	0.59960 0.19710 0.70420 -0.22100
H 	H 	0.61240 0.20520 0.72800 0.12800
N 	N 	0.55060 0.21390 0.68690 -0.27100
N 	N 	0.88280 0.21300 0.23640 -0.23400
H 	H 	0.86810 0.22740 0.21560 0.13700
N 	N 	0.94060 0.21770 0.24870 -0.28700
C 	C 	0.66310 0.03700 0.52290 0.35300
C 	C 	0.64300 0.07180 0.55280 -0.16600
C 	C 	0.67920 0.10700 0.56440 0.10300
H 	H 	0.71640 0.11050 0.55160 0.00300
C 	C 	0.66330 0.13660 0.59340 -0.21400
H 	H 	0.68950 0.16010 0.60080 0.10600
C 	C 	0.60830 0.13280 0.61230 0.17800
C 	C 	0.57000 0.09750 0.60080 -0.20500
H 	H 	0.53290 0.09410 0.61350 0.08500
C 	C 	0.58730 0.06740 0.57010 0.07700
H 	H 	0.56120 0.04440 0.56140 0.00400
C 	C 	0.59520 0.16280 0.64690 -0.27900
C 	C 	0.54570 0.19240 0.65160 0.28100
C 	C 	0.62670 0.16650 0.68070 0.31900
C 	C 	0.49570 0.20020 0.62390 -0.67500
H 	H 	0.46010 0.20710 0.63940 0.20500
H 	H 	0.50490 0.22560 0.60620 0.22300
H 	H 	0.48890 0.17310 0.60780 0.21800
C 	C 	0.68030 0.14260 0.69490 -0.70300
H 	H 	0.69590 0.12380 0.67320 0.22000
H 	H 	0.71010 0.16470 0.70290 0.22800
H 	H 	0.67020 0.12360 0.71780 0.23300
C 	C 	0.84240 0.04040 0.41410 0.38900
C 	C 	0.85320 0.07350 0.38120 -0.17200
C 	C 	0.81340 0.10840 0.37340 0.09200
H 	H 	0.77780 0.11040 0.38830 0.00200
C 	C 	0.82570 0.14020 0.34380 -0.20300
H 	H 	0.79850 0.16380 0.33880 0.08700
C 	C 	0.87840 0.13770 0.32110 0.18700
C 	C 	0.91770 0.10070 0.32930 -0.21400
H 	H 	0.95250 0.09720 0.31380 0.09800
C 	C 	0.90580 0.07120 0.35860 0.10300
H 	H 	0.93340 0.04810 0.36440 0.00900
C 	C 	0.89010 0.16970 0.28920 -0.29700
C 	C 	0.94430 0.19120 0.28070 0.33300
C 	C 	0.85150 0.18480 0.25860 0.32100
C 	C 	0.00070 0.18710 0.30340 -0.82600
H 	H 	0.02090 0.21620 0.30360 0.24100
H 	H 	0.99220 0.17780 0.33090 0.28100
H 	H 	0.02590 0.16450 0.29050 0.24700
C 	C 	0.78970 0.17580 0.25090 -0.71600
H 	H 	0.78060 0.18300 0.22300 0.22900
H 	H 	0.78160 0.14380 0.25580 0.22400
H 	H 	0.76540 0.19420 0.26870 0.22300
Zn	Zn	0.25241 0.50455 0.46821 1.20900
O 	O 	0.21260 0.54350 0.50560 -0.48200
O 	O 	0.13130 0.50300 0.51770 -0.32300
O 	O 	0.29350 0.54520 0.43140 -0.49000
O 	O 	0.37860 0.51060 0.41990 -0.33800
N 	N 	0.09960 0.69710 0.70420 -0.21900
H 	H 	0.11240 0.70520 0.72800 0.12600
N 	N 	0.05060 0.71390 0.68690 -0.26700
N 	N 	0.38280 0.71300 0.23640 -0.23200
H 	H 	0.36810 0.72740 0.21560 0.13500
N 	N 	0.44060 0.71770 0.24870 -0.28200
C 	C 	0.16310 0.53700 0.52290 0.35100
C 	C 	0.14300 0.57180 0.55280 -0.15800
C 	C 	0.17920 0.60700 0.56440 0.09700
H 	H 	0.21640 0.61050 0.55160 0.00500
C 	C 	0.16330 0.63660 0.59340 -0.20400
H 	H 	0.18950 0.66010 0.60080 0.10200
C 	C 	0.10830 0.63280 0.61230 0.16400
C 	C 	0.07000 0.59750 0.60080 -0.19400
H 	H 	0.03290 0.59410 0.61350 0.07800
C 	C 	0.08730 0.56740 0.57010 0.07100
H 	H 	0.06120 0.54440 0.56140 0.00600
C 	C 	0.09520 0.66280 0.64690 -0.25400
C 	C 	0.04570 0.69240 0.65160 0.22300
C 	C 	0.12670 0.66650 0.68070 0.31000
C 	C 	0.99570 0.70020 0.62390 -0.52900
H 	H 	0.96010 0.70710 0.63940 0.16900
H 	H 	0.00490 0.72560 0.60620 0.16700
H 	H 	0.98890 0.67310 0.60780 0.18700
C 	C 	0.18030 0.64260 0.69490 -0.69500
H 	H 	0.19590 0.62380 0.67320 0.22000
H 	H 	0.21010 0.66470 0.70290 0.22600
H 	H 	0.17020 0.62360 0.71780 0.23200
C 	C 	0.34240 0.54040 0.41410 0.38600
C 	C 	0.35320 0.57350 0.38120 -0.16500
C 	C 	0.31340 0.60840 0.37340 0.08500
H 	H 	0.27780 0.61040 0.38830 0.00400
C 	C 	0.32570 0.64020 0.34380 -0.19300
H 	H 	0.29850 0.66380 0.33880 0.08300
C 	C 	0.37840 0.63770 0.32110 0.17100
C 	C 	0.41770 0.60070 0.32930 -0.20100
H 	H 	0.45250 0.59720 0.31380 0.08800
C 	C 	0.40580 0.57120 0.35860 0.09300
H 	H 	0.43340 0.54810 0.36440 0.01100
C 	C 	0.39010 0.66970 0.28920 -0.27100
C 	C 	0.44430 0.69120 0.28070 0.27200
C 	C 	0.35150 0.68480 0.25860 0.31000
C 	C 	0.50070 0.68710 0.30340 -0.67400
H 	H 	0.52090 0.71620 0.30360 0.20400
H 	H 	0.49220 0.67780 0.33090 0.22100
H 	H 	0.52590 0.66450 0.29050 0.20900
C 	C 	0.28970 0.67580 0.25090 -0.70700
H 	H 	0.28060 0.68300 0.22300 0.22600
H 	H 	0.28160 0.64380 0.25580 0.22200
H 	H 	0.26540 0.69420 0.26870 0.22000
Zn	Zn	0.25241 0.00455 0.96821 1.19900
O 	O 	0.21260 0.04350 0.00560 -0.47700
O 	O 	0.13130 0.00300 0.01770 -0.32700
O 	O 	0.29350 0.04520 0.93140 -0.49800
O 	O 	0.37860 0.01060 0.91990 -0.35300
N 	N 	0.09960 0.19710 0.20420 -0.21900
H 	H 	0.11240 0.20520 0.22800 0.12600
N 	N 	0.05060 0.21390 0.18690 -0.26700
N 	N 	0.38280 0.21300 0.73640 -0.23200
H 	H 	0.36810 0.22740 0.71560 0.13500
N 	N 	0.44060 0.21770 0.74870 -0.28200
C 	C 	0.16310 0.03700 0.02290 0.35000
C 	C 	0.14300 0.07180 0.05280 -0.15800
C 	C 	0.17920 0.10700 0.06440 0.09600
H 	H 	0.21640 0.11050 0.05160 0.00800
C 	C 	0.16330 0.13660 0.09340 -0.20400
H 	H 	0.18950 0.16010 0.10080 0.10200
C 	C 	0.10830 0.13280 0.11230 0.16400
C 	C 	0.07000 0.09750 0.10080 -0.19500
H 	H 	0.03290 0.09410 0.11350 0.07700
C 	C 	0.08730 0.06740 0.07010 0.07000
H 	H 	0.06120 0.04440 0.06140 0.00400
C 	C 	0.09520 0.16280 0.14690 -0.25400
C 	C 	0.04570 0.19240 0.15160 0.22500
C 	C 	0.12670 0.16650 0.18070 0.30900
C 	C 	0.99570 0.20020 0.12390 -0.53300
H 	H 	0.96010 0.20710 0.13940 0.17000
H 	H 	0.00490 0.22560 0.10620 0.17000
H 	H 	0.98890 0.17310 0.10780 0.18900
C 	C 	0.18030 0.14260 0.19490 -0.69300
H 	H 	0.19590 0.12380 0.17320 0.21700
H 	H 	0.21010 0.16470 0.20290 0.22500
H 	H 	0.17020 0.12360 0.21780 0.23000
C 	C 	0.34240 0.04040 0.91410 0.38800
C 	C 	0.35320 0.07350 0.88120 -0.17000
C 	C 	0.31340 0.10840 0.87340 0.08600
H 	H 	0.27780 0.11040 0.88830 0.00300
C 	C 	0.32570 0.14020 0.84380 -0.19500
H 	H 	0.29850 0.16380 0.83880 0.08300
C 	C 	0.37840 0.13770 0.82110 0.17200
C 	C 	0.41770 0.10070 0.82930 -0.20400
H 	H 	0.45250 0.09720 0.81380 0.08900
C 	C 	0.40580 0.07120 0.85860 0.09500
H 	H 	0.43340 0.04810 0.86440 0.00600
C 	C 	0.39010 0.16970 0.78920 -0.27100
C 	C 	0.44430 0.19120 0.78070 0.27300
C 	C 	0.35150 0.18480 0.75860 0.31000
C 	C 	0.50070 0.18710 0.80340 -0.67400
H 	H 	0.52090 0.21620 0.80360 0.20400
H 	H 	0.49220 0.17780 0.83090 0.22100
H 	H 	0.52590 0.16450 0.79050 0.21000
C 	C 	0.28970 0.17580 0.75090 -0.70500
H 	H 	0.28060 0.18300 0.72300 0.22600
H 	H 	0.28160 0.14380 0.75580 0.22100
H 	H 	0.26540 0.19420 0.76870 0.21900
O 	O 	0.78750 0.20530 0.57830 -0.48700
O 	O 	0.87240 0.23900 0.58850 -0.33500
N 	N 	0.88570 0.03720 0.77300 -0.22200
H 	H 	0.87050 0.02180 0.79300 0.13200
N 	N 	0.94350 0.03550 0.76240 -0.27300
C 	C 	0.83740 0.20890 0.59550 0.38400
C 	C 	0.85150 0.17450 0.62720 -0.15800
C 	C 	0.81520 0.13660 0.63490 0.08300
H 	H 	0.78040 0.13260 0.61960 0.00000
C 	C 	0.82950 0.10540 0.66420 -0.19900
H 	H 	0.80610 0.07910 0.66790 0.07800
C 	C 	0.87940 0.11340 0.68860 0.18200
C 	C 	0.91780 0.14760 0.68040 -0.20100
H 	H 	0.95330 0.15080 0.69520 0.10200
C 	C 	0.90340 0.17830 0.64930 0.08900
H 	H 	0.92990 0.20210 0.64340 0.00200
C 	C 	0.89350 0.08120 0.72080 -0.24000
C 	C 	0.94850 0.06130 0.73140 0.26900
C 	C 	0.85570 0.06390 0.75070 0.26900
C 	C 	0.00720 0.06670 0.70960 -0.62800
H 	H 	0.03770 0.04920 0.72340 0.16400
H 	H 	0.01850 0.09860 0.70930 0.19800
H 	H 	0.00330 0.05590 0.68200 0.18700
C 	C 	0.78980 0.07290 0.75660 -0.60800
H 	H 	0.78130 0.07590 0.78520 0.19800
H 	H 	0.76710 0.04780 0.74550 0.18800
H 	H 	0.77890 0.10080 0.74280 0.19600
O 	O 	0.78750 0.70530 0.07830 -0.48500
O 	O 	0.87240 0.73900 0.08850 -0.33300
N 	N 	0.88570 0.53720 0.27300 -0.22300
H 	H 	0.87050 0.52180 0.29300 0.14000
N 	N 	0.94350 0.53550 0.26240 -0.26900
C 	C 	0.83740 0.70890 0.09550 0.38400
C 	C 	0.85150 0.67450 0.12720 -0.15800
C 	C 	0.81520 0.63660 0.13490 0.08500
H 	H 	0.78040 0.63260 0.11960 0.00100
C 	C 	0.82950 0.60540 0.16420 -0.20000
H 	H 	0.80610 0.57910 0.16790 0.08200
C 	C 	0.87940 0.61340 0.18860 0.18400
C 	C 	0.91780 0.64760 0.18040 -0.20200
H 	H 	0.95330 0.65080 0.19520 0.10200
C 	C 	0.90340 0.67830 0.14930 0.09000
H 	H 	0.92990 0.70210 0.14340 0.00200
C 	C 	0.89350 0.58120 0.22080 -0.24200
C 	C 	0.94850 0.56130 0.23140 0.27400
C 	C 	0.85570 0.56390 0.25070 0.27400
C 	C 	0.00720 0.56670 0.20960 -0.63700
H 	H 	0.03770 0.54920 0.22340 0.17100
H 	H 	0.01850 0.59860 0.20930 0.20100
H 	H 	0.00330 0.55590 0.18200 0.19400
C 	C 	0.78980 0.57290 0.25660 -0.61500
H 	H 	0.78130 0.57590 0.28520 0.20100
H 	H 	0.76710 0.54780 0.24550 0.19400
H 	H 	0.77890 0.60080 0.24280 0.19800
O 	O 	0.28750 0.20530 0.07830 -0.48500
O 	O 	0.37240 0.23900 0.08850 -0.33300
N 	N 	0.38570 0.03720 0.27300 -0.22200
H 	H 	0.37050 0.02180 0.29300 0.13000
N 	N 	0.44350 0.03550 0.26240 -0.27400
C 	C 	0.33740 0.20890 0.09550 0.38200
C 	C 	0.35150 0.17450 0.12720 -0.15600
C 	C 	0.31520 0.13660 0.13490 0.07900
H 	H 	0.28040 0.13260 0.11960 0.00200
C 	C 	0.32950 0.10540 0.16420 -0.19500
H 	H 	0.30610 0.07910 0.16790 0.07600
C 	C 	0.37940 0.11340 0.18860 0.17400
C 	C 	0.41780 0.14760 0.18040 -0.19800
H 	H 	0.45330 0.15080 0.19520 0.09300
C 	C 	0.40340 0.17830 0.14930 0.08400
H 	H 	0.42990 0.20210 0.14340 0.00000
C 	C 	0.39350 0.08120 0.22080 -0.23100
C 	C 	0.44850 0.06130 0.23140 0.24100
C 	C 	0.35570 0.06390 0.25070 0.26600
C 	C 	0.50720 0.06670 0.20960 -0.58600
H 	H 	0.53770 0.04920 0.22340 0.15600
H 	H 	0.51850 0.09860 0.20930 0.19300
H 	H 	0.50330 0.05590 0.18200 0.18200
C 	C 	0.28980 0.07290 0.25660 -0.60500
H 	H 	0.28130 0.07590 0.28520 0.19700
H 	H 	0.26710 0.04780 0.24550 0.18700
H 	H 	0.27890 0.10080 0.24280 0.19500
O 	O 	0.28750 0.70530 0.57830 -0.48700
O 	O 	0.37240 0.73900 0.58850 -0.33500
N 	N 	0.38570 0.53720 0.77300 -0.22300
H 	H 	0.37050 0.52180 0.79300 0.13800
N 	N 	0.44350 0.53550 0.76240 -0.27100
C 	C 	0.33740 0.70890 0.59550 0.38200
C 	C 	0.35150 0.67450 0.62720 -0.15700
C 	C 	0.31520 0.63660 0.63490 0.08100
H 	H 	0.28040 0.63260 0.61960 0.00200
C 	C 	0.32950 0.60540 0.66420 -0.19700
H 	H 	0.30610 0.57910 0.66790 0.08000
C 	C 	0.37940 0.61340 0.68860 0.17600
C 	C 	0.41780 0.64760 0.68040 -0.20000
H 	H 	0.45330 0.65080 0.69520 0.09400
C 	C 	0.40340 0.67830 0.64930 0.08500
H 	H 	0.42990 0.70210 0.64340 -0.00100
C 	C 	0.39350 0.58120 0.72080 -0.23300
C 	C 	0.44850 0.56130 0.73140 0.24600
C 	C 	0.35570 0.56390 0.75070 0.27100
C 	C 	0.50720 0.56670 0.70960 -0.59500
H 	H 	0.53770 0.54920 0.72340 0.16300
H 	H 	0.51850 0.59860 0.70930 0.19600
H 	H 	0.50330 0.55590 0.68200 0.18900
C 	C 	0.28980 0.57290 0.75660 -0.61200
H 	H 	0.28130 0.57590 0.78520 0.20100
H 	H 	0.26710 0.54780 0.74550 0.19300
H 	H 	0.27890 0.60080 0.74280 0.19800
O 	O 	0.21250 0.79470 0.57830 -0.48700
O 	O 	0.12760 0.76100 0.58850 -0.33500
N 	N 	0.11430 0.96280 0.77300 -0.22300
H 	H 	0.12950 0.97820 0.79300 0.14600
N 	N 	0.05650 0.96450 0.76240 -0.26500
C 	C 	0.16260 0.79110 0.59550 0.38100
C 	C 	0.14850 0.82550 0.62720 -0.15700
C 	C 	0.18480 0.86340 0.63490 0.08000
H 	H 	0.21960 0.86740 0.61960 0.00300
C 	C 	0.17050 0.89460 0.66420 -0.19500
H 	H 	0.19390 0.92090 0.66790 0.08200
C 	C 	0.12060 0.88660 0.68860 0.17200
C 	C 	0.08220 0.85240 0.68040 -0.19800
H 	H 	0.04670 0.84920 0.69520 0.08700
C 	C 	0.09660 0.82170 0.64930 0.08100
H 	H 	0.07010 0.79790 0.64340 -0.00300
C 	C 	0.10650 0.91880 0.72080 -0.22700
C 	C 	0.05150 0.93870 0.73140 0.22500
C 	C 	0.14430 0.93610 0.75070 0.27400
C 	C 	0.99280 0.93330 0.70960 -0.56200
H 	H 	0.96230 0.95080 0.72340 0.16400
H 	H 	0.98150 0.90140 0.70930 0.19400
H 	H 	0.99670 0.94410 0.68200 0.19100
C 	C 	0.21020 0.92710 0.75660 -0.61700
H 	H 	0.21870 0.92410 0.78520 0.20300
H 	H 	0.23290 0.95220 0.74550 0.19900
H 	H 	0.22110 0.89920 0.74280 0.19900
O 	O 	0.21250 0.29470 0.07830 -0.48500
O 	O 	0.12760 0.26100 0.08850 -0.33400
N 	N 	0.11430 0.46280 0.27300 -0.22200
H 	H 	0.12950 0.47820 0.29300 0.13800
N 	N 	0.05650 0.46450 0.26240 -0.27000
C 	C 	0.16260 0.29110 0.09550 0.38100
C 	C 	0.14850 0.32550 0.12720 -0.15500
C 	C 	0.18480 0.36340 0.13490 0.07800
H 	H 	0.21960 0.36740 0.11960 0.00300
C 	C 	0.17050 0.39460 0.16420 -0.19300
H 	H 	0.19390 0.42090 0.16790 0.07800
C 	C 	0.12060 0.38660 0.18860 0.16800
C 	C 	0.08220 0.35240 0.18040 -0.19600
H 	H 	0.04670 0.34920 0.19520 0.08600
C 	C 	0.09660 0.32170 0.14930 0.08000
H 	H 	0.07010 0.29790 0.14340 -0.00200
C 	C 	0.10650 0.41880 0.22080 -0.22500
C 	C 	0.05150 0.43870 0.23140 0.21800
C 	C 	0.14430 0.43610 0.25070 0.26800
C 	C 	0.99280 0.43330 0.20960 -0.55200
H 	H 	0.96230 0.45080 0.22340 0.15600
H 	H 	0.98150 0.40140 0.20930 0.19100
H 	H 	0.99670 0.44410 0.18200 0.18400
C 	C 	0.21020 0.42710 0.25660 -0.60900
H 	H 	0.21870 0.42410 0.28520 0.20000
H 	H 	0.23290 0.45220 0.24550 0.19200
H 	H 	0.22110 0.39920 0.24280 0.19700
O 	O 	0.71250 0.79470 0.07830 -0.48500
O 	O 	0.62760 0.76100 0.08850 -0.33400
N 	N 	0.61430 0.96280 0.27300 -0.22400
H 	H 	0.62950 0.97820 0.29300 0.14700
N 	N 	0.55650 0.96450 0.26240 -0.26600
C 	C 	0.66260 0.79110 0.09550 0.38300
C 	C 	0.64850 0.82550 0.12720 -0.15700
C 	C 	0.68480 0.86340 0.13490 0.08300
H 	H 	0.71960 0.86740 0.11960 0.00200
C 	C 	0.67050 0.89460 0.16420 -0.19800
H 	H 	0.69390 0.92090 0.16790 0.08400
C 	C 	0.62060 0.88660 0.18860 0.17900
C 	C 	0.58220 0.85240 0.18040 -0.20100
H 	H 	0.54670 0.84920 0.19520 0.09400
C 	C 	0.59660 0.82170 0.14930 0.08600
H 	H 	0.57010 0.79790 0.14340 -0.00100
C 	C 	0.60650 0.91880 0.22080 -0.23500
C 	C 	0.55150 0.93870 0.23140 0.25200
C 	C 	0.64430 0.93610 0.25070 0.27700
C 	C 	0.49280 0.93330 0.20960 -0.60400
H 	H 	0.46230 0.95080 0.22340 0.17100
H 	H 	0.48150 0.90140 0.20930 0.19900
H 	H 	0.49670 0.94410 0.18200 0.19600
C 	C 	0.71020 0.92710 0.25660 -0.61900
H 	H 	0.71870 0.92410 0.28520 0.20300
H 	H 	0.73290 0.95220 0.24550 0.19900
H 	H 	0.72110 0.89920 0.24280 0.20000
O 	O 	0.71250 0.29470 0.57830 -0.48700
O 	O 	0.62760 0.26100 0.58850 -0.33500
N 	N 	0.61430 0.46280 0.77300 -0.22300
H 	H 	0.62950 0.47820 0.79300 0.13800
N 	N 	0.55650 0.46450 0.76240 -0.27100
C 	C 	0.66260 0.29110 0.59550 0.38200
C 	C 	0.64850 0.32550 0.62720 -0.15700
C 	C 	0.68480 0.36340 0.63490 0.08100
H 	H 	0.71960 0.36740 0.61960 0.00200
C 	C 	0.67050 0.39460 0.66420 -0.19700
H 	H 	0.69390 0.42090 0.66790 0.08000
C 	C 	0.62060 0.38660 0.68860 0.17600
C 	C 	0.58220 0.35240 0.68040 -0.20000
H 	H 	0.54670 0.34920 0.69520 0.09400
C 	C 	0.59660 0.32170 0.64930 0.08500
H 	H 	0.57010 0.29790 0.64340 -0.00100
C 	C 	0.60650 0.41880 0.72080 -0.23300
C 	C 	0.55150 0.43870 0.73140 0.24600
C 	C 	0.64430 0.43610 0.75070 0.27100
C 	C 	0.49280 0.43330 0.70960 -0.59500
H 	H 	0.46230 0.45080 0.72340 0.16400
H 	H 	0.48150 0.40140 0.70930 0.19600
H 	H 	0.49670 0.44410 0.68200 0.18900
C 	C 	0.71020 0.42710 0.75660 -0.61200
H 	H 	0.71870 0.42410 0.78520 0.20000
H 	H 	0.73290 0.45220 0.74550 0.19300
H 	H 	0.72110 0.39920 0.74280 0.19800
O 	O 	0.03750 0.04470 0.82830 -0.50200
O 	O 	0.12240 0.01100 0.83850 -0.35000
N 	N 	0.13570 0.21280 0.02300 -0.21600
H 	H 	0.12050 0.22820 0.04300 0.13700
N 	N 	0.19350 0.21450 0.01240 -0.25800
C 	C 	0.08740 0.04110 0.84550 0.38500
C 	C 	0.10150 0.07550 0.87720 -0.16500
C 	C 	0.06520 0.11340 0.88490 0.08100
H 	H 	0.03040 0.11740 0.86960 -0.00700
C 	C 	0.07950 0.14460 0.91420 -0.19900
H 	H 	0.05610 0.17090 0.91790 0.07500
C 	C 	0.12940 0.13660 0.93860 0.17200
C 	C 	0.16780 0.10240 0.93040 -0.20200
H 	H 	0.20330 0.09920 0.94520 0.09100
C 	C 	0.15340 0.07170 0.89930 0.08500
H 	H 	0.17990 0.04790 0.89340 -0.00600
C 	C 	0.14350 0.16880 0.97080 -0.23200
C 	C 	0.19850 0.18870 0.98140 0.22300
C 	C 	0.10570 0.18610 0.00070 0.25300
C 	C 	0.25720 0.18330 0.95960 -0.57400
H 	H 	0.28770 0.20080 0.97340 0.15200
H 	H 	0.26850 0.15140 0.95930 0.18700
H 	H 	0.25330 0.19410 0.93200 0.18200
C 	C 	0.03980 0.17710 0.00660 -0.47100
H 	H 	0.03130 0.17410 0.03520 0.15900
H 	H 	0.01710 0.20220 0.99550 0.13400
H 	H 	0.02890 0.14920 0.99280 0.13900
O 	O 	0.03750 0.54470 0.32830 -0.49700
O 	O 	0.12240 0.51100 0.33850 -0.33700
N 	N 	0.13570 0.71280 0.52300 -0.22100
H 	H 	0.12050 0.72820 0.54300 0.13700
N 	N 	0.19350 0.71450 0.51240 -0.27100
C 	C 	0.08740 0.54110 0.34550 0.38300
C 	C 	0.10150 0.57550 0.37720 -0.16100
C 	C 	0.06520 0.61340 0.38490 0.08100
H 	H 	0.03040 0.61740 0.36960 -0.00600
C 	C 	0.07950 0.64460 0.41420 -0.19900
H 	H 	0.05610 0.67090 0.41790 0.07600
C 	C 	0.12940 0.63660 0.43860 0.17500
C 	C 	0.16780 0.60240 0.43040 -0.20000
H 	H 	0.20330 0.59920 0.44520 0.09400
C 	C 	0.15340 0.57170 0.39930 0.08600
H 	H 	0.17990 0.54790 0.39340 -0.00100
C 	C 	0.14350 0.66880 0.47080 -0.23200
C 	C 	0.19850 0.68870 0.48140 0.24500
C 	C 	0.10570 0.68610 0.50070 0.26500
C 	C 	0.25720 0.68330 0.45960 -0.59400
H 	H 	0.28770 0.70080 0.47340 0.16300
H 	H 	0.26850 0.65140 0.45930 0.19600
H 	H 	0.25330 0.69410 0.43200 0.18800
C 	C 	0.03980 0.67710 0.50660 -0.59500
H 	H 	0.03130 0.67410 0.53520 0.19200
H 	H 	0.01710 0.70220 0.49550 0.18200
H 	H 	0.02890 0.64920 0.49280 0.18700
O 	O 	0.53750 0.04470 0.32830 -0.49300
O 	O 	0.62240 0.01100 0.33850 -0.34900
N 	N 	0.63570 0.21280 0.52300 -0.22300
H 	H 	0.62050 0.22820 0.54300 0.13800
N 	N 	0.69350 0.21450 0.51240 -0.27100
C 	C 	0.58740 0.04110 0.34550 0.38500
C 	C 	0.60150 0.07550 0.37720 -0.16200
C 	C 	0.56520 0.11340 0.38490 0.08300
H 	H 	0.53040 0.11740 0.36960 0.00100
C 	C 	0.57950 0.14460 0.41420 -0.19900
H 	H 	0.55610 0.17090 0.41790 0.08100
C 	C 	0.62940 0.13660 0.43860 0.17800
C 	C 	0.66780 0.10240 0.43040 -0.20300
H 	H 	0.70330 0.09920 0.44520 0.09500
C 	C 	0.65340 0.07170 0.39930 0.08700
H 	H 	0.67990 0.04790 0.39340 -0.00600
C 	C 	0.64350 0.16880 0.47080 -0.23400
C 	C 	0.69850 0.18870 0.48140 0.24700
C 	C 	0.60570 0.18610 0.50070 0.27100
C 	C 	0.75720 0.18330 0.45960 -0.59700
H 	H 	0.78770 0.20080 0.47340 0.16500
H 	H 	0.76850 0.15140 0.45930 0.19700
H 	H 	0.75330 0.19410 0.43200 0.19000
C 	C 	0.53980 0.17710 0.50660 -0.61200
H 	H 	0.53130 0.17410 0.53520 0.20000
H 	H 	0.51710 0.20220 0.49550 0.19300
H 	H 	0.52890 0.14920 0.49280 0.19700
O 	O 	0.53750 0.54470 0.82830 -0.48700
O 	O 	0.62240 0.51100 0.83850 -0.33500
N 	N 	0.63570 0.71280 0.02300 -0.21700
H 	H 	0.62050 0.72820 0.04300 0.13900
N 	N 	0.69350 0.71450 0.01240 -0.25800
C 	C 	0.58740 0.54110 0.84550 0.38200
C 	C 	0.60150 0.57550 0.87720 -0.15700
C 	C 	0.56520 0.61340 0.88490 0.07900
H 	H 	0.53040 0.61740 0.86960 0.00200
C 	C 	0.57950 0.64460 0.91420 -0.19400
H 	H 	0.55610 0.67090 0.91790 0.07900
C 	C 	0.62940 0.63660 0.93860 0.17200
C 	C 	0.66780 0.60240 0.93040 -0.19800
H 	H 	0.70330 0.59920 0.94520 0.09100
C 	C 	0.65340 0.57170 0.89930 0.08300
H 	H 	0.67990 0.54790 0.89340 -0.00000
C 	C 	0.64350 0.66880 0.97080 -0.23300
C 	C 	0.69850 0.68870 0.98140 0.22500
C 	C 	0.60570 0.68610 0.00070 0.25900
C 	C 	0.75720 0.68330 0.95960 -0.57800
H 	H 	0.78770 0.70080 0.97340 0.15500
H 	H 	0.76850 0.65140 0.95930 0.18900
H 	H 	0.75330 0.69410 0.93200 0.18400
C 	C 	0.53980 0.67710 0.00660 -0.48700
H 	H 	0.53130 0.67410 0.03520 0.16800
H 	H 	0.51710 0.70220 0.99550 0.14500
H 	H 	0.52890 0.64920 0.99280 0.15000
O 	O 	0.46250 0.45530 0.82830 -0.48700
O 	O 	0.37760 0.48900 0.83850 -0.33500
N 	N 	0.36430 0.28720 0.02300 -0.21700
H 	H 	0.37950 0.27180 0.04300 0.13800
N 	N 	0.30650 0.28550 0.01240 -0.25700
C 	C 	0.41260 0.45890 0.84550 0.38200
C 	C 	0.39850 0.42450 0.87720 -0.15600
C 	C 	0.43480 0.38660 0.88490 0.07900
H 	H 	0.46960 0.38260 0.86960 0.00200
C 	C 	0.42050 0.35540 0.91420 -0.19400
H 	H 	0.44390 0.32910 0.91790 0.07800
C 	C 	0.37060 0.36340 0.93860 0.17200
C 	C 	0.33220 0.39760 0.93040 -0.19800
H 	H 	0.29670 0.40080 0.94520 0.09100
C 	C 	0.34660 0.42830 0.89930 0.08200
H 	H 	0.32010 0.45210 0.89340 -0.00000
C 	C 	0.35650 0.33120 0.97080 -0.23300
C 	C 	0.30150 0.31130 0.98140 0.22300
C 	C 	0.39430 0.31390 0.00070 0.25900
C 	C 	0.24280 0.31670 0.95960 -0.57300
H 	H 	0.21230 0.29920 0.97340 0.15100
H 	H 	0.23150 0.34860 0.95930 0.18600
H 	H 	0.24670 0.30590 0.93200 0.18200
C 	C 	0.46020 0.32290 0.00660 -0.48600
H 	H 	0.46870 0.32590 0.03520 0.16700
H 	H 	0.48290 0.29780 0.99550 0.14500
H 	H 	0.47110 0.35080 0.99280 0.15000
O 	O 	0.46250 0.95530 0.32830 -0.47900
O 	O 	0.37760 0.98900 0.33850 -0.32000
N 	N 	0.36430 0.78720 0.52300 -0.22300
H 	H 	0.37950 0.77180 0.54300 0.13800
N 	N 	0.30650 0.78550 0.51240 -0.27100
C 	C 	0.41260 0.95890 0.34550 0.37900
C 	C 	0.39850 0.92450 0.37720 -0.15200
C 	C 	0.43480 0.88660 0.38490 0.07900
H 	H 	0.46960 0.88260 0.36960 0.00300
C 	C 	0.42050 0.85540 0.41420 -0.19500
H 	H 	0.44390 0.82910 0.41790 0.07900
C 	C 	0.37060 0.86340 0.43860 0.17500
C 	C 	0.33220 0.89760 0.43040 -0.19600
H 	H 	0.29670 0.90080 0.44520 0.09300
C 	C 	0.34660 0.92830 0.39930 0.08200
H 	H 	0.32010 0.95210 0.39340 0.00500
C 	C 	0.35650 0.83120 0.47080 -0.23300
C 	C 	0.30150 0.81130 0.48140 0.24500
C 	C 	0.39430 0.81390 0.50070 0.27100
C 	C 	0.24280 0.81670 0.45960 -0.59300
H 	H 	0.21230 0.79920 0.47340 0.16200
H 	H 	0.23150 0.84860 0.45930 0.19500
H 	H 	0.24670 0.80590 0.43200 0.18800
C 	C 	0.46020 0.82290 0.50660 -0.61200
H 	H 	0.46870 0.82590 0.53520 0.20000
H 	H 	0.48290 0.79780 0.49550 0.19300
H 	H 	0.47110 0.85080 0.49280 0.19800
O 	O 	0.96250 0.45530 0.32830 -0.47500
O 	O 	0.87760 0.48900 0.33850 -0.33300
N 	N 	0.86430 0.28720 0.52300 -0.22400
H 	H 	0.87950 0.27180 0.54300 0.14000
N 	N 	0.80650 0.28550 0.51240 -0.27100
C 	C 	0.91260 0.45890 0.34550 0.38100
C 	C 	0.89850 0.42450 0.37720 -0.15300
C 	C 	0.93480 0.38660 0.38490 0.08100
H 	H 	0.96960 0.38260 0.36960 0.01000
C 	C 	0.92050 0.35540 0.41420 -0.19400
H 	H 	0.94390 0.32910 0.41790 0.08400
C 	C 	0.87060 0.36340 0.43860 0.17800
C 	C 	0.83220 0.39760 0.43040 -0.19900
H 	H 	0.79670 0.40080 0.44520 0.09400
C 	C 	0.84660 0.42830 0.39930 0.08400
H 	H 	0.82010 0.45210 0.39340 -0.00000
C 	C 	0.85650 0.33120 0.47080 -0.23500
C 	C 	0.80150 0.31130 0.48140 0.24700
C 	C 	0.89430 0.31390 0.50070 0.27800
C 	C 	0.74280 0.31670 0.45960 -0.59600
H 	H 	0.71230 0.29920 0.47340 0.16400
H 	H 	0.73150 0.34860 0.45930 0.19600
H 	H 	0.74670 0.30590 0.43200 0.18900
C 	C 	0.96020 0.32290 0.50660 -0.63000
H 	H 	0.96870 0.32590 0.53520 0.21000
H 	H 	0.98290 0.29780 0.49550 0.20500
H 	H 	0.97110 0.35080 0.49280 0.20900
O 	O 	0.96250 0.95530 0.82830 -0.46600
O 	O 	0.87760 0.98900 0.83850 -0.31800
N 	N 	0.86430 0.78720 0.02300 -0.21800
H 	H 	0.87950 0.77180 0.04300 0.14000
N 	N 	0.80650 0.78550 0.01240 -0.25700
C 	C 	0.91260 0.95890 0.84550 0.37700
C 	C 	0.89850 0.92450 0.87720 -0.14700
C 	C 	0.93480 0.88660 0.88490 0.07700
H 	H 	0.96960 0.88260 0.86960 0.01100
C 	C 	0.92050 0.85540 0.91420 -0.19000
H 	H 	0.94390 0.82910 0.91790 0.08200
C 	C 	0.87060 0.86340 0.93860 0.17200
C 	C 	0.83220 0.89760 0.93040 -0.19400
H 	H 	0.79670 0.90080 0.94520 0.09000
C 	C 	0.84660 0.92830 0.89930 0.07900
H 	H 	0.82010 0.95210 0.89340 0.00500
C 	C 	0.85650 0.83120 0.97080 -0.23400
C 	C 	0.80150 0.81130 0.98140 0.22500
C 	C 	0.89430 0.81390 0.00070 0.26600
C 	C 	0.74280 0.81670 0.95960 -0.57700
H 	H 	0.71230 0.79920 0.97340 0.15300
H 	H 	0.73150 0.84860 0.95930 0.18800
H 	H 	0.74670 0.80590 0.93200 0.18300
C 	C 	0.96020 0.82290 0.00660 -0.50800
H 	H 	0.96870 0.82590 0.03520 0.17700
H 	H 	0.98290 0.79780 0.99550 0.15800
H 	H 	0.97110 0.85080 0.99280 0.16300
Zn	Zn	0.75000 0.25000 0.54552 1.21300
Zn	Zn	0.75000 0.75000 0.04552 1.21400
Zn	Zn	0.25000 0.75000 0.54552 1.21300
Zn	Zn	0.25000 0.25000 0.04552 1.21400
Zn	Zn	0.00000 0.00000 0.79552 1.19900
Zn	Zn	0.00000 0.50000 0.29552 1.20600
Zn	Zn	0.50000 0.50000 0.79552 1.21300
Zn	Zn	0.50000 0.00000 0.29552 1.20600
Zn	Zn	0.50241 0.74545 0.71821 1.20900
O 	O 	0.46260 0.70650 0.75560 -0.48200
O 	O 	0.38130 0.74700 0.76770 -0.32100
O 	O 	0.54350 0.70480 0.68140 -0.49000
O 	O 	0.62860 0.73940 0.66990 -0.33800
N 	N 	0.34960 0.55290 0.95420 -0.22000
H 	H 	0.36240 0.54480 0.97800 0.12000
N 	N 	0.30060 0.53610 0.93690 -0.27300
N 	N 	0.63280 0.53700 0.48640 -0.23200
H 	H 	0.61810 0.52260 0.46560 0.13500
N 	N 	0.69060 0.53230 0.49870 -0.28200
C 	C 	0.41310 0.71300 0.77290 0.35200
C 	C 	0.39300 0.67820 0.80280 -0.16100
C 	C 	0.42920 0.64300 0.81440 0.10200
H 	H 	0.46640 0.63950 0.80160 0.00400
C 	C 	0.41330 0.61340 0.84340 -0.21100
H 	H 	0.43950 0.58990 0.85080 0.10500
C 	C 	0.35830 0.61720 0.86230 0.17700
C 	C 	0.32000 0.65250 0.85080 -0.20000
H 	H 	0.28290 0.65590 0.86350 0.08500
C 	C 	0.33730 0.68260 0.82010 0.07700
H 	H 	0.31120 0.70560 0.81140 0.00900
C 	C 	0.34520 0.58720 0.89690 -0.27600
C 	C 	0.29570 0.55760 0.90160 0.28000
C 	C 	0.37670 0.58350 0.93070 0.31400
C 	C 	0.24570 0.54980 0.87390 -0.67400
H 	H 	0.21010 0.54290 0.88940 0.20500
H 	H 	0.25490 0.52440 0.85620 0.22300
H 	H 	0.23890 0.57690 0.85780 0.21800
C 	C 	0.43030 0.60740 0.94490 -0.69500
H 	H 	0.44590 0.62620 0.92320 0.22000
H 	H 	0.46010 0.58530 0.95290 0.22300
H 	H 	0.42020 0.62640 0.96780 0.22800
C 	C 	0.59240 0.70960 0.66410 0.38600
C 	C 	0.60320 0.67650 0.63120 -0.16500
C 	C 	0.56340 0.64160 0.62340 0.08500
H 	H 	0.52780 0.63960 0.63830 0.00400
C 	C 	0.57570 0.60980 0.59380 -0.19300
H 	H 	0.54850 0.58620 0.58880 0.08300
C 	C 	0.62840 0.61230 0.57110 0.17100
C 	C 	0.66770 0.64930 0.57930 -0.20100
H 	H 	0.70250 0.65280 0.56380 0.08800
C 	C 	0.65580 0.67880 0.60860 0.09300
H 	H 	0.68340 0.70190 0.61440 0.01100
C 	C 	0.64010 0.58030 0.53920 -0.27100
C 	C 	0.69430 0.55880 0.53070 0.27200
C 	C 	0.60150 0.56520 0.50860 0.31100
C 	C 	0.75070 0.56290 0.55340 -0.67300
H 	H 	0.77090 0.53380 0.55360 0.20300
H 	H 	0.74220 0.57220 0.58090 0.22000
H 	H 	0.77590 0.58550 0.54050 0.20900
C 	C 	0.53970 0.57420 0.50090 -0.70700
H 	H 	0.53060 0.56700 0.47300 0.22700
H 	H 	0.53160 0.60620 0.50580 0.22300
H 	H 	0.51540 0.55580 0.51870 0.22100
Zn	Zn	0.50241 0.24545 0.21821 1.20900
O 	O 	0.46260 0.20650 0.25560 -0.48200
O 	O 	0.38130 0.24700 0.26770 -0.32100
O 	O 	0.54350 0.20480 0.18140 -0.49000
O 	O 	0.62860 0.23940 0.16990 -0.33800
N 	N 	0.34960 0.05290 0.45420 -0.22100
H 	H 	0.36240 0.04480 0.47800 0.12100
N 	N 	0.30060 0.03610 0.43690 -0.27600
N 	N 	0.63280 0.03700 0.98640 -0.23900
H 	H 	0.61810 0.02260 0.96560 0.12600
N 	N 	0.69060 0.03230 0.99870 -0.29900
C 	C 	0.41310 0.21300 0.27290 0.35200
C 	C 	0.39300 0.17820 0.30280 -0.16000
C 	C 	0.42920 0.14300 0.31440 0.10100
H 	H 	0.46640 0.13950 0.30160 0.00400
C 	C 	0.41330 0.11340 0.34340 -0.21000
H 	H 	0.43950 0.08990 0.35080 0.10300
C 	C 	0.35830 0.11720 0.36230 0.17500
C 	C 	0.32000 0.15250 0.35080 -0.19900
H 	H 	0.28290 0.15590 0.36350 0.08500
C 	C 	0.33730 0.18260 0.32010 0.07600
H 	H 	0.31120 0.20560 0.31140 0.00900
C 	C 	0.34520 0.08720 0.39690 -0.27600
C 	C 	0.29570 0.05760 0.40160 0.27300
C 	C 	0.37670 0.08350 0.43070 0.31500
C 	C 	0.24570 0.04980 0.37390 -0.66200
H 	H 	0.21010 0.04290 0.38940 0.19700
H 	H 	0.25490 0.02440 0.35620 0.21300
H 	H 	0.23890 0.07690 0.35780 0.21400
C 	C 	0.43030 0.10740 0.44490 -0.70000
H 	H 	0.44590 0.12620 0.42320 0.22100
H 	H 	0.46010 0.08530 0.45290 0.22400
H 	H 	0.42020 0.12640 0.46780 0.23300
C 	C 	0.59240 0.20960 0.16410 0.38600
C 	C 	0.60320 0.17650 0.13120 -0.16500
C 	C 	0.56340 0.14160 0.12340 0.08500
H 	H 	0.52780 0.13960 0.13830 0.00400
C 	C 	0.57570 0.10980 0.09380 -0.19300
H 	H 	0.54850 0.08620 0.08880 0.08200
C 	C 	0.62840 0.11230 0.07110 0.17200
C 	C 	0.66770 0.14930 0.07930 -0.20100
H 	H 	0.70250 0.15280 0.06380 0.09000
C 	C 	0.65580 0.17880 0.10860 0.09400
H 	H 	0.68340 0.20190 0.11440 0.01100
C 	C 	0.64010 0.08030 0.03920 -0.27200
C 	C 	0.69430 0.05880 0.03070 0.28900
C 	C 	0.60150 0.06520 0.00860 0.30900
C 	C 	0.75070 0.06290 0.05340 -0.68400
H 	H 	0.77090 0.03380 0.05360 0.20400
H 	H 	0.74220 0.07220 0.08090 0.22200
H 	H 	0.77590 0.08550 0.04050 0.21500
C 	C 	0.53970 0.07420 0.00090 -0.64700
H 	H 	0.53060 0.06700 0.97300 0.19600
H 	H 	0.53160 0.10620 0.00580 0.21100
H 	H 	0.51540 0.05580 0.01870 0.20400
Zn	Zn	0.00241 0.74545 0.21821 1.20100
O 	O 	0.96260 0.70650 0.25560 -0.47200
O 	O 	0.88130 0.74700 0.26770 -0.31800
O 	O 	0.04350 0.70480 0.18140 -0.50000
O 	O 	0.12860 0.73940 0.16990 -0.34100
N 	N 	0.84960 0.55290 0.45420 -0.22300
H 	H 	0.86240 0.54480 0.47800 0.12900
N 	N 	0.80060 0.53610 0.43690 -0.27100
N 	N 	0.13280 0.53700 0.98640 -0.23900
H 	H 	0.11810 0.52260 0.96560 0.13300
N 	N 	0.19060 0.53230 0.99870 -0.29500
C 	C 	0.91310 0.71300 0.27290 0.35200
C 	C 	0.89300 0.67820 0.30280 -0.15900
C 	C 	0.92920 0.64300 0.31440 0.10300
H 	H 	0.96640 0.63950 0.30160 0.00900
C 	C 	0.91330 0.61340 0.34340 -0.21200
H 	H 	0.93950 0.58990 0.35080 0.11100
C 	C 	0.85830 0.61720 0.36230 0.18000
C 	C 	0.82000 0.65250 0.35080 -0.20200
H 	H 	0.78290 0.65590 0.36350 0.08600
C 	C 	0.83730 0.68260 0.32010 0.07700
H 	H 	0.81120 0.70560 0.31140 0.00900
C 	C 	0.84520 0.58720 0.39690 -0.28100
C 	C 	0.79570 0.55760 0.40160 0.28100
C 	C 	0.87670 0.58350 0.43070 0.32800
C 	C 	0.74570 0.54980 0.37390 -0.67600
H 	H 	0.71010 0.54290 0.38940 0.20500
H 	H 	0.75490 0.52440 0.35620 0.22400
H 	H 	0.73890 0.57690 0.35780 0.21800
C 	C 	0.93030 0.60740 0.44490 -0.72400
H 	H 	0.94590 0.62620 0.42320 0.23300
H 	H 	0.96010 0.58530 0.45290 0.24100
H 	H 	0.92020 0.62640 0.46780 0.24400
C 	C 	0.09240 0.70960 0.16410 0.38700
C 	C 	0.10320 0.67650 0.13120 -0.16900
C 	C 	0.06340 0.64160 0.12340 0.08700
H 	H 	0.02780 0.63960 0.13830 -0.00200
C 	C 	0.07570 0.60980 0.09380 -0.19600
H 	H 	0.04850 0.58620 0.08880 0.08100
C 	C 	0.12840 0.61230 0.07110 0.17400
C 	C 	0.16770 0.64930 0.07930 -0.20300
H 	H 	0.20250 0.65280 0.06380 0.09100
C 	C 	0.15580 0.67880 0.10860 0.09600
H 	H 	0.18340 0.70190 0.11440 0.01000
C 	C 	0.14010 0.58030 0.03920 -0.27200
C 	C 	0.19430 0.55880 0.03070 0.29300
C 	C 	0.10150 0.56520 0.00860 0.30800
C 	C 	0.25070 0.56290 0.05340 -0.69100
H 	H 	0.27090 0.53380 0.05360 0.21000
H 	H 	0.24220 0.57220 0.08090 0.22500
H 	H 	0.27590 0.58550 0.04050 0.21800
C 	C 	0.03970 0.57420 0.00090 -0.63900
H 	H 	0.03060 0.56700 0.97300 0.19200
H 	H 	0.03160 0.60620 0.00580 0.20500
H 	H 	0.01540 0.55580 0.01870 0.19900
Zn	Zn	0.00241 0.24545 0.71821 1.20100
O 	O 	0.96260 0.20650 0.75560 -0.47100
O 	O 	0.88130 0.24700 0.76770 -0.31800
O 	O 	0.04350 0.20480 0.68140 -0.50000
O 	O 	0.12860 0.23940 0.66990 -0.34100
N 	N 	0.84960 0.05290 0.95420 -0.22100
H 	H 	0.86240 0.04480 0.97800 0.11500
N 	N 	0.80060 0.03610 0.93690 -0.27800
N 	N 	0.13280 0.03700 0.48640 -0.22900
H 	H 	0.11810 0.02260 0.46560 0.12500
N 	N 	0.19060 0.03230 0.49870 -0.28700
C 	C 	0.91310 0.21300 0.77290 0.35200
C 	C 	0.89300 0.17820 0.80280 -0.15800
C 	C 	0.92920 0.14300 0.81440 0.10100
H 	H 	0.96640 0.13950 0.80160 0.01000
C 	C 	0.91330 0.11340 0.84340 -0.20900
H 	H 	0.93950 0.08990 0.85080 0.10800
C 	C 	0.85830 0.11720 0.86230 0.17600
C 	C 	0.82000 0.15250 0.85080 -0.19900
H 	H 	0.78290 0.15590 0.86350 0.08500
C 	C 	0.83730 0.18260 0.82010 0.07500
H 	H 	0.81120 0.20560 0.81140 0.01000
C 	C 	0.84520 0.08720 0.89690 -0.27600
C 	C 	0.79570 0.05760 0.90160 0.27300
C 	C 	0.87670 0.08350 0.93070 0.31700
C 	C 	0.74570 0.04980 0.87390 -0.66200
H 	H 	0.71010 0.04290 0.88940 0.19700
H 	H 	0.75490 0.02440 0.85620 0.21400
H 	H 	0.73890 0.07690 0.85780 0.21400
C 	C 	0.93030 0.10740 0.94490 -0.70800
H 	H 	0.94590 0.12620 0.92320 0.22900
H 	H 	0.96010 0.08530 0.95290 0.23200
H 	H 	0.92020 0.12640 0.96780 0.23500
C 	C 	0.09240 0.20960 0.66410 0.38600
C 	C 	0.10320 0.17650 0.63120 -0.16800
C 	C 	0.06340 0.14160 0.62340 0.08300
H 	H 	0.02780 0.13960 0.63830 -0.00200
C 	C 	0.07570 0.10980 0.59380 -0.19300
H 	H 	0.04850 0.08620 0.58880 0.07700
C 	C 	0.12840 0.11230 0.57110 0.16700
C 	C 	0.16770 0.14930 0.57930 -0.20000
H 	H 	0.20250 0.15280 0.56380 0.08800
C 	C 	0.15580 0.17880 0.60860 0.09200
H 	H 	0.18340 0.20190 0.61440 0.01100
C 	C 	0.14010 0.08030 0.53920 -0.26600
C 	C 	0.19430 0.05880 0.53070 0.26600
C 	C 	0.10150 0.06520 0.50860 0.29500
C 	C 	0.25070 0.06290 0.55340 -0.66400
H 	H 	0.27090 0.03380 0.55360 0.19600
H 	H 	0.24220 0.07220 0.58090 0.21700
H 	H 	0.27590 0.08550 0.54050 0.20600
C 	C 	0.03970 0.07420 0.50090 -0.67700
H 	H 	0.03060 0.06700 0.47300 0.21100
H 	H 	0.03160 0.10620 0.50580 0.20900
H 	H 	0.01540 0.05580 0.51870 0.20200
Zn	Zn	0.74759 0.99545 0.96821 1.21200
O 	O 	0.78740 0.95650 0.00560 -0.46500
O 	O 	0.86870 0.99700 0.01770 -0.29700
O 	O 	0.70650 0.95480 0.93140 -0.48700
O 	O 	0.62140 0.98940 0.91990 -0.32600
N 	N 	0.90040 0.80290 0.20420 -0.22300
H 	H 	0.88760 0.79480 0.22800 0.13000
N 	N 	0.94940 0.78610 0.18690 -0.27500
N 	N 	0.61720 0.78700 0.73640 -0.23200
H 	H 	0.63190 0.77260 0.71560 0.13500
N 	N 	0.55940 0.78230 0.74870 -0.28200
C 	C 	0.83690 0.96300 0.02290 0.35100
C 	C 	0.85700 0.92820 0.05280 -0.15400
C 	C 	0.82080 0.89300 0.06440 0.10400
H 	H 	0.78360 0.88950 0.05160 0.00700
C 	C 	0.83670 0.86340 0.09340 -0.21500
H 	H 	0.81050 0.83990 0.10080 0.10700
C 	C 	0.89170 0.86720 0.11230 0.19000
C 	C 	0.93000 0.90250 0.10080 -0.20200
H 	H 	0.96710 0.90590 0.11350 0.09300
C 	C 	0.91270 0.93260 0.07010 0.08100
H 	H 	0.93880 0.95560 0.06140 0.01900
C 	C 	0.90480 0.83720 0.14690 -0.30200
C 	C 	0.95430 0.80760 0.15160 0.33800
C 	C 	0.87330 0.83350 0.18070 0.33100
C 	C 	0.00430 0.79980 0.12390 -0.82200
H 	H 	0.03990 0.79290 0.13940 0.24200
H 	H 	0.99510 0.77440 0.10620 0.28200
H 	H 	0.01110 0.82690 0.10780 0.25200
C 	C 	0.81970 0.85740 0.19490 -0.71700
H 	H 	0.80410 0.87620 0.17320 0.22800
H 	H 	0.78990 0.83530 0.20290 0.23100
H 	H 	0.82980 0.87640 0.21780 0.23900
C 	C 	0.65760 0.95960 0.91410 0.38500
C 	C 	0.64680 0.92650 0.88120 -0.16100
C 	C 	0.68660 0.89160 0.87340 0.08400
H 	H 	0.72220 0.88960 0.88830 0.00600
C 	C 	0.67430 0.85980 0.84380 -0.19100
H 	H 	0.70150 0.83620 0.83880 0.08300
C 	C 	0.62160 0.86230 0.82110 0.17100
C 	C 	0.58230 0.89930 0.82930 -0.19800
H 	H 	0.54750 0.90280 0.81380 0.08800
C 	C 	0.59420 0.92880 0.85860 0.09200
H 	H 	0.56660 0.95190 0.86440 0.01500
C 	C 	0.60990 0.83030 0.78920 -0.27100
C 	C 	0.55570 0.80880 0.78070 0.27200
C 	C 	0.64850 0.81520 0.75860 0.31200
C 	C 	0.49930 0.81290 0.80340 -0.67300
H 	H 	0.47910 0.78380 0.80360 0.20300
H 	H 	0.50780 0.82220 0.83090 0.22000
H 	H 	0.47410 0.83550 0.79050 0.20900
C 	C 	0.71030 0.82420 0.75090 -0.71100
H 	H 	0.71940 0.81700 0.72300 0.22800
H 	H 	0.71840 0.85620 0.75580 0.22600
H 	H 	0.73460 0.80580 0.76870 0.22200
Zn	Zn	0.74759 0.49545 0.46821 1.20900
O 	O 	0.78740 0.45650 0.50560 -0.48200
O 	O 	0.86870 0.49700 0.51770 -0.31900
O 	O 	0.70650 0.45480 0.43140 -0.49000
O 	O 	0.62140 0.48940 0.41990 -0.33800
N 	N 	0.90040 0.30290 0.70420 -0.22300
H 	H 	0.88760 0.29480 0.72800 0.13000
N 	N 	0.94940 0.28610 0.68690 -0.27500
N 	N 	0.61720 0.28700 0.23640 -0.23200
H 	H 	0.63190 0.27260 0.21560 0.13500
N 	N 	0.55940 0.28230 0.24870 -0.28200
C 	C 	0.83690 0.46300 0.52290 0.35400
C 	C 	0.85700 0.42820 0.55280 -0.16400
C 	C 	0.82080 0.39300 0.56440 0.10800
H 	H 	0.78360 0.38950 0.55160 0.00200
C 	C 	0.83670 0.36340 0.59340 -0.22100
H 	H 	0.81050 0.33990 0.60080 0.10800
C 	C 	0.89170 0.36720 0.61230 0.19200
C 	C 	0.93000 0.40250 0.60080 -0.20900
H 	H 	0.96710 0.40590 0.61350 0.09400
C 	C 	0.91270 0.43260 0.57010 0.08300
H 	H 	0.93880 0.45560 0.56140 0.01200
C 	C 	0.90480 0.33720 0.64690 -0.30300
C 	C 	0.95430 0.30760 0.65160 0.33800
C 	C 	0.87330 0.33350 0.68070 0.33100
C 	C 	0.00430 0.29980 0.62390 -0.82100
H 	H 	0.03990 0.29290 0.63940 0.24100
H 	H 	0.99510 0.27440 0.60620 0.28000
H 	H 	0.01110 0.32690 0.60780 0.25000
C 	C 	0.81970 0.35740 0.69490 -0.71600
H 	H 	0.80410 0.37620 0.67320 0.22600
H 	H 	0.78990 0.33530 0.70290 0.23100
H 	H 	0.82980 0.37640 0.71780 0.23800
C 	C 	0.65760 0.45960 0.41410 0.38600
C 	C 	0.64680 0.42650 0.38120 -0.16500
C 	C 	0.68660 0.39160 0.37340 0.08500
H 	H 	0.72220 0.38960 0.38830 0.00500
C 	C 	0.67430 0.35980 0.34380 -0.19300
H 	H 	0.70150 0.33620 0.33880 0.08300
C 	C 	0.62160 0.36230 0.32110 0.17200
C 	C 	0.58230 0.39930 0.32930 -0.20100
H 	H 	0.54750 0.40280 0.31380 0.08800
C 	C 	0.59420 0.42880 0.35860 0.09300
H 	H 	0.56660 0.45190 0.36440 0.01100
C 	C 	0.60990 0.33030 0.28920 -0.27100
C 	C 	0.55570 0.30880 0.28070 0.27200
C 	C 	0.64850 0.31520 0.25860 0.31100
C 	C 	0.49930 0.31290 0.30340 -0.67400
H 	H 	0.47910 0.28380 0.30360 0.20400
H 	H 	0.50780 0.32220 0.33090 0.22100
H 	H 	0.47410 0.33550 0.29050 0.20900
C 	C 	0.71030 0.32420 0.25090 -0.70800
H 	H 	0.71940 0.31700 0.22300 0.22700
H 	H 	0.71840 0.35620 0.25580 0.22300
H 	H 	0.73460 0.30580 0.26870 0.22100
Zn	Zn	0.24759 0.99545 0.46821 1.21500
O 	O 	0.28740 0.95650 0.50560 -0.47600
O 	O 	0.36870 0.99700 0.51770 -0.30700
O 	O 	0.20650 0.95480 0.43140 -0.48400
O 	O 	0.12140 0.98940 0.41990 -0.32600
N 	N 	0.40040 0.80290 0.70420 -0.22100
H 	H 	0.38760 0.79480 0.72800 0.12800
N 	N 	0.44940 0.78610 0.68690 -0.27100
N 	N 	0.11720 0.78700 0.23640 -0.23100
H 	H 	0.13190 0.77260 0.21560 0.13400
N 	N 	0.05940 0.78230 0.24870 -0.27600
C 	C 	0.33690 0.96300 0.52290 0.35200
C 	C 	0.35700 0.92820 0.55280 -0.15600
C 	C 	0.32080 0.89300 0.56440 0.10100
H 	H 	0.28360 0.88950 0.55160 0.00500
C 	C 	0.33670 0.86340 0.59340 -0.21000
H 	H 	0.31050 0.83990 0.60080 0.10400
C 	C 	0.39170 0.86720 0.61230 0.17800
C 	C 	0.43000 0.90250 0.60080 -0.19800
H 	H 	0.46710 0.90590 0.61350 0.08600
C 	C 	0.41270 0.93260 0.57010 0.07700
H 	H 	0.43880 0.95560 0.56140 0.01400
C 	C 	0.40480 0.83720 0.64690 -0.27800
C 	C 	0.45430 0.80760 0.65160 0.28000
C 	C 	0.37330 0.83350 0.68070 0.32100
C 	C 	0.50430 0.79980 0.62390 -0.67400
H 	H 	0.53990 0.79290 0.63940 0.20500
H 	H 	0.49510 0.77440 0.60620 0.22300
H 	H 	0.51110 0.82690 0.60780 0.21800
C 	C 	0.31970 0.85740 0.69490 -0.70800
H 	H 	0.30410 0.87620 0.67320 0.22500
H 	H 	0.28990 0.83530 0.70290 0.22900
H 	H 	0.32980 0.87640 0.71780 0.23600
C 	C 	0.15760 0.95960 0.41410 0.38300
C 	C 	0.14680 0.92650 0.38120 -0.15700
C 	C 	0.18660 0.89160 0.37340 0.07800
H 	H 	0.22220 0.88960 0.38830 0.00700
C 	C 	0.17430 0.85980 0.34380 -0.18200
H 	H 	0.20150 0.83620 0.33880 0.07900
C 	C 	0.12160 0.86230 0.32110 0.15600
C 	C 	0.08230 0.89930 0.32930 -0.18800
H 	H 	0.04750 0.90280 0.31380 0.08000
C 	C 	0.09420 0.92880 0.35860 0.08400
H 	H 	0.06660 0.95190 0.36440 0.01400
C 	C 	0.10990 0.83030 0.28920 -0.24500
C 	C 	0.05570 0.80880 0.28070 0.21200
C 	C 	0.14850 0.81520 0.25860 0.30100
C 	C 	0.99930 0.81290 0.30340 -0.52300
H 	H 	0.97910 0.78380 0.30360 0.16600
H 	H 	0.00780 0.82220 0.33090 0.16100
H 	H 	0.97410 0.83550 0.29050 0.17300
C 	C 	0.21030 0.82420 0.25090 -0.69900
H 	H 	0.21940 0.81700 0.22300 0.22500
H 	H 	0.21840 0.85620 0.25580 0.22200
H 	H 	0.23460 0.80580 0.26870 0.21800
Zn	Zn	0.24759 0.49545 0.96821 1.20500
O 	O 	0.28740 0.45650 0.00560 -0.47200
O 	O 	0.36870 0.49700 0.01770 -0.31200
O 	O 	0.20650 0.45480 0.93140 -0.49300
O 	O 	0.12140 0.48940 0.91990 -0.34200
N 	N 	0.40040 0.30290 0.20420 -0.22100
H 	H 	0.38760 0.29480 0.22800 0.12800
N 	N 	0.44940 0.28610 0.18690 -0.27100
N 	N 	0.11720 0.28700 0.73640 -0.23000
H 	H 	0.13190 0.27260 0.71560 0.13400
N 	N 	0.05940 0.28230 0.74870 -0.27600
C 	C 	0.33690 0.46300 0.02290 0.35100
C 	C 	0.35700 0.42820 0.05280 -0.15600
C 	C 	0.32080 0.39300 0.06440 0.10000
H 	H 	0.28360 0.38950 0.05160 0.00700
C 	C 	0.33670 0.36340 0.09340 -0.21000
H 	H 	0.31050 0.33990 0.10080 0.10400
C 	C 	0.39170 0.36720 0.11230 0.17700
C 	C 	0.43000 0.40250 0.10080 -0.19900
H 	H 	0.46710 0.40590 0.11350 0.08500
C 	C 	0.41270 0.43260 0.07010 0.07600
H 	H 	0.43880 0.45560 0.06140 0.01200
C 	C 	0.40480 0.33720 0.14690 -0.27800
C 	C 	0.45430 0.30760 0.15160 0.28200
C 	C 	0.37330 0.33350 0.18070 0.32000
C 	C 	0.50430 0.29980 0.12390 -0.67900
H 	H 	0.53990 0.29290 0.13940 0.20600
H 	H 	0.49510 0.27440 0.10620 0.22600
H 	H 	0.51110 0.32690 0.10780 0.22100
C 	C 	0.31970 0.35740 0.19490 -0.70500
H 	H 	0.30410 0.37620 0.17320 0.22300
H 	H 	0.28990 0.33530 0.20290 0.22800
H 	H 	0.32980 0.37640 0.21780 0.23500
C 	C 	0.15760 0.45960 0.91410 0.38400
C 	C 	0.14680 0.42650 0.88120 -0.16200
C 	C 	0.18660 0.39160 0.87340 0.07900
H 	H 	0.22220 0.38960 0.88830 0.00600
C 	C 	0.17430 0.35980 0.84380 -0.18500
H 	H 	0.20150 0.33620 0.83880 0.08000
C 	C 	0.12160 0.36230 0.82110 0.15700
C 	C 	0.08230 0.39930 0.82930 -0.19200
H 	H 	0.04750 0.40280 0.81380 0.08000
C 	C 	0.09420 0.42880 0.85860 0.08500
H 	H 	0.06660 0.45190 0.86440 0.00900
C 	C 	0.10990 0.33030 0.78920 -0.24500
C 	C 	0.05570 0.30880 0.78070 0.21200
C 	C 	0.14850 0.31520 0.75860 0.30000
C 	C 	0.99930 0.31290 0.80340 -0.52000
H 	H 	0.97910 0.28380 0.80360 0.16600
H 	H 	0.00780 0.32220 0.83090 0.16000
H 	H 	0.97410 0.33550 0.79050 0.17200
C 	C 	0.21030 0.32420 0.75090 -0.69700
H 	H 	0.21940 0.31700 0.72300 0.22400
H 	H 	0.21840 0.35620 0.75580 0.22000
H 	H 	0.23460 0.30580 0.76870 0.21800
