data_crystal

_cell_length_a 30.51600
_cell_length_b 30.51600
_cell_length_c 17.70400
_cell_angle_alpha 90.00000
_cell_angle_beta  90.00000
_cell_angle_gamma 120.00000

_symmetry_space_group_name_	'P 1'
_symmetry_space_group_name_H-M	'P 1'

loop_
_symmetry_equiv_pos_as_xyz
  x,y,z

loop_
_atom_site_label
_atom_site_type_symbol
_atom_site_fract_x
_atom_site_fract_y
_atom_site_fract_z
_atom_site_charge
Zn	Zn	0.63184 0.85363 0.52340 1.21000
N 	N 	0.63886 0.89247 0.42369 -0.24800
N 	N 	0.60453 0.79395 0.44729 -0.24800
N 	N 	0.58550 0.77118 0.32836 -0.19900
H 	H 	0.58290 0.77350 0.27920 0.15000
O 	O 	0.47940 0.49953 0.24583 -0.46200
O 	O 	0.45028 0.52959 0.15604 -0.31900
O 	O 	0.58592 0.62749 0.74709 -0.35800
O 	O 	0.50335 0.59083 0.73154 -0.42600
C 	C 	0.65316 0.94156 0.41679 0.07400
H 	H 	0.66320 0.96220 0.46070 0.00600
C 	C 	0.65373 0.96320 0.34796 -0.11500
H 	H 	0.66350 0.99800 0.34470 0.08400
C 	C 	0.63998 0.93350 0.28417 0.03800
H 	H 	0.64060 0.94780 0.23620 0.02500
C 	C 	0.62518 0.88272 0.29001 -0.09600
H 	H 	0.61580 0.86170 0.24650 0.07000
C 	C 	0.62446 0.86342 0.36113 0.03600
C 	C 	0.60596 0.80996 0.37723 0.08300
C 	C 	0.58134 0.74194 0.44346 0.02900
C 	C 	0.56930 0.72705 0.36867 0.03600
C 	C 	0.54469 0.67782 0.33096 0.04900
C 	C 	0.51704 0.67074 0.26424 -0.10300
H 	H 	0.51450 0.69810 0.24360 0.08000
C 	C 	0.49346 0.62419 0.22837 0.03700
H 	H 	0.47480 0.61990 0.18340 0.03200
C 	C 	0.49687 0.58366 0.25752 -0.11100
C 	C 	0.52456 0.59066 0.32370 0.03600
H 	H 	0.52710 0.56330 0.34420 0.03300
C 	C 	0.54827 0.63708 0.35962 -0.10600
H 	H 	0.56720 0.64130 0.40430 0.07200
C 	C 	0.47302 0.53395 0.21620 0.34800
C 	C 	0.57191 0.71190 0.51286 0.02700
C 	C 	0.60916 0.72848 0.56862 -0.09500
H 	H 	0.64020 0.75920 0.56180 0.05300
C 	C 	0.60108 0.70036 0.63387 0.02000
H 	H 	0.62670 0.71180 0.67140 0.03300
C 	C 	0.55573 0.65562 0.64459 -0.08500
C 	C 	0.51779 0.64004 0.59047 0.01900
H 	H 	0.48610 0.61030 0.59860 0.04200
C 	C 	0.52605 0.66777 0.52452 -0.08900
H 	H 	0.50020 0.65650 0.48730 0.06500
C 	C 	0.54862 0.62344 0.71247 0.30300
Zn	Zn	0.29851 0.18696 0.85673 1.20900
N 	N 	0.30553 0.22580 0.75702 -0.24900
N 	N 	0.27120 0.12728 0.78062 -0.24900
N 	N 	0.25217 0.10451 0.66169 -0.20000
H 	H 	0.24957 0.10683 0.61253 0.14900
O 	O 	0.14607 0.83286 0.57916 -0.46300
O 	O 	0.11695 0.86292 0.48937 -0.32000
O 	O 	0.25259 0.96082 0.08042 -0.35900
O 	O 	0.17002 0.92416 0.06487 -0.42700
C 	C 	0.31983 0.27489 0.75012 0.07300
H 	H 	0.32987 0.29553 0.79403 0.00500
C 	C 	0.32040 0.29653 0.68129 -0.11600
H 	H 	0.33017 0.33133 0.67803 0.08300
C 	C 	0.30665 0.26683 0.61750 0.03700
H 	H 	0.30727 0.28113 0.56953 0.02400
C 	C 	0.29185 0.21605 0.62334 -0.09700
H 	H 	0.28247 0.19503 0.57983 0.06900
C 	C 	0.29113 0.19675 0.69446 0.03500
C 	C 	0.27263 0.14329 0.71056 0.08200
C 	C 	0.24801 0.07527 0.77679 0.02800
C 	C 	0.23597 0.06038 0.70200 0.03500
C 	C 	0.21136 0.01115 0.66429 0.04800
C 	C 	0.18371 0.00407 0.59757 -0.10400
H 	H 	0.18117 0.03143 0.57693 0.07900
C 	C 	0.16013 0.95752 0.56170 0.03600
H 	H 	0.14147 0.95323 0.51673 0.03100
C 	C 	0.16354 0.91699 0.59085 -0.11200
C 	C 	0.19123 0.92399 0.65703 0.03500
H 	H 	0.19377 0.89663 0.67753 0.03200
C 	C 	0.21494 0.97041 0.69295 -0.10700
H 	H 	0.23387 0.97463 0.73763 0.07100
C 	C 	0.13969 0.86728 0.54953 0.34700
C 	C 	0.23858 0.04523 0.84619 0.02700
C 	C 	0.27583 0.06181 0.90195 -0.09600
H 	H 	0.30687 0.09253 0.89513 0.05300
C 	C 	0.26775 0.03369 0.96720 0.02200
H 	H 	0.29337 0.04513 0.00473 0.03200
C 	C 	0.22240 0.98895 0.97792 -0.08800
C 	C 	0.18446 0.97337 0.92380 0.01800
H 	H 	0.15277 0.94363 0.93193 0.04200
C 	C 	0.19272 0.00110 0.85785 -0.08700
H 	H 	0.16687 0.98983 0.82063 0.06400
C 	C 	0.21529 0.95677 0.04580 0.30500
Zn	Zn	0.96517 0.52030 0.19007 1.20900
N 	N 	0.97219 0.55914 0.09036 -0.24900
N 	N 	0.93786 0.46062 0.11396 -0.24900
N 	N 	0.91883 0.43785 0.99503 -0.19900
H 	H 	0.91623 0.44017 0.94587 0.14800
O 	O 	0.81273 0.16620 0.91250 -0.46300
O 	O 	0.78361 0.19626 0.82271 -0.32000
O 	O 	0.91925 0.29416 0.41376 -0.35900
O 	O 	0.83668 0.25750 0.39821 -0.42700
C 	C 	0.98649 0.60823 0.08346 0.07400
H 	H 	0.99653 0.62887 0.12737 0.00500
C 	C 	0.98706 0.62987 0.01463 -0.11700
H 	H 	0.99683 0.66467 0.01137 0.08400
C 	C 	0.97331 0.60017 0.95084 0.03800
H 	H 	0.97393 0.61447 0.90287 0.02400
C 	C 	0.95851 0.54939 0.95668 -0.09700
H 	H 	0.94913 0.52837 0.91317 0.06900
C 	C 	0.95779 0.53009 0.02780 0.03500
C 	C 	0.93929 0.47663 0.04390 0.08200
C 	C 	0.91467 0.40861 0.11013 0.02900
C 	C 	0.90263 0.39372 0.03534 0.03200
C 	C 	0.87802 0.34449 0.99763 0.05300
C 	C 	0.85037 0.33741 0.93091 -0.10700
H 	H 	0.84783 0.36477 0.91027 0.08000
C 	C 	0.82679 0.29086 0.89504 0.03900
H 	H 	0.80813 0.28657 0.85007 0.03000
C 	C 	0.83020 0.25033 0.92419 -0.11500
C 	C 	0.85789 0.25733 0.99037 0.04100
H 	H 	0.86043 0.22997 0.01087 0.02900
C 	C 	0.88160 0.30375 0.02629 -0.11300
H 	H 	0.90053 0.30797 0.07097 0.07300
C 	C 	0.80635 0.20062 0.88287 0.34900
C 	C 	0.90524 0.37857 0.17953 0.02700
C 	C 	0.94249 0.39515 0.23529 -0.09400
H 	H 	0.97353 0.42587 0.22847 0.05300
C 	C 	0.93441 0.36703 0.30054 0.01900
H 	H 	0.96003 0.37847 0.33807 0.03300
C 	C 	0.88906 0.32229 0.31126 -0.08500
C 	C 	0.85112 0.30671 0.25714 0.01800
H 	H 	0.81943 0.27697 0.26527 0.04200
C 	C 	0.85938 0.33444 0.19119 -0.08800
H 	H 	0.83353 0.32317 0.15397 0.06500
C 	C 	0.88195 0.29011 0.37914 0.30300
Zn	Zn	0.14637 0.77821 0.52340 1.20900
N 	N 	0.10753 0.74639 0.42369 -0.24900
N 	N 	0.20605 0.81058 0.44729 -0.24900
N 	N 	0.22882 0.81432 0.32836 -0.20000
H 	H 	0.22650 0.80940 0.27920 0.14900
O 	O 	0.50047 0.97987 0.24583 -0.46300
O 	O 	0.47041 0.92069 0.15604 -0.32000
O 	O 	0.37251 0.95843 0.74709 -0.35900
O 	O 	0.40917 0.91252 0.73154 -0.42700
C 	C 	0.05844 0.71160 0.41679 0.07300
H 	H 	0.03780 0.70100 0.46070 0.00500
C 	C 	0.03680 0.69053 0.34796 -0.11600
H 	H 	0.00200 0.66550 0.34470 0.08300
C 	C 	0.06650 0.70648 0.28417 0.03700
H 	H 	0.05220 0.69280 0.23620 0.02400
C 	C 	0.11728 0.74246 0.29001 -0.09700
H 	H 	0.13830 0.75410 0.24650 0.06900
C 	C 	0.13658 0.76104 0.36113 0.03500
C 	C 	0.19004 0.79600 0.37723 0.08200
C 	C 	0.25806 0.83940 0.44346 0.02800
C 	C 	0.27295 0.84225 0.36867 0.03500
C 	C 	0.32218 0.86687 0.33096 0.04800
C 	C 	0.32926 0.84630 0.26424 -0.10400
H 	H 	0.30190 0.81640 0.24360 0.07900
C 	C 	0.37581 0.86927 0.22837 0.03600
H 	H 	0.38010 0.85490 0.18340 0.03100
C 	C 	0.41634 0.91321 0.25752 -0.11200
C 	C 	0.40934 0.93390 0.32370 0.03500
H 	H 	0.43670 0.96380 0.34420 0.03200
C 	C 	0.36292 0.91119 0.35962 -0.10700
H 	H 	0.35870 0.92590 0.40430 0.07100
C 	C 	0.46605 0.93907 0.21620 0.34700
C 	C 	0.28810 0.86001 0.51286 0.02700
C 	C 	0.27152 0.88068 0.56862 -0.09500
H 	H 	0.24080 0.88100 0.56180 0.05300
C 	C 	0.29964 0.90072 0.63387 0.02000
H 	H 	0.28820 0.91490 0.67140 0.03300
C 	C 	0.34438 0.90011 0.64459 -0.08500
C 	C 	0.35996 0.87775 0.59047 0.01900
H 	H 	0.38970 0.87580 0.59860 0.04200
C 	C 	0.33223 0.85828 0.52452 -0.08900
H 	H 	0.34350 0.84370 0.48730 0.06500
C 	C 	0.37656 0.92518 0.71247 0.30300
Zn	Zn	0.81304 0.11154 0.85673 1.20900
N 	N 	0.77420 0.07972 0.75702 -0.24900
N 	N 	0.87272 0.14391 0.78062 -0.24900
N 	N 	0.89549 0.14765 0.66169 -0.20000
H 	H 	0.89317 0.14273 0.61253 0.14900
O 	O 	0.16714 0.31320 0.57916 -0.46300
O 	O 	0.13708 0.25402 0.48937 -0.32000
O 	O 	0.03918 0.29176 0.08042 -0.35900
O 	O 	0.07584 0.24585 0.06487 -0.42700
C 	C 	0.72511 0.04493 0.75012 0.07300
H 	H 	0.70447 0.03433 0.79403 0.00500
C 	C 	0.70347 0.02386 0.68129 -0.11500
H 	H 	0.66867 0.99883 0.67803 0.08300
C 	C 	0.73317 0.03981 0.61750 0.03700
H 	H 	0.71887 0.02613 0.56953 0.02400
C 	C 	0.78395 0.07579 0.62334 -0.09700
H 	H 	0.80497 0.08743 0.57983 0.06800
C 	C 	0.80325 0.09437 0.69446 0.03500
C 	C 	0.85671 0.12933 0.71056 0.08200
C 	C 	0.92473 0.17273 0.77679 0.02800
C 	C 	0.93962 0.17558 0.70200 0.03500
C 	C 	0.98885 0.20020 0.66429 0.04800
C 	C 	0.99593 0.17963 0.59757 -0.10400
H 	H 	0.96857 0.14973 0.57693 0.07900
C 	C 	0.04248 0.20260 0.56170 0.03600
H 	H 	0.04677 0.18823 0.51673 0.03100
C 	C 	0.08301 0.24654 0.59085 -0.11200
C 	C 	0.07601 0.26723 0.65703 0.03500
H 	H 	0.10337 0.29713 0.67753 0.03200
C 	C 	0.02959 0.24452 0.69295 -0.10700
H 	H 	0.02537 0.25923 0.73763 0.07100
C 	C 	0.13272 0.27240 0.54953 0.34700
C 	C 	0.95477 0.19334 0.84619 0.02800
C 	C 	0.93819 0.21401 0.90195 -0.09600
H 	H 	0.90747 0.21433 0.89513 0.05400
C 	C 	0.96631 0.23405 0.96720 0.02400
H 	H 	0.95487 0.24823 0.00473 0.03100
C 	C 	0.01105 0.23344 0.97792 -0.08700
C 	C 	0.02663 0.21108 0.92380 0.01800
H 	H 	0.05637 0.20913 0.93193 0.04200
C 	C 	0.99890 0.19161 0.85785 -0.08700
H 	H 	0.01017 0.17703 0.82063 0.06400
C 	C 	0.04323 0.25851 0.04580 0.30400
Zn	Zn	0.47970 0.44488 0.19007 1.20900
N 	N 	0.44086 0.41306 0.09036 -0.24900
N 	N 	0.53938 0.47725 0.11396 -0.24900
N 	N 	0.56215 0.48099 0.99503 -0.20000
H 	H 	0.55983 0.47607 0.94587 0.14800
O 	O 	0.83380 0.64654 0.91250 -0.46300
O 	O 	0.80374 0.58736 0.82271 -0.32000
O 	O 	0.70584 0.62510 0.41376 -0.35900
O 	O 	0.74250 0.57919 0.39821 -0.42700
C 	C 	0.39177 0.37827 0.08346 0.07300
H 	H 	0.37113 0.36767 0.12737 0.00500
C 	C 	0.37013 0.35720 0.01463 -0.11600
H 	H 	0.33533 0.33217 0.01137 0.08300
C 	C 	0.39983 0.37315 0.95084 0.03700
H 	H 	0.38553 0.35947 0.90287 0.02400
C 	C 	0.45061 0.40913 0.95668 -0.09700
H 	H 	0.47163 0.42077 0.91317 0.06900
C 	C 	0.46991 0.42771 0.02780 0.03500
C 	C 	0.52337 0.46267 0.04390 0.08200
C 	C 	0.59139 0.50607 0.11013 0.02800
C 	C 	0.60628 0.50892 0.03534 0.03400
C 	C 	0.65551 0.53354 0.99763 0.04900
C 	C 	0.66259 0.51297 0.93091 -0.10500
H 	H 	0.63523 0.48307 0.91027 0.07900
C 	C 	0.70914 0.53594 0.89504 0.03600
H 	H 	0.71343 0.52157 0.85007 0.03100
C 	C 	0.74967 0.57988 0.92419 -0.11300
C 	C 	0.74267 0.60057 0.99037 0.03600
H 	H 	0.77003 0.63047 0.01087 0.03100
C 	C 	0.69625 0.57786 0.02629 -0.10800
H 	H 	0.69203 0.59257 0.07097 0.07100
C 	C 	0.79938 0.60574 0.88287 0.34800
C 	C 	0.62143 0.52668 0.17953 0.02700
C 	C 	0.60485 0.54735 0.23529 -0.09500
H 	H 	0.57413 0.54767 0.22847 0.05300
C 	C 	0.63297 0.56739 0.30054 0.02000
H 	H 	0.62153 0.58157 0.33807 0.03300
C 	C 	0.67771 0.56678 0.31126 -0.08500
C 	C 	0.69329 0.54442 0.25714 0.01800
H 	H 	0.72303 0.54247 0.26527 0.04200
C 	C 	0.66556 0.52495 0.19119 -0.08900
H 	H 	0.67683 0.51037 0.15397 0.06500
C 	C 	0.70989 0.59185 0.37914 0.30300
Zn	Zn	0.22179 0.36816 0.52340 1.20900
N 	N 	0.25361 0.36114 0.42369 -0.24900
N 	N 	0.18942 0.39547 0.44729 -0.24900
N 	N 	0.18568 0.41450 0.32836 -0.20000
H 	H 	0.19060 0.41710 0.27920 0.14900
O 	O 	0.02013 0.52060 0.24583 -0.46300
O 	O 	0.07931 0.54972 0.15604 -0.32000
O 	O 	0.04157 0.41408 0.74709 -0.35900
O 	O 	0.08748 0.49665 0.73154 -0.42700
C 	C 	0.28840 0.34684 0.41679 0.07300
H 	H 	0.29900 0.33680 0.46070 0.00500
C 	C 	0.30947 0.34627 0.34796 -0.11600
H 	H 	0.33450 0.33650 0.34470 0.08300
C 	C 	0.29352 0.36002 0.28417 0.03700
H 	H 	0.30720 0.35940 0.23620 0.02400
C 	C 	0.25754 0.37482 0.29001 -0.09700
H 	H 	0.24590 0.38420 0.24650 0.06900
C 	C 	0.23896 0.37554 0.36113 0.03500
C 	C 	0.20400 0.39404 0.37723 0.08200
C 	C 	0.16060 0.41866 0.44346 0.02800
C 	C 	0.15775 0.43070 0.36867 0.03500
C 	C 	0.13313 0.45531 0.33096 0.04800
C 	C 	0.15370 0.48296 0.26424 -0.10400
H 	H 	0.18360 0.48550 0.24360 0.07900
C 	C 	0.13073 0.50654 0.22837 0.03600
H 	H 	0.14510 0.52520 0.18340 0.03100
C 	C 	0.08679 0.50313 0.25752 -0.11200
C 	C 	0.06610 0.47544 0.32370 0.03500
H 	H 	0.03620 0.47290 0.34420 0.03200
C 	C 	0.08881 0.45173 0.35962 -0.10700
H 	H 	0.07410 0.43280 0.40430 0.07100
C 	C 	0.06093 0.52698 0.21620 0.34700
C 	C 	0.13999 0.42809 0.51286 0.02700
C 	C 	0.11932 0.39084 0.56862 -0.09500
H 	H 	0.11900 0.35980 0.56180 0.05300
C 	C 	0.09928 0.39892 0.63387 0.02000
H 	H 	0.08510 0.37330 0.67140 0.03300
C 	C 	0.09989 0.44427 0.64459 -0.08500
C 	C 	0.12225 0.48221 0.59047 0.01900
H 	H 	0.12420 0.51390 0.59860 0.04200
C 	C 	0.14172 0.47395 0.52452 -0.08900
H 	H 	0.15630 0.49980 0.48730 0.06500
C 	C 	0.07482 0.45138 0.71247 0.30300
Zn	Zn	0.88846 0.70149 0.85673 1.20900
N 	N 	0.92028 0.69447 0.75702 -0.24900
N 	N 	0.85609 0.72880 0.78062 -0.24900
N 	N 	0.85235 0.74783 0.66169 -0.20000
H 	H 	0.85727 0.75043 0.61253 0.14900
O 	O 	0.68680 0.85393 0.57916 -0.46300
O 	O 	0.74598 0.88305 0.48937 -0.32000
O 	O 	0.70824 0.74741 0.08042 -0.35900
O 	O 	0.75415 0.82998 0.06487 -0.42700
C 	C 	0.95507 0.68017 0.75012 0.07300
H 	H 	0.96567 0.67013 0.79403 0.00500
C 	C 	0.97614 0.67960 0.68129 -0.11500
H 	H 	0.00117 0.66983 0.67803 0.08300
C 	C 	0.96019 0.69335 0.61750 0.03700
H 	H 	0.97387 0.69273 0.56953 0.02400
C 	C 	0.92421 0.70815 0.62334 -0.09700
H 	H 	0.91257 0.71753 0.57983 0.06800
C 	C 	0.90563 0.70887 0.69446 0.03500
C 	C 	0.87067 0.72737 0.71056 0.08200
C 	C 	0.82727 0.75199 0.77679 0.02800
C 	C 	0.82442 0.76403 0.70200 0.03500
C 	C 	0.79980 0.78864 0.66429 0.04800
C 	C 	0.82037 0.81629 0.59757 -0.10400
H 	H 	0.85027 0.81883 0.57693 0.07900
C 	C 	0.79740 0.83987 0.56170 0.03600
H 	H 	0.81177 0.85853 0.51673 0.03100
C 	C 	0.75346 0.83646 0.59085 -0.11200
C 	C 	0.73277 0.80877 0.65703 0.03500
H 	H 	0.70287 0.80623 0.67753 0.03200
C 	C 	0.75548 0.78506 0.69295 -0.10700
H 	H 	0.74077 0.76613 0.73763 0.07100
C 	C 	0.72760 0.86031 0.54953 0.34700
C 	C 	0.80666 0.76142 0.84619 0.02700
C 	C 	0.78599 0.72417 0.90195 -0.09500
H 	H 	0.78567 0.69313 0.89513 0.05300
C 	C 	0.76595 0.73225 0.96720 0.02000
H 	H 	0.75177 0.70663 0.00473 0.03300
C 	C 	0.76656 0.77760 0.97792 -0.08500
C 	C 	0.78892 0.81554 0.92380 0.01900
H 	H 	0.79087 0.84723 0.93193 0.04200
C 	C 	0.80839 0.80728 0.85785 -0.08900
H 	H 	0.82297 0.83313 0.82063 0.06500
C 	C 	0.74149 0.78471 0.04580 0.30300
Zn	Zn	0.55512 0.03483 0.19007 1.20900
N 	N 	0.58694 0.02781 0.09036 -0.24900
N 	N 	0.52275 0.06214 0.11396 -0.24900
N 	N 	0.51901 0.08117 0.99503 -0.20000
H 	H 	0.52393 0.08377 0.94587 0.14800
O 	O 	0.35346 0.18727 0.91250 -0.46300
O 	O 	0.41264 0.21639 0.82271 -0.32000
O 	O 	0.37490 0.08075 0.41376 -0.35900
O 	O 	0.42081 0.16332 0.39821 -0.42700
C 	C 	0.62173 0.01351 0.08346 0.07400
H 	H 	0.63233 0.00347 0.12737 0.00500
C 	C 	0.64280 0.01294 0.01463 -0.11800
H 	H 	0.66783 0.00317 0.01137 0.08400
C 	C 	0.62685 0.02669 0.95084 0.03900
H 	H 	0.64053 0.02607 0.90287 0.02400
C 	C 	0.59087 0.04149 0.95668 -0.09700
H 	H 	0.57923 0.05087 0.91317 0.06900
C 	C 	0.57229 0.04221 0.02780 0.03500
C 	C 	0.53733 0.06071 0.04390 0.08200
C 	C 	0.49393 0.08533 0.11013 0.02900
C 	C 	0.49108 0.09737 0.03534 0.03300
C 	C 	0.46646 0.12198 0.99763 0.05100
C 	C 	0.48703 0.14963 0.93091 -0.10600
H 	H 	0.51693 0.15217 0.91027 0.08000
C 	C 	0.46406 0.17321 0.89504 0.03700
H 	H 	0.47843 0.19187 0.85007 0.03000
C 	C 	0.42012 0.16980 0.92419 -0.11300
C 	C 	0.39943 0.14211 0.99037 0.03800
H 	H 	0.36953 0.13957 0.01087 0.03100
C 	C 	0.42214 0.11840 0.02629 -0.11000
H 	H 	0.40743 0.09947 0.07097 0.07200
C 	C 	0.39426 0.19365 0.88287 0.34800
C 	C 	0.47332 0.09476 0.17953 0.02700
C 	C 	0.45265 0.05751 0.23529 -0.09400
H 	H 	0.45233 0.02647 0.22847 0.05300
C 	C 	0.43261 0.06559 0.30054 0.01900
H 	H 	0.41843 0.03997 0.33807 0.03300
C 	C 	0.43322 0.11094 0.31126 -0.08500
C 	C 	0.45558 0.14888 0.25714 0.01800
H 	H 	0.45753 0.18057 0.26527 0.04200
C 	C 	0.47505 0.14062 0.19119 -0.08800
H 	H 	0.48963 0.16647 0.15397 0.06500
C 	C 	0.40815 0.11805 0.37914 0.30300
Zn	Zn	0.36816 0.14637 0.47660 1.20900
N 	N 	0.36114 0.10753 0.57631 -0.24900
N 	N 	0.39547 0.20605 0.55271 -0.24900
N 	N 	0.41450 0.22882 0.67164 -0.20000
H 	H 	0.41710 0.22650 0.72080 0.14900
O 	O 	0.52060 0.50047 0.75417 -0.46300
O 	O 	0.54972 0.47041 0.84396 -0.32000
O 	O 	0.41408 0.37251 0.25291 -0.35900
O 	O 	0.49665 0.40917 0.26846 -0.42700
C 	C 	0.34684 0.05844 0.58321 0.07300
H 	H 	0.33680 0.03780 0.53930 0.00500
C 	C 	0.34627 0.03680 0.65204 -0.11600
H 	H 	0.33650 0.00200 0.65530 0.08300
C 	C 	0.36002 0.06650 0.71583 0.03700
H 	H 	0.35940 0.05220 0.76380 0.02400
C 	C 	0.37482 0.11728 0.70999 -0.09700
H 	H 	0.38420 0.13830 0.75350 0.06900
C 	C 	0.37554 0.13658 0.63887 0.03500
C 	C 	0.39404 0.19004 0.62277 0.08200
C 	C 	0.41866 0.25806 0.55654 0.02800
C 	C 	0.43070 0.27295 0.63133 0.03500
C 	C 	0.45531 0.32218 0.66904 0.04800
C 	C 	0.48296 0.32926 0.73576 -0.10400
H 	H 	0.48550 0.30190 0.75640 0.07900
C 	C 	0.50654 0.37581 0.77163 0.03600
H 	H 	0.52520 0.38010 0.81660 0.03100
C 	C 	0.50313 0.41634 0.74248 -0.11200
C 	C 	0.47544 0.40934 0.67630 0.03500
H 	H 	0.47290 0.43670 0.65580 0.03200
C 	C 	0.45173 0.36292 0.64038 -0.10700
H 	H 	0.43280 0.35870 0.59570 0.07100
C 	C 	0.52698 0.46605 0.78380 0.34700
C 	C 	0.42809 0.28810 0.48714 0.02700
C 	C 	0.39084 0.27152 0.43138 -0.09500
H 	H 	0.35980 0.24080 0.43820 0.05300
C 	C 	0.39892 0.29964 0.36613 0.02000
H 	H 	0.37330 0.28820 0.32860 0.03300
C 	C 	0.44427 0.34438 0.35541 -0.08500
C 	C 	0.48221 0.35996 0.40953 0.01900
H 	H 	0.51390 0.38970 0.40140 0.04200
C 	C 	0.47395 0.33223 0.47548 -0.08900
H 	H 	0.49980 0.34350 0.51270 0.06500
C 	C 	0.45138 0.37656 0.28753 0.30300
Zn	Zn	0.03483 0.47970 0.80993 1.20900
N 	N 	0.02781 0.44086 0.90964 -0.24900
N 	N 	0.06214 0.53938 0.88604 -0.24900
N 	N 	0.08117 0.56215 0.00497 -0.19900
H 	H 	0.08377 0.55983 0.05413 0.14800
O 	O 	0.18727 0.83380 0.08750 -0.46300
O 	O 	0.21639 0.80374 0.17729 -0.32000
O 	O 	0.08075 0.70584 0.58624 -0.35900
O 	O 	0.16332 0.74250 0.60179 -0.42700
C 	C 	0.01351 0.39177 0.91654 0.07400
H 	H 	0.00347 0.37113 0.87263 0.00500
C 	C 	0.01294 0.37013 0.98537 -0.11700
H 	H 	0.00317 0.33533 0.98863 0.08400
C 	C 	0.02669 0.39983 0.04916 0.03800
H 	H 	0.02607 0.38553 0.09713 0.02400
C 	C 	0.04149 0.45061 0.04332 -0.09700
H 	H 	0.05087 0.47163 0.08683 0.06900
C 	C 	0.04221 0.46991 0.97220 0.03500
C 	C 	0.06071 0.52337 0.95610 0.08200
C 	C 	0.08533 0.59139 0.88987 0.02900
C 	C 	0.09737 0.60628 0.96466 0.03200
C 	C 	0.12198 0.65551 0.00237 0.05300
C 	C 	0.14963 0.66259 0.06909 -0.10700
H 	H 	0.15217 0.63523 0.08973 0.08000
C 	C 	0.17321 0.70914 0.10496 0.03900
H 	H 	0.19187 0.71343 0.14993 0.03000
C 	C 	0.16980 0.74967 0.07581 -0.11500
C 	C 	0.14211 0.74267 0.00963 0.04100
H 	H 	0.13957 0.77003 0.98913 0.02900
C 	C 	0.11840 0.69625 0.97371 -0.11300
H 	H 	0.09947 0.69203 0.92903 0.07300
C 	C 	0.19365 0.79938 0.11713 0.34900
C 	C 	0.09476 0.62143 0.82047 0.02700
C 	C 	0.05751 0.60485 0.76471 -0.09400
H 	H 	0.02647 0.57413 0.77153 0.05300
C 	C 	0.06559 0.63297 0.69946 0.01900
H 	H 	0.03997 0.62153 0.66193 0.03300
C 	C 	0.11094 0.67771 0.68874 -0.08500
C 	C 	0.14888 0.69329 0.74286 0.01800
H 	H 	0.18057 0.72303 0.73473 0.04200
C 	C 	0.14062 0.66556 0.80881 -0.08800
H 	H 	0.16647 0.67683 0.84603 0.06500
C 	C 	0.11805 0.70989 0.62086 0.30300
Zn	Zn	0.70149 0.81304 0.14327 1.20900
N 	N 	0.69447 0.77420 0.24298 -0.24900
N 	N 	0.72880 0.87272 0.21938 -0.24900
N 	N 	0.74783 0.89549 0.33831 -0.20000
H 	H 	0.75043 0.89317 0.38747 0.14900
O 	O 	0.85393 0.16714 0.42084 -0.46300
O 	O 	0.88305 0.13708 0.51063 -0.32000
O 	O 	0.74741 0.03918 0.91958 -0.35900
O 	O 	0.82998 0.07584 0.93513 -0.42700
C 	C 	0.68017 0.72511 0.24988 0.07300
H 	H 	0.67013 0.70447 0.20597 0.00500
C 	C 	0.67960 0.70347 0.31871 -0.11600
H 	H 	0.66983 0.66867 0.32197 0.08300
C 	C 	0.69335 0.73317 0.38250 0.03700
H 	H 	0.69273 0.71887 0.43047 0.02400
C 	C 	0.70815 0.78395 0.37666 -0.09700
H 	H 	0.71753 0.80497 0.42017 0.06900
C 	C 	0.70887 0.80325 0.30554 0.03500
C 	C 	0.72737 0.85671 0.28944 0.08200
C 	C 	0.75199 0.92473 0.22321 0.02800
C 	C 	0.76403 0.93962 0.29800 0.03500
C 	C 	0.78864 0.98885 0.33571 0.04800
C 	C 	0.81629 0.99593 0.40243 -0.10400
H 	H 	0.81883 0.96857 0.42307 0.07900
C 	C 	0.83987 0.04248 0.43830 0.03600
H 	H 	0.85853 0.04677 0.48327 0.03100
C 	C 	0.83646 0.08301 0.40915 -0.11200
C 	C 	0.80877 0.07601 0.34297 0.03500
H 	H 	0.80623 0.10337 0.32247 0.03200
C 	C 	0.78506 0.02959 0.30705 -0.10700
H 	H 	0.76613 0.02537 0.26237 0.07100
C 	C 	0.86031 0.13272 0.45047 0.34700
C 	C 	0.76142 0.95477 0.15381 0.02700
C 	C 	0.72417 0.93819 0.09805 -0.09600
H 	H 	0.69313 0.90747 0.10487 0.05300
C 	C 	0.73225 0.96631 0.03280 0.02200
H 	H 	0.70663 0.95487 0.99527 0.03200
C 	C 	0.77760 0.01105 0.02208 -0.08800
C 	C 	0.81554 0.02663 0.07620 0.01800
H 	H 	0.84723 0.05637 0.06807 0.04200
C 	C 	0.80728 0.99890 0.14215 -0.08700
H 	H 	0.83313 0.01017 0.17937 0.06400
C 	C 	0.78471 0.04323 0.95420 0.30500
Zn	Zn	0.85363 0.22179 0.47660 1.20900
N 	N 	0.89247 0.25361 0.57631 -0.24900
N 	N 	0.79395 0.18942 0.55271 -0.24900
N 	N 	0.77118 0.18568 0.67164 -0.20000
H 	H 	0.77350 0.19060 0.72080 0.14900
O 	O 	0.49953 0.02013 0.75417 -0.46300
O 	O 	0.52959 0.07931 0.84396 -0.32000
O 	O 	0.62749 0.04157 0.25291 -0.35900
O 	O 	0.59083 0.08748 0.26846 -0.42700
C 	C 	0.94156 0.28840 0.58321 0.07300
H 	H 	0.96220 0.29900 0.53930 0.00500
C 	C 	0.96320 0.30947 0.65204 -0.11600
H 	H 	0.99800 0.33450 0.65530 0.08300
C 	C 	0.93350 0.29352 0.71583 0.03700
H 	H 	0.94780 0.30720 0.76380 0.02400
C 	C 	0.88272 0.25754 0.70999 -0.09700
H 	H 	0.86170 0.24590 0.75350 0.06900
C 	C 	0.86342 0.23896 0.63887 0.03500
C 	C 	0.80996 0.20400 0.62277 0.08200
C 	C 	0.74194 0.16060 0.55654 0.02800
C 	C 	0.72705 0.15775 0.63133 0.03500
C 	C 	0.67782 0.13313 0.66904 0.04800
C 	C 	0.67074 0.15370 0.73576 -0.10400
H 	H 	0.69810 0.18360 0.75640 0.07900
C 	C 	0.62419 0.13073 0.77163 0.03600
H 	H 	0.61990 0.14510 0.81660 0.03100
C 	C 	0.58366 0.08679 0.74248 -0.11200
C 	C 	0.59066 0.06610 0.67630 0.03500
H 	H 	0.56330 0.03620 0.65580 0.03200
C 	C 	0.63708 0.08881 0.64038 -0.10700
H 	H 	0.64130 0.07410 0.59570 0.07100
C 	C 	0.53395 0.06093 0.78380 0.34700
C 	C 	0.71190 0.13999 0.48714 0.02700
C 	C 	0.72848 0.11932 0.43138 -0.09500
H 	H 	0.75920 0.11900 0.43820 0.05300
C 	C 	0.70036 0.09928 0.36613 0.02000
H 	H 	0.71180 0.08510 0.32860 0.03300
C 	C 	0.65562 0.09989 0.35541 -0.08500
C 	C 	0.64004 0.12225 0.40953 0.01900
H 	H 	0.61030 0.12420 0.40140 0.04200
C 	C 	0.66777 0.14172 0.47548 -0.08900
H 	H 	0.65650 0.15630 0.51270 0.06500
C 	C 	0.62344 0.07482 0.28753 0.30300
Zn	Zn	0.52030 0.55512 0.80993 1.20900
N 	N 	0.55914 0.58694 0.90964 -0.24900
N 	N 	0.46062 0.52275 0.88604 -0.24900
N 	N 	0.43785 0.51901 0.00497 -0.20000
H 	H 	0.44017 0.52393 0.05413 0.14800
O 	O 	0.16620 0.35346 0.08750 -0.46300
O 	O 	0.19626 0.41264 0.17729 -0.32000
O 	O 	0.29416 0.37490 0.58624 -0.35900
O 	O 	0.25750 0.42081 0.60179 -0.42700
C 	C 	0.60823 0.62173 0.91654 0.07300
H 	H 	0.62887 0.63233 0.87263 0.00500
C 	C 	0.62987 0.64280 0.98537 -0.11600
H 	H 	0.66467 0.66783 0.98863 0.08300
C 	C 	0.60017 0.62685 0.04916 0.03700
H 	H 	0.61447 0.64053 0.09713 0.02400
C 	C 	0.54939 0.59087 0.04332 -0.09700
H 	H 	0.52837 0.57923 0.08683 0.06900
C 	C 	0.53009 0.57229 0.97220 0.03500
C 	C 	0.47663 0.53733 0.95610 0.08200
C 	C 	0.40861 0.49393 0.88987 0.02800
C 	C 	0.39372 0.49108 0.96466 0.03400
C 	C 	0.34449 0.46646 0.00237 0.04900
C 	C 	0.33741 0.48703 0.06909 -0.10500
H 	H 	0.36477 0.51693 0.08973 0.07900
C 	C 	0.29086 0.46406 0.10496 0.03600
H 	H 	0.28657 0.47843 0.14993 0.03100
C 	C 	0.25033 0.42012 0.07581 -0.11300
C 	C 	0.25733 0.39943 0.00963 0.03600
H 	H 	0.22997 0.36953 0.98913 0.03100
C 	C 	0.30375 0.42214 0.97371 -0.10800
H 	H 	0.30797 0.40743 0.92903 0.07100
C 	C 	0.20062 0.39426 0.11713 0.34800
C 	C 	0.37857 0.47332 0.82047 0.02700
C 	C 	0.39515 0.45265 0.76471 -0.09500
H 	H 	0.42587 0.45233 0.77153 0.05300
C 	C 	0.36703 0.43261 0.69946 0.02000
H 	H 	0.37847 0.41843 0.66193 0.03300
C 	C 	0.32229 0.43322 0.68874 -0.08500
C 	C 	0.30671 0.45558 0.74286 0.01800
H 	H 	0.27697 0.45753 0.73473 0.04200
C 	C 	0.33444 0.47505 0.80881 -0.08900
H 	H 	0.32317 0.48963 0.84603 0.06500
C 	C 	0.29011 0.40815 0.62086 0.30300
Zn	Zn	0.18696 0.88846 0.14327 1.20900
N 	N 	0.22580 0.92028 0.24298 -0.24900
N 	N 	0.12728 0.85609 0.21938 -0.24900
N 	N 	0.10451 0.85235 0.33831 -0.20000
H 	H 	0.10683 0.85727 0.38747 0.14900
O 	O 	0.83286 0.68680 0.42084 -0.46300
O 	O 	0.86292 0.74598 0.51063 -0.32000
O 	O 	0.96082 0.70824 0.91958 -0.35900
O 	O 	0.92416 0.75415 0.93513 -0.42700
C 	C 	0.27489 0.95507 0.24988 0.07300
H 	H 	0.29553 0.96567 0.20597 0.00500
C 	C 	0.29653 0.97614 0.31871 -0.11500
H 	H 	0.33133 0.00117 0.32197 0.08300
C 	C 	0.26683 0.96019 0.38250 0.03700
H 	H 	0.28113 0.97387 0.43047 0.02400
C 	C 	0.21605 0.92421 0.37666 -0.09700
H 	H 	0.19503 0.91257 0.42017 0.06800
C 	C 	0.19675 0.90563 0.30554 0.03500
C 	C 	0.14329 0.87067 0.28944 0.08200
C 	C 	0.07527 0.82727 0.22321 0.02800
C 	C 	0.06038 0.82442 0.29800 0.03500
C 	C 	0.01115 0.79980 0.33571 0.04800
C 	C 	0.00407 0.82037 0.40243 -0.10400
H 	H 	0.03143 0.85027 0.42307 0.07900
C 	C 	0.95752 0.79740 0.43830 0.03600
H 	H 	0.95323 0.81177 0.48327 0.03100
C 	C 	0.91699 0.75346 0.40915 -0.11200
C 	C 	0.92399 0.73277 0.34297 0.03500
H 	H 	0.89663 0.70287 0.32247 0.03200
C 	C 	0.97041 0.75548 0.30705 -0.10700
H 	H 	0.97463 0.74077 0.26237 0.07100
C 	C 	0.86728 0.72760 0.45047 0.34700
C 	C 	0.04523 0.80666 0.15381 0.02800
C 	C 	0.06181 0.78599 0.09805 -0.09600
H 	H 	0.09253 0.78567 0.10487 0.05400
C 	C 	0.03369 0.76595 0.03280 0.02400
H 	H 	0.04513 0.75177 0.99527 0.03100
C 	C 	0.98895 0.76656 0.02208 -0.08700
C 	C 	0.97337 0.78892 0.07620 0.01800
H 	H 	0.94363 0.79087 0.06807 0.04200
C 	C 	0.00110 0.80839 0.14215 -0.08700
H 	H 	0.98983 0.82297 0.17937 0.06400
C 	C 	0.95677 0.74149 0.95420 0.30400
Zn	Zn	0.77821 0.63184 0.47660 1.20900
N 	N 	0.74639 0.63886 0.57631 -0.24900
N 	N 	0.81058 0.60453 0.55271 -0.24900
N 	N 	0.81432 0.58550 0.67164 -0.20000
H 	H 	0.80940 0.58290 0.72080 0.14900
O 	O 	0.97987 0.47940 0.75417 -0.46300
O 	O 	0.92069 0.45028 0.84396 -0.32000
O 	O 	0.95843 0.58592 0.25291 -0.35900
O 	O 	0.91252 0.50335 0.26846 -0.42700
C 	C 	0.71160 0.65316 0.58321 0.07300
H 	H 	0.70100 0.66320 0.53930 0.00500
C 	C 	0.69053 0.65373 0.65204 -0.11600
H 	H 	0.66550 0.66350 0.65530 0.08300
C 	C 	0.70648 0.63998 0.71583 0.03700
H 	H 	0.69280 0.64060 0.76380 0.02400
C 	C 	0.74246 0.62518 0.70999 -0.09700
H 	H 	0.75410 0.61580 0.75350 0.06900
C 	C 	0.76104 0.62446 0.63887 0.03500
C 	C 	0.79600 0.60596 0.62277 0.08200
C 	C 	0.83940 0.58134 0.55654 0.02800
C 	C 	0.84225 0.56930 0.63133 0.03500
C 	C 	0.86687 0.54469 0.66904 0.04800
C 	C 	0.84630 0.51704 0.73576 -0.10400
H 	H 	0.81640 0.51450 0.75640 0.07900
C 	C 	0.86927 0.49346 0.77163 0.03600
H 	H 	0.85490 0.47480 0.81660 0.03100
C 	C 	0.91321 0.49687 0.74248 -0.11200
C 	C 	0.93390 0.52456 0.67630 0.03500
H 	H 	0.96380 0.52710 0.65580 0.03200
C 	C 	0.91119 0.54827 0.64038 -0.10700
H 	H 	0.92590 0.56720 0.59570 0.07100
C 	C 	0.93907 0.47302 0.78380 0.34700
C 	C 	0.86001 0.57191 0.48714 0.02700
C 	C 	0.88068 0.60916 0.43138 -0.09500
H 	H 	0.88100 0.64020 0.43820 0.05300
C 	C 	0.90072 0.60108 0.36613 0.02000
H 	H 	0.91490 0.62670 0.32860 0.03300
C 	C 	0.90011 0.55573 0.35541 -0.08500
C 	C 	0.87775 0.51779 0.40953 0.01900
H 	H 	0.87580 0.48610 0.40140 0.04200
C 	C 	0.85828 0.52605 0.47548 -0.08900
H 	H 	0.84370 0.50020 0.51270 0.06500
C 	C 	0.92518 0.54862 0.28753 0.30300
Zn	Zn	0.44488 0.96517 0.80993 1.20900
N 	N 	0.41306 0.97219 0.90964 -0.24900
N 	N 	0.47725 0.93786 0.88604 -0.24900
N 	N 	0.48099 0.91883 0.00497 -0.20000
H 	H 	0.47607 0.91623 0.05413 0.14800
O 	O 	0.64654 0.81273 0.08750 -0.46300
O 	O 	0.58736 0.78361 0.17729 -0.32000
O 	O 	0.62510 0.91925 0.58624 -0.35900
O 	O 	0.57919 0.83668 0.60179 -0.42700
C 	C 	0.37827 0.98649 0.91654 0.07400
H 	H 	0.36767 0.99653 0.87263 0.00500
C 	C 	0.35720 0.98706 0.98537 -0.11800
H 	H 	0.33217 0.99683 0.98863 0.08400
C 	C 	0.37315 0.97331 0.04916 0.03900
H 	H 	0.35947 0.97393 0.09713 0.02400
C 	C 	0.40913 0.95851 0.04332 -0.09700
H 	H 	0.42077 0.94913 0.08683 0.06900
C 	C 	0.42771 0.95779 0.97220 0.03500
C 	C 	0.46267 0.93929 0.95610 0.08200
C 	C 	0.50607 0.91467 0.88987 0.02900
C 	C 	0.50892 0.90263 0.96466 0.03300
C 	C 	0.53354 0.87802 0.00237 0.05100
C 	C 	0.51297 0.85037 0.06909 -0.10600
H 	H 	0.48307 0.84783 0.08973 0.08000
C 	C 	0.53594 0.82679 0.10496 0.03700
H 	H 	0.52157 0.80813 0.14993 0.03000
C 	C 	0.57988 0.83020 0.07581 -0.11300
C 	C 	0.60057 0.85789 0.00963 0.03800
H 	H 	0.63047 0.86043 0.98913 0.03100
C 	C 	0.57786 0.88160 0.97371 -0.11000
H 	H 	0.59257 0.90053 0.92903 0.07200
C 	C 	0.60574 0.80635 0.11713 0.34800
C 	C 	0.52668 0.90524 0.82047 0.02700
C 	C 	0.54735 0.94249 0.76471 -0.09400
H 	H 	0.54767 0.97353 0.77153 0.05300
C 	C 	0.56739 0.93441 0.69946 0.01900
H 	H 	0.58157 0.96003 0.66193 0.03300
C 	C 	0.56678 0.88906 0.68874 -0.08500
C 	C 	0.54442 0.85112 0.74286 0.01800
H 	H 	0.54247 0.81943 0.73473 0.04200
C 	C 	0.52495 0.85938 0.80881 -0.08800
H 	H 	0.51037 0.83353 0.84603 0.06500
C 	C 	0.59185 0.88195 0.62086 0.30300
Zn	Zn	0.11154 0.29851 0.14327 1.20900
N 	N 	0.07972 0.30553 0.24298 -0.24900
N 	N 	0.14391 0.27120 0.21938 -0.24900
N 	N 	0.14765 0.25217 0.33831 -0.20000
H 	H 	0.14273 0.24957 0.38747 0.14900
O 	O 	0.31320 0.14607 0.42084 -0.46300
O 	O 	0.25402 0.11695 0.51063 -0.32000
O 	O 	0.29176 0.25259 0.91958 -0.35900
O 	O 	0.24585 0.17002 0.93513 -0.42700
C 	C 	0.04493 0.31983 0.24988 0.07300
H 	H 	0.03433 0.32987 0.20597 0.00500
C 	C 	0.02386 0.32040 0.31871 -0.11500
H 	H 	0.99883 0.33017 0.32197 0.08300
C 	C 	0.03981 0.30665 0.38250 0.03700
H 	H 	0.02613 0.30727 0.43047 0.02400
C 	C 	0.07579 0.29185 0.37666 -0.09700
H 	H 	0.08743 0.28247 0.42017 0.06800
C 	C 	0.09437 0.29113 0.30554 0.03500
C 	C 	0.12933 0.27263 0.28944 0.08200
C 	C 	0.17273 0.24801 0.22321 0.02800
C 	C 	0.17558 0.23597 0.29800 0.03500
C 	C 	0.20020 0.21136 0.33571 0.04800
C 	C 	0.17963 0.18371 0.40243 -0.10400
H 	H 	0.14973 0.18117 0.42307 0.07900
C 	C 	0.20260 0.16013 0.43830 0.03600
H 	H 	0.18823 0.14147 0.48327 0.03100
C 	C 	0.24654 0.16354 0.40915 -0.11200
C 	C 	0.26723 0.19123 0.34297 0.03500
H 	H 	0.29713 0.19377 0.32247 0.03200
C 	C 	0.24452 0.21494 0.30705 -0.10700
H 	H 	0.25923 0.23387 0.26237 0.07100
C 	C 	0.27240 0.13969 0.45047 0.34700
C 	C 	0.19334 0.23858 0.15381 0.02700
C 	C 	0.21401 0.27583 0.09805 -0.09500
H 	H 	0.21433 0.30687 0.10487 0.05300
C 	C 	0.23405 0.26775 0.03280 0.02000
H 	H 	0.24823 0.29337 0.99527 0.03300
C 	C 	0.23344 0.22240 0.02208 -0.08500
C 	C 	0.21108 0.18446 0.07620 0.01900
H 	H 	0.20913 0.15277 0.06807 0.04200
C 	C 	0.19161 0.19272 0.14215 -0.08900
H 	H 	0.17703 0.16687 0.17937 0.06500
C 	C 	0.25851 0.21529 0.95420 0.30300
