data_crystal

_cell_length_a 25.37700
_cell_length_b 29.78800
_cell_length_c 38.22000
_cell_angle_alpha 90.00000
_cell_angle_beta  99.00500
_cell_angle_gamma 90.00000

_symmetry_space_group_name_	'P 1'
_symmetry_space_group_name_H-M	'P 1'

loop_
_symmetry_equiv_pos_as_xyz
  x,y,z

loop_
_atom_site_label
_atom_site_type_symbol
_atom_site_fract_x
_atom_site_fract_y
_atom_site_fract_z
_atom_site_charge
Zn	Zn	0.24332 0.55487 0.54995 1.22600
Zn	Zn	0.25949 0.60724 0.47881 1.21600
Zn	Zn	0.08935 0.39761 0.15875 1.18900
Zn	Zn	0.98048 0.45941 0.15992 1.19900
Zn	Zn	0.35095 0.60647 0.55305 1.19000
Zn	Zn	0.24041 0.65520 0.54879 1.21400
Zn	Zn	0.53040 0.85065 0.85958 1.22300
Zn	Zn	0.47443 0.36670 0.83250 1.23900
Zn	Zn	0.52850 0.59281 0.08324 1.19200
Zn	Zn	0.25668 0.05487 0.45005 1.22500
Zn	Zn	0.24051 0.10724 0.52119 1.21500
Zn	Zn	0.41065 0.89761 0.84125 1.18900
Zn	Zn	0.51952 0.95941 0.84008 1.19900
Zn	Zn	0.14905 0.10647 0.44695 1.19000
Zn	Zn	0.25959 0.15520 0.45121 1.21400
Zn	Zn	0.96960 0.35065 0.14042 1.22300
Zn	Zn	0.02557 0.86670 0.16750 1.23900
Zn	Zn	0.97150 0.09281 0.91676 1.19200
Zn	Zn	0.75668 0.44513 0.45005 1.22500
Zn	Zn	0.74051 0.39276 0.52119 1.21500
Zn	Zn	0.91065 0.60239 0.84125 1.18900
Zn	Zn	0.01952 0.54059 0.84008 1.19900
Zn	Zn	0.64905 0.39353 0.44695 1.19000
Zn	Zn	0.75959 0.34480 0.45121 1.21400
Zn	Zn	0.46960 0.14935 0.14042 1.22300
Zn	Zn	0.52557 0.63330 0.16750 1.23900
Zn	Zn	0.47150 0.40719 0.91676 1.19200
Zn	Zn	0.74332 0.94513 0.54995 1.22500
Zn	Zn	0.75949 0.89276 0.47881 1.21500
Zn	Zn	0.58935 0.10239 0.15875 1.18900
Zn	Zn	0.48048 0.04059 0.15992 1.19900
Zn	Zn	0.85095 0.89353 0.55305 1.19000
Zn	Zn	0.74041 0.84480 0.54879 1.21400
Zn	Zn	0.03040 0.64935 0.85958 1.22300
Zn	Zn	0.97443 0.13330 0.83250 1.23900
Zn	Zn	0.02850 0.90719 0.08324 1.19200
Si	Si	0.06527 0.38581 0.38258 0.76200
Si	Si	0.32819 0.62292 0.78054 0.70800
Si	Si	0.19108 0.65479 0.07810 0.77500
Si	Si	0.45254 0.32624 0.60698 0.74600
Si	Si	0.43473 0.88581 0.61742 0.76200
Si	Si	0.17181 0.12292 0.21946 0.70700
Si	Si	0.30892 0.15479 0.92190 0.77500
Si	Si	0.04746 0.82624 0.39302 0.74600
Si	Si	0.93473 0.61419 0.61742 0.76200
Si	Si	0.67181 0.37708 0.21946 0.70800
Si	Si	0.80892 0.34521 0.92190 0.77500
Si	Si	0.54746 0.67376 0.39302 0.74600
Si	Si	0.56527 0.11419 0.38258 0.76200
Si	Si	0.82819 0.87708 0.78054 0.70700
Si	Si	0.69108 0.84521 0.07810 0.77500
Si	Si	0.95254 0.17376 0.60698 0.74600
H 	H 	0.99420 0.64050 0.90700 0.15100
H 	H 	0.74560 0.36540 0.58730 0.23000
H 	H 	0.18180 0.51750 0.40200 0.07000
H 	H 	0.12780 0.46510 0.36770 -0.00400
H 	H 	0.10410 0.39960 0.45690 -0.00700
H 	H 	0.15820 0.45210 0.49120 0.07100
H 	H 	0.92420 0.45230 0.43910 0.07500
H 	H 	0.00900 0.44860 0.42260 -0.00800
H 	H 	0.96760 0.33330 0.36900 -0.01200
H 	H 	0.88270 0.33710 0.38550 0.07400
H 	H 	0.07030 0.23390 0.43260 0.06100
H 	H 	0.03020 0.30240 0.41410 -0.00500
H 	H 	0.16630 0.34230 0.38010 -0.00800
H 	H 	0.20640 0.27380 0.39860 0.07100
H 	H 	0.11490 0.37420 0.26390 0.06700
H 	H 	0.12210 0.35620 0.32410 -0.01000
H 	H 	0.00120 0.44200 0.33360 -0.00800
H 	H 	0.99400 0.46000 0.27340 0.06900
H 	H 	0.18310 0.54780 0.82930 0.04600
H 	H 	0.26700 0.55330 0.81150 0.00700
H 	H 	0.23480 0.68180 0.78060 0.00100
H 	H 	0.15090 0.67630 0.79840 0.05600
H 	H 	0.38640 0.63680 0.66520 0.05600
H 	H 	0.39180 0.64760 0.72630 0.00400
H 	H 	0.24890 0.58570 0.72360 0.00500
H 	H 	0.24360 0.57480 0.66250 0.06100
H 	H 	0.35080 0.78520 0.79250 0.05500
H 	H 	0.30570 0.71870 0.77420 -0.01000
H 	H 	0.43340 0.64650 0.82010 -0.00300
H 	H 	0.47840 0.71300 0.83850 0.06900
H 	H 	0.42360 0.48270 0.78440 0.04100
H 	H 	0.37980 0.54580 0.75750 0.01300
H 	H 	0.36440 0.59550 0.85410 0.00300
H 	H 	0.40830 0.53240 0.88100 0.02600
H 	H 	0.18060 0.50270 0.12070 0.05200
H 	H 	0.22210 0.56510 0.09960 -0.00700
H 	H 	0.09510 0.64230 0.11260 -0.00200
H 	H 	0.05360 0.57990 0.13370 0.05600
H 	H 	0.36410 0.60290 0.05670 0.02800
H 	H 	0.27160 0.61260 0.04450 -0.00300
H 	H 	0.27690 0.68740 0.13350 0.00200
H 	H 	0.36940 0.67770 0.14570 0.05300
H 	H 	0.13510 0.76320 0.16090 0.07000
H 	H 	0.17560 0.69690 0.14580 -0.00700
H 	H 	0.14890 0.73340 0.04240 -0.00600
H 	H 	0.10840 0.79970 0.05750 0.04700
H 	H 	0.04380 0.62320 0.98980 0.06300
H 	H 	0.09560 0.62180 0.04610 -0.01500
H 	H 	0.21970 0.67600 0.00560 -0.01900
H 	H 	0.16780 0.67730 0.94930 0.07000
H 	H 	0.43900 0.48420 0.57140 0.05300
H 	H 	0.48380 0.41690 0.58760 -0.00100
H 	H 	0.34250 0.35600 0.59290 0.00000
H 	H 	0.29770 0.42330 0.57680 0.06700
H 	H 	0.44050 0.38480 0.72380 0.07400
H 	H 	0.42960 0.38580 0.66190 -0.00400
H 	H 	0.48990 0.25980 0.66220 -0.01200
H 	H 	0.50080 0.25880 0.72420 0.07100
H 	H 	0.35810 0.18250 0.58980 0.06000
H 	H 	0.40990 0.23700 0.62320 -0.00400
H 	H 	0.40360 0.31490 0.53560 -0.00400
H 	H 	0.35180 0.26030 0.50220 0.06200
H 	H 	0.58180 0.35240 0.52480 0.04200
H 	H 	0.49780 0.33310 0.53820 -0.00500
H 	H 	0.55850 0.33140 0.64280 -0.00100
H 	H 	0.64250 0.35070 0.62940 0.07100
H 	H 	0.50580 0.14050 0.09300 0.15000
H 	H 	0.75440 0.86540 0.41270 0.23000
H 	H 	0.31820 0.01750 0.59800 0.07100
H 	H 	0.37220 0.96510 0.63230 -0.00400
H 	H 	0.39590 0.89960 0.54310 -0.00700
H 	H 	0.34180 0.95210 0.50880 0.07100
H 	H 	0.57580 0.95230 0.56090 0.07500
H 	H 	0.49100 0.94860 0.57740 -0.00800
H 	H 	0.53240 0.83330 0.63100 -0.01200
H 	H 	0.61730 0.83710 0.61450 0.07400
H 	H 	0.42970 0.73390 0.56740 0.06100
H 	H 	0.46980 0.80240 0.58590 -0.00500
H 	H 	0.33370 0.84230 0.61990 -0.00800
H 	H 	0.29360 0.77380 0.60140 0.07100
H 	H 	0.38510 0.87420 0.73610 0.06700
H 	H 	0.37790 0.85620 0.67590 -0.01000
H 	H 	0.49880 0.94200 0.66640 -0.00800
H 	H 	0.50600 0.96000 0.72660 0.06900
H 	H 	0.31690 0.04780 0.17070 0.04600
H 	H 	0.23300 0.05330 0.18850 0.00700
H 	H 	0.26520 0.18180 0.21940 0.00100
H 	H 	0.34910 0.17630 0.20160 0.05600
H 	H 	0.11360 0.13680 0.33480 0.05600
H 	H 	0.10820 0.14760 0.27370 0.00400
H 	H 	0.25110 0.08570 0.27640 0.00500
H 	H 	0.25640 0.07480 0.33750 0.06100
H 	H 	0.14920 0.28520 0.20750 0.05500
H 	H 	0.19430 0.21870 0.22580 -0.01000
H 	H 	0.06660 0.14650 0.17990 -0.00300
H 	H 	0.02160 0.21300 0.16150 0.06900
H 	H 	0.07640 0.98270 0.21560 0.04000
H 	H 	0.12020 0.04580 0.24250 0.01300
H 	H 	0.13560 0.09550 0.14590 0.00300
H 	H 	0.09170 0.03240 0.11900 0.02600
H 	H 	0.31940 0.00270 0.87930 0.05300
H 	H 	0.27790 0.06510 0.90040 -0.00700
H 	H 	0.40490 0.14230 0.88740 -0.00200
H 	H 	0.44640 0.07990 0.86630 0.05600
H 	H 	0.13590 0.10290 0.94330 0.02800
H 	H 	0.22840 0.11260 0.95550 -0.00300
H 	H 	0.22310 0.18740 0.86650 0.00200
H 	H 	0.13060 0.17770 0.85430 0.05300
H 	H 	0.36490 0.26320 0.83910 0.07000
H 	H 	0.32440 0.19690 0.85420 -0.00700
H 	H 	0.35110 0.23340 0.95760 -0.00600
H 	H 	0.39160 0.29970 0.94250 0.04700
H 	H 	0.45620 0.12320 0.01020 0.06300
H 	H 	0.40440 0.12180 0.95390 -0.01500
H 	H 	0.28030 0.17600 0.99440 -0.01900
H 	H 	0.33220 0.17730 0.05070 0.07000
H 	H 	0.06100 0.98420 0.42860 0.05300
H 	H 	0.01620 0.91690 0.41240 -0.00100
H 	H 	0.15750 0.85600 0.40710 0.00000
H 	H 	0.20230 0.92330 0.42320 0.06700
H 	H 	0.05950 0.88480 0.27620 0.07400
H 	H 	0.07040 0.88580 0.33810 -0.00400
H 	H 	0.01010 0.75980 0.33780 -0.01200
H 	H 	0.99920 0.75880 0.27580 0.07100
H 	H 	0.14190 0.68250 0.41020 0.06000
H 	H 	0.09010 0.73700 0.37680 -0.00400
H 	H 	0.09640 0.81490 0.46440 -0.00400
H 	H 	0.14820 0.76030 0.49780 0.06200
H 	H 	0.91820 0.85240 0.47520 0.04200
H 	H 	0.00220 0.83310 0.46180 -0.00600
H 	H 	0.94150 0.83140 0.35720 -0.00000
H 	H 	0.85750 0.85070 0.37060 0.07100
H 	H 	0.00580 0.35950 0.09300 0.15100
H 	H 	0.25440 0.63460 0.41270 0.23000
H 	H 	0.81820 0.48250 0.59800 0.07000
H 	H 	0.87220 0.53490 0.63230 -0.00400
H 	H 	0.89590 0.60040 0.54310 -0.00700
H 	H 	0.84180 0.54790 0.50880 0.07100
H 	H 	0.07580 0.54770 0.56090 0.07500
H 	H 	0.99100 0.55140 0.57740 -0.00800
H 	H 	0.03240 0.66670 0.63100 -0.01200
H 	H 	0.11730 0.66290 0.61450 0.07400
H 	H 	0.92970 0.76610 0.56740 0.06100
H 	H 	0.96980 0.69760 0.58590 -0.00500
H 	H 	0.83370 0.65770 0.61990 -0.00800
H 	H 	0.79360 0.72620 0.60140 0.07100
H 	H 	0.88510 0.62580 0.73610 0.06700
H 	H 	0.87790 0.64380 0.67590 -0.01000
H 	H 	0.99880 0.55800 0.66640 -0.00800
H 	H 	0.00600 0.54000 0.72660 0.06900
H 	H 	0.81690 0.45220 0.17070 0.04600
H 	H 	0.73300 0.44670 0.18850 0.00700
H 	H 	0.76520 0.31820 0.21940 0.00100
H 	H 	0.84910 0.32370 0.20160 0.05600
H 	H 	0.61360 0.36320 0.33480 0.05600
H 	H 	0.60820 0.35240 0.27370 0.00400
H 	H 	0.75110 0.41430 0.27640 0.00500
H 	H 	0.75640 0.42520 0.33750 0.06100
H 	H 	0.64920 0.21480 0.20750 0.05500
H 	H 	0.69430 0.28130 0.22580 -0.01000
H 	H 	0.56660 0.35350 0.17990 -0.00300
H 	H 	0.52160 0.28700 0.16150 0.06900
H 	H 	0.57640 0.51730 0.21560 0.04100
H 	H 	0.62020 0.45420 0.24250 0.01300
H 	H 	0.63560 0.40450 0.14590 0.00300
H 	H 	0.59170 0.46760 0.11900 0.02600
H 	H 	0.81940 0.49730 0.87930 0.05200
H 	H 	0.77790 0.43490 0.90040 -0.00700
H 	H 	0.90490 0.35770 0.88740 -0.00200
H 	H 	0.94640 0.42010 0.86630 0.05600
H 	H 	0.63590 0.39710 0.94330 0.02800
H 	H 	0.72840 0.38740 0.95550 -0.00300
H 	H 	0.72310 0.31260 0.86650 0.00200
H 	H 	0.63060 0.32230 0.85430 0.05300
H 	H 	0.86490 0.23680 0.83910 0.07000
H 	H 	0.82440 0.30310 0.85420 -0.00700
H 	H 	0.85110 0.26660 0.95760 -0.00600
H 	H 	0.89160 0.20030 0.94250 0.04700
H 	H 	0.95620 0.37680 0.01020 0.06300
H 	H 	0.90440 0.37820 0.95390 -0.01500
H 	H 	0.78030 0.32400 0.99440 -0.01900
H 	H 	0.83220 0.32270 0.05070 0.07000
H 	H 	0.56100 0.51580 0.42860 0.05300
H 	H 	0.51620 0.58310 0.41240 -0.00100
H 	H 	0.65750 0.64400 0.40710 0.00000
H 	H 	0.70230 0.57670 0.42320 0.06700
H 	H 	0.55950 0.61520 0.27620 0.07400
H 	H 	0.57040 0.61420 0.33810 -0.00400
H 	H 	0.51010 0.74020 0.33780 -0.01200
H 	H 	0.49920 0.74120 0.27580 0.07100
H 	H 	0.64190 0.81750 0.41020 0.06000
H 	H 	0.59010 0.76300 0.37680 -0.00400
H 	H 	0.59640 0.68510 0.46440 -0.00400
H 	H 	0.64820 0.73970 0.49780 0.06200
H 	H 	0.41820 0.64760 0.47520 0.04200
H 	H 	0.50220 0.66690 0.46180 -0.00500
H 	H 	0.44150 0.66860 0.35720 -0.00100
H 	H 	0.35750 0.64930 0.37060 0.07100
H 	H 	0.49420 0.85950 0.90700 0.15000
H 	H 	0.24560 0.13460 0.58730 0.23000
H 	H 	0.68180 0.98250 0.40200 0.07100
H 	H 	0.62780 0.03490 0.36770 -0.00400
H 	H 	0.60410 0.10040 0.45690 -0.00700
H 	H 	0.65820 0.04790 0.49120 0.07100
H 	H 	0.42420 0.04770 0.43910 0.07500
H 	H 	0.50900 0.05140 0.42260 -0.00800
H 	H 	0.46760 0.16670 0.36900 -0.01200
H 	H 	0.38270 0.16290 0.38550 0.07400
H 	H 	0.57030 0.26610 0.43260 0.06100
H 	H 	0.53020 0.19760 0.41410 -0.00500
H 	H 	0.66630 0.15770 0.38010 -0.00800
H 	H 	0.70640 0.22620 0.39860 0.07100
H 	H 	0.61490 0.12580 0.26390 0.06700
H 	H 	0.62210 0.14380 0.32410 -0.01000
H 	H 	0.50120 0.05800 0.33360 -0.00800
H 	H 	0.49400 0.04000 0.27340 0.06900
H 	H 	0.68310 0.95220 0.82930 0.04600
H 	H 	0.76700 0.94670 0.81150 0.00700
H 	H 	0.73480 0.81820 0.78060 0.00100
H 	H 	0.65090 0.82370 0.79840 0.05600
H 	H 	0.88640 0.86320 0.66520 0.05600
H 	H 	0.89180 0.85240 0.72630 0.00400
H 	H 	0.74890 0.91430 0.72360 0.00500
H 	H 	0.74360 0.92520 0.66250 0.06100
H 	H 	0.85080 0.71480 0.79250 0.05500
H 	H 	0.80570 0.78130 0.77420 -0.01000
H 	H 	0.93340 0.85350 0.82010 -0.00300
H 	H 	0.97840 0.78700 0.83850 0.06900
H 	H 	0.92360 0.01730 0.78440 0.04000
H 	H 	0.87980 0.95420 0.75750 0.01300
H 	H 	0.86440 0.90450 0.85410 0.00300
H 	H 	0.90830 0.96760 0.88100 0.02600
H 	H 	0.68060 0.99730 0.12070 0.05300
H 	H 	0.72210 0.93490 0.09960 -0.00700
H 	H 	0.59510 0.85770 0.11260 -0.00200
H 	H 	0.55360 0.92010 0.13370 0.05600
H 	H 	0.86410 0.89710 0.05670 0.02800
H 	H 	0.77160 0.88740 0.04450 -0.00300
H 	H 	0.77690 0.81260 0.13350 0.00200
H 	H 	0.86940 0.82230 0.14570 0.05300
H 	H 	0.63510 0.73680 0.16090 0.07000
H 	H 	0.67560 0.80310 0.14580 -0.00700
H 	H 	0.64890 0.76660 0.04240 -0.00600
H 	H 	0.60840 0.70030 0.05750 0.04700
H 	H 	0.54380 0.87680 0.98980 0.06300
H 	H 	0.59560 0.87820 0.04610 -0.01500
H 	H 	0.71970 0.82400 0.00560 -0.01900
H 	H 	0.66780 0.82270 0.94930 0.07000
H 	H 	0.93900 0.01580 0.57140 0.05300
H 	H 	0.98380 0.08310 0.58760 -0.00100
H 	H 	0.84250 0.14400 0.59290 0.00000
H 	H 	0.79770 0.07670 0.57680 0.06700
H 	H 	0.94050 0.11520 0.72380 0.07400
H 	H 	0.92960 0.11420 0.66190 -0.00400
H 	H 	0.98990 0.24020 0.66220 -0.01200
H 	H 	0.00080 0.24120 0.72420 0.07100
H 	H 	0.85810 0.31750 0.58980 0.06000
H 	H 	0.90990 0.26300 0.62320 -0.00400
H 	H 	0.90360 0.18510 0.53560 -0.00400
H 	H 	0.85180 0.23970 0.50220 0.06200
H 	H 	0.08180 0.14760 0.52480 0.04200
H 	H 	0.99780 0.16690 0.53820 -0.00600
H 	H 	0.05850 0.16860 0.64280 -0.00000
H 	H 	0.14250 0.14930 0.62940 0.07100
C 	C 	0.20430 0.52473 0.47272 0.36000
C 	C 	0.17506 0.48970 0.44984 -0.03800
C 	C 	0.16603 0.49356 0.41315 -0.07800
C 	C 	0.13394 0.46242 0.39276 0.07400
C 	C 	0.11088 0.42742 0.40907 -0.26100
C 	C 	0.11991 0.42356 0.44576 0.07600
C 	C 	0.15200 0.45470 0.46615 -0.08000
C 	C 	0.84370 0.39624 0.42822 0.33100
C 	C 	0.89545 0.39506 0.41387 -0.01700
C 	C 	0.93298 0.42818 0.42489 -0.09400
C 	C 	0.98339 0.42593 0.41508 0.08400
C 	C 	0.99628 0.39057 0.39425 -0.26800
C 	C 	0.95875 0.35745 0.38322 0.08400
C 	C 	0.90833 0.35970 0.39304 -0.09100
C 	C 	0.16770 0.20349 0.43087 0.38300
C 	C 	0.14215 0.24740 0.41733 -0.04100
C 	C 	0.08981 0.25589 0.42192 -0.07700
C 	C 	0.06595 0.29657 0.41092 0.07200
C 	C 	0.09444 0.32876 0.39532 -0.25800
C 	C 	0.14678 0.32027 0.39073 0.07200
C 	C 	0.17064 0.27959 0.40174 -0.07500
C 	C 	0.04673 0.43209 0.22453 0.34900
C 	C 	0.05377 0.41880 0.26303 -0.03100
C 	C 	0.09183 0.38797 0.27806 -0.08400
C 	C 	0.09611 0.37728 0.31380 0.08500
C 	C 	0.06233 0.39740 0.33449 -0.27100
C 	C 	0.02428 0.42822 0.31946 0.07800
C 	C 	0.02000 0.43892 0.28373 -0.08300
C 	C 	0.10890 0.60790 0.82674 0.38600
C 	C 	0.15911 0.61153 0.81552 -0.09000
C 	C 	0.19359 0.57499 0.81943 -0.04000
C 	C 	0.24344 0.57826 0.80887 0.03400
C 	C 	0.25879 0.61808 0.79439 -0.21800
C 	C 	0.22431 0.65462 0.79047 0.03800
C 	C 	0.17446 0.65135 0.80104 -0.04100
C 	C 	0.31040 0.59810 0.62104 0.38000
C 	C 	0.31455 0.60478 0.65813 -0.08100
C 	C 	0.35854 0.62639 0.67708 -0.04500
C 	C 	0.36169 0.63285 0.71337 0.04500
C 	C 	0.32085 0.61769 0.73071 -0.23000
C 	C 	0.27686 0.59607 0.71176 0.04700
C 	C 	0.27371 0.58962 0.67547 -0.04600
C 	C 	0.44860 0.79784 0.82921 0.31100
C 	C 	0.41882 0.75539 0.81720 -0.02900
C 	C 	0.36752 0.75707 0.79810 -0.08400
C 	C 	0.34077 0.71754 0.78722 0.06600
C 	C 	0.36531 0.67633 0.79544 -0.24600
C 	C 	0.41660 0.67465 0.81453 0.06600
C 	C 	0.44336 0.71418 0.82541 -0.08400
C 	C 	0.44000 0.46220 0.85270 0.48500
C 	C 	0.42009 0.50161 0.83530 -0.15600
C 	C 	0.41162 0.50560 0.79859 -0.00200
C 	C 	0.38560 0.54310 0.78260 0.01900
C 	C 	0.36798 0.57661 0.80330 -0.22700
C 	C 	0.37640 0.57260 0.83999 0.02500
C 	C 	0.40250 0.53510 0.85597 -0.01000
C 	C 	0.08590 0.49480 0.14331 0.41200
C 	C 	0.11325 0.53546 0.12919 -0.05900
C 	C 	0.16327 0.53106 0.11907 -0.06600
C 	C 	0.18787 0.56812 0.10653 0.05900
C 	C 	0.16246 0.60959 0.10411 -0.25400
C 	C 	0.11243 0.61400 0.11424 0.06500
C 	C 	0.08783 0.57694 0.12678 -0.06700
C 	C 	0.43060 0.63120 0.11060 0.45800
C 	C 	0.37549 0.63942 0.10235 -0.13300
C 	C 	0.34640 0.62008 0.07228 -0.02300
C 	C 	0.29140 0.62581 0.06503 0.03600
C 	C 	0.26551 0.65088 0.08787 -0.24900
C 	C 	0.29460 0.67023 0.11794 0.04600
C 	C 	0.34960 0.66450 0.12519 -0.02600
C 	C 	0.08490 0.82780 0.11780 0.38000
C 	C 	0.11793 0.78770 0.11058 -0.05400
C 	C 	0.13790 0.75710 0.13682 -0.07400
C 	C 	0.16195 0.71774 0.12788 0.07800
C 	C 	0.16606 0.70891 0.09270 -0.27100
C 	C 	0.14610 0.73950 0.06646 0.06800
C 	C 	0.12204 0.77886 0.07540 -0.07300
C 	C 	0.05718 0.64860 0.93260 0.31300
C 	C 	0.10100 0.65040 0.96424 -0.01600
C 	C 	0.07951 0.63392 0.99299 -0.10700
C 	C 	0.11030 0.63311 0.02644 0.08700
C 	C 	0.16250 0.64877 0.03113 -0.29100
C 	C 	0.18396 0.66525 0.00238 0.09700
C 	C 	0.15320 0.66606 0.96893 -0.10000
C 	C 	0.33780 0.50363 0.56113 0.39300
C 	C 	0.36416 0.46012 0.57258 -0.06000
C 	C 	0.41944 0.45821 0.57581 -0.06400
C 	C 	0.44603 0.41821 0.58543 0.05900
C 	C 	0.41734 0.38013 0.59181 -0.24500
C 	C 	0.36206 0.38204 0.58858 0.05900
C 	C 	0.33547 0.42204 0.57897 -0.06000
C 	C 	0.47950 0.32490 0.77000 0.36600
C 	C 	0.47166 0.32170 0.72980 -0.02900
C 	C 	0.45053 0.35944 0.71130 -0.08500
C 	C 	0.44405 0.36003 0.67452 0.07700
C 	C 	0.45871 0.32290 0.65622 -0.26700
C 	C 	0.47985 0.28517 0.67472 0.08100
C 	C 	0.48633 0.28457 0.71151 -0.08500
C 	C 	0.31270 0.18290 0.52380 0.40900
C 	C 	0.35009 0.21627 0.54284 -0.06900
C 	C 	0.36735 0.20936 0.57877 -0.06500
C 	C 	0.39812 0.24177 0.59863 0.06900
C 	C 	0.41163 0.28108 0.58255 -0.25800
C 	C 	0.39436 0.28799 0.54662 0.06200
C 	C 	0.36359 0.25558 0.52676 -0.05800
C 	C 	0.67706 0.36170 0.57090 0.36600
C 	C 	0.62004 0.35336 0.57588 -0.04600
C 	C 	0.57710 0.34812 0.54878 -0.06500
C 	C 	0.52719 0.33666 0.55672 0.06100
C 	C 	0.52025 0.33045 0.59176 -0.24300
C 	C 	0.56320 0.33569 0.61885 0.05800
C 	C 	0.61311 0.34714 0.61092 -0.07400
C 	C 	0.29570 0.02473 0.52728 0.36000
C 	C 	0.32494 0.98970 0.55016 -0.03800
C 	C 	0.33397 0.99356 0.58685 -0.07800
C 	C 	0.36606 0.96242 0.60724 0.07500
C 	C 	0.38912 0.92742 0.59093 -0.26100
C 	C 	0.38009 0.92356 0.55424 0.07600
C 	C 	0.34800 0.95470 0.53385 -0.08000
C 	C 	0.65630 0.89624 0.57178 0.33100
C 	C 	0.60455 0.89506 0.58613 -0.01700
C 	C 	0.56702 0.92818 0.57511 -0.09400
C 	C 	0.51661 0.92593 0.58492 0.08400
C 	C 	0.50372 0.89057 0.60575 -0.26800
C 	C 	0.54125 0.85745 0.61678 0.08400
C 	C 	0.59167 0.85970 0.60696 -0.09100
C 	C 	0.33230 0.70349 0.56913 0.38300
C 	C 	0.35785 0.74740 0.58267 -0.04100
C 	C 	0.41019 0.75589 0.57808 -0.07700
C 	C 	0.43405 0.79657 0.58908 0.07200
C 	C 	0.40556 0.82876 0.60468 -0.25800
C 	C 	0.35322 0.82027 0.60927 0.07200
C 	C 	0.32936 0.77959 0.59826 -0.07500
C 	C 	0.45327 0.93209 0.77547 0.34900
C 	C 	0.44623 0.91880 0.73697 -0.03000
C 	C 	0.40817 0.88797 0.72194 -0.08400
C 	C 	0.40389 0.87728 0.68620 0.08500
C 	C 	0.43767 0.89740 0.66551 -0.27100
C 	C 	0.47572 0.92822 0.68054 0.07800
C 	C 	0.48000 0.93892 0.71627 -0.08400
C 	C 	0.39110 0.10790 0.17326 0.38600
C 	C 	0.34089 0.11153 0.18448 -0.09000
C 	C 	0.30641 0.07499 0.18057 -0.04000
C 	C 	0.25656 0.07826 0.19113 0.03400
C 	C 	0.24121 0.11808 0.20561 -0.21800
C 	C 	0.27569 0.15462 0.20953 0.03800
C 	C 	0.32554 0.15135 0.19896 -0.04100
C 	C 	0.18960 0.09810 0.37896 0.38000
C 	C 	0.18545 0.10478 0.34187 -0.08100
C 	C 	0.14146 0.12639 0.32292 -0.04500
C 	C 	0.13831 0.13285 0.28663 0.04500
C 	C 	0.17915 0.11769 0.26929 -0.23000
C 	C 	0.22314 0.09607 0.28824 0.04700
C 	C 	0.22629 0.08962 0.32453 -0.04600
C 	C 	0.05140 0.29784 0.17079 0.31100
C 	C 	0.08118 0.25539 0.18280 -0.02900
C 	C 	0.13248 0.25707 0.20190 -0.08400
C 	C 	0.15923 0.21754 0.21278 0.06600
C 	C 	0.13469 0.17633 0.20456 -0.24600
C 	C 	0.08340 0.17465 0.18547 0.06600
C 	C 	0.05664 0.21418 0.17459 -0.08400
C 	C 	0.06000 0.96220 0.14730 0.48400
C 	C 	0.07991 0.00161 0.16470 -0.15600
C 	C 	0.08838 0.00560 0.20141 -0.00100
C 	C 	0.11440 0.04310 0.21740 0.01800
C 	C 	0.13202 0.07661 0.19670 -0.22700
C 	C 	0.12360 0.07260 0.16001 0.02500
C 	C 	0.09750 0.03510 0.14403 -0.01000
C 	C 	0.41410 0.99480 0.85669 0.41200
C 	C 	0.38675 0.03546 0.87081 -0.05900
C 	C 	0.33673 0.03106 0.88093 -0.06600
C 	C 	0.31213 0.06812 0.89347 0.05900
C 	C 	0.33754 0.10959 0.89589 -0.25400
C 	C 	0.38757 0.11400 0.88576 0.06500
C 	C 	0.41217 0.07694 0.87322 -0.06700
C 	C 	0.06940 0.13120 0.88940 0.45800
C 	C 	0.12451 0.13942 0.89765 -0.13300
C 	C 	0.15360 0.12008 0.92772 -0.02300
C 	C 	0.20860 0.12581 0.93497 0.03600
C 	C 	0.23449 0.15088 0.91213 -0.24900
C 	C 	0.20540 0.17023 0.88206 0.04600
C 	C 	0.15040 0.16450 0.87481 -0.02700
C 	C 	0.41510 0.32780 0.88220 0.38000
C 	C 	0.38207 0.28770 0.88942 -0.05400
C 	C 	0.36210 0.25710 0.86318 -0.07400
C 	C 	0.33805 0.21774 0.87212 0.07800
C 	C 	0.33394 0.20891 0.90730 -0.27100
C 	C 	0.35390 0.23950 0.93354 0.06800
C 	C 	0.37796 0.27886 0.92460 -0.07300
C 	C 	0.44282 0.14860 0.06740 0.31300
C 	C 	0.39900 0.15040 0.03576 -0.01600
C 	C 	0.42049 0.13392 0.00701 -0.10700
C 	C 	0.38970 0.13311 0.97356 0.08700
C 	C 	0.33750 0.14877 0.96887 -0.29100
C 	C 	0.31604 0.16525 0.99762 0.09700
C 	C 	0.34680 0.16606 0.03107 -0.10000
C 	C 	0.16220 0.00363 0.43887 0.39300
C 	C 	0.13584 0.96012 0.42742 -0.06000
C 	C 	0.08056 0.95821 0.42419 -0.06400
C 	C 	0.05397 0.91821 0.41457 0.05900
C 	C 	0.08266 0.88013 0.40819 -0.24500
C 	C 	0.13794 0.88204 0.41142 0.05900
C 	C 	0.16453 0.92204 0.42103 -0.06000
C 	C 	0.02050 0.82490 0.23000 0.36600
C 	C 	0.02834 0.82170 0.27020 -0.02900
C 	C 	0.04947 0.85944 0.28870 -0.08500
C 	C 	0.05595 0.86003 0.32548 0.07700
C 	C 	0.04129 0.82290 0.34378 -0.26700
C 	C 	0.02015 0.78517 0.32528 0.08200
C 	C 	0.01367 0.78457 0.28849 -0.08500
C 	C 	0.18730 0.68290 0.47620 0.40900
C 	C 	0.14991 0.71627 0.45716 -0.06900
C 	C 	0.13265 0.70936 0.42123 -0.06500
C 	C 	0.10188 0.74177 0.40137 0.06900
C 	C 	0.08837 0.78108 0.41745 -0.25800
C 	C 	0.10564 0.78799 0.45338 0.06200
C 	C 	0.13641 0.75558 0.47324 -0.05800
C 	C 	0.82294 0.86170 0.42910 0.36600
C 	C 	0.87996 0.85336 0.42412 -0.04600
C 	C 	0.92290 0.84812 0.45122 -0.06500
C 	C 	0.97281 0.83666 0.44328 0.06200
C 	C 	0.97975 0.83045 0.40824 -0.24300
C 	C 	0.93680 0.83569 0.38115 0.05800
C 	C 	0.88689 0.84714 0.38908 -0.07400
C 	C 	0.79570 0.47527 0.52728 0.36000
C 	C 	0.82494 0.51030 0.55016 -0.03800
C 	C 	0.83397 0.50644 0.58685 -0.07800
C 	C 	0.86606 0.53758 0.60724 0.07400
C 	C 	0.88912 0.57258 0.59093 -0.26100
C 	C 	0.88009 0.57644 0.55424 0.07600
C 	C 	0.84800 0.54530 0.53385 -0.08000
C 	C 	0.15630 0.60376 0.57178 0.33100
C 	C 	0.10455 0.60494 0.58613 -0.01700
C 	C 	0.06702 0.57182 0.57511 -0.09400
C 	C 	0.01661 0.57407 0.58492 0.08400
C 	C 	0.00372 0.60943 0.60575 -0.26800
C 	C 	0.04125 0.64255 0.61678 0.08400
C 	C 	0.09167 0.64030 0.60696 -0.09100
C 	C 	0.83230 0.79651 0.56913 0.38300
C 	C 	0.85785 0.75260 0.58267 -0.04100
C 	C 	0.91019 0.74411 0.57808 -0.07700
C 	C 	0.93405 0.70343 0.58908 0.07200
C 	C 	0.90556 0.67124 0.60468 -0.25800
C 	C 	0.85322 0.67973 0.60927 0.07200
C 	C 	0.82936 0.72041 0.59826 -0.07500
C 	C 	0.95327 0.56791 0.77547 0.34900
C 	C 	0.94623 0.58120 0.73697 -0.03100
C 	C 	0.90817 0.61203 0.72194 -0.08400
C 	C 	0.90389 0.62272 0.68620 0.08500
C 	C 	0.93767 0.60260 0.66551 -0.27100
C 	C 	0.97572 0.57178 0.68054 0.07800
C 	C 	0.98000 0.56108 0.71627 -0.08300
C 	C 	0.89110 0.39210 0.17326 0.38600
C 	C 	0.84089 0.38847 0.18448 -0.09000
C 	C 	0.80641 0.42501 0.18057 -0.04000
C 	C 	0.75656 0.42174 0.19113 0.03400
C 	C 	0.74121 0.38192 0.20561 -0.21800
C 	C 	0.77569 0.34538 0.20953 0.03800
C 	C 	0.82554 0.34865 0.19896 -0.04100
C 	C 	0.68960 0.40190 0.37896 0.38000
C 	C 	0.68545 0.39522 0.34187 -0.08100
C 	C 	0.64146 0.37361 0.32292 -0.04500
C 	C 	0.63831 0.36715 0.28663 0.04500
C 	C 	0.67915 0.38231 0.26929 -0.23000
C 	C 	0.72314 0.40393 0.28824 0.04700
C 	C 	0.72629 0.41038 0.32453 -0.04600
C 	C 	0.55140 0.20216 0.17079 0.31100
C 	C 	0.58118 0.24461 0.18280 -0.02900
C 	C 	0.63248 0.24293 0.20190 -0.08400
C 	C 	0.65923 0.28246 0.21278 0.06600
C 	C 	0.63469 0.32367 0.20456 -0.24600
C 	C 	0.58340 0.32535 0.18547 0.06600
C 	C 	0.55664 0.28582 0.17459 -0.08400
C 	C 	0.56000 0.53780 0.14730 0.48500
C 	C 	0.57991 0.49839 0.16470 -0.15600
C 	C 	0.58838 0.49440 0.20141 -0.00200
C 	C 	0.61440 0.45690 0.21740 0.01900
C 	C 	0.63202 0.42339 0.19670 -0.22700
C 	C 	0.62360 0.42740 0.16001 0.02500
C 	C 	0.59750 0.46490 0.14403 -0.01000
C 	C 	0.91410 0.50520 0.85669 0.41200
C 	C 	0.88675 0.46454 0.87081 -0.05900
C 	C 	0.83673 0.46894 0.88093 -0.06600
C 	C 	0.81213 0.43188 0.89347 0.05900
C 	C 	0.83754 0.39041 0.89589 -0.25400
C 	C 	0.88757 0.38600 0.88576 0.06500
C 	C 	0.91217 0.42306 0.87322 -0.06700
C 	C 	0.56940 0.36880 0.88940 0.45800
C 	C 	0.62451 0.36058 0.89765 -0.13300
C 	C 	0.65360 0.37992 0.92772 -0.02300
C 	C 	0.70860 0.37419 0.93497 0.03600
C 	C 	0.73449 0.34912 0.91213 -0.24900
C 	C 	0.70540 0.32977 0.88206 0.04600
C 	C 	0.65040 0.33550 0.87481 -0.02600
C 	C 	0.91510 0.17220 0.88220 0.38000
C 	C 	0.88207 0.21230 0.88942 -0.05400
C 	C 	0.86210 0.24290 0.86318 -0.07400
C 	C 	0.83805 0.28226 0.87212 0.07800
C 	C 	0.83394 0.29109 0.90730 -0.27100
C 	C 	0.85390 0.26050 0.93354 0.06800
C 	C 	0.87796 0.22114 0.92460 -0.07300
C 	C 	0.94282 0.35140 0.06740 0.31300
C 	C 	0.89900 0.34960 0.03576 -0.01600
C 	C 	0.92049 0.36608 0.00701 -0.10700
C 	C 	0.88970 0.36689 0.97356 0.08700
C 	C 	0.83750 0.35123 0.96887 -0.29100
C 	C 	0.81604 0.33475 0.99762 0.09700
C 	C 	0.84680 0.33394 0.03107 -0.10000
C 	C 	0.66220 0.49637 0.43887 0.39300
C 	C 	0.63584 0.53988 0.42742 -0.06000
C 	C 	0.58056 0.54179 0.42419 -0.06400
C 	C 	0.55397 0.58179 0.41457 0.05900
C 	C 	0.58266 0.61987 0.40819 -0.24500
C 	C 	0.63794 0.61796 0.41142 0.05900
C 	C 	0.66453 0.57796 0.42103 -0.06000
C 	C 	0.52050 0.67510 0.23000 0.36600
C 	C 	0.52834 0.67830 0.27020 -0.02900
C 	C 	0.54947 0.64056 0.28870 -0.08500
C 	C 	0.55595 0.63997 0.32548 0.07700
C 	C 	0.54129 0.67710 0.34378 -0.26700
C 	C 	0.52015 0.71483 0.32528 0.08100
C 	C 	0.51367 0.71543 0.28849 -0.08500
C 	C 	0.68730 0.81710 0.47620 0.40900
C 	C 	0.64991 0.78373 0.45716 -0.06900
C 	C 	0.63265 0.79064 0.42123 -0.06500
C 	C 	0.60188 0.75823 0.40137 0.06900
C 	C 	0.58837 0.71892 0.41745 -0.25800
C 	C 	0.60564 0.71201 0.45338 0.06200
C 	C 	0.63641 0.74442 0.47324 -0.05800
C 	C 	0.32294 0.63830 0.42910 0.36600
C 	C 	0.37996 0.64664 0.42412 -0.04600
C 	C 	0.42290 0.65188 0.45122 -0.06500
C 	C 	0.47281 0.66334 0.44328 0.06100
C 	C 	0.47975 0.66955 0.40824 -0.24300
C 	C 	0.43680 0.66431 0.38115 0.05800
C 	C 	0.38689 0.65286 0.38908 -0.07400
C 	C 	0.70430 0.97527 0.47272 0.36000
C 	C 	0.67506 0.01030 0.44984 -0.03800
C 	C 	0.66603 0.00644 0.41315 -0.07800
C 	C 	0.63394 0.03758 0.39276 0.07500
C 	C 	0.61088 0.07258 0.40907 -0.26100
C 	C 	0.61991 0.07644 0.44576 0.07600
C 	C 	0.65200 0.04530 0.46615 -0.08000
C 	C 	0.34370 0.10376 0.42822 0.33100
C 	C 	0.39545 0.10494 0.41387 -0.01700
C 	C 	0.43298 0.07182 0.42489 -0.09400
C 	C 	0.48339 0.07407 0.41508 0.08400
C 	C 	0.49628 0.10943 0.39425 -0.26800
C 	C 	0.45875 0.14255 0.38322 0.08400
C 	C 	0.40833 0.14030 0.39304 -0.09100
C 	C 	0.66770 0.29651 0.43087 0.38300
C 	C 	0.64215 0.25260 0.41733 -0.04100
C 	C 	0.58981 0.24411 0.42192 -0.07700
C 	C 	0.56595 0.20343 0.41092 0.07200
C 	C 	0.59444 0.17124 0.39532 -0.25800
C 	C 	0.64678 0.17973 0.39073 0.07200
C 	C 	0.67064 0.22041 0.40174 -0.07500
C 	C 	0.54673 0.06791 0.22453 0.34900
C 	C 	0.55377 0.08120 0.26303 -0.03000
C 	C 	0.59183 0.11203 0.27806 -0.08400
C 	C 	0.59611 0.12272 0.31380 0.08500
C 	C 	0.56233 0.10260 0.33449 -0.27100
C 	C 	0.52428 0.07178 0.31946 0.07800
C 	C 	0.52000 0.06108 0.28373 -0.08400
C 	C 	0.60890 0.89210 0.82674 0.38600
C 	C 	0.65911 0.88847 0.81552 -0.09000
C 	C 	0.69359 0.92501 0.81943 -0.04000
C 	C 	0.74344 0.92174 0.80887 0.03400
C 	C 	0.75879 0.88192 0.79439 -0.21800
C 	C 	0.72431 0.84538 0.79047 0.03800
C 	C 	0.67446 0.84865 0.80104 -0.04100
C 	C 	0.81040 0.90190 0.62104 0.38000
C 	C 	0.81455 0.89522 0.65813 -0.08100
C 	C 	0.85854 0.87361 0.67708 -0.04500
C 	C 	0.86169 0.86715 0.71337 0.04500
C 	C 	0.82085 0.88231 0.73071 -0.23000
C 	C 	0.77686 0.90393 0.71176 0.04700
C 	C 	0.77371 0.91038 0.67547 -0.04600
C 	C 	0.94860 0.70216 0.82921 0.31100
C 	C 	0.91882 0.74461 0.81720 -0.02900
C 	C 	0.86752 0.74293 0.79810 -0.08400
C 	C 	0.84077 0.78246 0.78722 0.06600
C 	C 	0.86531 0.82367 0.79544 -0.24600
C 	C 	0.91660 0.82535 0.81453 0.06600
C 	C 	0.94336 0.78582 0.82541 -0.08400
C 	C 	0.94000 0.03780 0.85270 0.48400
C 	C 	0.92009 0.99839 0.83530 -0.15600
C 	C 	0.91162 0.99440 0.79859 -0.00100
C 	C 	0.88560 0.95690 0.78260 0.01800
C 	C 	0.86798 0.92339 0.80330 -0.22700
C 	C 	0.87640 0.92740 0.83999 0.02500
C 	C 	0.90250 0.96490 0.85597 -0.01000
C 	C 	0.58590 0.00520 0.14331 0.41200
C 	C 	0.61325 0.96454 0.12919 -0.05900
C 	C 	0.66327 0.96894 0.11907 -0.06600
C 	C 	0.68787 0.93188 0.10653 0.05900
C 	C 	0.66246 0.89041 0.10411 -0.25400
C 	C 	0.61243 0.88600 0.11424 0.06500
C 	C 	0.58783 0.92306 0.12678 -0.06700
C 	C 	0.93060 0.86880 0.11060 0.45800
C 	C 	0.87549 0.86058 0.10235 -0.13300
C 	C 	0.84640 0.87992 0.07228 -0.02300
C 	C 	0.79140 0.87419 0.06503 0.03600
C 	C 	0.76551 0.84912 0.08787 -0.24900
C 	C 	0.79460 0.82977 0.11794 0.04600
C 	C 	0.84960 0.83550 0.12519 -0.02700
C 	C 	0.58490 0.67220 0.11780 0.38000
C 	C 	0.61793 0.71230 0.11058 -0.05400
C 	C 	0.63790 0.74290 0.13682 -0.07400
C 	C 	0.66195 0.78226 0.12788 0.07800
C 	C 	0.66606 0.79109 0.09270 -0.27100
C 	C 	0.64610 0.76050 0.06646 0.06800
C 	C 	0.62204 0.72114 0.07540 -0.07300
C 	C 	0.55718 0.85140 0.93260 0.31300
C 	C 	0.60100 0.84960 0.96424 -0.01600
C 	C 	0.57951 0.86608 0.99299 -0.10700
C 	C 	0.61030 0.86689 0.02644 0.08700
C 	C 	0.66250 0.85123 0.03113 -0.29100
C 	C 	0.68396 0.83475 0.00238 0.09700
C 	C 	0.65320 0.83394 0.96893 -0.10000
C 	C 	0.83780 0.99637 0.56113 0.39300
C 	C 	0.86416 0.03988 0.57258 -0.06000
C 	C 	0.91944 0.04179 0.57581 -0.06400
C 	C 	0.94603 0.08179 0.58543 0.05900
C 	C 	0.91734 0.11987 0.59181 -0.24500
C 	C 	0.86206 0.11796 0.58858 0.05900
C 	C 	0.83547 0.07796 0.57897 -0.06000
C 	C 	0.97950 0.17510 0.77000 0.36600
C 	C 	0.97166 0.17830 0.72980 -0.02900
C 	C 	0.95053 0.14056 0.71130 -0.08500
C 	C 	0.94405 0.13997 0.67452 0.07700
C 	C 	0.95871 0.17710 0.65622 -0.26700
C 	C 	0.97985 0.21483 0.67472 0.08200
C 	C 	0.98633 0.21543 0.71151 -0.08500
C 	C 	0.81270 0.31710 0.52380 0.40900
C 	C 	0.85009 0.28373 0.54284 -0.06900
C 	C 	0.86735 0.29064 0.57877 -0.06500
C 	C 	0.89812 0.25823 0.59863 0.06900
C 	C 	0.91163 0.21892 0.58255 -0.25800
C 	C 	0.89436 0.21201 0.54662 0.06200
C 	C 	0.86359 0.24442 0.52676 -0.05800
C 	C 	0.17706 0.13830 0.57090 0.36600
C 	C 	0.12004 0.14664 0.57588 -0.04600
C 	C 	0.07710 0.15188 0.54878 -0.06500
C 	C 	0.02719 0.16334 0.55672 0.06200
C 	C 	0.02025 0.16955 0.59176 -0.24300
C 	C 	0.06320 0.16431 0.61885 0.05800
C 	C 	0.11311 0.15286 0.61092 -0.07400
O 	O 	0.27486 0.60675 0.53011 -0.93900
O 	O 	0.23206 0.55120 0.45642 -0.47500
O 	O 	0.20511 0.52393 0.50505 -0.46500
O 	O 	0.00889 0.40547 0.13687 -0.70800
O 	O 	0.82690 0.43266 0.43906 -0.46900
O 	O 	0.81876 0.35795 0.42661 -0.46700
O 	O 	0.14264 0.17744 0.44594 -0.50300
O 	O 	0.21464 0.20023 0.42408 -0.48200
O 	O 	0.00291 0.45080 0.21096 -0.47600
O 	O 	0.08265 0.41785 0.20737 -0.47600
O 	O 	0.09643 0.57073 0.83939 -0.47600
O 	O 	0.07954 0.64159 0.82419 -0.47500
O 	O 	0.34966 0.60835 0.60489 -0.47600
O 	O 	0.27180 0.57833 0.60456 -0.45100
O 	O 	0.42608 0.83415 0.81715 -0.46000
O 	O 	0.49391 0.79439 0.84867 -0.46200
O 	O 	0.44570 0.45596 0.88359 -0.56900
O 	O 	0.45670 0.43085 0.83340 -0.49800
O 	O 	0.10993 0.45762 0.14146 -0.50300
O 	O 	0.04043 0.50095 0.14747 -0.50600
O 	O 	0.45492 0.64566 0.14015 -0.49100
O 	O 	0.45640 0.61000 0.09177 -0.54300
O 	O 	0.06040 0.85256 0.09358 -0.55800
O 	O 	0.08230 0.83280 0.15050 -0.47300
O 	O 	0.07800 0.65725 0.90500 -0.43600
O 	O 	0.00669 0.65577 0.92488 -0.44100
O 	O 	0.36064 0.53574 0.55416 -0.51900
O 	O 	0.28562 0.50175 0.56234 -0.45500
O 	O 	0.46760 0.35884 0.78332 -0.48800
O 	O 	0.49440 0.28913 0.78554 -0.29800
O 	O 	0.29867 0.19226 0.49135 -0.48400
O 	O 	0.29891 0.14868 0.53697 -0.52700
O 	O 	0.71712 0.36796 0.59571 -0.47000
O 	O 	0.67714 0.37267 0.53870 -0.51400
O 	O 	0.22514 0.10675 0.46989 -0.93900
O 	O 	0.26794 0.05120 0.54358 -0.47500
O 	O 	0.29489 0.02393 0.49495 -0.46500
O 	O 	0.49111 0.90547 0.86313 -0.70800
O 	O 	0.67310 0.93266 0.56094 -0.46900
O 	O 	0.68124 0.85795 0.57339 -0.46700
O 	O 	0.35736 0.67744 0.55406 -0.50300
O 	O 	0.28536 0.70023 0.57592 -0.48200
O 	O 	0.49709 0.95080 0.78904 -0.47600
O 	O 	0.41735 0.91785 0.79263 -0.47600
O 	O 	0.40357 0.07073 0.16061 -0.47600
O 	O 	0.42046 0.14159 0.17581 -0.47500
O 	O 	0.15034 0.10835 0.39511 -0.47600
O 	O 	0.22820 0.07833 0.39544 -0.45100
O 	O 	0.07392 0.33415 0.18285 -0.46000
O 	O 	0.00609 0.29439 0.15133 -0.46200
O 	O 	0.05430 0.95596 0.11641 -0.57000
O 	O 	0.04330 0.93085 0.16660 -0.49800
O 	O 	0.39007 0.95762 0.85854 -0.50300
O 	O 	0.45957 0.00095 0.85253 -0.50500
O 	O 	0.04508 0.14566 0.85985 -0.49100
O 	O 	0.04360 0.11000 0.90823 -0.54300
O 	O 	0.43960 0.35256 0.90642 -0.55800
O 	O 	0.41770 0.33280 0.84950 -0.47300
O 	O 	0.42200 0.15725 0.09500 -0.43600
O 	O 	0.49331 0.15577 0.07512 -0.44000
O 	O 	0.13936 0.03574 0.44584 -0.51900
O 	O 	0.21438 0.00175 0.43766 -0.45500
O 	O 	0.03240 0.85884 0.21668 -0.48800
O 	O 	0.00560 0.78913 0.21446 -0.29800
O 	O 	0.20133 0.69226 0.50865 -0.48400
O 	O 	0.20109 0.64868 0.46303 -0.52700
O 	O 	0.78288 0.86796 0.40429 -0.47000
O 	O 	0.82286 0.87267 0.46130 -0.51400
O 	O 	0.72514 0.39325 0.46989 -0.93900
O 	O 	0.76794 0.44880 0.54358 -0.47500
O 	O 	0.79489 0.47607 0.49495 -0.46500
O 	O 	0.99111 0.59453 0.86313 -0.70800
O 	O 	0.17310 0.56734 0.56094 -0.46900
O 	O 	0.18124 0.64205 0.57339 -0.46700
O 	O 	0.85736 0.82256 0.55406 -0.50300
O 	O 	0.78536 0.79977 0.57592 -0.48200
O 	O 	0.99709 0.54920 0.78904 -0.47600
O 	O 	0.91735 0.58215 0.79263 -0.47600
O 	O 	0.90357 0.42927 0.16061 -0.47600
O 	O 	0.92046 0.35841 0.17581 -0.47500
O 	O 	0.65034 0.39165 0.39511 -0.47600
O 	O 	0.72820 0.42167 0.39544 -0.45100
O 	O 	0.57392 0.16585 0.18285 -0.46000
O 	O 	0.50609 0.20561 0.15133 -0.46200
O 	O 	0.55430 0.54404 0.11641 -0.56900
O 	O 	0.54330 0.56915 0.16660 -0.49800
O 	O 	0.89007 0.54238 0.85854 -0.50300
O 	O 	0.95957 0.49905 0.85253 -0.50600
O 	O 	0.54508 0.35434 0.85985 -0.49100
O 	O 	0.54360 0.39000 0.90823 -0.54300
O 	O 	0.93960 0.14744 0.90642 -0.55800
O 	O 	0.91770 0.16720 0.84950 -0.47300
O 	O 	0.92200 0.34275 0.09500 -0.43600
O 	O 	0.99331 0.34423 0.07512 -0.44100
O 	O 	0.63936 0.46426 0.44584 -0.51900
O 	O 	0.71438 0.49825 0.43766 -0.45500
O 	O 	0.53240 0.64116 0.21668 -0.48800
O 	O 	0.50560 0.71087 0.21446 -0.29800
O 	O 	0.70133 0.80774 0.50865 -0.48400
O 	O 	0.70109 0.85132 0.46303 -0.52700
O 	O 	0.28288 0.63204 0.40429 -0.47000
O 	O 	0.32286 0.62733 0.46130 -0.51400
O 	O 	0.77486 0.89325 0.53011 -0.93900
O 	O 	0.73206 0.94880 0.45642 -0.47500
O 	O 	0.70511 0.97607 0.50505 -0.46500
O 	O 	0.50889 0.09453 0.13687 -0.70800
O 	O 	0.32690 0.06734 0.43906 -0.46900
O 	O 	0.31876 0.14205 0.42661 -0.46700
O 	O 	0.64264 0.32256 0.44594 -0.50300
O 	O 	0.71464 0.29977 0.42408 -0.48200
O 	O 	0.50291 0.04920 0.21096 -0.47600
O 	O 	0.58265 0.08215 0.20737 -0.47600
O 	O 	0.59643 0.92927 0.83939 -0.47600
O 	O 	0.57954 0.85841 0.82419 -0.47500
O 	O 	0.84966 0.89165 0.60489 -0.47600
O 	O 	0.77180 0.92167 0.60456 -0.45100
O 	O 	0.92608 0.66585 0.81715 -0.46000
O 	O 	0.99391 0.70561 0.84867 -0.46200
O 	O 	0.94570 0.04404 0.88359 -0.57000
O 	O 	0.95670 0.06915 0.83340 -0.49800
O 	O 	0.60993 0.04238 0.14146 -0.50300
O 	O 	0.54043 0.99905 0.14747 -0.50500
O 	O 	0.95492 0.85434 0.14015 -0.49100
O 	O 	0.95640 0.89000 0.09177 -0.54300
O 	O 	0.56040 0.64744 0.09358 -0.55800
O 	O 	0.58230 0.66720 0.15050 -0.47300
O 	O 	0.57800 0.84275 0.90500 -0.43600
O 	O 	0.50669 0.84423 0.92488 -0.44000
O 	O 	0.86064 0.96426 0.55416 -0.51900
O 	O 	0.78562 0.99825 0.56234 -0.45500
O 	O 	0.96760 0.14116 0.78332 -0.48800
O 	O 	0.99440 0.21087 0.78554 -0.29800
O 	O 	0.79867 0.30774 0.49135 -0.48400
O 	O 	0.79891 0.35132 0.53697 -0.52700
O 	O 	0.21712 0.13204 0.59571 -0.47000
O 	O 	0.17714 0.12733 0.53870 -0.51400
