data_crystal

_cell_length_a 19.08930
_cell_length_b 26.95200
_cell_length_c 27.78910
_cell_angle_alpha 90.00000
_cell_angle_beta  97.08720
_cell_angle_gamma 90.00000

_symmetry_space_group_name_	'P 1'
_symmetry_space_group_name_H-M	'P 1'

loop_
_symmetry_equiv_pos_as_xyz
  x,y,z

loop_
_atom_site_label
_atom_site_type_symbol
_atom_site_fract_x
_atom_site_fract_y
_atom_site_fract_z
_atom_site_charge
Zn	Zn	0.16987 0.39059 0.43488 1.20800
Zn	Zn	0.28438 0.44699 0.50383 1.22100
Zn	Zn	0.16099 0.38823 0.54962 1.16700
Zn	Zn	0.28228 0.33134 0.50385 1.21900
Zn	Zn	0.33013 0.89059 0.06512 1.20800
Zn	Zn	0.21562 0.94699 0.99617 1.22000
Zn	Zn	0.33901 0.88823 0.95038 1.16800
Zn	Zn	0.21772 0.83134 0.99615 1.22000
H 	H 	0.95300 0.33940 0.43060 0.02800
H 	H 	0.83210 0.33340 0.43010 0.06100
H 	H 	0.82760 0.47070 0.48520 0.04600
H 	H 	0.94850 0.47730 0.48480 0.04500
H 	H 	0.62850 0.32060 0.52500 0.11600
H 	H 	0.50730 0.31960 0.52620 -0.00100
H 	H 	0.49530 0.46030 0.47750 -0.00200
H 	H 	0.61640 0.46180 0.47730 0.12200
H 	H 	0.30790 0.50260 0.67140 -0.01100
H 	H 	0.30200 0.56570 0.72740 0.14800
H 	H 	0.14870 0.63190 0.63760 0.11600
H 	H 	0.15550 0.56950 0.58150 0.00900
H 	H 	0.20040 0.65380 0.84190 0.06900
H 	H 	0.19030 0.71810 0.89640 0.03700
H 	H 	0.32440 0.80020 0.82750 0.02200
H 	H 	0.33170 0.73590 0.77280 0.07100
H 	H 	0.29880 0.57230 0.41720 0.04800
H 	H 	0.30460 0.63460 0.36000 0.06600
H 	H 	0.18870 0.55200 0.25990 0.06300
H 	H 	0.18200 0.48940 0.31720 0.04100
H 	H 	0.31380 0.71850 0.23860 0.14300
H 	H 	0.32250 0.78450 0.18520 0.00400
H 	H 	0.20000 0.71040 0.08140 -0.00200
H 	H 	0.19490 0.64280 0.13410 0.11600
H 	H 	0.54700 0.83940 0.06940 0.02900
H 	H 	0.66790 0.83340 0.06990 0.06100
H 	H 	0.67240 0.97070 0.01480 0.04700
H 	H 	0.55150 0.97730 0.01520 0.04500
H 	H 	0.87150 0.82060 0.97500 0.11600
H 	H 	0.99270 0.81960 0.97380 -0.00200
H 	H 	0.00470 0.96030 0.02250 0.00100
H 	H 	0.88360 0.96180 0.02270 0.12200
H 	H 	0.19210 0.00260 0.82860 -0.01000
H 	H 	0.19800 0.06570 0.77260 0.14800
H 	H 	0.35130 0.13190 0.86240 0.11600
H 	H 	0.34450 0.06950 0.91850 0.01000
H 	H 	0.29960 0.15380 0.65810 0.06900
H 	H 	0.30970 0.21810 0.60360 0.03700
H 	H 	0.17560 0.30020 0.67250 0.02200
H 	H 	0.16830 0.23590 0.72720 0.07100
H 	H 	0.20120 0.07230 0.08280 0.04700
H 	H 	0.19540 0.13460 0.14000 0.06600
H 	H 	0.31130 0.05200 0.24010 0.06200
H 	H 	0.31800 0.98940 0.18280 0.04300
H 	H 	0.18620 0.21850 0.26140 0.14300
H 	H 	0.17750 0.28450 0.31480 0.00300
H 	H 	0.30000 0.21040 0.41860 -0.00200
H 	H 	0.30510 0.14280 0.36590 0.11600
C 	C 	0.04148 0.41068 0.45930 0.36500
C 	C 	0.96268 0.40942 0.45739 -0.11300
C 	C 	0.92773 0.36591 0.44130 0.00700
C 	C 	0.85548 0.36225 0.44127 -0.07300
C 	C 	0.81762 0.40137 0.45781 -0.01700
C 	C 	0.85278 0.44436 0.47409 -0.05900
C 	C 	0.92522 0.44833 0.47386 0.00500
C 	C 	0.73983 0.39761 0.45745 0.19300
C 	C 	0.63483 0.39121 0.50121 0.19400
C 	C 	0.60188 0.34865 0.51565 -0.21700
C 	C 	0.52909 0.34797 0.51614 0.14200
C 	C 	0.48903 0.38932 0.50175 -0.21400
C 	C 	0.52208 0.43235 0.48707 0.13900
C 	C 	0.59450 0.43323 0.48691 -0.20600
C 	C 	0.41109 0.38676 0.50112 0.48800
C 	C 	0.23693 0.48830 0.58528 0.45500
C 	C 	0.23201 0.52927 0.62062 -0.18500
C 	C 	0.27602 0.52855 0.66455 0.14900
C 	C 	0.27267 0.56627 0.69815 -0.22200
C 	C 	0.22507 0.60503 0.68772 0.19700
C 	C 	0.18072 0.60613 0.64422 -0.20600
C 	C 	0.18477 0.56862 0.61087 0.13600
C 	C 	0.26795 0.64867 0.76387 0.18500
C 	C 	0.26593 0.68917 0.80122 0.01700
C 	C 	0.22450 0.68343 0.83883 -0.08600
C 	C 	0.21899 0.72166 0.87188 0.03800
C 	C 	0.25703 0.76526 0.86768 -0.13500
C 	C 	0.29926 0.77093 0.83031 0.04000
C 	C 	0.30337 0.73243 0.79749 -0.09000
C 	C 	0.25489 0.80333 0.90527 0.41100
C 	C 	0.23390 0.48632 0.40938 0.38700
C 	C 	0.24014 0.52493 0.37276 -0.10900
C 	C 	0.27671 0.56817 0.38573 0.02200
C 	C 	0.28026 0.60545 0.35151 -0.06900
C 	C 	0.24753 0.59897 0.30496 -0.00900
C 	C 	0.21060 0.55594 0.29143 -0.06700
C 	C 	0.20673 0.51846 0.32571 0.01900
C 	C 	0.25082 0.64097 0.27086 0.20000
C 	C 	0.25475 0.67465 0.19163 0.20700
C 	C 	0.29179 0.71653 0.20694 -0.21700
C 	C 	0.29654 0.75643 0.17506 0.13200
C 	C 	0.26160 0.75339 0.12764 -0.20400
C 	C 	0.22359 0.71182 0.11273 0.13500
C 	C 	0.21990 0.67122 0.14437 -0.21700
C 	C 	0.26779 0.79672 0.09421 0.47000
C 	C 	0.45852 0.91068 0.04070 0.36400
C 	C 	0.53732 0.90942 0.04261 -0.11300
C 	C 	0.57227 0.86591 0.05870 0.00700
C 	C 	0.64452 0.86225 0.05873 -0.07300
C 	C 	0.68238 0.90137 0.04219 -0.01700
C 	C 	0.64722 0.94436 0.02591 -0.05900
C 	C 	0.57478 0.94833 0.02614 0.00500
C 	C 	0.76017 0.89761 0.04255 0.19300
C 	C 	0.86517 0.89121 0.99879 0.19300
C 	C 	0.89812 0.84865 0.98435 -0.21800
C 	C 	0.97091 0.84797 0.98386 0.14400
C 	C 	0.01097 0.88932 0.99825 -0.21600
C 	C 	0.97792 0.93235 0.01293 0.13700
C 	C 	0.90550 0.93323 0.01309 -0.20400
C 	C 	0.08891 0.88676 0.99888 0.48400
C 	C 	0.26307 0.98830 0.91472 0.45300
C 	C 	0.26799 0.02927 0.87938 -0.18200
C 	C 	0.22398 0.02855 0.83545 0.14700
C 	C 	0.22733 0.06627 0.80185 -0.22000
C 	C 	0.27493 0.10503 0.81228 0.19600
C 	C 	0.31928 0.10613 0.85578 -0.20500
C 	C 	0.31523 0.06862 0.88913 0.13400
C 	C 	0.23205 0.14867 0.73613 0.18500
C 	C 	0.23407 0.18917 0.69878 0.01700
C 	C 	0.27550 0.18343 0.66117 -0.08600
C 	C 	0.28101 0.22166 0.62812 0.03800
C 	C 	0.24297 0.26526 0.63232 -0.13500
C 	C 	0.20074 0.27093 0.66969 0.04000
C 	C 	0.19663 0.23243 0.70251 -0.09000
C 	C 	0.24511 0.30333 0.59473 0.41100
C 	C 	0.26610 0.98632 0.09062 0.38900
C 	C 	0.25986 0.02493 0.12724 -0.11000
C 	C 	0.22329 0.06817 0.11427 0.02200
C 	C 	0.21974 0.10545 0.14849 -0.06900
C 	C 	0.25247 0.09897 0.19504 -0.01000
C 	C 	0.28940 0.05594 0.20857 -0.06600
C 	C 	0.29327 0.01846 0.17429 0.01600
C 	C 	0.24918 0.14097 0.22914 0.20000
C 	C 	0.24525 0.17465 0.30837 0.20700
C 	C 	0.20821 0.21653 0.29306 -0.21700
C 	C 	0.20346 0.25643 0.32494 0.13200
C 	C 	0.23840 0.25339 0.37236 -0.20500
C 	C 	0.27641 0.21182 0.38727 0.13500
C 	C 	0.28010 0.17122 0.35563 -0.21700
C 	C 	0.23221 0.29672 0.40579 0.47100
N 	N 	0.71176 0.39440 0.49946 -0.15300
N 	N 	0.24617 0.63427 0.22639 -0.16500
N 	N 	0.22571 0.64789 0.72319 -0.15500
N 	N 	0.78824 0.89440 0.00054 -0.15200
N 	N 	0.25383 0.13427 0.27361 -0.16500
N 	N 	0.27429 0.14789 0.77681 -0.15500
O 	O 	0.22413 0.38989 0.49826 -0.96500
O 	O 	0.06887 0.38852 0.42729 -0.49600
O 	O 	0.69990 0.39860 0.41816 -0.19600
O 	O 	0.38227 0.34723 0.50498 -0.52700
O 	O 	0.37670 0.42669 0.49985 -0.55200
O 	O 	0.19216 0.45427 0.58495 -0.50900
O 	O 	0.28149 0.49268 0.55778 -0.50400
O 	O 	0.31293 0.61450 0.77377 -0.22000
O 	O 	0.21974 0.79094 0.93866 -0.50700
O 	O 	0.19952 0.44698 0.39707 -0.48900
O 	O 	0.26406 0.49524 0.45123 -0.48200
O 	O 	0.25629 0.68809 0.27575 -0.22100
O 	O 	0.23635 0.79463 0.05221 -0.56200
O 	O 	0.30608 0.83182 0.10763 -0.49800
O 	O 	0.07788 0.43523 0.49014 -0.46000
O 	O 	0.28453 0.84280 0.89997 -0.53100
O 	O 	0.27587 0.88989 0.00174 -0.96200
O 	O 	0.43113 0.88852 0.07271 -0.49600
O 	O 	0.80010 0.89860 0.08184 -0.19600
O 	O 	0.11773 0.84723 0.99502 -0.52700
O 	O 	0.12330 0.92669 0.00015 -0.54800
O 	O 	0.30784 0.95427 0.91505 -0.51000
O 	O 	0.21851 0.99268 0.94222 -0.50600
O 	O 	0.18707 0.11450 0.72623 -0.22000
O 	O 	0.28026 0.29094 0.56134 -0.50600
O 	O 	0.30048 0.94698 0.10293 -0.48900
O 	O 	0.23594 0.99524 0.04877 -0.48000
O 	O 	0.24371 0.18809 0.22425 -0.22100
O 	O 	0.26365 0.29463 0.44779 -0.56300
O 	O 	0.19392 0.33182 0.39237 -0.49800
O 	O 	0.42212 0.93523 0.00986 -0.45900
O 	O 	0.21547 0.34280 0.60003 -0.53000
Zn	Zn	0.83013 0.60941 0.56512 1.20900
Zn	Zn	0.71562 0.55301 0.49617 1.22200
Zn	Zn	0.83901 0.61177 0.45038 1.16800
Zn	Zn	0.71772 0.66866 0.49615 1.22000
Zn	Zn	0.66987 0.10941 0.93488 1.20900
Zn	Zn	0.78438 0.05301 0.00383 1.22100
Zn	Zn	0.66099 0.11177 0.04962 1.16800
Zn	Zn	0.78228 0.16866 0.00385 1.22000
H 	H 	0.04700 0.66060 0.56940 0.02800
H 	H 	0.16790 0.66660 0.56990 0.06100
H 	H 	0.17240 0.52930 0.51480 0.04600
H 	H 	0.05150 0.52270 0.51520 0.04500
H 	H 	0.37150 0.67940 0.47500 0.11600
H 	H 	0.49270 0.68040 0.47380 -0.00100
H 	H 	0.50470 0.53970 0.52250 -0.00200
H 	H 	0.38360 0.53820 0.52270 0.12200
H 	H 	0.69210 0.49740 0.32860 -0.01100
H 	H 	0.69800 0.43430 0.27260 0.14800
H 	H 	0.85130 0.36810 0.36240 0.11600
H 	H 	0.84450 0.43050 0.41850 0.00900
H 	H 	0.79960 0.34620 0.15810 0.06900
H 	H 	0.80970 0.28190 0.10360 0.03700
H 	H 	0.67560 0.19980 0.17250 0.02200
H 	H 	0.66830 0.26410 0.22720 0.07100
H 	H 	0.70120 0.42770 0.58280 0.04800
H 	H 	0.69540 0.36540 0.64000 0.06600
H 	H 	0.81130 0.44800 0.74010 0.06300
H 	H 	0.81800 0.51060 0.68280 0.04100
H 	H 	0.68620 0.28150 0.76140 0.14300
H 	H 	0.67750 0.21550 0.81480 0.00400
H 	H 	0.80000 0.28960 0.91860 -0.00200
H 	H 	0.80510 0.35720 0.86590 0.11600
H 	H 	0.45300 0.16060 0.93060 0.02900
H 	H 	0.33210 0.16660 0.93010 0.06100
H 	H 	0.32760 0.02930 0.98520 0.04700
H 	H 	0.44850 0.02270 0.98480 0.04500
H 	H 	0.12850 0.17940 0.02500 0.11600
H 	H 	0.00730 0.18040 0.02620 -0.00200
H 	H 	0.99530 0.03970 0.97750 0.00100
H 	H 	0.11640 0.03820 0.97730 0.12200
H 	H 	0.80790 0.99740 0.17140 -0.01000
H 	H 	0.80200 0.93430 0.22740 0.14800
H 	H 	0.64870 0.86810 0.13760 0.11600
H 	H 	0.65550 0.93050 0.08150 0.01000
H 	H 	0.70040 0.84620 0.34190 0.06900
H 	H 	0.69030 0.78190 0.39640 0.03700
H 	H 	0.82440 0.69980 0.32750 0.02200
H 	H 	0.83170 0.76410 0.27280 0.07100
H 	H 	0.79880 0.92770 0.91720 0.04700
H 	H 	0.80460 0.86540 0.86000 0.06600
H 	H 	0.68870 0.94800 0.75990 0.06200
H 	H 	0.68200 0.01060 0.81720 0.04300
H 	H 	0.81380 0.78150 0.73860 0.14300
H 	H 	0.82250 0.71550 0.68520 0.00300
H 	H 	0.70000 0.78960 0.58140 -0.00200
H 	H 	0.69490 0.85720 0.63410 0.11600
C 	C 	0.95852 0.58932 0.54070 0.36500
C 	C 	0.03732 0.59058 0.54261 -0.11300
C 	C 	0.07227 0.63409 0.55870 0.00700
C 	C 	0.14452 0.63775 0.55873 -0.07300
C 	C 	0.18238 0.59863 0.54219 -0.01700
C 	C 	0.14722 0.55564 0.52591 -0.05900
C 	C 	0.07478 0.55167 0.52614 0.00500
C 	C 	0.26017 0.60239 0.54255 0.19300
C 	C 	0.36517 0.60879 0.49879 0.19400
C 	C 	0.39812 0.65135 0.48435 -0.21700
C 	C 	0.47091 0.65203 0.48386 0.14200
C 	C 	0.51097 0.61068 0.49825 -0.21400
C 	C 	0.47792 0.56765 0.51293 0.13900
C 	C 	0.40550 0.56677 0.51309 -0.20600
C 	C 	0.58891 0.61324 0.49888 0.48800
C 	C 	0.76307 0.51170 0.41472 0.45500
C 	C 	0.76799 0.47073 0.37938 -0.18500
C 	C 	0.72398 0.47145 0.33545 0.14900
C 	C 	0.72733 0.43373 0.30185 -0.22200
C 	C 	0.77493 0.39497 0.31228 0.19700
C 	C 	0.81928 0.39387 0.35578 -0.20600
C 	C 	0.81523 0.43138 0.38913 0.13600
C 	C 	0.73205 0.35133 0.23613 0.18500
C 	C 	0.73407 0.31083 0.19878 0.01700
C 	C 	0.77550 0.31657 0.16117 -0.08600
C 	C 	0.78101 0.27834 0.12812 0.03800
C 	C 	0.74297 0.23474 0.13232 -0.13500
C 	C 	0.70074 0.22907 0.16969 0.04000
C 	C 	0.69663 0.26757 0.20251 -0.09000
C 	C 	0.74511 0.19667 0.09473 0.41100
C 	C 	0.76610 0.51368 0.59062 0.38700
C 	C 	0.75986 0.47507 0.62724 -0.10900
C 	C 	0.72329 0.43183 0.61427 0.02200
C 	C 	0.71974 0.39455 0.64849 -0.06900
C 	C 	0.75247 0.40103 0.69504 -0.00900
C 	C 	0.78940 0.44406 0.70857 -0.06700
C 	C 	0.79327 0.48154 0.67429 0.01900
C 	C 	0.74918 0.35903 0.72914 0.20000
C 	C 	0.74525 0.32535 0.80837 0.20700
C 	C 	0.70821 0.28347 0.79306 -0.21700
C 	C 	0.70346 0.24357 0.82494 0.13200
C 	C 	0.73840 0.24661 0.87236 -0.20400
C 	C 	0.77641 0.28818 0.88727 0.13500
C 	C 	0.78010 0.32878 0.85563 -0.21700
C 	C 	0.73221 0.20328 0.90579 0.47000
C 	C 	0.54148 0.08932 0.95930 0.36400
C 	C 	0.46268 0.09058 0.95739 -0.11300
C 	C 	0.42773 0.13409 0.94130 0.00700
C 	C 	0.35548 0.13775 0.94127 -0.07300
C 	C 	0.31762 0.09863 0.95781 -0.01700
C 	C 	0.35278 0.05564 0.97409 -0.05900
C 	C 	0.42522 0.05167 0.97386 0.00500
C 	C 	0.23983 0.10239 0.95745 0.19300
C 	C 	0.13483 0.10879 0.00121 0.19300
C 	C 	0.10188 0.15135 0.01565 -0.21800
C 	C 	0.02909 0.15203 0.01614 0.14400
C 	C 	0.98903 0.11068 0.00175 -0.21600
C 	C 	0.02208 0.06765 0.98707 0.13700
C 	C 	0.09450 0.06677 0.98691 -0.20400
C 	C 	0.91109 0.11324 0.00112 0.48400
C 	C 	0.73693 0.01170 0.08528 0.45300
C 	C 	0.73201 0.97073 0.12062 -0.18200
C 	C 	0.77602 0.97145 0.16455 0.14700
C 	C 	0.77267 0.93373 0.19815 -0.22000
C 	C 	0.72507 0.89497 0.18772 0.19600
C 	C 	0.68072 0.89387 0.14422 -0.20500
C 	C 	0.68477 0.93138 0.11087 0.13400
C 	C 	0.76795 0.85133 0.26387 0.18500
C 	C 	0.76593 0.81083 0.30122 0.01700
C 	C 	0.72450 0.81657 0.33883 -0.08600
C 	C 	0.71899 0.77834 0.37188 0.03800
C 	C 	0.75703 0.73474 0.36768 -0.13500
C 	C 	0.79926 0.72907 0.33031 0.04000
C 	C 	0.80337 0.76757 0.29749 -0.09000
C 	C 	0.75489 0.69667 0.40527 0.41100
C 	C 	0.73390 0.01368 0.90938 0.38900
C 	C 	0.74014 0.97507 0.87276 -0.11000
C 	C 	0.77671 0.93183 0.88573 0.02200
C 	C 	0.78026 0.89455 0.85151 -0.06900
C 	C 	0.74753 0.90103 0.80496 -0.01000
C 	C 	0.71060 0.94406 0.79143 -0.06600
C 	C 	0.70673 0.98154 0.82571 0.01600
C 	C 	0.75082 0.85903 0.77086 0.20000
C 	C 	0.75475 0.82535 0.69163 0.20700
C 	C 	0.79179 0.78347 0.70694 -0.21700
C 	C 	0.79654 0.74357 0.67506 0.13200
C 	C 	0.76160 0.74661 0.62764 -0.20500
C 	C 	0.72359 0.78818 0.61273 0.13500
C 	C 	0.71990 0.82878 0.64437 -0.21700
C 	C 	0.76779 0.70328 0.59421 0.47100
N 	N 	0.28824 0.60560 0.50054 -0.15300
N 	N 	0.75383 0.36573 0.77361 -0.16500
N 	N 	0.77429 0.35211 0.27681 -0.15500
N 	N 	0.21176 0.10560 0.99946 -0.15200
N 	N 	0.74617 0.86573 0.72639 -0.16500
N 	N 	0.72571 0.85211 0.22319 -0.15500
O 	O 	0.77587 0.61011 0.50174 -0.96500
O 	O 	0.93113 0.61148 0.57271 -0.49600
O 	O 	0.30010 0.60140 0.58184 -0.19600
O 	O 	0.61773 0.65277 0.49502 -0.52700
O 	O 	0.62330 0.57331 0.50015 -0.55200
O 	O 	0.80784 0.54573 0.41505 -0.50900
O 	O 	0.71851 0.50732 0.44222 -0.50400
O 	O 	0.68707 0.38550 0.22623 -0.22000
O 	O 	0.78026 0.20906 0.06134 -0.50700
O 	O 	0.80048 0.55302 0.60293 -0.48900
O 	O 	0.73594 0.50476 0.54877 -0.48200
O 	O 	0.74371 0.31191 0.72425 -0.22100
O 	O 	0.76365 0.20537 0.94779 -0.56200
O 	O 	0.69392 0.16818 0.89237 -0.49800
O 	O 	0.92212 0.56477 0.50986 -0.46000
O 	O 	0.71547 0.15720 0.10003 -0.53100
O 	O 	0.72413 0.11011 0.99826 -0.96200
O 	O 	0.56887 0.11148 0.92729 -0.49600
O 	O 	0.19990 0.10140 0.91816 -0.19600
O 	O 	0.88227 0.15277 0.00498 -0.52700
O 	O 	0.87670 0.07331 0.99985 -0.54800
O 	O 	0.69216 0.04573 0.08495 -0.51000
O 	O 	0.78149 0.00732 0.05778 -0.50600
O 	O 	0.81293 0.88550 0.27377 -0.22000
O 	O 	0.71974 0.70906 0.43866 -0.50600
O 	O 	0.69952 0.05302 0.89707 -0.48900
O 	O 	0.76406 0.00476 0.95123 -0.48000
O 	O 	0.75629 0.81191 0.77575 -0.22100
O 	O 	0.73635 0.70537 0.55221 -0.56300
O 	O 	0.80608 0.66818 0.60763 -0.49800
O 	O 	0.57788 0.06477 0.99014 -0.45900
O 	O 	0.78453 0.65720 0.39997 -0.53000
