data_crystal

_cell_length_a 20.37560
_cell_length_b 28.39270
_cell_length_c 28.39270
_cell_angle_alpha 90.00000
_cell_angle_beta  90.00000
_cell_angle_gamma 90.00000

_symmetry_space_group_name_	'P 1'
_symmetry_space_group_name_H-M	'P 1'

loop_
_symmetry_equiv_pos_as_xyz
  x,y,z

loop_
_atom_site_label
_atom_site_type_symbol
_atom_site_fract_x
_atom_site_fract_y
_atom_site_fract_z
_atom_site_charge
Zn	Zn	0.64170 0.08351 0.78122 1.20400
Zn	Zn	0.14170 0.91649 0.21878 1.20400
Zn	Zn	0.89170 0.71878 0.58351 1.20500
Zn	Zn	0.39170 0.28122 0.41649 1.20400
Zn	Zn	0.60830 0.41649 0.28122 1.20300
Zn	Zn	0.10830 0.58351 0.71878 1.20300
Zn	Zn	0.35830 0.78122 0.08351 1.20300
Zn	Zn	0.85830 0.21878 0.91649 1.20400
Zn	Zn	0.75000 0.14797 0.85203 1.24700
Zn	Zn	0.25000 0.85203 0.14797 1.24700
Zn	Zn	0.00000 0.64797 0.64797 1.24500
Zn	Zn	0.50000 0.35203 0.35203 1.24700
H 	H 	0.53890 0.11050 0.66120 0.05400
H 	H 	0.53960 0.12670 0.60840 0.08000
H 	H 	0.64550 0.11130 0.66270 -0.03900
H 	H 	0.71070 0.13390 0.59470 0.21200
H 	H 	0.64720 0.15240 0.56930 0.22800
H 	H 	0.70530 0.04530 0.61970 0.28400
H 	H 	0.69720 0.97340 0.59040 -0.20900
H 	H 	0.63800 0.95970 0.52530 0.25700
H 	H 	0.56560 0.02210 0.49830 -0.14900
H 	H 	0.59360 0.09810 0.52260 0.26500
H 	H 	0.07440 0.48260 0.80020 0.00600
H 	H 	0.06970 0.42910 0.81400 0.03000
H 	H 	0.08290 0.46040 0.72220 0.01000
H 	H 	0.03160 0.36920 0.73760 0.13300
H 	H 	0.06990 0.38590 0.69280 0.11000
H 	H 	0.15650 0.32930 0.80610 0.09400
H 	H 	0.26800 0.32260 0.79100 0.00700
H 	H 	0.31280 0.35770 0.72460 0.07600
H 	H 	0.24600 0.39940 0.67320 0.02600
H 	H 	0.13450 0.40610 0.68830 0.08500
H 	H 	0.81200 0.52210 0.36570 0.08300
H 	H 	0.75760 0.50690 0.32900 0.06800
H 	H 	0.80850 0.47020 0.39970 0.00000
H 	H 	0.79290 0.39490 0.35660 0.11100
H 	H 	0.80060 0.42970 0.31490 0.09000
H 	H 	0.82820 0.41190 0.54190 0.04300
H 	H 	0.85410 0.33760 0.66110 0.05800
H 	H 	0.74150 0.28460 0.55890 0.05000
H 	H 	0.85600 0.26750 0.69050 0.11100
H 	H 	0.82080 0.20580 0.73970 0.01100
H 	H 	0.69490 0.24930 0.61350 0.12200
H 	H 	0.88600 0.46380 0.56510 0.09900
H 	H 	0.94200 0.52300 0.59220 0.02300
H 	H 	0.91490 0.39220 0.68560 0.11900
H 	H 	0.69290 0.29590 0.49440 0.12800
H 	H 	0.64860 0.30540 0.42260 -0.00700
H 	H 	0.78560 0.41640 0.48170 0.12200
H 	H 	0.03890 0.88950 0.33880 0.05200
H 	H 	0.03960 0.87330 0.39160 0.07800
H 	H 	0.14550 0.88870 0.33730 -0.03900
H 	H 	0.21070 0.86610 0.40530 0.21100
H 	H 	0.14720 0.84760 0.43070 0.22700
H 	H 	0.20530 0.95470 0.38030 0.28300
H 	H 	0.19720 0.02660 0.40960 -0.20800
H 	H 	0.13800 0.04030 0.47470 0.25500
H 	H 	0.06560 0.97790 0.50170 -0.15100
H 	H 	0.09360 0.90190 0.47740 0.26400
H 	H 	0.57440 0.51740 0.19980 0.00400
H 	H 	0.56970 0.57090 0.18600 0.02900
H 	H 	0.58290 0.53960 0.27780 0.00900
H 	H 	0.53160 0.63080 0.26240 0.13700
H 	H 	0.56990 0.61410 0.30720 0.11200
H 	H 	0.65650 0.67070 0.19390 0.09600
H 	H 	0.76800 0.67740 0.20900 0.00700
H 	H 	0.81280 0.64230 0.27540 0.07700
H 	H 	0.74600 0.60060 0.32680 0.02500
H 	H 	0.63450 0.59390 0.31170 0.08600
H 	H 	0.31200 0.47790 0.63430 0.08200
H 	H 	0.25760 0.49310 0.67100 0.06700
H 	H 	0.30850 0.52980 0.60030 -0.00000
H 	H 	0.29290 0.60510 0.64340 0.11100
H 	H 	0.30060 0.57030 0.68510 0.09000
H 	H 	0.32820 0.58810 0.45810 0.04200
H 	H 	0.35410 0.66240 0.33890 0.05700
H 	H 	0.24150 0.71540 0.44110 0.05000
H 	H 	0.35600 0.73250 0.30950 0.11100
H 	H 	0.32080 0.79420 0.26030 0.01000
H 	H 	0.19490 0.75070 0.38650 0.12200
H 	H 	0.38600 0.53620 0.43490 0.10100
H 	H 	0.44200 0.47700 0.40780 0.01900
H 	H 	0.41490 0.60780 0.31440 0.11900
H 	H 	0.19290 0.70410 0.50560 0.12700
H 	H 	0.14860 0.69460 0.57740 -0.00800
H 	H 	0.28560 0.58360 0.51830 0.12200
H 	H 	0.78890 0.83880 0.61050 0.05500
H 	H 	0.78960 0.89160 0.62670 0.08000
H 	H 	0.89550 0.83730 0.61130 -0.03900
H 	H 	0.96070 0.90530 0.63390 0.21400
H 	H 	0.89720 0.93070 0.65240 0.22900
H 	H 	0.95530 0.88030 0.54530 0.28600
H 	H 	0.94720 0.90960 0.47340 -0.20700
H 	H 	0.88800 0.97470 0.45970 0.25900
H 	H 	0.81560 0.00170 0.52210 -0.15000
H 	H 	0.84360 0.97740 0.59810 0.26600
H 	H 	0.32440 0.69980 0.98260 0.00400
H 	H 	0.31970 0.68600 0.92910 0.02900
H 	H 	0.33290 0.77780 0.96040 0.00900
H 	H 	0.28160 0.76240 0.86920 0.13700
H 	H 	0.31990 0.80720 0.88590 0.11200
H 	H 	0.40650 0.69390 0.82930 0.09600
H 	H 	0.51800 0.70900 0.82260 0.00700
H 	H 	0.56280 0.77540 0.85770 0.07700
H 	H 	0.49600 0.82680 0.89940 0.02500
H 	H 	0.38450 0.81170 0.90610 0.08600
H 	H 	0.06200 0.13430 0.02210 0.08200
H 	H 	0.00760 0.17100 0.00690 0.06600
H 	H 	0.05850 0.10030 0.97020 0.00000
H 	H 	0.04290 0.14340 0.89490 0.10700
H 	H 	0.05060 0.18510 0.92970 0.08700
H 	H 	0.07820 0.95810 0.91190 0.03900
H 	H 	0.10410 0.83890 0.83760 0.05900
H 	H 	0.99150 0.94110 0.78460 0.05900
H 	H 	0.10600 0.80950 0.76750 0.10400
H 	H 	0.07080 0.76030 0.70580 0.01700
H 	H 	0.94490 0.88650 0.74930 0.11500
H 	H 	0.13600 0.93490 0.96380 0.10000
H 	H 	0.19200 0.90780 0.02300 0.01900
H 	H 	0.16490 0.81440 0.89220 0.11900
H 	H 	0.94290 0.00560 0.79590 0.13600
H 	H 	0.89860 0.07740 0.80540 -0.01300
H 	H 	0.03560 0.01830 0.91640 0.13400
H 	H 	0.28890 0.16120 0.38950 0.05400
H 	H 	0.28960 0.10840 0.37330 0.08000
H 	H 	0.39550 0.16270 0.38870 -0.03900
H 	H 	0.46070 0.09470 0.36610 0.21100
H 	H 	0.39720 0.06930 0.34760 0.22800
H 	H 	0.45530 0.11970 0.45470 0.28300
H 	H 	0.44720 0.09040 0.52660 -0.20800
H 	H 	0.38800 0.02530 0.54030 0.25500
H 	H 	0.31560 0.99830 0.47790 -0.14800
H 	H 	0.34360 0.02260 0.40190 0.26400
H 	H 	0.82440 0.30020 0.01740 0.00500
H 	H 	0.81970 0.31400 0.07090 0.03000
H 	H 	0.83290 0.22220 0.03960 0.00800
H 	H 	0.78160 0.23760 0.13080 0.14000
H 	H 	0.81990 0.19280 0.11410 0.11500
H 	H 	0.90650 0.30610 0.17070 0.11200
H 	H 	0.01800 0.29100 0.17740 -0.02300
H 	H 	0.06280 0.22460 0.14230 0.10000
H 	H 	0.99600 0.17320 0.10060 0.00800
H 	H 	0.88450 0.18830 0.09390 0.09900
H 	H 	0.56200 0.86570 0.97790 0.08200
H 	H 	0.50760 0.82900 0.99310 0.06800
H 	H 	0.55850 0.89970 0.02980 -0.00000
H 	H 	0.54290 0.85660 0.10510 0.11100
H 	H 	0.55060 0.81490 0.07030 0.09000
H 	H 	0.57820 0.04190 0.08810 0.04200
H 	H 	0.60410 0.16110 0.16240 0.05700
H 	H 	0.49150 0.05890 0.21540 0.05000
H 	H 	0.60600 0.19050 0.23250 0.11100
H 	H 	0.57080 0.23970 0.29420 0.01000
H 	H 	0.44490 0.11350 0.25070 0.12200
H 	H 	0.63600 0.06510 0.03620 0.10100
H 	H 	0.69200 0.09220 0.97700 0.01800
H 	H 	0.66490 0.18560 0.10780 0.11900
H 	H 	0.44290 0.99440 0.20410 0.12800
H 	H 	0.39860 0.92260 0.19460 -0.00700
H 	H 	0.53560 0.98170 0.08360 0.12200
H 	H 	0.71110 0.38950 0.16120 0.05500
H 	H 	0.71040 0.37330 0.10840 0.08000
H 	H 	0.60450 0.38870 0.16270 -0.03900
H 	H 	0.53930 0.36610 0.09470 0.21100
H 	H 	0.60280 0.34760 0.06930 0.22800
H 	H 	0.54470 0.45470 0.11970 0.28300
H 	H 	0.55280 0.52660 0.09040 -0.20800
H 	H 	0.61200 0.54030 0.02530 0.25600
H 	H 	0.68440 0.47790 0.99830 -0.14800
H 	H 	0.65640 0.40190 0.02260 0.26500
H 	H 	0.17560 0.01740 0.30020 0.00200
H 	H 	0.18030 0.07090 0.31400 0.02800
H 	H 	0.16710 0.03960 0.22220 0.01000
H 	H 	0.21840 0.13080 0.23760 0.13400
H 	H 	0.18010 0.11410 0.19280 0.10900
H 	H 	0.09350 0.17070 0.30610 0.07900
H 	H 	0.98200 0.17740 0.29100 0.03600
H 	H 	0.93720 0.14230 0.22460 0.05300
H 	H 	0.00400 0.10060 0.17320 0.04200
H 	H 	0.11550 0.09390 0.18830 0.07200
H 	H 	0.43800 0.97790 0.86570 0.08200
H 	H 	0.49240 0.99310 0.82900 0.06700
H 	H 	0.44150 0.02980 0.89970 -0.00000
H 	H 	0.45710 0.10510 0.85660 0.11100
H 	H 	0.44940 0.07030 0.81490 0.09000
H 	H 	0.42180 0.08810 0.04190 0.04200
H 	H 	0.39590 0.16240 0.16110 0.05700
H 	H 	0.50850 0.21540 0.05890 0.05000
H 	H 	0.39400 0.23250 0.19050 0.11000
H 	H 	0.42920 0.29420 0.23970 0.01000
H 	H 	0.55510 0.25070 0.11350 0.12200
H 	H 	0.36400 0.03620 0.06510 0.10100
H 	H 	0.30800 0.97700 0.09220 0.01900
H 	H 	0.33510 0.10780 0.18560 0.11900
H 	H 	0.55710 0.20410 0.99440 0.12700
H 	H 	0.60140 0.19460 0.92260 -0.00700
H 	H 	0.46440 0.08360 0.98170 0.12200
H 	H 	0.21110 0.61050 0.83880 0.05400
H 	H 	0.21040 0.62670 0.89160 0.08000
H 	H 	0.10450 0.61130 0.83730 -0.03900
H 	H 	0.03930 0.63390 0.90530 0.20900
H 	H 	0.10280 0.65240 0.93070 0.22600
H 	H 	0.04470 0.54530 0.88030 0.28000
H 	H 	0.05280 0.47340 0.90960 -0.20800
H 	H 	0.11200 0.45970 0.97470 0.25300
H 	H 	0.18440 0.52210 0.00170 -0.14700
H 	H 	0.15640 0.59810 0.97740 0.26300
H 	H 	0.67560 0.98260 0.69980 0.00400
H 	H 	0.68030 0.92910 0.68600 0.02900
H 	H 	0.66710 0.96040 0.77780 0.00900
H 	H 	0.71840 0.86920 0.76240 0.13700
H 	H 	0.68010 0.88590 0.80720 0.11200
H 	H 	0.59350 0.82930 0.69390 0.09600
H 	H 	0.48200 0.82260 0.70900 0.00600
H 	H 	0.43720 0.85770 0.77540 0.07700
H 	H 	0.50400 0.89940 0.82680 0.02500
H 	H 	0.61550 0.90610 0.81170 0.08600
H 	H 	0.93800 0.02210 0.13430 0.08100
H 	H 	0.99240 0.00690 0.17100 0.06800
H 	H 	0.94150 0.97020 0.10030 0.00000
H 	H 	0.95710 0.89490 0.14340 0.11400
H 	H 	0.94940 0.92970 0.18510 0.09200
H 	H 	0.92180 0.91190 0.95810 0.04500
H 	H 	0.89590 0.83760 0.83890 0.05500
H 	H 	0.00850 0.78460 0.94110 0.04100
H 	H 	0.89400 0.76750 0.80950 0.11700
H 	H 	0.92920 0.70580 0.76030 0.00300
H 	H 	0.05510 0.74930 0.88650 0.12900
H 	H 	0.86400 0.96380 0.93490 0.10200
H 	H 	0.80800 0.02300 0.90780 0.01800
H 	H 	0.83510 0.89220 0.81440 0.12000
H 	H 	0.05710 0.79590 0.00560 0.11900
H 	H 	0.10140 0.80540 0.07740 -0.00100
H 	H 	0.96440 0.91640 0.01830 0.11100
H 	H 	0.46110 0.66120 0.11050 0.05400
H 	H 	0.46040 0.60840 0.12670 0.08000
H 	H 	0.35450 0.66270 0.11130 -0.03900
H 	H 	0.28930 0.59470 0.13390 0.21100
H 	H 	0.35280 0.56930 0.15240 0.22700
H 	H 	0.29470 0.61970 0.04530 0.28300
H 	H 	0.30280 0.59040 0.97340 -0.20700
H 	H 	0.36200 0.52530 0.95970 0.25600
H 	H 	0.43440 0.49830 0.02210 -0.14900
H 	H 	0.40640 0.52260 0.09810 0.26400
H 	H 	0.92560 0.80020 0.48260 0.00200
H 	H 	0.93030 0.81400 0.42910 0.02700
H 	H 	0.91710 0.72220 0.46040 0.00900
H 	H 	0.96840 0.73760 0.36920 0.14100
H 	H 	0.93010 0.69280 0.38590 0.11500
H 	H 	0.84350 0.80610 0.32930 0.09700
H 	H 	0.73200 0.79100 0.32260 0.00600
H 	H 	0.68720 0.72460 0.35770 0.07700
H 	H 	0.75400 0.67320 0.39940 0.02500
H 	H 	0.86550 0.68830 0.40610 0.08700
H 	H 	0.18800 0.36570 0.52210 0.08100
H 	H 	0.24240 0.32900 0.50690 0.06700
H 	H 	0.19150 0.39970 0.47020 -0.00100
H 	H 	0.20710 0.35660 0.39490 0.11100
H 	H 	0.19940 0.31490 0.42970 0.09000
H 	H 	0.17180 0.54190 0.41190 0.04100
H 	H 	0.14590 0.66110 0.33760 0.05600
H 	H 	0.25850 0.55890 0.28460 0.05000
H 	H 	0.14400 0.69050 0.26750 0.11000
H 	H 	0.17920 0.73970 0.20580 0.01000
H 	H 	0.30510 0.61350 0.24930 0.12200
H 	H 	0.11400 0.56510 0.46380 0.10200
H 	H 	0.05800 0.59220 0.52300 0.01500
H 	H 	0.08510 0.68560 0.39220 0.12000
H 	H 	0.30710 0.49440 0.29590 0.12700
H 	H 	0.35140 0.42260 0.30540 -0.00700
H 	H 	0.21440 0.48170 0.41640 0.12200
H 	H 	0.96110 0.33880 0.88950 0.05700
H 	H 	0.96040 0.39160 0.87330 0.08200
H 	H 	0.85450 0.33730 0.88870 -0.03900
H 	H 	0.78930 0.40530 0.86610 0.21200
H 	H 	0.85280 0.43070 0.84760 0.22800
H 	H 	0.79470 0.38030 0.95470 0.28400
H 	H 	0.80280 0.40960 0.02660 -0.20800
H 	H 	0.86200 0.47470 0.04030 0.25700
H 	H 	0.93440 0.50170 0.97790 -0.14700
H 	H 	0.90640 0.47740 0.90190 0.26600
H 	H 	0.42560 0.19980 0.51740 0.00300
H 	H 	0.43030 0.18600 0.57090 0.02900
H 	H 	0.41710 0.27780 0.53960 0.00900
H 	H 	0.46840 0.26240 0.63080 0.13700
H 	H 	0.43010 0.30720 0.61410 0.11200
H 	H 	0.34350 0.19390 0.67070 0.09500
H 	H 	0.23200 0.20900 0.67740 0.00600
H 	H 	0.18720 0.27540 0.64230 0.07600
H 	H 	0.25400 0.32680 0.60060 0.02500
H 	H 	0.36550 0.31170 0.59390 0.08600
H 	H 	0.68800 0.63430 0.47790 0.08200
H 	H 	0.74240 0.67100 0.49310 0.06800
H 	H 	0.69150 0.60030 0.52980 -0.00000
H 	H 	0.70710 0.64340 0.60510 0.11100
H 	H 	0.69940 0.68510 0.57030 0.09000
H 	H 	0.67180 0.45810 0.58810 0.04200
H 	H 	0.64590 0.33890 0.66240 0.05700
H 	H 	0.75850 0.44110 0.71540 0.05000
H 	H 	0.64400 0.30950 0.73250 0.11100
H 	H 	0.67920 0.26030 0.79420 0.01000
H 	H 	0.80510 0.38650 0.75070 0.12200
H 	H 	0.61400 0.43490 0.53620 0.10100
H 	H 	0.55800 0.40780 0.47700 0.01900
H 	H 	0.58510 0.31440 0.60780 0.11900
H 	H 	0.80710 0.50560 0.70410 0.12700
H 	H 	0.85140 0.57740 0.69460 -0.00600
H 	H 	0.71440 0.51830 0.58360 0.12200
C 	C 	0.58150 0.20540 0.66620 0.33800
C 	C 	0.55490 0.13440 0.63980 -0.10000
C 	C 	0.62890 0.13480 0.64040 0.20600
C 	C 	0.66380 0.12910 0.59120 -0.60300
C 	C 	0.65050 0.07990 0.57250 0.62800
C 	C 	0.68020 0.04090 0.59280 -0.73900
C 	C 	0.67480 0.99800 0.57590 0.68300
C 	C 	0.63840 0.98940 0.53910 -0.65200
C 	C 	0.59850 0.02740 0.52040 0.50800
C 	C 	0.61270 0.07230 0.53750 -0.67300
C 	C 	0.94790 0.46100 0.76720 0.35600
C 	C 	0.05030 0.45370 0.79490 0.04400
C 	C 	0.05320 0.43920 0.73930 0.07800
C 	C 	0.06777 0.38862 0.72683 -0.26500
C 	C 	0.13443 0.36832 0.74867 0.13600
C 	C 	0.17443 0.34332 0.77945 -0.17600
C 	C 	0.24124 0.33933 0.77043 0.06400
C 	C 	0.26806 0.36034 0.73062 -0.12700
C 	C 	0.22806 0.38534 0.69983 0.04200
C 	C 	0.16125 0.38934 0.70886 -0.14300
C 	C 	0.69654 0.48662 0.41560 0.29500
C 	C 	0.77020 0.50608 0.36197 -0.13100
C 	C 	0.77340 0.46424 0.37687 0.18500
C 	C 	0.81287 0.42462 0.34756 -0.22900
C 	C 	0.82170 0.38475 0.55961 -0.04700
C 	C 	0.85120 0.38020 0.60400 -0.01000
C 	C 	0.83610 0.34020 0.63110 -0.05500
C 	C 	0.79560 0.30490 0.61520 -0.01300
C 	C 	0.76860 0.30840 0.57020 -0.05000
C 	C 	0.78180 0.34770 0.54180 -0.02500
C 	C 	0.77680 0.26560 0.64690 0.12800
C 	C 	0.81630 0.25240 0.68480 -0.18400
C 	C 	0.79420 0.21490 0.71480 0.12700
C 	C 	0.73630 0.19230 0.70830 -0.22800
C 	C 	0.69880 0.20370 0.66980 0.21900
C 	C 	0.72060 0.24140 0.63940 -0.22300
C 	C 	0.89230 0.41840 0.62180 0.11100
C 	C 	0.90380 0.46140 0.59510 -0.17600
C 	C 	0.93760 0.49640 0.61100 0.12200
C 	C 	0.96840 0.49630 0.65620 -0.19000
C 	C 	0.95850 0.45650 0.68240 0.19900
C 	C 	0.92080 0.41820 0.66620 -0.20600
C 	C 	0.74870 0.35350 0.49450 0.16000
C 	C 	0.70410 0.32230 0.47680 -0.23500
C 	C 	0.67580 0.32900 0.43440 0.16900
C 	C 	0.68520 0.36870 0.40760 -0.23400
C 	C 	0.72700 0.40310 0.42800 0.22100
C 	C 	0.75730 0.39380 0.46950 -0.25400
C 	C 	0.71790 0.15700 0.74580 0.46900
C 	C 	0.00540 0.53910 0.67160 0.42200
C 	C 	0.64640 0.37640 0.36390 0.45500
C 	C 	0.08150 0.79460 0.33380 0.33800
C 	C 	0.05490 0.86560 0.36020 -0.09700
C 	C 	0.12890 0.86520 0.35960 0.20400
C 	C 	0.16380 0.87090 0.40880 -0.60100
C 	C 	0.15050 0.92010 0.42750 0.62500
C 	C 	0.18020 0.95910 0.40720 -0.73600
C 	C 	0.17480 0.00200 0.42410 0.68000
C 	C 	0.13840 0.01060 0.46090 -0.65100
C 	C 	0.09850 0.97260 0.47960 0.50600
C 	C 	0.11270 0.92770 0.46250 -0.67200
C 	C 	0.44790 0.53900 0.23280 0.35700
C 	C 	0.55030 0.54630 0.20510 0.05500
C 	C 	0.55320 0.56080 0.26070 0.08300
C 	C 	0.56777 0.61138 0.27317 -0.26900
C 	C 	0.63443 0.63168 0.25133 0.13900
C 	C 	0.67443 0.65668 0.22055 -0.17800
C 	C 	0.74124 0.66067 0.22957 0.06700
C 	C 	0.76806 0.63966 0.26938 -0.12900
C 	C 	0.72806 0.61466 0.30017 0.04400
C 	C 	0.66125 0.61066 0.29114 -0.14500
C 	C 	0.19654 0.51338 0.58440 0.29500
C 	C 	0.27020 0.49392 0.63803 -0.13000
C 	C 	0.27340 0.53576 0.62313 0.18500
C 	C 	0.31287 0.57538 0.65244 -0.23000
C 	C 	0.32170 0.61525 0.44039 -0.04600
C 	C 	0.35120 0.61980 0.39600 -0.01200
C 	C 	0.33610 0.65980 0.36890 -0.05500
C 	C 	0.29560 0.69510 0.38480 -0.01400
C 	C 	0.26860 0.69160 0.42980 -0.04900
C 	C 	0.28180 0.65230 0.45820 -0.02600
C 	C 	0.27680 0.73440 0.35310 0.12800
C 	C 	0.31630 0.74760 0.31520 -0.18400
C 	C 	0.29420 0.78510 0.28520 0.12700
C 	C 	0.23630 0.80770 0.29170 -0.22800
C 	C 	0.19880 0.79630 0.33020 0.21900
C 	C 	0.22060 0.75860 0.36060 -0.22300
C 	C 	0.39230 0.58160 0.37820 0.11300
C 	C 	0.40380 0.53860 0.40490 -0.18100
C 	C 	0.43760 0.50360 0.38900 0.12800
C 	C 	0.46840 0.50370 0.34380 -0.20100
C 	C 	0.45850 0.54350 0.31760 0.20100
C 	C 	0.42080 0.58180 0.33380 -0.21000
C 	C 	0.24870 0.64650 0.50550 0.16100
C 	C 	0.20410 0.67770 0.52320 -0.23500
C 	C 	0.17580 0.67100 0.56560 0.16900
C 	C 	0.18520 0.63130 0.59240 -0.23500
C 	C 	0.22700 0.59690 0.57200 0.22100
C 	C 	0.25730 0.60620 0.53050 -0.25400
C 	C 	0.21790 0.84300 0.25420 0.46900
C 	C 	0.50540 0.46090 0.32840 0.43100
C 	C 	0.14640 0.62360 0.63610 0.45500
C 	C 	0.83150 0.83380 0.70540 0.33700
C 	C 	0.80490 0.86020 0.63440 -0.10000
C 	C 	0.87890 0.85960 0.63480 0.20600
C 	C 	0.91380 0.90880 0.62910 -0.60500
C 	C 	0.90050 0.92750 0.57990 0.63000
C 	C 	0.93020 0.90720 0.54090 -0.74000
C 	C 	0.92480 0.92410 0.49800 0.68600
C 	C 	0.88840 0.96090 0.48940 -0.65300
C 	C 	0.84850 0.97960 0.52740 0.51100
C 	C 	0.86270 0.96250 0.57230 -0.67500
C 	C 	0.19790 0.73280 0.96100 0.35700
C 	C 	0.30030 0.70510 0.95370 0.05500
C 	C 	0.30320 0.76070 0.93920 0.08300
C 	C 	0.31777 0.77317 0.88862 -0.26900
C 	C 	0.38443 0.75133 0.86832 0.13900
C 	C 	0.42443 0.72055 0.84332 -0.17800
C 	C 	0.49124 0.72957 0.83933 0.06600
C 	C 	0.51806 0.76938 0.86034 -0.12900
C 	C 	0.47806 0.80017 0.88534 0.04400
C 	C 	0.41125 0.79114 0.88934 -0.14500
C 	C 	0.94654 0.08440 0.98662 0.29600
C 	C 	0.02020 0.13803 0.00608 -0.13400
C 	C 	0.02340 0.12313 0.96424 0.17700
C 	C 	0.06287 0.15244 0.92462 -0.22800
C 	C 	0.07170 0.94039 0.88475 -0.04300
C 	C 	0.10120 0.89600 0.88020 -0.01200
C 	C 	0.08610 0.86890 0.84020 -0.06100
C 	C 	0.04560 0.88480 0.80490 -0.00400
C 	C 	0.01860 0.92980 0.80840 -0.06300
C 	C 	0.03180 0.95820 0.84770 -0.03700
C 	C 	0.02680 0.85310 0.76560 0.10600
C 	C 	0.06630 0.81520 0.75240 -0.16800
C 	C 	0.04420 0.78520 0.71490 0.10400
C 	C 	0.98630 0.79170 0.69230 -0.21200
C 	C 	0.94880 0.83020 0.70370 0.20800
C 	C 	0.97060 0.86060 0.74140 -0.20000
C 	C 	0.14230 0.87820 0.91840 0.11200
C 	C 	0.15380 0.90490 0.96140 -0.18100
C 	C 	0.18760 0.88900 0.99640 0.12800
C 	C 	0.21840 0.84380 0.99630 -0.20000
C 	C 	0.20850 0.81760 0.95650 0.20100
C 	C 	0.17080 0.83380 0.91820 -0.21000
C 	C 	0.99870 0.00550 0.85350 0.19400
C 	C 	0.95410 0.02320 0.82230 -0.25900
C 	C 	0.92580 0.06560 0.82900 0.18900
C 	C 	0.93520 0.09240 0.86870 -0.24800
C 	C 	0.97700 0.07200 0.90310 0.24400
C 	C 	0.00730 0.03050 0.89380 -0.29500
C 	C 	0.96790 0.75420 0.65700 0.47400
C 	C 	0.25540 0.82840 0.03910 0.43100
C 	C 	0.89640 0.13610 0.87640 0.46000
C 	C 	0.33150 0.16620 0.29460 0.33800
C 	C 	0.30490 0.13980 0.36560 -0.09900
C 	C 	0.37890 0.14040 0.36520 0.20500
C 	C 	0.41380 0.09120 0.37090 -0.60200
C 	C 	0.40050 0.07250 0.42010 0.62500
C 	C 	0.43020 0.09280 0.45910 -0.73600
C 	C 	0.42480 0.07590 0.50200 0.68000
C 	C 	0.38840 0.03910 0.51060 -0.64900
C 	C 	0.34850 0.02040 0.47260 0.50500
C 	C 	0.36270 0.03750 0.42770 -0.67100
C 	C 	0.69790 0.26720 0.03900 0.35700
C 	C 	0.80030 0.29490 0.04630 0.05300
C 	C 	0.80320 0.23930 0.06080 0.08700
C 	C 	0.81777 0.22683 0.11138 -0.28000
C 	C 	0.88443 0.24867 0.13168 0.16800
C 	C 	0.92443 0.27945 0.15668 -0.22400
C 	C 	0.99124 0.27043 0.16067 0.13700
C 	C 	0.01806 0.23062 0.13966 -0.19800
C 	C 	0.97806 0.19983 0.11466 0.09900
C 	C 	0.91125 0.20886 0.11066 -0.18200
C 	C 	0.44654 0.91560 0.01338 0.29500
C 	C 	0.52020 0.86197 0.99392 -0.13000
C 	C 	0.52340 0.87687 0.03576 0.18500
C 	C 	0.56287 0.84756 0.07538 -0.23000
C 	C 	0.57170 0.05961 0.11525 -0.04600
C 	C 	0.60120 0.10400 0.11980 -0.01200
C 	C 	0.58610 0.13110 0.15980 -0.05500
C 	C 	0.54560 0.11520 0.19510 -0.01400
C 	C 	0.51860 0.07020 0.19160 -0.04900
C 	C 	0.53180 0.04180 0.15230 -0.02600
C 	C 	0.52680 0.14690 0.23440 0.12800
C 	C 	0.56630 0.18480 0.24760 -0.18400
C 	C 	0.54420 0.21480 0.28510 0.12700
C 	C 	0.48630 0.20830 0.30770 -0.22800
C 	C 	0.44880 0.16980 0.29630 0.21900
C 	C 	0.47060 0.13940 0.25860 -0.22300
C 	C 	0.64230 0.12180 0.08160 0.11300
C 	C 	0.65380 0.09510 0.03860 -0.18100
C 	C 	0.68760 0.11100 0.00360 0.12900
C 	C 	0.71840 0.15620 0.00370 -0.20100
C 	C 	0.70850 0.18240 0.04350 0.20100
C 	C 	0.67080 0.16620 0.08180 -0.21000
C 	C 	0.49870 0.99450 0.14650 0.16000
C 	C 	0.45410 0.97680 0.17770 -0.23500
C 	C 	0.42580 0.93440 0.17100 0.16900
C 	C 	0.43520 0.90760 0.13130 -0.23400
C 	C 	0.47700 0.92800 0.09690 0.22100
C 	C 	0.50730 0.96950 0.10620 -0.25400
C 	C 	0.46790 0.24580 0.34300 0.46900
C 	C 	0.75540 0.17160 0.96090 0.43100
C 	C 	0.39640 0.86390 0.12360 0.45500
C 	C 	0.66850 0.29460 0.16620 0.33800
C 	C 	0.69510 0.36560 0.13980 -0.09900
C 	C 	0.62110 0.36520 0.14040 0.20500
C 	C 	0.58620 0.37090 0.09120 -0.60200
C 	C 	0.59950 0.42010 0.07250 0.62600
C 	C 	0.56980 0.45910 0.09280 -0.73600
C 	C 	0.57520 0.50200 0.07590 0.68100
C 	C 	0.61160 0.51060 0.03910 -0.65000
C 	C 	0.65150 0.47260 0.02040 0.50600
C 	C 	0.63730 0.42770 0.03750 -0.67100
C 	C 	0.30210 0.03900 0.26720 0.35700
C 	C 	0.19970 0.04630 0.29490 0.05700
C 	C 	0.19680 0.06080 0.23930 0.07900
C 	C 	0.18223 0.11138 0.22683 -0.25700
C 	C 	0.11557 0.13168 0.24867 0.11000
C 	C 	0.07557 0.15668 0.27945 -0.13300
C 	C 	0.00876 0.16067 0.27043 -0.00500
C 	C 	0.98194 0.13966 0.23062 -0.05800
C 	C 	0.02194 0.11466 0.19983 -0.01200
C 	C 	0.08875 0.11066 0.20886 -0.10700
C 	C 	0.55346 0.01338 0.91560 0.29400
C 	C 	0.47980 0.99392 0.86197 -0.12900
C 	C 	0.47660 0.03576 0.87687 0.18400
C 	C 	0.43713 0.07538 0.84756 -0.23000
C 	C 	0.42830 0.11525 0.05961 -0.04600
C 	C 	0.39880 0.11980 0.10400 -0.01200
C 	C 	0.41390 0.15980 0.13110 -0.05500
C 	C 	0.45440 0.19510 0.11520 -0.01400
C 	C 	0.48140 0.19160 0.07020 -0.05000
C 	C 	0.46820 0.15230 0.04180 -0.02500
C 	C 	0.47320 0.23440 0.14690 0.12800
C 	C 	0.43370 0.24760 0.18480 -0.18400
C 	C 	0.45580 0.28510 0.21480 0.12700
C 	C 	0.51370 0.30770 0.20830 -0.22800
C 	C 	0.55120 0.29630 0.16980 0.21900
C 	C 	0.52940 0.25860 0.13940 -0.22300
C 	C 	0.35770 0.08160 0.12180 0.11300
C 	C 	0.34620 0.03860 0.09510 -0.18100
C 	C 	0.31240 0.00360 0.11100 0.12900
C 	C 	0.28160 0.00370 0.15620 -0.20100
C 	C 	0.29150 0.04350 0.18240 0.20100
C 	C 	0.32920 0.08180 0.16620 -0.21000
C 	C 	0.50130 0.14650 0.99450 0.16000
C 	C 	0.54590 0.17770 0.97680 -0.23400
C 	C 	0.57420 0.17100 0.93440 0.16800
C 	C 	0.56480 0.13130 0.90760 -0.23400
C 	C 	0.52300 0.09690 0.92800 0.22000
C 	C 	0.49270 0.10620 0.96950 -0.25300
C 	C 	0.53210 0.34300 0.24580 0.46900
C 	C 	0.24460 0.96090 0.17160 0.43200
C 	C 	0.60360 0.12360 0.86390 0.45500
C 	C 	0.16850 0.70540 0.83380 0.33800
C 	C 	0.19510 0.63440 0.86020 -0.09900
C 	C 	0.12110 0.63480 0.85960 0.20500
C 	C 	0.08620 0.62910 0.90880 -0.59900
C 	C 	0.09950 0.57990 0.92750 0.62100
C 	C 	0.06980 0.54090 0.90720 -0.73300
C 	C 	0.07520 0.49800 0.92410 0.67500
C 	C 	0.11160 0.48940 0.96090 -0.64600
C 	C 	0.15150 0.52740 0.97960 0.50200
C 	C 	0.13730 0.57230 0.96250 -0.66800
C 	C 	0.80210 0.96100 0.73280 0.35700
C 	C 	0.69970 0.95370 0.70510 0.05500
C 	C 	0.69680 0.93920 0.76070 0.08300
C 	C 	0.68223 0.88862 0.77317 -0.26900
C 	C 	0.61557 0.86832 0.75133 0.13900
C 	C 	0.57557 0.84332 0.72055 -0.17800
C 	C 	0.50876 0.83933 0.72957 0.06600
C 	C 	0.48194 0.86034 0.76938 -0.12900
C 	C 	0.52194 0.88534 0.80017 0.04400
C 	C 	0.58875 0.88934 0.79114 -0.14500
C 	C 	0.05346 0.98662 0.08440 0.29400
C 	C 	0.97980 0.00608 0.13803 -0.12300
C 	C 	0.97660 0.96424 0.12313 0.18900
C 	C 	0.93713 0.92462 0.15244 -0.23100
C 	C 	0.92830 0.88475 0.94039 -0.04900
C 	C 	0.89880 0.88020 0.89600 -0.01200
C 	C 	0.91390 0.84020 0.86890 -0.04800
C 	C 	0.95440 0.80490 0.88480 -0.02500
C 	C 	0.98140 0.80840 0.92980 -0.03500
C 	C 	0.96820 0.84770 0.95820 -0.01500
C 	C 	0.97320 0.76560 0.85310 0.15200
C 	C 	0.93370 0.75240 0.81520 -0.20100
C 	C 	0.95580 0.71490 0.78520 0.15000
C 	C 	0.01370 0.69230 0.79170 -0.24400
C 	C 	0.05120 0.70370 0.83020 0.22900
C 	C 	0.02940 0.74140 0.86060 -0.24600
C 	C 	0.85770 0.91840 0.87820 0.11500
C 	C 	0.84620 0.96140 0.90490 -0.18200
C 	C 	0.81240 0.99640 0.88900 0.13000
C 	C 	0.78160 0.99630 0.84380 -0.20100
C 	C 	0.79150 0.95650 0.81760 0.20200
C 	C 	0.82920 0.91820 0.83380 -0.21000
C 	C 	0.00130 0.85350 0.00550 0.12900
C 	C 	0.04590 0.82230 0.02320 -0.21200
C 	C 	0.07420 0.82900 0.06560 0.15000
C 	C 	0.06480 0.86870 0.09240 -0.22200
C 	C 	0.02300 0.90310 0.07200 0.19900
C 	C 	0.99270 0.89380 0.03050 -0.21600
C 	C 	0.03210 0.65700 0.75420 0.46400
C 	C 	0.74460 0.03910 0.82840 0.43100
C 	C 	0.10360 0.87640 0.13610 0.45000
C 	C 	0.41850 0.66620 0.20540 0.33800
C 	C 	0.44510 0.63980 0.13440 -0.09900
C 	C 	0.37110 0.64040 0.13480 0.20500
C 	C 	0.33620 0.59120 0.12910 -0.60100
C 	C 	0.34950 0.57250 0.07990 0.62500
C 	C 	0.31980 0.59280 0.04090 -0.73500
C 	C 	0.32520 0.57590 0.99800 0.67900
C 	C 	0.36160 0.53910 0.98940 -0.64900
C 	C 	0.40150 0.52040 0.02740 0.50600
C 	C 	0.38730 0.53750 0.07230 -0.67100
C 	C 	0.05210 0.76720 0.46100 0.35800
C 	C 	0.94970 0.79490 0.45370 0.06500
C 	C 	0.94680 0.73930 0.43920 0.08700
C 	C 	0.93223 0.72683 0.38862 -0.27200
C 	C 	0.86557 0.74867 0.36832 0.14200
C 	C 	0.82557 0.77945 0.34332 -0.18000
C 	C 	0.75876 0.77043 0.33933 0.06800
C 	C 	0.73194 0.73062 0.36034 -0.13000
C 	C 	0.77194 0.69983 0.38534 0.04600
C 	C 	0.83875 0.70886 0.38934 -0.14700
C 	C 	0.30346 0.41560 0.48662 0.29500
C 	C 	0.22980 0.36197 0.50608 -0.13000
C 	C 	0.22660 0.37687 0.46424 0.18500
C 	C 	0.18713 0.34756 0.42462 -0.23100
C 	C 	0.17830 0.55961 0.38475 -0.04500
C 	C 	0.14880 0.60400 0.38020 -0.01400
C 	C 	0.16390 0.63110 0.34020 -0.05400
C 	C 	0.20440 0.61520 0.30490 -0.01500
C 	C 	0.23140 0.57020 0.30840 -0.04900
C 	C 	0.21820 0.54180 0.34770 -0.02700
C 	C 	0.22320 0.64690 0.26560 0.12900
C 	C 	0.18370 0.68480 0.25240 -0.18500
C 	C 	0.20580 0.71480 0.21490 0.12700
C 	C 	0.26370 0.70830 0.19230 -0.22800
C 	C 	0.30120 0.66980 0.20370 0.21900
C 	C 	0.27940 0.63940 0.24140 -0.22300
C 	C 	0.10770 0.62180 0.41840 0.11500
C 	C 	0.09620 0.59510 0.46140 -0.18600
C 	C 	0.06240 0.61100 0.49640 0.13400
C 	C 	0.03160 0.65620 0.49630 -0.21100
C 	C 	0.04150 0.68240 0.45650 0.20400
C 	C 	0.07920 0.66620 0.41820 -0.21300
C 	C 	0.25130 0.49450 0.35350 0.16000
C 	C 	0.29590 0.47680 0.32230 -0.23500
C 	C 	0.32420 0.43440 0.32900 0.16900
C 	C 	0.31480 0.40760 0.36870 -0.23500
C 	C 	0.27300 0.42800 0.40310 0.22100
C 	C 	0.24270 0.46950 0.39380 -0.25400
C 	C 	0.28210 0.74580 0.15700 0.46900
C 	C 	0.99460 0.67160 0.53910 0.44000
C 	C 	0.35360 0.36390 0.37640 0.45500
C 	C 	0.91850 0.33380 0.79460 0.33700
C 	C 	0.94510 0.36020 0.86560 -0.10200
C 	C 	0.87110 0.35960 0.86520 0.20700
C 	C 	0.83620 0.40880 0.87090 -0.60300
C 	C 	0.84950 0.42750 0.92010 0.62700
C 	C 	0.81980 0.40720 0.95910 -0.73700
C 	C 	0.82520 0.42410 0.00200 0.68200
C 	C 	0.86160 0.46090 0.01060 -0.65000
C 	C 	0.90150 0.47960 0.97260 0.50800
C 	C 	0.88730 0.46250 0.92770 -0.67200
C 	C 	0.55210 0.23280 0.53900 0.35700
C 	C 	0.44970 0.20510 0.54630 0.05500
C 	C 	0.44680 0.26070 0.56080 0.08300
C 	C 	0.43223 0.27317 0.61138 -0.26900
C 	C 	0.36557 0.25133 0.63168 0.13900
C 	C 	0.32557 0.22055 0.65668 -0.17900
C 	C 	0.25876 0.22957 0.66067 0.06600
C 	C 	0.23194 0.26938 0.63966 -0.12900
C 	C 	0.27194 0.30017 0.61466 0.04400
C 	C 	0.33875 0.29114 0.61066 -0.14500
C 	C 	0.80346 0.58440 0.51338 0.29500
C 	C 	0.72980 0.63803 0.49392 -0.13100
C 	C 	0.72660 0.62313 0.53576 0.18500
C 	C 	0.68713 0.65244 0.57538 -0.23000
C 	C 	0.67830 0.44039 0.61525 -0.04600
C 	C 	0.64880 0.39600 0.61980 -0.01200
C 	C 	0.66390 0.36890 0.65980 -0.05500
C 	C 	0.70440 0.38480 0.69510 -0.01400
C 	C 	0.73140 0.42980 0.69160 -0.04900
C 	C 	0.71820 0.45820 0.65230 -0.02600
C 	C 	0.72320 0.35310 0.73440 0.12800
C 	C 	0.68370 0.31520 0.74760 -0.18400
C 	C 	0.70580 0.28520 0.78510 0.12700
C 	C 	0.76370 0.29170 0.80770 -0.22800
C 	C 	0.80120 0.33020 0.79630 0.21900
C 	C 	0.77940 0.36060 0.75860 -0.22300
C 	C 	0.60770 0.37820 0.58160 0.11300
C 	C 	0.59620 0.40490 0.53860 -0.18100
C 	C 	0.56240 0.38900 0.50360 0.12800
C 	C 	0.53160 0.34380 0.50370 -0.20100
C 	C 	0.54150 0.31760 0.54350 0.20100
C 	C 	0.57920 0.33380 0.58180 -0.21000
C 	C 	0.75130 0.50550 0.64650 0.16000
C 	C 	0.79590 0.52320 0.67770 -0.23400
C 	C 	0.82420 0.56560 0.67100 0.16800
C 	C 	0.81480 0.59240 0.63130 -0.23400
C 	C 	0.77300 0.57200 0.59690 0.22000
C 	C 	0.74270 0.53050 0.60620 -0.25300
C 	C 	0.78210 0.25420 0.84300 0.46900
C 	C 	0.49460 0.32840 0.46090 0.43100
C 	C 	0.85360 0.63610 0.62360 0.45500
N 	N 	0.63890 0.18300 0.65920 -0.21100
N 	N 	0.98530 0.45130 0.72930 -0.19000
N 	N 	0.73399 0.45003 0.40542 -0.22200
N 	N 	0.13890 0.81700 0.34080 -0.21100
N 	N 	0.48530 0.54870 0.27070 -0.19500
N 	N 	0.23399 0.54997 0.59458 -0.22200
N 	N 	0.88890 0.84080 0.68300 -0.20900
N 	N 	0.23530 0.77070 0.95130 -0.19500
N 	N 	0.98399 0.09458 0.95003 -0.22000
N 	N 	0.38890 0.15920 0.31700 -0.21100
N 	N 	0.73530 0.22930 0.04870 -0.19500
N 	N 	0.48399 0.90542 0.04997 -0.22200
N 	N 	0.61110 0.31700 0.15920 -0.21100
N 	N 	0.26470 0.04870 0.22930 -0.19400
N 	N 	0.51601 0.04997 0.90542 -0.22200
N 	N 	0.11110 0.68300 0.84080 -0.21200
N 	N 	0.76470 0.95130 0.77070 -0.19500
N 	N 	0.01601 0.95003 0.09458 -0.22400
N 	N 	0.36110 0.65920 0.18300 -0.21100
N 	N 	0.01470 0.72930 0.45130 -0.19900
N 	N 	0.26601 0.40542 0.45003 -0.22200
N 	N 	0.86110 0.34080 0.81700 -0.21100
N 	N 	0.51470 0.27070 0.54870 -0.19500
N 	N 	0.76601 0.59458 0.54997 -0.22200
O 	O 	0.57430 0.24730 0.67690 -0.26600
O 	O 	0.53000 0.17860 0.65320 -0.22700
O 	O 	0.89050 0.46860 0.76970 -0.28900
O 	O 	0.98930 0.45930 0.80590 -0.25900
O 	O 	0.63690 0.49129 0.42310 -0.23000
O 	O 	0.72549 0.52511 0.38825 -0.18600
O 	O 	0.66345 0.13619 0.74106 -0.51500
O 	O 	0.75449 0.15090 0.77869 -0.48200
O 	O 	0.00209 0.57459 0.64475 -0.44800
O 	O 	0.04168 0.53718 0.70768 -0.50500
O 	O 	0.60309 0.34874 0.35436 -0.48300
O 	O 	0.66323 0.41034 0.33718 -0.49800
O 	O 	0.07430 0.75270 0.32310 -0.26800
O 	O 	0.03000 0.82140 0.34680 -0.23000
O 	O 	0.39050 0.53140 0.23030 -0.29000
O 	O 	0.48930 0.54070 0.19410 -0.26700
O 	O 	0.13690 0.50871 0.57690 -0.23100
O 	O 	0.22549 0.47489 0.61175 -0.18700
O 	O 	0.16345 0.86381 0.25894 -0.51500
O 	O 	0.25449 0.84910 0.22131 -0.48200
O 	O 	0.50209 0.42541 0.35525 -0.44600
O 	O 	0.54168 0.46282 0.29232 -0.50500
O 	O 	0.10309 0.65126 0.64564 -0.48400
O 	O 	0.16323 0.58966 0.66282 -0.49800
O 	O 	0.82430 0.82310 0.74730 -0.26600
O 	O 	0.78000 0.84680 0.67860 -0.22700
O 	O 	0.14050 0.73030 0.96860 -0.29000
O 	O 	0.23930 0.69410 0.95930 -0.26700
O 	O 	0.88690 0.07690 0.99129 -0.22900
O 	O 	0.97549 0.11175 0.02511 -0.18100
O 	O 	0.91345 0.75894 0.63619 -0.51500
O 	O 	0.00449 0.72131 0.65090 -0.49000
O 	O 	0.25209 0.85525 0.07459 -0.44600
O 	O 	0.29168 0.79232 0.03718 -0.50500
O 	O 	0.85309 0.14564 0.84874 -0.48400
O 	O 	0.91323 0.16282 0.91034 -0.49700
O 	O 	0.32430 0.17690 0.25270 -0.26600
O 	O 	0.28000 0.15320 0.32140 -0.22700
O 	O 	0.64050 0.26970 0.03140 -0.29000
O 	O 	0.73930 0.30590 0.04070 -0.26600
O 	O 	0.38690 0.92310 0.00871 -0.23000
O 	O 	0.47549 0.88825 0.97489 -0.18600
O 	O 	0.41345 0.24106 0.36381 -0.51500
O 	O 	0.50449 0.27869 0.34910 -0.48200
O 	O 	0.75209 0.14475 0.92541 -0.44600
O 	O 	0.79168 0.20768 0.96282 -0.50400
O 	O 	0.35309 0.85436 0.15126 -0.48300
O 	O 	0.41323 0.83718 0.08966 -0.49800
O 	O 	0.67570 0.25270 0.17690 -0.26600
O 	O 	0.72000 0.32140 0.15320 -0.22700
O 	O 	0.35950 0.03140 0.26970 -0.29000
O 	O 	0.26070 0.04070 0.30590 -0.26800
O 	O 	0.61310 0.00871 0.92310 -0.23000
O 	O 	0.52451 0.97489 0.88825 -0.18600
O 	O 	0.58655 0.36381 0.24106 -0.51500
O 	O 	0.49551 0.34910 0.27869 -0.48200
O 	O 	0.24791 0.92541 0.14475 -0.44600
O 	O 	0.20832 0.96282 0.20768 -0.50500
O 	O 	0.64691 0.15126 0.85436 -0.48300
O 	O 	0.58677 0.08966 0.83718 -0.49800
O 	O 	0.17570 0.74730 0.82310 -0.26700
O 	O 	0.22000 0.67860 0.84680 -0.22700
O 	O 	0.85950 0.96860 0.73030 -0.28900
O 	O 	0.76070 0.95930 0.69410 -0.26700
O 	O 	0.11310 0.99129 0.07690 -0.23000
O 	O 	0.02451 0.02511 0.11175 -0.19300
O 	O 	0.08655 0.63619 0.75894 -0.51400
O 	O 	0.99551 0.65090 0.72131 -0.47300
O 	O 	0.74791 0.07459 0.85525 -0.44600
O 	O 	0.70832 0.03718 0.79232 -0.50500
O 	O 	0.14691 0.84874 0.14564 -0.48200
O 	O 	0.08677 0.91034 0.16282 -0.49800
O 	O 	0.42570 0.67690 0.24730 -0.26600
O 	O 	0.47000 0.65320 0.17860 -0.22700
O 	O 	0.10950 0.76970 0.46860 -0.29100
O 	O 	0.01070 0.80590 0.45930 -0.27500
O 	O 	0.36310 0.42310 0.49129 -0.23000
O 	O 	0.27451 0.38825 0.52511 -0.18700
O 	O 	0.33655 0.74106 0.13619 -0.51500
O 	O 	0.24551 0.77869 0.15090 -0.48200
O 	O 	0.99791 0.64475 0.57459 -0.44400
O 	O 	0.95832 0.70768 0.53718 -0.50500
O 	O 	0.39691 0.35436 0.34874 -0.48300
O 	O 	0.33677 0.33718 0.41034 -0.49800
O 	O 	0.92570 0.32310 0.75270 -0.26400
O 	O 	0.97000 0.34680 0.82140 -0.22400
O 	O 	0.60950 0.23030 0.53140 -0.29000
O 	O 	0.51070 0.19410 0.54070 -0.26700
O 	O 	0.86310 0.57690 0.50871 -0.22800
O 	O 	0.77451 0.61175 0.47489 -0.18600
O 	O 	0.83655 0.25894 0.86381 -0.51400
O 	O 	0.74551 0.22131 0.84910 -0.48200
O 	O 	0.49791 0.35525 0.42541 -0.44600
O 	O 	0.45832 0.29232 0.46282 -0.50500
O 	O 	0.89691 0.64564 0.65126 -0.48100
O 	O 	0.83677 0.66282 0.58966 -0.49700
