data_crystal

_cell_length_a 26.20410
_cell_length_b 13.76630
_cell_length_c 43.60390
_cell_angle_alpha 90.00000
_cell_angle_beta  90.00000
_cell_angle_gamma 90.00000

_symmetry_space_group_name_	'P 1'
_symmetry_space_group_name_H-M	'P 1'

loop_
_symmetry_equiv_pos_as_xyz
  x,y,z

loop_
_atom_site_label
_atom_site_type_symbol
_atom_site_fract_x
_atom_site_fract_y
_atom_site_fract_z
_atom_site_charge
Zn	Zn	0.26433 0.78030 0.65296 1.18300
Zn	Zn	0.51235 0.09660 0.90836 1.18800
Zn	Zn	0.01920 0.13840 0.88556 1.19300
C 	C 	0.27390 0.97900 0.78650 0.11300
C 	C 	0.27820 0.93600 0.75370 0.01000
C 	C 	0.32200 0.89300 0.74420 -0.05000
C 	C 	0.23190 0.92800 0.73480 -0.03700
C 	C 	0.31310 0.01100 0.83260 0.10600
C 	C 	0.22640 0.00500 0.82970 0.11000
C 	C 	0.32460 0.86400 0.71300 0.04600
C 	C 	0.23710 0.88000 0.70650 0.02400
C 	C 	0.36150 0.01400 0.85100 0.02700
C 	C 	0.17620 0.02300 0.84280 0.00900
C 	C 	0.36080 0.02600 0.88140 -0.05500
C 	C 	0.40670 0.01000 0.83640 -0.05800
C 	C 	0.13390 0.02200 0.82280 -0.05400
C 	C 	0.16850 0.04800 0.87370 -0.04400
C 	C 	0.40420 0.05900 0.89490 0.05200
C 	C 	0.45020 0.03700 0.85210 0.05800
C 	C 	0.08650 0.02900 0.83490 0.04500
C 	C 	0.11950 0.07000 0.88220 0.02100
C 	C 	0.33750 0.81980 0.59940 0.05500
C 	C 	0.31710 0.95600 0.62880 0.01000
C 	C 	0.36350 0.87700 0.57820 -0.05400
C 	C 	0.33540 0.02000 0.60420 -0.03100
C 	C 	0.36310 0.97500 0.58150 0.01200
C 	C 	0.37970 0.03800 0.55660 0.11300
C 	C 	0.41600 0.17700 0.54400 0.12900
C 	C 	0.42810 0.04800 0.51400 0.11900
C 	C 	0.43150 0.27800 0.55320 0.00400
C 	C 	0.44320 0.00700 0.48200 0.00900
C 	C 	0.47230 0.32300 0.53780 -0.06000
C 	C 	0.41520 0.32100 0.57980 -0.06000
C 	C 	0.46900 0.07000 0.46080 -0.05700
C 	C 	0.44040 0.91000 0.47690 -0.02800
C 	C 	0.48590 0.41400 0.54650 0.06700
C 	C 	0.43410 0.40800 0.58810 0.03000
C 	C 	0.48630 0.02800 0.43340 0.05400
C 	C 	0.45510 0.87000 0.44870 -0.01300
Br	Br	0.30109 0.61400 0.66567 -0.41000
Br	Br	0.17998 0.77970 0.63800 -0.48800
Br	Br	0.57409 0.15480 0.87640 -0.48600
Br	Br	0.47641 0.17060 0.95049 -0.50400
Br	Br	0.95474 0.07150 0.85920 -0.48200
Br	Br	0.04940 0.29860 0.89098 -0.48700
N 	N 	0.31790 0.99000 0.80220 -0.13600
N 	N 	0.22660 0.99200 0.79850 -0.13600
N 	N 	0.26800 0.00990 0.84840 -0.13500
N 	N 	0.28100 0.84700 0.69640 -0.23300
N 	N 	0.31820 0.85000 0.62600 -0.24200
N 	N 	0.44760 0.06000 0.88100 -0.24300
N 	N 	0.07950 0.07140 0.86270 -0.23700
N 	N 	0.38570 0.13200 0.56180 -0.15100
N 	N 	0.40220 0.99030 0.53250 -0.14400
N 	N 	0.44300 0.13800 0.52270 -0.14600
N 	N 	0.46330 0.46120 0.56840 -0.22700
N 	N 	0.47090 0.94000 0.42610 -0.23800
H 	H 	0.35472 0.88155 0.76105 0.05400
H 	H 	0.19435 0.95988 0.74335 0.05700
H 	H 	0.36327 0.85454 0.70140 0.02900
H 	H 	0.20228 0.86835 0.69126 0.01000
H 	H 	0.32472 0.00871 0.89495 0.05700
H 	H 	0.40856 0.98467 0.81153 0.05800
H 	H 	0.14004 0.01539 0.79700 0.05600
H 	H 	0.20215 0.04921 0.89026 0.05100
H 	H 	0.40310 0.08725 0.91947 0.01600
H 	H 	0.48852 0.03918 0.83974 0.01600
H 	H 	0.05230 0.99926 0.82175 0.03000
H 	H 	0.11056 0.08864 0.90710 -0.00100
H 	H 	0.33115 0.73928 0.59463 0.01400
H 	H 	0.30143 0.98853 0.65092 0.02400
H 	H 	0.38479 0.84139 0.55836 0.05100
H 	H 	0.32632 0.10096 0.60486 0.06200
H 	H 	0.49298 0.28303 0.51857 0.06800
H 	H 	0.38570 0.28307 0.59483 0.08100
H 	H 	0.47456 0.15003 0.46663 0.07700
H 	H 	0.42590 0.85955 0.49571 0.04600
H 	H 	0.51865 0.45272 0.53439 0.02100
H 	H 	0.42578 0.43828 0.61191 0.01700
H 	H 	0.51333 0.07003 0.41780 0.01700
H 	H 	0.45390 0.78798 0.44517 0.02100
Zn	Zn	0.23567 0.21970 0.15296 1.18400
Zn	Zn	0.98765 0.90340 0.40836 1.18900
Zn	Zn	0.48080 0.86160 0.38556 1.19400
C 	C 	0.22610 0.02100 0.28650 0.11400
C 	C 	0.22180 0.06400 0.25370 0.01000
C 	C 	0.17800 0.10700 0.24420 -0.05000
C 	C 	0.26810 0.07200 0.23480 -0.03700
C 	C 	0.18690 0.98900 0.33260 0.10700
C 	C 	0.27360 0.99500 0.32970 0.11100
C 	C 	0.17540 0.13600 0.21300 0.04600
C 	C 	0.26290 0.12000 0.20650 0.02400
C 	C 	0.13850 0.98600 0.35100 0.02600
C 	C 	0.32380 0.97700 0.34280 0.00900
C 	C 	0.13920 0.97400 0.38140 -0.05500
C 	C 	0.09330 0.99000 0.33640 -0.05500
C 	C 	0.36610 0.97800 0.32280 -0.05500
C 	C 	0.33150 0.95200 0.37370 -0.04400
C 	C 	0.09580 0.94100 0.39490 0.05200
C 	C 	0.04980 0.96300 0.35210 0.05800
C 	C 	0.41350 0.97100 0.33490 0.04700
C 	C 	0.38050 0.93000 0.38220 0.02100
C 	C 	0.16250 0.18020 0.09940 0.05400
C 	C 	0.18290 0.04400 0.12880 0.00700
C 	C 	0.13650 0.12300 0.07820 -0.05200
C 	C 	0.16460 0.98000 0.10420 -0.02700
C 	C 	0.13690 0.02500 0.08150 0.00700
C 	C 	0.12030 0.96200 0.05660 0.11600
C 	C 	0.08400 0.82300 0.04400 0.12900
C 	C 	0.07190 0.95200 0.01400 0.12000
C 	C 	0.06850 0.72200 0.05320 0.00400
C 	C 	0.05680 0.99300 0.98200 0.01100
C 	C 	0.02770 0.67700 0.03780 -0.06000
C 	C 	0.08480 0.67900 0.07980 -0.06000
C 	C 	0.03100 0.93000 0.96080 -0.05800
C 	C 	0.05960 0.09000 0.97690 -0.03000
C 	C 	0.01410 0.58600 0.04650 0.06700
C 	C 	0.06590 0.59200 0.08810 0.03000
C 	C 	0.01370 0.97200 0.93340 0.05800
C 	C 	0.04490 0.13000 0.94870 -0.01200
Br	Br	0.19891 0.38600 0.16567 -0.41000
Br	Br	0.32002 0.22030 0.13800 -0.48900
Br	Br	0.92591 0.84520 0.37640 -0.48700
Br	Br	0.02359 0.82940 0.45049 -0.50200
Br	Br	0.54526 0.92850 0.35920 -0.48300
Br	Br	0.45060 0.70140 0.39098 -0.48700
N 	N 	0.18210 0.01000 0.30220 -0.13700
N 	N 	0.27340 0.00800 0.29850 -0.13700
N 	N 	0.23200 0.99010 0.34840 -0.13500
N 	N 	0.21900 0.15300 0.19640 -0.23300
N 	N 	0.18180 0.15000 0.12600 -0.24200
N 	N 	0.05240 0.94000 0.38100 -0.24200
N 	N 	0.42050 0.92860 0.36270 -0.23700
N 	N 	0.11430 0.86800 0.06180 -0.15200
N 	N 	0.09780 0.00970 0.03250 -0.14500
N 	N 	0.05700 0.86200 0.02270 -0.14600
N 	N 	0.03670 0.53880 0.06840 -0.22700
N 	N 	0.02910 0.06000 0.92610 -0.24000
H 	H 	0.14528 0.11845 0.26105 0.05400
H 	H 	0.30565 0.04012 0.24335 0.05700
H 	H 	0.13673 0.14546 0.20140 0.02900
H 	H 	0.29772 0.13165 0.19126 0.01000
H 	H 	0.17528 0.99129 0.39495 0.05800
H 	H 	0.09144 0.01533 0.31153 0.05700
H 	H 	0.35996 0.98461 0.29700 0.05600
H 	H 	0.29785 0.95079 0.39026 0.05100
H 	H 	0.09690 0.91275 0.41947 0.01600
H 	H 	0.01148 0.96082 0.33974 0.01700
H 	H 	0.44770 0.00074 0.32175 0.02800
H 	H 	0.38944 0.91136 0.40710 -0.00100
H 	H 	0.16885 0.26072 0.09463 0.01400
H 	H 	0.19857 0.01147 0.15092 0.02400
H 	H 	0.11521 0.15861 0.05836 0.05000
H 	H 	0.17368 0.89904 0.10486 0.06200
H 	H 	0.00702 0.71697 0.01857 0.06800
H 	H 	0.11430 0.71693 0.09483 0.08100
H 	H 	0.02544 0.84997 0.96663 0.07800
H 	H 	0.07410 0.14045 0.99571 0.04700
H 	H 	0.98135 0.54728 0.03439 0.02100
H 	H 	0.07422 0.56172 0.11191 0.01700
H 	H 	0.98667 0.92997 0.91780 0.01600
H 	H 	0.04610 0.21202 0.94517 0.02100
Zn	Zn	0.73567 0.28030 0.84704 1.18400
Zn	Zn	0.48765 0.59660 0.59164 1.18900
Zn	Zn	0.98080 0.63840 0.61444 1.19400
C 	C 	0.72610 0.47900 0.71350 0.11400
C 	C 	0.72180 0.43600 0.74630 0.01000
C 	C 	0.67800 0.39300 0.75580 -0.05000
C 	C 	0.76810 0.42800 0.76520 -0.03700
C 	C 	0.68690 0.51100 0.66740 0.10700
C 	C 	0.77360 0.50500 0.67030 0.11100
C 	C 	0.67540 0.36400 0.78700 0.04600
C 	C 	0.76290 0.38000 0.79350 0.02400
C 	C 	0.63850 0.51400 0.64900 0.02600
C 	C 	0.82380 0.52300 0.65720 0.00900
C 	C 	0.63920 0.52600 0.61860 -0.05500
C 	C 	0.59330 0.51000 0.66360 -0.05600
C 	C 	0.86610 0.52200 0.67720 -0.05500
C 	C 	0.83150 0.54800 0.62630 -0.04400
C 	C 	0.59580 0.55900 0.60510 0.05200
C 	C 	0.54980 0.53700 0.64790 0.05800
C 	C 	0.91350 0.52900 0.66510 0.04800
C 	C 	0.88050 0.57000 0.61780 0.02100
C 	C 	0.66250 0.31980 0.90060 0.05400
C 	C 	0.68290 0.45600 0.87120 0.00900
C 	C 	0.63650 0.37700 0.92180 -0.05300
C 	C 	0.66460 0.52000 0.89580 -0.02900
C 	C 	0.63690 0.47500 0.91850 0.01000
C 	C 	0.62030 0.53800 0.94340 0.11400
C 	C 	0.58400 0.67700 0.95600 0.12900
C 	C 	0.57190 0.54800 0.98600 0.12000
C 	C 	0.56850 0.77800 0.94680 0.00400
C 	C 	0.55680 0.50700 0.01800 0.00900
C 	C 	0.52770 0.82300 0.96220 -0.06000
C 	C 	0.58480 0.82100 0.92020 -0.06000
C 	C 	0.53100 0.57000 0.03920 -0.05700
C 	C 	0.55960 0.41000 0.02310 -0.02800
C 	C 	0.51410 0.91400 0.95350 0.06700
C 	C 	0.56590 0.90800 0.91190 0.03000
C 	C 	0.51370 0.52800 0.06660 0.05400
C 	C 	0.54490 0.37000 0.05130 -0.01300
Br	Br	0.69891 0.11400 0.83433 -0.41000
Br	Br	0.82002 0.27970 0.86200 -0.48800
Br	Br	0.42591 0.65480 0.62360 -0.48600
Br	Br	0.52359 0.67060 0.54951 -0.50300
Br	Br	0.04526 0.57150 0.64080 -0.48200
Br	Br	0.95060 0.79860 0.60902 -0.48800
N 	N 	0.68210 0.49000 0.69780 -0.13700
N 	N 	0.77340 0.49200 0.70150 -0.13700
N 	N 	0.73200 0.50990 0.65160 -0.13500
N 	N 	0.71900 0.34700 0.80360 -0.23300
N 	N 	0.68180 0.35000 0.87400 -0.24200
N 	N 	0.55240 0.56000 0.61900 -0.24300
N 	N 	0.92050 0.57140 0.63730 -0.23700
N 	N 	0.61430 0.63200 0.93820 -0.15200
N 	N 	0.59780 0.49030 0.96750 -0.14400
N 	N 	0.55700 0.63800 0.97730 -0.14600
N 	N 	0.53670 0.96120 0.93160 -0.22600
N 	N 	0.52910 0.44000 0.07390 -0.23800
H 	H 	0.64528 0.38155 0.73895 0.05400
H 	H 	0.80565 0.45988 0.75665 0.05700
H 	H 	0.63673 0.35454 0.79860 0.02900
H 	H 	0.79772 0.36835 0.80874 0.01000
H 	H 	0.67528 0.50871 0.60505 0.05800
H 	H 	0.59144 0.48467 0.68847 0.05800
H 	H 	0.85996 0.51539 0.70300 0.05600
H 	H 	0.79785 0.54921 0.60974 0.05100
H 	H 	0.59690 0.58725 0.58053 0.01600
H 	H 	0.51148 0.53918 0.66026 0.01600
H 	H 	0.94770 0.49926 0.67825 0.02800
H 	H 	0.88944 0.58864 0.59290 -0.00100
H 	H 	0.66885 0.23928 0.90537 0.01400
H 	H 	0.69857 0.48853 0.84908 0.02400
H 	H 	0.61521 0.34139 0.94164 0.05100
H 	H 	0.67368 0.60096 0.89514 0.06200
H 	H 	0.50702 0.78303 0.98143 0.06800
H 	H 	0.61430 0.78307 0.90517 0.08100
H 	H 	0.52544 0.65003 0.03337 0.07700
H 	H 	0.57410 0.35955 0.00429 0.04600
H 	H 	0.48135 0.95272 0.96561 0.02100
H 	H 	0.57422 0.93828 0.88809 0.01700
H 	H 	0.48667 0.57003 0.08220 0.01700
H 	H 	0.54610 0.28798 0.05483 0.02100
Zn	Zn	0.76433 0.71970 0.34704 1.18400
Zn	Zn	0.01235 0.40340 0.09164 1.18900
Zn	Zn	0.51920 0.36160 0.11444 1.19400
C 	C 	0.77390 0.52100 0.21350 0.11400
C 	C 	0.77820 0.56400 0.24630 0.01000
C 	C 	0.82200 0.60700 0.25580 -0.05000
C 	C 	0.73190 0.57200 0.26520 -0.03700
C 	C 	0.81310 0.48900 0.16740 0.10700
C 	C 	0.72640 0.49500 0.17030 0.11100
C 	C 	0.82460 0.63600 0.28700 0.04600
C 	C 	0.73710 0.62000 0.29350 0.02400
C 	C 	0.86150 0.48600 0.14900 0.02600
C 	C 	0.67620 0.47700 0.15720 0.00900
C 	C 	0.86080 0.47400 0.11860 -0.05500
C 	C 	0.90670 0.49000 0.16360 -0.05600
C 	C 	0.63390 0.47800 0.17720 -0.05500
C 	C 	0.66850 0.45200 0.12630 -0.04400
C 	C 	0.90420 0.44100 0.10510 0.05200
C 	C 	0.95020 0.46300 0.14790 0.05800
C 	C 	0.58650 0.47100 0.16510 0.04800
C 	C 	0.61950 0.43000 0.11780 0.02100
C 	C 	0.83750 0.68020 0.40060 0.05400
C 	C 	0.81710 0.54400 0.37120 0.00900
C 	C 	0.86350 0.62300 0.42180 -0.05300
C 	C 	0.83540 0.48000 0.39580 -0.02900
C 	C 	0.86310 0.52500 0.41850 0.01000
C 	C 	0.87970 0.46200 0.44340 0.11400
C 	C 	0.91600 0.32300 0.45600 0.12900
C 	C 	0.92810 0.45200 0.48600 0.12000
C 	C 	0.93150 0.22200 0.44680 0.00400
C 	C 	0.94320 0.49300 0.51800 0.00900
C 	C 	0.97230 0.17700 0.46220 -0.06000
C 	C 	0.91520 0.17900 0.42020 -0.06000
C 	C 	0.96900 0.43000 0.53920 -0.05700
C 	C 	0.94040 0.59000 0.52310 -0.02800
C 	C 	0.98590 0.08600 0.45350 0.06900
C 	C 	0.93410 0.09200 0.41190 0.03100
C 	C 	0.98630 0.47200 0.56660 0.05400
C 	C 	0.95510 0.63000 0.55130 -0.01300
Br	Br	0.80109 0.88600 0.33433 -0.41100
Br	Br	0.67998 0.72030 0.36200 -0.48900
Br	Br	0.07409 0.34520 0.12360 -0.48600
Br	Br	0.97641 0.32940 0.04951 -0.50300
Br	Br	0.45474 0.42850 0.14080 -0.48300
Br	Br	0.54940 0.20140 0.10902 -0.48700
N 	N 	0.81790 0.51000 0.19780 -0.13700
N 	N 	0.72660 0.50800 0.20150 -0.13700
N 	N 	0.76800 0.49010 0.15160 -0.13500
N 	N 	0.78100 0.65300 0.30360 -0.23300
N 	N 	0.81820 0.65000 0.37400 -0.24200
N 	N 	0.94760 0.44000 0.11900 -0.24200
N 	N 	0.57950 0.42860 0.13730 -0.23700
N 	N 	0.88570 0.36800 0.43820 -0.15100
N 	N 	0.90220 0.50970 0.46750 -0.14400
N 	N 	0.94300 0.36200 0.47730 -0.14600
N 	N 	0.96330 0.03880 0.43160 -0.22600
N 	N 	0.97090 0.56000 0.57390 -0.23800
H 	H 	0.85472 0.61845 0.23895 0.05400
H 	H 	0.69435 0.54012 0.25665 0.05700
H 	H 	0.86327 0.64546 0.29860 0.02900
H 	H 	0.70228 0.63165 0.30874 0.01000
H 	H 	0.82472 0.49129 0.10505 0.05800
H 	H 	0.90856 0.51533 0.18847 0.05800
H 	H 	0.64004 0.48461 0.20300 0.05600
H 	H 	0.70215 0.45079 0.10974 0.05100
H 	H 	0.90310 0.41275 0.08053 0.01600
H 	H 	0.98852 0.46082 0.16026 0.01600
H 	H 	0.55230 0.50074 0.17825 0.02800
H 	H 	0.61056 0.41136 0.09290 -0.00100
H 	H 	0.83115 0.76072 0.40537 0.01400
H 	H 	0.80143 0.51147 0.34908 0.02400
H 	H 	0.88479 0.65861 0.44164 0.05100
H 	H 	0.82632 0.39904 0.39514 0.06200
H 	H 	0.99298 0.21697 0.48143 0.06900
H 	H 	0.88570 0.21693 0.40517 0.08100
H 	H 	0.97456 0.34997 0.53337 0.07800
H 	H 	0.92590 0.64045 0.50429 0.04600
H 	H 	0.01865 0.04728 0.46561 0.02000
H 	H 	0.92578 0.06172 0.38809 0.01800
H 	H 	0.01333 0.42997 0.58220 0.01700
H 	H 	0.95390 0.71202 0.55483 0.02100
Zn	Zn	0.73567 0.21970 0.34704 1.18400
Zn	Zn	0.48765 0.90340 0.09164 1.18900
Zn	Zn	0.98080 0.86160 0.11444 1.19400
C 	C 	0.72610 0.02100 0.21350 0.11400
C 	C 	0.72180 0.06400 0.24630 0.01000
C 	C 	0.67800 0.10700 0.25580 -0.05000
C 	C 	0.76810 0.07200 0.26520 -0.03700
C 	C 	0.68690 0.98900 0.16740 0.10600
C 	C 	0.77360 0.99500 0.17030 0.11000
C 	C 	0.67540 0.13600 0.28700 0.04600
C 	C 	0.76290 0.12000 0.29350 0.02400
C 	C 	0.63850 0.98600 0.14900 0.02700
C 	C 	0.82380 0.97700 0.15720 0.00900
C 	C 	0.63920 0.97400 0.11860 -0.05500
C 	C 	0.59330 0.99000 0.16360 -0.05800
C 	C 	0.86610 0.97800 0.17720 -0.05400
C 	C 	0.83150 0.95200 0.12630 -0.04400
C 	C 	0.59580 0.94100 0.10510 0.05200
C 	C 	0.54980 0.96300 0.14790 0.05800
C 	C 	0.91350 0.97100 0.16510 0.04500
C 	C 	0.88050 0.93000 0.11780 0.02100
C 	C 	0.66250 0.18020 0.40060 0.05500
C 	C 	0.68290 0.04400 0.37120 0.01000
C 	C 	0.63650 0.12300 0.42180 -0.05400
C 	C 	0.66460 0.98000 0.39580 -0.03100
C 	C 	0.63690 0.02500 0.41850 0.01200
C 	C 	0.62030 0.96200 0.44340 0.11300
C 	C 	0.58400 0.82300 0.45600 0.12900
C 	C 	0.57190 0.95200 0.48600 0.11900
C 	C 	0.56850 0.72200 0.44680 0.00400
C 	C 	0.55680 0.99300 0.51800 0.00900
C 	C 	0.52770 0.67700 0.46220 -0.06000
C 	C 	0.58480 0.67900 0.42020 -0.06000
C 	C 	0.53100 0.93000 0.53920 -0.05700
C 	C 	0.55960 0.09000 0.52310 -0.02800
C 	C 	0.51410 0.58600 0.45350 0.06700
C 	C 	0.56590 0.59200 0.41190 0.03000
C 	C 	0.51370 0.97200 0.56660 0.05400
C 	C 	0.54490 0.13000 0.55130 -0.01300
Br	Br	0.69891 0.38600 0.33433 -0.41000
Br	Br	0.82002 0.22030 0.36200 -0.48800
Br	Br	0.42591 0.84520 0.12360 -0.48600
Br	Br	0.52359 0.82940 0.04951 -0.50400
Br	Br	0.04526 0.92850 0.14080 -0.48200
Br	Br	0.95060 0.70140 0.10902 -0.48700
N 	N 	0.68210 0.01000 0.19780 -0.13600
N 	N 	0.77340 0.00800 0.20150 -0.13600
N 	N 	0.73200 0.99010 0.15160 -0.13500
N 	N 	0.71900 0.15300 0.30360 -0.23300
N 	N 	0.68180 0.15000 0.37400 -0.24200
N 	N 	0.55240 0.94000 0.11900 -0.24300
N 	N 	0.92050 0.92860 0.13730 -0.23700
N 	N 	0.61430 0.86800 0.43820 -0.15100
N 	N 	0.59780 0.00970 0.46750 -0.14400
N 	N 	0.55700 0.86200 0.47730 -0.14600
N 	N 	0.53670 0.53880 0.43160 -0.22700
N 	N 	0.52910 0.06000 0.57390 -0.23800
H 	H 	0.64528 0.11845 0.23895 0.05400
H 	H 	0.80565 0.04012 0.25665 0.05700
H 	H 	0.63673 0.14546 0.29860 0.02900
H 	H 	0.79772 0.13165 0.30874 0.01000
H 	H 	0.67528 0.99129 0.10505 0.05700
H 	H 	0.59144 0.01533 0.18847 0.05800
H 	H 	0.85996 0.98461 0.20300 0.05600
H 	H 	0.79785 0.95079 0.10974 0.05100
H 	H 	0.59690 0.91275 0.08053 0.01600
H 	H 	0.51148 0.96082 0.16026 0.01600
H 	H 	0.94770 0.00074 0.17825 0.03000
H 	H 	0.88944 0.91136 0.09290 -0.00100
H 	H 	0.66885 0.26072 0.40537 0.01400
H 	H 	0.69857 0.01147 0.34908 0.02400
H 	H 	0.61521 0.15861 0.44164 0.05100
H 	H 	0.67368 0.89904 0.39514 0.06200
H 	H 	0.50702 0.71697 0.48143 0.06800
H 	H 	0.61430 0.71693 0.40517 0.08100
H 	H 	0.52544 0.84997 0.53337 0.07700
H 	H 	0.57410 0.14045 0.50429 0.04600
H 	H 	0.48135 0.54728 0.46561 0.02100
H 	H 	0.57422 0.56172 0.38809 0.01700
H 	H 	0.48667 0.92997 0.58220 0.01700
H 	H 	0.54610 0.21202 0.55483 0.02100
Zn	Zn	0.76433 0.78030 0.84704 1.18400
Zn	Zn	0.01235 0.09660 0.59164 1.18900
Zn	Zn	0.51920 0.13840 0.61444 1.19400
C 	C 	0.77390 0.97900 0.71350 0.11400
C 	C 	0.77820 0.93600 0.74630 0.01000
C 	C 	0.82200 0.89300 0.75580 -0.05000
C 	C 	0.73190 0.92800 0.76520 -0.03700
C 	C 	0.81310 0.01100 0.66740 0.10700
C 	C 	0.72640 0.00500 0.67030 0.11100
C 	C 	0.82460 0.86400 0.78700 0.04600
C 	C 	0.73710 0.88000 0.79350 0.02400
C 	C 	0.86150 0.01400 0.64900 0.02600
C 	C 	0.67620 0.02300 0.65720 0.00900
C 	C 	0.86080 0.02600 0.61860 -0.05500
C 	C 	0.90670 0.01000 0.66360 -0.05500
C 	C 	0.63390 0.02200 0.67720 -0.05500
C 	C 	0.66850 0.04800 0.62630 -0.04400
C 	C 	0.90420 0.05900 0.60510 0.05200
C 	C 	0.95020 0.03700 0.64790 0.05800
C 	C 	0.58650 0.02900 0.66510 0.04700
C 	C 	0.61950 0.07000 0.61780 0.02100
C 	C 	0.83750 0.81980 0.90060 0.05400
C 	C 	0.81710 0.95600 0.87120 0.00700
C 	C 	0.86350 0.87700 0.92180 -0.05200
C 	C 	0.83540 0.02000 0.89580 -0.02700
C 	C 	0.86310 0.97500 0.91850 0.00700
C 	C 	0.87970 0.03800 0.94340 0.11600
C 	C 	0.91600 0.17700 0.95600 0.12900
C 	C 	0.92810 0.04800 0.98600 0.12000
C 	C 	0.93150 0.27800 0.94680 0.00400
C 	C 	0.94320 0.00700 0.01800 0.01100
C 	C 	0.97230 0.32300 0.96220 -0.06000
C 	C 	0.91520 0.32100 0.92020 -0.06000
C 	C 	0.96900 0.07000 0.03920 -0.05800
C 	C 	0.94040 0.91000 0.02310 -0.03000
C 	C 	0.98590 0.41400 0.95350 0.06700
C 	C 	0.93410 0.40800 0.91190 0.03000
C 	C 	0.98630 0.02800 0.06660 0.05800
C 	C 	0.95510 0.87000 0.05130 -0.01200
Br	Br	0.80109 0.61400 0.83433 -0.41000
Br	Br	0.67998 0.77970 0.86200 -0.48900
Br	Br	0.07409 0.15480 0.62360 -0.48700
Br	Br	0.97641 0.17060 0.54951 -0.50200
Br	Br	0.45474 0.07150 0.64080 -0.48300
Br	Br	0.54940 0.29860 0.60902 -0.48700
N 	N 	0.81790 0.99000 0.69780 -0.13700
N 	N 	0.72660 0.99200 0.70150 -0.13700
N 	N 	0.76800 0.00990 0.65160 -0.13500
N 	N 	0.78100 0.84700 0.80360 -0.23300
N 	N 	0.81820 0.85000 0.87400 -0.24200
N 	N 	0.94760 0.06000 0.61900 -0.24200
N 	N 	0.57950 0.07140 0.63730 -0.23700
N 	N 	0.88570 0.13200 0.93820 -0.15200
N 	N 	0.90220 0.99030 0.96750 -0.14500
N 	N 	0.94300 0.13800 0.97730 -0.14600
N 	N 	0.96330 0.46120 0.93160 -0.22700
N 	N 	0.97090 0.94000 0.07390 -0.24000
H 	H 	0.85472 0.88155 0.73895 0.05400
H 	H 	0.69435 0.95988 0.75665 0.05700
H 	H 	0.86327 0.85454 0.79860 0.02900
H 	H 	0.70228 0.86835 0.80874 0.01000
H 	H 	0.82472 0.00871 0.60505 0.05800
H 	H 	0.90856 0.98467 0.68847 0.05700
H 	H 	0.64004 0.01539 0.70300 0.05600
H 	H 	0.70215 0.04921 0.60974 0.05100
H 	H 	0.90310 0.08725 0.58053 0.01600
H 	H 	0.98852 0.03918 0.66026 0.01700
H 	H 	0.55230 0.99926 0.67825 0.02800
H 	H 	0.61056 0.08864 0.59290 -0.00100
H 	H 	0.83115 0.73928 0.90537 0.01400
H 	H 	0.80143 0.98853 0.84908 0.02400
H 	H 	0.88479 0.84139 0.94164 0.05000
H 	H 	0.82632 0.10096 0.89514 0.06200
H 	H 	0.99298 0.28303 0.98143 0.06800
H 	H 	0.88570 0.28307 0.90517 0.08100
H 	H 	0.97456 0.15003 0.03337 0.07800
H 	H 	0.92590 0.85955 0.00429 0.04700
H 	H 	0.01865 0.45272 0.96561 0.02100
H 	H 	0.92578 0.43828 0.88809 0.01700
H 	H 	0.01333 0.07003 0.08220 0.01600
H 	H 	0.95390 0.78798 0.05483 0.02100
Zn	Zn	0.26433 0.71970 0.15296 1.18400
Zn	Zn	0.51235 0.40340 0.40836 1.18900
Zn	Zn	0.01920 0.36160 0.38556 1.19400
C 	C 	0.27390 0.52100 0.28650 0.11400
C 	C 	0.27820 0.56400 0.25370 0.01000
C 	C 	0.32200 0.60700 0.24420 -0.05000
C 	C 	0.23190 0.57200 0.23480 -0.03700
C 	C 	0.31310 0.48900 0.33260 0.10700
C 	C 	0.22640 0.49500 0.32970 0.11100
C 	C 	0.32460 0.63600 0.21300 0.04600
C 	C 	0.23710 0.62000 0.20650 0.02400
C 	C 	0.36150 0.48600 0.35100 0.02600
C 	C 	0.17620 0.47700 0.34280 0.00900
C 	C 	0.36080 0.47400 0.38140 -0.05500
C 	C 	0.40670 0.49000 0.33640 -0.05600
C 	C 	0.13390 0.47800 0.32280 -0.05500
C 	C 	0.16850 0.45200 0.37370 -0.04400
C 	C 	0.40420 0.44100 0.39490 0.05200
C 	C 	0.45020 0.46300 0.35210 0.05800
C 	C 	0.08650 0.47100 0.33490 0.04800
C 	C 	0.11950 0.43000 0.38220 0.02100
C 	C 	0.33750 0.68020 0.09940 0.05400
C 	C 	0.31710 0.54400 0.12880 0.00900
C 	C 	0.36350 0.62300 0.07820 -0.05300
C 	C 	0.33540 0.48000 0.10420 -0.02900
C 	C 	0.36310 0.52500 0.08150 0.01000
C 	C 	0.37970 0.46200 0.05660 0.11400
C 	C 	0.41600 0.32300 0.04400 0.12900
C 	C 	0.42810 0.45200 0.01400 0.12000
C 	C 	0.43150 0.22200 0.05320 0.00400
C 	C 	0.44320 0.49300 0.98200 0.00900
C 	C 	0.47230 0.17700 0.03780 -0.06000
C 	C 	0.41520 0.17900 0.07980 -0.06000
C 	C 	0.46900 0.43000 0.96080 -0.05700
C 	C 	0.44040 0.59000 0.97690 -0.02800
C 	C 	0.48590 0.08600 0.04650 0.06700
C 	C 	0.43410 0.09200 0.08810 0.03000
C 	C 	0.48630 0.47200 0.93340 0.05400
C 	C 	0.45510 0.63000 0.94870 -0.01300
Br	Br	0.30109 0.88600 0.16567 -0.41000
Br	Br	0.17998 0.72030 0.13800 -0.48800
Br	Br	0.57409 0.34520 0.37640 -0.48600
Br	Br	0.47641 0.32940 0.45049 -0.50300
Br	Br	0.95474 0.42850 0.35920 -0.48200
Br	Br	0.04940 0.20140 0.39098 -0.48800
N 	N 	0.31790 0.51000 0.30220 -0.13700
N 	N 	0.22660 0.50800 0.29850 -0.13700
N 	N 	0.26800 0.49010 0.34840 -0.13500
N 	N 	0.28100 0.65300 0.19640 -0.23300
N 	N 	0.31820 0.65000 0.12600 -0.24200
N 	N 	0.44760 0.44000 0.38100 -0.24300
N 	N 	0.07950 0.42860 0.36270 -0.23700
N 	N 	0.38570 0.36800 0.06180 -0.15200
N 	N 	0.40220 0.50970 0.03250 -0.14400
N 	N 	0.44300 0.36200 0.02270 -0.14600
N 	N 	0.46330 0.03880 0.06840 -0.22600
N 	N 	0.47090 0.56000 0.92610 -0.23800
H 	H 	0.35472 0.61845 0.26105 0.05400
H 	H 	0.19435 0.54012 0.24335 0.05700
H 	H 	0.36327 0.64546 0.20140 0.02900
H 	H 	0.20228 0.63165 0.19126 0.01000
H 	H 	0.32472 0.49129 0.39495 0.05800
H 	H 	0.40856 0.51533 0.31153 0.05800
H 	H 	0.14004 0.48461 0.29700 0.05600
H 	H 	0.20215 0.45079 0.39026 0.05100
H 	H 	0.40310 0.41275 0.41947 0.01600
H 	H 	0.48852 0.46082 0.33974 0.01600
H 	H 	0.05230 0.50074 0.32175 0.02800
H 	H 	0.11056 0.41136 0.40710 -0.00100
H 	H 	0.33115 0.76072 0.09463 0.01400
H 	H 	0.30143 0.51147 0.15092 0.02400
H 	H 	0.38479 0.65861 0.05836 0.05100
H 	H 	0.32632 0.39904 0.10486 0.06200
H 	H 	0.49298 0.21697 0.01857 0.06800
H 	H 	0.38570 0.21693 0.09483 0.08100
H 	H 	0.47456 0.34997 0.96663 0.07700
H 	H 	0.42590 0.64045 0.99571 0.04600
H 	H 	0.51865 0.04728 0.03439 0.02100
H 	H 	0.42578 0.06172 0.11191 0.01700
H 	H 	0.51333 0.42997 0.91780 0.01700
H 	H 	0.45390 0.71202 0.94517 0.02100
Zn	Zn	0.23567 0.28030 0.65296 1.18400
Zn	Zn	0.98765 0.59660 0.90836 1.18900
Zn	Zn	0.48080 0.63840 0.88556 1.19400
C 	C 	0.22610 0.47900 0.78650 0.11400
C 	C 	0.22180 0.43600 0.75370 0.01000
C 	C 	0.17800 0.39300 0.74420 -0.05000
C 	C 	0.26810 0.42800 0.73480 -0.03700
C 	C 	0.18690 0.51100 0.83260 0.10700
C 	C 	0.27360 0.50500 0.82970 0.11100
C 	C 	0.17540 0.36400 0.71300 0.04600
C 	C 	0.26290 0.38000 0.70650 0.02400
C 	C 	0.13850 0.51400 0.85100 0.02600
C 	C 	0.32380 0.52300 0.84280 0.00900
C 	C 	0.13920 0.52600 0.88140 -0.05500
C 	C 	0.09330 0.51000 0.83640 -0.05600
C 	C 	0.36610 0.52200 0.82280 -0.05500
C 	C 	0.33150 0.54800 0.87370 -0.04400
C 	C 	0.09580 0.55900 0.89490 0.05200
C 	C 	0.04980 0.53700 0.85210 0.05800
C 	C 	0.41350 0.52900 0.83490 0.04800
C 	C 	0.38050 0.57000 0.88220 0.02100
C 	C 	0.16250 0.31980 0.59940 0.05400
C 	C 	0.18290 0.45600 0.62880 0.00900
C 	C 	0.13650 0.37700 0.57820 -0.05300
C 	C 	0.16460 0.52000 0.60420 -0.02900
C 	C 	0.13690 0.47500 0.58150 0.01000
C 	C 	0.12030 0.53800 0.55660 0.11400
C 	C 	0.08400 0.67700 0.54400 0.12900
C 	C 	0.07190 0.54800 0.51400 0.12000
C 	C 	0.06850 0.77800 0.55320 0.00400
C 	C 	0.05680 0.50700 0.48200 0.00900
C 	C 	0.02770 0.82300 0.53780 -0.06000
C 	C 	0.08480 0.82100 0.57980 -0.06000
C 	C 	0.03100 0.57000 0.46080 -0.05700
C 	C 	0.05960 0.41000 0.47690 -0.02800
C 	C 	0.01410 0.91400 0.54650 0.06900
C 	C 	0.06590 0.90800 0.58810 0.03100
C 	C 	0.01370 0.52800 0.43340 0.05400
C 	C 	0.04490 0.37000 0.44870 -0.01300
Br	Br	0.19891 0.11400 0.66567 -0.41100
Br	Br	0.32002 0.27970 0.63800 -0.48900
Br	Br	0.92591 0.65480 0.87640 -0.48600
Br	Br	0.02359 0.67060 0.95049 -0.50300
Br	Br	0.54526 0.57150 0.85920 -0.48300
Br	Br	0.45060 0.79860 0.89098 -0.48700
N 	N 	0.18210 0.49000 0.80220 -0.13700
N 	N 	0.27340 0.49200 0.79850 -0.13700
N 	N 	0.23200 0.50990 0.84840 -0.13500
N 	N 	0.21900 0.34700 0.69640 -0.23300
N 	N 	0.18180 0.35000 0.62600 -0.24200
N 	N 	0.05240 0.56000 0.88100 -0.24200
N 	N 	0.42050 0.57140 0.86270 -0.23700
N 	N 	0.11430 0.63200 0.56180 -0.15100
N 	N 	0.09780 0.49030 0.53250 -0.14400
N 	N 	0.05700 0.63800 0.52270 -0.14600
N 	N 	0.03670 0.96120 0.56840 -0.22600
N 	N 	0.02910 0.44000 0.42610 -0.23800
H 	H 	0.14528 0.38155 0.76105 0.05400
H 	H 	0.30565 0.45988 0.74335 0.05700
H 	H 	0.13673 0.35454 0.70140 0.02900
H 	H 	0.29772 0.36835 0.69126 0.01000
H 	H 	0.17528 0.50871 0.89495 0.05800
H 	H 	0.09144 0.48467 0.81153 0.05800
H 	H 	0.35996 0.51539 0.79700 0.05600
H 	H 	0.29785 0.54921 0.89026 0.05100
H 	H 	0.09690 0.58725 0.91947 0.01600
H 	H 	0.01148 0.53918 0.83974 0.01600
H 	H 	0.44770 0.49926 0.82175 0.02800
H 	H 	0.38944 0.58864 0.90710 -0.00100
H 	H 	0.16885 0.23928 0.59463 0.01400
H 	H 	0.19857 0.48853 0.65092 0.02400
H 	H 	0.11521 0.34139 0.55836 0.05100
H 	H 	0.17368 0.60096 0.60486 0.06200
H 	H 	0.00702 0.78303 0.51857 0.06900
H 	H 	0.11430 0.78307 0.59483 0.08100
H 	H 	0.02544 0.65003 0.46663 0.07800
H 	H 	0.07410 0.35955 0.49571 0.04600
H 	H 	0.98135 0.95272 0.53439 0.02000
H 	H 	0.07422 0.93828 0.61191 0.01800
H 	H 	0.98667 0.57003 0.41780 0.01700
H 	H 	0.04610 0.28798 0.44517 0.02100
