data_crystal

_cell_length_a 26.29780
_cell_length_b 26.29780
_cell_length_c 7.07410
_cell_angle_alpha 90.00000
_cell_angle_beta  90.00000
_cell_angle_gamma 120.00000

_symmetry_space_group_name_	'P 1'
_symmetry_space_group_name_H-M	'P 1'

loop_
_symmetry_equiv_pos_as_xyz
  x,y,z

loop_
_atom_site_label
_atom_site_type_symbol
_atom_site_fract_x
_atom_site_fract_y
_atom_site_fract_z
_atom_site_charge
Mn	Mn	0.95080 0.63850 0.01800 1.25400
C 	C 	0.01250 0.59020 0.75500 0.45700
C 	C 	0.00710 0.54550 0.87400 -0.24500
C 	C 	0.99300 0.54330 0.06800 0.20100
C 	C 	0.98180 0.49800 0.19300 -0.06300
H 	H 	0.97257 0.49750 0.33724 0.04800
O 	O 	0.03260 0.59300 0.58100 -0.46600
O 	O 	0.00870 0.63350 0.78900 -0.63700
O 	O 	0.97640 0.58030 0.14100 -0.55300
Mn	Mn	0.61747 0.97183 0.35133 1.25600
C 	C 	0.67917 0.92353 0.08833 0.45900
C 	C 	0.67377 0.87883 0.20733 -0.24500
C 	C 	0.65967 0.87663 0.40133 0.20200
C 	C 	0.64847 0.83133 0.52633 -0.06300
H 	H 	0.63924 0.83083 0.67057 0.04800
O 	O 	0.69927 0.92633 0.91433 -0.46700
O 	O 	0.67537 0.96683 0.12233 -0.63700
O 	O 	0.64307 0.91363 0.47433 -0.55300
Mn	Mn	0.28413 0.30517 0.68467 1.25600
C 	C 	0.34583 0.25687 0.42167 0.45900
C 	C 	0.34043 0.21217 0.54067 -0.24400
C 	C 	0.32633 0.20997 0.73467 0.20200
C 	C 	0.31513 0.16467 0.85967 -0.06200
H 	H 	0.30590 0.16417 0.00391 0.04700
O 	O 	0.36593 0.25967 0.24767 -0.46700
O 	O 	0.34203 0.30017 0.45567 -0.63700
O 	O 	0.30973 0.24697 0.80767 -0.55300
Mn	Mn	0.36150 0.31230 0.01800 1.25500
C 	C 	0.40980 0.42230 0.75500 0.45800
C 	C 	0.45450 0.46160 0.87400 -0.24400
C 	C 	0.45670 0.44970 0.06800 0.20200
C 	C 	0.50200 0.48380 0.19300 -0.06300
H 	H 	0.50250 0.47507 0.33724 0.04800
O 	O 	0.40700 0.43960 0.58100 -0.46600
O 	O 	0.36650 0.37520 0.78900 -0.63700
O 	O 	0.41970 0.39610 0.14100 -0.55300
Mn	Mn	0.02817 0.64563 0.35133 1.25600
C 	C 	0.07647 0.75563 0.08833 0.46000
C 	C 	0.12117 0.79493 0.20733 -0.24600
C 	C 	0.12337 0.78303 0.40133 0.20300
C 	C 	0.16867 0.81713 0.52633 -0.06400
H 	H 	0.16917 0.80840 0.67057 0.04800
O 	O 	0.07367 0.77293 0.91433 -0.46700
O 	O 	0.03317 0.70853 0.12233 -0.63700
O 	O 	0.08637 0.72943 0.47433 -0.55300
Mn	Mn	0.69483 0.97897 0.68467 1.25600
C 	C 	0.74313 0.08897 0.42167 0.45800
C 	C 	0.78783 0.12827 0.54067 -0.24400
C 	C 	0.79003 0.11637 0.73467 0.20100
C 	C 	0.83533 0.15047 0.85967 -0.06100
H 	H 	0.83583 0.14174 0.00391 0.04700
O 	O 	0.74033 0.10627 0.24767 -0.46700
O 	O 	0.69983 0.04187 0.45567 -0.63700
O 	O 	0.75303 0.06277 0.80767 -0.55200
Mn	Mn	0.68770 0.04920 0.01800 1.25500
C 	C 	0.57770 0.98750 0.75500 0.45800
C 	C 	0.53840 0.99290 0.87400 -0.24400
C 	C 	0.55030 0.00700 0.06800 0.20200
C 	C 	0.51620 0.01820 0.19300 -0.06300
H 	H 	0.52493 0.02743 0.33724 0.04800
O 	O 	0.56040 0.96740 0.58100 -0.46600
O 	O 	0.62480 0.99130 0.78900 -0.63700
O 	O 	0.60390 0.02360 0.14100 -0.55300
Mn	Mn	0.35437 0.38253 0.35133 1.25600
C 	C 	0.24437 0.32083 0.08833 0.45900
C 	C 	0.20507 0.32623 0.20733 -0.24500
C 	C 	0.21697 0.34033 0.40133 0.20200
C 	C 	0.18287 0.35153 0.52633 -0.06400
H 	H 	0.19160 0.36076 0.67057 0.04800
O 	O 	0.22707 0.30073 0.91433 -0.46600
O 	O 	0.29147 0.32463 0.12233 -0.63700
O 	O 	0.27057 0.35693 0.47433 -0.55300
Mn	Mn	0.02103 0.71587 0.68467 1.25600
C 	C 	0.91103 0.65417 0.42167 0.45800
C 	C 	0.87173 0.65957 0.54067 -0.24400
C 	C 	0.88363 0.67367 0.73467 0.20200
C 	C 	0.84953 0.68487 0.85967 -0.06200
H 	H 	0.85826 0.69410 0.00391 0.04700
O 	O 	0.89373 0.63407 0.24767 -0.46700
O 	O 	0.95813 0.65797 0.45567 -0.63700
O 	O 	0.93723 0.69027 0.80767 -0.55300
Mn	Mn	0.04920 0.36150 0.98200 1.25500
C 	C 	0.98750 0.40980 0.24500 0.45800
C 	C 	0.99290 0.45450 0.12600 -0.24400
C 	C 	0.00700 0.45670 0.93200 0.20200
C 	C 	0.01820 0.50200 0.80700 -0.06300
H 	H 	0.02743 0.50250 0.66276 0.04800
O 	O 	0.96740 0.40700 0.41900 -0.46600
O 	O 	0.99130 0.36650 0.21100 -0.63700
O 	O 	0.02360 0.41970 0.85900 -0.55300
Mn	Mn	0.71587 0.69483 0.31533 1.25600
C 	C 	0.65417 0.74313 0.57833 0.45900
C 	C 	0.65957 0.78783 0.45933 -0.24400
C 	C 	0.67367 0.79003 0.26533 0.20200
C 	C 	0.68487 0.83533 0.14033 -0.06200
H 	H 	0.69410 0.83583 0.99609 0.04700
O 	O 	0.63407 0.74033 0.75233 -0.46700
O 	O 	0.65797 0.69983 0.54433 -0.63700
O 	O 	0.69027 0.75303 0.19233 -0.55300
Mn	Mn	0.38253 0.02817 0.64867 1.25600
C 	C 	0.32083 0.07647 0.91167 0.45900
C 	C 	0.32623 0.12117 0.79267 -0.24500
C 	C 	0.34033 0.12337 0.59867 0.20200
C 	C 	0.35153 0.16867 0.47367 -0.06300
H 	H 	0.36076 0.16917 0.32943 0.04800
O 	O 	0.30073 0.07367 0.08567 -0.46700
O 	O 	0.32463 0.03317 0.87767 -0.63700
O 	O 	0.35693 0.08637 0.52567 -0.55300
Mn	Mn	0.63850 0.68770 0.98200 1.25500
C 	C 	0.59020 0.57770 0.24500 0.45800
C 	C 	0.54550 0.53840 0.12600 -0.24400
C 	C 	0.54330 0.55030 0.93200 0.20200
C 	C 	0.49800 0.51620 0.80700 -0.06300
H 	H 	0.49750 0.52493 0.66276 0.04800
O 	O 	0.59300 0.56040 0.41900 -0.46600
O 	O 	0.63350 0.62480 0.21100 -0.63700
O 	O 	0.58030 0.60390 0.85900 -0.55300
Mn	Mn	0.30517 0.02103 0.31533 1.25600
C 	C 	0.25687 0.91103 0.57833 0.45800
C 	C 	0.21217 0.87173 0.45933 -0.24400
C 	C 	0.20997 0.88363 0.26533 0.20100
C 	C 	0.16467 0.84953 0.14033 -0.06100
H 	H 	0.16417 0.85826 0.99609 0.04700
O 	O 	0.25967 0.89373 0.75233 -0.46700
O 	O 	0.30017 0.95813 0.54433 -0.63700
O 	O 	0.24697 0.93723 0.19233 -0.55200
Mn	Mn	0.97183 0.35437 0.64867 1.25600
C 	C 	0.92353 0.24437 0.91167 0.46000
C 	C 	0.87883 0.20507 0.79267 -0.24600
C 	C 	0.87663 0.21697 0.59867 0.20300
C 	C 	0.83133 0.18287 0.47367 -0.06400
H 	H 	0.83083 0.19160 0.32943 0.04800
O 	O 	0.92633 0.22707 0.08567 -0.46700
O 	O 	0.96683 0.29147 0.87767 -0.63700
O 	O 	0.91363 0.27057 0.52567 -0.55300
Mn	Mn	0.31230 0.95080 0.98200 1.25500
C 	C 	0.42230 0.01250 0.24500 0.45800
C 	C 	0.46160 0.00710 0.12600 -0.24400
C 	C 	0.44970 0.99300 0.93200 0.20200
C 	C 	0.48380 0.98180 0.80700 -0.06300
H 	H 	0.47507 0.97257 0.66276 0.04800
O 	O 	0.43960 0.03260 0.41900 -0.46600
O 	O 	0.37520 0.00870 0.21100 -0.63700
O 	O 	0.39610 0.97640 0.85900 -0.55300
Mn	Mn	0.97897 0.28413 0.31533 1.25600
C 	C 	0.08897 0.34583 0.57833 0.45800
C 	C 	0.12827 0.34043 0.45933 -0.24400
C 	C 	0.11637 0.32633 0.26533 0.20200
C 	C 	0.15047 0.31513 0.14033 -0.06200
H 	H 	0.14174 0.30590 0.99609 0.04700
O 	O 	0.10627 0.36593 0.75233 -0.46700
O 	O 	0.04187 0.34203 0.54433 -0.63700
O 	O 	0.06277 0.30973 0.19233 -0.55300
Mn	Mn	0.64563 0.61747 0.64867 1.25600
C 	C 	0.75563 0.67917 0.91167 0.45900
C 	C 	0.79493 0.67377 0.79267 -0.24500
C 	C 	0.78303 0.65967 0.59867 0.20200
C 	C 	0.81713 0.64847 0.47367 -0.06400
H 	H 	0.80840 0.63924 0.32943 0.04800
O 	O 	0.77293 0.69927 0.08567 -0.46600
O 	O 	0.70853 0.67537 0.87767 -0.63700
O 	O 	0.72943 0.64307 0.52567 -0.55300
