data_crystal

_cell_length_a 10.88800
_cell_length_b 12.82200
_cell_length_c 13.47830
_cell_angle_alpha 118.40200
_cell_angle_beta  109.35300
_cell_angle_gamma 90.00000

_symmetry_space_group_name_	'P 1'
_symmetry_space_group_name_H-M	'P 1'

loop_
_symmetry_equiv_pos_as_xyz
  x,y,z

loop_
_atom_site_label
_atom_site_type_symbol
_atom_site_fract_x
_atom_site_fract_y
_atom_site_fract_z
_atom_site_charge
Cd	Cd	0.75000 0.92086 -0.00000 1.13000
Cd	Cd	0.25000 0.07914 -0.00000 1.13500
H 	H 	0.89290 0.78440 0.14000 -0.02800
H 	H 	0.87960 0.71020 0.26280 0.06500
H 	H 	0.69940 0.73300 0.32580 0.05200
H 	H 	0.55860 0.90090 0.13560 -0.03000
H 	H 	0.40920 0.80740 0.20120 0.00100
H 	H 	0.49590 0.93020 0.32300 0.02200
H 	H 	0.53530 0.75440 0.51740 0.13100
H 	H 	0.41930 0.79970 0.64520 -0.01800
H 	H 	0.23520 0.89120 0.61880 0.09900
H 	H 	0.28730 0.89420 0.33460 0.11800
H 	H 	0.10080 0.97660 0.39200 0.05900
H 	H 	0.60710 0.64440 0.86000 0.02700
H 	H 	0.62040 0.44740 0.73720 0.07900
H 	H 	0.80060 0.40720 0.67420 0.06000
H 	H 	0.94140 0.76530 0.86440 0.02300
H 	H 	0.09080 0.60620 0.79880 0.05400
H 	H 	0.00410 0.60720 0.67700 0.03900
H 	H 	0.96470 0.23700 0.48260 0.11500
H 	H 	0.08070 0.15450 0.35480 -0.00600
H 	H 	0.26480 0.27240 0.38120 0.09800
H 	H 	0.21270 0.55960 0.66540 0.12700
H 	H 	0.39920 0.58460 0.60800 0.06400
H 	H 	0.10710 0.21560 0.86000 0.02900
H 	H 	0.12040 0.28980 0.73720 0.07900
H 	H 	0.30060 0.26700 0.67420 0.06600
H 	H 	0.44140 0.09910 0.86440 0.03300
H 	H 	0.59080 0.19260 0.79880 0.05700
H 	H 	0.50410 0.06980 0.67700 0.04500
H 	H 	0.46470 0.24560 0.48260 0.13300
H 	H 	0.58070 0.20030 0.35480 -0.01900
H 	H 	0.76480 0.10880 0.38120 0.10500
H 	H 	0.71270 0.10580 0.66540 0.13200
H 	H 	0.89920 0.02340 0.60800 0.06700
H 	H 	0.39290 0.35560 0.14000 -0.02500
H 	H 	0.37960 0.55260 0.26280 0.06400
H 	H 	0.19940 0.59280 0.32580 0.05700
H 	H 	0.05860 0.23470 0.13560 -0.01900
H 	H 	0.90920 0.39380 0.20120 0.00600
H 	H 	0.99590 0.39280 0.32300 0.02900
H 	H 	0.03530 0.76300 0.51740 0.14600
H 	H 	0.91930 0.84550 0.64520 -0.03100
H 	H 	0.73520 0.72760 0.61880 0.10600
H 	H 	0.78730 0.44040 0.33460 0.12400
H 	H 	0.60080 0.41540 0.39200 0.06400
C 	C 	0.81930 0.79356 0.16452 0.03600
C 	C 	0.81230 0.74950 0.23780 -0.09700
C 	C 	0.70600 0.76290 0.27500 -0.01400
C 	C 	0.60960 0.82076 0.23692 -0.03000
C 	C 	0.62470 0.86160 0.16240 0.00800
C 	C 	0.49240 0.84243 0.27426 0.04300
C 	C 	0.42170 0.82048 0.41536 0.26900
C 	C 	0.46080 0.79220 0.50680 -0.25600
C 	C 	0.39180 0.81874 0.58208 0.13900
C 	C 	0.28250 0.87300 0.56640 -0.20400
C 	C 	0.24200 0.90102 0.47364 0.15400
C 	C 	0.31320 0.87478 0.39756 -0.26400
C 	C 	0.12480 0.95514 0.45348 -0.06300
C 	C 	0.90880 0.01694 0.87548 0.12500
C 	C 	0.68070 0.62904 0.83548 0.06200
C 	C 	0.68770 0.51170 0.76220 -0.06900
C 	C 	0.79400 0.48790 0.72500 -0.00800
C 	C 	0.89040 0.58384 0.76308 0.00100
C 	C 	0.87530 0.69920 0.83760 0.02800
C 	C 	0.00760 0.56817 0.72574 0.02100
C 	C 	0.07830 0.40512 0.58464 0.26000
C 	C 	0.03920 0.28540 0.49320 -0.22300
C 	C 	0.10820 0.23666 0.41792 0.12200
C 	C 	0.21750 0.30660 0.43360 -0.18800
C 	C 	0.25800 0.42738 0.52636 0.15200
C 	C 	0.18680 0.47722 0.60244 -0.24700
C 	C 	0.37520 0.50166 0.54652 -0.05600
C 	C 	0.59120 0.14146 0.12452 0.05800
C 	C 	0.18070 0.20644 0.83548 0.06100
C 	C 	0.18770 0.25050 0.76220 -0.06200
C 	C 	0.29400 0.23710 0.72500 -0.01500
C 	C 	0.39040 0.17924 0.76308 0.01900
C 	C 	0.37530 0.13840 0.83760 0.02300
C 	C 	0.50760 0.15757 0.72574 0.00600
C 	C 	0.57830 0.17952 0.58464 0.27500
C 	C 	0.53920 0.20780 0.49320 -0.25400
C 	C 	0.60820 0.18126 0.41792 0.14400
C 	C 	0.71750 0.12700 0.43360 -0.20300
C 	C 	0.75800 0.09898 0.52636 0.16400
C 	C 	0.68680 0.12522 0.60244 -0.25800
C 	C 	0.87520 0.04486 0.54652 -0.06000
C 	C 	0.09120 0.98306 0.12452 0.03800
C 	C 	0.31930 0.37096 0.16452 0.03600
C 	C 	0.31230 0.48830 0.23780 -0.09000
C 	C 	0.20600 0.51210 0.27500 -0.02100
C 	C 	0.10960 0.41616 0.23692 -0.01200
C 	C 	0.12470 0.30080 0.16240 0.00300
C 	C 	0.99240 0.43183 0.27426 0.02800
C 	C 	0.92170 0.59488 0.41536 0.28400
C 	C 	0.96080 0.71460 0.50680 -0.28700
C 	C 	0.89180 0.76334 0.58208 0.16100
C 	C 	0.78250 0.69340 0.56640 -0.21800
C 	C 	0.74200 0.57262 0.47364 0.16600
C 	C 	0.81320 0.52278 0.39756 -0.27500
C 	C 	0.62480 0.49834 0.45348 -0.06700
C 	C 	0.40880 0.85854 0.87548 0.11700
S 	S 	0.74787 0.98271 0.83304 -0.20700
S 	S 	0.75213 0.14967 0.16696 -0.28500
S 	S 	0.25213 0.01729 0.16696 -0.26300
S 	S 	0.24787 0.85033 0.83304 -0.19100
N 	N 	0.72660 0.84902 0.12604 -0.25100
N 	N 	0.05410 0.97403 0.51706 -0.07800
N 	N 	0.02190 0.03912 0.90204 -0.21200
N 	N 	0.77340 0.72298 0.87396 -0.19100
N 	N 	0.44590 0.45697 0.48294 -0.07400
N 	N 	0.47810 0.13708 0.09796 -0.29000
N 	N 	0.27340 0.15098 0.87396 -0.18700
N 	N 	0.94590 0.02597 0.48294 -0.06900
N 	N 	0.97810 0.96088 0.09796 -0.29700
N 	N 	0.22660 0.27702 0.12604 -0.24600
N 	N 	0.55410 0.54303 0.51706 -0.07200
N 	N 	0.52190 0.86292 0.90204 -0.22200
O 	O 	0.49620 0.78720 0.34420 -0.25900
O 	O 	0.00380 0.44300 0.65580 -0.23300
O 	O 	0.50380 0.21280 0.65580 -0.23700
O 	O 	0.99620 0.55700 0.34420 -0.26200
