data_crystal

_cell_length_a 18.45380
_cell_length_b 25.34420
_cell_length_c 37.78300
_cell_angle_alpha 90.00000
_cell_angle_beta  90.00000
_cell_angle_gamma 90.00000

_symmetry_space_group_name_	'P 1'
_symmetry_space_group_name_H-M	'P 1'

loop_
_symmetry_equiv_pos_as_xyz
  x,y,z

loop_
_atom_site_label
_atom_site_type_symbol
_atom_site_fract_x
_atom_site_fract_y
_atom_site_fract_z
_atom_site_charge
Cd	Cd	0.52686 0.86732 0.27395 1.21900
Cd	Cd	0.38550 0.87709 0.20082 1.20200
Cd	Cd	0.97314 0.13268 0.77395 1.21900
Cd	Cd	0.11450 0.12291 0.70082 1.20200
Cd	Cd	0.47314 0.36732 0.22605 1.21900
Cd	Cd	0.61450 0.37709 0.29918 1.20200
Cd	Cd	0.02686 0.63268 0.72605 1.21900
Cd	Cd	0.88550 0.62291 0.79918 1.20100
H 	H 	0.14950 0.52180 0.63270 0.01800
H 	H 	0.21100 0.51800 0.57970 0.08200
H 	H 	0.33350 0.64270 0.61390 0.08200
H 	H 	0.25890 0.64100 0.66670 0.01700
H 	H 	0.69850 0.28060 0.41790 0.00700
H 	H 	0.62630 0.35410 0.42090 0.08300
H 	H 	0.70890 0.39390 0.51430 0.09200
H 	H 	0.78180 0.31500 0.50920 0.02000
H 	H 	0.44750 0.84040 0.34550 -0.00400
H 	H 	0.42840 0.77440 0.38820 0.09300
H 	H 	0.58910 0.69200 0.34340 0.09100
H 	H 	0.60780 0.76220 0.30490 -0.00400
H 	H 	0.30750 0.50010 0.54700 0.01700
H 	H 	0.37760 0.49350 0.49710 0.09600
H 	H 	0.44410 0.64170 0.51210 0.09600
H 	H 	0.36980 0.64970 0.55960 0.01700
H 	H 	0.53910 0.51680 0.52300 0.08900
H 	H 	0.61790 0.44540 0.52150 0.02800
H 	H 	0.58670 0.43200 0.41670 0.02500
H 	H 	0.50790 0.50340 0.41810 0.08800
H 	H 	0.58620 0.59060 0.43820 0.08800
H 	H 	0.60420 0.65940 0.39950 0.02200
H 	H 	0.38940 0.69520 0.40510 0.03400
H 	H 	0.37300 0.62500 0.44560 0.09400
H 	H 	0.63290 0.96180 0.22450 0.01100
H 	H 	0.71680 0.02820 0.21370 0.07600
H 	H 	0.59940 0.07990 0.13210 0.07300
H 	H 	0.50420 0.01830 0.14500 0.03400
H 	H 	0.59210 0.15770 0.18430 0.06800
H 	H 	0.56250 0.23110 0.21800 0.02300
H 	H 	0.76820 0.26590 0.23040 0.03300
H 	H 	0.80220 0.18970 0.19660 0.08000
H 	H 	0.67710 0.46630 0.18810 0.02800
H 	H 	0.74990 0.53530 0.16910 0.07000
H 	H 	0.57920 0.60050 0.11970 0.06900
H 	H 	0.50640 0.53150 0.13870 0.03600
H 	H 	0.78630 0.65760 0.19470 0.06600
H 	H 	0.76300 0.72660 0.23570 0.04800
H 	H 	0.58950 0.76970 0.17770 0.04200
H 	H 	0.61970 0.70830 0.13440 0.06300
H 	H 	0.33980 0.96390 0.14260 -0.00500
H 	H 	0.26200 0.97950 0.09730 0.08700
H 	H 	0.14770 0.85160 0.12570 0.08800
H 	H 	0.23650 0.83600 0.16870 -0.00300
H 	H 	0.99340 0.65220 0.86740 -0.01200
H 	H 	0.01980 0.71240 0.90700 0.09900
H 	H 	0.88820 0.81320 0.85460 0.09300
H 	H 	0.85590 0.74210 0.82040 -0.00500
H 	H 	0.84790 0.22800 0.89980 0.00300
H 	H 	0.91580 0.15320 0.90730 0.10200
H 	H 	0.81180 0.13160 0.99940 0.10200
H 	H 	0.75910 0.21450 0.98980 -0.00600
H 	H 	0.19070 0.99460 0.05670 0.02200
H 	H 	0.11490 0.00460 0.00790 0.08800
H 	H 	0.03390 0.85980 0.02430 0.09200
H 	H 	0.10660 0.84760 0.07190 0.02100
H 	H 	0.07070 0.78640 0.92860 0.02200
H 	H 	0.10460 0.85960 0.96000 0.10000
H 	H 	0.90800 0.92270 0.94260 0.08900
H 	H 	0.88170 0.85740 0.90340 0.01700
H 	H 	0.94550 0.99420 0.02340 0.09900
H 	H 	0.87740 0.07140 0.01270 0.01900
H 	H 	0.95630 0.07580 0.91410 0.02600
H 	H 	0.03030 0.00240 0.92690 0.10000
H 	H 	0.35050 0.47820 0.13270 0.01800
H 	H 	0.28900 0.48200 0.07970 0.08200
H 	H 	0.16650 0.35730 0.11390 0.08200
H 	H 	0.24110 0.35900 0.16670 0.01700
H 	H 	0.80150 0.71940 0.91790 0.00700
H 	H 	0.87370 0.64590 0.92090 0.08300
H 	H 	0.79110 0.60610 0.01430 0.09200
H 	H 	0.71820 0.68500 0.00920 0.02000
H 	H 	0.05250 0.15960 0.84550 -0.00400
H 	H 	0.07160 0.22560 0.88820 0.09300
H 	H 	0.91090 0.30800 0.84340 0.09100
H 	H 	0.89220 0.23780 0.80490 -0.00400
H 	H 	0.19250 0.49990 0.04700 0.01800
H 	H 	0.12240 0.50650 0.99710 0.09600
H 	H 	0.05590 0.35830 0.01210 0.09600
H 	H 	0.13020 0.35030 0.05960 0.01700
H 	H 	0.96090 0.48320 0.02300 0.08900
H 	H 	0.88210 0.55460 0.02150 0.02800
H 	H 	0.91330 0.56800 0.91670 0.02500
H 	H 	0.99210 0.49660 0.91810 0.08800
H 	H 	0.91380 0.40940 0.93820 0.08800
H 	H 	0.89580 0.34060 0.89950 0.02200
H 	H 	0.11060 0.30480 0.90510 0.03400
H 	H 	0.12700 0.37500 0.94560 0.09400
H 	H 	0.86710 0.03820 0.72450 0.01200
H 	H 	0.78320 0.97180 0.71370 0.07600
H 	H 	0.90060 0.92010 0.63210 0.07300
H 	H 	0.99580 0.98170 0.64500 0.03400
H 	H 	0.90790 0.84230 0.68430 0.06800
H 	H 	0.93750 0.76890 0.71800 0.02300
H 	H 	0.73180 0.73410 0.73040 0.03300
H 	H 	0.69780 0.81030 0.69660 0.08000
H 	H 	0.82290 0.53370 0.68810 0.02800
H 	H 	0.75010 0.46470 0.66910 0.07000
H 	H 	0.92080 0.39950 0.61970 0.06900
H 	H 	0.99360 0.46850 0.63870 0.03600
H 	H 	0.71370 0.34240 0.69470 0.06600
H 	H 	0.73700 0.27340 0.73570 0.04800
H 	H 	0.91050 0.23030 0.67770 0.04200
H 	H 	0.88030 0.29170 0.63440 0.06300
H 	H 	0.16020 0.03610 0.64260 -0.00500
H 	H 	0.23800 0.02050 0.59730 0.08700
H 	H 	0.35230 0.14840 0.62570 0.08800
H 	H 	0.26350 0.16400 0.66870 -0.00300
H 	H 	0.50660 0.34780 0.36740 -0.01300
H 	H 	0.48020 0.28760 0.40700 0.09900
H 	H 	0.61180 0.18680 0.35460 0.09400
H 	H 	0.64410 0.25790 0.32040 -0.00500
H 	H 	0.65210 0.77200 0.39980 0.00300
H 	H 	0.58420 0.84680 0.40730 0.10200
H 	H 	0.68820 0.86840 0.49940 0.10100
H 	H 	0.74090 0.78550 0.48980 -0.00600
H 	H 	0.30930 0.00540 0.55670 0.02200
H 	H 	0.38510 0.99540 0.50790 0.08800
H 	H 	0.46610 0.14020 0.52430 0.09200
H 	H 	0.39340 0.15240 0.57190 0.02200
H 	H 	0.42930 0.21360 0.42860 0.02200
H 	H 	0.39540 0.14040 0.46000 0.10000
H 	H 	0.59200 0.07730 0.44260 0.08900
H 	H 	0.61830 0.14260 0.40340 0.01600
H 	H 	0.55450 0.00580 0.52340 0.09700
H 	H 	0.62260 0.92860 0.51270 0.02000
H 	H 	0.54370 0.92420 0.41410 0.02700
H 	H 	0.46970 0.99760 0.42690 0.09800
H 	H 	0.85050 0.02180 0.86730 0.01800
H 	H 	0.78900 0.01800 0.92030 0.08200
H 	H 	0.66650 0.14270 0.88610 0.08200
H 	H 	0.74110 0.14100 0.83330 0.01700
H 	H 	0.30150 0.78060 0.08210 0.00700
H 	H 	0.37370 0.85410 0.07910 0.08300
H 	H 	0.29110 0.89390 0.98570 0.09200
H 	H 	0.21820 0.81500 0.99080 0.02000
H 	H 	0.55250 0.34040 0.15450 -0.00400
H 	H 	0.57160 0.27440 0.11180 0.09300
H 	H 	0.41090 0.19200 0.15660 0.09100
H 	H 	0.39220 0.26220 0.19510 -0.00400
H 	H 	0.69250 0.00010 0.95300 0.01700
H 	H 	0.62240 0.99350 0.00290 0.09600
H 	H 	0.55590 0.14170 0.98790 0.09600
H 	H 	0.63020 0.14970 0.94040 0.01700
H 	H 	0.46090 0.01680 0.97700 0.08900
H 	H 	0.38210 0.94540 0.97850 0.02800
H 	H 	0.41330 0.93200 0.08330 0.02500
H 	H 	0.49210 0.00340 0.08190 0.08800
H 	H 	0.41380 0.09060 0.06180 0.08800
H 	H 	0.39580 0.15940 0.10050 0.02200
H 	H 	0.61060 0.19520 0.09490 0.03400
H 	H 	0.62700 0.12500 0.05440 0.09400
H 	H 	0.36710 0.46180 0.27550 0.01100
H 	H 	0.28320 0.52820 0.28630 0.07600
H 	H 	0.40060 0.57990 0.36790 0.07300
H 	H 	0.49580 0.51830 0.35500 0.03400
H 	H 	0.40790 0.65770 0.31570 0.06800
H 	H 	0.43750 0.73110 0.28200 0.02300
H 	H 	0.23180 0.76590 0.26960 0.03300
H 	H 	0.19780 0.68970 0.30340 0.08000
H 	H 	0.32290 0.96630 0.31190 0.02800
H 	H 	0.25010 0.03530 0.33090 0.07000
H 	H 	0.42080 0.10050 0.38030 0.06900
H 	H 	0.49360 0.03150 0.36130 0.03600
H 	H 	0.21370 0.15760 0.30530 0.06600
H 	H 	0.23700 0.22660 0.26430 0.04800
H 	H 	0.41050 0.26970 0.32230 0.04200
H 	H 	0.38030 0.20830 0.36560 0.06300
H 	H 	0.66020 0.46390 0.35740 -0.00500
H 	H 	0.73800 0.47950 0.40270 0.08700
H 	H 	0.85230 0.35160 0.37430 0.08800
H 	H 	0.76350 0.33600 0.33130 -0.00300
H 	H 	0.00660 0.15220 0.63260 -0.01200
H 	H 	0.98020 0.21240 0.59300 0.09900
H 	H 	0.11180 0.31320 0.64540 0.09300
H 	H 	0.14410 0.24210 0.67960 -0.00500
H 	H 	0.15210 0.72800 0.60020 0.00300
H 	H 	0.08420 0.65320 0.59270 0.10200
H 	H 	0.18820 0.63160 0.50060 0.10100
H 	H 	0.24090 0.71450 0.51020 -0.00600
H 	H 	0.80930 0.49460 0.44330 0.02200
H 	H 	0.88510 0.50460 0.49210 0.08800
H 	H 	0.96610 0.35980 0.47570 0.09200
H 	H 	0.89340 0.34760 0.42810 0.02200
H 	H 	0.92930 0.28640 0.57140 0.02200
H 	H 	0.89540 0.35960 0.54000 0.10000
H 	H 	0.09200 0.42270 0.55740 0.08900
H 	H 	0.11830 0.35740 0.59660 0.01700
H 	H 	0.05450 0.49420 0.47660 0.09800
H 	H 	0.12260 0.57140 0.48730 0.02000
H 	H 	0.04370 0.57580 0.58590 0.02700
H 	H 	0.96970 0.50240 0.57310 0.09800
H 	H 	0.64950 0.97820 0.36730 0.01800
H 	H 	0.71100 0.98200 0.42030 0.08200
H 	H 	0.83350 0.85730 0.38610 0.08200
H 	H 	0.75890 0.85900 0.33330 0.01700
H 	H 	0.19850 0.21940 0.58210 0.00700
H 	H 	0.12630 0.14590 0.57910 0.08300
H 	H 	0.20890 0.10610 0.48570 0.09200
H 	H 	0.28180 0.18500 0.49080 0.02000
H 	H 	0.94750 0.65960 0.65450 -0.00400
H 	H 	0.92840 0.72560 0.61180 0.09300
H 	H 	0.08910 0.80800 0.65660 0.09100
H 	H 	0.10780 0.73780 0.69510 -0.00400
H 	H 	0.80750 0.99990 0.45300 0.01800
H 	H 	0.87760 0.00650 0.50290 0.09500
H 	H 	0.94410 0.85830 0.48790 0.09600
H 	H 	0.86980 0.85030 0.44040 0.01700
H 	H 	0.03910 0.98320 0.47700 0.08800
H 	H 	0.11790 0.05460 0.47850 0.02900
H 	H 	0.08670 0.06800 0.58330 0.02500
H 	H 	0.00790 0.99660 0.58190 0.08700
H 	H 	0.08620 0.90940 0.56180 0.08800
H 	H 	0.10420 0.84060 0.60050 0.02200
H 	H 	0.88940 0.80480 0.59490 0.03400
H 	H 	0.87300 0.87500 0.55440 0.09400
H 	H 	0.13290 0.53820 0.77550 0.01100
H 	H 	0.21680 0.47180 0.78630 0.07600
H 	H 	0.09940 0.42010 0.86790 0.07300
H 	H 	0.00420 0.48170 0.85500 0.03400
H 	H 	0.09210 0.34230 0.81570 0.06800
H 	H 	0.06250 0.26890 0.78200 0.02300
H 	H 	0.26820 0.23410 0.76960 0.03300
H 	H 	0.30220 0.31030 0.80340 0.08000
H 	H 	0.17710 0.03370 0.81190 0.02800
H 	H 	0.24990 0.96470 0.83090 0.07000
H 	H 	0.07920 0.89950 0.88030 0.06900
H 	H 	0.00640 0.96850 0.86130 0.03600
H 	H 	0.28630 0.84240 0.80530 0.06600
H 	H 	0.26300 0.77340 0.76430 0.04800
H 	H 	0.08950 0.73030 0.82230 0.04200
H 	H 	0.11970 0.79170 0.86560 0.06300
H 	H 	0.83980 0.53610 0.85740 -0.00500
H 	H 	0.76200 0.52050 0.90270 0.08700
H 	H 	0.64770 0.64840 0.87430 0.08800
H 	H 	0.73650 0.66400 0.83130 -0.00300
H 	H 	0.49340 0.84780 0.13260 -0.01300
H 	H 	0.51980 0.78760 0.09300 0.09900
H 	H 	0.38820 0.68680 0.14540 0.09400
H 	H 	0.35590 0.75790 0.17960 -0.00500
H 	H 	0.34790 0.27200 0.10020 0.00300
H 	H 	0.41580 0.34680 0.09270 0.10200
H 	H 	0.31180 0.36840 0.00060 0.10100
H 	H 	0.25910 0.28550 0.01020 -0.00600
H 	H 	0.69070 0.50540 0.94330 0.02200
H 	H 	0.61490 0.49540 0.99210 0.08800
H 	H 	0.53390 0.64020 0.97570 0.09200
H 	H 	0.60660 0.65240 0.92810 0.02200
H 	H 	0.57070 0.71360 0.07140 0.02200
H 	H 	0.60460 0.64040 0.04000 0.10000
H 	H 	0.40800 0.57730 0.05740 0.08900
H 	H 	0.38170 0.64260 0.09660 0.01600
H 	H 	0.44550 0.50580 0.97660 0.09800
H 	H 	0.37740 0.42860 0.98730 0.02000
H 	H 	0.45630 0.42420 0.08590 0.02700
H 	H 	0.53030 0.49760 0.07310 0.09800
C 	C 	0.18570 0.54650 0.62828 0.08000
C 	C 	0.22390 0.54290 0.59665 -0.14100
C 	C 	0.28500 0.57900 0.59028 0.09300
C 	C 	0.29720 0.61750 0.61658 -0.13300
C 	C 	0.25030 0.61670 0.64874 0.07100
C 	C 	0.70060 0.30240 0.43766 0.09300
C 	C 	0.65760 0.34730 0.43960 -0.14700
C 	C 	0.65840 0.38450 0.46902 0.10000
C 	C 	0.70440 0.37230 0.49452 -0.14500
C 	C 	0.74910 0.32330 0.49130 0.07500
C 	C 	0.47630 0.81030 0.34486 0.08200
C 	C 	0.46430 0.77040 0.37112 -0.17000
C 	C 	0.50620 0.72730 0.37035 0.11800
C 	C 	0.56040 0.72200 0.34464 -0.17000
C 	C 	0.56940 0.76410 0.32081 0.09100
C 	C 	0.32720 0.57600 0.55825 -0.07000
C 	C 	0.33350 0.52940 0.53944 0.04100
C 	C 	0.37700 0.52480 0.50993 -0.16600
C 	C 	0.41960 0.56690 0.49940 0.15600
C 	C 	0.41560 0.61310 0.51872 -0.17100
C 	C 	0.37110 0.61790 0.54721 0.04400
C 	C 	0.54870 0.49980 0.50170 -0.14500
C 	C 	0.59590 0.45710 0.50080 0.02200
C 	C 	0.61010 0.43170 0.46894 -0.05800
C 	C 	0.57720 0.44900 0.43797 0.02100
C 	C 	0.53000 0.49170 0.43887 -0.14500
C 	C 	0.51570 0.51710 0.47073 0.13300
C 	C 	0.54760 0.61210 0.43183 -0.15000
C 	C 	0.55780 0.65250 0.40800 0.02600
C 	C 	0.49910 0.68400 0.39614 -0.06400
C 	C 	0.42860 0.67410 0.41152 0.01600
C 	C 	0.41860 0.63240 0.43638 -0.14300
C 	C 	0.47880 0.60340 0.44640 0.13500
C 	C 	0.50720 0.94070 0.19375 0.37100
C 	C 	0.56380 0.98250 0.18504 -0.11000
C 	C 	0.62550 0.98580 0.20624 0.03400
C 	C 	0.67560 0.02530 0.19971 -0.08800
C 	C 	0.66410 0.05960 0.17287 0.01100
C 	C 	0.60360 0.05680 0.15115 -0.08200
C 	C 	0.54750 0.01900 0.15761 0.01900
C 	C 	0.69840 0.16470 0.18959 0.01400
C 	C 	0.62870 0.17810 0.19428 -0.09400
C 	C 	0.61110 0.22310 0.21420 0.05000
C 	C 	0.66140 0.25440 0.22783 -0.13500
C 	C 	0.73270 0.24340 0.22156 0.04000
C 	C 	0.75390 0.19720 0.20141 -0.08600
C 	C 	0.64240 0.30030 0.24917 0.36800
C 	C 	0.53830 0.44840 0.17684 0.32600
C 	C 	0.58450 0.49210 0.16532 -0.10300
C 	C 	0.65750 0.49320 0.17443 0.01900
C 	C 	0.70110 0.53450 0.16303 -0.07800
C 	C 	0.67180 0.57480 0.14252 0.00200
C 	C 	0.59880 0.57360 0.13342 -0.07600
C 	C 	0.55520 0.53230 0.14482 0.01600
C 	C 	0.70570 0.67800 0.16132 -0.01000
C 	C 	0.74830 0.68120 0.19107 -0.06000
C 	C 	0.73270 0.72170 0.21632 0.00400
C 	C 	0.67080 0.75440 0.21167 -0.08200
C 	C 	0.62980 0.74820 0.18104 0.00500
C 	C 	0.64680 0.71090 0.15512 -0.06000
C 	C 	0.64960 0.79580 0.23681 0.33400
C 	C 	0.30070 0.94120 0.13952 0.07600
C 	C 	0.25540 0.94990 0.11150 -0.16200
C 	C 	0.20030 0.91510 0.10414 0.10800
C 	C 	0.18780 0.87360 0.12787 -0.15400
C 	C 	0.23930 0.86660 0.15527 0.07500
C 	C 	0.97070 0.68490 0.86521 0.11300
C 	C 	0.98820 0.72070 0.88860 -0.19100
C 	C 	0.95860 0.77300 0.88580 0.12200
C 	C 	0.90930 0.78040 0.85853 -0.17300
C 	C 	0.89230 0.73740 0.83711 0.09200
C 	C 	0.84290 0.20840 0.92050 0.10900
C 	C 	0.88280 0.16340 0.92450 -0.18500
C 	C 	0.87330 0.13350 0.95462 0.13200
C 	C 	0.82290 0.15110 0.97930 -0.18900
C 	C 	0.78900 0.20050 0.97234 0.13300
C 	C 	0.15550 0.91890 0.07102 -0.05800
C 	C 	0.15910 0.96770 0.05024 0.02100
C 	C 	0.11480 0.97330 0.02067 -0.14300
C 	C 	0.06970 0.93120 0.01014 0.13900
C 	C 	0.06640 0.88630 0.03056 -0.15700
C 	C 	0.10870 0.87920 0.05956 0.03600
C 	C 	0.97370 0.81390 0.91087 -0.07900
C 	C 	0.03930 0.81500 0.93009 0.04000
C 	C 	0.05800 0.85710 0.95077 -0.15500
C 	C 	0.00670 0.89660 0.95802 0.13700
C 	C 	0.94130 0.89560 0.93918 -0.15400
C 	C 	0.92500 0.85630 0.91599 0.03800
C 	C 	0.98860 0.98990 0.97540 0.16000
C 	C 	0.94750 0.01060 0.00141 -0.17200
C 	C 	0.90720 0.05750 0.99521 0.03700
C 	C 	0.91320 0.08280 0.96194 -0.07600
C 	C 	0.95510 0.06070 0.93655 0.03700
C 	C 	0.99750 0.01500 0.94350 -0.16900
C 	C 	0.31430 0.45350 0.12828 0.08000
C 	C 	0.27610 0.45710 0.09665 -0.14100
C 	C 	0.21500 0.42100 0.09028 0.09300
C 	C 	0.20280 0.38250 0.11658 -0.13300
C 	C 	0.24970 0.38330 0.14874 0.07100
C 	C 	0.79940 0.69760 0.93766 0.09300
C 	C 	0.84240 0.65270 0.93960 -0.14700
C 	C 	0.84160 0.61550 0.96902 0.10000
C 	C 	0.79560 0.62770 0.99452 -0.14500
C 	C 	0.75090 0.67670 0.99130 0.07500
C 	C 	0.02370 0.18970 0.84486 0.08200
C 	C 	0.03570 0.22960 0.87112 -0.16900
C 	C 	0.99380 0.27270 0.87035 0.11800
C 	C 	0.93960 0.27800 0.84464 -0.17000
C 	C 	0.93060 0.23590 0.82081 0.09100
C 	C 	0.17280 0.42400 0.05825 -0.07000
C 	C 	0.16650 0.47060 0.03944 0.04100
C 	C 	0.12300 0.47520 0.00993 -0.16600
C 	C 	0.08040 0.43310 0.99940 0.15600
C 	C 	0.08440 0.38690 0.01872 -0.17100
C 	C 	0.12890 0.38210 0.04721 0.04400
C 	C 	0.95130 0.50020 0.00170 -0.14500
C 	C 	0.90410 0.54290 0.00080 0.02200
C 	C 	0.88990 0.56830 0.96894 -0.05800
C 	C 	0.92280 0.55100 0.93797 0.02100
C 	C 	0.97000 0.50830 0.93887 -0.14500
C 	C 	0.98430 0.48290 0.97073 0.13300
C 	C 	0.95240 0.38790 0.93183 -0.15000
C 	C 	0.94220 0.34750 0.90800 0.02500
C 	C 	0.00090 0.31600 0.89614 -0.06400
C 	C 	0.07140 0.32590 0.91152 0.01600
C 	C 	0.08140 0.36760 0.93638 -0.14300
C 	C 	0.02120 0.39660 0.94640 0.13500
C 	C 	0.99280 0.05930 0.69375 0.37000
C 	C 	0.93620 0.01750 0.68504 -0.11100
C 	C 	0.87450 0.01420 0.70624 0.03300
C 	C 	0.82440 0.97470 0.69971 -0.08700
C 	C 	0.83590 0.94040 0.67287 0.01000
C 	C 	0.89640 0.94320 0.65115 -0.08200
C 	C 	0.95250 0.98100 0.65761 0.01900
C 	C 	0.80160 0.83530 0.68959 0.01400
C 	C 	0.87130 0.82190 0.69428 -0.09400
C 	C 	0.88890 0.77690 0.71420 0.05000
C 	C 	0.83860 0.74560 0.72783 -0.13500
C 	C 	0.76730 0.75660 0.72156 0.04000
C 	C 	0.74610 0.80280 0.70141 -0.08600
C 	C 	0.85760 0.69970 0.74917 0.36800
C 	C 	0.96170 0.55160 0.67684 0.32600
C 	C 	0.91550 0.50790 0.66532 -0.10300
C 	C 	0.84250 0.50680 0.67443 0.01900
C 	C 	0.79890 0.46550 0.66303 -0.07800
C 	C 	0.82820 0.42520 0.64252 0.00200
C 	C 	0.90120 0.42640 0.63342 -0.07600
C 	C 	0.94480 0.46770 0.64482 0.01600
C 	C 	0.79430 0.32200 0.66132 -0.01000
C 	C 	0.75170 0.31880 0.69107 -0.06100
C 	C 	0.76730 0.27830 0.71632 0.00400
C 	C 	0.82920 0.24560 0.71167 -0.08200
C 	C 	0.87020 0.25180 0.68104 0.00500
C 	C 	0.85320 0.28910 0.65512 -0.06000
C 	C 	0.85040 0.20420 0.73681 0.33400
C 	C 	0.19930 0.05880 0.63952 0.07600
C 	C 	0.24460 0.05010 0.61150 -0.16200
C 	C 	0.29970 0.08490 0.60414 0.10700
C 	C 	0.31220 0.12640 0.62787 -0.15400
C 	C 	0.26070 0.13340 0.65527 0.07500
C 	C 	0.52930 0.31510 0.36521 0.11400
C 	C 	0.51180 0.27930 0.38860 -0.19200
C 	C 	0.54140 0.22700 0.38580 0.12200
C 	C 	0.59070 0.21960 0.35853 -0.17400
C 	C 	0.60770 0.26260 0.33711 0.09200
C 	C 	0.65710 0.79160 0.42050 0.10900
C 	C 	0.61720 0.83660 0.42450 -0.18500
C 	C 	0.62670 0.86650 0.45462 0.13100
C 	C 	0.67710 0.84890 0.47930 -0.18800
C 	C 	0.71100 0.79950 0.47234 0.13200
C 	C 	0.34450 0.08110 0.57102 -0.05800
C 	C 	0.34090 0.03230 0.55024 0.02100
C 	C 	0.38520 0.02670 0.52067 -0.14300
C 	C 	0.43030 0.06880 0.51014 0.13800
C 	C 	0.43360 0.11370 0.53056 -0.15700
C 	C 	0.39130 0.12080 0.55956 0.03600
C 	C 	0.52630 0.18610 0.41087 -0.08000
C 	C 	0.46070 0.18500 0.43009 0.04100
C 	C 	0.44200 0.14290 0.45077 -0.15500
C 	C 	0.49330 0.10340 0.45802 0.13800
C 	C 	0.55870 0.10440 0.43918 -0.15500
C 	C 	0.57500 0.14370 0.41599 0.03900
C 	C 	0.51140 0.01010 0.47540 0.15600
C 	C 	0.55250 0.98940 0.50141 -0.16800
C 	C 	0.59280 0.94250 0.49521 0.03400
C 	C 	0.58680 0.91720 0.46194 -0.07400
C 	C 	0.54490 0.93930 0.43655 0.03400
C 	C 	0.50250 0.98500 0.44350 -0.16500
C 	C 	0.81430 0.04650 0.87172 0.08000
C 	C 	0.77610 0.04290 0.90335 -0.14100
C 	C 	0.71500 0.07900 0.90972 0.09300
C 	C 	0.70280 0.11750 0.88342 -0.13300
C 	C 	0.74970 0.11670 0.85126 0.07100
C 	C 	0.29940 0.80240 0.06234 0.09300
C 	C 	0.34240 0.84730 0.06040 -0.14700
C 	C 	0.34160 0.88450 0.03098 0.10000
C 	C 	0.29560 0.87230 0.00548 -0.14500
C 	C 	0.25090 0.82330 0.00870 0.07500
C 	C 	0.52370 0.31030 0.15514 0.08200
C 	C 	0.53570 0.27040 0.12888 -0.17000
C 	C 	0.49380 0.22730 0.12965 0.11800
C 	C 	0.43960 0.22200 0.15536 -0.17000
C 	C 	0.43060 0.26410 0.17919 0.09100
C 	C 	0.67280 0.07600 0.94175 -0.07000
C 	C 	0.66650 0.02940 0.96056 0.04100
C 	C 	0.62300 0.02480 0.99007 -0.16700
C 	C 	0.58040 0.06690 0.00060 0.15700
C 	C 	0.58440 0.11310 0.98128 -0.17100
C 	C 	0.62890 0.11790 0.95279 0.04400
C 	C 	0.45130 0.99980 0.99830 -0.14500
C 	C 	0.40410 0.95710 0.99920 0.02100
C 	C 	0.38990 0.93170 0.03106 -0.05800
C 	C 	0.42280 0.94900 0.06203 0.02000
C 	C 	0.47000 0.99170 0.06113 -0.14500
C 	C 	0.48430 0.01710 0.02927 0.13300
C 	C 	0.45240 0.11210 0.06817 -0.15000
C 	C 	0.44220 0.15250 0.09200 0.02600
C 	C 	0.50090 0.18400 0.10386 -0.06400
C 	C 	0.57140 0.17410 0.08848 0.01600
C 	C 	0.58140 0.13240 0.06362 -0.14300
C 	C 	0.52120 0.10340 0.05360 0.13500
C 	C 	0.49280 0.44070 0.30625 0.37100
C 	C 	0.43620 0.48250 0.31496 -0.11000
C 	C 	0.37450 0.48580 0.29376 0.03300
C 	C 	0.32440 0.52530 0.30029 -0.08800
C 	C 	0.33590 0.55960 0.32713 0.01000
C 	C 	0.39640 0.55680 0.34885 -0.08200
C 	C 	0.45250 0.51900 0.34239 0.01900
C 	C 	0.30160 0.66470 0.31041 0.01400
C 	C 	0.37130 0.67810 0.30572 -0.09400
C 	C 	0.38890 0.72310 0.28580 0.05000
C 	C 	0.33860 0.75440 0.27217 -0.13500
C 	C 	0.26730 0.74340 0.27844 0.04000
C 	C 	0.24610 0.69720 0.29859 -0.08600
C 	C 	0.35760 0.80030 0.25083 0.36800
C 	C 	0.46170 0.94840 0.32316 0.32600
C 	C 	0.41550 0.99210 0.33468 -0.10300
C 	C 	0.34250 0.99320 0.32557 0.01900
C 	C 	0.29890 0.03450 0.33697 -0.07800
C 	C 	0.32820 0.07480 0.35748 0.00100
C 	C 	0.40120 0.07360 0.36658 -0.07600
C 	C 	0.44480 0.03230 0.35518 0.01600
C 	C 	0.29430 0.17800 0.33868 -0.01000
C 	C 	0.25170 0.18120 0.30893 -0.06000
C 	C 	0.26730 0.22170 0.28368 0.00400
C 	C 	0.32920 0.25440 0.28833 -0.08200
C 	C 	0.37020 0.24820 0.31896 0.00500
C 	C 	0.35320 0.21090 0.34488 -0.06000
C 	C 	0.35040 0.29580 0.26319 0.33400
C 	C 	0.69930 0.44120 0.36048 0.07600
C 	C 	0.74460 0.44990 0.38850 -0.16200
C 	C 	0.79970 0.41510 0.39586 0.10700
C 	C 	0.81220 0.37360 0.37213 -0.15400
C 	C 	0.76070 0.36660 0.34473 0.07500
C 	C 	0.02930 0.18490 0.63479 0.11300
C 	C 	0.01180 0.22070 0.61140 -0.19100
C 	C 	0.04140 0.27300 0.61420 0.12200
C 	C 	0.09070 0.28040 0.64147 -0.17300
C 	C 	0.10770 0.23740 0.66289 0.09200
C 	C 	0.15710 0.70840 0.57950 0.10900
C 	C 	0.11720 0.66340 0.57550 -0.18500
C 	C 	0.12670 0.63350 0.54538 0.13100
C 	C 	0.17710 0.65110 0.52070 -0.18800
C 	C 	0.21100 0.70050 0.52766 0.13200
C 	C 	0.84450 0.41890 0.42898 -0.05800
C 	C 	0.84090 0.46770 0.44976 0.02100
C 	C 	0.88520 0.47330 0.47933 -0.14300
C 	C 	0.93030 0.43120 0.48986 0.13800
C 	C 	0.93360 0.38630 0.46944 -0.15700
C 	C 	0.89130 0.37920 0.44044 0.03600
C 	C 	0.02630 0.31390 0.58913 -0.07900
C 	C 	0.96070 0.31500 0.56991 0.04000
C 	C 	0.94200 0.35710 0.54923 -0.15500
C 	C 	0.99330 0.39660 0.54198 0.13700
C 	C 	0.05870 0.39560 0.56082 -0.15400
C 	C 	0.07500 0.35630 0.58401 0.03800
C 	C 	0.01140 0.48990 0.52460 0.15700
C 	C 	0.05250 0.51060 0.49859 -0.16900
C 	C 	0.09280 0.55750 0.50479 0.03500
C 	C 	0.08680 0.58280 0.53806 -0.07400
C 	C 	0.04490 0.56070 0.56345 0.03400
C 	C 	0.00250 0.51500 0.55650 -0.16600
C 	C 	0.68570 0.95350 0.37172 0.08000
C 	C 	0.72390 0.95710 0.40335 -0.14000
C 	C 	0.78500 0.92100 0.40972 0.09300
C 	C 	0.79720 0.88250 0.38342 -0.13300
C 	C 	0.75030 0.88330 0.35126 0.07100
C 	C 	0.20060 0.19760 0.56234 0.09300
C 	C 	0.15760 0.15270 0.56040 -0.14600
C 	C 	0.15840 0.11550 0.53098 0.10000
C 	C 	0.20440 0.12770 0.50548 -0.14500
C 	C 	0.24910 0.17670 0.50870 0.07500
C 	C 	0.97630 0.68970 0.65514 0.08200
C 	C 	0.96430 0.72960 0.62888 -0.16900
C 	C 	0.00620 0.77270 0.62965 0.11800
C 	C 	0.06040 0.77800 0.65536 -0.17000
C 	C 	0.06940 0.73590 0.67919 0.09100
C 	C 	0.82720 0.92400 0.44175 -0.07000
C 	C 	0.83350 0.97060 0.46056 0.04000
C 	C 	0.87700 0.97520 0.49007 -0.16500
C 	C 	0.91960 0.93310 0.50060 0.15600
C 	C 	0.91560 0.88690 0.48128 -0.17100
C 	C 	0.87110 0.88210 0.45279 0.04400
C 	C 	0.04870 0.00020 0.49830 -0.14300
C 	C 	0.09590 0.04290 0.49920 0.02000
C 	C 	0.11010 0.06830 0.53106 -0.05700
C 	C 	0.07720 0.05100 0.56203 0.01900
C 	C 	0.03000 0.00830 0.56113 -0.14300
C 	C 	0.01570 0.98290 0.52927 0.13100
C 	C 	0.04760 0.88790 0.56817 -0.15000
C 	C 	0.05780 0.84750 0.59200 0.02500
C 	C 	0.99910 0.81600 0.60386 -0.06400
C 	C 	0.92860 0.82590 0.58848 0.01600
C 	C 	0.91860 0.86760 0.56362 -0.14300
C 	C 	0.97880 0.89660 0.55360 0.13500
C 	C 	0.00720 0.55930 0.80625 0.37100
C 	C 	0.06380 0.51750 0.81496 -0.11000
C 	C 	0.12550 0.51420 0.79376 0.03300
C 	C 	0.17560 0.47470 0.80029 -0.08800
C 	C 	0.16410 0.44040 0.82713 0.01000
C 	C 	0.10360 0.44320 0.84885 -0.08200
C 	C 	0.04750 0.48100 0.84239 0.01900
C 	C 	0.19840 0.33530 0.81041 0.01400
C 	C 	0.12870 0.32190 0.80572 -0.09400
C 	C 	0.11110 0.27690 0.78580 0.05000
C 	C 	0.16140 0.24560 0.77217 -0.13500
C 	C 	0.23270 0.25660 0.77844 0.04000
C 	C 	0.25390 0.30280 0.79859 -0.08600
C 	C 	0.14240 0.19970 0.75083 0.36800
C 	C 	0.03830 0.05160 0.82316 0.32600
C 	C 	0.08450 0.00790 0.83468 -0.10300
C 	C 	0.15750 0.00680 0.82557 0.02000
C 	C 	0.20110 0.96550 0.83697 -0.07800
C 	C 	0.17180 0.92520 0.85748 0.00200
C 	C 	0.09880 0.92640 0.86658 -0.07600
C 	C 	0.05520 0.96770 0.85518 0.01600
C 	C 	0.20570 0.82200 0.83868 -0.01000
C 	C 	0.24830 0.81880 0.80893 -0.06100
C 	C 	0.23270 0.77830 0.78368 0.00400
C 	C 	0.17080 0.74560 0.78833 -0.08200
C 	C 	0.12980 0.75180 0.81896 0.00500
C 	C 	0.14680 0.78910 0.84488 -0.06000
C 	C 	0.14960 0.70420 0.76319 0.33400
C 	C 	0.80070 0.55880 0.86048 0.07600
C 	C 	0.75540 0.55010 0.88850 -0.16200
C 	C 	0.70030 0.58490 0.89586 0.10700
C 	C 	0.68780 0.62640 0.87213 -0.15400
C 	C 	0.73930 0.63340 0.84473 0.07500
C 	C 	0.47070 0.81510 0.13479 0.11400
C 	C 	0.48820 0.77930 0.11140 -0.19200
C 	C 	0.45860 0.72700 0.11420 0.12200
C 	C 	0.40930 0.71960 0.14147 -0.17400
C 	C 	0.39230 0.76260 0.16289 0.09200
C 	C 	0.34290 0.29160 0.07950 0.10900
C 	C 	0.38280 0.33660 0.07550 -0.18500
C 	C 	0.37330 0.36650 0.04538 0.13100
C 	C 	0.32290 0.34890 0.02070 -0.18800
C 	C 	0.28900 0.29950 0.02766 0.13200
C 	C 	0.65550 0.58110 0.92898 -0.05800
C 	C 	0.65910 0.53230 0.94976 0.02100
C 	C 	0.61480 0.52670 0.97933 -0.14300
C 	C 	0.56970 0.56880 0.98986 0.13800
C 	C 	0.56640 0.61370 0.96944 -0.15700
C 	C 	0.60870 0.62080 0.94044 0.03600
C 	C 	0.47370 0.68610 0.08913 -0.08000
C 	C 	0.53930 0.68500 0.06991 0.04100
C 	C 	0.55800 0.64290 0.04923 -0.15500
C 	C 	0.50670 0.60340 0.04198 0.13800
C 	C 	0.44130 0.60440 0.06082 -0.15500
C 	C 	0.42500 0.64370 0.08401 0.03900
C 	C 	0.48860 0.51010 0.02460 0.15700
C 	C 	0.44750 0.48940 0.99859 -0.16900
C 	C 	0.40720 0.44250 0.00479 0.03500
C 	C 	0.41320 0.41720 0.03806 -0.07400
C 	C 	0.45510 0.43930 0.06345 0.03500
C 	C 	0.49750 0.48500 0.05650 -0.16600
S 	S 	0.72735 0.11033 0.16408 0.27200
S 	S 	0.72739 0.62933 0.13068 0.28300
S 	S 	0.77265 0.88967 0.66408 0.27200
S 	S 	0.77261 0.37067 0.63068 0.28300
S 	S 	0.27265 0.61033 0.33592 0.27200
S 	S 	0.27261 0.12933 0.36932 0.28300
S 	S 	0.22735 0.38967 0.83592 0.27200
S 	S 	0.22739 0.87067 0.86932 0.28300
N 	N 	0.19840 0.58330 0.65237 -0.13900
N 	N 	0.74330 0.29120 0.46358 -0.13400
N 	N 	0.52690 0.80643 0.31946 -0.23800
N 	N 	0.46750 0.56160 0.47125 -0.17700
N 	N 	0.29160 0.90120 0.16315 -0.24100
N 	N 	0.92350 0.69011 0.83844 -0.24000
N 	N 	0.79650 0.22540 0.94551 -0.15600
N 	N 	0.02300 0.94060 0.98066 -0.17700
N 	N 	0.30160 0.41670 0.15237 -0.13900
N 	N 	0.75670 0.70880 0.96358 -0.13400
N 	N 	0.97310 0.19357 0.81946 -0.23800
N 	N 	0.03250 0.43840 0.97125 -0.17700
N 	N 	0.20840 0.09880 0.66315 -0.24100
N 	N 	0.57650 0.30989 0.33844 -0.24000
N 	N 	0.70350 0.77460 0.44551 -0.15600
N 	N 	0.47700 0.05940 0.48066 -0.17600
N 	N 	0.80160 0.08330 0.84763 -0.13900
N 	N 	0.25670 0.79120 0.03642 -0.13400
N 	N 	0.47310 0.30643 0.18054 -0.23800
N 	N 	0.53250 0.06160 0.02875 -0.17700
N 	N 	0.70840 0.40120 0.33685 -0.24100
N 	N 	0.07650 0.19011 0.66156 -0.24000
N 	N 	0.20350 0.72540 0.55449 -0.15600
N 	N 	0.97700 0.44060 0.51934 -0.17600
N 	N 	0.69840 0.91670 0.34763 -0.13900
N 	N 	0.24330 0.20880 0.53642 -0.13400
N 	N 	0.02690 0.69357 0.68054 -0.23800
N 	N 	0.96750 0.93840 0.52875 -0.17600
N 	N 	0.79160 0.59880 0.83685 -0.24100
N 	N 	0.42350 0.80989 0.16156 -0.24000
N 	N 	0.29650 0.27460 0.05449 -0.15600
N 	N 	0.52300 0.55940 0.01934 -0.17600
O 	O 	0.50890 0.91627 0.22057 -0.51000
O 	O 	0.45720 0.93544 0.16960 -0.41000
O 	O 	0.68950 0.31573 0.27060 -0.41000
O 	O 	0.57950 0.31887 0.24932 -0.48000
O 	O 	0.58540 0.80966 0.23852 -0.41700
O 	O 	0.70340 0.80760 0.25654 -0.27500
O 	O 	0.47780 0.44297 0.16266 -0.31200
O 	O 	0.55690 0.41963 0.20329 -0.42700
O 	O 	0.72100 0.12395 0.12669 -0.21400
O 	O 	0.79350 0.09392 0.17822 -0.21800
O 	O 	0.80140 0.61325 0.13498 -0.21700
O 	O 	0.70370 0.64678 0.09690 -0.22400
O 	O 	0.99110 0.08373 0.72057 -0.51000
O 	O 	0.04280 0.06456 0.66960 -0.41000
O 	O 	0.81050 0.68427 0.77060 -0.41000
O 	O 	0.92050 0.68113 0.74932 -0.48000
O 	O 	0.91460 0.19034 0.73852 -0.41700
O 	O 	0.79660 0.19240 0.75654 -0.27500
O 	O 	0.02220 0.55703 0.66266 -0.31200
O 	O 	0.94310 0.58037 0.70329 -0.42700
O 	O 	0.77900 0.87605 0.62669 -0.21400
O 	O 	0.70650 0.90608 0.67822 -0.21800
O 	O 	0.69860 0.38675 0.63498 -0.21700
O 	O 	0.79630 0.35322 0.59690 -0.22400
O 	O 	0.49110 0.41627 0.27943 -0.51000
O 	O 	0.54280 0.43544 0.33040 -0.41000
O 	O 	0.31050 0.81573 0.22940 -0.41000
O 	O 	0.42050 0.81887 0.25068 -0.48000
O 	O 	0.41460 0.30966 0.26148 -0.41700
O 	O 	0.29660 0.30760 0.24346 -0.27500
O 	O 	0.52220 0.94297 0.33734 -0.31200
O 	O 	0.44310 0.91963 0.29671 -0.42700
O 	O 	0.27900 0.62395 0.37331 -0.21400
O 	O 	0.20650 0.59392 0.32178 -0.21800
O 	O 	0.19860 0.11325 0.36502 -0.21700
O 	O 	0.29630 0.14678 0.40310 -0.22400
O 	O 	0.00890 0.58373 0.77943 -0.51000
O 	O 	0.95720 0.56456 0.83040 -0.41000
O 	O 	0.18950 0.18427 0.72940 -0.41000
O 	O 	0.07950 0.18113 0.75068 -0.48000
O 	O 	0.08540 0.69034 0.76148 -0.41700
O 	O 	0.20340 0.69240 0.74346 -0.27500
O 	O 	0.97780 0.05703 0.83734 -0.31200
O 	O 	0.05690 0.08037 0.79671 -0.42700
O 	O 	0.22100 0.37605 0.87331 -0.21400
O 	O 	0.29350 0.40608 0.82178 -0.21800
O 	O 	0.30140 0.88675 0.86502 -0.21700
O 	O 	0.20370 0.85322 0.90310 -0.22400
