data_crystal

_cell_length_a 10.89470
_cell_length_b 10.97080
_cell_length_c 13.98910
_cell_angle_alpha 81.54000
_cell_angle_beta  89.01600
_cell_angle_gamma 87.65800

_symmetry_space_group_name_	'P 1'
_symmetry_space_group_name_H-M	'P 1'

loop_
_symmetry_equiv_pos_as_xyz
  x,y,z

loop_
_atom_site_label
_atom_site_type_symbol
_atom_site_fract_x
_atom_site_fract_y
_atom_site_fract_z
_atom_site_charge
Zn	Zn	0.72700 0.66383 0.60703 1.21700
Zn	Zn	0.72296 0.62223 0.81924 1.22200
H 	H 	0.54830 0.64810 0.45150 0.00300
H 	H 	0.54220 0.64080 0.29040 0.08400
H 	H 	0.54430 0.63530 0.98110 0.01700
H 	H 	0.90660 0.62630 0.13740 0.09200
H 	H 	0.90180 0.68410 0.43890 0.00100
H 	H 	0.78240 0.27730 0.58330 0.04500
H 	H 	0.53970 0.65060 0.14000 0.10100
H 	H 	0.12520 0.64460 0.57180 0.04900
H 	H 	0.90490 0.68100 0.27680 0.08400
H 	H 	0.78180 0.07270 0.57420 0.05100
H 	H 	0.89930 0.60880 0.97830 0.01600
H 	H 	0.33130 0.65150 0.57250 0.04700
H 	H 	0.20890 0.79070 0.94570 0.02600
H 	H 	0.21600 0.65740 0.00590 0.02900
H 	H 	0.63060 0.07300 0.00030 0.02500
H 	H 	0.51440 0.09780 0.93370 0.01800
C 	C 	0.72620 0.40690 0.72340 0.40800
C 	C 	0.72590 0.27150 0.72080 -0.13100
C 	C 	0.95790 0.64190 0.71290 0.41200
C 	C 	0.68940 0.06040 0.79170 0.12400
C 	C 	0.72360 0.64500 0.15910 0.07100
C 	C 	0.15620 0.66400 0.79680 0.12500
C 	C 	0.62120 0.65440 0.41590 0.08600
C 	C 	0.61720 0.64900 0.31910 -0.13100
C 	C 	0.72410 0.65570 0.26310 0.06300
C 	C 	0.09410 0.65320 0.71390 -0.12700
C 	C 	0.61840 0.63410 0.01330 0.10200
C 	C 	0.83100 0.62950 0.10710 -0.13200
C 	C 	0.82810 0.67590 0.40830 0.08800
C 	C 	0.75900 0.22360 0.63760 -0.00300
C 	C 	0.61490 0.64420 0.10830 -0.13700
C 	C 	0.69000 0.18630 0.79830 0.12100
C 	C 	0.28460 0.66850 0.79620 0.13100
C 	C 	0.16450 0.64980 0.62950 -0.00700
C 	C 	0.48970 0.65490 0.71360 0.43700
C 	C 	0.35560 0.66140 0.71490 -0.14300
C 	C 	0.72520 0.01230 0.70870 -0.12900
C 	C 	0.83090 0.67230 0.31090 -0.13400
C 	C 	0.75850 0.09920 0.63230 0.00000
C 	C 	0.82580 0.61910 0.01140 0.09900
C 	C 	0.28820 0.65380 0.63020 0.00400
C 	C 	0.72520 0.87790 0.70260 0.43600
C 	C 	0.21490 0.70330 0.94110 0.13100
C 	C 	0.60350 0.09230 0.93390 0.13000
N 	N 	0.72520 0.66830 0.46170 -0.25200
N 	N 	0.72230 0.62270 0.96280 -0.25000
O 	O 	0.73260 0.47550 0.64420 -0.47200
O 	O 	0.90810 0.66050 0.63180 -0.47000
O 	O 	0.90400 0.61500 0.79260 -0.45900
O 	O 	0.54360 0.66480 0.63320 -0.47500
O 	O 	0.54170 0.64020 0.79230 -0.46500
O 	O 	0.72880 0.80790 0.78000 -0.46400
O 	O 	0.72330 0.84780 0.62100 -0.45800
O 	O 	0.71740 0.44140 0.80460 -0.44800
O 	O 	0.11360 0.66880 0.88770 -0.20600
O 	O 	0.32410 0.67400 0.88800 -0.19900
O 	O 	0.64850 0.99870 0.87850 -0.19800
O 	O 	0.65270 0.20680 0.88880 -0.20700
Zn	Zn	0.27300 0.33617 0.39297 1.21800
Zn	Zn	0.27704 0.37777 0.18076 1.22300
H 	H 	0.45170 0.35190 0.54850 0.00400
H 	H 	0.45780 0.35920 0.70960 0.08500
H 	H 	0.45570 0.36470 0.01890 0.01700
H 	H 	0.09340 0.37370 0.86260 0.09200
H 	H 	0.09820 0.31590 0.56110 0.00100
H 	H 	0.21760 0.72270 0.41670 0.04500
H 	H 	0.46030 0.34940 0.86000 0.10100
H 	H 	0.87480 0.35540 0.42820 0.04900
H 	H 	0.09510 0.31900 0.72320 0.08400
H 	H 	0.21820 0.92730 0.42580 0.05100
H 	H 	0.10070 0.39120 0.02170 0.01600
H 	H 	0.66870 0.34850 0.42750 0.04700
H 	H 	0.79110 0.20930 0.05430 0.02600
H 	H 	0.78400 0.34260 0.99410 0.02900
H 	H 	0.36940 0.92700 0.99970 0.02500
H 	H 	0.48560 0.90220 0.06630 0.01800
C 	C 	0.27380 0.59310 0.27660 0.40800
C 	C 	0.27410 0.72850 0.27920 -0.13100
C 	C 	0.04210 0.35810 0.28710 0.41200
C 	C 	0.31060 0.93960 0.20830 0.12400
C 	C 	0.27640 0.35500 0.84090 0.07100
C 	C 	0.84380 0.33600 0.20320 0.12500
C 	C 	0.37880 0.34560 0.58410 0.08600
C 	C 	0.38280 0.35100 0.68090 -0.13100
C 	C 	0.27590 0.34430 0.73690 0.06300
C 	C 	0.90590 0.34680 0.28610 -0.12700
C 	C 	0.38160 0.36590 0.98670 0.10200
C 	C 	0.16900 0.37050 0.89290 -0.13200
C 	C 	0.17190 0.32410 0.59170 0.08800
C 	C 	0.24100 0.77640 0.36240 -0.00300
C 	C 	0.38510 0.35580 0.89170 -0.13700
C 	C 	0.31000 0.81370 0.20170 0.12100
C 	C 	0.71540 0.33150 0.20380 0.13100
C 	C 	0.83550 0.35020 0.37050 -0.00700
C 	C 	0.51030 0.34510 0.28640 0.43700
C 	C 	0.64440 0.33860 0.28510 -0.14300
C 	C 	0.27480 0.98770 0.29130 -0.12900
C 	C 	0.16910 0.32770 0.68910 -0.13400
C 	C 	0.24150 0.90080 0.36770 0.00000
C 	C 	0.17420 0.38090 0.98860 0.09900
C 	C 	0.71180 0.34620 0.36980 0.00400
C 	C 	0.27480 0.12210 0.29740 0.43600
C 	C 	0.78510 0.29670 0.05890 0.13100
C 	C 	0.39650 0.90770 0.06610 0.13000
N 	N 	0.27480 0.33170 0.53830 -0.25200
N 	N 	0.27770 0.37730 0.03720 -0.25000
O 	O 	0.26740 0.52450 0.35580 -0.47200
O 	O 	0.09190 0.33950 0.36820 -0.47000
O 	O 	0.09600 0.38500 0.20740 -0.45900
O 	O 	0.45640 0.33520 0.36680 -0.47500
O 	O 	0.45830 0.35980 0.20770 -0.46500
O 	O 	0.27120 0.19210 0.22000 -0.46400
O 	O 	0.27670 0.15220 0.37900 -0.45800
O 	O 	0.28260 0.55860 0.19540 -0.44800
O 	O 	0.88640 0.33120 0.11230 -0.20600
O 	O 	0.67590 0.32600 0.11200 -0.19900
O 	O 	0.35150 0.00130 0.12150 -0.19800
O 	O 	0.34730 0.79320 0.11120 -0.20700
