data_crystal

_cell_length_a 19.50780
_cell_length_b 19.50780
_cell_length_c 13.81500
_cell_angle_alpha 90.00000
_cell_angle_beta  90.00000
_cell_angle_gamma 90.00000

_symmetry_space_group_name_	'P 1'
_symmetry_space_group_name_H-M	'P 1'

loop_
_symmetry_equiv_pos_as_xyz
  x,y,z

loop_
_atom_site_label
_atom_site_type_symbol
_atom_site_fract_x
_atom_site_fract_y
_atom_site_fract_z
_atom_site_charge
Zn	Zn	0.98740 0.47007 0.37155 1.25100
H 	H 	0.92840 0.16170 0.58270 0.06500
H 	H 	0.91310 0.27130 0.63230 0.04600
H 	H 	0.67620 0.41060 0.38620 0.00600
H 	H 	0.67140 0.49220 0.39870 0.00800
H 	H 	0.07824 0.31468 0.28288 0.03000
H 	H 	0.73500 0.48400 0.97190 0.11800
H 	H 	0.83910 0.47880 0.03760 0.01700
C 	C 	0.95630 0.39060 0.56230 0.39900
C 	C 	0.88780 0.47990 0.21680 0.47800
C 	C 	0.96630 0.11210 0.40970 0.46000
C 	C 	0.97300 0.24150 0.38570 0.12000
C 	C 	0.95930 0.18330 0.44260 -0.13300
C 	C 	0.97040 0.30650 0.42310 0.14100
C 	C 	0.93830 0.19820 0.53940 -0.00900
C 	C 	0.95210 0.32080 0.51870 -0.15400
C 	C 	0.93240 0.26400 0.57010 0.01900
C 	C 	0.81460 0.47780 0.17880 -0.18200
C 	C 	0.69220 0.47000 0.19610 0.12100
C 	C 	0.68530 0.45500 0.35400 0.20000
C 	C 	0.67970 0.47630 0.09950 -0.09400
C 	C 	0.60980 0.48020 0.05710 0.32000
C 	C 	0.75890 0.47020 0.23800 0.16500
C 	C 	0.02020 0.31540 0.27330 0.12800
C 	C 	0.73940 0.48030 0.04020 -0.12700
C 	C 	0.80080 0.47900 0.08010 0.08400
O 	O 	0.96344 0.44309 0.50780 -0.56800
O 	O 	0.98700 0.35341 0.35220 -0.31100
O 	O 	0.89824 0.47010 0.30280 -0.47100
O 	O 	0.93175 0.49270 0.15420 -0.49800
O 	O 	0.55771 0.46799 0.11020 -0.55100
O 	O 	0.95700 0.06824 0.47060 -0.48900
O 	O 	0.98990 0.24476 0.29010 -0.18600
O 	O 	0.75493 0.46070 0.33260 -0.22900
O 	O 	0.60290 0.49150 0.96990 -0.32700
O 	O 	0.64693 0.45940 0.26720 -0.32400
O 	O 	0.97830 0.10145 0.32090 -0.45300
O 	O 	0.94710 0.39810 0.64870 -0.37600
H 	H 	0.49457 0.83926 0.54908 0.03700
Zn	Zn	0.01260 0.52993 0.87155 1.25600
H 	H 	0.07160 0.83830 0.08270 0.08800
H 	H 	0.08690 0.72870 0.13230 0.01900
H 	H 	0.32380 0.58940 0.88620 0.01700
H 	H 	0.32860 0.50780 0.89870 0.02200
H 	H 	0.92176 0.68532 0.78288 0.03300
H 	H 	0.26500 0.51600 0.47190 0.04800
H 	H 	0.16090 0.52120 0.53760 0.05900
C 	C 	0.04370 0.60940 0.06230 0.42600
C 	C 	0.11220 0.52010 0.71680 0.46200
C 	C 	0.03370 0.88790 0.90970 0.43300
C 	C 	0.02700 0.75850 0.88570 0.07800
C 	C 	0.04070 0.81670 0.94260 -0.05400
C 	C 	0.02960 0.69350 0.92310 0.21500
C 	C 	0.06170 0.80180 0.03940 -0.11200
C 	C 	0.04790 0.67920 0.01870 -0.23900
C 	C 	0.06760 0.73600 0.07010 0.09200
C 	C 	0.18540 0.52220 0.67880 -0.13500
C 	C 	0.30780 0.53000 0.69610 0.15500
C 	C 	0.31470 0.54500 0.85400 0.19100
C 	C 	0.32030 0.52370 0.59950 -0.15500
C 	C 	0.39020 0.51980 0.55710 0.39200
C 	C 	0.24110 0.52980 0.73800 0.13700
C 	C 	0.97980 0.68460 0.77330 0.13000
C 	C 	0.26060 0.51970 0.54020 0.01000
C 	C 	0.19920 0.52100 0.58010 -0.00000
O 	O 	0.03656 0.55691 0.00780 -0.59500
O 	O 	0.01300 0.64659 0.85220 -0.32000
O 	O 	0.10176 0.52990 0.80280 -0.46100
O 	O 	0.06825 0.50730 0.65420 -0.48900
O 	O 	0.44229 0.53201 0.61020 -0.56300
O 	O 	0.04300 0.93176 0.97060 -0.46400
O 	O 	0.01010 0.75524 0.79010 -0.17500
O 	O 	0.24507 0.53930 0.83260 -0.21300
O 	O 	0.39710 0.50850 0.46990 -0.37600
O 	O 	0.35307 0.54060 0.76720 -0.32800
O 	O 	0.02170 0.89855 0.82090 -0.44400
O 	O 	0.05290 0.60190 0.14870 -0.38600
H 	H 	0.50543 0.16074 0.04908 0.00400
Zn	Zn	0.02993 0.48740 0.12155 1.25000
H 	H 	0.33830 0.42840 0.33270 0.06200
H 	H 	0.22870 0.41310 0.38230 0.04500
H 	H 	0.08940 0.17620 0.13620 -0.00200
H 	H 	0.00780 0.17140 0.14870 0.00200
H 	H 	0.18532 0.57824 0.03288 0.03100
H 	H 	0.01600 0.23500 0.72190 0.05200
H 	H 	0.02120 0.33910 0.78760 0.05300
C 	C 	0.10940 0.45630 0.31230 0.39800
C 	C 	0.02010 0.38780 0.96680 0.52600
C 	C 	0.38790 0.46630 0.15970 0.46300
C 	C 	0.25850 0.47300 0.13570 0.12100
C 	C 	0.31670 0.45930 0.19260 -0.13800
C 	C 	0.19350 0.47040 0.17310 0.13800
C 	C 	0.30180 0.43830 0.28940 -0.00700
C 	C 	0.17920 0.45210 0.26870 -0.15400
C 	C 	0.23600 0.43240 0.32010 0.01700
C 	C 	0.02220 0.31460 0.92880 -0.16300
C 	C 	0.03000 0.19220 0.94610 0.18100
C 	C 	0.04500 0.18530 0.10400 0.21700
C 	C 	0.02370 0.17970 0.84950 -0.15500
C 	C 	0.01980 0.10980 0.80710 0.39500
C 	C 	0.02980 0.25890 0.98800 0.18600
C 	C 	0.18460 0.52020 0.02330 0.08700
C 	C 	0.01970 0.23940 0.79020 0.00200
C 	C 	0.02100 0.30080 0.83010 0.01900
O 	O 	0.05691 0.46344 0.25780 -0.56800
O 	O 	0.14659 0.48700 0.10220 -0.30900
O 	O 	0.02990 0.39824 0.05280 -0.50900
O 	O 	0.00730 0.43175 0.90420 -0.49600
O 	O 	0.03201 0.05771 0.86020 -0.55200
O 	O 	0.43176 0.45700 0.22060 -0.49300
O 	O 	0.25524 0.48990 0.04010 -0.19500
O 	O 	0.03930 0.25493 0.08260 -0.25800
O 	O 	0.00850 0.10290 0.71990 -0.37500
O 	O 	0.04060 0.14693 0.01720 -0.36900
O 	O 	0.39855 0.47830 0.07090 -0.46800
O 	O 	0.10190 0.44710 0.39870 -0.37700
H 	H 	0.66074 0.99457 0.29908 0.03600
Zn	Zn	0.97007 0.51260 0.62155 1.25000
H 	H 	0.66170 0.57160 0.83270 0.06400
H 	H 	0.77130 0.58690 0.88230 0.05300
H 	H 	0.91060 0.82380 0.63620 0.00700
H 	H 	0.99220 0.82860 0.64870 0.00900
H 	H 	0.81468 0.42176 0.53288 0.03100
H 	H 	0.98400 0.76500 0.22190 0.04600
H 	H 	0.97880 0.66090 0.28760 0.05800
C 	C 	0.89060 0.54370 0.81230 0.39500
C 	C 	0.97990 0.61220 0.46680 0.46400
C 	C 	0.61210 0.53370 0.65970 0.46100
C 	C 	0.74150 0.52700 0.63570 0.12200
C 	C 	0.68330 0.54070 0.69260 -0.13300
C 	C 	0.80650 0.52960 0.67310 0.13900
C 	C 	0.69820 0.56170 0.78940 -0.00500
C 	C 	0.82080 0.54790 0.76870 -0.14800
C 	C 	0.76400 0.56760 0.82010 0.01500
C 	C 	0.97780 0.68540 0.42880 -0.13800
C 	C 	0.97000 0.80780 0.44610 0.15500
C 	C 	0.95500 0.81470 0.60400 0.19900
C 	C 	0.97630 0.82030 0.34950 -0.15600
C 	C 	0.98020 0.89020 0.30710 0.39400
C 	C 	0.97020 0.74110 0.48800 0.13900
C 	C 	0.81540 0.47980 0.52330 0.12800
C 	C 	0.98030 0.76060 0.29020 0.01000
C 	C 	0.97900 0.69920 0.33010 0.00000
O 	O 	0.94309 0.53656 0.75780 -0.56500
O 	O 	0.85341 0.51300 0.60220 -0.31100
O 	O 	0.97010 0.60176 0.55280 -0.46600
O 	O 	0.99270 0.56825 0.40420 -0.48900
O 	O 	0.96799 0.94229 0.36020 -0.56400
O 	O 	0.56824 0.54300 0.72060 -0.49000
O 	O 	0.74476 0.51010 0.54010 -0.18500
O 	O 	0.96070 0.74507 0.58260 -0.22200
O 	O 	0.99150 0.89710 0.21990 -0.38100
O 	O 	0.95940 0.85307 0.51720 -0.33100
O 	O 	0.60145 0.52170 0.57090 -0.45400
O 	O 	0.89810 0.55290 0.89870 -0.36000
H 	H 	0.33926 0.00543 0.79908 0.03800
Zn	Zn	0.51260 0.97007 0.37845 1.25000
H 	H 	0.57160 0.66170 0.16730 0.06200
H 	H 	0.58690 0.77130 0.11770 0.03600
H 	H 	0.82380 0.91060 0.36380 0.00600
H 	H 	0.82860 0.99220 0.35130 0.00900
H 	H 	0.42176 0.81468 0.46712 0.03000
H 	H 	0.76500 0.98400 0.77810 0.05000
H 	H 	0.66090 0.97880 0.71240 0.05800
C 	C 	0.54370 0.89060 0.18770 0.40300
C 	C 	0.61220 0.97990 0.53320 0.46400
C 	C 	0.53370 0.61210 0.34030 0.45900
C 	C 	0.52700 0.74150 0.36430 0.11900
C 	C 	0.54070 0.68330 0.30740 -0.13100
C 	C 	0.52960 0.80650 0.32690 0.14300
C 	C 	0.56170 0.69820 0.21060 -0.01300
C 	C 	0.54790 0.82080 0.23130 -0.16100
C 	C 	0.56760 0.76400 0.17990 0.02500
C 	C 	0.68540 0.97780 0.57120 -0.13900
C 	C 	0.80780 0.97000 0.55390 0.15300
C 	C 	0.81470 0.95500 0.39600 0.20000
C 	C 	0.82030 0.97630 0.65050 -0.15300
C 	C 	0.89020 0.98020 0.69290 0.39000
C 	C 	0.74110 0.97020 0.51200 0.14000
C 	C 	0.47980 0.81540 0.47670 0.12800
C 	C 	0.76060 0.98030 0.70980 0.00800
C 	C 	0.69920 0.97900 0.66990 0.00300
O 	O 	0.53656 0.94309 0.24220 -0.57100
O 	O 	0.51300 0.85341 0.39780 -0.31200
O 	O 	0.60176 0.97010 0.44720 -0.46700
O 	O 	0.56825 0.99270 0.59580 -0.49000
O 	O 	0.94229 0.96799 0.63980 -0.56300
O 	O 	0.54300 0.56824 0.27940 -0.49100
O 	O 	0.51010 0.74476 0.45990 -0.18500
O 	O 	0.74507 0.96070 0.41740 -0.22200
O 	O 	0.89710 0.99150 0.78010 -0.37100
O 	O 	0.85307 0.95940 0.48280 -0.33100
O 	O 	0.52170 0.60145 0.42910 -0.45400
O 	O 	0.55290 0.89810 0.10130 -0.39400
H 	H 	0.00543 0.33926 0.20092 0.03600
Zn	Zn	0.48740 0.02993 0.87845 1.25100
H 	H 	0.42840 0.33830 0.66730 0.06400
H 	H 	0.41310 0.22870 0.61770 0.04400
H 	H 	0.17620 0.08940 0.86380 0.01600
H 	H 	0.17140 0.00780 0.85130 0.01700
H 	H 	0.57824 0.18532 0.96712 0.03000
H 	H 	0.23500 0.01600 0.27810 0.04600
H 	H 	0.33910 0.02120 0.21240 0.06300
C 	C 	0.45630 0.10940 0.68770 0.40000
C 	C 	0.38780 0.02010 0.03320 0.39900
C 	C 	0.46630 0.38790 0.84030 0.45600
C 	C 	0.47300 0.25850 0.86430 0.11900
C 	C 	0.45930 0.31670 0.80740 -0.12600
C 	C 	0.47040 0.19350 0.82690 0.14400
C 	C 	0.43830 0.30180 0.71060 -0.01200
C 	C 	0.45210 0.17920 0.73130 -0.15600
C 	C 	0.43240 0.23600 0.67990 0.02300
C 	C 	0.31460 0.02220 0.07120 -0.11300
C 	C 	0.19220 0.03000 0.05390 0.12600
C 	C 	0.18530 0.04500 0.89600 0.18100
C 	C 	0.17970 0.02370 0.15050 -0.15200
C 	C 	0.10980 0.01980 0.19290 0.38700
C 	C 	0.25890 0.02980 0.01200 0.09000
C 	C 	0.52020 0.18460 0.97670 0.17100
C 	C 	0.23940 0.01970 0.20980 0.01500
C 	C 	0.30080 0.02100 0.16990 -0.01600
O 	O 	0.46344 0.05691 0.74220 -0.56700
O 	O 	0.48700 0.14659 0.89780 -0.31400
O 	O 	0.39824 0.02990 0.94720 -0.42100
O 	O 	0.43175 0.00730 0.09580 -0.48300
O 	O 	0.05771 0.03201 0.13980 -0.56800
O 	O 	0.45700 0.43176 0.77940 -0.48700
O 	O 	0.48990 0.25524 0.95990 -0.17600
O 	O 	0.25493 0.03930 0.91740 -0.18400
O 	O 	0.10290 0.00850 0.28010 -0.37500
O 	O 	0.14693 0.04060 0.98280 -0.28900
O 	O 	0.47830 0.39855 0.92910 -0.43400
O 	O 	0.44710 0.10190 0.60130 -0.37700
H 	H 	0.99457 0.66074 0.70092 0.03700
Zn	Zn	0.47007 0.98740 0.62845 1.25000
H 	H 	0.16170 0.92840 0.41730 0.06200
H 	H 	0.27130 0.91310 0.36770 0.04300
H 	H 	0.41060 0.67620 0.61380 0.00600
H 	H 	0.49220 0.67140 0.60130 0.00800
H 	H 	0.31468 0.07824 0.71712 0.03100
H 	H 	0.48400 0.73500 0.02810 -0.01800
H 	H 	0.47880 0.83910 0.96240 0.09600
C 	C 	0.39060 0.95630 0.43770 0.40000
C 	C 	0.47990 0.88780 0.78320 0.45100
C 	C 	0.11210 0.96630 0.59030 0.46000
C 	C 	0.24150 0.97300 0.61430 0.12100
C 	C 	0.18330 0.95930 0.55740 -0.13300
C 	C 	0.30650 0.97040 0.57690 0.14200
C 	C 	0.19820 0.93830 0.46060 -0.01000
C 	C 	0.32080 0.95210 0.48130 -0.15500
C 	C 	0.26400 0.93240 0.42990 0.02000
C 	C 	0.47780 0.81460 0.82120 -0.09800
C 	C 	0.47000 0.69220 0.80390 0.18600
C 	C 	0.45500 0.68530 0.64600 0.20000
C 	C 	0.47630 0.67970 0.90050 -0.21300
C 	C 	0.48020 0.60980 0.94290 0.46200
C 	C 	0.47020 0.75890 0.76200 0.11500
C 	C 	0.31540 0.02020 0.72670 0.13200
C 	C 	0.48030 0.73940 0.95980 0.13900
C 	C 	0.47900 0.80080 0.91990 -0.07800
O 	O 	0.44309 0.96344 0.49220 -0.56800
O 	O 	0.35341 0.98700 0.64780 -0.31300
O 	O 	0.47010 0.89824 0.69720 -0.46300
O 	O 	0.49270 0.93175 0.84580 -0.48300
O 	O 	0.46799 0.55771 0.88980 -0.57200
O 	O 	0.06824 0.95700 0.52940 -0.49100
O 	O 	0.24476 0.98990 0.70990 -0.18700
O 	O 	0.46070 0.75493 0.66740 -0.21600
O 	O 	0.49150 0.60290 0.03010 -0.42200
O 	O 	0.45940 0.64693 0.73280 -0.33800
O 	O 	0.10145 0.97830 0.67910 -0.45500
O 	O 	0.39810 0.94710 0.35130 -0.37900
H 	H 	0.83926 0.49457 0.45092 0.03700
Zn	Zn	0.52993 0.01260 0.12845 1.24300
H 	H 	0.83830 0.07160 0.91730 0.03500
H 	H 	0.72870 0.08690 0.86770 0.07300
H 	H 	0.58940 0.32380 0.11380 -0.00500
H 	H 	0.50780 0.32860 0.10130 -0.00500
H 	H 	0.68532 0.92176 0.21712 0.02800
H 	H 	0.51600 0.26500 0.52810 0.04900
H 	H 	0.52120 0.16090 0.46240 0.05800
C 	C 	0.60940 0.04370 0.93770 0.37000
C 	C 	0.52010 0.11220 0.28320 0.46600
C 	C 	0.88790 0.03370 0.09030 0.48900
C 	C 	0.75850 0.02700 0.11430 0.16700
C 	C 	0.81670 0.04070 0.05740 -0.21900
C 	C 	0.69350 0.02960 0.07690 0.05900
C 	C 	0.80180 0.06170 0.96060 0.10500
C 	C 	0.67920 0.04790 0.98130 -0.06100
C 	C 	0.73600 0.06760 0.92990 -0.05900
C 	C 	0.52220 0.18540 0.32120 -0.14200
C 	C 	0.53000 0.30780 0.30390 0.15300
C 	C 	0.54500 0.31470 0.14600 0.21000
C 	C 	0.52370 0.32030 0.40050 -0.15400
C 	C 	0.51980 0.39020 0.44290 0.39200
C 	C 	0.52980 0.24110 0.26200 0.14100
C 	C 	0.68460 0.97980 0.22670 0.12900
C 	C 	0.51970 0.26060 0.45980 0.00800
C 	C 	0.52100 0.19920 0.41990 0.00300
O 	O 	0.55691 0.03656 0.99220 -0.53800
O 	O 	0.64659 0.01300 0.14780 -0.30200
O 	O 	0.52990 0.10176 0.19720 -0.47300
O 	O 	0.50730 0.06825 0.34580 -0.49000
O 	O 	0.53201 0.44229 0.38980 -0.56400
O 	O 	0.93176 0.04300 0.02940 -0.51600
O 	O 	0.75524 0.01010 0.20990 -0.19700
O 	O 	0.53930 0.24507 0.16740 -0.23200
O 	O 	0.50850 0.39710 0.53010 -0.37600
O 	O 	0.54060 0.35307 0.23280 -0.33500
O 	O 	0.89855 0.02170 0.17910 -0.46300
O 	O 	0.60190 0.05290 0.85130 -0.36700
H 	H 	0.16074 0.50543 0.95092 0.06800
Zn	Zn	0.48631 0.48631 -0.00000 1.22800
Zn	Zn	0.51369 0.51369 0.50000 1.24000
Zn	Zn	0.01369 0.98631 0.75000 1.24000
Zn	Zn	0.98631 0.01369 0.25000 1.24100
Zn	Zn	0.52986 0.47014 0.25000 1.25700
Zn	Zn	0.47014 0.52986 0.75000 1.25900
Zn	Zn	0.02986 0.02986 -0.00000 1.24600
Zn	Zn	0.97014 0.97014 0.50000 1.25800
