data_crystal

_cell_length_a 16.20450
_cell_length_b 17.60220
_cell_length_c 17.90250
_cell_angle_alpha 90.00000
_cell_angle_beta  90.00000
_cell_angle_gamma 90.00000

_symmetry_space_group_name_	'P 1'
_symmetry_space_group_name_H-M	'P 1'

loop_
_symmetry_equiv_pos_as_xyz
  x,y,z

loop_
_atom_site_label
_atom_site_type_symbol
_atom_site_fract_x
_atom_site_fract_y
_atom_site_fract_z
_atom_site_charge
Zn	Zn	0.27479 0.89917 0.61703 1.20900
Zn	Zn	0.77479 0.60083 0.38297 1.20900
Zn	Zn	0.77479 0.39917 0.88297 1.20900
Zn	Zn	0.27479 0.10083 0.11703 1.20900
H 	H 	0.28670 0.07560 0.57850 0.10500
H 	H 	0.15000 0.00860 0.19500 0.12900
H 	H 	0.22520 0.85220 0.44530 0.25400
H 	H 	0.32150 0.85130 0.45350 0.25400
H 	H 	0.28100 0.87790 0.37840 0.26700
H 	H 	0.26160 0.19000 0.51080 0.27000
H 	H 	0.20930 0.17880 0.43790 0.26700
H 	H 	0.30570 0.18480 0.43300 0.25800
H 	H 	0.09600 0.91360 0.30870 0.27000
H 	H 	0.05140 0.99220 0.31700 0.28100
H 	H 	0.10270 0.95900 0.38370 0.28100
H 	H 	0.40930 0.09100 0.25300 0.24200
H 	H 	0.39630 0.09470 0.33970 0.26000
H 	H 	0.36220 0.15980 0.28870 0.25400
H 	H 	0.08400 0.73900 0.55210 0.04100
H 	H 	0.98970 0.67830 0.47610 0.03100
H 	H 	0.89600 0.87880 0.41530 0.04400
H 	H 	0.98500 0.93920 0.49640 0.04700
H 	H 	0.78670 0.42440 0.42150 0.10500
H 	H 	0.65000 0.49140 0.80500 0.12900
H 	H 	0.72520 0.64780 0.55470 0.25400
H 	H 	0.82150 0.64870 0.54650 0.25400
H 	H 	0.78100 0.62210 0.62160 0.26700
H 	H 	0.76160 0.31000 0.48920 0.27000
H 	H 	0.70930 0.32120 0.56210 0.26700
H 	H 	0.80570 0.31520 0.56700 0.25800
H 	H 	0.59600 0.58640 0.69130 0.27000
H 	H 	0.55140 0.50780 0.68300 0.28100
H 	H 	0.60270 0.54100 0.61630 0.28100
H 	H 	0.90930 0.40900 0.74700 0.24200
H 	H 	0.89630 0.40530 0.66030 0.26000
H 	H 	0.86220 0.34020 0.71130 0.25400
H 	H 	0.58400 0.76100 0.44790 0.04100
H 	H 	0.48970 0.82170 0.52390 0.03100
H 	H 	0.39600 0.62120 0.58470 0.04400
H 	H 	0.48500 0.56080 0.50360 0.04700
H 	H 	0.78670 0.57560 0.92150 0.10500
H 	H 	0.65000 0.50860 0.30500 0.12900
H 	H 	0.72520 0.35220 0.05470 0.25400
H 	H 	0.82150 0.35130 0.04650 0.25300
H 	H 	0.78100 0.37790 0.12160 0.26700
H 	H 	0.76160 0.69000 0.98920 0.27100
H 	H 	0.70930 0.67880 0.06210 0.26700
H 	H 	0.80570 0.68480 0.06700 0.25800
H 	H 	0.59600 0.41360 0.19130 0.27000
H 	H 	0.55140 0.49220 0.18300 0.28100
H 	H 	0.60270 0.45900 0.11630 0.28100
H 	H 	0.90930 0.59100 0.24700 0.24200
H 	H 	0.89630 0.59470 0.16030 0.25900
H 	H 	0.86220 0.65980 0.21130 0.25400
H 	H 	0.58400 0.23900 0.94790 0.04100
H 	H 	0.48970 0.17830 0.02390 0.03100
H 	H 	0.39600 0.37880 0.08470 0.04400
H 	H 	0.48500 0.43920 0.00360 0.04700
H 	H 	0.28670 0.92440 0.07850 0.10500
H 	H 	0.15000 0.99140 0.69500 0.12900
H 	H 	0.22520 0.14780 0.94530 0.25300
H 	H 	0.32150 0.14870 0.95350 0.25300
H 	H 	0.28100 0.12210 0.87840 0.26600
H 	H 	0.26160 0.81000 0.01080 0.27000
H 	H 	0.20930 0.82120 0.93790 0.26700
H 	H 	0.30570 0.81520 0.93300 0.25700
H 	H 	0.09600 0.08640 0.80870 0.27000
H 	H 	0.05140 0.00780 0.81700 0.28000
H 	H 	0.10270 0.04100 0.88370 0.28100
H 	H 	0.40930 0.90900 0.75300 0.24200
H 	H 	0.39630 0.90530 0.83970 0.26000
H 	H 	0.36220 0.84020 0.78870 0.25400
H 	H 	0.08400 0.26100 0.05210 0.04100
H 	H 	0.98970 0.32170 0.97610 0.03100
H 	H 	0.89600 0.12120 0.91530 0.04400
H 	H 	0.98500 0.06080 0.99640 0.04700
C 	C 	0.27550 0.87757 0.43179 -0.82600
C 	C 	0.27350 0.95740 0.45998 0.27200
C 	C 	0.26113 0.02432 0.41941 -0.17200
C 	C 	0.26696 0.08266 0.47089 0.29700
C 	C 	0.26030 0.16651 0.46237 -0.82100
C 	C 	0.09950 0.96340 0.33036 -0.84200
C 	C 	0.17492 0.00280 0.30178 0.30100
C 	C 	0.24365 0.03053 0.33902 -0.17400
C 	C 	0.29272 0.06443 0.28414 0.27600
C 	C 	0.37220 0.10620 0.29211 -0.81200
C 	C 	0.10752 0.88522 0.57957 0.31700
C 	C 	0.04454 0.84544 0.53172 -0.07400
C 	C 	0.04567 0.76730 0.52526 -0.04300
C 	C 	0.98988 0.73106 0.47883 -0.02600
C 	C 	0.93331 0.85038 0.44325 -0.02400
C 	C 	0.98723 0.88669 0.49125 -0.04300
C 	C 	0.87228 0.73199 0.38817 0.33700
C 	C 	0.93436 0.77237 0.43649 -0.09600
C 	C 	0.77550 0.62243 0.56821 -0.82600
C 	C 	0.77350 0.54260 0.54002 0.27300
C 	C 	0.76113 0.47568 0.58059 -0.17200
C 	C 	0.76696 0.41734 0.52911 0.29800
C 	C 	0.76030 0.33349 0.53763 -0.82200
C 	C 	0.59950 0.53660 0.66964 -0.84100
C 	C 	0.67492 0.49720 0.69822 0.30100
C 	C 	0.74365 0.46947 0.66098 -0.17400
C 	C 	0.79272 0.43557 0.71586 0.27600
C 	C 	0.87220 0.39380 0.70789 -0.81200
C 	C 	0.60752 0.61478 0.42043 0.31700
C 	C 	0.54454 0.65456 0.46828 -0.07400
C 	C 	0.54567 0.73270 0.47474 -0.04300
C 	C 	0.48988 0.76894 0.52117 -0.02600
C 	C 	0.43331 0.64962 0.55675 -0.02400
C 	C 	0.48723 0.61331 0.50875 -0.04300
C 	C 	0.37228 0.76801 0.61183 0.33700
C 	C 	0.43436 0.72763 0.56351 -0.09600
C 	C 	0.77550 0.37757 0.06821 -0.82600
C 	C 	0.77350 0.45740 0.04002 0.27200
C 	C 	0.76113 0.52432 0.08059 -0.17200
C 	C 	0.76696 0.58266 0.02911 0.29800
C 	C 	0.76030 0.66651 0.03763 -0.82300
C 	C 	0.59950 0.46340 0.16964 -0.84100
C 	C 	0.67492 0.50280 0.19822 0.30100
C 	C 	0.74365 0.53053 0.16098 -0.17400
C 	C 	0.79272 0.56443 0.21586 0.27600
C 	C 	0.87220 0.60620 0.20789 -0.81200
C 	C 	0.60752 0.38522 0.92043 0.31700
C 	C 	0.54454 0.34544 0.96828 -0.07400
C 	C 	0.54567 0.26730 0.97474 -0.04300
C 	C 	0.48988 0.23106 0.02117 -0.02500
C 	C 	0.43331 0.35038 0.05675 -0.02400
C 	C 	0.48723 0.38669 0.00875 -0.04300
C 	C 	0.37228 0.23199 0.11183 0.33700
C 	C 	0.43436 0.27237 0.06351 -0.09600
C 	C 	0.27550 0.12243 0.93179 -0.82400
C 	C 	0.27350 0.04260 0.95998 0.27100
C 	C 	0.26113 0.97568 0.91941 -0.17100
C 	C 	0.26696 0.91734 0.97089 0.29700
C 	C 	0.26030 0.83349 0.96237 -0.82100
C 	C 	0.09950 0.03660 0.83036 -0.84100
C 	C 	0.17492 0.99720 0.80178 0.30200
C 	C 	0.24365 0.96947 0.83902 -0.17400
C 	C 	0.29272 0.93557 0.78414 0.27600
C 	C 	0.37220 0.89380 0.79211 -0.81200
C 	C 	0.10752 0.11478 0.07957 0.31700
C 	C 	0.04454 0.15456 0.03172 -0.07300
C 	C 	0.04567 0.23270 0.02526 -0.04300
C 	C 	0.98988 0.26894 0.97883 -0.02600
C 	C 	0.93331 0.14962 0.94325 -0.02300
C 	C 	0.98723 0.11331 0.99125 -0.04300
C 	C 	0.87228 0.26801 0.88817 0.33700
C 	C 	0.93436 0.22763 0.93649 -0.09600
N 	N 	0.28620 0.97396 0.53243 -0.26800
N 	N 	0.28127 0.05056 0.53749 -0.21900
N 	N 	0.25602 0.05779 0.21749 -0.27800
N 	N 	0.18478 0.02011 0.22946 -0.22800
N 	N 	0.78620 0.52604 0.46757 -0.26800
N 	N 	0.78127 0.44944 0.46251 -0.21900
N 	N 	0.75602 0.44221 0.78251 -0.27800
N 	N 	0.68478 0.47989 0.77054 -0.22800
N 	N 	0.78620 0.47396 0.96757 -0.26700
N 	N 	0.78127 0.55056 0.96251 -0.21800
N 	N 	0.75602 0.55779 0.28251 -0.27800
N 	N 	0.68478 0.52011 0.27054 -0.22800
N 	N 	0.28620 0.02604 0.03243 -0.26700
N 	N 	0.28127 0.94944 0.03749 -0.21900
N 	N 	0.25602 0.94221 0.71749 -0.27800
N 	N 	0.18478 0.97989 0.72946 -0.22800
O 	O 	0.17280 0.84635 0.59199 -0.46800
O 	O 	0.09481 0.95085 0.60174 -0.32300
O 	O 	0.87217 0.66021 0.39493 -0.50400
O 	O 	0.82563 0.76879 0.34826 -0.32600
O 	O 	0.67280 0.65365 0.40801 -0.46800
O 	O 	0.59481 0.54915 0.39826 -0.32300
O 	O 	0.37217 0.83979 0.60507 -0.50300
O 	O 	0.32563 0.73121 0.65174 -0.32600
O 	O 	0.67280 0.34635 0.90801 -0.46800
O 	O 	0.59481 0.45085 0.89826 -0.32300
O 	O 	0.37217 0.16021 0.10507 -0.50300
O 	O 	0.32563 0.26879 0.15174 -0.32600
O 	O 	0.17280 0.15365 0.09199 -0.46800
O 	O 	0.09481 0.04915 0.10174 -0.32200
O 	O 	0.87217 0.33979 0.89493 -0.50300
O 	O 	0.82563 0.23121 0.84826 -0.32600
Zn	Zn	0.22521 0.60083 0.11703 1.21000
Zn	Zn	0.72521 0.89917 0.88297 1.21000
Zn	Zn	0.72521 0.10083 0.38297 1.21000
Zn	Zn	0.22521 0.39917 0.61703 1.21000
H 	H 	0.21330 0.42440 0.07850 0.10500
H 	H 	0.35000 0.49140 0.69500 0.12900
H 	H 	0.27480 0.64780 0.94530 0.25400
H 	H 	0.17850 0.64870 0.95350 0.25300
H 	H 	0.21900 0.62210 0.87840 0.26700
H 	H 	0.23840 0.31000 0.01080 0.27100
H 	H 	0.29070 0.32120 0.93790 0.26700
H 	H 	0.19430 0.31520 0.93300 0.25800
H 	H 	0.40400 0.58640 0.80870 0.27000
H 	H 	0.44860 0.50780 0.81700 0.28100
H 	H 	0.39730 0.54100 0.88370 0.28100
H 	H 	0.09070 0.40900 0.75300 0.24200
H 	H 	0.10370 0.40530 0.83970 0.25900
H 	H 	0.13780 0.34020 0.78870 0.25400
H 	H 	0.41600 0.76100 0.05210 0.04100
H 	H 	0.51030 0.82170 0.97610 0.03100
H 	H 	0.60400 0.62120 0.91530 0.04400
H 	H 	0.51500 0.56080 0.99640 0.04700
H 	H 	0.71330 0.07560 0.92150 0.10500
H 	H 	0.85000 0.00860 0.30500 0.12900
H 	H 	0.77480 0.85220 0.05470 0.25300
H 	H 	0.67850 0.85130 0.04650 0.25300
H 	H 	0.71900 0.87790 0.12160 0.26600
H 	H 	0.73840 0.19000 0.98920 0.27000
H 	H 	0.79070 0.17880 0.06210 0.26700
H 	H 	0.69430 0.18480 0.06700 0.25700
H 	H 	0.90400 0.91360 0.19130 0.27000
H 	H 	0.94860 0.99220 0.18300 0.28000
H 	H 	0.89730 0.95900 0.11630 0.28100
H 	H 	0.59070 0.09100 0.24700 0.24200
H 	H 	0.60370 0.09470 0.16030 0.26000
H 	H 	0.63780 0.15980 0.21130 0.25400
H 	H 	0.91600 0.73900 0.94790 0.04100
H 	H 	0.01030 0.67830 0.02390 0.03100
H 	H 	0.10400 0.87880 0.08470 0.04400
H 	H 	0.01500 0.93920 0.00360 0.04700
H 	H 	0.71330 0.92440 0.42150 0.10500
H 	H 	0.85000 0.99140 0.80500 0.12900
H 	H 	0.77480 0.14780 0.55470 0.25400
H 	H 	0.67850 0.14870 0.54650 0.25400
H 	H 	0.71900 0.12210 0.62160 0.26700
H 	H 	0.73840 0.81000 0.48920 0.27000
H 	H 	0.79070 0.82120 0.56210 0.26700
H 	H 	0.69430 0.81520 0.56700 0.25800
H 	H 	0.90400 0.08640 0.69130 0.27000
H 	H 	0.94860 0.00780 0.68300 0.28100
H 	H 	0.89730 0.04100 0.61630 0.28100
H 	H 	0.59070 0.90900 0.74700 0.24200
H 	H 	0.60370 0.90530 0.66030 0.26000
H 	H 	0.63780 0.84020 0.71130 0.25400
H 	H 	0.91600 0.26100 0.44790 0.04100
H 	H 	0.01030 0.32170 0.52390 0.03100
H 	H 	0.10400 0.12120 0.58470 0.04400
H 	H 	0.01500 0.06080 0.50360 0.04700
H 	H 	0.21330 0.57560 0.57850 0.10500
H 	H 	0.35000 0.50860 0.19500 0.12900
H 	H 	0.27480 0.35220 0.44530 0.25400
H 	H 	0.17850 0.35130 0.45350 0.25400
H 	H 	0.21900 0.37790 0.37840 0.26700
H 	H 	0.23840 0.69000 0.51080 0.27000
H 	H 	0.29070 0.67880 0.43790 0.26700
H 	H 	0.19430 0.68480 0.43300 0.25800
H 	H 	0.40400 0.41360 0.30870 0.27000
H 	H 	0.44860 0.49220 0.31700 0.28100
H 	H 	0.39730 0.45900 0.38370 0.28100
H 	H 	0.09070 0.59100 0.25300 0.24200
H 	H 	0.10370 0.59470 0.33970 0.26000
H 	H 	0.13780 0.65980 0.28870 0.25400
H 	H 	0.41600 0.23900 0.55210 0.04100
H 	H 	0.51030 0.17830 0.47610 0.03100
H 	H 	0.60400 0.37880 0.41530 0.04400
H 	H 	0.51500 0.43920 0.49640 0.04700
C 	C 	0.22450 0.62243 0.93179 -0.82600
C 	C 	0.22650 0.54260 0.95998 0.27200
C 	C 	0.23887 0.47568 0.91941 -0.17200
C 	C 	0.23304 0.41734 0.97089 0.29800
C 	C 	0.23970 0.33349 0.96237 -0.82300
C 	C 	0.40050 0.53660 0.83036 -0.84100
C 	C 	0.32508 0.49720 0.80178 0.30100
C 	C 	0.25635 0.46947 0.83902 -0.17400
C 	C 	0.20728 0.43557 0.78414 0.27600
C 	C 	0.12780 0.39380 0.79211 -0.81200
C 	C 	0.39248 0.61478 0.07957 0.31700
C 	C 	0.45546 0.65456 0.03172 -0.07400
C 	C 	0.45433 0.73270 0.02526 -0.04300
C 	C 	0.51012 0.76894 0.97883 -0.02500
C 	C 	0.56669 0.64962 0.94325 -0.02400
C 	C 	0.51277 0.61331 0.99125 -0.04300
C 	C 	0.62772 0.76801 0.88817 0.33700
C 	C 	0.56564 0.72763 0.93649 -0.09600
C 	C 	0.72450 0.87757 0.06821 -0.82400
C 	C 	0.72650 0.95740 0.04002 0.27100
C 	C 	0.73887 0.02432 0.08059 -0.17100
C 	C 	0.73304 0.08266 0.02911 0.29700
C 	C 	0.73970 0.16651 0.03763 -0.82100
C 	C 	0.90050 0.96340 0.16964 -0.84100
C 	C 	0.82508 0.00280 0.19822 0.30200
C 	C 	0.75635 0.03053 0.16098 -0.17400
C 	C 	0.70728 0.06443 0.21586 0.27600
C 	C 	0.62780 0.10620 0.20789 -0.81200
C 	C 	0.89248 0.88522 0.92043 0.31700
C 	C 	0.95546 0.84544 0.96828 -0.07300
C 	C 	0.95433 0.76730 0.97474 -0.04300
C 	C 	0.01012 0.73106 0.02117 -0.02600
C 	C 	0.06669 0.85038 0.05675 -0.02300
C 	C 	0.01277 0.88669 0.00875 -0.04300
C 	C 	0.12772 0.73199 0.11183 0.33700
C 	C 	0.06564 0.77237 0.06351 -0.09600
C 	C 	0.72450 0.12243 0.56821 -0.82600
C 	C 	0.72650 0.04260 0.54002 0.27200
C 	C 	0.73887 0.97568 0.58059 -0.17200
C 	C 	0.73304 0.91734 0.52911 0.29700
C 	C 	0.73970 0.83349 0.53763 -0.82100
C 	C 	0.90050 0.03660 0.66964 -0.84200
C 	C 	0.82508 0.99720 0.69822 0.30100
C 	C 	0.75635 0.96947 0.66098 -0.17400
C 	C 	0.70728 0.93557 0.71586 0.27600
C 	C 	0.62780 0.89380 0.70789 -0.81200
C 	C 	0.89248 0.11478 0.42043 0.31700
C 	C 	0.95546 0.15456 0.46828 -0.07400
C 	C 	0.95433 0.23270 0.47474 -0.04300
C 	C 	0.01012 0.26894 0.52117 -0.02600
C 	C 	0.06669 0.14962 0.55675 -0.02400
C 	C 	0.01277 0.11331 0.50875 -0.04300
C 	C 	0.12772 0.26801 0.61183 0.33700
C 	C 	0.06564 0.22763 0.56351 -0.09600
C 	C 	0.22450 0.37757 0.43179 -0.82600
C 	C 	0.22650 0.45740 0.45998 0.27300
C 	C 	0.23887 0.52432 0.41941 -0.17200
C 	C 	0.23304 0.58266 0.47089 0.29800
C 	C 	0.23970 0.66651 0.46237 -0.82200
C 	C 	0.40050 0.46340 0.33036 -0.84100
C 	C 	0.32508 0.50280 0.30178 0.30100
C 	C 	0.25635 0.53053 0.33902 -0.17400
C 	C 	0.20728 0.56443 0.28414 0.27600
C 	C 	0.12780 0.60620 0.29211 -0.81200
C 	C 	0.39248 0.38522 0.57957 0.31700
C 	C 	0.45546 0.34544 0.53172 -0.07400
C 	C 	0.45433 0.26730 0.52526 -0.04300
C 	C 	0.51012 0.23106 0.47883 -0.02600
C 	C 	0.56669 0.35038 0.44325 -0.02400
C 	C 	0.51277 0.38669 0.49125 -0.04300
C 	C 	0.62772 0.23199 0.38817 0.33700
C 	C 	0.56564 0.27237 0.43649 -0.09600
N 	N 	0.21380 0.52604 0.03243 -0.26700
N 	N 	0.21873 0.44944 0.03749 -0.21800
N 	N 	0.24398 0.44221 0.71749 -0.27800
N 	N 	0.31522 0.47989 0.72946 -0.22800
N 	N 	0.71380 0.97396 0.96757 -0.26700
N 	N 	0.71873 0.05056 0.96251 -0.21900
N 	N 	0.74398 0.05779 0.28251 -0.27800
N 	N 	0.81522 0.02011 0.27054 -0.22800
N 	N 	0.71380 0.02604 0.46757 -0.26800
N 	N 	0.71873 0.94944 0.46251 -0.21900
N 	N 	0.74398 0.94221 0.78251 -0.27800
N 	N 	0.81522 0.97989 0.77054 -0.22800
N 	N 	0.21380 0.47396 0.53243 -0.26800
N 	N 	0.21873 0.55056 0.53749 -0.21900
N 	N 	0.24398 0.55779 0.21749 -0.27800
N 	N 	0.31522 0.52011 0.22946 -0.22800
O 	O 	0.32720 0.65365 0.09199 -0.46800
O 	O 	0.40519 0.54915 0.10174 -0.32300
O 	O 	0.62783 0.83979 0.89493 -0.50300
O 	O 	0.67437 0.73121 0.84826 -0.32600
O 	O 	0.82720 0.84635 0.90801 -0.46800
O 	O 	0.90519 0.95085 0.89826 -0.32200
O 	O 	0.12783 0.66021 0.10507 -0.50300
O 	O 	0.17437 0.76879 0.15174 -0.32600
O 	O 	0.82720 0.15365 0.40801 -0.46800
O 	O 	0.90519 0.04915 0.39826 -0.32300
O 	O 	0.12783 0.33979 0.60507 -0.50400
O 	O 	0.17437 0.23121 0.65174 -0.32600
O 	O 	0.32720 0.34635 0.59199 -0.46800
O 	O 	0.40519 0.45085 0.60174 -0.32300
O 	O 	0.62783 0.16021 0.39493 -0.50300
O 	O 	0.67437 0.26879 0.34826 -0.32600
