data_crystal

_cell_length_a 36.78760
_cell_length_b 36.78760
_cell_length_c 37.71530
_cell_angle_alpha 119.19000
_cell_angle_beta  119.19000
_cell_angle_gamma 90.00000

_symmetry_space_group_name_	'P 1'
_symmetry_space_group_name_H-M	'P 1'

loop_
_symmetry_equiv_pos_as_xyz
  x,y,z

loop_
_atom_site_label
_atom_site_type_symbol
_atom_site_fract_x
_atom_site_fract_y
_atom_site_fract_z
_atom_site_charge
Cu	Cu	0.33372 0.53518 0.79206 0.90600
Cu	Cu	0.45204 0.55443 0.27622 0.90600
Cu	Cu	0.70238 0.42499 -0.00000 0.89500
Cu	Cu	0.74312 0.66628 0.20794 0.90400
Cu	Cu	0.46482 0.54166 0.20794 0.90400
Cu	Cu	0.53518 0.45834 0.79206 0.90600
Cu	Cu	0.45834 0.25688 0.79206 0.90600
Cu	Cu	0.25688 0.33372 0.79206 0.90600
Cu	Cu	0.54166 0.74312 0.20794 0.90400
Cu	Cu	0.77039 0.40057 -0.00000 0.89000
Cu	Cu	0.66628 0.46482 0.20794 0.90500
Cu	Cu	0.40057 0.22961 -0.00000 0.89000
Cu	Cu	0.54796 0.44557 0.72378 0.90700
Cu	Cu	0.44557 0.17582 0.72378 0.90700
Cu	Cu	0.22961 0.59943 -0.00000 0.89000
Cu	Cu	0.27821 0.54796 0.72378 0.90700
Cu	Cu	0.82418 0.72179 0.27622 0.90700
Cu	Cu	0.57501 0.70238 -0.00000 0.89600
Cu	Cu	0.42499 0.29762 -0.00000 0.89600
Cu	Cu	0.55443 0.82418 0.27622 0.90700
Cu	Cu	0.72179 0.45204 0.27622 0.90700
Cu	Cu	0.29762 0.57501 -0.00000 0.89600
Cu	Cu	0.59943 0.77039 -0.00000 0.89000
Cu	Cu	0.17582 0.27821 0.72378 0.90700
H 	H 	0.09630 0.00400 0.72380 0.08000
H 	H 	0.10460 0.72340 0.21800 0.03600
H 	H 	0.77770 0.54010 0.74060 0.03800
H 	H 	0.46900 0.77150 0.90700 0.08700
H 	H 	0.79900 0.82600 0.37300 0.08700
H 	H 	0.55590 0.34840 0.12000 0.06000
H 	H 	0.32600 0.25470 0.73920 0.06400
H 	H 	0.60030 0.75930 0.69300 0.02900
H 	H 	0.90980 0.56010 0.77500 0.08900
H 	H 	0.88660 0.50540 0.78200 0.03700
H 	H 	0.92270 0.70430 0.44960 0.03600
H 	H 	0.17790 0.78440 0.20900 0.02700
H 	H 	0.09020 0.43990 0.22500 0.08400
H 	H 	0.06410 0.32380 0.80000 0.02800
H 	H 	0.98520 0.76010 0.51940 0.04900
H 	H 	0.22850 0.56200 0.09300 0.07600
H 	H 	0.20050 0.77770 0.74060 0.03800
H 	H 	0.32380 0.73590 0.80000 0.02800
H 	H 	0.77150 0.43800 0.90700 0.08700
H 	H 	0.27660 0.88660 0.78200 0.03700
H 	H 	0.45990 0.03710 0.25940 0.03800
H 	H 	0.22220 0.03730 0.80100 0.06800
H 	H 	0.56410 0.77160 0.12000 0.06000
H 	H 	0.70250 0.26820 0.88360 0.07800
H 	H 	0.23630 0.77780 0.19900 0.06300
H 	H 	0.03110 0.42460 0.20900 0.02900
H 	H 	0.26430 0.76130 0.77720 0.06300
H 	H 	0.66350 0.13160 0.18020 0.06900
H 	H 	0.09320 0.86630 0.65700 0.08500
H 	H 	0.01590 0.26430 0.77720 0.06500
H 	H 	0.30440 0.13450 0.62760 0.07400
H 	H 	0.32320 0.49310 0.62760 0.07300
H 	H 	0.74240 0.56430 0.64400 0.04600
H 	H 	0.22850 0.94700 0.41540 0.03900
H 	H 	0.98410 0.73570 0.22280 0.05700
H 	H 	0.25470 0.41320 0.73920 0.06400
H 	H 	0.75930 0.98520 0.51940 0.04900
H 	H 	0.90160 0.07970 0.64400 0.04800
H 	H 	0.46840 0.22850 0.41540 0.04200
H 	H 	0.18690 0.46840 0.41540 0.04200
H 	H 	0.82210 0.21560 0.79100 0.03100
H 	H 	0.52690 0.74530 0.44960 0.03500
H 	H 	0.58410 0.59890 0.88520 0.06700
H 	H 	0.41940 0.81830 0.22380 0.08200
H 	H 	0.93370 0.60030 0.69300 0.02700
H 	H 	0.31340 0.43680 0.42540 0.06200
H 	H 	0.68330 0.45230 0.79880 0.07500
H 	H 	0.33650 0.86840 0.81980 0.07500
H 	H 	0.58060 0.18170 0.77620 0.08400
H 	H 	0.56380 0.79070 0.65700 0.08500
H 	H 	0.56430 0.90160 0.64400 0.04600
H 	H 	0.47620 0.06410 0.80000 0.02800
H 	H 	0.59450 0.58060 0.77620 0.08400
H 	H 	0.53160 0.77150 0.58460 0.04200
H 	H 	0.10340 0.84700 0.32320 0.08400
H 	H 	0.75930 0.09270 0.69300 0.03000
H 	H 	0.57400 0.54700 0.37300 0.08700
H 	H 	0.53420 0.75930 0.51940 0.05400
H 	H 	0.54770 0.88450 0.20120 0.07300
H 	H 	0.82600 0.57400 0.37300 0.08700
H 	H 	0.20100 0.17400 0.62700 0.08700
H 	H 	0.68660 0.56320 0.57460 0.06300
H 	H 	0.41590 0.40110 0.11480 0.05900
H 	H 	0.84700 0.21980 0.32320 0.08400
H 	H 	0.73180 0.81890 0.11640 0.07000
H 	H 	0.22840 0.44410 0.88000 0.06700
H 	H 	0.21980 0.47620 0.32320 0.08300
H 	H 	0.44410 0.65160 0.88000 0.06700
H 	H 	0.34840 0.56410 0.12000 0.06000
H 	H 	0.43570 0.09840 0.35600 0.04500
H 	H 	0.90730 0.06630 0.30700 0.03100
H 	H 	0.13370 0.43620 0.34300 0.08300
H 	H 	0.54010 0.96290 0.74060 0.03700
H 	H 	0.06630 0.39970 0.30700 0.03200
H 	H 	0.25760 0.43570 0.35600 0.04500
H 	H 	0.38460 0.29750 0.11640 0.07000
H 	H 	0.72340 0.11340 0.21800 0.03600
H 	H 	0.69890 0.71370 0.11480 0.05900
H 	H 	0.51670 0.04860 0.18020 0.06900
H 	H 	0.70430 0.52690 0.44960 0.03500
H 	H 	0.89380 0.40550 0.17540 0.03400
H 	H 	0.56200 0.86450 0.09300 0.07600
H 	H 	0.29570 0.47310 0.55040 0.03500
H 	H 	0.46580 0.24070 0.48060 0.05400
H 	H 	0.13550 0.46900 0.90700 0.08700
H 	H 	0.50690 0.69560 0.37240 0.07300
H 	H 	0.40550 0.41940 0.22380 0.08200
H 	H 	0.11200 0.98860 0.42540 0.06400
H 	H 	0.79070 0.09320 0.65700 0.08400
H 	H 	0.47310 0.25470 0.55040 0.03500
H 	H 	0.24070 0.01480 0.48060 0.05900
H 	H 	0.73590 0.47620 0.80000 0.02800
H 	H 	0.21490 0.90980 0.77500 0.08900
H 	H 	0.28630 0.58410 0.88520 0.06700
H 	H 	0.76010 0.53420 0.51940 0.05400
H 	H 	0.13160 0.51670 0.18020 0.06900
H 	H 	0.77160 0.55590 0.12000 0.06000
H 	H 	0.99600 0.37250 0.27620 0.06700
H 	H 	0.96290 0.20050 0.74060 0.03700
H 	H 	0.95140 0.33650 0.81980 0.07500
H 	H 	0.57880 0.76370 0.80100 0.06600
H 	H 	0.48330 0.95140 0.81980 0.07500
H 	H 	0.56320 0.88800 0.57460 0.06300
H 	H 	0.45300 0.20100 0.62700 0.08700
H 	H 	0.18170 0.19560 0.77620 0.08400
H 	H 	0.76990 0.89380 0.17540 0.03400
H 	H 	0.09840 0.92030 0.35600 0.04300
H 	H 	0.25470 0.07730 0.55040 0.03400
H 	H 	0.88450 0.65350 0.20120 0.07300
H 	H 	0.43590 0.22840 0.88000 0.06700
H 	H 	0.21560 0.96890 0.79100 0.03000
H 	H 	0.23990 0.46580 0.48060 0.05400
H 	H 	0.86630 0.56380 0.65700 0.08500
H 	H 	0.71370 0.41590 0.11480 0.05900
H 	H 	0.51290 0.01590 0.77720 0.06500
H 	H 	0.96890 0.57540 0.79100 0.03000
H 	H 	0.67400 0.74530 0.26080 0.06200
H 	H 	0.86520 0.21490 0.77500 0.08900
H 	H 	0.65350 0.31670 0.20120 0.07300
H 	H 	0.43990 0.13480 0.22500 0.08500
H 	H 	0.93590 0.67620 0.20000 0.02700
H 	H 	0.77150 0.05300 0.58460 0.04500
H 	H 	0.20930 0.90680 0.34300 0.08400
H 	H 	0.37250 0.28020 0.27620 0.07200
H 	H 	0.42460 0.17790 0.20900 0.02800
H 	H 	0.26410 0.52380 0.20000 0.02700
H 	H 	0.69560 0.86550 0.37240 0.07300
H 	H 	0.94700 0.18690 0.41540 0.03900
H 	H 	0.23010 0.10620 0.82460 0.03600
H 	H 	0.00400 0.62750 0.72380 0.08000
H 	H 	0.17400 0.42600 0.62700 0.08700
H 	H 	0.71840 0.23010 0.82460 0.03700
H 	H 	0.96270 0.42120 0.19900 0.06100
H 	H 	0.40550 0.28160 0.17540 0.03400
H 	H 	0.78020 0.52380 0.67680 0.08500
H 	H 	0.50540 0.89540 0.78200 0.03700
H 	H 	0.40110 0.69890 0.11480 0.05900
H 	H 	0.88800 0.01140 0.57460 0.06100
H 	H 	0.53100 0.22850 0.09300 0.07600
H 	H 	0.24070 0.90730 0.30700 0.02900
H 	H 	0.26820 0.18110 0.88360 0.07800
H 	H 	0.41320 0.48450 0.73920 0.06400
H 	H 	0.58680 0.51550 0.26080 0.06200
H 	H 	0.28160 0.76990 0.17540 0.03400
H 	H 	0.89540 0.27660 0.78200 0.03700
H 	H 	0.81310 0.53160 0.58460 0.04200
H 	H 	0.10620 0.59450 0.82460 0.03600
H 	H 	0.67620 0.26410 0.20000 0.02700
H 	H 	0.43680 0.11200 0.42540 0.06200
H 	H 	0.86840 0.48330 0.81980 0.07500
H 	H 	0.43620 0.20930 0.34300 0.08300
H 	H 	0.65160 0.43590 0.88000 0.06700
H 	H 	0.07970 0.74240 0.64400 0.04800
H 	H 	0.45230 0.11550 0.79880 0.07600
H 	H 	0.22230 0.45990 0.25940 0.03700
H 	H 	0.49460 0.10460 0.21800 0.03600
H 	H 	0.07730 0.29570 0.55040 0.03400
H 	H 	0.11340 0.49460 0.21800 0.03600
H 	H 	0.18110 0.61540 0.88360 0.07800
H 	H 	0.52380 0.89660 0.67680 0.08500
H 	H 	0.59450 0.71840 0.82460 0.03700
H 	H 	0.54700 0.79900 0.37300 0.08700
H 	H 	0.90370 0.99600 0.27620 0.06700
H 	H 	0.04860 0.66350 0.18020 0.07000
H 	H 	0.57540 0.82210 0.79100 0.03100
H 	H 	0.76370 0.22220 0.80100 0.06600
H 	H 	0.29750 0.73180 0.11640 0.07000
H 	H 	0.90680 0.13370 0.34300 0.08300
H 	H 	0.01140 0.68660 0.57460 0.06100
H 	H 	0.59890 0.30110 0.88520 0.06700
H 	H 	0.48450 0.32600 0.73920 0.06400
H 	H 	0.81890 0.38460 0.11640 0.07000
H 	H 	0.73570 0.23870 0.22280 0.05900
H 	H 	0.79950 0.22230 0.25940 0.03700
H 	H 	0.43800 0.13550 0.90700 0.08700
H 	H 	0.86550 0.67680 0.37240 0.07300
H 	H 	0.52380 0.93590 0.20000 0.02700
H 	H 	0.49310 0.30440 0.62760 0.07300
H 	H 	0.13480 0.78510 0.22500 0.08500
H 	H 	0.31670 0.54770 0.20120 0.07300
H 	H 	0.30110 0.28630 0.88520 0.06700
H 	H 	0.89660 0.15300 0.67680 0.08400
H 	H 	0.28020 0.90370 0.27620 0.07200
H 	H 	0.81830 0.80440 0.22380 0.08100
H 	H 	0.39970 0.24070 0.30700 0.02900
H 	H 	0.71980 0.09630 0.72380 0.07500
H 	H 	0.15300 0.78020 0.67680 0.08500
H 	H 	0.34650 0.68330 0.79880 0.07500
H 	H 	0.42120 0.23630 0.19900 0.06200
H 	H 	0.11550 0.34650 0.79880 0.07600
H 	H 	0.92030 0.25760 0.35600 0.04300
H 	H 	0.80440 0.40550 0.22380 0.08200
H 	H 	0.51550 0.67400 0.26080 0.06200
H 	H 	0.09270 0.93370 0.69300 0.02700
H 	H 	0.74530 0.92270 0.44960 0.03600
H 	H 	0.78510 0.09020 0.22500 0.08400
H 	H 	0.61540 0.70250 0.88360 0.07800
H 	H 	0.01480 0.23990 0.48060 0.05900
H 	H 	0.42600 0.45300 0.62700 0.08700
H 	H 	0.76130 0.51290 0.77720 0.06300
H 	H 	0.48710 0.98410 0.22280 0.05700
H 	H 	0.98860 0.31340 0.42540 0.06400
H 	H 	0.03710 0.79950 0.25940 0.03800
H 	H 	0.78440 0.03110 0.20900 0.02900
H 	H 	0.19560 0.59450 0.77620 0.08400
H 	H 	0.56010 0.86520 0.77500 0.08900
H 	H 	0.86450 0.53100 0.09300 0.07600
H 	H 	0.62750 0.71980 0.72380 0.07500
H 	H 	0.67680 0.50690 0.37240 0.07300
H 	H 	0.05300 0.81310 0.58460 0.04400
H 	H 	0.74530 0.58680 0.26080 0.06200
H 	H 	0.13450 0.32320 0.62760 0.07400
H 	H 	0.23870 0.48710 0.22280 0.05900
H 	H 	0.47620 0.10340 0.32320 0.08400
H 	H 	0.77780 0.96270 0.19900 0.06100
H 	H 	0.03730 0.57880 0.80100 0.06800
C 	C 	0.02815 0.59998 0.76096 0.06500
C 	C 	0.23900 0.24492 0.82670 -0.04600
C 	C 	0.77259 0.59702 0.29068 0.00000
C 	C 	0.25695 0.56076 0.11154 -0.06000
C 	C 	0.41073 0.46308 0.64244 -0.07100
C 	C 	0.34816 0.76010 0.81632 0.02400
C 	C 	0.11325 0.81996 0.66710 0.08900
C 	C 	0.60790 0.70033 0.77380 0.03900
C 	C 	0.14221 0.80990 0.25560 -0.16300
C 	C 	0.60964 0.33986 0.16646 -0.04900
C 	C 	0.50630 0.91923 0.77860 -0.00500
C 	C 	0.59572 0.59918 0.80544 -0.06500
C 	C 	0.52612 0.95828 0.75424 -0.01000
C 	C 	0.47927 0.08077 0.24794 -0.03100
C 	C 	0.71974 0.74036 0.13004 0.00000
C 	C 	0.78761 0.53826 0.58312 -0.03000
C 	C 	0.76010 0.46816 0.81632 0.02400
C 	C 	0.19549 0.36457 0.68708 -0.05700
C 	C 	0.95500 0.59610 0.71700 0.01900
C 	C 	0.47310 0.24913 0.62142 0.09700
C 	C 	0.39427 0.35591 0.17334 0.08700
C 	C 	0.34933 0.48685 0.64286 -0.06600
C 	C 	0.38990 0.26380 0.26720 -0.09300
C 	C 	0.17340 0.39036 0.83354 -0.04200
C 	C 	0.18739 0.50758 0.20096 0.04700
C 	C 	0.71217 0.43371 0.89692 -0.04200
C 	C 	0.62398 0.30941 0.17594 -0.06700
C 	C 	0.49242 0.98643 0.79904 0.05300
C 	C 	0.29967 0.83410 0.22620 0.03700
C 	C 	0.59702 0.51809 0.29068 0.00000
C 	C 	0.55682 0.82660 0.16646 -0.04900
C 	C 	0.79659 0.65780 0.28802 0.34400
C 	C 	0.02112 0.71151 0.57604 -0.04700
C 	C 	0.61032 0.28026 0.86996 -0.00500
C 	C 	0.21305 0.48945 0.22290 -0.08000
C 	C 	0.53633 0.88360 0.72686 0.10300
C 	C 	0.24527 0.46309 0.45738 -0.06100
C 	C 	0.69059 0.44804 0.82406 -0.07100
C 	C 	0.97327 0.57847 0.76974 0.00800
C 	C 	0.40082 0.79028 0.19456 -0.06100
C 	C 	0.28026 0.25964 0.86996 -0.00500
C 	C 	0.19737 0.60802 0.86912 -0.06900
C 	C 	0.16098 0.02815 0.76096 0.06500
C 	C 	0.92293 0.68091 0.45386 -0.00100
C 	C 	0.55492 0.86453 0.57604 -0.05400
C 	C 	0.00571 0.75473 0.54262 -0.04900
C 	C 	0.39210 0.29967 0.22620 0.03700
C 	C 	0.05622 0.34816 0.81632 0.02400
C 	C 	0.54899 0.83691 0.62038 -0.01400
C 	C 	0.53927 0.81947 0.53534 0.02200
C 	C 	0.32825 0.73890 0.13088 -0.06300
C 	C 	0.74823 0.53036 0.28794 0.33900
C 	C 	0.20449 0.95514 0.41688 -0.02300
C 	C 	0.17731 0.84457 0.28114 0.11000
C 	C 	0.81525 0.53679 0.10308 -0.05500
C 	C 	0.49370 0.08077 0.22140 -0.01100
C 	C 	0.53679 0.28783 0.10308 -0.05500
C 	C 	0.59543 0.26799 0.14858 0.08900
C 	C 	0.89617 0.56343 0.71886 0.11500
C 	C 	0.46367 0.11640 0.27314 0.09900
C 	C 	0.93930 0.25459 0.38200 -0.03100
C 	C 	0.57522 0.78667 0.06544 0.33400
C 	C 	0.26863 0.57278 0.80214 0.33200
C 	C 	0.91923 0.27230 0.77860 -0.00500
C 	C 	0.19982 0.43441 0.87174 -0.00700
C 	C 	0.00393 0.28413 0.46466 0.03100
C 	C 	0.46649 0.77064 0.19786 0.33400
C 	C 	0.15286 0.88675 0.33290 0.08900
C 	C 	0.48945 0.00985 0.22290 -0.07600
C 	C 	0.16717 0.47927 0.24794 -0.03100
C 	C 	0.46073 0.18053 0.46466 0.02100
C 	C 	0.29058 0.23537 0.89024 -0.04300
C 	C 	0.92861 0.21653 0.37962 -0.01800
C 	C 	0.21653 0.45101 0.37962 -0.01300
C 	C 	0.11640 0.80947 0.27314 0.10000
C 	C 	0.02012 0.34580 0.81660 0.03400
C 	C 	0.76200 0.12090 0.71700 0.01100
C 	C 	0.77907 0.81743 0.17334 0.08700
C 	C 	0.57635 0.79223 0.73230 -0.05300
C 	C 	0.73281 0.16098 0.76096 0.05700
C 	C 	0.04693 0.69170 0.19880 -0.08500
C 	C 	0.97888 0.28849 0.42396 -0.06200
C 	C 	0.07707 0.31909 0.54614 0.00300
C 	C 	0.89389 0.39728 0.19574 -0.00200
C 	C 	0.18004 0.44615 0.33290 0.08600
C 	C 	0.50758 0.01357 0.20096 0.04700
C 	C 	0.26380 0.87730 0.26720 -0.09400
C 	C 	0.76867 0.16717 0.24794 -0.03200
C 	C 	0.72123 0.42478 0.93456 0.33000
C 	C 	0.21239 0.46174 0.41688 -0.03100
C 	C 	0.56343 0.82269 0.71886 0.11300
C 	C 	0.43924 0.14541 0.88846 -0.06400
C 	C 	0.20626 0.59572 0.80544 -0.06500
C 	C 	0.43441 0.67192 0.87174 -0.00700
C 	C 	0.72770 0.14063 0.22140 -0.01000
C 	C 	0.46029 0.24242 0.71206 0.33800
C 	C 	0.08077 0.72770 0.22140 -0.01000
C 	C 	0.77188 0.20404 0.24576 -0.01700
C 	C 	0.43930 0.18316 0.32220 -0.15400
C 	C 	0.15543 0.89617 0.71886 0.11400
C 	C 	0.53093 0.77295 0.45386 0.00100
C 	C 	0.15316 0.80973 0.68892 -0.15000
C 	C 	0.60272 0.69815 0.80426 0.00200
C 	C 	0.59673 0.68394 0.93348 0.34800
C 	C 	0.36457 0.49159 0.68708 -0.05700
C 	C 	0.67192 0.43733 0.87174 -0.00700
C 	C 	0.83283 0.52073 0.75206 -0.03400
C 	C 	0.87910 0.04500 0.28300 0.00100
C 	C 	0.24954 0.59673 0.93348 0.34800
C 	C 	0.79028 0.79374 0.19456 -0.06100
C 	C 	0.17936 0.41073 0.64244 -0.07100
C 	C 	0.86096 0.56070 0.67780 -0.15700
C 	C 	0.24242 0.25177 0.71206 0.33800
C 	C 	0.26719 0.83902 0.23904 0.05400
C 	C 	0.22741 0.40298 0.70932 -0.00100
C 	C 	0.69366 0.77259 0.29068 0.00000
C 	C 	0.43657 0.17731 0.28114 0.10900
C 	C 	0.84405 0.05993 0.26770 -0.04900
C 	C 	0.12270 0.99660 0.73280 -0.10600
C 	C 	0.56267 0.80018 0.12826 -0.00300
C 	C 	0.19053 0.84326 0.72686 0.10300
C 	C 	0.88290 0.13904 0.32220 -0.15400
C 	C 	0.63022 0.79659 0.28802 0.34400
C 	C 	0.53692 0.76829 0.35756 -0.07000
C 	C 	0.46816 0.05622 0.81632 0.02400
C 	C 	0.84714 0.11325 0.66710 0.08800
C 	C 	0.46321 0.71217 0.89692 -0.04200
C 	C 	0.57847 0.79647 0.76974 0.00500
C 	C 	0.88360 0.19053 0.72686 0.10200
C 	C 	0.78094 0.57408 0.31236 -0.04100
C 	C 	0.49022 0.27877 0.06544 0.33400
C 	C 	0.81017 0.64050 0.19478 0.33300
C 	C 	0.51055 0.99015 0.77710 -0.08600
C 	C 	0.75758 0.74823 0.28794 0.33900
C 	C 	0.53731 0.81098 0.49162 0.05000
C 	C 	0.41453 0.23686 0.22066 -0.09400
C 	C 	0.81684 0.11710 0.67780 -0.15400
C 	C 	0.20154 0.10611 0.80426 0.00400
C 	C 	0.35950 0.61539 0.80522 0.33200
C 	C 	0.91923 0.23133 0.75206 -0.03400
C 	C 	0.44318 0.17340 0.83354 -0.04200
C 	C 	0.37602 0.69059 0.82406 -0.07100
C 	C 	0.85168 0.62771 0.37858 0.09700
C 	C 	0.42592 0.46858 0.68764 -0.04000
C 	C 	0.50978 0.72123 0.93456 0.33000
C 	C 	0.14063 0.49370 0.22140 -0.01100
C 	C 	0.87730 0.00340 0.26720 -0.08200
C 	C 	0.44508 0.13547 0.42396 -0.05500
C 	C 	0.60802 0.67175 0.86912 -0.06900
C 	C 	0.82269 0.15543 0.71886 0.11200
C 	C 	0.70647 0.84399 0.35714 -0.06600
C 	C 	0.46907 0.22705 0.54614 0.00100
C 	C 	0.27230 0.85937 0.77860 -0.00500
C 	C 	0.50710 0.04693 0.19880 -0.08500
C 	C 	0.80990 0.11339 0.25560 -0.16100
C 	C 	0.15595 0.94007 0.73230 -0.05700
C 	C 	0.23133 0.83283 0.75206 -0.03400
C 	C 	0.87259 0.06070 0.61800 -0.04000
C 	C 	0.88675 0.18004 0.33290 0.08900
C 	C 	0.47080 0.02012 0.81660 0.03400
C 	C 	0.56070 0.81684 0.67780 -0.15600
C 	C 	0.20404 0.47388 0.24576 -0.01700
C 	C 	0.08077 0.76867 0.24794 -0.03200
C 	C 	0.34220 0.50857 0.71198 0.34400
C 	C 	0.21333 0.50978 0.93456 0.33000
C 	C 	0.14832 0.37229 0.62142 0.09700
C 	C 	0.65487 0.29058 0.89024 -0.04300
C 	C 	0.79223 0.15595 0.73230 -0.05300
C 	C 	0.53826 0.79551 0.58312 -0.03000
C 	C 	0.81947 0.99607 0.53534 0.01200
C 	C 	0.44270 0.12741 0.38200 -0.03600
C 	C 	0.20777 0.84405 0.26770 -0.05300
C 	C 	0.47388 0.04172 0.24576 -0.01800
C 	C 	0.55315 0.88059 0.14858 0.08900
C 	C 	0.39198 0.32825 0.13088 -0.06300
C 	C 	0.68091 0.53093 0.45386 0.00100
C 	C 	0.92653 0.39210 0.22620 0.04000
C 	C 	0.22705 0.07707 0.54614 0.00300
C 	C 	0.26172 0.21906 0.68764 -0.04000
C 	C 	0.58178 0.23900 0.82670 -0.04600
C 	C 	0.24913 0.14832 0.62142 0.09700
C 	C 	0.39036 0.66014 0.83354 -0.04200
C 	C 	0.79374 0.40428 0.19456 -0.06100
C 	C 	0.46174 0.20449 0.41688 -0.03100
C 	C 	0.78667 0.49022 0.06544 0.33400
C 	C 	0.60573 0.64409 0.82666 0.09400
C 	C 	0.61010 0.73620 0.73280 -0.09400
C 	C 	0.98643 0.30662 0.79904 0.05300
C 	C 	0.64050 0.38461 0.19478 0.33300
C 	C 	0.83691 0.07139 0.62038 -0.00900
C 	C 	0.40327 0.31606 0.06652 0.35300
C 	C 	0.23800 0.87910 0.28300 0.00800
C 	C 	0.33986 0.55682 0.16646 -0.04900
C 	C 	0.80018 0.56559 0.12826 -0.00300
C 	C 	0.97988 0.65420 0.18340 0.03000
C 	C 	0.15187 0.50710 0.19880 -0.08500
C 	C 	0.61539 0.44572 0.80522 0.33200
C 	C 	0.21211 0.99429 0.45738 -0.07400
C 	C 	0.42153 0.20353 0.23026 0.00200
C 	C 	0.99660 0.61010 0.73280 -0.10700
C 	C 	0.65067 0.51315 0.35714 -0.06600
C 	C 	0.53576 0.87919 0.68892 -0.15100
C 	C 	0.30830 0.84813 0.80120 -0.08800
C 	C 	0.80873 0.02673 0.23026 0.00000
C 	C 	0.66325 0.75046 0.06652 0.35300
C 	C 	0.84813 0.49290 0.80120 -0.08800
C 	C 	0.85779 0.19010 0.74440 -0.16300
C 	C 	0.53036 0.53971 0.28794 0.33900
C 	C 	0.51809 0.69366 0.29068 0.00000
C 	C 	0.68394 0.33675 0.93348 0.34800
C 	C 	0.32808 0.56267 0.12826 -0.00300
C 	C 	0.65780 0.49143 0.28802 0.34400
C 	C 	0.75473 0.53691 0.54262 -0.06200
C 	C 	0.87919 0.15316 0.68892 -0.15000
C 	C 	0.02673 0.42153 0.23026 -0.00000
C 	C 	0.79551 0.04486 0.58312 -0.03800
C 	C 	0.04172 0.77188 0.24576 -0.01800
C 	C 	0.85937 0.50630 0.77860 -0.00500
C 	C 	0.78347 0.54899 0.62038 -0.01400
C 	C 	0.24492 0.58770 0.82670 -0.04600
C 	C 	0.43371 0.18475 0.89692 -0.04200
C 	C 	0.83410 0.92653 0.22620 0.04000
C 	C 	0.69815 0.20154 0.80426 0.00200
C 	C 	0.22936 0.26863 0.80214 0.33200
C 	C 	0.21906 0.42592 0.68764 -0.04000
C 	C 	0.75508 0.41230 0.17330 -0.05300
C 	C 	0.40298 0.48191 0.70932 -0.00100
C 	C 	0.59918 0.20972 0.80544 -0.06500
C 	C 	0.81743 0.39427 0.17334 0.08700
C 	C 	0.18316 0.88290 0.32220 -0.15600
C 	C 	0.23537 0.59966 0.89024 -0.04300
C 	C 	0.53351 0.22936 0.80214 0.33200
C 	C 	0.11339 0.44570 0.25560 -0.16000
C 	C 	0.94378 0.65184 0.18368 0.02100
C 	C 	0.00985 0.73345 0.22290 -0.07700
C 	C 	0.65420 0.20352 0.18340 0.03200
C 	C 	0.59966 0.65487 0.89024 -0.04400
C 	C 	0.44570 0.14221 0.25560 -0.16200
C 	C 	0.35591 0.77907 0.17334 0.08700
C 	C 	0.80451 0.63543 0.31292 -0.05900
C 	C 	0.23990 0.53184 0.18368 0.02000
C 	C 	0.10611 0.60272 0.80426 0.00400
C 	C 	0.84457 0.10383 0.28114 0.10700
C 	C 	0.40390 0.23800 0.28300 0.00800
C 	C 	0.56076 0.85459 0.11154 -0.06000
C 	C 	0.95514 0.21239 0.41688 -0.02300
C 	C 	0.95431 0.68064 0.49162 0.05400
C 	C 	0.48685 0.29353 0.64286 -0.06600
C 	C 	0.19387 0.01620 0.77934 -0.09700
C 	C 	0.50857 0.36978 0.71198 0.34400
C 	C 	0.41230 0.41822 0.17330 -0.05300
C 	C 	0.57408 0.53142 0.31236 -0.04100
C 	C 	0.04569 0.31936 0.50838 0.04700
C 	C 	0.25177 0.46964 0.71206 0.33800
C 	C 	0.80263 0.39198 0.13088 -0.06300
C 	C 	0.81098 0.95431 0.49162 0.05400
C 	C 	0.79846 0.89389 0.19574 -0.00200
C 	C 	0.46424 0.12081 0.31108 -0.14900
C 	C 	0.30941 0.55196 0.17594 -0.06700
C 	C 	0.00340 0.38990 0.26720 -0.08100
C 	C 	0.30662 0.81261 0.79904 0.05300
C 	C 	0.95307 0.30830 0.80120 -0.08800
C 	C 	0.26799 0.55315 0.14858 0.08900
C 	C 	0.79647 0.19127 0.76974 0.00500
C 	C 	0.10383 0.43657 0.28114 0.10600
C 	C 	0.53971 0.75758 0.28794 0.33900
C 	C 	0.07139 0.78347 0.62038 -0.00900
C 	C 	0.42478 0.21333 0.93456 0.33000
C 	C 	0.67175 0.26110 0.86912 -0.06900
C 	C 	0.34513 0.70942 0.10976 -0.05700
C 	C 	0.76100 0.75508 0.17330 -0.05300
C 	C 	0.73828 0.78094 0.31236 -0.04100
C 	C 	0.30634 0.22741 0.70932 -0.00100
C 	C 	0.68064 0.53731 0.49162 0.05000
C 	C 	0.59998 0.73281 0.76096 0.05700
C 	C 	0.46964 0.46029 0.71206 0.33800
C 	C 	0.28783 0.56629 0.10308 -0.05500
C 	C 	0.77064 0.73137 0.19786 0.33400
C 	C 	0.31909 0.46907 0.54614 0.00100
C 	C 	0.37229 0.47310 0.62142 0.09700
C 	C 	0.28413 0.46073 0.46466 0.02100
C 	C 	0.70033 0.16590 0.77380 0.03900
C 	C 	0.15601 0.34933 0.64286 -0.06700
C 	C 	0.26110 0.19737 0.86912 -0.06900
C 	C 	0.55385 0.84714 0.66710 0.09000
C 	C 	0.01357 0.69338 0.20096 0.04800
C 	C 	0.46269 0.18902 0.50838 0.05000
C 	C 	0.40428 0.40082 0.19456 -0.06200
C 	C 	0.12090 0.95500 0.71700 0.01800
C 	C 	0.71587 0.53927 0.53534 0.02200
C 	C 	0.44685 0.11941 0.85142 0.09700
C 	C 	0.18475 0.46321 0.89692 -0.04200
C 	C 	0.25964 0.58970 0.86996 -0.00500
C 	C 	0.94007 0.57635 0.73230 -0.05800
C 	C 	0.52690 0.75087 0.37858 0.09700
C 	C 	0.49290 0.95307 0.80120 -0.08800
C 	C 	0.82064 0.58927 0.35756 -0.07000
C 	C 	0.85459 0.55078 0.11154 -0.06000
C 	C 	0.65184 0.23990 0.18368 0.02100
C 	C 	0.58547 0.76314 0.77934 -0.09400
C 	C 	0.23686 0.80613 0.22066 -0.09400
C 	C 	0.18983 0.35950 0.80522 0.33200
C 	C 	0.14541 0.44922 0.88846 -0.06400
C 	C 	0.13547 0.97888 0.42396 -0.06200
C 	C 	0.23171 0.17936 0.64244 -0.07100
C 	C 	0.38968 0.71974 0.13004 0.00000
C 	C 	0.84399 0.65067 0.35714 -0.06600
C 	C 	0.01620 0.58547 0.77934 -0.09700
C 	C 	0.79648 0.47080 0.81660 0.03300
C 	C 	0.46309 0.21211 0.45738 -0.06100
C 	C 	0.77295 0.92293 0.45386 -0.00100
C 	C 	0.04486 0.78761 0.58312 -0.03800
C 	C 	0.18902 0.04569 0.50838 0.04700
C 	C 	0.27877 0.57522 0.06544 0.33400
C 	C 	0.46858 0.26172 0.68764 -0.04000
C 	C 	0.20353 0.80873 0.23026 0.00300
C 	C 	0.40002 0.26719 0.23904 0.05400
C 	C 	0.86653 0.62398 0.17594 -0.06700
C 	C 	0.34580 0.79648 0.81660 0.03300
C 	C 	0.76829 0.82064 0.35756 -0.07000
C 	C 	0.50841 0.67749 0.31292 -0.05900
C 	C 	0.97185 0.40002 0.23904 0.04600
C 	C 	0.42365 0.20777 0.26770 -0.05200
C 	C 	0.31936 0.46269 0.50838 0.05000
C 	C 	0.41030 0.38968 0.13004 0.00000
C 	C 	0.12081 0.84684 0.31108 -0.15100
C 	C 	0.88059 0.59543 0.14858 0.08900
C 	C 	0.67749 0.80451 0.31292 -0.05900
C 	C 	0.44615 0.15286 0.33290 0.08700
C 	C 	0.88661 0.55430 0.74440 -0.16500
C 	C 	0.74036 0.41030 0.13004 0.00000
C 	C 	0.19027 0.46424 0.31108 -0.14900
C 	C 	0.80947 0.15674 0.27314 0.09900
C 	C 	0.13347 0.37602 0.82406 -0.07100
C 	C 	0.11941 0.40457 0.85142 0.09700
C 	C 	0.49159 0.32251 0.68708 -0.05700
C 	C 	0.66014 0.44318 0.83354 -0.04200
C 	C 	0.74305 0.43924 0.88846 -0.06400
C 	C 	0.41822 0.76100 0.17330 -0.05300
C 	C 	0.20972 0.20626 0.80544 -0.06600
C 	C 	0.57278 0.53351 0.80214 0.33200
C 	C 	0.75046 0.40327 0.06652 0.35300
C 	C 	0.84326 0.53633 0.72686 0.10400
C 	C 	0.19010 0.88661 0.74440 -0.16400
C 	C 	0.53691 0.78789 0.54262 -0.06100
C 	C 	0.73201 0.44685 0.85142 0.09700
C 	C 	0.71151 0.55492 0.57604 -0.05400
C 	C 	0.31606 0.66325 0.06652 0.35300
C 	C 	0.76463 0.40034 0.10976 -0.05700
C 	C 	0.99015 0.26655 0.77710 -0.08500
C 	C 	0.56629 0.81525 0.10308 -0.05500
C 	C 	0.38461 0.55428 0.19478 0.33300
C 	C 	0.69338 0.18739 0.20096 0.04700
C 	C 	0.05993 0.42365 0.26770 -0.04800
C 	C 	0.42722 0.46649 0.19786 0.33400
C 	C 	0.64409 0.22093 0.82666 0.09400
C 	C 	0.26655 0.78695 0.77710 -0.08200
C 	C 	0.83902 0.97185 0.23904 0.04700
C 	C 	0.13904 0.43930 0.32220 -0.15300
C 	C 	0.80613 0.98380 0.22066 -0.09100
C 	C 	0.53184 0.94378 0.18368 0.02100
C 	C 	0.63543 0.50841 0.31292 -0.05900
C 	C 	0.06070 0.74541 0.61800 -0.04000
C 	C 	0.99607 0.71587 0.53534 0.01200
C 	C 	0.20352 0.52920 0.18340 0.03200
C 	C 	0.45101 0.16309 0.37962 -0.01400
C 	C 	0.58970 0.61032 0.86996 -0.00500
C 	C 	0.11710 0.86096 0.67780 -0.15500
C 	C 	0.04500 0.40390 0.28300 0.00000
C 	C 	0.18257 0.60573 0.82666 0.09500
C 	C 	0.55078 0.25695 0.11154 -0.06000
C 	C 	0.56559 0.32808 0.12826 -0.00300
C 	C 	0.32251 0.19549 0.68708 -0.05700
C 	C 	0.95828 0.22812 0.75424 -0.01100
C 	C 	0.53142 0.73828 0.31236 -0.04100
C 	C 	0.73890 0.80263 0.13088 -0.06300
C 	C 	0.86453 0.02112 0.57604 -0.04700
C 	C 	0.40034 0.34513 0.10976 -0.05700
C 	C 	0.22093 0.18257 0.82666 0.09500
C 	C 	0.39728 0.30185 0.19574 -0.00000
C 	C 	0.55428 0.81017 0.19478 0.33300
C 	C 	0.55430 0.85779 0.74440 -0.16400
C 	C 	0.74541 0.55730 0.61800 -0.03500
C 	C 	0.55730 0.87259 0.61800 -0.03500
C 	C 	0.81996 0.55385 0.66710 0.09100
C 	C 	0.15674 0.46367 0.27314 0.09800
C 	C 	0.19127 0.97327 0.76974 0.00700
C 	C 	0.98380 0.41453 0.22066 -0.09100
C 	C 	0.81261 0.49242 0.79904 0.05400
C 	C 	0.58770 0.58178 0.82670 -0.04600
C 	C 	0.52920 0.97988 0.18340 0.03000
C 	C 	0.44804 0.13347 0.82406 -0.07100
C 	C 	0.55196 0.86653 0.17594 -0.06700
C 	C 	0.16590 0.07347 0.77380 0.03600
C 	C 	0.84684 0.19027 0.31108 -0.15000
C 	C 	0.07347 0.60790 0.77380 0.03600
C 	C 	0.75087 0.85168 0.37858 0.09600
C 	C 	0.12741 0.93930 0.38200 -0.03100
C 	C 	0.44572 0.18983 0.80522 0.33200
C 	C 	0.18053 0.00393 0.46466 0.03100
C 	C 	0.52073 0.91923 0.75206 -0.03500
C 	C 	0.16309 0.92861 0.37962 -0.01900
C 	C 	0.36978 0.20341 0.71198 0.34400
C 	C 	0.58927 0.53692 0.35756 -0.07000
C 	C 	0.79596 0.52612 0.75424 -0.01200
C 	C 	0.73137 0.42722 0.19786 0.33400
C 	C 	0.46308 0.23171 0.64244 -0.07100
C 	C 	0.99429 0.24527 0.45738 -0.07400
C 	C 	0.76314 0.19387 0.77934 -0.09300
C 	C 	0.73620 0.12270 0.73280 -0.09400
C 	C 	0.70942 0.76463 0.10976 -0.05700
C 	C 	0.25459 0.44270 0.38200 -0.03600
C 	C 	0.59610 0.76200 0.71700 0.01100
C 	C 	0.20341 0.34220 0.71198 0.34400
C 	C 	0.43733 0.19982 0.87174 -0.00700
C 	C 	0.82660 0.60964 0.16646 -0.04900
C 	C 	0.73345 0.21305 0.22290 -0.08000
C 	C 	0.80973 0.53576 0.68892 -0.15200
C 	C 	0.30185 0.79846 0.19574 0.00000
C 	C 	0.49143 0.63022 0.28802 0.34400
C 	C 	0.78695 0.51055 0.77710 -0.08200
C 	C 	0.33675 0.24954 0.93348 0.34800
C 	C 	0.22812 0.79596 0.75424 -0.01200
C 	C 	0.29353 0.15601 0.64286 -0.06700
C 	C 	0.62771 0.52690 0.37858 0.09700
C 	C 	0.48191 0.30634 0.70932 -0.00100
C 	C 	0.28849 0.44508 0.42396 -0.05500
C 	C 	0.69170 0.15187 0.19880 -0.08500
C 	C 	0.40457 0.73201 0.85142 0.09700
C 	C 	0.44922 0.74305 0.88846 -0.06400
C 	C 	0.51315 0.70647 0.35714 -0.06600
C 	C 	0.78789 0.00571 0.54262 -0.04900
N 	N 	0.82351 0.90148 0.44296 -0.04300
N 	N 	0.09852 0.38055 0.55704 -0.04300
N 	N 	0.66194 0.19062 0.80188 -0.08900
N 	N 	0.90148 0.61945 0.44296 -0.04300
N 	N 	0.23712 0.54666 0.15932 -0.09700
N 	N 	0.61323 0.18115 0.15986 -0.07700
N 	N 	0.07780 0.38734 0.84068 -0.09700
N 	N 	0.62412 0.66880 0.75744 -0.07500
N 	N 	0.21922 0.10769 0.57638 -0.09200
N 	N 	0.14801 0.12903 0.77232 -0.04100
N 	N 	0.44218 0.05590 0.85396 -0.03700
N 	N 	0.35671 0.85199 0.22768 -0.04300
N 	N 	0.05590 0.41178 0.85396 -0.03700
N 	N 	0.02129 0.38677 0.84014 -0.07300
N 	N 	0.64329 0.14801 0.77232 -0.04100
N 	N 	0.38677 0.81885 0.84014 -0.07300
N 	N 	0.41178 0.79806 0.85396 -0.03700
N 	N 	0.45668 0.15892 0.51596 -0.07800
N 	N 	0.97871 0.61323 0.15986 -0.07800
N 	N 	0.19062 0.13994 0.80188 -0.08900
N 	N 	0.79806 0.44218 0.85396 -0.03700
N 	N 	0.05928 0.35704 0.51596 -0.07700
N 	N 	0.12903 0.62431 0.77232 -0.04100
N 	N 	0.13332 0.08864 0.75744 -0.07400
N 	N 	0.94410 0.58822 0.14604 -0.04300
N 	N 	0.54332 0.84108 0.48404 -0.07800
N 	N 	0.78078 0.89231 0.42362 -0.09200
N 	N 	0.45852 0.17649 0.55704 -0.04300
N 	N 	0.62431 0.64329 0.77232 -0.04100
N 	N 	0.37588 0.33120 0.24256 -0.07700
N 	N 	0.94072 0.64296 0.48404 -0.07900
N 	N 	0.45334 0.07780 0.84068 -0.09700
N 	N 	0.92220 0.61266 0.15932 -0.09700
N 	N 	0.91136 0.37588 0.24256 -0.07700
N 	N 	0.15892 0.05928 0.51596 -0.07700
N 	N 	0.54666 0.92220 0.15932 -0.09700
N 	N 	0.58822 0.20194 0.14604 -0.04300
N 	N 	0.38734 0.76288 0.84068 -0.09700
N 	N 	0.54148 0.82351 0.44296 -0.04300
N 	N 	0.61266 0.23712 0.15932 -0.09700
N 	N 	0.08864 0.62412 0.75744 -0.07400
N 	N 	0.35716 0.46869 0.57638 -0.09200
N 	N 	0.33120 0.86668 0.24256 -0.07700
N 	N 	0.76288 0.45334 0.84068 -0.09700
N 	N 	0.33806 0.80938 0.19812 -0.08900
N 	N 	0.18115 0.54663 0.15986 -0.07700
N 	N 	0.17649 0.09852 0.55704 -0.04300
N 	N 	0.86006 0.38874 0.19812 -0.08900
N 	N 	0.46869 0.21922 0.57638 -0.09200
N 	N 	0.35704 0.45668 0.51596 -0.07800
N 	N 	0.61126 0.66194 0.80188 -0.08900
N 	N 	0.80938 0.86006 0.19812 -0.08900
N 	N 	0.10769 0.35716 0.57638 -0.09200
N 	N 	0.54663 0.97871 0.15986 -0.07800
N 	N 	0.38055 0.45852 0.55704 -0.04300
N 	N 	0.85199 0.87097 0.22768 -0.04300
N 	N 	0.64284 0.53131 0.42362 -0.09200
N 	N 	0.89231 0.64284 0.42362 -0.09200
N 	N 	0.55782 0.94410 0.14604 -0.04300
N 	N 	0.86668 0.91136 0.24256 -0.07700
N 	N 	0.87097 0.37569 0.22768 -0.04300
N 	N 	0.20194 0.55782 0.14604 -0.04300
N 	N 	0.45337 0.02129 0.84014 -0.07300
N 	N 	0.13994 0.61126 0.80188 -0.08900
N 	N 	0.84108 0.94072 0.48404 -0.07900
N 	N 	0.38874 0.33806 0.19812 -0.08900
N 	N 	0.53131 0.78078 0.42362 -0.09200
N 	N 	0.37569 0.35671 0.22768 -0.04300
N 	N 	0.81885 0.45337 0.84014 -0.07300
N 	N 	0.66880 0.13332 0.75744 -0.07500
N 	N 	0.64296 0.54332 0.48404 -0.07800
N 	N 	0.61945 0.54148 0.44296 -0.04300
O 	O 	0.58602 0.66732 0.94992 -0.38900
O 	O 	0.37223 0.59158 0.82170 -0.39400
O 	O 	0.48068 0.74162 0.17708 -0.40000
O 	O 	0.60524 0.44592 0.76800 -0.39900
O 	O 	0.69640 0.43546 0.17708 -0.40000
O 	O 	0.36390 0.28260 0.94992 -0.38900
O 	O 	0.31154 0.52336 0.69502 -0.39700
O 	O 	0.40842 0.55053 0.17830 -0.39900
O 	O 	0.28644 0.48076 0.75256 -0.39700
O 	O 	0.48076 0.46612 0.75256 -0.39700
O 	O 	0.65630 0.77512 0.05072 -0.41400
O 	O 	0.28260 0.58602 0.94992 -0.38900
O 	O 	0.35430 0.50723 0.74884 -0.39700
O 	O 	0.34370 0.22488 0.94928 -0.38900
O 	O 	0.64570 0.49277 0.25116 -0.39900
O 	O 	0.22488 0.60558 0.94928 -0.38900
O 	O 	0.27560 0.65630 0.05072 -0.41300
O 	O 	0.55053 0.76988 0.17830 -0.39900
O 	O 	0.55178 0.79808 0.30922 -0.40300
O 	O 	0.39476 0.55408 0.23200 -0.40100
O 	O 	0.76988 0.62777 0.17830 -0.39900
O 	O 	0.48185 0.30343 0.05056 -0.41400
O 	O 	0.74162 0.69640 0.17708 -0.40000
O 	O 	0.56454 0.51932 0.82292 -0.39500
O 	O 	0.58710 0.80505 0.04946 -0.39600
O 	O 	0.43546 0.48068 0.17708 -0.40000
O 	O 	0.72440 0.34370 0.94928 -0.38900
O 	O 	0.39454 0.24161 0.74884 -0.39700
O 	O 	0.71740 0.41398 0.05008 -0.41500
O 	O 	0.53388 0.72820 0.24744 -0.39900
O 	O 	0.44947 0.23012 0.82170 -0.39400
O 	O 	0.39442 0.27560 0.05072 -0.41300
O 	O 	0.53764 0.75559 0.95054 -0.37100
O 	O 	0.80770 0.74805 0.23824 -0.39100
O 	O 	0.61652 0.82834 0.30498 -0.39700
O 	O 	0.56946 0.50981 0.76176 -0.39000
O 	O 	0.43129 0.25287 0.94944 -0.38900
O 	O 	0.60558 0.72440 0.94928 -0.38900
O 	O 	0.24441 0.58710 0.04946 -0.39600
O 	O 	0.77512 0.39442 0.05072 -0.41400
O 	O 	0.63610 0.71740 0.05008 -0.41500
O 	O 	0.52336 0.38348 0.69502 -0.39700
O 	O 	0.41290 0.19495 0.95054 -0.37100
O 	O 	0.66732 0.36390 0.94992 -0.38900
O 	O 	0.24161 0.35430 0.74884 -0.39700
O 	O 	0.75559 0.41290 0.95054 -0.37100
O 	O 	0.56871 0.74713 0.05056 -0.41400
O 	O 	0.30343 0.56871 0.05056 -0.41400
O 	O 	0.80505 0.46236 0.04946 -0.39600
O 	O 	0.23012 0.37223 0.82170 -0.39400
O 	O 	0.46612 0.27180 0.75256 -0.39700
O 	O 	0.25195 0.56946 0.76176 -0.39000
O 	O 	0.62777 0.40842 0.17830 -0.39900
O 	O 	0.69657 0.43129 0.94944 -0.38900
O 	O 	0.32208 0.60524 0.76800 -0.39900
O 	O 	0.59158 0.44947 0.82170 -0.39400
O 	O 	0.46236 0.24441 0.04946 -0.39600
O 	O 	0.19230 0.25195 0.76176 -0.39000
O 	O 	0.44822 0.20192 0.69078 -0.40300
O 	O 	0.25838 0.30360 0.82292 -0.39500
O 	O 	0.60546 0.75839 0.25116 -0.39900
O 	O 	0.30360 0.56454 0.82292 -0.39500
O 	O 	0.50981 0.19230 0.76176 -0.39000
O 	O 	0.25287 0.51815 0.94944 -0.38900
O 	O 	0.33268 0.63610 0.05008 -0.41500
O 	O 	0.17166 0.31154 0.69502 -0.39700
O 	O 	0.83724 0.67792 0.23200 -0.40100
O 	O 	0.75839 0.64570 0.25116 -0.39900
O 	O 	0.55408 0.83724 0.23200 -0.40100
O 	O 	0.24256 0.48886 0.69078 -0.40300
O 	O 	0.51815 0.69657 0.94944 -0.38900
O 	O 	0.43054 0.49019 0.23824 -0.39100
O 	O 	0.44592 0.16276 0.76800 -0.39900
O 	O 	0.75744 0.51114 0.30922 -0.40300
O 	O 	0.49277 0.60546 0.25116 -0.39900
O 	O 	0.38348 0.17166 0.69502 -0.39700
O 	O 	0.47664 0.61652 0.30498 -0.39700
O 	O 	0.67792 0.39476 0.23200 -0.40100
O 	O 	0.19495 0.53764 0.95054 -0.37100
O 	O 	0.79808 0.75744 0.30922 -0.40300
O 	O 	0.41398 0.33268 0.05008 -0.41500
O 	O 	0.16276 0.32208 0.76800 -0.39900
O 	O 	0.72820 0.71356 0.24744 -0.39900
O 	O 	0.51924 0.53388 0.24744 -0.39900
O 	O 	0.50723 0.39454 0.74884 -0.39700
O 	O 	0.74713 0.48185 0.05056 -0.41400
O 	O 	0.49019 0.80770 0.23824 -0.39100
O 	O 	0.51932 0.25838 0.82292 -0.39500
O 	O 	0.74805 0.43054 0.23824 -0.39100
O 	O 	0.51114 0.55178 0.30922 -0.40300
O 	O 	0.27180 0.28644 0.75256 -0.39700
O 	O 	0.68846 0.47664 0.30498 -0.39700
O 	O 	0.71356 0.51924 0.24744 -0.39900
O 	O 	0.48886 0.44822 0.69078 -0.40300
O 	O 	0.20192 0.24256 0.69078 -0.40300
O 	O 	0.82834 0.68846 0.30498 -0.39700
