data_crystal

_cell_length_a 9.84010
_cell_length_b 11.06170
_cell_length_c 13.53070
_cell_angle_alpha 66.18100
_cell_angle_beta  85.82300
_cell_angle_gamma 69.89000

_symmetry_space_group_name_	'P 1'
_symmetry_space_group_name_H-M	'P 1'

loop_
_symmetry_equiv_pos_as_xyz
  x,y,z

loop_
_atom_site_label
_atom_site_type_symbol
_atom_site_fract_x
_atom_site_fract_y
_atom_site_fract_z
_atom_site_charge
Zn	Zn	0.11134 0.47295 0.20420 1.21300
Zn	Zn	0.16858 0.44590 0.98252 1.22200
Zn	Zn	0.88866 0.52705 0.79580 1.21300
Zn	Zn	0.83142 0.55410 0.01748 1.22200
H 	H 	0.12280 0.90630 0.10390 0.05900
H 	H 	0.32710 0.13560 0.87130 0.08600
H 	H 	0.35340 0.75060 0.89520 0.08600
H 	H 	0.41810 0.83720 0.73200 0.09200
H 	H 	0.52260 0.91900 0.66410 0.10100
H 	H 	0.20430 0.67310 0.76790 -0.01700
H 	H 	0.35230 0.70170 0.62590 0.08200
H 	H 	0.60280 0.29360 0.78110 0.09000
H 	H 	0.44720 0.27600 0.91920 0.01200
H 	H 	0.55930 0.61030 0.53640 0.05600
H 	H 	0.74860 0.34690 0.65540 0.06700
H 	H 	0.71140 0.66140 0.40870 0.08900
H 	H 	0.86890 0.67190 0.26940 -0.00800
H 	H 	0.08060 0.26670 0.41920 -0.02500
H 	H 	0.93890 0.24740 0.56130 0.09400
H 	H 	0.87720 0.09370 0.89610 0.05900
H 	H 	0.67290 0.86440 0.12870 0.08600
H 	H 	0.64660 0.24940 0.10480 0.08600
H 	H 	0.58190 0.16280 0.26800 0.09200
H 	H 	0.47740 0.08100 0.33590 0.10100
H 	H 	0.79570 0.32690 0.23210 -0.01700
H 	H 	0.64770 0.29830 0.37410 0.08200
H 	H 	0.39720 0.70640 0.21890 0.09000
H 	H 	0.55280 0.72400 0.08080 0.01200
H 	H 	0.44070 0.38970 0.46360 0.05600
H 	H 	0.25140 0.65310 0.34460 0.06700
H 	H 	0.28860 0.33860 0.59130 0.08900
H 	H 	0.13110 0.32810 0.73060 -0.00800
H 	H 	0.91940 0.73330 0.58080 -0.02500
H 	H 	0.06110 0.75260 0.43870 0.09400
C 	C 	0.19100 0.68160 0.05460 0.36400
C 	C 	0.22940 0.81370 0.00430 -0.04300
C 	C 	0.17970 0.91750 0.04320 -0.01500
C 	C 	0.21500 0.04100 0.99110 -0.04000
C 	C 	0.30350 0.05250 0.90630 -0.10000
C 	C 	0.35850 0.94350 0.87170 0.15800
C 	C 	0.31900 0.82410 0.92000 -0.10200
C 	C 	0.49740 0.87020 0.73840 -0.18400
C 	C 	0.62870 0.74290 0.79940 0.40600
C 	C 	0.15520 0.16430 0.02560 0.35100
C 	C 	0.28630 0.59460 0.77080 0.08900
C 	C 	0.37490 0.61290 0.68570 -0.15800
C 	C 	0.49620 0.50150 0.68800 0.10700
C 	C 	0.52160 0.37360 0.77670 -0.15100
C 	C 	0.42770 0.36370 0.85870 0.08300
C 	C 	0.59180 0.52250 0.59730 -0.07100
C 	C 	0.71470 0.43310 0.59320 -0.10300
C 	C 	0.80940 0.45050 0.50090 0.12800
C 	C 	0.78840 0.57890 0.41230 -0.16100
C 	C 	0.88220 0.58440 0.32910 0.08600
C 	C 	0.00510 0.34920 0.41720 0.11100
C 	C 	0.92050 0.33600 0.50190 -0.18800
C 	C 	0.80900 0.31840 0.94540 0.36400
C 	C 	0.77060 0.18630 0.99570 -0.04300
C 	C 	0.82030 0.08250 0.95680 -0.01500
C 	C 	0.78500 0.95900 0.00890 -0.04000
C 	C 	0.69650 0.94750 0.09370 -0.10000
C 	C 	0.64150 0.05650 0.12830 0.15800
C 	C 	0.68100 0.17590 0.08000 -0.10200
C 	C 	0.50260 0.12980 0.26160 -0.18400
C 	C 	0.37130 0.25710 0.20060 0.40600
C 	C 	0.84480 0.83570 0.97440 0.35100
C 	C 	0.71370 0.40540 0.22920 0.08900
C 	C 	0.62510 0.38710 0.31430 -0.15800
C 	C 	0.50380 0.49850 0.31200 0.10700
C 	C 	0.47840 0.62640 0.22330 -0.15100
C 	C 	0.57230 0.63630 0.14130 0.08300
C 	C 	0.40820 0.47750 0.40270 -0.07100
C 	C 	0.28530 0.56690 0.40680 -0.10300
C 	C 	0.19060 0.54950 0.49910 0.12800
C 	C 	0.21160 0.42110 0.58770 -0.16100
C 	C 	0.11780 0.41560 0.67090 0.08600
C 	C 	0.99490 0.65080 0.58280 0.11100
C 	C 	0.07950 0.66400 0.49810 -0.18800
N 	N 	0.30960 0.47330 0.85620 -0.24200
N 	N 	0.99040 0.46910 0.33130 -0.28100
N 	N 	0.69040 0.52670 0.14380 -0.24200
N 	N 	0.00960 0.53090 0.66870 -0.28100
O 	O 	0.14210 0.65410 0.14750 -0.47000
O 	O 	0.21110 0.60820 0.00160 -0.47600
O 	O 	0.44530 0.96860 0.78680 -0.17100
O 	O 	0.65430 0.70720 0.89620 -0.43800
O 	O 	0.70150 0.68210 0.73900 -0.48000
O 	O 	0.15930 0.27930 0.95640 -0.46100
O 	O 	0.10930 0.14310 0.11750 -0.29500
O 	O 	0.02570 0.41880 0.11030 -0.75500
O 	O 	0.85790 0.34590 0.85250 -0.47000
O 	O 	0.78890 0.39180 0.99840 -0.47600
O 	O 	0.55470 0.03140 0.21320 -0.17100
O 	O 	0.34570 0.29280 0.10380 -0.43800
O 	O 	0.29850 0.31790 0.26100 -0.48000
O 	O 	0.84070 0.72070 0.04360 -0.46100
O 	O 	0.89070 0.85690 0.88250 -0.29500
O 	O 	0.97430 0.58120 0.88970 -0.75500
H 	H 	0.02570 0.31998 0.14293 0.20300
H 	H 	0.97430 0.68002 0.85707 0.20300
