data_crystal

_cell_length_a 13.01330
_cell_length_b 13.01330
_cell_length_c 13.92200
_cell_angle_alpha 106.37300
_cell_angle_beta  106.37300
_cell_angle_gamma 91.27340

_symmetry_space_group_name_	'P 1'
_symmetry_space_group_name_H-M	'P 1'

loop_
_symmetry_equiv_pos_as_xyz
  x,y,z

loop_
_atom_site_label
_atom_site_type_symbol
_atom_site_fract_x
_atom_site_fract_y
_atom_site_fract_z
_atom_site_charge
Zn	Zn	0.18750 0.86678 0.86662 1.21400
Zn	Zn	0.13322 0.81250 0.63338 1.21500
H 	H 	0.53710 0.89930 0.93870 0.02400
H 	H 	0.71540 0.89920 0.95120 0.06600
H 	H 	0.45570 0.80770 0.62250 0.04500
H 	H 	0.85890 0.86090 0.86150 0.05600
H 	H 	0.04700 0.92400 0.99670 -0.01500
H 	H 	0.01960 0.91060 0.14840 0.09600
H 	H 	0.30930 0.79870 0.22080 0.11100
H 	H 	0.40670 0.87270 0.05050 0.22800
H 	H 	0.41670 0.77950 0.10600 0.22600
H 	H 	0.34990 0.75330 0.98460 0.22300
H 	H 	0.78000 0.78580 0.54640 0.03700
H 	H 	0.59830 0.78650 0.53550 0.05400
H 	H 	0.10070 0.46290 0.56130 0.02500
H 	H 	0.10080 0.28460 0.54880 0.06800
H 	H 	0.19230 0.54430 0.87750 0.04600
H 	H 	0.13910 0.14110 0.63850 0.05800
H 	H 	0.07600 0.95300 0.50330 -0.00800
H 	H 	0.08940 0.98040 0.35160 0.09500
H 	H 	0.20130 0.69070 0.27920 0.11000
H 	H 	0.12730 0.59330 0.44950 0.22800
H 	H 	0.22050 0.58330 0.39400 0.22700
H 	H 	0.24670 0.65010 0.51540 0.22700
H 	H 	0.21420 0.22000 0.95360 0.03800
H 	H 	0.21350 0.40170 0.96450 0.05400
C 	C 	0.36120 0.84980 0.77070 0.38100
C 	C 	0.47790 0.85170 0.77780 -0.10400
C 	C 	0.55810 0.87990 0.87640 0.02600
C 	C 	0.66320 0.87960 0.88390 -0.10800
C 	C 	0.50910 0.82530 0.68900 -0.02000
C 	C 	0.69710 0.85050 0.79250 0.03400
C 	C 	0.80540 0.84800 0.79550 -0.04000
C 	C 	0.10120 0.89820 0.04300 0.10400
C 	C 	0.08420 0.89060 0.13280 -0.16400
C 	C 	0.16260 0.85300 0.20140 0.09700
C 	C 	0.25490 0.82530 0.17550 -0.25300
C 	C 	0.26890 0.83610 0.08330 0.29000
C 	C 	0.36930 0.80790 0.05350 -0.69100
C 	C 	0.83690 0.82750 0.70670 -0.08200
C 	C 	0.95450 0.83070 0.71420 0.36700
C 	C 	0.75890 0.80250 0.60860 0.00700
C 	C 	0.65080 0.80200 0.60230 -0.07800
C 	C 	0.61730 0.82390 0.69330 0.01100
C 	C 	0.15020 0.63880 0.72930 0.38100
C 	C 	0.14830 0.52210 0.72220 -0.10400
C 	C 	0.12010 0.44190 0.62360 0.02700
C 	C 	0.12040 0.33680 0.61610 -0.10800
C 	C 	0.17470 0.49090 0.81100 -0.02000
C 	C 	0.14950 0.30290 0.70750 0.03500
C 	C 	0.15200 0.19460 0.70450 -0.04000
C 	C 	0.10180 0.89880 0.45700 0.09400
C 	C 	0.10940 0.91580 0.36720 -0.15900
C 	C 	0.14700 0.83740 0.29860 0.09400
C 	C 	0.17470 0.74510 0.32450 -0.25200
C 	C 	0.16390 0.73110 0.41670 0.29100
C 	C 	0.19210 0.63070 0.44650 -0.69800
C 	C 	0.17250 0.16310 0.79330 -0.08200
C 	C 	0.16930 0.04550 0.78580 0.36800
C 	C 	0.19750 0.24110 0.89140 0.00700
C 	C 	0.19800 0.34920 0.89770 -0.07800
C 	C 	0.17610 0.38270 0.80670 0.01000
N 	N 	0.19110 0.87090 0.01590 -0.29100
N 	N 	0.12910 0.80890 0.48410 -0.29100
O 	O 	0.33651 0.88889 0.85460 -0.47200
O 	O 	0.29480 0.80800 0.68110 -0.47200
O 	O 	0.97768 0.83032 0.63190 -0.45300
O 	O 	0.02120 0.83560 0.80120 -0.46000
O 	O 	0.11111 0.66349 0.64540 -0.47100
O 	O 	0.19200 0.70520 0.81890 -0.47300
O 	O 	0.16968 0.02232 0.86810 -0.45100
O 	O 	0.16440 0.97880 0.69880 -0.46100
Zn	Zn	0.81250 0.13322 0.13338 1.21500
Zn	Zn	0.86678 0.18750 0.36662 1.21600
H 	H 	0.46290 0.10070 0.06130 0.02500
H 	H 	0.28460 0.10080 0.04880 0.06700
H 	H 	0.54430 0.19230 0.37750 0.04600
H 	H 	0.14110 0.13910 0.13850 0.05700
H 	H 	0.95300 0.07600 0.00330 -0.01400
H 	H 	0.98040 0.08940 0.85160 0.09700
H 	H 	0.69070 0.20130 0.77920 0.11100
H 	H 	0.59330 0.12730 0.94950 0.22800
H 	H 	0.58330 0.22050 0.89400 0.22600
H 	H 	0.65010 0.24670 0.01540 0.22300
H 	H 	0.22000 0.21420 0.45360 0.03700
H 	H 	0.40170 0.21350 0.46450 0.05400
H 	H 	0.89930 0.53710 0.43870 0.02500
H 	H 	0.89920 0.71540 0.45120 0.06800
H 	H 	0.80770 0.45570 0.12250 0.04600
H 	H 	0.86090 0.85890 0.36150 0.05800
H 	H 	0.92400 0.04700 0.49670 -0.00800
H 	H 	0.91060 0.01960 0.64840 0.09500
H 	H 	0.79870 0.30930 0.72080 0.11000
H 	H 	0.87270 0.40670 0.55050 0.22800
H 	H 	0.77950 0.41670 0.60600 0.22700
H 	H 	0.75330 0.34990 0.48460 0.22700
H 	H 	0.78580 0.78000 0.04640 0.03800
H 	H 	0.78650 0.59830 0.03550 0.05400
C 	C 	0.63880 0.15020 0.22930 0.38100
C 	C 	0.52210 0.14830 0.22220 -0.10400
C 	C 	0.44190 0.12010 0.12360 0.02600
C 	C 	0.33680 0.12040 0.11610 -0.10800
C 	C 	0.49090 0.17470 0.31100 -0.02000
C 	C 	0.30290 0.14950 0.20750 0.03400
C 	C 	0.19460 0.15200 0.20450 -0.04000
C 	C 	0.89880 0.10180 0.95700 0.10400
C 	C 	0.91580 0.10940 0.86720 -0.16400
C 	C 	0.83740 0.14700 0.79860 0.09700
C 	C 	0.74510 0.17470 0.82450 -0.25300
C 	C 	0.73110 0.16390 0.91670 0.29000
C 	C 	0.63070 0.19210 0.94650 -0.69100
C 	C 	0.16310 0.17250 0.29330 -0.08200
C 	C 	0.04550 0.16930 0.28580 0.36700
C 	C 	0.24110 0.19750 0.39140 0.00700
C 	C 	0.34920 0.19800 0.39770 -0.07800
C 	C 	0.38270 0.17610 0.30670 0.01100
C 	C 	0.84980 0.36120 0.27070 0.38100
C 	C 	0.85170 0.47790 0.27780 -0.10400
C 	C 	0.87990 0.55810 0.37640 0.02700
C 	C 	0.87960 0.66320 0.38390 -0.10800
C 	C 	0.82530 0.50910 0.18900 -0.02000
C 	C 	0.85050 0.69710 0.29250 0.03500
C 	C 	0.84800 0.80540 0.29550 -0.04000
C 	C 	0.89820 0.10120 0.54300 0.09400
C 	C 	0.89060 0.08420 0.63280 -0.15900
C 	C 	0.85300 0.16260 0.70140 0.09400
C 	C 	0.82530 0.25490 0.67550 -0.25200
C 	C 	0.83610 0.26890 0.58330 0.29100
C 	C 	0.80790 0.36930 0.55350 -0.69800
C 	C 	0.82750 0.83690 0.20670 -0.08200
C 	C 	0.83070 0.95450 0.21420 0.36800
C 	C 	0.80250 0.75890 0.10860 0.00700
C 	C 	0.80200 0.65080 0.10230 -0.07800
C 	C 	0.82390 0.61730 0.19330 0.01000
N 	N 	0.80890 0.12910 0.98410 -0.29100
N 	N 	0.87090 0.19110 0.51590 -0.29100
O 	O 	0.66349 0.11111 0.14540 -0.47200
O 	O 	0.70520 0.19200 0.31890 -0.47200
O 	O 	0.02232 0.16968 0.36810 -0.45300
O 	O 	0.97880 0.16440 0.19880 -0.46000
O 	O 	0.88889 0.33651 0.35460 -0.47100
O 	O 	0.80800 0.29480 0.18110 -0.47300
O 	O 	0.83032 0.97768 0.13190 -0.45100
O 	O 	0.83560 0.02120 0.30120 -0.46100
