data_crystal

_cell_length_a 10.09000
_cell_length_b 16.36200
_cell_length_c 24.45300
_cell_angle_alpha 106.75000
_cell_angle_beta  92.97000
_cell_angle_gamma 103.16000

_symmetry_space_group_name_	'P 1'
_symmetry_space_group_name_H-M	'P 1'

loop_
_symmetry_equiv_pos_as_xyz
  x,y,z

loop_
_atom_site_label
_atom_site_type_symbol
_atom_site_fract_x
_atom_site_fract_y
_atom_site_fract_z
_atom_site_charge
Co	Co	0.59872 0.15569 0.03782 1.15400
Co	Co	0.04104 0.65138 0.54054 1.15300
H 	H 	0.24530 0.99990 0.09880 0.05900
H 	H 	0.84880 0.00220 0.09830 0.06200
H 	H 	0.10200 0.16470 0.03120 0.06200
H 	H 	0.90790 0.97300 0.19260 0.05600
H 	H 	0.86330 0.85900 0.23330 0.06800
H 	H 	0.08520 0.73180 0.12320 0.05900
H 	H 	0.12780 0.84480 0.08370 0.06600
H 	H 	0.64270 0.48050 0.09980 0.10200
H 	H 	0.55330 0.33730 0.04900 -0.00600
H 	H 	0.79410 0.25970 0.14080 -0.01100
H 	H 	0.89350 0.40210 0.19660 0.09300
H 	H 	0.03280 0.53320 0.32990 0.09800
H 	H 	0.06470 0.53990 0.42350 -0.01100
H 	H 	0.93850 0.75350 0.47060 -0.00200
H 	H 	0.91860 0.75760 0.37750 0.10200
H 	H 	0.25610 0.85330 0.32330 0.26500
H 	H 	0.53890 0.65990 0.53420 0.05800
H 	H 	0.29170 0.49130 0.59830 0.05900
H 	H 	0.69170 0.49980 0.60220 0.06100
H 	H 	0.58220 0.33990 0.57930 0.07200
H 	H 	0.55210 0.22540 0.61970 0.06100
H 	H 	0.33590 0.34820 0.73490 0.06700
H 	H 	0.35640 0.45800 0.69240 0.06000
H 	H 	0.63500 0.25480 0.86300 0.10700
H 	H 	0.69740 0.25560 0.95500 -0.01100
H 	H 	0.43320 0.03300 0.93170 -0.00900
H 	H 	0.37020 0.02370 0.83890 0.09800
H 	H 	0.36780 0.89190 0.69310 0.09600
H 	H 	0.25980 0.75130 0.63610 -0.01400
H 	H 	0.98390 0.83350 0.56730 -0.00000
H 	H 	0.08180 0.97610 0.62010 0.10300
H 	H 	0.72380 0.38560 0.79960 0.24500
C 	C 	0.33740 0.12610 0.05062 0.30500
C 	C 	0.19680 0.08920 0.06358 -0.05600
C 	C 	0.17300 0.02240 0.09004 -0.03800
C 	C 	0.04380 0.98930 0.10337 0.01200
C 	C 	0.93600 0.02350 0.08954 -0.03900
C 	C 	0.95770 0.08920 0.06291 -0.05500
C 	C 	0.08790 0.12150 0.04954 -0.00400
C 	C 	0.84170 0.12440 0.04713 0.30000
C 	C 	0.01900 0.91850 0.13118 0.02500
C 	C 	0.96780 0.78210 0.18107 0.02600
C 	C 	0.94160 0.92370 0.17810 -0.05000
C 	C 	0.91520 0.85560 0.20280 -0.04800
C 	C 	0.04770 0.77960 0.13700 -0.04300
C 	C 	0.07260 0.84760 0.11320 -0.05600
C 	C 	0.93710 0.70660 0.20519 0.04000
C 	C 	0.86950 0.62350 0.16913 -0.02000
C 	C 	0.84690 0.55090 0.19146 0.03300
C 	C 	0.94830 0.64210 0.28193 0.06200
C 	C 	0.97770 0.71600 0.26251 -0.09600
C 	C 	0.78150 0.45990 0.15490 0.09100
C 	C 	0.67610 0.43700 0.10910 -0.16100
C 	C 	0.62390 0.35090 0.07870 0.10700
C 	C 	0.76470 0.30530 0.13250 0.09200
C 	C 	0.82490 0.39070 0.16650 -0.14900
C 	C 	0.97920 0.64670 0.34235 0.09300
C 	C 	0.01810 0.58120 0.35807 -0.16000
C 	C 	0.03580 0.58510 0.41455 0.11400
C 	C 	0.96390 0.71070 0.44190 0.08900
C 	C 	0.94890 0.71240 0.38590 -0.15000
C 	C 	0.07680 0.80070 0.29880 0.32300
C 	C 	0.77770 0.62710 0.55623 0.31000
C 	C 	0.63810 0.58670 0.56699 -0.06400
C 	C 	0.52610 0.61580 0.55177 0.00500
C 	C 	0.39630 0.57960 0.56258 -0.06600
C 	C 	0.37840 0.51420 0.58979 -0.03200
C 	C 	0.48840 0.48260 0.60447 0.00600
C 	C 	0.61730 0.51990 0.59269 -0.03200
C 	C 	0.27850 0.61160 0.54571 0.31100
C 	C 	0.47030 0.41040 0.63048 0.02800
C 	C 	0.53010 0.34090 0.60968 -0.06100
C 	C 	0.51260 0.27200 0.63418 -0.04100
C 	C 	0.43560 0.27330 0.68038 0.02700
C 	C 	0.38210 0.34490 0.70266 -0.05100
C 	C 	0.39630 0.41160 0.67773 -0.05400
C 	C 	0.41360 0.19810 0.70428 0.02800
C 	C 	0.45920 0.20960 0.76107 -0.06900
C 	C 	0.43750 0.13630 0.78103 0.05300
C 	C 	0.32420 0.04410 0.69289 0.03100
C 	C 	0.34310 0.11410 0.67007 -0.02000
C 	C 	0.48700 0.14110 0.84042 0.09700
C 	C 	0.59020 0.20910 0.87610 -0.15400
C 	C 	0.62720 0.20930 0.93171 0.09800
C 	C 	0.47400 0.07920 0.91823 0.10800
C 	C 	0.43410 0.07380 0.86228 -0.15700
C 	C 	0.24990 0.95280 0.65848 0.09200
C 	C 	0.29410 0.88270 0.66570 -0.15700
C 	C 	0.22690 0.79790 0.63140 0.10100
C 	C 	0.06560 0.84620 0.59110 0.09400
C 	C 	0.12380 0.93190 0.62230 -0.15500
C 	C 	0.55000 0.29930 0.79430 0.23500
N 	N 	0.88540 0.56060 0.24633 -0.12200
N 	N 	0.66610 0.28460 0.08824 -0.25800
N 	N 	0.36890 0.05510 0.74775 -0.12000
N 	N 	0.56630 0.14595 0.95336 -0.26200
N 	N 	0.11960 0.77920 0.59278 -0.25800
N 	N 	0.01460 0.64860 0.45658 -0.25900
O 	O 	0.43210 0.08958 0.06041 -0.42400
O 	O 	0.36010 0.18989 0.03231 -0.31900
O 	O 	0.72510 0.09318 0.06209 -0.41800
O 	O 	0.85760 0.18131 0.02239 -0.32300
O 	O 	0.16230 0.58282 0.56054 -0.43100
O 	O 	0.29530 0.66630 0.51882 -0.32200
O 	O 	0.80080 0.69299 0.53992 -0.31800
O 	O 	0.87350 0.59054 0.56497 -0.42200
O 	O 	0.21300 0.80530 0.30130 -0.42200
O 	O 	0.02920 0.86350 0.32680 -0.25900
O 	O 	0.69820 0.33200 0.78460 -0.36700
O 	O 	0.49800 0.35050 0.83410 -0.22100
Co	Co	0.40128 0.84431 0.96218 1.15500
Co	Co	0.95896 0.34862 0.45946 1.15400
H 	H 	0.75470 0.00010 0.90120 0.06000
H 	H 	0.15120 0.99780 0.90170 0.06300
H 	H 	0.89800 0.83530 0.96880 0.06300
H 	H 	0.09210 0.02700 0.80740 0.05700
H 	H 	0.13670 0.14100 0.76670 0.06900
H 	H 	0.91480 0.26820 0.87680 0.06000
H 	H 	0.87220 0.15520 0.91630 0.06700
H 	H 	0.35730 0.51950 0.90020 0.10300
H 	H 	0.44670 0.66270 0.95100 -0.00600
H 	H 	0.20590 0.74030 0.85920 -0.01100
H 	H 	0.10650 0.59790 0.80340 0.09300
H 	H 	0.96720 0.46680 0.67010 0.09800
H 	H 	0.93530 0.46010 0.57650 -0.01100
H 	H 	0.06150 0.24650 0.52940 -0.00200
H 	H 	0.08140 0.24240 0.62250 0.10200
H 	H 	0.74390 0.14670 0.67670 0.26500
H 	H 	0.46110 0.34010 0.46580 0.05800
H 	H 	0.70830 0.50870 0.40170 0.05900
H 	H 	0.30830 0.50020 0.39780 0.06100
H 	H 	0.41780 0.66010 0.42070 0.07200
H 	H 	0.44790 0.77460 0.38030 0.06100
H 	H 	0.66410 0.65180 0.26510 0.06700
H 	H 	0.64360 0.54200 0.30760 0.06000
H 	H 	0.36500 0.74520 0.13700 0.10700
H 	H 	0.30260 0.74440 0.04500 -0.01100
H 	H 	0.56680 0.96700 0.06830 -0.00900
H 	H 	0.62980 0.97630 0.16110 0.09800
H 	H 	0.63220 0.10810 0.30690 0.09600
H 	H 	0.74020 0.24870 0.36390 -0.01400
H 	H 	0.01610 0.16650 0.43270 -0.00000
H 	H 	0.91820 0.02390 0.37990 0.10300
H 	H 	0.27620 0.61440 0.20040 0.24500
C 	C 	0.66260 0.87390 0.94938 0.30500
C 	C 	0.80320 0.91080 0.93642 -0.05600
C 	C 	0.82700 0.97760 0.90996 -0.03800
C 	C 	0.95620 0.01070 0.89663 0.01200
C 	C 	0.06400 0.97650 0.91046 -0.03900
C 	C 	0.04230 0.91080 0.93709 -0.05500
C 	C 	0.91210 0.87850 0.95046 -0.00400
C 	C 	0.15830 0.87560 0.95287 0.30000
C 	C 	0.98100 0.08150 0.86882 0.02500
C 	C 	0.03220 0.21790 0.81893 0.02600
C 	C 	0.05840 0.07630 0.82190 -0.05000
C 	C 	0.08480 0.14440 0.79720 -0.04800
C 	C 	0.95230 0.22040 0.86300 -0.04300
C 	C 	0.92740 0.15240 0.88680 -0.05600
C 	C 	0.06290 0.29340 0.79481 0.04000
C 	C 	0.13050 0.37650 0.83087 -0.02000
C 	C 	0.15310 0.44910 0.80854 0.03300
C 	C 	0.05170 0.35790 0.71807 0.06200
C 	C 	0.02230 0.28400 0.73749 -0.09600
C 	C 	0.21850 0.54010 0.84510 0.09100
C 	C 	0.32390 0.56300 0.89090 -0.16100
C 	C 	0.37610 0.64910 0.92130 0.10700
C 	C 	0.23530 0.69470 0.86750 0.09200
C 	C 	0.17510 0.60930 0.83350 -0.14900
C 	C 	0.02080 0.35330 0.65765 0.09300
C 	C 	0.98190 0.41880 0.64193 -0.16000
C 	C 	0.96420 0.41490 0.58545 0.11400
C 	C 	0.03610 0.28930 0.55810 0.08900
C 	C 	0.05110 0.28760 0.61410 -0.15000
C 	C 	0.92320 0.19930 0.70120 0.32300
C 	C 	0.22230 0.37290 0.44377 0.31000
C 	C 	0.36190 0.41330 0.43301 -0.06400
C 	C 	0.47390 0.38420 0.44823 0.00500
C 	C 	0.60370 0.42040 0.43742 -0.06600
C 	C 	0.62160 0.48580 0.41021 -0.03200
C 	C 	0.51160 0.51740 0.39553 0.00600
C 	C 	0.38270 0.48010 0.40731 -0.03200
C 	C 	0.72150 0.38840 0.45429 0.31100
C 	C 	0.52970 0.58960 0.36952 0.02800
C 	C 	0.46990 0.65910 0.39032 -0.06100
C 	C 	0.48740 0.72800 0.36582 -0.04100
C 	C 	0.56440 0.72670 0.31962 0.02700
C 	C 	0.61790 0.65510 0.29734 -0.05100
C 	C 	0.60370 0.58840 0.32227 -0.05400
C 	C 	0.58640 0.80190 0.29572 0.02800
C 	C 	0.54080 0.79040 0.23893 -0.06900
C 	C 	0.56250 0.86370 0.21897 0.05300
C 	C 	0.67580 0.95590 0.30711 0.03100
C 	C 	0.65690 0.88590 0.32993 -0.02000
C 	C 	0.51300 0.85890 0.15958 0.09700
C 	C 	0.40980 0.79090 0.12390 -0.15400
C 	C 	0.37280 0.79070 0.06829 0.09800
C 	C 	0.52600 0.92080 0.08177 0.10800
C 	C 	0.56590 0.92620 0.13772 -0.15700
C 	C 	0.75010 0.04720 0.34152 0.09200
C 	C 	0.70590 0.11730 0.33430 -0.15700
C 	C 	0.77310 0.20210 0.36860 0.10100
C 	C 	0.93440 0.15380 0.40890 0.09400
C 	C 	0.87620 0.06810 0.37770 -0.15500
C 	C 	0.45000 0.70070 0.20570 0.23500
N 	N 	0.11460 0.43940 0.75367 -0.12200
N 	N 	0.33390 0.71540 0.91176 -0.25800
N 	N 	0.63110 0.94490 0.25225 -0.12000
N 	N 	0.43370 0.85405 0.04664 -0.26200
N 	N 	0.88040 0.22080 0.40722 -0.25800
N 	N 	0.98540 0.35140 0.54342 -0.25900
O 	O 	0.56790 0.91042 0.93959 -0.42400
O 	O 	0.63990 0.81011 0.96769 -0.31900
O 	O 	0.27490 0.90682 0.93791 -0.41800
O 	O 	0.14240 0.81869 0.97761 -0.32300
O 	O 	0.83770 0.41718 0.43946 -0.43100
O 	O 	0.70470 0.33370 0.48118 -0.32200
O 	O 	0.19920 0.30701 0.46008 -0.31800
O 	O 	0.12650 0.40946 0.43503 -0.42200
O 	O 	0.78700 0.19470 0.69870 -0.42200
O 	O 	0.97080 0.13650 0.67320 -0.25900
O 	O 	0.30180 0.66800 0.21540 -0.36700
O 	O 	0.50200 0.64950 0.16590 -0.22100
