data_crystal

_cell_length_a 12.22750
_cell_length_b 14.43250
_cell_length_c 28.84300
_cell_angle_alpha 90.00000
_cell_angle_beta  90.00000
_cell_angle_gamma 90.00000

_symmetry_space_group_name_	'P 1'
_symmetry_space_group_name_H-M	'P 1'

loop_
_symmetry_equiv_pos_as_xyz
  x,y,z

loop_
_atom_site_label
_atom_site_type_symbol
_atom_site_fract_x
_atom_site_fract_y
_atom_site_fract_z
_atom_site_charge
Gd	Gd	0.12612 0.60966 0.84294 1.60400
Gd	Gd	0.33997 0.92670 0.90670 1.47300
Gd	Gd	0.62612 0.39034 0.15706 1.60400
Gd	Gd	0.83997 0.07330 0.09330 1.47000
Gd	Gd	0.12612 0.89034 0.34294 1.60300
Gd	Gd	0.33997 0.57330 0.40670 1.47500
Gd	Gd	0.62612 0.10966 0.65706 1.60400
Gd	Gd	0.83997 0.42670 0.59330 1.47300
Co	Co	0.32519 0.61966 0.03679 1.10400
Co	Co	0.74012 0.82957 0.79710 1.16600
Co	Co	0.82519 0.38034 0.96321 1.10400
Co	Co	0.24012 0.17043 0.20290 1.16600
Co	Co	0.32519 0.88034 0.53679 1.10400
Co	Co	0.74012 0.67043 0.29710 1.16600
Co	Co	0.82519 0.11966 0.46321 1.10400
Co	Co	0.24012 0.32957 0.70290 1.16600
H 	H 	0.14960 0.23920 0.89580 0.01500
H 	H 	0.12400 0.12250 0.83880 0.08400
H 	H 	0.15270 0.15580 0.76220 0.00500
H 	H 	0.89680 0.32020 0.76690 0.02600
H 	H 	0.85100 0.19300 0.81400 0.08900
H 	H 	0.84120 0.21600 0.89120 -0.01000
H 	H 	0.72890 0.77810 0.96400 0.01700
H 	H 	0.73130 0.62670 0.98310 0.07700
H 	H 	0.57900 0.55980 0.01730 -0.00800
H 	H 	0.48150 0.56360 0.89610 0.00600
H 	H 	0.66340 0.52340 0.87630 0.06700
H 	H 	0.76540 0.63180 0.83480 0.00700
H 	H 	0.98450 0.01960 0.94280 0.03300
H 	H 	0.79660 0.05220 0.93280 0.10200
H 	H 	0.69930 0.97780 0.88020 0.00900
H 	H 	0.64960 0.76080 0.10420 0.01500
H 	H 	0.62400 0.87750 0.16120 0.08300
H 	H 	0.65270 0.84420 0.23780 0.00500
H 	H 	0.39680 0.67980 0.23310 0.02700
H 	H 	0.35100 0.80700 0.18600 0.09000
H 	H 	0.34120 0.78400 0.10880 -0.01000
H 	H 	0.22890 0.22190 0.03600 0.01800
H 	H 	0.23130 0.37330 0.01690 0.07700
H 	H 	0.07900 0.44020 0.98270 -0.00900
H 	H 	0.98150 0.43640 0.10390 -0.00300
H 	H 	0.16340 0.47660 0.12370 0.07200
H 	H 	0.26540 0.36820 0.16520 0.00500
H 	H 	0.48450 0.98040 0.05720 0.03700
H 	H 	0.29660 0.94780 0.06720 0.10000
H 	H 	0.19930 0.02220 0.11980 0.01100
H 	H 	0.14960 0.26080 0.39580 0.01500
H 	H 	0.12400 0.37750 0.33880 0.08300
H 	H 	0.15270 0.34420 0.26220 0.00500
H 	H 	0.89680 0.17980 0.26690 0.02600
H 	H 	0.85100 0.30700 0.31400 0.08900
H 	H 	0.84120 0.28400 0.39120 -0.01000
H 	H 	0.72890 0.72190 0.46400 0.01700
H 	H 	0.73130 0.87330 0.48310 0.07700
H 	H 	0.57900 0.94020 0.51730 -0.00800
H 	H 	0.48150 0.93640 0.39610 0.00600
H 	H 	0.66340 0.97660 0.37630 0.06700
H 	H 	0.76540 0.86820 0.33480 0.00800
H 	H 	0.98450 0.48040 0.44280 0.03800
H 	H 	0.79660 0.44780 0.43280 0.09800
H 	H 	0.69930 0.52220 0.38020 0.01200
H 	H 	0.64960 0.73920 0.60420 0.01400
H 	H 	0.62400 0.62250 0.66120 0.08200
H 	H 	0.65270 0.65580 0.73780 0.00500
H 	H 	0.39680 0.82020 0.73310 0.02700
H 	H 	0.35100 0.69300 0.68600 0.09000
H 	H 	0.34120 0.71600 0.60880 -0.01000
H 	H 	0.22890 0.27810 0.53600 0.01700
H 	H 	0.23130 0.12670 0.51690 0.07800
H 	H 	0.07900 0.05980 0.48270 -0.00800
H 	H 	0.98150 0.06360 0.60390 -0.00800
H 	H 	0.16340 0.02340 0.62370 0.07500
H 	H 	0.26540 0.13180 0.66520 0.00400
H 	H 	0.48450 0.51960 0.55720 0.04000
H 	H 	0.29660 0.55220 0.56720 0.09800
H 	H 	0.19930 0.47780 0.61980 0.01200
C 	C 	0.21380 0.35180 0.80360 -0.01500
C 	C 	0.19740 0.33770 0.85170 -0.10700
C 	C 	0.16280 0.25220 0.86470 0.04700
C 	C 	0.14670 0.18150 0.83000 -0.13200
C 	C 	0.16470 0.20140 0.78440 0.08900
C 	C 	0.25390 0.44060 0.78390 0.33500
C 	C 	0.21650 0.41070 0.88660 0.37400
C 	C 	0.88990 0.41800 0.86770 -0.00200
C 	C 	0.90660 0.41490 0.81920 -0.11000
C 	C 	0.88970 0.32750 0.79880 0.05700
C 	C 	0.86210 0.25150 0.82660 -0.15000
C 	C 	0.85260 0.26700 0.87210 0.09700
C 	C 	0.91050 0.50860 0.89520 0.32200
C 	C 	0.93220 0.49420 0.78640 0.38600
C 	C 	0.47860 0.75840 0.99550 -0.01400
C 	C 	0.56900 0.80110 0.97750 -0.10900
C 	C 	0.66540 0.74990 0.97480 0.05900
C 	C 	0.66800 0.66140 0.98730 -0.13300
C 	C 	0.57550 0.62070 0.00690 0.06900
C 	C 	0.36720 0.80300 0.00110 0.32900
C 	C 	0.56830 0.90080 0.96260 0.37100
C 	C 	0.55230 0.74930 0.84600 0.00900
C 	C 	0.48430 0.68950 0.86830 -0.14500
C 	C 	0.52520 0.60550 0.88010 0.07500
C 	C 	0.63410 0.58060 0.86820 -0.13200
C 	C 	0.69450 0.64650 0.84390 0.09000
C 	C 	0.51610 0.84360 0.83010 0.31200
C 	C 	0.36890 0.71000 0.87980 0.45300
C 	C 	0.92280 0.87690 0.86000 -0.01900
C 	C 	0.98940 0.92250 0.88930 -0.06100
C 	C 	0.94290 0.98980 0.92030 0.03000
C 	C 	0.83040 0.00770 0.91440 -0.13300
C 	C 	0.77290 0.96270 0.88340 0.09100
C 	C 	0.95760 0.79210 0.83220 0.35700
C 	C 	0.11240 0.90960 0.89200 0.30700
C 	C 	0.71380 0.64820 0.19640 -0.01500
C 	C 	0.69740 0.66230 0.14830 -0.10700
C 	C 	0.66280 0.74780 0.13530 0.04700
C 	C 	0.64670 0.81850 0.17000 -0.13300
C 	C 	0.66470 0.79860 0.21560 0.08800
C 	C 	0.75390 0.55940 0.21610 0.33500
C 	C 	0.71650 0.58930 0.11340 0.37400
C 	C 	0.38990 0.58200 0.13230 -0.00100
C 	C 	0.40660 0.58510 0.18080 -0.11100
C 	C 	0.38970 0.67250 0.20120 0.05800
C 	C 	0.36210 0.74850 0.17340 -0.15000
C 	C 	0.35260 0.73300 0.12790 0.09800
C 	C 	0.41050 0.49140 0.10480 0.32200
C 	C 	0.43220 0.50580 0.21360 0.39000
C 	C 	0.97860 0.24160 0.00450 -0.02000
C 	C 	0.06900 0.19890 0.02250 -0.10200
C 	C 	0.16540 0.25010 0.02520 0.05700
C 	C 	0.16800 0.33860 0.01270 -0.13300
C 	C 	0.07550 0.37930 0.99310 0.07200
C 	C 	0.86720 0.19700 0.99890 0.33000
C 	C 	0.06830 0.09920 0.03740 0.36900
C 	C 	0.05230 0.25070 0.15400 0.01700
C 	C 	0.98430 0.31050 0.13170 -0.16100
C 	C 	0.02520 0.39450 0.11990 0.09700
C 	C 	0.13410 0.41940 0.13180 -0.14400
C 	C 	0.19450 0.35350 0.15610 0.09600
C 	C 	0.01610 0.15640 0.16990 0.31500
C 	C 	0.86890 0.29000 0.12020 0.45800
C 	C 	0.42280 0.12310 0.14000 -0.02000
C 	C 	0.48940 0.07750 0.11070 -0.05800
C 	C 	0.44290 0.01020 0.07970 0.02500
C 	C 	0.33040 0.99230 0.08560 -0.12900
C 	C 	0.27290 0.03730 0.11660 0.08800
C 	C 	0.45760 0.20790 0.16780 0.35900
C 	C 	0.61240 0.09040 0.10800 0.30600
C 	C 	0.21380 0.14820 0.30360 -0.01500
C 	C 	0.19740 0.16230 0.35170 -0.10600
C 	C 	0.16280 0.24780 0.36470 0.04700
C 	C 	0.14670 0.31850 0.33000 -0.13200
C 	C 	0.16470 0.29860 0.28440 0.08800
C 	C 	0.25390 0.05940 0.28390 0.33700
C 	C 	0.21650 0.08930 0.38660 0.37400
C 	C 	0.88990 0.08200 0.36770 -0.00400
C 	C 	0.90660 0.08510 0.31920 -0.10900
C 	C 	0.88970 0.17250 0.29880 0.05600
C 	C 	0.86210 0.24850 0.32660 -0.15000
C 	C 	0.85260 0.23300 0.37210 0.09700
C 	C 	0.91050 0.99140 0.39520 0.32400
C 	C 	0.93220 0.00580 0.28640 0.38200
C 	C 	0.47860 0.74160 0.49550 -0.01400
C 	C 	0.56900 0.69890 0.47750 -0.10900
C 	C 	0.66540 0.75010 0.47480 0.05900
C 	C 	0.66800 0.83860 0.48730 -0.13300
C 	C 	0.57550 0.87930 0.50690 0.06900
C 	C 	0.36720 0.69700 0.50110 0.32900
C 	C 	0.56830 0.59920 0.46260 0.37100
C 	C 	0.55230 0.75070 0.34600 0.00900
C 	C 	0.48430 0.81050 0.36830 -0.14500
C 	C 	0.52520 0.89450 0.38010 0.07600
C 	C 	0.63410 0.91940 0.36820 -0.13300
C 	C 	0.69450 0.85350 0.34390 0.09000
C 	C 	0.51610 0.65640 0.33010 0.31200
C 	C 	0.36890 0.79000 0.37980 0.45300
C 	C 	0.92280 0.62310 0.36000 -0.02000
C 	C 	0.98940 0.57750 0.38930 -0.05900
C 	C 	0.94290 0.51020 0.42030 0.02000
C 	C 	0.83040 0.49230 0.41440 -0.12300
C 	C 	0.77290 0.53730 0.38340 0.08400
C 	C 	0.95760 0.70790 0.33220 0.35700
C 	C 	0.11240 0.59040 0.39200 0.30800
C 	C 	0.71380 0.85180 0.69640 -0.01500
C 	C 	0.69740 0.83770 0.64830 -0.10700
C 	C 	0.66280 0.75220 0.63530 0.04700
C 	C 	0.64670 0.68150 0.67000 -0.13300
C 	C 	0.66470 0.70140 0.71560 0.08800
C 	C 	0.75390 0.94060 0.71610 0.33600
C 	C 	0.71650 0.91070 0.61340 0.37400
C 	C 	0.38990 0.91800 0.63230 -0.00300
C 	C 	0.40660 0.91490 0.68080 -0.10900
C 	C 	0.38970 0.82750 0.70120 0.05700
C 	C 	0.36210 0.75150 0.67340 -0.15000
C 	C 	0.35260 0.76700 0.62790 0.09800
C 	C 	0.41050 0.00860 0.60480 0.32400
C 	C 	0.43220 0.99420 0.71360 0.38600
C 	C 	0.97860 0.25840 0.50450 -0.01900
C 	C 	0.06900 0.30110 0.52250 -0.10300
C 	C 	0.16540 0.24990 0.52520 0.05800
C 	C 	0.16800 0.16140 0.51270 -0.13300
C 	C 	0.07550 0.12070 0.49310 0.07400
C 	C 	0.86720 0.30300 0.49890 0.33000
C 	C 	0.06830 0.40080 0.53740 0.36900
C 	C 	0.05230 0.24930 0.65400 0.02100
C 	C 	0.98430 0.18950 0.63170 -0.16800
C 	C 	0.02520 0.10550 0.61990 0.10700
C 	C 	0.13410 0.08060 0.63180 -0.15000
C 	C 	0.19450 0.14650 0.65610 0.10000
C 	C 	0.01610 0.34360 0.66990 0.31300
C 	C 	0.86890 0.21000 0.62020 0.46100
C 	C 	0.42280 0.37690 0.64000 -0.02100
C 	C 	0.48940 0.42250 0.61070 -0.05600
C 	C 	0.44290 0.48980 0.57970 0.01900
C 	C 	0.33040 0.50770 0.58560 -0.12100
C 	C 	0.27290 0.46270 0.61660 0.08300
C 	C 	0.45760 0.29210 0.66780 0.35900
C 	C 	0.61240 0.40960 0.60800 0.30500
N 	N 	0.19890 0.28440 0.77100 -0.21400
N 	N 	0.85820 0.34880 0.89180 -0.23400
N 	N 	0.47980 0.66880 0.01100 -0.22200
N 	N 	0.65550 0.72740 0.83360 -0.23300
N 	N 	0.81440 0.89540 0.85560 -0.21000
N 	N 	0.69890 0.71560 0.22900 -0.21400
N 	N 	0.35820 0.65120 0.10820 -0.23400
N 	N 	0.97980 0.33120 0.98900 -0.22400
N 	N 	0.15550 0.27260 0.16640 -0.23600
N 	N 	0.31440 0.10460 0.14440 -0.20900
N 	N 	0.19890 0.21560 0.27100 -0.21300
N 	N 	0.85820 0.15120 0.39180 -0.23400
N 	N 	0.47980 0.83120 0.51100 -0.22300
N 	N 	0.65550 0.77260 0.33360 -0.23300
N 	N 	0.81440 0.60460 0.35560 -0.20900
N 	N 	0.69890 0.78440 0.72900 -0.21400
N 	N 	0.35820 0.84880 0.60820 -0.23400
N 	N 	0.97980 0.16880 0.48900 -0.22500
N 	N 	0.15550 0.22740 0.66640 -0.23700
N 	N 	0.31440 0.39540 0.64440 -0.20800
O 	O 	0.25970 0.51110 0.80870 -0.38000
O 	O 	0.28630 0.44050 0.74180 -0.39000
O 	O 	0.14910 0.47770 0.88950 -0.42200
O 	O 	0.29360 0.40250 0.91360 -0.28700
O 	O 	0.94870 0.58070 0.87620 -0.39100
O 	O 	0.88090 0.50370 0.93720 -0.44100
O 	O 	0.02770 0.52870 0.78900 -0.42500
O 	O 	0.86130 0.51910 0.75980 -0.27200
O 	O 	0.29150 0.75510 0.01880 -0.42700
O 	O 	0.35470 0.88550 0.98670 -0.37700
O 	O 	0.52460 0.92200 0.92580 -0.43100
O 	O 	0.62140 0.95760 0.98750 -0.27200
O 	O 	0.42090 0.87040 0.83690 -0.38300
O 	O 	0.58680 0.89010 0.80670 -0.38200
O 	O 	0.30150 0.66280 0.85760 -0.46100
O 	O 	0.34400 0.76570 0.91080 -0.44900
O 	O 	0.88990 0.76350 0.80080 -0.41100
O 	O 	0.04680 0.75910 0.84140 -0.43100
O 	O 	0.15210 0.88060 0.92960 -0.34800
O 	O 	0.17160 0.93880 0.85990 -0.37500
O 	O 	0.75970 0.48890 0.19130 -0.38000
O 	O 	0.78630 0.55950 0.25820 -0.39100
O 	O 	0.64910 0.52230 0.11050 -0.42300
O 	O 	0.79360 0.59750 0.08640 -0.28800
O 	O 	0.44870 0.41930 0.12380 -0.39000
O 	O 	0.38090 0.49630 0.06280 -0.44000
O 	O 	0.52770 0.47130 0.21100 -0.42800
O 	O 	0.36130 0.48090 0.24020 -0.27200
O 	O 	0.79150 0.24490 0.98120 -0.42700
O 	O 	0.85470 0.11450 0.01330 -0.37800
O 	O 	0.02460 0.07800 0.07420 -0.42700
O 	O 	0.12140 0.04240 0.01250 -0.27000
O 	O 	0.92090 0.12960 0.16310 -0.38700
O 	O 	0.08680 0.10990 0.19330 -0.38100
O 	O 	0.80150 0.33720 0.14240 -0.46200
O 	O 	0.84400 0.23430 0.08920 -0.45100
O 	O 	0.38990 0.23650 0.19920 -0.41100
O 	O 	0.54680 0.24090 0.15860 -0.43200
O 	O 	0.65210 0.11940 0.07040 -0.34800
O 	O 	0.67160 0.06120 0.14010 -0.37400
O 	O 	0.25970 0.98890 0.30870 -0.38100
O 	O 	0.28630 0.05950 0.24180 -0.39000
O 	O 	0.14910 0.02230 0.38950 -0.42100
O 	O 	0.29360 0.09750 0.41360 -0.28700
O 	O 	0.94870 0.91930 0.37620 -0.39000
O 	O 	0.88090 0.99630 0.43720 -0.44000
O 	O 	0.02770 0.97130 0.28900 -0.42500
O 	O 	0.86130 0.98090 0.25980 -0.26900
O 	O 	0.29150 0.74490 0.51880 -0.42700
O 	O 	0.35470 0.61450 0.48670 -0.37700
O 	O 	0.52460 0.57800 0.42580 -0.43100
O 	O 	0.62140 0.54240 0.48750 -0.27300
O 	O 	0.42090 0.62960 0.33690 -0.38300
O 	O 	0.58680 0.60990 0.30670 -0.38200
O 	O 	0.30150 0.83720 0.35760 -0.46100
O 	O 	0.34400 0.73430 0.41080 -0.45000
O 	O 	0.88990 0.73650 0.30080 -0.41100
O 	O 	0.04680 0.74090 0.34140 -0.43100
O 	O 	0.15210 0.61940 0.42960 -0.34800
O 	O 	0.17160 0.56120 0.35990 -0.37400
O 	O 	0.75970 0.01110 0.69130 -0.38100
O 	O 	0.78630 0.94050 0.75820 -0.39100
O 	O 	0.64910 0.97770 0.61050 -0.42300
O 	O 	0.79360 0.90250 0.58640 -0.28700
O 	O 	0.44870 0.08070 0.62380 -0.39000
O 	O 	0.38090 0.00370 0.56280 -0.44000
O 	O 	0.52770 0.02870 0.71100 -0.42600
O 	O 	0.36130 0.01910 0.74020 -0.27000
O 	O 	0.79150 0.25510 0.48120 -0.42700
O 	O 	0.85470 0.38550 0.51330 -0.37800
O 	O 	0.02460 0.42200 0.57420 -0.42900
O 	O 	0.12140 0.45760 0.51250 -0.27200
O 	O 	0.92090 0.37040 0.66310 -0.38600
O 	O 	0.08680 0.39010 0.69330 -0.38100
O 	O 	0.80150 0.16280 0.64240 -0.46300
O 	O 	0.84400 0.26570 0.58920 -0.45200
O 	O 	0.38990 0.26350 0.69920 -0.41100
O 	O 	0.54680 0.25910 0.65860 -0.43300
O 	O 	0.65210 0.38060 0.57040 -0.34800
O 	O 	0.67160 0.43880 0.64010 -0.37300
