data_crystal

_cell_length_a 14.85300
_cell_length_b 32.86600
_cell_length_c 34.85000
_cell_angle_alpha 105.84800
_cell_angle_beta  90.00000
_cell_angle_gamma 90.00000

_symmetry_space_group_name_	'P 1'
_symmetry_space_group_name_H-M	'P 1'

loop_
_symmetry_equiv_pos_as_xyz
  x,y,z

loop_
_atom_site_label
_atom_site_type_symbol
_atom_site_fract_x
_atom_site_fract_y
_atom_site_fract_z
_atom_site_charge
Zn	Zn	0.73272 0.30605 0.86924 1.16600
Zn	Zn	0.70601 0.67147 0.15099 1.16300
Zn	Zn	0.18580 0.98118 0.08118 1.16600
Zn	Zn	0.94604 0.17484 0.11958 1.15700
Zn	Zn	0.45961 0.49034 0.08398 1.16400
Zn	Zn	0.25978 0.30770 0.36809 1.16500
Zn	Zn	0.91576 0.80109 0.87047 1.15900
Zn	Zn	0.23119 0.67743 0.61952 1.16500
Zn	Zn	0.99467 0.48131 0.58713 1.14900
Zn	Zn	0.72407 0.98952 0.58771 1.16400
Zn	Zn	0.44824 0.81983 0.36254 1.16500
Zn	Zn	0.46500 0.17517 0.65575 1.16200
H 	H 	0.91410 0.33110 0.90000 -0.02500
H 	H 	0.98890 0.37870 0.95300 0.07700
H 	H 	0.75490 0.43860 0.98500 0.09300
H 	H 	0.68110 0.37980 0.93760 -0.00100
H 	H 	0.28490 0.53280 0.10650 -0.02900
H 	H 	0.13760 0.53130 0.09200 0.10800
H 	H 	0.17750 0.42310 0.00910 0.09100
H 	H 	0.33510 0.43220 0.02590 -0.02300
H 	H 	0.65850 0.58980 0.09080 -0.01800
H 	H 	0.73350 0.52380 0.05910 0.08000
H 	H 	0.96890 0.57960 0.09810 0.08300
H 	H 	0.89040 0.63980 0.13120 -0.00800
H 	H 	0.81370 0.72860 0.11480 -0.01100
H 	H 	0.93680 0.77300 0.12790 0.06000
H 	H 	0.96710 0.74790 0.23450 0.04200
H 	H 	0.84410 0.70140 0.21830 0.00100
H 	H 	0.29460 0.93050 0.12670 0.00100
H 	H 	0.26500 0.88650 0.16620 0.07300
H 	H 	0.99920 0.88710 0.14220 0.01500
H 	H 	0.03020 0.93560 0.10680 0.01400
H 	H 	0.28950 0.76680 0.32350 -0.00400
H 	H 	0.18380 0.76350 0.27230 0.07600
H 	H 	0.32110 0.86270 0.24820 0.08200
H 	H 	0.41410 0.86170 0.29980 -0.01000
H 	H 	0.31300 0.93010 0.01650 -0.01500
H 	H 	0.46610 0.92650 0.00100 0.08700
H 	H 	0.51500 0.01240 0.10530 0.08900
H 	H 	0.35780 0.00870 0.11860 -0.02100
H 	H 	0.96130 0.88330 0.93050 -0.02600
H 	H 	0.89540 0.93750 0.97590 0.08900
H 	H 	0.65950 0.87350 0.95140 0.08800
H 	H 	0.73170 0.82470 0.90580 -0.02300
H 	H 	0.75650 0.14350 0.11570 -0.00100
H 	H 	0.67500 0.08090 0.09130 0.09300
H 	H 	0.91550 0.01920 0.06410 0.07100
H 	H 	0.98300 0.08230 0.09540 -0.03600
H 	H 	0.83630 0.23990 0.09570 -0.01000
H 	H 	0.71890 0.28750 0.11880 0.07900
H 	H 	0.71430 0.25040 0.21940 0.08300
H 	H 	0.84080 0.20550 0.19530 -0.02400
H 	H 	0.37670 0.45810 0.15080 -0.01800
H 	H 	0.39620 0.40420 0.18010 0.09000
H 	H 	0.62940 0.37900 0.12120 0.08600
H 	H 	0.59380 0.42280 0.08600 -0.01700
H 	H 	0.39250 0.25140 0.30600 -0.01300
H 	H 	0.47260 0.25460 0.25190 0.08000
H 	H 	0.39180 0.37690 0.27060 0.08300
H 	H 	0.31930 0.37110 0.32820 -0.00500
H 	H 	0.79330 0.74590 0.80850 -0.01400
H 	H 	0.70280 0.75160 0.75440 0.07700
H 	H 	0.79200 0.87020 0.77130 0.08400
H 	H 	0.88700 0.86030 0.82210 -0.02200
H 	H 	0.34420 0.73970 0.59520 -0.01800
H 	H 	0.47000 0.78260 0.61740 0.08500
H 	H 	0.46400 0.74920 0.72060 0.08100
H 	H 	0.34070 0.70650 0.69600 -0.00600
H 	H 	0.83280 0.93710 0.63420 -0.01400
H 	H 	0.80320 0.88770 0.66760 0.07800
H 	H 	0.54360 0.88870 0.63940 0.07900
H 	H 	0.57170 0.94080 0.60730 -0.00500
H 	H 	0.19670 0.58220 0.58860 -0.00800
H 	H 	0.27490 0.52070 0.56140 0.08000
H 	H 	0.50340 0.58780 0.57670 0.09500
H 	H 	0.42310 0.64760 0.60410 -0.00400
H 	H 	0.44920 0.33340 0.39140 -0.01000
H 	H 	0.53040 0.38500 0.44350 0.07100
H 	H 	0.28870 0.43070 0.48930 0.09700
H 	H 	0.21840 0.38100 0.43700 -0.01300
H 	H 	0.83460 0.53340 0.60390 -0.02200
H 	H 	0.67840 0.53310 0.58570 0.08500
H 	H 	0.71780 0.42120 0.50640 0.08600
H 	H 	0.86930 0.42640 0.52300 -0.02100
H 	H 	0.84880 0.93580 0.52270 -0.01600
H 	H 	0.99770 0.93120 0.50780 0.08100
H 	H 	0.05040 0.02480 0.60720 0.07700
H 	H 	0.89820 0.02710 0.62110 -0.00700
H 	H 	0.49200 0.89530 0.42860 -0.02400
H 	H 	0.43100 0.94220 0.48260 0.10100
H 	H 	0.18670 0.88650 0.44770 0.08100
H 	H 	0.26050 0.83880 0.39790 0.00400
H 	H 	0.28760 0.15320 0.61640 -0.00900
H 	H 	0.20960 0.09060 0.58440 0.09800
H 	H 	0.44640 0.02940 0.56310 0.08400
H 	H 	0.51660 0.09150 0.59920 -0.01700
H 	H 	0.31270 0.19610 0.71650 -0.00300
H 	H 	0.18700 0.23860 0.73040 0.07300
H 	H 	0.24490 0.28280 0.63600 0.08700
H 	H 	0.37400 0.24160 0.62690 -0.01800
H 	H 	0.76860 0.35650 0.81740 -0.02800
H 	H 	0.85550 0.36020 0.76060 0.09100
H 	H 	0.97490 0.25300 0.76710 0.07200
H 	H 	0.88370 0.25320 0.82000 -0.02200
H 	H 	0.13660 0.43970 0.62280 -0.01500
H 	H 	0.15660 0.38860 0.65440 0.08900
H 	H 	0.88620 0.38000 0.66300 0.09200
H 	H 	0.87360 0.43370 0.63260 -0.00700
C 	C 	0.87920 0.35200 0.91820 0.10300
C 	C 	0.92580 0.38110 0.94980 -0.14900
C 	C 	0.87810 0.41200 0.97490 0.06800
C 	C 	0.78840 0.41530 0.96960 -0.12600
C 	C 	0.74500 0.38130 0.93890 0.05100
C 	C 	0.92080 0.44370 0.00710 0.04400
C 	C 	0.04190 0.47260 0.04470 0.12400
C 	C 	0.91050 0.50690 0.05520 0.08900
C 	C 	0.26360 0.50920 0.08610 0.11500
C 	C 	0.17490 0.50820 0.07880 -0.16200
C 	C 	0.13930 0.47440 0.05270 0.08800
C 	C 	0.19750 0.44600 0.03050 -0.14200
C 	C 	0.29320 0.45210 0.04100 0.10300
C 	C 	0.72200 0.58740 0.09280 0.06600
C 	C 	0.76760 0.54790 0.07280 -0.12800
C 	C 	0.85520 0.54570 0.07390 0.06300
C 	C 	0.90520 0.58070 0.09640 -0.12600
C 	C 	0.85790 0.61620 0.11550 0.07100
C 	C 	0.84510 0.73260 0.13930 0.05300
C 	C 	0.91740 0.75900 0.14700 -0.09300
C 	C 	0.96160 0.76500 0.18220 -0.00600
C 	C 	0.93590 0.74390 0.21000 -0.07600
C 	C 	0.86280 0.71690 0.20040 0.03200
C 	C 	0.04370 0.79350 0.19000 0.14300
C 	C 	0.11930 0.84790 0.17920 0.13600
C 	C 	0.17400 0.81510 0.22250 0.10500
C 	C 	0.23420 0.92310 0.13070 0.03500
C 	C 	0.21610 0.89560 0.15300 -0.07500
C 	C 	0.13330 0.88080 0.15750 0.01500
C 	C 	0.05910 0.89620 0.13980 -0.00400
C 	C 	0.07910 0.92510 0.11880 0.01700
C 	C 	0.29520 0.78610 0.30780 0.07000
C 	C 	0.23090 0.78380 0.27720 -0.11400
C 	C 	0.23990 0.81300 0.25430 0.04600
C 	C 	0.31220 0.84280 0.26310 -0.10800
C 	C 	0.36720 0.84130 0.29350 0.06300
C 	C 	0.35390 0.94750 0.03480 0.09000
C 	C 	0.44550 0.94490 0.02550 -0.13300
C 	C 	0.50520 0.96900 0.05210 0.07400
C 	C 	0.47560 0.99460 0.08660 -0.13500
C 	C 	0.38000 0.99330 0.09320 0.08200
C 	C 	0.60340 0.96880 0.04160 0.10400
C 	C 	0.72370 0.94510 0.00370 0.08600
C 	C 	0.73450 0.00520 0.05160 0.09800
C 	C 	0.89820 0.88190 0.93460 0.08700
C 	C 	0.86030 0.91370 0.96250 -0.14300
C 	C 	0.76870 0.91180 0.97170 0.06000
C 	C 	0.72230 0.87650 0.94790 -0.14400
C 	C 	0.76560 0.84810 0.92090 0.09700
C 	C 	0.78770 0.11750 0.10550 0.06900
C 	C 	0.73890 0.08060 0.09030 -0.12000
C 	C 	0.78580 0.04320 0.07340 0.05600
C 	C 	0.88060 0.04390 0.07490 -0.13500
C 	C 	0.91940 0.08180 0.09270 0.08200
C 	C 	0.81120 0.24220 0.12130 0.05700
C 	C 	0.74050 0.27010 0.13450 -0.11900
C 	C 	0.70290 0.27200 0.17040 0.05700
C 	C 	0.73890 0.24860 0.19380 -0.11700
C 	C 	0.81420 0.22130 0.17910 0.07500
C 	C 	0.62370 0.30050 0.18440 0.09700
C 	C 	0.53860 0.35510 0.17730 0.10400
C 	C 	0.50470 0.32110 0.22400 0.10500
C 	C 	0.42730 0.44000 0.14320 0.09100
C 	C 	0.44010 0.40930 0.16210 -0.13300
C 	C 	0.51910 0.38560 0.15460 0.07200
C 	C 	0.57390 0.39380 0.12670 -0.14000
C 	C 	0.55470 0.42070 0.10700 0.08300
C 	C 	0.39050 0.27690 0.29830 0.08600
C 	C 	0.44040 0.27870 0.26690 -0.12700
C 	C 	0.44380 0.31620 0.25710 0.06200
C 	C 	0.39340 0.35140 0.27840 -0.10100
C 	C 	0.34670 0.34680 0.31100 0.05400
C 	C 	0.79170 0.77160 0.80110 0.07600
C 	C 	0.73820 0.77500 0.76870 -0.11400
C 	C 	0.73740 0.81190 0.75780 0.06400
C 	C 	0.79130 0.84420 0.77820 -0.11400
C 	C 	0.84550 0.83890 0.80930 0.07300
C 	C 	0.68110 0.81590 0.72350 0.10100
C 	C 	0.56170 0.79810 0.68490 0.09900
C 	C 	0.64900 0.85200 0.67830 0.10400
C 	C 	0.36950 0.74110 0.62050 0.08400
C 	C 	0.44380 0.76710 0.63390 -0.12500
C 	C 	0.47950 0.77040 0.67170 0.05500
C 	C 	0.44090 0.74750 0.69480 -0.11000
C 	C 	0.36850 0.72220 0.68010 0.05500
C 	C 	0.77270 0.92760 0.63510 0.06500
C 	C 	0.75490 0.89830 0.65520 -0.11300
C 	C 	0.66930 0.88360 0.65810 0.05400
C 	C 	0.60320 0.89910 0.63910 -0.10300
C 	C 	0.62010 0.92960 0.61910 0.04800
C 	C 	0.26050 0.58350 0.58690 0.05700
C 	C 	0.30630 0.54680 0.57040 -0.11700
C 	C 	0.40040 0.54800 0.56710 0.06100
C 	C 	0.44010 0.58570 0.57940 -0.13000
C 	C 	0.39140 0.62160 0.59590 0.07900
C 	C 	0.45060 0.50960 0.54730 0.09900
C 	C 	0.46230 0.44670 0.50080 0.08700
C 	C 	0.58700 0.47660 0.53580 0.09400
C 	C 	0.41740 0.35340 0.41170 0.06200
C 	C 	0.46650 0.38480 0.44250 -0.10900
C 	C 	0.41730 0.41380 0.46960 0.05100
C 	C 	0.32340 0.41180 0.46920 -0.12500
C 	C 	0.28220 0.38130 0.43870 0.07900
C 	C 	0.81110 0.50990 0.58410 0.06100
C 	C 	0.71620 0.51000 0.57310 -0.11800
C 	C 	0.68280 0.47630 0.54460 0.06800
C 	C 	0.73920 0.44490 0.52650 -0.13300
C 	C 	0.82980 0.44780 0.53770 0.08300
C 	C 	0.89010 0.95430 0.53970 0.07800
C 	C 	0.97830 0.95200 0.53100 -0.16600
C 	C 	0.04330 0.97830 0.55430 0.08600
C 	C 	0.01030 0.00660 0.58920 -0.06000
C 	C 	0.91930 0.00790 0.59720 0.01200
C 	C 	0.14000 0.97860 0.54380 0.10900
C 	C 	0.25630 0.95260 0.50560 0.09100
C 	C 	0.26930 0.01400 0.55210 0.09900
C 	C 	0.42920 0.89350 0.43320 0.10800
C 	C 	0.39370 0.92170 0.46530 -0.14300
C 	C 	0.29790 0.92020 0.47290 0.04400
C 	C 	0.25010 0.88860 0.44520 -0.11500
C 	C 	0.29340 0.86120 0.41520 0.05500
C 	C 	0.31960 0.12730 0.60700 0.08000
C 	C 	0.27320 0.09010 0.58700 -0.12700
C 	C 	0.31810 0.05390 0.57180 0.06700
C 	C 	0.41210 0.05400 0.57500 -0.12800
C 	C 	0.45300 0.09100 0.59620 0.07200
C 	C 	0.29950 0.21480 0.70070 0.05800
C 	C 	0.22440 0.23960 0.70850 -0.10900
C 	C 	0.20120 0.26600 0.68520 0.04900
C 	C 	0.25810 0.26600 0.65360 -0.12000
C 	C 	0.33460 0.24100 0.64820 0.08200
C 	C 	0.11940 0.29270 0.69310 0.11400
C 	C 	0.99010 0.31080 0.72650 0.05700
C 	C 	0.03800 0.34680 0.68400 0.14400
C 	C 	0.80970 0.33440 0.80590 0.09800
C 	C 	0.86340 0.33750 0.77220 -0.13800
C 	C 	0.92610 0.30650 0.75780 0.07600
C 	C 	0.93220 0.27500 0.77600 -0.15900
C 	C 	0.87700 0.27510 0.80710 0.09900
C 	C 	0.08450 0.42670 0.63000 0.07800
C 	C 	0.09720 0.39690 0.64980 -0.12300
C 	C 	0.02430 0.37850 0.66340 0.09700
C 	C 	0.93890 0.39200 0.65510 -0.15800
C 	C 	0.93210 0.42310 0.63530 0.04300
I 	I 	0.58630 0.33910 0.85571 -0.38500
I 	I 	0.74806 0.23719 0.88806 -0.36900
I 	I 	0.67458 0.64236 0.20970 -0.35900
I 	I 	0.60061 0.70693 0.11302 -0.38600
I 	I 	0.09412 0.95631 0.01768 -0.35500
I 	I 	0.17161 0.05593 0.12678 -0.36100
I 	I 	0.98281 0.18027 0.04949 -0.40300
I 	I 	0.06467 0.17869 0.17026 -0.34300
I 	I 	0.47840 0.56262 0.13259 -0.39700
I 	I 	0.55284 0.46401 0.02081 -0.37900
I 	I 	0.11262 0.34107 0.35544 -0.35300
I 	I 	0.26962 0.23797 0.38498 -0.36500
I 	I 	0.89054 0.73033 0.88434 -0.40200
I 	I 	0.06703 0.82885 0.85800 -0.34900
I 	I 	0.17411 0.69164 0.55526 -0.34900
I 	I 	0.12375 0.67526 0.67367 -0.34900
I 	I 	0.02382 0.55405 0.63449 -0.33200
I 	I 	0.10093 0.45215 0.52805 -0.34700
I 	I 	0.62165 0.96424 0.52732 -0.37800
I 	I 	0.69418 0.05933 0.63961 -0.39000
I 	I 	0.58714 0.85678 0.34561 -0.38500
I 	I 	0.45414 0.75334 0.38501 -0.36000
I 	I 	0.48745 0.13946 0.71112 -0.34400
I 	I 	0.58447 0.21167 0.62477 -0.38300
N 	N 	0.79540 0.35180 0.91240 -0.28300
N 	N 	0.00920 0.44050 0.01350 -0.11000
N 	N 	0.99570 0.50600 0.06640 -0.15900
N 	N 	0.86750 0.47710 0.02630 -0.13400
N 	N 	0.32330 0.48190 0.06880 -0.29200
N 	N 	0.76940 0.61950 0.11340 -0.27300
N 	N 	0.81750 0.71230 0.16530 -0.25700
N 	N 	0.04720 0.82440 0.17150 -0.13300
N 	N 	0.18410 0.84680 0.20590 -0.13500
N 	N 	0.10540 0.78720 0.21620 -0.14500
N 	N 	0.16290 0.93980 0.11390 -0.26100
N 	N 	0.36200 0.81340 0.31580 -0.27700
N 	N 	0.32210 0.97300 0.06750 -0.28100
N 	N 	0.63640 0.93940 0.01200 -0.13800
N 	N 	0.77500 0.97650 0.02350 -0.14400
N 	N 	0.64660 0.00260 0.06380 -0.13200
N 	N 	0.85440 0.84850 0.91230 -0.28900
N 	N 	0.87640 0.11740 0.10630 -0.27700
N 	N 	0.84560 0.21820 0.14370 -0.27600
N 	N 	0.60840 0.32910 0.16450 -0.13800
N 	N 	0.48600 0.35200 0.20670 -0.13500
N 	N 	0.57160 0.29410 0.21340 -0.14000
N 	N 	0.48110 0.44600 0.11490 -0.28100
N 	N 	0.33780 0.30810 0.32000 -0.27400
N 	N 	0.83870 0.80390 0.82080 -0.27000
N 	N 	0.61040 0.79050 0.71400 -0.14100
N 	N 	0.57520 0.82880 0.66700 -0.13500
N 	N 	0.70340 0.84750 0.70850 -0.13500
N 	N 	0.33530 0.71930 0.64200 -0.27200
N 	N 	0.70650 0.94370 0.61630 -0.27000
N 	N 	0.30240 0.62240 0.60130 -0.27500
N 	N 	0.40980 0.47990 0.52050 -0.13900
N 	N 	0.55130 0.44440 0.50620 -0.13500
N 	N 	0.53960 0.51030 0.55650 -0.13100
N 	N 	0.32810 0.35310 0.41240 -0.26900
N 	N 	0.86500 0.47820 0.56740 -0.28800
N 	N 	0.85990 0.98350 0.57320 -0.26700
N 	N 	0.17090 0.94730 0.51420 -0.13400
N 	N 	0.31020 0.98540 0.52300 -0.14000
N 	N 	0.18290 0.01240 0.56400 -0.13200
N 	N 	0.38570 0.86490 0.40880 -0.27500
N 	N 	0.40620 0.12630 0.61270 -0.27400
N 	N 	0.35530 0.21680 0.67050 -0.27100
N 	N 	0.05850 0.28270 0.71750 -0.12100
N 	N 	0.97470 0.34140 0.70840 -0.15000
N 	N 	0.11360 0.32400 0.67620 -0.13300
N 	N 	0.81560 0.30370 0.82030 -0.28700
N 	N 	0.00200 0.43970 0.61950 -0.25700
Zn	Zn	0.23272 0.69395 0.13076 1.16500
Zn	Zn	0.20601 0.32853 0.84901 1.16300
Zn	Zn	0.68580 0.01882 0.91882 1.16500
Zn	Zn	0.44604 0.82516 0.88042 1.16300
Zn	Zn	0.95961 0.50966 0.91602 1.15600
Zn	Zn	0.75978 0.69230 0.63191 1.16400
Zn	Zn	0.41576 0.19891 0.12953 1.16500
Zn	Zn	0.73119 0.32257 0.38048 1.16400
Zn	Zn	0.49467 0.51869 0.41287 1.16600
Zn	Zn	0.22407 0.01048 0.41229 1.16400
Zn	Zn	0.94824 0.18017 0.63746 1.15800
Zn	Zn	0.96500 0.82483 0.34425 1.15400
H 	H 	0.41410 0.66890 0.10000 -0.01600
H 	H 	0.48890 0.62130 0.04700 0.08800
H 	H 	0.25490 0.56140 0.01500 0.09100
H 	H 	0.18110 0.62020 0.06240 0.00300
H 	H 	0.78490 0.46720 0.89350 -0.03100
H 	H 	0.63760 0.46870 0.90800 0.10300
H 	H 	0.67750 0.57690 0.99090 0.08900
H 	H 	0.83510 0.56780 0.97410 -0.03200
H 	H 	0.15850 0.41020 0.90920 -0.01000
H 	H 	0.23350 0.47620 0.94090 0.08200
H 	H 	0.46890 0.42040 0.90190 0.09600
H 	H 	0.39040 0.36020 0.86880 -0.00100
H 	H 	0.31370 0.27140 0.88520 -0.01300
H 	H 	0.43680 0.22700 0.87210 0.08300
H 	H 	0.46710 0.25210 0.76550 0.06300
H 	H 	0.34410 0.29860 0.78170 -0.00200
H 	H 	0.79460 0.06950 0.87330 -0.00800
H 	H 	0.76500 0.11350 0.83380 0.07900
H 	H 	0.49920 0.11290 0.85780 0.08300
H 	H 	0.53020 0.06440 0.89320 -0.01100
H 	H 	0.78950 0.23320 0.67650 -0.00500
H 	H 	0.68380 0.23650 0.72770 0.07000
H 	H 	0.82110 0.13730 0.75180 0.07800
H 	H 	0.91410 0.13830 0.70020 -0.01900
H 	H 	0.81300 0.06990 0.98350 -0.04000
H 	H 	0.96610 0.07350 0.99900 0.12800
H 	H 	0.01500 0.98760 0.89470 0.19200
H 	H 	0.85780 0.99130 0.88140 -0.06000
H 	H 	0.46130 0.11670 0.06950 -0.01200
H 	H 	0.39540 0.06250 0.02410 0.09800
H 	H 	0.15950 0.12650 0.04860 0.09800
H 	H 	0.23170 0.17530 0.09420 -0.02000
H 	H 	0.25650 0.85650 0.88430 -0.00000
H 	H 	0.17500 0.91910 0.90870 0.09700
H 	H 	0.41550 0.98080 0.93590 0.08100
H 	H 	0.48300 0.91770 0.90460 -0.02200
H 	H 	0.33630 0.76010 0.90430 -0.00700
H 	H 	0.21890 0.71250 0.88120 0.08200
H 	H 	0.21430 0.74960 0.78060 0.08700
H 	H 	0.34080 0.79450 0.80470 -0.01600
H 	H 	0.87670 0.54190 0.84920 -0.03600
H 	H 	0.89620 0.59580 0.81990 0.11300
H 	H 	0.12940 0.62100 0.87880 0.11400
H 	H 	0.09380 0.57720 0.91400 -0.03900
H 	H 	0.89250 0.74860 0.69400 -0.00900
H 	H 	0.97260 0.74540 0.74810 0.05400
H 	H 	0.89180 0.62310 0.72940 0.06200
H 	H 	0.81930 0.62890 0.67180 -0.00300
H 	H 	0.29330 0.25410 0.19150 -0.01100
H 	H 	0.20280 0.24840 0.24560 0.08100
H 	H 	0.29200 0.12980 0.22870 0.08700
H 	H 	0.38700 0.13970 0.17790 -0.01400
H 	H 	0.84420 0.26030 0.40480 -0.01600
H 	H 	0.97000 0.21740 0.38260 0.06100
H 	H 	0.96400 0.25080 0.27940 0.05700
H 	H 	0.84070 0.29350 0.30400 -0.00300
H 	H 	0.33280 0.06290 0.36580 -0.01000
H 	H 	0.30320 0.11230 0.33240 0.08200
H 	H 	0.04360 0.11130 0.36060 0.08800
H 	H 	0.07170 0.05920 0.39270 0.00100
H 	H 	0.69670 0.41780 0.41140 -0.01600
H 	H 	0.77490 0.47930 0.43860 0.09200
H 	H 	0.00340 0.41220 0.42330 0.16500
H 	H 	0.92310 0.35240 0.39590 -0.03500
H 	H 	0.94920 0.66660 0.60860 -0.03600
H 	H 	0.03040 0.61500 0.55650 0.13400
H 	H 	0.78870 0.56930 0.51070 0.10700
H 	H 	0.71840 0.61900 0.56300 -0.02100
H 	H 	0.33460 0.46660 0.39610 -0.01400
H 	H 	0.17840 0.46690 0.41430 0.08700
H 	H 	0.21780 0.57880 0.49360 0.08600
H 	H 	0.36930 0.57360 0.47700 -0.01400
H 	H 	0.34880 0.06420 0.47730 -0.00700
H 	H 	0.49770 0.06880 0.49220 0.07700
H 	H 	0.55040 0.97520 0.39280 0.08500
H 	H 	0.39820 0.97290 0.37890 -0.01800
H 	H 	0.99200 0.10470 0.57140 -0.03800
H 	H 	0.93100 0.05780 0.51740 0.09200
H 	H 	0.68670 0.11350 0.55230 0.07600
H 	H 	0.76050 0.16120 0.60210 0.00300
H 	H 	0.78760 0.84680 0.38360 -0.00700
H 	H 	0.70960 0.90940 0.41560 0.08800
H 	H 	0.94640 0.97060 0.43690 0.05400
H 	H 	0.01660 0.90850 0.40080 0.04300
H 	H 	0.81270 0.80390 0.28350 -0.00400
H 	H 	0.68700 0.76140 0.26960 0.06800
H 	H 	0.74490 0.71720 0.36400 0.08200
H 	H 	0.87400 0.75840 0.37310 -0.02700
H 	H 	0.26860 0.64350 0.18260 -0.02600
H 	H 	0.35550 0.63980 0.23940 0.09300
H 	H 	0.47490 0.74700 0.23290 0.08000
H 	H 	0.38370 0.74680 0.18000 -0.01700
H 	H 	0.63660 0.56030 0.37720 -0.01400
H 	H 	0.65660 0.61140 0.34560 0.07900
H 	H 	0.38620 0.62000 0.33700 0.08400
H 	H 	0.37360 0.56630 0.36740 -0.00800
C 	C 	0.37920 0.64800 0.08180 0.10100
C 	C 	0.42580 0.61890 0.05020 -0.13900
C 	C 	0.37810 0.58800 0.02510 0.05900
C 	C 	0.28840 0.58470 0.03040 -0.11800
C 	C 	0.24500 0.61870 0.06110 0.05000
C 	C 	0.42080 0.55630 0.99290 0.08100
C 	C 	0.54190 0.52740 0.95530 0.08600
C 	C 	0.41050 0.49310 0.94480 0.09700
C 	C 	0.76360 0.49080 0.91390 0.11700
C 	C 	0.67490 0.49180 0.92120 -0.17100
C 	C 	0.63930 0.52560 0.94730 0.09600
C 	C 	0.69750 0.55400 0.96950 -0.15100
C 	C 	0.79320 0.54790 0.95900 0.10500
C 	C 	0.22200 0.41260 0.90720 0.06800
C 	C 	0.26760 0.45210 0.92720 -0.12500
C 	C 	0.35520 0.45430 0.92610 0.06600
C 	C 	0.40520 0.41930 0.90360 -0.12400
C 	C 	0.35790 0.38380 0.88450 0.07600
C 	C 	0.34510 0.26740 0.86070 0.07600
C 	C 	0.41740 0.24100 0.85300 -0.12300
C 	C 	0.46160 0.23500 0.81780 0.05500
C 	C 	0.43590 0.25610 0.79000 -0.10300
C 	C 	0.36280 0.28310 0.79960 0.05200
C 	C 	0.54370 0.20650 0.81000 0.09500
C 	C 	0.61930 0.15210 0.82080 0.11600
C 	C 	0.67400 0.18490 0.77750 0.10100
C 	C 	0.73420 0.07690 0.86930 0.05000
C 	C 	0.71610 0.10440 0.84700 -0.10400
C 	C 	0.63330 0.11920 0.84250 0.05400
C 	C 	0.55910 0.10380 0.86020 -0.10900
C 	C 	0.57910 0.07490 0.88120 0.06300
C 	C 	0.79520 0.21390 0.69220 0.06800
C 	C 	0.73090 0.21620 0.72280 -0.11500
C 	C 	0.73990 0.18700 0.74570 0.04200
C 	C 	0.81220 0.15720 0.73690 -0.11000
C 	C 	0.86720 0.15870 0.70650 0.06100
C 	C 	0.85390 0.05250 0.96520 0.16400
C 	C 	0.94550 0.05510 0.97450 -0.28900
C 	C 	0.00520 0.03100 0.94790 0.27200
C 	C 	0.97560 0.00540 0.91340 -0.36400
C 	C 	0.88000 0.00670 0.90680 0.18200
C 	C 	0.10340 0.03120 0.95840 0.05700
C 	C 	0.22370 0.05490 0.99630 0.08900
C 	C 	0.23450 0.99480 0.94840 0.09900
C 	C 	0.39820 0.11810 0.06540 0.09000
C 	C 	0.36030 0.08630 0.03750 -0.14100
C 	C 	0.26870 0.08820 0.02830 0.06600
C 	C 	0.22230 0.12350 0.05210 -0.14500
C 	C 	0.26560 0.15190 0.07910 0.10200
C 	C 	0.28770 0.88250 0.89450 0.07300
C 	C 	0.23890 0.91940 0.90970 -0.12000
C 	C 	0.28580 0.95680 0.92660 0.05900
C 	C 	0.38060 0.95610 0.92510 -0.13300
C 	C 	0.41940 0.91820 0.90730 0.08500
C 	C 	0.31120 0.75780 0.87870 0.06000
C 	C 	0.24050 0.72990 0.86550 -0.11600
C 	C 	0.20290 0.72800 0.82960 0.05900
C 	C 	0.23890 0.75140 0.80620 -0.11500
C 	C 	0.31420 0.77870 0.82090 0.07700
C 	C 	0.12370 0.69950 0.81560 0.10600
C 	C 	0.03860 0.64490 0.82270 0.11900
C 	C 	0.00470 0.67890 0.77600 0.18500
C 	C 	0.92730 0.56000 0.85680 0.12900
C 	C 	0.94010 0.59070 0.83790 -0.22800
C 	C 	0.01910 0.61440 0.84540 0.15800
C 	C 	0.07390 0.60620 0.87330 -0.21200
C 	C 	0.05470 0.57930 0.89300 0.17300
C 	C 	0.89050 0.72310 0.70170 0.06100
C 	C 	0.94040 0.72130 0.73310 -0.09000
C 	C 	0.94380 0.68380 0.74290 -0.01000
C 	C 	0.89340 0.64860 0.72160 -0.06900
C 	C 	0.84670 0.65320 0.68900 0.03200
C 	C 	0.29170 0.22840 0.19890 0.07800
C 	C 	0.23820 0.22500 0.23130 -0.11400
C 	C 	0.23740 0.18810 0.24220 0.06600
C 	C 	0.29130 0.15580 0.22180 -0.11300
C 	C 	0.34550 0.16110 0.19070 0.07400
C 	C 	0.18110 0.18410 0.27650 0.10200
C 	C 	0.06170 0.20190 0.31510 0.14400
C 	C 	0.14900 0.14800 0.32170 0.10700
C 	C 	0.86950 0.25890 0.37950 0.06300
C 	C 	0.94380 0.23290 0.36610 -0.09900
C 	C 	0.97950 0.22960 0.32830 -0.00800
C 	C 	0.94090 0.25250 0.30520 -0.08100
C 	C 	0.86850 0.27780 0.31990 0.03200
C 	C 	0.27270 0.07240 0.36490 0.06900
C 	C 	0.25490 0.10170 0.34480 -0.11200
C 	C 	0.16930 0.11640 0.34190 0.05800
C 	C 	0.10320 0.10090 0.36090 -0.10200
C 	C 	0.12010 0.07040 0.38090 0.05200
C 	C 	0.76050 0.41650 0.41310 0.07700
C 	C 	0.80630 0.45320 0.42960 -0.15700
C 	C 	0.90040 0.45200 0.43290 0.12400
C 	C 	0.94010 0.41430 0.42060 -0.26000
C 	C 	0.89140 0.37840 0.40410 0.13700
C 	C 	0.95060 0.49040 0.45270 0.03800
C 	C 	0.96230 0.55330 0.49920 0.02900
C 	C 	0.08700 0.52340 0.46420 0.09900
C 	C 	0.91740 0.64660 0.58830 0.10100
C 	C 	0.96650 0.61520 0.55750 -0.22300
C 	C 	0.91730 0.58620 0.53040 0.10400
C 	C 	0.82340 0.58820 0.53080 -0.16100
C 	C 	0.78220 0.61870 0.56130 0.09700
C 	C 	0.31110 0.49010 0.41590 0.06100
C 	C 	0.21620 0.49000 0.42690 -0.11500
C 	C 	0.18280 0.52370 0.45540 0.06800
C 	C 	0.23920 0.55510 0.47350 -0.12900
C 	C 	0.32980 0.55220 0.46230 0.08300
C 	C 	0.39010 0.04570 0.46030 0.06100
C 	C 	0.47830 0.04800 0.46900 -0.11000
C 	C 	0.54330 0.02170 0.44570 0.05200
C 	C 	0.51030 0.99340 0.41080 -0.11800
C 	C 	0.41930 0.99210 0.40280 0.06800
C 	C 	0.64000 0.02140 0.45620 0.11200
C 	C 	0.75630 0.04740 0.49440 0.08900
C 	C 	0.76930 0.98600 0.44790 0.10200
C 	C 	0.92920 0.10650 0.56680 0.10500
C 	C 	0.89370 0.07830 0.53470 -0.14500
C 	C 	0.79790 0.07980 0.52710 0.04000
C 	C 	0.75010 0.11140 0.55480 -0.11300
C 	C 	0.79340 0.13880 0.58480 0.05100
C 	C 	0.81960 0.87270 0.39300 0.06400
C 	C 	0.77320 0.90990 0.41300 -0.10800
C 	C 	0.81810 0.94610 0.42820 0.04000
C 	C 	0.91210 0.94600 0.42500 -0.07800
C 	C 	0.95300 0.90900 0.40380 -0.02300
C 	C 	0.79950 0.78520 0.29930 0.05600
C 	C 	0.72440 0.76040 0.29150 -0.10900
C 	C 	0.70120 0.73400 0.31480 0.04600
C 	C 	0.75810 0.73400 0.34640 -0.12400
C 	C 	0.83460 0.75900 0.35180 0.08000
C 	C 	0.61940 0.70730 0.30690 0.10600
C 	C 	0.49010 0.68920 0.27350 0.09500
C 	C 	0.53800 0.65320 0.31600 0.11900
C 	C 	0.30970 0.66560 0.19410 0.09800
C 	C 	0.36340 0.66250 0.22780 -0.13100
C 	C 	0.42610 0.69350 0.24220 0.07000
C 	C 	0.43220 0.72500 0.22400 -0.15000
C 	C 	0.37700 0.72490 0.19290 0.09900
C 	C 	0.58450 0.57330 0.37000 0.05900
C 	C 	0.59720 0.60310 0.35020 -0.10900
C 	C 	0.52430 0.62150 0.33660 0.04900
C 	C 	0.43890 0.60800 0.34490 -0.10900
C 	C 	0.43210 0.57690 0.36470 0.06800
I 	I 	0.08630 0.66090 0.14429 -0.34900
I 	I 	0.24806 0.76281 0.11194 -0.35500
I 	I 	0.17458 0.35764 0.79030 -0.33200
I 	I 	0.10061 0.29307 0.88698 -0.34600
I 	I 	0.59412 0.04369 0.98232 -0.38000
I 	I 	0.67161 0.94407 0.87322 -0.37900
I 	I 	0.48281 0.81973 0.95051 -0.36900
I 	I 	0.56467 0.82131 0.82974 -0.38200
I 	I 	0.97840 0.43738 0.86741 -0.43100
I 	I 	0.05284 0.53599 0.97919 -0.33700
I 	I 	0.61262 0.65893 0.64456 -0.38300
I 	I 	0.76962 0.76203 0.61502 -0.38300
I 	I 	0.39054 0.26967 0.11566 -0.36500
I 	I 	0.56703 0.17115 0.14200 -0.39000
I 	I 	0.67411 0.30836 0.44474 -0.37200
I 	I 	0.62375 0.32474 0.32633 -0.37900
I 	I 	0.52382 0.44595 0.36551 -0.37600
I 	I 	0.60093 0.54785 0.47195 -0.37700
I 	I 	0.12165 0.03576 0.47268 -0.35000
I 	I 	0.19418 0.94067 0.36039 -0.37400
I 	I 	0.08714 0.14322 0.65439 -0.34200
I 	I 	0.95414 0.24666 0.61499 -0.39500
I 	I 	0.98745 0.86054 0.28888 -0.38800
I 	I 	0.08447 0.78833 0.37523 -0.34400
N 	N 	0.29540 0.64820 0.08760 -0.28100
N 	N 	0.50920 0.55950 0.98650 -0.13300
N 	N 	0.49570 0.49400 0.93360 -0.13100
N 	N 	0.36750 0.52290 0.97370 -0.13600
N 	N 	0.82330 0.51810 0.93120 -0.29700
N 	N 	0.26940 0.38050 0.88660 -0.27100
N 	N 	0.31750 0.28770 0.83470 -0.26300
N 	N 	0.54720 0.17560 0.82850 -0.13500
N 	N 	0.68410 0.15320 0.79410 -0.13400
N 	N 	0.60540 0.21280 0.78380 -0.14600
N 	N 	0.66290 0.06020 0.88610 -0.27300
N 	N 	0.86200 0.18660 0.68420 -0.28000
N 	N 	0.82210 0.02700 0.93250 -0.31700
N 	N 	0.13640 0.06060 0.98800 -0.12200
N 	N 	0.27500 0.02350 0.97650 -0.14000
N 	N 	0.14660 0.99740 0.93620 -0.12100
N 	N 	0.35440 0.15150 0.08770 -0.28600
N 	N 	0.37640 0.88260 0.89370 -0.27400
N 	N 	0.34560 0.78180 0.85630 -0.27200
N 	N 	0.10840 0.67090 0.83550 -0.13900
N 	N 	0.98600 0.64800 0.79330 -0.18200
N 	N 	0.07160 0.70590 0.78660 -0.14600
N 	N 	0.98110 0.55400 0.88510 -0.32300
N 	N 	0.83780 0.69190 0.68000 -0.26800
N 	N 	0.33870 0.19610 0.17920 -0.26700
N 	N 	0.11040 0.20950 0.28600 -0.14200
N 	N 	0.07520 0.17120 0.33300 -0.13400
N 	N 	0.20340 0.15250 0.29150 -0.13400
N 	N 	0.83530 0.28070 0.35800 -0.26600
N 	N 	0.20650 0.05630 0.38370 -0.26900
N 	N 	0.80240 0.37760 0.39870 -0.29000
N 	N 	0.90980 0.52010 0.47950 -0.12400
N 	N 	0.05130 0.55560 0.49380 -0.10700
N 	N 	0.03960 0.48970 0.44350 -0.10300
N 	N 	0.82810 0.64690 0.58760 -0.28200
N 	N 	0.36500 0.52180 0.43260 -0.28000
N 	N 	0.35990 0.01650 0.42680 -0.27100
N 	N 	0.67090 0.05270 0.48580 -0.14100
N 	N 	0.81020 0.01460 0.47700 -0.14300
N 	N 	0.68290 0.98760 0.43600 -0.13700
N 	N 	0.88570 0.13510 0.59120 -0.27900
N 	N 	0.90620 0.87370 0.38730 -0.26100
N 	N 	0.85530 0.78320 0.32950 -0.27400
N 	N 	0.55850 0.71730 0.28250 -0.14700
N 	N 	0.47470 0.65860 0.29160 -0.13300
N 	N 	0.61360 0.67600 0.32380 -0.13400
N 	N 	0.31560 0.69630 0.17970 -0.28500
N 	N 	0.50200 0.56030 0.38050 -0.28100
