data_crystal

_cell_length_a 10.84450
_cell_length_b 13.78940
_cell_length_c 17.48390
_cell_angle_alpha 90.00000
_cell_angle_beta  90.00000
_cell_angle_gamma 100.42900

_symmetry_space_group_name_	'P 1'
_symmetry_space_group_name_H-M	'P 1'

loop_
_symmetry_equiv_pos_as_xyz
  x,y,z

loop_
_atom_site_label
_atom_site_type_symbol
_atom_site_fract_x
_atom_site_fract_y
_atom_site_fract_z
_atom_site_charge
Cu	Cu	0.46023 0.74734 0.25204 0.90200
Cu	Cu	0.53977 0.25266 0.74796 0.90200
Cu	Cu	0.03977 0.25266 0.75204 0.90000
Cu	Cu	0.96023 0.74734 0.24796 0.90000
H 	H 	0.87260 0.26750 0.88350 -0.00300
H 	H 	0.65190 0.24030 0.89970 0.00100
H 	H 	0.89840 0.07020 0.07950 -0.02600
H 	H 	0.79080 0.02560 0.85890 -0.01500
H 	H 	0.39840 0.07020 0.42050 -0.03000
H 	H 	0.28910 0.73610 0.44740 0.19000
H 	H 	0.74730 0.49810 0.86100 -0.02600
H 	H 	0.51660 0.19270 0.49190 0.14500
H 	H 	0.17170 0.78620 0.45910 0.19300
H 	H 	0.78910 0.73610 0.05260 0.18800
H 	H 	0.25270 0.50190 0.13900 -0.02600
H 	H 	0.11890 0.93940 0.30210 0.01900
H 	H 	0.82690 0.10000 0.42790 0.15000
H 	H 	0.66320 0.54460 0.57900 0.07600
H 	H 	0.49750 0.68610 0.98170 0.14800
H 	H 	0.64520 0.13950 0.00370 0.06700
H 	H 	0.62740 0.73250 0.38350 -0.00300
H 	H 	0.15190 0.24030 0.60030 -0.00000
H 	H 	0.09180 0.44860 0.41100 -0.03500
H 	H 	0.63460 0.04480 0.09660 0.07600
H 	H 	0.33680 0.45540 0.42100 0.07600
H 	H 	0.14520 0.13950 0.49630 0.07100
H 	H 	0.88110 0.06060 0.69790 0.01900
H 	H 	0.50250 0.31390 0.01830 0.14800
H 	H 	0.83490 0.63260 0.93170 0.15500
H 	H 	0.85100 0.36460 0.98620 0.07300
H 	H 	0.67560 0.44210 0.68060 0.01800
H 	H 	0.67310 0.90000 0.92790 0.14400
H 	H 	0.67170 0.78620 0.04090 0.19100
H 	H 	0.00250 0.31390 0.48170 0.14900
H 	H 	0.29080 0.02560 0.64110 -0.02400
H 	H 	0.90820 0.55140 0.58900 -0.03500
H 	H 	0.32440 0.55790 0.31940 0.01800
H 	H 	0.83680 0.45540 0.07900 0.07500
H 	H 	0.35100 0.36460 0.51380 0.07300
H 	H 	0.36540 0.95520 0.90340 0.07600
H 	H 	0.82830 0.21380 0.54090 0.19300
H 	H 	0.34810 0.75970 0.10030 0.00100
H 	H 	0.14900 0.63540 0.01380 0.07300
H 	H 	0.33490 0.63260 0.56830 0.15500
H 	H 	0.17310 0.90000 0.57210 0.15000
H 	H 	0.38110 0.06060 0.80210 0.01900
H 	H 	0.20920 0.97440 0.14110 -0.01500
H 	H 	0.21090 0.26390 0.94740 0.18800
H 	H 	0.59180 0.44860 0.08900 -0.03500
H 	H 	0.66510 0.36740 0.43170 0.15500
H 	H 	0.71090 0.26390 0.55260 0.19000
H 	H 	0.37260 0.26750 0.61650 -0.00300
H 	H 	0.86540 0.95520 0.59660 0.07500
H 	H 	0.32830 0.21380 0.95910 0.19100
H 	H 	0.75270 0.50190 0.36100 -0.02700
H 	H 	0.64900 0.63540 0.48620 0.07300
H 	H 	0.70920 0.97440 0.35890 -0.02400
H 	H 	0.60160 0.92980 0.57950 -0.03000
H 	H 	0.24730 0.49810 0.63900 -0.02700
H 	H 	0.98340 0.80730 0.99190 0.14200
H 	H 	0.84810 0.75970 0.39970 -0.00000
H 	H 	0.99750 0.68610 0.51830 0.14900
H 	H 	0.40820 0.55140 0.91100 -0.03500
H 	H 	0.85480 0.86050 0.50370 0.07100
H 	H 	0.35480 0.86050 0.99630 0.06700
H 	H 	0.13460 0.04480 0.40340 0.07500
H 	H 	0.16320 0.54460 0.92100 0.07500
H 	H 	0.12740 0.73250 0.11650 -0.00300
H 	H 	0.32690 0.10000 0.07210 0.14400
H 	H 	0.01660 0.19270 0.00810 0.14200
H 	H 	0.48340 0.80730 0.50810 0.14500
H 	H 	0.10160 0.92980 0.92050 -0.02600
H 	H 	0.17560 0.44210 0.81940 0.01800
H 	H 	0.82440 0.55790 0.18060 0.01800
H 	H 	0.61890 0.93940 0.19790 0.01900
H 	H 	0.16510 0.36740 0.06830 0.15500
C 	C 	0.23650 0.75936 0.48564 -0.53000
C 	C 	0.74810 0.61610 0.92818 -0.34000
C 	C 	0.43530 0.07654 0.84323 0.07400
C 	C 	0.57470 0.98724 0.09587 -0.12600
C 	C 	0.54890 0.64800 0.95790 -0.34400
C 	C 	0.99500 0.56700 0.58480 0.22100
C 	C 	0.50500 0.43300 0.08480 0.22000
C 	C 	0.40610 0.81831 0.09969 0.06500
C 	C 	0.96250 0.92550 0.16045 0.38500
C 	C 	0.54100 0.00829 0.38224 -0.23400
C 	C 	0.49500 0.56700 0.91520 0.22000
C 	C 	0.56770 0.67580 0.39117 0.07800
C 	C 	0.42530 0.01276 0.90413 -0.12600
C 	C 	0.56730 0.50926 0.87905 -0.24700
C 	C 	0.40990 0.87849 0.03671 -0.12800
C 	C 	0.18490 0.15981 0.03207 0.31900
C 	C 	0.51500 0.92492 0.57777 0.20500
C 	C 	0.50910 0.41910 0.83643 0.40400
C 	C 	0.39790 0.51159 0.41473 -0.12800
C 	C 	0.49600 0.96631 0.03349 0.04600
C 	C 	0.60210 0.48841 0.58527 -0.12800
C 	C 	0.76350 0.24064 0.51436 -0.53000
C 	C 	0.05630 0.14912 0.03520 -0.32000
C 	C 	0.73650 0.75936 0.01436 -0.52400
C 	C 	0.99500 0.53212 0.03352 0.04700
C 	C 	0.00500 0.43300 0.41520 0.22100
C 	C 	0.80420 0.46464 0.38557 0.21700
C 	C 	0.07470 0.98724 0.40413 -0.12200
C 	C 	0.17600 0.67337 0.53431 0.34100
C 	C 	0.83060 0.98146 0.88528 0.18500
C 	C 	0.06730 0.50926 0.62095 -0.24800
C 	C 	0.10210 0.48841 0.91473 -0.12700
C 	C 	0.24810 0.61610 0.57182 -0.34200
C 	C 	0.04890 0.64800 0.54210 -0.34500
C 	C 	0.06770 0.67580 0.10883 0.08100
C 	C 	0.75990 0.90616 0.92722 -0.31500
C 	C 	0.95110 0.35200 0.45790 -0.34500
C 	C 	0.91840 0.38247 0.95312 -0.13400
C 	C 	0.53750 0.07450 0.66045 0.39500
C 	C 	0.45110 0.35200 0.04210 -0.34400
C 	C 	0.93530 0.07654 0.65677 0.07500
C 	C 	0.41840 0.38247 0.54688 -0.13800
C 	C 	0.33060 0.98146 0.61472 0.20400
C 	C 	0.16940 0.01854 0.11472 0.18500
C 	C 	0.43270 0.49074 0.12095 -0.24700
C 	C 	0.48500 0.07508 0.42223 0.20500
C 	C 	0.32400 0.32663 0.03431 0.33900
C 	C 	0.93270 0.49074 0.37905 -0.24800
C 	C 	0.04100 0.00829 0.11776 -0.22100
C 	C 	0.44370 0.85088 0.53520 -0.33100
C 	C 	0.95900 0.99171 0.88224 -0.22100
C 	C 	0.08160 0.61753 0.04688 -0.13400
C 	C 	0.68490 0.15981 0.46793 0.32900
C 	C 	0.25190 0.38390 0.07182 -0.34000
C 	C 	0.59010 0.12151 0.96329 -0.12800
C 	C 	0.99090 0.58090 0.33643 0.40200
C 	C 	0.89060 0.57389 0.14636 0.07000
C 	C 	0.06470 0.92346 0.34323 0.07500
C 	C 	0.74010 0.09384 0.42722 -0.32800
C 	C 	0.00910 0.41910 0.66357 0.40200
C 	C 	0.01500 0.92492 0.92223 0.19300
C 	C 	0.49090 0.58090 0.16357 0.40400
C 	C 	0.58160 0.61753 0.45312 -0.13800
C 	C 	0.46250 0.92550 0.33955 0.39500
C 	C 	0.30420 0.46464 0.11443 0.21600
C 	C 	0.59390 0.18169 0.90031 0.06500
C 	C 	0.55630 0.14912 0.46480 -0.33100
C 	C 	0.10940 0.42611 0.85364 0.07000
C 	C 	0.66940 0.01854 0.38528 0.20400
C 	C 	0.31510 0.84019 0.53207 0.32900
C 	C 	0.09010 0.12151 0.53671 -0.13500
C 	C 	0.98500 0.07508 0.07777 0.19300
C 	C 	0.49500 0.53212 0.46648 0.05100
C 	C 	0.92530 0.01276 0.59587 -0.12200
C 	C 	0.50400 0.03369 0.96651 0.04600
C 	C 	0.82400 0.32663 0.46569 0.34100
C 	C 	0.69580 0.53536 0.88557 0.21600
C 	C 	0.00400 0.03369 0.53349 0.04300
C 	C 	0.75190 0.38390 0.42818 -0.34200
C 	C 	0.19580 0.53536 0.61443 0.21700
C 	C 	0.03750 0.07450 0.83955 0.38500
C 	C 	0.93230 0.32420 0.89117 0.08100
C 	C 	0.56470 0.92346 0.15677 0.07400
C 	C 	0.00500 0.46788 0.96648 0.04700
C 	C 	0.39060 0.57389 0.35364 0.07100
C 	C 	0.94370 0.85088 0.96480 -0.32000
C 	C 	0.43230 0.32420 0.60883 0.07800
C 	C 	0.25990 0.90616 0.57278 -0.32800
C 	C 	0.26350 0.24064 0.98564 -0.52400
C 	C 	0.81510 0.84019 0.96793 0.31900
C 	C 	0.99600 0.96631 0.46651 0.04300
C 	C 	0.90610 0.81831 0.40031 0.06700
C 	C 	0.60940 0.42611 0.64636 0.07100
C 	C 	0.24010 0.09384 0.07278 -0.31500
C 	C 	0.50500 0.46788 0.53352 0.05100
C 	C 	0.09390 0.18169 0.59969 0.06700
C 	C 	0.90990 0.87849 0.46329 -0.13500
C 	C 	0.89790 0.51159 0.08527 -0.12700
C 	C 	0.45900 0.99171 0.61776 -0.23400
C 	C 	0.67600 0.67337 0.96569 0.33900
N 	N 	0.47415 0.65559 0.34180 -0.21900
N 	N 	0.01874 0.16012 0.65973 -0.22000
N 	N 	0.48126 0.83988 0.15973 -0.21800
N 	N 	0.51874 0.16012 0.84027 -0.21800
N 	N 	0.98126 0.83988 0.34027 -0.22000
N 	N 	0.52585 0.34441 0.65820 -0.21900
N 	N 	0.97415 0.65559 0.15820 -0.22100
N 	N 	0.02585 0.34441 0.84180 -0.22100
O 	O 	0.35168 0.92695 0.32721 -0.31100
O 	O 	0.60410 0.59855 0.17476 -0.32100
O 	O 	0.85168 0.92695 0.17279 -0.30900
O 	O 	0.02030 0.85770 0.18183 -0.41700
O 	O 	0.47970 0.14230 0.68183 -0.42300
O 	O 	0.52030 0.85770 0.31817 -0.42300
O 	O 	0.64832 0.07305 0.67279 -0.31100
O 	O 	0.10410 0.59855 0.32524 -0.32000
O 	O 	0.08540 0.36522 0.68612 -0.42300
O 	O 	0.58540 0.36522 0.81388 -0.42300
O 	O 	0.41460 0.63478 0.18612 -0.42300
O 	O 	0.14832 0.07305 0.82721 -0.30900
O 	O 	0.39590 0.40145 0.82524 -0.32100
O 	O 	0.97970 0.14230 0.81817 -0.41700
O 	O 	0.89590 0.40145 0.67476 -0.32000
O 	O 	0.91460 0.63478 0.31388 -0.42300
