data_crystal

_cell_length_a 15.52390
_cell_length_b 16.06130
_cell_length_c 17.23220
_cell_angle_alpha 90.00000
_cell_angle_beta  90.00000
_cell_angle_gamma 90.00000

_symmetry_space_group_name_	'P 1'
_symmetry_space_group_name_H-M	'P 1'

loop_
_symmetry_equiv_pos_as_xyz
  x,y,z

loop_
_atom_site_label
_atom_site_type_symbol
_atom_site_fract_x
_atom_site_fract_y
_atom_site_fract_z
_atom_site_charge
Ag	Ag	0.74151 0.54672 0.59753 0.45700
Ag	Ag	0.28100 0.79719 0.48171 0.43400
Ag	Ag	0.31157 0.68434 0.81665 0.44600
Ag	Ag	0.69010 0.82417 0.64168 0.46000
N 	N 	0.38570 0.74720 0.57120 -0.18700
N 	N 	0.38940 0.70330 0.70330 -0.19300
C 	C 	0.68680 0.67040 0.62050 -0.43200
C 	C 	0.61050 0.68860 0.62260 0.06000
C 	C 	0.51870 0.70260 0.62830 -0.10700
C 	C 	0.47010 0.73250 0.56560 0.09000
H 	H 	0.49760 0.74240 0.51850 -0.00900
C 	C 	0.34920 0.73200 0.64010 0.11200
H 	H 	0.29040 0.74230 0.64450 -0.05500
C 	C 	0.47390 0.68820 0.69700 0.06900
H 	H 	0.50350 0.66750 0.73980 0.00900
O 	O 	0.93420 0.58290 0.64350 -0.25500
O 	O 	0.86165 0.46480 0.62890 -0.32800
C 	C 	0.92720 0.50770 0.63500 0.12700
C 	C 	0.01150 0.45970 0.63310 0.86700
F 	F 	0.02060 0.42650 0.56040 -0.46400
F 	F 	0.07810 0.50240 0.62580 -0.54600
F 	F 	0.01310 0.39320 0.67600 -0.56300
Ag	Ag	0.75849 0.45328 0.09753 0.45800
Ag	Ag	0.21900 0.20281 0.98171 0.43400
Ag	Ag	0.18843 0.31566 0.31665 0.44700
Ag	Ag	0.80990 0.17583 0.14168 0.46100
N 	N 	0.11430 0.25280 0.07120 -0.18600
N 	N 	0.11060 0.29670 0.20330 -0.19300
C 	C 	0.81320 0.32960 0.12050 -0.43300
C 	C 	0.88950 0.31140 0.12260 0.06300
C 	C 	0.98130 0.29740 0.12830 -0.11500
C 	C 	0.02990 0.26750 0.06560 0.09500
H 	H 	0.00240 0.25760 0.01850 -0.01000
C 	C 	0.15080 0.26800 0.14010 0.11300
H 	H 	0.20960 0.25770 0.14450 -0.05400
C 	C 	0.02610 0.31180 0.19700 0.07700
H 	H 	0.99650 0.33250 0.23980 0.00500
O 	O 	0.56580 0.41710 0.14350 -0.25500
O 	O 	0.63835 0.53520 0.12890 -0.32800
C 	C 	0.57280 0.49230 0.13500 0.12600
C 	C 	0.48850 0.54030 0.13310 0.86900
F 	F 	0.47940 0.57350 0.06040 -0.46400
F 	F 	0.42190 0.49760 0.12580 -0.54600
F 	F 	0.48690 0.60680 0.17600 -0.56200
Ag	Ag	0.25849 0.04672 0.90247 0.45700
Ag	Ag	0.71900 0.29719 0.01829 0.43500
Ag	Ag	0.68843 0.18434 0.68335 0.44700
Ag	Ag	0.30990 0.32417 0.85832 0.46100
N 	N 	0.61430 0.24720 0.92880 -0.18500
N 	N 	0.61060 0.20330 0.79670 -0.19200
C 	C 	0.31320 0.17040 0.87950 -0.43200
C 	C 	0.38950 0.18860 0.87740 0.06100
C 	C 	0.48130 0.20260 0.87170 -0.10600
C 	C 	0.52990 0.23250 0.93440 0.09000
H 	H 	0.50240 0.24240 0.98150 -0.00900
C 	C 	0.65080 0.23200 0.85990 0.11300
H 	H 	0.70960 0.24230 0.85550 -0.05400
C 	C 	0.52610 0.18820 0.80300 0.06900
H 	H 	0.49650 0.16750 0.76020 0.00900
O 	O 	0.06580 0.08290 0.85650 -0.25600
O 	O 	0.13835 0.96480 0.87110 -0.32700
C 	C 	0.07280 0.00770 0.86500 0.12200
C 	C 	0.98850 0.95970 0.86690 0.86900
F 	F 	0.97940 0.92650 0.93960 -0.46300
F 	F 	0.92190 0.00240 0.87420 -0.54400
F 	F 	0.98690 0.89320 0.82400 -0.56200
Ag	Ag	0.24151 0.95328 0.40247 0.45800
Ag	Ag	0.78100 0.70281 0.51829 0.43500
Ag	Ag	0.81157 0.81566 0.18335 0.44600
Ag	Ag	0.19010 0.67583 0.35832 0.46200
N 	N 	0.88570 0.75280 0.42880 -0.18500
N 	N 	0.88940 0.79670 0.29670 -0.19000
C 	C 	0.18680 0.82960 0.37950 -0.43000
C 	C 	0.11050 0.81140 0.37740 0.05800
C 	C 	0.01870 0.79740 0.37170 -0.09800
C 	C 	0.97010 0.76750 0.43440 0.08400
H 	H 	0.99760 0.75760 0.48150 -0.00800
C 	C 	0.84920 0.76800 0.35990 0.11100
H 	H 	0.79040 0.75770 0.35550 -0.05400
C 	C 	0.97390 0.81180 0.30300 0.05800
H 	H 	0.00350 0.83250 0.26020 0.01400
O 	O 	0.43420 0.91710 0.35650 -0.25600
O 	O 	0.36165 0.03520 0.37110 -0.32900
C 	C 	0.42720 0.99230 0.36500 0.12600
C 	C 	0.51150 0.04030 0.36690 0.86900
F 	F 	0.52060 0.07350 0.43960 -0.46400
F 	F 	0.57810 0.99760 0.37420 -0.54600
F 	F 	0.51310 0.10680 0.32400 -0.56200
Ag	Ag	0.25849 0.45328 0.40247 0.45800
Ag	Ag	0.71900 0.20281 0.51829 0.43500
Ag	Ag	0.68843 0.31566 0.18335 0.44700
Ag	Ag	0.30990 0.17583 0.35832 0.46100
N 	N 	0.61430 0.25280 0.42880 -0.18600
N 	N 	0.61060 0.29670 0.29670 -0.19200
C 	C 	0.31320 0.32960 0.37950 -0.43100
C 	C 	0.38950 0.31140 0.37740 0.06100
C 	C 	0.48130 0.29740 0.37170 -0.10700
C 	C 	0.52990 0.26750 0.43440 0.09000
H 	H 	0.50240 0.25760 0.48150 -0.00900
C 	C 	0.65080 0.26800 0.35990 0.11200
H 	H 	0.70960 0.25770 0.35550 -0.05500
C 	C 	0.52610 0.31180 0.30300 0.06900
H 	H 	0.49650 0.33250 0.26020 0.00900
O 	O 	0.06580 0.41710 0.35650 -0.25500
O 	O 	0.13835 0.53520 0.37110 -0.32800
C 	C 	0.07280 0.49230 0.36500 0.12700
C 	C 	0.98850 0.54030 0.36690 0.86700
F 	F 	0.97940 0.57350 0.43960 -0.46400
F 	F 	0.92190 0.49760 0.37420 -0.54600
F 	F 	0.98690 0.60680 0.32400 -0.56300
Ag	Ag	0.24151 0.54672 0.90247 0.45800
Ag	Ag	0.78100 0.79719 0.01829 0.43400
Ag	Ag	0.81157 0.68434 0.68335 0.44700
Ag	Ag	0.19010 0.82417 0.85832 0.46100
N 	N 	0.88570 0.74720 0.92880 -0.18600
N 	N 	0.88940 0.70330 0.79670 -0.19300
C 	C 	0.18680 0.67040 0.87950 -0.43300
C 	C 	0.11050 0.68860 0.87740 0.06300
C 	C 	0.01870 0.70260 0.87170 -0.11500
C 	C 	0.97010 0.73250 0.93440 0.09500
H 	H 	0.99760 0.74240 0.98150 -0.01000
C 	C 	0.84920 0.73200 0.85990 0.11300
H 	H 	0.79040 0.74230 0.85550 -0.05400
C 	C 	0.97390 0.68820 0.80300 0.07700
H 	H 	0.00350 0.66750 0.76020 0.00500
O 	O 	0.43420 0.58290 0.85650 -0.25500
O 	O 	0.36165 0.46480 0.87110 -0.32800
C 	C 	0.42720 0.50770 0.86500 0.12600
C 	C 	0.51150 0.45970 0.86690 0.86900
F 	F 	0.52060 0.42650 0.93960 -0.46400
F 	F 	0.57810 0.50240 0.87420 -0.54600
F 	F 	0.51310 0.39320 0.82400 -0.56200
Ag	Ag	0.74151 0.95328 0.09753 0.45700
Ag	Ag	0.28100 0.70281 0.98171 0.43500
Ag	Ag	0.31157 0.81566 0.31665 0.44700
Ag	Ag	0.69010 0.67583 0.14168 0.46100
N 	N 	0.38570 0.75280 0.07120 -0.18500
N 	N 	0.38940 0.79670 0.20330 -0.19200
C 	C 	0.68680 0.82960 0.12050 -0.43200
C 	C 	0.61050 0.81140 0.12260 0.06100
C 	C 	0.51870 0.79740 0.12830 -0.10600
C 	C 	0.47010 0.76750 0.06560 0.09000
H 	H 	0.49760 0.75760 0.01850 -0.00900
C 	C 	0.34920 0.76800 0.14010 0.11300
H 	H 	0.29040 0.75770 0.14450 -0.05400
C 	C 	0.47390 0.81180 0.19700 0.06900
H 	H 	0.50350 0.83250 0.23980 0.00900
O 	O 	0.93420 0.91710 0.14350 -0.25600
O 	O 	0.86165 0.03520 0.12890 -0.32700
C 	C 	0.92720 0.99230 0.13500 0.12200
C 	C 	0.01150 0.04030 0.13310 0.86900
F 	F 	0.02060 0.07350 0.06040 -0.46300
F 	F 	0.07810 0.99760 0.12580 -0.54400
F 	F 	0.01310 0.10680 0.17600 -0.56200
Ag	Ag	0.75849 0.04672 0.59753 0.45800
Ag	Ag	0.21900 0.29719 0.48171 0.43500
Ag	Ag	0.18843 0.18434 0.81665 0.44600
Ag	Ag	0.80990 0.32417 0.64168 0.46200
N 	N 	0.11430 0.24720 0.57120 -0.18500
N 	N 	0.11060 0.20330 0.70330 -0.19000
C 	C 	0.81320 0.17040 0.62050 -0.43000
C 	C 	0.88950 0.18860 0.62260 0.05800
C 	C 	0.98130 0.20260 0.62830 -0.09800
C 	C 	0.02990 0.23250 0.56560 0.08400
H 	H 	0.00240 0.24240 0.51850 -0.00800
C 	C 	0.15080 0.23200 0.64010 0.11100
H 	H 	0.20960 0.24230 0.64450 -0.05400
C 	C 	0.02610 0.18820 0.69700 0.05800
H 	H 	0.99650 0.16750 0.73980 0.01400
O 	O 	0.56580 0.08290 0.64350 -0.25600
O 	O 	0.63835 0.96480 0.62890 -0.32900
C 	C 	0.57280 0.00770 0.63500 0.12600
C 	C 	0.48850 0.95970 0.63310 0.86900
F 	F 	0.47940 0.92650 0.56040 -0.46400
F 	F 	0.42190 0.00240 0.62580 -0.54600
F 	F 	0.48690 0.89320 0.67600 -0.56200
