data_crystal

_cell_length_a 11.33790
_cell_length_b 7.16770
_cell_length_c 6.60800
_cell_angle_alpha 90.00000
_cell_angle_beta  109.69000
_cell_angle_gamma 90.00000

_symmetry_space_group_name_	'P 1'
_symmetry_space_group_name_H-M	'P 1'

loop_
_symmetry_equiv_pos_as_xyz
  x,y,z

loop_
_atom_site_label
_atom_site_type_symbol
_atom_site_fract_x
_atom_site_fract_y
_atom_site_fract_z
_atom_site_charge
O 	O 	0.17210 0.68370 0.11620 -0.42400
O 	O 	0.00760 0.63310 0.33750 -0.40800
O 	O 	0.34650 0.82750 0.11880 -0.44100
C 	C 	0.23610 0.78640 0.03490 0.23800
H 	H 	0.19490 0.83490 0.89880 -0.00600
O 	O 	0.67210 0.18370 0.11620 -0.32100
O 	O 	0.50760 0.13310 0.33750 -0.43400
O 	O 	0.84650 0.32750 0.11880 -0.29900
C 	C 	0.73610 0.28640 0.03490 0.20500
H 	H 	0.69490 0.33490 0.89880 0.06700
O 	O 	0.82790 0.68370 0.88380 -0.40100
O 	O 	0.99240 0.63310 0.66250 -0.14500
O 	O 	0.65350 0.82750 0.88120 -0.49100
C 	C 	0.76390 0.78640 0.96510 0.81300
H 	H 	0.80510 0.83490 0.10120 -0.30800
O 	O 	0.32790 0.18370 0.88380 -0.40900
O 	O 	0.49240 0.13310 0.66250 -0.39000
O 	O 	0.15350 0.32750 0.88120 -0.48000
C 	C 	0.26390 0.28640 0.96510 0.82600
H 	H 	0.30510 0.33490 0.10120 -0.31100
Tb	Tb	-0.00000 0.48740 -0.00000 1.21600
Tb	Tb	0.50000 0.98740 -0.00000 1.29600
C 	C 	-0.00000 0.55300 0.50000 0.21600
H 	H 	0.00000 0.42370 0.50000 -0.07300
C 	C 	0.50000 0.05300 0.50000 0.74700
H 	H 	0.50000 0.92370 0.50000 -0.28300
