data_crystal

_cell_length_a 10.31420
_cell_length_b 10.31420
_cell_length_c 11.41800
_cell_angle_alpha 84.99450
_cell_angle_beta  84.99450
_cell_angle_gamma 65.65600

_symmetry_space_group_name_	'P 1'
_symmetry_space_group_name_H-M	'P 1'

loop_
_symmetry_equiv_pos_as_xyz
  x,y,z

loop_
_atom_site_label
_atom_site_type_symbol
_atom_site_fract_x
_atom_site_fract_y
_atom_site_fract_z
_atom_site_charge
Mn	Mn	0.54089 0.63671 0.48511 1.31500
Mn	Mn	0.36329 0.45911 0.01489 1.31500
Mn	Mn	0.45911 0.36329 0.51489 1.31500
Mn	Mn	0.63671 0.54089 0.98511 1.31500
Mn	Mn	0.62974 0.37026 0.75000 1.30800
Mn	Mn	0.37026 0.62974 0.25000 1.30800
H 	H 	0.62100 0.29900 0.96100 0.54400
H 	H 	0.64030 0.90430 0.50800 0.04100
H 	H 	0.91240 0.53240 0.62500 0.03800
H 	H 	0.97040 0.63040 0.78700 0.07200
H 	H 	0.85220 0.88620 0.80000 0.03500
H 	H 	0.20800 0.55400 0.69000 -0.11100
H 	H 	0.70100 0.37900 0.53900 0.54400
H 	H 	0.09570 0.35970 0.99200 0.04300
H 	H 	0.46760 0.08760 0.87500 0.03800
H 	H 	0.36960 0.02960 0.71300 0.07200
H 	H 	0.11380 0.14780 0.70000 0.03500
H 	H 	0.44600 0.79200 0.81000 -0.11100
H 	H 	0.37900 0.70100 0.03900 0.54400
H 	H 	0.35970 0.09570 0.49200 0.04100
H 	H 	0.08760 0.46760 0.37500 0.03800
H 	H 	0.02960 0.36960 0.21300 0.07200
H 	H 	0.14780 0.11380 0.20000 0.03500
H 	H 	0.79200 0.44600 0.31000 -0.11100
H 	H 	0.29900 0.62100 0.46100 0.54400
H 	H 	0.90430 0.64030 0.00800 0.04300
H 	H 	0.53240 0.91240 0.12500 0.03800
H 	H 	0.63040 0.97040 0.28700 0.07200
H 	H 	0.88620 0.85220 0.30000 0.03500
H 	H 	0.55400 0.20800 0.19000 -0.11100
C 	C 	0.65964 0.08184 0.65790 0.37400
C 	C 	0.73564 0.92104 0.65650 -0.11400
C 	C 	0.70798 0.85358 0.56820 0.04800
C 	C 	0.87150 0.63050 0.63970 0.02900
C 	C 	0.90000 0.69340 0.72910 -0.08400
C 	C 	0.83250 0.83870 0.73850 0.03900
C 	C 	0.28770 0.50150 0.74540 0.47000
C 	C 	0.91816 0.34036 0.84210 0.37200
C 	C 	0.07896 0.26436 0.84350 -0.11200
C 	C 	0.14642 0.29202 0.93180 0.04700
C 	C 	0.36950 0.12850 0.86030 0.02800
C 	C 	0.30660 0.10000 0.77090 -0.08300
C 	C 	0.16130 0.16750 0.76150 0.03800
C 	C 	0.49850 0.71230 0.75460 0.47000
C 	C 	0.34036 0.91816 0.34210 0.37400
C 	C 	0.26436 0.07896 0.34350 -0.11400
C 	C 	0.29202 0.14642 0.43180 0.04800
C 	C 	0.12850 0.36950 0.36030 0.02900
C 	C 	0.10000 0.30660 0.27090 -0.08400
C 	C 	0.16750 0.16130 0.26150 0.03900
C 	C 	0.71230 0.49850 0.25460 0.47000
C 	C 	0.08184 0.65964 0.15790 0.37200
C 	C 	0.92104 0.73564 0.15650 -0.11200
C 	C 	0.85358 0.70798 0.06820 0.04700
C 	C 	0.63050 0.87150 0.13970 0.02800
C 	C 	0.69340 0.90000 0.22910 -0.08300
C 	C 	0.83870 0.83250 0.23850 0.03800
C 	C 	0.50150 0.28770 0.24540 0.47000
N 	N 	0.77496 0.71096 0.56120 -0.07200
N 	N 	0.28904 0.22504 0.93880 -0.07200
N 	N 	0.22504 0.28904 0.43880 -0.07200
N 	N 	0.71096 0.77496 0.06120 -0.07200
O 	O 	0.74678 0.64818 0.47510 -0.28600
O 	O 	0.57182 0.14222 0.58004 -0.42700
O 	O 	0.68967 0.14187 0.73638 -0.44000
O 	O 	0.25695 0.53755 0.84929 -0.45500
O 	O 	0.58077 0.36937 0.93965 -1.09100
O 	O 	0.40580 0.42290 0.70331 -0.57800
O 	O 	0.35182 0.25322 0.02490 -0.28600
O 	O 	0.85778 0.42818 0.91996 -0.42700
O 	O 	0.85813 0.31033 0.76362 -0.44000
O 	O 	0.46245 0.74305 0.65071 -0.45600
O 	O 	0.63063 0.41923 0.56035 -1.09200
O 	O 	0.57710 0.59420 0.79669 -0.57800
O 	O 	0.25322 0.35182 0.52490 -0.28600
O 	O 	0.42818 0.85778 0.41996 -0.42700
O 	O 	0.31033 0.85813 0.26362 -0.44000
O 	O 	0.74305 0.46245 0.15071 -0.45500
O 	O 	0.41923 0.63063 0.06035 -1.09100
O 	O 	0.59420 0.57710 0.29669 -0.57800
O 	O 	0.64818 0.74678 0.97510 -0.28600
O 	O 	0.14222 0.57182 0.08004 -0.42700
O 	O 	0.14187 0.68967 0.23638 -0.44000
O 	O 	0.53755 0.25695 0.34929 -0.45600
O 	O 	0.36937 0.58077 0.43965 -1.09200
O 	O 	0.42290 0.40580 0.20331 -0.57800
