data_crystal

_cell_length_a 9.40400
_cell_length_b 9.95700
_cell_length_c 11.45900
_cell_angle_alpha 93.38100
_cell_angle_beta  97.71600
_cell_angle_gamma 110.24200

_symmetry_space_group_name_	'P 1'
_symmetry_space_group_name_H-M	'P 1'

loop_
_symmetry_equiv_pos_as_xyz
  x,y,z

loop_
_atom_site_label
_atom_site_type_symbol
_atom_site_fract_x
_atom_site_fract_y
_atom_site_fract_z
_atom_site_charge
La	La	0.78447 0.54726 0.48193 1.60800
La	La	0.21553 0.45274 0.51807 1.60800
H 	H 	0.58270 0.13340 0.33340 0.09200
H 	H 	0.30790 0.71730 0.27870 0.06700
H 	H 	0.18560 0.00410 0.46570 0.04800
H 	H 	0.64560 0.71860 0.11840 0.14700
H 	H 	0.55960 0.60240 0.92410 -0.00800
H 	H 	0.23970 0.78480 0.88170 -0.00700
H 	H 	0.33350 0.90960 0.07210 0.13300
H 	H 	0.41730 0.86660 0.66660 0.09200
H 	H 	0.69210 0.28270 0.72130 0.06700
H 	H 	0.81440 0.99590 0.53430 0.04800
H 	H 	0.35440 0.28140 0.88160 0.14700
H 	H 	0.44040 0.39760 0.07590 -0.00800
H 	H 	0.76030 0.21520 0.11830 -0.00700
H 	H 	0.66650 0.09040 0.92790 0.13300
C 	C 	0.42830 0.24320 0.46880 0.37500
C 	C 	0.39020 0.09240 0.40940 -0.06100
C 	C 	0.49200 0.06140 0.34310 -0.12100
C 	C 	0.45530 0.92230 0.29260 0.18700
C 	C 	0.32690 0.81140 0.31000 -0.12100
C 	C 	0.22380 0.84330 0.37680 -0.06200
C 	C 	0.08040 0.72870 0.39620 0.33000
C 	C 	0.25480 0.98270 0.42400 -0.00800
C 	C 	0.49560 0.82220 0.11230 0.28300
C 	C 	0.56460 0.73200 0.07070 -0.26600
C 	C 	0.51060 0.66000 0.95440 0.13800
C 	C 	0.38610 0.67460 0.88570 -0.18400
C 	C 	0.32220 0.58990 0.76630 0.34400
C 	C 	0.32050 0.77070 0.92900 0.13700
C 	C 	0.37630 0.84560 0.04350 -0.26800
C 	C 	0.57170 0.75680 0.53120 0.37500
C 	C 	0.60980 0.90760 0.59060 -0.06100
C 	C 	0.50800 0.93860 0.65690 -0.12100
C 	C 	0.54470 0.07770 0.70740 0.18700
C 	C 	0.67310 0.18860 0.69000 -0.12100
C 	C 	0.77620 0.15670 0.62320 -0.06200
C 	C 	0.91960 0.27130 0.60380 0.33000
C 	C 	0.74520 0.01730 0.57600 -0.00800
C 	C 	0.50440 0.17780 0.88770 0.28300
C 	C 	0.43540 0.26800 0.92930 -0.26600
C 	C 	0.48940 0.34000 0.04560 0.13800
C 	C 	0.61390 0.32540 0.11430 -0.18400
C 	C 	0.67780 0.41010 0.23370 0.34400
C 	C 	0.67950 0.22930 0.07100 0.13700
C 	C 	0.62370 0.15440 0.95650 -0.26800
O 	O 	0.55640 0.33560 0.46570 -0.45700
O 	O 	0.32440 0.26610 0.51850 -0.43500
O 	O 	0.95930 0.75480 0.38430 -0.37700
O 	O 	0.08360 0.60760 0.42430 -0.48700
O 	O 	0.55850 0.89550 0.22560 -0.27400
O 	O 	0.21210 0.61010 0.70240 -0.38900
O 	O 	0.37880 0.49950 0.73210 -0.36400
O 	O 	0.44360 0.66440 0.53430 -0.45700
O 	O 	0.67560 0.73390 0.48150 -0.43500
O 	O 	0.04070 0.24520 0.61570 -0.37700
O 	O 	0.91640 0.39240 0.57570 -0.48700
O 	O 	0.44150 0.10450 0.77440 -0.27400
O 	O 	0.78790 0.38990 0.29760 -0.38900
O 	O 	0.62120 0.50050 0.26790 -0.36400
