data_crystal

_cell_length_a 15.55000
_cell_length_b 24.92100
_cell_length_c 25.28200
_cell_angle_alpha 90.00000
_cell_angle_beta  90.00500
_cell_angle_gamma 90.00000

_symmetry_space_group_name_	'P 1'
_symmetry_space_group_name_H-M	'P 1'

loop_
_symmetry_equiv_pos_as_xyz
  x,y,z

loop_
_atom_site_label
_atom_site_type_symbol
_atom_site_fract_x
_atom_site_fract_y
_atom_site_fract_z
_atom_site_charge
Cd	Cd	0.06843 0.94742 0.08414 1.21300
Cd	Cd	0.15318 0.00752 0.95733 1.21400
Cd	Cd	0.93157 0.44742 0.41586 1.21400
Cd	Cd	0.84682 0.50752 0.54267 1.21500
Cd	Cd	0.93157 0.05258 0.91586 1.21300
Cd	Cd	0.84682 0.99248 0.04267 1.21400
Cd	Cd	0.06843 0.55258 0.58414 1.21400
Cd	Cd	0.15318 0.49248 0.45733 1.21500
H 	H 	0.19850 0.89430 0.91120 0.04800
H 	H 	0.28770 0.74200 0.83540 0.04000
H 	H 	0.37710 0.71250 0.82320 0.05100
H 	H 	0.35690 0.65600 0.89850 0.01800
H 	H 	0.26820 0.68580 0.91140 0.01800
H 	H 	0.24020 0.60280 0.86880 0.12700
H 	H 	0.20730 0.65090 0.83200 0.12900
H 	H 	0.29610 0.62130 0.81890 0.13000
H 	H 	0.26550 0.80690 0.03940 0.05600
H 	H 	0.39570 0.71220 0.97550 0.09300
H 	H 	0.35880 0.72970 0.03220 0.06500
H 	H 	0.42450 0.81850 0.06910 0.06300
H 	H 	0.55350 0.86200 0.08870 0.00700
H 	H 	0.67270 0.84680 0.03550 0.08400
H 	H 	0.63020 0.66960 0.99090 0.03900
H 	H 	0.53180 0.65740 0.00580 0.03400
H 	H 	0.51220 0.61770 0.92130 0.00900
H 	H 	0.61170 0.62780 0.90860 0.01000
H 	H 	0.54450 0.55510 0.98420 0.12600
H 	H 	0.60330 0.54070 0.93420 0.12900
H 	H 	0.64410 0.57130 0.98390 0.13600
H 	H 	0.69120 0.74900 0.93150 0.10000
H 	H 	0.75100 0.77810 0.97450 0.08600
H 	H 	0.78940 0.87320 0.96210 0.06300
H 	H 	0.71610 0.95150 0.83070 0.05700
H 	H 	0.66670 0.77080 0.79070 0.02900
H 	H 	0.69490 0.73570 0.84100 0.02700
H 	H 	0.52560 0.72800 0.79420 0.05400
H 	H 	0.56080 0.68990 0.84060 0.04700
H 	H 	0.66190 0.65090 0.78400 0.12000
H 	H 	0.57210 0.64920 0.75310 0.12000
H 	H 	0.64200 0.69400 0.73860 0.12300
H 	H 	0.63490 0.90580 0.76210 0.07600
H 	H 	0.60190 0.84560 0.77200 0.09800
H 	H 	0.55710 0.97860 0.81770 0.06600
H 	H 	0.42610 0.01100 0.84810 0.00700
H 	H 	0.31150 0.95010 0.86300 0.07300
H 	H 	0.48630 0.81410 0.70500 0.08600
H 	H 	0.42110 0.86210 0.71630 0.08600
H 	H 	0.37570 0.75910 0.71810 -0.03800
H 	H 	0.31630 0.81150 0.71640 -0.04100
H 	H 	0.42090 0.81740 0.63150 0.17900
H 	H 	0.38200 0.75800 0.63240 0.18600
H 	H 	0.31900 0.80870 0.63060 0.18800
H 	H 	0.30150 0.81550 0.81560 0.09800
H 	H 	0.23990 0.86640 0.82360 0.08400
H 	H 	0.06960 0.02920 0.18100 0.04800
H 	H 	0.98680 0.02850 0.42270 0.05600
H 	H 	0.94190 0.99760 0.37420 0.03800
H 	H 	0.12040 0.99250 0.40360 0.02600
H 	H 	0.09120 0.97450 0.34570 0.01900
H 	H 	0.00360 0.90530 0.38590 0.12600
H 	H 	0.10420 0.89700 0.39620 0.13100
H 	H 	0.04440 0.92120 0.44190 0.13500
H 	H 	0.82030 0.04830 0.22390 0.05700
H 	H 	0.78050 0.07200 0.31230 0.07300
H 	H 	0.84560 0.05580 0.35870 0.09200
H 	H 	0.83730 0.16220 0.26410 0.07000
H 	H 	0.86450 0.25280 0.28040 0.00800
H 	H 	0.90230 0.28070 0.36440 0.06600
H 	H 	0.81370 0.14030 0.49590 0.02700
H 	H 	0.75370 0.14040 0.44460 0.02300
H 	H 	0.76090 0.04040 0.44900 0.02100
H 	H 	0.79710 0.04890 0.50820 0.02300
H 	H 	0.64240 0.04470 0.51020 0.11600
H 	H 	0.67370 0.10280 0.52900 0.12200
H 	H 	0.63780 0.09450 0.47030 0.11700
H 	H 	0.93360 0.19410 0.47730 0.09400
H 	H 	0.89180 0.25220 0.46820 0.08500
H 	H 	0.98420 0.32690 0.45630 0.05200
H 	H 	0.22940 0.31030 0.40440 0.05400
H 	H 	0.04510 0.16250 0.51120 0.04000
H 	H 	0.04650 0.10300 0.48670 0.05100
H 	H 	0.20160 0.10700 0.48320 0.02600
H 	H 	0.19840 0.16530 0.51030 0.01800
H 	H 	0.13210 0.06980 0.56000 0.12900
H 	H 	0.22160 0.09710 0.57610 0.12900
H 	H 	0.13300 0.12790 0.58710 0.12700
H 	H 	0.25190 0.17250 0.41640 0.09600
H 	H 	0.29400 0.22460 0.38970 0.07600
H 	H 	0.19900 0.25770 0.30470 0.06700
H 	H 	0.15150 0.22650 0.22350 0.00800
H 	H 	0.12820 0.13660 0.20880 0.08000
H 	H 	0.31880 0.06090 0.31930 0.03100
H 	H 	0.35620 0.10110 0.36350 0.03100
H 	H 	0.28130 0.99790 0.38830 0.01900
H 	H 	0.32180 0.03750 0.43140 0.01500
H 	H 	0.46030 0.02260 0.40000 0.12100
H 	H 	0.41750 0.96440 0.40510 0.12400
H 	H 	0.42510 0.99260 0.34840 0.12700
H 	H 	0.18380 0.03830 0.24200 0.08100
H 	H 	0.16310 0.03100 0.30370 0.09700
H 	H 	0.80150 0.39430 0.58880 0.04400
H 	H 	0.71230 0.24200 0.66460 0.03900
H 	H 	0.62290 0.21250 0.67680 0.05000
H 	H 	0.64310 0.15600 0.60150 0.01700
H 	H 	0.73180 0.18580 0.58860 0.01800
H 	H 	0.75980 0.10280 0.63120 0.12700
H 	H 	0.79270 0.15090 0.66800 0.12900
H 	H 	0.70390 0.12130 0.68110 0.13000
H 	H 	0.73450 0.30690 0.46060 0.05300
H 	H 	0.60430 0.21220 0.52450 0.09400
H 	H 	0.64120 0.22970 0.46780 0.06700
H 	H 	0.57550 0.31850 0.43090 0.06400
H 	H 	0.44650 0.36200 0.41130 0.00700
H 	H 	0.32730 0.34680 0.46450 0.08400
H 	H 	0.36980 0.16960 0.50910 0.03900
H 	H 	0.46820 0.15740 0.49420 0.03500
H 	H 	0.48780 0.11770 0.57870 0.00900
H 	H 	0.38830 0.12780 0.59140 0.00900
H 	H 	0.45550 0.05510 0.51580 0.12700
H 	H 	0.39670 0.04070 0.56580 0.12900
H 	H 	0.35590 0.07130 0.51610 0.13600
H 	H 	0.30880 0.24900 0.56850 0.10000
H 	H 	0.24900 0.27810 0.52550 0.08600
H 	H 	0.21060 0.37320 0.53790 0.06300
H 	H 	0.28390 0.45150 0.66930 0.05600
H 	H 	0.33330 0.27080 0.70930 0.02900
H 	H 	0.30510 0.23570 0.65900 0.02700
H 	H 	0.47440 0.22800 0.70580 0.05400
H 	H 	0.43920 0.18990 0.65940 0.04700
H 	H 	0.33810 0.15090 0.71600 0.12000
H 	H 	0.42790 0.14920 0.74690 0.12000
H 	H 	0.35800 0.19400 0.76140 0.12300
H 	H 	0.36510 0.40580 0.73790 0.07500
H 	H 	0.39810 0.34560 0.72800 0.09700
H 	H 	0.44290 0.47860 0.68230 0.06400
H 	H 	0.57390 0.51100 0.65190 0.01000
H 	H 	0.68850 0.45010 0.63700 0.07100
H 	H 	0.51370 0.31410 0.79500 0.08600
H 	H 	0.57890 0.36210 0.78370 0.08600
H 	H 	0.62430 0.25910 0.78190 -0.03800
H 	H 	0.68370 0.31150 0.78360 -0.04100
H 	H 	0.57910 0.31740 0.86850 0.17900
H 	H 	0.61800 0.25800 0.86760 0.18600
H 	H 	0.68100 0.30870 0.86940 0.18700
H 	H 	0.69850 0.31550 0.68440 0.09700
H 	H 	0.76010 0.36640 0.67640 0.08300
H 	H 	0.93040 0.52920 0.31900 0.04800
H 	H 	0.01320 0.52850 0.07730 0.05800
H 	H 	0.05810 0.49760 0.12580 0.04100
H 	H 	0.87960 0.49250 0.09640 0.02400
H 	H 	0.90880 0.47450 0.15430 0.01700
H 	H 	0.99640 0.40530 0.11410 0.12800
H 	H 	0.89580 0.39700 0.10380 0.13300
H 	H 	0.95560 0.42120 0.05810 0.13700
H 	H 	0.17970 0.54830 0.27610 0.05600
H 	H 	0.21950 0.57200 0.18770 0.07300
H 	H 	0.15440 0.55580 0.14130 0.09200
H 	H 	0.16270 0.66220 0.23590 0.07000
H 	H 	0.13550 0.75280 0.21960 0.00800
H 	H 	0.09770 0.78070 0.13560 0.06600
H 	H 	0.18630 0.64030 0.00410 0.02700
H 	H 	0.24630 0.64040 0.05540 0.02300
H 	H 	0.23910 0.54040 0.05100 0.02100
H 	H 	0.20290 0.54890 0.99180 0.02300
H 	H 	0.35760 0.54470 0.98980 0.11800
H 	H 	0.32630 0.60280 0.97100 0.12400
H 	H 	0.36220 0.59450 0.02970 0.11800
H 	H 	0.06640 0.69410 0.02270 0.09300
H 	H 	0.10820 0.75220 0.03180 0.08400
H 	H 	0.01580 0.82690 0.04370 0.05000
H 	H 	0.77060 0.81030 0.09560 0.05400
H 	H 	0.95490 0.66250 0.98880 0.04000
H 	H 	0.95350 0.60300 0.01330 0.05100
H 	H 	0.79840 0.60700 0.01680 0.02600
H 	H 	0.80160 0.66530 0.98970 0.01900
H 	H 	0.86790 0.56980 0.94000 0.12800
H 	H 	0.77840 0.59710 0.92390 0.12800
H 	H 	0.86700 0.62790 0.91290 0.12700
H 	H 	0.74810 0.67250 0.08360 0.09600
H 	H 	0.70600 0.72460 0.11030 0.07600
H 	H 	0.80100 0.75770 0.19530 0.06700
H 	H 	0.84850 0.72650 0.27650 0.00800
H 	H 	0.87180 0.63660 0.29120 0.08000
H 	H 	0.68120 0.56090 0.18070 0.03100
H 	H 	0.64380 0.60110 0.13650 0.03100
H 	H 	0.71870 0.49790 0.11170 0.02000
H 	H 	0.67820 0.53750 0.06860 0.01600
H 	H 	0.53970 0.52260 0.10000 0.11900
H 	H 	0.58250 0.46440 0.09490 0.12200
H 	H 	0.57490 0.49260 0.15160 0.12600
H 	H 	0.81620 0.53830 0.25800 0.08100
H 	H 	0.83690 0.53100 0.19630 0.09700
H 	H 	0.80150 0.10570 0.08880 0.04700
H 	H 	0.71230 0.25800 0.16460 0.03900
H 	H 	0.62290 0.28750 0.17680 0.05000
H 	H 	0.64310 0.34400 0.10150 0.01700
H 	H 	0.73180 0.31420 0.08860 0.01800
H 	H 	0.75980 0.39720 0.13120 0.12700
H 	H 	0.79270 0.34910 0.16800 0.12900
H 	H 	0.70390 0.37870 0.18110 0.13000
H 	H 	0.73450 0.19310 0.96060 0.05600
H 	H 	0.60430 0.28780 0.02450 0.09300
H 	H 	0.64120 0.27030 0.96780 0.06500
H 	H 	0.57550 0.18150 0.93090 0.06300
H 	H 	0.44650 0.13800 0.91130 0.00700
H 	H 	0.32730 0.15320 0.96450 0.08400
H 	H 	0.36980 0.33040 0.00910 0.03900
H 	H 	0.46820 0.34260 0.99420 0.03400
H 	H 	0.48780 0.38230 0.07870 0.00900
H 	H 	0.38830 0.37220 0.09140 0.01000
H 	H 	0.45550 0.44490 0.01580 0.12600
H 	H 	0.39670 0.45930 0.06580 0.12900
H 	H 	0.35590 0.42870 0.01610 0.13600
H 	H 	0.30880 0.25100 0.06850 0.10000
H 	H 	0.24900 0.22190 0.02550 0.08600
H 	H 	0.21060 0.12680 0.03790 0.06300
H 	H 	0.28390 0.04850 0.16930 0.05700
H 	H 	0.33330 0.22920 0.20930 0.02900
H 	H 	0.30510 0.26430 0.15900 0.02700
H 	H 	0.47440 0.27200 0.20580 0.05400
H 	H 	0.43920 0.31010 0.15940 0.04700
H 	H 	0.33810 0.34910 0.21600 0.12000
H 	H 	0.42790 0.35080 0.24690 0.12000
H 	H 	0.35800 0.30600 0.26140 0.12300
H 	H 	0.36510 0.09420 0.23790 0.07600
H 	H 	0.39810 0.15440 0.22800 0.09800
H 	H 	0.44290 0.02140 0.18230 0.06600
H 	H 	0.57390 0.98900 0.15190 0.00700
H 	H 	0.68850 0.04990 0.13700 0.07300
H 	H 	0.51370 0.18590 0.29500 0.08600
H 	H 	0.57890 0.13790 0.28370 0.08600
H 	H 	0.62430 0.24090 0.28190 -0.03800
H 	H 	0.68370 0.18850 0.28360 -0.04100
H 	H 	0.57910 0.18260 0.36850 0.17900
H 	H 	0.61800 0.24200 0.36760 0.18600
H 	H 	0.68100 0.19130 0.36940 0.18800
H 	H 	0.69850 0.18450 0.18440 0.09800
H 	H 	0.76010 0.13360 0.17640 0.08400
H 	H 	0.93040 0.97080 0.81900 0.04800
H 	H 	0.01320 0.97150 0.57730 0.05600
H 	H 	0.05810 0.00240 0.62580 0.03800
H 	H 	0.87960 0.00750 0.59640 0.02600
H 	H 	0.90880 0.02550 0.65430 0.01900
H 	H 	0.99640 0.09470 0.61410 0.12600
H 	H 	0.89580 0.10300 0.60380 0.13100
H 	H 	0.95560 0.07880 0.55810 0.13500
H 	H 	0.17970 0.95170 0.77610 0.05700
H 	H 	0.21950 0.92800 0.68770 0.07300
H 	H 	0.15440 0.94420 0.64130 0.09200
H 	H 	0.16270 0.83780 0.73590 0.07000
H 	H 	0.13550 0.74720 0.71960 0.00800
H 	H 	0.09770 0.71930 0.63560 0.06600
H 	H 	0.18630 0.85970 0.50410 0.02700
H 	H 	0.24630 0.85960 0.55540 0.02300
H 	H 	0.23910 0.95960 0.55100 0.02100
H 	H 	0.20290 0.95110 0.49180 0.02300
H 	H 	0.35760 0.95530 0.48980 0.11600
H 	H 	0.32630 0.89720 0.47100 0.12200
H 	H 	0.36220 0.90550 0.52970 0.11700
H 	H 	0.06640 0.80590 0.52270 0.09400
H 	H 	0.10820 0.74780 0.53180 0.08500
H 	H 	0.01580 0.67310 0.54370 0.05200
H 	H 	0.77060 0.68970 0.59560 0.05400
H 	H 	0.95490 0.83750 0.48880 0.04000
H 	H 	0.95350 0.89700 0.51330 0.05100
H 	H 	0.79840 0.89300 0.51680 0.02600
H 	H 	0.80160 0.83470 0.48970 0.01800
H 	H 	0.86790 0.93020 0.44000 0.12900
H 	H 	0.77840 0.90290 0.42390 0.12900
H 	H 	0.86700 0.87210 0.41290 0.12700
H 	H 	0.74810 0.82750 0.58360 0.09600
H 	H 	0.70600 0.77540 0.61030 0.07600
H 	H 	0.80100 0.74230 0.69530 0.06700
H 	H 	0.84850 0.77350 0.77650 0.00800
H 	H 	0.87180 0.86340 0.79120 0.08000
H 	H 	0.68120 0.93910 0.68070 0.03100
H 	H 	0.64380 0.89890 0.63650 0.03100
H 	H 	0.71870 0.00210 0.61170 0.01900
H 	H 	0.67820 0.96250 0.56860 0.01500
H 	H 	0.53970 0.97740 0.60000 0.12100
H 	H 	0.58250 0.03560 0.59490 0.12400
H 	H 	0.57490 0.00740 0.65160 0.12700
H 	H 	0.81620 0.96170 0.75800 0.08100
H 	H 	0.83690 0.96900 0.69630 0.09700
H 	H 	0.19850 0.60570 0.41120 0.04400
H 	H 	0.28770 0.75800 0.33540 0.03900
H 	H 	0.37710 0.78750 0.32320 0.05000
H 	H 	0.35690 0.84400 0.39850 0.01700
H 	H 	0.26820 0.81420 0.41140 0.01800
H 	H 	0.24020 0.89720 0.36880 0.12700
H 	H 	0.20730 0.84910 0.33200 0.12900
H 	H 	0.29610 0.87870 0.31890 0.13000
H 	H 	0.26550 0.69310 0.53940 0.05300
H 	H 	0.39570 0.78780 0.47550 0.09400
H 	H 	0.35880 0.77030 0.53220 0.06700
H 	H 	0.42450 0.68150 0.56910 0.06400
H 	H 	0.55350 0.63800 0.58870 0.00700
H 	H 	0.67270 0.65320 0.53550 0.08400
H 	H 	0.63020 0.83040 0.49090 0.03900
H 	H 	0.53180 0.84260 0.50580 0.03500
H 	H 	0.51220 0.88230 0.42130 0.00900
H 	H 	0.61170 0.87220 0.40860 0.00900
H 	H 	0.54450 0.94490 0.48420 0.12700
H 	H 	0.60330 0.95930 0.43420 0.12900
H 	H 	0.64410 0.92870 0.48390 0.13600
H 	H 	0.69120 0.75100 0.43150 0.10000
H 	H 	0.75100 0.72190 0.47450 0.08600
H 	H 	0.78940 0.62680 0.46210 0.06300
H 	H 	0.71610 0.54850 0.33070 0.05600
H 	H 	0.66670 0.72920 0.29070 0.02900
H 	H 	0.69490 0.76430 0.34100 0.02700
H 	H 	0.52560 0.77200 0.29420 0.05400
H 	H 	0.56080 0.81010 0.34060 0.04700
H 	H 	0.66190 0.84910 0.28400 0.12000
H 	H 	0.57210 0.85080 0.25310 0.12000
H 	H 	0.64200 0.80600 0.23860 0.12300
H 	H 	0.63490 0.59420 0.26210 0.07500
H 	H 	0.60190 0.65440 0.27200 0.09700
H 	H 	0.55710 0.52140 0.31770 0.06400
H 	H 	0.42610 0.48900 0.34810 0.01000
H 	H 	0.31150 0.54990 0.36300 0.07100
H 	H 	0.48630 0.68590 0.20500 0.08600
H 	H 	0.42110 0.63790 0.21630 0.08600
H 	H 	0.37570 0.74090 0.21810 -0.03800
H 	H 	0.31630 0.68850 0.21640 -0.04100
H 	H 	0.42090 0.68260 0.13150 0.17900
H 	H 	0.38200 0.74200 0.13240 0.18600
H 	H 	0.31900 0.69130 0.13060 0.18700
H 	H 	0.30150 0.68450 0.31560 0.09700
H 	H 	0.23990 0.63360 0.32360 0.08300
H 	H 	0.06960 0.47080 0.68100 0.04800
H 	H 	0.98680 0.47150 0.92270 0.05800
H 	H 	0.94190 0.50240 0.87420 0.04100
H 	H 	0.12040 0.50750 0.90360 0.02400
H 	H 	0.09120 0.52550 0.84570 0.01700
H 	H 	0.00360 0.59470 0.88590 0.12800
H 	H 	0.10420 0.60300 0.89620 0.13300
H 	H 	0.04440 0.57880 0.94190 0.13700
H 	H 	0.82030 0.45170 0.72390 0.05600
H 	H 	0.78050 0.42800 0.81230 0.07300
H 	H 	0.84560 0.44420 0.85870 0.09200
H 	H 	0.83730 0.33780 0.76410 0.07000
H 	H 	0.86450 0.24720 0.78040 0.00800
H 	H 	0.90230 0.21930 0.86440 0.06600
H 	H 	0.81370 0.35970 0.99590 0.02700
H 	H 	0.75370 0.35960 0.94460 0.02300
H 	H 	0.76090 0.45960 0.94900 0.02100
H 	H 	0.79710 0.45110 0.00820 0.02300
H 	H 	0.64240 0.45530 0.01020 0.11800
H 	H 	0.67370 0.39720 0.02900 0.12400
H 	H 	0.63780 0.40550 0.97030 0.11800
H 	H 	0.93360 0.30590 0.97730 0.09300
H 	H 	0.89180 0.24780 0.96820 0.08400
H 	H 	0.98420 0.17310 0.95630 0.05000
H 	H 	0.22940 0.18970 0.90440 0.05400
H 	H 	0.04510 0.33750 0.01120 0.04000
H 	H 	0.04650 0.39700 0.98670 0.05100
H 	H 	0.20160 0.39300 0.98320 0.02600
H 	H 	0.19840 0.33470 0.01030 0.01900
H 	H 	0.13210 0.43020 0.06000 0.12800
H 	H 	0.22160 0.40290 0.07610 0.12800
H 	H 	0.13300 0.37210 0.08710 0.12700
H 	H 	0.25190 0.32750 0.91640 0.09600
H 	H 	0.29400 0.27540 0.88970 0.07600
H 	H 	0.19900 0.24230 0.80470 0.06700
H 	H 	0.15150 0.27350 0.72350 0.00800
H 	H 	0.12820 0.36340 0.70880 0.08000
H 	H 	0.31880 0.43910 0.81930 0.03100
H 	H 	0.35620 0.39890 0.86350 0.03100
H 	H 	0.28130 0.50210 0.88830 0.02000
H 	H 	0.32180 0.46250 0.93140 0.01600
H 	H 	0.46030 0.47740 0.90000 0.11900
H 	H 	0.41750 0.53560 0.90510 0.12200
H 	H 	0.42510 0.50740 0.84840 0.12600
H 	H 	0.18380 0.46170 0.74200 0.08100
H 	H 	0.16310 0.46900 0.80370 0.09700
C 	C 	0.16380 0.88790 0.01440 0.31100
C 	C 	0.22200 0.85516 0.98076 -0.06200
C 	C 	0.22990 0.86550 0.92645 -0.07100
C 	C 	0.28250 0.83430 0.89470 0.04100
C 	C 	0.32870 0.79190 0.91800 0.05800
C 	C 	0.33760 0.72380 0.85180 -0.03600
C 	C 	0.30660 0.67410 0.88240 0.01800
C 	C 	0.25800 0.63360 0.84730 -0.39600
C 	C 	0.32520 0.78325 0.97240 0.03700
C 	C 	0.27030 0.81405 0.00260 -0.06700
C 	C 	0.38560 0.74320 0.99930 -0.17800
C 	C 	0.47090 0.77011 0.01220 0.05900
C 	C 	0.47500 0.80960 0.04980 -0.12700
C 	C 	0.55070 0.83690 0.06050 0.03900
C 	C 	0.62160 0.82680 0.02970 -0.13500
C 	C 	0.62060 0.78790 0.98990 0.07200
C 	C 	0.54560 0.75740 0.98390 0.04400
C 	C 	0.57150 0.66530 0.97620 -0.04300
C 	C 	0.57020 0.62010 0.93730 0.04400
C 	C 	0.59250 0.56720 0.96200 -0.41600
C 	C 	0.69790 0.78190 0.95310 -0.19600
C 	C 	0.70610 0.82970 0.91740 0.04700
C 	C 	0.75700 0.87390 0.93020 -0.07100
C 	C 	0.76180 0.91870 0.89824 -0.05500
C 	C 	0.81780 0.96540 0.91290 0.32900
C 	C 	0.71380 0.92030 0.85230 -0.06600
C 	C 	0.66260 0.87810 0.83680 0.04300
C 	C 	0.65940 0.83250 0.86960 0.05600
C 	C 	0.64550 0.75280 0.82300 0.00700
C 	C 	0.57760 0.71040 0.80870 -0.02000
C 	C 	0.61700 0.67270 0.76740 -0.36000
C 	C 	0.60750 0.88160 0.78820 -0.18800
C 	C 	0.51760 0.90330 0.80300 0.06400
C 	C 	0.50900 0.95510 0.81960 -0.12500
C 	C 	0.43220 0.97420 0.83930 0.03300
C 	C 	0.36280 0.93840 0.84610 -0.12600
C 	C 	0.36980 0.88630 0.82800 0.07000
C 	C 	0.44560 0.86910 0.80422 0.03800
C 	C 	0.43290 0.82390 0.72400 -0.21100
C 	C 	0.37190 0.79630 0.70450 0.23300
C 	C 	0.37360 0.79500 0.64440 -0.57900
C 	C 	0.29300 0.84870 0.83640 -0.19100
C 	C 	0.91390 0.02140 0.14010 0.31600
C 	C 	0.94130 0.03470 0.19430 -0.06500
C 	C 	0.02770 0.03570 0.20760 -0.07300
C 	C 	0.05390 0.04590 0.25900 0.04000
C 	C 	0.99060 0.05460 0.29780 0.05700
C 	C 	0.99520 0.01580 0.38600 -0.05000
C 	C 	0.07230 0.97700 0.38300 0.02300
C 	C 	0.05500 0.91990 0.40360 -0.40100
C 	C 	0.90400 0.05760 0.28520 0.03200
C 	C 	0.87950 0.04710 0.23320 -0.06200
C 	C 	0.83950 0.07720 0.32600 -0.18300
C 	C 	0.85350 0.13620 0.33850 0.06600
C 	C 	0.85110 0.17340 0.29900 -0.12000
C 	C 	0.86830 0.22750 0.30840 0.03300
C 	C 	0.89050 0.24390 0.35790 -0.11900
C 	C 	0.89600 0.20660 0.39960 0.06400
C 	C 	0.87320 0.15380 0.38970 0.04400
C 	C 	0.79890 0.12000 0.46350 -0.00800
C 	C 	0.76230 0.06520 0.47960 -0.00500
C 	C 	0.67070 0.07800 0.49900 -0.37000
C 	C 	0.93090 0.22500 0.45270 -0.18800
C 	C 	0.01920 0.24870 0.44600 0.03900
C 	C 	0.03080 0.30420 0.44690 -0.06700
C 	C 	0.11020 0.32660 0.43430 -0.06900
C 	C 	0.12370 0.38560 0.43920 0.32700
C 	C 	0.17730 0.29440 0.41630 -0.06100
C 	C 	0.16770 0.23840 0.41570 0.03300
C 	C 	0.09060 0.21630 0.43290 0.05800
C 	C 	0.07700 0.13790 0.48760 -0.04700
C 	C 	0.16880 0.13020 0.50780 0.02200
C 	C 	0.16340 0.10390 0.56280 -0.39500
C 	C 	0.24050 0.20330 0.39260 -0.18500
C 	C 	0.21450 0.18320 0.33910 0.07000
C 	C 	0.19300 0.22030 0.29880 -0.12600
C 	C 	0.16330 0.20150 0.25100 0.04300
C 	C 	0.15030 0.14810 0.24200 -0.12800
C 	C 	0.16940 0.11030 0.28100 0.07600
C 	C 	0.20500 0.12870 0.32810 0.03900
C 	C 	0.31330 0.07260 0.35650 -0.02800
C 	C 	0.32680 0.02490 0.39440 0.01500
C 	C 	0.41550 0.99870 0.38620 -0.39000
C 	C 	0.14880 0.05210 0.27170 -0.19500
C 	C 	0.83620 0.38790 0.48560 0.32000
C 	C 	0.77800 0.35516 0.51924 -0.07300
C 	C 	0.77010 0.36550 0.57355 -0.06500
C 	C 	0.71750 0.33430 0.60530 0.03700
C 	C 	0.67130 0.29190 0.58200 0.06100
C 	C 	0.66240 0.22380 0.64820 -0.03600
C 	C 	0.69340 0.17410 0.61760 0.01700
C 	C 	0.74200 0.13360 0.65270 -0.39600
C 	C 	0.67480 0.28325 0.52760 0.03100
C 	C 	0.72970 0.31405 0.49740 -0.05600
C 	C 	0.61440 0.24320 0.50070 -0.18100
C 	C 	0.52910 0.27011 0.48780 0.06300
C 	C 	0.52500 0.30960 0.45020 -0.12800
C 	C 	0.44930 0.33690 0.43950 0.03900
C 	C 	0.37840 0.32680 0.47030 -0.13400
C 	C 	0.37940 0.28790 0.51010 0.07100
C 	C 	0.45440 0.25740 0.51610 0.04100
C 	C 	0.42850 0.16530 0.52380 -0.04500
C 	C 	0.42980 0.12010 0.56270 0.04600
C 	C 	0.40750 0.06720 0.53800 -0.41800
C 	C 	0.30210 0.28190 0.54690 -0.19600
C 	C 	0.29390 0.32970 0.58260 0.04700
C 	C 	0.24300 0.37390 0.56980 -0.07100
C 	C 	0.23820 0.41870 0.60176 -0.05400
C 	C 	0.18220 0.46540 0.58710 0.32700
C 	C 	0.28620 0.42030 0.64770 -0.06600
C 	C 	0.33740 0.37810 0.66320 0.04300
C 	C 	0.34060 0.33250 0.63040 0.05600
C 	C 	0.35450 0.25280 0.67700 0.00700
C 	C 	0.42240 0.21040 0.69130 -0.02100
C 	C 	0.38300 0.17270 0.73260 -0.36000
C 	C 	0.39250 0.38160 0.71180 -0.18700
C 	C 	0.48240 0.40330 0.69700 0.06200
C 	C 	0.49100 0.45510 0.68040 -0.12100
C 	C 	0.56780 0.47420 0.66070 0.02700
C 	C 	0.63720 0.43840 0.65390 -0.12200
C 	C 	0.63020 0.38630 0.67200 0.06700
C 	C 	0.55440 0.36910 0.69578 0.03900
C 	C 	0.56710 0.32390 0.77600 -0.21100
C 	C 	0.62810 0.29630 0.79550 0.23200
C 	C 	0.62640 0.29500 0.85560 -0.57800
C 	C 	0.70700 0.34870 0.66360 -0.18800
C 	C 	0.08610 0.52140 0.35990 0.31700
C 	C 	0.05870 0.53470 0.30570 -0.06700
C 	C 	0.97230 0.53570 0.29240 -0.07200
C 	C 	0.94610 0.54590 0.24100 0.04200
C 	C 	0.00940 0.55460 0.20220 0.05400
C 	C 	0.00480 0.51580 0.11400 -0.05800
C 	C 	0.92770 0.47700 0.11700 0.03000
C 	C 	0.94500 0.41990 0.09640 -0.40600
C 	C 	0.09600 0.55760 0.21480 0.03300
C 	C 	0.12050 0.54710 0.26680 -0.06200
C 	C 	0.16050 0.57720 0.17400 -0.18300
C 	C 	0.14650 0.63620 0.16150 0.06600
C 	C 	0.14890 0.67340 0.20100 -0.12100
C 	C 	0.13170 0.72750 0.19160 0.03300
C 	C 	0.10950 0.74390 0.14210 -0.11900
C 	C 	0.10400 0.70660 0.10040 0.06400
C 	C 	0.12680 0.65380 0.11030 0.04400
C 	C 	0.20110 0.62000 0.03650 -0.00800
C 	C 	0.23770 0.56520 0.02040 -0.00500
C 	C 	0.32930 0.57800 0.00100 -0.37500
C 	C 	0.06910 0.72500 0.04730 -0.18800
C 	C 	0.98080 0.74870 0.05400 0.03900
C 	C 	0.96920 0.80420 0.05310 -0.06500
C 	C 	0.88980 0.82660 0.06570 -0.07000
C 	C 	0.87630 0.88560 0.06080 0.32700
C 	C 	0.82270 0.79440 0.08370 -0.06100
C 	C 	0.83230 0.73840 0.08430 0.03200
C 	C 	0.90940 0.71630 0.06710 0.05800
C 	C 	0.92300 0.63790 0.01240 -0.04500
C 	C 	0.83120 0.63020 0.99220 0.02100
C 	C 	0.83660 0.60390 0.93720 -0.39300
C 	C 	0.75950 0.70330 0.10740 -0.18500
C 	C 	0.78550 0.68320 0.16090 0.07000
C 	C 	0.80700 0.72030 0.20120 -0.12600
C 	C 	0.83670 0.70150 0.24900 0.04300
C 	C 	0.84970 0.64810 0.25800 -0.12800
C 	C 	0.83060 0.61030 0.21900 0.07600
C 	C 	0.79500 0.62870 0.17190 0.03900
C 	C 	0.68670 0.57260 0.14350 -0.02600
C 	C 	0.67320 0.52490 0.10560 0.01100
C 	C 	0.58450 0.49870 0.11380 -0.38600
C 	C 	0.85120 0.55210 0.22830 -0.19500
C 	C 	0.83620 0.11210 0.98560 0.31100
C 	C 	0.77800 0.14484 0.01924 -0.06200
C 	C 	0.77010 0.13450 0.07355 -0.07100
C 	C 	0.71750 0.16570 0.10530 0.04100
C 	C 	0.67130 0.20810 0.08200 0.05800
C 	C 	0.66240 0.27620 0.14820 -0.03600
C 	C 	0.69340 0.32590 0.11760 0.01800
C 	C 	0.74200 0.36640 0.15270 -0.39600
C 	C 	0.67480 0.21675 0.02760 0.03700
C 	C 	0.72970 0.18595 0.99740 -0.06700
C 	C 	0.61440 0.25680 0.00070 -0.17800
C 	C 	0.52910 0.22989 0.98780 0.05900
C 	C 	0.52500 0.19040 0.95020 -0.12700
C 	C 	0.44930 0.16310 0.93950 0.03900
C 	C 	0.37840 0.17320 0.97030 -0.13500
C 	C 	0.37940 0.21210 0.01010 0.07200
C 	C 	0.45440 0.24260 0.01610 0.04400
C 	C 	0.42850 0.33470 0.02380 -0.04300
C 	C 	0.42980 0.37990 0.06270 0.04400
C 	C 	0.40750 0.43280 0.03800 -0.41600
C 	C 	0.30210 0.21810 0.04690 -0.19600
C 	C 	0.29390 0.17030 0.08260 0.04700
C 	C 	0.24300 0.12610 0.06980 -0.07100
C 	C 	0.23820 0.08130 0.10176 -0.05500
C 	C 	0.18220 0.03460 0.08710 0.32900
C 	C 	0.28620 0.07970 0.14770 -0.06600
C 	C 	0.33740 0.12190 0.16320 0.04300
C 	C 	0.34060 0.16750 0.13040 0.05600
C 	C 	0.35450 0.24720 0.17700 0.00700
C 	C 	0.42240 0.28960 0.19130 -0.02000
C 	C 	0.38300 0.32730 0.23260 -0.36000
C 	C 	0.39250 0.11840 0.21180 -0.18800
C 	C 	0.48240 0.09670 0.19700 0.06400
C 	C 	0.49100 0.04490 0.18040 -0.12500
C 	C 	0.56780 0.02580 0.16070 0.03300
C 	C 	0.63720 0.06160 0.15390 -0.12600
C 	C 	0.63020 0.11370 0.17200 0.07000
C 	C 	0.55440 0.13090 0.19578 0.03800
C 	C 	0.56710 0.17610 0.27600 -0.21100
C 	C 	0.62810 0.20370 0.29550 0.23300
C 	C 	0.62640 0.20500 0.35560 -0.57900
C 	C 	0.70700 0.15130 0.16360 -0.19100
C 	C 	0.08610 0.97860 0.85990 0.31600
C 	C 	0.05870 0.96530 0.80570 -0.06500
C 	C 	0.97230 0.96430 0.79240 -0.07300
C 	C 	0.94610 0.95410 0.74100 0.04000
C 	C 	0.00940 0.94540 0.70220 0.05700
C 	C 	0.00480 0.98420 0.61400 -0.05000
C 	C 	0.92770 0.02300 0.61700 0.02300
C 	C 	0.94500 0.08010 0.59640 -0.40100
C 	C 	0.09600 0.94240 0.71480 0.03200
C 	C 	0.12050 0.95290 0.76680 -0.06200
C 	C 	0.16050 0.92280 0.67400 -0.18300
C 	C 	0.14650 0.86380 0.66150 0.06600
C 	C 	0.14890 0.82660 0.70100 -0.12000
C 	C 	0.13170 0.77250 0.69160 0.03300
C 	C 	0.10950 0.75610 0.64210 -0.11900
C 	C 	0.10400 0.79340 0.60040 0.06400
C 	C 	0.12680 0.84620 0.61030 0.04400
C 	C 	0.20110 0.88000 0.53650 -0.00800
C 	C 	0.23770 0.93480 0.52040 -0.00500
C 	C 	0.32930 0.92200 0.50100 -0.37000
C 	C 	0.06910 0.77500 0.54730 -0.18800
C 	C 	0.98080 0.75130 0.55400 0.03900
C 	C 	0.96920 0.69580 0.55310 -0.06700
C 	C 	0.88980 0.67340 0.56570 -0.06900
C 	C 	0.87630 0.61440 0.56080 0.32700
C 	C 	0.82270 0.70560 0.58370 -0.06100
C 	C 	0.83230 0.76160 0.58430 0.03300
C 	C 	0.90940 0.78370 0.56710 0.05800
C 	C 	0.92300 0.86210 0.51240 -0.04700
C 	C 	0.83120 0.86980 0.49220 0.02200
C 	C 	0.83660 0.89610 0.43720 -0.39500
C 	C 	0.75950 0.79670 0.60740 -0.18500
C 	C 	0.78550 0.81680 0.66090 0.07000
C 	C 	0.80700 0.77970 0.70120 -0.12600
C 	C 	0.83670 0.79850 0.74900 0.04300
C 	C 	0.84970 0.85190 0.75800 -0.12800
C 	C 	0.83060 0.88970 0.71900 0.07600
C 	C 	0.79500 0.87130 0.67190 0.03900
C 	C 	0.68670 0.92740 0.64350 -0.02800
C 	C 	0.67320 0.97510 0.60560 0.01500
C 	C 	0.58450 0.00130 0.61380 -0.39000
C 	C 	0.85120 0.94790 0.72830 -0.19500
C 	C 	0.16380 0.61210 0.51440 0.32000
C 	C 	0.22200 0.64484 0.48076 -0.07300
C 	C 	0.22990 0.63450 0.42645 -0.06500
C 	C 	0.28250 0.66570 0.39470 0.03700
C 	C 	0.32870 0.70810 0.41800 0.06100
C 	C 	0.33760 0.77620 0.35180 -0.03600
C 	C 	0.30660 0.82590 0.38240 0.01700
C 	C 	0.25800 0.86640 0.34730 -0.39600
C 	C 	0.32520 0.71675 0.47240 0.03100
C 	C 	0.27030 0.68595 0.50260 -0.05600
C 	C 	0.38560 0.75680 0.49930 -0.18100
C 	C 	0.47090 0.72989 0.51220 0.06300
C 	C 	0.47500 0.69040 0.54980 -0.12800
C 	C 	0.55070 0.66310 0.56050 0.03900
C 	C 	0.62160 0.67320 0.52970 -0.13400
C 	C 	0.62060 0.71210 0.48990 0.07100
C 	C 	0.54560 0.74260 0.48390 0.04100
C 	C 	0.57150 0.83470 0.47620 -0.04500
C 	C 	0.57020 0.87990 0.43730 0.04600
C 	C 	0.59250 0.93280 0.46200 -0.41800
C 	C 	0.69790 0.71810 0.45310 -0.19600
C 	C 	0.70610 0.67030 0.41740 0.04700
C 	C 	0.75700 0.62610 0.43020 -0.07100
C 	C 	0.76180 0.58130 0.39824 -0.05400
C 	C 	0.81780 0.53460 0.41290 0.32700
C 	C 	0.71380 0.57970 0.35230 -0.06600
C 	C 	0.66260 0.62190 0.33680 0.04300
C 	C 	0.65940 0.66750 0.36960 0.05600
C 	C 	0.64550 0.74720 0.32300 0.00700
C 	C 	0.57760 0.78960 0.30870 -0.02100
C 	C 	0.61700 0.82730 0.26740 -0.36000
C 	C 	0.60750 0.61840 0.28820 -0.18700
C 	C 	0.51760 0.59670 0.30300 0.06200
C 	C 	0.50900 0.54490 0.31960 -0.12100
C 	C 	0.43220 0.52580 0.33930 0.02700
C 	C 	0.36280 0.56160 0.34610 -0.12200
C 	C 	0.36980 0.61370 0.32800 0.06700
C 	C 	0.44560 0.63090 0.30422 0.03900
C 	C 	0.43290 0.67610 0.22400 -0.21100
C 	C 	0.37190 0.70370 0.20450 0.23200
C 	C 	0.37360 0.70500 0.14440 -0.57800
C 	C 	0.29300 0.65130 0.33640 -0.18800
C 	C 	0.91390 0.47860 0.64010 0.31700
C 	C 	0.94130 0.46530 0.69430 -0.06700
C 	C 	0.02770 0.46430 0.70760 -0.07200
C 	C 	0.05390 0.45410 0.75900 0.04200
C 	C 	0.99060 0.44540 0.79780 0.05400
C 	C 	0.99520 0.48420 0.88600 -0.05800
C 	C 	0.07230 0.52300 0.88300 0.03000
C 	C 	0.05500 0.58010 0.90360 -0.40600
C 	C 	0.90400 0.44240 0.78520 0.03300
C 	C 	0.87950 0.45290 0.73320 -0.06200
C 	C 	0.83950 0.42280 0.82600 -0.18300
C 	C 	0.85350 0.36380 0.83850 0.06600
C 	C 	0.85110 0.32660 0.79900 -0.12100
C 	C 	0.86830 0.27250 0.80840 0.03300
C 	C 	0.89050 0.25610 0.85790 -0.11900
C 	C 	0.89600 0.29340 0.89960 0.06400
C 	C 	0.87320 0.34620 0.88970 0.04400
C 	C 	0.79890 0.38000 0.96350 -0.00800
C 	C 	0.76230 0.43480 0.97960 -0.00500
C 	C 	0.67070 0.42200 0.99900 -0.37500
C 	C 	0.93090 0.27500 0.95270 -0.18800
C 	C 	0.01920 0.25130 0.94600 0.03900
C 	C 	0.03080 0.19580 0.94690 -0.06500
C 	C 	0.11020 0.17340 0.93430 -0.07000
C 	C 	0.12370 0.11440 0.93920 0.32700
C 	C 	0.17730 0.20560 0.91630 -0.06100
C 	C 	0.16770 0.26160 0.91570 0.03200
C 	C 	0.09060 0.28370 0.93290 0.05800
C 	C 	0.07700 0.36210 0.98760 -0.04500
C 	C 	0.16880 0.36980 0.00780 0.02100
C 	C 	0.16340 0.39610 0.06280 -0.39300
C 	C 	0.24050 0.29670 0.89260 -0.18500
C 	C 	0.21450 0.31680 0.83910 0.07000
C 	C 	0.19300 0.27970 0.79880 -0.12600
C 	C 	0.16330 0.29850 0.75100 0.04300
C 	C 	0.15030 0.35190 0.74200 -0.12800
C 	C 	0.16940 0.38970 0.78100 0.07600
C 	C 	0.20500 0.37130 0.82810 0.03900
C 	C 	0.31330 0.42740 0.85650 -0.02600
C 	C 	0.32680 0.47510 0.89440 0.01100
C 	C 	0.41550 0.50130 0.88620 -0.38600
C 	C 	0.14880 0.44790 0.77170 -0.19500
O 	O 	0.12180 0.92717 0.99493 -0.50600
O 	O 	0.15580 0.87536 0.06220 -0.40700
O 	O 	0.38190 0.76097 0.88717 -0.16500
O 	O 	0.54550 0.71386 0.94998 -0.17400
O 	O 	0.60620 0.79053 0.85690 -0.17300
O 	O 	0.82290 0.00394 0.88088 -0.42600
O 	O 	0.85930 0.96424 0.95570 -0.47400
O 	O 	0.45040 0.81899 0.78281 -0.14600
O 	O 	0.97030 0.01382 0.10415 -0.48300
O 	O 	0.83500 0.01872 0.13002 -0.40700
O 	O 	0.01630 0.06300 0.34932 -0.16000
O 	O 	0.87320 0.11728 0.43059 -0.19100
O 	O 	0.08190 0.16155 0.43202 -0.16000
O 	O 	0.05970 0.41612 0.44860 -0.51100
O 	O 	0.19790 0.40426 0.43458 -0.39700
O 	O 	0.22790 0.09192 0.36682 -0.18000
O 	O 	0.87820 0.42717 0.50507 -0.51100
O 	O 	0.84420 0.37536 0.43780 -0.40900
O 	O 	0.61810 0.26097 0.61283 -0.16600
O 	O 	0.45450 0.21386 0.55002 -0.17300
O 	O 	0.39380 0.29053 0.64310 -0.17300
O 	O 	0.17710 0.50394 0.61912 -0.42400
O 	O 	0.14070 0.46424 0.54430 -0.47400
O 	O 	0.54960 0.31899 0.71719 -0.14600
O 	O 	0.02970 0.51382 0.39585 -0.48500
O 	O 	0.16500 0.51872 0.36998 -0.40800
O 	O 	0.98370 0.56300 0.15068 -0.15700
O 	O 	0.12680 0.61728 0.06941 -0.19100
O 	O 	0.91810 0.66155 0.06798 -0.16000
O 	O 	0.94030 0.91612 0.05140 -0.51200
O 	O 	0.80210 0.90426 0.06542 -0.39800
O 	O 	0.77210 0.59192 0.13318 -0.18100
O 	O 	0.87820 0.07283 0.00507 -0.50600
O 	O 	0.84420 0.12464 0.93780 -0.40700
O 	O 	0.61810 0.23903 0.11283 -0.16500
O 	O 	0.45450 0.28614 0.05002 -0.17400
O 	O 	0.39380 0.20947 0.14310 -0.17300
O 	O 	0.17710 0.99606 0.11912 -0.42600
O 	O 	0.14070 0.03576 0.04430 -0.47400
O 	O 	0.54960 0.18101 0.21719 -0.14600
O 	O 	0.02970 0.98618 0.89585 -0.48300
O 	O 	0.16500 0.98128 0.86998 -0.40700
O 	O 	0.98370 0.93700 0.65068 -0.16000
O 	O 	0.12680 0.88272 0.56941 -0.19100
O 	O 	0.91810 0.83845 0.56798 -0.16000
O 	O 	0.94030 0.58388 0.55140 -0.51100
O 	O 	0.80210 0.59574 0.56542 -0.39700
O 	O 	0.77210 0.90808 0.63318 -0.18000
O 	O 	0.12180 0.57283 0.49493 -0.51100
O 	O 	0.15580 0.62464 0.56220 -0.40900
O 	O 	0.38190 0.73903 0.38717 -0.16600
O 	O 	0.54550 0.78614 0.44998 -0.17300
O 	O 	0.60620 0.70947 0.35690 -0.17300
O 	O 	0.82290 0.49606 0.38088 -0.42400
O 	O 	0.85930 0.53576 0.45570 -0.47400
O 	O 	0.45040 0.68101 0.28281 -0.14600
O 	O 	0.97030 0.48618 0.60415 -0.48500
O 	O 	0.83500 0.48128 0.63002 -0.40800
O 	O 	0.01630 0.43700 0.84932 -0.15700
O 	O 	0.87320 0.38272 0.93059 -0.19100
O 	O 	0.08190 0.33845 0.93202 -0.16000
O 	O 	0.05970 0.08388 0.94860 -0.51200
O 	O 	0.19790 0.09574 0.93458 -0.39800
O 	O 	0.22790 0.40808 0.86682 -0.18100
