data_crystal

_cell_length_a 8.32000
_cell_length_b 11.37500
_cell_length_c 12.93470
_cell_angle_alpha 104.39500
_cell_angle_beta  108.76100
_cell_angle_gamma 90.00000

_symmetry_space_group_name_	'P 1'
_symmetry_space_group_name_H-M	'P 1'

loop_
_symmetry_equiv_pos_as_xyz
  x,y,z

loop_
_atom_site_label
_atom_site_type_symbol
_atom_site_fract_x
_atom_site_fract_y
_atom_site_fract_z
_atom_site_charge
Co	Co	0.32291 0.06344 0.62960 1.15200
Co	Co	0.69331 0.93656 0.37040 1.14700
H 	H 	0.13980 0.18630 0.04040 0.14000
H 	H 	0.09770 0.28190 0.21160 0.02400
H 	H 	0.19180 0.20510 0.36360 0.06600
H 	H 	0.14660 0.80220 0.47160 -0.00700
H 	H 	0.14580 0.60680 0.47780 0.09300
H 	H 	0.48720 0.69890 0.78620 0.08000
H 	H 	0.49330 0.90120 0.77760 0.00100
H 	H 	0.06620 0.47460 0.57480 0.08500
H 	H 	0.04410 0.27390 0.58280 0.03000
H 	H 	0.55410 0.27420 0.68100 -0.01700
H 	H 	0.57600 0.47490 0.67320 0.06200
H 	H 	0.09940 0.81370 0.95960 0.08400
H 	H 	0.88610 0.71810 0.78840 0.05400
H 	H 	0.82820 0.79490 0.63640 0.02500
H 	H 	0.67500 0.19780 0.52840 -0.01700
H 	H 	0.66800 0.39320 0.52220 0.07900
H 	H 	0.70100 0.30110 0.21380 0.08200
H 	H 	0.71570 0.09880 0.22240 0.00600
H 	H 	0.49140 0.52540 0.42520 0.07500
H 	H 	0.46130 0.72610 0.41720 0.02100
H 	H 	0.87310 0.72580 0.31900 -0.02300
H 	H 	0.90280 0.52510 0.32680 0.05500
C 	C 	0.34050 0.00570 0.39020 0.46000
C 	C 	0.28000 0.05230 0.28760 -0.06100
C 	C 	0.31600 0.00130 0.19240 -0.11900
C 	C 	0.25480 0.04920 0.09640 0.22100
C 	C 	0.17640 0.15330 0.10220 -0.19500
C 	C 	0.15190 0.21030 0.20560 0.06100
C 	C 	0.20490 0.16360 0.29560 -0.06400
C 	C 	0.21830 0.78250 0.53560 0.10700
C 	C 	0.21760 0.66550 0.53920 -0.15500
C 	C 	0.32060 0.62930 0.63180 0.07100
C 	C 	0.41990 0.71890 0.72120 -0.12500
C 	C 	0.42210 0.84150 0.71660 0.05700
C 	C 	0.32330 0.49470 0.62320 0.04100
C 	C 	0.16400 0.43450 0.59620 -0.11500
C 	C 	0.15070 0.31420 0.60080 0.06900
C 	C 	0.45630 0.31440 0.65980 0.04400
C 	C 	0.46930 0.43460 0.65500 -0.10900
C 	C 	0.39420 0.88270 0.17100 0.33300
C 	C 	0.95030 0.99430 0.60980 0.41400
C 	C 	0.99240 0.94770 0.71240 -0.15000
C 	C 	0.12360 0.99870 0.80760 -0.04700
C 	C 	0.15840 0.95080 0.90360 0.13600
C 	C 	0.07420 0.84670 0.89780 -0.06200
C 	C 	0.94630 0.78970 0.79440 -0.09300
C 	C 	0.90930 0.83640 0.70440 0.02500
C 	C 	0.68270 0.21750 0.46440 0.09600
C 	C 	0.67840 0.33450 0.46080 -0.15800
C 	C 	0.68880 0.37070 0.36820 0.06500
C 	C 	0.69870 0.28110 0.27880 -0.12700
C 	C 	0.70550 0.15850 0.28340 0.05000
C 	C 	0.70010 0.50530 0.37680 0.03600
C 	C 	0.56780 0.56550 0.40380 -0.11500
C 	C 	0.54990 0.68580 0.39920 0.06800
C 	C 	0.79650 0.68560 0.34020 0.04100
C 	C 	0.81430 0.56540 0.34500 -0.11000
C 	C 	0.22320 0.11730 0.82900 0.31700
N 	N 	0.29670 0.25420 0.63260 -0.20700
N 	N 	0.31870 0.87170 0.62100 -0.23100
N 	N 	0.66410 0.74580 0.36740 -0.20700
N 	N 	0.69770 0.12830 0.37900 -0.23200
O 	O 	0.26728 0.03480 0.45676 -0.46800
O 	O 	0.46459 0.94950 0.40438 -0.47100
O 	O 	0.29453 0.79000 0.13646 -0.24100
O 	O 	0.55693 0.88880 0.19746 -0.39600
O 	O 	0.81052 0.96520 0.54324 -0.46900
O 	O 	0.06021 0.05050 0.59562 -0.42400
O 	O 	0.15807 0.21000 0.86354 -0.24300
O 	O 	0.35947 0.11120 0.80254 -0.39000
O 	O 	0.29820 0.00000 -0.00000 -0.22500
