data_crystal

_cell_length_a 13.73720
_cell_length_b 14.77310
_cell_length_c 21.07500
_cell_angle_alpha 90.00000
_cell_angle_beta  90.00000
_cell_angle_gamma 90.00000

_symmetry_space_group_name_	'P 1'
_symmetry_space_group_name_H-M	'P 1'

loop_
_symmetry_equiv_pos_as_xyz
  x,y,z

loop_
_atom_site_label
_atom_site_type_symbol
_atom_site_fract_x
_atom_site_fract_y
_atom_site_fract_z
_atom_site_charge
Zn	Zn	0.52877 0.09766 0.93839 1.21900
Zn	Zn	0.47123 0.59766 0.56161 1.22000
Zn	Zn	0.47123 0.90234 0.06161 1.21800
Zn	Zn	0.52877 0.40234 0.43839 1.21900
H 	H 	0.51340 0.36590 0.82010 0.09900
H 	H 	0.53160 0.22210 0.73700 0.05400
H 	H 	0.50790 0.41040 0.70750 0.02000
H 	H 	0.52960 0.26580 0.62540 0.14100
H 	H 	0.34700 0.03070 0.86650 -0.00600
H 	H 	0.18100 0.02780 0.87040 0.09500
H 	H 	0.19320 0.17290 0.03180 0.10700
H 	H 	0.35960 0.17370 0.02260 -0.00700
H 	H 	0.03640 0.12950 0.99510 0.08900
H 	H 	0.02060 0.04490 0.87900 0.04600
H 	H 	0.71750 0.14860 0.01500 0.00800
H 	H 	0.88310 0.14120 0.00970 0.10000
H 	H 	0.85510 0.01460 0.84130 0.08600
H 	H 	0.68960 0.02570 0.85210 0.00400
H 	H 	0.48660 0.86590 0.67990 0.09900
H 	H 	0.46840 0.72210 0.76300 0.05400
H 	H 	0.49210 0.91040 0.79250 0.02100
H 	H 	0.47040 0.76580 0.87460 0.14100
H 	H 	0.65300 0.53070 0.63350 -0.00500
H 	H 	0.81900 0.52780 0.62960 0.09500
H 	H 	0.80680 0.67290 0.46820 0.10600
H 	H 	0.64040 0.67370 0.47740 -0.00800
H 	H 	0.96360 0.62950 0.50490 0.08700
H 	H 	0.97940 0.54490 0.62100 0.05100
H 	H 	0.28250 0.64860 0.48500 0.00500
H 	H 	0.11690 0.64120 0.49030 0.09700
H 	H 	0.14490 0.51460 0.65870 0.08600
H 	H 	0.31040 0.52570 0.64790 0.00400
H 	H 	0.48660 0.63410 0.17990 0.09900
H 	H 	0.46840 0.77790 0.26300 0.05400
H 	H 	0.49210 0.58960 0.29250 0.02000
H 	H 	0.47040 0.73420 0.37460 0.14100
H 	H 	0.65300 0.96930 0.13350 -0.00600
H 	H 	0.81900 0.97220 0.12960 0.09500
H 	H 	0.80680 0.82710 0.96820 0.10700
H 	H 	0.64040 0.82630 0.97740 -0.00700
H 	H 	0.96360 0.87050 0.00490 0.08900
H 	H 	0.97940 0.95510 0.12100 0.04600
H 	H 	0.28250 0.85140 0.98500 0.00800
H 	H 	0.11690 0.85880 0.99030 0.10000
H 	H 	0.14490 0.98540 0.15870 0.08600
H 	H 	0.31040 0.97430 0.14790 0.00400
H 	H 	0.51340 0.13410 0.32010 0.09900
H 	H 	0.53160 0.27790 0.23700 0.05400
H 	H 	0.50790 0.08960 0.20750 0.02100
H 	H 	0.52960 0.23420 0.12540 0.14100
H 	H 	0.34700 0.46930 0.36650 -0.00500
H 	H 	0.18100 0.47220 0.37040 0.09500
H 	H 	0.19320 0.32710 0.53180 0.10600
H 	H 	0.35960 0.32630 0.52260 -0.00800
H 	H 	0.03640 0.37050 0.49510 0.08700
H 	H 	0.02060 0.45510 0.37900 0.05100
H 	H 	0.71750 0.35140 0.51500 0.00500
H 	H 	0.88310 0.35880 0.50970 0.09700
H 	H 	0.85510 0.48540 0.34130 0.08600
H 	H 	0.68960 0.47430 0.35210 0.00400
C 	C 	0.52330 0.23590 0.86094 0.34400
C 	C 	0.51920 0.30450 0.80892 -0.18100
C 	C 	0.52340 0.28340 0.74789 -0.01600
C 	C 	0.51620 0.34910 0.69680 0.07400
C 	C 	0.52070 0.32700 0.63605 -0.28100
C 	C 	0.51240 0.39390 0.58376 0.47300
C 	C 	0.31560 0.05970 0.90050 0.10100
C 	C 	0.21620 0.05780 0.90230 -0.18500
C 	C 	0.16760 0.10070 0.95170 0.14700
C 	C 	0.22320 0.14360 0.99738 -0.18800
C 	C 	0.32300 0.14290 0.99174 0.10200
C 	C 	0.06140 0.10320 0.95793 -0.12100
C 	C 	0.99660 0.07190 0.91626 -0.05600
C 	C 	0.74600 0.12100 0.97933 0.08800
C 	C 	0.84540 0.11700 0.97657 -0.16400
C 	C 	0.89070 0.07680 0.92429 0.10700
C 	C 	0.82880 0.04250 0.87752 -0.15800
C 	C 	0.72940 0.04940 0.88435 0.09300
C 	C 	0.47670 0.73590 0.63906 0.34400
C 	C 	0.48080 0.80450 0.69108 -0.18100
C 	C 	0.47660 0.78340 0.75211 -0.01600
C 	C 	0.48380 0.84910 0.80320 0.07400
C 	C 	0.47930 0.82700 0.86395 -0.28000
C 	C 	0.48760 0.89390 0.91624 0.47300
C 	C 	0.68440 0.55970 0.59950 0.10000
C 	C 	0.78380 0.55780 0.59770 -0.18200
C 	C 	0.83240 0.60070 0.54830 0.14300
C 	C 	0.77680 0.64360 0.50262 -0.18500
C 	C 	0.67700 0.64290 0.50826 0.10300
C 	C 	0.93860 0.60320 0.54207 -0.11300
C 	C 	0.00340 0.57190 0.58374 -0.06600
C 	C 	0.25400 0.62100 0.52067 0.09100
C 	C 	0.15460 0.61700 0.52343 -0.16200
C 	C 	0.10930 0.57680 0.57571 0.11000
C 	C 	0.17120 0.54250 0.62248 -0.15900
C 	C 	0.27060 0.54940 0.61565 0.09300
C 	C 	0.47670 0.76410 0.13906 0.34400
C 	C 	0.48080 0.69550 0.19108 -0.18100
C 	C 	0.47660 0.71660 0.25211 -0.01600
C 	C 	0.48380 0.65090 0.30320 0.07400
C 	C 	0.47930 0.67300 0.36395 -0.28100
C 	C 	0.48760 0.60610 0.41624 0.47300
C 	C 	0.68440 0.94030 0.09950 0.10100
C 	C 	0.78380 0.94220 0.09770 -0.18500
C 	C 	0.83240 0.89930 0.04830 0.14700
C 	C 	0.77680 0.85640 0.00262 -0.18800
C 	C 	0.67700 0.85710 0.00826 0.10200
C 	C 	0.93860 0.89680 0.04207 -0.12100
C 	C 	0.00340 0.92810 0.08374 -0.05600
C 	C 	0.25400 0.87900 0.02067 0.08800
C 	C 	0.15460 0.88300 0.02343 -0.16400
C 	C 	0.10930 0.92320 0.07571 0.10700
C 	C 	0.17120 0.95750 0.12248 -0.15800
C 	C 	0.27060 0.95060 0.11565 0.09300
C 	C 	0.52330 0.26410 0.36094 0.34400
C 	C 	0.51920 0.19550 0.30892 -0.18100
C 	C 	0.52340 0.21660 0.24789 -0.01600
C 	C 	0.51620 0.15090 0.19680 0.07400
C 	C 	0.52070 0.17300 0.13605 -0.28000
C 	C 	0.51240 0.10610 0.08376 0.47300
C 	C 	0.31560 0.44030 0.40050 0.10000
C 	C 	0.21620 0.44220 0.40230 -0.18200
C 	C 	0.16760 0.39930 0.45170 0.14300
C 	C 	0.22320 0.35640 0.49738 -0.18500
C 	C 	0.32300 0.35710 0.49174 0.10300
C 	C 	0.06140 0.39680 0.45793 -0.11300
C 	C 	0.99660 0.42810 0.41626 -0.06600
C 	C 	0.74600 0.37900 0.47933 0.09100
C 	C 	0.84540 0.38300 0.47657 -0.16200
C 	C 	0.89070 0.42320 0.42429 0.11000
C 	C 	0.82880 0.45750 0.37752 -0.15900
C 	C 	0.72940 0.45060 0.38435 0.09300
N 	N 	0.37144 0.10094 0.94491 -0.24800
N 	N 	0.68652 0.08791 0.93437 -0.23400
N 	N 	0.62856 0.60094 0.55509 -0.24800
N 	N 	0.31348 0.58791 0.56563 -0.23400
N 	N 	0.62856 0.89906 0.05509 -0.24800
N 	N 	0.31348 0.91209 0.06563 -0.23400
N 	N 	0.37144 0.39906 0.44491 -0.24800
N 	N 	0.68652 0.41209 0.43437 -0.23400
O 	O 	0.52531 0.15267 0.84695 -0.40600
O 	O 	0.52510 0.26186 0.91692 -0.36000
O 	O 	0.47673 0.46951 0.59623 -0.49200
O 	O 	0.54249 0.36743 0.53034 -0.49700
O 	O 	0.47469 0.65267 0.65305 -0.40600
O 	O 	0.47490 0.76186 0.58308 -0.36000
O 	O 	0.52327 0.96951 0.90377 -0.49100
O 	O 	0.45751 0.86743 0.96966 -0.49600
O 	O 	0.47469 0.84733 0.15305 -0.40600
O 	O 	0.47490 0.73814 0.08308 -0.36000
O 	O 	0.52327 0.53049 0.40377 -0.49200
O 	O 	0.45751 0.63257 0.46966 -0.49700
O 	O 	0.52531 0.34733 0.34695 -0.40600
O 	O 	0.52510 0.23814 0.41692 -0.36000
O 	O 	0.47673 0.03049 0.09623 -0.49100
O 	O 	0.54249 0.13257 0.03034 -0.49600
Zn	Zn	0.97123 0.90234 0.43839 1.21800
Zn	Zn	0.02877 0.40234 0.06161 1.21900
Zn	Zn	0.02877 0.09766 0.56161 1.21800
Zn	Zn	0.97123 0.59766 0.93839 1.21900
H 	H 	0.98660 0.63410 0.32010 0.09900
H 	H 	0.96840 0.77790 0.23700 0.05300
H 	H 	0.99210 0.58960 0.20750 0.02100
H 	H 	0.97040 0.73420 0.12540 0.14100
H 	H 	0.15300 0.96930 0.36650 -0.00400
H 	H 	0.31900 0.97220 0.37040 0.09500
H 	H 	0.30680 0.82710 0.53180 0.10600
H 	H 	0.14040 0.82630 0.52260 -0.00700
H 	H 	0.46360 0.87050 0.49510 0.08600
H 	H 	0.47940 0.95510 0.37900 0.05300
H 	H 	0.78250 0.85140 0.51500 0.00500
H 	H 	0.61690 0.85880 0.50970 0.09700
H 	H 	0.64490 0.98540 0.34130 0.08600
H 	H 	0.81040 0.97430 0.35210 0.00300
H 	H 	0.01340 0.13410 0.17990 0.09900
H 	H 	0.03160 0.27790 0.26300 0.05300
H 	H 	0.00790 0.08960 0.29250 0.02000
H 	H 	0.02960 0.23420 0.37460 0.14000
H 	H 	0.84700 0.46930 0.13350 -0.00500
H 	H 	0.68100 0.47220 0.12960 0.09400
H 	H 	0.69320 0.32710 0.96820 0.10400
H 	H 	0.85960 0.32630 0.97740 -0.00900
H 	H 	0.53640 0.37050 0.00490 0.08600
H 	H 	0.52060 0.45510 0.12100 0.05300
H 	H 	0.21750 0.35140 0.98500 0.00500
H 	H 	0.38310 0.35880 0.99030 0.09600
H 	H 	0.35510 0.48540 0.15870 0.08700
H 	H 	0.18960 0.47430 0.14790 0.00400
H 	H 	0.01340 0.36590 0.67990 0.09900
H 	H 	0.03160 0.22210 0.76300 0.05300
H 	H 	0.00790 0.41040 0.79250 0.02100
H 	H 	0.02960 0.26580 0.87460 0.14100
H 	H 	0.84700 0.03070 0.63350 -0.00400
H 	H 	0.68100 0.02780 0.62960 0.09500
H 	H 	0.69320 0.17290 0.46820 0.10600
H 	H 	0.85960 0.17370 0.47740 -0.00700
H 	H 	0.53640 0.12950 0.50490 0.08600
H 	H 	0.52060 0.04490 0.62100 0.05300
H 	H 	0.21750 0.14860 0.48500 0.00500
H 	H 	0.38310 0.14120 0.49030 0.09700
H 	H 	0.35510 0.01460 0.65870 0.08600
H 	H 	0.18960 0.02570 0.64790 0.00300
H 	H 	0.98660 0.86590 0.82010 0.09900
H 	H 	0.96840 0.72210 0.73700 0.05300
H 	H 	0.99210 0.91040 0.70750 0.02000
H 	H 	0.97040 0.76580 0.62540 0.14000
H 	H 	0.15300 0.53070 0.86650 -0.00500
H 	H 	0.31900 0.52780 0.87040 0.09400
H 	H 	0.30680 0.67290 0.03180 0.10400
H 	H 	0.14040 0.67370 0.02260 -0.00900
H 	H 	0.46360 0.62950 0.99510 0.08600
H 	H 	0.47940 0.54490 0.87900 0.05300
H 	H 	0.78250 0.64860 0.01500 0.00500
H 	H 	0.61690 0.64120 0.00970 0.09600
H 	H 	0.64490 0.51460 0.84130 0.08700
H 	H 	0.81040 0.52570 0.85210 0.00400
C 	C 	0.97670 0.76410 0.36094 0.34400
C 	C 	0.98080 0.69550 0.30892 -0.18100
C 	C 	0.97660 0.71660 0.24789 -0.01600
C 	C 	0.98380 0.65090 0.19680 0.07400
C 	C 	0.97930 0.67300 0.13605 -0.28000
C 	C 	0.98760 0.60610 0.08376 0.47400
C 	C 	0.18440 0.94030 0.40050 0.10000
C 	C 	0.28380 0.94220 0.40230 -0.18100
C 	C 	0.33240 0.89930 0.45170 0.14200
C 	C 	0.27680 0.85640 0.49738 -0.18400
C 	C 	0.17700 0.85710 0.49174 0.10200
C 	C 	0.43860 0.89680 0.45793 -0.10900
C 	C 	0.50340 0.92810 0.41626 -0.07100
C 	C 	0.75400 0.87900 0.47933 0.09200
C 	C 	0.65460 0.88300 0.47657 -0.16300
C 	C 	0.60930 0.92320 0.42429 0.11100
C 	C 	0.67120 0.95750 0.37752 -0.16100
C 	C 	0.77060 0.95060 0.38435 0.09400
C 	C 	0.02330 0.26410 0.13906 0.34400
C 	C 	0.01920 0.19550 0.19108 -0.18200
C 	C 	0.02340 0.21660 0.25211 -0.01600
C 	C 	0.01620 0.15090 0.30320 0.07200
C 	C 	0.02070 0.17300 0.36395 -0.27800
C 	C 	0.01240 0.10610 0.41624 0.46600
C 	C 	0.81560 0.44030 0.09950 0.10000
C 	C 	0.71620 0.44220 0.09770 -0.18100
C 	C 	0.66760 0.39930 0.04830 0.14100
C 	C 	0.72320 0.35640 0.00262 -0.18300
C 	C 	0.82300 0.35710 0.00826 0.10500
C 	C 	0.56140 0.39680 0.04207 -0.10900
C 	C 	0.49660 0.42810 0.08374 -0.07100
C 	C 	0.24600 0.37900 0.02067 0.09100
C 	C 	0.34540 0.38300 0.02343 -0.16200
C 	C 	0.39070 0.42320 0.07571 0.11100
C 	C 	0.32880 0.45750 0.12248 -0.16100
C 	C 	0.22940 0.45060 0.11565 0.09400
C 	C 	0.02330 0.23590 0.63906 0.34400
C 	C 	0.01920 0.30450 0.69108 -0.18100
C 	C 	0.02340 0.28340 0.75211 -0.01600
C 	C 	0.01620 0.34910 0.80320 0.07400
C 	C 	0.02070 0.32700 0.86395 -0.28000
C 	C 	0.01240 0.39390 0.91624 0.47400
C 	C 	0.81560 0.05970 0.59950 0.10000
C 	C 	0.71620 0.05780 0.59770 -0.18100
C 	C 	0.66760 0.10070 0.54830 0.14200
C 	C 	0.72320 0.14360 0.50262 -0.18400
C 	C 	0.82300 0.14290 0.50826 0.10200
C 	C 	0.56140 0.10320 0.54207 -0.10900
C 	C 	0.49660 0.07190 0.58374 -0.07100
C 	C 	0.24600 0.12100 0.52067 0.09200
C 	C 	0.34540 0.11700 0.52343 -0.16300
C 	C 	0.39070 0.07680 0.57571 0.11100
C 	C 	0.32880 0.04250 0.62248 -0.16100
C 	C 	0.22940 0.04940 0.61565 0.09400
C 	C 	0.97670 0.73590 0.86094 0.34400
C 	C 	0.98080 0.80450 0.80892 -0.18200
C 	C 	0.97660 0.78340 0.74789 -0.01600
C 	C 	0.98380 0.84910 0.69680 0.07200
C 	C 	0.97930 0.82700 0.63605 -0.27800
C 	C 	0.98760 0.89390 0.58376 0.46600
C 	C 	0.18440 0.55970 0.90050 0.10000
C 	C 	0.28380 0.55780 0.90230 -0.18100
C 	C 	0.33240 0.60070 0.95170 0.14100
C 	C 	0.27680 0.64360 0.99738 -0.18300
C 	C 	0.17700 0.64290 0.99174 0.10500
C 	C 	0.43860 0.60320 0.95793 -0.10900
C 	C 	0.50340 0.57190 0.91626 -0.07100
C 	C 	0.75400 0.62100 0.97933 0.09100
C 	C 	0.65460 0.61700 0.97657 -0.16200
C 	C 	0.60930 0.57680 0.92429 0.11100
C 	C 	0.67120 0.54250 0.87752 -0.16100
C 	C 	0.77060 0.54940 0.88435 0.09400
N 	N 	0.12856 0.89906 0.44491 -0.24700
N 	N 	0.81348 0.91209 0.43437 -0.23500
N 	N 	0.87144 0.39906 0.05509 -0.24700
N 	N 	0.18652 0.41209 0.06563 -0.23400
N 	N 	0.87144 0.10094 0.55509 -0.24700
N 	N 	0.18652 0.08791 0.56563 -0.23500
N 	N 	0.12856 0.60094 0.94491 -0.24700
N 	N 	0.81348 0.58791 0.93437 -0.23400
O 	O 	0.97469 0.84733 0.34695 -0.40700
O 	O 	0.97490 0.73814 0.41692 -0.36000
O 	O 	0.02327 0.53049 0.09623 -0.49200
O 	O 	0.95751 0.63257 0.03034 -0.49700
O 	O 	0.02531 0.34733 0.15305 -0.40600
O 	O 	0.02510 0.23814 0.08308 -0.36100
O 	O 	0.97673 0.03049 0.40377 -0.48500
O 	O 	0.04249 0.13257 0.46966 -0.49600
O 	O 	0.02531 0.15267 0.65305 -0.40700
O 	O 	0.02510 0.26186 0.58308 -0.36000
O 	O 	0.97673 0.46951 0.90377 -0.49200
O 	O 	0.04249 0.36743 0.96966 -0.49700
O 	O 	0.97469 0.65267 0.84695 -0.40600
O 	O 	0.97490 0.76186 0.91692 -0.36100
O 	O 	0.02327 0.96951 0.59623 -0.48500
O 	O 	0.95751 0.86743 0.53034 -0.49600
