data_crystal

_cell_length_a 8.85500
_cell_length_b 17.26700
_cell_length_c 33.50410
_cell_angle_alpha 90.00000
_cell_angle_beta  92.69250
_cell_angle_gamma 90.00000

_symmetry_space_group_name_	'P 1'
_symmetry_space_group_name_H-M	'P 1'

loop_
_symmetry_equiv_pos_as_xyz
  x,y,z

loop_
_atom_site_label
_atom_site_type_symbol
_atom_site_fract_x
_atom_site_fract_y
_atom_site_fract_z
_atom_site_charge
Co	Co	0.32241 0.21388 0.80336 1.18200
Co	Co	0.29127 0.82210 0.16261 1.19100
Co	Co	0.17759 0.71388 0.69664 1.18200
Co	Co	0.67759 0.78612 0.19664 1.18200
Co	Co	0.20873 0.32210 0.33739 1.19000
Co	Co	0.82241 0.28612 0.30336 1.18200
Co	Co	0.79127 0.67790 0.66261 1.18900
Co	Co	0.70873 0.17790 0.83739 1.19000
H 	H 	0.24630 0.12280 0.40690 -0.01800
H 	H 	0.76020 0.11760 0.54310 0.05100
H 	H 	0.61280 0.30390 0.62880 0.14400
H 	H 	0.48520 0.94790 0.44190 0.06400
H 	H 	0.88640 0.60680 0.04500 0.14900
H 	H 	0.75370 0.87720 0.59310 -0.01800
H 	H 	0.24310 0.01390 0.44750 0.14400
H 	H 	0.37340 0.04410 0.19440 0.06200
H 	H 	0.95780 0.45710 0.17530 0.03200
H 	H 	0.60530 0.95240 0.89330 -0.02600
H 	H 	0.37160 0.23310 0.54040 0.03900
H 	H 	0.90770 0.44670 0.25140 0.02600
H 	H 	0.78110 0.95200 0.14910 -0.02100
H 	H 	0.24750 0.17070 0.52880 0.04500
H 	H 	0.35760 0.73240 0.87020 0.04200
H 	H 	0.97420 0.66940 0.19560 -0.00800
H 	H 	0.83520 0.12700 0.71680 -0.01400
H 	H 	0.66590 0.17030 0.39690 -0.03000
H 	H 	0.67890 0.57910 0.99550 0.03700
H 	H 	0.24690 0.77450 0.78840 0.03700
H 	H 	0.39470 0.04760 0.10670 -0.02600
H 	H 	0.91650 0.13600 0.65240 0.14200
H 	H 	0.77220 0.04990 0.26480 0.04200
H 	H 	0.02050 0.26900 0.43150 0.03100
H 	H 	0.59490 0.56740 0.36250 0.13900
H 	H 	0.17350 0.03460 0.59610 0.15500
H 	H 	0.94920 0.38260 0.46220 0.05400
H 	H 	0.02580 0.33060 0.80440 -0.00800
H 	H 	0.51930 0.65350 0.03800 0.07000
H 	H 	0.45780 0.04290 0.67530 0.04200
H 	H 	0.06330 0.50710 0.11920 0.05800
H 	H 	0.83410 0.67030 0.10310 -0.02900
H 	H 	0.84370 0.17580 0.91740 -0.05200
H 	H 	0.01310 0.12370 0.78430 0.01300
H 	H 	0.09230 0.55330 0.74860 0.02600
H 	H 	0.98070 0.15350 0.46200 0.07400
H 	H 	0.66500 0.87740 0.97770 0.05200
H 	H 	0.64240 0.26760 0.12980 0.04200
H 	H 	0.30450 0.26720 0.47830 0.15000
H 	H 	0.11280 0.19610 0.12880 0.14300
H 	H 	0.10530 0.54760 0.39330 -0.01600
H 	H 	0.22780 0.95010 0.73520 0.04200
H 	H 	0.23980 0.88240 0.45690 0.05100
H 	H 	0.44920 0.11740 0.96220 0.05000
H 	H 	0.27220 0.45010 0.76480 0.04100
H 	H 	0.38640 0.89320 0.54500 0.15100
H 	H 	0.05080 0.61740 0.53780 0.05400
H 	H 	0.32650 0.53460 0.90390 0.15500
H 	H 	0.85330 0.02110 0.80910 0.06100
H 	H 	0.32110 0.42090 0.00450 0.03700
H 	H 	0.98410 0.66190 0.40440 0.14900
H 	H 	0.41650 0.36400 0.15240 0.14300
H 	H 	0.98520 0.55210 0.94190 0.05200
H 	H 	0.15960 0.23620 0.58330 0.04400
H 	H 	0.89470 0.45240 0.60670 -0.01600
H 	H 	0.25250 0.67070 0.97120 0.04200
H 	H 	0.16480 0.87300 0.28320 -0.01400
H 	H 	0.97040 0.79250 0.80730 -0.01800
H 	H 	0.65960 0.26380 0.08330 0.04600
H 	H 	0.27440 0.68510 0.42620 0.02800
H 	H 	0.87340 0.45590 0.69440 0.06000
H 	H 	0.38720 0.69610 0.37120 0.14400
H 	H 	0.21890 0.04800 0.85090 -0.02100
H 	H 	0.16590 0.32970 0.89690 -0.02900
H 	H 	0.46710 0.84820 0.81260 0.03700
H 	H 	0.53810 0.42470 0.79400 0.07300
H 	H 	0.51310 0.37630 0.28430 0.01100
H 	H 	0.62660 0.95590 0.80560 0.06200
H 	H 	0.52960 0.29250 0.69270 -0.01700
H 	H 	0.73650 0.85560 0.70370 0.05700
H 	H 	0.33410 0.82970 0.60310 -0.03000
H 	H 	0.33520 0.37300 0.21680 -0.01200
H 	H 	0.02960 0.20750 0.19270 -0.01800
H 	H 	0.33060 0.42950 0.86300 -0.02500
H 	H 	0.16500 0.62260 0.47770 0.04900
H 	H 	0.30990 0.15110 0.67100 0.05900
H 	H 	0.64670 0.52110 0.69090 0.06200
H 	H 	0.74690 0.72550 0.28840 0.03800
H 	H 	0.17890 0.92090 0.49550 0.03800
H 	H 	0.35110 0.76410 0.43880 0.04300
H 	H 	0.62840 0.76690 0.45960 0.03900
H 	H 	0.22560 0.18510 0.07380 0.02900
H 	H 	0.03810 0.07530 0.29400 0.06900
H 	H 	0.03290 0.34820 0.68740 0.03700
H 	H 	0.25310 0.27450 0.71160 0.03800
H 	H 	0.12840 0.73310 0.95960 0.03700
H 	H 	0.83060 0.07050 0.36300 -0.02700
H 	H 	0.76350 0.35560 0.79630 0.05500
H 	H 	0.67350 0.46540 0.09610 0.15500
H 	H 	0.52580 0.16940 0.30440 -0.00800
H 	H 	0.04220 0.54290 0.82470 0.03200
H 	H 	0.66940 0.57050 0.13700 -0.02500
H 	H 	0.74630 0.37720 0.90690 -0.01800
H 	H 	0.14890 0.26410 0.06120 0.04300
H 	H 	0.48410 0.83810 0.90440 0.15700
H 	H 	0.64890 0.23590 0.56120 0.04300
H 	H 	0.69010 0.84890 0.32900 0.05900
H 	H 	0.87160 0.26690 0.04040 0.03700
H 	H 	0.85760 0.76760 0.37020 0.04100
H 	H 	0.40770 0.05330 0.75140 0.02500
H 	H 	0.98690 0.87630 0.21570 0.01300
H 	H 	0.69550 0.73280 0.52170 0.15000
H 	H 	0.65630 0.67580 0.58260 -0.05400
H 	H 	0.14240 0.23240 0.62980 0.04100
H 	H 	0.01930 0.84650 0.53800 0.07400
H 	H 	0.96190 0.92470 0.70600 0.06900
H 	H 	0.56330 0.99290 0.61920 0.04600
H 	H 	0.47950 0.76900 0.06850 0.03800
H 	H 	0.25370 0.62280 0.09310 -0.01800
H 	H 	0.74750 0.32930 0.02880 0.04200
H 	H 	0.71890 0.45200 0.35090 -0.01600
H 	H 	0.23650 0.64440 0.20370 0.05500
H 	H 	0.73980 0.61760 0.95690 0.05000
H 	H 	0.26350 0.14440 0.29630 0.05700
H 	H 	0.19010 0.65110 0.82900 0.06600
H 	H 	0.52050 0.23100 0.93150 0.03800
H 	H 	0.75250 0.82930 0.47120 0.04500
H 	H 	0.28110 0.54800 0.64910 -0.01600
H 	H 	0.74310 0.48610 0.94750 0.14400
H 	H 	0.43670 0.00710 0.38080 0.04600
H 	H 	0.96710 0.65180 0.31260 0.03700
H 	H 	0.93670 0.49290 0.88080 0.05800
H 	H 	0.55080 0.88260 0.03780 0.05000
H 	H 	0.08350 0.86400 0.34760 0.14200
H 	H 	0.48070 0.34650 0.96200 0.07000
H 	H 	0.19550 0.76720 0.02170 0.14900
H 	H 	0.40510 0.43260 0.63750 0.13900
H 	H 	0.12660 0.54410 0.30560 0.06000
H 	H 	0.77440 0.81490 0.92620 0.02900
H 	H 	0.51480 0.05210 0.55810 0.06400
H 	H 	0.51590 0.16190 0.09560 0.15700
H 	H 	0.59230 0.94670 0.24860 0.02500
H 	H 	0.53290 0.15180 0.18740 0.03700
H 	H 	0.26020 0.38240 0.04310 0.05000
H 	H 	0.90510 0.06740 0.13750 0.14600
H 	H 	0.47040 0.70750 0.30730 -0.01700
H 	H 	0.80990 0.34890 0.17100 0.06600
H 	H 	0.34370 0.32420 0.41740 -0.05400
H 	H 	0.75310 0.22550 0.21160 0.03700
H 	H 	0.33500 0.12260 0.02230 0.05200
H 	H 	0.88720 0.80390 0.87120 0.14300
H 	H 	0.85110 0.73590 0.93880 0.04300
H 	H 	0.01480 0.44790 0.05810 0.05200
H 	H 	0.58350 0.63600 0.84760 0.14300
H 	H 	0.66480 0.62700 0.78320 -0.01200
H 	H 	0.75690 0.98610 0.55250 0.14400
H 	H 	0.16940 0.92950 0.63700 -0.02700
H 	H 	0.48690 0.62370 0.71570 0.01100
H 	H 	0.80450 0.23280 0.97830 0.14900
H 	H 	0.72780 0.54990 0.23520 0.04100
H 	H 	0.34040 0.73620 0.91670 0.04600
H 	H 	0.72560 0.31490 0.57380 0.02800
H 	H 	0.25690 0.51390 0.05250 0.14400
H 	H 	0.35330 0.47890 0.30910 0.06200
H 	H 	0.54220 0.95710 0.32470 0.04200
H 	H 	0.82650 0.96540 0.40390 0.15500
H 	H 	0.46190 0.57530 0.20600 0.07300
H 	H 	0.14670 0.97890 0.19090 0.06100
H 	H 	0.47420 0.83060 0.69560 -0.00800
H 	H 	0.97950 0.73100 0.56850 0.03100
H 	H 	0.82110 0.07910 0.50450 0.03800
H 	H 	0.09490 0.93260 0.86250 0.14600
H 	H 	0.83500 0.37740 0.52230 0.04900
H 	H 	0.01590 0.33810 0.59560 0.14900
H 	H 	0.11360 0.39320 0.95500 0.14900
H 	H 	0.15630 0.82420 0.08260 -0.05200
H 	H 	0.61360 0.10680 0.45500 0.15100
H 	H 	0.84040 0.76380 0.41670 0.04400
C 	C 	0.51452 0.08090 0.85882 0.41200
C 	C 	0.24523 0.23810 0.06593 0.00800
C 	C 	0.59120 0.18930 0.41290 0.21400
C 	C 	0.09120 0.31070 0.91290 0.21000
C 	C 	0.84580 0.11490 0.52610 -0.00500
C 	C 	0.30150 0.43640 0.63210 -0.27600
C 	C 	0.77900 0.62770 0.38280 0.29000
C 	C 	0.11522 0.29980 0.25292 0.41500
C 	C 	0.62314 0.75270 0.53814 -0.32900
C 	C 	0.12314 0.74730 0.03814 -0.32400
C 	C 	0.94180 0.66410 0.28610 0.01400
C 	C 	0.93660 0.65250 0.05180 -0.31300
C 	C 	0.90175 0.21850 0.92545 0.20900
C 	C 	0.00962 0.24570 0.90072 -0.26500
C 	C 	0.05526 0.32570 0.77826 0.11400
C 	C 	0.03931 0.10870 0.38041 -0.24100
C 	C 	0.22100 0.37230 0.61720 0.29000
C 	C 	0.37708 0.30690 0.00958 0.03400
C 	C 	0.83978 0.97470 0.56958 -0.30800
C 	C 	0.15420 0.88510 0.47390 -0.00500
C 	C 	0.16105 0.83220 0.33945 -0.28300
C 	C 	0.77240 0.49440 0.36130 0.16700
C 	C 	0.60570 0.43060 0.77380 -0.08500
C 	C 	0.42717 0.01150 0.87017 -0.24200
C 	C 	0.03645 0.18040 0.35535 0.42700
C 	C 	0.79340 0.00280 0.25290 -0.00100
C 	C 	0.68036 0.83250 0.38846 0.01200
C 	C 	0.16020 0.60080 0.25430 0.08400
C 	C 	0.39217 0.73910 0.31527 0.18400
C 	C 	0.05820 0.33590 0.71390 0.01400
C 	C 	0.20660 0.99720 0.74710 -0.00100
C 	C 	0.69503 0.94910 0.78563 -0.07600
C 	C 	0.74523 0.26190 0.56593 0.01100
C 	C 	0.82825 0.70870 0.78855 -0.21700
C 	C 	0.49038 0.74570 0.59928 -0.27000
C 	C 	0.99750 0.44820 0.61350 0.17000
C 	C 	0.32918 0.51140 0.28758 -0.08000
C 	C 	0.17082 0.01140 0.21242 -0.07700
C 	C 	0.99770 0.53670 0.88270 -0.07300
C 	C 	0.89217 0.76090 0.81527 0.18100
C 	C 	0.72100 0.12770 0.11720 0.30300
C 	C 	0.69850 0.56360 0.36790 -0.27600
C 	C 	0.06340 0.34750 0.94820 -0.31300
C 	C 	0.55526 0.17430 0.27826 0.10800
C 	C 	0.22760 0.50560 0.63870 0.16700
C 	C 	0.62292 0.69310 0.99042 0.03400
C 	C 	0.53645 0.31960 0.85535 0.43300
C 	C 	0.46355 0.68040 0.14465 0.43300
C 	C 	0.33980 0.10080 0.24570 0.08700
C 	C 	0.19850 0.93640 0.86790 -0.29100
C 	C 	0.44870 0.30120 0.97410 -0.07900
C 	C 	0.58599 0.55970 0.11999 0.19500
C 	C 	0.91050 0.90660 0.22570 0.09600
C 	C 	0.88478 0.70020 0.74708 0.41500
C 	C 	0.31964 0.16750 0.61154 0.01200
C 	C 	0.92717 0.48850 0.37017 -0.21700
C 	C 	0.88384 0.36190 0.07704 0.00100
C 	C 	0.58950 0.40660 0.27430 0.09600
C 	C 	0.44180 0.83590 0.78610 0.00700
C 	C 	0.08790 0.00340 0.59590 -0.31400
C 	C 	0.84295 0.76780 0.85365 -0.28900
C 	C 	0.40175 0.28150 0.42545 0.21700
C 	C 	0.93070 0.62040 0.39300 -0.29800
C 	C 	0.71060 0.66220 0.80100 0.16900
C 	C 	0.83895 0.16780 0.66055 -0.28300
C 	C 	0.06840 0.66500 0.52590 -0.05200
C 	C 	0.13760 0.66840 0.49000 -0.04800
C 	C 	0.41210 0.50340 0.90410 -0.31400
C 	C 	0.56340 0.15250 0.44820 -0.31900
C 	C 	0.14745 0.67790 0.96235 0.01300
C 	C 	0.35255 0.17790 0.53765 0.00400
C 	C 	0.66105 0.66780 0.83945 -0.28100
C 	C 	0.47450 0.23240 0.95590 -0.01400
C 	C 	0.11616 0.63810 0.92296 0.00100
C 	C 	0.00250 0.55180 0.38650 0.17000
C 	C 	0.75930 0.88950 0.72470 -0.07200
C 	C 	0.60783 0.26090 0.68473 0.18400
C 	C 	0.71480 0.26420 0.10900 -0.00300
C 	C 	0.58790 0.49660 0.09590 -0.31400
C 	C 	0.05130 0.80120 0.52590 -0.09000
C 	C 	0.66022 0.47470 0.93042 -0.30700
C 	C 	0.59825 0.71850 0.57455 0.21700
C 	C 	0.04000 0.68380 0.02660 0.31300
C 	C 	0.56050 0.93320 0.34930 -0.02600
C 	C 	0.41401 0.44030 0.88001 0.19500
C 	C 	0.02550 0.73240 0.54410 0.00100
C 	C 	0.21060 0.83780 0.30100 0.17100
C 	C 	0.66020 0.89920 0.75430 0.08700
C 	C 	0.44474 0.82570 0.72174 0.10800
C 	C 	0.46069 0.60870 0.11959 -0.23600
C 	C 	0.37686 0.24730 0.46186 -0.32900
C 	C 	0.85050 0.36880 0.14800 -0.08500
C 	C 	0.61522 0.20020 0.75292 0.42400
C 	C 	0.65420 0.61490 0.97390 -0.00100
C 	C 	0.67175 0.20870 0.71145 -0.22000
C 	C 	0.97310 0.42740 0.08080 -0.02900
C 	C 	0.55130 0.69880 0.02590 -0.07900
C 	C 	0.41050 0.59340 0.72570 0.09600
C 	C 	0.15705 0.23220 0.14635 -0.28900
C 	C 	0.29340 0.49720 0.75290 -0.00200
C 	C 	0.83980 0.39920 0.74570 0.08400
C 	C 	0.87686 0.25270 0.96186 -0.32400
C 	C 	0.36240 0.16840 0.01000 -0.05600
C 	C 	0.35050 0.13120 0.64800 -0.06400
C 	C 	0.54000 0.81620 0.52660 0.31800
C 	C 	0.33895 0.33220 0.16055 -0.28100
C 	C 	0.57179 0.47990 0.74259 0.09600
C 	C 	0.78520 0.76420 0.39100 0.00300
C 	C 	0.80497 0.44910 0.71437 -0.07300
C 	C 	0.53818 0.29220 0.36138 0.44700
C 	C 	0.66176 0.40920 0.90596 0.18200
C 	C 	0.53931 0.39130 0.88041 -0.23600
C 	C 	0.96182 0.79220 0.13862 0.45000
C 	C 	0.56930 0.12040 0.10700 -0.32200
C 	C 	0.64745 0.82210 0.46235 0.00400
C 	C 	0.86240 0.33160 0.51000 -0.04800
C 	C 	0.16176 0.09080 0.40596 0.18300
C 	C 	0.40880 0.81070 0.58710 0.21400
C 	C 	0.16753 0.73870 0.47183 0.00100
C 	C 	0.81964 0.33250 0.11154 0.02700
C 	C 	0.43070 0.87960 0.89300 -0.32200
C 	C 	0.25930 0.61050 0.22470 -0.06800
C 	C 	0.00230 0.46330 0.11730 -0.07300
C 	C 	0.12292 0.80690 0.49042 0.04000
C 	C 	0.75477 0.76190 0.93407 0.00800
C 	C 	0.47310 0.07260 0.58080 -0.06100
C 	C 	0.30510 0.05440 0.75610 0.01100
C 	C 	0.03649 0.97820 0.42909 0.30900
C 	C 	0.50962 0.25430 0.40072 -0.27000
C 	C 	0.22735 0.77920 0.36575 0.29100
C 	C 	0.34295 0.73220 0.35365 -0.29000
C 	C 	0.89430 0.93060 0.72620 -0.08000
C 	C 	0.98548 0.58090 0.64118 0.39400
C 	C 	0.33978 0.52530 0.06958 -0.30700
C 	C 	0.80510 0.44560 0.25610 0.01100
C 	C 	0.67082 0.48860 0.71242 -0.08000
C 	C 	0.02690 0.57260 0.91920 -0.02900
C 	C 	0.69490 0.94560 0.24390 0.01100
C 	C 	0.99038 0.75430 0.09928 -0.26500
C 	C 	0.65705 0.26780 0.64635 -0.29000
C 	C 	0.17920 0.29490 0.72740 -0.00300
C 	C 	0.83247 0.26130 0.52817 0.00100
C 	C 	0.92821 0.97990 0.75741 0.08900
C 	C 	0.42821 0.52010 0.25741 0.09600
C 	C 	0.93950 0.43320 0.15070 0.00500
C 	C 	0.78940 0.16220 0.69900 0.17100
C 	C 	0.43160 0.16500 0.97410 -0.04100
C 	C 	0.74070 0.38950 0.77530 -0.06800
C 	C 	0.93160 0.33500 0.47410 -0.05200
C 	C 	0.16022 0.02530 0.43042 -0.30800
C 	C 	0.38384 0.13810 0.57704 0.01700
C 	C 	0.46351 0.47820 0.07091 0.31100
C 	C 	0.10783 0.23910 0.18473 0.18100
C 	C 	0.55820 0.16410 0.21390 0.00700
C 	C 	0.49770 0.96330 0.38270 -0.03700
C 	C 	0.50230 0.03670 0.61730 -0.03700
C 	C 	0.08599 0.94030 0.61999 0.20200
C 	C 	0.56840 0.83500 0.02590 -0.04100
C 	C 	0.14950 0.63120 0.85200 -0.08500
C 	C 	0.06050 0.56680 0.84930 0.00500
C 	C 	0.97450 0.26760 0.45590 0.00100
C 	C 	0.28520 0.73580 0.89100 -0.00300
C 	C 	0.43950 0.06680 0.65070 -0.02600
C 	C 	0.50250 0.94820 0.88650 0.20100
C 	C 	0.64950 0.86880 0.35200 -0.06400
C 	C 	0.49750 0.05180 0.11350 0.20100
C 	C 	0.34580 0.38510 0.02610 -0.00100
C 	C 	0.82080 0.70510 0.27260 -0.00300
C 	C 	0.32825 0.79130 0.28855 -0.22000
C 	C 	0.06930 0.37960 0.60700 -0.29800
C 	C 	0.07283 0.51150 0.62983 -0.21700
C 	C 	0.24070 0.11050 0.27530 -0.07200
C 	C 	0.72735 0.72080 0.86575 0.29000
C 	C 	0.57283 0.98850 0.12983 -0.24200
C 	C 	0.83824 0.90920 0.59404 0.18300
C 	C 	0.70660 0.50280 0.24710 -0.00200
C 	C 	0.27240 0.00560 0.86130 0.18500
C 	C 	0.90880 0.68930 0.08710 0.21000
C 	C 	0.80150 0.06360 0.13210 -0.29100
C 	C 	0.19490 0.55440 0.74390 0.01100
C 	C 	0.52550 0.76760 0.04410 -0.01400
C 	C 	0.30497 0.05090 0.21437 -0.07600
C 	C 	0.48548 0.91910 0.14118 0.41200
C 	C 	0.85255 0.32210 0.03765 0.01300
C 	C 	0.18036 0.66750 0.88846 0.02700
C 	C 	0.32080 0.79490 0.77260 -0.00000
C 	C 	0.25477 0.73810 0.43407 0.01100
C 	C 	0.46182 0.70780 0.63862 0.44700
C 	C 	0.96069 0.89130 0.61959 -0.24100
C 	C 	0.07179 0.02010 0.24259 0.08900
C 	C 	0.39430 0.56940 0.22620 -0.08500
C 	C 	0.03818 0.20780 0.86138 0.45000
C 	C 	0.28940 0.33780 0.19900 0.16900
C 	C 	0.10570 0.06940 0.27380 -0.08000
C 	C 	0.52690 0.92740 0.41920 -0.06100
C 	C 	0.19503 0.55090 0.28563 -0.07300
C 	C 	0.27900 0.87230 0.88280 0.30300
C 	C 	0.87708 0.19310 0.50958 0.04000
C 	C 	0.01452 0.41910 0.35882 0.39400
C 	C 	0.94474 0.67430 0.22174 0.11400
C 	C 	0.09825 0.78150 0.07455 0.20900
C 	C 	0.91210 0.99660 0.40410 -0.31400
C 	C 	0.43660 0.84750 0.55180 -0.31900
C 	C 	0.46000 0.18380 0.47340 0.31800
C 	C 	0.94870 0.19880 0.47410 -0.09000
C 	C 	0.67920 0.20510 0.22740 -0.00000
C 	C 	0.96351 0.02180 0.57091 0.30900
C 	C 	0.33824 0.59080 0.09404 0.18200
C 	C 	0.08950 0.09340 0.77430 0.09600
C 	C 	0.82918 0.98860 0.78758 -0.07700
C 	C 	0.61616 0.86190 0.42296 0.01700
C 	C 	0.77265 0.22080 0.63425 0.29100
C 	C 	0.96355 0.81960 0.64465 0.42700
C 	C 	0.33247 0.23870 0.02817 0.00600
C 	C 	0.91401 0.05970 0.38001 0.20200
C 	C 	0.63760 0.83160 0.99000 -0.05600
C 	C 	0.53649 0.52180 0.92909 0.31100
C 	C 	0.38478 0.79980 0.24708 0.42400
C 	C 	0.27265 0.27920 0.13425 0.29000
C 	C 	0.66753 0.76130 0.97183 0.00600
C 	C 	0.17175 0.29130 0.21145 -0.21700
C 	C 	0.21480 0.23580 0.60900 0.00300
C 	C 	0.72760 0.99440 0.13870 0.18500
C 	C 	0.96000 0.31620 0.97340 0.31300
N 	N 	0.02106 0.64390 0.25336 -0.14500
N 	N 	0.17637 0.28800 0.76827 -0.21800
N 	N 	0.47894 0.14390 0.24664 -0.13900
N 	N 	0.56813 0.47790 0.25903 -0.13500
N 	N 	0.93187 0.97790 0.24097 -0.13100
N 	N 	0.73094 0.38500 0.27334 -0.22000
N 	N 	0.97894 0.35610 0.74664 -0.14500
N 	N 	0.43187 0.52210 0.74097 -0.13500
N 	N 	0.67637 0.21200 0.26827 -0.21700
N 	N 	0.32363 0.78800 0.73173 -0.21700
N 	N 	0.26906 0.61500 0.72666 -0.22000
N 	N 	0.52106 0.85610 0.75336 -0.13900
N 	N 	0.06813 0.02210 0.75903 -0.13100
N 	N 	0.23094 0.11500 0.77334 -0.22000
N 	N 	0.82363 0.71200 0.23173 -0.21800
N 	N 	0.76906 0.88500 0.22666 -0.22000
O 	O 	0.33221 0.27690 0.09701 -0.24700
O 	O 	0.19869 0.80520 0.88619 -0.25300
O 	O 	0.54380 0.86410 0.15990 -0.50500
O 	O 	0.04380 0.63590 0.65990 -0.49600
O 	O 	0.15708 0.22130 0.35798 -0.47700
O 	O 	0.69869 0.69480 0.38619 -0.25200
O 	O 	0.34292 0.72130 0.14202 -0.47800
O 	O 	0.95620 0.36410 0.34010 -0.49600
O 	O 	0.65708 0.27870 0.85798 -0.47800
O 	O 	0.43185 0.32800 0.34275 -0.45600
O 	O 	0.57878 0.69340 0.16598 -0.44400
O 	O 	0.06815 0.82800 0.15725 -0.46000
O 	O 	0.44959 0.14520 0.50919 -0.25900
O 	O 	0.97717 0.08790 0.54887 -0.24400
O 	O 	0.84444 0.58250 0.63194 -0.43100
O 	O 	0.56815 0.67200 0.65725 -0.45600
O 	O 	0.47717 0.41210 0.04887 -0.24400
O 	O 	0.02283 0.91210 0.45113 -0.24400
O 	O 	0.20758 0.32840 0.27888 -0.46200
O 	O 	0.52283 0.58790 0.95113 -0.24400
O 	O 	0.48380 0.22180 0.75880 -0.44600
O 	O 	0.34444 0.91750 0.13194 -0.43500
O 	O 	0.84292 0.77870 0.64202 -0.47700
O 	O 	0.65556 0.08250 0.86806 -0.43500
O 	O 	0.70758 0.17160 0.77888 -0.46300
O 	O 	0.16740 0.21520 0.84860 -0.42400
O 	O 	0.83221 0.22310 0.59701 -0.24800
O 	O 	0.66779 0.72310 0.90299 -0.24700
O 	O 	0.92122 0.19340 0.33402 -0.43900
O 	O 	0.07878 0.80660 0.66598 -0.43900
O 	O 	0.80131 0.19480 0.11381 -0.25300
O 	O 	0.51620 0.77820 0.24120 -0.44600
O 	O 	0.42122 0.30660 0.83402 -0.44400
O 	O 	0.66740 0.28480 0.34860 -0.42400
O 	O 	0.16779 0.77690 0.40299 -0.24800
O 	O 	0.29242 0.82840 0.22112 -0.46300
O 	O 	0.01620 0.72180 0.74120 -0.43900
O 	O 	0.45620 0.13590 0.84010 -0.50500
O 	O 	0.33260 0.71520 0.65140 -0.42400
O 	O 	0.98380 0.27820 0.25880 -0.43900
O 	O 	0.15556 0.41750 0.36806 -0.43100
O 	O 	0.93185 0.17200 0.84275 -0.46000
O 	O 	0.55041 0.85480 0.49081 -0.25900
O 	O 	0.05041 0.64520 0.99081 -0.25800
O 	O 	0.83260 0.78480 0.15140 -0.42400
O 	O 	0.30131 0.30520 0.61381 -0.25200
O 	O 	0.79242 0.67160 0.72112 -0.46200
O 	O 	0.94959 0.35480 0.00919 -0.25800
