data_crystal

_cell_length_a 26.44520
_cell_length_b 26.44520
_cell_length_c 52.74000
_cell_angle_alpha 90.89500
_cell_angle_beta  90.89500
_cell_angle_gamma 91.78000

_symmetry_space_group_name_	'P 1'
_symmetry_space_group_name_H-M	'P 1'

loop_
_symmetry_equiv_pos_as_xyz
  x,y,z

loop_
_atom_site_label
_atom_site_type_symbol
_atom_site_fract_x
_atom_site_fract_y
_atom_site_fract_z
_atom_site_charge
Zn	Zn	0.03463 0.02771 0.08056 1.21900
Zn	Zn	0.10550 0.22150 0.62814 1.21000
Zn	Zn	0.02158 0.13340 0.62622 1.20300
Zn	Zn	0.02684 0.10896 0.12439 1.21000
Zn	Zn	0.12360 0.11507 0.08848 1.17800
Zn	Zn	0.02848 0.21000 0.58098 1.21900
Zn	Zn	0.10621 0.02466 0.12846 1.21600
Zn	Zn	0.11531 0.12948 0.58927 1.18300
C 	C 	0.77240 0.18470 0.60180 0.01700
C 	C 	0.06210 0.17840 0.70155 -0.15200
C 	C 	0.06820 0.16250 0.78160 -0.00800
C 	C 	0.03540 0.78260 0.60200 0.03800
C 	C 	0.54310 0.21460 0.57940 -0.01100
C 	C 	0.01230 0.28310 0.11230 0.03500
C 	C 	0.05830 0.36500 0.60186 -0.10300
C 	C 	0.01670 0.53010 0.10390 -0.02800
C 	C 	0.02230 0.38430 0.58600 0.05100
C 	C 	0.09530 0.60230 0.10670 -0.02300
C 	C 	0.09180 0.14140 0.43200 -0.00800
C 	C 	0.04780 0.12410 0.21270 0.07300
C 	C 	0.11340 0.26440 0.87990 0.06800
C 	C 	0.05350 0.85270 0.12690 0.07000
C 	C 	0.07950 0.10510 0.25220 0.02800
C 	C 	0.06370 0.09500 0.84040 0.11400
C 	C 	0.33910 0.23640 0.62270 -0.02200
C 	C 	0.36090 0.21100 0.60640 0.02100
C 	C 	0.01250 0.33570 0.11260 -0.00800
C 	C 	0.06830 0.07620 0.17270 0.42600
C 	C 	0.87560 0.17430 0.60040 -0.12300
C 	C 	0.25490 0.20730 0.60740 -0.13100
C 	C 	0.51900 0.03100 0.11150 -0.03200
C 	C 	0.04170 0.79560 0.07990 -0.01200
C 	C 	0.09440 0.20620 0.71684 0.06900
C 	C 	0.10080 0.08160 0.34300 -0.01800
C 	C 	0.03560 0.72420 0.60170 -0.05000
C 	C 	0.03550 0.82680 0.60170 -0.01500
C 	C 	0.04220 0.85140 0.08180 0.06000
C 	C 	0.79830 0.20830 0.57980 -0.01700
C 	C 	0.41720 0.20340 0.60500 -0.01600
C 	C 	0.93380 0.17340 0.60040 0.37800
C 	C 	0.08230 0.08150 0.00910 -0.10100
C 	C 	0.09460 0.13450 0.40830 0.03900
C 	C 	0.72220 0.02330 0.10290 -0.01600
C 	C 	0.05410 0.87720 0.10520 -0.13200
C 	C 	0.05710 0.93410 0.10550 0.40700
C 	C 	0.79310 0.15990 0.62090 -0.02000
C 	C 	0.93560 0.05110 0.10210 0.43300
C 	C 	0.10160 0.06370 0.24220 -0.02300
C 	C 	0.06550 0.19220 0.10040 0.24800
C 	C 	0.06330 0.18740 0.46640 -0.01200
C 	C 	0.04890 0.04160 0.60820 0.35000
C 	C 	0.06630 0.16800 0.75468 0.02500
C 	C 	0.05160 0.79800 0.12610 -0.02100
C 	C 	0.53650 0.20880 0.62470 0.08700
C 	C 	0.33430 0.00530 0.12720 -0.01000
C 	C 	0.90190 0.68700 0.59220 0.08200
C 	C 	0.11380 0.12850 0.97480 -0.01300
C 	C 	0.85620 0.01360 0.08520 0.07600
C 	C 	0.05010 0.46680 0.60090 0.01300
C 	C 	0.04740 0.77530 0.10430 0.02500
C 	C 	0.06370 0.18080 0.67396 0.41800
C 	C 	0.03070 0.95830 0.62580 0.06400
C 	C 	0.11300 0.11910 0.00170 0.05300
C 	C 	0.59520 0.21050 0.58150 0.11700
C 	C 	0.03000 0.90330 0.62430 -0.02300
C 	C 	0.56100 0.12790 0.15470 0.10100
C 	C 	0.08680 0.17810 0.36780 -0.01100
C 	C 	0.08500 0.11760 0.90870 0.02800
C 	C 	0.04200 0.62660 0.60050 -0.02800
C 	C 	0.28220 0.01110 0.12610 0.03500
C 	C 	0.06650 0.51500 0.10470 -0.01300
C 	C 	0.19420 0.55300 0.12280 0.06300
C 	C 	0.85310 0.19730 0.58290 0.06400
C 	C 	0.36580 0.03480 0.11220 0.01700
C 	C 	0.05290 0.36300 0.10240 0.00900
C 	C 	0.03400 0.13590 0.74040 -0.01800
C 	C 	0.05280 0.06450 0.96640 -0.00900
C 	C 	0.88040 0.04460 0.10250 -0.16800
C 	C 	0.10590 0.55110 0.10600 0.10400
C 	C 	0.04260 0.88360 0.60330 0.02600
C 	C 	0.51370 0.21380 0.60100 -0.02800
C 	C 	0.19650 0.20810 0.60970 0.40600
C 	C 	0.08600 0.11610 0.28020 -0.01300
C 	C 	0.27970 0.23400 0.62510 0.06200
C 	C 	0.53750 0.00500 0.09060 -0.02000
C 	C 	0.60430 0.05160 0.12560 -0.01700
C 	C 	0.09510 0.17370 0.87191 0.10700
C 	C 	0.67780 0.02290 0.10130 0.03700
C 	C 	0.10860 0.12520 0.50120 0.06400
C 	C 	0.79900 0.06140 0.12130 -0.03100
C 	C 	0.59300 0.23600 0.53310 0.09700
C 	C 	0.80040 0.00560 0.08490 -0.02300
C 	C 	0.58860 0.20470 0.62680 0.01400
C 	C 	0.09300 0.28510 0.09180 -0.00400
C 	C 	0.16060 0.65900 0.63340 0.08000
C 	C 	0.98990 0.63950 0.59630 -0.00800
C 	C 	0.08040 0.16180 0.51020 -0.12900
C 	C 	0.34530 0.07000 0.09600 -0.01600
C 	C 	0.07080 0.15110 0.80430 0.03400
C 	C 	0.08640 0.44980 0.61780 -0.00800
C 	C 	0.67310 0.20150 0.59960 0.03100
C 	C 	0.05450 0.90390 0.58170 -0.02000
C 	C 	0.08200 0.12540 0.88228 -0.01900
C 	C 	0.55240 0.05430 0.12890 0.11400
C 	C 	0.04670 0.98240 0.60610 -0.11800
C 	C 	0.04710 0.41810 0.10370 -0.00700
C 	C 	0.84820 0.15210 0.61910 0.06200
C 	C 	0.01750 0.43830 0.58440 -0.01700
C 	C 	0.04530 0.05380 0.99400 0.04900
C 	C 	0.58940 0.00230 0.08730 0.11000
C 	C 	0.07740 0.26390 0.33990 0.09000
C 	C 	0.77480 0.03180 0.10280 0.03000
C 	C 	0.04670 0.72070 0.10320 -0.00700
C 	C 	0.08770 0.64420 0.60780 0.07500
C 	C 	0.07230 0.08630 0.20100 -0.14500
C 	C 	0.46300 0.20000 0.65240 0.07300
C 	C 	0.10020 0.05580 0.21560 0.07300
C 	C 	0.91550 0.59260 0.10910 0.09500
C 	C 	0.08800 0.18280 0.84677 -0.02600
C 	C 	0.08490 0.10950 0.93120 -0.00500
C 	C 	0.08230 0.70860 0.60650 0.01900
C 	C 	0.29330 0.07570 0.09480 0.03400
C 	C 	0.05510 0.13710 0.23900 -0.02600
C 	C 	0.06680 0.08690 0.86560 -0.03300
C 	C 	0.04240 0.00620 0.83180 0.07800
C 	C 	0.71290 0.18230 0.59870 -0.00800
C 	C 	0.62280 0.02560 0.10470 -0.02700
C 	C 	0.61800 0.20550 0.60520 -0.04200
C 	C 	0.08590 0.17240 0.34080 0.12800
C 	C 	0.10170 0.08690 0.37010 0.12000
C 	C 	0.09130 0.12110 0.30270 0.03200
C 	C 	0.08890 0.39580 0.61870 0.04900
C 	C 	0.08900 0.14650 0.45930 0.02300
C 	C 	0.09670 0.13300 0.38190 -0.03600
C 	C 	0.45940 0.21050 0.60000 0.02100
C 	C 	0.04410 0.56830 0.59950 0.01800
C 	C 	0.09310 0.33770 0.09200 0.00100
C 	C 	0.08580 0.09900 0.95710 0.01900
C 	C 	0.20050 0.04440 0.11690 0.37300
C 	C 	0.07280 0.06990 0.03800 0.37400
C 	C 	0.11280 0.11530 0.47550 -0.02400
C 	C 	0.00610 0.58130 0.10460 0.11600
C 	C 	0.11430 0.99360 0.37040 0.07700
C 	C 	0.46710 0.02710 0.11080 0.03100
C 	C 	0.27650 0.18070 0.58900 0.04300
C 	C 	0.04540 0.61740 0.10590 -0.01700
C 	C 	0.05590 0.96260 0.58370 0.05300
C 	C 	0.42180 0.02840 0.10930 -0.01100
C 	C 	0.06780 0.45990 0.10580 0.02700
C 	C 	0.05250 0.25780 0.10190 -0.02600
C 	C 	0.57900 0.96300 0.04580 0.08600
C 	C 	0.04940 0.52410 0.59990 -0.00300
C 	C 	0.06220 0.30610 0.60324 0.38700
C 	C 	0.99970 0.69650 0.59690 0.10400
C 	C 	0.09450 0.20500 0.74400 -0.02500
C 	C 	0.07390 0.16840 0.53850 0.38500
C 	C 	0.26170 0.04630 0.10990 -0.08300
C 	C 	0.09200 0.12460 0.32960 -0.03800
C 	C 	0.05430 0.19220 0.49490 0.06500
C 	C 	0.85250 0.06350 0.12060 0.08800
C 	C 	0.04240 0.67230 0.10290 0.03400
C 	C 	0.03060 0.14250 0.71320 0.06800
C 	C 	0.07440 0.14370 0.82998 -0.02500
C 	C 	0.33850 0.18630 0.58680 -0.01800
O 	O 	0.07860 0.21320 0.32708 -0.20500
O 	O 	0.10360 0.21260 0.89012 -0.18800
O 	O 	0.96490 0.61230 0.10420 -0.20200
O 	O 	0.53700 0.08100 0.15050 -0.20200
O 	O 	0.07180 0.17330 0.08260 -0.47000
O 	O 	0.03730 0.28250 0.58646 -0.49600
O 	O 	0.09140 0.21150 0.66413 -0.51700
O 	O 	0.95870 0.08190 0.11899 -0.48400
O 	O 	0.17560 0.01900 0.12824 -0.54500
O 	O 	0.04540 0.20100 0.54584 -0.48800
O 	O 	0.61270 0.97900 0.06650 -0.19500
O 	O 	0.94850 0.14620 0.61897 -0.46600
O 	O 	0.07090 0.06440 0.58868 -0.48400
O 	O 	0.95690 0.19540 0.58350 -0.50400
O 	O 	0.07070 0.06817 0.10537 -0.95600
O 	O 	0.94820 0.71940 0.59250 -0.18600
O 	O 	0.10170 0.13830 0.55228 -0.47100
O 	O 	0.04170 0.04080 0.04559 -0.50200
O 	O 	0.61100 0.22000 0.55660 -0.20500
O 	O 	0.18040 0.22640 0.62748 -0.51000
O 	O 	0.10790 0.09820 0.05179 -0.46100
O 	O 	0.51960 0.20860 0.65110 -0.17800
O 	O 	0.02680 0.06060 0.62546 -0.49600
O 	O 	0.10940 0.04630 0.38500 -0.19300
O 	O 	0.07570 0.95540 0.12414 -0.49600
O 	O 	0.14700 0.64500 0.60660 -0.17200
O 	O 	0.06762 0.17536 0.60590 -0.96100
O 	O 	0.02950 0.15200 0.66231 -0.49200
O 	O 	0.95910 0.03040 0.08601 -0.49000
O 	O 	0.09040 0.29170 0.62094 -0.48500
O 	O 	0.02270 0.18160 0.11636 -0.40100
O 	O 	0.09220 0.04210 0.16394 -0.51300
O 	O 	0.17420 0.18490 0.59032 -0.49900
O 	O 	0.03850 0.10500 0.16103 -0.50200
O 	O 	0.04430 0.95520 0.08456 -0.48000
O 	O 	0.05140 0.05700 0.82236 -0.19500
O 	O 	0.18590 0.07640 0.09650 -0.48800
O 	O 	0.14690 0.52010 0.11050 -0.18500
Zn	Zn	0.87640 0.88493 0.91152 1.17800
Zn	Zn	0.97152 0.79000 0.41902 1.21900
Zn	Zn	0.96537 0.97229 0.91944 1.21900
Zn	Zn	0.97842 0.86660 0.37378 1.20300
Zn	Zn	0.97316 0.89104 0.87561 1.21000
Zn	Zn	0.89450 0.77850 0.37186 1.21000
Zn	Zn	0.88469 0.87052 0.41073 1.18300
Zn	Zn	0.89379 0.97534 0.87154 1.21600
C 	C 	0.95780 0.14860 0.91820 0.06000
C 	C 	0.93220 0.54010 0.89420 0.02700
C 	C 	0.93670 0.81260 0.53360 -0.01200
C 	C 	0.98330 0.46990 0.89610 -0.02800
C 	C 	0.91420 0.90100 0.04290 0.01900
C 	C 	0.91960 0.83820 0.48980 -0.12900
C 	C 	0.96940 0.85750 0.28680 0.06800
C 	C 	0.95260 0.22470 0.89570 0.02500
C 	C 	0.66090 0.76360 0.37730 -0.02200
C 	C 	0.89830 0.91310 0.62990 0.12000
C 	C 	0.71780 0.98890 0.87390 0.03500
C 	C 	0.95460 0.38260 0.89410 -0.01700
C 	C 	0.94650 0.14730 0.87310 0.07000
C 	C 	0.28710 0.81770 0.40130 -0.00800
C 	C 	0.91400 0.88390 0.71980 -0.01300
C 	C 	0.63420 0.96520 0.88780 0.01700
C 	C 	0.90550 0.79500 0.25600 -0.02500
C 	C 	0.40700 0.76400 0.46690 0.09700
C 	C 	0.20100 0.93860 0.87870 -0.03100
C 	C 	0.91510 0.89050 0.06880 -0.00500
C 	C 	0.91770 0.91850 0.99090 -0.10100
C 	C 	0.46350 0.79120 0.37530 0.08700
C 	C 	0.94410 0.03740 0.41630 0.05300
C 	C 	0.80350 0.79190 0.39030 0.40600
C 	C 	0.22760 0.81530 0.39820 0.01700
C 	C 	0.43900 0.87210 0.84530 0.10100
C 	C 	0.09810 0.31300 0.40780 0.08200
C 	C 	0.95800 0.37340 0.39950 -0.02800
C 	C 	0.91200 0.81720 0.15323 -0.02600
C 	C 	0.14380 0.98640 0.91480 0.07600
C 	C 	0.95110 0.95840 0.39180 0.35000
C 	C 	0.96460 0.21740 0.39800 0.03800
C 	C 	0.95740 0.11640 0.39670 0.02600
C 	C 	0.91500 0.88240 0.09130 0.02800
C 	C 	0.98750 0.66430 0.88740 -0.00800
C 	C 	0.90820 0.85860 0.56800 -0.00800
C 	C 	0.94990 0.53320 0.39910 0.01300
C 	C 	0.88620 0.87150 0.02520 -0.01300
C 	C 	0.91360 0.55020 0.38220 -0.00800
C 	C 	0.94750 0.74220 0.89810 -0.02600
C 	C 	0.97770 0.61570 0.41400 0.05100
C 	C 	0.93170 0.92380 0.82730 0.42600
C 	C 	0.96440 0.27580 0.39830 -0.05000
C 	C 	0.20170 0.79170 0.42020 -0.01700
C 	C 	0.15180 0.84790 0.38090 0.06200
C 	C 	0.38200 0.79450 0.39480 -0.04200
C 	C 	0.80580 0.44700 0.87720 0.06300
C 	C 	0.91410 0.82760 0.65920 0.12800
C 	C 	0.92770 0.91370 0.79900 -0.14500
C 	C 	0.89410 0.44890 0.89400 0.10400
C 	C 	0.89840 0.93630 0.75780 -0.02300
C 	C 	0.98250 0.56170 0.41560 -0.01700
C 	C 	0.37720 0.97440 0.89530 -0.02700
C 	C 	0.00030 0.30350 0.40310 0.10400
C 	C 	0.01010 0.36050 0.40370 -0.00800
C 	C 	0.14750 0.93650 0.87940 0.08800
C 	C 	0.96450 0.17320 0.39830 -0.01500
C 	C 	0.93180 0.83750 0.21840 -0.00800
C 	C 	0.41060 0.99770 0.91270 0.11000
C 	C 	0.95590 0.43170 0.40050 0.01800
C 	C 	0.95220 0.87590 0.78730 0.07300
C 	C 	0.63910 0.78900 0.39360 0.02100
C 	C 	0.66150 0.81370 0.41320 -0.01800
C 	C 	0.79950 0.95560 0.88310 0.37300
C 	C 	0.44760 0.94570 0.87110 0.11400
C 	C 	0.73830 0.95370 0.89010 -0.08300
C 	C 	0.94720 0.93550 0.03360 -0.00900
C 	C 	0.19960 0.99440 0.91510 -0.02300
C 	C 	0.53700 0.80000 0.34760 0.07300
C 	C 	0.90330 0.86700 0.61810 -0.03600
C 	C 	0.95290 0.58190 0.89630 -0.00700
C 	C 	0.40480 0.78950 0.41850 0.11700
C 	C 	0.89980 0.94420 0.78440 0.07300
C 	C 	0.74510 0.79270 0.39260 -0.13100
C 	C 	0.54060 0.78950 0.40000 0.02100
C 	C 	0.92720 0.93010 0.96200 0.37400
C 	C 	0.39570 0.94840 0.87440 -0.01700
C 	C 	0.72350 0.81930 0.41100 0.04300
C 	C 	0.93630 0.90500 0.15960 0.11400
C 	C 	0.94490 0.86290 0.76100 -0.02600
C 	C 	0.45690 0.78540 0.42060 -0.01100
C 	C 	0.83940 0.34100 0.36660 0.08000
C 	C 	0.98770 0.71690 0.88770 0.03500
C 	C 	0.96930 0.04170 0.37420 0.06400
C 	C 	0.95470 0.94620 0.00600 0.04900
C 	C 	0.89140 0.87480 0.49880 0.06400
C 	C 	0.48100 0.96900 0.88850 -0.03200
C 	C 	0.97000 0.09670 0.37570 -0.02300
C 	C 	0.32220 0.97710 0.89870 0.03700
C 	C 	0.92050 0.89490 0.74780 0.02800
C 	C 	0.91320 0.82190 0.63220 -0.01100
C 	C 	0.48630 0.78620 0.39900 -0.02800
C 	C 	0.90470 0.39770 0.89330 -0.02300
C 	C 	0.91110 0.60420 0.38130 0.04900
C 	C 	0.92560 0.85630 0.17002 -0.02500
C 	C 	0.94170 0.63500 0.39814 -0.10300
C 	C 	0.90700 0.71490 0.90820 -0.00400
C 	C 	0.41140 0.79530 0.37320 0.01400
C 	C 	0.90800 0.87540 0.67040 -0.03800
C 	C 	0.95760 0.99380 0.16820 0.07800
C 	C 	0.92920 0.84890 0.19570 0.03400
C 	C 	0.06620 0.82660 0.39960 0.37800
C 	C 	0.91100 0.85350 0.54070 0.02300
C 	C 	0.32690 0.79850 0.40040 0.03100
C 	C 	0.94570 0.80780 0.50510 0.06500
C 	C 	0.89920 0.91840 0.65700 -0.01800
C 	C 	0.70670 0.92430 0.90520 0.03400
C 	C 	0.95330 0.27930 0.89680 -0.00700
C 	C 	0.72030 0.76600 0.37490 0.06200
C 	C 	0.57820 0.97160 0.89070 -0.01100
C 	C 	0.94710 0.63700 0.89760 0.00900
C 	C 	0.99390 0.41870 0.89540 0.11600
C 	C 	0.42100 0.03700 0.95420 0.08600
C 	C 	0.88700 0.88090 0.99830 0.05300
C 	C 	0.93780 0.69390 0.39676 0.38700
C 	C 	0.92260 0.73610 0.66010 0.09000
C 	C 	0.93790 0.82160 0.29845 -0.15200
C 	C 	0.20690 0.84010 0.37910 -0.02000
C 	C 	0.93370 0.83200 0.24532 0.02500
C 	C 	0.94290 0.06590 0.89450 0.40700
C 	C 	0.46250 0.99500 0.90940 -0.02000
C 	C 	0.92610 0.83160 0.46150 0.38500
C 	C 	0.53290 0.97290 0.88920 0.03100
C 	C 	0.88570 0.00640 0.62960 0.07700
C 	C 	0.58280 0.79660 0.39500 -0.01600
C 	C 	0.06440 0.94890 0.89790 0.43300
C 	C 	0.93450 0.80780 0.89960 0.24800
C 	C 	0.90560 0.79380 0.28316 0.06900
C 	C 	0.95760 0.32770 0.89710 0.03400
C 	C 	0.08450 0.40740 0.89090 0.09500
C 	C 	0.90490 0.82630 0.12809 0.10700
C 	C 	0.65470 0.93000 0.90400 -0.01600
C 	C 	0.90540 0.86550 0.59170 0.03900
C 	C 	0.88720 0.88470 0.52450 -0.02400
C 	C 	0.96600 0.86410 0.25960 -0.01800
C 	C 	0.93630 0.81920 0.32604 0.41800
C 	C 	0.88660 0.73560 0.12010 0.06800
C 	C 	0.91230 0.35580 0.39220 0.07500
C 	C 	0.93350 0.48500 0.89530 -0.01300
C 	C 	0.66570 0.99470 0.87280 -0.01000
C 	C 	0.93320 0.91310 0.13440 -0.03300
C 	C 	0.91770 0.29140 0.39350 0.01900
C 	C 	0.94550 0.09610 0.41830 -0.02000
C 	C 	0.95330 0.01760 0.39390 -0.11800
C 	C 	0.22520 0.96820 0.89720 0.03000
C 	C 	0.90870 0.87890 0.69730 0.03200
C 	C 	0.12440 0.82570 0.39960 -0.12300
C 	C 	0.91800 0.87460 0.11772 -0.01900
C 	C 	0.27780 0.97670 0.89710 -0.01600
C 	C 	0.94840 0.20200 0.87390 -0.02100
C 	C 	0.95830 0.20440 0.92010 -0.01200
C 	C 	0.90690 0.66230 0.90800 0.00100
C 	C 	0.11960 0.95540 0.89750 -0.16800
C 	C 	0.95060 0.47590 0.40010 -0.00300
C 	C 	0.94590 0.12280 0.89480 -0.13200
C 	C 	0.14690 0.80270 0.41710 0.06400
O 	O 	0.96270 0.71750 0.41354 -0.49600
O 	O 	0.81410 0.92360 0.90350 -0.48800
O 	O 	0.89060 0.95370 0.61500 -0.19300
O 	O 	0.95570 0.04480 0.91544 -0.48000
O 	O 	0.05180 0.28060 0.40750 -0.18600
O 	O 	0.46300 0.91900 0.84950 -0.20200
O 	O 	0.92430 0.04460 0.87586 -0.49600
O 	O 	0.89830 0.86170 0.44772 -0.47100
O 	O 	0.81960 0.77360 0.37252 -0.51000
O 	O 	0.04130 0.91810 0.88101 -0.48400
O 	O 	0.48040 0.79140 0.34890 -0.17800
O 	O 	0.90860 0.78850 0.33587 -0.51700
O 	O 	0.82440 0.98100 0.87176 -0.54500
O 	O 	0.89210 0.90180 0.94821 -0.46100
O 	O 	0.92140 0.78680 0.67292 -0.20500
O 	O 	0.95460 0.79900 0.45416 -0.48800
O 	O 	0.85300 0.35500 0.39340 -0.17200
O 	O 	0.97320 0.93940 0.37454 -0.49600
O 	O 	0.04310 0.80460 0.41650 -0.50400
O 	O 	0.85310 0.47990 0.88950 -0.18500
O 	O 	0.03510 0.38770 0.89580 -0.20200
O 	O 	0.92910 0.93560 0.41132 -0.48400
O 	O 	0.04090 0.96960 0.91399 -0.49000
O 	O 	0.89640 0.78740 0.10988 -0.18800
O 	O 	0.82580 0.81510 0.40968 -0.49900
O 	O 	0.92930 0.93183 0.89463 -0.95600
O 	O 	0.90780 0.95790 0.83606 -0.51300
O 	O 	0.05150 0.85380 0.38103 -0.46600
O 	O 	0.38900 0.78000 0.44340 -0.20500
O 	O 	0.94860 0.94300 0.17764 -0.19500
O 	O 	0.95830 0.95920 0.95441 -0.50200
O 	O 	0.38730 0.02100 0.93350 -0.19500
O 	O 	0.90960 0.70830 0.37906 -0.48500
O 	O 	0.96150 0.89500 0.83897 -0.50200
O 	O 	0.97730 0.81840 0.88364 -0.40100
O 	O 	0.92820 0.82670 0.91740 -0.47000
O 	O 	0.97050 0.84800 0.33769 -0.49200
O 	O 	0.93238 0.82464 0.39410 -0.96100
Zn	Zn	0.80978 0.71137 0.20540 1.20600
Zn	Zn	0.78914 0.60967 0.66218 1.19600
Zn	Zn	0.78492 0.52057 0.70258 1.18900
Zn	Zn	0.69935 0.60573 0.70075 1.22000
Zn	Zn	0.81471 0.62856 0.16260 1.21600
Zn	Zn	0.70451 0.52313 0.65665 1.21700
Zn	Zn	0.71865 0.62777 0.20036 1.18900
Zn	Zn	0.73533 0.71403 0.15886 1.21200
C 	C 	0.75430 0.59620 0.50550 -0.01000
C 	C 	0.74160 0.91480 0.68330 -0.01000
C 	C 	0.52700 0.52290 0.65860 0.07100
C 	C 	0.64400 0.69510 0.17720 0.26200
C 	C 	0.77330 0.47520 0.18510 -0.07900
C 	C 	0.01720 0.58300 0.66750 -0.01800
C 	C 	0.75070 0.57730 0.58380 -0.11200
C 	C 	0.72580 0.57920 0.44110 -0.01300
C 	C 	0.73320 0.67290 0.04510 -0.02300
C 	C 	0.09230 0.54580 0.68660 -0.01500
C 	C 	0.32460 0.71080 0.18590 -0.03000
C 	C 	0.74530 0.95820 0.67800 0.01600
C 	C 	0.60930 0.55720 0.67560 0.46800
C 	C 	0.96370 0.59380 0.66690 0.05000
C 	C 	0.55130 0.55080 0.67640 -0.14200
C 	C 	0.74670 0.61300 0.28500 0.04900
C 	C 	0.85350 0.71350 0.45460 0.07300
C 	C 	0.78120 0.88290 0.16100 0.06500
C 	C 	0.74600 0.60470 0.31250 -0.01300
C 	C 	0.30080 0.73720 0.20510 0.00000
C 	C 	0.20000 0.52820 0.61460 0.10400
C 	C 	0.75510 0.11820 0.68340 -0.04000
C 	C 	0.01070 0.54530 0.70790 -0.01700
C 	C 	0.39110 0.53340 0.67570 -0.01700
C 	C 	0.81710 0.46170 0.17840 0.04100
C 	C 	0.99170 0.66230 0.16760 0.07800
C 	C 	0.73770 0.57120 0.74710 0.43700
C 	C 	0.79430 0.68440 0.31940 -0.01500
C 	C 	0.21970 0.70700 0.18870 -0.02500
C 	C 	0.76760 0.63500 0.35480 -0.00700
C 	C 	0.78480 0.57360 0.91910 0.01800
C 	C 	0.77250 0.21770 0.18500 -0.03100
C 	C 	0.77120 0.64190 0.32860 0.02000
C 	C 	0.79450 0.65220 0.42060 -0.02500
C 	C 	0.26870 0.52690 0.70160 0.08700
C 	C 	0.66010 0.52310 0.40690 0.08000
C 	C 	0.74930 0.17210 0.68400 0.03500
C 	C 	0.80680 0.88700 0.20360 0.06700
C 	C 	0.44580 0.53960 0.67810 0.02800
C 	C 	0.74100 0.58540 0.87830 0.03600
C 	C 	0.74270 0.86190 0.68160 0.01900
C 	C 	0.19020 0.53370 0.68470 -0.04600
C 	C 	0.77960 0.66120 0.24960 0.35000
C 	C 	0.79890 0.69110 0.29290 0.05400
C 	C 	0.70650 0.83500 0.69520 -0.01800
C 	C 	0.77710 0.83620 0.66690 -0.02000
C 	C 	0.78170 0.80380 0.18130 0.40500
C 	C 	0.74710 0.58500 0.85550 -0.01400
C 	C 	0.75650 0.61020 0.45540 -0.03100
C 	C 	0.73580 0.43690 0.67430 0.35500
C 	C 	0.68500 0.19800 0.14870 0.08300
C 	C 	0.73660 0.67970 0.07150 0.06900
C 	C 	0.63500 0.08880 0.65220 0.07100
C 	C 	0.79680 0.06090 0.18450 0.02300
C 	C 	0.16430 0.71180 0.18840 0.02300
C 	C 	0.06390 0.70140 0.18370 0.02700
C 	C 	0.71810 0.54820 0.56990 0.05500
C 	C 	0.73900 0.75670 0.67940 -0.09500
C 	C 	0.24350 0.68060 0.16950 -0.01600
C 	C 	0.29600 0.68250 0.16810 0.10000
C 	C 	0.73290 0.18200 0.18560 0.10700
C 	C 	0.28800 0.59930 0.15180 0.09000
C 	C 	0.11770 0.70410 0.18520 -0.01200
C 	C 	0.78430 0.61560 0.54680 -0.01500
C 	C 	0.76810 0.62880 0.37700 0.03300
C 	C 	0.34930 0.52870 0.67940 0.03600
C 	C 	0.78000 0.54180 0.18270 0.38500
C 	C 	0.42210 0.70890 0.18530 -0.01000
C 	C 	0.21640 0.53050 0.70720 -0.00300
C 	C 	0.70490 0.60880 0.81590 -0.01900
C 	C 	0.77630 0.55370 0.81720 -0.02100
C 	C 	0.75800 0.63280 0.03560 0.02400
C 	C 	0.19800 0.76000 0.24270 0.09100
C 	C 	0.52460 0.57140 0.69710 0.06500
C 	C 	0.51020 0.73860 0.16940 -0.01000
C 	C 	0.38020 0.70530 0.18170 0.03400
C 	C 	0.73800 0.57300 0.77510 -0.13700
C 	C 	0.27170 0.51180 0.74930 0.07900
C 	C 	0.70820 0.60770 0.78810 0.06100
C 	C 	0.93510 0.57530 0.68630 -0.10200
C 	C 	0.78860 0.64770 0.44580 0.11400
C 	C 	0.47200 0.56420 0.69650 -0.02400
C 	C 	0.58400 0.69120 0.17940 -0.06700
C 	C 	0.73650 0.27000 0.68040 0.01600
C 	C 	0.70470 0.78240 0.69410 0.04900
C 	C 	0.77300 0.66260 0.11462 0.43500
C 	C 	0.74060 0.69820 0.68220 0.35200
C 	C 	0.72310 0.54730 0.54140 -0.01700
C 	C 	0.80610 0.93980 0.20720 -0.02300
C 	C 	0.71180 0.09030 0.67610 0.12000
C 	C 	0.75710 0.60510 0.48250 0.03500
C 	C 	0.77590 0.54760 0.78950 0.05500
C 	C 	0.75200 0.58990 0.53220 0.02000
C 	C 	0.87330 0.53120 0.94780 0.07300
C 	C 	0.13690 0.54190 0.68530 0.03600
C 	C 	0.75680 0.01320 0.68120 -0.01900
C 	C 	0.56200 0.73220 0.16780 0.03800
C 	C 	0.76710 0.65210 0.08510 -0.12300
C 	C 	0.82220 0.20220 0.18430 0.00500
C 	C 	0.04530 0.66750 0.16750 -0.02900
C 	C 	0.70490 0.62640 0.94480 -0.02100
C 	C 	0.70940 0.34430 0.65880 0.04100
C 	C 	0.24830 0.73530 0.20650 0.09200
C 	C 	0.73030 0.37460 0.67830 -0.06900
C 	C 	0.90640 0.67810 0.18342 0.42200
C 	C 	0.72970 0.58570 0.41360 0.10600
C 	C 	0.77940 0.01840 0.18660 -0.00800
C 	C 	0.72440 0.40110 0.18750 -0.00900
C 	C 	0.74680 0.59500 0.90680 -0.05500
C 	C 	0.79160 0.61030 0.07510 0.05900
C 	C 	0.80010 0.04120 0.68850 0.08000
C 	C 	0.75080 0.62370 0.00830 -0.00500
C 	C 	0.75730 0.30020 0.69990 -0.01600
C 	C 	0.62640 0.65610 0.91700 0.09000
C 	C 	0.83230 0.15090 0.18410 0.07500
C 	C 	0.79930 0.09370 0.68960 0.01300
C 	C 	0.77190 0.37840 0.18750 0.01100
C 	C 	0.82070 0.39850 0.17660 -0.00500
C 	C 	0.78400 0.58320 0.94730 0.07400
C 	C 	0.74290 0.13070 0.18540 -0.01800
C 	C 	0.03610 0.55750 0.68690 0.02000
C 	C 	0.75420 0.35260 0.69890 0.02800
C 	C 	0.79300 0.86110 0.18210 -0.13200
C 	C 	0.20980 0.53310 0.66190 0.11300
C 	C 	0.55410 0.65660 0.19250 0.01900
C 	C 	0.71250 0.29200 0.65990 -0.01100
C 	C 	0.48030 0.70400 0.18250 0.01600
C 	C 	0.72880 0.45710 0.18720 0.04700
C 	C 	0.77410 0.65450 0.27690 -0.12800
C 	C 	0.29480 0.53030 0.68010 -0.02800
C 	C 	0.71260 0.03770 0.67500 -0.02300
C 	C 	0.77110 0.31680 0.18370 -0.00800
C 	C 	0.26630 0.53000 0.65740 -0.00600
C 	C 	0.47050 0.51920 0.65720 -0.02200
C 	C 	0.79260 0.11520 0.18470 -0.01500
C 	C 	0.70460 0.61620 0.91650 0.13700
C 	C 	0.87690 0.58630 0.68950 0.36900
C 	C 	0.73560 0.21300 0.68030 -0.00500
C 	C 	0.73860 0.57790 0.82770 0.02300
C 	C 	0.77690 0.94080 0.16440 -0.01800
C 	C 	0.78760 0.60460 0.04800 -0.01600
C 	C 	0.76240 0.62170 0.40400 -0.02400
C 	C 	0.78410 0.61330 0.57440 0.05300
C 	C 	0.75020 0.61510 0.98490 0.02400
C 	C 	0.50230 0.66300 0.19410 -0.00900
C 	C 	0.98450 0.71690 0.20070 0.07700
C 	C 	0.95490 0.55280 0.70830 0.03200
C 	C 	0.74370 0.60940 0.95670 -0.01600
C 	C 	0.79080 0.96300 0.18610 0.02400
C 	C 	0.75100 0.57290 0.61440 0.43200
C 	C 	0.76880 0.27410 0.18510 0.03000
C 	C 	0.86100 0.97900 0.69300 0.08100
C 	C 	0.04050 0.72460 0.20390 -0.02600
C 	C 	0.96410 0.68650 0.18410 -0.15400
C 	C 	0.77520 0.78360 0.66580 0.05900
O 	O 	0.77730 0.68350 0.66657 -0.44900
O 	O 	0.88360 0.70500 0.19960 -0.48600
O 	O 	0.80070 0.63210 0.12560 -0.49700
O 	O 	0.22810 0.77570 0.22270 -0.18900
O 	O 	0.80350 0.69900 0.24119 -0.48100
O 	O 	0.63010 0.53400 0.66047 -0.52200
O 	O 	0.85240 0.56140 0.70370 -0.52300
O 	O 	0.81160 0.55680 0.16994 -0.51400
O 	O 	0.82850 0.56120 0.96250 -0.16600
O 	O 	0.69800 0.55910 0.39620 -0.19400
O 	O 	0.67290 0.64600 0.90490 -0.21500
O 	O 	0.70830 0.45060 0.65881 -0.49900
O 	O 	0.76630 0.78330 0.16221 -0.51100
O 	O 	0.71710 0.54060 0.62190 -0.50800
O 	O 	0.70790 0.67670 0.69367 -0.51000
O 	O 	0.75050 0.69750 0.12303 -0.50700
O 	O 	0.65890 0.64620 0.17730 -0.45200
O 	O 	0.77830 0.60100 0.62476 -0.53600
O 	O 	0.66330 0.72040 0.16075 -0.45000
O 	O 	0.85340 0.03260 0.69710 -0.18000
O 	O 	0.88960 0.14160 0.17880 -0.14400
O 	O 	0.62800 0.58470 0.69359 -0.49900
O 	O 	0.66800 0.11640 0.67410 -0.18600
O 	O 	0.88480 0.64990 0.16771 -0.51500
O 	O 	0.74470 0.45500 0.69670 -0.49400
O 	O 	0.81840 0.67370 0.46428 -0.19200
O 	O 	0.86290 0.60780 0.66813 -0.46700
O 	O 	0.73580 0.55650 0.18999 -0.48000
O 	O 	0.75290 0.62880 0.23387 -0.49800
O 	O 	0.68680 0.20200 0.17600 -0.19200
O 	O 	0.76960 0.66999 0.18118 -0.95800
O 	O 	0.80060 0.78420 0.20137 -0.49000
O 	O 	0.31790 0.64360 0.15190 -0.19300
O 	O 	0.70650 0.59900 0.73613 -0.51000
O 	O 	0.76580 0.54060 0.73751 -0.51400
O 	O 	0.74110 0.56414 0.68019 -0.96000
O 	O 	0.29810 0.52260 0.72650 -0.18800
O 	O 	0.18020 0.53480 0.63930 -0.20000
Zn	Zn	0.30065 0.39427 0.29925 1.22000
Zn	Zn	0.21086 0.39033 0.33782 1.19600
Zn	Zn	0.18529 0.37144 0.83740 1.21600
Zn	Zn	0.19022 0.28863 0.79460 1.20600
Zn	Zn	0.29549 0.47687 0.34335 1.21700
Zn	Zn	0.26467 0.28597 0.84114 1.21200
Zn	Zn	0.21508 0.47943 0.29742 1.18900
Zn	Zn	0.28135 0.37223 0.79964 1.18900
C 	C 	0.06490 0.42470 0.31370 -0.10200
C 	C 	0.29530 0.21760 0.30590 0.04900
C 	C 	0.21590 0.38670 0.42560 0.05300
C 	C 	0.23760 0.37830 0.59600 -0.02400
C 	C 	0.51970 0.29600 0.81750 0.01600
C 	C 	0.27420 0.42080 0.55890 -0.01300
C 	C 	0.25940 0.30180 0.31780 0.35200
C 	C 	0.20840 0.38970 0.92490 0.05900
C 	C 	0.09360 0.32190 0.81658 0.42200
C 	C 	0.83570 0.28820 0.81160 0.02300
C 	C 	0.25290 0.41500 0.14450 -0.01400
C 	C 	0.36500 0.91120 0.34780 0.07100
C 	C 	0.70520 0.46970 0.31990 -0.02800
C 	C 	0.95950 0.27540 0.79610 -0.02600
C 	C 	0.86310 0.45810 0.31470 0.03600
C 	C 	0.98930 0.45470 0.29210 -0.01700
C 	C 	0.27120 0.54290 0.81280 0.04700
C 	C 	0.17930 0.60150 0.82340 -0.00500
C 	C 	0.21520 0.42640 0.08090 0.01800
C 	C 	0.20740 0.88480 0.81530 -0.01500
C 	C 	0.23190 0.37120 0.62300 0.03300
C 	C 	0.75170 0.26470 0.79350 0.09200
C 	C 	0.23240 0.36500 0.64520 -0.00700
C 	C 	0.22060 0.98160 0.81340 -0.00800
C 	C 	0.24290 0.39490 0.51750 0.03500
C 	C 	0.28750 0.70800 0.34010 -0.01100
C 	C 	0.17780 0.79780 0.81570 0.00500
C 	C 	0.22890 0.68320 0.81630 -0.00800
C 	C 	0.21140 0.35230 0.55420 0.11400
C 	C 	0.22880 0.35810 0.67140 0.02000
C 	C 	0.43800 0.26780 0.83220 0.03800
C 	C 	0.88230 0.29590 0.81480 -0.01200
C 	C 	0.27030 0.41430 0.58640 0.10600
C 	C 	0.27690 0.45270 0.45860 -0.01700
C 	C 	0.20110 0.30890 0.70710 0.05400
C 	C 	0.65070 0.47130 0.32060 0.03600
C 	C 	0.18290 0.53830 0.82160 0.04100
C 	C 	0.93610 0.29860 0.81630 0.02700
C 	C 	0.24490 0.88180 0.31660 -0.04000
C 	C 	0.19990 0.95880 0.31150 0.08000
C 	C 	0.26680 0.32710 0.95490 -0.02300
C 	C 	0.52800 0.43580 0.30350 -0.02400
C 	C 	0.57790 0.29110 0.81470 -0.01000
C 	C 	0.25400 0.39530 0.68750 -0.01300
C 	C 	0.01550 0.28310 0.79930 0.07700
C 	C 	0.47300 0.47710 0.34140 0.07100
C 	C 	0.67540 0.28920 0.81410 -0.03000
C 	C 	0.27560 0.59890 0.81250 -0.00900
C 	C 	0.35600 0.30490 0.82280 0.26200
C 	C 	0.14650 0.28650 0.54540 0.07300
C 	C 	0.20700 0.13890 0.81790 -0.13200
C 	C 	0.26440 0.78700 0.31970 -0.00500
C 	C 	0.79020 0.46690 0.33810 0.11300
C 	C 	0.49770 0.33700 0.80590 -0.00900
C 	C 	0.69920 0.26280 0.79490 0.00000
C 	C 	0.25470 0.04180 0.32200 0.01600
C 	C 	0.25070 0.82790 0.31600 0.03500
C 	C 	0.26710 0.81800 0.81440 0.10700
C 	C 	0.22810 0.62160 0.81250 0.01100
C 	C 	0.80000 0.47180 0.38540 0.10400
C 	C 	0.23290 0.34790 0.91490 -0.12300
C 	C 	0.29540 0.38380 0.08350 0.13700
C 	C 	0.22290 0.16380 0.33310 -0.02000
C 	C 	0.24900 0.42710 0.38560 0.43200
C 	C 	0.28190 0.45180 0.43010 0.05500
C 	C 	0.29510 0.37360 0.05520 -0.02100
C 	C 	0.31500 0.80200 0.85130 0.08300
C 	C 	0.47540 0.42860 0.30290 0.06500
C 	C 	0.95470 0.33250 0.83250 -0.02900
C 	C 	0.37360 0.34390 0.08300 0.09000
C 	C 	0.26420 0.56310 0.32570 0.35500
C 	C 	0.20570 0.31560 0.68060 -0.01500
C 	C 	0.24320 0.98680 0.31880 -0.01900
C 	C 	0.70400 0.31750 0.83190 0.10000
C 	C 	0.21570 0.38440 0.45320 -0.01500
C 	C 	0.26970 0.62540 0.32170 -0.06900
C 	C 	0.73370 0.47000 0.34260 -0.00600
C 	C 	0.48980 0.26140 0.83060 -0.01000
C 	C 	0.28820 0.90970 0.32390 0.12000
C 	C 	0.21880 0.11710 0.83900 0.06500
C 	C 	0.52950 0.48080 0.34280 -0.02200
C 	C 	0.25730 0.13810 0.31840 0.01900
C 	C 	0.26140 0.42210 0.17230 0.02300
C 	C 	0.03630 0.40620 0.33310 0.05000
C 	C 	0.73130 0.47310 0.29840 0.08700
C 	C 	0.72830 0.48820 0.25070 0.07900
C 	C 	0.22310 0.05920 0.83560 -0.01800
C 	C 	0.29510 0.39120 0.18410 -0.01900
C 	C 	0.33990 0.47690 0.59310 0.08000
C 	C 	0.24980 0.38490 0.01510 0.02400
C 	C 	0.22000 0.45820 0.81730 0.38500
C 	C 	0.96390 0.44250 0.31310 0.02000
C 	C 	0.55420 0.46040 0.32190 0.02800
C 	C 	0.71200 0.40070 0.84820 0.09000
C 	C 	0.12670 0.46880 0.05220 0.07300
C 	C 	0.22040 0.33880 0.75040 0.35000
C 	C 	0.78360 0.46950 0.29280 -0.00300
C 	C 	0.24800 0.41010 0.46780 0.02000
C 	C 	0.25320 0.40500 0.09320 -0.05500
C 	C 	0.24270 0.69980 0.30010 -0.01600
C 	C 	0.20550 0.34780 0.57940 -0.02500
C 	C 	0.61980 0.29470 0.81830 0.03400
C 	C 	0.98280 0.41700 0.33250 -0.01800
C 	C 	0.19320 0.11300 0.79640 0.06700
C 	C 	0.29180 0.39230 0.21190 0.06100
C 	C 	0.21240 0.39540 0.95200 -0.01600
C 	C 	0.22370 0.44630 0.18280 -0.02100
C 	C 	0.19390 0.06020 0.79280 -0.02300
C 	C 	0.75650 0.31940 0.83050 -0.01600
C 	C 	0.80200 0.24000 0.75730 0.09100
C 	C 	0.41600 0.30880 0.82060 -0.06700
C 	C 	0.22700 0.33740 0.88538 0.43500
C 	C 	0.12310 0.41370 0.31050 0.36900
C 	C 	0.04510 0.44720 0.29170 0.03200
C 	C 	0.26100 0.24330 0.32060 -0.09500
C 	C 	0.22750 0.78230 0.81500 -0.03100
C 	C 	0.44590 0.34340 0.80750 0.01900
C 	C 	0.24350 0.38980 0.54460 -0.03100
C 	C 	0.26340 0.32030 0.92850 0.06900
C 	C 	0.22410 0.45240 0.21050 0.05500
C 	C 	0.21600 0.41680 0.05270 0.07400
C 	C 	0.16770 0.84910 0.81590 0.07500
C 	C 	0.29350 0.16500 0.30480 -0.01800
C 	C 	0.24200 0.36720 0.96440 0.02400
C 	C 	0.23120 0.72590 0.81490 0.03000
C 	C 	0.28740 0.96230 0.32500 -0.02300
C 	C 	0.03590 0.31350 0.81590 -0.15400
C 	C 	0.26350 0.73000 0.31960 0.01600
C 	C 	0.25330 0.38700 0.71500 0.04900
C 	C 	0.60890 0.46660 0.32430 -0.01700
C 	C 	0.20320 0.93910 0.81550 0.02300
C 	C 	0.24930 0.42270 0.41620 -0.11200
C 	C 	0.90770 0.45420 0.31340 -0.01500
C 	C 	0.13900 0.02100 0.30700 0.08100
C 	C 	0.21830 0.19620 0.81870 0.40500
C 	C 	0.78030 0.29300 0.81130 -0.02500
C 	C 	0.26200 0.42700 0.22490 -0.13700
C 	C 	0.24920 0.37630 0.99170 -0.00500
C 	C 	0.22590 0.34550 0.72310 -0.12800
C 	C 	0.24580 0.64740 0.30110 0.02800
C 	C 	0.00830 0.33770 0.83240 0.07800
C 	C 	0.24570 0.40380 0.49450 -0.01000
C 	C 	0.80980 0.46630 0.31530 -0.04600
C 	C 	0.20070 0.90630 0.31040 0.01300
C 	C 	0.26230 0.42880 0.25290 0.43700
C 	C 	0.25900 0.41460 0.12170 0.03600
C 	C 	0.25710 0.86930 0.81460 -0.01800
C 	C 	0.25840 0.08520 0.31670 -0.01000
C 	C 	0.39070 0.44280 0.32440 0.46800
C 	C 	0.25630 0.39060 0.04330 -0.01600
C 	C 	0.22670 0.52480 0.81490 -0.07900
C 	C 	0.20920 0.03700 0.81390 0.02400
C 	C 	0.44870 0.44920 0.32360 -0.14200
C 	C 	0.22480 0.21640 0.33420 0.05900
C 	C 	0.29060 0.65570 0.34120 0.04100
O 	O 	0.24950 0.30250 0.87697 -0.50700
O 	O 	0.11520 0.35010 0.83229 -0.51500
O 	O 	0.23370 0.21670 0.83779 -0.51100
O 	O 	0.29350 0.40100 0.26387 -0.51000
O 	O 	0.33670 0.27960 0.83925 -0.45000
O 	O 	0.37200 0.41530 0.30641 -0.49900
O 	O 	0.29170 0.54940 0.34119 -0.49900
O 	O 	0.11640 0.29500 0.80040 -0.48600
O 	O 	0.32710 0.35400 0.09510 -0.21500
O 	O 	0.23040 0.33001 0.81882 -0.95800
O 	O 	0.18160 0.32630 0.53572 -0.19200
O 	O 	0.28290 0.45940 0.37810 -0.50800
O 	O 	0.22170 0.39900 0.37524 -0.53600
O 	O 	0.11040 0.85840 0.82120 -0.14400
O 	O 	0.77190 0.22430 0.77730 -0.18900
O 	O 	0.33200 0.88360 0.32590 -0.18600
O 	O 	0.81980 0.46520 0.36070 -0.20000
O 	O 	0.25530 0.54500 0.30330 -0.49400
O 	O 	0.13710 0.39220 0.33187 -0.46700
O 	O 	0.14760 0.43860 0.29630 -0.52300
O 	O 	0.14660 0.96740 0.30290 -0.18000
O 	O 	0.19650 0.30100 0.75881 -0.48100
O 	O 	0.19930 0.36790 0.87440 -0.49700
O 	O 	0.25890 0.43586 0.31981 -0.96000
O 	O 	0.18840 0.44320 0.83006 -0.51400
O 	O 	0.22270 0.31650 0.33343 -0.44900
O 	O 	0.30200 0.44090 0.60380 -0.19400
O 	O 	0.31320 0.79800 0.82400 -0.19200
O 	O 	0.34110 0.35380 0.82270 -0.45200
O 	O 	0.68210 0.35640 0.84810 -0.19300
O 	O 	0.23420 0.45940 0.26249 -0.51400
O 	O 	0.19940 0.21580 0.79863 -0.49000
O 	O 	0.36990 0.46600 0.33953 -0.52200
O 	O 	0.24710 0.37120 0.76613 -0.49800
O 	O 	0.70190 0.47740 0.27350 -0.18800
O 	O 	0.17150 0.43880 0.03750 -0.16600
O 	O 	0.29210 0.32330 0.30633 -0.51000
O 	O 	0.26420 0.44350 0.81001 -0.48000
