data_crystal

_cell_length_a 35.57350
_cell_length_b 35.57350
_cell_length_c 18.28200
_cell_angle_alpha 90.00000
_cell_angle_beta  90.00000
_cell_angle_gamma 120.00000

_symmetry_space_group_name_	'P 1'
_symmetry_space_group_name_H-M	'P 1'

loop_
_symmetry_equiv_pos_as_xyz
  x,y,z

loop_
_atom_site_label
_atom_site_type_symbol
_atom_site_fract_x
_atom_site_fract_y
_atom_site_fract_z
_atom_site_charge
O 	O 	0.47746 0.44556 0.57996 -0.40800
O 	O 	0.48852 0.43413 0.46319 -0.41400
C 	C 	0.47783 0.42225 0.52710 0.37400
C 	C 	0.46436 0.37618 0.54624 -0.13700
C 	C 	0.46365 0.34819 0.49340 0.07400
H 	H 	0.47240 0.35820 0.44480 0.02400
C 	C 	0.44993 0.30468 0.51150 -0.15400
H 	H 	0.45090 0.28600 0.47540 0.09700
C 	C 	0.43547 0.28927 0.57890 0.12300
C 	C 	0.43668 0.31751 0.63270 -0.15300
H 	H 	0.42770 0.30740 0.68130 0.08700
C 	C 	0.45123 0.36073 0.61470 0.07800
H 	H 	0.45190 0.37990 0.65160 0.02300
C 	C 	0.41615 0.24204 0.59700 -0.07500
C 	C 	0.37654 0.22145 0.63120 -0.03500
H 	H 	0.36290 0.23780 0.64270 0.04400
C 	C 	0.55020 0.25580 0.53850 -0.00700
C 	C 	0.52110 0.27880 0.64010 -0.03800
O 	O 	0.14413 0.77889 0.91329 -0.40700
O 	O 	0.15519 0.76746 0.79652 -0.41300
C 	C 	0.14450 0.75558 0.86043 0.37500
C 	C 	0.13103 0.70951 0.87957 -0.13600
C 	C 	0.13032 0.68152 0.82673 0.07500
H 	H 	0.13907 0.69153 0.77813 0.02500
C 	C 	0.11660 0.63801 0.84483 -0.15300
H 	H 	0.11757 0.61933 0.80873 0.09800
C 	C 	0.10214 0.62260 0.91223 0.12400
C 	C 	0.10335 0.65084 0.96603 -0.15200
H 	H 	0.09437 0.64073 0.01463 0.08700
C 	C 	0.11790 0.69406 0.94803 0.07800
H 	H 	0.11857 0.71323 0.98493 0.02300
C 	C 	0.08282 0.57537 0.93033 -0.07500
C 	C 	0.04321 0.55478 0.96453 -0.03500
H 	H 	0.02957 0.57113 0.97603 0.04400
C 	C 	0.21687 0.58913 0.87183 -0.00700
C 	C 	0.18777 0.61213 0.97343 -0.03800
O 	O 	0.81079 0.11223 0.24663 -0.40700
O 	O 	0.82185 0.10080 0.12986 -0.41300
C 	C 	0.81116 0.08892 0.19377 0.37500
C 	C 	0.79769 0.04285 0.21291 -0.13600
C 	C 	0.79698 0.01486 0.16007 0.07500
H 	H 	0.80573 0.02487 0.11147 0.02500
C 	C 	0.78326 0.97135 0.17817 -0.15300
H 	H 	0.78423 0.95267 0.14207 0.09800
C 	C 	0.76880 0.95594 0.24557 0.12400
C 	C 	0.77001 0.98418 0.29937 -0.15200
H 	H 	0.76103 0.97407 0.34797 0.08700
C 	C 	0.78456 0.02740 0.28137 0.07800
H 	H 	0.78523 0.04657 0.31827 0.02300
C 	C 	0.74948 0.90871 0.26367 -0.07500
C 	C 	0.70987 0.88812 0.29787 -0.03500
H 	H 	0.69623 0.90447 0.30937 0.04400
C 	C 	0.88353 0.92247 0.20517 -0.00700
C 	C 	0.85443 0.94547 0.30677 -0.03800
O 	O 	0.55444 0.03190 0.57996 -0.40700
O 	O 	0.56587 0.05439 0.46319 -0.41300
C 	C 	0.57775 0.05558 0.52710 0.37500
C 	C 	0.62382 0.08818 0.54624 -0.13600
C 	C 	0.65181 0.11546 0.49340 0.07500
H 	H 	0.64180 0.11420 0.44480 0.02500
C 	C 	0.69532 0.14525 0.51150 -0.15300
H 	H 	0.71400 0.16490 0.47540 0.09800
C 	C 	0.71073 0.14620 0.57890 0.12400
C 	C 	0.68249 0.11917 0.63270 -0.15200
H 	H 	0.69260 0.12030 0.68130 0.08700
C 	C 	0.63927 0.09050 0.61470 0.07800
H 	H 	0.62010 0.07200 0.65160 0.02300
C 	C 	0.75796 0.17411 0.59700 -0.07500
C 	C 	0.77855 0.15509 0.63120 -0.03500
H 	H 	0.76220 0.12510 0.64270 0.04400
C 	C 	0.74420 0.29440 0.53850 -0.00700
C 	C 	0.72120 0.24230 0.64010 -0.03800
O 	O 	0.22111 0.36523 0.91329 -0.40700
O 	O 	0.23254 0.38772 0.79652 -0.41300
C 	C 	0.24442 0.38891 0.86043 0.37500
C 	C 	0.29049 0.42151 0.87957 -0.13600
C 	C 	0.31848 0.44879 0.82673 0.07500
H 	H 	0.30847 0.44753 0.77813 0.02500
C 	C 	0.36199 0.47858 0.84483 -0.15300
H 	H 	0.38067 0.49823 0.80873 0.09800
C 	C 	0.37740 0.47953 0.91223 0.12400
C 	C 	0.34916 0.45250 0.96603 -0.15200
H 	H 	0.35927 0.45363 0.01463 0.08700
C 	C 	0.30594 0.42383 0.94803 0.07800
H 	H 	0.28677 0.40533 0.98493 0.02300
C 	C 	0.42463 0.50744 0.93033 -0.07500
C 	C 	0.44522 0.48842 0.96453 -0.03500
H 	H 	0.42887 0.45843 0.97603 0.04400
C 	C 	0.41087 0.62773 0.87183 -0.00700
C 	C 	0.38787 0.57563 0.97343 -0.03800
O 	O 	0.88777 0.69857 0.24663 -0.40700
O 	O 	0.89920 0.72106 0.12986 -0.41300
C 	C 	0.91108 0.72225 0.19377 0.37500
C 	C 	0.95715 0.75485 0.21291 -0.13600
C 	C 	0.98514 0.78213 0.16007 0.07500
H 	H 	0.97513 0.78087 0.11147 0.02500
C 	C 	0.02865 0.81192 0.17817 -0.15300
H 	H 	0.04733 0.83157 0.14207 0.09800
C 	C 	0.04406 0.81287 0.24557 0.12400
C 	C 	0.01582 0.78584 0.29937 -0.15200
H 	H 	0.02593 0.78697 0.34797 0.08700
C 	C 	0.97260 0.75717 0.28137 0.07800
H 	H 	0.95343 0.73867 0.31827 0.02300
C 	C 	0.09129 0.84078 0.26367 -0.07500
C 	C 	0.11188 0.82176 0.29787 -0.03500
H 	H 	0.09553 0.79177 0.30937 0.04400
C 	C 	0.07753 0.96107 0.20517 -0.00700
C 	C 	0.05453 0.90897 0.30677 -0.03800
O 	O 	0.96810 0.52254 0.57996 -0.40700
O 	O 	0.94561 0.51148 0.46319 -0.41300
C 	C 	0.94442 0.52217 0.52710 0.37500
C 	C 	0.91182 0.53564 0.54624 -0.13600
C 	C 	0.88454 0.53635 0.49340 0.07500
H 	H 	0.88580 0.52760 0.44480 0.02500
C 	C 	0.85475 0.55007 0.51150 -0.15300
H 	H 	0.83510 0.54910 0.47540 0.09800
C 	C 	0.85380 0.56453 0.57890 0.12400
C 	C 	0.88083 0.56332 0.63270 -0.15200
H 	H 	0.87970 0.57230 0.68130 0.08700
C 	C 	0.90950 0.54877 0.61470 0.07800
H 	H 	0.92800 0.54810 0.65160 0.02300
C 	C 	0.82589 0.58385 0.59700 -0.07500
C 	C 	0.84491 0.62346 0.63120 -0.03500
H 	H 	0.87490 0.63710 0.64270 0.04400
C 	C 	0.70560 0.44980 0.53850 -0.00700
C 	C 	0.75770 0.47890 0.64010 -0.03800
O 	O 	0.63477 0.85587 0.91329 -0.40700
O 	O 	0.61228 0.84481 0.79652 -0.41300
C 	C 	0.61109 0.85550 0.86043 0.37500
C 	C 	0.57849 0.86897 0.87957 -0.13600
C 	C 	0.55121 0.86968 0.82673 0.07500
H 	H 	0.55247 0.86093 0.77813 0.02500
C 	C 	0.52142 0.88340 0.84483 -0.15300
H 	H 	0.50177 0.88243 0.80873 0.09800
C 	C 	0.52047 0.89786 0.91223 0.12400
C 	C 	0.54750 0.89665 0.96603 -0.15200
H 	H 	0.54637 0.90563 0.01463 0.08700
C 	C 	0.57617 0.88210 0.94803 0.07800
H 	H 	0.59467 0.88143 0.98493 0.02300
C 	C 	0.49256 0.91718 0.93033 -0.07500
C 	C 	0.51158 0.95679 0.96453 -0.03500
H 	H 	0.54157 0.97043 0.97603 0.04400
C 	C 	0.37227 0.78313 0.87183 -0.00700
C 	C 	0.42437 0.81223 0.97343 -0.03800
O 	O 	0.30143 0.18921 0.24663 -0.40700
O 	O 	0.27894 0.17815 0.12986 -0.41300
C 	C 	0.27775 0.18884 0.19377 0.37500
C 	C 	0.24515 0.20231 0.21291 -0.13600
C 	C 	0.21787 0.20302 0.16007 0.07500
H 	H 	0.21913 0.19427 0.11147 0.02500
C 	C 	0.18808 0.21674 0.17817 -0.15300
H 	H 	0.16843 0.21577 0.14207 0.09800
C 	C 	0.18713 0.23120 0.24557 0.12400
C 	C 	0.21416 0.22999 0.29937 -0.15200
H 	H 	0.21303 0.23897 0.34797 0.08700
C 	C 	0.24283 0.21544 0.28137 0.07800
H 	H 	0.26133 0.21477 0.31827 0.02300
C 	C 	0.15922 0.25052 0.26367 -0.07500
C 	C 	0.17824 0.29013 0.29787 -0.03500
H 	H 	0.20823 0.30377 0.30937 0.04400
C 	C 	0.03893 0.11647 0.20517 -0.00700
C 	C 	0.09103 0.14557 0.30677 -0.03800
O 	O 	0.44556 0.47746 0.42004 -0.40700
O 	O 	0.43413 0.48852 0.53681 -0.41300
C 	C 	0.42225 0.47783 0.47290 0.37500
C 	C 	0.37618 0.46436 0.45376 -0.13600
C 	C 	0.34819 0.46365 0.50660 0.07500
H 	H 	0.35820 0.47240 0.55520 0.02500
C 	C 	0.30468 0.44993 0.48850 -0.15300
H 	H 	0.28600 0.45090 0.52460 0.09800
C 	C 	0.28927 0.43547 0.42110 0.12400
C 	C 	0.31751 0.43668 0.36730 -0.15200
H 	H 	0.30740 0.42770 0.31870 0.08700
C 	C 	0.36073 0.45123 0.38530 0.07800
H 	H 	0.37990 0.45190 0.34840 0.02300
C 	C 	0.24204 0.41615 0.40300 -0.07500
C 	C 	0.22145 0.37654 0.36880 -0.03500
H 	H 	0.23780 0.36290 0.35730 0.04400
C 	C 	0.25580 0.55020 0.46150 -0.00700
C 	C 	0.27880 0.52110 0.35990 -0.03800
O 	O 	0.11223 0.81079 0.75337 -0.40700
O 	O 	0.10080 0.82185 0.87014 -0.41300
C 	C 	0.08892 0.81116 0.80623 0.37500
C 	C 	0.04285 0.79769 0.78709 -0.13600
C 	C 	0.01486 0.79698 0.83993 0.07500
H 	H 	0.02487 0.80573 0.88853 0.02500
C 	C 	0.97135 0.78326 0.82183 -0.15300
H 	H 	0.95267 0.78423 0.85793 0.09800
C 	C 	0.95594 0.76880 0.75443 0.12400
C 	C 	0.98418 0.77001 0.70063 -0.15200
H 	H 	0.97407 0.76103 0.65203 0.08700
C 	C 	0.02740 0.78456 0.71863 0.07800
H 	H 	0.04657 0.78523 0.68173 0.02300
C 	C 	0.90871 0.74948 0.73633 -0.07500
C 	C 	0.88812 0.70987 0.70213 -0.03500
H 	H 	0.90447 0.69623 0.69063 0.04400
C 	C 	0.92247 0.88353 0.79483 -0.00700
C 	C 	0.94547 0.85443 0.69323 -0.03800
O 	O 	0.77889 0.14413 0.08671 -0.40700
O 	O 	0.76746 0.15519 0.20348 -0.41300
C 	C 	0.75558 0.14450 0.13957 0.37500
C 	C 	0.70951 0.13103 0.12043 -0.13600
C 	C 	0.68152 0.13032 0.17327 0.07500
H 	H 	0.69153 0.13907 0.22187 0.02500
C 	C 	0.63801 0.11660 0.15517 -0.15300
H 	H 	0.61933 0.11757 0.19127 0.09800
C 	C 	0.62260 0.10214 0.08777 0.12400
C 	C 	0.65084 0.10335 0.03397 -0.15200
H 	H 	0.64073 0.09437 0.98537 0.08700
C 	C 	0.69406 0.11790 0.05197 0.07800
H 	H 	0.71323 0.11857 0.01507 0.02300
C 	C 	0.57537 0.08282 0.06967 -0.07500
C 	C 	0.55478 0.04321 0.03547 -0.03500
H 	H 	0.57113 0.02957 0.02397 0.04400
C 	C 	0.58913 0.21687 0.12817 -0.00700
C 	C 	0.61213 0.18777 0.02657 -0.03800
O 	O 	0.03190 0.55444 0.42004 -0.40700
O 	O 	0.05439 0.56587 0.53681 -0.41300
C 	C 	0.05558 0.57775 0.47290 0.37500
C 	C 	0.08818 0.62382 0.45376 -0.13600
C 	C 	0.11546 0.65181 0.50660 0.07500
H 	H 	0.11420 0.64180 0.55520 0.02500
C 	C 	0.14525 0.69532 0.48850 -0.15300
H 	H 	0.16490 0.71400 0.52460 0.09800
C 	C 	0.14620 0.71073 0.42110 0.12400
C 	C 	0.11917 0.68249 0.36730 -0.15200
H 	H 	0.12030 0.69260 0.31870 0.08700
C 	C 	0.09050 0.63927 0.38530 0.07800
H 	H 	0.07200 0.62010 0.34840 0.02300
C 	C 	0.17411 0.75796 0.40300 -0.07500
C 	C 	0.15509 0.77855 0.36880 -0.03500
H 	H 	0.12510 0.76220 0.35730 0.04400
C 	C 	0.29440 0.74420 0.46150 -0.00700
C 	C 	0.24230 0.72120 0.35990 -0.03800
O 	O 	0.69857 0.88777 0.75337 -0.40700
O 	O 	0.72106 0.89920 0.87014 -0.41300
C 	C 	0.72225 0.91108 0.80623 0.37500
C 	C 	0.75485 0.95715 0.78709 -0.13600
C 	C 	0.78213 0.98514 0.83993 0.07500
H 	H 	0.78087 0.97513 0.88853 0.02500
C 	C 	0.81192 0.02865 0.82183 -0.15300
H 	H 	0.83157 0.04733 0.85793 0.09800
C 	C 	0.81287 0.04406 0.75443 0.12400
C 	C 	0.78584 0.01582 0.70063 -0.15200
H 	H 	0.78697 0.02593 0.65203 0.08700
C 	C 	0.75717 0.97260 0.71863 0.07800
H 	H 	0.73867 0.95343 0.68173 0.02300
C 	C 	0.84078 0.09129 0.73633 -0.07500
C 	C 	0.82176 0.11188 0.70213 -0.03500
H 	H 	0.79177 0.09553 0.69063 0.04400
C 	C 	0.96107 0.07753 0.79483 -0.00700
C 	C 	0.90897 0.05453 0.69323 -0.03800
O 	O 	0.36523 0.22111 0.08671 -0.40700
O 	O 	0.38772 0.23254 0.20348 -0.41300
C 	C 	0.38891 0.24442 0.13957 0.37500
C 	C 	0.42151 0.29049 0.12043 -0.13600
C 	C 	0.44879 0.31848 0.17327 0.07500
H 	H 	0.44753 0.30847 0.22187 0.02500
C 	C 	0.47858 0.36199 0.15517 -0.15300
H 	H 	0.49823 0.38067 0.19127 0.09800
C 	C 	0.47953 0.37740 0.08777 0.12400
C 	C 	0.45250 0.34916 0.03397 -0.15200
H 	H 	0.45363 0.35927 0.98537 0.08700
C 	C 	0.42383 0.30594 0.05197 0.07800
H 	H 	0.40533 0.28677 0.01507 0.02300
C 	C 	0.50744 0.42463 0.06967 -0.07500
C 	C 	0.48842 0.44522 0.03547 -0.03500
H 	H 	0.45843 0.42887 0.02397 0.04400
C 	C 	0.62773 0.41087 0.12817 -0.00700
C 	C 	0.57563 0.38787 0.02657 -0.03800
O 	O 	0.52254 0.96810 0.42004 -0.40700
O 	O 	0.51148 0.94561 0.53681 -0.41300
C 	C 	0.52217 0.94442 0.47290 0.37500
C 	C 	0.53564 0.91182 0.45376 -0.13600
C 	C 	0.53635 0.88454 0.50660 0.07500
H 	H 	0.52760 0.88580 0.55520 0.02500
C 	C 	0.55007 0.85475 0.48850 -0.15300
H 	H 	0.54910 0.83510 0.52460 0.09800
C 	C 	0.56453 0.85380 0.42110 0.12400
C 	C 	0.56332 0.88083 0.36730 -0.15200
H 	H 	0.57230 0.87970 0.31870 0.08700
C 	C 	0.54877 0.90950 0.38530 0.07800
H 	H 	0.54810 0.92800 0.34840 0.02300
C 	C 	0.58385 0.82589 0.40300 -0.07500
C 	C 	0.62346 0.84491 0.36880 -0.03500
H 	H 	0.63710 0.87490 0.35730 0.04400
C 	C 	0.44980 0.70560 0.46150 -0.00700
C 	C 	0.47890 0.75770 0.35990 -0.03800
O 	O 	0.18921 0.30143 0.75337 -0.40700
O 	O 	0.17815 0.27894 0.87014 -0.41300
C 	C 	0.18884 0.27775 0.80623 0.37500
C 	C 	0.20231 0.24515 0.78709 -0.13600
C 	C 	0.20302 0.21787 0.83993 0.07500
H 	H 	0.19427 0.21913 0.88853 0.02500
C 	C 	0.21674 0.18808 0.82183 -0.15300
H 	H 	0.21577 0.16843 0.85793 0.09800
C 	C 	0.23120 0.18713 0.75443 0.12400
C 	C 	0.22999 0.21416 0.70063 -0.15200
H 	H 	0.23897 0.21303 0.65203 0.08700
C 	C 	0.21544 0.24283 0.71863 0.07800
H 	H 	0.21477 0.26133 0.68173 0.02300
C 	C 	0.25052 0.15922 0.73633 -0.07500
C 	C 	0.29013 0.17824 0.70213 -0.03500
H 	H 	0.30377 0.20823 0.69063 0.04400
C 	C 	0.11647 0.03893 0.79483 -0.00700
C 	C 	0.14557 0.09103 0.69323 -0.03800
O 	O 	0.85587 0.63477 0.08671 -0.40700
O 	O 	0.84481 0.61228 0.20348 -0.41300
C 	C 	0.85550 0.61109 0.13957 0.37500
C 	C 	0.86897 0.57849 0.12043 -0.13600
C 	C 	0.86968 0.55121 0.17327 0.07500
H 	H 	0.86093 0.55247 0.22187 0.02500
C 	C 	0.88340 0.52142 0.15517 -0.15300
H 	H 	0.88243 0.50177 0.19127 0.09800
C 	C 	0.89786 0.52047 0.08777 0.12400
C 	C 	0.89665 0.54750 0.03397 -0.15200
H 	H 	0.90563 0.54637 0.98537 0.08700
C 	C 	0.88210 0.57617 0.05197 0.07800
H 	H 	0.88143 0.59467 0.01507 0.02300
C 	C 	0.91718 0.49256 0.06967 -0.07500
C 	C 	0.95679 0.51158 0.03547 -0.03500
H 	H 	0.97043 0.54157 0.02397 0.04400
C 	C 	0.78313 0.37227 0.12817 -0.00700
C 	C 	0.81223 0.42437 0.02657 -0.03800
O 	O 	0.52254 0.55444 0.42004 -0.40700
O 	O 	0.51148 0.56587 0.53681 -0.41300
C 	C 	0.52217 0.57775 0.47290 0.37500
C 	C 	0.53564 0.62382 0.45376 -0.13600
C 	C 	0.53635 0.65181 0.50660 0.07500
H 	H 	0.52760 0.64180 0.55520 0.02500
C 	C 	0.55007 0.69532 0.48850 -0.15300
H 	H 	0.54910 0.71400 0.52460 0.09800
C 	C 	0.56453 0.71073 0.42110 0.12400
C 	C 	0.56332 0.68249 0.36730 -0.15200
H 	H 	0.57230 0.69260 0.31870 0.08700
C 	C 	0.54877 0.63927 0.38530 0.07800
H 	H 	0.54810 0.62010 0.34840 0.02300
C 	C 	0.58385 0.75796 0.40300 -0.07500
C 	C 	0.62346 0.77855 0.36880 -0.03500
H 	H 	0.63710 0.76220 0.35730 0.04400
C 	C 	0.44980 0.74420 0.46150 -0.00700
C 	C 	0.47890 0.72120 0.35990 -0.03800
O 	O 	0.18921 0.88777 0.75337 -0.40700
O 	O 	0.17815 0.89920 0.87014 -0.41300
C 	C 	0.18884 0.91108 0.80623 0.37500
C 	C 	0.20231 0.95715 0.78709 -0.13600
C 	C 	0.20302 0.98514 0.83993 0.07500
H 	H 	0.19427 0.97513 0.88853 0.02500
C 	C 	0.21674 0.02865 0.82183 -0.15300
H 	H 	0.21577 0.04733 0.85793 0.09800
C 	C 	0.23120 0.04406 0.75443 0.12400
C 	C 	0.22999 0.01582 0.70063 -0.15200
H 	H 	0.23897 0.02593 0.65203 0.08700
C 	C 	0.21544 0.97260 0.71863 0.07800
H 	H 	0.21477 0.95343 0.68173 0.02300
C 	C 	0.25052 0.09129 0.73633 -0.07500
C 	C 	0.29013 0.11188 0.70213 -0.03500
H 	H 	0.30377 0.09553 0.69063 0.04400
C 	C 	0.11647 0.07753 0.79483 -0.00700
C 	C 	0.14557 0.05453 0.69323 -0.03800
O 	O 	0.85587 0.22111 0.08671 -0.40700
O 	O 	0.84481 0.23254 0.20348 -0.41300
C 	C 	0.85550 0.24442 0.13957 0.37500
C 	C 	0.86897 0.29049 0.12043 -0.13600
C 	C 	0.86968 0.31848 0.17327 0.07500
H 	H 	0.86093 0.30847 0.22187 0.02500
C 	C 	0.88340 0.36199 0.15517 -0.15300
H 	H 	0.88243 0.38067 0.19127 0.09800
C 	C 	0.89786 0.37740 0.08777 0.12400
C 	C 	0.89665 0.34916 0.03397 -0.15200
H 	H 	0.90563 0.35927 0.98537 0.08700
C 	C 	0.88210 0.30594 0.05197 0.07800
H 	H 	0.88143 0.28677 0.01507 0.02300
C 	C 	0.91718 0.42463 0.06967 -0.07500
C 	C 	0.95679 0.44522 0.03547 -0.03500
H 	H 	0.97043 0.42887 0.02397 0.04400
C 	C 	0.78313 0.41087 0.12817 -0.00700
C 	C 	0.81223 0.38787 0.02657 -0.03800
O 	O 	0.44556 0.96810 0.42004 -0.40700
O 	O 	0.43413 0.94561 0.53681 -0.41300
C 	C 	0.42225 0.94442 0.47290 0.37500
C 	C 	0.37618 0.91182 0.45376 -0.13600
C 	C 	0.34819 0.88454 0.50660 0.07500
H 	H 	0.35820 0.88580 0.55520 0.02500
C 	C 	0.30468 0.85475 0.48850 -0.15300
H 	H 	0.28600 0.83510 0.52460 0.09800
C 	C 	0.28927 0.85380 0.42110 0.12400
C 	C 	0.31751 0.88083 0.36730 -0.15200
H 	H 	0.30740 0.87970 0.31870 0.08700
C 	C 	0.36073 0.90950 0.38530 0.07800
H 	H 	0.37990 0.92800 0.34840 0.02300
C 	C 	0.24204 0.82589 0.40300 -0.07500
C 	C 	0.22145 0.84491 0.36880 -0.03500
H 	H 	0.23780 0.87490 0.35730 0.04400
C 	C 	0.25580 0.70560 0.46150 -0.00700
C 	C 	0.27880 0.75770 0.35990 -0.03800
O 	O 	0.11223 0.30143 0.75337 -0.40700
O 	O 	0.10080 0.27894 0.87014 -0.41300
C 	C 	0.08892 0.27775 0.80623 0.37500
C 	C 	0.04285 0.24515 0.78709 -0.13600
C 	C 	0.01486 0.21787 0.83993 0.07500
H 	H 	0.02487 0.21913 0.88853 0.02500
C 	C 	0.97135 0.18808 0.82183 -0.15300
H 	H 	0.95267 0.16843 0.85793 0.09800
C 	C 	0.95594 0.18713 0.75443 0.12400
C 	C 	0.98418 0.21416 0.70063 -0.15200
H 	H 	0.97407 0.21303 0.65203 0.08700
C 	C 	0.02740 0.24283 0.71863 0.07800
H 	H 	0.04657 0.26133 0.68173 0.02300
C 	C 	0.90871 0.15922 0.73633 -0.07500
C 	C 	0.88812 0.17824 0.70213 -0.03500
H 	H 	0.90447 0.20823 0.69063 0.04400
C 	C 	0.92247 0.03893 0.79483 -0.00700
C 	C 	0.94547 0.09103 0.69323 -0.03800
O 	O 	0.77889 0.63477 0.08671 -0.40700
O 	O 	0.76746 0.61228 0.20348 -0.41300
C 	C 	0.75558 0.61109 0.13957 0.37500
C 	C 	0.70951 0.57849 0.12043 -0.13600
C 	C 	0.68152 0.55121 0.17327 0.07500
H 	H 	0.69153 0.55247 0.22187 0.02500
C 	C 	0.63801 0.52142 0.15517 -0.15300
H 	H 	0.61933 0.50177 0.19127 0.09800
C 	C 	0.62260 0.52047 0.08777 0.12400
C 	C 	0.65084 0.54750 0.03397 -0.15200
H 	H 	0.64073 0.54637 0.98537 0.08700
C 	C 	0.69406 0.57617 0.05197 0.07800
H 	H 	0.71323 0.59467 0.01507 0.02300
C 	C 	0.57537 0.49256 0.06967 -0.07500
C 	C 	0.55478 0.51158 0.03547 -0.03500
H 	H 	0.57113 0.54157 0.02397 0.04400
C 	C 	0.58913 0.37227 0.12817 -0.00700
C 	C 	0.61213 0.42437 0.02657 -0.03800
O 	O 	0.03190 0.47746 0.42004 -0.40700
O 	O 	0.05439 0.48852 0.53681 -0.41300
C 	C 	0.05558 0.47783 0.47290 0.37500
C 	C 	0.08818 0.46436 0.45376 -0.13600
C 	C 	0.11546 0.46365 0.50660 0.07500
H 	H 	0.11420 0.47240 0.55520 0.02500
C 	C 	0.14525 0.44993 0.48850 -0.15300
H 	H 	0.16490 0.45090 0.52460 0.09800
C 	C 	0.14620 0.43547 0.42110 0.12400
C 	C 	0.11917 0.43668 0.36730 -0.15200
H 	H 	0.12030 0.42770 0.31870 0.08700
C 	C 	0.09050 0.45123 0.38530 0.07800
H 	H 	0.07200 0.45190 0.34840 0.02300
C 	C 	0.17411 0.41615 0.40300 -0.07500
C 	C 	0.15509 0.37654 0.36880 -0.03500
H 	H 	0.12510 0.36290 0.35730 0.04400
C 	C 	0.29440 0.55020 0.46150 -0.00700
C 	C 	0.24230 0.52110 0.35990 -0.03800
O 	O 	0.69857 0.81079 0.75337 -0.40700
O 	O 	0.72106 0.82185 0.87014 -0.41300
C 	C 	0.72225 0.81116 0.80623 0.37500
C 	C 	0.75485 0.79769 0.78709 -0.13600
C 	C 	0.78213 0.79698 0.83993 0.07500
H 	H 	0.78087 0.80573 0.88853 0.02500
C 	C 	0.81192 0.78326 0.82183 -0.15300
H 	H 	0.83157 0.78423 0.85793 0.09800
C 	C 	0.81287 0.76880 0.75443 0.12400
C 	C 	0.78584 0.77001 0.70063 -0.15200
H 	H 	0.78697 0.76103 0.65203 0.08700
C 	C 	0.75717 0.78456 0.71863 0.07800
H 	H 	0.73867 0.78523 0.68173 0.02300
C 	C 	0.84078 0.74948 0.73633 -0.07500
C 	C 	0.82176 0.70987 0.70213 -0.03500
H 	H 	0.79177 0.69623 0.69063 0.04400
C 	C 	0.96107 0.88353 0.79483 -0.00700
C 	C 	0.90897 0.85443 0.69323 -0.03800
O 	O 	0.36523 0.14413 0.08671 -0.40700
O 	O 	0.38772 0.15519 0.20348 -0.41300
C 	C 	0.38891 0.14450 0.13957 0.37500
C 	C 	0.42151 0.13103 0.12043 -0.13600
C 	C 	0.44879 0.13032 0.17327 0.07500
H 	H 	0.44753 0.13907 0.22187 0.02500
C 	C 	0.47858 0.11660 0.15517 -0.15300
H 	H 	0.49823 0.11757 0.19127 0.09800
C 	C 	0.47953 0.10214 0.08777 0.12400
C 	C 	0.45250 0.10335 0.03397 -0.15200
H 	H 	0.45363 0.09437 0.98537 0.08700
C 	C 	0.42383 0.11790 0.05197 0.07800
H 	H 	0.40533 0.11857 0.01507 0.02300
C 	C 	0.50744 0.08282 0.06967 -0.07500
C 	C 	0.48842 0.04321 0.03547 -0.03500
H 	H 	0.45843 0.02957 0.02397 0.04400
C 	C 	0.62773 0.21687 0.12817 -0.00700
C 	C 	0.57563 0.18777 0.02657 -0.03800
O 	O 	0.55444 0.52254 0.57996 -0.40700
O 	O 	0.56587 0.51148 0.46319 -0.41300
C 	C 	0.57775 0.52217 0.52710 0.37500
C 	C 	0.62382 0.53564 0.54624 -0.13600
C 	C 	0.65181 0.53635 0.49340 0.07500
H 	H 	0.64180 0.52760 0.44480 0.02500
C 	C 	0.69532 0.55007 0.51150 -0.15300
H 	H 	0.71400 0.54910 0.47540 0.09800
C 	C 	0.71073 0.56453 0.57890 0.12400
C 	C 	0.68249 0.56332 0.63270 -0.15200
H 	H 	0.69260 0.57230 0.68130 0.08700
C 	C 	0.63927 0.54877 0.61470 0.07800
H 	H 	0.62010 0.54810 0.65160 0.02300
C 	C 	0.75796 0.58385 0.59700 -0.07500
C 	C 	0.77855 0.62346 0.63120 -0.03500
H 	H 	0.76220 0.63710 0.64270 0.04400
C 	C 	0.74420 0.44980 0.53850 -0.00700
C 	C 	0.72120 0.47890 0.64010 -0.03800
O 	O 	0.22111 0.85587 0.91329 -0.40700
O 	O 	0.23254 0.84481 0.79652 -0.41300
C 	C 	0.24442 0.85550 0.86043 0.37500
C 	C 	0.29049 0.86897 0.87957 -0.13600
C 	C 	0.31848 0.86968 0.82673 0.07500
H 	H 	0.30847 0.86093 0.77813 0.02500
C 	C 	0.36199 0.88340 0.84483 -0.15300
H 	H 	0.38067 0.88243 0.80873 0.09800
C 	C 	0.37740 0.89786 0.91223 0.12400
C 	C 	0.34916 0.89665 0.96603 -0.15200
H 	H 	0.35927 0.90563 0.01463 0.08700
C 	C 	0.30594 0.88210 0.94803 0.07800
H 	H 	0.28677 0.88143 0.98493 0.02300
C 	C 	0.42463 0.91718 0.93033 -0.07500
C 	C 	0.44522 0.95679 0.96453 -0.03500
H 	H 	0.42887 0.97043 0.97603 0.04400
C 	C 	0.41087 0.78313 0.87183 -0.00700
C 	C 	0.38787 0.81223 0.97343 -0.03800
O 	O 	0.88777 0.18921 0.24663 -0.40700
O 	O 	0.89920 0.17815 0.12986 -0.41300
C 	C 	0.91108 0.18884 0.19377 0.37500
C 	C 	0.95715 0.20231 0.21291 -0.13600
C 	C 	0.98514 0.20302 0.16007 0.07500
H 	H 	0.97513 0.19427 0.11147 0.02500
C 	C 	0.02865 0.21674 0.17817 -0.15300
H 	H 	0.04733 0.21577 0.14207 0.09800
C 	C 	0.04406 0.23120 0.24557 0.12400
C 	C 	0.01582 0.22999 0.29937 -0.15200
H 	H 	0.02593 0.23897 0.34797 0.08700
C 	C 	0.97260 0.21544 0.28137 0.07800
H 	H 	0.95343 0.21477 0.31827 0.02300
C 	C 	0.09129 0.25052 0.26367 -0.07500
C 	C 	0.11188 0.29013 0.29787 -0.03500
H 	H 	0.09553 0.30377 0.30937 0.04400
C 	C 	0.07753 0.11647 0.20517 -0.00700
C 	C 	0.05453 0.14557 0.30677 -0.03800
O 	O 	0.96810 0.44556 0.57996 -0.40700
O 	O 	0.94561 0.43413 0.46319 -0.41300
C 	C 	0.94442 0.42225 0.52710 0.37500
C 	C 	0.91182 0.37618 0.54624 -0.13600
C 	C 	0.88454 0.34819 0.49340 0.07500
H 	H 	0.88580 0.35820 0.44480 0.02500
C 	C 	0.85475 0.30468 0.51150 -0.15300
H 	H 	0.83510 0.28600 0.47540 0.09800
C 	C 	0.85380 0.28927 0.57890 0.12400
C 	C 	0.88083 0.31751 0.63270 -0.15200
H 	H 	0.87970 0.30740 0.68130 0.08700
C 	C 	0.90950 0.36073 0.61470 0.07800
H 	H 	0.92800 0.37990 0.65160 0.02300
C 	C 	0.82589 0.24204 0.59700 -0.07500
C 	C 	0.84491 0.22145 0.63120 -0.03500
H 	H 	0.87490 0.23780 0.64270 0.04400
C 	C 	0.70560 0.25580 0.53850 -0.00700
C 	C 	0.75770 0.27880 0.64010 -0.03800
O 	O 	0.63477 0.77889 0.91329 -0.40700
O 	O 	0.61228 0.76746 0.79652 -0.41300
C 	C 	0.61109 0.75558 0.86043 0.37500
C 	C 	0.57849 0.70951 0.87957 -0.13600
C 	C 	0.55121 0.68152 0.82673 0.07500
H 	H 	0.55247 0.69153 0.77813 0.02500
C 	C 	0.52142 0.63801 0.84483 -0.15300
H 	H 	0.50177 0.61933 0.80873 0.09800
C 	C 	0.52047 0.62260 0.91223 0.12400
C 	C 	0.54750 0.65084 0.96603 -0.15200
H 	H 	0.54637 0.64073 0.01463 0.08700
C 	C 	0.57617 0.69406 0.94803 0.07800
H 	H 	0.59467 0.71323 0.98493 0.02300
C 	C 	0.49256 0.57537 0.93033 -0.07500
C 	C 	0.51158 0.55478 0.96453 -0.03500
H 	H 	0.54157 0.57113 0.97603 0.04400
C 	C 	0.37227 0.58913 0.87183 -0.00700
C 	C 	0.42437 0.61213 0.97343 -0.03800
O 	O 	0.30143 0.11223 0.24663 -0.40700
O 	O 	0.27894 0.10080 0.12986 -0.41300
C 	C 	0.27775 0.08892 0.19377 0.37500
C 	C 	0.24515 0.04285 0.21291 -0.13600
C 	C 	0.21787 0.01486 0.16007 0.07500
H 	H 	0.21913 0.02487 0.11147 0.02500
C 	C 	0.18808 0.97135 0.17817 -0.15300
H 	H 	0.16843 0.95267 0.14207 0.09800
C 	C 	0.18713 0.95594 0.24557 0.12400
C 	C 	0.21416 0.98418 0.29937 -0.15200
H 	H 	0.21303 0.97407 0.34797 0.08700
C 	C 	0.24283 0.02740 0.28137 0.07800
H 	H 	0.26133 0.04657 0.31827 0.02300
C 	C 	0.15922 0.90871 0.26367 -0.07500
C 	C 	0.17824 0.88812 0.29787 -0.03500
H 	H 	0.20823 0.90447 0.30937 0.04400
C 	C 	0.03893 0.92247 0.20517 -0.00700
C 	C 	0.09103 0.94547 0.30677 -0.03800
O 	O 	0.47746 0.03190 0.57996 -0.40700
O 	O 	0.48852 0.05439 0.46319 -0.41300
C 	C 	0.47783 0.05558 0.52710 0.37500
C 	C 	0.46436 0.08818 0.54624 -0.13600
C 	C 	0.46365 0.11546 0.49340 0.07500
H 	H 	0.47240 0.11420 0.44480 0.02500
C 	C 	0.44993 0.14525 0.51150 -0.15300
H 	H 	0.45090 0.16490 0.47540 0.09800
C 	C 	0.43547 0.14620 0.57890 0.12400
C 	C 	0.43668 0.11917 0.63270 -0.15200
H 	H 	0.42770 0.12030 0.68130 0.08700
C 	C 	0.45123 0.09050 0.61470 0.07800
H 	H 	0.45190 0.07200 0.65160 0.02300
C 	C 	0.41615 0.17411 0.59700 -0.07500
C 	C 	0.37654 0.15509 0.63120 -0.03500
H 	H 	0.36290 0.12510 0.64270 0.04400
C 	C 	0.55020 0.29440 0.53850 -0.00700
C 	C 	0.52110 0.24230 0.64010 -0.03800
O 	O 	0.14413 0.36523 0.91329 -0.40700
O 	O 	0.15519 0.38772 0.79652 -0.41300
C 	C 	0.14450 0.38891 0.86043 0.37500
C 	C 	0.13103 0.42151 0.87957 -0.13600
C 	C 	0.13032 0.44879 0.82673 0.07500
H 	H 	0.13907 0.44753 0.77813 0.02500
C 	C 	0.11660 0.47858 0.84483 -0.15300
H 	H 	0.11757 0.49823 0.80873 0.09800
C 	C 	0.10214 0.47953 0.91223 0.12400
C 	C 	0.10335 0.45250 0.96603 -0.15200
H 	H 	0.09437 0.45363 0.01463 0.08700
C 	C 	0.11790 0.42383 0.94803 0.07800
H 	H 	0.11857 0.40533 0.98493 0.02300
C 	C 	0.08282 0.50744 0.93033 -0.07500
C 	C 	0.04321 0.48842 0.96453 -0.03500
H 	H 	0.02957 0.45843 0.97603 0.04400
C 	C 	0.21687 0.62773 0.87183 -0.00700
C 	C 	0.18777 0.57563 0.97343 -0.03800
O 	O 	0.81079 0.69857 0.24663 -0.40700
O 	O 	0.82185 0.72106 0.12986 -0.41300
C 	C 	0.81116 0.72225 0.19377 0.37500
C 	C 	0.79769 0.75485 0.21291 -0.13600
C 	C 	0.79698 0.78213 0.16007 0.07500
H 	H 	0.80573 0.78087 0.11147 0.02500
C 	C 	0.78326 0.81192 0.17817 -0.15300
H 	H 	0.78423 0.83157 0.14207 0.09800
C 	C 	0.76880 0.81287 0.24557 0.12400
C 	C 	0.77001 0.78584 0.29937 -0.15200
H 	H 	0.76103 0.78697 0.34797 0.08700
C 	C 	0.78456 0.75717 0.28137 0.07800
H 	H 	0.78523 0.73867 0.31827 0.02300
C 	C 	0.74948 0.84078 0.26367 -0.07500
C 	C 	0.70987 0.82176 0.29787 -0.03500
H 	H 	0.69623 0.79177 0.30937 0.04400
C 	C 	0.88353 0.96107 0.20517 -0.00700
C 	C 	0.85443 0.90897 0.30677 -0.03800
Cu	Cu	0.50654 0.49346 0.43152 0.90400
Cu	Cu	0.17321 0.82679 0.76485 0.90400
Cu	Cu	0.83987 0.16013 0.09819 0.90400
Cu	Cu	0.50654 0.01308 0.43152 0.90400
Cu	Cu	0.17321 0.34641 0.76485 0.90400
Cu	Cu	0.83987 0.67975 0.09819 0.90400
Cu	Cu	0.98692 0.49346 0.43152 0.90400
Cu	Cu	0.65359 0.82679 0.76485 0.90400
Cu	Cu	0.32025 0.16013 0.09819 0.90400
Cu	Cu	0.49346 0.50654 0.56848 0.90400
Cu	Cu	0.16013 0.83987 0.90181 0.90400
Cu	Cu	0.82679 0.17321 0.23515 0.90400
Cu	Cu	0.01308 0.50654 0.56848 0.90400
Cu	Cu	0.67975 0.83987 0.90181 0.90400
Cu	Cu	0.34641 0.17321 0.23515 0.90400
Cu	Cu	0.49346 0.98692 0.56848 0.90400
Cu	Cu	0.16013 0.32025 0.90181 0.90400
Cu	Cu	0.82679 0.65359 0.23515 0.90400
O 	O 	0.47624 0.23812 0.54510 -0.23800
C 	C 	0.35556 0.17778 0.64990 0.00400
C 	C 	0.43660 0.21830 0.58020 0.15200
C 	C 	0.51430 0.25715 0.58680 0.15300
O 	O 	0.14291 0.57145 0.87843 -0.23800
C 	C 	0.02223 0.51111 0.98323 0.00400
C 	C 	0.10327 0.55163 0.91353 0.15100
C 	C 	0.18097 0.59048 0.92013 0.15300
O 	O 	0.80957 0.90479 0.21177 -0.23800
C 	C 	0.68889 0.84445 0.31657 0.00400
C 	C 	0.76993 0.88497 0.24687 0.15200
C 	C 	0.84763 0.92382 0.25347 0.15300
O 	O 	0.76188 0.23812 0.54510 -0.23800
C 	C 	0.82222 0.17778 0.64990 0.00400
C 	C 	0.78170 0.21830 0.58020 0.15200
C 	C 	0.74285 0.25715 0.58680 0.15300
O 	O 	0.42855 0.57145 0.87843 -0.23800
C 	C 	0.48889 0.51111 0.98323 0.00400
C 	C 	0.44837 0.55163 0.91353 0.15100
C 	C 	0.40952 0.59048 0.92013 0.15300
O 	O 	0.09521 0.90479 0.21177 -0.23800
C 	C 	0.15555 0.84445 0.31657 0.00400
C 	C 	0.11503 0.88497 0.24687 0.15100
C 	C 	0.07618 0.92382 0.25347 0.15300
O 	O 	0.76188 0.52376 0.54510 -0.23800
C 	C 	0.82222 0.64444 0.64990 0.00400
C 	C 	0.78170 0.56340 0.58020 0.15200
C 	C 	0.74285 0.48570 0.58680 0.15300
O 	O 	0.42855 0.85709 0.87843 -0.23800
C 	C 	0.48889 0.97777 0.98323 0.00400
C 	C 	0.44837 0.89673 0.91353 0.15100
C 	C 	0.40952 0.81903 0.92013 0.15300
O 	O 	0.09521 0.19043 0.21177 -0.23800
C 	C 	0.15555 0.31111 0.31657 0.00400
C 	C 	0.11503 0.23007 0.24687 0.15200
C 	C 	0.07618 0.15237 0.25347 0.15300
O 	O 	0.23812 0.47624 0.45490 -0.23800
C 	C 	0.17778 0.35556 0.35010 0.00400
C 	C 	0.21830 0.43660 0.41980 0.15200
C 	C 	0.25715 0.51430 0.41320 0.15300
O 	O 	0.90479 0.80957 0.78823 -0.23800
C 	C 	0.84445 0.68889 0.68343 0.00400
C 	C 	0.88497 0.76993 0.75313 0.15200
C 	C 	0.92382 0.84763 0.74653 0.15300
O 	O 	0.57145 0.14291 0.12157 -0.23800
C 	C 	0.51111 0.02223 0.01677 0.00400
C 	C 	0.55163 0.10327 0.08647 0.15100
C 	C 	0.59048 0.18097 0.07987 0.15300
O 	O 	0.23812 0.76188 0.45490 -0.23800
C 	C 	0.17778 0.82222 0.35010 0.00400
C 	C 	0.21830 0.78170 0.41980 0.15200
C 	C 	0.25715 0.74285 0.41320 0.15300
O 	O 	0.90479 0.09521 0.78823 -0.23800
C 	C 	0.84445 0.15555 0.68343 0.00400
C 	C 	0.88497 0.11503 0.75313 0.15100
C 	C 	0.92382 0.07618 0.74653 0.15300
O 	O 	0.57145 0.42855 0.12157 -0.23800
C 	C 	0.51111 0.48889 0.01677 0.00400
C 	C 	0.55163 0.44837 0.08647 0.15100
C 	C 	0.59048 0.40952 0.07987 0.15300
O 	O 	0.52376 0.76188 0.45490 -0.23800
C 	C 	0.64444 0.82222 0.35010 0.00400
C 	C 	0.56340 0.78170 0.41980 0.15200
C 	C 	0.48570 0.74285 0.41320 0.15300
O 	O 	0.19043 0.09521 0.78823 -0.23800
C 	C 	0.31111 0.15555 0.68343 0.00400
C 	C 	0.23007 0.11503 0.75313 0.15200
C 	C 	0.15237 0.07618 0.74653 0.15300
O 	O 	0.85709 0.42855 0.12157 -0.23800
C 	C 	0.97777 0.48889 0.01677 0.00400
C 	C 	0.89673 0.44837 0.08647 0.15100
C 	C 	0.81903 0.40952 0.07987 0.15300
