data_crystal

_cell_length_a 8.40480
_cell_length_b 10.23790
_cell_length_c 17.66710
_cell_angle_alpha 90.00000
_cell_angle_beta  103.03200
_cell_angle_gamma 90.00000

_symmetry_space_group_name_	'P 1'
_symmetry_space_group_name_H-M	'P 1'

loop_
_symmetry_equiv_pos_as_xyz
  x,y,z

loop_
_atom_site_label
_atom_site_type_symbol
_atom_site_fract_x
_atom_site_fract_y
_atom_site_fract_z
_atom_site_charge
Cu	Cu	0.82629 0.55774 0.43204 0.91400
Cu	Cu	0.32629 0.94226 0.93204 0.91300
H 	H 	0.53690 0.77030 0.16960 0.07800
H 	H 	0.64560 0.58920 0.98480 0.12300
H 	H 	0.81420 0.44880 0.19980 0.11300
H 	H 	0.89420 0.27110 0.86370 0.08900
H 	H 	0.06340 0.10900 0.84180 0.01400
H 	H 	0.23550 0.06440 0.06450 0.01300
H 	H 	0.06930 0.22580 0.09210 0.08300
H 	H 	0.86490 0.33810 0.09610 0.15000
H 	H 	0.03690 0.72970 0.66960 0.07800
H 	H 	0.14560 0.91080 0.48480 0.12400
H 	H 	0.31420 0.05120 0.69980 0.11600
H 	H 	0.39420 0.22890 0.36370 0.08900
H 	H 	0.56340 0.39100 0.34180 0.01400
H 	H 	0.73550 0.43560 0.56450 0.01200
H 	H 	0.56930 0.27420 0.59210 0.08300
H 	H 	0.36490 0.16190 0.59610 0.15100
C 	C 	0.67750 0.61080 0.19760 0.00300
C 	C 	0.58870 0.70280 0.14930 -0.05600
C 	C 	0.57700 0.69410 0.06970 -0.00200
C 	C 	0.65440 0.59440 0.03810 -0.13600
C 	C 	0.74550 0.50270 0.08820 0.18100
C 	C 	0.75480 0.51110 0.16670 -0.14100
C 	C 	0.69470 0.61910 0.28390 0.30300
C 	C 	0.48620 0.79290 0.01660 0.26000
C 	C 	0.85920 0.38290 0.99120 0.21300
C 	C 	0.96420 0.26830 0.98110 0.01400
C 	C 	0.96370 0.23030 0.90540 -0.10300
C 	C 	0.06500 0.13350 0.89260 0.07100
C 	C 	0.16600 0.10740 0.02370 0.06700
C 	C 	0.06680 0.20410 0.04070 -0.11300
C 	C 	0.17750 0.88920 0.69760 0.00500
C 	C 	0.08870 0.79720 0.64930 -0.05800
C 	C 	0.07700 0.80590 0.56970 -0.00100
C 	C 	0.15440 0.90560 0.53810 -0.13900
C 	C 	0.24550 0.99730 0.58820 0.18200
C 	C 	0.25480 0.98890 0.66670 -0.14600
C 	C 	0.19470 0.88090 0.78390 0.30200
C 	C 	0.98620 0.70710 0.51660 0.25900
C 	C 	0.35920 0.11710 0.49120 0.21300
C 	C 	0.46420 0.23170 0.48110 0.01200
C 	C 	0.46370 0.26970 0.40540 -0.10000
C 	C 	0.56500 0.36650 0.39260 0.06800
C 	C 	0.66600 0.39260 0.52370 0.06900
C 	C 	0.56680 0.29590 0.54070 -0.11200
N 	N 	0.16710 0.07220 0.95100 -0.22400
N 	N 	0.82920 0.39840 0.06270 -0.24800
N 	N 	0.66710 0.42780 0.45100 -0.22600
N 	N 	0.32920 0.10160 0.56270 -0.24800
O 	O 	0.79312 0.53620 0.32362 -0.38500
O 	O 	0.61890 0.70070 0.31250 -0.30100
O 	O 	0.46968 0.78400 0.94418 -0.35100
O 	O 	0.42092 0.89060 0.04172 -0.40300
O 	O 	0.81035 0.45730 0.93745 -0.22300
O 	O 	0.29312 0.96380 0.82362 -0.38600
O 	O 	0.11890 0.79930 0.81250 -0.30200
O 	O 	0.96968 0.71600 0.44418 -0.34900
O 	O 	0.92092 0.60940 0.54172 -0.40300
O 	O 	0.31035 0.04270 0.43745 -0.22200
Cu	Cu	0.67371 0.05774 0.06796 0.91200
Cu	Cu	0.17371 0.44226 0.56796 0.91300
H 	H 	0.96310 0.27030 0.33040 0.07800
H 	H 	0.85440 0.08920 0.51520 0.12400
H 	H 	0.68580 0.94880 0.30020 0.11600
H 	H 	0.60580 0.77110 0.63630 0.08900
H 	H 	0.43660 0.60900 0.65820 0.01400
H 	H 	0.26450 0.56440 0.43550 0.01200
H 	H 	0.43070 0.72580 0.40790 0.08300
H 	H 	0.63510 0.83810 0.40390 0.15100
H 	H 	0.46310 0.22970 0.83040 0.07800
H 	H 	0.35440 0.41080 0.01520 0.12300
H 	H 	0.18580 0.55120 0.80020 0.11300
H 	H 	0.10580 0.72890 0.13630 0.08900
H 	H 	0.93660 0.89100 0.15820 0.01400
H 	H 	0.76450 0.93560 0.93550 0.01300
H 	H 	0.93070 0.77420 0.90790 0.08300
H 	H 	0.13510 0.66190 0.90390 0.15000
C 	C 	0.82250 0.11080 0.30240 0.00500
C 	C 	0.91130 0.20280 0.35070 -0.05800
C 	C 	0.92300 0.19410 0.43030 -0.00100
C 	C 	0.84560 0.09440 0.46190 -0.13900
C 	C 	0.75450 0.00270 0.41180 0.18200
C 	C 	0.74520 0.01110 0.33330 -0.14600
C 	C 	0.80530 0.11910 0.21610 0.30200
C 	C 	0.01380 0.29290 0.48340 0.25900
C 	C 	0.64080 0.88290 0.50880 0.21300
C 	C 	0.53580 0.76830 0.51890 0.01200
C 	C 	0.53630 0.73030 0.59460 -0.10000
C 	C 	0.43500 0.63350 0.60740 0.06800
C 	C 	0.33400 0.60740 0.47630 0.06900
C 	C 	0.43320 0.70410 0.45930 -0.11200
C 	C 	0.32250 0.38920 0.80240 0.00300
C 	C 	0.41130 0.29720 0.85070 -0.05600
C 	C 	0.42300 0.30590 0.93030 -0.00200
C 	C 	0.34560 0.40560 0.96190 -0.13600
C 	C 	0.25450 0.49730 0.91180 0.18100
C 	C 	0.24520 0.48890 0.83330 -0.14100
C 	C 	0.30530 0.38090 0.71610 0.30300
C 	C 	0.51380 0.20710 0.98340 0.26000
C 	C 	0.14080 0.61710 0.00880 0.21300
C 	C 	0.03580 0.73170 0.01890 0.01400
C 	C 	0.03630 0.76970 0.09460 -0.10300
C 	C 	0.93500 0.86650 0.10740 0.07100
C 	C 	0.83400 0.89260 0.97630 0.06700
C 	C 	0.93320 0.79590 0.95930 -0.11300
N 	N 	0.33290 0.57220 0.54900 -0.22600
N 	N 	0.67080 0.89840 0.43730 -0.24800
N 	N 	0.83290 0.92780 0.04900 -0.22400
N 	N 	0.17080 0.60160 0.93730 -0.24800
O 	O 	0.70688 0.03620 0.17638 -0.38600
O 	O 	0.88110 0.20070 0.18750 -0.30200
O 	O 	0.03032 0.28400 0.55582 -0.34900
O 	O 	0.07908 0.39060 0.45828 -0.40300
O 	O 	0.68965 0.95730 0.56255 -0.22200
O 	O 	0.20688 0.46380 0.67638 -0.38500
O 	O 	0.38110 0.29930 0.68750 -0.30100
O 	O 	0.53032 0.21600 0.05582 -0.35100
O 	O 	0.57908 0.10940 0.95828 -0.40300
O 	O 	0.18965 0.54270 0.06255 -0.22300
