data_crystal

_cell_length_a 14.57790
_cell_length_b 14.57790
_cell_length_c 36.70610
_cell_angle_alpha 90.00000
_cell_angle_beta  90.00000
_cell_angle_gamma 90.00000

_symmetry_space_group_name_	'P 1'
_symmetry_space_group_name_H-M	'P 1'

loop_
_symmetry_equiv_pos_as_xyz
  x,y,z

loop_
_atom_site_label
_atom_site_type_symbol
_atom_site_fract_x
_atom_site_fract_y
_atom_site_fract_z
_atom_site_charge
La	La	0.13813 0.73894 0.09424 1.66600
La	La	0.86187 0.26106 0.59424 1.66600
La	La	0.76106 0.63813 0.34424 1.66600
La	La	0.23894 0.36187 0.84424 1.66600
La	La	0.36187 0.23894 0.15576 1.66600
La	La	0.63813 0.76106 0.65576 1.66600
La	La	0.73894 0.13813 0.90576 1.66600
La	La	0.26106 0.86187 0.40576 1.66600
H 	H 	0.31240 0.66320 0.15680 0.38800
H 	H 	0.34130 0.69290 0.19620 0.35900
H 	H 	0.29860 0.59560 0.18960 0.35700
H 	H 	0.20510 0.66900 0.24180 0.23800
H 	H 	0.00350 0.76400 0.27870 0.38900
H 	H 	0.06060 0.67380 0.28390 0.35500
H 	H 	0.10820 0.76960 0.28830 0.37600
H 	H 	0.92480 0.81350 0.24370 0.01400
H 	H 	0.95250 0.94020 0.20590 0.09500
H 	H 	0.92680 0.88290 0.17120 0.10800
H 	H 	0.79980 0.97390 0.18810 0.02700
H 	H 	0.80010 0.93020 0.22720 0.04400
H 	H 	0.68740 0.86080 0.19170 0.01300
H 	H 	0.76120 0.83300 0.16260 0.05500
H 	H 	0.88300 0.70910 0.18040 0.02300
H 	H 	0.30700 0.88920 0.05320 0.39200
H 	H 	0.33180 0.90340 0.01200 0.36900
H 	H 	0.29790 0.98660 0.03550 0.35400
H 	H 	0.19320 0.98260 0.97710 0.23300
H 	H 	0.97610 0.95720 0.93670 0.36400
H 	H 	0.04200 0.03920 0.94570 0.33300
H 	H 	0.07760 0.95590 0.92270 0.34600
H 	H 	0.89810 0.87660 0.96170 0.02000
H 	H 	0.92280 0.72180 0.96980 0.07500
H 	H 	0.91260 0.73090 0.01220 0.08700
H 	H 	0.77720 0.67020 0.98890 0.03400
H 	H 	0.76750 0.75270 0.96170 0.05400
H 	H 	0.91840 0.44480 0.33390 0.39400
H 	H 	0.92980 0.37610 0.30140 0.39500
H 	H 	0.01310 0.43630 0.31390 0.37000
H 	H 	0.99330 0.45840 0.24330 0.24400
H 	H 	0.95690 0.60390 0.16870 0.34300
H 	H 	0.04150 0.55430 0.18620 0.31400
H 	H 	0.95440 0.49760 0.17520 0.32200
H 	H 	0.75230 0.76120 0.23430 0.08200
H 	H 	0.72970 0.70540 0.19880 0.07200
H 	H 	0.05020 0.78250 0.19000 0.18000
H 	H 	0.03320 0.83950 0.01100 0.17400
H 	H 	0.85430 0.64270 0.24880 0.17400
H 	H 	0.68760 0.33680 0.65680 0.38900
H 	H 	0.65870 0.30710 0.69620 0.36000
H 	H 	0.70140 0.40440 0.68960 0.35800
H 	H 	0.79490 0.33100 0.74180 0.23900
H 	H 	0.99650 0.23600 0.77870 0.38900
H 	H 	0.93940 0.32620 0.78390 0.35600
H 	H 	0.89180 0.23040 0.78830 0.37700
H 	H 	0.07520 0.18650 0.74370 0.01500
H 	H 	0.04750 0.05980 0.70590 0.09500
H 	H 	0.07320 0.11710 0.67120 0.10900
H 	H 	0.20020 0.02610 0.68810 0.02700
H 	H 	0.19990 0.06980 0.72720 0.04400
H 	H 	0.31260 0.13920 0.69170 0.01300
H 	H 	0.23880 0.16700 0.66260 0.05500
H 	H 	0.11700 0.29090 0.68040 0.02200
H 	H 	0.69300 0.11080 0.55320 0.39300
H 	H 	0.66820 0.09660 0.51200 0.37100
H 	H 	0.70210 0.01340 0.53550 0.35600
H 	H 	0.80680 0.01740 0.47710 0.23500
H 	H 	0.02390 0.04280 0.43670 0.36700
H 	H 	0.95800 0.96080 0.44570 0.33600
H 	H 	0.92240 0.04410 0.42270 0.34800
H 	H 	0.10190 0.12340 0.46170 0.01900
H 	H 	0.07720 0.27820 0.46980 0.07500
H 	H 	0.08740 0.26910 0.51220 0.08600
H 	H 	0.22280 0.32980 0.48890 0.03400
H 	H 	0.23250 0.24730 0.46170 0.05400
H 	H 	0.08160 0.55520 0.83390 0.39500
H 	H 	0.07020 0.62390 0.80140 0.39600
H 	H 	0.98690 0.56370 0.81390 0.37000
H 	H 	0.00670 0.54160 0.74330 0.24400
H 	H 	0.04310 0.39610 0.66870 0.34300
H 	H 	0.95850 0.44570 0.68620 0.31500
H 	H 	0.04560 0.50240 0.67520 0.32200
H 	H 	0.24770 0.23880 0.73430 0.08200
H 	H 	0.27030 0.29460 0.69880 0.07200
H 	H 	0.94980 0.21750 0.69000 0.18000
H 	H 	0.96680 0.16050 0.51100 0.17600
H 	H 	0.14570 0.35730 0.74880 0.17400
H 	H 	0.83680 0.81240 0.40680 0.38900
H 	H 	0.80710 0.84130 0.44620 0.35900
H 	H 	0.90440 0.79860 0.43960 0.35800
H 	H 	0.83100 0.70510 0.49180 0.23900
H 	H 	0.73600 0.50350 0.52870 0.39000
H 	H 	0.82620 0.56060 0.53390 0.35700
H 	H 	0.73040 0.60820 0.53830 0.37700
H 	H 	0.68650 0.42480 0.49370 0.01500
H 	H 	0.55980 0.45250 0.45590 0.09600
H 	H 	0.61710 0.42680 0.42120 0.10900
H 	H 	0.52610 0.29980 0.43810 0.02900
H 	H 	0.56980 0.30010 0.47720 0.04500
H 	H 	0.63920 0.18740 0.44170 0.01400
H 	H 	0.66700 0.26120 0.41260 0.05500
H 	H 	0.79090 0.38300 0.43040 0.02200
H 	H 	0.61080 0.80700 0.30320 0.39400
H 	H 	0.59660 0.83180 0.26200 0.37200
H 	H 	0.51340 0.79790 0.28550 0.35700
H 	H 	0.51740 0.69320 0.22710 0.23700
H 	H 	0.54280 0.47610 0.18670 0.38500
H 	H 	0.46080 0.54200 0.19570 0.35300
H 	H 	0.54410 0.57760 0.17270 0.36100
H 	H 	0.62340 0.39810 0.21170 0.01900
H 	H 	0.77820 0.42280 0.21980 0.07600
H 	H 	0.76910 0.41260 0.26220 0.08700
H 	H 	0.82980 0.27720 0.23890 0.03600
H 	H 	0.74730 0.26750 0.21170 0.05500
H 	H 	0.05520 0.41840 0.58390 0.40000
H 	H 	0.12390 0.42980 0.55140 0.40000
H 	H 	0.06370 0.51310 0.56390 0.37800
H 	H 	0.04160 0.49330 0.49330 0.24300
H 	H 	0.89610 0.45690 0.41870 0.34400
H 	H 	0.94570 0.54150 0.43620 0.31700
H 	H 	0.00240 0.45440 0.42520 0.32100
H 	H 	0.73880 0.25230 0.48430 0.08200
H 	H 	0.79460 0.22970 0.44880 0.07300
H 	H 	0.71750 0.55020 0.44000 0.18000
H 	H 	0.66050 0.53320 0.26100 0.17600
H 	H 	0.85730 0.35430 0.49880 0.17400
H 	H 	0.16320 0.18760 0.90680 0.38900
H 	H 	0.19290 0.15870 0.94620 0.36000
H 	H 	0.09560 0.20140 0.93960 0.35900
H 	H 	0.16900 0.29490 0.99180 0.23900
H 	H 	0.26400 0.49650 0.02870 0.39000
H 	H 	0.17380 0.43940 0.03390 0.35700
H 	H 	0.26960 0.39180 0.03830 0.37800
H 	H 	0.31350 0.57520 0.99370 0.01500
H 	H 	0.44020 0.54750 0.95590 0.09600
H 	H 	0.38290 0.57320 0.92120 0.10900
H 	H 	0.47390 0.70020 0.93810 0.02900
H 	H 	0.43020 0.69990 0.97720 0.04600
H 	H 	0.36080 0.81260 0.94170 0.01400
H 	H 	0.33300 0.73880 0.91260 0.05500
H 	H 	0.20910 0.61700 0.93040 0.02300
H 	H 	0.38920 0.19300 0.80320 0.39400
H 	H 	0.40340 0.16820 0.76200 0.37100
H 	H 	0.48660 0.20210 0.78550 0.35700
H 	H 	0.48260 0.30680 0.72710 0.23700
H 	H 	0.45720 0.52390 0.68670 0.38500
H 	H 	0.53920 0.45800 0.69570 0.35300
H 	H 	0.45590 0.42240 0.67270 0.36100
H 	H 	0.37660 0.60190 0.71170 0.01900
H 	H 	0.22180 0.57720 0.71980 0.07600
H 	H 	0.23090 0.58740 0.76220 0.08700
H 	H 	0.17020 0.72280 0.73890 0.03600
H 	H 	0.25270 0.73250 0.71170 0.05500
H 	H 	0.94480 0.58160 0.08390 0.39800
H 	H 	0.87610 0.57020 0.05140 0.39800
H 	H 	0.93630 0.48690 0.06390 0.37600
H 	H 	0.95840 0.50670 0.99330 0.24000
H 	H 	0.10390 0.54310 0.91870 0.34200
H 	H 	0.05430 0.45850 0.93620 0.31600
H 	H 	0.99760 0.54560 0.92520 0.31900
H 	H 	0.26120 0.74770 0.98430 0.08300
H 	H 	0.20540 0.77030 0.94880 0.07300
H 	H 	0.28250 0.44980 0.94000 0.18000
H 	H 	0.33950 0.46680 0.76100 0.17600
H 	H 	0.14270 0.64570 0.99880 0.17400
H 	H 	0.18760 0.16320 0.09320 0.38900
H 	H 	0.15870 0.19290 0.05380 0.36000
H 	H 	0.20140 0.09560 0.06040 0.35900
H 	H 	0.29490 0.16900 0.00820 0.23900
H 	H 	0.49650 0.26400 0.97130 0.39000
H 	H 	0.43940 0.17380 0.96610 0.35700
H 	H 	0.39180 0.26960 0.96170 0.37800
H 	H 	0.57520 0.31350 0.00630 0.01500
H 	H 	0.54750 0.44020 0.04410 0.09600
H 	H 	0.57320 0.38290 0.07880 0.10900
H 	H 	0.70020 0.47390 0.06190 0.02900
H 	H 	0.69990 0.43020 0.02280 0.04600
H 	H 	0.81260 0.36080 0.05830 0.01400
H 	H 	0.73880 0.33300 0.08740 0.05500
H 	H 	0.61700 0.20910 0.06960 0.02300
H 	H 	0.19300 0.38920 0.19680 0.39400
H 	H 	0.16820 0.40340 0.23800 0.37100
H 	H 	0.20210 0.48660 0.21450 0.35700
H 	H 	0.30680 0.48260 0.27290 0.23700
H 	H 	0.52390 0.45720 0.31330 0.38500
H 	H 	0.45800 0.53920 0.30430 0.35300
H 	H 	0.42240 0.45590 0.32730 0.36100
H 	H 	0.60190 0.37660 0.28830 0.01900
H 	H 	0.57720 0.22180 0.28020 0.07600
H 	H 	0.58740 0.23090 0.23780 0.08700
H 	H 	0.72280 0.17020 0.26110 0.03600
H 	H 	0.73250 0.25270 0.28830 0.05500
H 	H 	0.58160 0.94480 0.91610 0.39800
H 	H 	0.57020 0.87610 0.94860 0.39800
H 	H 	0.48690 0.93630 0.93610 0.37600
H 	H 	0.50670 0.95840 0.00670 0.24000
H 	H 	0.54310 0.10390 0.08130 0.34200
H 	H 	0.45850 0.05430 0.06380 0.31600
H 	H 	0.54560 0.99760 0.07480 0.31900
H 	H 	0.74770 0.26120 0.01570 0.08300
H 	H 	0.77030 0.20540 0.05120 0.07300
H 	H 	0.44980 0.28250 0.06000 0.18000
H 	H 	0.46680 0.33950 0.23900 0.17600
H 	H 	0.64570 0.14270 0.00120 0.17400
H 	H 	0.81240 0.83680 0.59320 0.38900
H 	H 	0.84130 0.80710 0.55380 0.35900
H 	H 	0.79860 0.90440 0.56040 0.35800
H 	H 	0.70510 0.83100 0.50820 0.23900
H 	H 	0.50350 0.73600 0.47130 0.39000
H 	H 	0.56060 0.82620 0.46610 0.35700
H 	H 	0.60820 0.73040 0.46170 0.37700
H 	H 	0.42480 0.68650 0.50630 0.01500
H 	H 	0.45250 0.55980 0.54410 0.09600
H 	H 	0.42680 0.61710 0.57880 0.10900
H 	H 	0.29980 0.52610 0.56190 0.02900
H 	H 	0.30010 0.56980 0.52280 0.04500
H 	H 	0.18740 0.63920 0.55830 0.01400
H 	H 	0.26120 0.66700 0.58740 0.05500
H 	H 	0.38300 0.79090 0.56960 0.02200
H 	H 	0.80700 0.61080 0.69680 0.39400
H 	H 	0.83180 0.59660 0.73800 0.37200
H 	H 	0.79790 0.51340 0.71450 0.35700
H 	H 	0.69320 0.51740 0.77290 0.23700
H 	H 	0.47610 0.54280 0.81330 0.38500
H 	H 	0.54200 0.46080 0.80430 0.35300
H 	H 	0.57760 0.54410 0.82730 0.36100
H 	H 	0.39810 0.62340 0.78830 0.01900
H 	H 	0.42280 0.77820 0.78020 0.07600
H 	H 	0.41260 0.76910 0.73780 0.08700
H 	H 	0.27720 0.82980 0.76110 0.03600
H 	H 	0.26750 0.74730 0.78830 0.05500
H 	H 	0.41840 0.05520 0.41610 0.40000
H 	H 	0.42980 0.12390 0.44860 0.40000
H 	H 	0.51310 0.06370 0.43610 0.37800
H 	H 	0.49330 0.04160 0.50670 0.24300
H 	H 	0.45690 0.89610 0.58130 0.34400
H 	H 	0.54150 0.94570 0.56380 0.31700
H 	H 	0.45440 0.00240 0.57480 0.32100
H 	H 	0.25230 0.73880 0.51570 0.08200
H 	H 	0.22970 0.79460 0.55120 0.07300
H 	H 	0.55020 0.71750 0.56000 0.18000
H 	H 	0.53320 0.66050 0.73900 0.17600
H 	H 	0.35430 0.85730 0.50120 0.17400
H 	H 	0.66320 0.31240 0.84320 0.38900
H 	H 	0.69290 0.34130 0.80380 0.36000
H 	H 	0.59560 0.29860 0.81040 0.35800
H 	H 	0.66900 0.20510 0.75820 0.23900
H 	H 	0.76400 0.00350 0.72130 0.39000
H 	H 	0.67380 0.06060 0.71610 0.35600
H 	H 	0.76960 0.10820 0.71170 0.37700
H 	H 	0.81350 0.92480 0.75630 0.01500
H 	H 	0.94020 0.95250 0.79410 0.09600
H 	H 	0.88290 0.92680 0.82880 0.10900
H 	H 	0.97390 0.79980 0.81190 0.02700
H 	H 	0.93020 0.80010 0.77280 0.04400
H 	H 	0.86080 0.68740 0.80830 0.01300
H 	H 	0.83300 0.76120 0.83740 0.05500
H 	H 	0.70910 0.88300 0.81960 0.02300
H 	H 	0.88920 0.30700 0.94680 0.39200
H 	H 	0.90340 0.33180 0.98800 0.36900
H 	H 	0.98660 0.29790 0.96450 0.35400
H 	H 	0.98260 0.19320 0.02290 0.23300
H 	H 	0.95720 0.97610 0.06330 0.36400
H 	H 	0.03920 0.04200 0.05430 0.33300
H 	H 	0.95590 0.07760 0.07730 0.34600
H 	H 	0.87660 0.89810 0.03830 0.02000
H 	H 	0.72180 0.92280 0.03020 0.07500
H 	H 	0.73090 0.91260 0.98780 0.08700
H 	H 	0.67020 0.77720 0.01110 0.03400
H 	H 	0.75270 0.76750 0.03830 0.05400
H 	H 	0.44480 0.91840 0.66610 0.39400
H 	H 	0.37610 0.92980 0.69860 0.39500
H 	H 	0.43630 0.01310 0.68610 0.37000
H 	H 	0.45840 0.99330 0.75670 0.24400
H 	H 	0.60390 0.95690 0.83130 0.34300
H 	H 	0.55430 0.04150 0.81380 0.31400
H 	H 	0.49760 0.95440 0.82480 0.32200
H 	H 	0.76120 0.75230 0.76570 0.08200
H 	H 	0.70540 0.72970 0.80120 0.07200
H 	H 	0.78250 0.05020 0.81000 0.18000
H 	H 	0.83950 0.03320 0.98900 0.17400
H 	H 	0.64270 0.85430 0.75120 0.17400
H 	H 	0.33680 0.68760 0.34320 0.38900
H 	H 	0.30710 0.65870 0.30380 0.36000
H 	H 	0.40440 0.70140 0.31040 0.35800
H 	H 	0.33100 0.79490 0.25820 0.23900
H 	H 	0.23600 0.99650 0.22130 0.38900
H 	H 	0.32620 0.93940 0.21610 0.35600
H 	H 	0.23040 0.89180 0.21170 0.37700
H 	H 	0.18650 0.07520 0.25630 0.01500
H 	H 	0.05980 0.04750 0.29410 0.09500
H 	H 	0.11710 0.07320 0.32880 0.10900
H 	H 	0.02610 0.20020 0.31190 0.02700
H 	H 	0.06980 0.19990 0.27280 0.04400
H 	H 	0.13920 0.31260 0.30830 0.01300
H 	H 	0.16700 0.23880 0.33740 0.05500
H 	H 	0.29090 0.11700 0.31960 0.02200
H 	H 	0.11080 0.69300 0.44680 0.39300
H 	H 	0.09660 0.66820 0.48800 0.37100
H 	H 	0.01340 0.70210 0.46450 0.35600
H 	H 	0.01740 0.80680 0.52290 0.23500
H 	H 	0.04280 0.02390 0.56330 0.36700
H 	H 	0.96080 0.95800 0.55430 0.33600
H 	H 	0.04410 0.92240 0.57730 0.34800
H 	H 	0.12340 0.10190 0.53830 0.01900
H 	H 	0.27820 0.07720 0.53020 0.07500
H 	H 	0.26910 0.08740 0.48780 0.08600
H 	H 	0.32980 0.22280 0.51110 0.03400
H 	H 	0.24730 0.23250 0.53830 0.05400
H 	H 	0.55520 0.08160 0.16610 0.39500
H 	H 	0.62390 0.07020 0.19860 0.39600
H 	H 	0.56370 0.98690 0.18610 0.37000
H 	H 	0.54160 0.00670 0.25670 0.24400
H 	H 	0.39610 0.04310 0.33130 0.34300
H 	H 	0.44570 0.95850 0.31380 0.31500
H 	H 	0.50240 0.04560 0.32480 0.32200
H 	H 	0.23880 0.24770 0.26570 0.08200
H 	H 	0.29460 0.27030 0.30120 0.07200
H 	H 	0.21750 0.94980 0.31000 0.18000
H 	H 	0.16050 0.96680 0.48900 0.17600
H 	H 	0.35730 0.14570 0.25120 0.17400
C 	C 	0.29740 0.65880 0.18221 -1.21300
C 	C 	0.20268 0.69761 0.18852 0.66400
C 	C 	0.16928 0.69720 0.22405 -0.70200
C 	C 	0.08562 0.73590 0.23521 0.55500
C 	C 	0.06240 0.73580 0.27518 -1.14000
C 	C 	0.93367 0.80230 0.21765 0.07500
C 	C 	0.91350 0.89140 0.19683 -0.19100
C 	C 	0.81240 0.91820 0.20166 -0.05000
C 	C 	0.75090 0.84270 0.18846 -0.06700
C 	C 	0.86970 0.72490 0.20576 0.05300
C 	C 	0.29150 0.92190 0.03137 -1.21200
C 	C 	0.19421 0.90071 0.02098 0.66100
C 	C 	0.15640 0.94180 0.98995 -0.68100
C 	C 	0.06777 0.92645 0.97677 0.53600
C 	C 	0.03820 0.97400 0.94236 -1.06800
C 	C 	0.91230 0.85560 0.98641 0.06100
C 	C 	0.89060 0.75420 0.98905 -0.16600
C 	C 	0.78850 0.73530 0.98578 -0.06500
C 	C 	0.94770 0.43480 0.31084 -1.24900
C 	C 	0.91936 0.50844 0.28481 0.68200
C 	C 	0.95428 0.50658 0.24926 -0.68700
C 	C 	0.93573 0.57065 0.22201 0.52800
C 	C 	0.97580 0.55520 0.18463 -1.04300
C 	C 	0.76830 0.75340 0.20885 -0.16100
C 	C 	0.70260 0.34120 0.68221 -1.21300
C 	C 	0.79732 0.30239 0.68852 0.66400
C 	C 	0.83072 0.30280 0.72405 -0.70200
C 	C 	0.91438 0.26410 0.73521 0.55500
C 	C 	0.93760 0.26420 0.77518 -1.14000
C 	C 	0.06633 0.19770 0.71765 0.07500
C 	C 	0.08650 0.10860 0.69683 -0.19000
C 	C 	0.18760 0.08180 0.70166 -0.05000
C 	C 	0.24910 0.15730 0.68846 -0.06700
C 	C 	0.13030 0.27510 0.70576 0.05300
C 	C 	0.70850 0.07810 0.53137 -1.21700
C 	C 	0.80579 0.09929 0.52098 0.66500
C 	C 	0.84360 0.05820 0.48995 -0.68700
C 	C 	0.93223 0.07355 0.47677 0.54000
C 	C 	0.96180 0.02600 0.44236 -1.07800
C 	C 	0.08770 0.14440 0.48641 0.06100
C 	C 	0.10940 0.24580 0.48905 -0.16600
C 	C 	0.21150 0.26470 0.48578 -0.06500
C 	C 	0.05230 0.56520 0.81084 -1.24900
C 	C 	0.08064 0.49156 0.78481 0.68300
C 	C 	0.04572 0.49342 0.74926 -0.68800
C 	C 	0.06427 0.42935 0.72201 0.52800
C 	C 	0.02420 0.44480 0.68463 -1.04500
C 	C 	0.23170 0.24660 0.70885 -0.16100
C 	C 	0.84120 0.79740 0.43221 -1.21300
C 	C 	0.80239 0.70268 0.43852 0.66400
C 	C 	0.80280 0.66928 0.47405 -0.70200
C 	C 	0.76410 0.58562 0.48521 0.55600
C 	C 	0.76420 0.56240 0.52518 -1.14100
C 	C 	0.69770 0.43367 0.46765 0.07400
C 	C 	0.60860 0.41350 0.44683 -0.19000
C 	C 	0.58180 0.31240 0.45166 -0.05100
C 	C 	0.65730 0.25090 0.43846 -0.06600
C 	C 	0.77510 0.36970 0.45576 0.05400
C 	C 	0.57810 0.79150 0.28137 -1.22100
C 	C 	0.59929 0.69421 0.27098 0.67000
C 	C 	0.55820 0.65640 0.23995 -0.69700
C 	C 	0.57355 0.56777 0.22677 0.55400
C 	C 	0.52600 0.53820 0.19236 -1.12800
C 	C 	0.64440 0.41230 0.23641 0.06400
C 	C 	0.74580 0.39060 0.23905 -0.16700
C 	C 	0.76470 0.28850 0.23578 -0.06500
C 	C 	0.06520 0.44770 0.56084 -1.26800
C 	C 	0.99156 0.41936 0.53481 0.68800
C 	C 	0.99342 0.45428 0.49926 -0.69000
C 	C 	0.92935 0.43573 0.47201 0.52900
C 	C 	0.94480 0.47580 0.43463 -1.04600
C 	C 	0.74660 0.26830 0.45885 -0.16200
C 	C 	0.15880 0.20260 0.93221 -1.21300
C 	C 	0.19761 0.29732 0.93852 0.66400
C 	C 	0.19720 0.33072 0.97405 -0.70200
C 	C 	0.23590 0.41438 0.98521 0.55600
C 	C 	0.23580 0.43760 0.02518 -1.14200
C 	C 	0.30230 0.56633 0.96765 0.07400
C 	C 	0.39140 0.58650 0.94683 -0.19000
C 	C 	0.41820 0.68760 0.95166 -0.05200
C 	C 	0.34270 0.74910 0.93846 -0.06600
C 	C 	0.22490 0.63030 0.95576 0.05400
C 	C 	0.42190 0.20850 0.78137 -1.22100
C 	C 	0.40071 0.30579 0.77098 0.67000
C 	C 	0.44180 0.34360 0.73995 -0.69700
C 	C 	0.42645 0.43223 0.72677 0.55400
C 	C 	0.47400 0.46180 0.69236 -1.12800
C 	C 	0.35560 0.58770 0.73641 0.06400
C 	C 	0.25420 0.60940 0.73905 -0.16700
C 	C 	0.23530 0.71150 0.73578 -0.06500
C 	C 	0.93480 0.55230 0.06084 -1.26100
C 	C 	0.00844 0.58064 0.03481 0.68200
C 	C 	0.00658 0.54572 0.99926 -0.68300
C 	C 	0.07065 0.56427 0.97201 0.52600
C 	C 	0.05520 0.52420 0.93463 -1.04100
C 	C 	0.25340 0.73170 0.95885 -0.16300
C 	C 	0.20260 0.15880 0.06779 -1.21300
C 	C 	0.29732 0.19761 0.06148 0.66400
C 	C 	0.33072 0.19720 0.02595 -0.70200
C 	C 	0.41438 0.23590 0.01479 0.55600
C 	C 	0.43760 0.23580 0.97482 -1.14200
C 	C 	0.56633 0.30230 0.03235 0.07400
C 	C 	0.58650 0.39140 0.05317 -0.19000
C 	C 	0.68760 0.41820 0.04834 -0.05200
C 	C 	0.74910 0.34270 0.06154 -0.06600
C 	C 	0.63030 0.22490 0.04424 0.05400
C 	C 	0.20850 0.42190 0.21863 -1.22100
C 	C 	0.30579 0.40071 0.22902 0.67000
C 	C 	0.34360 0.44180 0.26005 -0.69700
C 	C 	0.43223 0.42645 0.27323 0.55400
C 	C 	0.46180 0.47400 0.30764 -1.12800
C 	C 	0.58770 0.35560 0.26359 0.06400
C 	C 	0.60940 0.25420 0.26095 -0.16700
C 	C 	0.71150 0.23530 0.26422 -0.06500
C 	C 	0.55230 0.93480 0.93916 -1.26100
C 	C 	0.58064 0.00844 0.96519 0.68200
C 	C 	0.54572 0.00658 0.00074 -0.68300
C 	C 	0.56427 0.07065 0.02799 0.52600
C 	C 	0.52420 0.05520 0.06537 -1.04100
C 	C 	0.73170 0.25340 0.04115 -0.16300
C 	C 	0.79740 0.84120 0.56779 -1.21300
C 	C 	0.70268 0.80239 0.56148 0.66400
C 	C 	0.66928 0.80280 0.52595 -0.70200
C 	C 	0.58562 0.76410 0.51479 0.55600
C 	C 	0.56240 0.76420 0.47482 -1.14100
C 	C 	0.43367 0.69770 0.53235 0.07400
C 	C 	0.41350 0.60860 0.55317 -0.19000
C 	C 	0.31240 0.58180 0.54834 -0.05100
C 	C 	0.25090 0.65730 0.56154 -0.06600
C 	C 	0.36970 0.77510 0.54424 0.05400
C 	C 	0.79150 0.57810 0.71863 -1.22100
C 	C 	0.69421 0.59929 0.72902 0.67000
C 	C 	0.65640 0.55820 0.76005 -0.69700
C 	C 	0.56777 0.57355 0.77323 0.55400
C 	C 	0.53820 0.52600 0.80764 -1.12800
C 	C 	0.41230 0.64440 0.76359 0.06400
C 	C 	0.39060 0.74580 0.76095 -0.16700
C 	C 	0.28850 0.76470 0.76422 -0.06500
C 	C 	0.44770 0.06520 0.43916 -1.26800
C 	C 	0.41936 0.99156 0.46519 0.68800
C 	C 	0.45428 0.99342 0.50074 -0.69000
C 	C 	0.43573 0.92935 0.52799 0.52900
C 	C 	0.47580 0.94480 0.56537 -1.04600
C 	C 	0.26830 0.74660 0.54115 -0.16200
C 	C 	0.65880 0.29740 0.81779 -1.21300
C 	C 	0.69761 0.20268 0.81148 0.66400
C 	C 	0.69720 0.16928 0.77595 -0.70200
C 	C 	0.73590 0.08562 0.76479 0.55500
C 	C 	0.73580 0.06240 0.72482 -1.14000
C 	C 	0.80230 0.93367 0.78235 0.07500
C 	C 	0.89140 0.91350 0.80317 -0.19100
C 	C 	0.91820 0.81240 0.79834 -0.05000
C 	C 	0.84270 0.75090 0.81154 -0.06700
C 	C 	0.72490 0.86970 0.79424 0.05300
C 	C 	0.92190 0.29150 0.96863 -1.21200
C 	C 	0.90071 0.19421 0.97902 0.66100
C 	C 	0.94180 0.15640 0.01005 -0.68100
C 	C 	0.92645 0.06777 0.02323 0.53600
C 	C 	0.97400 0.03820 0.05764 -1.06800
C 	C 	0.85560 0.91230 0.01359 0.06100
C 	C 	0.75420 0.89060 0.01095 -0.16600
C 	C 	0.73530 0.78850 0.01422 -0.06500
C 	C 	0.43480 0.94770 0.68916 -1.24900
C 	C 	0.50844 0.91936 0.71519 0.68200
C 	C 	0.50658 0.95428 0.75074 -0.68700
C 	C 	0.57065 0.93573 0.77799 0.52800
C 	C 	0.55520 0.97580 0.81537 -1.04300
C 	C 	0.75340 0.76830 0.79115 -0.16100
C 	C 	0.34120 0.70260 0.31779 -1.21300
C 	C 	0.30239 0.79732 0.31148 0.66400
C 	C 	0.30280 0.83072 0.27595 -0.70200
C 	C 	0.26410 0.91438 0.26479 0.55500
C 	C 	0.26420 0.93760 0.22482 -1.14000
C 	C 	0.19770 0.06633 0.28235 0.07500
C 	C 	0.10860 0.08650 0.30317 -0.19000
C 	C 	0.08180 0.18760 0.29834 -0.05000
C 	C 	0.15730 0.24910 0.31154 -0.06700
C 	C 	0.27510 0.13030 0.29424 0.05300
C 	C 	0.07810 0.70850 0.46863 -1.21700
C 	C 	0.09929 0.80579 0.47902 0.66500
C 	C 	0.05820 0.84360 0.51005 -0.68700
C 	C 	0.07355 0.93223 0.52323 0.54000
C 	C 	0.02600 0.96180 0.55764 -1.07800
C 	C 	0.14440 0.08770 0.51359 0.06100
C 	C 	0.24580 0.10940 0.51095 -0.16600
C 	C 	0.26470 0.21150 0.51422 -0.06500
C 	C 	0.56520 0.05230 0.18916 -1.24900
C 	C 	0.49156 0.08064 0.21519 0.68300
C 	C 	0.49342 0.04572 0.25074 -0.68800
C 	C 	0.42935 0.06427 0.27799 0.52800
C 	C 	0.44480 0.02420 0.31537 -1.04500
C 	C 	0.24660 0.23170 0.29115 -0.16100
N 	N 	0.02885 0.77365 0.21154 -0.32700
N 	N 	0.01021 0.87111 0.99344 -0.31700
N 	N 	0.14978 0.93275 0.12941 0.05100
N 	N 	0.93035 0.76160 0.10075 0.05600
N 	N 	0.33290 0.69585 0.06654 0.05600
N 	N 	0.88376 0.64341 0.22851 -0.31500
N 	N 	0.97115 0.22635 0.71154 -0.32700
N 	N 	0.98979 0.12889 0.49344 -0.32000
N 	N 	0.85022 0.06725 0.62941 0.05100
N 	N 	0.06965 0.23840 0.60075 0.05600
N 	N 	0.66710 0.30415 0.56654 0.05600
N 	N 	0.11624 0.35659 0.72851 -0.31600
N 	N 	0.72635 0.52885 0.46154 -0.32700
N 	N 	0.62889 0.51021 0.24344 -0.32600
N 	N 	0.56725 0.64978 0.37941 0.05100
N 	N 	0.73840 0.43035 0.35075 0.05600
N 	N 	0.80415 0.83290 0.31654 0.05600
N 	N 	0.85659 0.38376 0.47851 -0.31600
N 	N 	0.27365 0.47115 0.96154 -0.32700
N 	N 	0.37111 0.48979 0.74344 -0.32600
N 	N 	0.43275 0.35022 0.87941 0.05100
N 	N 	0.26160 0.56965 0.85075 0.05600
N 	N 	0.19585 0.16710 0.81654 0.05600
N 	N 	0.14341 0.61624 0.97851 -0.31500
N 	N 	0.47115 0.27365 0.03846 -0.32700
N 	N 	0.48979 0.37111 0.25656 -0.32600
N 	N 	0.35022 0.43275 0.12059 0.05100
N 	N 	0.56965 0.26160 0.14925 0.05600
N 	N 	0.16710 0.19585 0.18346 0.05600
N 	N 	0.61624 0.14341 0.02149 -0.31500
N 	N 	0.52885 0.72635 0.53846 -0.32700
N 	N 	0.51021 0.62889 0.75656 -0.32600
N 	N 	0.64978 0.56725 0.62059 0.05100
N 	N 	0.43035 0.73840 0.64925 0.05600
N 	N 	0.83290 0.80415 0.68346 0.05600
N 	N 	0.38376 0.85659 0.52149 -0.31600
N 	N 	0.77365 0.02885 0.78846 -0.32700
N 	N 	0.87111 0.01021 0.00656 -0.31700
N 	N 	0.93275 0.14978 0.87059 0.05100
N 	N 	0.76160 0.93035 0.89925 0.05600
N 	N 	0.69585 0.33290 0.93346 0.05600
N 	N 	0.64341 0.88376 0.77149 -0.31500
N 	N 	0.22635 0.97115 0.28846 -0.32700
N 	N 	0.12889 0.98979 0.50656 -0.32000
N 	N 	0.06725 0.85022 0.37059 0.05100
N 	N 	0.23840 0.06965 0.39925 0.05600
N 	N 	0.30415 0.66710 0.43346 0.05600
N 	N 	0.35659 0.11624 0.27149 -0.31600
O 	O 	0.15979 0.73107 0.16175 -0.52400
O 	O 	0.14947 0.84442 0.04092 -0.49800
O 	O 	0.22038 0.89218 0.11797 -0.25600
O 	O 	0.07421 0.89260 0.12531 -0.22500
O 	O 	0.97353 0.79607 0.07466 -0.24600
O 	O 	0.97724 0.71385 0.12350 -0.29200
O 	O 	0.31953 0.73516 0.09715 -0.27500
O 	O 	0.26317 0.66882 0.05029 -0.26300
O 	O 	0.86365 0.56982 0.29577 -0.51500
O 	O 	0.15485 0.00852 0.14396 -0.16100
O 	O 	0.84880 0.77350 0.10485 -0.16000
O 	O 	0.41020 0.68700 0.05424 -0.15200
O 	O 	0.84021 0.26893 0.66175 -0.52400
O 	O 	0.85053 0.15558 0.54092 -0.49900
O 	O 	0.77962 0.10782 0.61797 -0.25600
O 	O 	0.92579 0.10740 0.62531 -0.22500
O 	O 	0.02647 0.20393 0.57466 -0.24700
O 	O 	0.02276 0.28615 0.62350 -0.29300
O 	O 	0.68047 0.26484 0.59715 -0.27500
O 	O 	0.73683 0.33118 0.55029 -0.26300
O 	O 	0.13635 0.43018 0.79577 -0.51500
O 	O 	0.84515 0.99148 0.64396 -0.16100
O 	O 	0.15120 0.22650 0.60485 -0.16000
O 	O 	0.58980 0.31300 0.55424 -0.15200
O 	O 	0.76893 0.65979 0.41175 -0.52400
O 	O 	0.65558 0.64947 0.29092 -0.50100
O 	O 	0.60782 0.72038 0.36797 -0.25600
O 	O 	0.60740 0.57421 0.37531 -0.22600
O 	O 	0.70393 0.47353 0.32466 -0.24700
O 	O 	0.78615 0.47724 0.37350 -0.29300
O 	O 	0.76484 0.81953 0.34715 -0.27500
O 	O 	0.83118 0.76317 0.30029 -0.26200
O 	O 	0.93018 0.36365 0.54577 -0.51700
O 	O 	0.49148 0.65485 0.39396 -0.16100
O 	O 	0.72650 0.34880 0.35485 -0.16000
O 	O 	0.81300 0.91020 0.30424 -0.15200
O 	O 	0.23107 0.34021 0.91175 -0.52400
O 	O 	0.34442 0.35053 0.79092 -0.50100
O 	O 	0.39218 0.27962 0.86797 -0.25600
O 	O 	0.39260 0.42579 0.87531 -0.22600
O 	O 	0.29607 0.52647 0.82466 -0.24700
O 	O 	0.21385 0.52276 0.87350 -0.29200
O 	O 	0.23516 0.18047 0.84715 -0.27500
O 	O 	0.16882 0.23683 0.80029 -0.26200
O 	O 	0.06982 0.63635 0.04577 -0.51600
O 	O 	0.50852 0.34515 0.89396 -0.16100
O 	O 	0.27350 0.65120 0.85485 -0.16000
O 	O 	0.18700 0.08980 0.80424 -0.15200
O 	O 	0.34021 0.23107 0.08825 -0.52400
O 	O 	0.35053 0.34442 0.20908 -0.50100
O 	O 	0.27962 0.39218 0.13203 -0.25600
O 	O 	0.42579 0.39260 0.12469 -0.22600
O 	O 	0.52647 0.29607 0.17534 -0.24700
O 	O 	0.52276 0.21385 0.12650 -0.29200
O 	O 	0.18047 0.23516 0.15285 -0.27500
O 	O 	0.23683 0.16882 0.19971 -0.26200
O 	O 	0.63635 0.06982 0.95423 -0.51600
O 	O 	0.34515 0.50852 0.10604 -0.16100
O 	O 	0.65120 0.27350 0.14515 -0.16000
O 	O 	0.08980 0.18700 0.19576 -0.15200
O 	O 	0.65979 0.76893 0.58825 -0.52400
O 	O 	0.64947 0.65558 0.70908 -0.50100
O 	O 	0.72038 0.60782 0.63203 -0.25600
O 	O 	0.57421 0.60740 0.62469 -0.22600
O 	O 	0.47353 0.70393 0.67534 -0.24700
O 	O 	0.47724 0.78615 0.62650 -0.29300
O 	O 	0.81953 0.76484 0.65285 -0.27500
O 	O 	0.76317 0.83118 0.69971 -0.26200
O 	O 	0.36365 0.93018 0.45423 -0.51700
O 	O 	0.65485 0.49148 0.60604 -0.16100
O 	O 	0.34880 0.72650 0.64515 -0.16000
O 	O 	0.91020 0.81300 0.69576 -0.15200
O 	O 	0.73107 0.15979 0.83825 -0.52400
O 	O 	0.84442 0.14947 0.95908 -0.49800
O 	O 	0.89218 0.22038 0.88203 -0.25600
O 	O 	0.89260 0.07421 0.87469 -0.22500
O 	O 	0.79607 0.97353 0.92534 -0.24600
O 	O 	0.71385 0.97724 0.87650 -0.29200
O 	O 	0.73516 0.31953 0.90285 -0.27500
O 	O 	0.66882 0.26317 0.94971 -0.26300
O 	O 	0.56982 0.86365 0.70423 -0.51500
O 	O 	0.00852 0.15485 0.85604 -0.16100
O 	O 	0.77350 0.84880 0.89515 -0.16000
O 	O 	0.68700 0.41020 0.94576 -0.15200
O 	O 	0.26893 0.84021 0.33825 -0.52400
O 	O 	0.15558 0.85053 0.45908 -0.49900
O 	O 	0.10782 0.77962 0.38203 -0.25600
O 	O 	0.10740 0.92579 0.37469 -0.22500
O 	O 	0.20393 0.02647 0.42534 -0.24700
O 	O 	0.28615 0.02276 0.37650 -0.29300
O 	O 	0.26484 0.68047 0.40285 -0.27500
O 	O 	0.33118 0.73683 0.44971 -0.26300
O 	O 	0.43018 0.13635 0.20423 -0.51500
O 	O 	0.99148 0.84515 0.35604 -0.16100
O 	O 	0.22650 0.15120 0.39515 -0.16000
O 	O 	0.31300 0.58980 0.44576 -0.15200
