data_crystal

_cell_length_a 6.40210
_cell_length_b 14.92950
_cell_length_c 15.89010
_cell_angle_alpha 90.00000
_cell_angle_beta  90.00000
_cell_angle_gamma 90.00000

_symmetry_space_group_name_	'P 1'
_symmetry_space_group_name_H-M	'P 1'

loop_
_symmetry_equiv_pos_as_xyz
  x,y,z

loop_
_atom_site_label
_atom_site_type_symbol
_atom_site_fract_x
_atom_site_fract_y
_atom_site_fract_z
_atom_site_charge
Cu	Cu	0.26338 0.40878 0.86524 0.91500
Cu	Cu	0.51448 0.24375 0.99468 0.88000
Cu	Cu	0.23662 0.59122 0.36524 0.91600
Cu	Cu	0.98552 0.75625 0.49468 0.88000
Cu	Cu	0.73662 0.90878 0.63476 0.91500
Cu	Cu	0.48552 0.74375 0.50532 0.88100
Cu	Cu	0.76338 0.09122 0.13476 0.91600
Cu	Cu	0.01448 0.25625 0.00532 0.88000
H 	H 	0.24630 0.24780 0.89310 0.26000
H 	H 	0.65050 0.51740 0.74790 0.15300
H 	H 	0.88210 0.50240 0.75070 0.14600
H 	H 	0.27040 0.57720 0.10280 0.07100
H 	H 	0.27490 0.84780 0.12670 0.09200
H 	H 	0.28140 0.73340 0.89390 0.09100
H 	H 	0.25370 0.75220 0.39310 0.26000
H 	H 	0.84950 0.48260 0.24790 0.15400
H 	H 	0.61790 0.49760 0.25070 0.14600
H 	H 	0.22960 0.42280 0.60280 0.07100
H 	H 	0.22510 0.15220 0.62670 0.09200
H 	H 	0.21860 0.26660 0.39390 0.09100
H 	H 	0.75370 0.74780 0.60690 0.26000
H 	H 	0.34950 0.01740 0.75210 0.15300
H 	H 	0.11790 0.00240 0.74930 0.14600
H 	H 	0.72960 0.07720 0.39720 0.07100
H 	H 	0.72510 0.34780 0.37330 0.09200
H 	H 	0.71860 0.23340 0.60610 0.09100
H 	H 	0.74630 0.25220 0.10690 0.26000
H 	H 	0.15050 0.98260 0.25210 0.15400
H 	H 	0.38210 0.99760 0.24930 0.14600
H 	H 	0.77040 0.92280 0.89720 0.07000
H 	H 	0.77490 0.65220 0.87330 0.09200
H 	H 	0.78140 0.76660 0.10610 0.09100
C 	C 	0.76150 0.43297 0.83600 0.22700
C 	C 	0.27620 0.64271 0.99043 -0.02300
C 	C 	0.27240 0.63490 0.07768 -0.00700
C 	C 	0.27140 0.71116 0.12883 -0.03000
C 	C 	0.27490 0.79548 0.09276 -0.07500
C 	C 	0.27860 0.80160 0.00557 0.10100
C 	C 	0.27910 0.72700 0.95337 -0.07400
C 	C 	0.27510 0.56095 0.93506 0.30100
C 	C 	0.26390 0.70036 0.22407 0.32100
C 	C 	0.73850 0.56703 0.33600 0.22700
C 	C 	0.22380 0.35729 0.49043 -0.02400
C 	C 	0.22760 0.36510 0.57768 -0.00600
C 	C 	0.22860 0.28884 0.62883 -0.03000
C 	C 	0.22510 0.20452 0.59276 -0.07500
C 	C 	0.22140 0.19840 0.50557 0.10200
C 	C 	0.22090 0.27300 0.45337 -0.07500
C 	C 	0.22490 0.43905 0.43506 0.30100
C 	C 	0.23610 0.29964 0.72407 0.32100
C 	C 	0.23850 0.93297 0.66400 0.22800
C 	C 	0.72380 0.14271 0.50957 -0.02400
C 	C 	0.72760 0.13490 0.42232 -0.00600
C 	C 	0.72860 0.21116 0.37117 -0.03000
C 	C 	0.72510 0.29548 0.40724 -0.07500
C 	C 	0.72140 0.30160 0.49443 0.10200
C 	C 	0.72090 0.22700 0.54663 -0.07500
C 	C 	0.72490 0.06095 0.56494 0.30200
C 	C 	0.73610 0.20036 0.27593 0.32100
C 	C 	0.26150 0.06703 0.16400 0.22700
C 	C 	0.77620 0.85729 0.00957 -0.02300
C 	C 	0.77240 0.86510 0.92232 -0.00700
C 	C 	0.77140 0.78884 0.87117 -0.03000
C 	C 	0.77490 0.70452 0.90724 -0.07500
C 	C 	0.77860 0.69840 0.99443 0.10000
C 	C 	0.77910 0.77300 0.04663 -0.07400
C 	C 	0.77510 0.93905 0.06494 0.29900
C 	C 	0.76390 0.79964 0.77593 0.32100
N 	N 	0.58800 0.39542 0.86917 -0.18200
N 	N 	0.66150 0.33522 0.92443 -0.15900
N 	N 	0.86270 0.33640 0.92522 -0.15900
N 	N 	0.93400 0.39681 0.87039 -0.18200
N 	N 	0.76090 0.50100 0.77940 -0.29500
N 	N 	0.27890 0.89075 0.96611 -0.01100
N 	N 	0.91200 0.60458 0.36917 -0.18200
N 	N 	0.83850 0.66478 0.42443 -0.15900
N 	N 	0.63730 0.66360 0.42522 -0.15900
N 	N 	0.56600 0.60319 0.37039 -0.18300
N 	N 	0.73910 0.49900 0.27940 -0.29500
N 	N 	0.22110 0.10925 0.46611 -0.01200
N 	N 	0.41200 0.89542 0.63083 -0.18200
N 	N 	0.33850 0.83522 0.57557 -0.15900
N 	N 	0.13730 0.83640 0.57478 -0.15900
N 	N 	0.06600 0.89681 0.62961 -0.18100
N 	N 	0.23910 0.00100 0.72060 -0.29500
N 	N 	0.72110 0.39075 0.53389 -0.01200
N 	N 	0.08800 0.10458 0.13083 -0.18300
N 	N 	0.16150 0.16478 0.07557 -0.15900
N 	N 	0.36270 0.16360 0.07478 -0.15900
N 	N 	0.43400 0.10319 0.12961 -0.18200
N 	N 	0.26090 0.99900 0.22060 -0.29500
N 	N 	0.77890 0.60925 0.03389 -0.01100
O 	O 	0.26970 0.48388 0.97001 -0.36600
O 	O 	0.28170 0.56936 0.85739 -0.31100
O 	O 	0.24070 0.61946 0.24842 -0.39300
O 	O 	0.27950 0.76721 0.26952 -0.31300
O 	O 	0.27150 0.95671 0.01274 -0.12600
O 	O 	0.28640 0.89564 0.88914 -0.12900
O 	O 	0.26080 0.27680 0.93878 -0.72200
O 	O 	0.23030 0.51612 0.47001 -0.36600
O 	O 	0.21830 0.43064 0.35739 -0.31100
O 	O 	0.25930 0.38054 0.74842 -0.39300
O 	O 	0.22050 0.23279 0.76952 -0.31300
O 	O 	0.22850 0.04329 0.51274 -0.12600
O 	O 	0.21360 0.10436 0.38914 -0.13000
O 	O 	0.23920 0.72320 0.43878 -0.72100
O 	O 	0.73030 0.98388 0.52999 -0.36800
O 	O 	0.71830 0.06936 0.64261 -0.31100
O 	O 	0.75930 0.11946 0.25158 -0.39300
O 	O 	0.72050 0.26721 0.23048 -0.31300
O 	O 	0.72850 0.45671 0.48726 -0.12600
O 	O 	0.71360 0.39564 0.61086 -0.13000
O 	O 	0.73920 0.77680 0.56122 -0.72300
O 	O 	0.76970 0.01612 0.02999 -0.36400
O 	O 	0.78170 0.93064 0.14261 -0.31100
O 	O 	0.74070 0.88054 0.75158 -0.39400
O 	O 	0.77950 0.73279 0.73048 -0.31400
O 	O 	0.77150 0.54329 0.98726 -0.12600
O 	O 	0.78640 0.60436 0.11086 -0.13000
O 	O 	0.76080 0.22320 0.06122 -0.72100
