data_crystal

_cell_length_a 10.89600
_cell_length_b 19.69800
_cell_length_c 21.55400
_cell_angle_alpha 90.00000
_cell_angle_beta  100.48000
_cell_angle_gamma 90.00000

_symmetry_space_group_name_	'P 1'
_symmetry_space_group_name_H-M	'P 1'

loop_
_symmetry_equiv_pos_as_xyz
  x,y,z

loop_
_atom_site_label
_atom_site_type_symbol
_atom_site_fract_x
_atom_site_fract_y
_atom_site_fract_z
_atom_site_charge
Zn	Zn	0.64512 0.05068 0.63465 1.21400
Zn	Zn	0.68460 0.94772 0.73491 1.21600
Zn	Zn	0.64512 0.44932 0.13465 1.21400
Zn	Zn	0.68460 0.55228 0.23491 1.21600
H 	H 	0.63620 0.91270 0.48480 0.03400
H 	H 	0.68860 0.76370 0.61390 0.03400
H 	H 	0.63840 0.83400 0.40570 0.07000
H 	H 	0.09180 0.92170 0.75190 0.05400
H 	H 	0.30030 0.92120 0.74250 0.04900
H 	H 	0.66010 0.30230 0.11190 -0.00300
H 	H 	0.76560 0.09340 0.88650 0.03000
H 	H 	0.66140 0.38220 0.91310 0.08400
H 	H 	0.59460 0.22730 0.75940 0.02600
H 	H 	0.66660 0.22600 0.03310 0.07900
H 	H 	0.69750 0.68480 0.53500 0.06600
H 	H 	0.02700 0.07470 0.62710 0.05600
H 	H 	0.58670 0.30440 0.83970 0.07700
H 	H 	0.23390 0.07210 0.61560 0.04800
H 	H 	0.79840 0.63670 0.45690 0.08600
H 	H 	0.65080 0.45460 0.99510 0.00400
H 	H 	0.76120 0.17170 0.96510 0.06800
H 	H 	0.80570 0.56650 0.37180 -0.00800
H 	H 	0.55140 0.67320 0.26530 -0.01000
H 	H 	0.53960 0.74590 0.34630 0.09000
H 	H 	0.63620 0.58730 0.98480 0.03500
H 	H 	0.68860 0.73630 0.11390 0.03500
H 	H 	0.63840 0.66600 0.90570 0.07000
H 	H 	0.09180 0.57830 0.25190 0.05500
H 	H 	0.30030 0.57880 0.24250 0.04900
H 	H 	0.66010 0.19770 0.61190 -0.00300
H 	H 	0.76560 0.40660 0.38650 0.03000
H 	H 	0.66140 0.11780 0.41310 0.08400
H 	H 	0.59460 0.27270 0.25940 0.02600
H 	H 	0.66660 0.27400 0.53310 0.07900
H 	H 	0.69750 0.81520 0.03500 0.06600
H 	H 	0.02700 0.42530 0.12710 0.05500
H 	H 	0.58670 0.19560 0.33970 0.07700
H 	H 	0.23390 0.42790 0.11560 0.04900
H 	H 	0.79840 0.86330 0.95690 0.08600
H 	H 	0.65080 0.04540 0.49510 0.00400
H 	H 	0.76120 0.32830 0.46510 0.06800
H 	H 	0.80570 0.93350 0.87180 -0.00900
H 	H 	0.55140 0.82680 0.76530 -0.01000
H 	H 	0.53960 0.75410 0.84630 0.09000
C 	C 	0.66310 0.84680 0.55710 -0.11600
C 	C 	0.66980 0.75120 0.46206 0.02700
C 	C 	0.67350 0.70170 0.40999 0.08500
C 	C 	0.67350 0.15110 0.81424 -0.11800
C 	C 	0.03820 0.99810 0.69030 -0.06700
C 	C 	0.64800 0.86700 0.49496 0.04000
C 	C 	0.42520 0.99840 0.67471 0.37100
C 	C 	0.65840 0.89860 0.60791 0.39600
C 	C 	0.68020 0.77780 0.57210 0.03800
C 	C 	0.66900 0.24560 0.91130 0.04100
C 	C 	0.66510 0.29480 0.96280 0.06600
C 	C 	0.65010 0.81980 0.44754 -0.10200
C 	C 	0.67230 0.09830 0.76296 0.39400
C 	C 	0.12050 0.95220 0.72490 -0.02200
C 	C 	0.24540 0.95190 0.71920 -0.01400
C 	C 	0.28850 0.99720 0.67880 -0.08000
C 	C 	0.90210 0.99800 0.69490 0.37200
C 	C 	0.65950 0.31840 0.07130 0.07900
C 	C 	0.72780 0.13540 0.87680 0.04200
C 	C 	0.66050 0.36470 0.95310 -0.13300
C 	C 	0.62520 0.21500 0.80100 0.04800
C 	C 	0.66410 0.27220 0.02420 -0.13400
C 	C 	0.68460 0.73040 0.52480 -0.09800
C 	C 	0.08150 0.04360 0.64990 -0.02300
C 	C 	0.62160 0.26170 0.84940 -0.11000
C 	C 	0.20570 0.04250 0.64350 -0.01300
C 	C 	0.74940 0.64610 0.41780 -0.15700
C 	C 	0.65460 0.40810 0.00278 0.08300
C 	C 	0.72480 0.18250 0.92380 -0.10700
C 	C 	0.75210 0.60370 0.36640 0.09800
C 	C 	0.60360 0.66620 0.30400 0.09800
C 	C 	0.59640 0.71020 0.35240 -0.15900
C 	C 	0.66310 0.65320 0.05710 -0.11400
C 	C 	0.66980 0.74880 0.96206 0.02500
C 	C 	0.67350 0.79830 0.90999 0.08600
C 	C 	0.67350 0.34890 0.31424 -0.11800
C 	C 	0.03820 0.50190 0.19030 -0.07000
C 	C 	0.64800 0.63300 0.99496 0.03800
C 	C 	0.42520 0.50160 0.17471 0.37100
C 	C 	0.65840 0.60140 0.10791 0.39600
C 	C 	0.68020 0.72220 0.07210 0.03600
C 	C 	0.66900 0.25440 0.41130 0.04100
C 	C 	0.66510 0.20520 0.46280 0.06500
C 	C 	0.65010 0.68020 0.94754 -0.10100
C 	C 	0.67230 0.40170 0.26296 0.39400
C 	C 	0.12050 0.54780 0.22490 -0.02000
C 	C 	0.24540 0.54810 0.21920 -0.01500
C 	C 	0.28850 0.50280 0.17880 -0.07900
C 	C 	0.90210 0.50200 0.19490 0.37500
C 	C 	0.65950 0.18160 0.57130 0.07800
C 	C 	0.72780 0.36460 0.37680 0.04200
C 	C 	0.66050 0.13530 0.45310 -0.13300
C 	C 	0.62520 0.28500 0.30100 0.04800
C 	C 	0.66410 0.22780 0.52420 -0.13300
C 	C 	0.68460 0.76960 0.02480 -0.09600
C 	C 	0.08150 0.45640 0.14990 -0.02100
C 	C 	0.62160 0.23830 0.34940 -0.11000
C 	C 	0.20570 0.45750 0.14350 -0.01400
C 	C 	0.74940 0.85390 0.91780 -0.15800
C 	C 	0.65460 0.09190 0.50278 0.08300
C 	C 	0.72480 0.31750 0.42380 -0.10700
C 	C 	0.75210 0.89630 0.86640 0.09800
C 	C 	0.60360 0.83380 0.80400 0.09900
C 	C 	0.59640 0.78980 0.85240 -0.16000
N 	N 	0.65420 0.38603 0.06160 -0.25300
N 	N 	0.68210 0.61370 0.30995 -0.25900
N 	N 	0.65420 0.11397 0.56160 -0.25300
N 	N 	0.68210 0.88630 0.80995 -0.25900
O 	O 	0.64110 0.11717 0.70703 -0.45800
O 	O 	0.45920 0.03475 0.63288 -0.45100
O 	O 	0.66140 0.87804 0.66327 -0.45100
O 	O 	0.83510 0.04250 0.66440 -0.45900
O 	O 	0.86550 0.95212 0.72819 -0.45200
O 	O 	0.49730 0.96330 0.71462 -0.46700
O 	O 	0.65300 0.95935 0.59102 -0.47700
O 	O 	0.70180 0.03893 0.78136 -0.46400
O 	O 	0.64110 0.38283 0.20703 -0.45800
O 	O 	0.45920 0.46525 0.13288 -0.45100
O 	O 	0.66140 0.62196 0.16327 -0.45100
O 	O 	0.83510 0.45750 0.16440 -0.46100
O 	O 	0.86550 0.54788 0.22819 -0.45200
O 	O 	0.49730 0.53670 0.21462 -0.46700
O 	O 	0.65300 0.54065 0.09102 -0.47700
O 	O 	0.70180 0.46107 0.28136 -0.46500
Zn	Zn	0.35488 0.55068 0.86535 1.21500
Zn	Zn	0.31540 0.44772 0.76509 1.21700
Zn	Zn	0.35488 0.94932 0.36535 1.21500
Zn	Zn	0.31540 0.05228 0.26509 1.21700
H 	H 	0.36380 0.41270 0.01520 0.03500
H 	H 	0.31140 0.26370 0.88610 0.03500
H 	H 	0.36160 0.33400 0.09430 0.07000
H 	H 	0.90820 0.42170 0.74810 0.05500
H 	H 	0.69970 0.42120 0.75750 0.04900
H 	H 	0.33990 0.80230 0.38810 -0.00300
H 	H 	0.23440 0.59340 0.61350 0.03000
H 	H 	0.33860 0.88220 0.58690 0.08400
H 	H 	0.40540 0.72730 0.74060 0.02600
H 	H 	0.33340 0.72600 0.46690 0.07900
H 	H 	0.30250 0.18480 0.96500 0.06600
H 	H 	0.97300 0.57470 0.87290 0.05500
H 	H 	0.41330 0.80440 0.66030 0.07700
H 	H 	0.76610 0.57210 0.88440 0.04900
H 	H 	0.20160 0.13670 0.04310 0.08600
H 	H 	0.34920 0.95460 0.50490 0.00400
H 	H 	0.23880 0.67170 0.53490 0.06800
H 	H 	0.19430 0.06650 0.12820 -0.00900
H 	H 	0.44860 0.17320 0.23470 -0.01000
H 	H 	0.46040 0.24590 0.15370 0.09000
H 	H 	0.36380 0.08730 0.51520 0.03500
H 	H 	0.31140 0.23630 0.38610 0.03500
H 	H 	0.36160 0.16600 0.59430 0.07100
H 	H 	0.90820 0.07830 0.24810 0.05500
H 	H 	0.69970 0.07880 0.25750 0.04900
H 	H 	0.33990 0.69770 0.88810 -0.00300
H 	H 	0.23440 0.90660 0.11350 0.03000
H 	H 	0.33860 0.61780 0.08690 0.08400
H 	H 	0.40540 0.77270 0.24060 0.02600
H 	H 	0.33340 0.77400 0.96690 0.07900
H 	H 	0.30250 0.31520 0.46500 0.06600
H 	H 	0.97300 0.92530 0.37290 0.05600
H 	H 	0.41330 0.69560 0.16030 0.07700
H 	H 	0.76610 0.92790 0.38440 0.04800
H 	H 	0.20160 0.36330 0.54310 0.08600
H 	H 	0.34920 0.54540 0.00490 0.00400
H 	H 	0.23880 0.82830 0.03490 0.06800
H 	H 	0.19430 0.43350 0.62820 -0.00800
H 	H 	0.44860 0.32680 0.73470 -0.01000
H 	H 	0.46040 0.25410 0.65370 0.09000
C 	C 	0.33690 0.34680 0.94290 -0.11400
C 	C 	0.33020 0.25120 0.03794 0.02500
C 	C 	0.32650 0.20170 0.09001 0.08600
C 	C 	0.32650 0.65110 0.68576 -0.11800
C 	C 	0.96180 0.49810 0.80970 -0.07000
C 	C 	0.35200 0.36700 0.00504 0.03800
C 	C 	0.57480 0.49840 0.82529 0.37100
C 	C 	0.34160 0.39860 0.89209 0.39600
C 	C 	0.31980 0.27780 0.92790 0.03600
C 	C 	0.33100 0.74560 0.58870 0.04100
C 	C 	0.33490 0.79480 0.53720 0.06500
C 	C 	0.34990 0.31980 0.05246 -0.10100
C 	C 	0.32770 0.59830 0.73704 0.39400
C 	C 	0.87950 0.45220 0.77510 -0.02000
C 	C 	0.75460 0.45190 0.78080 -0.01500
C 	C 	0.71150 0.49720 0.82120 -0.07900
C 	C 	0.09790 0.49800 0.80510 0.37500
C 	C 	0.34050 0.81840 0.42870 0.07800
C 	C 	0.27220 0.63540 0.62320 0.04200
C 	C 	0.33950 0.86470 0.54690 -0.13300
C 	C 	0.37480 0.71500 0.69900 0.04800
C 	C 	0.33590 0.77220 0.47580 -0.13300
C 	C 	0.31540 0.23040 0.97520 -0.09600
C 	C 	0.91850 0.54360 0.85010 -0.02100
C 	C 	0.37840 0.76170 0.65060 -0.11000
C 	C 	0.79430 0.54250 0.85650 -0.01400
C 	C 	0.25060 0.14610 0.08220 -0.15800
C 	C 	0.34540 0.90810 0.49722 0.08300
C 	C 	0.27520 0.68250 0.57620 -0.10700
C 	C 	0.24790 0.10370 0.13360 0.09800
C 	C 	0.39640 0.16620 0.19600 0.09900
C 	C 	0.40360 0.21020 0.14760 -0.16000
C 	C 	0.33690 0.15320 0.44290 -0.11600
C 	C 	0.33020 0.24880 0.53794 0.02700
C 	C 	0.32650 0.29830 0.59001 0.08500
C 	C 	0.32650 0.84890 0.18576 -0.11800
C 	C 	0.96180 0.00190 0.30970 -0.06700
C 	C 	0.35200 0.13300 0.50504 0.04000
C 	C 	0.57480 0.00160 0.32529 0.37100
C 	C 	0.34160 0.10140 0.39209 0.39600
C 	C 	0.31980 0.22220 0.42790 0.03800
C 	C 	0.33100 0.75440 0.08870 0.04100
C 	C 	0.33490 0.70520 0.03720 0.06600
C 	C 	0.34990 0.18020 0.55246 -0.10200
C 	C 	0.32770 0.90170 0.23704 0.39400
C 	C 	0.87950 0.04780 0.27510 -0.02200
C 	C 	0.75460 0.04810 0.28080 -0.01400
C 	C 	0.71150 0.00280 0.32120 -0.08000
C 	C 	0.09790 0.00200 0.30510 0.37200
C 	C 	0.34050 0.68160 0.92870 0.07900
C 	C 	0.27220 0.86460 0.12320 0.04200
C 	C 	0.33950 0.63530 0.04690 -0.13300
C 	C 	0.37480 0.78500 0.19900 0.04800
C 	C 	0.33590 0.72780 0.97580 -0.13400
C 	C 	0.31540 0.26960 0.47520 -0.09800
C 	C 	0.91850 0.95640 0.35010 -0.02300
C 	C 	0.37840 0.73830 0.15060 -0.11000
C 	C 	0.79430 0.95750 0.35650 -0.01300
C 	C 	0.25060 0.35390 0.58220 -0.15700
C 	C 	0.34540 0.59190 0.99722 0.08300
C 	C 	0.27520 0.81750 0.07620 -0.10700
C 	C 	0.24790 0.39630 0.63360 0.09800
C 	C 	0.39640 0.33380 0.69600 0.09800
C 	C 	0.40360 0.28980 0.64760 -0.15900
N 	N 	0.34580 0.88603 0.43840 -0.25300
N 	N 	0.31790 0.11370 0.19005 -0.25900
N 	N 	0.34580 0.61397 0.93840 -0.25300
N 	N 	0.31790 0.38630 0.69005 -0.25900
O 	O 	0.35890 0.61717 0.79297 -0.45800
O 	O 	0.54080 0.53475 0.86712 -0.45100
O 	O 	0.33860 0.37804 0.83673 -0.45100
O 	O 	0.16490 0.54250 0.83560 -0.46100
O 	O 	0.13450 0.45212 0.77181 -0.45200
O 	O 	0.50270 0.46330 0.78538 -0.46700
O 	O 	0.34700 0.45935 0.90898 -0.47700
O 	O 	0.29820 0.53893 0.71864 -0.46500
O 	O 	0.35890 0.88283 0.29297 -0.45800
O 	O 	0.54080 0.96525 0.36712 -0.45100
O 	O 	0.33860 0.12196 0.33673 -0.45100
O 	O 	0.16490 0.95750 0.33560 -0.45900
O 	O 	0.13450 0.04788 0.27181 -0.45200
O 	O 	0.50270 0.03670 0.28538 -0.46700
O 	O 	0.34700 0.04065 0.40898 -0.47700
O 	O 	0.29820 0.96107 0.21864 -0.46400
