data_crystal

_cell_length_a 9.58560
_cell_length_b 10.02630
_cell_length_c 10.02630
_cell_angle_alpha 107.14400
_cell_angle_beta  109.33300
_cell_angle_gamma 70.66710

_symmetry_space_group_name_	'P 1'
_symmetry_space_group_name_H-M	'P 1'

loop_
_symmetry_equiv_pos_as_xyz
  x,y,z

loop_
_atom_site_label
_atom_site_type_symbol
_atom_site_fract_x
_atom_site_fract_y
_atom_site_fract_z
_atom_site_charge
Mg	Mg	0.50000 0.00000 -0.00000 1.42100
Mg	Mg	-0.00000 0.00000 -0.00000 1.41000
H 	H 	0.63480 0.86660 0.32960 0.21800
H 	H 	0.15260 0.10840 0.33880 0.09200
H 	H 	0.86520 0.32960 0.86660 0.13600
H 	H 	0.34740 0.33880 0.10840 0.12600
H 	H 	0.36520 0.13340 0.67040 -0.04100
H 	H 	0.84740 0.89160 0.66120 0.40100
H 	H 	0.13480 0.67040 0.13340 0.04700
H 	H 	0.65260 0.66120 0.89160 0.36500
C 	C 	0.34280 0.95160 0.19580 0.32900
C 	C 	0.42250 0.97770 0.35330 0.27400
C 	C 	0.58070 0.91970 0.39830 -0.43500
C 	C 	0.34280 0.06060 0.45800 -0.23800
C 	C 	0.15720 0.19580 0.95160 0.39600
C 	C 	0.07750 0.35330 0.97770 0.04000
C 	C 	0.91930 0.39830 0.91970 -0.13100
C 	C 	0.15720 0.45800 0.06060 -0.08700
C 	C 	0.65720 0.04840 0.80420 0.55500
C 	C 	0.57750 0.02230 0.64670 -0.61400
C 	C 	0.41930 0.08030 0.60170 0.23800
C 	C 	0.65720 0.93940 0.54200 0.70200
C 	C 	0.84280 0.80420 0.04840 0.47800
C 	C 	0.92250 0.64670 0.02230 -0.34000
C 	C 	0.08070 0.60170 0.08030 -0.09400
C 	C 	0.84280 0.54200 0.93940 0.53400
O 	O 	0.41980 0.90260 0.10500 -0.51600
O 	O 	0.19680 0.98000 0.16420 -0.46800
O 	O 	0.18900 0.12590 0.42650 -0.31400
O 	O 	0.08020 0.10500 0.90260 -0.57200
O 	O 	0.30320 0.16420 0.98000 -0.44400
O 	O 	0.31100 0.42650 0.12590 -0.34700
O 	O 	0.58020 0.09740 0.89500 -0.51300
O 	O 	0.80320 0.02000 0.83580 -0.57500
O 	O 	0.81100 0.87410 0.57350 -0.51900
O 	O 	0.91980 0.89500 0.09740 -0.44200
O 	O 	0.69680 0.83580 0.02000 -0.59200
O 	O 	0.68900 0.57350 0.87410 -0.48000
