data_crystal

_cell_length_a 9.91340
_cell_length_b 9.91340
_cell_length_c 13.40460
_cell_angle_alpha 85.39160
_cell_angle_beta  70.12580
_cell_angle_gamma 115.57500

_symmetry_space_group_name_	'P 1'
_symmetry_space_group_name_H-M	'P 1'

loop_
_symmetry_equiv_pos_as_xyz
  x,y,z

loop_
_atom_site_label
_atom_site_type_symbol
_atom_site_fract_x
_atom_site_fract_y
_atom_site_fract_z
_atom_site_charge
Tb	Tb	0.26536 0.53866 0.00252 1.83000
Tb	Tb	0.04118 0.26788 0.49748 1.81700
Tb	Tb	0.73464 0.46134 0.99748 1.83000
Tb	Tb	0.95882 0.73212 0.50252 1.81700
H 	H 	0.98830 0.05310 0.14680 0.04600
H 	H 	0.82000 0.76240 0.17900 0.02400
H 	H 	0.69990 0.13510 0.35320 0.04500
H 	H 	0.44140 0.99900 0.32100 0.02100
H 	H 	0.01170 0.94690 0.85320 0.04600
H 	H 	0.18000 0.23760 0.82100 0.02400
H 	H 	0.30010 0.86490 0.64680 0.04500
H 	H 	0.55860 0.00100 0.67900 0.02100
C 	C 	0.88100 0.23070 0.03850 0.43900
C 	C 	0.68810 0.81770 0.11020 -0.02500
C 	C 	0.89910 0.00200 0.12950 -0.02200
C 	C 	0.55880 0.67680 0.09880 0.44200
C 	C 	0.80470 0.83900 0.14770 -0.02700
C 	C 	0.06540 0.40940 0.26560 0.26500
C 	C 	0.83460 0.06770 0.08290 -0.02600
C 	C 	0.76920 0.91950 0.46150 0.42400
C 	C 	0.42790 0.79830 0.38980 -0.02800
C 	C 	0.63150 0.02860 0.37050 -0.02800
C 	C 	0.27560 0.65760 0.40120 0.44200
C 	C 	0.48670 0.95240 0.35230 -0.01900
C 	C 	0.17500 0.33100 0.23440 0.26900
C 	C 	0.65060 0.91750 0.41710 -0.03000
C 	C 	0.11900 0.76930 0.96150 0.43900
C 	C 	0.31190 0.18230 0.88980 -0.02500
C 	C 	0.10090 0.99800 0.87050 -0.02200
C 	C 	0.44120 0.32320 0.90120 0.44200
C 	C 	0.19530 0.16100 0.85230 -0.02700
C 	C 	0.93460 0.59060 0.73440 0.26500
C 	C 	0.16540 0.93230 0.91710 -0.02600
C 	C 	0.23080 0.08050 0.53850 0.42400
C 	C 	0.57210 0.20170 0.61020 -0.02800
C 	C 	0.36850 0.97140 0.62950 -0.02800
C 	C 	0.72440 0.34240 0.59880 0.44200
C 	C 	0.51330 0.04760 0.64770 -0.01900
C 	C 	0.82500 0.66900 0.76560 0.26900
C 	C 	0.34940 0.08250 0.58290 -0.03000
O 	O 	0.01030 0.33420 0.03810 -0.53100
O 	O 	0.78700 0.25360 0.00400 -0.48600
O 	O 	0.07540 0.49770 0.18810 -0.39300
O 	O 	0.58090 0.56220 0.09950 -0.52500
O 	O 	0.70120 0.95630 0.07150 -0.15400
O 	O 	0.44120 0.68360 0.08880 -0.44800
O 	O 	0.97260 0.37460 0.36460 -0.39900
O 	O 	0.87230 0.04840 0.46190 -0.51800
O 	O 	0.75760 0.79100 0.49600 -0.48500
O 	O 	0.18580 0.26350 0.31190 -0.39500
O 	O 	0.16170 0.68040 0.40050 -0.52400
O 	O 	0.52780 0.77270 0.42850 -0.14900
O 	O 	0.27240 0.53000 0.41120 -0.44700
O 	O 	0.23920 0.33720 0.13540 -0.40500
O 	O 	0.98970 0.66580 0.96190 -0.53100
O 	O 	0.21300 0.74640 0.99600 -0.48600
O 	O 	0.92460 0.50230 0.81190 -0.39300
O 	O 	0.41910 0.43780 0.90050 -0.52500
O 	O 	0.29880 0.04370 0.92850 -0.15400
O 	O 	0.55880 0.31640 0.91120 -0.44800
O 	O 	0.02740 0.62540 0.63540 -0.39900
O 	O 	0.12770 0.95160 0.53810 -0.51800
O 	O 	0.24240 0.20900 0.50400 -0.48500
O 	O 	0.81420 0.73650 0.68810 -0.39500
O 	O 	0.83830 0.31960 0.59950 -0.52400
O 	O 	0.47220 0.22730 0.57150 -0.14900
O 	O 	0.72760 0.47000 0.58880 -0.44700
O 	O 	0.76080 0.66280 0.86460 -0.40500
