data_crystal

_cell_length_a 4.71090
_cell_length_b 11.00200
_cell_length_c 31.85800
_cell_angle_alpha 90.00000
_cell_angle_beta  90.00000
_cell_angle_gamma 96.00800

_symmetry_space_group_name_	'P 1'
_symmetry_space_group_name_H-M	'P 1'

loop_
_symmetry_equiv_pos_as_xyz
  x,y,z

loop_
_atom_site_label
_atom_site_type_symbol
_atom_site_fract_x
_atom_site_fract_y
_atom_site_fract_z
_atom_site_charge
Cu	Cu	0.50100 0.41100 0.80420 0.97000
Cu	Cu	0.49900 0.08900 0.30420 0.97000
Cu	Cu	0.49900 0.58900 0.19580 0.97100
Cu	Cu	0.50100 0.91100 0.69580 0.97100
H 	H 	0.63130 0.46100 0.70810 0.06300
H 	H 	0.44890 0.36410 0.64680 0.04000
H 	H 	0.73330 0.46060 0.01300 0.05900
H 	H 	0.45210 0.59090 0.87140 0.01900
H 	H 	0.61630 0.62380 0.94040 0.07600
H 	H 	0.78250 0.26440 0.86940 0.02000
H 	H 	0.94680 0.29730 0.93840 0.07900
H 	H 	0.36870 0.03900 0.20810 0.06200
H 	H 	0.55110 0.13590 0.14680 0.04000
H 	H 	0.26670 0.03940 0.51300 0.05900
H 	H 	0.54790 0.90910 0.37140 0.01900
H 	H 	0.38370 0.87620 0.44040 0.07600
H 	H 	0.21750 0.23560 0.36940 0.02000
H 	H 	0.05320 0.20270 0.43840 0.07900
H 	H 	0.36870 0.53900 0.29190 0.06300
H 	H 	0.55110 0.63590 0.35320 0.04000
H 	H 	0.26670 0.53940 0.98700 0.05900
H 	H 	0.54790 0.40910 0.12860 0.01900
H 	H 	0.38370 0.37620 0.05960 0.07600
H 	H 	0.21750 0.73560 0.13060 0.02000
H 	H 	0.05320 0.70270 0.06160 0.07900
H 	H 	0.63130 0.96100 0.79190 0.06200
H 	H 	0.44890 0.86410 0.85320 0.04000
H 	H 	0.73330 0.96060 0.48700 0.05900
H 	H 	0.45210 0.09090 0.62860 0.01900
H 	H 	0.61630 0.12380 0.55960 0.07600
H 	H 	0.78250 0.76440 0.63060 0.02000
H 	H 	0.94680 0.79730 0.56160 0.07900
C 	C 	0.88268 0.48055 0.99341 -0.07000
C 	C 	0.21650 0.17700 0.79470 0.23600
C 	C 	0.26740 0.22940 0.74930 0.01500
C 	C 	0.50950 0.38670 0.70980 0.01300
C 	C 	0.39750 0.32860 0.67330 0.02300
C 	C 	0.15520 0.17530 0.71210 -0.02200
C 	C 	0.96830 0.05720 0.70840 0.39800
C 	C 	0.74890 0.33720 0.88380 0.06500
C 	C 	0.55230 0.53150 0.88500 0.06000
C 	C 	0.65000 0.55100 0.92600 -0.12900
C 	C 	0.84660 0.35680 0.92480 -0.12800
C 	C 	0.79710 0.46370 0.94590 0.08300
C 	C 	0.11732 0.01945 0.49341 -0.07000
C 	C 	0.78350 0.32300 0.29470 0.23600
C 	C 	0.73260 0.27060 0.24930 0.01400
C 	C 	0.49050 0.11330 0.20980 0.01300
C 	C 	0.60250 0.17140 0.17330 0.02300
C 	C 	0.84480 0.32470 0.21210 -0.02100
C 	C 	0.03170 0.44280 0.20840 0.39400
C 	C 	0.25110 0.16280 0.38380 0.06400
C 	C 	0.44770 0.96850 0.38500 0.06100
C 	C 	0.35000 0.94900 0.42600 -0.12800
C 	C 	0.15340 0.14320 0.42480 -0.12800
C 	C 	0.20290 0.03630 0.44590 0.08100
C 	C 	0.11732 0.51945 0.00659 -0.07000
C 	C 	0.78350 0.82300 0.20530 0.23600
C 	C 	0.73260 0.77060 0.25070 0.01500
C 	C 	0.49050 0.61330 0.29020 0.01300
C 	C 	0.60250 0.67140 0.32670 0.02300
C 	C 	0.84480 0.82470 0.28790 -0.02200
C 	C 	0.03170 0.94280 0.29160 0.39800
C 	C 	0.25110 0.66280 0.11620 0.06500
C 	C 	0.44770 0.46850 0.11500 0.06000
C 	C 	0.35000 0.44900 0.07400 -0.12900
C 	C 	0.15340 0.64320 0.07520 -0.12800
C 	C 	0.20290 0.53630 0.05410 0.08300
C 	C 	0.88268 0.98055 0.50659 -0.07000
C 	C 	0.21650 0.67700 0.70530 0.23600
C 	C 	0.26740 0.72940 0.75070 0.01400
C 	C 	0.50950 0.88670 0.79020 0.01300
C 	C 	0.39750 0.82860 0.82670 0.02300
C 	C 	0.15520 0.67530 0.78790 -0.02100
C 	C 	0.96830 0.55720 0.79160 0.39400
C 	C 	0.74890 0.83720 0.61620 0.06400
C 	C 	0.55230 0.03150 0.61500 0.06100
C 	C 	0.65000 0.05100 0.57400 -0.12800
C 	C 	0.84660 0.85680 0.57520 -0.12800
C 	C 	0.79710 0.96370 0.55410 0.08100
N 	N 	0.43950 0.33400 0.74810 -0.17300
N 	N 	0.22330 0.22640 0.67430 -0.09200
N 	N 	0.60170 0.42460 0.86390 -0.20300
N 	N 	0.56050 0.16600 0.24810 -0.17300
N 	N 	0.77670 0.27360 0.17430 -0.09200
N 	N 	0.39830 0.07540 0.36390 -0.20400
N 	N 	0.56050 0.66600 0.25190 -0.17300
N 	N 	0.77670 0.77360 0.32570 -0.09200
N 	N 	0.39830 0.57540 0.13610 -0.20300
N 	N 	0.43950 0.83400 0.75190 -0.17300
N 	N 	0.22330 0.72640 0.82570 -0.09200
N 	N 	0.60170 0.92460 0.63610 -0.20400
O 	O 	0.31485 0.24416 0.82296 -0.33400
O 	O 	0.01927 0.06993 0.80030 -0.17600
O 	O 	0.70819 0.00789 0.71735 -0.49300
O 	O 	0.10582 0.98899 0.69724 -0.39700
O 	O 	0.68515 0.25584 0.32296 -0.33400
O 	O 	0.98073 0.43007 0.30030 -0.17700
O 	O 	0.29181 0.49211 0.21735 -0.49300
O 	O 	0.89418 0.51101 0.19724 -0.39400
O 	O 	0.68515 0.75584 0.17704 -0.33400
O 	O 	0.98073 0.93007 0.19970 -0.17600
O 	O 	0.29181 0.99211 0.28265 -0.49300
O 	O 	0.89418 0.01101 0.30276 -0.39700
O 	O 	0.31485 0.74416 0.67704 -0.33400
O 	O 	0.01927 0.56993 0.69970 -0.17700
O 	O 	0.70819 0.50789 0.78265 -0.49300
O 	O 	0.10582 0.48899 0.80276 -0.39400
