data_crystal

_cell_length_a 11.69300
_cell_length_b 11.99400
_cell_length_c 13.75300
_cell_angle_alpha 92.97000
_cell_angle_beta  114.36000
_cell_angle_gamma 108.35400

_symmetry_space_group_name_	'P 1'
_symmetry_space_group_name_H-M	'P 1'

loop_
_symmetry_equiv_pos_as_xyz
  x,y,z

loop_
_atom_site_label
_atom_site_type_symbol
_atom_site_fract_x
_atom_site_fract_y
_atom_site_fract_z
_atom_site_charge
Mn	Mn	0.89260 0.27154 0.04643 1.14500
Mn	Mn	0.10740 0.72846 0.95357 1.14500
Mn	Mn	-0.00000 0.00000 -0.00000 1.17000
H 	H 	0.32320 0.56160 0.96250 -0.07500
H 	H 	0.48980 0.31820 0.05140 -0.02800
H 	H 	0.88640 0.12620 0.42980 0.06100
H 	H 	0.09780 0.92930 0.40790 0.06900
H 	H 	0.64100 0.89400 0.56320 0.01200
H 	H 	0.49090 0.13160 0.62200 -0.00000
H 	H 	0.67680 0.43840 0.03750 0.03700
H 	H 	0.51020 0.68180 0.94860 0.09400
H 	H 	0.11360 0.87380 0.57020 0.01400
H 	H 	0.90220 0.07070 0.59210 0.02700
H 	H 	0.35900 0.10600 0.43680 0.08300
H 	H 	0.50910 0.86840 0.37800 0.07700
C 	C 	0.26650 0.35110 0.01850 0.13900
C 	C 	0.38650 0.42940 0.01000 -0.18800
C 	C 	0.39520 0.53620 0.97840 0.16000
C 	C 	0.49320 0.39150 0.03110 0.08400
C 	C 	0.97430 0.06060 0.29620 0.05100
C 	C 	0.98860 0.03080 0.40100 0.05400
C 	C 	0.93160 0.07500 0.45760 -0.11300
C 	C 	0.05770 0.95750 0.44450 -0.12700
C 	C 	0.67130 0.03960 0.73010 0.11000
C 	C 	0.58130 0.01700 0.61280 -0.13600
C 	C 	0.58480 0.93720 0.53850 0.09800
C 	C 	0.49530 0.07860 0.57320 0.05700
C 	C 	0.73350 0.64890 0.98150 0.07000
C 	C 	0.61350 0.57060 0.99000 0.13400
C 	C 	0.60480 0.46380 0.02160 -0.22200
C 	C 	0.50680 0.60850 0.96890 -0.20900
C 	C 	0.02570 0.93940 0.70380 0.15300
C 	C 	0.01140 0.96920 0.59900 -0.08700
C 	C 	0.06840 0.92500 0.54240 0.01600
C 	C 	0.94230 0.04250 0.55550 0.03300
C 	C 	0.32870 0.96040 0.26990 0.11000
C 	C 	0.41870 0.98300 0.38720 0.10100
C 	C 	0.41520 0.06280 0.46150 -0.20300
C 	C 	0.50470 0.92140 0.42680 -0.15200
N 	N 	0.17520 0.38860 0.02900 -0.17400
N 	N 	0.08310 0.28920 0.03070 -0.23100
N 	N 	0.11910 0.19680 0.02120 -0.20100
N 	N 	0.23410 0.23390 0.01340 -0.13300
N 	N 	0.98560 0.99340 0.22250 -0.04900
N 	N 	0.96560 0.05070 0.13960 -0.20400
N 	N 	0.94550 0.14930 0.16300 -0.20500
N 	N 	0.94910 0.15760 0.26120 -0.11700
N 	N 	0.69730 0.13350 0.80170 -0.13000
N 	N 	0.78750 0.12430 0.89620 -0.19100
N 	N 	0.81270 0.02620 0.88090 -0.17600
N 	N 	0.73890 0.96980 0.77650 -0.06200
N 	N 	0.82480 0.61140 0.97100 -0.12600
N 	N 	0.91690 0.71080 0.96930 -0.17700
N 	N 	0.88090 0.80320 0.97880 -0.14600
N 	N 	0.76590 0.76610 0.98660 -0.08900
N 	N 	0.01440 0.00660 0.77750 -0.16000
N 	N 	0.03440 0.94930 0.86040 -0.16500
N 	N 	0.05450 0.85070 0.83700 -0.21000
N 	N 	0.05090 0.84240 0.73880 -0.14000
N 	N 	0.30270 0.86650 0.19830 -0.14000
N 	N 	0.21250 0.87570 0.10380 -0.22200
N 	N 	0.18730 0.97380 0.11910 -0.16100
N 	N 	0.26110 0.03020 0.22350 -0.15500
