data_crystal

_cell_length_a 11.59760
_cell_length_b 12.21300
_cell_length_c 13.51870
_cell_angle_alpha 65.03900
_cell_angle_beta  68.35100
_cell_angle_gamma 87.85800

_symmetry_space_group_name_	'P 1'
_symmetry_space_group_name_H-M	'P 1'

loop_
_symmetry_equiv_pos_as_xyz
  x,y,z

loop_
_atom_site_label
_atom_site_type_symbol
_atom_site_fract_x
_atom_site_fract_y
_atom_site_fract_z
_atom_site_charge
O 	O 	0.97150 0.52860 0.31200 -0.50400
O 	O 	0.06470 0.34480 0.44430 -0.58100
O 	O 	0.78950 0.45340 0.57200 -0.47400
O 	O 	0.03930 0.68470 0.32170 -0.43400
Dy	Dy	0.07124 0.66999 0.67256 1.74100
C 	C 	0.99370 0.35910 0.73350 0.48300
C 	C 	0.26530 0.62780 0.43780 0.43400
O 	O 	0.23620 0.55720 0.70620 -0.42100
O 	O 	0.97890 0.82780 0.55480 -0.37500
O 	O 	0.05800 0.62960 0.86920 -0.38400
O 	O 	0.99500 0.79990 0.77560 -0.28700
O 	O 	0.20820 0.69430 0.48300 -0.46400
O 	O 	0.23380 0.82250 0.60100 -0.42300
C 	C 	0.99470 0.27480 0.85220 -0.11000
C 	C 	0.40600 0.63830 0.39390 -0.11700
C 	C 	0.99740 0.15030 0.87940 -0.03500
C 	C 	0.99270 0.31660 0.93380 0.05400
C 	C 	0.47470 0.72270 0.40300 -0.00200
C 	C 	0.46550 0.55330 0.35730 0.05100
C 	C 	0.99830 0.06570 0.98700 0.09000
H 	H 	0.99860 0.12400 0.82370 0.08200
C 	C 	0.98840 0.23260 0.04370 -0.06500
H 	H 	0.99420 0.39930 0.91500 0.03800
C 	C 	0.60130 0.71950 0.37830 0.00100
H 	H 	0.43530 0.78100 0.42570 0.06000
C 	C 	0.59040 0.54980 0.33220 -0.10200
H 	H 	0.41990 0.49830 0.34990 0.04200
C 	C 	0.99420 0.10810 0.06840 -0.05600
C 	C 	0.97910 0.27060 0.13790 0.37600
C 	C 	0.67540 0.80060 0.39740 0.00900
C 	C 	0.65900 0.63430 0.34150 -0.00600
C 	C 	0.65430 0.44940 0.30690 0.38300
H 	H 	0.99530 0.05350 0.14110 0.09100
C 	C 	0.76260 0.75170 0.44880 0.00500
C 	C 	0.65970 0.92150 0.37070 -0.01400
H 	H 	0.74460 0.63320 0.32270 0.05300
O 	O 	0.58360 0.37120 0.30480 -0.22800
C 	C 	0.83380 0.82220 0.46970 -0.09400
H 	H 	0.77280 0.67020 0.46930 0.04200
H 	H 	0.60190 0.95540 0.33760 0.06200
C 	C 	0.72880 0.99280 0.39250 -0.08000
C 	C 	0.92270 0.76700 0.52830 0.40500
C 	C 	0.81730 0.94330 0.44040 0.04200
C 	C 	0.71160 0.12230 0.36540 0.37100
H 	H 	0.86540 0.99190 0.45260 0.06700
O 	O 	0.64160 0.17160 0.31150 -0.23400
O 	O 	0.02850 0.47140 0.68800 -0.62600
O 	O 	0.93530 0.65520 0.55570 -0.50500
O 	O 	0.21050 0.54660 0.42800 -0.49100
O 	O 	0.96070 0.31530 0.67830 -0.41900
Dy	Dy	0.92876 0.33001 0.32744 1.94900
C 	C 	0.00630 0.64090 0.26650 0.34300
C 	C 	0.73470 0.37220 0.56220 0.43600
O 	O 	0.76380 0.44280 0.29380 -0.42600
O 	O 	0.02110 0.17220 0.44520 -0.46200
O 	O 	0.94200 0.37040 0.13080 -0.39500
O 	O 	0.00500 0.20010 0.22440 -0.46400
O 	O 	0.79180 0.30570 0.51700 -0.46100
O 	O 	0.76620 0.17750 0.39900 -0.42600
C 	C 	0.00530 0.72520 0.14780 -0.13400
C 	C 	0.59400 0.36170 0.60610 -0.12000
C 	C 	0.00260 0.84970 0.12060 0.02200
C 	C 	0.00730 0.68340 0.06620 0.05100
C 	C 	0.52530 0.27730 0.59700 -0.00200
C 	C 	0.53450 0.44670 0.64270 0.05200
C 	C 	0.00170 0.93430 0.01300 -0.07800
H 	H 	0.00140 0.87600 0.17630 0.02100
C 	C 	0.01160 0.76740 0.95630 -0.08100
H 	H 	0.00580 0.60070 0.08500 -0.00100
C 	C 	0.39870 0.28050 0.62170 -0.00300
H 	H 	0.56470 0.21900 0.57430 0.05900
C 	C 	0.40960 0.45020 0.66780 -0.10900
H 	H 	0.58010 0.50170 0.65010 0.04100
C 	C 	0.00580 0.89190 0.93160 -0.00700
C 	C 	0.02090 0.72940 0.86210 0.23000
C 	C 	0.32460 0.19940 0.60260 -0.01100
C 	C 	0.34100 0.36570 0.65850 -0.00500
C 	C 	0.34570 0.55060 0.69310 0.37300
H 	H 	0.00470 0.94650 0.85890 0.02900
C 	C 	0.23740 0.24830 0.55120 0.01300
C 	C 	0.34030 0.07850 0.62930 -0.00200
H 	H 	0.25540 0.36680 0.67730 0.03100
O 	O 	0.41640 0.62880 0.69520 -0.22700
C 	C 	0.16620 0.17780 0.53030 -0.13500
H 	H 	0.22720 0.32980 0.53070 0.02800
H 	H 	0.39810 0.04460 0.66240 0.05300
C 	C 	0.27120 0.00720 0.60750 -0.11200
C 	C 	0.07730 0.23300 0.47170 0.41800
C 	C 	0.18270 0.05670 0.55960 0.06100
C 	C 	0.28840 0.87770 0.63460 0.37800
H 	H 	0.13460 0.00810 0.54740 0.03100
O 	O 	0.35840 0.82840 0.68850 -0.23300
Dy	Dy	0.00000 0.50000 0.50000 1.82400
