data_crystal

_cell_length_a 18.66270
_cell_length_b 27.91610
_cell_length_c 32.36430
_cell_angle_alpha 112.65500
_cell_angle_beta  90.00000
_cell_angle_gamma 90.00000

_symmetry_space_group_name_	'P 1'
_symmetry_space_group_name_H-M	'P 1'

loop_
_symmetry_equiv_pos_as_xyz
  x,y,z

loop_
_atom_site_label
_atom_site_type_symbol
_atom_site_fract_x
_atom_site_fract_y
_atom_site_fract_z
_atom_site_charge
Cu	Cu	0.99285 0.71284 0.69524 0.90900
Cu	Cu	0.81411 0.79026 0.99514 0.90600
Cu	Cu	0.75541 0.70527 0.49040 0.90700
Cu	Cu	0.49285 0.28716 0.80476 0.90900
Cu	Cu	0.80913 0.29699 0.53183 0.90600
Cu	Cu	0.50197 0.79824 0.26959 0.90600
Cu	Cu	0.19087 0.70301 0.46817 0.90600
Cu	Cu	0.24459 0.29473 0.50960 0.90700
Cu	Cu	0.74459 0.70527 0.99040 0.90600
Cu	Cu	0.76168 0.21037 0.02526 0.90800
Cu	Cu	0.73832 0.21037 0.52526 0.90800
Cu	Cu	0.30913 0.70301 0.96817 0.90600
Cu	Cu	0.18589 0.20974 0.00486 0.90600
Cu	Cu	0.50715 0.71284 0.19524 0.90900
Cu	Cu	0.00197 0.20176 0.23041 0.90600
Cu	Cu	0.99803 0.79824 0.76959 0.90600
Cu	Cu	0.23832 0.78963 0.97474 0.90800
Cu	Cu	0.25541 0.29473 0.00960 0.90700
Cu	Cu	0.31411 0.20974 0.50486 0.90600
Cu	Cu	0.26168 0.78963 0.47474 0.90800
Cu	Cu	0.49803 0.20176 0.73041 0.90600
Cu	Cu	0.69087 0.29699 0.03183 0.90600
Cu	Cu	0.00715 0.28716 0.30476 0.91000
Cu	Cu	0.68589 0.79026 0.49514 0.90700
H 	H 	0.64010 0.38880 0.51200 0.08400
H 	H 	0.97190 0.74800 0.46730 0.06900
H 	H 	0.13950 0.38000 0.26000 0.08400
H 	H 	0.79330 0.54740 0.73730 0.14500
H 	H 	0.52740 0.26100 0.50610 0.06800
H 	H 	0.25380 0.55810 0.21310 0.14600
H 	H 	0.17150 0.24400 0.37460 0.07100
H 	H 	0.73530 0.05140 0.32010 0.14600
H 	H 	0.19350 0.05440 0.79620 0.14400
H 	H 	0.24640 0.87940 0.61200 0.08800
H 	H 	0.92260 0.61610 0.00390 0.10700
H 	H 	0.97260 0.26100 0.00610 0.06800
H 	H 	0.20670 0.45260 0.26270 0.14600
H 	H 	0.92360 0.12430 0.53320 0.10000
H 	H 	0.85930 0.87690 0.48060 0.08800
H 	H 	0.29730 0.12160 0.36420 0.08700
H 	H 	0.67340 0.88420 0.24080 0.10800
H 	H 	0.21610 0.62440 0.32620 0.09900
H 	H 	0.70270 0.87840 0.63580 0.08700
H 	H 	0.63490 0.74710 0.35550 0.06500
H 	H 	0.23530 0.94860 0.17990 0.14600
H 	H 	0.32850 0.24400 0.87460 0.07100
H 	H 	0.75380 0.44190 0.28690 0.14600
H 	H 	0.87320 0.24260 0.39180 0.06900
H 	H 	0.75360 0.12060 0.38800 0.08800
H 	H 	0.47190 0.25200 0.03270 0.06800
H 	H 	0.92690 0.94630 0.46510 0.14400
H 	H 	0.24620 0.55810 0.71310 0.14600
H 	H 	0.57640 0.12430 0.03320 0.10000
H 	H 	0.07310 0.05370 0.53490 0.14400
H 	H 	0.13490 0.25290 0.14450 0.06500
H 	H 	0.80650 0.94560 0.20380 0.14400
H 	H 	0.64070 0.87690 0.98060 0.08800
H 	H 	0.83190 0.37140 0.27850 0.08300
H 	H 	0.64500 0.11570 0.77550 0.10500
H 	H 	0.26610 0.38360 0.64840 0.10100
H 	H 	0.35930 0.12310 0.01940 0.08800
H 	H 	0.41900 0.54200 0.49220 0.14500
H 	H 	0.02810 0.25200 0.53270 0.06900
H 	H 	0.08100 0.54200 0.99220 0.14500
H 	H 	0.47260 0.73900 0.49390 0.06800
H 	H 	0.74640 0.12060 0.88800 0.08800
H 	H 	0.25360 0.87940 0.11200 0.08800
H 	H 	0.34150 0.75020 0.34200 0.06200
H 	H 	0.71610 0.37560 0.17380 0.09900
H 	H 	0.74620 0.44190 0.78690 0.14600
H 	H 	0.63950 0.62000 0.24000 0.08400
H 	H 	0.66810 0.37140 0.77850 0.08200
H 	H 	0.52810 0.74800 0.96730 0.06800
H 	H 	0.69350 0.94560 0.70380 0.14400
H 	H 	0.84150 0.24980 0.15800 0.06200
H 	H 	0.42360 0.87570 0.96680 0.09900
H 	H 	0.73390 0.61640 0.35160 0.10100
H 	H 	0.62680 0.24260 0.89180 0.06900
H 	H 	0.82850 0.75600 0.62540 0.07100
H 	H 	0.14500 0.88430 0.72450 0.10500
H 	H 	0.37320 0.75740 0.10820 0.06900
H 	H 	0.20270 0.12160 0.86420 0.08700
H 	H 	0.23390 0.38360 0.14840 0.10100
H 	H 	0.86510 0.74710 0.85550 0.06500
H 	H 	0.02740 0.73900 0.99390 0.06900
H 	H 	0.36510 0.25290 0.64450 0.06500
H 	H 	0.57310 0.94630 0.96510 0.14400
H 	H 	0.67150 0.75600 0.12540 0.07100
H 	H 	0.14010 0.61120 0.98800 0.08400
H 	H 	0.26470 0.94860 0.67990 0.14600
H 	H 	0.35990 0.61120 0.48800 0.08400
H 	H 	0.42260 0.38390 0.49610 0.10700
H 	H 	0.82660 0.88420 0.74080 0.10800
H 	H 	0.58100 0.45800 0.50780 0.14500
H 	H 	0.28390 0.62440 0.82620 0.09900
H 	H 	0.07740 0.38390 0.99610 0.10600
H 	H 	0.85990 0.38880 0.01200 0.08400
H 	H 	0.79730 0.87840 0.13580 0.08700
H 	H 	0.76610 0.61640 0.85160 0.10100
H 	H 	0.86050 0.62000 0.74000 0.08400
H 	H 	0.29330 0.45260 0.76270 0.14600
H 	H 	0.57740 0.61610 0.50390 0.10700
H 	H 	0.14070 0.12310 0.51940 0.08800
H 	H 	0.15850 0.75020 0.84200 0.06200
H 	H 	0.85500 0.11570 0.27550 0.10500
H 	H 	0.35500 0.88430 0.22450 0.10500
H 	H 	0.70670 0.54740 0.23730 0.14600
H 	H 	0.33190 0.62860 0.22150 0.08200
H 	H 	0.78390 0.37560 0.67380 0.09900
H 	H 	0.65850 0.24980 0.65800 0.06200
H 	H 	0.76470 0.05140 0.82010 0.14600
H 	H 	0.07640 0.87570 0.46680 0.09900
H 	H 	0.30650 0.05440 0.29620 0.14400
H 	H 	0.32660 0.11580 0.75920 0.10800
H 	H 	0.42690 0.05370 0.03490 0.14400
H 	H 	0.36050 0.38000 0.76000 0.08400
H 	H 	0.17340 0.11580 0.25920 0.10800
H 	H 	0.16810 0.62860 0.72150 0.08300
H 	H 	0.12680 0.75740 0.60820 0.06900
H 	H 	0.91900 0.45800 0.00780 0.14500
C 	C 	0.25630 0.21350 0.42525 0.33500
C 	C 	0.65050 0.63680 0.27100 -0.09400
C 	C 	0.24470 0.71410 0.88920 0.35700
C 	C 	0.03320 0.31900 -0.00000 -0.03300
C 	C 	0.60390 0.70810 0.50124 0.33500
C 	C 	0.01290 0.97420 0.50060 0.17900
C 	C 	0.22230 0.69240 0.84170 -0.05300
C 	C 	0.15660 0.86670 0.69373 -0.09600
C 	C 	0.34950 0.36320 0.72900 -0.09300
C 	C 	0.18610 0.38980 0.20770 0.13400
C 	C 	0.97080 0.29470 0.00540 -0.01100
C 	C 	0.97130 0.78290 0.46930 -0.01600
C 	C 	0.31390 0.38980 0.70770 0.13400
C 	C 	0.39490 0.78210 0.96339 0.33600
C 	C 	0.25020 0.64160 0.81470 -0.07800
C 	C 	0.89610 0.70810 0.00124 0.33500
C 	C 	0.66450 0.81720 0.18653 -0.03000
C 	C 	0.29850 0.88990 0.17180 0.14600
C 	C 	0.19800 0.29000 0.08996 0.35400
C 	C 	0.20580 0.36580 0.16250 -0.08400
C 	C 	0.16210 0.70300 0.98230 0.35300
C 	C 	0.96670 0.88400 0.47310 0.13400
C 	C 	0.34840 0.69320 0.27944 -0.05100
C 	C 	0.65660 0.13330 0.80627 -0.09600
C 	C 	0.40410 0.62920 0.49130 -0.09600
C 	C 	0.26300 0.53180 0.75560 0.19200
C 	C 	0.51290 0.02580 0.99940 0.17800
C 	C 	0.46710 0.60670 0.49740 0.14000
C 	C 	0.30970 0.13410 0.78880 -0.10000
C 	C 	0.65160 0.30680 0.72056 -0.05100
C 	C 	0.33550 0.18280 0.81347 -0.03000
C 	C 	0.82450 0.28350 0.17617 0.00500
C 	C 	0.08720 0.28580 0.23007 0.35400
C 	C 	0.73570 0.81360 0.12384 -0.02400
C 	C 	0.89490 0.21790 0.53661 0.33600
C 	C 	0.34340 0.86670 0.19373 -0.09600
C 	C 	0.31750 0.31480 0.63880 -0.04500
C 	C 	0.71720 0.13660 0.87290 -0.10400
C 	C 	0.47080 0.70530 0.49460 -0.01500
C 	C 	0.75200 0.97500 0.75480 0.18700
C 	C 	0.46680 0.31900 0.50000 -0.02900
C 	C 	0.84950 0.63680 0.77100 -0.09300
C 	C 	0.60710 0.79350 0.20447 0.34100
C 	C 	0.33860 0.21540 0.01960 0.32900
C 	C 	0.81390 0.61020 0.79230 0.13400
C 	C 	0.22020 0.47790 0.21800 0.19700
C 	C 	0.53320 0.68100 0.50000 -0.02900
C 	C 	0.39610 0.29190 0.49876 0.33500
C 	C 	0.25200 0.02500 0.74520 0.18800
C 	C 	0.46620 0.36780 0.49910 -0.09400
C 	C 	0.02870 0.21710 0.53070 -0.01600
C 	C 	0.74370 0.78650 0.57475 0.33500
C 	C 	0.68830 0.79020 0.14228 -0.02100
C 	C 	0.72020 0.52210 0.28200 0.19700
C 	C 	0.27570 0.61850 0.26980 0.13200
C 	C 	0.90410 0.37080 0.00870 -0.09500
C 	C 	0.52920 0.29470 0.50540 -0.01500
C 	C 	0.13030 0.31230 0.20610 -0.04200
C 	C 	0.80890 0.18610 0.39597 -0.02800
C 	C 	0.77570 0.38150 0.23020 0.13200
C 	C 	0.03320 0.85860 0.46860 -0.08700
C 	C 	0.48710 0.97420 0.00060 0.18000
C 	C 	0.31970 0.64380 0.25233 -0.09100
C 	C 	0.03380 0.36780 0.99910 -0.09100
C 	C 	0.24130 0.11150 0.30720 0.14900
C 	C 	0.10710 0.20650 0.29553 0.34100
C 	C 	0.75530 0.28590 0.11080 0.35700
C 	C 	0.59600 0.85950 0.97680 -0.09900
C 	C 	0.84840 0.30680 0.22056 -0.05100
C 	C 	0.53330 0.88400 0.97310 0.13400
C 	C 	0.53320 0.14140 0.03140 -0.08800
C 	C 	0.25530 0.71410 0.38920 0.35700
C 	C 	0.35240 0.28820 0.66053 -0.00400
C 	C 	0.75870 0.88850 0.69280 0.14900
C 	C 	0.81970 0.35620 0.24767 -0.09100
C 	C 	0.17550 0.71650 0.82383 0.00500
C 	C 	0.18830 0.20980 0.35772 -0.02100
C 	C 	0.52870 0.78290 0.96930 -0.01500
C 	C 	0.79420 0.63420 0.83750 -0.08400
C 	C 	0.03290 0.60670 0.99740 0.13900
C 	C 	0.96680 0.68100 -0.00000 -0.02800
C 	C 	0.80200 0.71000 0.91004 0.35400
C 	C 	0.77770 0.30760 0.15830 -0.05300
C 	C 	0.36970 0.31230 0.70610 -0.04200
C 	C 	0.87030 0.18250 0.33059 -0.03100
C 	C 	0.98810 0.52650 0.00150 0.19500
C 	C 	0.64760 0.71180 0.33947 -0.00400
C 	C 	0.35380 0.79090 0.12447 -0.01800
C 	C 	0.07930 0.79310 0.69242 0.35100
C 	C 	0.76350 0.86280 0.14880 -0.10700
C 	C 	0.10390 0.29190 0.99876 0.33700
C 	C 	0.27770 0.69240 0.34170 -0.05300
C 	C 	0.46680 0.85860 0.96860 -0.08800
C 	C 	0.90620 0.32020 0.00980 -0.04000
C 	C 	0.83550 0.81720 0.68653 -0.03100
C 	C 	0.64620 0.20910 0.87553 -0.01800
C 	C 	0.75630 0.78650 0.07475 0.33500
C 	C 	0.79240 0.21280 0.44528 0.33600
C 	C 	0.79850 0.11010 0.32820 0.14600
C 	C 	0.85240 0.71180 0.83947 -0.00400
C 	C 	0.40750 0.19030 0.02510 -0.02800
C 	C 	0.29420 0.36580 0.66250 -0.08400
C 	C 	0.81750 0.68520 0.86120 -0.04500
C 	C 	0.09380 0.67980 0.99020 -0.03800
C 	C 	0.41280 0.28580 0.73007 0.35400
C 	C 	0.29240 0.78720 0.05472 0.33600
C 	C 	0.90280 0.28154 0.23840 0.35400
C 	C 	0.23570 0.18640 0.37616 -0.02400
C 	C 	0.91280 0.71420 0.76993 0.35400
C 	C 	0.80970 0.86590 0.71120 -0.10000
C 	C 	0.67550 0.28350 0.67617 0.00500
C 	C 	0.59590 0.37080 0.50870 -0.09600
C 	C 	0.78280 0.13660 0.37290 -0.10400
C 	C 	0.69800 0.71000 0.41004 0.35400
C 	C 	0.73700 0.46820 0.24440 0.19200
C 	C 	0.27980 0.47790 0.71800 0.19700
C 	C 	0.15160 0.69320 0.77944 -0.05100
C 	C 	0.32450 0.71650 0.32383 0.00500
C 	C 	0.19110 0.81390 0.60403 -0.02700
C 	C 	0.20150 0.88990 0.67180 0.14600
C 	C 	0.26350 0.13720 0.35120 -0.10700
C 	C 	0.73650 0.86280 0.64880 -0.10700
C 	C 	0.75020 0.35840 0.68530 -0.07800
C 	C 	0.47130 0.21710 0.03070 -0.01500
C 	C 	0.23650 0.13720 0.85120 -0.10700
C 	C 	0.37030 0.81750 0.16941 -0.03100
C 	C 	0.24370 0.21350 0.92525 0.33500
C 	C 	0.74130 0.88850 0.19280 0.14900
C 	C 	0.42070 0.79310 0.19242 0.35100
C 	C 	0.70150 0.11010 0.82820 0.14600
C 	C 	0.48810 0.47350 0.49850 0.19400
C 	C 	0.83860 0.78460 0.48040 0.32900
C 	C 	0.84340 0.13330 0.30627 -0.09600
C 	C 	0.76300 0.46820 0.74440 0.19200
C 	C 	0.39290 0.20650 0.79553 0.34100
C 	C 	0.14620 0.79090 0.62447 -0.01800
C 	C 	0.40280 0.71846 0.26160 0.35400
C 	C 	0.53290 0.39330 0.50260 0.14000
C 	C 	0.09720 0.71846 0.76160 0.35400
C 	C 	0.51190 0.52650 0.50150 0.19400
C 	C 	0.96710 0.39330 0.00260 0.13900
C 	C 	0.30890 0.81390 0.10403 -0.02700
C 	C 	0.72230 0.30760 0.65830 -0.05300
C 	C 	0.92070 0.20690 0.30758 0.35100
C 	C 	0.09250 0.19030 0.52510 -0.02800
C 	C 	0.20830 0.97590 0.73140 0.19000
C 	C 	0.66210 0.29700 0.51770 0.35300
C 	C 	0.69030 0.86590 0.21120 -0.10000
C 	C 	0.69110 0.18610 0.89597 -0.02800
C 	C 	0.90750 0.80970 0.47490 -0.02800
C 	C 	0.57930 0.20690 0.80758 0.35100
C 	C 	0.79170 0.02410 0.26860 0.19000
C 	C 	0.24800 0.02500 0.24520 0.18700
C 	C 	0.58720 0.71420 0.26993 0.35400
C 	C 	0.59250 0.80970 0.97490 -0.02800
C 	C 	0.74800 0.97500 0.25480 0.18800
C 	C 	0.30200 0.29000 0.58996 0.35400
C 	C 	0.59720 0.28154 0.73840 0.35400
C 	C 	0.70830 0.02410 0.76860 0.19200
C 	C 	0.66140 0.78460 0.98040 0.32900
C 	C 	0.46580 0.80770 0.96680 -0.03600
C 	C 	0.25870 0.11150 0.80720 0.14900
C 	C 	0.68610 0.61020 0.29230 0.13400
C 	C 	0.09590 0.62920 0.99130 -0.09600
C 	C 	0.76430 0.81360 0.62384 -0.02400
C 	C 	0.40620 0.67980 0.49020 -0.03900
C 	C 	0.98710 0.02580 0.49940 0.17900
C 	C 	0.70580 0.63420 0.33750 -0.08400
C 	C 	0.02920 0.70530 0.99460 -0.01500
C 	C 	0.12970 0.81750 0.66941 -0.03100
C 	C 	0.26430 0.18640 0.87616 -0.02400
C 	C 	0.85380 0.20910 0.37553 -0.01800
C 	C 	0.53380 0.63220 0.50090 -0.09400
C 	C 	0.40400 0.14050 0.02320 -0.09900
C 	C 	0.83790 0.29700 0.01770 0.35300
C 	C 	0.28280 0.86340 0.12710 -0.10400
C 	C 	0.53420 0.19230 0.03320 -0.03600
C 	C 	0.86970 0.68770 0.79390 -0.04200
C 	C 	0.09600 0.14050 0.52320 -0.09900
C 	C 	0.10510 0.78210 0.46339 0.33600
C 	C 	0.68250 0.68520 0.36120 -0.04500
C 	C 	0.03330 0.11600 0.52690 0.13400
C 	C 	0.62970 0.18250 0.83059 -0.03200
C 	C 	0.29170 0.97590 0.23140 0.19200
C 	C 	0.63030 0.68770 0.29390 -0.04200
C 	C 	0.31170 0.20980 0.85772 -0.02100
C 	C 	0.89290 0.79350 0.70447 0.34100
C 	C 	0.96620 0.63220 0.00090 -0.09300
C 	C 	0.14760 0.28820 0.16053 -0.00400
C 	C 	0.96580 0.19230 0.53320 -0.03600
C 	C 	0.59380 0.32020 0.50980 -0.03900
C 	C 	0.68030 0.35620 0.74767 -0.09100
C 	C 	0.74980 0.35840 0.18530 -0.07800
C 	C 	0.72430 0.38150 0.73020 0.13200
C 	C 	0.19030 0.13410 0.28880 -0.10000
C 	C 	0.24980 0.64160 0.31470 -0.07800
C 	C 	0.18030 0.64380 0.75233 -0.09100
C 	C 	0.90400 0.85950 0.47680 -0.09900
C 	C 	0.21720 0.86340 0.62710 -0.10400
C 	C 	0.33790 0.70300 0.48230 0.35300
C 	C 	0.16140 0.21540 0.51960 0.32900
C 	C 	0.15050 0.36320 0.22900 -0.09300
C 	C 	0.03420 0.80770 0.46680 -0.03500
C 	C 	0.60510 0.21790 0.03661 0.33600
C 	C 	0.01190 0.47350 0.99850 0.19300
C 	C 	0.16450 0.18280 0.31347 -0.03100
C 	C 	0.74470 0.28590 0.61080 0.35700
C 	C 	0.46670 0.11600 0.02690 0.13400
C 	C 	0.20760 0.78720 0.55472 0.33600
C 	C 	0.77980 0.52210 0.78200 0.19700
C 	C 	0.23700 0.53180 0.25560 0.19200
C 	C 	0.22430 0.61850 0.76980 0.13200
C 	C 	0.96680 0.14140 0.53140 -0.08700
C 	C 	0.70760 0.21280 0.94528 0.33600
C 	C 	0.81170 0.79020 0.64228 -0.02100
C 	C 	0.18250 0.31480 0.13880 -0.04500
N 	N 	0.73110 0.93760 0.71630 -0.23100
N 	N 	0.25440 0.56630 0.24218 -0.23900
N 	N 	0.70520 0.55700 0.26660 -0.23500
N 	N 	0.53680 0.93690 0.97770 -0.22400
N 	N 	0.03680 0.06310 0.52230 -0.22400
N 	N 	0.96230 0.44440 0.00340 -0.23400
N 	N 	0.26890 0.06240 0.28370 -0.23100
N 	N 	0.46230 0.55560 0.49660 -0.23500
N 	N 	0.24560 0.56630 0.74218 -0.23900
N 	N 	0.27100 0.94010 0.19350 -0.23500
N 	N 	0.77100 0.05990 0.30650 -0.23500
N 	N 	0.72900 0.05990 0.80650 -0.23500
N 	N 	0.29480 0.44300 0.73340 -0.23500
N 	N 	0.22900 0.94010 0.69350 -0.23500
N 	N 	0.74560 0.43370 0.75782 -0.23900
N 	N 	0.79480 0.55700 0.76660 -0.23500
N 	N 	0.20520 0.44300 0.23340 -0.23500
N 	N 	0.03770 0.55560 0.99660 -0.23500
N 	N 	0.76890 0.93760 0.21630 -0.23200
N 	N 	0.75440 0.43370 0.25782 -0.23900
N 	N 	0.46320 0.06310 0.02230 -0.22400
N 	N 	0.23110 0.06240 0.78370 -0.23200
N 	N 	0.53770 0.44440 0.50340 -0.23500
N 	N 	0.96320 0.93690 0.47770 -0.22400
O 	O 	0.16010 0.31726 0.99927 -0.39300
O 	O 	0.17980 0.74394 0.53359 -0.39300
O 	O 	0.84170 0.73902 0.47892 -0.38900
O 	O 	0.16050 0.80875 0.46710 -0.39100
O 	O 	0.73090 0.68284 0.42720 -0.40200
O 	O 	0.83950 0.19125 0.53290 -0.39100
O 	O 	0.41750 0.17969 0.75751 -0.39500
O 	O 	0.20480 0.18690 0.94168 -0.39700
O 	O 	0.82200 0.75565 0.92964 -0.40200
O 	O 	0.94370 0.25075 0.32998 -0.40800
O 	O 	0.77910 0.31281 0.59578 -0.40400
O 	O 	0.71790 0.32230 0.52072 -0.41000
O 	O 	0.25470 0.81293 0.03758 -0.40100
O 	O 	0.65980 0.02680 0.74640 -0.22500
O 	O 	0.06920 0.96780 0.51380 -0.21900
O 	O 	0.08250 0.17969 0.25751 -0.39500
O 	O 	0.67800 0.75565 0.42964 -0.40200
O 	O 	0.73110 0.74299 0.05421 -0.40600
O 	O 	0.77870 0.52620 0.81960 -0.22700
O 	O 	0.07320 0.46250 0.99350 -0.22600
O 	O 	0.92320 0.23702 0.21368 -0.40100
O 	O 	0.27180 0.53690 0.79440 -0.22100
O 	O 	0.82020 0.25606 0.46641 -0.39300
O 	O 	0.65830 0.73902 0.97892 -0.39000
O 	O 	0.06460 0.81962 0.73303 -0.39800
O 	O 	0.34170 0.26098 0.02108 -0.38900
O 	O 	0.56970 0.76079 0.29304 -0.39500
O 	O 	0.76890 0.74299 0.55421 -0.40600
O 	O 	0.57460 0.30731 0.77727 -0.40300
O 	O 	0.42540 0.69269 0.22273 -0.40300
O 	O 	0.26910 0.31716 0.57280 -0.40200
O 	O 	0.21770 0.18758 0.51309 -0.39400
O 	O 	0.92540 0.30731 0.27727 -0.40200
O 	O 	0.07460 0.69269 0.72273 -0.40200
O 	O 	0.91750 0.82031 0.74249 -0.39500
O 	O 	0.34020 0.97320 0.25360 -0.22500
O 	O 	0.93540 0.18038 0.26697 -0.39800
O 	O 	0.77180 0.46310 0.70560 -0.22100
O 	O 	0.70520 0.96940 0.27860 -0.22600
O 	O 	0.72130 0.52620 0.31960 -0.22700
O 	O 	0.26890 0.25701 0.94579 -0.40600
O 	O 	0.22450 0.76104 0.91075 -0.39700
O 	O 	0.93030 0.68840 0.73101 -0.41200
O 	O 	0.67980 0.25606 0.96641 -0.39400
O 	O 	0.89920 0.75303 0.00098 -0.39800
O 	O 	0.08830 0.25249 0.31891 -0.39800
O 	O 	0.10390 0.73493 0.45991 -0.39500
O 	O 	0.34300 0.74740 0.48098 -0.40000
O 	O 	0.32200 0.24435 0.57036 -0.40200
O 	O 	0.24530 0.81293 0.53758 -0.40100
O 	O 	0.33990 0.31726 0.49927 -0.39300
O 	O 	0.89610 0.26507 0.54009 -0.39500
O 	O 	0.39920 0.24697 0.49902 -0.39900
O 	O 	0.84300 0.25260 0.01902 -0.39900
O 	O 	0.10080 0.24697 0.99902 -0.39900
O 	O 	0.78210 0.32230 0.02072 -0.41000
O 	O 	0.06970 0.23921 0.20696 -0.39500
O 	O 	0.20520 0.03060 0.22140 -0.22600
O 	O 	0.33950 0.80875 0.96710 -0.39100
O 	O 	0.43080 0.96780 0.01380 -0.21900
O 	O 	0.15980 0.97320 0.75360 -0.22500
O 	O 	0.60390 0.26507 0.04009 -0.39500
O 	O 	0.65700 0.25260 0.51902 -0.40000
O 	O 	0.77550 0.23896 0.08925 -0.39700
O 	O 	0.27550 0.76104 0.41075 -0.39700
O 	O 	0.76910 0.68284 0.92720 -0.40200
O 	O 	0.93030 0.76079 0.79304 -0.39500
O 	O 	0.66010 0.68274 0.50073 -0.39300
O 	O 	0.91170 0.74751 0.68109 -0.39800
O 	O 	0.05630 0.74925 0.67002 -0.40800
O 	O 	0.22130 0.47380 0.18040 -0.22700
O 	O 	0.57680 0.23702 0.71368 -0.40200
O 	O 	0.44370 0.74925 0.17002 -0.40900
O 	O 	0.70480 0.81310 0.55832 -0.39700
O 	O 	0.15830 0.26098 0.52108 -0.38900
O 	O 	0.27870 0.47380 0.68040 -0.22700
O 	O 	0.74530 0.18707 0.96242 -0.40100
O 	O 	0.57320 0.53750 0.50650 -0.22700
O 	O 	0.79480 0.96940 0.77860 -0.22600
O 	O 	0.23110 0.25701 0.44579 -0.40600
O 	O 	0.78230 0.81242 0.48691 -0.39400
O 	O 	0.28210 0.67770 0.47928 -0.41000
O 	O 	0.22090 0.68719 0.40422 -0.40400
O 	O 	0.41170 0.25249 0.81891 -0.39800
O 	O 	0.06970 0.31160 0.26899 -0.41200
O 	O 	0.84020 0.02680 0.24640 -0.22500
O 	O 	0.58250 0.82031 0.24249 -0.39500
O 	O 	0.42320 0.76298 0.28632 -0.40200
O 	O 	0.79520 0.81310 0.05832 -0.39600
O 	O 	0.55630 0.25075 0.82998 -0.40900
O 	O 	0.23090 0.31716 0.07280 -0.40200
O 	O 	0.17800 0.24435 0.07036 -0.40200
O 	O 	0.42680 0.46250 0.49350 -0.22700
O 	O 	0.75470 0.18707 0.46242 -0.40100
O 	O 	0.72450 0.23896 0.58925 -0.39700
O 	O 	0.07680 0.76298 0.78632 -0.40100
O 	O 	0.32020 0.74394 0.03359 -0.39300
O 	O 	0.21790 0.67770 0.97928 -0.41000
O 	O 	0.56920 0.03220 0.98620 -0.21900
O 	O 	0.29480 0.03060 0.72140 -0.22600
O 	O 	0.72090 0.31281 0.09578 -0.40400
O 	O 	0.28230 0.18758 0.01309 -0.39500
O 	O 	0.56460 0.18038 0.76697 -0.39800
O 	O 	0.72820 0.46310 0.20560 -0.22100
O 	O 	0.15700 0.74740 0.98098 -0.39900
O 	O 	0.29520 0.18690 0.44168 -0.39700
O 	O 	0.83990 0.68274 0.00073 -0.39200
O 	O 	0.60080 0.75303 0.50098 -0.39900
O 	O 	0.43030 0.23921 0.70696 -0.39500
O 	O 	0.71770 0.81242 0.98691 -0.39500
O 	O 	0.39610 0.73493 0.95991 -0.39500
O 	O 	0.22820 0.53690 0.29440 -0.22100
O 	O 	0.43540 0.81962 0.23303 -0.39800
O 	O 	0.27910 0.68719 0.90422 -0.40400
O 	O 	0.93080 0.03220 0.48620 -0.21900
O 	O 	0.43030 0.31160 0.76899 -0.41200
O 	O 	0.92680 0.53750 0.00650 -0.22700
O 	O 	0.58830 0.74751 0.18109 -0.39800
O 	O 	0.66050 0.19125 0.03290 -0.39100
O 	O 	0.56970 0.68840 0.23101 -0.41200
