data_crystal

_cell_length_a 33.91400
_cell_length_b 15.13500
_cell_length_c 30.96300
_cell_angle_alpha 90.00000
_cell_angle_beta  100.72700
_cell_angle_gamma 90.00000

_symmetry_space_group_name_	'P 1'
_symmetry_space_group_name_H-M	'P 1'

loop_
_symmetry_equiv_pos_as_xyz
  x,y,z

loop_
_atom_site_label
_atom_site_type_symbol
_atom_site_fract_x
_atom_site_fract_y
_atom_site_fract_z
_atom_site_charge
Zn	Zn	0.23080 0.14100 0.03690 1.16100
I 	I 	0.29156 0.24030 0.06293 -0.36900
I 	I 	0.18377 0.16720 0.96360 -0.40600
N 	N 	0.19770 0.15610 0.08890 -0.26800
C 	C 	0.18260 0.08800 0.10760 0.08500
H 	H 	0.18790 0.02980 0.09810 -0.01700
C 	C 	0.15980 0.09600 0.13970 -0.13200
H 	H 	0.14930 0.04560 0.15210 0.08800
C 	C 	0.15300 0.18000 0.15310 0.07800
C 	C 	0.16770 0.25300 0.13470 -0.13100
H 	H 	0.16300 0.31110 0.14390 0.09200
C 	C 	0.18950 0.23700 0.10250 0.08200
H 	H 	0.19930 0.28650 0.08890 -0.01600
C 	C 	0.13050 0.19230 0.18940 0.08900
N 	N 	0.10010 0.13640 0.19420 -0.13000
C 	C 	0.07570 0.15610 0.22320 0.08900
N 	N 	0.08170 0.23160 0.24740 -0.14000
C 	C 	0.11210 0.28740 0.24260 0.08100
N 	N 	0.13650 0.26780 0.21370 -0.13000
N 	N 	0.97350 0.99000 0.22800 -0.24900
C 	C 	0.98990 0.04300 0.26070 0.04800
H 	H 	0.97710 0.04590 0.28550 -0.00500
C 	C 	0.02330 0.09500 0.26210 -0.08900
H 	H 	0.03310 0.13070 0.28710 0.07200
C 	C 	0.04240 0.09500 0.22660 0.03600
C 	C 	0.02740 0.03800 0.19240 -0.09400
H 	H 	0.04030 0.03280 0.16780 0.07600
C 	C 	0.99350 0.99100 0.19480 0.05300
H 	H 	0.98320 0.95440 0.17030 -0.00500
Zn	Zn	0.91890 0.91230 0.23090 1.15600
I 	I 	0.93390 0.76300 0.20100 -0.39300
I 	I 	0.88570 0.94770 0.29970 -0.35400
N 	N 	0.12950 0.52800 0.31580 -0.27500
C 	C 	0.15510 0.50100 0.29100 0.08200
H 	H 	0.17830 0.53580 0.29030 -0.01300
C 	C 	0.14960 0.42600 0.26640 -0.12600
H 	H 	0.16860 0.41010 0.24870 0.08400
C 	C 	0.11720 0.37200 0.26700 0.06200
C 	C 	0.09110 0.40000 0.29300 -0.12400
H 	H 	0.06840 0.36470 0.29540 0.07500
C 	C 	0.09730 0.47800 0.31560 0.07400
H 	H 	0.07780 0.49700 0.33190 -0.01200
I 	I 	0.18577 0.73750 0.32849 -0.37200
Zn	Zn	0.14400 0.62660 0.36280 1.16400
I 	I 	0.08366 0.65970 0.39850 -0.34100
N 	N 	0.18070 0.55590 0.41140 -0.27400
C 	C 	0.21050 0.59400 0.43940 0.08100
H 	H 	0.21560 0.65470 0.43560 -0.01500
C 	C 	0.23420 0.55070 0.47320 -0.14200
H 	H 	0.25590 0.58000 0.49160 0.08600
C 	C 	0.22590 0.46410 0.47990 0.07800
C 	C 	0.19800 0.41750 0.45150 -0.13500
H 	H 	0.19430 0.35560 0.45380 0.10100
C 	C 	0.17580 0.46790 0.41950 0.08200
H 	H 	0.15440 0.43870 0.40070 -0.00200
C 	C 	0.24520 0.41060 0.51760 0.08400
N 	N 	0.27380 0.45010 0.54900 -0.13000
C 	C 	0.29870 0.39900 0.57930 0.07400
N 	N 	0.29490 0.30840 0.57820 -0.13100
C 	C 	0.26630 0.26890 0.54680 0.08400
N 	N 	0.24140 0.32000 0.51650 -0.12300
N 	N 	0.37920 0.52470 0.68180 -0.27700
C 	C 	0.37350 0.43760 0.68240 0.08000
H 	H 	0.38540 0.40550 0.70780 -0.00400
C 	C 	0.35130 0.39200 0.64800 -0.12700
H 	H 	0.35020 0.32960 0.64860 0.09000
C 	C 	0.33070 0.43800 0.61260 0.06400
C 	C 	0.33570 0.52790 0.61120 -0.13700
H 	H 	0.32250 0.56190 0.58700 0.09500
C 	C 	0.36060 0.56700 0.64600 0.08000
H 	H 	0.36470 0.62890 0.64450 -0.00900
N 	N 	0.24660 0.99080 0.54080 -0.27700
C 	C 	0.22330 0.04650 0.51420 0.06700
H 	H 	0.20260 0.02440 0.49190 -0.01600
C 	C 	0.22930 0.13500 0.51890 -0.12300
H 	H 	0.21090 0.17380 0.50110 0.08300
C 	C 	0.26010 0.17250 0.54790 0.06400
C 	C 	0.28160 0.11310 0.57620 -0.13100
H 	H 	0.30210 0.13410 0.59910 0.08200
C 	C 	0.27440 0.02420 0.57250 0.08200
H 	H 	0.28970 0.98530 0.59310 -0.01500
Zn	Zn	0.73080 0.64100 0.03690 1.16200
I 	I 	0.79156 0.74030 0.06293 -0.36800
I 	I 	0.68377 0.66720 0.96360 -0.40600
N 	N 	0.69770 0.65610 0.08890 -0.26700
C 	C 	0.68260 0.58800 0.10760 0.08600
H 	H 	0.68790 0.52980 0.09810 -0.01600
C 	C 	0.65980 0.59600 0.13970 -0.13100
H 	H 	0.64930 0.54560 0.15210 0.08800
C 	C 	0.65300 0.68000 0.15310 0.07700
C 	C 	0.66770 0.75300 0.13470 -0.13100
H 	H 	0.66300 0.81110 0.14390 0.09200
C 	C 	0.68950 0.73700 0.10250 0.08100
H 	H 	0.69930 0.78650 0.08890 -0.01600
C 	C 	0.63050 0.69230 0.18940 0.08900
N 	N 	0.60010 0.63640 0.19420 -0.12900
C 	C 	0.57570 0.65610 0.22320 0.08100
N 	N 	0.58170 0.73160 0.24740 -0.14000
C 	C 	0.61210 0.78740 0.24260 0.08000
N 	N 	0.63650 0.76780 0.21370 -0.12900
N 	N 	0.47350 0.49000 0.22800 -0.25900
C 	C 	0.48990 0.54300 0.26070 0.08100
H 	H 	0.47710 0.54590 0.28550 -0.01300
C 	C 	0.52330 0.59500 0.26210 -0.12800
H 	H 	0.53310 0.63070 0.28710 0.08100
C 	C 	0.54240 0.59500 0.22660 0.05900
C 	C 	0.52740 0.53800 0.19240 -0.13300
H 	H 	0.54030 0.53280 0.16780 0.08600
C 	C 	0.49350 0.49100 0.19480 0.08600
H 	H 	0.48320 0.45440 0.17030 -0.01200
Zn	Zn	0.41890 0.41230 0.23090 1.15700
I 	I 	0.43390 0.26300 0.20100 -0.38700
I 	I 	0.38570 0.44770 0.29970 -0.35200
N 	N 	0.62950 0.02800 0.31580 -0.27500
C 	C 	0.65510 0.00100 0.29100 0.08200
H 	H 	0.67830 0.03580 0.29030 -0.01300
C 	C 	0.64960 0.92600 0.26640 -0.12600
H 	H 	0.66860 0.91010 0.24870 0.08400
C 	C 	0.61720 0.87200 0.26700 0.06200
C 	C 	0.59110 0.90000 0.29300 -0.12400
H 	H 	0.56840 0.86470 0.29540 0.07300
C 	C 	0.59730 0.97800 0.31560 0.07400
H 	H 	0.57780 0.99700 0.33190 -0.01300
I 	I 	0.68577 0.23750 0.32849 -0.37200
Zn	Zn	0.64400 0.12660 0.36280 1.16400
I 	I 	0.58366 0.15970 0.39850 -0.34700
N 	N 	0.68070 0.05590 0.41140 -0.27400
C 	C 	0.71050 0.09400 0.43940 0.08100
H 	H 	0.71560 0.15470 0.43560 -0.01500
C 	C 	0.73420 0.05070 0.47320 -0.14100
H 	H 	0.75590 0.08000 0.49160 0.08600
C 	C 	0.72590 0.96410 0.47990 0.07700
C 	C 	0.69800 0.91750 0.45150 -0.13500
H 	H 	0.69430 0.85560 0.45380 0.10000
C 	C 	0.67580 0.96790 0.41950 0.08200
H 	H 	0.65440 0.93870 0.40070 -0.00300
C 	C 	0.74520 0.91060 0.51760 0.08400
N 	N 	0.77380 0.95010 0.54900 -0.13000
C 	C 	0.79870 0.89900 0.57930 0.07400
N 	N 	0.79490 0.80840 0.57820 -0.13100
C 	C 	0.76630 0.76890 0.54680 0.08400
N 	N 	0.74140 0.82000 0.51650 -0.12300
N 	N 	0.87920 0.02470 0.68180 -0.27700
C 	C 	0.87350 0.93760 0.68240 0.08000
H 	H 	0.88540 0.90550 0.70780 -0.00400
C 	C 	0.85130 0.89200 0.64800 -0.12700
H 	H 	0.85020 0.82960 0.64860 0.09000
C 	C 	0.83070 0.93800 0.61260 0.06300
C 	C 	0.83570 0.02790 0.61120 -0.13600
H 	H 	0.82250 0.06190 0.58700 0.09500
C 	C 	0.86060 0.06700 0.64600 0.07900
H 	H 	0.86470 0.12890 0.64450 -0.00800
N 	N 	0.74660 0.49080 0.54080 -0.27700
C 	C 	0.72330 0.54650 0.51420 0.06700
H 	H 	0.70260 0.52440 0.49190 -0.01600
C 	C 	0.72930 0.63500 0.51890 -0.12200
H 	H 	0.71090 0.67380 0.50110 0.08200
C 	C 	0.76010 0.67250 0.54790 0.06300
C 	C 	0.78160 0.61310 0.57620 -0.13100
H 	H 	0.80210 0.63410 0.59910 0.08200
C 	C 	0.77440 0.52420 0.57250 0.08200
H 	H 	0.78970 0.48530 0.59310 -0.01400
Zn	Zn	0.23080 0.85900 0.53690 1.16100
I 	I 	0.29156 0.75970 0.56293 -0.37100
I 	I 	0.18377 0.83280 0.46360 -0.40200
N 	N 	0.19770 0.84390 0.58890 -0.26700
C 	C 	0.18260 0.91200 0.60760 0.08600
H 	H 	0.18790 0.97020 0.59810 -0.01600
C 	C 	0.15980 0.90400 0.63970 -0.13100
H 	H 	0.14930 0.95440 0.65210 0.08900
C 	C 	0.15300 0.82000 0.65310 0.07800
C 	C 	0.16770 0.74700 0.63470 -0.13100
H 	H 	0.16300 0.68890 0.64390 0.09200
C 	C 	0.18950 0.76300 0.60250 0.08100
H 	H 	0.19930 0.71350 0.58890 -0.01700
C 	C 	0.13050 0.80770 0.68940 0.08900
N 	N 	0.10010 0.86360 0.69420 -0.13000
C 	C 	0.07570 0.84390 0.72320 0.08900
N 	N 	0.08170 0.76840 0.74740 -0.14000
C 	C 	0.11210 0.71260 0.74260 0.08100
N 	N 	0.13650 0.73220 0.71370 -0.13000
N 	N 	0.97350 0.01000 0.72800 -0.24900
C 	C 	0.98990 0.95700 0.76070 0.04800
H 	H 	0.97710 0.95410 0.78550 -0.00500
C 	C 	0.02330 0.90500 0.76210 -0.08900
H 	H 	0.03310 0.86930 0.78710 0.07100
C 	C 	0.04240 0.90500 0.72660 0.03600
C 	C 	0.02740 0.96200 0.69240 -0.09400
H 	H 	0.04030 0.96720 0.66780 0.07600
C 	C 	0.99350 0.00900 0.69480 0.05300
H 	H 	0.98320 0.04560 0.67030 -0.00500
Zn	Zn	0.91890 0.08770 0.73090 1.15600
I 	I 	0.93390 0.23700 0.70100 -0.39300
I 	I 	0.88570 0.05230 0.79970 -0.35400
N 	N 	0.12950 0.47200 0.81580 -0.27500
C 	C 	0.15510 0.49900 0.79100 0.08200
H 	H 	0.17830 0.46420 0.79030 -0.01300
C 	C 	0.14960 0.57400 0.76640 -0.12600
H 	H 	0.16860 0.58990 0.74870 0.08400
C 	C 	0.11720 0.62800 0.76700 0.06200
C 	C 	0.09110 0.60000 0.79300 -0.12400
H 	H 	0.06840 0.63530 0.79540 0.07500
C 	C 	0.09730 0.52200 0.81560 0.07400
H 	H 	0.07780 0.50300 0.83190 -0.01200
I 	I 	0.18577 0.26250 0.82849 -0.37200
Zn	Zn	0.14400 0.37340 0.86280 1.16400
I 	I 	0.08366 0.34030 0.89850 -0.34200
N 	N 	0.18070 0.44410 0.91140 -0.27400
C 	C 	0.21050 0.40600 0.93940 0.07900
H 	H 	0.21560 0.34530 0.93560 -0.01500
C 	C 	0.23420 0.44930 0.97320 -0.13800
H 	H 	0.25590 0.42000 0.99160 0.08400
C 	C 	0.22590 0.53590 0.97990 0.07200
C 	C 	0.19800 0.58250 0.95150 -0.13200
H 	H 	0.19430 0.64440 0.95380 0.09900
C 	C 	0.17580 0.53210 0.91950 0.08000
H 	H 	0.15440 0.56130 0.90070 -0.00200
C 	C 	0.24520 0.58940 0.01760 0.08900
N 	N 	0.27380 0.54990 0.04900 -0.12900
C 	C 	0.29870 0.60100 0.07930 0.07500
N 	N 	0.29490 0.69160 0.07820 -0.13100
C 	C 	0.26630 0.73110 0.04680 0.08400
N 	N 	0.24140 0.68000 0.01650 -0.12300
N 	N 	0.37920 0.47530 0.18180 -0.27800
C 	C 	0.37350 0.56240 0.18240 0.08000
H 	H 	0.38540 0.59450 0.20780 -0.00400
C 	C 	0.35130 0.60800 0.14800 -0.12800
H 	H 	0.35020 0.67040 0.14860 0.09000
C 	C 	0.33070 0.56200 0.11260 0.06400
C 	C 	0.33570 0.47210 0.11120 -0.13700
H 	H 	0.32250 0.43810 0.08700 0.09600
C 	C 	0.36060 0.43300 0.14600 0.08000
H 	H 	0.36470 0.37110 0.14450 -0.00900
N 	N 	0.24660 0.00920 0.04080 -0.27800
C 	C 	0.22330 0.95350 0.01420 0.07600
H 	H 	0.20260 0.97560 0.99190 -0.02100
C 	C 	0.22930 0.86500 0.01890 -0.12700
H 	H 	0.21090 0.82620 0.00110 0.08600
C 	C 	0.26010 0.82750 0.04790 0.06600
C 	C 	0.28160 0.88690 0.07620 -0.13300
H 	H 	0.30210 0.86590 0.09910 0.08200
C 	C 	0.27440 0.97580 0.07250 0.08300
H 	H 	0.28970 0.01470 0.09310 -0.01500
Zn	Zn	0.73080 0.35900 0.53690 1.16100
I 	I 	0.79156 0.25970 0.56293 -0.37100
I 	I 	0.68377 0.33280 0.46360 -0.40300
N 	N 	0.69770 0.34390 0.58890 -0.26700
C 	C 	0.68260 0.41200 0.60760 0.08500
H 	H 	0.68790 0.47020 0.59810 -0.01600
C 	C 	0.65980 0.40400 0.63970 -0.13200
H 	H 	0.64930 0.45440 0.65210 0.08800
C 	C 	0.65300 0.32000 0.65310 0.07700
C 	C 	0.66770 0.24700 0.63470 -0.13100
H 	H 	0.66300 0.18890 0.64390 0.09200
C 	C 	0.68950 0.26300 0.60250 0.08100
H 	H 	0.69930 0.21350 0.58890 -0.01700
C 	C 	0.63050 0.30770 0.68940 0.08900
N 	N 	0.60010 0.36360 0.69420 -0.12900
C 	C 	0.57570 0.34390 0.72320 0.08100
N 	N 	0.58170 0.26840 0.74740 -0.14000
C 	C 	0.61210 0.21260 0.74260 0.08100
N 	N 	0.63650 0.23220 0.71370 -0.12900
N 	N 	0.47350 0.51000 0.72800 -0.25900
C 	C 	0.48990 0.45700 0.76070 0.08100
H 	H 	0.47710 0.45410 0.78550 -0.01300
C 	C 	0.52330 0.40500 0.76210 -0.12800
H 	H 	0.53310 0.36930 0.78710 0.08100
C 	C 	0.54240 0.40500 0.72660 0.05900
C 	C 	0.52740 0.46200 0.69240 -0.13300
H 	H 	0.54030 0.46720 0.66780 0.08600
C 	C 	0.49350 0.50900 0.69480 0.08600
H 	H 	0.48320 0.54560 0.67030 -0.01300
Zn	Zn	0.41890 0.58770 0.73090 1.15700
I 	I 	0.43390 0.73700 0.70100 -0.38700
I 	I 	0.38570 0.55230 0.79970 -0.35200
N 	N 	0.62950 0.97200 0.81580 -0.27500
C 	C 	0.65510 0.99900 0.79100 0.08200
H 	H 	0.67830 0.96420 0.79030 -0.01300
C 	C 	0.64960 0.07400 0.76640 -0.12600
H 	H 	0.66860 0.08990 0.74870 0.08400
C 	C 	0.61720 0.12800 0.76700 0.06200
C 	C 	0.59110 0.10000 0.79300 -0.12400
H 	H 	0.56840 0.13530 0.79540 0.07300
C 	C 	0.59730 0.02200 0.81560 0.07400
H 	H 	0.57780 0.00300 0.83190 -0.01300
I 	I 	0.68577 0.76250 0.82849 -0.37200
Zn	Zn	0.64400 0.87340 0.86280 1.16400
I 	I 	0.58366 0.84030 0.89850 -0.34800
N 	N 	0.68070 0.94410 0.91140 -0.27300
C 	C 	0.71050 0.90600 0.93940 0.07900
H 	H 	0.71560 0.84530 0.93560 -0.01400
C 	C 	0.73420 0.94930 0.97320 -0.13800
H 	H 	0.75590 0.92000 0.99160 0.08400
C 	C 	0.72590 0.03590 0.97990 0.07100
C 	C 	0.69800 0.08250 0.95150 -0.13100
H 	H 	0.69430 0.14440 0.95380 0.09800
C 	C 	0.67580 0.03210 0.91950 0.08000
H 	H 	0.65440 0.06130 0.90070 -0.00200
C 	C 	0.74520 0.08940 0.01760 0.08900
N 	N 	0.77380 0.04990 0.04900 -0.13000
C 	C 	0.79870 0.10100 0.07930 0.07400
N 	N 	0.79490 0.19160 0.07820 -0.13100
C 	C 	0.76630 0.23110 0.04680 0.08400
N 	N 	0.74140 0.18000 0.01650 -0.12300
N 	N 	0.87920 0.97530 0.18180 -0.27800
C 	C 	0.87350 0.06240 0.18240 0.08000
H 	H 	0.88540 0.09450 0.20780 -0.00500
C 	C 	0.85130 0.10800 0.14800 -0.12800
H 	H 	0.85020 0.17040 0.14860 0.09000
C 	C 	0.83070 0.06200 0.11260 0.06400
C 	C 	0.83570 0.97210 0.11120 -0.13700
H 	H 	0.82250 0.93810 0.08700 0.09600
C 	C 	0.86060 0.93300 0.14600 0.08000
H 	H 	0.86470 0.87110 0.14450 -0.00800
N 	N 	0.74660 0.50920 0.04080 -0.27800
C 	C 	0.72330 0.45350 0.01420 0.07700
H 	H 	0.70260 0.47560 0.99190 -0.02200
C 	C 	0.72930 0.36500 0.01890 -0.12800
H 	H 	0.71090 0.32620 0.00110 0.08600
C 	C 	0.76010 0.32750 0.04790 0.06700
C 	C 	0.78160 0.38690 0.07620 -0.13300
H 	H 	0.80210 0.36590 0.09910 0.08200
C 	C 	0.77440 0.47580 0.07250 0.08400
H 	H 	0.78970 0.51470 0.09310 -0.01500
Zn	Zn	0.37960 0.37010 0.48740 1.15900
I 	I 	0.31198 0.30650 0.44780 -0.36500
I 	I 	0.42010 0.32710 0.56209 -0.39800
N 	N 	0.41670 0.36190 0.43850 -0.26500
C 	C 	0.40860 0.29300 0.41200 0.07000
H 	H 	0.38560 0.25700 0.41250 -0.01700
C 	C 	0.43430 0.27400 0.38410 -0.12700
H 	H 	0.42990 0.22420 0.36490 0.08100
C 	C 	0.46630 0.32800 0.38460 0.07100
C 	C 	0.47560 0.40200 0.40950 -0.13900
H 	H 	0.49740 0.44090 0.40800 0.08900
C 	C 	0.44870 0.41260 0.43690 0.09200
H 	H 	0.45320 0.46080 0.45690 -0.01800
C 	C 	0.49360 0.31230 0.35340 0.08800
N 	N 	0.48860 0.23860 0.32870 -0.13500
C 	C 	0.51330 0.22180 0.30040 0.08700
N 	N 	0.54300 0.27870 0.29680 -0.14200
C 	C 	0.54800 0.35250 0.32150 0.09100
N 	N 	0.52320 0.36920 0.34980 -0.13500
N 	N 	0.64640 0.52300 0.31850 -0.27100
C 	C 	0.62810 0.52900 0.35300 0.05100
H 	H 	0.63290 0.57590 0.37360 -0.01200
C 	C 	0.60160 0.46200 0.35610 -0.10400
H 	H 	0.59630 0.44790 0.38440 0.07900
C 	C 	0.58220 0.41200 0.32050 0.04600
C 	C 	0.60220 0.40800 0.28610 -0.12100
H 	H 	0.59520 0.36520 0.26340 0.07800
C 	C 	0.63260 0.46700 0.28580 0.08100
H 	H 	0.64470 0.46910 0.26040 -0.00500
Zn	Zn	0.69570 0.60370 0.32341 1.16600
I 	I 	0.72081 0.58540 0.25288 -0.37700
I 	I 	0.68103 0.74820 0.35639 -0.38100
N 	N 	0.50000 0.98230 0.22700 -0.27700
C 	C 	0.52730 0.04360 0.22260 0.08200
H 	H 	0.54440 0.03200 0.20220 -0.01000
C 	C 	0.53260 0.12200 0.24520 -0.13600
H 	H 	0.55170 0.16420 0.23950 0.08000
C 	C 	0.50940 0.13740 0.27620 0.06900
C 	C 	0.48100 0.07910 0.28110 -0.13000
H 	H 	0.46280 0.09100 0.30030 0.08600
C 	C 	0.47860 0.00160 0.25770 0.07500
H 	H 	0.46020 0.95830 0.26390 -0.01500
Zn	Zn	0.48100 0.88090 0.18260 1.16200
I 	I 	0.53915 0.85170 0.14299 -0.35400
I 	I 	0.44240 0.76720 0.21950 -0.37700
N 	N 	0.43820 0.94990 0.13650 -0.27300
C 	C 	0.43760 0.03760 0.13500 0.08100
H 	H 	0.45230 0.06780 0.15980 -0.00300
C 	C 	0.41810 0.08910 0.10120 -0.13600
H 	H 	0.42120 0.15140 0.09970 0.09600
C 	C 	0.39350 0.04050 0.06990 0.07600
C 	C 	0.38620 0.95230 0.07200 -0.14900
H 	H 	0.36470 0.92250 0.05360 0.08600
C 	C 	0.41330 0.91240 0.10360 0.08900
H 	H 	0.41460 0.84980 0.10200 -0.01000
C 	C 	0.36850 0.08310 0.03180 0.08700
N 	N 	0.37920 0.16850 0.02540 -0.12300
C 	C 	0.35860 0.21600 0.99080 0.08900
N 	N 	0.32730 0.17810 0.96270 -0.13000
C 	C 	0.31660 0.09270 0.96920 0.06500
N 	N 	0.33720 0.04520 0.00370 -0.13100
N 	N 	0.37020 0.49300 0.98780 -0.27700
C 	C 	0.34540 0.44700 0.95750 0.08400
H 	H 	0.32700 0.47950 0.93660 -0.00800
C 	C 	0.34410 0.35700 0.95380 -0.13800
H 	H 	0.33160 0.32680 0.92790 0.08800
C 	C 	0.36260 0.31320 0.99100 0.06900
C 	C 	0.38510 0.35520 0.02650 -0.13000
H 	H 	0.39640 0.32520 0.05280 0.08800
C 	C 	0.38970 0.44380 0.02080 0.07800
H 	H 	0.40860 0.47340 0.04250 -0.01600
N 	N 	0.23580 0.96010 0.87430 -0.25900
C 	C 	0.26030 0.91200 0.90370 0.06400
H 	H 	0.25880 0.84880 0.90320 0.00400
C 	C 	0.28780 0.95500 0.93450 -0.12400
H 	H 	0.30430 0.92190 0.95690 0.08400
C 	C 	0.29180 0.04100 0.93390 0.05800
C 	C 	0.27170 0.08300 0.89750 -0.11500
H 	H 	0.28130 0.13860 0.88940 0.08300
C 	C 	0.23780 0.04800 0.87220 0.05700
H 	H 	0.21750 0.08240 0.85480 0.00800
Zn	Zn	0.87960 0.87010 0.48740 1.15900
I 	I 	0.81198 0.80650 0.44780 -0.36500
I 	I 	0.92010 0.82710 0.56209 -0.40300
N 	N 	0.91670 0.86190 0.43850 -0.26500
C 	C 	0.90860 0.79300 0.41200 0.07000
H 	H 	0.88560 0.75700 0.41250 -0.01800
C 	C 	0.93430 0.77400 0.38410 -0.12900
H 	H 	0.92990 0.72420 0.36490 0.08100
C 	C 	0.96630 0.82800 0.38460 0.07400
C 	C 	0.97560 0.90200 0.40950 -0.14200
H 	H 	0.99740 0.94090 0.40800 0.08600
C 	C 	0.94870 0.91260 0.43690 0.09200
H 	H 	0.95320 0.96080 0.45690 -0.01900
C 	C 	0.99360 0.81230 0.35340 0.07600
N 	N 	0.98860 0.73860 0.32870 -0.14100
C 	C 	0.01330 0.72180 0.30040 0.09400
N 	N 	0.04300 0.77870 0.29680 -0.14200
C 	C 	0.04800 0.85250 0.32150 0.09300
N 	N 	0.02320 0.86920 0.34980 -0.12600
N 	N 	0.14640 0.02300 0.31850 -0.27100
C 	C 	0.12810 0.02900 0.35300 0.05200
H 	H 	0.13290 0.07590 0.37360 -0.01100
C 	C 	0.10160 0.96200 0.35610 -0.10400
H 	H 	0.09630 0.94790 0.38440 0.08000
C 	C 	0.08220 0.91200 0.32050 0.04700
C 	C 	0.10220 0.90800 0.28610 -0.12100
H 	H 	0.09520 0.86520 0.26340 0.07900
C 	C 	0.13260 0.96700 0.28580 0.08100
H 	H 	0.14470 0.96910 0.26040 -0.00500
Zn	Zn	0.19570 0.10370 0.32341 1.16600
I 	I 	0.22081 0.08540 0.25288 -0.37700
I 	I 	0.18103 0.24820 0.35639 -0.38100
N 	N 	0.00000 0.48230 0.22700 -0.26800
C 	C 	0.02730 0.54360 0.22260 0.08900
H 	H 	0.04440 0.53200 0.20220 -0.01100
C 	C 	0.03260 0.62200 0.24520 -0.14300
H 	H 	0.05170 0.66420 0.23950 0.08300
C 	C 	0.00940 0.63740 0.27620 0.08800
C 	C 	0.98100 0.57910 0.28110 -0.15000
H 	H 	0.96280 0.59100 0.30030 0.09000
C 	C 	0.97860 0.50160 0.25770 0.06800
H 	H 	0.96020 0.45830 0.26390 -0.01500
Zn	Zn	0.98100 0.38090 0.18260 1.15800
I 	I 	0.03915 0.35170 0.14299 -0.34200
I 	I 	0.94240 0.26720 0.21950 -0.38500
N 	N 	0.93820 0.44990 0.13650 -0.27500
C 	C 	0.93760 0.53760 0.13500 0.08000
H 	H 	0.95230 0.56780 0.15980 -0.00600
C 	C 	0.91810 0.58910 0.10120 -0.13700
H 	H 	0.92120 0.65140 0.09970 0.09500
C 	C 	0.89350 0.54050 0.06990 0.07500
C 	C 	0.88620 0.45230 0.07200 -0.14900
H 	H 	0.86470 0.42250 0.05360 0.08600
C 	C 	0.91330 0.41240 0.10360 0.08800
H 	H 	0.91460 0.34980 0.10200 -0.01100
C 	C 	0.86850 0.58310 0.03180 0.08700
N 	N 	0.87920 0.66850 0.02540 -0.12300
C 	C 	0.85860 0.71600 0.99080 0.08800
N 	N 	0.82730 0.67810 0.96270 -0.13000
C 	C 	0.81660 0.59270 0.96920 0.06400
N 	N 	0.83720 0.54520 0.00370 -0.13100
N 	N 	0.87020 0.99300 0.98780 -0.27600
C 	C 	0.84540 0.94700 0.95750 0.08400
H 	H 	0.82700 0.97950 0.93660 -0.00800
C 	C 	0.84410 0.85700 0.95380 -0.13800
H 	H 	0.83160 0.82680 0.92790 0.08800
C 	C 	0.86260 0.81320 0.99100 0.06900
C 	C 	0.88510 0.85520 0.02650 -0.13100
H 	H 	0.89640 0.82520 0.05280 0.08800
C 	C 	0.88970 0.94380 0.02080 0.07800
H 	H 	0.90860 0.97340 0.04250 -0.01700
N 	N 	0.73580 0.46010 0.87430 -0.25900
C 	C 	0.76030 0.41200 0.90370 0.06400
H 	H 	0.75880 0.34880 0.90320 0.00400
C 	C 	0.78780 0.45500 0.93450 -0.12500
H 	H 	0.80430 0.42190 0.95690 0.08300
C 	C 	0.79180 0.54100 0.93390 0.05900
C 	C 	0.77170 0.58300 0.89750 -0.11500
H 	H 	0.78130 0.63860 0.88940 0.08300
C 	C 	0.73780 0.54800 0.87220 0.05700
H 	H 	0.71750 0.58240 0.85480 0.00800
Zn	Zn	0.37960 0.62990 0.98740 1.15800
I 	I 	0.31198 0.69350 0.94780 -0.36700
I 	I 	0.42010 0.67290 0.06209 -0.39500
N 	N 	0.41670 0.63810 0.93850 -0.26500
C 	C 	0.40860 0.70700 0.91200 0.06900
H 	H 	0.38560 0.74300 0.91250 -0.01800
C 	C 	0.43430 0.72600 0.88410 -0.12700
H 	H 	0.42990 0.77580 0.86490 0.08100
C 	C 	0.46630 0.67200 0.88460 0.07100
C 	C 	0.47560 0.59800 0.90950 -0.13900
H 	H 	0.49740 0.55910 0.90800 0.08900
C 	C 	0.44870 0.58740 0.93690 0.09200
H 	H 	0.45320 0.53920 0.95690 -0.01800
C 	C 	0.49360 0.68770 0.85340 0.08800
N 	N 	0.48860 0.76140 0.82870 -0.13500
C 	C 	0.51330 0.77820 0.80040 0.08700
N 	N 	0.54300 0.72130 0.79680 -0.14200
C 	C 	0.54800 0.64750 0.82150 0.09100
N 	N 	0.52320 0.63080 0.84980 -0.13500
N 	N 	0.64640 0.47700 0.81850 -0.27100
C 	C 	0.62810 0.47100 0.85300 0.05100
H 	H 	0.63290 0.42410 0.87360 -0.01200
C 	C 	0.60160 0.53800 0.85610 -0.10400
H 	H 	0.59630 0.55210 0.88440 0.07800
C 	C 	0.58220 0.58800 0.82050 0.04600
C 	C 	0.60220 0.59200 0.78610 -0.12100
H 	H 	0.59520 0.63480 0.76340 0.07800
C 	C 	0.63260 0.53300 0.78580 0.08100
H 	H 	0.64470 0.53090 0.76040 -0.00500
Zn	Zn	0.69570 0.39630 0.82341 1.16600
I 	I 	0.72081 0.41460 0.75288 -0.37700
I 	I 	0.68103 0.25180 0.85639 -0.38200
N 	N 	0.50000 0.01770 0.72700 -0.27600
C 	C 	0.52730 0.95640 0.72260 0.08100
H 	H 	0.54440 0.96800 0.70220 -0.01000
C 	C 	0.53260 0.87800 0.74520 -0.13600
H 	H 	0.55170 0.83580 0.73950 0.08000
C 	C 	0.50940 0.86260 0.77620 0.06900
C 	C 	0.48100 0.92090 0.78110 -0.13000
H 	H 	0.46280 0.90900 0.80030 0.08500
C 	C 	0.47860 0.99840 0.75770 0.07500
H 	H 	0.46020 0.04170 0.76390 -0.01500
Zn	Zn	0.48100 0.11910 0.68260 1.16200
I 	I 	0.53915 0.14830 0.64299 -0.35400
I 	I 	0.44240 0.23280 0.71950 -0.37800
N 	N 	0.43820 0.05010 0.63650 -0.27300
C 	C 	0.43760 0.96240 0.63500 0.08000
H 	H 	0.45230 0.93220 0.65980 -0.00300
C 	C 	0.41810 0.91090 0.60120 -0.13600
H 	H 	0.42120 0.84860 0.59970 0.09600
C 	C 	0.39350 0.95950 0.56990 0.07500
C 	C 	0.38620 0.04770 0.57200 -0.14800
H 	H 	0.36470 0.07750 0.55360 0.08600
C 	C 	0.41330 0.08760 0.60360 0.08900
H 	H 	0.41460 0.15020 0.60200 -0.01000
C 	C 	0.36850 0.91690 0.53180 0.08700
N 	N 	0.37920 0.83150 0.52540 -0.12500
C 	C 	0.35860 0.78400 0.49080 0.09100
N 	N 	0.32730 0.82190 0.46270 -0.13000
C 	C 	0.31660 0.90730 0.46920 0.06800
N 	N 	0.33720 0.95480 0.50370 -0.13400
N 	N 	0.37020 0.50700 0.48780 -0.27500
C 	C 	0.34540 0.55300 0.45750 0.08600
H 	H 	0.32700 0.52050 0.43660 -0.00800
C 	C 	0.34410 0.64300 0.45380 -0.14000
H 	H 	0.33160 0.67320 0.42790 0.08900
C 	C 	0.36260 0.68680 0.49100 0.07400
C 	C 	0.38510 0.64480 0.52650 -0.13500
H 	H 	0.39640 0.67480 0.55280 0.09000
C 	C 	0.38970 0.55620 0.52080 0.07600
H 	H 	0.40860 0.52660 0.54250 -0.01600
N 	N 	0.23580 0.03990 0.37430 -0.25900
C 	C 	0.26030 0.08800 0.40370 0.06400
H 	H 	0.25880 0.15120 0.40320 0.00400
C 	C 	0.28780 0.04500 0.43450 -0.12300
H 	H 	0.30430 0.07810 0.45690 0.08400
C 	C 	0.29180 0.95900 0.43390 0.05800
C 	C 	0.27170 0.91700 0.39750 -0.11500
H 	H 	0.28130 0.86140 0.38940 0.08300
C 	C 	0.23780 0.95200 0.37220 0.05600
H 	H 	0.21750 0.91760 0.35480 0.00800
Zn	Zn	0.87960 0.12990 0.98740 1.15800
I 	I 	0.81198 0.19350 0.94780 -0.36800
I 	I 	0.92010 0.17290 0.06209 -0.40000
N 	N 	0.91670 0.13810 0.93850 -0.26600
C 	C 	0.90860 0.20700 0.91200 0.07000
H 	H 	0.88560 0.24300 0.91250 -0.01800
C 	C 	0.93430 0.22600 0.88410 -0.12900
H 	H 	0.92990 0.27580 0.86490 0.08100
C 	C 	0.96630 0.17200 0.88460 0.07400
C 	C 	0.97560 0.09800 0.90950 -0.14300
H 	H 	0.99740 0.05910 0.90800 0.08600
C 	C 	0.94870 0.08740 0.93690 0.09200
H 	H 	0.95320 0.03920 0.95690 -0.02000
C 	C 	0.99360 0.18770 0.85340 0.07600
N 	N 	0.98860 0.26140 0.82870 -0.14100
C 	C 	0.01330 0.27820 0.80040 0.09400
N 	N 	0.04300 0.22130 0.79680 -0.14200
C 	C 	0.04800 0.14750 0.82150 0.09300
N 	N 	0.02320 0.13080 0.84980 -0.12600
N 	N 	0.14640 0.97700 0.81850 -0.27100
C 	C 	0.12810 0.97100 0.85300 0.05200
H 	H 	0.13290 0.92410 0.87360 -0.01100
C 	C 	0.10160 0.03800 0.85610 -0.10400
H 	H 	0.09630 0.05210 0.88440 0.08000
C 	C 	0.08220 0.08800 0.82050 0.04700
C 	C 	0.10220 0.09200 0.78610 -0.12100
H 	H 	0.09520 0.13480 0.76340 0.07900
C 	C 	0.13260 0.03300 0.78580 0.08100
H 	H 	0.14470 0.03090 0.76040 -0.00500
Zn	Zn	0.19570 0.89630 0.82341 1.16600
I 	I 	0.22081 0.91460 0.75288 -0.37700
I 	I 	0.18103 0.75180 0.85639 -0.38100
N 	N 	0.00000 0.51770 0.72700 -0.26800
C 	C 	0.02730 0.45640 0.72260 0.08900
H 	H 	0.04440 0.46800 0.70220 -0.01100
C 	C 	0.03260 0.37800 0.74520 -0.14300
H 	H 	0.05170 0.33580 0.73950 0.08300
C 	C 	0.00940 0.36260 0.77620 0.08800
C 	C 	0.98100 0.42090 0.78110 -0.15100
H 	H 	0.96280 0.40900 0.80030 0.09000
C 	C 	0.97860 0.49840 0.75770 0.06800
H 	H 	0.96020 0.54170 0.76390 -0.01500
Zn	Zn	0.98100 0.61910 0.68260 1.15800
I 	I 	0.03915 0.64830 0.64299 -0.34300
I 	I 	0.94240 0.73280 0.71950 -0.38500
N 	N 	0.93820 0.55010 0.63650 -0.27500
C 	C 	0.93760 0.46240 0.63500 0.08000
H 	H 	0.95230 0.43220 0.65980 -0.00600
C 	C 	0.91810 0.41090 0.60120 -0.13700
H 	H 	0.92120 0.34860 0.59970 0.09500
C 	C 	0.89350 0.45950 0.56990 0.07400
C 	C 	0.88620 0.54770 0.57200 -0.14900
H 	H 	0.86470 0.57750 0.55360 0.08600
C 	C 	0.91330 0.58760 0.60360 0.08800
H 	H 	0.91460 0.65020 0.60200 -0.01100
C 	C 	0.86850 0.41690 0.53180 0.08600
N 	N 	0.87920 0.33150 0.52540 -0.12500
C 	C 	0.85860 0.28400 0.49080 0.09000
N 	N 	0.82730 0.32190 0.46270 -0.13000
C 	C 	0.81660 0.40730 0.46920 0.06800
N 	N 	0.83720 0.45480 0.50370 -0.13400
N 	N 	0.87020 0.00700 0.48780 -0.27500
C 	C 	0.84540 0.05300 0.45750 0.08600
H 	H 	0.82700 0.02050 0.43660 -0.00800
C 	C 	0.84410 0.14300 0.45380 -0.14000
H 	H 	0.83160 0.17320 0.42790 0.08900
C 	C 	0.86260 0.18680 0.49100 0.07400
C 	C 	0.88510 0.14480 0.52650 -0.13600
H 	H 	0.89640 0.17480 0.55280 0.08900
C 	C 	0.88970 0.05620 0.52080 0.07600
H 	H 	0.90860 0.02660 0.54250 -0.01700
N 	N 	0.73580 0.53990 0.37430 -0.25900
C 	C 	0.76030 0.58800 0.40370 0.06400
H 	H 	0.75880 0.65120 0.40320 0.00400
C 	C 	0.78780 0.54500 0.43450 -0.12400
H 	H 	0.80430 0.57810 0.45690 0.08400
C 	C 	0.79180 0.45900 0.43390 0.05800
C 	C 	0.77170 0.41700 0.39750 -0.11500
H 	H 	0.78130 0.36140 0.38940 0.08300
C 	C 	0.73780 0.45200 0.37220 0.05600
H 	H 	0.71750 0.41760 0.35480 0.00800
