data_crystal

_cell_length_a 8.91000
_cell_length_b 12.00700
_cell_length_c 12.52600
_cell_angle_alpha 77.70800
_cell_angle_beta  76.62900
_cell_angle_gamma 76.37800

_symmetry_space_group_name_	'P 1'
_symmetry_space_group_name_H-M	'P 1'

loop_
_symmetry_equiv_pos_as_xyz
  x,y,z

loop_
_atom_site_label
_atom_site_type_symbol
_atom_site_fract_x
_atom_site_fract_y
_atom_site_fract_z
_atom_site_charge
Zn	Zn	0.28638 0.74675 0.90393 1.21200
Zn	Zn	0.71362 0.25325 0.09607 1.20900
Zn	Zn	-0.00000 0.00000 -0.00000 1.19200
H 	H 	0.02040 0.40010 0.26410 0.02600
H 	H 	0.89470 0.51600 0.25490 0.04100
H 	H 	0.02320 0.60470 0.05510 -0.01500
H 	H 	0.42720 0.61120 0.11780 -0.00500
H 	H 	0.76630 0.64930 0.32170 0.06700
H 	H 	0.72840 0.72640 0.41480 0.07900
H 	H 	0.80110 0.82350 0.15940 0.00800
H 	H 	0.15720 0.90740 0.22450 0.02900
H 	H 	0.10990 0.27090 0.36520 0.07300
H 	H 	0.17650 0.22460 0.47530 0.07000
H 	H 	0.34440 0.25420 0.20090 0.03300
H 	H 	0.65290 0.33850 0.32660 0.00800
H 	H 	0.35040 0.06520 0.00750 -0.03700
H 	H 	0.97960 0.59990 0.73590 0.13400
H 	H 	0.10530 0.48400 0.74510 0.08700
H 	H 	0.97680 0.39530 0.94490 0.03500
H 	H 	0.57280 0.38880 0.88220 0.00600
H 	H 	0.23370 0.35070 0.67830 0.07100
H 	H 	0.27160 0.27360 0.58520 0.08100
H 	H 	0.19890 0.17650 0.84060 0.01400
H 	H 	0.84280 0.09260 0.77550 -0.00000
H 	H 	0.89010 0.72910 0.63480 0.10300
H 	H 	0.82350 0.77540 0.52470 0.10200
H 	H 	0.65560 0.74580 0.79910 0.03300
H 	H 	0.34710 0.66150 0.67340 0.00100
H 	H 	0.64960 0.93480 0.99250 0.25800
C 	C 	0.99830 0.49010 0.39080 0.04900
C 	C 	0.91300 0.58970 0.43460 0.00800
C 	C 	0.08310 0.39950 0.45690 -0.02700
C 	C 	0.99820 0.48130 0.27190 0.02100
C 	C 	0.10830 0.59460 0.08980 0.09600
C 	C 	0.32690 0.59670 0.12550 0.09400
C 	C 	0.81300 0.68450 0.36550 -0.08400
C 	C 	0.88070 0.82780 0.19420 0.10500
C 	C 	0.07230 0.87240 0.23060 0.06400
C 	C 	0.16980 0.28830 0.41310 -0.07700
C 	C 	0.39420 0.27580 0.24870 0.09400
C 	C 	0.55950 0.32180 0.31880 0.09900
C 	C 	0.38530 0.89740 0.97180 0.22900
C 	C 	0.42810 0.99960 0.99650 0.21700
C 	C 	0.00170 0.50990 0.60920 -0.01800
C 	C 	0.08700 0.41030 0.56540 0.03500
C 	C 	0.91690 0.60050 0.54310 0.07200
C 	C 	0.00180 0.51870 0.72810 -0.17800
C 	C 	0.89170 0.40540 0.91020 0.09300
C 	C 	0.67310 0.40330 0.87450 0.09800
C 	C 	0.18700 0.31550 0.63450 -0.10600
C 	C 	0.11930 0.17220 0.80580 0.08300
C 	C 	0.92770 0.12760 0.76940 0.14800
C 	C 	0.83020 0.71170 0.58690 -0.12800
C 	C 	0.60580 0.72420 0.75130 0.09800
C 	C 	0.44050 0.67820 0.68120 0.10400
C 	C 	0.61470 0.10260 0.02820 0.46300
C 	C 	0.57190 0.00040 0.00350 -0.48000
S 	S 	0.94677 0.79980 0.85999 0.76800
S 	S 	0.05323 0.20020 0.14001 0.68700
N 	N 	0.24200 0.63280 0.04360 -0.28800
N 	N 	0.11610 0.54030 0.19230 -0.10500
N 	N 	0.25640 0.53980 0.21620 -0.08600
N 	N 	0.98410 0.89630 0.15300 -0.22200
N 	N 	0.90560 0.76660 0.29080 -0.06900
N 	N 	0.02840 0.79430 0.31730 -0.09900
N 	N 	0.54180 0.29070 0.22530 -0.26900
N 	N 	0.32860 0.29620 0.35050 -0.08000
N 	N 	0.43370 0.32620 0.39720 -0.09100
N 	N 	0.75800 0.36720 0.95640 -0.26500
N 	N 	0.88390 0.45970 0.80770 -0.04900
N 	N 	0.74360 0.46020 0.78380 -0.08000
N 	N 	0.01590 0.10370 0.84700 -0.28200
N 	N 	0.09440 0.23340 0.70920 -0.09500
N 	N 	0.97160 0.20570 0.68270 -0.07200
N 	N 	0.45820 0.70930 0.77470 -0.26700
N 	N 	0.67140 0.70380 0.64950 -0.07000
N 	N 	0.56630 0.67380 0.60280 -0.09100
O 	O 	0.11830 0.76070 0.82030 -0.51800
O 	O 	0.92680 0.86860 0.94740 -0.46800
O 	O 	0.87490 0.69890 0.90450 -0.29700
O 	O 	0.87830 0.86860 0.76630 -0.29000
O 	O 	0.24860 0.90860 0.94740 -0.50400
O 	O 	0.47860 0.80280 0.97130 -0.32600
O 	O 	0.88170 0.23930 0.17970 -0.46100
O 	O 	0.07320 0.13140 0.05260 -0.50200
O 	O 	0.12510 0.30110 0.09550 -0.30700
O 	O 	0.12170 0.13140 0.23370 -0.30600
O 	O 	0.75140 0.09140 0.05260 -0.58100
O 	O 	0.52140 0.19720 0.02870 -0.40200
