data_crystal

_cell_length_a 9.19990
_cell_length_b 15.57800
_cell_length_c 22.14200
_cell_angle_alpha 102.86000
_cell_angle_beta  101.55000
_cell_angle_gamma 104.52000

_symmetry_space_group_name_	'P 1'
_symmetry_space_group_name_H-M	'P 1'

loop_
_symmetry_equiv_pos_as_xyz
  x,y,z

loop_
_atom_site_label
_atom_site_type_symbol
_atom_site_fract_x
_atom_site_fract_y
_atom_site_fract_z
_atom_site_charge
Dy	Dy	0.51411 0.86223 0.80432 1.89900
Dy	Dy	0.02917 0.91285 0.85774 1.82800
Dy	Dy	0.48589 0.13777 0.19568 1.89900
Dy	Dy	0.97083 0.08715 0.14226 1.82800
H 	H 	0.86560 0.83360 0.66560 0.00100
H 	H 	0.74230 0.83430 0.56670 0.10000
H 	H 	0.28300 0.91830 0.63110 0.05400
H 	H 	0.66510 0.78960 0.45230 0.16000
H 	H 	0.67020 0.89210 0.48120 0.16200
H 	H 	0.67990 0.85850 0.41030 0.15900
H 	H 	0.98370 0.84900 0.36810 0.08500
H 	H 	0.96740 0.90980 0.28060 0.02900
H 	H 	0.43250 0.01050 0.33050 0.01200
H 	H 	0.45120 0.95470 0.41870 0.08200
H 	H 	0.99860 0.66520 0.90850 0.03400
H 	H 	0.93600 0.52150 0.92510 0.08100
H 	H 	0.27160 0.46120 0.84720 0.08600
H 	H 	0.33450 0.60790 0.83180 0.03600
H 	H 	0.11560 0.26060 0.01890 0.06800
H 	H 	0.51040 0.19200 0.02870 0.00800
H 	H 	0.59690 0.29900 0.97700 0.09900
H 	H 	0.67560 0.44720 0.96500 0.16100
H 	H 	0.60790 0.37330 0.89730 0.16000
H 	H 	0.61550 0.47670 0.90380 0.15700
H 	H 	0.59350 0.56470 0.80370 0.08400
H 	H 	0.98990 0.56370 0.70540 0.07900
H 	H 	0.92740 0.69830 0.73370 0.02700
H 	H 	0.94900 0.39660 0.64900 0.15000
H 	H 	0.07900 0.44440 0.71430 0.14200
H 	H 	0.00510 0.33640 0.69120 0.15500
H 	H 	0.25750 0.27150 0.79160 0.09500
H 	H 	0.22590 0.15740 0.84230 0.02600
H 	H 	0.59660 0.09800 0.79440 0.02700
H 	H 	0.62270 0.20930 0.74100 0.08500
H 	H 	0.13440 0.16640 0.33440 0.00100
H 	H 	0.25770 0.16570 0.43330 0.10000
H 	H 	0.71700 0.08170 0.36890 0.05400
H 	H 	0.33490 0.21040 0.54770 0.16000
H 	H 	0.32980 0.10790 0.51880 0.16200
H 	H 	0.32010 0.14150 0.58970 0.15900
H 	H 	0.01630 0.15100 0.63190 0.08500
H 	H 	0.03260 0.09020 0.71940 0.02900
H 	H 	0.56750 0.98950 0.66950 0.01200
H 	H 	0.54880 0.04530 0.58130 0.08200
H 	H 	0.00140 0.33480 0.09150 0.03400
H 	H 	0.06400 0.47850 0.07490 0.08100
H 	H 	0.72840 0.53880 0.15280 0.08600
H 	H 	0.66550 0.39210 0.16820 0.03600
H 	H 	0.88440 0.73940 0.98110 0.06800
H 	H 	0.48960 0.80800 0.97130 0.00800
H 	H 	0.40310 0.70100 0.02300 0.09900
H 	H 	0.32440 0.55280 0.03500 0.16100
H 	H 	0.39210 0.62670 0.10270 0.16000
H 	H 	0.38450 0.52330 0.09620 0.15700
H 	H 	0.40650 0.43530 0.19630 0.08400
H 	H 	0.01010 0.43630 0.29460 0.07900
H 	H 	0.07260 0.30170 0.26630 0.02700
H 	H 	0.05100 0.60340 0.35100 0.15000
H 	H 	0.92100 0.55560 0.28570 0.14200
H 	H 	0.99490 0.66360 0.30880 0.15500
H 	H 	0.74250 0.72850 0.20840 0.09500
H 	H 	0.77410 0.84260 0.15770 0.02600
H 	H 	0.40340 0.90200 0.20560 0.02700
H 	H 	0.37730 0.79070 0.25900 0.08500
C 	C 	0.16840 0.87670 0.72420 0.46500
C 	C 	0.09040 0.87860 0.65910 -0.15700
C 	C 	0.92380 0.85130 0.63820 0.09900
C 	C 	0.85070 0.85120 0.57940 -0.16900
C 	C 	0.93600 0.87630 0.53670 0.12500
C 	C 	0.09900 0.90210 0.55640 0.09100
C 	C 	0.17470 0.90210 0.61820 -0.01700
C 	C 	0.70890 0.85270 0.45300 -0.32800
C 	C 	0.21740 0.89530 0.40220 -0.00700
C 	C 	0.07440 0.88210 0.36070 -0.08100
C 	C 	0.06430 0.91800 0.30770 0.05900
C 	C 	0.19940 0.96540 0.29620 -0.16700
C 	C 	0.34170 0.97810 0.33820 0.06600
C 	C 	0.35410 0.94470 0.39110 -0.08900
C 	C 	0.19080 0.00430 0.24000 0.48700
C 	C 	0.20570 0.74620 0.85580 0.48900
C 	C 	0.17230 0.65100 0.86920 -0.14200
C 	C 	0.05370 0.62470 0.89640 0.04100
C 	C 	0.01570 0.53880 0.90610 -0.07600
C 	C 	0.09600 0.47760 0.88750 -0.01200
C 	C 	0.21730 0.50210 0.85950 -0.07000
C 	C 	0.25420 0.58980 0.85050 0.03800
C 	C 	0.26150 0.33060 0.97900 0.10400
C 	C 	0.21230 0.26840 0.01030 -0.05100
C 	C 	0.30550 0.21550 0.03020 -0.14100
C 	C 	0.44830 0.22730 0.01650 0.07400
C 	C 	0.49950 0.29100 0.98490 -0.15100
C 	C 	0.40790 0.34340 0.96450 0.10700
C 	C 	0.25180 0.15270 0.06770 0.43500
C 	C 	0.59880 0.42810 0.92430 -0.32600
C 	C 	0.70450 0.72970 0.78960 0.37100
C 	C 	0.75360 0.64410 0.77160 -0.08900
C 	C 	0.67380 0.56440 0.78410 -0.07500
C 	C 	0.71520 0.48520 0.76710 0.12300
C 	C 	0.83450 0.48420 0.73660 0.09000
C 	C 	0.91010 0.56410 0.72530 -0.12200
C 	C 	0.87370 0.64500 0.74190 0.03200
C 	C 	0.98490 0.39420 0.69220 -0.30500
C 	C 	0.44530 0.25140 0.76280 -0.01000
C 	C 	0.32460 0.23570 0.79230 -0.09100
C 	C 	0.30550 0.16790 0.82220 0.06100
C 	C 	0.40690 0.11360 0.82250 -0.15200
C 	C 	0.52700 0.13210 0.79300 0.05600
C 	C 	0.54490 0.19930 0.76200 -0.08200
C 	C 	0.39000 0.03840 0.85610 0.46500
C 	C 	0.83160 0.12330 0.27580 0.46500
C 	C 	0.90960 0.12140 0.34090 -0.15700
C 	C 	0.07620 0.14870 0.36180 0.09900
C 	C 	0.14930 0.14880 0.42060 -0.16900
C 	C 	0.06400 0.12370 0.46330 0.12500
C 	C 	0.90100 0.09790 0.44360 0.09100
C 	C 	0.82530 0.09790 0.38180 -0.01700
C 	C 	0.29110 0.14730 0.54700 -0.32800
C 	C 	0.78260 0.10470 0.59780 -0.00700
C 	C 	0.92560 0.11790 0.63930 -0.08100
C 	C 	0.93570 0.08200 0.69230 0.05900
C 	C 	0.80060 0.03460 0.70380 -0.16700
C 	C 	0.65830 0.02190 0.66180 0.06600
C 	C 	0.64590 0.05530 0.60890 -0.08900
C 	C 	0.80920 0.99570 0.76000 0.48700
C 	C 	0.79430 0.25380 0.14420 0.48900
C 	C 	0.82770 0.34900 0.13080 -0.14200
C 	C 	0.94630 0.37530 0.10360 0.04100
C 	C 	0.98430 0.46120 0.09390 -0.07600
C 	C 	0.90400 0.52240 0.11250 -0.01200
C 	C 	0.78270 0.49790 0.14050 -0.07000
C 	C 	0.74580 0.41020 0.14950 0.03800
C 	C 	0.73850 0.66940 0.02100 0.10400
C 	C 	0.78770 0.73160 0.98970 -0.05100
C 	C 	0.69450 0.78450 0.96980 -0.14100
C 	C 	0.55170 0.77270 0.98350 0.07400
C 	C 	0.50050 0.70900 0.01510 -0.15100
C 	C 	0.59210 0.65660 0.03550 0.10700
C 	C 	0.74820 0.84730 0.93230 0.43500
C 	C 	0.40120 0.57190 0.07570 -0.32600
C 	C 	0.29550 0.27030 0.21040 0.37100
C 	C 	0.24640 0.35590 0.22840 -0.08900
C 	C 	0.32620 0.43560 0.21590 -0.07500
C 	C 	0.28480 0.51480 0.23290 0.12300
C 	C 	0.16550 0.51580 0.26340 0.09000
C 	C 	0.08990 0.43590 0.27470 -0.12200
C 	C 	0.12630 0.35500 0.25810 0.03200
C 	C 	0.01510 0.60580 0.30780 -0.30500
C 	C 	0.55470 0.74860 0.23720 -0.01000
C 	C 	0.67540 0.76430 0.20770 -0.09100
C 	C 	0.69450 0.83210 0.17780 0.06100
C 	C 	0.59310 0.88640 0.17750 -0.15200
C 	C 	0.47300 0.86790 0.20700 0.05600
C 	C 	0.45510 0.80070 0.23800 -0.08200
C 	C 	0.61000 0.96160 0.14390 0.46500
S 	S 	0.22880 0.85110 0.46785 0.42400
S 	S 	0.04930 0.36780 0.90019 0.43600
S 	S 	0.47500 0.34380 0.72928 0.42600
S 	S 	0.77120 0.14890 0.53215 0.42400
S 	S 	0.95070 0.63220 0.09981 0.43600
S 	S 	0.52500 0.65620 0.27072 0.42600
O 	O 	0.08810 0.85990 0.76250 -0.48700
O 	O 	0.31570 0.89350 0.73840 -0.50600
O 	O 	0.87710 0.87970 0.47590 -0.11800
O 	O 	0.18570 0.92820 0.51510 -0.23700
O 	O 	0.10770 0.76480 0.45230 -0.24000
O 	O 	0.38690 0.85680 0.49550 -0.25300
O 	O 	0.05850 0.00130 0.20900 -0.48900
O 	O 	0.31640 0.03600 0.22650 -0.54800
O 	O 	0.12910 0.79490 0.87530 -0.51600
O 	O 	0.30970 0.76560 0.82650 -0.50900
O 	O 	0.90090 0.34790 0.91360 -0.24800
O 	O 	0.07980 0.30180 0.85320 -0.25100
O 	O 	0.17830 0.39180 0.96710 -0.25100
O 	O 	0.49970 0.00320 0.86560 -0.46500
O 	O 	0.26740 0.01710 0.87340 -0.51800
O 	O 	0.11750 0.14250 0.07470 -0.50500
O 	O 	0.34590 0.11360 0.09330 -0.51000
O 	O 	0.35970 0.39050 0.73610 -0.25000
O 	O 	0.63820 0.40600 0.78050 -0.24600
O 	O 	0.57120 0.71920 0.80180 -0.43900
O 	O 	0.44570 0.40920 0.93410 -0.12400
O 	O 	0.78910 0.80720 0.79160 -0.51600
O 	O 	0.86820 0.40180 0.72510 -0.11500
O 	O 	0.50020 0.31700 0.66810 -0.24400
O 	O 	0.91190 0.14010 0.23750 -0.48700
O 	O 	0.68430 0.10650 0.26160 -0.50600
O 	O 	0.12290 0.12030 0.52410 -0.11800
O 	O 	0.81430 0.07180 0.48490 -0.23700
O 	O 	0.89230 0.23520 0.54770 -0.24000
O 	O 	0.61310 0.14320 0.50450 -0.25300
O 	O 	0.94150 0.99870 0.79100 -0.48900
O 	O 	0.68360 0.96400 0.77350 -0.54800
O 	O 	0.87090 0.20510 0.12470 -0.51600
O 	O 	0.69030 0.23440 0.17350 -0.50900
O 	O 	0.09910 0.65210 0.08640 -0.24800
O 	O 	0.92020 0.69820 0.14680 -0.25100
O 	O 	0.82170 0.60820 0.03290 -0.25100
O 	O 	0.50030 0.99680 0.13440 -0.46500
O 	O 	0.73260 0.98290 0.12660 -0.51800
O 	O 	0.88250 0.85750 0.92530 -0.50500
O 	O 	0.65410 0.88640 0.90670 -0.51000
O 	O 	0.64030 0.60950 0.26390 -0.25000
O 	O 	0.36180 0.59400 0.21950 -0.24600
O 	O 	0.42880 0.28080 0.19820 -0.43900
O 	O 	0.55430 0.59080 0.06590 -0.12400
O 	O 	0.21090 0.19280 0.20840 -0.51600
O 	O 	0.13180 0.59820 0.27490 -0.11500
O 	O 	0.49980 0.68300 0.33190 -0.24400
