data_crystal

_cell_length_a 11.91440
_cell_length_b 14.01460
_cell_length_c 15.76860
_cell_angle_alpha 91.90170
_cell_angle_beta  112.19700
_cell_angle_gamma 90.00000

_symmetry_space_group_name_	'P 1'
_symmetry_space_group_name_H-M	'P 1'

loop_
_symmetry_equiv_pos_as_xyz
  x,y,z

loop_
_atom_site_label
_atom_site_type_symbol
_atom_site_fract_x
_atom_site_fract_y
_atom_site_fract_z
_atom_site_charge
Cd	Cd	0.44796 0.37246 0.45452 1.22600
Cd	Cd	0.99344 0.12754 0.54548 1.22400
Cd	Cd	0.55204 0.62754 0.54548 1.22600
Cd	Cd	0.00656 0.87246 0.45452 1.22500
H 	H 	0.31060 0.40990 0.24100 -0.00400
H 	H 	0.33110 0.40750 0.10260 0.04500
H 	H 	0.68930 0.38310 0.23740 0.05500
H 	H 	0.65740 0.38590 0.37180 0.00300
H 	H 	0.64800 0.37240 -0.00000 0.20800
H 	H 	0.69180 0.32080 0.09340 0.20700
H 	H 	0.69910 0.43240 0.09260 0.20900
H 	H 	0.22820 0.36970 0.89920 0.26900
H 	H 	0.18490 0.30730 0.80800 0.26400
H 	H 	0.18150 0.41890 0.80440 0.25300
H 	H 	0.19350 0.37030 0.66100 0.06200
H 	H 	0.23520 0.36530 0.53120 0.01200
H 	H 	0.57840 0.34000 0.67100 0.00300
H 	H 	0.54930 0.34850 0.80560 0.05200
H 	H 	0.10250 0.18610 0.28440 0.08100
H 	H 	0.20250 0.13730 0.25660 0.05800
H 	H 	0.13590 0.02160 0.32440 0.12200
H 	H 	0.26380 0.05220 0.39640 0.13700
H 	H 	0.06960 0.09010 0.75900 0.00300
H 	H 	0.22850 0.09250 0.89740 0.06200
H 	H 	0.45190 0.11690 0.76260 0.05400
H 	H 	0.28560 0.11410 0.62820 0.00600
H 	H 	0.64800 0.12760 -0.00000 0.17600
H 	H 	0.59840 0.17920 0.90660 0.19500
H 	H 	0.60650 0.06760 0.90740 0.19500
H 	H 	0.32900 0.13030 0.10080 0.24600
H 	H 	0.37690 0.19270 0.19200 0.25000
H 	H 	0.37710 0.08110 0.19560 0.23900
H 	H 	0.53250 0.12970 0.33900 0.06200
H 	H 	0.70400 0.13470 0.46880 0.01100
H 	H 	0.90740 0.16000 0.32900 -0.00000
H 	H 	0.74370 0.15150 0.19440 0.04600
H 	H 	0.81810 0.31390 0.71560 0.08400
H 	H 	0.94590 0.36270 0.74340 0.06200
H 	H 	0.81150 0.47840 0.67560 0.12200
H 	H 	0.86740 0.44780 0.60360 0.13700
H 	H 	0.68940 0.59010 0.75900 0.00100
H 	H 	0.66890 0.59250 0.89740 0.06100
H 	H 	0.31070 0.61690 0.76260 0.05500
H 	H 	0.34260 0.61410 0.62820 0.00500
H 	H 	0.35200 0.62760 -0.00000 0.17900
H 	H 	0.30820 0.67920 0.90660 0.19700
H 	H 	0.30090 0.56760 0.90740 0.19700
H 	H 	0.77180 0.63030 0.10080 0.24500
H 	H 	0.81510 0.69270 0.19200 0.24900
H 	H 	0.81850 0.58110 0.19560 0.23800
H 	H 	0.80650 0.62970 0.33900 0.06200
H 	H 	0.76480 0.63470 0.46880 0.01100
H 	H 	0.42160 0.66000 0.32900 0.00200
H 	H 	0.45070 0.65150 0.19440 0.04600
H 	H 	0.89750 0.81390 0.71560 0.08400
H 	H 	0.79750 0.86270 0.74340 0.06300
H 	H 	0.86410 0.97840 0.67560 0.12300
H 	H 	0.73620 0.94780 0.60360 0.13700
H 	H 	0.93040 0.90990 0.24100 -0.00300
H 	H 	0.77150 0.90750 0.10260 0.04600
H 	H 	0.54810 0.88310 0.23740 0.05600
H 	H 	0.71440 0.88590 0.37180 0.00500
H 	H 	0.35200 0.87240 -0.00000 0.20900
H 	H 	0.40160 0.82080 0.09340 0.20800
H 	H 	0.39350 0.93240 0.09260 0.20900
H 	H 	0.67100 0.86970 0.89920 0.26700
H 	H 	0.62310 0.80730 0.80800 0.26200
H 	H 	0.62290 0.91890 0.80440 0.25100
H 	H 	0.46750 0.87030 0.66100 0.06100
H 	H 	0.29600 0.86530 0.53120 0.01100
H 	H 	0.09260 0.84000 0.67100 0.00300
H 	H 	0.25630 0.84850 0.80560 0.05100
H 	H 	0.18190 0.68610 0.28440 0.07900
H 	H 	0.05410 0.63730 0.25660 0.05800
H 	H 	0.18850 0.52160 0.32440 0.12100
H 	H 	0.13260 0.55220 0.39640 0.13800
C 	C 	0.38772 0.40300 0.23984 0.04100
C 	C 	0.39886 0.40140 0.15632 -0.09600
C 	C 	0.51261 0.39060 0.15362 -0.00500
C 	C 	0.61084 0.38690 0.23628 -0.09500
C 	C 	0.59090 0.38900 0.31680 0.05800
C 	C 	0.52750 0.38290 0.06300 0.17900
C 	C 	0.65291 0.37660 0.06222 -0.63900
C 	C 	0.22520 0.36560 0.83740 -0.78600
C 	C 	0.34938 0.36690 0.83876 0.26100
C 	C 	0.36769 0.36110 0.74978 -0.03300
C 	C 	0.27318 0.36530 0.66516 -0.08800
C 	C 	0.29941 0.36210 0.58762 0.05800
C 	C 	0.50009 0.34790 0.66938 0.04300
C 	C 	0.48328 0.35190 0.75036 -0.07400
C 	C 	0.27436 0.23750 0.36252 0.33100
C 	C 	0.18296 0.15910 0.30832 -0.15200
C 	C 	0.18140 0.07340 0.36520 -0.31400
C 	C 	0.12622 0.09500 0.43464 0.42300
C 	C 	0.14788 0.09700 0.76016 0.04100
C 	C 	0.24254 0.09860 0.84368 -0.08900
C 	C 	0.35899 0.10940 0.84638 -0.01000
C 	C 	0.37456 0.11310 0.76372 -0.09000
C 	C 	0.27410 0.11100 0.68320 0.05700
C 	C 	0.46450 0.11710 0.93700 0.22500
C 	C 	0.59069 0.12340 0.93778 -0.56700
C 	C 	0.38780 0.13440 0.16260 -0.75300
C 	C 	0.51062 0.13310 0.16124 0.24800
C 	C 	0.61791 0.13890 0.25022 -0.03000
C 	C 	0.60802 0.13470 0.33484 -0.09000
C 	C 	0.71179 0.13790 0.41238 0.05800
C 	C 	0.83071 0.15210 0.33062 0.04200
C 	C 	0.73292 0.14810 0.24964 -0.07500
C 	C 	0.91184 0.26250 0.63748 0.33300
C 	C 	0.87464 0.34090 0.69168 -0.15500
C 	C 	0.81620 0.42660 0.63480 -0.31300
C 	C 	0.69158 0.40500 0.56536 0.42300
C 	C 	0.61228 0.59700 0.76016 0.04000
C 	C 	0.60114 0.59860 0.84368 -0.09000
C 	C 	0.48739 0.60940 0.84638 -0.01100
C 	C 	0.38916 0.61310 0.76372 -0.09000
C 	C 	0.40910 0.61100 0.68320 0.05600
C 	C 	0.47250 0.61710 0.93700 0.22600
C 	C 	0.34709 0.62340 0.93778 -0.57100
C 	C 	0.77480 0.63440 0.16260 -0.75000
C 	C 	0.65062 0.63310 0.16124 0.24800
C 	C 	0.63231 0.63890 0.25022 -0.03000
C 	C 	0.72682 0.63470 0.33484 -0.09000
C 	C 	0.70059 0.63790 0.41238 0.05900
C 	C 	0.49991 0.65210 0.33062 0.04300
C 	C 	0.51672 0.64810 0.24964 -0.07500
C 	C 	0.72564 0.76250 0.63748 0.33300
C 	C 	0.81704 0.84090 0.69168 -0.15500
C 	C 	0.81860 0.92660 0.63480 -0.31300
C 	C 	0.87378 0.90500 0.56536 0.42300
C 	C 	0.85212 0.90300 0.23984 0.04100
C 	C 	0.75746 0.90140 0.15632 -0.09600
C 	C 	0.64101 0.89060 0.15362 -0.00500
C 	C 	0.62544 0.88690 0.23628 -0.09500
C 	C 	0.72590 0.88900 0.31680 0.05900
C 	C 	0.53550 0.88290 0.06300 0.18100
C 	C 	0.40931 0.87660 0.06222 -0.64100
C 	C 	0.61220 0.86560 0.83740 -0.78300
C 	C 	0.48938 0.86690 0.83876 0.26000
C 	C 	0.38209 0.86110 0.74978 -0.03300
C 	C 	0.39198 0.86530 0.66516 -0.08800
C 	C 	0.28821 0.86210 0.58762 0.05800
C 	C 	0.16929 0.84790 0.66938 0.04300
C 	C 	0.26708 0.85190 0.75036 -0.07400
C 	C 	0.08816 0.73750 0.36252 0.33100
C 	C 	0.12536 0.65910 0.30832 -0.15000
C 	C 	0.18380 0.57340 0.36520 -0.31500
C 	C 	0.30842 0.59500 0.43464 0.42300
N 	N 	0.48155 0.39510 0.31970 -0.22300
N 	N 	0.42775 0.37990 0.99250 -0.10600
N 	N 	0.44546 0.37150 0.90912 -0.14100
N 	N 	0.40991 0.35460 0.58802 -0.21600
N 	N 	0.16185 0.10490 0.68030 -0.22000
N 	N 	0.43525 0.12010 0.00750 -0.15300
N 	N 	0.53634 0.12850 0.09088 -0.14800
N 	N 	0.82189 0.14540 0.41198 -0.21700
N 	N 	0.51845 0.60490 0.68030 -0.22200
N 	N 	0.57225 0.62010 0.00750 -0.15300
N 	N 	0.55454 0.62850 0.09088 -0.14800
N 	N 	0.59009 0.64540 0.41198 -0.21600
N 	N 	0.83815 0.89510 0.31970 -0.22200
N 	N 	0.56475 0.87990 0.99250 -0.10700
N 	N 	0.46366 0.87150 0.90912 -0.14100
N 	N 	0.17811 0.85460 0.58802 -0.21700
O 	O 	0.37938 0.21310 0.41036 -0.38700
O 	O 	0.24399 0.32290 0.35478 -0.38000
O 	O 	0.12011 0.17820 0.46182 -0.39000
O 	O 	0.08298 0.02690 0.46276 -0.52900
O 	O 	0.96902 0.28690 0.58964 -0.38900
O 	O 	0.88921 0.17710 0.64522 -0.38100
O 	O 	0.65829 0.32180 0.53818 -0.39200
O 	O 	0.62022 0.47310 0.53724 -0.53200
O 	O 	0.62062 0.78690 0.58964 -0.38700
O 	O 	0.75601 0.67710 0.64522 -0.37900
O 	O 	0.87989 0.82180 0.53818 -0.39100
O 	O 	0.91702 0.97310 0.53724 -0.53100
O 	O 	0.03098 0.71310 0.41036 -0.38600
O 	O 	0.11079 0.82290 0.35478 -0.38100
O 	O 	0.34171 0.67820 0.46182 -0.39200
O 	O 	0.37978 0.52690 0.46276 -0.53300
