data_crystal

_cell_length_a 14.82300
_cell_length_b 14.82300
_cell_length_c 16.02860
_cell_angle_alpha 83.25470
_cell_angle_beta  83.25470
_cell_angle_gamma 86.87580

_symmetry_space_group_name_	'P 1'
_symmetry_space_group_name_H-M	'P 1'

loop_
_symmetry_equiv_pos_as_xyz
  x,y,z

loop_
_atom_site_label
_atom_site_type_symbol
_atom_site_fract_x
_atom_site_fract_y
_atom_site_fract_z
_atom_site_charge
Zn	Zn	0.12328 0.89604 0.15597 1.21400
Zn	Zn	0.10396 0.87672 0.34403 1.21400
B 	B 	0.08090 0.40510 0.14190 1.87800
B 	B 	0.59490 0.91910 0.35810 1.88000
H 	H 	0.12660 0.62060 0.05720 0.38500
H 	H 	0.13100 0.14600 0.41740 0.28300
H 	H 	0.43220 0.96360 0.42930 0.40900
H 	H 	0.45110 0.79770 0.08970 0.29400
H 	H 	0.22410 0.69310 0.58350 0.12300
H 	H 	0.20230 0.54890 0.41030 0.29500
H 	H 	0.10600 0.77200 0.77000 0.16100
H 	H 	0.20980 0.75180 0.44710 -0.02700
H 	H 	0.20630 0.09650 0.35990 0.28400
H 	H 	0.28640 0.74280 0.70200 -0.04500
H 	H 	0.03640 0.56780 0.07070 0.40600
H 	H 	0.90350 0.79370 0.14010 0.28400
H 	H 	0.80900 0.77560 0.11180 0.28500
H 	H 	0.22890 0.29570 0.62180 0.06600
H 	H 	0.07190 0.97610 0.97630 -0.05500
H 	H 	0.03820 0.32100 0.46270 0.06800
H 	H 	0.85400 0.86900 0.08260 0.28100
H 	H 	0.12090 0.62110 0.41310 0.31000
H 	H 	0.65570 0.66310 0.98850 0.03200
H 	H 	0.32220 0.86160 0.76100 0.17400
H 	H 	0.33690 0.34430 0.51150 0.03500
H 	H 	0.61930 0.70390 0.12400 0.07400
H 	H 	0.22800 0.89400 0.73000 0.15900
H 	H 	0.37940 0.87340 0.44280 0.38700
H 	H 	0.06860 0.16040 0.06830 0.35900
H 	H 	0.99580 0.23940 0.08310 0.35400
H 	H 	0.02390 0.92810 0.52370 -0.05500
H 	H 	0.10370 0.51830 0.44340 0.29000
H 	H 	0.12030 0.95930 0.83730 0.13700
H 	H 	0.25720 0.71360 0.79800 -0.04500
H 	H 	0.24820 0.79020 0.05290 -0.02500
H 	H 	0.09320 0.26140 0.03830 0.36200
H 	H 	0.13840 0.67780 0.73900 0.17400
H 	H 	0.29610 0.38070 0.37600 0.07200
H 	H 	0.33460 0.96300 0.40100 0.36300
H 	H 	0.22440 0.19100 0.38820 0.28500
H 	H 	0.48170 0.89630 0.05660 0.28800
H 	H 	0.67900 0.96180 0.03730 0.07000
H 	H 	0.73860 0.90680 0.46170 0.35700
H 	H 	0.76060 0.00420 0.41690 0.34700
H 	H 	0.70430 0.77110 0.87820 0.06800
H 	H 	0.70980 0.92140 0.90190 0.02900
H 	H 	0.03700 0.66540 0.09900 0.36100
H 	H 	0.37890 0.87910 0.08690 0.30900
H 	H 	0.04070 0.87970 0.66270 0.13600
H 	H 	0.07860 0.29020 0.59810 0.03100
H 	H 	0.83960 0.93140 0.43170 0.35400
H 	H 	0.30690 0.77590 0.91650 0.11900
C 	C 	0.68860 0.78800 0.93230 -0.10400
C 	C 	0.77020 0.90900 0.33530 0.49200
C 	C 	0.64710 0.83690 0.09480 0.05700
C 	C 	0.53960 0.87940 0.21760 -0.02600
C 	C 	0.17360 0.77680 0.49070 0.12300
C 	C 	0.13440 0.78040 0.63960 0.25900
C 	C 	0.10860 0.61200 0.24970 -0.41600
C 	C 	0.79830 0.85830 0.20500 0.32100
C 	C 	0.39070 0.92850 0.40610 -1.13100
C 	C 	0.12930 0.29670 0.27220 -0.02400
C 	C 	0.69340 0.87740 0.94670 0.02000
C 	C 	0.17920 0.15460 0.37210 -0.86000
C 	C 	0.25770 0.81610 0.92720 -0.26300
C 	C 	0.84540 0.82080 0.12790 -0.85900
C 	C 	0.11212 0.71212 0.24960 0.48900
C 	C 	0.38800 0.89140 0.25030 -0.41600
C 	C 	0.63900 0.74740 0.07980 -0.14000
C 	C 	0.44040 0.86100 0.09650 -0.88800
C 	C 	0.21200 0.31140 0.56770 -0.09800
C 	C 	0.11130 0.06090 0.22470 0.48200
C 	C 	0.70330 0.87070 0.22780 -0.02300
C 	C 	0.07490 0.85130 0.62000 -0.30400
C 	C 	0.09820 0.32600 0.47240 -0.13400
C 	C 	0.06590 0.88070 0.53560 0.15200
C 	C 	0.09100 0.22980 0.16470 0.49600
C 	C 	0.14870 0.92510 0.88000 -0.30400
C 	C 	0.83950 0.88430 0.27270 -0.40300
C 	C 	0.18390 0.74230 0.57280 -0.27300
C 	C 	0.66030 0.72310 0.99860 0.02700
C 	C 	0.12260 0.30660 0.55330 0.01200
C 	C 	0.21960 0.86560 0.86040 0.25700
C 	C 	0.14170 0.20170 0.29500 0.32200
C 	C 	0.93910 0.88870 0.27530 0.48100
C 	C 	0.07150 0.60930 0.09390 -1.12600
C 	C 	0.16310 0.35290 0.40520 0.05200
C 	C 	0.14950 0.74230 0.73080 -0.43900
C 	C 	0.05940 0.22200 0.08120 -1.08200
C 	C 	0.27690 0.33970 0.50140 0.02100
C 	C 	0.25260 0.36100 0.42020 -0.13500
C 	C 	0.11930 0.93410 0.96440 0.15800
C 	C 	0.25770 0.85050 0.76920 -0.43800
C 	C 	0.77800 0.94060 0.41880 -1.06600
C 	C 	0.13740 0.37160 0.31780 -0.04100
C 	C 	0.67400 0.90180 0.02760 -0.14100
C 	C 	0.12360 0.54480 0.31590 0.33700
C 	C 	0.24370 0.75630 0.75000 0.25100
C 	C 	0.12060 0.46040 0.28240 -0.02700
C 	C 	0.11570 0.16050 0.22730 -0.40500
C 	C 	0.62840 0.86260 0.18220 -0.04300
C 	C 	0.09390 0.56910 0.17850 0.51400
C 	C 	0.45520 0.87640 0.18410 0.33600
C 	C 	0.28788 0.88788 0.25040 0.48900
C 	C 	0.22320 0.82640 0.00930 0.11300
C 	C 	0.13900 0.55960 0.40350 -0.89100
C 	C 	0.43090 0.90610 0.32150 0.51500
N 	N 	0.15462 0.88652 0.02900 -0.28600
N 	N 	0.11348 0.84538 0.47100 -0.28400
N 	N 	0.68866 0.90110 0.30820 -0.47700
N 	N 	0.10021 0.47795 0.19930 -0.47200
N 	N 	0.09890 0.31134 0.19180 -0.47700
N 	N 	0.52205 0.89979 0.30070 -0.47300
O 	O 	0.09659 0.74469 0.31990 -0.50100
O 	O 	0.98870 0.89006 0.20570 -0.51500
O 	O 	0.10994 0.01130 0.29430 -0.51500
O 	O 	0.96734 0.89104 0.34690 -0.49400
O 	O 	0.13006 0.75828 0.17880 -0.50600
O 	O 	0.24172 0.86994 0.32120 -0.50600
O 	O 	0.10896 0.03266 0.15310 -0.49400
O 	O 	0.25531 0.90341 0.18010 -0.50100
F 	F 	0.99086 0.41354 0.12570 -0.84100
F 	F 	0.13815 0.41451 0.06700 -0.83900
F 	F 	0.58549 0.86185 0.43300 -0.83900
F 	F 	0.58646 0.00914 0.37430 -0.84400
Zn	Zn	0.87672 0.10396 0.84403 1.21300
Zn	Zn	0.89604 0.12328 0.65597 1.21300
B 	B 	0.91910 0.59490 0.85810 1.87700
B 	B 	0.40510 0.08090 0.64190 1.87900
H 	H 	0.23940 0.99580 0.58310 0.34700
H 	H 	0.00420 0.76060 0.91690 0.35400
H 	H 	0.66310 0.65570 0.48850 0.03500
H 	H 	0.97610 0.07190 0.47630 -0.05500
H 	H 	0.89630 0.48170 0.55660 0.29000
H 	H 	0.14600 0.13100 0.91740 0.28100
H 	H 	0.38070 0.29610 0.87600 0.07400
H 	H 	0.09650 0.20630 0.85990 0.28400
H 	H 	0.51830 0.10370 0.94340 0.28800
H 	H 	0.93140 0.83960 0.93170 0.35900
H 	H 	0.96300 0.33460 0.90100 0.36100
H 	H 	0.96180 0.67900 0.53730 0.06800
H 	H 	0.75180 0.20980 0.94710 -0.02500
H 	H 	0.95930 0.12030 0.33730 0.13600
H 	H 	0.79770 0.45110 0.58970 0.29400
H 	H 	0.26140 0.09320 0.53830 0.35700
H 	H 	0.77110 0.70430 0.37820 0.06600
H 	H 	0.32100 0.03820 0.96270 0.07000
H 	H 	0.77590 0.30690 0.41650 0.12200
H 	H 	0.67780 0.13840 0.23900 0.17400
H 	H 	0.70390 0.61930 0.62400 0.07200
H 	H 	0.89400 0.22800 0.23000 0.16000
H 	H 	0.66540 0.03700 0.59900 0.36300
H 	H 	0.29020 0.07860 0.09810 0.02900
H 	H 	0.62060 0.12660 0.55720 0.38700
H 	H 	0.19100 0.22440 0.88820 0.28500
H 	H 	0.92140 0.70980 0.40190 0.03100
H 	H 	0.79370 0.90350 0.64010 0.28400
H 	H 	0.29570 0.22890 0.12180 0.06800
H 	H 	0.87340 0.37940 0.94280 0.38400
H 	H 	0.56780 0.03640 0.57070 0.40800
H 	H 	0.87970 0.04070 0.16270 0.13700
H 	H 	0.16040 0.06860 0.56830 0.35400
H 	H 	0.79020 0.24820 0.55290 -0.02800
H 	H 	0.77560 0.80900 0.61180 0.28500
H 	H 	0.34430 0.33690 0.01150 0.03200
H 	H 	0.74280 0.28640 0.20200 -0.04500
H 	H 	0.92810 0.02390 0.02370 -0.05500
H 	H 	0.90680 0.73860 0.96170 0.36200
H 	H 	0.77200 0.10600 0.27000 0.15900
H 	H 	0.69310 0.22410 0.08350 0.11900
H 	H 	0.86900 0.85400 0.58260 0.28200
H 	H 	0.71360 0.25720 0.29800 -0.04500
H 	H 	0.87910 0.37890 0.58690 0.31000
H 	H 	0.62110 0.12090 0.91310 0.30900
H 	H 	0.86160 0.32220 0.26100 0.17400
H 	H 	0.96360 0.43220 0.92930 0.40600
H 	H 	0.54890 0.20230 0.91030 0.29300
C 	C 	0.06090 0.11130 0.72470 0.48100
C 	C 	0.15460 0.17920 0.87210 -0.85900
C 	C 	0.90180 0.67400 0.52760 -0.13400
C 	C 	0.86100 0.44040 0.59650 -0.89100
C 	C 	0.71212 0.11212 0.74960 0.48900
C 	C 	0.90610 0.43090 0.82150 0.51400
C 	C 	0.77680 0.17360 0.99070 0.11300
C 	C 	0.72310 0.66030 0.49860 0.02100
C 	C 	0.86560 0.21960 0.36040 0.25900
C 	C 	0.83690 0.64710 0.59480 0.05200
C 	C 	0.87740 0.69340 0.44670 0.01200
C 	C 	0.87070 0.70330 0.72780 -0.02400
C 	C 	0.94060 0.77800 0.91880 -1.08200
C 	C 	0.55960 0.13900 0.90350 -0.88800
C 	C 	0.31140 0.21200 0.06770 -0.10400
C 	C 	0.93410 0.11930 0.46440 0.15200
C 	C 	0.88870 0.93910 0.77530 0.48200
C 	C 	0.54480 0.12360 0.81590 0.33600
C 	C 	0.88788 0.28788 0.75040 0.48900
C 	C 	0.81610 0.25770 0.42720 -0.27300
C 	C 	0.74740 0.63900 0.57980 -0.13500
C 	C 	0.22980 0.09100 0.66470 0.49200
C 	C 	0.74230 0.18390 0.07280 -0.26300
C 	C 	0.87640 0.45520 0.68410 0.33700
C 	C 	0.78040 0.13440 0.13960 0.25700
C 	C 	0.36100 0.25260 0.92020 -0.14000
C 	C 	0.86260 0.62840 0.68220 -0.04100
C 	C 	0.33970 0.27690 0.00140 0.02700
C 	C 	0.88430 0.83950 0.77270 -0.40500
C 	C 	0.60930 0.07150 0.59390 -1.13100
C 	C 	0.82640 0.22320 0.50930 0.12300
C 	C 	0.85830 0.79830 0.70500 0.32200
C 	C 	0.20170 0.14170 0.79500 0.32100
C 	C 	0.35290 0.16310 0.90520 0.05700
C 	C 	0.46040 0.12060 0.78240 -0.02600
C 	C 	0.87940 0.53960 0.71760 -0.02700
C 	C 	0.85130 0.07490 0.12000 -0.30400
C 	C 	0.88070 0.06590 0.03560 0.15800
C 	C 	0.78800 0.68860 0.43230 -0.09800
C 	C 	0.92510 0.14870 0.38000 -0.30400
C 	C 	0.90900 0.77020 0.83530 0.49600
C 	C 	0.29670 0.12930 0.77220 -0.02300
C 	C 	0.30660 0.12260 0.05330 0.02000
C 	C 	0.61200 0.10860 0.74970 -0.41600
C 	C 	0.22200 0.05940 0.58120 -1.06600
C 	C 	0.37160 0.13740 0.81780 -0.04300
C 	C 	0.74230 0.14950 0.23080 -0.43800
C 	C 	0.92850 0.39070 0.90610 -1.12600
C 	C 	0.32600 0.09820 0.97240 -0.14100
C 	C 	0.75630 0.24370 0.25000 0.25100
C 	C 	0.82080 0.84540 0.62790 -0.86000
C 	C 	0.56910 0.09390 0.67850 0.51500
C 	C 	0.89140 0.38800 0.75030 -0.41600
C 	C 	0.16050 0.11570 0.72730 -0.40300
C 	C 	0.85050 0.25770 0.26920 -0.43900
N 	N 	0.90110 0.68866 0.80820 -0.47700
N 	N 	0.31134 0.09890 0.69180 -0.47700
N 	N 	0.47795 0.10021 0.69930 -0.47300
N 	N 	0.88652 0.15462 0.52900 -0.28400
N 	N 	0.84538 0.11348 0.97100 -0.28600
N 	N 	0.89979 0.52205 0.80070 -0.47200
O 	O 	0.74469 0.09659 0.81990 -0.50100
O 	O 	0.03266 0.10896 0.65310 -0.49400
O 	O 	0.86994 0.24172 0.82120 -0.50600
O 	O 	0.75828 0.13006 0.67880 -0.50600
O 	O 	0.90341 0.25531 0.68010 -0.50100
O 	O 	0.01130 0.10994 0.79430 -0.51500
O 	O 	0.89104 0.96734 0.84690 -0.49400
O 	O 	0.89006 0.98870 0.70570 -0.51500
F 	F 	0.41354 0.99086 0.62570 -0.84400
F 	F 	0.00914 0.58646 0.87430 -0.84100
F 	F 	0.41451 0.13815 0.56700 -0.83900
F 	F 	0.86185 0.58549 0.93300 -0.83900
