data_crystal

_cell_length_a 15.64690
_cell_length_b 18.47100
_cell_length_c 27.45000
_cell_angle_alpha 99.52500
_cell_angle_beta  90.06300
_cell_angle_gamma 103.87600

_symmetry_space_group_name_	'P 1'
_symmetry_space_group_name_H-M	'P 1'

loop_
_symmetry_equiv_pos_as_xyz
  x,y,z

loop_
_atom_site_label
_atom_site_type_symbol
_atom_site_fract_x
_atom_site_fract_y
_atom_site_fract_z
_atom_site_charge
C 	C 	0.52710 0.67970 0.99090 0.41000
C 	C 	0.52400 0.68420 0.93740 -0.17100
C 	C 	0.55210 0.63420 0.90450 0.11000
H 	H 	0.57810 0.59900 0.91520 0.00200
C 	C 	0.54280 0.63460 0.85370 -0.18100
H 	H 	0.56320 0.59970 0.83140 0.09900
C 	C 	0.50400 0.68550 0.83590 0.12900
C 	C 	0.47740 0.74020 0.87150 -0.17500
H 	H 	0.45370 0.77710 0.86130 0.10100
C 	C 	0.48670 0.73820 0.92070 0.09800
H 	H 	0.46800 0.77350 0.94370 0.01800
C 	C 	0.48420 0.67840 0.78260 -0.08400
C 	C 	0.49990 0.73700 0.75480 0.11800
C 	C 	0.47640 0.72620 0.70480 -0.03900
C 	C 	0.43490 0.64980 0.68070 0.12000
C 	C 	0.41680 0.59070 0.70750 -0.08000
C 	C 	0.44260 0.60550 0.75700 -0.00100
H 	H 	0.43190 0.56530 0.77440 0.03600
C 	C 	0.36540 0.51410 0.68550 0.11000
C 	C 	0.38000 0.47700 0.63860 -0.14100
H 	H 	0.42410 0.50110 0.62010 0.08700
C 	C 	0.33120 0.40640 0.61960 0.05600
H 	H 	0.34320 0.38300 0.58850 0.02600
C 	C 	0.26230 0.36790 0.64650 -0.10800
C 	C 	0.24820 0.40440 0.69350 0.05900
H 	H 	0.20330 0.38060 0.71190 0.02700
C 	C 	0.29960 0.47520 0.71330 -0.14700
H 	H 	0.29070 0.49750 0.74520 0.09000
C 	C 	0.20760 0.29230 0.62360 0.31600
C 	C 	0.49250 0.79030 0.67770 -0.04400
C 	C 	0.57750 0.82530 0.66560 0.12500
C 	C 	0.59180 0.88870 0.64220 -0.08600
C 	C 	0.52050 0.91360 0.62810 -0.00900
H 	H 	0.53030 0.95420 0.61110 0.04000
C 	C 	0.43250 0.87900 0.63880 -0.06200
C 	C 	0.42250 0.81780 0.66440 0.11100
C 	C 	0.48200 0.64590 0.59830 -0.22400
H 	H 	0.50460 0.60150 0.59540 0.09700
H 	H 	0.52800 0.68980 0.61090 0.10600
H 	H 	0.46090 0.65050 0.56640 0.10700
C 	C 	0.62790 0.82520 0.79550 -0.25200
H 	H 	0.65510 0.87830 0.79900 0.11800
H 	H 	0.65910 0.79750 0.77220 0.12200
H 	H 	0.62990 0.80920 0.82690 0.11600
C 	C 	0.69370 0.76850 0.64010 -0.21500
H 	H 	0.75250 0.77190 0.65200 0.10100
H 	H 	0.69600 0.79740 0.61390 0.10200
H 	H 	0.66520 0.71650 0.62790 0.09400
C 	C 	0.31070 0.82150 0.71980 -0.24700
H 	H 	0.31800 0.87360 0.71660 0.11100
H 	H 	0.34620 0.81840 0.74760 0.11900
H 	H 	0.24990 0.79970 0.72480 0.12400
C 	C 	0.35960 0.91020 0.62480 0.07400
C 	C 	0.28560 0.86520 0.59710 -0.10800
H 	H 	0.27990 0.81320 0.58900 0.08300
C 	C 	0.21910 0.89710 0.58120 0.02000
H 	H 	0.16980 0.86670 0.56270 0.04100
C 	C 	0.22890 0.97530 0.59390 -0.07300
C 	C 	0.30060 0.01850 0.62290 -0.01000
H 	H 	0.30540 0.07010 0.63250 0.04800
C 	C 	0.36590 0.98720 0.63810 -0.08300
H 	H 	0.41420 0.01790 0.65730 0.05600
C 	C 	0.15870 0.00890 0.57570 0.34100
C 	C 	0.74440 0.96170 0.67310 -0.16300
H 	H 	0.73190 0.94790 0.70390 0.09900
C 	C 	0.68140 0.93320 0.63460 0.12700
C 	C 	0.70570 0.94960 0.58810 -0.18000
H 	H 	0.66580 0.92970 0.56130 0.09800
C 	C 	0.78670 0.99420 0.58050 0.10800
H 	H 	0.80160 0.00280 0.54880 -0.00100
C 	C 	0.84640 0.02650 0.62000 -0.15700
C 	C 	0.82260 0.00860 0.66760 0.07800
H 	H 	0.86140 0.02930 0.69480 0.01600
C 	C 	0.93530 0.07550 0.61170 0.36000
C 	C 	0.05640 0.17490 0.48940 0.36600
C 	C 	0.03330 0.18050 0.43970 -0.24300
C 	C 	0.99450 0.23840 0.42930 0.19100
H 	H 	0.98790 0.27640 0.45480 -0.01000
C 	C 	0.96650 0.23920 0.38210 -0.26600
H 	H 	0.94020 0.27720 0.37620 0.14200
C 	C 	0.97670 0.18440 0.34320 0.23100
C 	C 	0.01580 0.12710 0.35280 -0.29100
H 	H 	0.02300 0.08950 0.32720 0.12500
C 	C 	0.04300 0.12680 0.39990 0.17900
H 	H 	0.06940 0.08880 0.40560 -0.03600
C 	C 	0.94170 0.18130 0.29290 -0.15700
C 	C 	0.96090 0.24380 0.26800 0.17500
C 	C 	0.92890 0.23970 0.22050 -0.08000
C 	C 	0.87160 0.17060 0.19630 0.17700
C 	C 	0.85680 0.10640 0.21790 -0.22200
C 	C 	0.89070 0.11320 0.26590 0.08900
H 	H 	0.87910 0.07030 0.28080 0.00200
C 	C 	0.80370 0.03140 0.19300 0.37100
C 	C 	0.73570 0.99140 0.21850 -0.34700
H 	H 	0.72440 0.01250 0.25020 0.14700
C 	C 	0.68450 0.92030 0.19680 0.25000
H 	H 	0.64000 0.89430 0.21440 -0.03500
C 	C 	0.69960 0.88870 0.15020 -0.30600
C 	C 	0.76780 0.92880 0.12510 0.45800
C 	C 	0.81940 0.00060 0.14650 -0.72200
C 	C 	0.64680 0.81060 0.12560 0.38800
C 	C 	0.94650 0.30910 0.19580 -0.00500
C 	C 	0.02790 0.33750 0.17840 0.09200
C 	C 	0.04580 0.40670 0.16030 -0.06600
C 	C 	0.97890 0.44370 0.15690 -0.07300
H 	H 	0.99890 0.49430 0.17600 0.05900
C 	C 	0.89170 0.41180 0.17250 -0.06500
C 	C 	0.87980 0.34630 0.19200 0.11700
C 	C 	0.78570 0.35440 0.26010 -0.04200
H 	H 	0.83010 0.39460 0.27590 0.06300
H 	H 	0.73360 0.33870 0.27590 0.06900
C 	C 	0.10020 0.31840 0.30220 -0.21800
H 	H 	0.12680 0.36530 0.32340 0.10400
H 	H 	0.13020 0.31530 0.27170 0.11200
H 	H 	0.10450 0.27690 0.31820 0.09600
C 	C 	0.08950 0.23100 0.15190 -0.22100
H 	H 	0.14510 0.22900 0.13770 0.09700
H 	H 	0.04540 0.22330 0.12600 0.09700
H 	H 	0.07300 0.19210 0.17180 0.09600
C 	C 	0.74930 0.15380 0.14070 -0.22400
H 	H 	0.73310 0.13520 0.10640 0.09900
H 	H 	0.73090 0.19980 0.15090 0.11300
H 	H 	0.72110 0.11670 0.16010 0.09500
C 	C 	0.81990 0.44560 0.16140 0.12800
C 	C 	0.74300 0.40250 0.13680 -0.16800
H 	H 	0.73230 0.35010 0.13310 0.10100
C 	C 	0.68130 0.43300 0.11750 0.08800
H 	H 	0.63200 0.40240 0.09920 0.01600
C 	C 	0.69510 0.51110 0.12630 -0.15300
C 	C 	0.76720 0.55470 0.15380 0.10200
H 	H 	0.77440 0.60680 0.16120 0.01300
C 	C 	0.82840 0.52290 0.17040 -0.18400
H 	H 	0.87780 0.55400 0.18850 0.09900
C 	C 	0.62980 0.54610 0.10180 0.40700
C 	C 	0.13170 0.44290 0.14470 0.10800
C 	C 	0.17190 0.40440 0.10620 -0.14700
H 	H 	0.14660 0.35420 0.09270 0.08600
C 	C 	0.25150 0.44390 0.08820 0.06900
H 	H 	0.27720 0.41920 0.06210 0.01700
C 	C 	0.29370 0.52060 0.10900 -0.16300
C 	C 	0.25320 0.55530 0.14690 0.08800
H 	H 	0.27960 0.60470 0.16180 0.01600
C 	C 	0.17270 0.51810 0.16370 -0.16100
H 	H 	0.14560 0.54440 0.18840 0.08500
C 	C 	0.37560 0.55780 0.08880 0.41800
O 	O 	0.56090 0.62990 0.00339 -0.52200
O 	O 	0.49810 0.72560 0.02120 -0.39600
O 	O 	0.98020 0.12110 0.64720 -0.33800
O 	O 	0.96070 0.07440 0.56840 -0.50000
O 	O 	0.16060 0.07540 0.59880 -0.42300
O 	O 	0.10840 0.97360 0.54000 -0.41900
O 	O 	0.23010 0.25390 0.58730 -0.36200
O 	O 	0.13500 0.27020 0.64460 -0.37100
O 	O 	0.41120 0.63970 0.63140 -0.15700
O 	O 	0.53730 0.81100 0.77800 -0.15400
O 	O 	0.33670 0.78210 0.67690 -0.14500
O 	O 	0.64520 0.79780 0.67980 -0.17300
O 	O 	0.08890 0.11960 0.49749 -0.48300
O 	O 	0.04550 0.22400 0.52560 -0.37900
O 	O 	0.39590 0.52710 0.04800 -0.46600
O 	O 	0.41660 0.61990 0.11240 -0.43900
O 	O 	0.57780 0.78270 0.14610 -0.38800
O 	O 	0.67330 0.77980 0.08680 -0.36800
O 	O 	0.58490 0.50580 0.06610 -0.45800
O 	O 	0.63180 0.61360 0.11980 -0.43600
O 	O 	0.79770 0.31670 0.21140 -0.19100
O 	O 	0.09730 0.30500 0.18280 -0.16400
O 	O 	0.84360 0.16850 0.14800 -0.18500
O 	O 	0.00940 0.31500 0.29210 -0.18500
Cd	Cd	0.54771 0.67492 0.08798 1.23900
Cd	Cd	0.09270 0.16377 0.58609 1.23800
H 	H 	0.74210 0.93450 0.09420 -0.09600
H 	H 	0.81340 0.03580 0.12490 0.25200
H 	H 	0.80800 0.89650 0.11660 -0.09200
H 	H 	0.88050 0.99770 0.14630 0.25000
H 	H 	0.97310 0.44940 0.12270 0.06200
C 	C 	0.47290 0.32030 0.00910 0.30500
C 	C 	0.47600 0.31580 0.06260 -0.13300
C 	C 	0.44790 0.36580 0.09550 0.07500
H 	H 	0.42190 0.40100 0.08480 0.00900
C 	C 	0.45720 0.36540 0.14630 -0.16100
H 	H 	0.43680 0.40030 0.16860 0.09100
C 	C 	0.49600 0.31450 0.16410 0.11200
C 	C 	0.52260 0.25980 0.12850 -0.15700
H 	H 	0.54630 0.22290 0.13870 0.09100
C 	C 	0.51330 0.26180 0.07930 0.06600
H 	H 	0.53200 0.22650 0.05630 0.01900
C 	C 	0.51580 0.32160 0.21740 -0.07800
C 	C 	0.50010 0.26300 0.24520 0.11600
C 	C 	0.52360 0.27380 0.29520 -0.03500
C 	C 	0.56510 0.35020 0.31930 0.11800
C 	C 	0.58320 0.40930 0.29250 -0.07700
C 	C 	0.55740 0.39450 0.24300 -0.00600
H 	H 	0.56810 0.43470 0.22560 0.03800
C 	C 	0.63460 0.48590 0.31450 0.10800
C 	C 	0.62000 0.52300 0.36140 -0.13800
H 	H 	0.57590 0.49890 0.37990 0.08600
C 	C 	0.66880 0.59360 0.38040 0.05400
H 	H 	0.65680 0.61700 0.41150 0.02800
C 	C 	0.73770 0.63210 0.35350 -0.10300
C 	C 	0.75180 0.59560 0.30650 0.05700
H 	H 	0.79670 0.61940 0.28810 0.03200
C 	C 	0.70040 0.52480 0.28670 -0.14300
H 	H 	0.70930 0.50250 0.25480 0.08900
C 	C 	0.79240 0.70770 0.37640 0.31400
C 	C 	0.50750 0.20970 0.32230 -0.05200
C 	C 	0.42250 0.17470 0.33440 0.13100
C 	C 	0.40820 0.11130 0.35780 -0.09400
C 	C 	0.47950 0.08640 0.37190 0.00800
H 	H 	0.46970 0.04580 0.38890 0.03000
C 	C 	0.56750 0.12100 0.36120 -0.09800
C 	C 	0.57750 0.18220 0.33560 0.12500
C 	C 	0.51800 0.35410 0.40170 -0.22500
H 	H 	0.49540 0.39850 0.40460 0.09800
H 	H 	0.47200 0.31020 0.38910 0.10700
H 	H 	0.53910 0.34950 0.43360 0.10800
C 	C 	0.37210 0.17480 0.20450 -0.23700
H 	H 	0.34490 0.12170 0.20100 0.10700
H 	H 	0.34090 0.20250 0.22780 0.11600
H 	H 	0.37010 0.19080 0.17310 0.10700
C 	C 	0.30630 0.23150 0.35990 -0.21000
H 	H 	0.24750 0.22810 0.34800 0.09700
H 	H 	0.30400 0.20260 0.38610 0.10000
H 	H 	0.33480 0.28350 0.37210 0.09200
C 	C 	0.68930 0.17850 0.28020 -0.23800
H 	H 	0.68200 0.12640 0.28340 0.10600
H 	H 	0.65380 0.18160 0.25240 0.11500
H 	H 	0.75010 0.20030 0.27520 0.12100
C 	C 	0.64040 0.08980 0.37520 0.15200
C 	C 	0.71440 0.13480 0.40290 -0.18300
H 	H 	0.72010 0.18680 0.41100 0.10900
C 	C 	0.78090 0.10290 0.41880 0.10100
H 	H 	0.83020 0.13330 0.43730 0.01600
C 	C 	0.77110 0.02470 0.40610 -0.18200
C 	C 	0.69940 0.98150 0.37710 0.14200
H 	H 	0.69460 0.92990 0.36750 -0.00100
C 	C 	0.63410 0.01280 0.36190 -0.23100
H 	H 	0.58580 0.98210 0.34270 0.12000
C 	C 	0.84130 0.99110 0.42430 0.41200
C 	C 	0.25560 0.03830 0.32690 -0.18300
H 	H 	0.26810 0.05210 0.29610 0.09900
C 	C 	0.31860 0.06680 0.36540 0.12100
C 	C 	0.29430 0.05040 0.41190 -0.14700
H 	H 	0.33420 0.07030 0.43870 0.08400
C 	C 	0.21330 0.00580 0.41950 0.03400
H 	H 	0.19840 0.99720 0.45120 0.03500
C 	C 	0.15360 0.97350 0.38000 -0.12400
C 	C 	0.17740 0.99140 0.33240 0.09200
H 	H 	0.13860 0.97070 0.30520 0.00900
C 	C 	0.06470 0.92450 0.38830 0.35300
C 	C 	0.94360 0.82510 0.51060 0.32100
C 	C 	0.96670 0.81950 0.56030 -0.11200
C 	C 	0.00550 0.76160 0.57070 0.03600
H 	H 	0.01210 0.72360 0.54520 0.03000
C 	C 	0.03350 0.76080 0.61790 -0.14000
H 	H 	0.05980 0.72280 0.62380 0.09100
C 	C 	0.02330 0.81560 0.65680 0.08500
C 	C 	0.98420 0.87290 0.64720 -0.12700
H 	H 	0.97700 0.91050 0.67280 0.08300
C 	C 	0.95700 0.87320 0.60010 0.05600
H 	H 	0.93060 0.91120 0.59440 0.01300
C 	C 	0.05830 0.81870 0.70710 -0.08400
C 	C 	0.03910 0.75620 0.73200 0.09800
C 	C 	0.07110 0.76030 0.77950 -0.04500
C 	C 	0.12840 0.82940 0.80370 0.14000
C 	C 	0.14320 0.89360 0.78210 -0.16400
C 	C 	0.10930 0.88680 0.73410 0.02500
H 	H 	0.12090 0.92970 0.71920 0.02400
C 	C 	0.19630 0.96860 0.80700 0.28800
C 	C 	0.26430 0.00860 0.78150 -0.32400
H 	H 	0.27560 0.98750 0.74980 0.14900
C 	C 	0.31550 0.07970 0.80320 0.19100
H 	H 	0.36000 0.10570 0.78560 -0.01900
C 	C 	0.30040 0.11130 0.84980 -0.22400
C 	C 	0.23220 0.07120 0.87490 0.25800
C 	C 	0.18060 0.99940 0.85350 -0.49200
C 	C 	0.35320 0.18940 0.87440 0.35500
C 	C 	0.05350 0.69090 0.80420 -0.05700
C 	C 	0.97210 0.66250 0.82160 0.12600
C 	C 	0.95420 0.59330 0.83970 -0.02400
C 	C 	0.02110 0.55630 0.84310 -0.13100
H 	H 	0.00110 0.50570 0.82400 0.06400
C 	C 	0.10830 0.58820 0.82750 -0.05600
C 	C 	0.12020 0.65370 0.80800 0.12300
C 	C 	0.21430 0.64560 0.73990 -0.04000
H 	H 	0.16990 0.60540 0.72410 0.05800
H 	H 	0.26640 0.66130 0.72410 0.06700
C 	C 	0.89980 0.68160 0.69780 -0.27000
H 	H 	0.87320 0.63470 0.67660 0.12400
H 	H 	0.86980 0.68470 0.72830 0.13200
H 	H 	0.89550 0.72310 0.68180 0.12100
C 	C 	0.91050 0.76900 0.84810 -0.25300
H 	H 	0.85490 0.77100 0.86230 0.11400
H 	H 	0.95460 0.77670 0.87400 0.12200
H 	H 	0.92700 0.80790 0.82820 0.11900
C 	C 	0.25070 0.84620 0.85930 -0.24200
H 	H 	0.26690 0.86480 0.89360 0.11000
H 	H 	0.26910 0.80020 0.84910 0.11900
H 	H 	0.27890 0.88330 0.83990 0.10600
C 	C 	0.18010 0.55440 0.83860 0.11900
C 	C 	0.25700 0.59750 0.86320 -0.16100
H 	H 	0.26770 0.64990 0.86690 0.09900
C 	C 	0.31870 0.56700 0.88250 0.08300
H 	H 	0.36800 0.59760 0.90080 0.02000
C 	C 	0.30490 0.48890 0.87370 -0.14700
C 	C 	0.23280 0.44530 0.84620 0.09500
H 	H 	0.22560 0.39320 0.83880 0.01400
C 	C 	0.17160 0.47710 0.82960 -0.17600
H 	H 	0.12220 0.44600 0.81150 0.09100
C 	C 	0.37020 0.45390 0.89820 0.40400
C 	C 	0.86830 0.55710 0.85530 0.09700
C 	C 	0.82810 0.59560 0.89380 -0.13300
H 	H 	0.85340 0.64580 0.90730 0.08900
C 	C 	0.74850 0.55610 0.91180 0.06300
H 	H 	0.72280 0.58080 0.93790 0.02900
C 	C 	0.70630 0.47940 0.89100 -0.15200
C 	C 	0.74680 0.44470 0.85310 0.08200
H 	H 	0.72040 0.39530 0.83820 0.02200
C 	C 	0.82730 0.48190 0.83630 -0.14600
H 	H 	0.85440 0.45560 0.81160 0.08900
C 	C 	0.62440 0.44220 0.91120 0.41400
O 	O 	0.43910 0.37010 0.99661 -0.46500
O 	O 	0.50190 0.27440 0.97880 -0.34300
O 	O 	0.01980 0.87890 0.35280 -0.35300
O 	O 	0.03930 0.92560 0.43160 -0.51200
O 	O 	0.83940 0.92460 0.40120 -0.42700
O 	O 	0.89160 0.02640 0.46000 -0.43600
O 	O 	0.76990 0.74610 0.41270 -0.35800
O 	O 	0.86500 0.72980 0.35540 -0.36000
O 	O 	0.58880 0.36030 0.36860 -0.15500
O 	O 	0.46270 0.18900 0.22200 -0.15900
O 	O 	0.66330 0.21790 0.32310 -0.15000
O 	O 	0.35480 0.20220 0.32020 -0.17500
O 	O 	0.91110 0.88040 0.50251 -0.46100
O 	O 	0.95450 0.77600 0.47440 -0.35300
O 	O 	0.60410 0.47290 0.95200 -0.45100
O 	O 	0.58340 0.38010 0.88760 -0.43600
O 	O 	0.42220 0.21730 0.85390 -0.38100
O 	O 	0.32670 0.22020 0.91320 -0.35800
O 	O 	0.41510 0.49420 0.93390 -0.44900
O 	O 	0.36820 0.38640 0.88020 -0.43500
O 	O 	0.20230 0.68330 0.78860 -0.19300
O 	O 	0.90270 0.69500 0.81720 -0.16100
O 	O 	0.15640 0.83150 0.85200 -0.17400
O 	O 	0.99060 0.68500 0.70790 -0.12900
Cd	Cd	0.45229 0.32508 0.91202 1.24000
Cd	Cd	0.90730 0.83623 0.41391 1.24500
H 	H 	0.25790 0.06550 0.90580 -0.03800
H 	H 	0.18660 0.96420 0.87510 0.18800
H 	H 	0.19200 0.10350 0.88340 -0.03500
H 	H 	0.11950 0.00230 0.85370 0.16500
H 	H 	0.02690 0.55060 0.87730 0.07200
Cd	Cd	0.50000 0.50000 -0.00000 1.24600
Cd	Cd	-0.00000 -0.00000 0.50000 1.23300
