data_crystal

_cell_length_a 11.81900
_cell_length_b 12.67410
_cell_length_c 13.75850
_cell_angle_alpha 85.86530
_cell_angle_beta  81.61970
_cell_angle_gamma 84.09450

_symmetry_space_group_name_	'P 1'
_symmetry_space_group_name_H-M	'P 1'

loop_
_symmetry_equiv_pos_as_xyz
  x,y,z

loop_
_atom_site_label
_atom_site_type_symbol
_atom_site_fract_x
_atom_site_fract_y
_atom_site_fract_z
_atom_site_charge
Cu	Cu	0.73539 0.72229 0.98772 0.85000
Cu	Cu	0.27163 0.29616 0.51878 0.85100
N 	N 	0.63300 0.63900 0.92470 -0.24200
N 	N 	0.35790 0.37100 0.60350 -0.24500
N 	N 	0.65470 0.82860 0.08730 -0.23400
N 	N 	0.37750 0.21150 0.41540 -0.23600
N 	N 	0.83150 0.82040 0.89110 -0.23500
N 	N 	0.17530 0.18090 0.59470 -0.23000
N 	N 	0.84160 0.62070 0.06540 -0.23200
N 	N 	0.15860 0.39100 0.44340 -0.23400
C 	C 	0.54470 0.68670 0.88010 0.05900
C 	C 	0.49160 0.63710 0.81660 -0.11800
C 	C 	0.52540 0.53200 0.79730 0.03800
C 	C 	0.61350 0.47980 0.84610 -0.11800
C 	C 	0.66400 0.53720 0.90750 0.06000
C 	C 	0.47190 0.47610 0.72720 0.04300
C 	C 	0.46240 0.36720 0.74050 -0.12300
C 	C 	0.40520 0.31920 0.67850 0.05900
C 	C 	0.37050 0.47490 0.59000 0.06400
C 	C 	0.42650 0.52950 0.64800 -0.12800
C 	C 	0.71550 0.88190 0.13860 0.06500
C 	C 	0.66810 0.95590 0.20560 -0.12500
C 	C 	0.55010 0.97820 0.22190 0.04200
C 	C 	0.48460 0.92200 0.16910 -0.11900
C 	C 	0.53980 0.84920 0.10410 0.05700
C 	C 	0.49190 0.05900 0.28920 0.04400
C 	C 	0.38750 0.11140 0.27410 -0.12100
C 	C 	0.33370 0.18580 0.33690 0.06000
C 	C 	0.47970 0.16110 0.42980 0.06200
C 	C 	0.53890 0.08630 0.36920 -0.12400
C 	C 	0.91980 0.78560 0.82480 0.06100
C 	C 	0.98520 0.85180 0.76210 -0.12000
C 	C 	0.96120 0.96090 0.76490 0.04300
C 	C 	0.86780 0.99850 0.83220 -0.12000
C 	C 	0.80670 0.92610 0.89200 0.05500
C 	C 	0.03430 0.03710 0.70410 0.04100
C 	C 	0.04270 0.13680 0.73660 -0.11000
C 	C 	0.11250 0.20530 0.68100 0.05200
C 	C 	0.16720 0.08500 0.56350 0.05900
C 	C 	0.09890 0.01120 0.61470 -0.11600
C 	C 	0.80280 0.54100 0.12790 0.06200
C 	C 	0.86040 0.49480 0.20140 -0.12300
C 	C 	0.96510 0.52860 0.21530 0.04300
C 	C 	0.00820 0.60720 0.14860 -0.12500
C 	C 	0.94530 0.65030 0.07590 0.05900
C 	C 	0.02920 0.48410 0.29680 0.03600
C 	C 	0.13110 0.52100 0.31020 -0.11800
C 	C 	0.19290 0.47240 0.38170 0.05900
C 	C 	0.05610 0.36080 0.43470 0.06100
C 	C 	0.98960 0.40380 0.36380 -0.11900
H 	H 	0.51800 0.75900 0.89400 -0.01100
H 	H 	0.43100 0.67500 0.78500 0.06500
H 	H 	0.63800 0.40600 0.83800 0.06000
H 	H 	0.72400 0.50100 0.94000 -0.01300
H 	H 	0.49500 0.32600 0.79300 0.06000
H 	H 	0.40000 0.24400 0.68800 -0.01000
H 	H 	0.33900 0.51400 0.53600 -0.01500
H 	H 	0.43300 0.60400 0.63500 0.06200
H 	H 	0.79800 0.86800 0.12800 -0.01000
H 	H 	0.71600 0.99200 0.24000 0.07000
H 	H 	0.40200 0.93400 0.17900 0.06200
H 	H 	0.49400 0.81200 0.06900 -0.01300
H 	H 	0.35200 0.09500 0.21900 0.05900
H 	H 	0.26100 0.22200 0.32400 -0.01100
H 	H 	0.51300 0.17900 0.48500 -0.01200
H 	H 	0.61200 0.05300 0.38300 0.06400
H 	H 	0.93800 0.71000 0.82100 -0.00900
H 	H 	0.04800 0.82300 0.71600 0.06200
H 	H 	0.84600 0.07300 0.83600 0.06200
H 	H 	0.74300 0.95300 0.93800 -0.01000
H 	H 	0.99900 0.15800 0.79800 0.05700
H 	H 	0.11700 0.27400 0.70500 -0.00900
H 	H 	0.21100 0.06600 0.50200 -0.00500
H 	H 	0.09600 0.94300 0.58900 0.06100
H 	H 	0.73100 0.51600 0.12000 -0.00600
H 	H 	0.82900 0.43900 0.24400 0.06400
H 	H 	0.08200 0.63100 0.15200 0.06100
H 	H 	0.97600 0.70500 0.03100 -0.01000
H 	H 	0.16000 0.57900 0.26900 0.06200
H 	H 	0.26500 0.49800 0.38800 -0.01000
H 	H 	0.02700 0.30600 0.48000 -0.00800
H 	H 	0.91700 0.37800 0.36100 0.05900
Cu	Cu	0.26461 0.27771 0.01228 0.85100
Cu	Cu	0.72837 0.70384 0.48122 0.85200
N 	N 	0.36700 0.36100 0.07530 -0.24100
N 	N 	0.64210 0.62900 0.39650 -0.24400
N 	N 	0.34530 0.17140 0.91270 -0.23400
N 	N 	0.62250 0.78850 0.58460 -0.23600
N 	N 	0.16850 0.17960 0.10890 -0.23500
N 	N 	0.82470 0.81910 0.40530 -0.23000
N 	N 	0.15840 0.37930 0.93460 -0.23200
N 	N 	0.84140 0.60900 0.55660 -0.23400
C 	C 	0.45530 0.31330 0.11990 0.05900
C 	C 	0.50840 0.36290 0.18340 -0.11800
C 	C 	0.47460 0.46800 0.20270 0.03800
C 	C 	0.38650 0.52020 0.15390 -0.11800
C 	C 	0.33600 0.46280 0.09250 0.06000
C 	C 	0.52810 0.52390 0.27280 0.04300
C 	C 	0.53760 0.63280 0.25950 -0.12300
C 	C 	0.59480 0.68080 0.32150 0.05900
C 	C 	0.62950 0.52510 0.41000 0.06400
C 	C 	0.57350 0.47050 0.35200 -0.12800
C 	C 	0.28450 0.11810 0.86140 0.06500
C 	C 	0.33190 0.04410 0.79440 -0.12500
C 	C 	0.44990 0.02180 0.77810 0.04200
C 	C 	0.51540 0.07800 0.83090 -0.11900
C 	C 	0.46020 0.15080 0.89590 0.05700
C 	C 	0.50810 0.94100 0.71080 0.04400
C 	C 	0.61250 0.88860 0.72590 -0.12100
C 	C 	0.66630 0.81420 0.66310 0.06000
C 	C 	0.52030 0.83890 0.57020 0.06200
C 	C 	0.46110 0.91370 0.63080 -0.12400
C 	C 	0.08020 0.21440 0.17520 0.06100
C 	C 	0.01480 0.14820 0.23790 -0.12000
C 	C 	0.03880 0.03910 0.23510 0.04300
C 	C 	0.13220 0.00150 0.16780 -0.12000
C 	C 	0.19330 0.07390 0.10800 0.05500
C 	C 	0.96570 0.96290 0.29590 0.04100
C 	C 	0.95730 0.86320 0.26340 -0.11000
C 	C 	0.88750 0.79470 0.31900 0.05200
C 	C 	0.83280 0.91500 0.43650 0.05900
C 	C 	0.90110 0.98880 0.38530 -0.11600
C 	C 	0.19720 0.45900 0.87210 0.06200
C 	C 	0.13960 0.50520 0.79860 -0.12300
C 	C 	0.03490 0.47140 0.78470 0.04300
C 	C 	0.99180 0.39280 0.85140 -0.12500
C 	C 	0.05470 0.34970 0.92410 0.05900
C 	C 	0.97080 0.51590 0.70320 0.03600
C 	C 	0.86890 0.47900 0.68980 -0.11800
C 	C 	0.80710 0.52760 0.61830 0.05900
C 	C 	0.94390 0.63920 0.56530 0.06100
C 	C 	0.01040 0.59620 0.63620 -0.11900
H 	H 	0.48200 0.24100 0.10600 -0.01100
H 	H 	0.56900 0.32500 0.21500 0.06500
H 	H 	0.36200 0.59400 0.16200 0.06000
H 	H 	0.27600 0.49900 0.06000 -0.01300
H 	H 	0.50500 0.67400 0.20700 0.06000
H 	H 	0.60000 0.75600 0.31200 -0.01000
H 	H 	0.66100 0.48600 0.46400 -0.01500
H 	H 	0.56700 0.39600 0.36500 0.06200
H 	H 	0.20200 0.13200 0.87200 -0.01000
H 	H 	0.28400 0.00800 0.76000 0.07000
H 	H 	0.59800 0.06600 0.82100 0.06200
H 	H 	0.50600 0.18800 0.93100 -0.01300
H 	H 	0.64800 0.90500 0.78100 0.05900
H 	H 	0.73900 0.77800 0.67600 -0.01100
H 	H 	0.48700 0.82100 0.51500 -0.01200
H 	H 	0.38800 0.94700 0.61700 0.06400
H 	H 	0.06200 0.29000 0.17900 -0.00900
H 	H 	0.95200 0.17700 0.28400 0.06200
H 	H 	0.15400 0.92700 0.16400 0.06200
H 	H 	0.25700 0.04700 0.06200 -0.01000
H 	H 	0.00100 0.84200 0.20200 0.05700
H 	H 	0.88300 0.72600 0.29500 -0.00900
H 	H 	0.78900 0.93400 0.49800 -0.00500
H 	H 	0.90400 0.05700 0.41100 0.06100
H 	H 	0.26900 0.48400 0.88000 -0.00600
H 	H 	0.17100 0.56100 0.75600 0.06400
H 	H 	0.91800 0.36900 0.84800 0.06100
H 	H 	0.02400 0.29500 0.96900 -0.01000
H 	H 	0.84000 0.42100 0.73100 0.06200
H 	H 	0.73500 0.50200 0.61200 -0.01000
H 	H 	0.97300 0.69400 0.52000 -0.00800
H 	H 	0.08300 0.62200 0.63900 0.05900
