data_crystal

_cell_length_a 10.98380
_cell_length_b 14.43360
_cell_length_c 16.12290
_cell_angle_alpha 90.00000
_cell_angle_beta  92.86710
_cell_angle_gamma 90.00000

_symmetry_space_group_name_	'P 1'
_symmetry_space_group_name_H-M	'P 1'

loop_
_symmetry_equiv_pos_as_xyz
  x,y,z

loop_
_atom_site_label
_atom_site_type_symbol
_atom_site_fract_x
_atom_site_fract_y
_atom_site_fract_z
_atom_site_charge
Zn	Zn	0.96689 0.62474 0.96584 1.19800
Zn	Zn	0.47637 0.14760 0.58883 1.21000
H 	H 	0.69550 0.89920 0.91940 0.06800
H 	H 	0.58740 0.00030 0.83260 0.03800
H 	H 	0.72270 0.93500 0.57250 0.07400
H 	H 	0.85190 0.82780 0.51630 0.05000
H 	H 	0.95290 0.71820 0.60580 0.03200
H 	H 	0.93360 0.72520 0.74340 0.07200
H 	H 	0.37640 0.26400 0.83660 0.05100
H 	H 	0.27380 0.35620 0.92920 0.05800
H 	H 	0.11020 0.59680 0.76410 0.08800
H 	H 	0.12240 0.63240 0.62550 0.02900
H 	H 	0.21660 0.53580 0.53650 0.05300
H 	H 	0.30490 0.40180 0.58260 0.05700
H 	H 	0.50940 0.98450 0.47730 -0.03000
H 	H 	0.41740 0.90720 0.36730 0.12500
H 	H 	0.10970 0.03620 0.41320 0.10400
H 	H 	0.21230 0.11730 0.51780 -0.01200
H 	H 	0.28110 0.67900 0.20440 0.09700
H 	H 	0.18910 0.60320 0.09420 0.00500
H 	H 	0.97110 0.80920 0.04570 -0.00500
H 	H 	0.05710 0.89740 0.15160 0.09600
H 	H 	0.41600 0.24810 0.42360 -0.00900
H 	H 	0.51330 0.32360 0.31990 0.09500
H 	H 	0.82800 0.29390 0.45330 0.09100
H 	H 	0.73040 0.21780 0.55160 -0.00200
H 	H 	0.62530 0.53370 0.14020 0.09400
H 	H 	0.72560 0.61850 0.04340 -0.00200
H 	H 	0.01410 0.45680 0.07650 -0.00200
H 	H 	0.92620 0.38600 0.18800 0.10600
C 	C 	0.84150 0.76140 0.89050 0.29200
C 	C 	0.78210 0.83170 0.83370 -0.07000
C 	C 	0.70610 0.89640 0.86260 -0.02800
C 	C 	0.64250 0.95930 0.81060 -0.00300
C 	C 	0.66150 0.96040 0.72640 -0.07400
C 	C 	0.76350 0.89220 0.60690 -0.07400
C 	C 	0.84040 0.82840 0.57310 -0.03800
C 	C 	0.90250 0.76280 0.62770 -0.01600
C 	C 	0.88850 0.76550 0.70900 -0.08400
C 	C 	0.80540 0.82890 0.74530 0.03300
C 	C 	0.74610 0.89330 0.69220 0.03800
C 	C 	0.58850 0.03060 0.67320 0.29900
C 	C 	0.38840 0.26870 0.67630 0.29700
C 	C 	0.32720 0.33420 0.73450 -0.06500
C 	C 	0.33220 0.31510 0.81680 -0.02400
C 	C 	0.27090 0.37170 0.87310 -0.01000
C 	C 	0.20700 0.44960 0.84650 -0.10600
C 	C 	0.15050 0.55700 0.72930 -0.10500
C 	C 	0.15740 0.57780 0.64590 0.00100
C 	C 	0.21450 0.52000 0.59240 -0.05300
C 	C 	0.26770 0.44040 0.62000 -0.05500
C 	C 	0.26730 0.41490 0.70450 0.02400
C 	C 	0.20520 0.47510 0.76150 0.06700
C 	C 	0.14290 0.50100 0.91270 0.36400
C 	C 	0.42860 0.99850 0.46240 0.14100
C 	C 	0.37270 0.94920 0.39730 -0.22700
C 	C 	0.25650 0.96190 0.37800 0.16500
C 	C 	0.19260 0.02640 0.42430 -0.21100
C 	C 	0.25540 0.07510 0.48700 0.11500
C 	C 	0.18430 0.91610 0.30860 -0.05200
C 	C 	0.23420 0.84270 0.26900 -0.01800
C 	C 	0.17510 0.79670 0.19580 0.09900
C 	C 	0.21700 0.70670 0.17390 -0.14800
C 	C 	0.16170 0.66210 0.10770 0.07900
C 	C 	0.03410 0.78320 0.07860 0.09700
C 	C 	0.08350 0.83710 0.14330 -0.16200
C 	C 	0.49970 0.25750 0.42930 0.07800
C 	C 	0.55830 0.30220 0.36640 -0.15200
C 	C 	0.68670 0.31540 0.37270 0.10600
C 	C 	0.74450 0.28410 0.44530 -0.16200
C 	C 	0.68570 0.23990 0.50520 0.08800
C 	C 	0.75550 0.35360 0.30640 -0.04000
C 	C 	0.69820 0.40380 0.24500 -0.02000
C 	C 	0.76850 0.45110 0.17850 0.10600
C 	C 	0.70640 0.52070 0.13090 -0.14700
C 	C 	0.76540 0.56960 0.07080 0.07500
C 	C 	0.93780 0.47580 0.09230 0.08800
C 	C 	0.88260 0.43100 0.15790 -0.15900
N 	N 	0.37460 0.06470 0.50530 -0.27900
N 	N 	0.06770 0.70030 0.06010 -0.25500
N 	N 	0.56200 0.22670 0.49970 -0.25300
N 	N 	0.87970 0.54730 0.05150 -0.26800
O 	O 	0.95170 0.73950 0.88340 -0.40800
O 	O 	0.78200 0.73650 0.95150 -0.33500
O 	O 	0.63600 0.06910 0.61370 -0.41300
O 	O 	0.48330 0.04890 0.69340 -0.38200
O 	O 	0.50330 0.25590 0.68860 -0.36500
O 	O 	0.32860 0.23140 0.61960 -0.41200
O 	O 	0.17320 0.49100 0.98460 -0.32700
O 	O 	0.05420 0.55220 0.88700 -0.47500
Zn	Zn	0.03311 0.12474 0.03416 1.19600
Zn	Zn	0.52363 0.64760 0.41117 1.21000
H 	H 	0.30450 0.39920 0.08060 0.06500
H 	H 	0.41260 0.50030 0.16740 0.04900
H 	H 	0.27730 0.43500 0.42750 0.07100
H 	H 	0.14810 0.32780 0.48370 0.05000
H 	H 	0.04710 0.21820 0.39420 0.03100
H 	H 	0.06640 0.22520 0.25660 0.07200
H 	H 	0.62360 0.76400 0.16340 0.05300
H 	H 	0.72620 0.85620 0.07080 0.05900
H 	H 	0.88980 0.09680 0.23590 0.10000
H 	H 	0.87760 0.13240 0.37450 0.01500
H 	H 	0.78340 0.03580 0.46350 0.06800
H 	H 	0.69510 0.90180 0.41740 0.04300
H 	H 	0.49060 0.48450 0.52270 -0.02600
H 	H 	0.58260 0.40720 0.63270 0.11700
H 	H 	0.89030 0.53620 0.58680 0.09800
H 	H 	0.78770 0.61730 0.48220 -0.00800
H 	H 	0.71890 0.17900 0.79560 0.09600
H 	H 	0.81090 0.10320 0.90580 0.00300
H 	H 	0.02890 0.30920 0.95430 -0.00600
H 	H 	0.94290 0.39740 0.84840 0.09300
H 	H 	0.58400 0.74810 0.57640 -0.00900
H 	H 	0.48670 0.82360 0.68010 0.09600
H 	H 	0.17200 0.79390 0.54670 0.09100
H 	H 	0.26960 0.71780 0.44840 -0.00100
H 	H 	0.37470 0.03370 0.85980 0.09900
H 	H 	0.27440 0.11850 0.95660 -0.00500
H 	H 	0.98590 0.95680 0.92350 -0.00700
H 	H 	0.07380 0.88600 0.81200 0.11100
C 	C 	0.15850 0.26140 0.10950 0.29400
C 	C 	0.21790 0.33170 0.16630 -0.07400
C 	C 	0.29390 0.39640 0.13740 -0.01900
C 	C 	0.35750 0.45930 0.18940 -0.02000
C 	C 	0.33850 0.46040 0.27360 -0.07600
C 	C 	0.23650 0.39220 0.39310 -0.07300
C 	C 	0.15960 0.32840 0.42690 -0.04000
C 	C 	0.09750 0.26280 0.37230 -0.01500
C 	C 	0.11150 0.26550 0.29100 -0.08500
C 	C 	0.19460 0.32890 0.25470 0.03500
C 	C 	0.25390 0.39330 0.30780 0.03600
C 	C 	0.41150 0.53060 0.32680 0.30500
C 	C 	0.61160 0.76870 0.32370 0.29400
C 	C 	0.67280 0.83420 0.26550 -0.05600
C 	C 	0.66780 0.81510 0.18320 -0.02900
C 	C 	0.72910 0.87170 0.12690 -0.00900
C 	C 	0.79300 0.94960 0.15350 -0.09900
C 	C 	0.84950 0.05700 0.27070 -0.14400
C 	C 	0.84260 0.07780 0.35410 0.03900
C 	C 	0.78550 0.02000 0.40760 -0.10400
C 	C 	0.73230 0.94040 0.38000 -0.01200
C 	C 	0.73270 0.91490 0.29550 0.00300
C 	C 	0.79480 0.97510 0.23850 0.09200
C 	C 	0.85710 0.00100 0.08730 0.33700
C 	C 	0.57140 0.49850 0.53760 0.11900
C 	C 	0.62730 0.44920 0.60270 -0.20800
C 	C 	0.74350 0.46190 0.62200 0.14100
C 	C 	0.80740 0.52640 0.57570 -0.18400
C 	C 	0.74460 0.57510 0.51300 0.10500
C 	C 	0.81570 0.41610 0.69140 -0.05000
C 	C 	0.76580 0.34270 0.73100 -0.02000
C 	C 	0.82490 0.29670 0.80420 0.09800
C 	C 	0.78300 0.20670 0.82610 -0.14900
C 	C 	0.83830 0.16210 0.89230 0.07900
C 	C 	0.96590 0.28320 0.92140 0.09500
C 	C 	0.91650 0.33710 0.85670 -0.16200
C 	C 	0.50030 0.75750 0.57070 0.07900
C 	C 	0.44170 0.80220 0.63360 -0.15200
C 	C 	0.31330 0.81540 0.62730 0.10700
C 	C 	0.25550 0.78410 0.55470 -0.16200
C 	C 	0.31430 0.73990 0.49480 0.08800
C 	C 	0.24450 0.85360 0.69360 -0.03800
C 	C 	0.30180 0.90380 0.75500 -0.02100
C 	C 	0.23150 0.95110 0.82150 0.12200
C 	C 	0.29360 0.02070 0.86910 -0.16600
C 	C 	0.23460 0.06960 0.92920 0.08300
C 	C 	0.06220 0.97580 0.90770 0.10400
C 	C 	0.11740 0.93100 0.84210 -0.17200
N 	N 	0.62540 0.56470 0.49470 -0.26800
N 	N 	0.93230 0.20030 0.93990 -0.25500
N 	N 	0.43800 0.72670 0.50030 -0.25200
N 	N 	0.12030 0.04730 0.94850 -0.27500
O 	O 	0.04830 0.23950 0.11660 -0.40900
O 	O 	0.21800 0.23650 0.04850 -0.33700
O 	O 	0.36400 0.56910 0.38630 -0.41100
O 	O 	0.51670 0.54890 0.30660 -0.38100
O 	O 	0.49670 0.75590 0.31140 -0.36500
O 	O 	0.67140 0.73140 0.38040 -0.41000
O 	O 	0.82680 0.99100 0.01540 -0.30900
O 	O 	0.94580 0.05220 0.11300 -0.47400
