data_crystal

_cell_length_a 15.63230
_cell_length_b 16.18540
_cell_length_c 14.32530
_cell_angle_alpha 90.00000
_cell_angle_beta  103.23700
_cell_angle_gamma 90.00000

_symmetry_space_group_name_	'P 1'
_symmetry_space_group_name_H-M	'P 1'

loop_
_symmetry_equiv_pos_as_xyz
  x,y,z

loop_
_atom_site_label
_atom_site_type_symbol
_atom_site_fract_x
_atom_site_fract_y
_atom_site_fract_z
_atom_site_charge
H 	H 	0.69970 0.50350 0.65160 0.04600
H 	H 	0.91090 0.71940 0.71740 0.05700
H 	H 	0.91090 0.28780 0.71530 0.03700
H 	H 	0.67680 0.80180 0.82370 0.05800
H 	H 	0.72810 0.65620 0.82590 0.07300
H 	H 	0.80820 0.70650 0.57070 0.05600
H 	H 	0.71740 0.83370 0.55020 0.03300
H 	H 	0.67340 0.20750 0.82540 0.03600
H 	H 	0.73140 0.35080 0.82900 0.07300
H 	H 	0.80000 0.30140 0.56700 0.04800
H 	H 	0.70250 0.17850 0.54590 -0.00300
C 	C 	0.61040 0.88130 0.65870 0.41400
C 	C 	0.61030 0.12250 0.66520 0.45700
C 	C 	0.68060 0.81950 0.68020 -0.13700
C 	C 	0.67590 0.18890 0.68170 -0.19000
C 	C 	0.69410 0.77570 0.76030 0.06500
C 	C 	0.69130 0.23270 0.76200 0.07900
C 	C 	0.73050 0.69550 0.76480 -0.07900
C 	C 	0.73080 0.31180 0.76670 -0.09700
C 	C 	0.76870 0.66560 0.69450 0.05400
C 	C 	0.76820 0.34110 0.69540 0.06100
C 	C 	0.76930 0.72060 0.62280 -0.08900
C 	C 	0.76330 0.28760 0.62120 -0.10600
C 	C 	0.72120 0.79530 0.61360 0.06300
C 	C 	0.71220 0.21440 0.61190 0.07000
C 	C 	0.81860 0.58130 0.70310 -0.01900
C 	C 	0.81850 0.42560 0.70240 -0.02300
C 	C 	0.91050 0.58240 0.72610 0.02000
C 	C 	0.91040 0.42450 0.72640 0.02000
C 	C 	0.95170 0.66410 0.73120 -0.03900
C 	C 	0.95160 0.34300 0.73060 -0.04700
C 	C 	0.77030 0.50350 0.68200 -0.03100
C 	C 	0.95550 0.50340 0.73430 -0.01100
O 	O 	0.55480 0.99860 0.38700 -0.77600
O 	O 	0.57870 0.90040 0.57440 -0.48700
O 	O 	0.58270 0.10520 0.73580 -0.59200
O 	O 	0.57370 0.89950 0.73160 -0.42400
O 	O 	0.57810 0.09870 0.57770 -0.58600
H 	H 	0.38123 0.99860 0.11300 0.20900
H 	H 	0.30030 0.50350 0.84840 0.05700
H 	H 	0.08910 0.71940 0.78260 0.05400
H 	H 	0.08910 0.28780 0.78470 0.03500
H 	H 	0.32320 0.80180 0.67630 0.04300
H 	H 	0.27190 0.65620 0.67410 0.05600
H 	H 	0.19180 0.70650 0.92930 0.07500
H 	H 	0.28260 0.83370 0.94980 0.05600
H 	H 	0.32660 0.20750 0.67460 0.02000
H 	H 	0.26860 0.35080 0.67100 0.05600
H 	H 	0.20000 0.30140 0.93300 0.06900
H 	H 	0.29750 0.17850 0.95410 0.02200
C 	C 	0.38960 0.88130 0.84130 0.40600
C 	C 	0.38970 0.12250 0.83480 0.45100
C 	C 	0.31940 0.81950 0.81980 -0.12900
C 	C 	0.32410 0.18890 0.81830 -0.18300
C 	C 	0.30590 0.77570 0.73970 0.06000
C 	C 	0.30870 0.23270 0.73800 0.07400
C 	C 	0.26950 0.69550 0.73520 -0.08100
C 	C 	0.26920 0.31180 0.73330 -0.09900
C 	C 	0.23130 0.66560 0.80550 0.05400
C 	C 	0.23180 0.34110 0.80460 0.06100
C 	C 	0.23070 0.72060 0.87720 -0.07900
C 	C 	0.23670 0.28760 0.87880 -0.09700
C 	C 	0.27880 0.79530 0.88640 0.06600
C 	C 	0.28780 0.21440 0.88810 0.07300
C 	C 	0.18140 0.58130 0.79690 -0.01500
C 	C 	0.18150 0.42560 0.79760 -0.01800
C 	C 	0.08950 0.58240 0.77390 0.01300
C 	C 	0.08960 0.42450 0.77360 0.01200
C 	C 	0.04830 0.66410 0.76880 -0.03000
C 	C 	0.04840 0.34300 0.76940 -0.03800
C 	C 	0.22970 0.50350 0.81800 -0.03000
C 	C 	0.04450 0.50340 0.76570 0.00200
O 	O 	0.44520 0.99860 0.11300 -0.79400
O 	O 	0.42130 0.90040 0.92560 -0.44800
O 	O 	0.41730 0.10520 0.76420 -0.59300
O 	O 	0.42630 0.89950 0.76840 -0.42300
O 	O 	0.42190 0.09870 0.92230 -0.54500
H 	H 	0.61877 0.99860 0.38700 0.22700
H 	H 	0.30030 0.49650 0.34840 0.04100
H 	H 	0.08910 0.28060 0.28260 0.02600
H 	H 	0.08910 0.71220 0.28470 0.04600
H 	H 	0.32320 0.19820 0.17630 -0.00800
H 	H 	0.27190 0.34380 0.17410 0.03700
H 	H 	0.19180 0.29350 0.42930 0.04800
H 	H 	0.28260 0.16630 0.44980 -0.00100
H 	H 	0.32660 0.79250 0.17460 0.01700
H 	H 	0.26860 0.64920 0.17100 0.03800
H 	H 	0.20000 0.69860 0.43300 0.05800
H 	H 	0.29750 0.82150 0.45410 0.03700
C 	C 	0.38960 0.11870 0.34130 0.40300
C 	C 	0.38970 0.87750 0.33480 0.46600
C 	C 	0.31940 0.18050 0.31980 -0.18800
C 	C 	0.32410 0.81110 0.31830 -0.16400
C 	C 	0.30590 0.22430 0.23970 0.06400
C 	C 	0.30870 0.76730 0.23800 0.06800
C 	C 	0.26950 0.30450 0.23520 -0.10700
C 	C 	0.26920 0.68820 0.23330 -0.09700
C 	C 	0.23130 0.33440 0.30550 0.05500
C 	C 	0.23180 0.65890 0.30460 0.05100
C 	C 	0.23070 0.27940 0.37720 -0.10500
C 	C 	0.23670 0.71240 0.37880 -0.09300
C 	C 	0.27880 0.20470 0.38640 0.06400
C 	C 	0.28780 0.78560 0.38810 0.06900
C 	C 	0.18140 0.41870 0.29690 -0.02900
C 	C 	0.18150 0.57440 0.29760 -0.02600
C 	C 	0.08950 0.41760 0.27390 0.00600
C 	C 	0.08960 0.57550 0.27360 0.00700
C 	C 	0.04830 0.33590 0.26880 -0.04900
C 	C 	0.04840 0.65700 0.26940 -0.04000
C 	C 	0.22970 0.49650 0.31800 -0.03700
C 	C 	0.04450 0.49660 0.26570 -0.00700
O 	O 	0.44520 0.00140 0.61300 -0.92200
O 	O 	0.42130 0.09960 0.42560 -0.57900
O 	O 	0.41730 0.89480 0.26420 -0.56600
O 	O 	0.42630 0.10050 0.26840 -0.56800
O 	O 	0.42190 0.90130 0.42230 -0.49700
H 	H 	0.61877 0.00140 0.88700 0.17200
H 	H 	0.69970 0.49650 0.15160 0.03000
H 	H 	0.91090 0.28060 0.21740 0.02800
H 	H 	0.91090 0.71220 0.21530 0.04800
H 	H 	0.67680 0.19820 0.32370 0.00800
H 	H 	0.72810 0.34380 0.32590 0.05400
H 	H 	0.80820 0.29350 0.07070 0.02800
H 	H 	0.71740 0.16630 0.05020 -0.02400
H 	H 	0.67340 0.79250 0.32540 0.03200
H 	H 	0.73140 0.64920 0.32900 0.05500
H 	H 	0.80000 0.69860 0.06700 0.03700
H 	H 	0.70250 0.82150 0.04590 0.01300
C 	C 	0.61040 0.11870 0.15870 0.40800
C 	C 	0.61030 0.87750 0.16520 0.46900
C 	C 	0.68060 0.18050 0.18020 -0.19500
C 	C 	0.67590 0.81110 0.18170 -0.17000
C 	C 	0.69410 0.22430 0.26030 0.06900
C 	C 	0.69130 0.76730 0.26200 0.07200
C 	C 	0.73050 0.30450 0.26480 -0.10500
C 	C 	0.73080 0.68820 0.26670 -0.09500
C 	C 	0.76870 0.33440 0.19450 0.05400
C 	C 	0.76820 0.65890 0.19540 0.05200
C 	C 	0.76930 0.27940 0.12280 -0.11400
C 	C 	0.76330 0.71240 0.12120 -0.10200
C 	C 	0.72120 0.20470 0.11360 0.06100
C 	C 	0.71220 0.78560 0.11190 0.06500
C 	C 	0.81860 0.41870 0.20310 -0.03300
C 	C 	0.81850 0.57440 0.20240 -0.03100
C 	C 	0.91050 0.41760 0.22610 0.01300
C 	C 	0.91040 0.57550 0.22640 0.01500
C 	C 	0.95170 0.33590 0.23120 -0.05800
C 	C 	0.95160 0.65700 0.23060 -0.05000
C 	C 	0.77030 0.49650 0.18200 -0.03800
C 	C 	0.95550 0.49660 0.23430 -0.02000
O 	O 	0.55480 0.00140 0.88700 -0.89300
O 	O 	0.57870 0.09960 0.07440 -0.61300
O 	O 	0.58270 0.89480 0.23580 -0.56400
O 	O 	0.57370 0.10050 0.23160 -0.56800
O 	O 	0.57810 0.90130 0.07770 -0.52900
H 	H 	0.38123 0.00140 0.61300 0.15500
In	In	0.50000 0.00000 0.50000 1.98400
In	In	0.50000 0.00000 -0.00000 1.95900
In	In	0.50000 0.00820 0.75000 2.00900
In	In	0.50000 0.99180 0.25000 2.06100
