data_crystal

_cell_length_a 17.44200
_cell_length_b 30.13390
_cell_length_c 30.13390
_cell_angle_alpha 85.19550
_cell_angle_beta  73.17740
_cell_angle_gamma 73.17750

_symmetry_space_group_name_	'P 1'
_symmetry_space_group_name_H-M	'P 1'

loop_
_symmetry_equiv_pos_as_xyz
  x,y,z

loop_
_atom_site_label
_atom_site_type_symbol
_atom_site_fract_x
_atom_site_fract_y
_atom_site_fract_z
_atom_site_charge
Mn	Mn	0.36192 0.14363 0.58352 1.33500
Mn	Mn	0.60616 0.03563 0.61767 1.32000
Mn	Mn	0.21684 0.07841 0.50191 1.33300
Mn	Mn	0.58906 0.35637 0.91648 1.33500
Mn	Mn	0.75946 0.46437 0.88233 1.32000
Mn	Mn	0.29716 0.42159 0.99809 1.33300
Mn	Mn	0.94543 0.41648 0.64364 1.33500
Mn	Mn	0.22384 0.38232 0.53563 1.32000
Mn	Mn	0.71875 0.49809 0.57841 1.33300
Mn	Mn	0.50555 0.08352 0.85636 1.33500
Mn	Mn	0.64178 0.11768 0.96437 1.32000
Mn	Mn	0.29525 0.00191 0.92159 1.33200
Mn	Mn	0.63808 0.85637 0.41648 1.33400
Mn	Mn	0.39384 0.96437 0.38233 1.31900
Mn	Mn	0.78316 0.92159 0.49809 1.33200
Mn	Mn	0.41094 0.64363 0.08352 1.33400
Mn	Mn	0.24054 0.53563 0.11767 1.31900
Mn	Mn	0.70284 0.57841 0.00191 1.33200
Mn	Mn	0.05457 0.58352 0.35636 1.33400
Mn	Mn	0.77616 0.61768 0.46437 1.31900
Mn	Mn	0.28125 0.50191 0.42159 1.33200
Mn	Mn	0.49445 0.91648 0.14364 1.33400
Mn	Mn	0.35822 0.88232 0.03563 1.31900
Mn	Mn	0.70475 0.99809 0.07841 1.33100
H 	H 	0.18390 0.19190 0.71510 0.13200
H 	H 	0.19660 0.18400 0.78920 -0.03600
H 	H 	0.32000 0.13700 0.80420 0.10800
H 	H 	0.42740 0.09870 0.74310 0.00300
H 	H 	0.62770 0.04530 0.50650 0.17600
H 	H 	0.57220 0.06560 0.47140 0.18300
H 	H 	0.66360 0.11760 0.50420 -0.14000
H 	H 	0.60190 0.14120 0.47300 -0.14300
H 	H 	0.68700 0.10220 0.40920 0.39000
H 	H 	0.72900 0.05990 0.43790 0.40100
H 	H 	0.75160 0.14340 0.42660 -0.29700
H 	H 	0.79220 0.10200 0.45680 -0.28600
H 	H 	0.82320 0.09000 0.35600 0.31600
H 	H 	0.88720 0.10580 0.37560 0.32400
H 	H 	0.87370 0.05530 0.38770 0.32400
H 	H 	0.31030 0.25400 0.59180 -0.00200
H 	H 	0.36250 0.31550 0.59490 0.09200
H 	H 	0.58620 0.22440 0.58480 0.08600
H 	H 	0.52870 0.16530 0.58410 -0.00600
H 	H 	0.47650 0.34040 0.61220 0.07100
H 	H 	0.51540 0.33500 0.55740 0.06800
H 	H 	0.72820 0.14610 0.59890 0.12600
H 	H 	0.86060 0.14800 0.55760 -0.03200
H 	H 	0.95710 0.08300 0.51600 0.10500
H 	H 	0.91180 0.01880 0.51120 -0.00600
H 	H 	0.52250 0.92490 0.57350 0.11500
H 	H 	0.61630 0.89270 0.55610 0.10800
H 	H 	0.52390 0.90510 0.65190 -0.00500
H 	H 	0.53440 0.86110 0.62230 -0.01500
H 	H 	0.66780 0.88330 0.64450 0.11600
H 	H 	0.68190 0.84090 0.61190 0.11900
H 	H 	0.59050 0.84760 0.70760 -0.04400
H 	H 	0.60550 0.80490 0.67490 -0.04600
H 	H 	0.73590 0.82840 0.69900 0.17800
H 	H 	0.70070 0.78540 0.72000 0.17300
H 	H 	0.75060 0.78570 0.66650 0.18100
H 	H 	0.08990 0.19190 0.42710 0.12900
H 	H 	0.07140 0.27040 0.42940 -0.04000
H 	H 	0.12770 0.30180 0.47640 0.11300
H 	H 	0.21060 0.25210 0.51770 -0.00500
H 	H 	0.37730 0.03550 0.61070 0.11900
H 	H 	0.38050 0.99120 0.58340 0.12200
H 	H 	0.23820 0.99720 0.62800 -0.03100
H 	H 	0.30160 0.98480 0.65920 -0.03000
H 	H 	0.19640 0.07490 0.65110 0.13300
H 	H 	0.26070 0.06310 0.68170 0.13200
H 	H 	0.11730 0.02940 0.70060 -0.05700
H 	H 	0.18220 0.01640 0.73100 -0.05200
H 	H 	0.14150 0.09230 0.75710 0.20100
H 	H 	0.05970 0.07500 0.76620 0.19800
H 	H 	0.08270 0.10850 0.72330 0.19800
H 	H 	0.68750 0.42950 0.51890 -0.01400
H 	H 	0.65440 0.35990 0.52110 0.07100
H 	H 	0.58550 0.36770 0.65990 0.08100
H 	H 	0.62790 0.43350 0.65410 -0.01700
H 	H 	0.63590 0.28910 0.56770 0.06000
H 	H 	0.59680 0.29400 0.62280 0.06100
H 	H 	0.59090 0.30810 0.78490 0.13200
H 	H 	0.66980 0.31600 0.71080 -0.03600
H 	H 	0.76120 0.36300 0.69580 0.10800
H 	H 	0.76920 0.40130 0.75690 0.00300
H 	H 	0.67950 0.45470 0.99350 0.17600
H 	H 	0.60920 0.43440 0.02860 0.18300
H 	H 	0.78540 0.38240 0.99580 -0.14000
H 	H 	0.71610 0.35880 0.02700 -0.14300
H 	H 	0.69840 0.39780 0.09080 0.39000
H 	H 	0.72680 0.44010 0.06210 0.40100
H 	H 	0.82160 0.35660 0.07340 -0.29700
H 	H 	0.85100 0.39800 0.04320 -0.28600
H 	H 	0.76920 0.41000 0.14400 0.31600
H 	H 	0.86860 0.39420 0.12440 0.32400
H 	H 	0.81670 0.44470 0.11230 0.32300
H 	H 	0.65610 0.24600 0.90820 -0.00200
H 	H 	0.77290 0.18450 0.90510 0.09300
H 	H 	0.89540 0.27560 0.91520 0.08600
H 	H 	0.77810 0.33470 0.91590 -0.00600
H 	H 	0.92910 0.15960 0.88780 0.07100
H 	H 	0.90780 0.16500 0.94260 0.06800
H 	H 	0.97320 0.35390 0.90110 0.12600
H 	H 	0.06620 0.35200 0.94240 -0.03200
H 	H 	0.05610 0.41700 0.98400 0.10500
H 	H 	0.94180 0.48120 0.98880 -0.00600
H 	H 	0.52090 0.57510 0.92650 0.11500
H 	H 	0.56510 0.60730 0.94390 0.10900
H 	H 	0.58090 0.59490 0.84810 -0.00500
H 	H 	0.51780 0.63890 0.87770 -0.01500
H 	H 	0.69560 0.61670 0.85550 0.11600
H 	H 	0.63470 0.65910 0.88810 0.11900
H 	H 	0.64570 0.65240 0.79240 -0.04400
H 	H 	0.58530 0.69510 0.82510 -0.04600
H 	H 	0.76330 0.67160 0.80100 0.17800
H 	H 	0.70610 0.71460 0.78000 0.17300
H 	H 	0.70280 0.71430 0.83350 0.18100
H 	H 	0.20890 0.30810 0.07290 0.12900
H 	H 	0.27120 0.22960 0.07060 -0.04100
H 	H 	0.40590 0.19820 0.02360 0.11400
H 	H 	0.48040 0.24790 0.98230 -0.00600
H 	H 	0.52350 0.46450 0.88930 0.12000
H 	H 	0.45510 0.50880 0.91660 0.12200
H 	H 	0.36340 0.50280 0.87200 -0.03200
H 	H 	0.44560 0.51520 0.84080 -0.03100
H 	H 	0.42240 0.42510 0.84890 0.13300
H 	H 	0.50550 0.43690 0.81830 0.13200
H 	H 	0.34730 0.47060 0.79940 -0.05700
H 	H 	0.42960 0.48360 0.76900 -0.05200
H 	H 	0.49090 0.40770 0.74290 0.20200
H 	H 	0.40090 0.42500 0.73380 0.19800
H 	H 	0.41450 0.39150 0.77670 0.19800
H 	H 	0.13590 0.07050 0.98110 -0.01500
H 	H 	0.03540 0.14010 0.97890 0.07000
H 	H 	0.11310 0.13230 0.84010 0.08100
H 	H 	0.21550 0.06650 0.84590 -0.01700
H 	H 	0.99270 0.21090 0.93230 0.06000
H 	H 	0.01360 0.20600 0.87720 0.06000
H 	H 	0.89900 0.28490 0.69190 0.13200
H 	H 	0.98580 0.21080 0.68400 -0.03600
H 	H 	0.12420 0.19580 0.63700 0.10800
H 	H 	0.17050 0.25690 0.59870 0.00300
H 	H 	0.13420 0.49350 0.54530 0.17600
H 	H 	0.04360 0.52860 0.56560 0.18300
H 	H 	0.16780 0.49580 0.61760 -0.14000
H 	H 	0.07490 0.52700 0.64120 -0.14300
H 	H 	0.09620 0.59080 0.60220 0.39000
H 	H 	0.16690 0.56210 0.55990 0.40100
H 	H 	0.17820 0.57340 0.64340 -0.29700
H 	H 	0.24900 0.54320 0.60200 -0.28600
H 	H 	0.17920 0.64400 0.59000 0.31600
H 	H 	0.26280 0.62440 0.60580 0.32400
H 	H 	0.26140 0.61230 0.55530 0.32300
H 	H 	0.90210 0.40820 0.75400 -0.00200
H 	H 	0.95740 0.40510 0.81550 0.09200
H 	H 	0.17100 0.41520 0.72440 0.08500
H 	H 	0.11280 0.41590 0.66530 -0.00600
H 	H 	0.08870 0.38780 0.84040 0.07100
H 	H 	0.07280 0.44260 0.83500 0.06800
H 	H 	0.32710 0.40110 0.64610 0.12600
H 	H 	0.41820 0.44240 0.64800 -0.03200
H 	H 	0.47310 0.48400 0.58300 0.10500
H 	H 	0.42300 0.48880 0.51880 -0.00600
H 	H 	0.09600 0.42650 0.42490 0.11500
H 	H 	0.17240 0.44390 0.39270 0.10800
H 	H 	0.17580 0.34810 0.40510 -0.00500
H 	H 	0.15670 0.37770 0.36110 -0.01500
H 	H 	0.31230 0.35550 0.38330 0.11600
H 	H 	0.29380 0.38810 0.34090 0.11900
H 	H 	0.29810 0.29240 0.34760 -0.04400
H 	H 	0.28040 0.32510 0.30490 -0.04600
H 	H 	0.43490 0.30100 0.32840 0.17800
H 	H 	0.42070 0.28000 0.28540 0.17300
H 	H 	0.41710 0.33350 0.28570 0.18100
H 	H 	0.51700 0.57290 0.69190 0.12900
H 	H 	0.50080 0.57060 0.77040 -0.04000
H 	H 	0.60410 0.52360 0.80180 0.11300
H 	H 	0.72830 0.48230 0.75210 -0.00500
H 	H 	0.98800 0.38930 0.53550 0.12000
H 	H 	0.96390 0.41660 0.49120 0.12200
H 	H 	0.86620 0.37200 0.49720 -0.03200
H 	H 	0.96080 0.34080 0.48480 -0.03100
H 	H 	0.84750 0.34890 0.57490 0.13300
H 	H 	0.94240 0.31830 0.56310 0.13200
H 	H 	0.81790 0.29940 0.52940 -0.05700
H 	H 	0.91320 0.26900 0.51640 -0.05200
H 	H 	0.89860 0.24290 0.59230 0.20200
H 	H 	0.82590 0.23380 0.57500 0.19800
H 	H 	0.80600 0.27670 0.60850 0.19800
H 	H 	0.20640 0.48110 0.92950 -0.01400
H 	H 	0.17550 0.47890 0.85990 0.07100
H 	H 	0.24540 0.34010 0.86770 0.08100
H 	H 	0.28200 0.34590 0.93350 -0.01700
H 	H 	0.20360 0.43230 0.78910 0.06000
H 	H 	0.21960 0.37720 0.79400 0.06100
H 	H 	0.37580 0.21510 0.80810 0.13200
H 	H 	0.38060 0.28920 0.81600 -0.03600
H 	H 	0.45700 0.30420 0.86300 0.10800
H 	H 	0.52610 0.24310 0.90130 0.00300
H 	H 	0.67300 0.00650 0.95470 0.17500
H 	H 	0.63780 0.97140 0.93440 0.18200
H 	H 	0.78120 0.00420 0.88240 -0.14100
H 	H 	0.74310 0.97300 0.85880 -0.14400
H 	H 	0.78920 0.90920 0.89780 0.39000
H 	H 	0.78890 0.93790 0.94010 0.40200
H 	H 	0.89500 0.92660 0.85660 -0.29700
H 	H 	0.89420 0.95680 0.89800 -0.28600
H 	H 	0.91320 0.85600 0.91000 0.31600
H 	H 	0.99300 0.87560 0.89420 0.32500
H 	H 	0.92900 0.88770 0.94470 0.32400
H 	H 	0.56430 0.09180 0.74600 -0.00200
H 	H 	0.67800 0.09490 0.68450 0.09200
H 	H 	0.81060 0.08480 0.77560 0.08500
H 	H 	0.69400 0.08410 0.83470 -0.00600
H 	H 	0.81690 0.11220 0.65960 0.07100
H 	H 	0.85040 0.05740 0.66500 0.06800
H 	H 	0.87430 0.09890 0.85390 0.12600
H 	H 	0.00860 0.05760 0.85200 -0.03200
H 	H 	0.04010 0.01600 0.91700 0.10400
H 	H 	0.93060 0.01120 0.98120 -0.00600
H 	H 	0.44740 0.07350 0.07510 0.11600
H 	H 	0.50900 0.05610 0.10730 0.10900
H 	H 	0.42900 0.15190 0.09490 -0.00500
H 	H 	0.39550 0.12230 0.13890 -0.01500
H 	H 	0.55110 0.14450 0.11670 0.11600
H 	H 	0.52280 0.11190 0.15910 0.11900
H 	H 	0.43810 0.20760 0.15240 -0.04400
H 	H 	0.41040 0.17490 0.19510 -0.04600
H 	H 	0.56430 0.19900 0.17160 0.17800
H 	H 	0.48610 0.22000 0.21460 0.17300
H 	H 	0.53630 0.16650 0.21430 0.18100
H 	H 	0.28180 0.92710 0.80810 0.12900
H 	H 	0.34180 0.92940 0.72960 -0.04100
H 	H 	0.42950 0.97640 0.69820 0.11400
H 	H 	0.46270 0.01770 0.74790 -0.00600
H 	H 	0.41280 0.11070 0.96450 0.11900
H 	H 	0.37170 0.08340 0.00880 0.12200
H 	H 	0.23540 0.12800 0.00280 -0.03000
H 	H 	0.28640 0.15920 0.01520 -0.02900
H 	H 	0.27130 0.15110 0.92510 0.13200
H 	H 	0.32380 0.18170 0.93690 0.13200
H 	H 	0.14670 0.20060 0.97060 -0.05700
H 	H 	0.19860 0.23100 0.98360 -0.05200
H 	H 	0.23380 0.25710 0.90770 0.20100
H 	H 	0.13470 0.26620 0.92500 0.19700
H 	H 	0.19120 0.22330 0.89150 0.19700
H 	H 	0.11700 0.01890 0.57050 -0.01400
H 	H 	0.01430 0.02110 0.64010 0.07100
H 	H 	0.95320 0.15990 0.63230 0.08100
H 	H 	0.06140 0.15410 0.56650 -0.01700
H 	H 	0.92500 0.06770 0.71090 0.06000
H 	H 	0.89080 0.12280 0.70600 0.06100
H 	H 	0.81610 0.80810 0.28490 0.13200
H 	H 	0.80340 0.81600 0.21080 -0.03600
H 	H 	0.68000 0.86300 0.19580 0.10800
H 	H 	0.57260 0.90130 0.25690 0.00300
H 	H 	0.37230 0.95470 0.49350 0.17600
H 	H 	0.42780 0.93440 0.52860 0.18300
H 	H 	0.33640 0.88240 0.49580 -0.14000
H 	H 	0.39810 0.85880 0.52700 -0.14300
H 	H 	0.31300 0.89780 0.59080 0.39000
H 	H 	0.27100 0.94010 0.56210 0.40100
H 	H 	0.24840 0.85660 0.57340 -0.29700
H 	H 	0.20780 0.89800 0.54320 -0.28600
H 	H 	0.17680 0.91000 0.64400 0.31600
H 	H 	0.11280 0.89420 0.62440 0.32400
H 	H 	0.12630 0.94470 0.61230 0.32400
H 	H 	0.68970 0.74600 0.40820 -0.00200
H 	H 	0.63750 0.68450 0.40510 0.09200
H 	H 	0.41380 0.77560 0.41520 0.08600
H 	H 	0.47130 0.83470 0.41590 -0.00600
H 	H 	0.52350 0.65960 0.38780 0.07100
H 	H 	0.48460 0.66500 0.44260 0.06800
H 	H 	0.27180 0.85390 0.40110 0.12600
H 	H 	0.13940 0.85200 0.44240 -0.03200
H 	H 	0.04290 0.91700 0.48400 0.10500
H 	H 	0.08820 0.98120 0.48880 -0.00600
H 	H 	0.47750 0.07510 0.42650 0.11500
H 	H 	0.38370 0.10730 0.44390 0.10800
H 	H 	0.47610 0.09490 0.34810 -0.00500
H 	H 	0.46560 0.13890 0.37770 -0.01500
H 	H 	0.33220 0.11670 0.35550 0.11600
H 	H 	0.31810 0.15910 0.38810 0.11900
H 	H 	0.40950 0.15240 0.29240 -0.04400
H 	H 	0.39450 0.19510 0.32510 -0.04600
H 	H 	0.26410 0.17160 0.30100 0.17800
H 	H 	0.29930 0.21460 0.28000 0.17300
H 	H 	0.24940 0.21430 0.33350 0.18100
H 	H 	0.91010 0.80810 0.57290 0.12900
H 	H 	0.92860 0.72960 0.57060 -0.04000
H 	H 	0.87230 0.69820 0.52360 0.11300
H 	H 	0.78940 0.74790 0.48230 -0.00500
H 	H 	0.62270 0.96450 0.38930 0.11900
H 	H 	0.61950 0.00880 0.41660 0.12200
H 	H 	0.76180 0.00280 0.37200 -0.03100
H 	H 	0.69840 0.01520 0.34080 -0.03000
H 	H 	0.80360 0.92510 0.34890 0.13300
H 	H 	0.73930 0.93690 0.31830 0.13200
H 	H 	0.88270 0.97060 0.29940 -0.05700
H 	H 	0.81780 0.98360 0.26900 -0.05200
H 	H 	0.85850 0.90770 0.24290 0.20100
H 	H 	0.94030 0.92500 0.23380 0.19800
H 	H 	0.91730 0.89150 0.27670 0.19800
H 	H 	0.31250 0.57050 0.48110 -0.01400
H 	H 	0.34560 0.64010 0.47890 0.07100
H 	H 	0.41450 0.63230 0.34010 0.08100
H 	H 	0.37210 0.56650 0.34590 -0.01700
H 	H 	0.36410 0.71090 0.43230 0.06000
H 	H 	0.40320 0.70600 0.37720 0.06100
H 	H 	0.40910 0.69190 0.21510 0.13200
H 	H 	0.33020 0.68400 0.28920 -0.03600
H 	H 	0.23880 0.63700 0.30420 0.10800
H 	H 	0.23080 0.59870 0.24310 0.00300
H 	H 	0.32050 0.54530 0.00650 0.17600
H 	H 	0.39080 0.56560 0.97140 0.18300
H 	H 	0.21460 0.61760 0.00420 -0.14000
H 	H 	0.28390 0.64120 0.97300 -0.14300
H 	H 	0.30160 0.60220 0.90920 0.39000
H 	H 	0.27320 0.55990 0.93790 0.40100
H 	H 	0.17840 0.64340 0.92660 -0.29700
H 	H 	0.14900 0.60200 0.95680 -0.28600
H 	H 	0.23080 0.59000 0.85600 0.31600
H 	H 	0.13140 0.60580 0.87560 0.32400
H 	H 	0.18330 0.55530 0.88770 0.32300
H 	H 	0.34390 0.75400 0.09180 -0.00200
H 	H 	0.22710 0.81550 0.09490 0.09300
H 	H 	0.10460 0.72440 0.08480 0.08600
H 	H 	0.22190 0.66530 0.08410 -0.00600
H 	H 	0.07090 0.84040 0.11220 0.07100
H 	H 	0.09220 0.83500 0.05740 0.06800
H 	H 	0.02680 0.64610 0.09890 0.12600
H 	H 	0.93380 0.64800 0.05760 -0.03200
H 	H 	0.94390 0.58300 0.01600 0.10500
H 	H 	0.05820 0.51880 0.01120 -0.00600
H 	H 	0.47910 0.42490 0.07350 0.11500
H 	H 	0.43490 0.39270 0.05610 0.10900
H 	H 	0.41910 0.40510 0.15190 -0.00500
H 	H 	0.48220 0.36110 0.12230 -0.01500
H 	H 	0.30440 0.38330 0.14450 0.11600
H 	H 	0.36530 0.34090 0.11190 0.11900
H 	H 	0.35430 0.34760 0.20760 -0.04400
H 	H 	0.41470 0.30490 0.17490 -0.04600
H 	H 	0.23670 0.32840 0.19900 0.17800
H 	H 	0.29390 0.28540 0.22000 0.17300
H 	H 	0.29720 0.28570 0.16650 0.18100
H 	H 	0.79110 0.69190 0.92710 0.12900
H 	H 	0.72880 0.77040 0.92940 -0.04100
H 	H 	0.59410 0.80180 0.97640 0.11400
H 	H 	0.51960 0.75210 0.01770 -0.00600
H 	H 	0.47650 0.53550 0.11070 0.12000
H 	H 	0.54490 0.49120 0.08340 0.12200
H 	H 	0.63660 0.49720 0.12800 -0.03200
H 	H 	0.55440 0.48480 0.15920 -0.03100
H 	H 	0.57760 0.57490 0.15110 0.13300
H 	H 	0.49450 0.56310 0.18170 0.13200
H 	H 	0.65270 0.52940 0.20060 -0.05700
H 	H 	0.57040 0.51640 0.23100 -0.05200
H 	H 	0.50910 0.59230 0.25710 0.20200
H 	H 	0.59910 0.57500 0.26620 0.19800
H 	H 	0.58550 0.60850 0.22330 0.19800
H 	H 	0.86410 0.92950 0.01890 -0.01500
H 	H 	0.96460 0.85990 0.02110 0.07000
H 	H 	0.88690 0.86770 0.15990 0.08100
H 	H 	0.78450 0.93350 0.15410 -0.01700
H 	H 	0.00730 0.78910 0.06770 0.06000
H 	H 	0.98640 0.79400 0.12280 0.06000
H 	H 	0.10100 0.71510 0.30810 0.13200
H 	H 	0.01420 0.78920 0.31600 -0.03600
H 	H 	0.87580 0.80420 0.36300 0.10800
H 	H 	0.82950 0.74310 0.40130 0.00300
H 	H 	0.86580 0.50650 0.45470 0.17600
H 	H 	0.95640 0.47140 0.43440 0.18300
H 	H 	0.83220 0.50420 0.38240 -0.14000
H 	H 	0.92510 0.47300 0.35880 -0.14300
H 	H 	0.90380 0.40920 0.39780 0.39000
H 	H 	0.83310 0.43790 0.44010 0.40100
H 	H 	0.82180 0.42660 0.35660 -0.29700
H 	H 	0.75100 0.45680 0.39800 -0.28600
H 	H 	0.82080 0.35600 0.41000 0.31600
H 	H 	0.73720 0.37560 0.39420 0.32400
H 	H 	0.73860 0.38770 0.44470 0.32300
H 	H 	0.09790 0.59180 0.24600 -0.00200
H 	H 	0.04260 0.59490 0.18450 0.09200
H 	H 	0.82900 0.58480 0.27560 0.08500
H 	H 	0.88720 0.58410 0.33470 -0.00600
H 	H 	0.91130 0.61220 0.15960 0.07100
H 	H 	0.92720 0.55740 0.16500 0.06800
H 	H 	0.67290 0.59890 0.35390 0.12600
H 	H 	0.58180 0.55760 0.35200 -0.03200
H 	H 	0.52690 0.51600 0.41700 0.10500
H 	H 	0.57700 0.51120 0.48120 -0.00600
H 	H 	0.90400 0.57350 0.57510 0.11500
H 	H 	0.82760 0.55610 0.60730 0.10800
H 	H 	0.82420 0.65190 0.59490 -0.00500
H 	H 	0.84330 0.62230 0.63890 -0.01500
H 	H 	0.68770 0.64450 0.61670 0.11600
H 	H 	0.70620 0.61190 0.65910 0.11900
H 	H 	0.70190 0.70760 0.65240 -0.04400
H 	H 	0.71960 0.67490 0.69510 -0.04600
H 	H 	0.56510 0.69900 0.67160 0.17800
H 	H 	0.57930 0.72000 0.71460 0.17300
H 	H 	0.58290 0.66650 0.71430 0.18100
H 	H 	0.48300 0.42710 0.30810 0.12900
H 	H 	0.49920 0.42940 0.22960 -0.04000
H 	H 	0.39590 0.47640 0.19820 0.11300
H 	H 	0.27170 0.51770 0.24790 -0.00500
H 	H 	0.01200 0.61070 0.46450 0.12000
H 	H 	0.03610 0.58340 0.50880 0.12200
H 	H 	0.13380 0.62800 0.50280 -0.03200
H 	H 	0.03920 0.65920 0.51520 -0.03100
H 	H 	0.15250 0.65110 0.42510 0.13300
H 	H 	0.05760 0.68170 0.43690 0.13200
H 	H 	0.18210 0.70060 0.47060 -0.05700
H 	H 	0.08680 0.73100 0.48360 -0.05200
H 	H 	0.10140 0.75710 0.40770 0.20200
H 	H 	0.17410 0.76620 0.42500 0.19800
H 	H 	0.19400 0.72330 0.39150 0.19800
H 	H 	0.79360 0.51890 0.07050 -0.01400
H 	H 	0.82450 0.52110 0.14010 0.07100
H 	H 	0.75460 0.65990 0.13230 0.08100
H 	H 	0.71800 0.65410 0.06650 -0.01700
H 	H 	0.79640 0.56770 0.21090 0.06000
H 	H 	0.78040 0.62280 0.20600 0.06100
H 	H 	0.62420 0.78490 0.19190 0.13200
H 	H 	0.61940 0.71080 0.18400 -0.03600
H 	H 	0.54300 0.69580 0.13700 0.10800
H 	H 	0.47390 0.75690 0.09870 0.00300
H 	H 	0.32700 0.99350 0.04530 0.17500
H 	H 	0.36220 0.02860 0.06560 0.18200
H 	H 	0.21880 0.99580 0.11760 -0.14100
H 	H 	0.25690 0.02700 0.14120 -0.14400
H 	H 	0.21080 0.09080 0.10220 0.39000
H 	H 	0.21110 0.06210 0.05990 0.40200
H 	H 	0.10500 0.07340 0.14340 -0.29700
H 	H 	0.10580 0.04320 0.10200 -0.28600
H 	H 	0.08680 0.14400 0.09000 0.31600
H 	H 	0.00700 0.12440 0.10580 0.32500
H 	H 	0.07100 0.11230 0.05530 0.32400
H 	H 	0.43570 0.90820 0.25400 -0.00200
H 	H 	0.32200 0.90510 0.31550 0.09200
H 	H 	0.18940 0.91520 0.22440 0.08500
H 	H 	0.30600 0.91590 0.16530 -0.00600
H 	H 	0.18310 0.88780 0.34040 0.07100
H 	H 	0.14960 0.94260 0.33500 0.06800
H 	H 	0.12570 0.90110 0.14610 0.12600
H 	H 	0.99140 0.94240 0.14800 -0.03200
H 	H 	0.95990 0.98400 0.08300 0.10400
H 	H 	0.06940 0.98880 0.01880 -0.00600
H 	H 	0.55260 0.92650 0.92490 0.11600
H 	H 	0.49100 0.94390 0.89270 0.10900
H 	H 	0.57100 0.84810 0.90510 -0.00500
H 	H 	0.60450 0.87770 0.86110 -0.01500
H 	H 	0.44890 0.85550 0.88330 0.11600
H 	H 	0.47720 0.88810 0.84090 0.11900
H 	H 	0.56190 0.79240 0.84760 -0.04400
H 	H 	0.58960 0.82510 0.80490 -0.04600
H 	H 	0.43570 0.80100 0.82840 0.17800
H 	H 	0.51390 0.78000 0.78540 0.17300
H 	H 	0.46370 0.83350 0.78570 0.18100
H 	H 	0.71820 0.07290 0.19190 0.12900
H 	H 	0.65820 0.07060 0.27040 -0.04100
H 	H 	0.57050 0.02360 0.30180 0.11400
H 	H 	0.53730 0.98230 0.25210 -0.00600
H 	H 	0.58720 0.88930 0.03550 0.11900
H 	H 	0.62830 0.91660 0.99120 0.12200
H 	H 	0.76460 0.87200 0.99720 -0.03000
H 	H 	0.71360 0.84080 0.98480 -0.02900
H 	H 	0.72870 0.84890 0.07490 0.13200
H 	H 	0.67620 0.81830 0.06310 0.13200
H 	H 	0.85330 0.79940 0.02940 -0.05700
H 	H 	0.80140 0.76900 0.01640 -0.05200
H 	H 	0.76620 0.74290 0.09230 0.20100
H 	H 	0.86530 0.73380 0.07500 0.19700
H 	H 	0.80880 0.77670 0.10850 0.19700
H 	H 	0.88300 0.98110 0.42950 -0.01400
H 	H 	0.98570 0.97890 0.35990 0.07100
H 	H 	0.04680 0.84010 0.36770 0.08100
H 	H 	0.93860 0.84590 0.43350 -0.01700
H 	H 	0.07500 0.93230 0.28910 0.06000
H 	H 	0.10920 0.87720 0.29400 0.06100
C 	C 	0.29892 0.15058 0.68278 0.30500
C 	C 	0.23436 0.17285 0.72043 -0.28900
C 	C 	0.24161 0.16816 0.76442 0.15600
C 	C 	0.31448 0.14033 0.77351 -0.22400
C 	C 	0.37773 0.11801 0.73713 0.15200
C 	C 	0.37286 0.12227 0.69181 -0.25500
C 	C 	0.44570 0.09627 0.65513 0.28000
C 	C 	0.51594 0.09208 0.53744 0.32800
C 	C 	0.59052 0.07371 0.49705 -0.54900
C 	C 	0.64019 0.11173 0.47969 0.62200
C 	C 	0.70980 0.09420 0.43620 -1.31400
C 	C 	0.77010 0.10920 0.42940 1.13600
C 	C 	0.84640 0.08790 0.38230 -1.07300
C 	C 	0.36749 0.24790 0.59052 0.10200
C 	C 	0.39857 0.28479 0.59167 -0.19200
C 	C 	0.48108 0.27727 0.58817 0.13000
C 	C 	0.52888 0.23138 0.58606 -0.17700
C 	C 	0.49456 0.19634 0.58574 0.10100
C 	C 	0.51560 0.31870 0.58730 -0.15100
C 	C 	0.73872 0.08003 0.58193 0.30500
C 	C 	0.76531 0.11960 0.58178 -0.27800
C 	C 	0.84443 0.12057 0.55717 0.15600
C 	C 	0.90162 0.08254 0.53162 -0.21200
C 	C 	0.87469 0.04436 0.52986 0.14800
C 	C 	0.79504 0.04155 0.55437 -0.24800
C 	C 	0.77082 0.00054 0.54802 0.26800
C 	C 	0.60793 0.95302 0.58672 0.25300
C 	C 	0.57576 0.91295 0.58173 -0.32600
C 	C 	0.56194 0.88447 0.62605 0.12300
C 	C 	0.64238 0.85979 0.63865 -0.31900
C 	C 	0.63022 0.82878 0.68078 0.21600
C 	C 	0.71160 0.80497 0.69263 -0.56200
C 	C 	0.16287 0.17293 0.47173 0.31400
C 	C 	0.11492 0.20364 0.44592 -0.29400
C 	C 	0.10356 0.25039 0.44749 0.16800
C 	C 	0.13752 0.26917 0.47479 -0.23600
C 	C 	0.18578 0.23966 0.49938 0.15700
C 	C 	0.19960 0.19156 0.49844 -0.26500
C 	C 	0.25166 0.16330 0.52678 0.28200
C 	C 	0.30535 0.05193 0.56517 0.27400
C 	C 	0.34331 0.02042 0.59916 -0.36100
C 	C 	0.27511 0.00946 0.64012 0.16200
C 	C 	0.22322 0.05062 0.67034 -0.36300
C 	C 	0.15574 0.04118 0.71194 0.26200
C 	C 	0.10550 0.08290 0.74230 -0.61400
C 	C 	0.66788 0.41607 0.54817 0.09000
C 	C 	0.64767 0.37461 0.54925 -0.17300
C 	C 	0.61791 0.35485 0.59153 0.12400
C 	C 	0.60867 0.37889 0.63017 -0.18800
C 	C 	0.63232 0.41879 0.62637 0.10300
C 	C 	0.59510 0.30980 0.59280 -0.14100
C 	C 	0.63228 0.34942 0.81722 0.30500
C 	C 	0.62764 0.32715 0.77957 -0.28900
C 	C 	0.67419 0.33184 0.73558 0.15600
C 	C 	0.72832 0.35967 0.72649 -0.22400
C 	C 	0.73287 0.38199 0.76287 0.15200
C 	C 	0.68694 0.37773 0.80819 -0.25500
C 	C 	0.69710 0.40373 0.84487 0.28000
C 	C 	0.64546 0.40792 0.96256 0.32800
C 	C 	0.66128 0.42629 0.00295 -0.54900
C 	C 	0.73161 0.38827 0.02031 0.62200
C 	C 	0.74020 0.40580 0.06380 -1.31400
C 	C 	0.80870 0.39080 0.07060 1.13500
C 	C 	0.81660 0.41210 0.11770 -1.07300
C 	C 	0.70591 0.25210 0.90948 0.10200
C 	C 	0.77503 0.21521 0.90833 -0.19200
C 	C 	0.84652 0.22273 0.91183 0.13000
C 	C 	0.84632 0.26862 0.91394 -0.17800
C 	C 	0.77664 0.30366 0.91426 0.10100
C 	C 	0.92160 0.18130 0.91270 -0.15200
C 	C 	0.90068 0.41997 0.91807 0.30500
C 	C 	0.96669 0.38040 0.91822 -0.27800
C 	C 	0.02217 0.37943 0.94283 0.15600
C 	C 	0.01578 0.41746 0.96838 -0.21200
C 	C 	0.94891 0.45564 0.97014 0.14800
C 	C 	0.89096 0.45845 0.94563 -0.24900
C 	C 	0.81938 0.49946 0.95198 0.26800
C 	C 	0.64767 0.54698 0.91328 0.25300
C 	C 	0.57044 0.58705 0.91827 -0.32600
C 	C 	0.57246 0.61553 0.87395 0.12300
C 	C 	0.64082 0.64021 0.86135 -0.31900
C 	C 	0.63978 0.67122 0.81922 0.21600
C 	C 	0.70920 0.69503 0.80737 -0.56200
C 	C 	0.30753 0.32707 0.02827 0.31400
C 	C 	0.26448 0.29636 0.05408 -0.29400
C 	C 	0.30144 0.24961 0.05251 0.16900
C 	C 	0.38148 0.23083 0.02521 -0.23700
C 	C 	0.42482 0.26034 0.00062 0.15800
C 	C 	0.38960 0.30844 0.00156 -0.26500
C 	C 	0.44174 0.33670 0.97322 0.28200
C 	C 	0.42245 0.44807 0.93483 0.27400
C 	C 	0.46289 0.47958 0.90084 -0.36200
C 	C 	0.42469 0.49054 0.85988 0.16400
C 	C 	0.44418 0.44938 0.82966 -0.36400
C 	C 	0.40886 0.45882 0.78806 0.26200
C 	C 	0.43070 0.41710 0.75770 -0.61400
C 	C 	0.13212 0.08393 0.95183 0.09000
C 	C 	0.07153 0.12539 0.95075 -0.17300
C 	C 	0.06429 0.14515 0.90847 0.12300
C 	C 	0.11773 0.12111 0.86983 -0.18800
C 	C 	0.17748 0.08121 0.87363 0.10300
C 	C 	0.99770 0.19020 0.90720 -0.14000
C 	C 	0.98170 0.31722 0.65058 0.30500
C 	C 	0.95479 0.27957 0.67285 -0.28800
C 	C 	0.00603 0.23558 0.66816 0.15600
C 	C 	0.08799 0.22649 0.64033 -0.22400
C 	C 	0.11486 0.26287 0.61801 0.15200
C 	C 	0.06467 0.30819 0.62227 -0.25500
C 	C 	0.10083 0.34487 0.59627 0.28000
C 	C 	0.05338 0.46256 0.59208 0.32800
C 	C 	0.08757 0.50295 0.57371 -0.54900
C 	C 	0.11988 0.52031 0.61173 0.62100
C 	C 	0.14600 0.56380 0.59420 -1.31400
C 	C 	0.19950 0.57060 0.60920 1.13500
C 	C 	0.22870 0.61770 0.58790 -1.07300
C 	C 	0.95801 0.40948 0.74790 0.10200
C 	C 	0.99024 0.40833 0.78479 -0.19100
C 	C 	0.06925 0.41183 0.77727 0.13000
C 	C 	0.11494 0.41394 0.73138 -0.17700
C 	C 	0.08030 0.41426 0.69634 0.10100
C 	C 	0.10290 0.41270 0.81870 -0.15100
C 	C 	0.32065 0.41807 0.58003 0.30600
C 	C 	0.34709 0.41822 0.61960 -0.27800
C 	C 	0.40160 0.44283 0.62057 0.15600
C 	C 	0.43324 0.46838 0.58254 -0.21200
C 	C 	0.40455 0.47014 0.54436 0.14800
C 	C 	0.34941 0.44563 0.54155 -0.24900
C 	C 	0.31884 0.45198 0.50054 0.26800
C 	C 	0.19465 0.41328 0.45302 0.25300
C 	C 	0.15749 0.41827 0.41295 -0.32600
C 	C 	0.18799 0.37395 0.38447 0.12300
C 	C 	0.28103 0.36135 0.35979 -0.31900
C 	C 	0.31100 0.31922 0.32878 0.21600
C 	C 	0.40423 0.30737 0.30497 -0.56200
C 	C 	0.63460 0.52827 0.67293 0.31400
C 	C 	0.56084 0.55408 0.70364 -0.29400
C 	C 	0.55105 0.55251 0.75039 0.16800
C 	C 	0.61231 0.52521 0.76917 -0.23600
C 	C 	0.68516 0.50062 0.73966 0.15700
C 	C 	0.69804 0.50156 0.69156 -0.26500
C 	C 	0.77844 0.47322 0.66330 0.28200
C 	C 	0.87052 0.43483 0.55193 0.27400
C 	C 	0.94247 0.40084 0.52042 -0.36200
C 	C 	0.91523 0.35988 0.50946 0.16400
C 	C 	0.89356 0.32966 0.55062 -0.36400
C 	C 	0.86768 0.28806 0.54118 0.26200
C 	C 	0.84780 0.25770 0.58290 -0.61400
C 	C 	0.21605 0.45183 0.91607 0.09000
C 	C 	0.19692 0.45075 0.87461 -0.17300
C 	C 	0.20944 0.40847 0.85485 0.12400
C 	C 	0.23884 0.36983 0.87889 -0.18800
C 	C 	0.25869 0.37363 0.91879 0.10300
C 	C 	0.18790 0.40720 0.80980 -0.14100
C 	C 	0.44950 0.18278 0.84942 0.30500
C 	C 	0.40721 0.22043 0.82715 -0.28900
C 	C 	0.40977 0.26442 0.83184 0.15600
C 	C 	0.45481 0.27351 0.85967 -0.22400
C 	C 	0.49574 0.23713 0.88199 0.15200
C 	C 	0.49513 0.19181 0.87773 -0.25500
C 	C 	0.54197 0.15513 0.90373 0.28000
C 	C 	0.60802 0.03744 0.90792 0.32600
C 	C 	0.66423 0.99705 0.92629 -0.54600
C 	C 	0.75192 0.97969 0.88827 0.62300
C 	C 	0.80400 0.93620 0.90580 -1.31600
C 	C 	0.87930 0.92940 0.89080 1.13800
C 	C 	0.93430 0.88230 0.91210 -1.07500
C 	C 	0.61539 0.09052 0.75210 0.10200
C 	C 	0.68336 0.09167 0.71521 -0.19200
C 	C 	0.75835 0.08817 0.72273 0.13000
C 	C 	0.76026 0.08606 0.76862 -0.17700
C 	C 	0.69090 0.08574 0.80366 0.10100
C 	C 	0.83430 0.08730 0.68130 -0.15100
C 	C 	0.81875 0.08193 0.91997 0.30500
C 	C 	0.88491 0.08178 0.88040 -0.27800
C 	C 	0.96500 0.05717 0.87943 0.15600
C 	C 	0.98416 0.03162 0.91746 -0.21100
C 	C 	0.91905 0.02986 0.95564 0.14700
C 	C 	0.83659 0.05437 0.95845 -0.24800
C 	C 	0.77136 0.04802 0.99946 0.26600
C 	C 	0.56095 0.08672 0.04698 0.25300
C 	C 	0.48871 0.08173 0.08705 -0.32700
C 	C 	0.44641 0.12605 0.11553 0.12300
C 	C 	0.50217 0.13865 0.14021 -0.31900
C 	C 	0.45900 0.18078 0.17122 0.21600
C 	C 	0.51657 0.19263 0.19503 -0.56200
C 	C 	0.33580 0.97173 0.82707 0.31400
C 	C 	0.31856 0.94592 0.79636 -0.29400
C 	C 	0.35395 0.94749 0.74961 0.16900
C 	C 	0.40669 0.97479 0.73083 -0.23700
C 	C 	0.42544 0.99938 0.76034 0.15800
C 	C 	0.39116 0.99844 0.80844 -0.26400
C 	C 	0.41496 0.02678 0.83670 0.28200
C 	C 	0.35728 0.06517 0.94807 0.27400
C 	C 	0.36373 0.09916 0.97958 -0.36200
C 	C 	0.28457 0.14012 0.99054 0.15900
C 	C 	0.27384 0.17034 0.94938 -0.36100
C 	C 	0.19692 0.21194 0.95882 0.26000
C 	C 	0.18840 0.24230 0.91710 -0.61300
C 	C 	0.08395 0.04817 0.58393 0.09000
C 	C 	0.02228 0.04925 0.62539 -0.17300
C 	C 	0.97276 0.09153 0.64515 0.12400
C 	C 	0.98756 0.13017 0.62111 -0.18800
C 	C 	0.05111 0.12637 0.58121 0.10300
C 	C 	0.90490 0.09280 0.69020 -0.14100
C 	C 	0.70108 0.84942 0.31722 0.30500
C 	C 	0.76564 0.82715 0.27957 -0.28900
C 	C 	0.75839 0.83184 0.23558 0.15600
C 	C 	0.68552 0.85967 0.22649 -0.22400
C 	C 	0.62227 0.88199 0.26287 0.15200
C 	C 	0.62714 0.87773 0.30819 -0.25500
C 	C 	0.55430 0.90373 0.34487 0.28000
C 	C 	0.48406 0.90792 0.46256 0.32800
C 	C 	0.40948 0.92629 0.50295 -0.54900
C 	C 	0.35981 0.88827 0.52031 0.62200
C 	C 	0.29020 0.90580 0.56380 -1.31400
C 	C 	0.22990 0.89080 0.57060 1.13600
C 	C 	0.15360 0.91210 0.61770 -1.07300
C 	C 	0.63251 0.75210 0.40948 0.10200
C 	C 	0.60143 0.71521 0.40833 -0.19200
C 	C 	0.51892 0.72273 0.41183 0.13000
C 	C 	0.47112 0.76862 0.41394 -0.17700
C 	C 	0.50544 0.80366 0.41426 0.10100
C 	C 	0.48440 0.68130 0.41270 -0.15100
C 	C 	0.26128 0.91997 0.41807 0.30500
C 	C 	0.23469 0.88040 0.41822 -0.27800
C 	C 	0.15557 0.87943 0.44283 0.15600
C 	C 	0.09838 0.91746 0.46838 -0.21200
C 	C 	0.12531 0.95564 0.47014 0.14800
C 	C 	0.20496 0.95845 0.44563 -0.24800
C 	C 	0.22918 0.99946 0.45198 0.26800
C 	C 	0.39207 0.04698 0.41328 0.25300
C 	C 	0.42424 0.08705 0.41827 -0.32600
C 	C 	0.43806 0.11553 0.37395 0.12300
C 	C 	0.35762 0.14021 0.36135 -0.31900
C 	C 	0.36978 0.17122 0.31922 0.21600
C 	C 	0.28840 0.19503 0.30737 -0.56200
C 	C 	0.83713 0.82707 0.52827 0.31400
C 	C 	0.88508 0.79636 0.55408 -0.29400
C 	C 	0.89644 0.74961 0.55251 0.16800
C 	C 	0.86248 0.73083 0.52521 -0.23600
C 	C 	0.81422 0.76034 0.50062 0.15700
C 	C 	0.80040 0.80844 0.50156 -0.26500
C 	C 	0.74834 0.83670 0.47322 0.28200
C 	C 	0.69465 0.94807 0.43483 0.27400
C 	C 	0.65669 0.97958 0.40084 -0.36100
C 	C 	0.72489 0.99054 0.35988 0.16200
C 	C 	0.77678 0.94938 0.32966 -0.36300
C 	C 	0.84426 0.95882 0.28806 0.26200
C 	C 	0.89450 0.91710 0.25770 -0.61400
C 	C 	0.33212 0.58393 0.45183 0.09000
C 	C 	0.35233 0.62539 0.45075 -0.17300
C 	C 	0.38209 0.64515 0.40847 0.12400
C 	C 	0.39133 0.62111 0.36983 -0.18800
C 	C 	0.36768 0.58121 0.37363 0.10300
C 	C 	0.40490 0.69020 0.40720 -0.14100
C 	C 	0.36772 0.65058 0.18278 0.30500
C 	C 	0.37236 0.67285 0.22043 -0.28900
C 	C 	0.32581 0.66816 0.26442 0.15600
C 	C 	0.27168 0.64033 0.27351 -0.22400
C 	C 	0.26713 0.61801 0.23713 0.15200
C 	C 	0.31306 0.62227 0.19181 -0.25500
C 	C 	0.30290 0.59627 0.15513 0.28000
C 	C 	0.35454 0.59208 0.03744 0.32800
C 	C 	0.33872 0.57371 0.99705 -0.54900
C 	C 	0.26839 0.61173 0.97969 0.62200
C 	C 	0.25980 0.59420 0.93620 -1.31400
C 	C 	0.19130 0.60920 0.92940 1.13500
C 	C 	0.18340 0.58790 0.88230 -1.07300
C 	C 	0.29409 0.74790 0.09052 0.10200
C 	C 	0.22497 0.78479 0.09167 -0.19200
C 	C 	0.15348 0.77727 0.08817 0.13000
C 	C 	0.15368 0.73138 0.08606 -0.17800
C 	C 	0.22336 0.69634 0.08574 0.10100
C 	C 	0.07840 0.81870 0.08730 -0.15200
C 	C 	0.09932 0.58003 0.08193 0.30500
C 	C 	0.03331 0.61960 0.08178 -0.27800
C 	C 	0.97783 0.62057 0.05717 0.15600
C 	C 	0.98422 0.58254 0.03162 -0.21200
C 	C 	0.05109 0.54436 0.02986 0.14800
C 	C 	0.10904 0.54155 0.05437 -0.24900
C 	C 	0.18062 0.50054 0.04802 0.26800
C 	C 	0.35233 0.45302 0.08672 0.25300
C 	C 	0.42956 0.41295 0.08173 -0.32600
C 	C 	0.42754 0.38447 0.12605 0.12300
C 	C 	0.35918 0.35979 0.13865 -0.31900
C 	C 	0.36022 0.32878 0.18078 0.21600
C 	C 	0.29080 0.30497 0.19263 -0.56200
C 	C 	0.69247 0.67293 0.97173 0.31400
C 	C 	0.73552 0.70364 0.94592 -0.29400
C 	C 	0.69856 0.75039 0.94749 0.16900
C 	C 	0.61852 0.76917 0.97479 -0.23700
C 	C 	0.57518 0.73966 0.99938 0.15800
C 	C 	0.61040 0.69156 0.99844 -0.26500
C 	C 	0.55826 0.66330 0.02678 0.28200
C 	C 	0.57755 0.55193 0.06517 0.27400
C 	C 	0.53711 0.52042 0.09916 -0.36200
C 	C 	0.57531 0.50946 0.14012 0.16400
C 	C 	0.55582 0.55062 0.17034 -0.36400
C 	C 	0.59114 0.54118 0.21194 0.26200
C 	C 	0.56930 0.58290 0.24230 -0.61400
C 	C 	0.86788 0.91607 0.04817 0.09000
C 	C 	0.92847 0.87461 0.04925 -0.17300
C 	C 	0.93571 0.85485 0.09153 0.12300
C 	C 	0.88227 0.87889 0.13017 -0.18800
C 	C 	0.82252 0.91879 0.12637 0.10300
C 	C 	0.00230 0.80980 0.09280 -0.14000
C 	C 	0.01830 0.68278 0.34942 0.30500
C 	C 	0.04521 0.72043 0.32715 -0.28800
C 	C 	0.99397 0.76442 0.33184 0.15600
C 	C 	0.91201 0.77351 0.35967 -0.22400
C 	C 	0.88514 0.73713 0.38199 0.15200
C 	C 	0.93533 0.69181 0.37773 -0.25500
C 	C 	0.89917 0.65513 0.40373 0.28000
C 	C 	0.94662 0.53744 0.40792 0.32800
C 	C 	0.91243 0.49705 0.42629 -0.54900
C 	C 	0.88012 0.47969 0.38827 0.62100
C 	C 	0.85400 0.43620 0.40580 -1.31400
C 	C 	0.80050 0.42940 0.39080 1.13500
C 	C 	0.77130 0.38230 0.41210 -1.07300
C 	C 	0.04199 0.59052 0.25210 0.10200
C 	C 	0.00976 0.59167 0.21521 -0.19100
C 	C 	0.93075 0.58817 0.22273 0.13000
C 	C 	0.88506 0.58606 0.26862 -0.17700
C 	C 	0.91970 0.58574 0.30366 0.10100
C 	C 	0.89710 0.58730 0.18130 -0.15100
C 	C 	0.67935 0.58193 0.41997 0.30600
C 	C 	0.65291 0.58178 0.38040 -0.27800
C 	C 	0.59840 0.55717 0.37943 0.15600
C 	C 	0.56676 0.53162 0.41746 -0.21200
C 	C 	0.59545 0.52986 0.45564 0.14800
C 	C 	0.65059 0.55437 0.45845 -0.24900
C 	C 	0.68116 0.54802 0.49946 0.26800
C 	C 	0.80535 0.58672 0.54698 0.25300
C 	C 	0.84251 0.58173 0.58705 -0.32600
C 	C 	0.81201 0.62605 0.61553 0.12300
C 	C 	0.71897 0.63865 0.64021 -0.31900
C 	C 	0.68900 0.68078 0.67122 0.21600
C 	C 	0.59577 0.69263 0.69503 -0.56200
C 	C 	0.36540 0.47173 0.32707 0.31400
C 	C 	0.43916 0.44592 0.29636 -0.29400
C 	C 	0.44895 0.44749 0.24961 0.16800
C 	C 	0.38769 0.47479 0.23083 -0.23600
C 	C 	0.31484 0.49938 0.26034 0.15700
C 	C 	0.30196 0.49844 0.30844 -0.26500
C 	C 	0.22156 0.52678 0.33670 0.28200
C 	C 	0.12948 0.56517 0.44807 0.27400
C 	C 	0.05753 0.59916 0.47958 -0.36200
C 	C 	0.08477 0.64012 0.49054 0.16400
C 	C 	0.10644 0.67034 0.44938 -0.36400
C 	C 	0.13232 0.71194 0.45882 0.26200
C 	C 	0.15220 0.74230 0.41710 -0.61400
C 	C 	0.78395 0.54817 0.08393 0.09000
C 	C 	0.80308 0.54925 0.12539 -0.17300
C 	C 	0.79056 0.59153 0.14515 0.12400
C 	C 	0.76116 0.63017 0.12111 -0.18800
C 	C 	0.74131 0.62637 0.08121 0.10300
C 	C 	0.81210 0.59280 0.19020 -0.14100
C 	C 	0.55050 0.81722 0.15058 0.30500
C 	C 	0.59279 0.77957 0.17285 -0.28900
C 	C 	0.59023 0.73558 0.16816 0.15600
C 	C 	0.54519 0.72649 0.14033 -0.22400
C 	C 	0.50426 0.76287 0.11801 0.15200
C 	C 	0.50487 0.80819 0.12227 -0.25500
C 	C 	0.45803 0.84487 0.09627 0.28000
C 	C 	0.39198 0.96256 0.09208 0.32600
C 	C 	0.33577 0.00295 0.07371 -0.54600
C 	C 	0.24808 0.02031 0.11173 0.62300
C 	C 	0.19600 0.06380 0.09420 -1.31600
C 	C 	0.12070 0.07060 0.10920 1.13800
C 	C 	0.06570 0.11770 0.08790 -1.07500
C 	C 	0.38461 0.90948 0.24790 0.10200
C 	C 	0.31664 0.90833 0.28479 -0.19200
C 	C 	0.24165 0.91183 0.27727 0.13000
C 	C 	0.23974 0.91394 0.23138 -0.17700
C 	C 	0.30910 0.91426 0.19634 0.10100
C 	C 	0.16570 0.91270 0.31870 -0.15100
C 	C 	0.18125 0.91807 0.08003 0.30500
C 	C 	0.11509 0.91822 0.11960 -0.27800
C 	C 	0.03500 0.94283 0.12057 0.15600
C 	C 	0.01584 0.96838 0.08254 -0.21100
C 	C 	0.08095 0.97014 0.04436 0.14700
C 	C 	0.16341 0.94563 0.04155 -0.24800
C 	C 	0.22864 0.95198 0.00054 0.26600
C 	C 	0.43905 0.91328 0.95302 0.25300
C 	C 	0.51129 0.91827 0.91295 -0.32700
C 	C 	0.55359 0.87395 0.88447 0.12300
C 	C 	0.49783 0.86135 0.85979 -0.31900
C 	C 	0.54100 0.81922 0.82878 0.21600
C 	C 	0.48343 0.80737 0.80497 -0.56200
C 	C 	0.66420 0.02827 0.17293 0.31400
C 	C 	0.68144 0.05408 0.20364 -0.29400
C 	C 	0.64605 0.05251 0.25039 0.16900
C 	C 	0.59331 0.02521 0.26917 -0.23700
C 	C 	0.57456 0.00062 0.23966 0.15800
C 	C 	0.60884 0.00156 0.19156 -0.26400
C 	C 	0.58504 0.97322 0.16330 0.28200
C 	C 	0.64272 0.93483 0.05193 0.27400
C 	C 	0.63627 0.90084 0.02042 -0.36200
C 	C 	0.71543 0.85988 0.00946 0.15900
C 	C 	0.72616 0.82966 0.05062 -0.36100
C 	C 	0.80308 0.78806 0.04118 0.26000
C 	C 	0.81160 0.75770 0.08290 -0.61300
C 	C 	0.91605 0.95183 0.41607 0.09000
C 	C 	0.97772 0.95075 0.37461 -0.17300
C 	C 	0.02724 0.90847 0.35485 0.12400
C 	C 	0.01244 0.86983 0.37889 -0.18800
C 	C 	0.94889 0.87363 0.41879 0.10300
C 	C 	0.09510 0.90720 0.30980 -0.14100
N 	N 	0.44341 0.10202 0.61162 -0.28800
N 	N 	0.51766 0.07801 0.57927 -0.25100
N 	N 	0.41406 0.20415 0.58773 -0.22800
N 	N 	0.69544 0.99686 0.57066 -0.29500
N 	N 	0.67942 0.95589 0.56027 -0.23900
N 	N 	0.25872 0.11856 0.53056 -0.28800
N 	N 	0.30339 0.09486 0.56180 -0.24300
N 	N 	0.66068 0.43793 0.58651 -0.22800
N 	N 	0.65705 0.39798 0.88838 -0.28800
N 	N 	0.67494 0.42199 0.92073 -0.25100
N 	N 	0.70594 0.29585 0.91227 -0.22800
N 	N 	0.76296 0.50314 0.92934 -0.29600
N 	N 	0.69558 0.54411 0.93973 -0.23900
N 	N 	0.40784 0.38144 0.96944 -0.28800
N 	N 	0.46005 0.40514 0.93820 -0.24300
N 	N 	0.18512 0.06207 0.91349 -0.22900
N 	N 	0.05503 0.38838 0.60202 -0.28800
N 	N 	0.09693 0.42073 0.57801 -0.25100
N 	N 	0.00179 0.41227 0.70415 -0.22800
N 	N 	0.26610 0.42934 0.49686 -0.29600
N 	N 	0.23969 0.43973 0.45589 -0.23900
N 	N 	0.78928 0.46944 0.61856 -0.28800
N 	N 	0.86519 0.43820 0.59486 -0.24300
N 	N 	0.24719 0.41349 0.93793 -0.22900
N 	N 	0.54543 0.11162 0.89798 -0.28800
N 	N 	0.59567 0.07927 0.92199 -0.25100
N 	N 	0.61821 0.08773 0.79585 -0.22800
N 	N 	0.69230 0.07066 0.00314 -0.29400
N 	N 	0.63531 0.06027 0.04411 -0.23800
N 	N 	0.37728 0.03056 0.88144 -0.28800
N 	N 	0.39825 0.06180 0.90514 -0.24300
N 	N 	0.09861 0.08651 0.56207 -0.22800
N 	N 	0.55659 0.89798 0.38838 -0.28800
N 	N 	0.48234 0.92199 0.42073 -0.25100
N 	N 	0.58594 0.79585 0.41227 -0.22800
N 	N 	0.30456 0.00314 0.42934 -0.29500
N 	N 	0.32058 0.04411 0.43973 -0.23900
N 	N 	0.74128 0.88144 0.46944 -0.28800
N 	N 	0.69661 0.90514 0.43820 -0.24300
N 	N 	0.33932 0.56207 0.41349 -0.22800
N 	N 	0.34295 0.60202 0.11162 -0.28800
N 	N 	0.32506 0.57801 0.07927 -0.25100
N 	N 	0.29406 0.70415 0.08773 -0.22800
N 	N 	0.23704 0.49686 0.07066 -0.29600
N 	N 	0.30442 0.45589 0.06027 -0.23900
N 	N 	0.59216 0.61856 0.03056 -0.28800
N 	N 	0.53995 0.59486 0.06180 -0.24300
N 	N 	0.81488 0.93793 0.08651 -0.22900
N 	N 	0.94497 0.61162 0.39798 -0.28800
N 	N 	0.90307 0.57927 0.42199 -0.25100
N 	N 	0.99821 0.58773 0.29585 -0.22800
N 	N 	0.73390 0.57066 0.50314 -0.29600
N 	N 	0.76031 0.56027 0.54411 -0.23900
N 	N 	0.21072 0.53056 0.38144 -0.28800
N 	N 	0.13481 0.56180 0.40514 -0.24300
N 	N 	0.75281 0.58651 0.06207 -0.22900
N 	N 	0.45457 0.88838 0.10202 -0.28800
N 	N 	0.40433 0.92073 0.07801 -0.25100
N 	N 	0.38179 0.91227 0.20415 -0.22800
N 	N 	0.30770 0.92934 0.99686 -0.29400
N 	N 	0.36469 0.93973 0.95589 -0.23800
N 	N 	0.62272 0.96944 0.11856 -0.28800
N 	N 	0.60175 0.93820 0.09486 -0.24300
N 	N 	0.90139 0.91349 0.43793 -0.22800
O 	O 	0.28578 0.15763 0.64105 -0.47800
O 	O 	0.50919 0.06993 0.66641 -0.42900
O 	O 	0.45282 0.12342 0.52864 -0.45000
O 	O 	0.66277 0.08091 0.60827 -0.48000
O 	O 	0.82330 0.96855 0.52019 -0.41400
O 	O 	0.56089 0.98411 0.61893 -0.44400
O 	O 	0.16955 0.12824 0.46876 -0.48000
O 	O 	0.28695 0.18251 0.54833 -0.41800
O 	O 	0.27161 0.03356 0.54054 -0.45100
O 	O 	0.58446 0.34237 0.85895 -0.47800
O 	O 	0.74553 0.43007 0.83359 -0.42900
O 	O 	0.60488 0.37658 0.97136 -0.45000
O 	O 	0.85195 0.41909 0.89173 -0.48000
O 	O 	0.81204 0.53145 0.97981 -0.41400
O 	O 	0.66393 0.51589 0.88107 -0.44400
O 	O 	0.26655 0.37176 0.03124 -0.48000
O 	O 	0.51779 0.31749 0.95167 -0.41800
O 	O 	0.34571 0.46644 0.95946 -0.45100
O 	O 	0.92683 0.35895 0.65763 -0.47800
O 	O 	0.17560 0.33359 0.56993 -0.42900
O 	O 	0.98146 0.47136 0.62342 -0.45000
O 	O 	0.27104 0.39173 0.58091 -0.48000
O 	O 	0.34349 0.47981 0.46855 -0.41400
O 	O 	0.17982 0.38107 0.48411 -0.44400
O 	O 	0.63831 0.53124 0.62824 -0.48000
O 	O 	0.83528 0.45167 0.68251 -0.41800
O 	O 	0.81215 0.45946 0.53356 -0.45100
O 	O 	0.44341 0.14105 0.84237 -0.47800
O 	O 	0.57912 0.16641 0.93007 -0.43000
O 	O 	0.57624 0.02864 0.87658 -0.45000
O 	O 	0.74368 0.10827 0.91909 -0.48000
O 	O 	0.79185 0.02019 0.03145 -0.41300
O 	O 	0.54500 0.11893 0.01589 -0.44400
O 	O 	0.29779 0.96876 0.87176 -0.47900
O 	O 	0.46946 0.04833 0.81749 -0.41800
O 	O 	0.30517 0.04054 0.96644 -0.45100
O 	O 	0.71422 0.84237 0.35895 -0.47800
O 	O 	0.49081 0.93007 0.33359 -0.42900
O 	O 	0.54718 0.87658 0.47136 -0.45000
O 	O 	0.33723 0.91909 0.39173 -0.48000
O 	O 	0.17670 0.03145 0.47981 -0.41400
O 	O 	0.43911 0.01589 0.38107 -0.44400
O 	O 	0.83045 0.87176 0.53124 -0.48000
O 	O 	0.71305 0.81749 0.45167 -0.41800
O 	O 	0.72839 0.96644 0.45946 -0.45100
O 	O 	0.41554 0.65763 0.14105 -0.47800
O 	O 	0.25447 0.56993 0.16641 -0.42900
O 	O 	0.39512 0.62342 0.02864 -0.45000
O 	O 	0.14805 0.58091 0.10827 -0.48000
O 	O 	0.18796 0.46855 0.02019 -0.41400
O 	O 	0.33607 0.48411 0.11893 -0.44400
O 	O 	0.73345 0.62824 0.96876 -0.48000
O 	O 	0.48221 0.68251 0.04833 -0.41800
O 	O 	0.65429 0.53356 0.04054 -0.45100
O 	O 	0.07317 0.64105 0.34237 -0.47800
O 	O 	0.82440 0.66641 0.43007 -0.42900
O 	O 	0.01854 0.52864 0.37658 -0.45000
O 	O 	0.72896 0.60827 0.41909 -0.48000
O 	O 	0.65651 0.52019 0.53145 -0.41400
O 	O 	0.82018 0.61893 0.51589 -0.44400
O 	O 	0.36169 0.46876 0.37176 -0.48000
O 	O 	0.16472 0.54833 0.31749 -0.41800
O 	O 	0.18785 0.54054 0.46644 -0.45100
O 	O 	0.55659 0.85895 0.15763 -0.47800
O 	O 	0.42088 0.83359 0.06993 -0.43000
O 	O 	0.42376 0.97136 0.12342 -0.45000
O 	O 	0.25632 0.89173 0.08091 -0.48000
O 	O 	0.20815 0.97981 0.96855 -0.41300
O 	O 	0.45500 0.88107 0.98411 -0.44400
O 	O 	0.70221 0.03124 0.12824 -0.47900
O 	O 	0.53054 0.95167 0.18251 -0.41800
O 	O 	0.69483 0.95946 0.03356 -0.45100
