data_crystal

_cell_length_a 6.33030
_cell_length_b 12.68190
_cell_length_c 15.68770
_cell_angle_alpha 95.71100
_cell_angle_beta  99.77300
_cell_angle_gamma 97.97300

_symmetry_space_group_name_	'P 1'
_symmetry_space_group_name_H-M	'P 1'

loop_
_symmetry_equiv_pos_as_xyz
  x,y,z

loop_
_atom_site_label
_atom_site_type_symbol
_atom_site_fract_x
_atom_site_fract_y
_atom_site_fract_z
_atom_site_charge
Zn	Zn	0.51997 0.95383 0.10046 1.24300
Zn	Zn	0.05860 0.96181 0.18612 1.23300
H 	H 	0.18820 0.73210 0.35650 0.14500
H 	H 	0.57910 0.51410 0.41200 0.19000
H 	H 	0.64050 0.68350 0.21130 0.12900
H 	H 	0.11800 0.45970 0.25310 0.12300
H 	H 	0.10440 0.30720 0.15830 -0.08100
H 	H 	0.45590 0.27030 0.10830 -0.05600
H 	H 	0.46900 0.42400 0.20370 0.14500
H 	H 	0.93250 0.61570 0.52780 0.20900
H 	H 	0.89730 0.74600 0.63610 0.01000
H 	H 	0.52020 0.87400 0.65610 -0.02100
H 	H 	0.55150 0.74730 0.54320 0.16100
H 	H 	0.71100 0.91350 0.87600 0.29400
C 	C 	0.32980 0.80320 0.22010 0.32000
C 	C 	0.40190 0.72010 0.27510 0.08300
C 	C 	0.30040 0.69650 0.34430 -0.25900
C 	C 	0.36700 0.61980 0.39480 0.32600
C 	C 	0.53510 0.56600 0.37810 -0.37300
C 	C 	0.63580 0.59210 0.30910 0.31900
C 	C 	0.57150 0.66770 0.25730 -0.25700
C 	C 	0.79390 0.45600 0.23830 0.33000
C 	C 	0.98470 0.42150 0.22430 -0.28600
C 	C 	0.97600 0.33040 0.16740 0.26100
C 	C 	0.77880 0.27270 0.12340 -0.28300
C 	C 	0.58930 0.30820 0.13740 0.21800
C 	C 	0.59700 0.40020 0.19470 -0.33900
C 	C 	0.77490 0.17300 0.06360 0.42900
C 	C 	0.24430 0.67080 0.52460 0.35000
C 	C 	0.04970 0.66870 0.55260 -0.36800
C 	C 	0.02990 0.74590 0.61810 0.15900
C 	C 	0.20520 0.82300 0.65710 -0.21500
C 	C 	0.40100 0.82300 0.62960 0.19800
C 	C 	0.42030 0.74680 0.56240 -0.32800
C 	C 	0.18520 0.90660 0.72890 0.38800
O 	O 	0.74970 0.98040 0.89220 -0.78200
O 	O 	0.18700 0.08210 0.91300 -0.75000
O 	O 	0.42010 0.81840 0.15580 -0.45700
O 	O 	0.18160 0.85150 0.24300 -0.47400
O 	O 	0.81910 0.54620 0.29740 -0.30800
O 	O 	0.95280 0.15120 0.04790 -0.50600
O 	O 	0.59110 0.11520 0.03250 -0.59300
O 	O 	0.26140 0.58900 0.46110 -0.33600
O 	O 	0.35400 0.95480 0.77690 -0.45200
O 	O 	0.99200 0.92230 0.73430 -0.43700
H 	H 	0.81300 0.83865 0.08063 0.14800
Zn	Zn	0.48003 0.04617 0.89954 1.21900
Zn	Zn	0.94140 0.03819 0.81388 1.20200
H 	H 	0.81180 0.26790 0.64350 0.14900
H 	H 	0.42090 0.48590 0.58800 0.19000
H 	H 	0.35950 0.31650 0.78870 0.13400
H 	H 	0.88200 0.54030 0.74690 0.19500
H 	H 	0.89560 0.69280 0.84170 0.00500
H 	H 	0.54410 0.72970 0.89170 -0.02500
H 	H 	0.53100 0.57600 0.79630 0.15500
H 	H 	0.06750 0.38430 0.47220 0.14300
H 	H 	0.10270 0.25400 0.36390 -0.07400
H 	H 	0.47980 0.12600 0.34390 -0.05300
H 	H 	0.44850 0.25270 0.45680 0.15300
H 	H 	0.28900 0.08650 0.12400 0.31700
C 	C 	0.67020 0.19680 0.77990 0.31300
C 	C 	0.59810 0.27990 0.72490 0.08800
C 	C 	0.69960 0.30350 0.65570 -0.26400
C 	C 	0.63300 0.38020 0.60520 0.32900
C 	C 	0.46490 0.43400 0.62190 -0.38100
C 	C 	0.36420 0.40790 0.69090 0.32300
C 	C 	0.42850 0.33230 0.74270 -0.26800
C 	C 	0.20610 0.54400 0.76170 0.35800
C 	C 	0.01530 0.57850 0.77570 -0.36200
C 	C 	0.02400 0.66960 0.83260 0.16600
C 	C 	0.22120 0.72730 0.87660 -0.22700
C 	C 	0.41070 0.69180 0.86260 0.20400
C 	C 	0.40300 0.59980 0.80530 -0.33000
C 	C 	0.22510 0.82700 0.93640 0.40600
C 	C 	0.75570 0.32920 0.47540 0.33500
C 	C 	0.95030 0.33130 0.44740 -0.30600
C 	C 	0.97010 0.25410 0.38190 0.27700
C 	C 	0.79480 0.17700 0.34290 -0.29100
C 	C 	0.59900 0.17700 0.37040 0.23200
C 	C 	0.57970 0.25320 0.43760 -0.34700
C 	C 	0.81480 0.09340 0.27110 0.49300
O 	O 	0.25030 0.01960 0.10780 -0.93300
O 	O 	0.81300 0.91790 0.08700 -0.70800
O 	O 	0.57990 0.18160 0.84420 -0.44700
O 	O 	0.81840 0.14850 0.75700 -0.48800
O 	O 	0.18090 0.45380 0.70260 -0.33500
O 	O 	0.04720 0.84880 0.95210 -0.45400
O 	O 	0.40890 0.88480 0.96750 -0.47900
O 	O 	0.73860 0.41100 0.53890 -0.32000
O 	O 	0.64600 0.04520 0.22310 -0.53000
O 	O 	0.00800 0.07770 0.26570 -0.55800
H 	H 	0.18700 0.16135 0.91937 0.17600
Zn	Zn	-0.00000 0.00000 -0.00000 1.16800
