data_crystal

_cell_length_a 17.99460
_cell_length_b 20.49000
_cell_length_c 27.77200
_cell_angle_alpha 82.11300
_cell_angle_beta  72.54300
_cell_angle_gamma 84.88400

_symmetry_space_group_name_	'P 1'
_symmetry_space_group_name_H-M	'P 1'

loop_
_symmetry_equiv_pos_as_xyz
  x,y,z

loop_
_atom_site_label
_atom_site_type_symbol
_atom_site_fract_x
_atom_site_fract_y
_atom_site_fract_z
_atom_site_charge
Zn	Zn	0.07493 0.73242 0.76985 1.21300
Zn	Zn	0.67210 0.07089 0.53161 1.20800
Zn	Zn	0.61028 0.25856 0.27414 1.21400
Zn	Zn	0.05452 0.21076 0.77753 1.20700
Zn	Zn	0.37466 0.22275 0.93025 1.20400
Zn	Zn	0.20231 0.59918 0.02450 1.21100
Zn	Zn	0.91243 0.72083 0.42890 1.18600
Zn	Zn	0.58228 0.73804 0.27960 1.21000
Zn	Zn	0.92507 0.26758 0.23015 1.21300
Zn	Zn	0.32790 0.92911 0.46839 1.20800
Zn	Zn	0.38972 0.74144 0.72586 1.21500
Zn	Zn	0.94548 0.78924 0.22247 1.20800
Zn	Zn	0.62534 0.77725 0.06975 1.20500
Zn	Zn	0.79769 0.40082 0.97550 1.21200
Zn	Zn	0.08757 0.27917 0.57110 1.18700
Zn	Zn	0.41772 0.26196 0.72040 1.21100
H 	H 	0.89550 0.41580 0.11990 0.15300
H 	H 	0.69690 0.50980 0.19030 0.15100
H 	H 	0.88860 0.61190 0.12340 0.14800
H 	H 	0.78660 0.34460 0.10640 0.04400
H 	H 	0.71310 0.25560 0.16050 0.02200
H 	H 	0.69590 0.39520 0.24420 -0.01100
H 	H 	0.99220 0.45090 0.03040 0.03000
H 	H 	0.12920 0.49120 0.98880 0.04600
H 	H 	0.02170 0.60020 0.09570 -0.02100
H 	H 	0.70530 0.77790 0.17520 0.02500
H 	H 	0.79900 0.70730 0.12340 0.03800
H 	H 	0.65650 0.59860 0.23720 -0.01100
H 	H 	0.14220 0.62030 0.22230 0.15500
H 	H 	0.21410 0.67440 0.33370 0.13600
H 	H 	0.36430 0.67320 0.19200 0.15200
H 	H 	0.08170 0.72120 0.35580 -0.01200
H 	H 	0.92820 0.59200 0.36910 0.02200
H 	H 	0.04580 0.56360 0.29610 0.03500
H 	H 	0.16610 0.63420 0.13630 -0.00200
H 	H 	0.37040 0.60300 0.03990 0.02700
H 	H 	0.39380 0.62130 0.11950 0.04200
H 	H 	0.45990 0.69080 0.22770 -0.00100
H 	H 	0.29570 0.73130 0.35440 0.02300
H 	H 	0.42140 0.75780 0.36100 0.04100
H 	H 	0.76130 0.78670 0.86610 0.13800
H 	H 	0.55260 0.74020 0.85940 0.13400
H 	H 	0.74060 0.73290 0.73710 0.13200
H 	H 	0.89650 0.72820 0.82360 -0.02100
H 	H 	0.85190 0.78200 0.69050 0.03100
H 	H 	0.99350 0.78670 0.67880 0.01800
H 	H 	0.49460 0.77350 0.78650 -0.01800
H 	H 	0.65630 0.64100 0.72730 0.02500
H 	H 	0.54490 0.63590 0.69460 0.03600
H 	H 	0.69720 0.74940 0.95600 -0.02000
H 	H 	0.51700 0.84340 0.91140 0.03100
H 	H 	0.49120 0.82840 0.00810 0.01500
H 	H 	0.16620 0.98320 0.68700 0.14500
H 	H 	0.35960 0.08470 0.61700 0.13800
H 	H 	0.36480 0.88890 0.61670 0.15100
H 	H 	0.16010 0.86770 0.74080 -0.00800
H 	H 	0.26270 0.81630 0.60370 0.04700
H 	H 	0.18080 0.72870 0.65580 0.02000
H 	H 	0.13310 0.07230 0.73680 -0.01100
H 	H 	0.17000 0.25000 0.66890 0.02100
H 	H 	0.26480 0.17790 0.61810 0.03300
H 	H 	0.49510 0.06530 0.60380 -0.00500
H 	H 	0.47520 0.90460 0.54610 0.02900
H 	H 	0.61000 0.93590 0.51310 0.02900
H 	H 	0.67950 0.15950 0.84070 0.13700
H 	H 	0.82950 0.14530 0.70190 0.14800
H 	H 	0.60440 0.10300 0.73170 0.15300
H 	H 	0.49900 0.05380 0.80830 0.03700
H 	H 	0.38260 0.09400 0.87190 0.02400
H 	H 	0.55110 0.20630 0.86550 -0.01200
H 	H 	0.62970 0.10090 0.64750 -0.00400
H 	H 	0.85510 0.10510 0.62940 0.03900
H 	H 	0.83160 0.06770 0.55360 0.02100
H 	H 	0.92400 0.16570 0.73150 -0.00300
H 	H 	0.89770 0.23030 0.86270 0.03400
H 	H 	0.76980 0.20060 0.86440 0.03000
H 	H 	0.72360 0.89670 0.21200 0.02500
H 	H 	0.79070 0.99180 0.17990 0.08400
H 	H 	0.73820 0.09110 0.20510 0.02700
H 	H 	0.54350 0.00550 0.29340 0.03600
H 	H 	0.58220 0.52250 0.40630 0.03700
H 	H 	0.64620 0.46630 0.46030 0.06700
H 	H 	0.73810 0.51470 0.48240 0.03200
H 	H 	0.70390 0.68190 0.39630 0.04700
H 	H 	0.42330 0.60450 0.85900 0.01200
H 	H 	0.49960 0.54980 0.79570 0.08300
H 	H 	0.50660 0.43440 0.80610 0.01700
H 	H 	0.33950 0.43760 0.94090 0.03300
H 	H 	0.03980 0.82810 0.03810 0.04300
H 	H 	0.97720 0.90520 0.99110 0.06400
H 	H 	0.98550 0.89400 0.90840 0.03900
H 	H 	0.11250 0.72340 0.91860 0.04700
H 	H 	0.91390 0.10300 0.38780 0.04200
H 	H 	0.01460 0.06360 0.32370 0.06000
H 	H 	0.03510 0.94960 0.32440 0.03500
H 	H 	0.84890 0.91660 0.44490 0.04300
H 	H 	0.52650 0.30520 0.55680 0.02500
H 	H 	0.49780 0.40340 0.51100 0.07800
H 	H 	0.52800 0.41040 0.42250 0.02300
H 	H 	0.60770 0.22360 0.42850 0.03100
H 	H 	0.18950 0.37130 0.71260 0.02400
H 	H 	0.25630 0.46730 0.68030 0.08300
H 	H 	0.20260 0.56630 0.70510 0.02700
H 	H 	0.00960 0.47950 0.79170 0.03600
H 	H 	0.17820 0.16580 0.89200 0.04400
H 	H 	0.06080 0.00280 0.91330 0.03500
H 	H 	0.11370 0.95710 0.97510 0.06800
H 	H 	0.20450 0.01460 0.99320 0.04000
H 	H 	0.10450 0.58420 0.88010 0.15300
H 	H 	0.30310 0.49020 0.80970 0.15100
H 	H 	0.11140 0.38810 0.87660 0.14800
H 	H 	0.21340 0.65540 0.89360 0.04400
H 	H 	0.28690 0.74440 0.83950 0.02200
H 	H 	0.30410 0.60480 0.75580 -0.01100
H 	H 	0.00780 0.54910 0.96960 0.03000
H 	H 	0.87080 0.50880 0.01120 0.04600
H 	H 	0.97830 0.39980 0.90430 -0.02100
H 	H 	0.29470 0.22210 0.82480 0.02500
H 	H 	0.20100 0.29270 0.87660 0.03800
H 	H 	0.34350 0.40140 0.76280 -0.01100
H 	H 	0.85780 0.37970 0.77770 0.15500
H 	H 	0.78590 0.32560 0.66630 0.13600
H 	H 	0.63570 0.32680 0.80800 0.15200
H 	H 	0.91830 0.27880 0.64420 -0.01200
H 	H 	0.07180 0.40800 0.63090 0.02200
H 	H 	0.95420 0.43640 0.70390 0.03500
H 	H 	0.83390 0.36580 0.86370 -0.00200
H 	H 	0.62960 0.39700 0.96010 0.02700
H 	H 	0.60620 0.37870 0.88050 0.04200
H 	H 	0.54010 0.30920 0.77230 -0.00100
H 	H 	0.70430 0.26870 0.64560 0.02300
H 	H 	0.57860 0.24220 0.63900 0.04100
H 	H 	0.23870 0.21330 0.13390 0.13800
H 	H 	0.44740 0.25980 0.14060 0.13400
H 	H 	0.25940 0.26710 0.26290 0.13200
H 	H 	0.10350 0.27180 0.17640 -0.02100
H 	H 	0.14810 0.21800 0.30950 0.03100
H 	H 	0.00650 0.21330 0.32120 0.01800
H 	H 	0.50540 0.22650 0.21350 -0.01800
H 	H 	0.34370 0.35900 0.27270 0.02500
H 	H 	0.45510 0.36410 0.30540 0.03600
H 	H 	0.30280 0.25060 0.04400 -0.02000
H 	H 	0.48300 0.15660 0.08860 0.03100
H 	H 	0.50880 0.17160 0.99190 0.01500
H 	H 	0.83380 0.01680 0.31300 0.14500
H 	H 	0.64040 0.91530 0.38300 0.13800
H 	H 	0.63520 0.11110 0.38330 0.15100
H 	H 	0.83990 0.13230 0.25920 -0.00800
H 	H 	0.73730 0.18370 0.39630 0.04700
H 	H 	0.81920 0.27130 0.34420 0.02000
H 	H 	0.86690 0.92770 0.26320 -0.01100
H 	H 	0.83000 0.75000 0.33110 0.02100
H 	H 	0.73520 0.82210 0.38190 0.03300
H 	H 	0.50490 0.93470 0.39620 -0.00500
H 	H 	0.52480 0.09540 0.45390 0.02900
H 	H 	0.39000 0.06410 0.48690 0.02900
H 	H 	0.32050 0.84050 0.15930 0.13700
H 	H 	0.17050 0.85470 0.29810 0.14800
H 	H 	0.39560 0.89700 0.26830 0.15300
H 	H 	0.50100 0.94620 0.19170 0.03700
H 	H 	0.61740 0.90600 0.12810 0.02400
H 	H 	0.44890 0.79370 0.13450 -0.01200
H 	H 	0.37030 0.89910 0.35250 -0.00400
H 	H 	0.14490 0.89490 0.37060 0.03900
H 	H 	0.16840 0.93230 0.44640 0.02100
H 	H 	0.07600 0.83430 0.26850 -0.00300
H 	H 	0.10230 0.76970 0.13730 0.03400
H 	H 	0.23020 0.79940 0.13560 0.03000
H 	H 	0.27640 0.10330 0.78800 0.02500
H 	H 	0.20930 0.00820 0.82010 0.08400
H 	H 	0.26180 0.90890 0.79490 0.02700
H 	H 	0.45650 0.99450 0.70660 0.03600
H 	H 	0.41780 0.47750 0.59370 0.03700
H 	H 	0.35380 0.53370 0.53970 0.06700
H 	H 	0.26190 0.48530 0.51760 0.03200
H 	H 	0.29610 0.31810 0.60370 0.04700
H 	H 	0.57670 0.39550 0.14100 0.01200
H 	H 	0.50040 0.45020 0.20430 0.08300
H 	H 	0.49340 0.56560 0.19390 0.01700
H 	H 	0.66050 0.56240 0.05910 0.03300
H 	H 	0.96020 0.17190 0.96190 0.04300
H 	H 	0.02280 0.09480 0.00890 0.06400
H 	H 	0.01450 0.10600 0.09160 0.03900
H 	H 	0.88750 0.27660 0.08140 0.04700
H 	H 	0.08610 0.89700 0.61220 0.04200
H 	H 	0.98540 0.93640 0.67630 0.06000
H 	H 	0.96490 0.05040 0.67560 0.03500
H 	H 	0.15110 0.08340 0.55510 0.04300
H 	H 	0.47350 0.69480 0.44320 0.02500
H 	H 	0.50220 0.59660 0.48900 0.07800
H 	H 	0.47200 0.58960 0.57750 0.02300
H 	H 	0.39230 0.77640 0.57150 0.03100
H 	H 	0.81050 0.62870 0.28740 0.02400
H 	H 	0.74370 0.53270 0.31970 0.08300
H 	H 	0.79740 0.43370 0.29490 0.02700
H 	H 	0.99040 0.52050 0.20830 0.03600
H 	H 	0.82180 0.83420 0.10800 0.04400
H 	H 	0.93920 0.99720 0.08670 0.03500
H 	H 	0.88630 0.04290 0.02490 0.06800
H 	H 	0.79550 0.98540 0.00680 0.04000
C 	C 	0.86750 0.45460 0.12970 -0.30900
C 	C 	0.79040 0.45400 0.15660 0.26200
C 	C 	0.74930 0.51090 0.17180 -0.31100
C 	C 	0.78570 0.56950 0.15970 0.25300
C 	C 	0.86390 0.57220 0.13190 -0.30400
C 	C 	0.90320 0.51460 0.11740 0.24900
C 	C 	0.75970 0.34400 0.14070 0.00300
C 	C 	0.71900 0.29560 0.17090 0.01000
C 	C 	0.70970 0.37110 0.21650 0.11700
C 	C 	0.01930 0.48120 0.04160 0.01400
C 	C 	0.09210 0.50170 0.02000 -0.04600
C 	C 	0.03560 0.56020 0.08240 0.15800
C 	C 	0.70770 0.73210 0.18130 -0.01300
C 	C 	0.75950 0.69420 0.15270 0.00900
C 	C 	0.68040 0.63460 0.21580 0.11500
C 	C 	0.18110 0.63540 0.23300 -0.29600
C 	C 	0.16750 0.65000 0.28210 0.24200
C 	C 	0.22470 0.66850 0.29960 -0.29200
C 	C 	0.29860 0.67860 0.26640 0.23300
C 	C 	0.31520 0.66650 0.21500 -0.28900
C 	C 	0.25640 0.64450 0.20030 0.24000
C 	C 	0.05720 0.68570 0.35080 0.08900
C 	C 	0.97360 0.61510 0.35730 0.00800
C 	C 	0.03940 0.59730 0.31650 0.00300
C 	C 	0.21980 0.62780 0.12270 0.10300
C 	C 	0.33190 0.61070 0.06980 0.00900
C 	C 	0.34550 0.62140 0.11380 -0.00400
C 	C 	0.43470 0.70440 0.25940 0.08800
C 	C 	0.34360 0.72630 0.32990 0.02700
C 	C 	0.41300 0.74180 0.33340 -0.00600
C 	C 	0.73070 0.77330 0.84800 -0.27300
C 	C 	0.65150 0.76550 0.87107 0.22600
C 	C 	0.60560 0.74540 0.84400 -0.27700
C 	C 	0.63900 0.73320 0.79379 0.22600
C 	C 	0.71820 0.74100 0.77072 -0.27200
C 	C 	0.76400 0.76110 0.79780 0.22400
C 	C 	0.90310 0.74820 0.79060 0.13800
C 	C 	0.87750 0.77270 0.71530 -0.01000
C 	C 	0.95570 0.77410 0.70910 -0.00700
C 	C 	0.52060 0.74050 0.76690 0.10500
C 	C 	0.61040 0.66730 0.73490 0.01900
C 	C 	0.54870 0.66490 0.71670 -0.00700
C 	C 	0.65140 0.77760 0.95700 0.11000
C 	C 	0.55090 0.82610 0.93150 0.01500
C 	C 	0.53980 0.81900 0.98330 0.00700
C 	C 	0.21880 0.98430 0.66890 -0.29200
C 	C 	0.25530 0.04270 0.65660 0.23300
C 	C 	0.33490 0.04500 0.62700 -0.27700
C 	C 	0.37440 0.98590 0.61360 0.24000
C 	C 	0.33760 0.92800 0.62650 -0.30700
C 	C 	0.26090 0.92720 0.65390 0.24700
C 	C 	0.17490 0.84360 0.71310 0.11300
C 	C 	0.23200 0.81640 0.63720 0.00300
C 	C 	0.18690 0.76840 0.66660 0.00600
C 	C 	0.15370 0.10790 0.71350 0.11300
C 	C 	0.17440 0.20440 0.67640 -0.00700
C 	C 	0.22650 0.16520 0.64810 0.01700
C 	C 	0.50740 0.02930 0.58530 0.11500
C 	C 	0.49580 0.94080 0.55350 0.01800
C 	C 	0.57000 0.95800 0.53570 -0.00500
C 	C 	0.63030 0.13110 0.79150 0.23800
C 	C 	0.68950 0.14970 0.80750 -0.28500
C 	C 	0.76440 0.15400 0.77420 0.23600
C 	C 	0.77980 0.14070 0.72460 -0.28800
C 	C 	0.71940 0.12000 0.70900 0.23900
C 	C 	0.64460 0.11590 0.74230 -0.29100
C 	C 	0.49500 0.08910 0.82690 0.00200
C 	C 	0.43130 0.11200 0.86230 0.00500
C 	C 	0.52290 0.17430 0.85910 0.10000
C 	C 	0.68350 0.09660 0.63350 0.12400
C 	C 	0.80730 0.09850 0.62480 -0.00200
C 	C 	0.79310 0.08000 0.58210 0.01000
C 	C 	0.90160 0.17810 0.76400 0.09400
C 	C 	0.88640 0.21340 0.83650 0.01400
C 	C 	0.81560 0.19750 0.83790 0.01100
C 	C 	0.57850 0.88120 0.27520 0.34500
C 	C 	0.62380 0.94210 0.25480 -0.11800
C 	C 	0.70080 0.93740 0.22130 0.05000
C 	C 	0.74120 0.99420 0.20290 -0.12500
C 	C 	0.70960 0.05370 0.21800 0.06000
C 	C 	0.63500 0.05970 0.25260 -0.12600
C 	C 	0.60190 0.12340 0.27190 0.37700
C 	C 	0.59310 0.00270 0.27050 0.05800
C 	C 	0.60140 0.64260 0.35430 0.31100
C 	C 	0.63860 0.60810 0.39230 -0.09800
C 	C 	0.62040 0.54300 0.41420 0.02000
C 	C 	0.65830 0.50950 0.44700 -0.10100
C 	C 	0.71290 0.53840 0.46020 0.03200
C 	C 	0.73150 0.60230 0.44130 -0.09900
C 	C 	0.69310 0.63800 0.40800 0.02900
C 	C 	0.79540 0.63530 0.45190 0.32400
C 	C 	0.32360 0.56120 0.94710 0.34900
C 	C 	0.37440 0.52720 0.90480 -0.13800
C 	C 	0.42280 0.55880 0.86230 0.08100
C 	C 	0.46930 0.52670 0.82520 -0.14500
C 	C 	0.47240 0.45730 0.83120 0.06200
C 	C 	0.42610 0.42380 0.87300 -0.13000
C 	C 	0.37300 0.45950 0.91210 0.06200
C 	C 	0.43400 0.35070 0.88030 0.33600
C 	C 	0.12100 0.71500 0.01210 0.33800
C 	C 	0.08170 0.76820 0.98220 -0.08500
C 	C 	0.04200 0.82270 0.00500 0.01000
C 	C 	0.00530 0.86900 0.97630 -0.08000
C 	C 	0.01000 0.86230 0.92660 0.02300
C 	C 	0.05030 0.80940 0.90420 -0.09200
C 	C 	0.08620 0.76040 0.93310 0.02700
C 	C 	0.05600 0.80000 0.85080 0.32600
C 	C 	0.80120 0.04750 0.46020 0.30900
C 	C 	0.87120 0.01370 0.42050 -0.07100
C 	C 	0.92190 0.05790 0.38550 0.00600
C 	C 	0.98220 0.03510 0.34850 -0.08300
C 	C 	0.99370 0.96690 0.34920 0.01800
C 	C 	0.94510 0.92380 0.38570 -0.11300
C 	C 	0.88250 0.94540 0.42130 0.03400
C 	C 	0.96340 0.85290 0.38400 0.34700
C 	C 	0.59310 0.19270 0.52500 0.34400
C 	C 	0.57220 0.25520 0.49700 -0.13300
C 	C 	0.53820 0.30820 0.52160 0.05900
C 	C 	0.52070 0.36710 0.49420 -0.12500
C 	C 	0.53810 0.37110 0.44110 0.06000
C 	C 	0.57000 0.31710 0.41660 -0.14500
C 	C 	0.58620 0.26030 0.44510 0.07500
C 	C 	0.58640 0.31820 0.36170 0.37000
C 	C 	0.04630 0.35350 0.77490 0.37300
C 	C 	0.09130 0.41480 0.75400 -0.12600
C 	C 	0.16590 0.41170 0.72190 0.05700
C 	C 	0.20650 0.46960 0.70310 -0.12600
C 	C 	0.17470 0.52840 0.71740 0.05900
C 	C 	0.10130 0.53210 0.75010 -0.11800
C 	C 	0.05930 0.47630 0.76900 0.05600
C 	C 	0.06790 0.59880 0.76870 0.36200
C 	C 	0.26110 0.13380 0.95940 0.33500
C 	C 	0.19910 0.09760 0.94620 -0.09300
C 	C 	0.16480 0.12410 0.90880 0.03700
C 	C 	0.11160 0.09130 0.89570 -0.10900
C 	C 	0.09550 0.02680 0.92190 0.02300
C 	C 	0.12710 0.99870 0.95820 -0.09600
C 	C 	0.18010 0.03410 0.96920 0.01900
C 	C 	0.07840 0.11690 0.85350 0.34100
C 	C 	0.13250 0.54540 0.87030 -0.30900
C 	C 	0.20960 0.54600 0.84340 0.26200
C 	C 	0.25070 0.48910 0.82820 -0.31100
C 	C 	0.21430 0.43050 0.84030 0.25300
C 	C 	0.13610 0.42780 0.86810 -0.30400
C 	C 	0.09680 0.48540 0.88260 0.24900
C 	C 	0.24030 0.65600 0.85930 0.00300
C 	C 	0.28100 0.70440 0.82910 0.01000
C 	C 	0.29030 0.62890 0.78350 0.11700
C 	C 	0.98070 0.51880 0.95840 0.01400
C 	C 	0.90790 0.49830 0.98000 -0.04600
C 	C 	0.96440 0.43980 0.91760 0.15800
C 	C 	0.29230 0.26790 0.81870 -0.01300
C 	C 	0.24050 0.30580 0.84730 0.00900
C 	C 	0.31960 0.36540 0.78420 0.11500
C 	C 	0.81890 0.36460 0.76700 -0.29600
C 	C 	0.83250 0.35000 0.71790 0.24200
C 	C 	0.77530 0.33150 0.70040 -0.29200
C 	C 	0.70140 0.32140 0.73360 0.23300
C 	C 	0.68480 0.33350 0.78500 -0.28900
C 	C 	0.74360 0.35550 0.79970 0.24000
C 	C 	0.94280 0.31430 0.64920 0.08900
C 	C 	0.02640 0.38490 0.64270 0.00800
C 	C 	0.96060 0.40270 0.68350 0.00300
C 	C 	0.78020 0.37220 0.87730 0.10300
C 	C 	0.66810 0.38930 0.93020 0.00900
C 	C 	0.65450 0.37860 0.88620 -0.00400
C 	C 	0.56530 0.29560 0.74060 0.08800
C 	C 	0.65640 0.27370 0.67010 0.02700
C 	C 	0.58700 0.25820 0.66660 -0.00600
C 	C 	0.26930 0.22670 0.15200 -0.27300
C 	C 	0.34850 0.23450 0.12893 0.22600
C 	C 	0.39440 0.25460 0.15600 -0.27700
C 	C 	0.36100 0.26680 0.20621 0.22600
C 	C 	0.28180 0.25900 0.22928 -0.27200
C 	C 	0.23600 0.23890 0.20220 0.22400
C 	C 	0.09690 0.25180 0.20940 0.13800
C 	C 	0.12250 0.22730 0.28470 -0.01000
C 	C 	0.04430 0.22590 0.29090 -0.00700
C 	C 	0.47940 0.25950 0.23310 0.10500
C 	C 	0.38960 0.33270 0.26510 0.01900
C 	C 	0.45130 0.33510 0.28330 -0.00700
C 	C 	0.34860 0.22240 0.04300 0.11000
C 	C 	0.44910 0.17390 0.06850 0.01500
C 	C 	0.46020 0.18100 0.01670 0.00700
C 	C 	0.78120 0.01570 0.33110 -0.29200
C 	C 	0.74470 0.95730 0.34340 0.23300
C 	C 	0.66510 0.95500 0.37300 -0.27700
C 	C 	0.62560 0.01410 0.38640 0.24000
C 	C 	0.66240 0.07200 0.37350 -0.30700
C 	C 	0.73910 0.07280 0.34610 0.24700
C 	C 	0.82510 0.15640 0.28690 0.11300
C 	C 	0.76800 0.18360 0.36280 0.00300
C 	C 	0.81310 0.23160 0.33340 0.00600
C 	C 	0.84630 0.89210 0.28650 0.11300
C 	C 	0.82560 0.79560 0.32360 -0.00700
C 	C 	0.77350 0.83480 0.35190 0.01700
C 	C 	0.49260 0.97070 0.41470 0.11500
C 	C 	0.50420 0.05920 0.44650 0.01800
C 	C 	0.43000 0.04200 0.46430 -0.00500
C 	C 	0.36970 0.86890 0.20850 0.23800
C 	C 	0.31050 0.85030 0.19250 -0.28500
C 	C 	0.23560 0.84600 0.22580 0.23600
C 	C 	0.22020 0.85930 0.27540 -0.28800
C 	C 	0.28060 0.88000 0.29100 0.23900
C 	C 	0.35540 0.88410 0.25770 -0.29100
C 	C 	0.50500 0.91090 0.17310 0.00200
C 	C 	0.56870 0.88800 0.13770 0.00500
C 	C 	0.47710 0.82570 0.14090 0.10000
C 	C 	0.31650 0.90340 0.36650 0.12400
C 	C 	0.19270 0.90150 0.37520 -0.00200
C 	C 	0.20690 0.92000 0.41790 0.01000
C 	C 	0.09840 0.82190 0.23600 0.09400
C 	C 	0.11360 0.78660 0.16350 0.01400
C 	C 	0.18440 0.80250 0.16210 0.01100
C 	C 	0.42150 0.11880 0.72480 0.34500
C 	C 	0.37620 0.05790 0.74520 -0.11800
C 	C 	0.29920 0.06260 0.77870 0.05000
C 	C 	0.25880 0.00580 0.79710 -0.12500
C 	C 	0.29040 0.94630 0.78200 0.06000
C 	C 	0.36500 0.94030 0.74740 -0.12600
C 	C 	0.39810 0.87660 0.72810 0.37700
C 	C 	0.40690 0.99730 0.72950 0.05800
C 	C 	0.39860 0.35740 0.64570 0.31100
C 	C 	0.36140 0.39190 0.60770 -0.09800
C 	C 	0.37960 0.45700 0.58580 0.02000
C 	C 	0.34170 0.49050 0.55300 -0.10100
C 	C 	0.28710 0.46160 0.53980 0.03200
C 	C 	0.26850 0.39770 0.55870 -0.09900
C 	C 	0.30690 0.36200 0.59200 0.02900
C 	C 	0.20460 0.36470 0.54810 0.32400
C 	C 	0.67640 0.43880 0.05290 0.34900
C 	C 	0.62560 0.47280 0.09520 -0.13800
C 	C 	0.57720 0.44120 0.13770 0.08100
C 	C 	0.53070 0.47330 0.17480 -0.14500
C 	C 	0.52760 0.54270 0.16880 0.06200
C 	C 	0.57390 0.57620 0.12700 -0.13000
C 	C 	0.62700 0.54050 0.08790 0.06200
C 	C 	0.56600 0.64930 0.11970 0.33600
C 	C 	0.87900 0.28500 0.98790 0.33800
C 	C 	0.91830 0.23180 0.01780 -0.08500
C 	C 	0.95800 0.17730 0.99500 0.01000
C 	C 	0.99470 0.13100 0.02370 -0.08000
C 	C 	0.99000 0.13770 0.07340 0.02300
C 	C 	0.94970 0.19060 0.09580 -0.09200
C 	C 	0.91380 0.23960 0.06690 0.02700
C 	C 	0.94400 0.20000 0.14920 0.32600
C 	C 	0.19880 0.95250 0.53980 0.30900
C 	C 	0.12880 0.98630 0.57950 -0.07100
C 	C 	0.07810 0.94210 0.61450 0.00600
C 	C 	0.01780 0.96490 0.65150 -0.08300
C 	C 	0.00630 0.03310 0.65080 0.01800
C 	C 	0.05490 0.07620 0.61430 -0.11300
C 	C 	0.11750 0.05460 0.57870 0.03400
C 	C 	0.03660 0.14710 0.61600 0.34700
C 	C 	0.40690 0.80730 0.47500 0.34400
C 	C 	0.42780 0.74480 0.50300 -0.13300
C 	C 	0.46180 0.69180 0.47840 0.05900
C 	C 	0.47930 0.63290 0.50580 -0.12500
C 	C 	0.46190 0.62890 0.55890 0.06000
C 	C 	0.43000 0.68290 0.58340 -0.14500
C 	C 	0.41380 0.73970 0.55490 0.07500
C 	C 	0.41360 0.68180 0.63830 0.37000
C 	C 	0.95370 0.64650 0.22510 0.37300
C 	C 	0.90870 0.58520 0.24600 -0.12600
C 	C 	0.83410 0.58830 0.27810 0.05700
C 	C 	0.79350 0.53040 0.29690 -0.12600
C 	C 	0.82530 0.47160 0.28260 0.05900
C 	C 	0.89870 0.46790 0.24990 -0.11800
C 	C 	0.94070 0.52370 0.23100 0.05600
C 	C 	0.93210 0.40120 0.23130 0.36200
C 	C 	0.73890 0.86620 0.04060 0.33500
C 	C 	0.80090 0.90240 0.05380 -0.09300
C 	C 	0.83520 0.87590 0.09120 0.03700
C 	C 	0.88840 0.90870 0.10430 -0.10900
C 	C 	0.90450 0.97320 0.07810 0.02300
C 	C 	0.87290 0.00130 0.04180 -0.09600
C 	C 	0.81990 0.96590 0.03080 0.01900
C 	C 	0.92160 0.88310 0.14650 0.34100
N 	N 	0.65660 0.69640 0.22183 -0.26700
N 	N 	0.74340 0.62930 0.17530 -0.16200
N 	N 	0.75360 0.39330 0.17114 -0.17000
N 	N 	0.68740 0.31140 0.21860 -0.27200
N 	N 	0.98600 0.51690 0.08880 -0.16900
N 	N 	0.10490 0.54590 0.05680 -0.25800
N 	N 	0.25340 0.61320 0.07610 -0.27000
N 	N 	0.27160 0.63250 0.14905 -0.15800
N 	N 	0.98480 0.67040 0.37700 -0.28300
N 	N 	0.09080 0.64380 0.31600 -0.16000
N 	N 	0.46830 0.73000 0.28950 -0.25600
N 	N 	0.35530 0.70200 0.28450 -0.15600
N 	N 	0.97180 0.75830 0.75820 -0.26800
N 	N 	0.84520 0.76830 0.77300 -0.16200
N 	N 	0.59270 0.71470 0.76580 -0.16400
N 	N 	0.49180 0.71280 0.73650 -0.26600
N 	N 	0.60740 0.79970 0.99680 -0.24700
N 	N 	0.62330 0.79740 0.91470 -0.15900
N 	N 	0.15160 0.78530 0.71420 -0.27100
N 	N 	0.22230 0.86540 0.66788 -0.16300
N 	N 	0.21350 0.10280 0.67145 -0.16200
N 	N 	0.12800 0.16940 0.71776 -0.26500
N 	N 	0.45620 0.98660 0.58472 -0.16200
N 	N 	0.57740 0.01410 0.55650 -0.25700
N 	N 	0.71590 0.08260 0.58760 -0.27300
N 	N 	0.73330 0.10450 0.65919 -0.16500
N 	N 	0.82480 0.17530 0.79120 -0.15400
N 	N 	0.93910 0.20200 0.79249 -0.25900
N 	N 	0.55270 0.13130 0.82510 -0.16100
N 	N 	0.44800 0.16550 0.88230 -0.26900
N 	N 	0.34340 0.30360 0.77817 -0.26700
N 	N 	0.25660 0.37070 0.82470 -0.16200
N 	N 	0.24640 0.60670 0.82886 -0.17000
N 	N 	0.31260 0.68860 0.78140 -0.27200
N 	N 	0.01400 0.48310 0.91120 -0.16900
N 	N 	0.89510 0.45410 0.94320 -0.25800
N 	N 	0.74660 0.38680 0.92390 -0.27000
N 	N 	0.72840 0.36750 0.85095 -0.15800
N 	N 	0.01520 0.32960 0.62300 -0.28300
N 	N 	0.90920 0.35620 0.68400 -0.16000
N 	N 	0.53170 0.27000 0.71050 -0.25600
N 	N 	0.64470 0.29800 0.71550 -0.15600
N 	N 	0.02820 0.24170 0.24180 -0.26800
N 	N 	0.15480 0.23170 0.22700 -0.16200
N 	N 	0.40730 0.28530 0.23420 -0.16400
N 	N 	0.50820 0.28720 0.26350 -0.26600
N 	N 	0.39260 0.20030 0.00320 -0.24700
N 	N 	0.37670 0.20260 0.08530 -0.15900
N 	N 	0.84840 0.21470 0.28580 -0.27100
N 	N 	0.77770 0.13460 0.33212 -0.16300
N 	N 	0.78650 0.89720 0.32855 -0.16200
N 	N 	0.87200 0.83060 0.28224 -0.26500
N 	N 	0.54380 0.01340 0.41528 -0.16200
N 	N 	0.42260 0.98590 0.44350 -0.25700
N 	N 	0.28410 0.91740 0.41240 -0.27300
N 	N 	0.26670 0.89550 0.34081 -0.16500
N 	N 	0.17520 0.82470 0.20880 -0.15400
N 	N 	0.06090 0.79800 0.20751 -0.25900
N 	N 	0.44730 0.86870 0.17490 -0.16100
N 	N 	0.55200 0.83450 0.11770 -0.26900
O 	O 	0.63310 0.14840 0.49588 -0.44800
O 	O 	0.57510 0.18160 0.57060 -0.32500
O 	O 	0.57980 0.36960 0.33440 -0.32100
O 	O 	0.60550 0.26360 0.34322 -0.47600
O 	O 	0.75030 0.01210 0.48560 -0.44500
O 	O 	0.80690 0.10890 0.46580 -0.31000
O 	O 	0.91260 0.81540 0.41690 -0.48500
O 	O 	0.02590 0.83220 0.35630 -0.31900
O 	O 	0.08680 0.17900 0.83944 -0.44400
O 	O 	0.04770 0.08210 0.83426 -0.32300
O 	O 	0.29420 0.10590 0.98940 -0.30500
O 	O 	0.27380 0.19040 0.93460 -0.46000
O 	O 	0.98080 0.35790 0.80450 -0.30900
O 	O 	0.08290 0.30160 0.75808 -0.47700
O 	O 	0.00240 0.60320 0.79820 -0.31000
O 	O 	0.11310 0.64549 0.75201 -0.47500
O 	O 	0.26550 0.53520 0.97770 -0.45000
O 	O 	0.34270 0.61730 0.95270 -0.31700
O 	O 	0.37440 0.31800 0.90970 -0.45300
O 	O 	0.49470 0.31920 0.85924 -0.31700
O 	O 	0.16450 0.67220 0.98543 -0.46100
O 	O 	0.10680 0.71400 0.05740 -0.32300
O 	O 	0.07280 0.74050 0.83934 -0.45000
O 	O 	0.04410 0.84610 0.82050 -0.31400
O 	O 	0.61650 0.82710 0.26084 -0.46200
O 	O 	0.51040 0.88530 0.30274 -0.29800
O 	O 	0.64550 0.17170 0.25318 -0.47100
O 	O 	0.53750 0.12710 0.30100 -0.31600
O 	O 	0.80940 0.69470 0.43160 -0.46300
O 	O 	0.83450 0.60160 0.47710 -0.32800
O 	O 	0.61080 0.70420 0.34157 -0.44200
O 	O 	0.56710 0.60920 0.33303 -0.30300
O 	O 	0.36690 0.85160 0.50412 -0.44800
O 	O 	0.42490 0.81840 0.42940 -0.32500
O 	O 	0.42020 0.63040 0.66560 -0.32100
O 	O 	0.39450 0.73640 0.65678 -0.47600
O 	O 	0.24970 0.98790 0.51440 -0.44500
O 	O 	0.19310 0.89110 0.53420 -0.31000
O 	O 	0.08740 0.18460 0.58310 -0.48500
O 	O 	0.97410 0.16780 0.64370 -0.31900
O 	O 	0.91320 0.82100 0.16056 -0.44400
O 	O 	0.95230 0.91790 0.16574 -0.32300
O 	O 	0.70580 0.89410 0.01060 -0.30500
O 	O 	0.72620 0.80960 0.06540 -0.46000
O 	O 	0.01920 0.64210 0.19550 -0.30900
O 	O 	0.91710 0.69840 0.24192 -0.47700
O 	O 	0.99760 0.39680 0.20180 -0.31000
O 	O 	0.88690 0.35451 0.24799 -0.47500
O 	O 	0.73450 0.46480 0.02230 -0.45000
O 	O 	0.65730 0.38270 0.04730 -0.31700
O 	O 	0.62560 0.68200 0.09030 -0.45300
O 	O 	0.50530 0.68080 0.14076 -0.31700
O 	O 	0.83550 0.32780 0.01457 -0.46100
O 	O 	0.89320 0.28600 0.94260 -0.32300
O 	O 	0.92720 0.25950 0.16066 -0.45000
O 	O 	0.95590 0.15390 0.17950 -0.31400
O 	O 	0.38350 0.17290 0.73916 -0.46200
O 	O 	0.48960 0.11470 0.69726 -0.29800
O 	O 	0.35450 0.82830 0.74682 -0.47100
O 	O 	0.46250 0.87290 0.69900 -0.31600
O 	O 	0.19060 0.30530 0.56840 -0.46300
O 	O 	0.16550 0.39840 0.52290 -0.32800
O 	O 	0.38920 0.29580 0.65843 -0.44200
O 	O 	0.43290 0.39080 0.66697 -0.30300
