data_crystal

_cell_length_a 27.08180
_cell_length_b 12.08910
_cell_length_c 36.31560
_cell_angle_alpha 90.00000
_cell_angle_beta  130.02970
_cell_angle_gamma 90.00000

_symmetry_space_group_name_	'P 1'
_symmetry_space_group_name_H-M	'P 1'

loop_
_symmetry_equiv_pos_as_xyz
  x,y,z

loop_
_atom_site_label
_atom_site_type_symbol
_atom_site_fract_x
_atom_site_fract_y
_atom_site_fract_z
_atom_site_charge
Zn	Zn	0.29686 0.46232 0.25795 1.22600
Zn	Zn	0.20632 0.68683 0.23521 1.22700
Si	Si	0.08127 0.52562 0.95115 0.97400
H 	H 	0.20510 0.46690 0.04420 -0.04200
H 	H 	0.25200 0.48660 0.12410 0.08000
H 	H 	0.10470 0.67570 0.08610 0.08100
H 	H 	0.05650 0.65480 0.00630 -0.03800
H 	H 	0.08830 0.34390 0.00820 -0.11600
H 	H 	0.04100 0.17780 0.99690 0.19700
H 	H 	0.94390 0.20150 0.85680 0.17100
H 	H 	0.98620 0.37660 0.86690 -0.10700
H 	H 	0.90420 0.06780 0.88940 0.31400
H 	H 	0.96790 0.00410 0.91060 0.32600
H 	H 	0.95420 0.04160 0.94460 0.31100
H 	H 	0.94470 0.53570 0.90570 -0.03000
H 	H 	0.85790 0.65130 0.85250 0.07600
H 	H 	0.97450 0.85950 0.85400 0.07100
H 	H 	0.06070 0.74190 0.90630 -0.02900
H 	H 	0.07920 0.48440 0.87120 -0.17300
H 	H 	0.64140 0.02210 0.85080 0.25000
H 	H 	0.77220 0.16340 0.97770 0.23600
H 	H 	0.20780 0.62720 0.99700 -0.16900
H 	H 	0.73070 0.15750 0.86760 0.38500
H 	H 	0.78620 0.18880 0.92160 0.37600
H 	H 	0.78160 0.06830 0.90370 0.36400
H 	H 	0.13680 0.15080 0.29210 -0.03200
H 	H 	0.20440 0.26650 0.29210 0.06200
H 	H 	0.05980 0.48230 0.21040 0.06700
H 	H 	0.99210 0.36480 0.20970 -0.00600
H 	H 	0.38480 0.68220 0.14960 -0.17100
H 	H 	0.83430 0.09020 0.07810 0.26000
H 	H 	0.96570 0.85590 0.14590 0.27500
H 	H 	0.01680 0.94600 0.21800 -0.19900
H 	H 	0.84940 0.96370 0.03310 0.38000
H 	H 	0.89460 0.86070 0.05940 0.38900
H 	H 	0.82660 0.86210 0.04560 0.37900
C 	C 	0.12535 0.55930 0.01586 -0.35200
C 	C 	0.18441 0.50860 0.05227 0.13800
C 	C 	0.21255 0.52000 0.10033 -0.13500
C 	C 	0.18215 0.58070 0.11289 -0.02100
C 	C 	0.12446 0.63260 0.07762 -0.14000
C 	C 	0.09601 0.62100 0.02975 0.12700
C 	C 	0.21024 0.58680 0.16425 0.36800
C 	C 	0.04651 0.38280 0.94021 -0.51200
C 	C 	0.05850 0.31780 0.97690 0.37800
C 	C 	0.02900 0.21630 0.97000 -0.56400
C 	C 	0.98330 0.17140 0.92550 0.53300
C 	C 	0.97140 0.23180 0.88760 -0.49900
C 	C 	0.99920 0.33700 0.89380 0.35600
C 	C 	0.94920 0.06090 0.91670 -1.03200
C 	C 	0.01199 0.62460 0.91116 -0.35400
C 	C 	0.95092 0.60000 0.89508 0.15000
C 	C 	0.89873 0.66960 0.86337 -0.12400
C 	C 	0.90805 0.76610 0.84818 -0.03100
C 	C 	0.96846 0.79410 0.86413 -0.10300
C 	C 	0.02001 0.72320 0.89550 0.10400
C 	C 	0.85118 0.83820 0.81169 0.37700
C 	C 	0.13740 0.54470 0.93750 -0.60400
C 	C 	0.11870 0.51930 0.89360 0.52000
C 	C 	0.65600 0.04310 0.88100 -0.65600
C 	C 	0.71450 0.09760 0.91220 0.66400
C 	C 	0.73310 0.12690 0.95560 -0.66100
C 	C 	0.19450 0.60290 0.96750 0.49100
C 	C 	0.75720 0.13120 0.90010 -1.20100
C 	C 	0.05713 0.24590 0.25174 -0.33700
C 	C 	0.12106 0.21790 0.27579 0.12800
C 	C 	0.16193 0.28750 0.27611 -0.13000
C 	C 	0.13956 0.38890 0.25260 -0.03900
C 	C 	0.07573 0.41610 0.22731 -0.09800
C 	C 	0.03503 0.34520 0.22694 0.09000
C 	C 	0.18368 0.46500 0.25332 0.38000
C 	C 	0.95439 0.06950 0.19347 -0.61100
C 	C 	0.90071 0.11380 0.14975 0.51200
C 	C 	0.87030 0.05880 0.10650 -0.68400
C 	C 	0.89280 0.95890 0.10510 0.71700
C 	C 	0.94770 0.92070 0.14650 -0.73000
C 	C 	0.97870 0.97510 0.19030 0.57300
C 	C 	0.86300 0.90640 0.05620 -1.23700
O 	O 	0.25037 0.51200 0.19213 -0.50100
O 	O 	0.19233 0.66440 0.17606 -0.50600
O 	O 	0.86218 0.92880 0.80151 -0.51100
O 	O 	0.79637 0.80230 0.79403 -0.51900
O 	O 	0.23768 0.42750 0.26979 -0.53000
O 	O 	0.16308 0.56080 0.23720 -0.50000
O 	O 	0.33245 0.31986 0.26536 -0.66500
H 	H 	0.38067 0.31986 0.28849 0.15100
Zn	Zn	0.79686 0.96232 0.25795 1.22300
Zn	Zn	0.70632 0.18683 0.23521 1.22600
Si	Si	0.58127 0.02562 0.95115 0.94100
H 	H 	0.70510 0.96690 0.04420 -0.04300
H 	H 	0.75200 0.98660 0.12410 0.07100
H 	H 	0.60470 0.17570 0.08610 0.07700
H 	H 	0.55650 0.15480 0.00630 -0.03100
H 	H 	0.58830 0.84390 0.00820 -0.10300
H 	H 	0.54100 0.67780 0.99690 0.17500
H 	H 	0.44390 0.70150 0.85680 0.15200
H 	H 	0.48620 0.87660 0.86690 -0.09000
H 	H 	0.40420 0.56780 0.88940 0.29300
H 	H 	0.46790 0.50410 0.91060 0.30100
H 	H 	0.45420 0.54160 0.94460 0.28500
H 	H 	0.44470 0.03570 0.90570 -0.02500
H 	H 	0.35790 0.15130 0.85250 0.07200
H 	H 	0.47450 0.35950 0.85400 0.07200
H 	H 	0.56070 0.24190 0.90630 -0.03200
H 	H 	0.57920 0.98440 0.87120 -0.16000
H 	H 	0.14140 0.52210 0.85080 0.25600
H 	H 	0.27220 0.66340 0.97770 0.24000
H 	H 	0.70780 0.12720 0.99700 -0.16400
H 	H 	0.23070 0.65750 0.86760 0.38900
H 	H 	0.28620 0.68880 0.92160 0.38000
H 	H 	0.28160 0.56830 0.90370 0.36800
H 	H 	0.63680 0.65080 0.29210 -0.04500
H 	H 	0.70440 0.76650 0.29210 0.07300
H 	H 	0.55980 0.98230 0.21040 0.08600
H 	H 	0.49210 0.86480 0.20970 -0.04300
H 	H 	0.88480 0.18220 0.14960 -0.16100
H 	H 	0.33430 0.59020 0.07810 0.26600
H 	H 	0.46570 0.35590 0.14590 0.27200
H 	H 	0.51680 0.44600 0.21800 -0.18800
H 	H 	0.34940 0.46370 0.03310 0.38300
H 	H 	0.39460 0.36070 0.05940 0.39000
H 	H 	0.32660 0.36210 0.04560 0.38300
C 	C 	0.62535 0.05930 0.01586 -0.33700
C 	C 	0.68441 0.00860 0.05227 0.13000
C 	C 	0.71255 0.02000 0.10033 -0.12000
C 	C 	0.68215 0.08070 0.11289 -0.02900
C 	C 	0.62446 0.13260 0.07762 -0.13000
C 	C 	0.59601 0.12100 0.02975 0.11600
C 	C 	0.71024 0.08680 0.16425 0.37100
C 	C 	0.54651 0.88280 0.94021 -0.46000
C 	C 	0.55850 0.81780 0.97690 0.33200
C 	C 	0.52900 0.71630 0.97000 -0.49300
C 	C 	0.48330 0.67140 0.92550 0.46300
C 	C 	0.47140 0.73180 0.88760 -0.44900
C 	C 	0.49920 0.83700 0.89380 0.29400
C 	C 	0.44920 0.56090 0.91670 -0.95700
C 	C 	0.51199 0.12460 0.91116 -0.33000
C 	C 	0.45092 0.10000 0.89508 0.12100
C 	C 	0.39873 0.16960 0.86337 -0.11500
C 	C 	0.40805 0.26610 0.84818 -0.03200
C 	C 	0.46846 0.29410 0.86413 -0.12100
C 	C 	0.52001 0.22320 0.89550 0.11800
C 	C 	0.35118 0.33820 0.81169 0.37800
C 	C 	0.63740 0.04470 0.93750 -0.58600
C 	C 	0.61870 0.01930 0.89360 0.49800
C 	C 	0.15600 0.54310 0.88100 -0.67300
C 	C 	0.21450 0.59760 0.91220 0.67600
C 	C 	0.23310 0.62690 0.95560 -0.67400
C 	C 	0.69450 0.10290 0.96750 0.47600
C 	C 	0.25720 0.63120 0.90010 -1.21500
C 	C 	0.55713 0.74590 0.25174 -0.38400
C 	C 	0.62106 0.71790 0.27579 0.16600
C 	C 	0.66193 0.78750 0.27611 -0.16100
C 	C 	0.63956 0.88890 0.25260 -0.01100
C 	C 	0.57573 0.91610 0.22731 -0.14300
C 	C 	0.53503 0.84520 0.22694 0.16000
C 	C 	0.68368 0.96500 0.25332 0.36500
C 	C 	0.45439 0.56950 0.19347 -0.64800
C 	C 	0.40071 0.61380 0.14975 0.53600
C 	C 	0.37030 0.55880 0.10650 -0.70800
C 	C 	0.39280 0.45890 0.10510 0.73100
C 	C 	0.44770 0.42070 0.14650 -0.73700
C 	C 	0.47870 0.47510 0.19030 0.56900
C 	C 	0.36300 0.40640 0.05620 -1.25100
O 	O 	0.75037 0.01200 0.19213 -0.50000
O 	O 	0.69233 0.16440 0.17606 -0.50600
O 	O 	0.36218 0.42880 0.80151 -0.51300
O 	O 	0.29637 0.30230 0.79403 -0.52000
O 	O 	0.73768 0.92750 0.26979 -0.52800
O 	O 	0.66308 0.06080 0.23720 -0.49300
O 	O 	0.83245 0.81986 0.26536 -0.66600
H 	H 	0.88067 0.81986 0.28849 0.15100
Zn	Zn	0.70314 0.46232 0.24205 1.22500
Zn	Zn	0.79368 0.68683 0.26479 1.22600
Si	Si	0.91873 0.52562 0.54885 0.93400
H 	H 	0.79490 0.46690 0.45580 -0.04000
H 	H 	0.74800 0.48660 0.37590 0.07600
H 	H 	0.89530 0.67570 0.41390 0.07800
H 	H 	0.94350 0.65480 0.49370 -0.02700
H 	H 	0.91170 0.34390 0.49180 -0.08600
H 	H 	0.95900 0.17780 0.50310 0.15600
H 	H 	0.05610 0.20150 0.64320 0.13300
H 	H 	0.01380 0.37660 0.63310 -0.07600
H 	H 	0.09580 0.06780 0.61060 0.27000
H 	H 	0.03210 0.00410 0.58940 0.27400
H 	H 	0.04580 0.04160 0.55540 0.25900
H 	H 	0.05530 0.53570 0.59430 -0.01900
H 	H 	0.14210 0.65130 0.64750 0.07100
H 	H 	0.02550 0.85950 0.64600 0.07700
H 	H 	0.93930 0.74190 0.59370 -0.03600
H 	H 	0.92080 0.48440 0.62880 -0.16100
H 	H 	0.35860 0.02210 0.64920 0.25200
H 	H 	0.22780 0.16340 0.52230 0.23700
H 	H 	0.79220 0.62720 0.50300 -0.16300
H 	H 	0.26930 0.15750 0.63240 0.38700
H 	H 	0.21380 0.18880 0.57840 0.37700
H 	H 	0.21840 0.06830 0.59630 0.36500
H 	H 	0.86320 0.15080 0.20790 -0.03900
H 	H 	0.79560 0.26650 0.20790 0.07100
H 	H 	0.94020 0.48230 0.28960 0.09500
H 	H 	0.00790 0.36480 0.29030 -0.06000
H 	H 	0.61520 0.68220 0.35040 -0.17100
H 	H 	0.16570 0.09020 0.42190 0.24400
H 	H 	0.03430 0.85590 0.35410 0.23900
H 	H 	0.98320 0.94600 0.28200 -0.14300
H 	H 	0.15060 0.96370 0.46690 0.36000
H 	H 	0.10540 0.86070 0.44060 0.36600
H 	H 	0.17340 0.86210 0.45440 0.36100
C 	C 	0.87465 0.55930 0.48414 -0.33600
C 	C 	0.81559 0.50860 0.44773 0.12500
C 	C 	0.78745 0.52000 0.39967 -0.12600
C 	C 	0.81785 0.58070 0.38711 -0.02800
C 	C 	0.87554 0.63260 0.42238 -0.12900
C 	C 	0.90399 0.62100 0.47025 0.11500
C 	C 	0.78976 0.58680 0.33575 0.37100
C 	C 	0.95349 0.38280 0.55979 -0.41700
C 	C 	0.94150 0.31780 0.52310 0.28700
C 	C 	0.97100 0.21630 0.53000 -0.42100
C 	C 	0.01670 0.17140 0.57450 0.39500
C 	C 	0.02860 0.23180 0.61240 -0.40100
C 	C 	0.00080 0.33700 0.60620 0.23600
C 	C 	0.05080 0.06090 0.58330 -0.88100
C 	C 	0.98801 0.62460 0.58884 -0.31300
C 	C 	0.04908 0.60000 0.60492 0.09800
C 	C 	0.10127 0.66960 0.63663 -0.11000
C 	C 	0.09195 0.76610 0.65182 -0.02700
C 	C 	0.03154 0.79410 0.63587 -0.14500
C 	C 	0.97999 0.72320 0.60450 0.13900
C 	C 	0.14882 0.83820 0.68831 0.37600
C 	C 	0.86260 0.54470 0.56250 -0.58400
C 	C 	0.88130 0.51930 0.60640 0.50400
C 	C 	0.34400 0.04310 0.61900 -0.66100
C 	C 	0.28550 0.09760 0.58780 0.66700
C 	C 	0.26690 0.12690 0.54440 -0.66300
C 	C 	0.80550 0.60290 0.53250 0.47600
C 	C 	0.24280 0.13120 0.59990 -1.20500
C 	C 	0.94287 0.24590 0.24826 -0.36100
C 	C 	0.87894 0.21790 0.22421 0.15400
C 	C 	0.83807 0.28750 0.22389 -0.15600
C 	C 	0.86044 0.38890 0.24740 -0.00900
C 	C 	0.92427 0.41610 0.27269 -0.15200
C 	C 	0.96497 0.34520 0.27306 0.18300
C 	C 	0.81632 0.46500 0.24668 0.36900
C 	C 	0.04561 0.06950 0.30653 -0.58100
C 	C 	0.09929 0.11380 0.35025 0.47500
C 	C 	0.12970 0.05880 0.39350 -0.64500
C 	C 	0.10720 0.95890 0.39490 0.66300
C 	C 	0.05230 0.92070 0.35350 -0.66000
C 	C 	0.02130 0.97510 0.30970 0.46900
C 	C 	0.13700 0.90640 0.44380 -1.17600
O 	O 	0.74963 0.51200 0.30787 -0.50200
O 	O 	0.80767 0.66440 0.32394 -0.50700
O 	O 	0.13782 0.92880 0.69849 -0.51000
O 	O 	0.20363 0.80230 0.70597 -0.51900
O 	O 	0.76232 0.42750 0.23021 -0.52800
O 	O 	0.83692 0.56080 0.26280 -0.49600
O 	O 	0.66755 0.31986 0.23464 -0.66500
H 	H 	0.61933 0.31986 0.21151 0.15100
Zn	Zn	0.20314 0.96232 0.24205 1.22400
Zn	Zn	0.29368 0.18683 0.26479 1.22600
Si	Si	0.41873 0.02562 0.54885 0.95200
H 	H 	0.29490 0.96690 0.45580 -0.04200
H 	H 	0.24800 0.98660 0.37590 0.07300
H 	H 	0.39530 0.17570 0.41390 0.07800
H 	H 	0.44350 0.15480 0.49370 -0.03300
H 	H 	0.41170 0.84390 0.49180 -0.10400
H 	H 	0.45900 0.67780 0.50310 0.17700
H 	H 	0.55610 0.70150 0.64320 0.15300
H 	H 	0.51380 0.87660 0.63310 -0.09200
H 	H 	0.59580 0.56780 0.61060 0.29400
H 	H 	0.53210 0.50410 0.58940 0.30200
H 	H 	0.54580 0.54160 0.55540 0.28600
H 	H 	0.55530 0.03570 0.59430 -0.02500
H 	H 	0.64210 0.15130 0.64750 0.07300
H 	H 	0.52550 0.35950 0.64600 0.07300
H 	H 	0.43930 0.24190 0.59370 -0.03200
H 	H 	0.42080 0.98440 0.62880 -0.16300
H 	H 	0.85860 0.52210 0.64920 0.25200
H 	H 	0.72780 0.66340 0.52230 0.23600
H 	H 	0.29220 0.12720 0.50300 -0.16400
H 	H 	0.76930 0.65750 0.63240 0.38600
H 	H 	0.71380 0.68880 0.57840 0.37600
H 	H 	0.71840 0.56830 0.59630 0.36500
H 	H 	0.36320 0.65080 0.20790 -0.04500
H 	H 	0.29560 0.76650 0.20790 0.07300
H 	H 	0.44020 0.98230 0.28960 0.08600
H 	H 	0.50790 0.86480 0.29030 -0.04300
H 	H 	0.11520 0.18220 0.35040 -0.15000
H 	H 	0.66570 0.59020 0.42190 0.26600
H 	H 	0.53430 0.35590 0.35410 0.27100
H 	H 	0.48320 0.44600 0.28200 -0.18800
H 	H 	0.65060 0.46370 0.46690 0.38200
H 	H 	0.60540 0.36070 0.44060 0.38900
H 	H 	0.67340 0.36210 0.45440 0.38200
C 	C 	0.37465 0.05930 0.48414 -0.34400
C 	C 	0.31559 0.00860 0.44773 0.13000
C 	C 	0.28745 0.02000 0.39967 -0.12400
C 	C 	0.31785 0.08070 0.38711 -0.02600
C 	C 	0.37554 0.13260 0.42238 -0.13300
C 	C 	0.40399 0.12100 0.47025 0.12000
C 	C 	0.28976 0.08680 0.33575 0.37100
C 	C 	0.45349 0.88280 0.55979 -0.46500
C 	C 	0.44150 0.81780 0.52310 0.33600
C 	C 	0.47100 0.71630 0.53000 -0.49600
C 	C 	0.51670 0.67140 0.57450 0.46600
C 	C 	0.52860 0.73180 0.61240 -0.45200
C 	C 	0.50080 0.83700 0.60620 0.29700
C 	C 	0.55080 0.56090 0.58330 -0.96000
C 	C 	0.48801 0.12460 0.58884 -0.33300
C 	C 	0.54908 0.10000 0.60492 0.12300
C 	C 	0.60127 0.16960 0.63663 -0.11700
C 	C 	0.59195 0.26610 0.65182 -0.03000
C 	C 	0.53154 0.29410 0.63587 -0.12300
C 	C 	0.47999 0.22320 0.60450 0.12000
C 	C 	0.64882 0.33820 0.68831 0.37700
C 	C 	0.36260 0.04470 0.56250 -0.59000
C 	C 	0.38130 0.01930 0.60640 0.50400
C 	C 	0.84400 0.54310 0.61900 -0.65900
C 	C 	0.78550 0.59760 0.58780 0.66600
C 	C 	0.76690 0.62690 0.54440 -0.66100
C 	C 	0.30550 0.10290 0.53250 0.48000
C 	C 	0.74280 0.63120 0.59990 -1.20300
C 	C 	0.44287 0.74590 0.24826 -0.38400
C 	C 	0.37894 0.71790 0.22421 0.16600
C 	C 	0.33807 0.78750 0.22389 -0.16100
C 	C 	0.36044 0.88890 0.24740 -0.01000
C 	C 	0.42427 0.91610 0.27269 -0.14300
C 	C 	0.46497 0.84520 0.27306 0.16100
C 	C 	0.31632 0.96500 0.24668 0.36600
C 	C 	0.54561 0.56950 0.30653 -0.64700
C 	C 	0.59929 0.61380 0.35025 0.53500
C 	C 	0.62970 0.55880 0.39350 -0.70700
C 	C 	0.60720 0.45890 0.39490 0.72900
C 	C 	0.55230 0.42070 0.35350 -0.73500
C 	C 	0.52130 0.47510 0.30970 0.56800
C 	C 	0.63700 0.40640 0.44380 -1.24700
O 	O 	0.24963 0.01200 0.30787 -0.50000
O 	O 	0.30767 0.16440 0.32394 -0.50600
O 	O 	0.63782 0.42880 0.69849 -0.51200
O 	O 	0.70363 0.30230 0.70597 -0.52000
O 	O 	0.26232 0.92750 0.23021 -0.52700
O 	O 	0.33692 0.06080 0.26280 -0.49300
O 	O 	0.16755 0.81986 0.23464 -0.66600
H 	H 	0.11933 0.81986 0.21151 0.15100
Zn	Zn	0.70314 0.53768 0.74205 1.22500
Zn	Zn	0.79368 0.31317 0.76479 1.22600
Si	Si	0.91873 0.47438 0.04885 0.93900
H 	H 	0.79490 0.53310 0.95580 -0.04100
H 	H 	0.74800 0.51340 0.87590 0.07600
H 	H 	0.89530 0.32430 0.91390 0.07800
H 	H 	0.94350 0.34520 0.99370 -0.02900
H 	H 	0.91170 0.65610 0.99180 -0.08800
H 	H 	0.95900 0.82220 0.00310 0.15700
H 	H 	0.05610 0.79850 0.14320 0.13400
H 	H 	0.01380 0.62340 0.13310 -0.07700
H 	H 	0.09580 0.93220 0.11060 0.27100
H 	H 	0.03210 0.99590 0.08940 0.27600
H 	H 	0.04580 0.95840 0.05540 0.26000
H 	H 	0.05530 0.46430 0.09430 -0.02000
H 	H 	0.14210 0.34870 0.14750 0.07100
H 	H 	0.02550 0.14050 0.14600 0.07800
H 	H 	0.93930 0.25810 0.09370 -0.03600
H 	H 	0.92080 0.51560 0.12880 -0.16200
H 	H 	0.35860 0.97790 0.14920 0.25000
H 	H 	0.22780 0.83660 0.02230 0.23700
H 	H 	0.79220 0.37280 0.00300 -0.16300
H 	H 	0.26930 0.84250 0.13240 0.38600
H 	H 	0.21380 0.81120 0.07840 0.37600
H 	H 	0.21840 0.93170 0.09630 0.36400
H 	H 	0.86320 0.84920 0.70790 -0.03900
H 	H 	0.79560 0.73350 0.70790 0.07100
H 	H 	0.94020 0.51770 0.78960 0.09500
H 	H 	0.00790 0.63520 0.79030 -0.06000
H 	H 	0.61520 0.31780 0.85040 -0.17100
H 	H 	0.16570 0.90980 0.92190 0.24100
H 	H 	0.03430 0.14410 0.85410 0.23600
H 	H 	0.98320 0.05400 0.78200 -0.14000
H 	H 	0.15060 0.03630 0.96690 0.35600
H 	H 	0.10540 0.13930 0.94060 0.36200
H 	H 	0.17340 0.13790 0.95440 0.35600
C 	C 	0.87465 0.44070 0.98414 -0.34000
C 	C 	0.81559 0.49140 0.94773 0.12700
C 	C 	0.78745 0.48000 0.89967 -0.12700
C 	C 	0.81785 0.41930 0.88711 -0.02700
C 	C 	0.87554 0.36740 0.92238 -0.13100
C 	C 	0.90399 0.37900 0.97025 0.11700
C 	C 	0.78976 0.41320 0.83575 0.37000
C 	C 	0.95349 0.61720 0.05979 -0.42100
C 	C 	0.94150 0.68220 0.02310 0.29200
C 	C 	0.97100 0.78370 0.03000 -0.42600
C 	C 	0.01670 0.82860 0.07450 0.39900
C 	C 	0.02860 0.76820 0.11240 -0.40400
C 	C 	0.00080 0.66300 0.10620 0.24000
C 	C 	0.05080 0.93910 0.08330 -0.88600
C 	C 	0.98801 0.37540 0.08884 -0.31500
C 	C 	0.04908 0.40000 0.10492 0.10000
C 	C 	0.10127 0.33040 0.13663 -0.11100
C 	C 	0.09195 0.23390 0.15182 -0.02600
C 	C 	0.03154 0.20590 0.13587 -0.14600
C 	C 	0.97999 0.27680 0.10450 0.14100
C 	C 	0.14882 0.16180 0.18831 0.37600
C 	C 	0.86260 0.45530 0.06250 -0.58600
C 	C 	0.88130 0.48070 0.10640 0.50500
C 	C 	0.34400 0.95690 0.11900 -0.65700
C 	C 	0.28550 0.90240 0.08780 0.66500
C 	C 	0.26690 0.87310 0.04440 -0.66100
C 	C 	0.80550 0.39710 0.03250 0.47800
C 	C 	0.24280 0.86880 0.09990 -1.20200
C 	C 	0.94287 0.75410 0.74826 -0.36200
C 	C 	0.87894 0.78210 0.72421 0.15500
C 	C 	0.83807 0.71250 0.72389 -0.15600
C 	C 	0.86044 0.61110 0.74740 -0.00900
C 	C 	0.92427 0.58390 0.77269 -0.15200
C 	C 	0.96497 0.65480 0.77306 0.18300
C 	C 	0.81632 0.53500 0.74668 0.36900
C 	C 	0.04561 0.93050 0.80653 -0.57600
C 	C 	0.09929 0.88620 0.85025 0.46900
C 	C 	0.12970 0.94120 0.89350 -0.63400
C 	C 	0.10720 0.04110 0.89490 0.65300
C 	C 	0.05230 0.07930 0.85350 -0.65100
C 	C 	0.02130 0.02490 0.80970 0.46000
C 	C 	0.13700 0.09360 0.94380 -1.16400
O 	O 	0.74963 0.48800 0.80787 -0.50200
O 	O 	0.80767 0.33560 0.82394 -0.50700
O 	O 	0.13782 0.07120 0.19849 -0.51000
O 	O 	0.20363 0.19770 0.20597 -0.51800
O 	O 	0.76232 0.57250 0.73021 -0.52800
O 	O 	0.83692 0.43920 0.76280 -0.49600
O 	O 	0.66755 0.68014 0.73464 -0.66500
H 	H 	0.61933 0.68014 0.71151 0.15100
Zn	Zn	0.20314 0.03768 0.74205 1.22400
Zn	Zn	0.29368 0.81317 0.76479 1.22600
Si	Si	0.41873 0.97438 0.04885 0.95000
H 	H 	0.29490 0.03310 0.95580 -0.04500
H 	H 	0.24800 0.01340 0.87590 0.07200
H 	H 	0.39530 0.82430 0.91390 0.07800
H 	H 	0.44350 0.84520 0.99370 -0.03300
H 	H 	0.41170 0.15610 0.99180 -0.10900
H 	H 	0.45900 0.32220 0.00310 0.18000
H 	H 	0.55610 0.29850 0.14320 0.15400
H 	H 	0.51380 0.12340 0.13310 -0.09200
H 	H 	0.59580 0.43220 0.11060 0.29500
H 	H 	0.53210 0.49590 0.08940 0.30300
H 	H 	0.54580 0.45840 0.05540 0.28800
H 	H 	0.55530 0.96430 0.09430 -0.02600
H 	H 	0.64210 0.84870 0.14750 0.07200
H 	H 	0.52550 0.64050 0.14600 0.07200
H 	H 	0.43930 0.75810 0.09370 -0.03200
H 	H 	0.42080 0.01560 0.12880 -0.16000
H 	H 	0.85860 0.47790 0.14920 0.25300
H 	H 	0.72780 0.33660 0.02230 0.23700
H 	H 	0.29220 0.87280 0.00300 -0.16300
H 	H 	0.76930 0.34250 0.13240 0.38700
H 	H 	0.71380 0.31120 0.07840 0.37700
H 	H 	0.71840 0.43170 0.09630 0.36500
H 	H 	0.36320 0.34920 0.70790 -0.04500
H 	H 	0.29560 0.23350 0.70790 0.07300
H 	H 	0.44020 0.01770 0.78960 0.08600
H 	H 	0.50790 0.13520 0.79030 -0.04300
H 	H 	0.11520 0.81780 0.85040 -0.14800
H 	H 	0.66570 0.40980 0.92190 0.26500
H 	H 	0.53430 0.64410 0.85410 0.27100
H 	H 	0.48320 0.55400 0.78200 -0.18700
H 	H 	0.65060 0.53630 0.96690 0.38100
H 	H 	0.60540 0.63930 0.94060 0.38900
H 	H 	0.67340 0.63790 0.95440 0.38100
C 	C 	0.37465 0.94070 0.98414 -0.34300
C 	C 	0.31559 0.99140 0.94773 0.13400
C 	C 	0.28745 0.98000 0.89967 -0.12300
C 	C 	0.31785 0.91930 0.88711 -0.02700
C 	C 	0.37554 0.86740 0.92238 -0.13300
C 	C 	0.40399 0.87900 0.97025 0.12000
C 	C 	0.28976 0.91320 0.83575 0.37100
C 	C 	0.45349 0.11720 0.05979 -0.46700
C 	C 	0.44150 0.18220 0.02310 0.34500
C 	C 	0.47100 0.28370 0.03000 -0.50200
C 	C 	0.51670 0.32860 0.07450 0.47000
C 	C 	0.52860 0.26820 0.11240 -0.45500
C 	C 	0.50080 0.16300 0.10620 0.29900
C 	C 	0.55080 0.43910 0.08330 -0.96500
C 	C 	0.48801 0.87540 0.08884 -0.33300
C 	C 	0.54908 0.90000 0.10492 0.12300
C 	C 	0.60127 0.83040 0.13663 -0.11700
C 	C 	0.59195 0.73390 0.15182 -0.03000
C 	C 	0.53154 0.70590 0.13587 -0.12300
C 	C 	0.47999 0.77680 0.10450 0.12000
C 	C 	0.64882 0.66180 0.18831 0.37700
C 	C 	0.36260 0.95530 0.06250 -0.58800
C 	C 	0.38130 0.98070 0.10640 0.50000
C 	C 	0.84400 0.45690 0.11900 -0.66000
C 	C 	0.78550 0.40240 0.08780 0.66700
C 	C 	0.76690 0.37310 0.04440 -0.66200
C 	C 	0.30550 0.89710 0.03250 0.47800
C 	C 	0.74280 0.36880 0.09990 -1.20500
C 	C 	0.44287 0.25410 0.74826 -0.38400
C 	C 	0.37894 0.28210 0.72421 0.16600
C 	C 	0.33807 0.21250 0.72389 -0.16100
C 	C 	0.36044 0.11110 0.74740 -0.01100
C 	C 	0.42427 0.08390 0.77269 -0.14300
C 	C 	0.46497 0.15480 0.77306 0.16000
C 	C 	0.31632 0.03500 0.74668 0.36500
C 	C 	0.54561 0.43050 0.80653 -0.64700
C 	C 	0.59929 0.38620 0.85025 0.53400
C 	C 	0.62970 0.44120 0.89350 -0.70600
C 	C 	0.60720 0.54110 0.89490 0.72800
C 	C 	0.55230 0.57930 0.85350 -0.73500
C 	C 	0.52130 0.52490 0.80970 0.56800
C 	C 	0.63700 0.59360 0.94380 -1.24600
O 	O 	0.24963 0.98800 0.80787 -0.50000
O 	O 	0.30767 0.83560 0.82394 -0.50600
O 	O 	0.63782 0.57120 0.19849 -0.51300
O 	O 	0.70363 0.69770 0.20597 -0.52000
O 	O 	0.26232 0.07250 0.73021 -0.52700
O 	O 	0.33692 0.93920 0.76280 -0.49300
O 	O 	0.16755 0.18014 0.73464 -0.66600
H 	H 	0.11933 0.18014 0.71151 0.15100
Zn	Zn	0.29686 0.53768 0.75795 1.22500
Zn	Zn	0.20632 0.31317 0.73521 1.22600
Si	Si	0.08127 0.47438 0.45115 0.97700
H 	H 	0.20510 0.53310 0.54420 -0.04500
H 	H 	0.25200 0.51340 0.62410 0.08000
H 	H 	0.10470 0.32430 0.58610 0.08000
H 	H 	0.05650 0.34520 0.50630 -0.04000
H 	H 	0.08830 0.65610 0.50820 -0.12200
H 	H 	0.04100 0.82220 0.49690 0.19800
H 	H 	0.94390 0.79850 0.35680 0.17200
H 	H 	0.98620 0.62340 0.36690 -0.10800
H 	H 	0.90420 0.93220 0.38940 0.31600
H 	H 	0.96790 0.99590 0.41060 0.32700
H 	H 	0.95420 0.95840 0.44460 0.31300
H 	H 	0.94470 0.46430 0.40570 -0.03100
H 	H 	0.85790 0.34870 0.35250 0.07600
H 	H 	0.97450 0.14050 0.35400 0.07100
H 	H 	0.06070 0.25810 0.40630 -0.02900
H 	H 	0.07920 0.51560 0.37120 -0.17300
H 	H 	0.64140 0.97790 0.35080 0.25200
H 	H 	0.77220 0.83660 0.47770 0.23800
H 	H 	0.20780 0.37280 0.49700 -0.16900
H 	H 	0.73070 0.84250 0.36760 0.38700
H 	H 	0.78620 0.81120 0.42160 0.37700
H 	H 	0.78160 0.93170 0.40370 0.36500
H 	H 	0.13680 0.84920 0.79210 -0.03200
H 	H 	0.20440 0.73350 0.79210 0.06200
H 	H 	0.05980 0.51770 0.71040 0.06800
H 	H 	0.99210 0.63520 0.70970 -0.00700
H 	H 	0.38480 0.31780 0.64960 -0.17100
H 	H 	0.83430 0.90980 0.57810 0.26300
H 	H 	0.96570 0.14410 0.64590 0.27900
H 	H 	0.01680 0.05400 0.71800 -0.20400
H 	H 	0.84940 0.03630 0.53310 0.38400
H 	H 	0.89460 0.13930 0.55940 0.39200
H 	H 	0.82660 0.13790 0.54560 0.38200
C 	C 	0.12535 0.44070 0.51586 -0.35500
C 	C 	0.18441 0.49140 0.55227 0.13900
C 	C 	0.21255 0.48000 0.60033 -0.13600
C 	C 	0.18215 0.41930 0.61289 -0.02000
C 	C 	0.12446 0.36740 0.57762 -0.14200
C 	C 	0.09601 0.37900 0.52975 0.12900
C 	C 	0.21024 0.41320 0.66425 0.36800
C 	C 	0.04651 0.61720 0.44021 -0.51600
C 	C 	0.05850 0.68220 0.47690 0.38600
C 	C 	0.02900 0.78370 0.47000 -0.56900
C 	C 	0.98330 0.82860 0.42550 0.53600
C 	C 	0.97140 0.76820 0.38760 -0.50300
C 	C 	0.99920 0.66300 0.39380 0.35900
C 	C 	0.94920 0.93910 0.41670 -1.03600
C 	C 	0.01199 0.37540 0.41116 -0.35500
C 	C 	0.95092 0.40000 0.39508 0.15200
C 	C 	0.89873 0.33040 0.36337 -0.12500
C 	C 	0.90805 0.23390 0.34818 -0.03100
C 	C 	0.96846 0.20590 0.36413 -0.10300
C 	C 	0.02001 0.27680 0.39550 0.10400
C 	C 	0.85118 0.16180 0.31169 0.37700
C 	C 	0.13740 0.45530 0.43750 -0.60600
C 	C 	0.11870 0.48070 0.39360 0.52200
C 	C 	0.65600 0.95690 0.38100 -0.66100
C 	C 	0.71450 0.90240 0.41220 0.66800
C 	C 	0.73310 0.87310 0.45560 -0.66400
C 	C 	0.19450 0.39710 0.46750 0.49200
C 	C 	0.75720 0.86880 0.40010 -1.20500
C 	C 	0.05713 0.75410 0.75174 -0.33800
C 	C 	0.12106 0.78210 0.77579 0.12900
C 	C 	0.16193 0.71250 0.77611 -0.13000
C 	C 	0.13956 0.61110 0.75260 -0.03900
C 	C 	0.07573 0.58390 0.72731 -0.09900
C 	C 	0.03503 0.65480 0.72694 0.09100
C 	C 	0.18368 0.53500 0.75332 0.37900
C 	C 	0.95439 0.93050 0.69347 -0.61900
C 	C 	0.90071 0.88620 0.64975 0.52100
C 	C 	0.87030 0.94120 0.60650 -0.69700
C 	C 	0.89280 0.04110 0.60510 0.72900
C 	C 	0.94770 0.07930 0.64650 -0.74100
C 	C 	0.97870 0.02490 0.69030 0.58400
C 	C 	0.86300 0.09360 0.55620 -1.24900
O 	O 	0.25037 0.48800 0.69213 -0.50100
O 	O 	0.19233 0.33560 0.67606 -0.50600
O 	O 	0.86218 0.07120 0.30151 -0.51000
O 	O 	0.79637 0.19770 0.29403 -0.51900
O 	O 	0.23768 0.57250 0.76979 -0.53000
O 	O 	0.16308 0.43920 0.73720 -0.50000
O 	O 	0.33245 0.68014 0.76536 -0.66500
H 	H 	0.38067 0.68014 0.78849 0.15100
Zn	Zn	0.79686 0.03768 0.75795 1.22400
Zn	Zn	0.70632 0.81317 0.73521 1.22600
Si	Si	0.58127 0.97438 0.45115 0.95100
H 	H 	0.70510 0.03310 0.54420 -0.04200
H 	H 	0.75200 0.01340 0.62410 0.07400
H 	H 	0.60470 0.82430 0.58610 0.07800
H 	H 	0.55650 0.84520 0.50630 -0.03300
H 	H 	0.58830 0.15610 0.50820 -0.10400
H 	H 	0.54100 0.32220 0.49690 0.17700
H 	H 	0.44390 0.29850 0.35680 0.15300
H 	H 	0.48620 0.12340 0.36690 -0.09200
H 	H 	0.40420 0.43220 0.38940 0.29400
H 	H 	0.46790 0.49590 0.41060 0.30200
H 	H 	0.45420 0.45840 0.44460 0.28600
H 	H 	0.44470 0.96430 0.40570 -0.02500
H 	H 	0.35790 0.84870 0.35250 0.07200
H 	H 	0.47450 0.64050 0.35400 0.07300
H 	H 	0.56070 0.75810 0.40630 -0.03200
H 	H 	0.57920 0.01560 0.37120 -0.16300
H 	H 	0.14140 0.47790 0.35080 0.25600
H 	H 	0.27220 0.33660 0.47770 0.24100
H 	H 	0.70780 0.87280 0.49700 -0.16500
H 	H 	0.23070 0.34250 0.36760 0.39000
H 	H 	0.28620 0.31120 0.42160 0.38000
H 	H 	0.28160 0.43170 0.40370 0.36800
H 	H 	0.63680 0.34920 0.79210 -0.04500
H 	H 	0.70440 0.23350 0.79210 0.07300
H 	H 	0.55980 0.01770 0.71040 0.08600
H 	H 	0.49210 0.13520 0.70970 -0.04300
H 	H 	0.88480 0.81780 0.64960 -0.16400
H 	H 	0.33430 0.40980 0.57810 0.26600
H 	H 	0.46570 0.64410 0.64590 0.27100
H 	H 	0.51680 0.55400 0.71800 -0.18800
H 	H 	0.34940 0.53630 0.53310 0.38200
H 	H 	0.39460 0.63930 0.55940 0.38900
H 	H 	0.32660 0.63790 0.54560 0.38200
C 	C 	0.62535 0.94070 0.51586 -0.34400
C 	C 	0.68441 0.99140 0.55227 0.13000
C 	C 	0.71255 0.98000 0.60033 -0.12500
C 	C 	0.68215 0.91930 0.61289 -0.02600
C 	C 	0.62446 0.86740 0.57762 -0.13300
C 	C 	0.59601 0.87900 0.52975 0.12000
C 	C 	0.71024 0.91320 0.66425 0.37000
C 	C 	0.54651 0.11720 0.44021 -0.46500
C 	C 	0.55850 0.18220 0.47690 0.33500
C 	C 	0.52900 0.28370 0.47000 -0.49500
C 	C 	0.48330 0.32860 0.42550 0.46600
C 	C 	0.47140 0.26820 0.38760 -0.45200
C 	C 	0.49920 0.16300 0.39380 0.29700
C 	C 	0.44920 0.43910 0.41670 -0.96000
C 	C 	0.51199 0.87540 0.41116 -0.33300
C 	C 	0.45092 0.90000 0.39508 0.12300
C 	C 	0.39873 0.83040 0.36337 -0.11700
C 	C 	0.40805 0.73390 0.34818 -0.03000
C 	C 	0.46846 0.70590 0.36413 -0.12300
C 	C 	0.52001 0.77680 0.39550 0.12000
C 	C 	0.35118 0.66180 0.31169 0.37700
C 	C 	0.63740 0.95530 0.43750 -0.59000
C 	C 	0.61870 0.98070 0.39360 0.50400
C 	C 	0.15600 0.45690 0.38100 -0.67400
C 	C 	0.21450 0.40240 0.41220 0.67800
C 	C 	0.23310 0.37310 0.45560 -0.67500
C 	C 	0.69450 0.89710 0.46750 0.48000
C 	C 	0.25720 0.36880 0.40010 -1.21600
C 	C 	0.55713 0.25410 0.75174 -0.38400
C 	C 	0.62106 0.28210 0.77579 0.16600
C 	C 	0.66193 0.21250 0.77611 -0.16100
C 	C 	0.63956 0.11110 0.75260 -0.01100
C 	C 	0.57573 0.08390 0.72731 -0.14300
C 	C 	0.53503 0.15480 0.72694 0.16000
C 	C 	0.68368 0.03500 0.75332 0.36600
C 	C 	0.45439 0.43050 0.69347 -0.64700
C 	C 	0.40071 0.38620 0.64975 0.53500
C 	C 	0.37030 0.44120 0.60650 -0.70700
C 	C 	0.39280 0.54110 0.60510 0.73000
C 	C 	0.44770 0.57930 0.64650 -0.73600
C 	C 	0.47870 0.52490 0.69030 0.56800
C 	C 	0.36300 0.59360 0.55620 -1.24800
O 	O 	0.75037 0.98800 0.69213 -0.50000
O 	O 	0.69233 0.83560 0.67606 -0.50600
O 	O 	0.36218 0.57120 0.30151 -0.51200
O 	O 	0.29637 0.69770 0.29403 -0.52000
O 	O 	0.73768 0.07250 0.76979 -0.52800
O 	O 	0.66308 0.93920 0.73720 -0.49300
O 	O 	0.83245 0.18014 0.76536 -0.66600
H 	H 	0.88067 0.18014 0.78849 0.15100
Si	Si	0.00000 0.15289 0.25000 1.00000
Si	Si	0.50000 0.65289 0.25000 1.08300
Si	Si	0.00000 0.84711 0.75000 1.00300
Si	Si	0.50000 0.34711 0.75000 1.08300
