data_crystal

_cell_length_a 10.30200
_cell_length_b 11.87600
_cell_length_c 32.26600
_cell_angle_alpha 90.00000
_cell_angle_beta  90.00000
_cell_angle_gamma 90.00000

_symmetry_space_group_name_	'P 1'
_symmetry_space_group_name_H-M	'P 1'

loop_
_symmetry_equiv_pos_as_xyz
  x,y,z

loop_
_atom_site_label
_atom_site_type_symbol
_atom_site_fract_x
_atom_site_fract_y
_atom_site_fract_z
_atom_site_charge
Zn	Zn	0.61475 0.83243 0.04371 1.22000
Zn	Zn	0.87636 0.04493 0.64748 1.21900
Zn	Zn	0.88525 0.16757 0.54371 1.21900
Zn	Zn	0.62364 0.95507 0.14748 1.22100
H 	H 	0.23570 0.91860 0.04300 0.03600
H 	H 	0.01280 0.91920 0.03880 0.06700
H 	H 	0.87820 0.80470 0.17090 0.05200
H 	H 	0.98110 0.74440 0.22940 0.05600
H 	H 	0.20550 0.72650 0.23050 0.02200
H 	H 	0.32530 0.78050 0.17470 0.08900
H 	H 	0.52080 0.23400 0.06350 0.04500
H 	H 	0.49820 0.41090 0.03410 0.04800
H 	H 	0.66360 0.65520 0.13480 0.07000
H 	H 	0.74230 0.63150 0.20030 0.03700
H 	H 	0.76330 0.45320 0.22910 0.04300
H 	H 	0.70480 0.29800 0.19170 0.06100
H 	H 	0.54420 0.06450 0.79280 0.05700
H 	H 	0.45850 0.99880 0.85470 0.07000
H 	H 	0.81620 0.95690 0.90000 0.07700
H 	H 	0.90270 0.02200 0.83860 0.06700
H 	H 	0.71020 0.98520 0.72800 -0.01500
H 	H 	0.98590 0.21090 0.71630 0.01600
H 	H 	0.92100 0.21150 0.78910 0.06000
H 	H 	0.73520 0.91620 0.95870 0.00700
H 	H 	0.37180 0.84120 0.98320 0.02300
H 	H 	0.37910 0.90950 0.91200 0.04900
H 	H 	0.26430 0.08140 0.54300 0.04200
H 	H 	0.48720 0.08080 0.53880 0.06100
H 	H 	0.62180 0.19530 0.67090 0.06500
H 	H 	0.51890 0.25560 0.72940 0.04100
H 	H 	0.29450 0.27350 0.73050 0.03300
H 	H 	0.17470 0.21950 0.67470 0.08200
H 	H 	0.97920 0.76600 0.56350 0.04200
H 	H 	0.00180 0.58910 0.53410 0.05600
H 	H 	0.83640 0.34480 0.63480 0.06900
H 	H 	0.75770 0.36850 0.70030 0.03800
H 	H 	0.73670 0.54680 0.72910 0.04200
H 	H 	0.79520 0.70200 0.69170 0.06200
H 	H 	0.95580 0.93550 0.29280 0.05600
H 	H 	0.04150 0.00120 0.35470 0.07400
H 	H 	0.68380 0.04310 0.40000 0.07900
H 	H 	0.59730 0.97800 0.33860 0.06500
H 	H 	0.78980 0.01480 0.22800 -0.01900
H 	H 	0.51410 0.78910 0.21630 0.01700
H 	H 	0.57900 0.78850 0.28910 0.06000
H 	H 	0.76480 0.08380 0.45870 0.00700
H 	H 	0.12820 0.15880 0.48320 0.02200
H 	H 	0.12090 0.09050 0.41200 0.04800
C 	C 	0.25150 0.86830 0.10187 -0.13000
C 	C 	0.18740 0.89830 0.06615 0.01700
C 	C 	0.05250 0.89920 0.06363 -0.05000
C 	C 	0.97650 0.87090 0.09726 -0.07100
C 	C 	0.03790 0.83570 0.13542 0.00700
C 	C 	0.96840 0.80150 0.17119 -0.03700
C 	C 	0.02960 0.76390 0.20612 -0.07300
C 	C 	0.16430 0.75470 0.20704 0.01600
C 	C 	0.23550 0.78720 0.17360 -0.11600
C 	C 	0.17720 0.83100 0.13709 0.08000
C 	C 	0.39740 0.88120 0.10259 0.41000
C 	C 	0.83280 0.87570 0.09076 0.36200
C 	C 	0.59700 0.28400 0.11733 -0.08000
C 	C 	0.54710 0.29710 0.07829 -0.01400
C 	C 	0.53490 0.40390 0.06032 -0.01900
C 	C 	0.57660 0.49880 0.08097 -0.08800
C 	C 	0.63110 0.48830 0.12165 0.04200
C 	C 	0.67040 0.58310 0.14579 -0.08600
C 	C 	0.71780 0.56870 0.18492 -0.02100
C 	C 	0.73030 0.46140 0.20245 -0.03600
C 	C 	0.69390 0.36920 0.18024 -0.07200
C 	C 	0.64020 0.37930 0.14024 0.03400
C 	C 	0.59660 0.16840 0.13646 0.31900
C 	C 	0.55610 0.61030 0.05977 0.32400
C 	C 	0.73180 0.04960 0.80989 0.08300
C 	C 	0.59890 0.04290 0.81433 -0.06800
C 	C 	0.54800 0.00340 0.85135 -0.08400
C 	C 	0.62830 0.97110 0.88321 0.10000
C 	C 	0.76160 0.97840 0.87843 -0.08100
C 	C 	0.81320 0.01740 0.84182 -0.06900
C 	C 	0.77040 0.04130 0.73392 0.09300
C 	C 	0.92190 0.16550 0.72795 0.01800
C 	C 	0.88690 0.16670 0.76816 -0.01500
C 	C 	0.64600 0.90610 0.95607 0.09800
C 	C 	0.44570 0.86520 0.96927 0.01600
C 	C 	0.44930 0.90250 0.92992 0.00200
C 	C 	0.24850 0.13170 0.60187 -0.11600
C 	C 	0.31260 0.10170 0.56615 0.00100
C 	C 	0.44750 0.10080 0.56363 -0.02500
C 	C 	0.52350 0.12910 0.59726 -0.09800
C 	C 	0.46210 0.16430 0.63542 0.03800
C 	C 	0.53160 0.19850 0.67119 -0.07500
C 	C 	0.47040 0.23610 0.70612 -0.03600
C 	C 	0.33570 0.24530 0.70704 -0.01200
C 	C 	0.26450 0.21280 0.67360 -0.09300
C 	C 	0.32280 0.16900 0.63709 0.06100
C 	C 	0.10260 0.11880 0.60259 0.40500
C 	C 	0.66720 0.12430 0.59076 0.37100
C 	C 	0.90300 0.71600 0.61733 -0.08400
C 	C 	0.95290 0.70290 0.57829 -0.00600
C 	C 	0.96510 0.59610 0.56032 -0.03200
C 	C 	0.92340 0.50120 0.58097 -0.08100
C 	C 	0.86890 0.51170 0.62165 0.03700
C 	C 	0.82960 0.41690 0.64579 -0.08300
C 	C 	0.78220 0.43130 0.68492 -0.02500
C 	C 	0.76970 0.53860 0.70245 -0.03300
C 	C 	0.80610 0.63080 0.68024 -0.07500
C 	C 	0.85980 0.62070 0.64024 0.03800
C 	C 	0.90340 0.83160 0.63646 0.32000
C 	C 	0.94390 0.38970 0.55977 0.31500
C 	C 	0.76820 0.95040 0.30989 0.08000
C 	C 	0.90110 0.95710 0.31433 -0.06400
C 	C 	0.95200 0.99660 0.35135 -0.08700
C 	C 	0.87170 0.02890 0.38321 0.10000
C 	C 	0.73840 0.02160 0.37843 -0.08900
C 	C 	0.68680 0.98260 0.34182 -0.06100
C 	C 	0.72960 0.95870 0.23392 0.10000
C 	C 	0.57810 0.83450 0.22795 0.01800
C 	C 	0.61310 0.83330 0.26816 -0.01500
C 	C 	0.85400 0.09390 0.45607 0.09700
C 	C 	0.05430 0.13480 0.46927 0.02100
C 	C 	0.05070 0.09750 0.42992 0.00700
N 	N 	0.78950 0.08711 0.77165 -0.13100
N 	N 	0.84970 0.08753 0.70653 -0.26400
N 	N 	0.57700 0.92830 0.92128 -0.13300
N 	N 	0.56990 0.86840 0.98562 -0.26200
N 	N 	0.71050 0.91289 0.27165 -0.13200
N 	N 	0.65030 0.91247 0.20653 -0.26400
N 	N 	0.92300 0.07170 0.42128 -0.13700
N 	N 	0.93010 0.13160 0.48562 -0.26600
O 	O 	0.45400 0.88681 0.13693 -0.49700
O 	O 	0.45298 0.89297 0.06812 -0.49900
O 	O 	0.75669 0.85784 0.12105 -0.49500
O 	O 	0.79053 0.89500 0.05464 -0.45500
O 	O 	0.65830 0.09236 0.11694 -0.45400
O 	O 	0.53430 0.14994 0.16821 -0.34100
O 	O 	0.45270 0.62965 0.04218 -0.31200
O 	O 	0.65146 0.67966 0.06174 -0.45100
O 	O 	0.04600 0.11319 0.63693 -0.49200
O 	O 	0.04702 0.10703 0.56812 -0.49500
O 	O 	0.74331 0.14216 0.62105 -0.49900
O 	O 	0.70947 0.10500 0.55464 -0.45900
O 	O 	0.84170 0.90764 0.61694 -0.45300
O 	O 	0.96570 0.85006 0.66821 -0.34100
O 	O 	0.04730 0.37035 0.54218 -0.30600
O 	O 	0.84854 0.32034 0.56174 -0.45000
Zn	Zn	0.38525 0.33243 0.45629 1.21900
Zn	Zn	0.12364 0.54493 0.85252 1.21900
Zn	Zn	0.11475 0.66757 0.95629 1.21800
Zn	Zn	0.37636 0.45507 0.35252 1.22000
H 	H 	0.76430 0.41860 0.45700 0.03600
H 	H 	0.98720 0.41920 0.46120 0.06600
H 	H 	0.12180 0.30470 0.32910 0.05300
H 	H 	0.01890 0.24440 0.27060 0.05600
H 	H 	0.79450 0.22650 0.26950 0.02300
H 	H 	0.67470 0.28050 0.32530 0.08900
H 	H 	0.47920 0.73400 0.43650 0.04500
H 	H 	0.50180 0.91090 0.46590 0.04900
H 	H 	0.33640 0.15520 0.36520 0.07100
H 	H 	0.25770 0.13150 0.29970 0.03600
H 	H 	0.23670 0.95320 0.27090 0.04400
H 	H 	0.29520 0.79800 0.30830 0.06000
H 	H 	0.45580 0.56450 0.70720 0.05700
H 	H 	0.54150 0.49880 0.64530 0.07000
H 	H 	0.18380 0.45690 0.60000 0.07800
H 	H 	0.09730 0.52200 0.66140 0.06600
H 	H 	0.28980 0.48520 0.77200 -0.02000
H 	H 	0.01410 0.71090 0.78370 0.01600
H 	H 	0.07900 0.71150 0.71090 0.06000
H 	H 	0.26480 0.41620 0.54130 0.00700
H 	H 	0.62820 0.34120 0.51680 0.02300
H 	H 	0.62090 0.40950 0.58800 0.04900
H 	H 	0.73570 0.58140 0.95700 0.04200
H 	H 	0.51280 0.58080 0.96120 0.06100
H 	H 	0.37820 0.69530 0.82910 0.06500
H 	H 	0.48110 0.75560 0.77060 0.04200
H 	H 	0.70550 0.77350 0.76950 0.03300
H 	H 	0.82530 0.71950 0.82530 0.08200
H 	H 	0.02080 0.26600 0.93650 0.04100
H 	H 	0.99820 0.08910 0.96590 0.05400
H 	H 	0.16360 0.84480 0.86520 0.06900
H 	H 	0.24230 0.86850 0.79970 0.03800
H 	H 	0.26330 0.04680 0.77090 0.04200
H 	H 	0.20480 0.20200 0.80830 0.06200
H 	H 	0.04420 0.43550 0.20720 0.05500
H 	H 	0.95850 0.50120 0.14530 0.07400
H 	H 	0.31620 0.54310 0.10000 0.07900
H 	H 	0.40270 0.47800 0.16140 0.06500
H 	H 	0.21020 0.51480 0.27200 -0.01900
H 	H 	0.48590 0.28910 0.28370 0.01700
H 	H 	0.42100 0.28850 0.21090 0.06000
H 	H 	0.23520 0.58380 0.04130 0.00700
H 	H 	0.87180 0.65880 0.01680 0.02200
H 	H 	0.87910 0.59050 0.08800 0.04800
C 	C 	0.74850 0.36830 0.39813 -0.12800
C 	C 	0.81260 0.39830 0.43385 0.01500
C 	C 	0.94750 0.39920 0.43637 -0.04600
C 	C 	0.02350 0.37090 0.40274 -0.07500
C 	C 	0.96210 0.33570 0.36458 0.01000
C 	C 	0.03160 0.30150 0.32881 -0.03900
C 	C 	0.97040 0.26390 0.29388 -0.07200
C 	C 	0.83570 0.25470 0.29296 0.01500
C 	C 	0.76450 0.28720 0.32640 -0.11500
C 	C 	0.82280 0.33100 0.36291 0.07900
C 	C 	0.60260 0.38120 0.39741 0.41000
C 	C 	0.16720 0.37570 0.40924 0.36300
C 	C 	0.40300 0.78400 0.38267 -0.08000
C 	C 	0.45290 0.79710 0.42171 -0.01400
C 	C 	0.46510 0.90390 0.43968 -0.01900
C 	C 	0.42340 0.99880 0.41903 -0.08700
C 	C 	0.36890 0.98830 0.37835 0.04200
C 	C 	0.32960 0.08310 0.35421 -0.08800
C 	C 	0.28220 0.06870 0.31508 -0.01600
C 	C 	0.26970 0.96140 0.29755 -0.04200
C 	C 	0.30610 0.86920 0.31976 -0.06900
C 	C 	0.35980 0.87930 0.35976 0.03300
C 	C 	0.40340 0.66840 0.36354 0.31900
C 	C 	0.44390 0.11030 0.44023 0.32400
C 	C 	0.26820 0.54960 0.69011 0.08200
C 	C 	0.40110 0.54290 0.68567 -0.06700
C 	C 	0.45200 0.50340 0.64865 -0.08400
C 	C 	0.37170 0.47110 0.61679 0.10100
C 	C 	0.23840 0.47840 0.62157 -0.08600
C 	C 	0.18680 0.51740 0.65818 -0.06500
C 	C 	0.22960 0.54130 0.76608 0.10000
C 	C 	0.07810 0.66550 0.77205 0.01800
C 	C 	0.11310 0.66670 0.73184 -0.01500
C 	C 	0.35400 0.40610 0.54393 0.09800
C 	C 	0.55430 0.36520 0.53073 0.01600
C 	C 	0.55070 0.40250 0.57008 0.00200
C 	C 	0.75150 0.63170 0.89813 -0.11600
C 	C 	0.68740 0.60170 0.93385 0.00100
C 	C 	0.55250 0.60080 0.93637 -0.02500
C 	C 	0.47650 0.62910 0.90274 -0.09700
C 	C 	0.53790 0.66430 0.86458 0.03800
C 	C 	0.46840 0.69850 0.82881 -0.07500
C 	C 	0.52960 0.73610 0.79388 -0.03500
C 	C 	0.66430 0.74530 0.79296 -0.01200
C 	C 	0.73550 0.71280 0.82640 -0.09300
C 	C 	0.67720 0.66900 0.86291 0.06100
C 	C 	0.89740 0.61880 0.89741 0.40600
C 	C 	0.33280 0.62430 0.90924 0.37100
C 	C 	0.09700 0.21600 0.88267 -0.08400
C 	C 	0.04710 0.20290 0.92171 -0.00700
C 	C 	0.03490 0.09610 0.93968 -0.03000
C 	C 	0.07660 0.00120 0.91903 -0.07700
C 	C 	0.13110 0.01170 0.87835 0.03900
C 	C 	0.17040 0.91690 0.85421 -0.08600
C 	C 	0.21780 0.93130 0.81508 -0.02500
C 	C 	0.23030 0.03860 0.79755 -0.03100
C 	C 	0.19390 0.13080 0.81976 -0.07500
C 	C 	0.14020 0.12070 0.85976 0.03800
C 	C 	0.09660 0.33160 0.86354 0.32100
C 	C 	0.05610 0.88970 0.94023 0.30900
C 	C 	0.23180 0.45040 0.19011 0.08000
C 	C 	0.09890 0.45710 0.18567 -0.06300
C 	C 	0.04800 0.49660 0.14865 -0.09200
C 	C 	0.12830 0.52890 0.11679 0.10400
C 	C 	0.26160 0.52160 0.12157 -0.08900
C 	C 	0.31320 0.48260 0.15818 -0.06300
C 	C 	0.27040 0.45870 0.26608 0.10000
C 	C 	0.42190 0.33450 0.27205 0.01800
C 	C 	0.38690 0.33330 0.23184 -0.01500
C 	C 	0.14600 0.59390 0.04393 0.09800
C 	C 	0.94570 0.63480 0.03073 0.02000
C 	C 	0.94930 0.59750 0.07008 0.00500
N 	N 	0.21050 0.58711 0.72835 -0.13200
N 	N 	0.15030 0.58753 0.79347 -0.26400
N 	N 	0.42300 0.42830 0.57872 -0.13300
N 	N 	0.43010 0.36840 0.51438 -0.26200
N 	N 	0.28950 0.41289 0.22835 -0.13200
N 	N 	0.34970 0.41247 0.29347 -0.26400
N 	N 	0.07700 0.57170 0.07872 -0.13600
N 	N 	0.06990 0.63160 0.01438 -0.26500
O 	O 	0.54600 0.38681 0.36307 -0.49600
O 	O 	0.54702 0.39297 0.43188 -0.49900
O 	O 	0.24331 0.35784 0.37895 -0.49600
O 	O 	0.20947 0.39500 0.44536 -0.45500
O 	O 	0.34170 0.59236 0.38306 -0.45500
O 	O 	0.46570 0.64994 0.33179 -0.34100
O 	O 	0.54730 0.12965 0.45782 -0.31300
O 	O 	0.34854 0.17966 0.43826 -0.45100
O 	O 	0.95400 0.61319 0.86307 -0.49200
O 	O 	0.95298 0.60703 0.93188 -0.49500
O 	O 	0.25669 0.64216 0.87895 -0.49900
O 	O 	0.29053 0.60500 0.94536 -0.45800
O 	O 	0.15830 0.40764 0.88306 -0.45600
O 	O 	0.03430 0.35006 0.83179 -0.34200
O 	O 	0.95270 0.87035 0.95782 -0.30300
O 	O 	0.15146 0.82034 0.93826 -0.44900
