data_crystal

_cell_length_a 22.66100
_cell_length_b 32.05000
_cell_length_c 41.94000
_cell_angle_alpha 90.00000
_cell_angle_beta  90.00000
_cell_angle_gamma 90.00000

_symmetry_space_group_name_	'P 1'
_symmetry_space_group_name_H-M	'P 1'

loop_
_symmetry_equiv_pos_as_xyz
  x,y,z

loop_
_atom_site_label
_atom_site_type_symbol
_atom_site_fract_x
_atom_site_fract_y
_atom_site_fract_z
_atom_site_charge
Fe	Fe	0.46593 0.36257 0.01145 1.25300
Fe	Fe	0.83755 0.10965 0.95998 1.24000
Fe	Fe	0.39997 0.44761 0.98460 1.23600
Fe	Fe	0.09850 0.38973 0.77538 1.22600
Fe	Fe	0.07543 0.36263 0.70149 1.23900
Fe	Fe	0.03142 0.90650 0.75758 1.23300
Fe	Fe	0.69324 0.38376 0.53816 1.22900
Fe	Fe	0.07033 0.15735 0.48695 1.24700
Fe	Fe	0.12057 0.07163 0.52029 1.23900
Fe	Fe	0.43906 0.15251 0.80759 1.25300
Fe	Fe	0.46298 0.61978 0.74500 1.23000
Fe	Fe	0.39818 0.13658 0.73477 1.24700
Fe	Fe	0.03407 0.63743 0.51145 1.25400
Fe	Fe	0.66245 0.89035 0.45998 1.24000
Fe	Fe	0.10003 0.55239 0.48460 1.23600
Fe	Fe	0.40150 0.61027 0.27538 1.22600
Fe	Fe	0.42457 0.63737 0.20149 1.23800
Fe	Fe	0.46858 0.09350 0.25758 1.23200
Fe	Fe	0.80676 0.61624 0.03816 1.22900
Fe	Fe	0.42967 0.84265 0.98695 1.24700
Fe	Fe	0.37943 0.92837 0.02029 1.23900
Fe	Fe	0.06094 0.84749 0.30759 1.25300
Fe	Fe	0.03702 0.38022 0.24500 1.23100
Fe	Fe	0.10182 0.86342 0.23477 1.24700
Fe	Fe	0.53407 0.86257 0.48855 1.25300
Fe	Fe	0.16245 0.60965 0.54002 1.23900
Fe	Fe	0.60003 0.94761 0.51540 1.23500
Fe	Fe	0.90150 0.88973 0.72462 1.22500
Fe	Fe	0.92457 0.86263 0.79851 1.23700
Fe	Fe	0.96858 0.40650 0.74242 1.23100
Fe	Fe	0.30676 0.88376 0.96184 1.22800
Fe	Fe	0.92967 0.65735 0.01305 1.24500
Fe	Fe	0.87943 0.57163 0.97971 1.23800
Fe	Fe	0.56094 0.65251 0.69241 1.25200
Fe	Fe	0.53702 0.11978 0.75500 1.22900
Fe	Fe	0.60182 0.63658 0.76523 1.24600
Fe	Fe	0.96593 0.13743 0.98855 1.25100
Fe	Fe	0.33755 0.39035 0.04002 1.23900
Fe	Fe	0.89997 0.05239 0.01540 1.23500
Fe	Fe	0.59850 0.11027 0.22462 1.22500
Fe	Fe	0.57543 0.13737 0.29851 1.23700
Fe	Fe	0.53142 0.59350 0.24242 1.23100
Fe	Fe	0.19324 0.11624 0.46184 1.22800
Fe	Fe	0.57033 0.34265 0.51305 1.24600
Fe	Fe	0.62057 0.42837 0.47971 1.23800
Fe	Fe	0.93906 0.34749 0.19241 1.25100
Fe	Fe	0.96298 0.88022 0.25500 1.22900
Fe	Fe	0.89818 0.36342 0.26523 1.24600
H 	H 	0.42590 0.23560 0.00760 0.04100
H 	H 	0.40640 0.16470 0.00050 0.06800
H 	H 	0.31630 0.14830 0.02050 0.02800
H 	H 	0.24020 0.18910 0.04180 0.07000
H 	H 	0.26810 0.26100 0.04000 0.04200
H 	H 	0.54410 0.34790 0.09590 0.04700
H 	H 	0.59370 0.35370 0.14760 0.05300
H 	H 	0.54040 0.36660 0.19230 0.03400
H 	H 	0.45090 0.40200 0.19010 0.05900
H 	H 	0.40630 0.40650 0.13540 0.04100
H 	H 	0.79450 0.00190 0.90280 -0.00100
H 	H 	0.78350 0.94390 0.86930 0.13200
H 	H 	0.78930 0.88620 0.89040 -0.03300
H 	H 	0.83460 0.87340 0.94070 0.09800
H 	H 	0.86110 0.93460 0.97340 0.02200
H 	H 	0.48750 0.30930 0.91710 0.03400
H 	H 	0.48260 0.27690 0.86870 0.08200
H 	H 	0.44350 0.32060 0.83090 0.02500
H 	H 	0.41730 0.38950 0.83360 0.07600
H 	H 	0.39480 0.40390 0.88860 0.03900
H 	H 	0.61980 0.43050 0.04100 -0.04200
H 	H 	0.68660 0.46740 0.06740 0.16800
H 	H 	0.69860 0.53420 0.04950 -0.06600
H 	H 	0.63570 0.56290 0.01310 0.17600
H 	H 	0.56810 0.52170 0.99130 -0.04400
H 	H 	0.79060 0.08450 0.89280 0.01300
H 	H 	0.71970 0.09670 0.85570 0.08100
H 	H 	0.64270 0.13060 0.87510 0.03100
H 	H 	0.72360 0.15860 0.95490 0.03200
H 	H 	0.51340 0.28580 0.97470 0.04800
H 	H 	0.67130 0.25040 0.99800 0.03700
H 	H 	0.67160 0.30400 0.03370 0.06500
H 	H 	0.59080 0.34770 0.04150 0.02300
H 	H 	0.43940 0.54020 0.97550 0.02400
H 	H 	0.43310 0.59420 0.94000 0.06300
H 	H 	0.38360 0.58260 0.88850 0.04400
H 	H 	0.35050 0.47060 0.91890 0.03900
H 	H 	0.25070 0.40510 0.88530 0.03400
H 	H 	0.19060 0.35370 0.88370 0.07300
H 	H 	0.12950 0.34300 0.83980 0.02200
H 	H 	0.19390 0.44430 0.80270 0.03800
H 	H 	0.02580 0.36450 0.86680 0.05500
H 	H 	0.97610 0.34750 0.91650 0.05500
H 	H 	0.88190 0.33860 0.91570 0.03100
H 	H 	0.83120 0.33730 0.86920 0.05800
H 	H 	0.86960 0.37130 0.82550 0.05100
H 	H 	0.13290 0.53300 0.78340 0.04900
H 	H 	0.13920 0.60740 0.78230 0.05800
H 	H 	0.04570 0.63710 0.77220 0.03600
H 	H 	0.96130 0.60440 0.76010 0.05100
H 	H 	0.95530 0.53040 0.76560 0.05300
H 	H 	0.07960 0.46690 0.63210 0.05200
H 	H 	0.06770 0.51450 0.59250 0.05000
H 	H 	0.98180 0.55520 0.58530 0.05100
H 	H 	0.90680 0.52080 0.61120 0.04200
H 	H 	0.91010 0.48600 0.66150 0.05000
H 	H 	0.93990 0.28640 0.64330 0.05000
H 	H 	0.86050 0.26190 0.60650 0.05300
H 	H 	0.76510 0.28400 0.62210 0.04700
H 	H 	0.74560 0.31000 0.67170 0.04900
H 	H 	0.82400 0.34330 0.70360 0.05500
H 	H 	0.27520 0.44740 0.75510 0.02000
H 	H 	0.36000 0.47730 0.74440 0.08900
H 	H 	0.39640 0.46260 0.69320 0.01300
H 	H 	0.35370 0.40790 0.66260 0.08100
H 	H 	0.25620 0.39700 0.66940 0.01100
H 	H 	0.15770 0.27050 0.80100 0.03500
H 	H 	0.18620 0.20070 0.81310 0.06700
H 	H 	0.19940 0.15640 0.77050 0.03100
H 	H 	0.14720 0.16910 0.72290 0.06600
H 	H 	0.13480 0.24170 0.71180 0.03600
H 	H 	0.16630 0.30780 0.66740 -0.00300
H 	H 	0.19250 0.27610 0.61920 0.07400
H 	H 	0.10920 0.27260 0.58150 0.04100
H 	H 	0.02630 0.35650 0.63550 0.03900
H 	H 	0.88470 0.28360 0.49260 0.04600
H 	H 	0.88760 0.24270 0.44550 0.05400
H 	H 	0.96650 0.19790 0.44040 0.03600
H 	H 	0.03370 0.23860 0.51920 0.03500
H 	H 	0.82320 0.35020 0.54360 0.04600
H 	H 	0.91010 0.39540 0.61980 0.05200
H 	H 	0.83070 0.43570 0.63220 0.05600
H 	H 	0.73320 0.41250 0.60680 0.02900
H 	H 	0.15440 0.90920 0.79020 0.00700
H 	H 	0.23900 0.95420 0.78840 0.07500
H 	H 	0.25960 0.98150 0.73880 0.02700
H 	H 	0.10160 0.94910 0.70940 0.03100
H 	H 	0.16520 0.05470 0.58560 0.04100
H 	H 	0.09370 0.95100 0.62050 0.03400
H 	H 	0.06500 0.93450 0.56870 0.08100
H 	H 	0.05990 0.98650 0.53310 0.00300
H 	H 	0.32870 0.19590 0.68980 0.01400
H 	H 	0.25830 0.19540 0.64960 0.07300
H 	H 	0.21300 0.13140 0.64020 0.03400
H 	H 	0.31370 0.07900 0.70550 0.03400
H 	H 	0.24440 0.05990 0.75560 0.05900
H 	H 	0.14810 0.04780 0.77570 0.04700
H 	H 	0.10050 0.06070 0.82500 0.05200
H 	H 	0.17040 0.09220 0.86320 0.04100
H 	H 	0.26480 0.11210 0.84650 0.04800
H 	H 	0.62580 0.50340 0.78130 0.05300
H 	H 	0.64570 0.43520 0.76860 0.04800
H 	H 	0.57160 0.38760 0.74820 0.04300
H 	H 	0.48380 0.42140 0.73070 0.05000
H 	H 	0.46200 0.49060 0.74160 0.04700
H 	H 	0.29040 0.25150 0.72960 0.00900
H 	H 	0.24890 0.31390 0.72740 0.09900
H 	H 	0.25610 0.35570 0.76960 0.01300
H 	H 	0.30010 0.33990 0.81760 0.08800
H 	H 	0.33580 0.26880 0.81960 0.02000
H 	H 	0.55920 0.70000 0.84980 0.03100
H 	H 	0.54040 0.71860 0.90310 0.06000
H 	H 	0.44550 0.70420 0.92260 0.03600
H 	H 	0.37240 0.66850 0.88880 0.05700
H 	H 	0.40330 0.64910 0.83570 0.04900
H 	H 	0.56180 0.22590 0.85210 0.05200
H 	H 	0.63090 0.27360 0.87620 0.05700
H 	H 	0.72980 0.26820 0.86010 0.03800
H 	H 	0.75560 0.22520 0.81780 0.05700
H 	H 	0.68720 0.18580 0.79180 0.04200
H 	H 	0.50060 0.07580 0.88290 0.04700
H 	H 	0.53460 0.03040 0.92000 0.05500
H 	H 	0.63450 0.00060 0.91190 0.04400
H 	H 	0.67440 0.00950 0.86240 0.04800
H 	H 	0.62580 0.04320 0.82170 0.04600
H 	H 	0.33990 0.60540 0.71400 0.01800
H 	H 	0.24540 0.58210 0.72330 0.06700
H 	H 	0.23660 0.53880 0.76620 0.03800
H 	H 	0.39800 0.56770 0.79840 0.04900
H 	H 	0.33990 0.18270 0.85330 0.02200
H 	H 	0.33930 0.22920 0.90190 0.06300
H 	H 	0.41910 0.22080 0.93390 0.04100
H 	H 	0.51150 0.16180 0.86870 0.04600
H 	H 	0.19150 0.00080 0.40460 0.05400
H 	H 	0.18210 0.93910 0.37800 0.04400
H 	H 	0.11360 0.88880 0.39280 0.06400
H 	H 	0.06660 0.90520 0.43540 0.03700
H 	H 	0.09520 0.95370 0.46840 0.05700
H 	H 	0.64860 0.37620 0.63690 0.03400
H 	H 	0.63200 0.37080 0.69030 0.06600
H 	H 	0.57430 0.30890 0.69950 0.03200
H 	H 	0.49990 0.28340 0.66370 0.06400
H 	H 	0.51450 0.30970 0.60740 0.03700
H 	H 	0.96420 0.00790 0.50530 0.04500
H 	H 	0.87440 0.96790 0.49560 0.05500
H 	H 	0.78840 0.00810 0.47610 0.04900
H 	H 	0.81060 0.07220 0.45760 0.04900
H 	H 	0.89090 0.11580 0.47100 0.05100
H 	H 	0.04570 0.20620 0.57640 0.05000
H 	H 	0.09390 0.09860 0.61630 0.04700
H 	H 	0.08440 0.13090 0.66770 0.05900
H 	H 	0.04330 0.19780 0.67130 0.03500
H 	H 	0.03090 0.23730 0.62620 0.06000
H 	H 	0.76320 0.28070 0.53140 0.07700
H 	H 	0.83680 0.22290 0.53780 0.05100
H 	H 	0.78120 0.16050 0.53060 0.04400
H 	H 	0.68490 0.14530 0.52970 0.05000
H 	H 	0.61440 0.20670 0.52220 0.04900
H 	H 	0.27530 0.06510 0.58120 0.01400
H 	H 	0.34000 0.09250 0.62110 0.10900
H 	H 	0.42600 0.10900 0.59800 -0.00100
H 	H 	0.43440 0.14440 0.54950 0.10300
H 	H 	0.35570 0.13330 0.51720 0.00200
H 	H 	0.07410 0.76440 0.50760 0.04200
H 	H 	0.09360 0.83530 0.50050 0.06800
H 	H 	0.18370 0.85170 0.52050 0.02800
H 	H 	0.25980 0.81090 0.54180 0.07000
H 	H 	0.23190 0.73900 0.54000 0.04200
H 	H 	0.95590 0.65210 0.59590 0.05000
H 	H 	0.90630 0.64630 0.64760 0.05000
H 	H 	0.95960 0.63340 0.69230 0.03800
H 	H 	0.04910 0.59800 0.69010 0.05500
H 	H 	0.09370 0.59350 0.63540 0.04400
H 	H 	0.70550 0.99810 0.40280 -0.00100
H 	H 	0.71650 0.05610 0.36930 0.13200
H 	H 	0.71070 0.11380 0.39040 -0.03300
H 	H 	0.66540 0.12660 0.44070 0.09800
H 	H 	0.63890 0.06540 0.47340 0.02200
H 	H 	0.01250 0.69070 0.41710 0.03500
H 	H 	0.01740 0.72310 0.36870 0.08200
H 	H 	0.05650 0.67940 0.33090 0.02500
H 	H 	0.08270 0.61050 0.33360 0.07600
H 	H 	0.10520 0.59610 0.38860 0.03900
H 	H 	0.88020 0.56950 0.54100 -0.04200
H 	H 	0.81340 0.53260 0.56740 0.16800
H 	H 	0.80140 0.46580 0.54950 -0.06600
H 	H 	0.86430 0.43710 0.51310 0.17500
H 	H 	0.93190 0.47830 0.49130 -0.04400
H 	H 	0.70940 0.91550 0.39280 0.01300
H 	H 	0.78030 0.90330 0.35570 0.08200
H 	H 	0.85730 0.86940 0.37510 0.03100
H 	H 	0.77640 0.84140 0.45490 0.03200
H 	H 	0.98660 0.71420 0.47470 0.04600
H 	H 	0.82870 0.74960 0.49800 0.03700
H 	H 	0.82840 0.69600 0.53370 0.06500
H 	H 	0.90920 0.65230 0.54150 0.02200
H 	H 	0.06060 0.45980 0.47550 0.02400
H 	H 	0.06690 0.40580 0.44000 0.06400
H 	H 	0.11640 0.41740 0.38850 0.04400
H 	H 	0.14950 0.52940 0.41890 0.03900
H 	H 	0.24930 0.59490 0.38530 0.03400
H 	H 	0.30940 0.64630 0.38370 0.07200
H 	H 	0.37050 0.65700 0.33980 0.02200
H 	H 	0.30610 0.55570 0.30270 0.03800
H 	H 	0.47420 0.63550 0.36680 0.04600
H 	H 	0.52390 0.65250 0.41650 0.06500
H 	H 	0.61810 0.66140 0.41570 0.02200
H 	H 	0.66880 0.66270 0.36920 0.06600
H 	H 	0.63040 0.62870 0.32550 0.04500
H 	H 	0.36710 0.46700 0.28340 0.04900
H 	H 	0.36080 0.39260 0.28230 0.05700
H 	H 	0.45430 0.36290 0.27220 0.03700
H 	H 	0.53870 0.39560 0.26010 0.05000
H 	H 	0.54470 0.46960 0.26560 0.05300
H 	H 	0.42040 0.53310 0.13210 0.05400
H 	H 	0.43230 0.48550 0.09250 0.05000
H 	H 	0.51820 0.44480 0.08530 0.05100
H 	H 	0.59320 0.47920 0.11120 0.04200
H 	H 	0.58990 0.51400 0.16150 0.05100
H 	H 	0.56010 0.71360 0.14330 0.05100
H 	H 	0.63950 0.73810 0.10650 0.05300
H 	H 	0.73490 0.71600 0.12210 0.04800
H 	H 	0.75440 0.69000 0.17170 0.04900
H 	H 	0.67600 0.65670 0.20360 0.05500
H 	H 	0.22480 0.55260 0.25510 0.02000
H 	H 	0.14000 0.52270 0.24440 0.09000
H 	H 	0.10360 0.53740 0.19320 0.01300
H 	H 	0.14630 0.59210 0.16260 0.08100
H 	H 	0.24380 0.60300 0.16940 0.01100
H 	H 	0.34230 0.72950 0.30100 0.03500
H 	H 	0.31380 0.79930 0.31310 0.06700
H 	H 	0.30060 0.84360 0.27050 0.03100
H 	H 	0.35280 0.83090 0.22290 0.06600
H 	H 	0.36520 0.75830 0.21180 0.03600
H 	H 	0.33370 0.69220 0.16740 -0.00300
H 	H 	0.30750 0.72390 0.11920 0.07400
H 	H 	0.39080 0.72740 0.08150 0.04100
H 	H 	0.47370 0.64350 0.13550 0.03800
H 	H 	0.61530 0.71640 0.99260 0.04600
H 	H 	0.61240 0.75730 0.94550 0.05400
H 	H 	0.53350 0.80210 0.94040 0.03600
H 	H 	0.46630 0.76140 0.01920 0.03600
H 	H 	0.67680 0.64980 0.04360 0.04600
H 	H 	0.58990 0.60460 0.11980 0.05300
H 	H 	0.66930 0.56430 0.13220 0.05600
H 	H 	0.76680 0.58750 0.10680 0.02900
H 	H 	0.34560 0.09080 0.29020 0.00700
H 	H 	0.26100 0.04580 0.28840 0.07500
H 	H 	0.24040 0.01850 0.23880 0.02700
H 	H 	0.39840 0.05090 0.20940 0.03100
H 	H 	0.33480 0.94530 0.08560 0.04100
H 	H 	0.40630 0.04900 0.12050 0.03400
H 	H 	0.43500 0.06550 0.06870 0.08000
H 	H 	0.44010 0.01350 0.03310 0.00300
H 	H 	0.17130 0.80410 0.18980 0.01400
H 	H 	0.24170 0.80460 0.14960 0.07300
H 	H 	0.28700 0.86860 0.14020 0.03400
H 	H 	0.18630 0.92100 0.20550 0.03400
H 	H 	0.25560 0.94010 0.25560 0.05900
H 	H 	0.35190 0.95220 0.27570 0.04700
H 	H 	0.39950 0.93930 0.32500 0.05200
H 	H 	0.32960 0.90780 0.36320 0.04100
H 	H 	0.23520 0.88790 0.34650 0.04800
H 	H 	0.87420 0.49660 0.28130 0.05100
H 	H 	0.85430 0.56480 0.26860 0.05000
H 	H 	0.92840 0.61240 0.24820 0.03900
H 	H 	0.01620 0.57860 0.23070 0.05800
H 	H 	0.03800 0.50940 0.24160 0.04100
H 	H 	0.20960 0.74850 0.22960 0.00900
H 	H 	0.25110 0.68610 0.22740 0.10000
H 	H 	0.24390 0.64430 0.26960 0.01300
H 	H 	0.19990 0.66010 0.31760 0.08800
H 	H 	0.16420 0.73120 0.31960 0.02000
H 	H 	0.94080 0.30000 0.34980 0.03300
H 	H 	0.95960 0.28140 0.40310 0.06000
H 	H 	0.05450 0.29580 0.42260 0.03600
H 	H 	0.12760 0.33150 0.38880 0.05600
H 	H 	0.09670 0.35090 0.33570 0.05000
H 	H 	0.93820 0.77410 0.35210 0.05100
H 	H 	0.86910 0.72640 0.37620 0.05600
H 	H 	0.77020 0.73180 0.36010 0.03700
H 	H 	0.74440 0.77480 0.31780 0.05700
H 	H 	0.81280 0.81420 0.29180 0.04200
H 	H 	0.99940 0.92420 0.38290 0.04600
H 	H 	0.96540 0.96960 0.42000 0.05400
H 	H 	0.86550 0.99940 0.41190 0.04400
H 	H 	0.82560 0.99050 0.36240 0.04800
H 	H 	0.87420 0.95680 0.32170 0.04600
H 	H 	0.16010 0.39460 0.21400 0.01800
H 	H 	0.25460 0.41790 0.22330 0.06700
H 	H 	0.26340 0.46120 0.26620 0.03800
H 	H 	0.10200 0.43230 0.29840 0.04900
H 	H 	0.16010 0.81730 0.35330 0.02200
H 	H 	0.16070 0.77080 0.40190 0.06200
H 	H 	0.08090 0.77920 0.43390 0.04300
H 	H 	0.98850 0.83820 0.36870 0.04300
H 	H 	0.30850 0.99920 0.90460 0.05300
H 	H 	0.31790 0.06090 0.87800 0.04500
H 	H 	0.38640 0.11120 0.89280 0.06300
H 	H 	0.43340 0.09480 0.93540 0.03800
H 	H 	0.40480 0.04630 0.96840 0.05600
H 	H 	0.85140 0.62380 0.13690 0.03300
H 	H 	0.86800 0.62920 0.19030 0.06700
H 	H 	0.92570 0.69110 0.19950 0.03100
H 	H 	0.00010 0.71660 0.16370 0.06900
H 	H 	0.98550 0.69030 0.10740 0.03400
H 	H 	0.53580 0.99210 0.00530 0.04600
H 	H 	0.62560 0.03210 0.99560 0.05500
H 	H 	0.71160 0.99190 0.97610 0.04900
H 	H 	0.68940 0.92780 0.95760 0.04900
H 	H 	0.60910 0.88420 0.97100 0.05100
H 	H 	0.45430 0.79380 0.07640 0.05000
H 	H 	0.40610 0.90140 0.11630 0.04600
H 	H 	0.41560 0.86910 0.16770 0.05900
H 	H 	0.45670 0.80220 0.17130 0.03500
H 	H 	0.46910 0.76270 0.12620 0.06000
H 	H 	0.73680 0.71930 0.03140 0.07700
H 	H 	0.66320 0.77710 0.03780 0.05100
H 	H 	0.71880 0.83950 0.03060 0.04400
H 	H 	0.81510 0.85470 0.02970 0.05000
H 	H 	0.88560 0.79330 0.02220 0.04900
H 	H 	0.22470 0.93490 0.08120 0.01400
H 	H 	0.16000 0.90750 0.12110 0.10900
H 	H 	0.07400 0.89100 0.09800 -0.00000
H 	H 	0.06560 0.85560 0.04950 0.10400
H 	H 	0.14430 0.86670 0.01720 0.00200
H 	H 	0.57410 0.73560 0.49240 0.04100
H 	H 	0.59360 0.66470 0.49950 0.06800
H 	H 	0.68370 0.64830 0.47950 0.02800
H 	H 	0.75980 0.68910 0.45820 0.06900
H 	H 	0.73190 0.76100 0.46000 0.04200
H 	H 	0.45590 0.84790 0.40410 0.04700
H 	H 	0.40630 0.85370 0.35240 0.05300
H 	H 	0.45960 0.86660 0.30770 0.03400
H 	H 	0.54910 0.90200 0.30990 0.05900
H 	H 	0.59370 0.90650 0.36460 0.04100
H 	H 	0.20550 0.50190 0.59720 -0.00100
H 	H 	0.21650 0.44390 0.63070 0.13200
H 	H 	0.21070 0.38620 0.60960 -0.03300
H 	H 	0.16540 0.37340 0.55930 0.09800
H 	H 	0.13890 0.43460 0.52660 0.02200
H 	H 	0.51250 0.80930 0.58290 0.03400
H 	H 	0.51740 0.77690 0.63130 0.08200
H 	H 	0.55650 0.82060 0.66910 0.02500
H 	H 	0.58270 0.88950 0.66640 0.07600
H 	H 	0.60520 0.90390 0.61140 0.03900
H 	H 	0.38020 0.93050 0.45900 -0.04300
H 	H 	0.31340 0.96740 0.43260 0.16800
H 	H 	0.30140 0.03420 0.45050 -0.06700
H 	H 	0.36430 0.06290 0.48690 0.17600
H 	H 	0.43190 0.02170 0.50870 -0.04400
H 	H 	0.20940 0.58450 0.60720 0.01300
H 	H 	0.28030 0.59670 0.64430 0.08200
H 	H 	0.35730 0.63060 0.62490 0.03100
H 	H 	0.27640 0.65860 0.54510 0.03200
H 	H 	0.48660 0.78580 0.52530 0.04800
H 	H 	0.32870 0.75040 0.50200 0.03700
H 	H 	0.32840 0.80400 0.46630 0.06500
H 	H 	0.40920 0.84770 0.45850 0.02300
H 	H 	0.56060 0.04020 0.52450 0.02400
H 	H 	0.56690 0.09420 0.56000 0.06300
H 	H 	0.61640 0.08260 0.61150 0.04400
H 	H 	0.64950 0.97060 0.58110 0.03900
H 	H 	0.74930 0.90510 0.61470 0.03400
H 	H 	0.80940 0.85370 0.61630 0.07200
H 	H 	0.87050 0.84300 0.66020 0.02200
H 	H 	0.80610 0.94430 0.69730 0.03800
H 	H 	0.97420 0.86450 0.63320 0.03700
H 	H 	0.02390 0.84750 0.58350 0.07300
H 	H 	0.11810 0.83860 0.58430 0.01400
H 	H 	0.16880 0.83730 0.63080 0.07300
H 	H 	0.13040 0.87130 0.67450 0.03900
H 	H 	0.86710 0.03300 0.71660 0.05000
H 	H 	0.86080 0.10740 0.71770 0.05600
H 	H 	0.95430 0.13710 0.72780 0.03800
H 	H 	0.03870 0.10440 0.73990 0.04800
H 	H 	0.04470 0.03040 0.73440 0.05300
H 	H 	0.92040 0.96690 0.86790 0.05500
H 	H 	0.93230 0.01450 0.90750 0.05000
H 	H 	0.01820 0.05520 0.91470 0.05100
H 	H 	0.09320 0.02080 0.88880 0.04200
H 	H 	0.08990 0.98600 0.83850 0.05300
H 	H 	0.06010 0.78640 0.85670 0.05200
H 	H 	0.13950 0.76190 0.89350 0.05300
H 	H 	0.23490 0.78400 0.87790 0.04800
H 	H 	0.25440 0.81000 0.82830 0.04900
H 	H 	0.17600 0.84330 0.79640 0.05600
H 	H 	0.72480 0.94740 0.74490 0.02000
H 	H 	0.64000 0.97730 0.75560 0.08900
H 	H 	0.60360 0.96260 0.80680 0.01300
H 	H 	0.64630 0.90790 0.83740 0.08100
H 	H 	0.74380 0.89700 0.83060 0.01100
H 	H 	0.84230 0.77050 0.69900 0.03500
H 	H 	0.81380 0.70070 0.68690 0.06700
H 	H 	0.80060 0.65640 0.72950 0.03100
H 	H 	0.85280 0.66910 0.77710 0.06600
H 	H 	0.86520 0.74170 0.78820 0.03600
H 	H 	0.83370 0.80780 0.83260 -0.00300
H 	H 	0.80750 0.77610 0.88080 0.07400
H 	H 	0.89080 0.77260 0.91850 0.04100
H 	H 	0.97370 0.85650 0.86450 0.03700
H 	H 	0.11530 0.78360 0.00740 0.04700
H 	H 	0.11240 0.74270 0.05450 0.05400
H 	H 	0.03350 0.69790 0.05960 0.03700
H 	H 	0.96630 0.73860 0.98080 0.03800
H 	H 	0.17680 0.85020 0.95640 0.04600
H 	H 	0.08990 0.89540 0.88020 0.05300
H 	H 	0.16930 0.93570 0.86780 0.05600
H 	H 	0.26680 0.91250 0.89320 0.02900
H 	H 	0.84560 0.40920 0.70980 0.00700
H 	H 	0.76100 0.45420 0.71160 0.07500
H 	H 	0.74040 0.48150 0.76120 0.02700
H 	H 	0.89840 0.44910 0.79060 0.03000
H 	H 	0.83480 0.55470 0.91440 0.04100
H 	H 	0.90630 0.45100 0.87950 0.03400
H 	H 	0.93500 0.43450 0.93130 0.08000
H 	H 	0.94010 0.48650 0.96690 0.00200
H 	H 	0.67130 0.69590 0.81020 0.01400
H 	H 	0.74170 0.69540 0.85040 0.07300
H 	H 	0.78700 0.63140 0.85980 0.03400
H 	H 	0.68630 0.57900 0.79450 0.03400
H 	H 	0.75560 0.55990 0.74440 0.05900
H 	H 	0.85190 0.54780 0.72430 0.04700
H 	H 	0.89950 0.56070 0.67500 0.05100
H 	H 	0.82960 0.59220 0.63680 0.04100
H 	H 	0.73520 0.61210 0.65350 0.04800
H 	H 	0.37420 0.00340 0.71870 0.05300
H 	H 	0.35430 0.93520 0.73140 0.04800
H 	H 	0.42840 0.88760 0.75180 0.04300
H 	H 	0.51620 0.92140 0.76930 0.05000
H 	H 	0.53800 0.99060 0.75840 0.04700
H 	H 	0.70960 0.75150 0.77040 0.00900
H 	H 	0.75110 0.81390 0.77260 0.10000
H 	H 	0.74390 0.85570 0.73040 0.01300
H 	H 	0.69990 0.83990 0.68240 0.08800
H 	H 	0.66420 0.76880 0.68040 0.02000
H 	H 	0.44080 0.20000 0.65020 0.03100
H 	H 	0.45960 0.21860 0.59690 0.06000
H 	H 	0.55450 0.20420 0.57740 0.03600
H 	H 	0.62760 0.16850 0.61120 0.05600
H 	H 	0.59670 0.14910 0.66430 0.04900
H 	H 	0.43820 0.72590 0.64790 0.05200
H 	H 	0.36910 0.77360 0.62380 0.05700
H 	H 	0.27020 0.76820 0.63990 0.03700
H 	H 	0.24440 0.72520 0.68220 0.05700
H 	H 	0.31280 0.68580 0.70820 0.04200
H 	H 	0.49940 0.57580 0.61710 0.04700
H 	H 	0.46540 0.53040 0.58000 0.05500
H 	H 	0.36550 0.50060 0.58810 0.04400
H 	H 	0.32560 0.50950 0.63760 0.04800
H 	H 	0.37420 0.54320 0.67830 0.04600
H 	H 	0.66010 0.10540 0.78600 0.01800
H 	H 	0.75460 0.08210 0.77670 0.06600
H 	H 	0.76340 0.03880 0.73380 0.03800
H 	H 	0.60200 0.06770 0.70160 0.04900
H 	H 	0.66010 0.68270 0.64670 0.02200
H 	H 	0.66070 0.72920 0.59810 0.06300
H 	H 	0.58090 0.72080 0.56610 0.04100
H 	H 	0.48850 0.66180 0.63130 0.04600
H 	H 	0.80850 0.50080 0.09540 0.05200
H 	H 	0.81790 0.43910 0.12200 0.04600
H 	H 	0.88640 0.38880 0.10720 0.06100
H 	H 	0.93340 0.40520 0.06460 0.03800
H 	H 	0.90480 0.45370 0.03160 0.05500
H 	H 	0.35140 0.87620 0.86310 0.03400
H 	H 	0.36800 0.87080 0.80970 0.06600
H 	H 	0.42570 0.80890 0.80050 0.03200
H 	H 	0.50010 0.78340 0.83630 0.06400
H 	H 	0.48550 0.80970 0.89260 0.03700
H 	H 	0.03580 0.50790 0.99470 0.04700
H 	H 	0.12560 0.46790 0.00440 0.05600
H 	H 	0.21160 0.50810 0.02390 0.04900
H 	H 	0.18940 0.57220 0.04240 0.04900
H 	H 	0.10910 0.61580 0.02900 0.05100
H 	H 	0.95430 0.70620 0.92360 0.05000
H 	H 	0.90610 0.59860 0.88370 0.04600
H 	H 	0.91560 0.63090 0.83230 0.05800
H 	H 	0.95670 0.69780 0.82870 0.03400
H 	H 	0.96910 0.73730 0.87380 0.06000
H 	H 	0.23680 0.78070 0.96860 0.07700
H 	H 	0.16320 0.72290 0.96220 0.05100
H 	H 	0.21880 0.66050 0.96940 0.04400
H 	H 	0.31510 0.64530 0.97030 0.05000
H 	H 	0.38560 0.70670 0.97780 0.04900
H 	H 	0.72470 0.56510 0.91880 0.01400
H 	H 	0.66000 0.59250 0.87890 0.10900
H 	H 	0.57400 0.60900 0.90200 -0.00100
H 	H 	0.56560 0.64440 0.95050 0.10300
H 	H 	0.64430 0.63330 0.98280 0.00200
H 	H 	0.92590 0.26440 0.99240 0.04100
H 	H 	0.90640 0.33530 0.99950 0.06700
H 	H 	0.81630 0.35170 0.97950 0.02800
H 	H 	0.74020 0.31090 0.95820 0.07000
H 	H 	0.76810 0.23900 0.96000 0.04200
H 	H 	0.04410 0.15210 0.90410 0.04400
H 	H 	0.09370 0.14630 0.85240 0.05700
H 	H 	0.04040 0.13340 0.80770 0.03000
H 	H 	0.95090 0.09800 0.80990 0.06200
H 	H 	0.90630 0.09350 0.86460 0.03800
H 	H 	0.29450 0.49810 0.09720 -0.00100
H 	H 	0.28350 0.55610 0.13070 0.13200
H 	H 	0.28930 0.61380 0.10960 -0.03300
H 	H 	0.33460 0.62660 0.05930 0.09800
H 	H 	0.36110 0.56540 0.02660 0.02200
H 	H 	0.98750 0.19070 0.08290 0.03300
H 	H 	0.98260 0.22310 0.13130 0.08100
H 	H 	0.94350 0.17940 0.16910 0.02400
H 	H 	0.91730 0.11050 0.16640 0.07600
H 	H 	0.89480 0.09610 0.11140 0.03900
H 	H 	0.11980 0.06950 0.95900 -0.04300
H 	H 	0.18660 0.03260 0.93260 0.16800
H 	H 	0.19860 0.96580 0.95050 -0.06700
H 	H 	0.13570 0.93710 0.98690 0.17600
H 	H 	0.06810 0.97830 0.00870 -0.04300
H 	H 	0.29060 0.41550 0.10720 0.01300
H 	H 	0.21970 0.40330 0.14430 0.08100
H 	H 	0.14270 0.36940 0.12490 0.03100
H 	H 	0.22360 0.34140 0.04510 0.03200
H 	H 	0.01340 0.21420 0.02530 0.04900
H 	H 	0.17130 0.24960 0.00200 0.03700
H 	H 	0.17160 0.19600 0.96630 0.06500
H 	H 	0.09080 0.15230 0.95850 0.02300
H 	H 	0.93940 0.95980 0.02450 0.02300
H 	H 	0.93310 0.90580 0.06000 0.06300
H 	H 	0.88360 0.91740 0.11150 0.04400
H 	H 	0.85050 0.02940 0.08110 0.03900
H 	H 	0.75070 0.09490 0.11470 0.03400
H 	H 	0.69060 0.14630 0.11630 0.07200
H 	H 	0.62950 0.15700 0.16020 0.02200
H 	H 	0.69390 0.05570 0.19730 0.03800
H 	H 	0.52580 0.13550 0.13320 0.04600
H 	H 	0.47610 0.15250 0.08350 0.06500
H 	H 	0.38190 0.16140 0.08430 0.02200
H 	H 	0.33120 0.16270 0.13080 0.06600
H 	H 	0.36960 0.12870 0.17450 0.04500
H 	H 	0.63290 0.96700 0.21660 0.04900
H 	H 	0.63920 0.89260 0.21770 0.05700
H 	H 	0.54570 0.86290 0.22780 0.03700
H 	H 	0.46130 0.89560 0.23990 0.05000
H 	H 	0.45530 0.96960 0.23440 0.05300
H 	H 	0.57960 0.03310 0.36790 0.05400
H 	H 	0.56770 0.98550 0.40750 0.05000
H 	H 	0.48180 0.94480 0.41470 0.05100
H 	H 	0.40680 0.97920 0.38880 0.04200
H 	H 	0.41010 0.01400 0.33850 0.05100
H 	H 	0.43990 0.21360 0.35670 0.05100
H 	H 	0.36050 0.23810 0.39350 0.05300
H 	H 	0.26510 0.21600 0.37790 0.04800
H 	H 	0.24560 0.19000 0.32830 0.04900
H 	H 	0.32400 0.15670 0.29640 0.05500
H 	H 	0.77520 0.05260 0.24490 0.02000
H 	H 	0.86000 0.02270 0.25560 0.08900
H 	H 	0.89640 0.03740 0.30680 0.01300
H 	H 	0.85370 0.09210 0.33740 0.08100
H 	H 	0.75620 0.10300 0.33060 0.01100
H 	H 	0.65770 0.22950 0.19900 0.03500
H 	H 	0.68620 0.29930 0.18690 0.06700
H 	H 	0.69940 0.34360 0.22950 0.03100
H 	H 	0.64720 0.33090 0.27710 0.06600
H 	H 	0.63480 0.25830 0.28820 0.03600
H 	H 	0.66630 0.19220 0.33260 -0.00300
H 	H 	0.69250 0.22390 0.38080 0.07400
H 	H 	0.60920 0.22740 0.41850 0.04100
H 	H 	0.52630 0.14350 0.36450 0.03800
H 	H 	0.38470 0.21640 0.50740 0.04600
H 	H 	0.38760 0.25730 0.55450 0.05400
H 	H 	0.46650 0.30210 0.55960 0.03600
H 	H 	0.53370 0.26140 0.48080 0.03600
H 	H 	0.32320 0.14980 0.45640 0.04600
H 	H 	0.41010 0.10460 0.38020 0.05300
H 	H 	0.33070 0.06430 0.36780 0.05600
H 	H 	0.23320 0.08750 0.39320 0.02900
H 	H 	0.65440 0.59080 0.20980 0.00700
H 	H 	0.73900 0.54580 0.21160 0.07500
H 	H 	0.75960 0.51850 0.26120 0.02700
H 	H 	0.60160 0.55090 0.29060 0.03100
H 	H 	0.66520 0.44530 0.41440 0.04100
H 	H 	0.59370 0.54900 0.37950 0.03400
H 	H 	0.56500 0.56550 0.43130 0.08000
H 	H 	0.55990 0.51350 0.46690 0.00300
H 	H 	0.82870 0.30410 0.31020 0.01400
H 	H 	0.75830 0.30460 0.35040 0.07300
H 	H 	0.71300 0.36860 0.35980 0.03400
H 	H 	0.81370 0.42100 0.29450 0.03400
H 	H 	0.74440 0.44010 0.24440 0.05900
H 	H 	0.64810 0.45220 0.22430 0.04700
H 	H 	0.60050 0.43930 0.17500 0.05200
H 	H 	0.67040 0.40780 0.13680 0.04100
H 	H 	0.76480 0.38790 0.15350 0.04800
H 	H 	0.12580 0.99660 0.21870 0.05500
H 	H 	0.14570 0.06480 0.23140 0.04500
H 	H 	0.07160 0.11240 0.25180 0.04700
H 	H 	0.98380 0.07860 0.26930 0.04200
H 	H 	0.96200 0.00940 0.25840 0.05200
H 	H 	0.79040 0.24850 0.27040 0.00900
H 	H 	0.74890 0.18610 0.27260 0.09900
H 	H 	0.75610 0.14430 0.23040 0.01300
H 	H 	0.80010 0.16010 0.18240 0.08800
H 	H 	0.83580 0.23120 0.18040 0.02000
H 	H 	0.05920 0.80000 0.15020 0.02900
H 	H 	0.04040 0.78140 0.09690 0.06000
H 	H 	0.94550 0.79580 0.07740 0.03600
H 	H 	0.87240 0.83150 0.11120 0.05700
H 	H 	0.90330 0.85090 0.16430 0.04800
H 	H 	0.06180 0.27410 0.14790 0.05300
H 	H 	0.13090 0.22640 0.12380 0.05700
H 	H 	0.22980 0.23180 0.13990 0.03800
H 	H 	0.25560 0.27480 0.18220 0.05700
H 	H 	0.18720 0.31420 0.20820 0.04200
H 	H 	0.00060 0.42420 0.11710 0.04800
H 	H 	0.03460 0.46960 0.08000 0.05600
H 	H 	0.13450 0.49940 0.08810 0.04400
H 	H 	0.17440 0.49050 0.13760 0.04900
H 	H 	0.12580 0.45680 0.17830 0.04600
H 	H 	0.83990 0.89460 0.28600 0.01800
H 	H 	0.74540 0.91790 0.27670 0.06700
H 	H 	0.73660 0.96120 0.23380 0.03800
H 	H 	0.89800 0.93230 0.20160 0.04800
H 	H 	0.83990 0.31730 0.14670 0.02200
H 	H 	0.83930 0.27080 0.09810 0.06300
H 	H 	0.91910 0.27920 0.06610 0.04000
H 	H 	0.01150 0.33820 0.13130 0.04900
H 	H 	0.69150 0.49920 0.59540 0.05300
H 	H 	0.68210 0.56090 0.62200 0.04500
H 	H 	0.61360 0.61120 0.60720 0.06300
H 	H 	0.56660 0.59480 0.56460 0.03800
H 	H 	0.59520 0.54630 0.53160 0.05600
H 	H 	0.14860 0.12380 0.36310 0.03500
H 	H 	0.13200 0.12920 0.30970 0.06500
H 	H 	0.07430 0.19110 0.30050 0.03400
H 	H 	0.99990 0.21660 0.33630 0.05900
H 	H 	0.01450 0.19030 0.39260 0.03900
H 	H 	0.46420 0.49210 0.49470 0.04600
H 	H 	0.37440 0.53210 0.50440 0.05500
H 	H 	0.28840 0.49190 0.52390 0.04900
H 	H 	0.31060 0.42780 0.54240 0.04900
H 	H 	0.39090 0.38420 0.52900 0.05100
H 	H 	0.54570 0.29380 0.42360 0.05000
H 	H 	0.59390 0.40140 0.38370 0.04600
H 	H 	0.58440 0.36910 0.33230 0.05900
H 	H 	0.54330 0.30220 0.32870 0.03500
H 	H 	0.53090 0.26270 0.37380 0.06000
H 	H 	0.26320 0.21930 0.46860 0.07700
H 	H 	0.33680 0.27710 0.46220 0.05100
H 	H 	0.28120 0.33950 0.46940 0.04400
H 	H 	0.18490 0.35470 0.47030 0.05000
H 	H 	0.11440 0.29330 0.47780 0.04900
H 	H 	0.77530 0.43490 0.41880 0.01400
H 	H 	0.84000 0.40750 0.37890 0.10900
H 	H 	0.92600 0.39100 0.40200 -0.00200
H 	H 	0.93440 0.35560 0.45050 0.10300
H 	H 	0.85570 0.36670 0.48280 0.00200
C 	C 	0.37890 0.30090 0.01920 0.37500
C 	C 	0.35080 0.25870 0.02020 -0.10500
C 	C 	0.38760 0.22690 0.01200 0.02700
C 	C 	0.38000 0.18400 0.00890 -0.10400
C 	C 	0.32470 0.17670 0.02090 0.01900
C 	C 	0.27580 0.19950 0.03400 -0.10000
C 	C 	0.29490 0.24140 0.03230 0.02500
C 	C 	0.44460 0.36920 0.08140 0.37000
C 	C 	0.46930 0.37020 0.11490 -0.09100
C 	C 	0.52520 0.35740 0.11420 -0.00000
C 	C 	0.55380 0.36010 0.14580 -0.06600
C 	C 	0.52330 0.37180 0.17260 -0.00500
C 	C 	0.46890 0.39090 0.17200 -0.07100
C 	C 	0.44110 0.39190 0.13910 0.00800
C 	C 	0.77600 0.08170 0.01300 0.34300
C 	C 	0.84430 0.01380 0.96030 0.35400
C 	C 	0.82170 0.97510 0.94170 -0.15000
C 	C 	0.80290 0.97580 0.91130 0.12400
C 	C 	0.79410 0.94090 0.89060 -0.28300
C 	C 	0.80120 0.90930 0.90220 0.19700
C 	C 	0.82730 0.90050 0.93390 -0.17800
C 	C 	0.84120 0.93690 0.95410 0.07000
C 	C 	0.44570 0.38140 0.94310 0.39500
C 	C 	0.45220 0.36380 0.90750 -0.10100
C 	C 	0.47130 0.32410 0.90020 0.04700
C 	C 	0.47020 0.30410 0.87270 -0.12300
C 	C 	0.44640 0.33240 0.85110 0.03900
C 	C 	0.42590 0.37280 0.85110 -0.11500
C 	C 	0.42100 0.38280 0.88300 0.03600
C 	C 	0.52820 0.44180 0.00840 0.46200
C 	C 	0.57360 0.47110 0.01760 -0.30600
C 	C 	0.61920 0.45910 0.03720 0.26200
C 	C 	0.66270 0.47920 0.05170 -0.38700
C 	C 	0.66810 0.51800 0.04140 0.31500
C 	C 	0.63160 0.53530 0.01960 -0.38400
C 	C 	0.58970 0.51070 0.00810 0.27700
C 	C 	0.76020 0.10260 0.89840 0.08000
C 	C 	0.71840 0.10750 0.87620 -0.14100
C 	C 	0.67630 0.12940 0.88770 0.04200
C 	C 	0.67270 0.15130 0.91570 -0.05700
C 	C 	0.72220 0.14450 0.93540 0.05800
C 	C 	0.62070 0.18080 0.92950 0.13300
C 	C 	0.52250 0.19570 0.92320 0.11400
C 	C 	0.54420 0.28930 0.98910 0.03000
C 	C 	0.59040 0.26200 0.98510 -0.05000
C 	C 	0.63840 0.26730 0.00090 0.01100
C 	C 	0.63770 0.29900 0.02170 -0.09600
C 	C 	0.58710 0.32620 0.02680 0.06200
C 	C 	0.42010 0.53560 0.95620 0.05800
C 	C 	0.41740 0.56830 0.93480 -0.08900
C 	C 	0.38940 0.56150 0.90350 -0.00800
C 	C 	0.37220 0.51920 0.89840 -0.04100
C 	C 	0.37190 0.49500 0.92220 0.05100
C 	C 	0.33620 0.51430 0.86710 0.12900
C 	C 	0.27490 0.47000 0.84310 0.15700
C 	C 	0.30480 0.53030 0.82080 0.12900
C 	C 	0.23430 0.43950 0.84470 -0.06800
C 	C 	0.22630 0.40410 0.86750 0.02600
C 	C 	0.19130 0.37250 0.86680 -0.11600
C 	C 	0.15410 0.36620 0.84050 0.06500
C 	C 	0.19350 0.42640 0.82020 0.04000
C 	C 	0.98680 0.37760 0.80910 0.32800
C 	C 	0.95360 0.36170 0.83900 -0.05400
C 	C 	0.98530 0.35960 0.86700 -0.01600
C 	C 	0.95510 0.34960 0.89750 -0.07200
C 	C 	0.90160 0.34430 0.89670 0.00600
C 	C 	0.87020 0.34650 0.86920 -0.07200
C 	C 	0.89360 0.36150 0.84190 0.00200
C 	C 	0.04130 0.47520 0.77090 0.31100
C 	C 	0.04630 0.52340 0.77550 -0.05200
C 	C 	0.09840 0.54790 0.77970 -0.00700
C 	C 	0.10480 0.59220 0.77900 -0.07000
C 	C 	0.04760 0.60810 0.77230 -0.00700
C 	C 	0.99420 0.58880 0.76590 -0.06500
C 	C 	0.99060 0.54480 0.76840 -0.02000
C 	C 	0.00350 0.43660 0.67540 0.32500
C 	C 	0.99640 0.46950 0.64910 -0.06500
C 	C 	0.04320 0.47980 0.62950 -0.01700
C 	C 	0.03540 0.50970 0.60560 -0.03100
C 	C 	0.98610 0.53280 0.59920 -0.04900
C 	C 	0.94460 0.51480 0.61860 -0.02700
C 	C 	0.94160 0.48880 0.64750 -0.03200
C 	C 	0.88870 0.31490 0.67720 -0.03800
C 	C 	0.90070 0.29220 0.64820 -0.02600
C 	C 	0.85320 0.27700 0.62500 -0.04700
C 	C 	0.79680 0.28910 0.63560 -0.02700
C 	C 	0.78470 0.30830 0.66500 -0.04200
C 	C 	0.83200 0.32620 0.68620 -0.03400
C 	C 	0.19640 0.40430 0.72000 0.28900
C 	C 	0.25240 0.41730 0.71390 -0.15000
C 	C 	0.29040 0.44290 0.73480 0.07900
C 	C 	0.34060 0.46010 0.72990 -0.15400
C 	C 	0.36200 0.44980 0.70030 0.05500
C 	C 	0.33340 0.41980 0.67960 -0.14400
C 	C 	0.27820 0.40970 0.68540 0.07800
C 	C 	0.12520 0.30540 0.75070 0.36700
C 	C 	0.13950 0.26180 0.75650 -0.11900
C 	C 	0.15730 0.25060 0.78490 0.04100
C 	C 	0.17650 0.20860 0.79250 -0.09900
C 	C 	0.17970 0.18160 0.76760 0.02200
C 	C 	0.15480 0.18980 0.73790 -0.09800
C 	C 	0.14190 0.23290 0.73250 0.03700
C 	C 	0.14050 0.31180 0.65050 0.11600
C 	C 	0.15640 0.28930 0.62230 -0.12500
C 	C 	0.10870 0.29000 0.59920 0.00100
C 	C 	0.06410 0.31630 0.60430 -0.04200
C 	C 	0.05840 0.33880 0.63260 0.02400
C 	C 	0.01470 0.31850 0.57970 0.13400
C 	C 	0.96650 0.29700 0.54090 0.13100
C 	C 	0.92230 0.34070 0.56820 0.10800
C 	C 	0.96640 0.27030 0.51080 -0.05100
C 	C 	0.91790 0.26730 0.48870 -0.01800
C 	C 	0.91690 0.24090 0.46100 -0.07200
C 	C 	0.96240 0.21310 0.45920 0.00900
C 	C 	0.00220 0.23770 0.50510 0.05800
C 	C 	0.99370 0.08220 0.49710 0.35600
C 	C 	0.82060 0.36450 0.56280 0.00200
C 	C 	0.86970 0.36470 0.58230 -0.01600
C 	C 	0.87490 0.39290 0.60870 -0.01800
C 	C 	0.82900 0.41500 0.61660 -0.07000
C 	C 	0.76860 0.40420 0.59750 0.04500
C 	C 	0.15890 0.92800 0.77350 0.08800
C 	C 	0.21290 0.95160 0.77140 -0.12500
C 	C 	0.22250 0.96990 0.74220 0.02900
C 	C 	0.18420 0.97290 0.71840 -0.06700
C 	C 	0.12980 0.95050 0.72540 0.04600
C 	C 	0.18740 0.00260 0.69260 0.15300
C 	C 	0.22320 0.05860 0.67140 0.13800
C 	C 	0.17350 0.01460 0.63800 0.15200
C 	C 	0.14220 0.03070 0.58450 0.03300
C 	C 	0.14160 0.00390 0.61360 -0.06800
C 	C 	0.10400 0.96960 0.60440 0.03000
C 	C 	0.08060 0.96070 0.57330 -0.13700
C 	C 	0.08160 0.99010 0.55170 0.11100
C 	C 	0.31300 0.17020 0.68380 0.08200
C 	C 	0.26890 0.17130 0.66060 -0.12200
C 	C 	0.24260 0.13300 0.65550 0.02200
C 	C 	0.25600 0.10020 0.67020 -0.05900
C 	C 	0.30430 0.10260 0.69360 0.03800
C 	C 	0.32520 0.10800 0.78920 0.31600
C 	C 	0.26660 0.09020 0.80080 -0.05600
C 	C 	0.23190 0.06780 0.77580 -0.03800
C 	C 	0.17270 0.06080 0.79050 -0.03200
C 	C 	0.13960 0.06750 0.82080 -0.05300
C 	C 	0.18160 0.08690 0.84220 -0.04300
C 	C 	0.24110 0.09830 0.83180 -0.02700
C 	C 	0.54020 0.55170 0.76980 0.31000
C 	C 	0.54110 0.50550 0.76340 -0.05700
C 	C 	0.59700 0.48730 0.77140 -0.02500
C 	C 	0.60810 0.44530 0.76430 -0.04300
C 	C 	0.56510 0.41610 0.75060 -0.03500
C 	C 	0.51190 0.43700 0.74150 -0.04800
C 	C 	0.49830 0.47960 0.74770 -0.01300
C 	C 	0.36840 0.21320 0.77120 0.51000
C 	C 	0.33390 0.25200 0.77260 -0.17900
C 	C 	0.29610 0.26900 0.74700 0.10300
C 	C 	0.26940 0.30540 0.74550 -0.17700
C 	C 	0.27340 0.32950 0.77150 0.09000
C 	C 	0.29900 0.32150 0.80040 -0.14900
C 	C 	0.32430 0.27940 0.80000 0.07000
C 	C 	0.49620 0.66030 0.80800 0.37800
C 	C 	0.48720 0.67340 0.84370 -0.10100
C 	C 	0.52330 0.69300 0.85920 0.03600
C 	C 	0.51210 0.70530 0.89070 -0.08700
C 	C 	0.45560 0.69640 0.90200 -0.00800
C 	C 	0.41020 0.67420 0.88130 -0.06600
C 	C 	0.42790 0.66250 0.85020 0.00000
C 	C 	0.56280 0.18970 0.79730 0.36200
C 	C 	0.61410 0.21460 0.81170 -0.07300
C 	C 	0.59850 0.23130 0.84310 -0.01000
C 	C 	0.64170 0.25610 0.85950 -0.05700
C 	C 	0.70070 0.25310 0.84950 -0.01200
C 	C 	0.71600 0.22750 0.82350 -0.06500
C 	C 	0.67550 0.20590 0.80650 0.00400
C 	C 	0.52660 0.08510 0.82340 0.31900
C 	C 	0.55930 0.06020 0.85030 -0.06500
C 	C 	0.53360 0.05940 0.87890 -0.00300
C 	C 	0.55550 0.03520 0.90130 -0.05700
C 	C 	0.61480 0.01550 0.89600 -0.02400
C 	C 	0.63740 0.02090 0.86650 -0.05100
C 	C 	0.61030 0.04180 0.84210 -0.01400
C 	C 	0.33030 0.59540 0.73410 0.06400
C 	C 	0.27590 0.57810 0.73780 -0.10500
C 	C 	0.27030 0.55510 0.76390 0.00100
C 	C 	0.31470 0.55410 0.78900 -0.02900
C 	C 	0.36640 0.57210 0.78460 0.00600
C 	C 	0.37370 0.18640 0.86550 0.04100
C 	C 	0.37100 0.21230 0.89630 -0.08700
C 	C 	0.42000 0.20770 0.91410 -0.00000
C 	C 	0.46680 0.18820 0.90780 -0.04100
C 	C 	0.47490 0.17110 0.87580 0.01400
C 	C 	0.15700 0.02820 0.46470 0.33000
C 	C 	0.15190 0.98620 0.44350 -0.03500
C 	C 	0.17010 0.97950 0.41440 -0.03400
C 	C 	0.16020 0.94280 0.39650 -0.02600
C 	C 	0.12120 0.91270 0.40460 -0.06000
C 	C 	0.09820 0.92170 0.42900 -0.01400
C 	C 	0.11350 0.95370 0.44860 -0.04000
C 	C 	0.60140 0.34970 0.58460 0.33600
C 	C 	0.58980 0.33910 0.61660 -0.11700
C 	C 	0.61900 0.35770 0.64300 0.04000
C 	C 	0.61360 0.35460 0.67480 -0.10300
C 	C 	0.57300 0.32090 0.67930 0.00700
C 	C 	0.52970 0.30170 0.65760 -0.08400
C 	C 	0.54110 0.31640 0.62350 0.02500
C 	C 	0.93530 0.05980 0.49200 -0.07600
C 	C 	0.93130 0.02160 0.49720 0.00100
C 	C 	0.87630 0.99630 0.49140 -0.05800
C 	C 	0.82590 0.01950 0.47840 -0.03100
C 	C 	0.83980 0.05990 0.47000 -0.04200
C 	C 	0.88830 0.08750 0.47580 -0.02000
C 	C 	0.07640 0.14290 0.55640 0.39700
C 	C 	0.05300 0.19050 0.59460 -0.00300
C 	C 	0.07270 0.15010 0.59090 -0.09100
C 	C 	0.08250 0.12630 0.61800 0.02000
C 	C 	0.07460 0.14560 0.64930 -0.07400
C 	C 	0.05210 0.18660 0.65140 -0.00500
C 	C 	0.04310 0.20970 0.62480 -0.06700
C 	C 	0.67540 0.28940 0.52640 0.32100
C 	C 	0.69320 0.24260 0.52850 -0.04200
C 	C 	0.75200 0.25280 0.53150 -0.05200
C 	C 	0.79630 0.22090 0.53470 -0.04300
C 	C 	0.75810 0.18440 0.53140 -0.02400
C 	C 	0.69710 0.17300 0.52900 -0.05200
C 	C 	0.65500 0.20750 0.52550 -0.02500
C 	C 	0.25360 0.09330 0.52490 0.35700
C 	C 	0.30400 0.10260 0.54640 -0.17000
C 	C 	0.30390 0.08490 0.57630 0.10200
C 	C 	0.34510 0.09570 0.59920 -0.19100
C 	C 	0.39200 0.11090 0.58560 0.11900
C 	C 	0.40090 0.12970 0.55570 -0.20000
C 	C 	0.35430 0.12300 0.53790 0.12000
C 	C 	0.93420 0.32690 0.70210 0.23200
C 	C 	0.58210 0.23130 0.96250 0.11900
C 	C 	0.12110 0.69910 0.51920 0.37500
C 	C 	0.14920 0.74130 0.52020 -0.10400
C 	C 	0.11240 0.77310 0.51200 0.02700
C 	C 	0.12000 0.81600 0.50890 -0.10400
C 	C 	0.17530 0.82330 0.52090 0.01900
C 	C 	0.22420 0.80050 0.53400 -0.10000
C 	C 	0.20510 0.75860 0.53230 0.02500
C 	C 	0.05540 0.63080 0.58140 0.36700
C 	C 	0.03070 0.62980 0.61490 -0.08100
C 	C 	0.97480 0.64260 0.61420 -0.01200
C 	C 	0.94620 0.63990 0.64580 -0.05700
C 	C 	0.97670 0.62820 0.67260 -0.01800
C 	C 	0.03110 0.60910 0.67200 -0.05900
C 	C 	0.05890 0.60810 0.63910 -0.00000
C 	C 	0.72400 0.91830 0.51300 0.34300
C 	C 	0.65570 0.98620 0.46030 0.35400
C 	C 	0.67830 0.02490 0.44170 -0.15000
C 	C 	0.69710 0.02420 0.41130 0.12400
C 	C 	0.70590 0.05910 0.39060 -0.28400
C 	C 	0.69880 0.09070 0.40220 0.19800
C 	C 	0.67270 0.09950 0.43390 -0.17800
C 	C 	0.65880 0.06310 0.45410 0.07000
C 	C 	0.05430 0.61860 0.44310 0.39500
C 	C 	0.04780 0.63620 0.40750 -0.10000
C 	C 	0.02870 0.67590 0.40020 0.04700
C 	C 	0.02980 0.69590 0.37270 -0.12200
C 	C 	0.05360 0.66760 0.35110 0.03900
C 	C 	0.07410 0.62720 0.35110 -0.11400
C 	C 	0.07900 0.61720 0.38300 0.03500
C 	C 	0.97180 0.55820 0.50840 0.45800
C 	C 	0.92640 0.52890 0.51760 -0.30400
C 	C 	0.88080 0.54090 0.53720 0.26000
C 	C 	0.83730 0.52080 0.55170 -0.38500
C 	C 	0.83190 0.48200 0.54140 0.31300
C 	C 	0.86840 0.46470 0.51960 -0.38300
C 	C 	0.91030 0.48930 0.50810 0.27500
C 	C 	0.73980 0.89740 0.39840 0.08000
C 	C 	0.78160 0.89250 0.37620 -0.14100
C 	C 	0.82370 0.87060 0.38770 0.04200
C 	C 	0.82730 0.84870 0.41570 -0.05700
C 	C 	0.77780 0.85550 0.43540 0.05800
C 	C 	0.87930 0.81920 0.42950 0.13300
C 	C 	0.97750 0.80430 0.42320 0.11100
C 	C 	0.95580 0.71070 0.48910 0.03000
C 	C 	0.90960 0.73800 0.48510 -0.05100
C 	C 	0.86160 0.73270 0.50090 0.01100
C 	C 	0.86230 0.70100 0.52170 -0.09700
C 	C 	0.91290 0.67380 0.52680 0.06200
C 	C 	0.07990 0.46440 0.45620 0.05800
C 	C 	0.08260 0.43170 0.43480 -0.08900
C 	C 	0.11060 0.43850 0.40350 -0.00800
C 	C 	0.12780 0.48080 0.39840 -0.04100
C 	C 	0.12810 0.50500 0.42220 0.05200
C 	C 	0.16380 0.48570 0.36710 0.12900
C 	C 	0.22510 0.53000 0.34310 0.15700
C 	C 	0.19520 0.46970 0.32080 0.12900
C 	C 	0.26570 0.56050 0.34470 -0.06800
C 	C 	0.27370 0.59590 0.36750 0.02600
C 	C 	0.30870 0.62750 0.36680 -0.11600
C 	C 	0.34590 0.63380 0.34050 0.06500
C 	C 	0.30650 0.57360 0.32020 0.03900
C 	C 	0.51320 0.62240 0.30910 0.33600
C 	C 	0.54640 0.63830 0.33900 -0.06800
C 	C 	0.51470 0.64040 0.36700 0.00500
C 	C 	0.54490 0.65040 0.39750 -0.09600
C 	C 	0.59840 0.65570 0.39670 0.03200
C 	C 	0.62980 0.65350 0.36920 -0.09400
C 	C 	0.60640 0.63850 0.34190 0.01900
C 	C 	0.45870 0.52480 0.27090 0.30800
C 	C 	0.45370 0.47660 0.27550 -0.05300
C 	C 	0.40160 0.45210 0.27970 -0.00900
C 	C 	0.39520 0.40780 0.27900 -0.06700
C 	C 	0.45240 0.39190 0.27230 -0.01300
C 	C 	0.50580 0.41120 0.26590 -0.06000
C 	C 	0.50940 0.45520 0.26840 -0.01900
C 	C 	0.49650 0.56340 0.17540 0.31800
C 	C 	0.50360 0.53050 0.14910 -0.05600
C 	C 	0.45680 0.52020 0.12950 -0.02300
C 	C 	0.46460 0.49030 0.10560 -0.03300
C 	C 	0.51390 0.46720 0.09920 -0.04600
C 	C 	0.55540 0.48520 0.11860 -0.02600
C 	C 	0.55840 0.51120 0.14750 -0.03500
C 	C 	0.61130 0.68510 0.17720 -0.03800
C 	C 	0.59930 0.70780 0.14820 -0.02600
C 	C 	0.64680 0.72300 0.12500 -0.04700
C 	C 	0.70320 0.71090 0.13560 -0.02700
C 	C 	0.71530 0.69170 0.16500 -0.04200
C 	C 	0.66800 0.67380 0.18620 -0.03400
C 	C 	0.30360 0.59570 0.22000 0.28900
C 	C 	0.24760 0.58270 0.21390 -0.15100
C 	C 	0.20960 0.55710 0.23480 0.07900
C 	C 	0.15940 0.53990 0.22990 -0.15400
C 	C 	0.13800 0.55020 0.20030 0.05500
C 	C 	0.16660 0.58020 0.17960 -0.14400
C 	C 	0.22180 0.59030 0.18540 0.07800
C 	C 	0.37480 0.69460 0.25070 0.36700
C 	C 	0.36050 0.73820 0.25650 -0.11900
C 	C 	0.34270 0.74940 0.28490 0.04200
C 	C 	0.32350 0.79140 0.29250 -0.09900
C 	C 	0.32030 0.81840 0.26760 0.02200
C 	C 	0.34520 0.81020 0.23790 -0.09800
C 	C 	0.35810 0.76710 0.23250 0.03700
C 	C 	0.35950 0.68820 0.15050 0.11600
C 	C 	0.34360 0.71070 0.12230 -0.12500
C 	C 	0.39130 0.71000 0.09920 0.00100
C 	C 	0.43590 0.68370 0.10430 -0.04200
C 	C 	0.44160 0.66120 0.13260 0.02300
C 	C 	0.48530 0.68150 0.07970 0.13100
C 	C 	0.53350 0.70300 0.04090 0.13200
C 	C 	0.57770 0.65930 0.06820 0.10900
C 	C 	0.53360 0.72970 0.01080 -0.04700
C 	C 	0.58210 0.73270 0.98870 -0.01800
C 	C 	0.58310 0.75910 0.96100 -0.07200
C 	C 	0.53760 0.78690 0.95920 0.01200
C 	C 	0.49780 0.76230 0.00510 0.05300
C 	C 	0.50630 0.91780 0.99710 0.36400
C 	C 	0.67940 0.63550 0.06280 0.00200
C 	C 	0.63030 0.63530 0.08230 -0.01600
C 	C 	0.62510 0.60710 0.10870 -0.01800
C 	C 	0.67100 0.58500 0.11660 -0.07000
C 	C 	0.73140 0.59580 0.09750 0.04500
C 	C 	0.34110 0.07200 0.27350 0.08800
C 	C 	0.28710 0.04840 0.27140 -0.12500
C 	C 	0.27750 0.03010 0.24220 0.02900
C 	C 	0.31580 0.02710 0.21840 -0.06600
C 	C 	0.37020 0.04950 0.22540 0.04600
C 	C 	0.31260 0.99740 0.19260 0.15200
C 	C 	0.27680 0.94140 0.17140 0.13800
C 	C 	0.32650 0.98540 0.13800 0.15200
C 	C 	0.35780 0.96930 0.08450 0.03300
C 	C 	0.35840 0.99610 0.11360 -0.06900
C 	C 	0.39600 0.03040 0.10440 0.03000
C 	C 	0.41940 0.03930 0.07330 -0.13700
C 	C 	0.41840 0.00990 0.05170 0.11100
C 	C 	0.18700 0.82980 0.18380 0.08200
C 	C 	0.23110 0.82870 0.16060 -0.12200
C 	C 	0.25740 0.86700 0.15550 0.02200
C 	C 	0.24400 0.89980 0.17020 -0.05900
C 	C 	0.19570 0.89740 0.19360 0.03800
C 	C 	0.17480 0.89200 0.28920 0.31600
C 	C 	0.23340 0.90980 0.30080 -0.05600
C 	C 	0.26810 0.93220 0.27580 -0.03800
C 	C 	0.32730 0.93920 0.29050 -0.03200
C 	C 	0.36040 0.93250 0.32080 -0.05300
C 	C 	0.31840 0.91310 0.34220 -0.04300
C 	C 	0.25890 0.90170 0.33180 -0.02700
C 	C 	0.95980 0.44830 0.26980 0.31000
C 	C 	0.95890 0.49450 0.26340 -0.06600
C 	C 	0.90300 0.51270 0.27140 -0.01800
C 	C 	0.89190 0.55470 0.26430 -0.05000
C 	C 	0.93490 0.58390 0.25060 -0.02500
C 	C 	0.98810 0.56300 0.24150 -0.06700
C 	C 	0.00170 0.52040 0.24770 0.00400
C 	C 	0.13160 0.78680 0.27120 0.51000
C 	C 	0.16610 0.74800 0.27260 -0.17800
C 	C 	0.20390 0.73100 0.24700 0.10300
C 	C 	0.23060 0.69460 0.24550 -0.17700
C 	C 	0.22660 0.67050 0.27150 0.09000
C 	C 	0.20100 0.67850 0.30040 -0.14800
C 	C 	0.17570 0.72060 0.30000 0.07000
C 	C 	0.00380 0.33970 0.30800 0.38000
C 	C 	0.01280 0.32660 0.34370 -0.09500
C 	C 	0.97670 0.30700 0.35920 0.03000
C 	C 	0.98790 0.29470 0.39070 -0.08900
C 	C 	0.04440 0.30360 0.40200 -0.00500
C 	C 	0.08980 0.32580 0.38130 -0.06600
C 	C 	0.07210 0.33750 0.35020 -0.00200
C 	C 	0.93720 0.81030 0.29730 0.36200
C 	C 	0.88590 0.78540 0.31170 -0.07300
C 	C 	0.90150 0.76870 0.34310 -0.01000
C 	C 	0.85830 0.74390 0.35950 -0.05800
C 	C 	0.79930 0.74690 0.34950 -0.01200
C 	C 	0.78400 0.77250 0.32350 -0.06600
C 	C 	0.82450 0.79410 0.30650 0.00500
C 	C 	0.97340 0.91490 0.32340 0.31600
C 	C 	0.94070 0.93980 0.35030 -0.06400
C 	C 	0.96640 0.94060 0.37890 -0.00400
C 	C 	0.94450 0.96480 0.40130 -0.05600
C 	C 	0.88520 0.98450 0.39600 -0.02500
C 	C 	0.86260 0.97910 0.36650 -0.05000
C 	C 	0.88970 0.95820 0.34210 -0.01500
C 	C 	0.16970 0.40460 0.23410 0.06400
C 	C 	0.22410 0.42190 0.23780 -0.10500
C 	C 	0.22970 0.44490 0.26390 0.00100
C 	C 	0.18530 0.44590 0.28900 -0.02900
C 	C 	0.13360 0.42790 0.28460 0.00600
C 	C 	0.12630 0.81360 0.36550 0.04100
C 	C 	0.12900 0.78770 0.39630 -0.08600
C 	C 	0.08000 0.79230 0.41410 -0.00200
C 	C 	0.03320 0.81180 0.40780 -0.03900
C 	C 	0.02510 0.82890 0.37580 0.01800
C 	C 	0.34300 0.97180 0.96470 0.33100
C 	C 	0.34810 0.01380 0.94350 -0.03600
C 	C 	0.32990 0.02050 0.91440 -0.03200
C 	C 	0.33980 0.05720 0.89650 -0.02800
C 	C 	0.37880 0.08730 0.90460 -0.05700
C 	C 	0.40180 0.07830 0.92900 -0.01700
C 	C 	0.38650 0.04630 0.94860 -0.03800
C 	C 	0.89860 0.65030 0.08460 0.33700
C 	C 	0.91020 0.66090 0.11660 -0.12000
C 	C 	0.88100 0.64230 0.14300 0.04200
C 	C 	0.88640 0.64540 0.17480 -0.10700
C 	C 	0.92700 0.67910 0.17930 0.01100
C 	C 	0.97030 0.69830 0.15760 -0.09300
C 	C 	0.95890 0.68360 0.12350 0.02900
C 	C 	0.56470 0.94020 0.99200 -0.07800
C 	C 	0.56870 0.97840 0.99720 0.00300
C 	C 	0.62370 0.00370 0.99140 -0.05800
C 	C 	0.67410 0.98050 0.97840 -0.03000
C 	C 	0.66020 0.94010 0.97000 -0.04300
C 	C 	0.61170 0.91250 0.97580 -0.01800
C 	C 	0.42360 0.85710 0.05640 0.39700
C 	C 	0.44700 0.80950 0.09460 -0.00300
C 	C 	0.42730 0.84990 0.09090 -0.09200
C 	C 	0.41750 0.87370 0.11800 0.02000
C 	C 	0.42540 0.85440 0.14930 -0.07400
C 	C 	0.44790 0.81340 0.15140 -0.00500
C 	C 	0.45690 0.79030 0.12480 -0.06700
C 	C 	0.82460 0.71060 0.02640 0.32100
C 	C 	0.80680 0.75740 0.02850 -0.04200
C 	C 	0.74800 0.74720 0.03150 -0.05200
C 	C 	0.70370 0.77910 0.03470 -0.04300
C 	C 	0.74190 0.81560 0.03140 -0.02400
C 	C 	0.80290 0.82700 0.02900 -0.05200
C 	C 	0.84500 0.79250 0.02550 -0.02500
C 	C 	0.24640 0.90670 0.02490 0.35700
C 	C 	0.19600 0.89740 0.04640 -0.16900
C 	C 	0.19610 0.91510 0.07630 0.10200
C 	C 	0.15490 0.90430 0.09920 -0.19100
C 	C 	0.10800 0.88910 0.08560 0.11800
C 	C 	0.09910 0.87030 0.05570 -0.20000
C 	C 	0.14570 0.87700 0.03790 0.12000
C 	C 	0.56580 0.67310 0.20210 0.23200
C 	C 	0.91790 0.76870 0.46250 0.11900
C 	C 	0.62110 0.80090 0.48080 0.37500
C 	C 	0.64920 0.75870 0.47980 -0.10500
C 	C 	0.61240 0.72690 0.48800 0.02700
C 	C 	0.62000 0.68400 0.49110 -0.10400
C 	C 	0.67530 0.67670 0.47910 0.01900
C 	C 	0.72420 0.69950 0.46600 -0.10000
C 	C 	0.70510 0.74140 0.46770 0.02500
C 	C 	0.55540 0.86920 0.41860 0.37000
C 	C 	0.53070 0.87020 0.38510 -0.09100
C 	C 	0.47480 0.85740 0.38580 -0.00000
C 	C 	0.44620 0.86010 0.35420 -0.06600
C 	C 	0.47670 0.87180 0.32740 -0.00500
C 	C 	0.53110 0.89090 0.32800 -0.07100
C 	C 	0.55890 0.89190 0.36090 0.00800
C 	C 	0.22400 0.58170 0.48700 0.34300
C 	C 	0.15570 0.51380 0.53970 0.35400
C 	C 	0.17830 0.47510 0.55830 -0.15000
C 	C 	0.19710 0.47580 0.58870 0.12400
C 	C 	0.20590 0.44090 0.60940 -0.28300
C 	C 	0.19880 0.40930 0.59780 0.19700
C 	C 	0.17270 0.40050 0.56610 -0.17800
C 	C 	0.15880 0.43690 0.54590 0.07000
C 	C 	0.55430 0.88140 0.55690 0.39500
C 	C 	0.54780 0.86380 0.59250 -0.10100
C 	C 	0.52870 0.82410 0.59980 0.04700
C 	C 	0.52980 0.80410 0.62730 -0.12300
C 	C 	0.55360 0.83240 0.64890 0.03900
C 	C 	0.57410 0.87280 0.64890 -0.11500
C 	C 	0.57900 0.88280 0.61700 0.03600
C 	C 	0.47180 0.94180 0.49160 0.46200
C 	C 	0.42640 0.97110 0.48240 -0.30600
C 	C 	0.38080 0.95910 0.46280 0.26200
C 	C 	0.33730 0.97920 0.44830 -0.38800
C 	C 	0.33190 0.01800 0.45860 0.31600
C 	C 	0.36840 0.03530 0.48040 -0.38500
C 	C 	0.41030 0.01070 0.49190 0.27700
C 	C 	0.23980 0.60260 0.60160 0.08000
C 	C 	0.28160 0.60750 0.62380 -0.14100
C 	C 	0.32370 0.62940 0.61230 0.04200
C 	C 	0.32730 0.65130 0.58430 -0.05700
C 	C 	0.27780 0.64450 0.56460 0.05800
C 	C 	0.37930 0.68080 0.57050 0.13300
C 	C 	0.47750 0.69570 0.57680 0.11400
C 	C 	0.45580 0.78930 0.51090 0.03000
C 	C 	0.40960 0.76200 0.51490 -0.05000
C 	C 	0.36160 0.76730 0.49910 0.01100
C 	C 	0.36230 0.79900 0.47830 -0.09600
C 	C 	0.41290 0.82620 0.47320 0.06200
C 	C 	0.57990 0.03560 0.54380 0.05800
C 	C 	0.58260 0.06830 0.56520 -0.08900
C 	C 	0.61060 0.06150 0.59650 -0.00900
C 	C 	0.62780 0.01920 0.60160 -0.04100
C 	C 	0.62810 0.99500 0.57780 0.05100
C 	C 	0.66380 0.01430 0.63290 0.12900
C 	C 	0.72510 0.97000 0.65690 0.15700
C 	C 	0.69520 0.03030 0.67920 0.12900
C 	C 	0.76570 0.93950 0.65530 -0.06800
C 	C 	0.77370 0.90410 0.63250 0.02600
C 	C 	0.80870 0.87250 0.63320 -0.11600
C 	C 	0.84590 0.86620 0.65950 0.06500
C 	C 	0.80650 0.92640 0.67980 0.03900
C 	C 	0.01320 0.87760 0.69090 0.34400
C 	C 	0.04640 0.86170 0.66100 -0.08100
C 	C 	0.01470 0.85960 0.63300 0.02500
C 	C 	0.04490 0.84960 0.60250 -0.11900
C 	C 	0.09840 0.84430 0.60330 0.05700
C 	C 	0.12980 0.84650 0.63080 -0.11500
C 	C 	0.10640 0.86150 0.65810 0.03700
C 	C 	0.95870 0.97520 0.72910 0.30500
C 	C 	0.95370 0.02340 0.72450 -0.05400
C 	C 	0.90160 0.04790 0.72030 -0.01000
C 	C 	0.89520 0.09220 0.72100 -0.06500
C 	C 	0.95240 0.10810 0.72770 -0.01900
C 	C 	0.00580 0.08880 0.73410 -0.05400
C 	C 	0.00940 0.04480 0.73160 -0.01800
C 	C 	0.99650 0.93660 0.82460 0.31100
C 	C 	0.00360 0.96950 0.85090 -0.04800
C 	C 	0.95680 0.97980 0.87050 -0.02900
C 	C 	0.96460 0.00970 0.89440 -0.03500
C 	C 	0.01390 0.03280 0.90080 -0.04300
C 	C 	0.05540 0.01480 0.88140 -0.02500
C 	C 	0.05840 0.98880 0.85250 -0.03900
C 	C 	0.11130 0.81490 0.82280 -0.03700
C 	C 	0.09930 0.79220 0.85180 -0.02600
C 	C 	0.14680 0.77700 0.87500 -0.04600
C 	C 	0.20320 0.78910 0.86440 -0.02700
C 	C 	0.21530 0.80830 0.83500 -0.04200
C 	C 	0.16800 0.82620 0.81380 -0.03400
C 	C 	0.80360 0.90430 0.78000 0.28900
C 	C 	0.74760 0.91730 0.78610 -0.15000
C 	C 	0.70960 0.94290 0.76520 0.07900
C 	C 	0.65940 0.96010 0.77010 -0.15400
C 	C 	0.63800 0.94980 0.79970 0.05500
C 	C 	0.66660 0.91980 0.82040 -0.14400
C 	C 	0.72180 0.90970 0.81460 0.07800
C 	C 	0.87480 0.80540 0.74930 0.36700
C 	C 	0.86050 0.76180 0.74350 -0.12000
C 	C 	0.84270 0.75060 0.71510 0.04200
C 	C 	0.82350 0.70860 0.70750 -0.09900
C 	C 	0.82030 0.68160 0.73240 0.02200
C 	C 	0.84520 0.68980 0.76210 -0.09800
C 	C 	0.85810 0.73290 0.76750 0.03700
C 	C 	0.85950 0.81180 0.84950 0.11600
C 	C 	0.84360 0.78930 0.87770 -0.12500
C 	C 	0.89130 0.79000 0.90080 0.00100
C 	C 	0.93590 0.81630 0.89570 -0.04100
C 	C 	0.94160 0.83880 0.86740 0.02200
C 	C 	0.98530 0.81850 0.92030 0.12900
C 	C 	0.03350 0.79700 0.95910 0.13400
C 	C 	0.07770 0.84070 0.93180 0.10900
C 	C 	0.03360 0.77030 0.98920 -0.04300
C 	C 	0.08210 0.76730 0.01130 -0.01900
C 	C 	0.08310 0.74090 0.03900 -0.07200
C 	C 	0.03760 0.71310 0.04080 0.01400
C 	C 	0.99780 0.73770 0.99490 0.04800
C 	C 	0.00630 0.58220 0.00290 0.36700
C 	C 	0.17940 0.86450 0.93720 0.00200
C 	C 	0.13030 0.86470 0.91770 -0.01600
C 	C 	0.12510 0.89290 0.89130 -0.01800
C 	C 	0.17100 0.91500 0.88340 -0.07000
C 	C 	0.23140 0.90420 0.90250 0.04500
C 	C 	0.84110 0.42800 0.72650 0.08800
C 	C 	0.78710 0.45160 0.72860 -0.12500
C 	C 	0.77750 0.46990 0.75780 0.02900
C 	C 	0.81580 0.47290 0.78160 -0.06700
C 	C 	0.87020 0.45050 0.77460 0.04500
C 	C 	0.81260 0.50260 0.80740 0.15200
C 	C 	0.77680 0.55860 0.82860 0.13800
C 	C 	0.82650 0.51460 0.86200 0.15100
C 	C 	0.85780 0.53070 0.91550 0.03200
C 	C 	0.85840 0.50390 0.88640 -0.06900
C 	C 	0.89600 0.46960 0.89560 0.02900
C 	C 	0.91940 0.46070 0.92670 -0.13700
C 	C 	0.91840 0.49010 0.94830 0.11100
C 	C 	0.68700 0.67020 0.81620 0.08200
C 	C 	0.73110 0.67130 0.83940 -0.12200
C 	C 	0.75740 0.63300 0.84450 0.02200
C 	C 	0.74400 0.60020 0.82980 -0.05900
C 	C 	0.69570 0.60260 0.80640 0.03800
C 	C 	0.67480 0.60800 0.71080 0.31600
C 	C 	0.73340 0.59020 0.69920 -0.05600
C 	C 	0.76810 0.56780 0.72420 -0.03800
C 	C 	0.82730 0.56080 0.70950 -0.03200
C 	C 	0.86040 0.56750 0.67920 -0.05300
C 	C 	0.81840 0.58690 0.65780 -0.04300
C 	C 	0.75890 0.59830 0.66820 -0.02700
C 	C 	0.45980 0.05170 0.73020 0.31000
C 	C 	0.45890 0.00550 0.73660 -0.05700
C 	C 	0.40300 0.98730 0.72860 -0.02500
C 	C 	0.39190 0.94530 0.73570 -0.04300
C 	C 	0.43490 0.91610 0.74940 -0.03500
C 	C 	0.48810 0.93700 0.75850 -0.04800
C 	C 	0.50170 0.97960 0.75230 -0.01300
C 	C 	0.63160 0.71320 0.72880 0.51000
C 	C 	0.66610 0.75200 0.72740 -0.17900
C 	C 	0.70390 0.76900 0.75300 0.10300
C 	C 	0.73060 0.80540 0.75450 -0.17700
C 	C 	0.72660 0.82950 0.72850 0.09000
C 	C 	0.70100 0.82150 0.69960 -0.14900
C 	C 	0.67570 0.77940 0.70000 0.07000
C 	C 	0.50380 0.16030 0.69200 0.37800
C 	C 	0.51280 0.17340 0.65630 -0.10100
C 	C 	0.47670 0.19300 0.64080 0.03600
C 	C 	0.48790 0.20530 0.60930 -0.08700
C 	C 	0.54440 0.19640 0.59800 -0.00800
C 	C 	0.58980 0.17420 0.61870 -0.06600
C 	C 	0.57210 0.16250 0.64980 0.00000
C 	C 	0.43720 0.68970 0.70270 0.36200
C 	C 	0.38590 0.71460 0.68830 -0.07300
C 	C 	0.40150 0.73130 0.65690 -0.01000
C 	C 	0.35830 0.75610 0.64050 -0.05800
C 	C 	0.29930 0.75310 0.65050 -0.01200
C 	C 	0.28400 0.72750 0.67650 -0.06500
C 	C 	0.32450 0.70590 0.69350 0.00500
C 	C 	0.47340 0.58510 0.67660 0.31900
C 	C 	0.44070 0.56020 0.64970 -0.06500
C 	C 	0.46640 0.55940 0.62110 -0.00300
C 	C 	0.44450 0.53520 0.59870 -0.05700
C 	C 	0.38520 0.51550 0.60400 -0.02400
C 	C 	0.36260 0.52090 0.63350 -0.05100
C 	C 	0.38970 0.54180 0.65790 -0.01400
C 	C 	0.66970 0.09540 0.76590 0.06400
C 	C 	0.72410 0.07810 0.76220 -0.10500
C 	C 	0.72970 0.05510 0.73610 0.00100
C 	C 	0.68530 0.05410 0.71100 -0.02900
C 	C 	0.63360 0.07210 0.71540 0.00600
C 	C 	0.62630 0.68640 0.63450 0.04100
C 	C 	0.62900 0.71230 0.60370 -0.08700
C 	C 	0.58000 0.70770 0.58590 -0.00000
C 	C 	0.53320 0.68820 0.59220 -0.04100
C 	C 	0.52510 0.67110 0.62420 0.01400
C 	C 	0.84300 0.52820 0.03530 0.33100
C 	C 	0.84810 0.48620 0.05650 -0.03800
C 	C 	0.82990 0.47950 0.08560 -0.03000
C 	C 	0.83980 0.44280 0.10350 -0.03200
C 	C 	0.87880 0.41270 0.09540 -0.05300
C 	C 	0.90180 0.42170 0.07100 -0.02100
C 	C 	0.88650 0.45370 0.05140 -0.03600
C 	C 	0.39860 0.84970 0.91540 0.33600
C 	C 	0.41020 0.83910 0.88340 -0.11700
C 	C 	0.38100 0.85770 0.85700 0.04000
C 	C 	0.38640 0.85460 0.82520 -0.10300
C 	C 	0.42700 0.82090 0.82070 0.00700
C 	C 	0.47030 0.80170 0.84240 -0.08400
C 	C 	0.45890 0.81640 0.87650 0.02500
C 	C 	0.06470 0.55980 0.00800 -0.07900
C 	C 	0.06870 0.52160 0.00280 0.00400
C 	C 	0.12370 0.49630 0.00860 -0.05800
C 	C 	0.17410 0.51950 0.02160 -0.02900
C 	C 	0.16020 0.55990 0.03000 -0.04300
C 	C 	0.11170 0.58750 0.02420 -0.01800
C 	C 	0.92360 0.64290 0.94360 0.39700
C 	C 	0.94700 0.69050 0.90540 -0.00300
C 	C 	0.92730 0.65010 0.90910 -0.09200
C 	C 	0.91750 0.62630 0.88200 0.02000
C 	C 	0.92540 0.64560 0.85070 -0.07400
C 	C 	0.94790 0.68660 0.84860 -0.00500
C 	C 	0.95690 0.70970 0.87520 -0.06800
C 	C 	0.32460 0.78940 0.97360 0.32100
C 	C 	0.30680 0.74260 0.97150 -0.04200
C 	C 	0.24800 0.75280 0.96850 -0.05200
C 	C 	0.20370 0.72090 0.96530 -0.04300
C 	C 	0.24190 0.68440 0.96860 -0.02400
C 	C 	0.30290 0.67300 0.97100 -0.05200
C 	C 	0.34500 0.70750 0.97450 -0.02500
C 	C 	0.74640 0.59330 0.97510 0.35700
C 	C 	0.69600 0.60260 0.95360 -0.17000
C 	C 	0.69610 0.58490 0.92370 0.10200
C 	C 	0.65490 0.59570 0.90080 -0.19100
C 	C 	0.60800 0.61090 0.91440 0.11900
C 	C 	0.59910 0.62970 0.94430 -0.20000
C 	C 	0.64570 0.62300 0.96210 0.12000
C 	C 	0.06580 0.82690 0.79790 0.23200
C 	C 	0.41790 0.73130 0.53750 0.11900
C 	C 	0.87890 0.19910 0.98080 0.37500
C 	C 	0.85080 0.24130 0.97980 -0.10500
C 	C 	0.88760 0.27310 0.98800 0.02800
C 	C 	0.88000 0.31600 0.99110 -0.10500
C 	C 	0.82470 0.32330 0.97910 0.01900
C 	C 	0.77580 0.30050 0.96600 -0.10000
C 	C 	0.79490 0.25860 0.96770 0.02500
C 	C 	0.94460 0.13080 0.91860 0.37300
C 	C 	0.96930 0.12980 0.88510 -0.10100
C 	C 	0.02520 0.14260 0.88580 0.01100
C 	C 	0.05380 0.13990 0.85420 -0.07600
C 	C 	0.02330 0.12820 0.82740 0.00800
C 	C 	0.96890 0.10910 0.82800 -0.08300
C 	C 	0.94110 0.10810 0.86090 0.01500
C 	C 	0.27600 0.41830 0.98700 0.34400
C 	C 	0.34430 0.48620 0.03970 0.35400
C 	C 	0.32170 0.52490 0.05830 -0.15000
C 	C 	0.30290 0.52420 0.08870 0.12400
C 	C 	0.29410 0.55910 0.10940 -0.28300
C 	C 	0.30120 0.59070 0.09780 0.19700
C 	C 	0.32730 0.59950 0.06610 -0.17800
C 	C 	0.34120 0.56310 0.04590 0.07000
C 	C 	0.94570 0.11860 0.05690 0.39500
C 	C 	0.95220 0.13620 0.09250 -0.10200
C 	C 	0.97130 0.17590 0.09980 0.04800
C 	C 	0.97020 0.19590 0.12730 -0.12400
C 	C 	0.94640 0.16760 0.14890 0.04000
C 	C 	0.92590 0.12720 0.14890 -0.11600
C 	C 	0.92100 0.11720 0.11700 0.03600
C 	C 	0.02820 0.05820 0.99160 0.46500
C 	C 	0.07360 0.02890 0.98240 -0.30600
C 	C 	0.11920 0.04090 0.96280 0.26200
C 	C 	0.16270 0.02080 0.94830 -0.38800
C 	C 	0.16810 0.98200 0.95860 0.31500
C 	C 	0.13160 0.96470 0.98040 -0.38500
C 	C 	0.08970 0.98930 0.99190 0.27800
C 	C 	0.26020 0.39740 0.10160 0.08000
C 	C 	0.21840 0.39250 0.12380 -0.14100
C 	C 	0.17630 0.37060 0.11230 0.04200
C 	C 	0.17270 0.34870 0.08430 -0.05700
C 	C 	0.22220 0.35550 0.06460 0.05800
C 	C 	0.12070 0.31920 0.07050 0.13300
C 	C 	0.02250 0.30430 0.07680 0.11700
C 	C 	0.04420 0.21070 0.01090 0.03100
C 	C 	0.09040 0.23800 0.01490 -0.05000
C 	C 	0.13840 0.23270 0.99910 0.01100
C 	C 	0.13770 0.20100 0.97830 -0.09600
C 	C 	0.08710 0.17380 0.97320 0.06200
C 	C 	0.92010 0.96440 0.04380 0.05800
C 	C 	0.91740 0.93170 0.06520 -0.08900
C 	C 	0.88940 0.93850 0.09650 -0.00900
C 	C 	0.87220 0.98080 0.10160 -0.04100
C 	C 	0.87190 0.00500 0.07780 0.05100
C 	C 	0.83620 0.98570 0.13290 0.12900
C 	C 	0.77490 0.03000 0.15690 0.15700
C 	C 	0.80480 0.96970 0.17920 0.12900
C 	C 	0.73430 0.06050 0.15530 -0.06800
C 	C 	0.72630 0.09590 0.13250 0.02600
C 	C 	0.69130 0.12750 0.13320 -0.11600
C 	C 	0.65410 0.13380 0.15950 0.06500
C 	C 	0.69350 0.07360 0.17980 0.03900
C 	C 	0.48680 0.12240 0.19090 0.33600
C 	C 	0.45360 0.13830 0.16100 -0.06800
C 	C 	0.48530 0.14040 0.13300 0.00500
C 	C 	0.45510 0.15040 0.10250 -0.09600
C 	C 	0.40160 0.15570 0.10330 0.03200
C 	C 	0.37020 0.15350 0.13080 -0.09400
C 	C 	0.39360 0.13850 0.15810 0.02000
C 	C 	0.54130 0.02480 0.22910 0.30800
C 	C 	0.54630 0.97660 0.22450 -0.05300
C 	C 	0.59840 0.95210 0.22030 -0.00800
C 	C 	0.60480 0.90780 0.22100 -0.06800
C 	C 	0.54760 0.89190 0.22770 -0.01300
C 	C 	0.49420 0.91120 0.23410 -0.06000
C 	C 	0.49060 0.95520 0.23160 -0.01900
C 	C 	0.50350 0.06340 0.32460 0.31800
C 	C 	0.49640 0.03050 0.35090 -0.05700
C 	C 	0.54320 0.02020 0.37050 -0.02300
C 	C 	0.53540 0.99030 0.39440 -0.03300
C 	C 	0.48610 0.96720 0.40080 -0.04600
C 	C 	0.44460 0.98520 0.38140 -0.02600
C 	C 	0.44160 0.01120 0.35250 -0.03500
C 	C 	0.38870 0.18510 0.32280 -0.03800
C 	C 	0.40070 0.20780 0.35180 -0.02600
C 	C 	0.35320 0.22300 0.37500 -0.04700
C 	C 	0.29680 0.21090 0.36440 -0.02700
C 	C 	0.28470 0.19170 0.33500 -0.04200
C 	C 	0.33200 0.17380 0.31380 -0.03400
C 	C 	0.69640 0.09570 0.28000 0.28900
C 	C 	0.75240 0.08270 0.28610 -0.15000
C 	C 	0.79040 0.05710 0.26520 0.07800
C 	C 	0.84060 0.03990 0.27010 -0.15400
C 	C 	0.86200 0.05020 0.29970 0.05500
C 	C 	0.83340 0.08020 0.32040 -0.14400
C 	C 	0.77820 0.09030 0.31460 0.07800
C 	C 	0.62520 0.19460 0.24930 0.36700
C 	C 	0.63950 0.23820 0.24350 -0.11900
C 	C 	0.65730 0.24940 0.21510 0.04200
C 	C 	0.67650 0.29140 0.20750 -0.09900
C 	C 	0.67970 0.31840 0.23240 0.02200
C 	C 	0.65480 0.31020 0.26210 -0.09800
C 	C 	0.64190 0.26710 0.26750 0.03700
C 	C 	0.64050 0.18820 0.34950 0.11600
C 	C 	0.65640 0.21070 0.37770 -0.12500
C 	C 	0.60870 0.21000 0.40080 0.00100
C 	C 	0.56410 0.18370 0.39570 -0.04200
C 	C 	0.55840 0.16120 0.36740 0.02300
C 	C 	0.51470 0.18150 0.42030 0.13100
C 	C 	0.46650 0.20300 0.45910 0.13200
C 	C 	0.42230 0.15930 0.43180 0.10900
C 	C 	0.46640 0.22970 0.48920 -0.04700
C 	C 	0.41790 0.23270 0.51130 -0.01800
C 	C 	0.41690 0.25910 0.53900 -0.07200
C 	C 	0.46240 0.28690 0.54080 0.01200
C 	C 	0.50220 0.26230 0.49490 0.05300
C 	C 	0.49370 0.41780 0.50290 0.36400
C 	C 	0.32060 0.13550 0.43720 0.00200
C 	C 	0.36970 0.13530 0.41770 -0.01600
C 	C 	0.37490 0.10710 0.39130 -0.01800
C 	C 	0.32900 0.08500 0.38340 -0.07000
C 	C 	0.26860 0.09580 0.40250 0.04500
C 	C 	0.65890 0.57200 0.22650 0.08800
C 	C 	0.71290 0.54840 0.22860 -0.12500
C 	C 	0.72250 0.53010 0.25780 0.02900
C 	C 	0.68420 0.52710 0.28160 -0.06700
C 	C 	0.62980 0.54950 0.27460 0.04600
C 	C 	0.68740 0.49740 0.30740 0.15200
C 	C 	0.72320 0.44140 0.32860 0.13800
C 	C 	0.67350 0.48540 0.36200 0.15100
C 	C 	0.64220 0.46930 0.41550 0.03200
C 	C 	0.64160 0.49610 0.38640 -0.06900
C 	C 	0.60400 0.53040 0.39560 0.03000
C 	C 	0.58060 0.53930 0.42670 -0.13700
C 	C 	0.58160 0.50990 0.44830 0.11100
C 	C 	0.81300 0.32980 0.31620 0.08200
C 	C 	0.76890 0.32870 0.33940 -0.12200
C 	C 	0.74260 0.36700 0.34450 0.02200
C 	C 	0.75600 0.39980 0.32980 -0.05900
C 	C 	0.80430 0.39740 0.30640 0.03800
C 	C 	0.82520 0.39200 0.21080 0.31600
C 	C 	0.76660 0.40980 0.19920 -0.05600
C 	C 	0.73190 0.43220 0.22420 -0.03800
C 	C 	0.67270 0.43920 0.20950 -0.03200
C 	C 	0.63960 0.43250 0.17920 -0.05300
C 	C 	0.68160 0.41310 0.15780 -0.04300
C 	C 	0.74110 0.40170 0.16820 -0.02700
C 	C 	0.04020 0.94830 0.23020 0.31100
C 	C 	0.04110 0.99450 0.23660 -0.04800
C 	C 	0.09700 0.01270 0.22860 -0.03200
C 	C 	0.10810 0.05470 0.23570 -0.03500
C 	C 	0.06510 0.08390 0.24940 -0.04500
C 	C 	0.01190 0.06300 0.25850 -0.03000
C 	C 	0.99830 0.02040 0.25230 -0.02900
C 	C 	0.86840 0.28680 0.22880 0.51000
C 	C 	0.83390 0.24800 0.22740 -0.17900
C 	C 	0.79610 0.23100 0.25300 0.10300
C 	C 	0.76940 0.19460 0.25450 -0.17700
C 	C 	0.77340 0.17050 0.22850 0.09000
C 	C 	0.79900 0.17850 0.19960 -0.14900
C 	C 	0.82430 0.22060 0.20000 0.07000
C 	C 	0.99620 0.83970 0.19200 0.37600
C 	C 	0.98720 0.82660 0.15630 -0.10600
C 	C 	0.02330 0.80700 0.14080 0.04200
C 	C 	0.01210 0.79470 0.10930 -0.08500
C 	C 	0.95560 0.80360 0.09800 -0.01100
C 	C 	0.91020 0.82580 0.11870 -0.06700
C 	C 	0.92790 0.83750 0.14980 0.00200
C 	C 	0.06280 0.31030 0.20270 0.36200
C 	C 	0.11410 0.28540 0.18830 -0.07300
C 	C 	0.09850 0.26870 0.15690 -0.01000
C 	C 	0.14170 0.24390 0.14050 -0.05700
C 	C 	0.20070 0.24690 0.15050 -0.01200
C 	C 	0.21600 0.27250 0.17650 -0.06500
C 	C 	0.17550 0.29410 0.19350 0.00400
C 	C 	0.02660 0.41490 0.17660 0.32300
C 	C 	0.05930 0.43980 0.14970 -0.06600
C 	C 	0.03360 0.44060 0.12110 -0.00100
C 	C 	0.05550 0.46480 0.09870 -0.05800
C 	C 	0.11480 0.48450 0.10400 -0.02300
C 	C 	0.13740 0.47910 0.13350 -0.05200
C 	C 	0.11030 0.45820 0.15790 -0.01300
C 	C 	0.83030 0.90460 0.26590 0.06400
C 	C 	0.77590 0.92190 0.26220 -0.10500
C 	C 	0.77030 0.94490 0.23610 0.00100
C 	C 	0.81470 0.94590 0.21100 -0.02900
C 	C 	0.86640 0.92790 0.21540 0.00600
C 	C 	0.87370 0.31360 0.13450 0.04200
C 	C 	0.87100 0.28770 0.10370 -0.08800
C 	C 	0.92000 0.29230 0.08590 0.00200
C 	C 	0.96680 0.31180 0.09220 -0.04400
C 	C 	0.97490 0.32890 0.12420 0.00900
C 	C 	0.65700 0.47180 0.53530 0.33100
C 	C 	0.65190 0.51380 0.55650 -0.03600
C 	C 	0.67010 0.52050 0.58560 -0.03200
C 	C 	0.66020 0.55720 0.60350 -0.02900
C 	C 	0.62120 0.58730 0.59540 -0.05700
C 	C 	0.59820 0.57830 0.57100 -0.01800
C 	C 	0.61350 0.54630 0.55140 -0.03800
C 	C 	0.10140 0.15030 0.41540 0.33500
C 	C 	0.08980 0.16090 0.38340 -0.11400
C 	C 	0.11900 0.14230 0.35700 0.03700
C 	C 	0.11360 0.14540 0.32520 -0.10000
C 	C 	0.07300 0.17910 0.32070 0.00300
C 	C 	0.02970 0.19830 0.34240 -0.07600
C 	C 	0.04110 0.18360 0.37650 0.02200
C 	C 	0.43530 0.44020 0.50800 -0.07800
C 	C 	0.43130 0.47840 0.50280 0.00300
C 	C 	0.37630 0.50370 0.50860 -0.05800
C 	C 	0.32590 0.48050 0.52160 -0.03000
C 	C 	0.33980 0.44010 0.53000 -0.04300
C 	C 	0.38830 0.41250 0.52420 -0.01800
C 	C 	0.57640 0.35710 0.44360 0.39700
C 	C 	0.55300 0.30950 0.40540 -0.00300
C 	C 	0.57270 0.34990 0.40910 -0.09200
C 	C 	0.58250 0.37370 0.38200 0.02000
C 	C 	0.57460 0.35440 0.35070 -0.07400
C 	C 	0.55210 0.31340 0.34860 -0.00500
C 	C 	0.54310 0.29030 0.37520 -0.06700
C 	C 	0.17540 0.21060 0.47360 0.32100
C 	C 	0.19320 0.25740 0.47150 -0.04200
C 	C 	0.25200 0.24720 0.46850 -0.05200
C 	C 	0.29630 0.27910 0.46530 -0.04300
C 	C 	0.25810 0.31560 0.46860 -0.02400
C 	C 	0.19710 0.32700 0.47100 -0.05200
C 	C 	0.15500 0.29250 0.47450 -0.02500
C 	C 	0.75360 0.40670 0.47510 0.35700
C 	C 	0.80400 0.39740 0.45360 -0.17000
C 	C 	0.80390 0.41510 0.42370 0.10200
C 	C 	0.84510 0.40430 0.40080 -0.19100
C 	C 	0.89200 0.38910 0.41440 0.11900
C 	C 	0.90090 0.37030 0.44430 -0.20100
C 	C 	0.85430 0.37700 0.46210 0.12000
C 	C 	0.43420 0.17310 0.29790 0.23200
C 	C 	0.08210 0.26870 0.03750 0.11900
N 	N 	0.53560 0.32210 0.01160 -0.19300
N 	N 	0.76560 0.12030 0.92850 -0.20300
N 	N 	0.39640 0.49760 0.95110 -0.19400
N 	N 	0.63080 0.21020 0.95140 -0.14500
N 	N 	0.57140 0.17490 0.91310 -0.14600
N 	N 	0.52770 0.22680 0.94640 -0.13900
N 	N 	0.30000 0.47620 0.86910 -0.15200
N 	N 	0.34290 0.53830 0.84430 -0.15600
N 	N 	0.26980 0.49790 0.81880 -0.15400
N 	N 	0.15390 0.39400 0.81610 -0.19600
N 	N 	0.10050 0.33480 0.65650 -0.21200
N 	N 	0.11720 0.93170 0.75330 -0.20600
N 	N 	0.01690 0.29420 0.55640 -0.16000
N 	N 	0.97300 0.34620 0.58940 -0.14200
N 	N 	0.91680 0.31760 0.54370 -0.15500
N 	N 	0.16220 0.98810 0.66640 -0.14600
N 	N 	0.19260 0.04990 0.64320 -0.15900
N 	N 	0.22500 0.03220 0.69380 -0.16700
N 	N 	0.11180 0.02380 0.55530 -0.19900
N 	N 	0.33480 0.13740 0.69800 -0.20300
N 	N 	0.76560 0.38480 0.57020 -0.18900
N 	N 	0.42440 0.16940 0.85640 -0.18500
N 	N 	0.37100 0.59930 0.75690 -0.17600
N 	N 	0.00780 0.20510 0.48630 -0.19100
N 	N 	0.96440 0.67790 0.51160 -0.19400
N 	N 	0.73440 0.87970 0.42850 -0.20300
N 	N 	0.10360 0.50240 0.45110 -0.19400
N 	N 	0.86920 0.78980 0.45140 -0.14500
N 	N 	0.92860 0.82510 0.41310 -0.14600
N 	N 	0.97230 0.77320 0.44640 -0.14000
N 	N 	0.20000 0.52380 0.36910 -0.15200
N 	N 	0.15710 0.46170 0.34430 -0.15600
N 	N 	0.23020 0.50210 0.31880 -0.15400
N 	N 	0.34610 0.60600 0.31610 -0.19600
N 	N 	0.39950 0.66520 0.15650 -0.21200
N 	N 	0.38280 0.06830 0.25330 -0.20600
N 	N 	0.48310 0.70580 0.05640 -0.16100
N 	N 	0.52700 0.65380 0.08940 -0.14100
N 	N 	0.58320 0.68240 0.04370 -0.15600
N 	N 	0.33780 0.01190 0.16640 -0.14600
N 	N 	0.30740 0.95010 0.14320 -0.15900
N 	N 	0.27500 0.96780 0.19380 -0.16700
N 	N 	0.38820 0.97620 0.05530 -0.19900
N 	N 	0.16520 0.86260 0.19800 -0.20300
N 	N 	0.73440 0.61520 0.07020 -0.18900
N 	N 	0.07560 0.83060 0.35640 -0.18600
N 	N 	0.12900 0.40070 0.25690 -0.17600
N 	N 	0.49220 0.79490 0.98630 -0.19100
N 	N 	0.46440 0.82210 0.48840 -0.19300
N 	N 	0.23440 0.62030 0.57150 -0.20300
N 	N 	0.60360 0.99760 0.54890 -0.19400
N 	N 	0.36920 0.71020 0.54860 -0.14500
N 	N 	0.42860 0.67490 0.58690 -0.14600
N 	N 	0.47230 0.72680 0.55360 -0.13900
N 	N 	0.70000 0.97620 0.63090 -0.15200
N 	N 	0.65710 0.03830 0.65570 -0.15600
N 	N 	0.73020 0.99790 0.68120 -0.15400
N 	N 	0.84610 0.89400 0.68390 -0.19600
N 	N 	0.89950 0.83480 0.84350 -0.21200
N 	N 	0.88280 0.43170 0.74670 -0.20600
N 	N 	0.98310 0.79420 0.94360 -0.16200
N 	N 	0.02700 0.84620 0.91060 -0.13900
N 	N 	0.08320 0.81760 0.95630 -0.15600
N 	N 	0.83780 0.48810 0.83360 -0.14600
N 	N 	0.80740 0.54990 0.85680 -0.15900
N 	N 	0.77500 0.53220 0.80620 -0.16700
N 	N 	0.88820 0.52380 0.94470 -0.19900
N 	N 	0.66520 0.63740 0.80200 -0.20300
N 	N 	0.23440 0.88480 0.92980 -0.18900
N 	N 	0.57560 0.66940 0.64360 -0.18500
N 	N 	0.62900 0.09930 0.74310 -0.17600
N 	N 	0.99220 0.70510 0.01370 -0.19200
N 	N 	0.03560 0.17790 0.98840 -0.19100
N 	N 	0.26560 0.37970 0.07150 -0.20300
N 	N 	0.89640 0.00240 0.04890 -0.19400
N 	N 	0.13080 0.28980 0.04860 -0.14500
N 	N 	0.07140 0.32510 0.08690 -0.14700
N 	N 	0.02770 0.27320 0.05360 -0.13900
N 	N 	0.80000 0.02380 0.13090 -0.15200
N 	N 	0.84290 0.96170 0.15570 -0.15600
N 	N 	0.76980 0.00210 0.18120 -0.15400
N 	N 	0.65390 0.10600 0.18390 -0.19600
N 	N 	0.60050 0.16520 0.34350 -0.21200
N 	N 	0.61720 0.56830 0.24670 -0.20600
N 	N 	0.51690 0.20580 0.44360 -0.16100
N 	N 	0.47300 0.15380 0.41060 -0.14100
N 	N 	0.41680 0.18240 0.45630 -0.15600
N 	N 	0.66220 0.51190 0.33360 -0.14600
N 	N 	0.69260 0.45010 0.35680 -0.15900
N 	N 	0.72500 0.46780 0.30620 -0.16700
N 	N 	0.61180 0.47620 0.44470 -0.19900
N 	N 	0.83480 0.36260 0.30200 -0.20300
N 	N 	0.26560 0.11520 0.42980 -0.18900
N 	N 	0.92440 0.33060 0.14360 -0.18500
N 	N 	0.87100 0.90070 0.24310 -0.17600
N 	N 	0.50780 0.29490 0.51370 -0.19100
O 	O 	0.42260 0.30950 0.00920 -0.47000
O 	O 	0.40060 0.40040 0.01210 -0.67700
O 	O 	0.33290 0.32610 0.03490 -0.36700
O 	O 	0.04800 0.38600 0.73858 -0.67600
O 	O 	0.47370 0.35710 0.05910 -0.43500
O 	O 	0.12590 0.11620 0.49010 -0.68000
O 	O 	0.38960 0.38210 0.07830 -0.41300
O 	O 	0.45790 0.13760 0.76770 -0.67500
O 	O 	0.77430 0.10760 0.99280 -0.43900
O 	O 	0.81380 0.05740 0.02630 -0.41300
O 	O 	0.82650 0.05050 0.94830 -0.41800
O 	O 	0.87640 0.00870 0.98390 -0.42500
O 	O 	0.41760 0.41370 0.94450 -0.43700
O 	O 	0.47000 0.35910 0.96360 -0.43000
O 	O 	0.48720 0.46430 0.99260 -0.40900
O 	O 	0.52930 0.40540 0.01300 -0.47700
O 	O 	0.17150 0.40760 0.75120 -0.37100
O 	O 	0.15980 0.38320 0.69960 -0.37800
O 	O 	0.12360 0.32920 0.77290 -0.43700
O 	O 	0.10710 0.30880 0.72030 -0.40400
O 	O 	0.04960 0.41150 0.67590 -0.40300
O 	O 	0.96560 0.43270 0.69800 -0.39800
O 	O 	0.99420 0.33330 0.69430 -0.34900
O 	O 	0.92400 0.35730 0.72610 -0.35100
O 	O 	0.99270 0.46020 0.76160 -0.42700
O 	O 	0.08860 0.45490 0.78150 -0.37200
O 	O 	0.94830 0.38200 0.78770 -0.39500
O 	O 	0.04220 0.37350 0.81020 -0.41500
O 	O 	0.18770 0.05700 0.45070 -0.42200
O 	O 	0.13650 0.02280 0.49150 -0.42000
O 	O 	0.25580 0.11290 0.49750 -0.40300
O 	O 	0.20730 0.07410 0.53450 -0.40800
O 	O 	0.03520 0.06020 0.51240 -0.40300
O 	O 	-0.00000 0.11640 0.48630 -0.41800
O 	O 	0.10080 0.10780 0.55730 -0.43000
O 	O 	0.05980 0.16380 0.53340 -0.44600
O 	O 	0.62330 0.29400 0.51360 -0.40700
O 	O 	0.70630 0.32040 0.53540 -0.41000
O 	O 	0.56430 0.34080 0.56420 -0.39600
O 	O 	0.64880 0.37560 0.57970 -0.38400
O 	O 	0.34020 0.10920 0.75950 -0.43200
O 	O 	0.35980 0.12150 0.81240 -0.38500
O 	O 	0.36640 0.19270 0.74700 -0.48000
O 	O 	0.39340 0.20410 0.79500 -0.48600
O 	O 	0.55260 0.66310 0.79900 -0.41200
O 	O 	0.46120 0.64500 0.79050 -0.43400
O 	O 	0.58130 0.57740 0.78120 -0.38100
O 	O 	0.48860 0.56350 0.76310 -0.40100
O 	O 	0.55570 0.09240 0.79680 -0.40100
O 	O 	0.47910 0.10590 0.82930 -0.40700
O 	O 	0.57860 0.16940 0.77360 -0.42000
O 	O 	0.51590 0.18570 0.81390 -0.40900
O 	O 	0.07740 0.69050 0.50920 -0.47000
O 	O 	0.09940 0.59960 0.51210 -0.67700
O 	O 	0.16710 0.67390 0.53490 -0.36700
O 	O 	0.45200 0.61400 0.23858 -0.67800
O 	O 	0.02630 0.64290 0.55910 -0.43200
O 	O 	0.37410 0.88380 0.99010 -0.68000
O 	O 	0.11040 0.61790 0.57830 -0.41200
O 	O 	0.04210 0.86240 0.26770 -0.67300
O 	O 	0.72570 0.89240 0.49280 -0.43900
O 	O 	0.68620 0.94260 0.52630 -0.41300
O 	O 	0.67350 0.94950 0.44830 -0.41800
O 	O 	0.62360 0.99130 0.48390 -0.42400
O 	O 	0.08240 0.58630 0.44450 -0.43700
O 	O 	0.03000 0.64090 0.46360 -0.42900
O 	O 	0.01280 0.53570 0.49260 -0.40700
O 	O 	0.97070 0.59460 0.51300 -0.47700
O 	O 	0.32850 0.59240 0.25120 -0.37100
O 	O 	0.34020 0.61680 0.19960 -0.37800
O 	O 	0.37640 0.67080 0.27290 -0.43700
O 	O 	0.39290 0.69120 0.22030 -0.40400
O 	O 	0.45040 0.58850 0.17590 -0.40200
O 	O 	0.53440 0.56730 0.19800 -0.39400
O 	O 	0.50580 0.66670 0.19430 -0.34700
O 	O 	0.57600 0.64270 0.22610 -0.35000
O 	O 	0.50730 0.53980 0.26160 -0.42400
O 	O 	0.41140 0.54510 0.28150 -0.37200
O 	O 	0.55170 0.61800 0.28770 -0.39600
O 	O 	0.45780 0.62650 0.31020 -0.41900
O 	O 	0.31230 0.94300 0.95070 -0.42300
O 	O 	0.36350 0.97720 0.99150 -0.42000
O 	O 	0.24420 0.88710 0.99750 -0.40300
O 	O 	0.29270 0.92590 0.03450 -0.40800
O 	O 	0.46480 0.93980 0.01240 -0.40600
O 	O 	0.50000 0.88360 0.98630 -0.42300
O 	O 	0.39920 0.89220 0.05730 -0.43000
O 	O 	0.44020 0.83620 0.03340 -0.44700
O 	O 	0.87670 0.70600 0.01360 -0.40700
O 	O 	0.79370 0.67960 0.03540 -0.41000
O 	O 	0.93570 0.65920 0.06420 -0.39800
O 	O 	0.85120 0.62440 0.07970 -0.38500
O 	O 	0.15980 0.89080 0.25950 -0.43200
O 	O 	0.14020 0.87850 0.31240 -0.38500
O 	O 	0.13360 0.80730 0.24700 -0.47900
O 	O 	0.10660 0.79590 0.29500 -0.48600
O 	O 	0.94740 0.33690 0.29900 -0.41400
O 	O 	0.03880 0.35500 0.29050 -0.43400
O 	O 	0.91870 0.42260 0.28120 -0.38100
O 	O 	0.01140 0.43650 0.26310 -0.39800
O 	O 	0.94430 0.90760 0.29680 -0.40000
O 	O 	0.02090 0.89410 0.32930 -0.40400
O 	O 	0.92140 0.83060 0.27360 -0.42100
O 	O 	0.98410 0.81430 0.31390 -0.41100
O 	O 	0.57740 0.80950 0.49080 -0.47000
O 	O 	0.59940 0.90040 0.48790 -0.67700
O 	O 	0.66710 0.82610 0.46510 -0.36700
O 	O 	0.95200 0.88600 0.76142 -0.67900
O 	O 	0.52630 0.85710 0.44090 -0.43500
O 	O 	0.87410 0.61620 0.00990 -0.68100
O 	O 	0.61040 0.88210 0.42170 -0.41300
O 	O 	0.54210 0.63760 0.73230 -0.67500
O 	O 	0.22570 0.60760 0.50720 -0.43900
O 	O 	0.18620 0.55740 0.47370 -0.41300
O 	O 	0.17350 0.55050 0.55170 -0.41800
O 	O 	0.12360 0.50870 0.51610 -0.42400
O 	O 	0.58240 0.91370 0.55550 -0.43700
O 	O 	0.53000 0.85910 0.53640 -0.43100
O 	O 	0.51280 0.96430 0.50740 -0.40900
O 	O 	0.47070 0.90540 0.48700 -0.47700
O 	O 	0.82850 0.90760 0.74880 -0.37100
O 	O 	0.84020 0.88320 0.80040 -0.37800
O 	O 	0.87640 0.82920 0.72710 -0.43800
O 	O 	0.89290 0.80880 0.77970 -0.40500
O 	O 	0.95040 0.91150 0.82410 -0.40100
O 	O 	0.03440 0.93270 0.80200 -0.39100
O 	O 	0.00580 0.83330 0.80570 -0.34600
O 	O 	0.07600 0.85730 0.77390 -0.35000
O 	O 	0.00730 0.96020 0.73840 -0.42100
O 	O 	0.91140 0.95490 0.71850 -0.37200
O 	O 	0.05170 0.88200 0.71230 -0.39800
O 	O 	0.95780 0.87350 0.68980 -0.42200
O 	O 	0.81230 0.55700 0.04930 -0.42300
O 	O 	0.86350 0.52280 0.00850 -0.42000
O 	O 	0.74420 0.61290 0.00250 -0.40300
O 	O 	0.79270 0.57410 0.96550 -0.40800
O 	O 	0.96480 0.56020 0.98760 -0.40900
O 	O 	0.00000 0.61640 0.01370 -0.42200
O 	O 	0.89920 0.60780 0.94270 -0.43000
O 	O 	0.94020 0.66380 0.96660 -0.44700
O 	O 	0.37670 0.79400 0.98640 -0.40700
O 	O 	0.29370 0.82040 0.96460 -0.41000
O 	O 	0.43570 0.84080 0.93580 -0.39600
O 	O 	0.35120 0.87560 0.92030 -0.38400
O 	O 	0.65980 0.60920 0.74050 -0.43200
O 	O 	0.64020 0.62150 0.68760 -0.38500
O 	O 	0.63360 0.69270 0.75300 -0.47900
O 	O 	0.60660 0.70410 0.70500 -0.48600
O 	O 	0.44740 0.16310 0.70100 -0.41200
O 	O 	0.53880 0.14500 0.70950 -0.43400
O 	O 	0.41870 0.07740 0.71880 -0.38100
O 	O 	0.51140 0.06350 0.73690 -0.40100
O 	O 	0.44430 0.59240 0.70320 -0.40100
O 	O 	0.52090 0.60590 0.67070 -0.40700
O 	O 	0.42140 0.66940 0.72640 -0.42000
O 	O 	0.48410 0.68570 0.68610 -0.40900
O 	O 	0.92260 0.19050 0.99080 -0.47100
O 	O 	0.90060 0.09960 0.98790 -0.67700
O 	O 	0.83290 0.17390 0.96510 -0.36700
O 	O 	0.54800 0.11400 0.26142 -0.67800
O 	O 	0.97370 0.14290 0.94090 -0.43700
O 	O 	0.62590 0.38380 0.50990 -0.68000
O 	O 	0.88960 0.11790 0.92170 -0.41300
O 	O 	0.95790 0.36240 0.23230 -0.67600
O 	O 	0.27430 0.39240 0.00720 -0.43900
O 	O 	0.31380 0.44260 0.97370 -0.41300
O 	O 	0.32650 0.44950 0.05170 -0.41800
O 	O 	0.37640 0.49130 0.01610 -0.42400
O 	O 	0.91760 0.08630 0.05550 -0.43700
O 	O 	0.97000 0.14090 0.03640 -0.43200
O 	O 	0.98720 0.03570 0.00740 -0.41200
O 	O 	0.02930 0.09460 0.98700 -0.47600
O 	O 	0.67150 0.09240 0.24880 -0.37100
O 	O 	0.65980 0.11680 0.30040 -0.37800
O 	O 	0.62360 0.17080 0.22710 -0.43700
O 	O 	0.60710 0.19120 0.27970 -0.40400
O 	O 	0.54960 0.08850 0.32410 -0.40200
O 	O 	0.46560 0.06730 0.30200 -0.39400
O 	O 	0.49420 0.16670 0.30570 -0.34700
O 	O 	0.42400 0.14270 0.27390 -0.35000
O 	O 	0.49270 0.03980 0.23840 -0.42400
O 	O 	0.58860 0.04510 0.21850 -0.37200
O 	O 	0.44830 0.11800 0.21230 -0.39600
O 	O 	0.54220 0.12650 0.18980 -0.41900
O 	O 	0.68770 0.44300 0.54930 -0.42300
O 	O 	0.63650 0.47720 0.50850 -0.42000
O 	O 	0.75580 0.38710 0.50250 -0.40300
O 	O 	0.70730 0.42590 0.46550 -0.40800
O 	O 	0.53520 0.43980 0.48760 -0.40600
O 	O 	0.50000 0.38360 0.51370 -0.42300
O 	O 	0.60080 0.39220 0.44270 -0.43000
O 	O 	0.55980 0.33620 0.46660 -0.44700
O 	O 	0.12330 0.20600 0.48640 -0.40700
O 	O 	0.20630 0.17960 0.46460 -0.41000
O 	O 	0.06430 0.15920 0.43580 -0.39600
O 	O 	0.14880 0.12440 0.42030 -0.38400
O 	O 	0.84020 0.39080 0.24050 -0.43200
O 	O 	0.85980 0.37850 0.18760 -0.38500
O 	O 	0.86640 0.30730 0.25300 -0.48000
O 	O 	0.89340 0.29590 0.20500 -0.48700
O 	O 	0.05260 0.83690 0.20100 -0.41000
O 	O 	0.96120 0.85500 0.20950 -0.43400
O 	O 	0.08130 0.92260 0.21880 -0.38000
O 	O 	0.98860 0.93650 0.23690 -0.40300
O 	O 	0.05570 0.40760 0.20320 -0.40100
O 	O 	0.97910 0.39410 0.17070 -0.41000
O 	O 	0.07860 0.33060 0.22640 -0.42000
O 	O 	0.01590 0.31430 0.18610 -0.40800
