data_crystal

_cell_length_a 45.56460
_cell_length_b 45.56460
_cell_length_c 45.56460
_cell_angle_alpha 94.94210
_cell_angle_beta  94.94210
_cell_angle_gamma 145.86300

_symmetry_space_group_name_	'P 1'
_symmetry_space_group_name_H-M	'P 1'

loop_
_symmetry_equiv_pos_as_xyz
  x,y,z

loop_
_atom_site_label
_atom_site_type_symbol
_atom_site_fract_x
_atom_site_fract_y
_atom_site_fract_z
_atom_site_charge
Ag	Ag	0.00757 0.52443 0.06614 0.45800
Ag	Ag	0.02841 0.48058 0.02171 0.43000
Ag	Ag	0.56518 0.58113 0.98827 0.43100
Ag	Ag	0.09756 0.23329 0.33403 0.43600
Ag	Ag	0.11934 0.18804 0.29598 0.42500
Ag	Ag	0.99075 0.10843 0.27848 0.46600
Ag	Ag	0.27595 0.01468 0.91693 0.43500
Ag	Ag	0.22419 0.00422 0.85033 0.42400
Ag	Ag	0.15420 0.94757 0.90347 0.46200
Ag	Ag	0.46812 0.35627 0.66289 0.42600
Ag	Ag	0.43828 0.27139 0.68935 0.43400
Ag	Ag	0.36615 0.22551 0.61490 0.46300
Ag	Ag	0.96615 0.35206 0.19565 0.42900
Ag	Ag	0.85210 0.29314 0.17856 0.43300
Ag	Ag	0.90108 0.31838 0.25252 0.46500
Ag	Ag	0.87793 0.83773 0.15328 0.45400
Ag	Ag	0.92588 0.85334 0.22276 0.44300
Ag	Ag	0.82270 0.72900 0.17248 0.41500
Ag	Ag	0.70746 0.53566 0.38324 0.41700
Ag	Ag	0.78683 0.59948 0.33637 0.44500
Ag	Ag	0.76088 0.64492 0.36526 0.44800
Ag	Ag	0.60237 0.20866 0.23141 0.43300
Ag	Ag	0.58071 0.25392 0.26731 0.43400
Ag	Ag	0.71330 0.33970 0.28278 0.44100
Ag	Ag	0.14117 0.83500 0.07591 0.43700
Ag	Ag	0.25108 0.96696 0.11228 0.44200
Ag	Ag	0.21862 0.87859 0.14547 0.44500
Ag	Ag	0.51518 0.47488 0.49482 0.41700
Ag	Ag	0.46818 0.47702 0.43512 0.44700
Ag	Ag	0.38588 0.39273 0.47989 0.45000
N 	N 	0.97548 0.45700 0.07028 -0.21800
N 	N 	0.98780 0.44250 0.05430 -0.22700
N 	N 	0.58430 0.57770 0.05160 -0.23600
N 	N 	0.60837 0.60038 0.02835 -0.23100
N 	N 	0.07076 0.62010 0.04406 -0.22700
N 	N 	0.04772 0.59720 0.06752 -0.21700
N 	N 	0.17200 0.27538 0.34838 -0.22800
N 	N 	0.18176 0.25905 0.33141 -0.23500
N 	N 	0.05471 0.11156 0.26467 -0.22100
N 	N 	0.00388 0.08024 0.25572 -0.20600
N 	N 	0.16932 0.47649 0.34501 -0.21700
N 	N 	0.19529 0.52025 0.33534 -0.22000
N 	N 	0.31729 0.04595 0.88384 -0.23500
N 	N 	0.29603 0.04197 0.85760 -0.23800
N 	N 	0.45959 0.11875 0.81174 -0.22300
N 	N 	0.43450 0.07253 0.81523 -0.21600
N 	N 	0.18360 0.95217 0.94317 -0.22300
N 	N 	0.23360 0.98120 0.94900 -0.22400
N 	N 	0.50645 0.38268 0.70793 -0.24000
N 	N 	0.49598 0.34775 0.71853 -0.23400
N 	N 	0.69546 0.53417 0.81303 -0.22600
N 	N 	0.67433 0.54176 0.82369 -0.21700
N 	N 	0.39347 0.28445 0.59812 -0.20300
N 	N 	0.43455 0.33450 0.61765 -0.22100
N 	N 	0.94128 0.34676 0.15284 -0.23300
N 	N 	0.89180 0.31861 0.14501 -0.23000
N 	N 	0.81628 0.28076 0.21084 -0.22200
N 	N 	0.83676 0.29359 0.24175 -0.21100
N 	N 	0.97177 0.35307 0.26264 -0.21200
N 	N 	0.99609 0.36551 0.23940 -0.22900
N 	N 	0.93722 0.91236 0.18618 -0.21400
N 	N 	0.95861 0.91889 0.21370 -0.21900
N 	N 	0.88552 0.78778 0.23850 -0.21600
N 	N 	0.84540 0.73800 0.21760 -0.23200
N 	N 	0.78994 0.71695 0.12949 -0.23100
N 	N 	0.80880 0.75948 0.12348 -0.21800
N 	N 	0.72074 0.50594 0.36328 -0.23000
N 	N 	0.75020 0.53102 0.34202 -0.22200
N 	N 	0.81611 0.66055 0.32206 -0.22600
N 	N 	0.80398 0.67839 0.33257 -0.22300
N 	N 	0.70816 0.60274 0.39230 -0.21800
N 	N 	0.68851 0.56057 0.39948 -0.23200
N 	N 	0.52400 0.15960 0.22080 -0.22500
N 	N 	0.51700 0.17997 0.23517 -0.22600
N 	N 	0.64347 0.33023 0.29730 -0.23200
N 	N 	0.69640 0.36498 0.30418 -0.22500
N 	N 	0.72561 0.31110 0.25911 -0.22700
N 	N 	0.68097 0.25853 0.24150 -0.22800
N 	N 	0.16946 0.88837 0.05243 -0.22200
N 	N 	0.21120 0.94190 0.06750 -0.22400
N 	N 	0.30005 0.99513 0.15258 -0.22700
N 	N 	0.29102 0.96318 0.16600 -0.22400
N 	N 	0.15508 0.79825 0.11933 -0.22000
N 	N 	0.12220 0.78170 0.09350 -0.23200
N 	N 	0.56569 0.52507 0.46856 -0.23600
N 	N 	0.54524 0.52266 0.44230 -0.21500
N 	N 	0.38729 0.42252 0.42381 -0.21800
N 	N 	0.35570 0.39227 0.44257 -0.21800
N 	N 	0.41105 0.38282 0.51167 -0.21400
N 	N 	0.46256 0.41577 0.51733 -0.22700
C 	C 	0.93980 0.44240 0.11340 -0.47300
C 	C 	0.95480 0.43150 0.09170 0.16500
C 	C 	0.95450 0.40140 0.09190 -0.12600
C 	C 	0.97370 0.40650 0.06680 0.17300
C 	C 	0.98180 0.38370 0.05530 -0.51600
C 	C 	0.60840 0.58500 0.10400 -0.48800
C 	C 	0.62300 0.60170 0.07590 0.16300
C 	C 	0.67300 0.64110 0.06930 -0.12100
C 	C 	0.66130 0.63870 0.03920 0.15000
C 	C 	0.69830 0.67000 0.01830 -0.47600
C 	C 	0.12450 0.70150 0.02840 -0.48800
C 	C 	0.09460 0.66750 0.04950 0.15800
C 	C 	0.08730 0.67510 0.07580 -0.11200
C 	C 	0.05840 0.63040 0.08660 0.15100
C 	C 	0.03810 0.61600 0.11510 -0.46500
C 	C 	0.21540 0.34198 0.39498 -0.52000
C 	C 	0.21457 0.31537 0.37394 0.18000
C 	C 	0.25250 0.32459 0.37409 -0.12100
C 	C 	0.22918 0.28750 0.34708 0.13500
C 	C 	0.25020 0.27660 0.33460 -0.47500
C 	C 	0.10390 0.10630 0.25860 -0.47600
C 	C 	0.05370 0.08228 0.25238 0.14600
C 	C 	0.00081 0.03060 0.23541 -0.10400
C 	C 	0.97050 0.03110 0.23780 0.14700
C 	C 	0.91150 0.98810 0.22500 -0.45500
C 	C 	0.07900 0.37690 0.33330 -0.50000
C 	C 	0.11720 0.43040 0.32800 0.16700
C 	C 	0.10800 0.44441 0.30701 -0.11800
C 	C 	0.15618 0.49940 0.31218 0.15600
C 	C 	0.17020 0.53660 0.29760 -0.47500
C 	C 	0.38690 0.06930 0.90520 -0.51600
C 	C 	0.35660 0.06140 0.88000 0.18300
C 	C 	0.36430 0.07000 0.85170 -0.13200
C 	C 	0.32510 0.05680 0.83790 0.14000
C 	C 	0.31170 0.05680 0.80670 -0.47000
C 	C 	0.45880 0.17160 0.82380 -0.48000
C 	C 	0.43980 0.12519 0.82459 0.15500
C 	C 	0.39990 0.08194 0.83684 -0.11000
C 	C 	0.39890 0.05050 0.83060 0.16500
C 	C 	0.36180 0.99780 0.83720 -0.47900
C 	C 	0.10820 0.89470 0.96650 -0.51700
C 	C 	0.16310 0.93080 0.96610 0.17200
C 	C 	0.20040 0.94580 0.98840 -0.10900
C 	C 	0.24460 0.97850 0.97590 0.15200
C 	C 	0.29540 0.00440 0.98880 -0.47900
C 	C 	0.57040 0.47840 0.72380 -0.48800
C 	C 	0.54824 0.43076 0.72900 0.14900
C 	C 	0.56560 0.42820 0.75360 -0.12700
C 	C 	0.53070 0.37420 0.74610 0.17100
C 	C 	0.52880 0.34670 0.76290 -0.50500
C 	C 	0.67120 0.47610 0.76910 -0.47400
C 	C 	0.65870 0.49210 0.78700 0.15200
C 	C 	0.61330 0.47260 0.78030 -0.11100
C 	C 	0.62435 0.50460 0.80415 0.16300
C 	C 	0.59120 0.50210 0.80930 -0.49900
C 	C 	0.33320 0.23290 0.54510 -0.46900
C 	C 	0.38070 0.28480 0.57010 0.15000
C 	C 	0.41750 0.33880 0.57210 -0.09900
C 	C 	0.44890 0.36750 0.60260 0.13700
C 	C 	0.49400 0.42740 0.61760 -0.45200
C 	C 	0.02770 0.41560 0.13750 -0.46200
C 	C 	0.97070 0.37860 0.13390 0.13200
C 	C 	0.93750 0.36920 0.11310 -0.10800
C 	C 	0.88840 0.33130 0.12090 0.16000
C 	C 	0.83830 0.30640 0.10770 -0.48900
C 	C 	0.75820 0.26710 0.17770 -0.45000
C 	C 	0.78630 0.27950 0.20900 0.14500
C 	C 	0.78470 0.29080 0.23730 -0.10600
C 	C 	0.81861 0.30082 0.25803 0.15200
C 	C 	0.83440 0.31650 0.29210 -0.48600
C 	C 	0.99080 0.36990 0.31850 -0.47700
C 	C 	0.00700 0.37770 0.28970 0.15500
C 	C 	0.05608 0.40746 0.28414 -0.11200
C 	C 	0.04610 0.39780 0.25310 0.15700
C 	C 	0.08340 0.41960 0.23380 -0.48500
C 	C 	0.93350 0.95740 0.16350 -0.49000
C 	C 	0.95040 0.95290 0.18970 0.15500
C 	C 	0.97920 0.98440 0.22040 -0.11100
C 	C 	0.98410 0.96210 0.23420 0.15200
C 	C 	0.00890 0.97710 0.26720 -0.47100
C 	C 	0.92560 0.83160 0.29360 -0.47000
C 	C 	0.88395 0.78111 0.26586 0.16000
C 	C 	0.84360 0.72740 0.26460 -0.10500
C 	C 	0.81890 0.70050 0.23300 0.14200
C 	C 	0.77220 0.64150 0.21750 -0.46600
C 	C 	0.70910 0.61660 0.11170 -0.48200
C 	C 	0.74000 0.66980 0.11040 0.14800
C 	C 	0.72680 0.68150 0.09170 -0.11800
C 	C 	0.77100 0.73750 0.10090 0.17100
C 	C 	0.78090 0.77430 0.08900 -0.47800
C 	C 	0.66460 0.42480 0.38080 -0.48600
C 	C 	0.69950 0.46030 0.36160 0.15000
C 	C 	0.71360 0.45490 0.33830 -0.11100
C 	C 	0.74560 0.50060 0.32760 0.16400
C 	C 	0.77040 0.51520 0.30140 -0.48000
C 	C 	0.84780 0.66310 0.28090 -0.49200
C 	C 	0.83160 0.67660 0.29720 0.17400
C 	C 	0.83096 0.70440 0.29056 -0.12800
C 	C 	0.81250 0.70450 0.31400 0.17100
C 	C 	0.80110 0.72680 0.31830 -0.49800
C 	C 	0.70410 0.65280 0.40390 -0.48100
C 	C 	0.68670 0.60733 0.40583 0.16300
C 	C 	0.65077 0.56754 0.42031 -0.10800
C 	C 	0.65299 0.53850 0.41589 0.12200
C 	C 	0.62230 0.48850 0.42480 -0.44500
C 	C 	0.46990 0.07590 0.18220 -0.45400
C 	C 	0.47600 0.10980 0.20220 0.13200
C 	C 	0.43480 0.09600 0.20420 -0.09800
C 	C 	0.46400 0.14270 0.22590 0.15200
C 	C 	0.44400 0.15400 0.23780 -0.47700
C 	C 	0.59050 0.33030 0.30520 -0.45700
C 	C 	0.64320 0.35740 0.31000 0.14300
C 	C 	0.69600 0.41060 0.32540 -0.11600
C 	C 	0.72770 0.41310 0.32100 0.17000
C 	C 	0.78740 0.45810 0.33250 -0.49700
C 	C 	0.82500 0.38860 0.27620 -0.49200
C 	C 	0.76980 0.33080 0.26080 0.15900
C 	C 	0.75360 0.29060 0.24400 -0.11800
C 	C 	0.69690 0.24546 0.23196 0.14900
C 	C 	0.65450 0.18840 0.21150 -0.47800
C 	C 	0.11330 0.82700 0.99890 -0.47200
C 	C 	0.15860 0.88240 0.02240 0.15900
C 	C 	0.19400 0.93170 0.01770 -0.12100
C 	C 	0.22770 0.96920 0.04630 0.16300
C 	C 	0.27460 0.02960 0.05560 -0.49200
C 	C 	0.37710 0.09250 0.15660 -0.53200
C 	C 	0.35360 0.04780 0.16600 0.18600
C 	C 	0.37720 0.04750 0.18710 -0.13100
C 	C 	0.33580 0.99300 0.18640 0.16600
C 	C 	0.33780 0.96840 0.20400 -0.48700
C 	C 	0.17590 0.76930 0.14280 -0.49400
C 	C 	0.14530 0.76180 0.11770 0.17100
C 	C 	0.10750 0.72120 0.08990 -0.12000
C 	C 	0.09340 0.73520 0.07560 0.15800
C 	C 	0.05330 0.70600 0.04550 -0.48800
C 	C 	0.63850 0.55070 0.48880 -0.46600
C 	C 	0.60740 0.54320 0.46440 0.14100
C 	C 	0.61508 0.55391 0.43579 -0.11400
C 	C 	0.57550 0.54046 0.42336 0.16400
C 	C 	0.56210 0.54220 0.39290 -0.47800
C 	C 	0.37650 0.42660 0.37050 -0.49500
C 	C 	0.35520 0.40310 0.39690 0.15600
C 	C 	0.30076 0.35916 0.39892 -0.10800
C 	C 	0.30460 0.35500 0.42820 0.15700
C 	C 	0.25960 0.31440 0.44320 -0.47800
C 	C 	0.33030 0.31030 0.53020 -0.49100
C 	C 	0.38660 0.34930 0.52990 0.16700
C 	C 	0.42400 0.36190 0.54790 -0.11800
C 	C 	0.47040 0.40365 0.53925 0.14200
C 	C 	0.52460 0.43340 0.54900 -0.46700
H 	H 	0.94510 0.46640 0.10710 0.11300
H 	H 	0.96300 0.46010 0.13430 0.12900
H 	H 	0.90160 0.40790 0.11290 0.13100
H 	H 	0.99680 0.39680 0.03780 0.12400
H 	H 	0.94680 0.34380 0.04860 0.14200
H 	H 	0.00730 0.39500 0.07150 0.14300
H 	H 	0.56930 0.55560 0.10070 0.11800
H 	H 	0.62910 0.61630 0.12080 0.13200
H 	H 	0.61710 0.57210 0.10960 0.13900
H 	H 	0.67720 0.65840 0.99820 0.11500
H 	H 	0.71280 0.66240 0.01560 0.14200
H 	H 	0.72830 0.70900 0.02730 0.13400
H 	H 	0.12160 0.68340 0.01180 0.11400
H 	H 	0.16290 0.73690 0.03960 0.13500
H 	H 	0.10890 0.70660 0.01970 0.13500
H 	H 	0.01890 0.58170 0.11600 0.11300
H 	H 	0.01330 0.61190 0.11420 0.13600
H 	H 	0.06930 0.64520 0.13350 0.13000
H 	H 	0.18200 0.32540 0.38760 0.12700
H 	H 	0.24720 0.38080 0.39620 0.15700
H 	H 	0.21760 0.33780 0.41540 0.14500
H 	H 	0.22490 0.24860 0.31490 0.11500
H 	H 	0.25300 0.26400 0.34920 0.13200
H 	H 	0.28610 0.31020 0.33190 0.13400
H 	H 	0.13470 0.14400 0.27170 0.10700
H 	H 	0.11150 0.10610 0.23920 0.13600
H 	H 	0.09890 0.08500 0.26910 0.13200
H 	H 	0.90420 0.00250 0.23110 0.11000
H 	H 	0.88970 0.95660 0.23270 0.12500
H 	H 	0.90140 0.97660 0.20240 0.12600
H 	H 	0.09840 0.38090 0.34950 0.12100
H 	H 	0.06340 0.35140 0.31440 0.14600
H 	H 	0.04970 0.36300 0.33970 0.13800
H 	H 	0.20870 0.57400 0.30670 0.11100
H 	H 	0.14770 0.53470 0.30100 0.12900
H 	H 	0.16330 0.52560 0.27550 0.13200
H 	H 	0.37150 0.05970 0.92260 0.12900
H 	H 	0.38400 0.04590 0.89790 0.14400
H 	H 	0.42530 0.10750 0.91160 0.15700
H 	H 	0.28170 0.04570 0.80440 0.11000
H 	H 	0.34390 0.09350 0.80420 0.13200
H 	H 	0.30090 0.03120 0.79090 0.13000
H 	H 	0.48730 0.19500 0.81330 0.10900
H 	H 	0.42810 0.15760 0.81290 0.13200
H 	H 	0.47350 0.19280 0.84490 0.12500
H 	H 	0.37090 0.98550 0.83040 0.11400
H 	H 	0.36590 0.00260 0.85930 0.13300
H 	H 	0.32390 0.97040 0.82610 0.13000
H 	H 	0.09180 0.89130 0.94830 0.13000
H 	H 	0.08560 0.85850 0.96650 0.14600
H 	H 	0.11060 0.90990 0.98490 0.14800
H 	H 	0.31890 0.02430 0.97520 0.11500
H 	H 	0.31470 0.02980 0.00910 0.13400
H 	H 	0.28600 0.97610 0.99070 0.13400
H 	H 	0.54870 0.46670 0.70420 0.11900
H 	H 	0.56850 0.49150 0.74040 0.14000
H 	H 	0.60840 0.50780 0.72360 0.13400
H 	H 	0.49900 0.30860 0.75100 0.12700
H 	H 	0.56350 0.36510 0.76620 0.13900
H 	H 	0.52300 0.34820 0.78280 0.15200
H 	H 	0.70660 0.49780 0.78000 0.10900
H 	H 	0.64290 0.43740 0.76650 0.13200
H 	H 	0.67260 0.48250 0.74890 0.13200
H 	H 	0.61090 0.53050 0.82800 0.12300
H 	H 	0.58380 0.50780 0.79180 0.14100
H 	H 	0.55670 0.46620 0.81170 0.13200
H 	H 	0.31700 0.20300 0.55220 0.11600
H 	H 	0.30600 0.22560 0.53940 0.13400
H 	H 	0.34530 0.23600 0.52710 0.13000
H 	H 	0.50900 0.43650 0.63930 0.09800
H 	H 	0.52280 0.44930 0.60730 0.12200
H 	H 	0.47930 0.43510 0.61600 0.12000
H 	H 	0.03780 0.41100 0.15420 0.11100
H 	H 	0.05290 0.45350 0.14240 0.12700
H 	H 	0.02990 0.40660 0.11830 0.12700
H 	H 	0.81170 0.28140 0.11910 0.12300
H 	H 	0.82260 0.28630 0.08610 0.15000
H 	H 	0.84760 0.33520 0.10920 0.13400
H 	H 	0.76540 0.25940 0.16140 0.10100
H 	H 	0.77230 0.29850 0.17660 0.12400
H 	H 	0.71880 0.23510 0.17490 0.12700
H 	H 	0.85820 0.32000 0.29960 0.12000
H 	H 	0.80150 0.28830 0.29900 0.13800
H 	H 	0.85370 0.35130 0.30000 0.13400
H 	H 	0.95370 0.34680 0.31370 0.11300
H 	H 	0.01610 0.40530 0.33260 0.13000
H 	H 	0.99160 0.35220 0.32820 0.13500
H 	H 	0.06420 0.40510 0.21210 0.11300
H 	H 	0.09450 0.40850 0.23700 0.14100
H 	H 	0.11570 0.45940 0.23970 0.13500
H 	H 	0.91370 0.92870 0.14500 0.12300
H 	H 	0.96590 0.99310 0.16000 0.14300
H 	H 	0.90980 0.95330 0.16810 0.13700
H 	H 	0.00540 0.95310 0.26950 0.11100
H 	H 	0.99010 0.97290 0.28020 0.13000
H 	H 	0.04760 0.01500 0.27340 0.13200
H 	H 	0.94890 0.86390 0.28640 0.11700
H 	H 	0.94810 0.83570 0.30580 0.14000
H 	H 	0.90650 0.82740 0.30630 0.13000
H 	H 	0.76480 0.63540 0.19520 0.10900
H 	H 	0.73990 0.62130 0.22360 0.12800
H 	H 	0.78100 0.62870 0.22350 0.12600
H 	H 	0.73080 0.62320 0.12780 0.11300
H 	H 	0.70130 0.59830 0.09180 0.13200
H 	H 	0.67460 0.59320 0.11600 0.13300
H 	H 	0.81700 0.81230 0.10050 0.11500
H 	H 	0.75300 0.76530 0.09150 0.13000
H 	H 	0.77900 0.76920 0.06720 0.13600
H 	H 	0.66290 0.44080 0.39470 0.11300
H 	H 	0.62790 0.38890 0.36780 0.13500
H 	H 	0.67990 0.42100 0.39290 0.13300
H 	H 	0.79110 0.54990 0.29960 0.11500
H 	H 	0.79490 0.51890 0.30540 0.13700
H 	H 	0.74150 0.48660 0.28230 0.13300
H 	H 	0.84450 0.64310 0.29180 0.11700
H 	H 	0.82370 0.64040 0.25990 0.13400
H 	H 	0.88550 0.69680 0.28030 0.14100
H 	H 	0.78900 0.72060 0.33680 0.12300
H 	H 	0.83440 0.76600 0.32040 0.14000
H 	H 	0.77250 0.70850 0.30040 0.13800
H 	H 	0.73000 0.67420 0.39160 0.11900
H 	H 	0.67210 0.63750 0.39420 0.13500
H 	H 	0.72150 0.67650 0.42460 0.14300
H 	H 	0.63410 0.47920 0.41750 0.09600
H 	H 	0.62960 0.49590 0.44710 0.12200
H 	H 	0.58300 0.45780 0.41520 0.12200
H 	H 	0.50550 0.09610 0.18560 0.11000
H 	H 	0.44440 0.04160 0.18760 0.12600
H 	H 	0.45580 0.06800 0.16060 0.12700
H 	H 	0.47470 0.19070 0.25220 0.11700
H 	H 	0.42720 0.15190 0.22070 0.13300
H 	H 	0.41690 0.12710 0.24840 0.14200
H 	H 	0.55990 0.29200 0.29350 0.10600
H 	H 	0.58530 0.33270 0.32520 0.12600
H 	H 	0.59230 0.34890 0.29380 0.12200
H 	H 	0.79620 0.44580 0.32500 0.12500
H 	H 	0.80700 0.48930 0.32510 0.14000
H 	H 	0.79850 0.46910 0.35500 0.14600
H 	H 	0.82260 0.40630 0.28610 0.12000
H 	H 	0.84390 0.39130 0.29160 0.13700
H 	H 	0.84530 0.40660 0.26090 0.13700
H 	H 	0.61830 0.16690 0.20800 0.11500
H 	H 	0.66260 0.19070 0.19190 0.13300
H 	H 	0.65520 0.17090 0.22170 0.14600
H 	H 	0.09490 0.79910 0.00940 0.12000
H 	H 	0.12880 0.82770 0.98470 0.13100
H 	H 	0.08690 0.81860 0.98730 0.13600
H 	H 	0.28900 0.04360 0.07800 0.12400
H 	H 	0.26230 0.03860 0.04830 0.14100
H 	H 	0.30330 0.04630 0.04660 0.13800
H 	H 	0.34920 0.07840 0.14080 0.13400
H 	H 	0.40710 0.11100 0.14830 0.14900
H 	H 	0.39100 0.11840 0.17440 0.15500
H 	H 	0.30160 0.92870 0.19810 0.11700
H 	H 	0.34840 0.98340 0.22600 0.13800
H 	H 	0.36440 0.97660 0.19920 0.13300
H 	H 	0.20000 0.80220 0.15920 0.12500
H 	H 	0.19780 0.77290 0.13450 0.13500
H 	H 	0.15000 0.73760 0.15080 0.14200
H 	H 	0.05280 0.72650 0.04170 0.11800
H 	H 	0.01700 0.66960 0.04600 0.14000
H 	H 	0.06380 0.70290 0.02910 0.13400
H 	H 	0.62300 0.53990 0.50630 0.10800
H 	H 	0.67680 0.58910 0.49570 0.12600
H 	H 	0.63620 0.52800 0.48060 0.12600
H 	H 	0.53120 0.52980 0.39120 0.11500
H 	H 	0.55230 0.51820 0.37630 0.13300
H 	H 	0.59370 0.57950 0.39120 0.13700
H 	H 	0.41600 0.45710 0.37630 0.12100
H 	H 	0.36780 0.43950 0.36510 0.13700
H 	H 	0.35940 0.39850 0.35290 0.13500
H 	H 	0.27530 0.32210 0.46420 0.11500
H 	H 	0.23370 0.27750 0.43140 0.13100
H 	H 	0.24070 0.31740 0.44370 0.13400
H 	H 	0.31530 0.31130 0.51440 0.12300
H 	H 	0.33100 0.32050 0.55050 0.14500
H 	H 	0.30760 0.27350 0.52610 0.13800
H 	H 	0.54940 0.46130 0.53830 0.10800
H 	H 	0.51890 0.40740 0.54410 0.13400
H 	H 	0.54070 0.45100 0.57130 0.12600
Ag	Ag	0.95829 0.94143 0.43386 0.46000
Ag	Ag	0.95887 0.00670 0.47829 0.43100
Ag	Ag	0.09286 0.57691 0.51173 0.43200
Ag	Ag	0.39926 0.76353 0.16597 0.43700
Ag	Ag	0.39206 0.82336 0.20402 0.42600
Ag	Ag	0.32995 0.71227 0.22152 0.46700
Ag	Ag	0.59775 0.35902 0.58307 0.43600
Ag	Ag	0.65389 0.37386 0.64967 0.42500
Ag	Ag	0.54410 0.25073 0.59653 0.46300
Ag	Ag	0.19338 0.80523 0.83711 0.42700
Ag	Ag	0.08204 0.74893 0.81065 0.43500
Ag	Ag	0.11061 0.75125 0.88510 0.46400
Ag	Ag	0.65641 0.77050 0.30435 0.43000
Ag	Ag	0.61458 0.67354 0.32144 0.43400
Ag	Ag	0.56586 0.64856 0.24748 0.46600
Ag	Ag	0.18445 0.72465 0.34672 0.45500
Ag	Ag	0.13058 0.70312 0.27724 0.44400
Ag	Ag	0.05652 0.65022 0.32752 0.41600
Ag	Ag	0.65242 0.32422 0.11676 0.41800
Ag	Ag	0.76311 0.45046 0.16363 0.44600
Ag	Ag	0.77966 0.39562 0.13474 0.44900
Ag	Ag	0.47725 0.37096 0.26859 0.43400
Ag	Ag	0.48661 0.31340 0.23269 0.43500
Ag	Ag	0.55692 0.43052 0.21722 0.44200
Ag	Ag	0.25909 0.06526 0.42409 0.43800
Ag	Ag	0.35468 0.13880 0.38772 0.44300
Ag	Ag	0.23312 0.07315 0.35453 0.44600
Ag	Ag	0.48006 0.02036 0.00518 0.41800
Ag	Ag	0.54190 0.03306 0.06488 0.44800
Ag	Ag	0.41284 0.90599 0.02011 0.45100
N 	N 	0.88672 0.90520 0.42972 -0.21700
N 	N 	0.88820 0.93350 0.44570 -0.22600
N 	N 	0.02610 0.53270 0.44840 -0.23500
N 	N 	0.07203 0.58002 0.47165 -0.23000
N 	N 	0.07604 0.02670 0.45594 -0.22500
N 	N 	0.02968 0.98020 0.43248 -0.21600
N 	N 	0.42700 0.82362 0.15162 -0.22700
N 	N 	0.42764 0.85035 0.16859 -0.23400
N 	N 	0.34689 0.79004 0.23533 -0.22000
N 	N 	0.32452 0.74816 0.24428 -0.20600
N 	N 	0.63148 0.82431 0.15499 -0.21600
N 	N 	0.68491 0.85995 0.16466 -0.21900
N 	N 	0.66211 0.43345 0.61616 -0.23400
N 	N 	0.68437 0.43843 0.64240 -0.23700
N 	N 	0.80701 0.64785 0.68826 -0.22200
N 	N 	0.75730 0.61927 0.68477 -0.21500
N 	N 	0.50900 0.24043 0.55683 -0.22200
N 	N 	0.53220 0.28460 0.55100 -0.22300
N 	N 	0.17475 0.79852 0.79207 -0.23900
N 	N 	0.12922 0.77745 0.78147 -0.23300
N 	N 	0.22114 0.88243 0.68697 -0.22500
N 	N 	0.21807 0.85064 0.67631 -0.21600
N 	N 	0.18633 0.79535 0.90188 -0.20200
N 	N 	0.21685 0.81690 0.88235 -0.22000
N 	N 	0.69392 0.78844 0.34716 -0.23200
N 	N 	0.67360 0.74679 0.35499 -0.22900
N 	N 	0.56992 0.60544 0.28916 -0.22100
N 	N 	0.55184 0.59501 0.25825 -0.21000
N 	N 	0.59043 0.70913 0.23736 -0.21100
N 	N 	0.62611 0.75669 0.26060 -0.22800
N 	N 	0.22618 0.75104 0.31382 -0.21300
N 	N 	0.20519 0.74491 0.28630 -0.21800
N 	N 	0.04928 0.64702 0.26150 -0.21600
N 	N 	0.02040 0.62780 0.28240 -0.23200
N 	N 	0.08746 0.66045 0.37051 -0.23100
N 	N 	0.13600 0.68532 0.37652 -0.21800
N 	N 	0.64266 0.35746 0.13672 -0.23000
N 	N 	0.68900 0.40818 0.15798 -0.22200
N 	N 	0.83849 0.49405 0.17794 -0.22600
N 	N 	0.84582 0.47141 0.16743 -0.22300
N 	N 	0.71044 0.31586 0.10770 -0.21800
N 	N 	0.66109 0.28903 0.10052 -0.23200
N 	N 	0.43880 0.30320 0.27920 -0.22500
N 	N 	0.44480 0.28183 0.26483 -0.22600
N 	N 	0.53293 0.34617 0.20270 -0.23200
N 	N 	0.56080 0.39222 0.19582 -0.22500
N 	N 	0.55199 0.46650 0.24089 -0.22700
N 	N 	0.51703 0.43947 0.25850 -0.22800
N 	N 	0.33594 0.11703 0.44757 -0.22200
N 	N 	0.37440 0.14370 0.43250 -0.22400
N 	N 	0.34255 0.14747 0.34742 -0.22700
N 	N 	0.29718 0.12502 0.33400 -0.22400
N 	N 	0.17892 0.03575 0.38067 -0.22000
N 	N 	0.18820 0.02870 0.40650 -0.23200
N 	N 	0.55651 0.09713 0.03144 -0.23600
N 	N 	0.58036 0.10294 0.05770 -0.21500
N 	N 	0.49871 0.96348 0.07619 -0.21800
N 	N 	0.44970 0.91313 0.05743 -0.21800
N 	N 	0.37115 0.89938 0.98833 -0.21400
N 	N 	0.39844 0.94523 0.98267 -0.22700
C 	C 	0.82900 0.82640 0.38660 -0.47300
C 	C 	0.83980 0.86310 0.40830 0.16500
C 	C 	0.80950 0.86260 0.40810 -0.12600
C 	C 	0.83970 0.90690 0.43320 0.17300
C 	C 	0.82840 0.92650 0.44470 -0.51600
C 	C 	0.98100 0.50440 0.39600 -0.48800
C 	C 	0.02580 0.54710 0.42410 0.16300
C 	C 	0.07180 0.60370 0.43070 -0.12100
C 	C 	0.09950 0.62210 0.46080 0.15000
C 	C 	0.15170 0.68000 0.48170 -0.47700
C 	C 	0.17310 0.09610 0.47160 -0.48800
C 	C 	0.11800 0.04510 0.45050 0.15800
C 	C 	0.09930 0.01150 0.42420 -0.11200
C 	C 	0.04380 0.97180 0.41340 0.15200
C 	C 	0.00090 0.92300 0.38490 -0.46800
C 	C 	0.44700 0.82042 0.10502 -0.52000
C 	C 	0.44143 0.84063 0.12606 0.18000
C 	C 	0.45050 0.87841 0.12591 -0.12100
C 	C 	0.44042 0.88210 0.15292 0.13500
C 	C 	0.44200 0.91560 0.16540 -0.47500
C 	C 	0.34770 0.84530 0.24140 -0.47600
C 	C 	0.32990 0.80132 0.24762 0.14700
C 	C 	0.29519 0.76540 0.26459 -0.10500
C 	C 	0.29330 0.73270 0.26220 0.14900
C 	C 	0.26310 0.68650 0.27500 -0.45800
C 	C 	0.54360 0.74570 0.16670 -0.50000
C 	C 	0.60240 0.78920 0.17200 0.16700
C 	C 	0.63740 0.80099 0.19299 -0.11800
C 	C 	0.68722 0.84400 0.18782 0.15600
C 	C 	0.73900 0.87260 0.20240 -0.47500
C 	C 	0.66410 0.48170 0.59480 -0.51600
C 	C 	0.68140 0.47660 0.62000 0.18300
C 	C 	0.71830 0.51260 0.64830 -0.13200
C 	C 	0.71890 0.48720 0.66210 0.13900
C 	C 	0.75010 0.50500 0.69330 -0.47000
C 	C 	0.84780 0.63500 0.67620 -0.48000
C 	C 	0.80060 0.61521 0.67541 0.15500
C 	C 	0.74510 0.56306 0.66316 -0.11000
C 	C 	0.71990 0.56830 0.66940 0.16400
C 	C 	0.66060 0.52460 0.66280 -0.47800
C 	C 	0.42820 0.14170 0.53350 -0.51700
C 	C 	0.46470 0.19700 0.53390 0.17200
C 	C 	0.45740 0.21200 0.51160 -0.11000
C 	C 	0.50260 0.26870 0.52410 0.15200
C 	C 	0.51560 0.30660 0.51120 -0.48000
C 	C 	0.25460 0.84660 0.77620 -0.48800
C 	C 	0.20176 0.81924 0.77100 0.14900
C 	C 	0.17460 0.81200 0.74640 -0.12700
C 	C 	0.12810 0.78460 0.75390 0.17100
C 	C 	0.08380 0.76590 0.73710 -0.50500
C 	C 	0.20700 0.90210 0.73090 -0.47400
C 	C 	0.20510 0.87170 0.71300 0.15200
C 	C 	0.19230 0.83300 0.71970 -0.11100
C 	C 	0.20045 0.82020 0.69585 0.16300
C 	C 	0.19280 0.78190 0.69070 -0.49900
C 	C 	0.18780 0.78810 0.95490 -0.46900
C 	C 	0.21470 0.81060 0.92990 0.15000
C 	C 	0.26670 0.84540 0.92790 -0.09900
C 	C 	0.26490 0.84630 0.89740 0.13600
C 	C 	0.30980 0.87640 0.88240 -0.45200
C 	C 	0.77810 0.89020 0.36250 -0.46200
C 	C 	0.74470 0.83680 0.36610 0.13200
C 	C 	0.75610 0.82440 0.38690 -0.10800
C 	C 	0.71040 0.76750 0.37910 0.16000
C 	C 	0.69870 0.73060 0.39230 -0.48900
C 	C 	0.58940 0.58050 0.32230 -0.45000
C 	C 	0.57050 0.57730 0.29100 0.14500
C 	C 	0.55350 0.54740 0.26270 -0.10600
C 	C 	0.54279 0.56058 0.24197 0.15200
C 	C 	0.52440 0.54230 0.20790 -0.48600
C 	C 	0.55140 0.67230 0.18150 -0.47600
C 	C 	0.58800 0.71730 0.21030 0.15500
C 	C 	0.62332 0.77194 0.21586 -0.11200
C 	C 	0.64470 0.79300 0.24690 0.15700
C 	C 	0.68580 0.84960 0.26620 -0.48500
C 	C 	0.29390 0.77000 0.33650 -0.48900
C 	C 	0.26320 0.76070 0.31030 0.15500
C 	C 	0.26400 0.75880 0.27960 -0.11000
C 	C 	0.22790 0.74990 0.26580 0.15000
C 	C 	0.20990 0.74170 0.23280 -0.46500
C 	C 	0.03800 0.63200 0.20640 -0.47000
C 	C 	0.01525 0.61809 0.23414 0.16000
C 	C 	0.96280 0.57900 0.23540 -0.10500
C 	C 	0.96750 0.58590 0.26700 0.14200
C 	C 	0.92400 0.55470 0.28250 -0.46600
C 	C 	0.00490 0.59740 0.38830 -0.48300
C 	C 	0.05940 0.62960 0.38960 0.14900
C 	C 	0.08980 0.63510 0.40830 -0.11800
C 	C 	0.13660 0.67010 0.39910 0.17100
C 	C 	0.18530 0.69190 0.41100 -0.47800
C 	C 	0.54400 0.28380 0.11920 -0.48600
C 	C 	0.59870 0.33790 0.13840 0.15000
C 	C 	0.61660 0.37530 0.16170 -0.11100
C 	C 	0.67300 0.41800 0.17240 0.16400
C 	C 	0.71380 0.46900 0.19860 -0.48000
C 	C 	0.88220 0.56690 0.21910 -0.49200
C 	C 	0.87940 0.53440 0.20280 0.17500
C 	C 	0.91384 0.54040 0.20944 -0.12800
C 	C 	0.89050 0.49850 0.18600 0.17100
C 	C 	0.90850 0.48280 0.18170 -0.49900
C 	C 	0.74890 0.30020 0.09610 -0.48100
C 	C 	0.70150 0.28087 0.09417 0.16300
C 	C 	0.64723 0.23046 0.07969 -0.10800
C 	C 	0.62261 0.23710 0.08411 0.12200
C 	C 	0.56370 0.19750 0.07520 -0.44500
C 	C 	0.39370 0.28770 0.31780 -0.45400
C 	C 	0.40760 0.27380 0.29780 0.13200
C 	C 	0.39180 0.23060 0.29580 -0.09800
C 	C 	0.41680 0.23810 0.27410 0.15200
C 	C 	0.41620 0.20620 0.26220 -0.47700
C 	C 	0.52510 0.28530 0.19480 -0.45700
C 	C 	0.54740 0.33320 0.19000 0.14300
C 	C 	0.58520 0.37060 0.17460 -0.11600
C 	C 	0.59210 0.40670 0.17900 0.17000
C 	C 	0.62560 0.45490 0.16750 -0.49700
C 	C 	0.61240 0.54880 0.22380 -0.49200
C 	C 	0.57000 0.50900 0.23920 0.15900
C 	C 	0.54660 0.50960 0.25600 -0.11800
C 	C 	0.51350 0.46494 0.26804 0.14900
C 	C 	0.47690 0.44300 0.28850 -0.47800
C 	C 	0.32810 0.11440 0.50110 -0.47300
C 	C 	0.36000 0.13620 0.47760 0.15900
C 	C 	0.41400 0.17630 0.48230 -0.12100
C 	C 	0.42290 0.18140 0.45370 0.16300
C 	C 	0.47400 0.21900 0.44440 -0.49300
C 	C 	0.43590 0.22050 0.34340 -0.53200
C 	C 	0.38180 0.18760 0.33400 0.18600
C 	C 	0.36040 0.19010 0.31290 -0.13100
C 	C 	0.30660 0.14940 0.31360 0.16600
C 	C 	0.26440 0.13380 0.29600 -0.48700
C 	C 	0.12650 0.03310 0.35720 -0.49300
C 	C 	0.14410 0.02760 0.38230 0.17100
C 	C 	0.13130 0.01760 0.41010 -0.11900
C 	C 	0.15960 0.01780 0.42440 0.15700
C 	C 	0.16050 0.00780 0.45450 -0.48700
C 	C 	0.56190 0.14970 0.01120 -0.46600
C 	C 	0.57880 0.14300 0.03560 0.14100
C 	C 	0.61812 0.17929 0.06421 -0.11400
C 	C 	0.61710 0.15214 0.07664 0.16400
C 	C 	0.64930 0.16920 0.10710 -0.47800
C 	C 	0.55610 0.00600 0.12950 -0.49500
C 	C 	0.50620 0.95830 0.10310 0.15600
C 	C 	0.46024 0.90184 0.10108 -0.10800
C 	C 	0.42680 0.87640 0.07180 0.15700
C 	C 	0.37120 0.81640 0.05680 -0.47800
C 	C 	0.28010 0.80010 0.96980 -0.49100
C 	C 	0.31940 0.85670 0.97010 0.16700
C 	C 	0.31400 0.87610 0.95210 -0.11800
C 	C 	0.36440 0.93115 0.96075 0.14200
C 	C 	0.38440 0.97560 0.95100 -0.46700
H 	H 	0.85930 0.83800 0.39290 0.11300
H 	H 	0.82580 0.82870 0.36570 0.12900
H 	H 	0.79500 0.78870 0.38710 0.13100
H 	H 	0.85900 0.95900 0.46220 0.12400
H 	H 	0.79520 0.89820 0.45140 0.14200
H 	H 	0.82350 0.93580 0.42850 0.14300
H 	H 	0.95490 0.46860 0.39930 0.11800
H 	H 	0.99550 0.50830 0.37920 0.13200
H 	H 	0.96250 0.50750 0.39040 0.13900
H 	H 	0.16020 0.67900 0.50180 0.11500
H 	H 	0.14680 0.69720 0.48440 0.14300
H 	H 	0.18170 0.70100 0.47270 0.13400
H 	H 	0.17160 0.10980 0.48820 0.11400
H 	H 	0.19730 0.12330 0.46040 0.13500
H 	H 	0.18690 0.08920 0.48030 0.13500
H 	H 	0.96570 0.90290 0.38400 0.11400
H 	H 	0.99770 0.89910 0.38580 0.13700
H 	H 	0.01170 0.93580 0.36650 0.13100
H 	H 	0.43780 0.79440 0.11240 0.12700
H 	H 	0.48460 0.85100 0.10380 0.15700
H 	H 	0.42240 0.80220 0.08460 0.14500
H 	H 	0.43370 0.91000 0.18510 0.11500
H 	H 	0.41480 0.90380 0.15080 0.13200
H 	H 	0.47830 0.95420 0.16810 0.13500
H 	H 	0.37230 0.86300 0.22830 0.10700
H 	H 	0.36690 0.87230 0.26080 0.13600
H 	H 	0.31590 0.82980 0.23090 0.13300
H 	H 	0.27140 0.67310 0.26890 0.11100
H 	H 	0.22390 0.65700 0.26730 0.12600
H 	H 	0.27420 0.69900 0.29760 0.12600
H 	H 	0.53140 0.74890 0.15050 0.12100
H 	H 	0.53700 0.74900 0.18560 0.14600
H 	H 	0.52330 0.71000 0.16030 0.13800
H 	H 	0.76730 0.90200 0.19330 0.11100
H 	H 	0.73370 0.84670 0.19900 0.12900
H 	H 	0.75010 0.88780 0.22450 0.13200
H 	H 	0.63710 0.44890 0.57740 0.12900
H 	H 	0.64800 0.48610 0.60210 0.14400
H 	H 	0.69590 0.51370 0.58840 0.15700
H 	H 	0.74130 0.47730 0.69560 0.11000
H 	H 	0.78930 0.53970 0.69580 0.13200
H 	H 	0.74030 0.51000 0.70910 0.13000
H 	H 	0.88170 0.67400 0.68670 0.10900
H 	H 	0.84470 0.61520 0.68710 0.13200
H 	H 	0.84790 0.62860 0.65510 0.12500
H 	H 	0.65510 0.54050 0.66960 0.11400
H 	H 	0.64330 0.50660 0.64070 0.13300
H 	H 	0.64430 0.49780 0.67390 0.13000
H 	H 	0.44300 0.14350 0.55170 0.13000
H 	H 	0.39200 0.11910 0.53350 0.14600
H 	H 	0.42500 0.12570 0.51510 0.14900
H 	H 	0.54910 0.34370 0.52480 0.11600
H 	H 	0.52070 0.30560 0.49090 0.13400
H 	H 	0.48540 0.29530 0.50930 0.13500
H 	H 	0.26250 0.84450 0.79580 0.11900
H 	H 	0.25110 0.82810 0.75960 0.14000
H 	H 	0.28420 0.88480 0.77640 0.13400
H 	H 	0.05760 0.74800 0.74900 0.12700
H 	H 	0.09890 0.79730 0.73380 0.13900
H 	H 	0.06540 0.74020 0.71720 0.15200
H 	H 	0.21780 0.92660 0.72000 0.10900
H 	H 	0.17090 0.87640 0.73350 0.13200
H 	H 	0.23360 0.92370 0.75110 0.13200
H 	H 	0.20250 0.78290 0.67200 0.12300
H 	H 	0.21600 0.79200 0.70820 0.14100
H 	H 	0.15450 0.74500 0.68830 0.13200
H 	H 	0.15080 0.76480 0.94780 0.11600
H 	H 	0.18620 0.76660 0.96060 0.13400
H 	H 	0.20890 0.81820 0.97290 0.13000
H 	H 	0.29720 0.86970 0.86070 0.09800
H 	H 	0.34200 0.91550 0.89270 0.12200
H 	H 	0.31910 0.86330 0.88400 0.12000
H 	H 	0.75680 0.88360 0.34580 0.11200
H 	H 	0.81110 0.91050 0.35760 0.12700
H 	H 	0.78830 0.91160 0.38170 0.12700
H 	H 	0.66230 0.69260 0.38090 0.12300
H 	H 	0.70020 0.73650 0.41390 0.15000
H 	H 	0.72600 0.73840 0.39080 0.13400
H 	H 	0.59800 0.60400 0.33860 0.10100
H 	H 	0.62190 0.59570 0.32340 0.12400
H 	H 	0.56020 0.54390 0.32510 0.12700
H 	H 	0.52040 0.55860 0.20040 0.12000
H 	H 	0.48930 0.50250 0.20100 0.13800
H 	H 	0.55130 0.55370 0.20000 0.13400
H 	H 	0.53310 0.64000 0.18630 0.11300
H 	H 	0.57270 0.68350 0.16740 0.13000
H 	H 	0.52400 0.66340 0.17180 0.13500
H 	H 	0.69300 0.85210 0.28790 0.11300
H 	H 	0.67150 0.85750 0.26300 0.14100
H 	H 	0.71970 0.87600 0.26030 0.13500
H 	H 	0.28370 0.76870 0.35500 0.12200
H 	H 	0.33310 0.80590 0.34000 0.14300
H 	H 	0.28520 0.74170 0.33190 0.13700
H 	H 	0.18360 0.73590 0.23050 0.11000
H 	H 	0.19270 0.70990 0.21980 0.12800
H 	H 	0.24160 0.77420 0.22660 0.13000
H 	H 	0.07750 0.66250 0.21360 0.11600
H 	H 	0.02990 0.64230 0.19420 0.14000
H 	H 	0.02110 0.60020 0.19370 0.13000
H 	H 	0.94020 0.56960 0.30480 0.10900
H 	H 	0.89770 0.51630 0.27640 0.12800
H 	H 	0.90520 0.55750 0.27650 0.12600
H 	H 	0.99540 0.60300 0.37220 0.11300
H 	H 	0.00650 0.60950 0.40820 0.13200
H 	H 	0.97720 0.55860 0.38400 0.13400
H 	H 	0.21180 0.71650 0.39950 0.11500
H 	H 	0.17380 0.66150 0.40850 0.13000
H 	H 	0.20200 0.71180 0.43280 0.13600
H 	H 	0.54610 0.26820 0.10530 0.11300
H 	H 	0.52110 0.26010 0.13220 0.13500
H 	H 	0.52810 0.28700 0.10710 0.13300
H 	H 	0.75030 0.49150 0.20040 0.11500
H 	H 	0.71350 0.48950 0.19460 0.13700
H 	H 	0.70430 0.45920 0.21770 0.13300
H 	H 	0.85130 0.55270 0.20820 0.11700
H 	H 	0.88050 0.56380 0.24010 0.13400
H 	H 	0.91650 0.60520 0.21970 0.14100
H 	H 	0.88380 0.45220 0.16320 0.12300
H 	H 	0.94560 0.51400 0.17960 0.14000
H 	H 	0.90810 0.47210 0.19960 0.13800
H 	H 	0.78260 0.33840 0.10840 0.11900
H 	H 	0.74330 0.27790 0.10580 0.13500
H 	H 	0.75190 0.29690 0.07540 0.14300
H 	H 	0.56170 0.21660 0.08250 0.09600
H 	H 	0.54880 0.18250 0.05290 0.12200
H 	H 	0.54260 0.16780 0.08480 0.12200
H 	H 	0.41050 0.31990 0.31440 0.11000
H 	H 	0.35400 0.25680 0.31240 0.12600
H 	H 	0.40740 0.29520 0.33940 0.12700
H 	H 	0.43850 0.22250 0.24780 0.11700
H 	H 	0.43120 0.20650 0.27930 0.13300
H 	H 	0.37870 0.16850 0.25160 0.14200
H 	H 	0.49850 0.26640 0.20650 0.10600
H 	H 	0.50750 0.26010 0.17480 0.12600
H 	H 	0.55510 0.29850 0.20620 0.12200
H 	H 	0.62080 0.47120 0.17500 0.12500
H 	H 	0.66420 0.48190 0.17490 0.14000
H 	H 	0.61410 0.44350 0.14500 0.14600
H 	H 	0.62020 0.53650 0.21390 0.12000
H 	H 	0.59970 0.55230 0.20840 0.13700
H 	H 	0.64570 0.58440 0.23910 0.13700
H 	H 	0.45890 0.41030 0.29200 0.11500
H 	H 	0.49880 0.47070 0.30810 0.13300
H 	H 	0.44920 0.43350 0.27830 0.14600
H 	H 	0.28970 0.08550 0.49060 0.12000
H 	H 	0.34300 0.14410 0.51530 0.13100
H 	H 	0.33130 0.09960 0.51270 0.13600
H 	H 	0.46560 0.21100 0.42200 0.12400
H 	H 	0.49030 0.21400 0.45170 0.14100
H 	H 	0.49970 0.25670 0.45340 0.13800
H 	H 	0.43760 0.20840 0.35920 0.13400
H 	H 	0.46270 0.25880 0.35170 0.14900
H 	H 	0.44400 0.21660 0.32560 0.15500
H 	H 	0.23060 0.10350 0.30190 0.11700
H 	H 	0.25740 0.12240 0.27400 0.13800
H 	H 	0.27740 0.16520 0.30080 0.13300
H 	H 	0.14300 0.04080 0.34080 0.12400
H 	H 	0.13840 0.06330 0.36550 0.13400
H 	H 	0.08680 0.99920 0.34920 0.14100
H 	H 	0.18480 0.01110 0.45830 0.11700
H 	H 	0.12360 0.97100 0.45400 0.13900
H 	H 	0.17380 0.03470 0.47090 0.13300
H 	H 	0.53360 0.11670 0.99370 0.10800
H 	H 	0.59340 0.18110 0.00430 0.12600
H 	H 	0.54740 0.15560 0.01940 0.12600
H 	H 	0.63860 0.14000 0.10880 0.11500
H 	H 	0.64190 0.17600 0.12370 0.13300
H 	H 	0.68830 0.20250 0.10880 0.13700
H 	H 	0.58080 0.03970 0.12370 0.12100
H 	H 	0.57440 0.00270 0.13490 0.13700
H 	H 	0.54560 0.00650 0.14710 0.13600
H 	H 	0.35790 0.81110 0.03580 0.11500
H 	H 	0.34610 0.80230 0.06860 0.13100
H 	H 	0.37370 0.79700 0.05630 0.13400
H 	H 	0.29690 0.80090 0.98560 0.12300
H 	H 	0.27000 0.78050 0.94950 0.14500
H 	H 	0.24740 0.78150 0.97390 0.13800
H 	H 	0.42300 0.01110 0.96170 0.10800
H 	H 	0.36330 0.97480 0.95590 0.13400
H 	H 	0.37970 0.96940 0.92870 0.12600
Ag	Ag	0.02443 0.45829 0.51686 0.45900
Ag	Ag	0.98058 0.45887 0.45217 0.43100
Ag	Ag	0.08113 0.59286 0.01595 0.43200
Ag	Ag	0.73329 0.89926 0.13573 0.43700
Ag	Ag	0.68804 0.89206 0.06870 0.42600
Ag	Ag	0.60843 0.82995 0.11768 0.46700
Ag	Ag	0.51468 0.09775 0.73873 0.43600
Ag	Ag	0.50422 0.15389 0.78003 0.42500
Ag	Ag	0.44757 0.04410 0.79337 0.46300
Ag	Ag	0.85627 0.69338 0.88815 0.42700
Ag	Ag	0.77139 0.58204 0.83311 0.43500
Ag	Ag	0.72551 0.61061 0.85936 0.46400
Ag	Ag	0.85206 0.15641 0.38591 0.43000
Ag	Ag	0.79314 0.11458 0.44104 0.43400
Ag	Ag	0.81838 0.06586 0.41730 0.46600
Ag	Ag	0.33773 0.68445 0.95980 0.45500
Ag	Ag	0.35334 0.63058 0.92746 0.44400
Ag	Ag	0.22900 0.55652 0.90630 0.41600
Ag	Ag	0.03566 0.15242 0.82820 0.41800
Ag	Ag	0.09948 0.26311 0.81265 0.44600
Ag	Ag	0.14492 0.27966 0.88404 0.44900
Ag	Ag	0.70866 0.97725 0.60629 0.43400
Ag	Ag	0.75392 0.98661 0.67321 0.43600
Ag	Ag	0.83970 0.05692 0.62640 0.44200
Ag	Ag	0.33500 0.75909 0.69383 0.43800
Ag	Ag	0.46696 0.85468 0.71588 0.44300
Ag	Ag	0.37859 0.73312 0.65997 0.44600
Ag	Ag	0.97488 0.98006 0.95970 0.41800
Ag	Ag	0.97702 0.04190 0.00884 0.44700
Ag	Ag	0.89273 0.91284 0.00685 0.45100
N 	N 	0.95700 0.38672 0.48152 -0.21700
N 	N 	0.94250 0.38820 0.45470 -0.22600
N 	N 	0.07770 0.52610 0.99340 -0.23500
N 	N 	0.10038 0.57203 0.99201 -0.23000
N 	N 	0.12010 0.57604 0.54934 -0.22600
N 	N 	0.09720 0.52968 0.54948 -0.21500
N 	N 	0.77538 0.92700 0.10338 -0.22700
N 	N 	0.75905 0.92764 0.07729 -0.23400
N 	N 	0.61156 0.84689 0.05685 -0.22000
N 	N 	0.58024 0.82452 0.07636 -0.20600
N 	N 	0.97649 0.13148 0.30717 -0.21700
N 	N 	0.02025 0.18491 0.32496 -0.21900
N 	N 	0.54595 0.16211 0.72866 -0.23400
N 	N 	0.54197 0.18437 0.74594 -0.23700
N 	N 	0.61875 0.30701 0.65916 -0.22200
N 	N 	0.57253 0.25730 0.63803 -0.21500
N 	N 	0.45217 0.00900 0.76857 -0.22200
N 	N 	0.48120 0.03220 0.74760 -0.22300
N 	N 	0.88268 0.67475 0.87623 -0.23800
N 	N 	0.84775 0.62922 0.85177 -0.23300
N 	N 	0.03417 0.72114 0.83871 -0.22500
N 	N 	0.04176 0.71807 0.86743 -0.21600
N 	N 	0.78445 0.68633 0.89098 -0.20200
N 	N 	0.83450 0.71685 0.89995 -0.22000
N 	N 	0.84676 0.19392 0.40548 -0.23200
N 	N 	0.81861 0.17360 0.42681 -0.22900
N 	N 	0.78076 0.06992 0.46448 -0.22100
N 	N 	0.79359 0.05184 0.45683 -0.21000
N 	N 	0.85307 0.09043 0.38130 -0.21100
N 	N 	0.86551 0.12611 0.36942 -0.22800
N 	N 	0.41236 0.72618 0.97514 -0.21300
N 	N 	0.41889 0.70519 0.96028 -0.21800
N 	N 	0.28778 0.54928 0.90226 -0.21600
N 	N 	0.23800 0.52040 0.89260 -0.23200
N 	N 	0.21695 0.58746 0.92701 -0.23100
N 	N 	0.25948 0.63600 0.95068 -0.21800
N 	N 	0.00594 0.14266 0.78520 -0.23000
N 	N 	0.03102 0.18900 0.78082 -0.22200
N 	N 	0.16055 0.33849 0.84444 -0.22600
N 	N 	0.17839 0.34582 0.87441 -0.22300
N 	N 	0.10274 0.21044 0.89458 -0.21800
N 	N 	0.06057 0.16109 0.87206 -0.23200
N 	N 	0.65960 0.93880 0.63560 -0.22500
N 	N 	0.67997 0.94480 0.66297 -0.22600
N 	N 	0.83023 0.03293 0.68676 -0.23200
N 	N 	0.86498 0.06080 0.66858 -0.22500
N 	N 	0.81110 0.05199 0.58549 -0.22700
N 	N 	0.75853 0.01703 0.57756 -0.22800
N 	N 	0.38837 0.83594 0.71891 -0.22200
N 	N 	0.44190 0.87440 0.73070 -0.22400
N 	N 	0.49513 0.84255 0.69508 -0.22700
N 	N 	0.46318 0.79718 0.67216 -0.22400
N 	N 	0.29825 0.67892 0.64317 -0.22000
N 	N 	0.28170 0.68820 0.65950 -0.23200
N 	N 	0.02507 0.05651 0.95938 -0.23600
N 	N 	0.02266 0.08036 0.97742 -0.21500
N 	N 	0.92252 0.99871 0.03523 -0.21800
N 	N 	0.89227 0.94970 0.03657 -0.21800
N 	N 	0.88282 0.87115 0.97177 -0.21400
N 	N 	0.91577 0.89844 0.95321 -0.22700
C 	C 	0.94240 0.32900 0.50260 -0.47300
C 	C 	0.93150 0.33980 0.47670 0.16500
C 	C 	0.90140 0.30950 0.44690 -0.12600
C 	C 	0.90650 0.33970 0.43280 0.17300
C 	C 	0.88370 0.32840 0.40190 -0.51600
C 	C 	0.08500 0.48100 0.97660 -0.48900
C 	C 	0.10170 0.52580 0.97870 0.16300
C 	C 	0.14110 0.57180 0.96810 -0.12100
C 	C 	0.13870 0.59950 0.97740 0.15000
C 	C 	0.17000 0.65170 0.97170 -0.47700
C 	C 	0.20150 0.67310 0.57700 -0.48800
C 	C 	0.16750 0.61800 0.57290 0.15800
C 	C 	0.17510 0.59930 0.58780 -0.11200
C 	C 	0.13040 0.54380 0.57200 0.15100
C 	C 	0.11600 0.50090 0.57790 -0.46600
C 	C 	0.84198 0.94700 0.12658 -0.52000
C 	C 	0.81537 0.94143 0.10080 0.18100
C 	C 	0.82459 0.95050 0.07209 -0.12100
C 	C 	0.78750 0.94042 0.05832 0.13500
C 	C 	0.77660 0.94200 0.02640 -0.47500
C 	C 	0.60630 0.84770 0.00240 -0.47600
C 	C 	0.58228 0.82990 0.02858 0.14700
C 	C 	0.53060 0.79519 0.02979 -0.10500
C 	C 	0.53110 0.79330 0.06060 0.14900
C 	C 	0.48810 0.76310 0.07660 -0.45800
C 	C 	0.87690 0.04360 0.29790 -0.50000
C 	C 	0.93040 0.10240 0.31320 0.16700
C 	C 	0.94441 0.13740 0.33641 -0.11800
C 	C 	0.99940 0.18722 0.34322 0.15500
C 	C 	0.03660 0.23900 0.36640 -0.47400
C 	C 	0.56930 0.16410 0.68240 -0.51600
C 	C 	0.56140 0.18140 0.70480 0.18300
C 	C 	0.57000 0.21830 0.70570 -0.13200
C 	C 	0.55680 0.21890 0.73170 0.14000
C 	C 	0.55680 0.25010 0.74510 -0.47000
C 	C 	0.67160 0.34780 0.71280 -0.48000
C 	C 	0.62519 0.30060 0.68539 0.15500
C 	C 	0.58194 0.24510 0.68204 -0.11000
C 	C 	0.55050 0.21990 0.65160 0.16400
C 	C 	0.49780 0.16060 0.63600 -0.47800
C 	C 	0.39470 0.92820 0.78650 -0.51700
C 	C 	0.43080 0.96470 0.76770 0.17200
C 	C 	0.44580 0.95740 0.74540 -0.11000
C 	C 	0.47850 0.00260 0.73390 0.15300
C 	C 	0.50440 0.01560 0.70900 -0.48000
C 	C 	0.97840 0.75460 0.90800 -0.48800
C 	C 	0.93076 0.70176 0.88252 0.14900
C 	C 	0.92820 0.67460 0.86260 -0.12700
C 	C 	0.87420 0.62810 0.84350 0.17100
C 	C 	0.84670 0.58380 0.81790 -0.50500
C 	C 	0.97610 0.70700 0.80490 -0.47500
C 	C 	0.99210 0.70510 0.83340 0.15200
C 	C 	0.97260 0.69230 0.85930 -0.11100
C 	C 	0.00460 0.70045 0.88025 0.16200
C 	C 	0.00210 0.69280 0.91090 -0.49900
C 	C 	0.73290 0.68780 0.89970 -0.46900
C 	C 	0.78480 0.71470 0.90410 0.15000
C 	C 	0.83880 0.76670 0.92130 -0.09900
C 	C 	0.86750 0.76490 0.91860 0.13700
C 	C 	0.92740 0.80980 0.93340 -0.45200
C 	C 	0.91560 0.27810 0.38790 -0.46200
C 	C 	0.87860 0.24470 0.40790 0.13200
C 	C 	0.86920 0.25610 0.43170 -0.10800
C 	C 	0.83130 0.21040 0.44290 0.16000
C 	C 	0.80640 0.19870 0.46810 -0.48900
C 	C 	0.76710 0.08940 0.50890 -0.45000
C 	C 	0.77950 0.07050 0.49320 0.14500
C 	C 	0.79080 0.05350 0.50610 -0.10600
C 	C 	0.80082 0.04279 0.48221 0.15200
C 	C 	0.81650 0.02440 0.48210 -0.48800
C 	C 	0.86990 0.05140 0.37910 -0.47600
C 	C 	0.87770 0.08800 0.37070 0.15500
C 	C 	0.90746 0.12332 0.35138 -0.11200
C 	C 	0.89780 0.14470 0.35170 0.15700
C 	C 	0.91960 0.18580 0.33620 -0.48500
C 	C 	0.45740 0.79390 0.02390 -0.48900
C 	C 	0.45290 0.76320 0.00250 0.15500
C 	C 	0.48440 0.76400 0.00520 -0.11000
C 	C 	0.46210 0.72790 0.97800 0.15000
C 	C 	0.47710 0.70990 0.96820 -0.46500
C 	C 	0.33160 0.53800 0.90600 -0.47000
C 	C 	0.28111 0.51525 0.89716 0.16000
C 	C 	0.22740 0.46280 0.88380 -0.10500
C 	C 	0.20050 0.46750 0.88160 0.14200
C 	C 	0.14150 0.42400 0.86930 -0.46600
C 	C 	0.11660 0.50490 0.90750 -0.48200
C 	C 	0.16980 0.55940 0.92980 0.14800
C 	C 	0.18150 0.58980 0.95470 -0.11800
C 	C 	0.23750 0.63660 0.96650 0.17100
C 	C 	0.27430 0.68530 0.99340 -0.47800
C 	C 	0.92480 0.04400 0.76020 -0.48500
C 	C 	0.96030 0.09870 0.76080 0.15000
C 	C 	0.95490 0.11660 0.74130 -0.11100
C 	C 	0.00060 0.17300 0.75500 0.16500
C 	C 	0.01520 0.21380 0.74480 -0.47900
C 	C 	0.16310 0.38220 0.81530 -0.49200
C 	C 	0.17660 0.37940 0.84500 0.17400
C 	C 	0.20440 0.41384 0.87344 -0.12800
C 	C 	0.20450 0.39050 0.89200 0.17100
C 	C 	0.22680 0.40850 0.92570 -0.49800
C 	C 	0.15280 0.24890 0.94870 -0.48100
C 	C 	0.10733 0.20150 0.92063 0.16300
C 	C 	0.06754 0.14723 0.91677 -0.10900
C 	C 	0.03850 0.12261 0.88551 0.12300
C 	C 	0.98850 0.06370 0.86620 -0.44600
C 	C 	0.57590 0.89370 0.60600 -0.45400
C 	C 	0.60980 0.90760 0.63380 0.13200
C 	C 	0.59600 0.89180 0.66120 -0.09800
C 	C 	0.64270 0.91680 0.67870 0.15200
C 	C 	0.65400 0.91620 0.71000 -0.47800
C 	C 	0.83030 0.02510 0.73980 -0.45800
C 	C 	0.85740 0.04740 0.71420 0.14400
C 	C 	0.91060 0.08520 0.71460 -0.11700
C 	C 	0.91310 0.09210 0.68540 0.16900
C 	C 	0.95810 0.12560 0.67070 -0.49600
C 	C 	0.88860 0.11240 0.56360 -0.49200
C 	C 	0.83080 0.07000 0.56100 0.15900
C 	C 	0.79060 0.04660 0.53700 -0.11800
C 	C 	0.74546 0.01350 0.54856 0.14900
C 	C 	0.68840 0.97690 0.53390 -0.47800
C 	C 	0.32700 0.82810 0.71370 -0.47300
C 	C 	0.38240 0.86000 0.72380 0.15900
C 	C 	0.43170 0.91400 0.73770 -0.12100
C 	C 	0.46920 0.92290 0.74150 0.16400
C 	C 	0.52960 0.97400 0.75500 -0.49300
C 	C 	0.59250 0.93590 0.71540 -0.53200
C 	C 	0.54780 0.88180 0.69420 0.18600
C 	C 	0.54750 0.86040 0.67030 -0.13100
C 	C 	0.49300 0.80660 0.65720 0.16600
C 	C 	0.46840 0.76440 0.63060 -0.48700
C 	C 	0.26930 0.62650 0.59340 -0.49400
C 	C 	0.26180 0.64410 0.61650 0.17100
C 	C 	0.22120 0.63130 0.61370 -0.12000
C 	C 	0.23520 0.65960 0.64180 0.15800
C 	C 	0.20600 0.66050 0.65270 -0.48800
C 	C 	0.05070 0.06190 0.91220 -0.46600
C 	C 	0.04320 0.07880 0.93580 0.14100
C 	C 	0.05391 0.11812 0.93883 -0.11400
C 	C 	0.04046 0.11710 0.96496 0.16400
C 	C 	0.04220 0.14930 0.98010 -0.47800
C 	C 	0.92660 0.05610 0.05010 -0.49400
C 	C 	0.90310 0.00620 0.04790 0.15500
C 	C 	0.85916 0.96024 0.05840 -0.10700
C 	C 	0.85500 0.92680 0.05040 0.15600
C 	C 	0.81440 0.87120 0.05480 -0.47800
C 	C 	0.81030 0.78010 0.98000 -0.49100
C 	C 	0.84930 0.81940 0.96270 0.16700
C 	C 	0.86190 0.81400 0.93790 -0.11800
C 	C 	0.90365 0.86440 0.93325 0.14200
C 	C 	0.93340 0.88440 0.90880 -0.46700
H 	H 	0.96640 0.35930 0.52130 0.11300
H 	H 	0.96010 0.32580 0.49710 0.12900
H 	H 	0.90790 0.29500 0.50630 0.13100
H 	H 	0.89680 0.35900 0.40000 0.12400
H 	H 	0.84380 0.29520 0.39700 0.14200
H 	H 	0.89500 0.32350 0.38770 0.14300
H 	H 	0.05560 0.45490 0.98630 0.11800
H 	H 	0.11630 0.49550 0.98720 0.13300
H 	H 	0.07210 0.46250 0.95500 0.13900
H 	H 	0.15840 0.66020 0.98120 0.11500
H 	H 	0.16240 0.64680 0.94960 0.14300
H 	H 	0.20900 0.68170 0.98070 0.13400
H 	H 	0.18340 0.67160 0.56180 0.11400
H 	H 	0.23690 0.69730 0.57400 0.13500
H 	H 	0.20660 0.68690 0.59770 0.13500
H 	H 	0.08170 0.46570 0.56280 0.11300
H 	H 	0.11190 0.49770 0.59860 0.13600
H 	H 	0.14520 0.51170 0.57590 0.13000
H 	H 	0.82540 0.93780 0.14340 0.12700
H 	H 	0.88080 0.98460 0.13360 0.15700
H 	H 	0.83780 0.92240 0.12020 0.14500
H 	H 	0.74860 0.93370 0.02370 0.11500
H 	H 	0.76400 0.91480 0.01100 0.13200
H 	H 	0.81020 0.97830 0.02410 0.13500
H 	H 	0.64400 0.87230 0.00930 0.10700
H 	H 	0.60610 0.86690 0.99460 0.13600
H 	H 	0.58500 0.81590 0.98610 0.13300
H 	H 	0.50250 0.77140 0.09830 0.11100
H 	H 	0.45660 0.72390 0.06690 0.12600
H 	H 	0.47660 0.77420 0.07520 0.12600
H 	H 	0.88090 0.03140 0.28250 0.12100
H 	H 	0.85140 0.03700 0.28800 0.14600
H 	H 	0.86300 0.02330 0.31330 0.13700
H 	H 	0.07400 0.26730 0.36530 0.11100
H 	H 	0.03470 0.23370 0.38700 0.12900
H 	H 	0.02560 0.25010 0.36230 0.13200
H 	H 	0.55970 0.13710 0.68820 0.12900
H 	H 	0.54590 0.14800 0.66190 0.14400
H 	H 	0.60750 0.19590 0.68220 0.15700
H 	H 	0.54570 0.24130 0.76400 0.11000
H 	H 	0.59350 0.28930 0.74960 0.13200
H 	H 	0.53120 0.24030 0.73030 0.13000
H 	H 	0.69500 0.38170 0.70770 0.10900
H 	H 	0.65760 0.34470 0.72950 0.13200
H 	H 	0.69280 0.34790 0.71930 0.12500
H 	H 	0.48550 0.15510 0.61460 0.11400
H 	H 	0.50260 0.14330 0.63670 0.13300
H 	H 	0.47040 0.14430 0.64650 0.13000
H 	H 	0.39130 0.94300 0.79950 0.13000
H 	H 	0.35850 0.89200 0.77290 0.14600
H 	H 	0.40990 0.92500 0.79930 0.14900
H 	H 	0.52430 0.04910 0.70540 0.11600
H 	H 	0.52980 0.02070 0.71510 0.13400
H 	H 	0.47610 0.98540 0.69010 0.13500
H 	H 	0.96670 0.76250 0.91800 0.11900
H 	H 	0.99150 0.75110 0.92300 0.14000
H 	H 	0.00780 0.78420 0.89940 0.13300
H 	H 	0.80860 0.55760 0.80960 0.12700
H 	H 	0.86510 0.59890 0.80160 0.13900
H 	H 	0.84820 0.56540 0.82520 0.15200
H 	H 	0.99780 0.71780 0.79120 0.10900
H 	H 	0.93740 0.67090 0.79450 0.13200
H 	H 	0.98250 0.73360 0.80990 0.13200
H 	H 	0.03050 0.70250 0.91960 0.12300
H 	H 	0.00780 0.71600 0.92400 0.14100
H 	H 	0.96620 0.65450 0.90950 0.13200
H 	H 	0.70300 0.65080 0.88600 0.11600
H 	H 	0.72560 0.68620 0.91960 0.13400
H 	H 	0.73600 0.70890 0.89070 0.13000
H 	H 	0.93650 0.79720 0.92750 0.09800
H 	H 	0.94930 0.84200 0.92650 0.12200
H 	H 	0.93510 0.81910 0.95580 0.12000
H 	H 	0.91100 0.25680 0.37320 0.11100
H 	H 	0.95350 0.31110 0.40060 0.12700
H 	H 	0.90660 0.28830 0.37670 0.12700
H 	H 	0.78140 0.16230 0.46970 0.12300
H 	H 	0.78630 0.20020 0.46370 0.15000
H 	H 	0.83520 0.22600 0.48760 0.13400
H 	H 	0.75940 0.09800 0.49400 0.10100
H 	H 	0.79850 0.12190 0.52620 0.12400
H 	H 	0.73510 0.06020 0.51630 0.12700
H 	H 	0.82000 0.02040 0.46180 0.12100
H 	H 	0.78830 0.98930 0.48680 0.13900
H 	H 	0.85130 0.05130 0.49760 0.13400
H 	H 	0.84680 0.03310 0.39310 0.11300
H 	H 	0.90530 0.07270 0.38920 0.13000
H 	H 	0.85220 0.02400 0.36060 0.13500
H 	H 	0.90510 0.19300 0.34090 0.11300
H 	H 	0.90850 0.17150 0.31400 0.14000
H 	H 	0.95940 0.21970 0.34370 0.13500
H 	H 	0.42870 0.78370 0.01500 0.12200
H 	H 	0.49310 0.83310 0.02720 0.14300
H 	H 	0.45330 0.78520 0.04350 0.13700
H 	H 	0.45310 0.68360 0.94770 0.11000
H 	H 	0.47290 0.69270 0.98280 0.12800
H 	H 	0.51500 0.74160 0.96740 0.13000
H 	H 	0.36390 0.57750 0.91500 0.11600
H 	H 	0.33570 0.52990 0.88760 0.14000
H 	H 	0.32740 0.52110 0.92090 0.13000
H 	H 	0.13540 0.44020 0.87060 0.10900
H 	H 	0.12130 0.39770 0.88140 0.12800
H 	H 	0.12870 0.40520 0.84770 0.12600
H 	H 	0.12320 0.49540 0.89240 0.11300
H 	H 	0.09830 0.50650 0.89700 0.13200
H 	H 	0.09320 0.47720 0.91860 0.13300
H 	H 	0.31230 0.71180 0.99530 0.11500
H 	H 	0.26530 0.67380 0.01230 0.13000
H 	H 	0.26920 0.70200 0.99020 0.13500
H 	H 	0.94080 0.04610 0.77790 0.11300
H 	H 	0.88890 0.02110 0.76100 0.13500
H 	H 	0.92100 0.02810 0.74110 0.13300
H 	H 	0.04990 0.25030 0.75880 0.11500
H 	H 	0.01890 0.21350 0.72400 0.13700
H 	H 	0.98660 0.20430 0.74510 0.13300
H 	H 	0.14310 0.35130 0.79860 0.11700
H 	H 	0.14040 0.38050 0.81670 0.13400
H 	H 	0.19680 0.41650 0.81130 0.14100
H 	H 	0.22060 0.38380 0.93160 0.12300
H 	H 	0.26600 0.44560 0.93160 0.14000
H 	H 	0.20850 0.40810 0.93600 0.13800
H 	H 	0.17420 0.28260 0.94420 0.11900
H 	H 	0.13750 0.24330 0.96540 0.13500
H 	H 	0.17650 0.25190 0.95500 0.14300
H 	H 	0.97920 0.06170 0.84510 0.09600
H 	H 	0.99590 0.04880 0.86630 0.12200
H 	H 	0.95780 0.04260 0.87480 0.12200
H 	H 	0.59610 0.91050 0.59060 0.11000
H 	H 	0.54160 0.85400 0.59720 0.12600
H 	H 	0.56800 0.90740 0.61220 0.12700
H 	H 	0.69070 0.93850 0.71600 0.11700
H 	H 	0.65190 0.93120 0.72470 0.13300
H 	H 	0.62710 0.87870 0.71020 0.14200
H 	H 	0.79200 0.99850 0.73210 0.10600
H 	H 	0.83270 0.00750 0.74740 0.12700
H 	H 	0.84890 0.05510 0.75660 0.12200
H 	H 	0.94580 0.12080 0.64960 0.12400
H 	H 	0.98930 0.16420 0.68230 0.14000
H 	H 	0.96910 0.11410 0.67060 0.14600
H 	H 	0.90630 0.12020 0.58370 0.12000
H 	H 	0.89130 0.09970 0.54740 0.13700
H 	H 	0.90660 0.14570 0.56130 0.13700
H 	H 	0.66690 0.95890 0.54860 0.11500
H 	H 	0.69070 0.99880 0.52810 0.13300
H 	H 	0.67090 0.94920 0.51570 0.14500
H 	H 	0.29910 0.78970 0.70420 0.12000
H 	H 	0.32770 0.84300 0.69890 0.13100
H 	H 	0.31860 0.83130 0.73170 0.13600
H 	H 	0.54360 0.96560 0.75460 0.12400
H 	H 	0.53860 0.99030 0.77630 0.14100
H 	H 	0.54630 0.99970 0.74300 0.13800
H 	H 	0.57840 0.93760 0.72920 0.13400
H 	H 	0.61100 0.96270 0.70390 0.14900
H 	H 	0.61840 0.94400 0.72740 0.15500
H 	H 	0.42870 0.73060 0.62710 0.11700
H 	H 	0.48340 0.75740 0.63500 0.13800
H 	H 	0.47660 0.77740 0.61220 0.13300
H 	H 	0.30220 0.64300 0.60220 0.12500
H 	H 	0.27290 0.63840 0.57510 0.13500
H 	H 	0.23760 0.58680 0.58760 0.14200
H 	H 	0.22650 0.68480 0.67370 0.11800
H 	H 	0.16960 0.62360 0.65260 0.14000
H 	H 	0.20290 0.67380 0.63910 0.13400
H 	H 	0.03990 0.03360 0.91690 0.10800
H 	H 	0.08910 0.09340 0.91230 0.12600
H 	H 	0.02800 0.04740 0.89180 0.12600
H 	H 	0.02980 0.13860 0.99860 0.11600
H 	H 	0.01820 0.14190 0.96590 0.13300
H 	H 	0.07950 0.18830 0.98580 0.13700
H 	H 	0.95710 0.08080 0.04110 0.12100
H 	H 	0.93950 0.07440 0.07170 0.13700
H 	H 	0.89850 0.04560 0.03910 0.13500
H 	H 	0.82210 0.85790 0.04680 0.11500
H 	H 	0.77750 0.84610 0.04380 0.13100
H 	H 	0.81740 0.87370 0.07670 0.13400
H 	H 	0.81130 0.79690 0.99600 0.12300
H 	H 	0.82050 0.77000 0.98950 0.14500
H 	H 	0.77350 0.74740 0.96590 0.13800
H 	H 	0.96130 0.92300 0.91190 0.10800
H 	H 	0.90740 0.86330 0.88850 0.13400
H 	H 	0.95100 0.87970 0.91030 0.12600
Ag	Ag	0.44143 0.50757 0.98314 0.45900
Ag	Ag	0.50670 0.52841 0.04783 0.43100
Ag	Ag	0.07691 0.06518 0.48405 0.43200
Ag	Ag	0.26353 0.59756 0.36427 0.43700
Ag	Ag	0.32336 0.61934 0.43130 0.42600
Ag	Ag	0.21227 0.49075 0.38232 0.46700
Ag	Ag	0.85902 0.77595 0.76127 0.43600
Ag	Ag	0.87386 0.72419 0.71997 0.42500
Ag	Ag	0.75073 0.65420 0.70663 0.46300
Ag	Ag	0.30523 0.96812 0.61185 0.42700
Ag	Ag	0.24893 0.93828 0.66689 0.43500
Ag	Ag	0.25125 0.86615 0.64064 0.46400
Ag	Ag	0.27050 0.46615 0.11409 0.43000
Ag	Ag	0.17354 0.35210 0.05896 0.43400
Ag	Ag	0.14856 0.40108 0.08270 0.46600
Ag	Ag	0.22465 0.37793 0.54020 0.45500
Ag	Ag	0.20312 0.42588 0.57254 0.44400
Ag	Ag	0.15022 0.32270 0.59370 0.41700
Ag	Ag	0.82422 0.20746 0.67180 0.41800
Ag	Ag	0.95046 0.28683 0.68735 0.44600
Ag	Ag	0.89562 0.26088 0.61596 0.44800
Ag	Ag	0.87096 0.10237 0.89371 0.43400
Ag	Ag	0.81340 0.08071 0.82679 0.43500
Ag	Ag	0.93052 0.21330 0.87360 0.44200
Ag	Ag	0.56526 0.64117 0.80617 0.43800
Ag	Ag	0.63880 0.75108 0.78412 0.44300
Ag	Ag	0.57315 0.71862 0.84003 0.44600
Ag	Ag	0.52036 0.01518 0.54030 0.41800
Ag	Ag	0.53306 0.96818 0.49116 0.44800
Ag	Ag	0.40599 0.88588 0.49315 0.45100
N 	N 	0.40520 0.47548 0.01848 -0.21700
N 	N 	0.43350 0.48780 0.04530 -0.22600
N 	N 	0.03270 0.08430 0.50660 -0.23500
N 	N 	0.08002 0.10837 0.50799 -0.23000
N 	N 	0.52670 0.57076 0.95066 -0.22600
N 	N 	0.48020 0.54772 0.95052 -0.21500
N 	N 	0.32362 0.67200 0.39662 -0.22700
N 	N 	0.35035 0.68176 0.42271 -0.23400
N 	N 	0.29004 0.55471 0.44315 -0.22000
N 	N 	0.24816 0.50388 0.42364 -0.20600
N 	N 	0.32431 0.66932 0.19283 -0.21600
N 	N 	0.35995 0.69529 0.17504 -0.21900
N 	N 	0.93345 0.81729 0.77134 -0.23400
N 	N 	0.93843 0.79603 0.75406 -0.23800
N 	N 	0.14785 0.95959 0.84084 -0.22200
N 	N 	0.11927 0.93450 0.86197 -0.21500
N 	N 	0.74043 0.68360 0.73143 -0.22200
N 	N 	0.78460 0.73360 0.75240 -0.22300
N 	N 	0.29852 0.00645 0.62377 -0.23800
N 	N 	0.27745 0.99598 0.64823 -0.23300
N 	N 	0.38243 0.19546 0.66129 -0.22500
N 	N 	0.35064 0.17433 0.63257 -0.21600
N 	N 	0.29535 0.89347 0.60902 -0.20200
N 	N 	0.31690 0.93455 0.60005 -0.22000
N 	N 	0.28844 0.44128 0.09452 -0.23200
N 	N 	0.24679 0.39180 0.07319 -0.22900
N 	N 	0.10544 0.31628 0.03552 -0.22000
N 	N 	0.09501 0.33676 0.04317 -0.21000
N 	N 	0.20913 0.47177 0.11870 -0.21100
N 	N 	0.25669 0.49609 0.13058 -0.22800
N 	N 	0.25104 0.43722 0.52486 -0.21300
N 	N 	0.24491 0.45861 0.53972 -0.21800
N 	N 	0.14702 0.38552 0.59774 -0.21600
N 	N 	0.12780 0.34540 0.60740 -0.23200
N 	N 	0.16045 0.28994 0.57299 -0.23100
N 	N 	0.18532 0.30880 0.54932 -0.21800
N 	N 	0.85746 0.22074 0.71480 -0.23000
N 	N 	0.90818 0.25020 0.71918 -0.22200
N 	N 	0.99405 0.31611 0.65556 -0.22600
N 	N 	0.97141 0.30398 0.62559 -0.22300
N 	N 	0.81586 0.20816 0.60542 -0.21800
N 	N 	0.78903 0.18851 0.62794 -0.23200
N 	N 	0.80320 0.02400 0.86440 -0.22500
N 	N 	0.78183 0.01700 0.83703 -0.22700
N 	N 	0.84617 0.14347 0.81324 -0.23200
N 	N 	0.89222 0.19640 0.83142 -0.22500
N 	N 	0.96650 0.22561 0.91451 -0.22700
N 	N 	0.93947 0.18097 0.92244 -0.22800
N 	N 	0.61703 0.66946 0.78109 -0.22200
N 	N 	0.64370 0.71120 0.76930 -0.22400
N 	N 	0.64747 0.80005 0.80492 -0.22700
N 	N 	0.62502 0.79102 0.82784 -0.22400
N 	N 	0.53575 0.65508 0.85683 -0.22000
N 	N 	0.52870 0.62220 0.84050 -0.23200
N 	N 	0.59713 0.06569 0.54062 -0.23600
N 	N 	0.60294 0.04524 0.52258 -0.21500
N 	N 	0.46348 0.88729 0.46477 -0.21800
N 	N 	0.41313 0.85570 0.46343 -0.21800
N 	N 	0.39938 0.91105 0.52823 -0.21400
N 	N 	0.44523 0.96256 0.54679 -0.22700
C 	C 	0.32640 0.43980 0.99740 -0.47300
C 	C 	0.36310 0.45480 0.02330 0.16500
C 	C 	0.36260 0.45450 0.05310 -0.12600
C 	C 	0.40690 0.47370 0.06720 0.17300
C 	C 	0.42650 0.48180 0.09810 -0.51600
C 	C 	0.00440 0.10840 0.52340 -0.48700
C 	C 	0.04710 0.12300 0.52130 0.16200
C 	C 	0.10370 0.17300 0.53190 -0.12100
C 	C 	0.12210 0.16130 0.52260 0.15000
C 	C 	0.18000 0.19830 0.52830 -0.47700
C 	C 	0.59610 0.62450 0.92300 -0.48800
C 	C 	0.54510 0.59460 0.92710 0.15800
C 	C 	0.51150 0.58730 0.91220 -0.11200
C 	C 	0.47180 0.55840 0.92800 0.15100
C 	C 	0.42300 0.53810 0.92210 -0.46600
C 	C 	0.32042 0.71540 0.37342 -0.52000
C 	C 	0.34063 0.71457 0.39920 0.18000
C 	C 	0.37841 0.75250 0.42791 -0.12100
C 	C 	0.38210 0.72918 0.44168 0.13500
C 	C 	0.41560 0.75020 0.47360 -0.47500
C 	C 	0.34530 0.60390 0.49760 -0.47600
C 	C 	0.30132 0.55370 0.47142 0.14700
C 	C 	0.26540 0.50081 0.47021 -0.10500
C 	C 	0.23270 0.47050 0.43940 0.14900
C 	C 	0.18650 0.41150 0.42340 -0.45800
C 	C 	0.24570 0.57900 0.20210 -0.50000
C 	C 	0.28920 0.61720 0.18680 0.16700
C 	C 	0.30099 0.60800 0.16359 -0.11800
C 	C 	0.34400 0.65618 0.15678 0.15600
C 	C 	0.37260 0.67020 0.13360 -0.47500
C 	C 	0.98170 0.88690 0.81760 -0.51500
C 	C 	0.97660 0.85660 0.79520 0.18300
C 	C 	0.01260 0.86430 0.79430 -0.13300
C 	C 	0.98720 0.82510 0.76830 0.14100
C 	C 	0.00500 0.81170 0.75490 -0.47200
C 	C 	0.13500 0.95880 0.78720 -0.48000
C 	C 	0.11521 0.93980 0.81461 0.15500
C 	C 	0.06306 0.89990 0.81796 -0.11000
C 	C 	0.06830 0.89890 0.84840 0.16400
C 	C 	0.02460 0.86180 0.86400 -0.47900
C 	C 	0.64170 0.60820 0.71350 -0.51700
C 	C 	0.69700 0.66310 0.73230 0.17200
C 	C 	0.71200 0.70040 0.75460 -0.11000
C 	C 	0.76870 0.74460 0.76610 0.15200
C 	C 	0.80660 0.79540 0.79100 -0.48000
C 	C 	0.34660 0.07040 0.59200 -0.48800
C 	C 	0.31924 0.04824 0.61748 0.14900
C 	C 	0.31200 0.06560 0.63740 -0.12700
C 	C 	0.28460 0.03070 0.65650 0.17100
C 	C 	0.26590 0.02880 0.68210 -0.50400
C 	C 	0.40210 0.17120 0.69510 -0.47400
C 	C 	0.37170 0.15870 0.66660 0.15200
C 	C 	0.33300 0.11330 0.64070 -0.11100
C 	C 	0.32020 0.12435 0.61975 0.16300
C 	C 	0.28190 0.09120 0.58910 -0.49900
C 	C 	0.28810 0.83320 0.60030 -0.46900
C 	C 	0.31060 0.88070 0.59590 0.15000
C 	C 	0.34540 0.91750 0.57870 -0.09900
C 	C 	0.34630 0.94890 0.58140 0.13700
C 	C 	0.37640 0.99400 0.56660 -0.45300
C 	C 	0.39020 0.52770 0.11210 -0.46200
C 	C 	0.33680 0.47070 0.09210 0.13200
C 	C 	0.32440 0.43750 0.06830 -0.10800
C 	C 	0.26750 0.38840 0.05710 0.16000
C 	C 	0.23060 0.33830 0.03190 -0.48900
C 	C 	0.08050 0.25820 0.99110 -0.45000
C 	C 	0.07730 0.28630 0.00680 0.14500
C 	C 	0.04740 0.28470 0.99390 -0.10600
C 	C 	0.06058 0.31861 0.01779 0.15200
C 	C 	0.04230 0.33440 0.01790 -0.48600
C 	C 	0.17230 0.49080 0.12090 -0.47600
C 	C 	0.21730 0.50700 0.12930 0.15500
C 	C 	0.27194 0.55608 0.14862 -0.11200
C 	C 	0.29300 0.54610 0.14830 0.15700
C 	C 	0.34960 0.58340 0.16380 -0.48500
C 	C 	0.27000 0.43350 0.47610 -0.48900
C 	C 	0.26070 0.45040 0.49750 0.15500
C 	C 	0.25880 0.47920 0.49480 -0.11000
C 	C 	0.24990 0.48410 0.52200 0.15000
C 	C 	0.24170 0.50890 0.53180 -0.46500
C 	C 	0.13200 0.42560 0.59400 -0.47000
C 	C 	0.11809 0.38395 0.60284 0.16000
C 	C 	0.07900 0.34360 0.61620 -0.10500
C 	C 	0.08590 0.31890 0.61840 0.14200
C 	C 	0.05470 0.27220 0.63070 -0.46600
C 	C 	0.09740 0.20910 0.59250 -0.48200
C 	C 	0.12960 0.24000 0.57020 0.14800
C 	C 	0.13510 0.22680 0.54530 -0.11800
C 	C 	0.17010 0.27100 0.53350 0.17100
C 	C 	0.19190 0.28090 0.50660 -0.47800
C 	C 	0.78380 0.16460 0.73980 -0.48600
C 	C 	0.83790 0.19950 0.73920 0.15000
C 	C 	0.87530 0.21360 0.75870 -0.11100
C 	C 	0.91800 0.24560 0.74500 0.16400
C 	C 	0.96900 0.27040 0.75520 -0.47900
C 	C 	0.06690 0.34780 0.68470 -0.49200
C 	C 	0.03440 0.33160 0.65500 0.17500
C 	C 	0.04040 0.33096 0.62656 -0.12800
C 	C 	0.99850 0.31250 0.60800 0.17100
C 	C 	0.98280 0.30110 0.57430 -0.49900
C 	C 	0.80020 0.20410 0.55130 -0.48100
C 	C 	0.78087 0.18670 0.57937 0.16300
C 	C 	0.73046 0.15077 0.58323 -0.10800
C 	C 	0.73710 0.15299 0.61449 0.12200
C 	C 	0.69750 0.12230 0.63380 -0.44500
C 	C 	0.78770 0.96990 0.89400 -0.45300
C 	C 	0.77380 0.97600 0.86620 0.13300
C 	C 	0.73060 0.93480 0.83880 -0.09800
C 	C 	0.73810 0.96400 0.82130 0.15300
C 	C 	0.70620 0.94400 0.79000 -0.47800
C 	C 	0.78530 0.09050 0.76020 -0.45700
C 	C 	0.83320 0.14320 0.78580 0.14300
C 	C 	0.87060 0.19600 0.78540 -0.11600
C 	C 	0.90670 0.22770 0.81460 0.16900
C 	C 	0.95490 0.28740 0.82930 -0.49600
C 	C 	0.04880 0.32500 0.93640 -0.49200
C 	C 	0.00900 0.26980 0.93900 0.16000
C 	C 	0.00960 0.25360 0.96300 -0.11800
C 	C 	0.96494 0.19690 0.95144 0.14900
C 	C 	0.94300 0.15450 0.96610 -0.47800
C 	C 	0.61440 0.61330 0.78630 -0.47300
C 	C 	0.63620 0.65860 0.77620 0.15900
C 	C 	0.67630 0.69400 0.76230 -0.12100
C 	C 	0.68140 0.72770 0.75850 0.16300
C 	C 	0.71900 0.77460 0.74500 -0.49300
C 	C 	0.72050 0.87710 0.78460 -0.53200
C 	C 	0.68760 0.85360 0.80580 0.18600
C 	C 	0.69010 0.87720 0.82970 -0.13100
C 	C 	0.64940 0.83580 0.84280 0.16600
C 	C 	0.63380 0.83780 0.86940 -0.48700
C 	C 	0.53310 0.67590 0.90660 -0.49400
C 	C 	0.52760 0.64530 0.88350 0.17100
C 	C 	0.51760 0.60750 0.88630 -0.12000
C 	C 	0.51780 0.59340 0.85820 0.15800
C 	C 	0.50780 0.55330 0.84730 -0.48800
C 	C 	0.64970 0.13850 0.58780 -0.46600
C 	C 	0.64300 0.10740 0.56420 0.14100
C 	C 	0.67929 0.11508 0.56117 -0.11400
C 	C 	0.65214 0.07550 0.53504 0.16400
C 	C 	0.66920 0.06210 0.51990 -0.47700
C 	C 	0.50600 0.87650 0.44990 -0.49500
C 	C 	0.45830 0.85520 0.45210 0.15600
C 	C 	0.40184 0.80076 0.44160 -0.10800
C 	C 	0.37640 0.80460 0.44960 0.15700
C 	C 	0.31640 0.75960 0.44520 -0.47800
C 	C 	0.30010 0.83030 0.52000 -0.49100
C 	C 	0.35670 0.88660 0.53730 0.16700
C 	C 	0.37610 0.92400 0.56210 -0.11800
C 	C 	0.43115 0.97040 0.56675 0.14200
C 	C 	0.47560 0.02460 0.59120 -0.46700
H 	H 	0.33800 0.44510 0.97870 0.11300
H 	H 	0.32870 0.46300 0.00290 0.12900
H 	H 	0.28870 0.40160 0.99370 0.13100
H 	H 	0.45900 0.49680 0.10000 0.12400
H 	H 	0.39820 0.44680 0.10300 0.14200
H 	H 	0.43580 0.50730 0.11230 0.14300
H 	H 	0.96860 0.06930 0.51370 0.11700
H 	H 	0.00830 0.12910 0.51280 0.13200
H 	H 	0.00750 0.11710 0.54500 0.13800
H 	H 	0.17900 0.17720 0.51880 0.11500
H 	H 	0.19720 0.21280 0.55040 0.14300
H 	H 	0.20100 0.22830 0.51930 0.13400
H 	H 	0.60980 0.62160 0.93820 0.11400
H 	H 	0.62330 0.66290 0.92600 0.13500
H 	H 	0.58920 0.60890 0.90230 0.13500
H 	H 	0.40290 0.51890 0.93720 0.11300
H 	H 	0.39910 0.51330 0.90140 0.13600
H 	H 	0.43580 0.56930 0.92410 0.13000
H 	H 	0.29440 0.68200 0.35660 0.12700
H 	H 	0.35100 0.74720 0.36640 0.15700
H 	H 	0.30220 0.71760 0.37980 0.14500
H 	H 	0.41000 0.72490 0.47630 0.11500
H 	H 	0.40380 0.75300 0.48900 0.13200
H 	H 	0.45420 0.78610 0.47590 0.13400
H 	H 	0.36300 0.63470 0.49070 0.10700
H 	H 	0.37230 0.61150 0.50540 0.13600
H 	H 	0.32980 0.59890 0.51390 0.13300
H 	H 	0.17310 0.40420 0.40170 0.11100
H 	H 	0.15700 0.38970 0.43310 0.12600
H 	H 	0.19900 0.40140 0.42480 0.12600
H 	H 	0.24890 0.59840 0.21750 0.12100
H 	H 	0.24900 0.56340 0.21200 0.14600
H 	H 	0.21000 0.54970 0.18670 0.13800
H 	H 	0.40200 0.70870 0.13470 0.11100
H 	H 	0.34670 0.64770 0.11300 0.12900
H 	H 	0.38780 0.66330 0.13770 0.13200
H 	H 	0.94890 0.87150 0.81180 0.12800
H 	H 	0.98610 0.88400 0.83810 0.14400
H 	H 	0.01370 0.92530 0.81780 0.15600
H 	H 	0.97730 0.78170 0.73600 0.11100
H 	H 	0.03970 0.84390 0.75040 0.13200
H 	H 	0.01000 0.80090 0.76970 0.13000
H 	H 	0.17400 0.98730 0.79230 0.10900
H 	H 	0.11520 0.92810 0.77050 0.13200
H 	H 	0.12860 0.97350 0.78070 0.12500
H 	H 	0.04050 0.87090 0.88540 0.11400
H 	H 	0.00660 0.86590 0.86330 0.13300
H 	H 	0.99780 0.82390 0.85350 0.13000
H 	H 	0.64350 0.59180 0.70050 0.13000
H 	H 	0.61910 0.58560 0.72710 0.14600
H 	H 	0.62570 0.61060 0.70070 0.14900
H 	H 	0.84370 0.81890 0.79460 0.11600
H 	H 	0.80560 0.81470 0.78490 0.13400
H 	H 	0.79530 0.78600 0.80990 0.13500
H 	H 	0.34450 0.04870 0.58200 0.11900
H 	H 	0.32810 0.06850 0.57700 0.14000
H 	H 	0.38480 0.10840 0.60060 0.13400
H 	H 	0.24800 0.99900 0.69040 0.12700
H 	H 	0.29730 0.06350 0.69840 0.13900
H 	H 	0.24020 0.02300 0.67480 0.15200
H 	H 	0.42660 0.20660 0.70880 0.10900
H 	H 	0.37640 0.14290 0.70550 0.13200
H 	H 	0.42370 0.17260 0.69010 0.13200
H 	H 	0.28290 0.11090 0.58040 0.12300
H 	H 	0.29200 0.08380 0.57600 0.14100
H 	H 	0.24500 0.05670 0.59050 0.13200
H 	H 	0.26480 0.81700 0.61400 0.11600
H 	H 	0.26660 0.80600 0.58040 0.13400
H 	H 	0.31820 0.84530 0.60930 0.13000
H 	H 	0.36970 0.00900 0.57250 0.09800
H 	H 	0.41550 0.02280 0.57350 0.12200
H 	H 	0.36330 0.97930 0.54420 0.12000
H 	H 	0.38360 0.53780 0.12680 0.11200
H 	H 	0.41050 0.55290 0.09940 0.12700
H 	H 	0.41160 0.52990 0.12330 0.12700
H 	H 	0.19260 0.31170 0.03030 0.12300
H 	H 	0.23650 0.32260 0.03630 0.15000
H 	H 	0.23840 0.34760 0.01240 0.13400
H 	H 	0.10400 0.26540 0.00600 0.10100
H 	H 	0.09570 0.27230 0.97380 0.12400
H 	H 	0.04390 0.21880 0.98370 0.12700
H 	H 	0.05860 0.35820 0.03820 0.12000
H 	H 	0.00250 0.30150 0.01320 0.13800
H 	H 	0.05370 0.35370 0.00240 0.13400
H 	H 	0.14000 0.45370 0.10690 0.11300
H 	H 	0.18350 0.51610 0.11080 0.13000
H 	H 	0.16340 0.49160 0.13940 0.13500
H 	H 	0.35210 0.56420 0.15910 0.11300
H 	H 	0.35750 0.59450 0.18600 0.14100
H 	H 	0.37600 0.61570 0.15630 0.13500
H 	H 	0.26870 0.41370 0.48500 0.12200
H 	H 	0.30590 0.46590 0.47280 0.14300
H 	H 	0.24170 0.40980 0.45650 0.13700
H 	H 	0.23590 0.50540 0.55230 0.11000
H 	H 	0.20990 0.49010 0.51720 0.12800
H 	H 	0.27420 0.54760 0.53260 0.13000
H 	H 	0.16250 0.44890 0.58500 0.11600
H 	H 	0.14230 0.44810 0.61240 0.14000
H 	H 	0.10020 0.40650 0.57910 0.13000
H 	H 	0.06960 0.26480 0.62940 0.10900
H 	H 	0.01630 0.23990 0.61860 0.12800
H 	H 	0.05750 0.28100 0.65230 0.12600
H 	H 	0.10300 0.23080 0.60760 0.11300
H 	H 	0.10950 0.20130 0.60300 0.13200
H 	H 	0.05860 0.17460 0.58140 0.13300
H 	H 	0.21650 0.31700 0.50470 0.11500
H 	H 	0.16150 0.25300 0.48770 0.13000
H 	H 	0.21180 0.27900 0.50980 0.13600
H 	H 	0.76820 0.16290 0.72210 0.11300
H 	H 	0.76010 0.12790 0.73900 0.13500
H 	H 	0.78700 0.17990 0.75890 0.13300
H 	H 	0.99150 0.29110 0.74120 0.11500
H 	H 	0.98950 0.29490 0.77600 0.13700
H 	H 	0.95920 0.24150 0.75490 0.13300
H 	H 	0.05270 0.34450 0.70140 0.11700
H 	H 	0.06380 0.32370 0.68330 0.13400
H 	H 	0.10520 0.38550 0.68870 0.14100
H 	H 	0.95220 0.28900 0.56840 0.12300
H 	H 	0.01400 0.33440 0.56840 0.14000
H 	H 	0.97210 0.27250 0.56400 0.13900
H 	H 	0.83840 0.23000 0.55580 0.11900
H 	H 	0.77790 0.17210 0.53460 0.13500
H 	H 	0.79690 0.22150 0.54500 0.14300
H 	H 	0.71660 0.13410 0.65490 0.09600
H 	H 	0.68250 0.12960 0.63370 0.12200
H 	H 	0.66780 0.08300 0.62520 0.12200
H 	H 	0.81990 0.00550 0.90940 0.11000
H 	H 	0.75680 0.94440 0.90280 0.12500
H 	H 	0.79520 0.95580 0.88780 0.12600
H 	H 	0.72250 0.97470 0.78400 0.11700
H 	H 	0.70650 0.92720 0.77530 0.13300
H 	H 	0.66850 0.91690 0.78980 0.14200
H 	H 	0.76640 0.05990 0.76790 0.10500
H 	H 	0.76010 0.08530 0.75260 0.12600
H 	H 	0.79850 0.09230 0.74340 0.12100
H 	H 	0.97120 0.29620 0.85040 0.12400
H 	H 	0.98190 0.30700 0.81770 0.14000
H 	H 	0.94350 0.29850 0.82940 0.14600
H 	H 	0.03650 0.32260 0.91630 0.12000
H 	H 	0.05230 0.34390 0.95260 0.13700
H 	H 	0.08440 0.34530 0.93870 0.13700
H 	H 	0.91030 0.11830 0.95140 0.11500
H 	H 	0.97070 0.16260 0.97190 0.13300
H 	H 	0.93350 0.15520 0.98430 0.14500
H 	H 	0.58550 0.59490 0.79580 0.12000
H 	H 	0.64410 0.62880 0.80110 0.13100
H 	H 	0.59960 0.58690 0.76830 0.13600
H 	H 	0.71100 0.78900 0.74540 0.12400
H 	H 	0.71400 0.76230 0.72370 0.14100
H 	H 	0.75670 0.80330 0.75700 0.13800
H 	H 	0.70840 0.84920 0.77080 0.13400
H 	H 	0.75880 0.90710 0.79610 0.14900
H 	H 	0.71660 0.89100 0.77260 0.15500
H 	H 	0.60350 0.80160 0.87290 0.11700
H 	H 	0.62240 0.84840 0.86500 0.13800
H 	H 	0.66520 0.86440 0.88780 0.13300
H 	H 	0.54080 0.70000 0.89780 0.12500
H 	H 	0.56330 0.69780 0.92490 0.13500
H 	H 	0.49920 0.65000 0.91240 0.14200
H 	H 	0.51110 0.55280 0.82630 0.11800
H 	H 	0.47100 0.51700 0.84740 0.14000
H 	H 	0.53470 0.56380 0.86090 0.13400
H 	H 	0.61670 0.12300 0.58310 0.10800
H 	H 	0.68110 0.17680 0.58770 0.12600
H 	H 	0.65560 0.13620 0.60820 0.12600
H 	H 	0.64000 0.03120 0.50140 0.11500
H 	H 	0.67600 0.05230 0.53410 0.13300
H 	H 	0.70250 0.09370 0.51420 0.13700
H 	H 	0.53970 0.91600 0.45890 0.12100
H 	H 	0.50270 0.86780 0.42830 0.13700
H 	H 	0.50650 0.85940 0.46090 0.13600
H 	H 	0.31110 0.77530 0.45320 0.11500
H 	H 	0.30230 0.73370 0.45620 0.13100
H 	H 	0.29700 0.74070 0.42330 0.13400
H 	H 	0.30090 0.81530 0.50400 0.12300
H 	H 	0.28050 0.83100 0.51050 0.14500
H 	H 	0.28150 0.80760 0.53410 0.13800
H 	H 	0.51110 0.04940 0.58810 0.10800
H 	H 	0.47480 0.01890 0.61150 0.13400
H 	H 	0.46940 0.04070 0.58970 0.12500
Ag	Ag	0.99243 0.47557 0.93386 0.45900
Ag	Ag	0.97159 0.51942 0.97829 0.43100
Ag	Ag	0.43482 0.41887 0.01173 0.43200
Ag	Ag	0.90244 0.76671 0.66597 0.43700
Ag	Ag	0.88066 0.81196 0.70402 0.42600
Ag	Ag	0.00925 0.89157 0.72152 0.46700
Ag	Ag	0.72405 0.98532 0.08307 0.43600
Ag	Ag	0.77581 0.99578 0.14967 0.42500
Ag	Ag	0.84580 0.05243 0.09653 0.46300
Ag	Ag	0.53188 0.64373 0.33711 0.42700
Ag	Ag	0.56172 0.72861 0.31065 0.43500
Ag	Ag	0.63385 0.77449 0.38510 0.46400
Ag	Ag	0.03385 0.64794 0.80435 0.43000
Ag	Ag	0.14790 0.70686 0.82144 0.43400
Ag	Ag	0.09892 0.68162 0.74748 0.46600
Ag	Ag	0.12207 0.16227 0.84672 0.45500
Ag	Ag	0.07412 0.14666 0.77724 0.44400
Ag	Ag	0.17730 0.27100 0.82752 0.41600
Ag	Ag	0.29254 0.46434 0.61676 0.41800
Ag	Ag	0.21317 0.40052 0.66363 0.44600
Ag	Ag	0.23912 0.35508 0.63474 0.44900
Ag	Ag	0.39763 0.79134 0.76859 0.43400
Ag	Ag	0.41929 0.74608 0.73269 0.43500
Ag	Ag	0.28670 0.66030 0.71722 0.44200
Ag	Ag	0.85883 0.16500 0.92409 0.43800
Ag	Ag	0.74892 0.03304 0.88772 0.44300
Ag	Ag	0.78138 0.12141 0.85453 0.44600
Ag	Ag	0.48482 0.52512 0.50518 0.41800
Ag	Ag	0.53182 0.52298 0.56488 0.44800
Ag	Ag	0.61412 0.60727 0.52011 0.45100
N 	N 	0.02452 0.54300 0.92972 -0.21700
N 	N 	0.01220 0.55750 0.94570 -0.22600
N 	N 	0.41570 0.42230 0.94840 -0.23500
N 	N 	0.39163 0.39962 0.97165 -0.23000
N 	N 	0.92924 0.37990 0.95594 -0.22600
N 	N 	0.95228 0.40280 0.93248 -0.21600
N 	N 	0.82800 0.72462 0.65162 -0.22700
N 	N 	0.81824 0.74095 0.66859 -0.23400
N 	N 	0.94529 0.88844 0.73533 -0.22000
N 	N 	0.99612 0.91976 0.74428 -0.20500
N 	N 	0.83068 0.52351 0.65499 -0.21600
N 	N 	0.80471 0.47975 0.66466 -0.21900
N 	N 	0.68271 0.95405 0.11616 -0.23400
N 	N 	0.70397 0.95803 0.14240 -0.23700
N 	N 	0.54041 0.88125 0.18826 -0.22200
N 	N 	0.56550 0.92747 0.18477 -0.21500
N 	N 	0.81640 0.04783 0.05683 -0.22200
N 	N 	0.76640 0.01880 0.05100 -0.22300
N 	N 	0.49355 0.61732 0.29207 -0.23900
N 	N 	0.50402 0.65225 0.28147 -0.23300
N 	N 	0.30454 0.46583 0.18697 -0.22500
N 	N 	0.32567 0.45824 0.17631 -0.21600
N 	N 	0.60653 0.71555 0.40188 -0.20200
N 	N 	0.56545 0.66550 0.38235 -0.22000
N 	N 	0.05872 0.65324 0.84716 -0.23200
N 	N 	0.10820 0.68139 0.85499 -0.22900
N 	N 	0.18372 0.71924 0.78916 -0.22100
N 	N 	0.16324 0.70641 0.75825 -0.21000
N 	N 	0.02823 0.64693 0.73736 -0.21100
N 	N 	0.00391 0.63449 0.76060 -0.22800
N 	N 	0.06278 0.08764 0.81382 -0.21300
N 	N 	0.04139 0.08111 0.78630 -0.21800
N 	N 	0.11448 0.21222 0.76150 -0.21600
N 	N 	0.15460 0.26200 0.78240 -0.23200
N 	N 	0.21006 0.28305 0.87051 -0.23100
N 	N 	0.19120 0.24052 0.87652 -0.21800
N 	N 	0.27926 0.49406 0.63672 -0.23000
N 	N 	0.24980 0.46898 0.65798 -0.22200
N 	N 	0.18389 0.33945 0.67794 -0.22600
N 	N 	0.19602 0.32161 0.66743 -0.22300
N 	N 	0.29184 0.39726 0.60770 -0.21800
N 	N 	0.31149 0.43943 0.60052 -0.23200
N 	N 	0.47600 0.84040 0.77920 -0.22500
N 	N 	0.48300 0.82003 0.76483 -0.22600
N 	N 	0.35653 0.66977 0.70270 -0.23200
N 	N 	0.30360 0.63502 0.69582 -0.22500
N 	N 	0.27439 0.68890 0.74089 -0.22700
N 	N 	0.31903 0.74147 0.75850 -0.22800
N 	N 	0.83054 0.11163 0.94757 -0.22200
N 	N 	0.78880 0.05810 0.93250 -0.22400
N 	N 	0.69995 0.00487 0.84742 -0.22700
N 	N 	0.70898 0.03682 0.83400 -0.22400
N 	N 	0.84492 0.20175 0.88067 -0.22000
N 	N 	0.87780 0.21830 0.90650 -0.23200
N 	N 	0.43431 0.47493 0.53144 -0.23600
N 	N 	0.45476 0.47734 0.55770 -0.21500
N 	N 	0.61271 0.57748 0.57619 -0.21800
N 	N 	0.64430 0.60773 0.55743 -0.21800
N 	N 	0.58895 0.61718 0.48833 -0.21400
N 	N 	0.53744 0.58423 0.48267 -0.22700
C 	C 	0.06020 0.55760 0.88660 -0.47300
C 	C 	0.04520 0.56850 0.90830 0.16500
C 	C 	0.04550 0.59860 0.90810 -0.12600
C 	C 	0.02630 0.59350 0.93320 0.17300
C 	C 	0.01820 0.61630 0.94470 -0.51600
C 	C 	0.39160 0.41500 0.89600 -0.48800
C 	C 	0.37700 0.39830 0.92410 0.16300
C 	C 	0.32700 0.35890 0.93070 -0.12100
C 	C 	0.33870 0.36130 0.96080 0.15000
C 	C 	0.30170 0.33000 0.98170 -0.47600
C 	C 	0.87550 0.29850 0.97160 -0.48800
C 	C 	0.90540 0.33250 0.95050 0.15800
C 	C 	0.91270 0.32490 0.92420 -0.11200
C 	C 	0.94160 0.36960 0.91340 0.15100
C 	C 	0.96190 0.38400 0.88490 -0.46500
C 	C 	0.78460 0.65802 0.60502 -0.52000
C 	C 	0.78543 0.68463 0.62606 0.18000
C 	C 	0.74750 0.67541 0.62591 -0.12100
C 	C 	0.77082 0.71250 0.65292 0.13500
C 	C 	0.74980 0.72340 0.66540 -0.47500
C 	C 	0.89610 0.89370 0.74140 -0.47600
C 	C 	0.94630 0.91772 0.74762 0.14600
C 	C 	0.99919 0.96940 0.76459 -0.10400
C 	C 	0.02950 0.96890 0.76220 0.14700
C 	C 	0.08850 0.01190 0.77500 -0.45500
C 	C 	0.92100 0.62310 0.66670 -0.50000
C 	C 	0.88280 0.56960 0.67200 0.16700
C 	C 	0.89200 0.55559 0.69299 -0.11800
C 	C 	0.84382 0.50060 0.68782 0.15600
C 	C 	0.82980 0.46340 0.70240 -0.47500
C 	C 	0.61310 0.93070 0.09480 -0.51600
C 	C 	0.64340 0.93860 0.12000 0.18300
C 	C 	0.63570 0.93000 0.14830 -0.13200
C 	C 	0.67490 0.94320 0.16210 0.14000
C 	C 	0.68830 0.94320 0.19330 -0.47000
C 	C 	0.54120 0.82840 0.17620 -0.48000
C 	C 	0.56020 0.87481 0.17541 0.15500
C 	C 	0.60010 0.91806 0.16316 -0.11000
C 	C 	0.60110 0.94950 0.16940 0.16500
C 	C 	0.63820 0.00220 0.16280 -0.47900
C 	C 	0.89180 0.10530 0.03350 -0.51700
C 	C 	0.83690 0.06920 0.03390 0.17200
C 	C 	0.79960 0.05420 0.01160 -0.10900
C 	C 	0.75540 0.02150 0.02410 0.15200
C 	C 	0.70460 0.99560 0.01120 -0.47900
C 	C 	0.42960 0.52160 0.27620 -0.48800
C 	C 	0.45176 0.56924 0.27100 0.14900
C 	C 	0.43440 0.57180 0.24640 -0.12700
C 	C 	0.46930 0.62580 0.25390 0.17100
C 	C 	0.47120 0.65330 0.23710 -0.50500
C 	C 	0.32880 0.52390 0.23090 -0.47400
C 	C 	0.34130 0.50790 0.21300 0.15200
C 	C 	0.38670 0.52740 0.21970 -0.11100
C 	C 	0.37565 0.49540 0.19585 0.16300
C 	C 	0.40880 0.49790 0.19070 -0.49900
C 	C 	0.66680 0.76710 0.45490 -0.46900
C 	C 	0.61930 0.71520 0.42990 0.15000
C 	C 	0.58250 0.66120 0.42790 -0.09900
C 	C 	0.55110 0.63250 0.39740 0.13700
C 	C 	0.50600 0.57260 0.38240 -0.45200
C 	C 	0.97230 0.58440 0.86250 -0.46200
C 	C 	0.02930 0.62140 0.86610 0.13200
C 	C 	0.06250 0.63080 0.88690 -0.10800
C 	C 	0.11160 0.66870 0.87910 0.16000
C 	C 	0.16170 0.69360 0.89230 -0.48900
C 	C 	0.24180 0.73290 0.82230 -0.45000
C 	C 	0.21370 0.72050 0.79100 0.14500
C 	C 	0.21530 0.70920 0.76270 -0.10600
C 	C 	0.18139 0.69918 0.74197 0.15200
C 	C 	0.16560 0.68350 0.70790 -0.48600
C 	C 	0.00920 0.63010 0.68150 -0.47700
C 	C 	0.99300 0.62230 0.71030 0.15500
C 	C 	0.94392 0.59254 0.71586 -0.11200
C 	C 	0.95390 0.60220 0.74690 0.15700
C 	C 	0.91660 0.58040 0.76620 -0.48500
C 	C 	0.06650 0.04260 0.83650 -0.49000
C 	C 	0.04960 0.04710 0.81030 0.15500
C 	C 	0.02080 0.01560 0.77960 -0.11100
C 	C 	0.01590 0.03790 0.76580 0.15200
C 	C 	0.99110 0.02290 0.73280 -0.47100
C 	C 	0.07440 0.16840 0.70640 -0.47000
C 	C 	0.11605 0.21889 0.73414 0.16000
C 	C 	0.15640 0.27260 0.73540 -0.10500
C 	C 	0.18110 0.29950 0.76700 0.14200
C 	C 	0.22780 0.35850 0.78250 -0.46600
C 	C 	0.29090 0.38340 0.88830 -0.48200
C 	C 	0.26000 0.33020 0.88960 0.14800
C 	C 	0.27320 0.31850 0.90830 -0.11800
C 	C 	0.22900 0.26250 0.89910 0.17100
C 	C 	0.21910 0.22570 0.91100 -0.47800
C 	C 	0.33540 0.57520 0.61920 -0.48600
C 	C 	0.30050 0.53970 0.63840 0.15000
C 	C 	0.28640 0.54510 0.66170 -0.11100
C 	C 	0.25440 0.49940 0.67240 0.16400
C 	C 	0.22960 0.48480 0.69860 -0.48000
C 	C 	0.15220 0.33690 0.71910 -0.49200
C 	C 	0.16840 0.32340 0.70280 0.17400
C 	C 	0.16904 0.29560 0.70944 -0.12800
C 	C 	0.18750 0.29550 0.68600 0.17100
C 	C 	0.19890 0.27320 0.68170 -0.49800
C 	C 	0.29590 0.34720 0.59610 -0.48100
C 	C 	0.31330 0.39267 0.59417 0.16300
C 	C 	0.34923 0.43246 0.57969 -0.10800
C 	C 	0.34701 0.46150 0.58411 0.12200
C 	C 	0.37770 0.51150 0.57520 -0.44500
C 	C 	0.53010 0.92410 0.81780 -0.45400
C 	C 	0.52400 0.89020 0.79780 0.13200
C 	C 	0.56520 0.90400 0.79580 -0.09800
C 	C 	0.53600 0.85730 0.77410 0.15200
C 	C 	0.55600 0.84600 0.76220 -0.47700
C 	C 	0.40950 0.66970 0.69480 -0.45700
C 	C 	0.35680 0.64260 0.69000 0.14300
C 	C 	0.30400 0.58940 0.67460 -0.11600
C 	C 	0.27230 0.58690 0.67900 0.17000
C 	C 	0.21260 0.54190 0.66750 -0.49700
C 	C 	0.17500 0.61140 0.72380 -0.49200
C 	C 	0.23020 0.66920 0.73920 0.15900
C 	C 	0.24640 0.70940 0.75600 -0.11800
C 	C 	0.30310 0.75454 0.76804 0.14900
C 	C 	0.34550 0.81160 0.78850 -0.47800
C 	C 	0.88670 0.17300 0.00110 -0.47200
C 	C 	0.84140 0.11760 0.97760 0.15900
C 	C 	0.80600 0.06830 0.98230 -0.12100
C 	C 	0.77230 0.03080 0.95370 0.16300
C 	C 	0.72540 0.97040 0.94440 -0.49200
C 	C 	0.62290 0.90750 0.84340 -0.53200
C 	C 	0.64640 0.95220 0.83400 0.18600
C 	C 	0.62280 0.95250 0.81290 -0.13100
C 	C 	0.66420 0.00700 0.81360 0.16600
C 	C 	0.66220 0.03160 0.79600 -0.48700
C 	C 	0.82410 0.23070 0.85720 -0.49400
C 	C 	0.85470 0.23820 0.88230 0.17100
C 	C 	0.89250 0.27880 0.91010 -0.12000
C 	C 	0.90660 0.26480 0.92440 0.15800
C 	C 	0.94670 0.29400 0.95450 -0.48800
C 	C 	0.36150 0.44930 0.51120 -0.46600
C 	C 	0.39260 0.45680 0.53560 0.14100
C 	C 	0.38492 0.44609 0.56421 -0.11400
C 	C 	0.42450 0.45954 0.57664 0.16400
C 	C 	0.43790 0.45780 0.60710 -0.47800
C 	C 	0.62350 0.57340 0.62950 -0.49500
C 	C 	0.64480 0.59690 0.60310 0.15600
C 	C 	0.69924 0.64084 0.60108 -0.10800
C 	C 	0.69540 0.64500 0.57180 0.15700
C 	C 	0.74040 0.68560 0.55680 -0.47800
C 	C 	0.66970 0.68970 0.46980 -0.49100
C 	C 	0.61340 0.65070 0.47010 0.16700
C 	C 	0.57600 0.63810 0.45210 -0.11800
C 	C 	0.52960 0.59635 0.46075 0.14200
C 	C 	0.47540 0.56660 0.45100 -0.46700
H 	H 	0.05490 0.53360 0.89290 0.11300
H 	H 	0.03700 0.53990 0.86570 0.12900
H 	H 	0.09840 0.59210 0.88710 0.13100
H 	H 	0.00320 0.60320 0.96220 0.12400
H 	H 	0.05320 0.65620 0.95140 0.14200
H 	H 	0.99270 0.60500 0.92850 0.14300
H 	H 	0.43070 0.44440 0.89930 0.11800
H 	H 	0.37090 0.38370 0.87920 0.13200
H 	H 	0.38290 0.42790 0.89040 0.13900
H 	H 	0.32280 0.34160 0.00180 0.11500
H 	H 	0.28720 0.33760 0.98440 0.14200
H 	H 	0.27170 0.29100 0.97270 0.13400
H 	H 	0.87840 0.31660 0.98820 0.11400
H 	H 	0.83710 0.26310 0.96040 0.13500
H 	H 	0.89110 0.29340 0.98030 0.13500
H 	H 	0.98110 0.41830 0.88400 0.11300
H 	H 	0.98670 0.38810 0.88580 0.13600
H 	H 	0.93070 0.35480 0.86650 0.13000
H 	H 	0.81800 0.67460 0.61240 0.12700
H 	H 	0.75280 0.61920 0.60380 0.15700
H 	H 	0.78240 0.66220 0.58460 0.14500
H 	H 	0.77510 0.75140 0.68510 0.11500
H 	H 	0.74700 0.73600 0.65080 0.13200
H 	H 	0.71390 0.68980 0.66810 0.13400
H 	H 	0.86530 0.85600 0.72830 0.10700
H 	H 	0.88850 0.89390 0.76080 0.13600
H 	H 	0.90110 0.91500 0.73090 0.13200
H 	H 	0.09580 0.99750 0.76890 0.11000
H 	H 	0.11030 0.04340 0.76730 0.12500
H 	H 	0.09860 0.02340 0.79760 0.12600
H 	H 	0.90160 0.61910 0.65050 0.12100
H 	H 	0.93660 0.64860 0.68560 0.14600
H 	H 	0.95030 0.63700 0.66030 0.13800
H 	H 	0.79130 0.42600 0.69330 0.11100
H 	H 	0.85230 0.46530 0.69900 0.12900
H 	H 	0.83670 0.47440 0.72450 0.13200
H 	H 	0.62850 0.94030 0.07740 0.12900
H 	H 	0.61600 0.95410 0.10210 0.14400
H 	H 	0.57470 0.89250 0.08840 0.15700
H 	H 	0.71830 0.95430 0.19560 0.11000
H 	H 	0.65610 0.90650 0.19580 0.13200
H 	H 	0.69910 0.96880 0.20910 0.13000
H 	H 	0.51270 0.80500 0.18670 0.10900
H 	H 	0.57190 0.84240 0.18710 0.13200
H 	H 	0.52650 0.80720 0.15510 0.12500
H 	H 	0.62910 0.01450 0.16960 0.11400
H 	H 	0.63410 0.99740 0.14070 0.13300
H 	H 	0.67610 0.02960 0.17390 0.13000
H 	H 	0.90820 0.10870 0.05170 0.13000
H 	H 	0.91440 0.14150 0.03350 0.14600
H 	H 	0.88940 0.09010 0.01510 0.14800
H 	H 	0.68110 0.97570 0.02480 0.11500
H 	H 	0.68530 0.97020 0.99090 0.13400
H 	H 	0.71400 0.02390 0.00930 0.13400
H 	H 	0.45130 0.53330 0.29580 0.11900
H 	H 	0.43150 0.50850 0.25960 0.14000
H 	H 	0.39160 0.49220 0.27640 0.13400
H 	H 	0.50100 0.69140 0.24900 0.12700
H 	H 	0.43650 0.63490 0.23380 0.13900
H 	H 	0.47700 0.65180 0.21720 0.15200
H 	H 	0.29340 0.50220 0.22000 0.10900
H 	H 	0.35710 0.56260 0.23350 0.13200
H 	H 	0.32740 0.51750 0.25110 0.13200
H 	H 	0.38910 0.46950 0.17200 0.12300
H 	H 	0.41620 0.49220 0.20820 0.14100
H 	H 	0.44330 0.53380 0.18830 0.13200
H 	H 	0.68300 0.79700 0.44780 0.11600
H 	H 	0.69400 0.77440 0.46060 0.13400
H 	H 	0.65470 0.76400 0.47290 0.13000
H 	H 	0.49100 0.56350 0.36070 0.09800
H 	H 	0.47720 0.55070 0.39270 0.12200
H 	H 	0.52070 0.56490 0.38400 0.12000
H 	H 	0.96220 0.58900 0.84580 0.11100
H 	H 	0.94710 0.54650 0.85760 0.12700
H 	H 	0.97010 0.59340 0.88170 0.12700
H 	H 	0.18830 0.71860 0.88090 0.12300
H 	H 	0.17740 0.71370 0.91390 0.15000
H 	H 	0.15240 0.66480 0.89080 0.13400
H 	H 	0.23460 0.74060 0.83860 0.10100
H 	H 	0.22770 0.70150 0.82340 0.12400
H 	H 	0.28120 0.76490 0.82510 0.12700
H 	H 	0.14180 0.68000 0.70040 0.12000
H 	H 	0.19850 0.71170 0.70100 0.13800
H 	H 	0.14630 0.64870 0.70000 0.13400
H 	H 	0.04630 0.65320 0.68630 0.11300
H 	H 	0.98390 0.59470 0.66740 0.13000
H 	H 	0.00840 0.64780 0.67180 0.13500
H 	H 	0.93580 0.59490 0.78790 0.11300
H 	H 	0.90550 0.59150 0.76300 0.14100
H 	H 	0.88430 0.54060 0.76030 0.13500
H 	H 	0.08630 0.07130 0.85500 0.12300
H 	H 	0.03410 0.00690 0.84000 0.14300
H 	H 	0.09020 0.04670 0.83190 0.13700
H 	H 	0.99460 0.04690 0.73050 0.11100
H 	H 	0.00990 0.02710 0.71980 0.13000
H 	H 	0.95240 0.98500 0.72660 0.13200
H 	H 	0.05110 0.13610 0.71360 0.11700
H 	H 	0.05190 0.16430 0.69420 0.14000
H 	H 	0.09350 0.17260 0.69370 0.13000
H 	H 	0.23520 0.36460 0.80480 0.10900
H 	H 	0.26010 0.37870 0.77640 0.12800
H 	H 	0.21900 0.37130 0.77650 0.12600
H 	H 	0.26920 0.37680 0.87220 0.11300
H 	H 	0.29870 0.40170 0.90820 0.13200
H 	H 	0.32540 0.40680 0.88400 0.13300
H 	H 	0.18300 0.18770 0.89950 0.11500
H 	H 	0.24700 0.23470 0.90850 0.13000
H 	H 	0.22100 0.23080 0.93280 0.13600
H 	H 	0.33710 0.55920 0.60530 0.11300
H 	H 	0.37210 0.61110 0.63220 0.13500
H 	H 	0.32010 0.57900 0.60710 0.13300
H 	H 	0.20890 0.45010 0.70040 0.11500
H 	H 	0.20510 0.48110 0.69460 0.13700
H 	H 	0.25850 0.51340 0.71770 0.13300
H 	H 	0.15550 0.35690 0.70820 0.11700
H 	H 	0.17630 0.35960 0.74010 0.13400
H 	H 	0.11450 0.30320 0.71970 0.14100
H 	H 	0.21100 0.27940 0.66320 0.12300
H 	H 	0.16560 0.23400 0.67960 0.14000
H 	H 	0.22750 0.29150 0.69960 0.13800
H 	H 	0.27000 0.32580 0.60840 0.11900
H 	H 	0.32790 0.36250 0.60580 0.13500
H 	H 	0.27850 0.32350 0.57540 0.14300
H 	H 	0.36590 0.52080 0.58250 0.09600
H 	H 	0.37040 0.50410 0.55290 0.12200
H 	H 	0.41700 0.54220 0.58480 0.12200
H 	H 	0.49450 0.90390 0.81440 0.11000
H 	H 	0.55560 0.95840 0.81240 0.12600
H 	H 	0.54420 0.93200 0.83940 0.12700
H 	H 	0.52530 0.80930 0.74780 0.11700
H 	H 	0.57280 0.84810 0.77930 0.13300
H 	H 	0.58310 0.87290 0.75160 0.14200
H 	H 	0.44010 0.70800 0.70650 0.10600
H 	H 	0.41470 0.66730 0.67480 0.12600
H 	H 	0.40770 0.65110 0.70620 0.12200
H 	H 	0.20380 0.55420 0.67500 0.12500
H 	H 	0.19300 0.51070 0.67490 0.14000
H 	H 	0.20150 0.53090 0.64500 0.14600
H 	H 	0.17740 0.59370 0.71390 0.12000
H 	H 	0.15610 0.60870 0.70840 0.13700
H 	H 	0.15470 0.59340 0.73910 0.13700
H 	H 	0.38170 0.83310 0.79200 0.11500
H 	H 	0.33740 0.80930 0.80810 0.13300
H 	H 	0.34480 0.82910 0.77830 0.14600
H 	H 	0.90510 0.20090 0.99060 0.12000
H 	H 	0.87120 0.17230 0.01530 0.13100
H 	H 	0.91310 0.18140 0.01270 0.13600
H 	H 	0.71100 0.95640 0.92200 0.12400
H 	H 	0.73770 0.96140 0.95170 0.14100
H 	H 	0.69670 0.95370 0.95340 0.13800
H 	H 	0.65080 0.92160 0.85920 0.13400
H 	H 	0.59290 0.88900 0.85170 0.14900
H 	H 	0.60900 0.88160 0.82560 0.15500
H 	H 	0.69840 0.07130 0.80190 0.11700
H 	H 	0.65160 0.01660 0.77400 0.13800
H 	H 	0.63560 0.02340 0.80080 0.13300
H 	H 	0.80000 0.19780 0.84080 0.12500
H 	H 	0.80220 0.22710 0.86550 0.13500
H 	H 	0.85000 0.26240 0.84920 0.14200
H 	H 	0.94720 0.27350 0.95830 0.11800
H 	H 	0.98300 0.33040 0.95400 0.14000
H 	H 	0.93620 0.29710 0.97090 0.13400
H 	H 	0.37700 0.46010 0.49370 0.10800
H 	H 	0.32320 0.41090 0.50430 0.12600
H 	H 	0.36380 0.47200 0.51940 0.12600
H 	H 	0.46880 0.47020 0.60880 0.11500
H 	H 	0.44770 0.48180 0.62370 0.13300
H 	H 	0.40630 0.42050 0.60880 0.13700
H 	H 	0.58400 0.54290 0.62370 0.12100
H 	H 	0.63220 0.56050 0.63490 0.13700
H 	H 	0.64060 0.60150 0.64710 0.13500
H 	H 	0.72470 0.67790 0.53580 0.11500
H 	H 	0.76630 0.72250 0.56860 0.13100
H 	H 	0.75930 0.68260 0.55630 0.13400
H 	H 	0.68470 0.68870 0.48560 0.12300
H 	H 	0.66900 0.67950 0.44950 0.14500
H 	H 	0.69240 0.72650 0.47390 0.13800
H 	H 	0.45060 0.53870 0.46170 0.10800
H 	H 	0.48110 0.59260 0.45590 0.13400
H 	H 	0.45930 0.54900 0.42870 0.12600
Ag	Ag	0.04171 0.05857 0.56614 0.46000
Ag	Ag	0.04113 0.99330 0.52171 0.43100
Ag	Ag	0.90714 0.42309 0.48827 0.43200
Ag	Ag	0.60074 0.23647 0.83403 0.43700
Ag	Ag	0.60794 0.17664 0.79598 0.42600
Ag	Ag	0.67005 0.28773 0.77848 0.46700
Ag	Ag	0.40225 0.64098 0.41693 0.43600
Ag	Ag	0.34611 0.62614 0.35033 0.42500
Ag	Ag	0.45590 0.74927 0.40347 0.46300
Ag	Ag	0.80662 0.19477 0.16289 0.42700
Ag	Ag	0.91796 0.25107 0.18935 0.43500
Ag	Ag	0.88939 0.24875 0.11490 0.46400
Ag	Ag	0.34359 0.22950 0.69565 0.43000
Ag	Ag	0.38542 0.32646 0.67856 0.43400
Ag	Ag	0.43414 0.35144 0.75252 0.46600
Ag	Ag	0.81555 0.27535 0.65328 0.45500
Ag	Ag	0.86942 0.29688 0.72276 0.44400
Ag	Ag	0.94348 0.34978 0.67248 0.41600
Ag	Ag	0.34758 0.67578 0.88324 0.41800
Ag	Ag	0.23689 0.54954 0.83637 0.44600
Ag	Ag	0.22034 0.60438 0.86526 0.44900
Ag	Ag	0.52275 0.62904 0.73141 0.43400
Ag	Ag	0.51339 0.68660 0.76731 0.43500
Ag	Ag	0.44308 0.56948 0.78278 0.44200
Ag	Ag	0.74091 0.93474 0.57591 0.43800
Ag	Ag	0.64532 0.86120 0.61228 0.44300
Ag	Ag	0.76688 0.92685 0.64547 0.44600
Ag	Ag	0.51994 0.97964 0.99482 0.41800
Ag	Ag	0.45810 0.96694 0.93512 0.44800
Ag	Ag	0.58716 0.09401 0.97989 0.45100
N 	N 	0.11328 0.09480 0.57028 -0.21700
N 	N 	0.11180 0.06650 0.55430 -0.22600
N 	N 	0.97390 0.46730 0.55160 -0.23500
N 	N 	0.92797 0.41998 0.52835 -0.23000
N 	N 	0.92396 0.97330 0.54406 -0.22500
N 	N 	0.97032 0.01980 0.56752 -0.21600
N 	N 	0.57300 0.17638 0.84838 -0.22700
N 	N 	0.57236 0.14965 0.83141 -0.23400
N 	N 	0.65311 0.20996 0.76467 -0.22000
N 	N 	0.67548 0.25184 0.75572 -0.20600
N 	N 	0.36852 0.17569 0.84501 -0.21600
N 	N 	0.31509 0.14005 0.83534 -0.21900
N 	N 	0.33789 0.56655 0.38384 -0.23400
N 	N 	0.31563 0.56157 0.35760 -0.23700
N 	N 	0.19299 0.35215 0.31174 -0.22200
N 	N 	0.24270 0.38073 0.31523 -0.21500
N 	N 	0.49100 0.75957 0.44317 -0.22200
N 	N 	0.46780 0.71540 0.44900 -0.22300
N 	N 	0.82525 0.20148 0.20793 -0.23900
N 	N 	0.87078 0.22255 0.21853 -0.23300
N 	N 	0.77886 0.11757 0.31303 -0.22500
N 	N 	0.78193 0.14936 0.32369 -0.21600
N 	N 	0.81367 0.20465 0.09812 -0.20200
N 	N 	0.78315 0.18310 0.11765 -0.22000
N 	N 	0.30608 0.21156 0.65284 -0.23200
N 	N 	0.32640 0.25321 0.64501 -0.22900
N 	N 	0.43008 0.39456 0.71084 -0.22100
N 	N 	0.44816 0.40499 0.74175 -0.21000
N 	N 	0.40957 0.29087 0.76264 -0.21100
N 	N 	0.37389 0.24331 0.73940 -0.22800
N 	N 	0.77382 0.24896 0.68618 -0.21300
N 	N 	0.79481 0.25509 0.71370 -0.21800
N 	N 	0.95072 0.35298 0.73850 -0.21600
N 	N 	0.97960 0.37220 0.71760 -0.23200
N 	N 	0.91254 0.33955 0.62949 -0.23100
N 	N 	0.86400 0.31468 0.62348 -0.21800
N 	N 	0.35734 0.64254 0.86328 -0.23000
N 	N 	0.31100 0.59182 0.84202 -0.22200
N 	N 	0.16151 0.50595 0.82206 -0.22600
N 	N 	0.15418 0.52859 0.83257 -0.22300
N 	N 	0.28956 0.68414 0.89230 -0.21800
N 	N 	0.33891 0.71097 0.89948 -0.23200
N 	N 	0.56120 0.69680 0.72080 -0.22500
N 	N 	0.55520 0.71817 0.73517 -0.22600
N 	N 	0.46707 0.65383 0.79730 -0.23200
N 	N 	0.43920 0.60778 0.80418 -0.22500
N 	N 	0.44801 0.53350 0.75911 -0.22700
N 	N 	0.48297 0.56053 0.74150 -0.22800
N 	N 	0.66406 0.88297 0.55243 -0.22200
N 	N 	0.62560 0.85630 0.56750 -0.22400
N 	N 	0.65745 0.85253 0.65258 -0.22700
N 	N 	0.70282 0.87498 0.66600 -0.22400
N 	N 	0.82108 0.96425 0.61933 -0.22000
N 	N 	0.81180 0.97130 0.59350 -0.23200
N 	N 	0.44349 0.90287 0.96856 -0.23600
N 	N 	0.41964 0.89706 0.94230 -0.21500
N 	N 	0.50129 0.03652 0.92381 -0.21800
N 	N 	0.55030 0.08687 0.94257 -0.21800
N 	N 	0.62885 0.10062 0.01167 -0.21400
N 	N 	0.60156 0.05477 0.01733 -0.22700
C 	C 	0.17100 0.17360 0.61340 -0.47300
C 	C 	0.16020 0.13690 0.59170 0.16500
C 	C 	0.19050 0.13740 0.59190 -0.12600
C 	C 	0.16030 0.09310 0.56680 0.17300
C 	C 	0.17160 0.07350 0.55530 -0.51600
C 	C 	0.01900 0.49560 0.60400 -0.48800
C 	C 	0.97420 0.45290 0.57590 0.16300
C 	C 	0.92820 0.39630 0.56930 -0.12100
C 	C 	0.90050 0.37790 0.53920 0.15000
C 	C 	0.84830 0.32000 0.51830 -0.47700
C 	C 	0.82690 0.90390 0.52840 -0.48800
C 	C 	0.88200 0.95490 0.54950 0.15800
C 	C 	0.90070 0.98850 0.57580 -0.11200
C 	C 	0.95620 0.02820 0.58660 0.15200
C 	C 	0.99910 0.07700 0.61510 -0.46800
C 	C 	0.55300 0.17958 0.89498 -0.52000
C 	C 	0.55857 0.15937 0.87394 0.18000
C 	C 	0.54950 0.12159 0.87409 -0.12100
C 	C 	0.55958 0.11790 0.84708 0.13500
C 	C 	0.55800 0.08440 0.83460 -0.47500
C 	C 	0.65230 0.15470 0.75860 -0.47600
C 	C 	0.67010 0.19868 0.75238 0.14700
C 	C 	0.70481 0.23460 0.73541 -0.10500
C 	C 	0.70670 0.26730 0.73780 0.14900
C 	C 	0.73690 0.31350 0.72500 -0.45800
C 	C 	0.45640 0.25430 0.83330 -0.50000
C 	C 	0.39760 0.21080 0.82800 0.16700
C 	C 	0.36260 0.19901 0.80701 -0.11800
C 	C 	0.31278 0.15600 0.81218 0.15600
C 	C 	0.26100 0.12740 0.79760 -0.47500
C 	C 	0.33590 0.51830 0.40520 -0.51600
C 	C 	0.31860 0.52340 0.38000 0.18300
C 	C 	0.28170 0.48740 0.35170 -0.13200
C 	C 	0.28110 0.51280 0.33790 0.13900
C 	C 	0.24990 0.49500 0.30670 -0.47000
C 	C 	0.15220 0.36500 0.32380 -0.48000
C 	C 	0.19940 0.38479 0.32459 0.15500
C 	C 	0.25490 0.43694 0.33684 -0.11000
C 	C 	0.28010 0.43170 0.33060 0.16400
C 	C 	0.33940 0.47540 0.33720 -0.47800
C 	C 	0.57180 0.85830 0.46650 -0.51700
C 	C 	0.53530 0.80300 0.46610 0.17200
C 	C 	0.54260 0.78800 0.48840 -0.11000
C 	C 	0.49740 0.73130 0.47590 0.15200
C 	C 	0.48440 0.69340 0.48880 -0.48000
C 	C 	0.74540 0.15340 0.22380 -0.48800
C 	C 	0.79824 0.18076 0.22900 0.14900
C 	C 	0.82540 0.18800 0.25360 -0.12700
C 	C 	0.87190 0.21540 0.24610 0.17100
C 	C 	0.91620 0.23410 0.26290 -0.50500
C 	C 	0.79300 0.09790 0.26910 -0.47400
C 	C 	0.79490 0.12830 0.28700 0.15200
C 	C 	0.80770 0.16700 0.28030 -0.11100
C 	C 	0.79955 0.17980 0.30415 0.16300
C 	C 	0.80720 0.21810 0.30930 -0.49900
C 	C 	0.81220 0.21190 0.04510 -0.46900
C 	C 	0.78530 0.18940 0.07010 0.15000
C 	C 	0.73330 0.15460 0.07210 -0.09900
C 	C 	0.73510 0.15370 0.10260 0.13600
C 	C 	0.69020 0.12360 0.11760 -0.45200
C 	C 	0.22190 0.10980 0.63750 -0.46200
C 	C 	0.25530 0.16320 0.63390 0.13200
C 	C 	0.24390 0.17560 0.61310 -0.10800
C 	C 	0.28960 0.23250 0.62090 0.16000
C 	C 	0.30130 0.26940 0.60770 -0.48900
C 	C 	0.41060 0.41950 0.67770 -0.45000
C 	C 	0.42950 0.42270 0.70900 0.14500
C 	C 	0.44650 0.45260 0.73730 -0.10600
C 	C 	0.45721 0.43942 0.75803 0.15200
C 	C 	0.47560 0.45770 0.79210 -0.48600
C 	C 	0.44860 0.32770 0.81850 -0.47600
C 	C 	0.41200 0.28270 0.78970 0.15500
C 	C 	0.37668 0.22806 0.78414 -0.11200
C 	C 	0.35530 0.20700 0.75310 0.15700
C 	C 	0.31420 0.15040 0.73380 -0.48500
C 	C 	0.70610 0.23000 0.66350 -0.48900
C 	C 	0.73680 0.23930 0.68970 0.15500
C 	C 	0.73600 0.24120 0.72040 -0.11000
C 	C 	0.77210 0.25010 0.73420 0.15000
C 	C 	0.79010 0.25830 0.76720 -0.46500
C 	C 	0.96200 0.36800 0.79360 -0.47000
C 	C 	0.98475 0.38191 0.76586 0.16000
C 	C 	0.03720 0.42100 0.76460 -0.10500
C 	C 	0.03250 0.41410 0.73300 0.14200
C 	C 	0.07600 0.44530 0.71750 -0.46600
C 	C 	0.99510 0.40260 0.61170 -0.48300
C 	C 	0.94060 0.37040 0.61040 0.14900
C 	C 	0.91020 0.36490 0.59170 -0.11800
C 	C 	0.86340 0.32990 0.60090 0.17100
C 	C 	0.81470 0.30810 0.58900 -0.47800
C 	C 	0.45600 0.71620 0.88080 -0.48600
C 	C 	0.40130 0.66210 0.86160 0.15000
C 	C 	0.38340 0.62470 0.83830 -0.11100
C 	C 	0.32700 0.58200 0.82760 0.16400
C 	C 	0.28620 0.53100 0.80140 -0.48000
C 	C 	0.11780 0.43310 0.78090 -0.49200
C 	C 	0.12060 0.46560 0.79720 0.17500
C 	C 	0.08616 0.45960 0.79056 -0.12800
C 	C 	0.10950 0.50150 0.81400 0.17100
C 	C 	0.09150 0.51720 0.81830 -0.49900
C 	C 	0.25110 0.69980 0.90390 -0.48100
C 	C 	0.29850 0.71913 0.90583 0.16300
C 	C 	0.35277 0.76954 0.92031 -0.10800
C 	C 	0.37739 0.76290 0.91589 0.12200
C 	C 	0.43630 0.80250 0.92480 -0.44500
C 	C 	0.60630 0.71230 0.68220 -0.45400
C 	C 	0.59240 0.72620 0.70220 0.13200
C 	C 	0.60820 0.76940 0.70420 -0.09800
C 	C 	0.58320 0.76190 0.72590 0.15200
C 	C 	0.58380 0.79380 0.73780 -0.47700
C 	C 	0.47490 0.71470 0.80520 -0.45700
C 	C 	0.45260 0.66680 0.81000 0.14300
C 	C 	0.41480 0.62940 0.82540 -0.11600
C 	C 	0.40790 0.59330 0.82100 0.17000
C 	C 	0.37440 0.54510 0.83250 -0.49700
C 	C 	0.38760 0.45120 0.77620 -0.49200
C 	C 	0.43000 0.49100 0.76080 0.15900
C 	C 	0.45340 0.49040 0.74400 -0.11800
C 	C 	0.48650 0.53506 0.73196 0.14900
C 	C 	0.52310 0.55700 0.71150 -0.47800
C 	C 	0.67190 0.88560 0.49890 -0.47300
C 	C 	0.64000 0.86380 0.52240 0.15900
C 	C 	0.58600 0.82370 0.51770 -0.12100
C 	C 	0.57710 0.81860 0.54630 0.16300
C 	C 	0.52600 0.78100 0.55560 -0.49300
C 	C 	0.56410 0.77950 0.65660 -0.53200
C 	C 	0.61820 0.81240 0.66600 0.18600
C 	C 	0.63960 0.80990 0.68710 -0.13100
C 	C 	0.69340 0.85060 0.68640 0.16600
C 	C 	0.73560 0.86620 0.70400 -0.48700
C 	C 	0.87350 0.96690 0.64280 -0.49300
C 	C 	0.85590 0.97240 0.61770 0.17100
C 	C 	0.86870 0.98240 0.58990 -0.11900
C 	C 	0.84040 0.98220 0.57560 0.15700
C 	C 	0.83950 0.99220 0.54550 -0.48700
C 	C 	0.43810 0.85030 0.98880 -0.46600
C 	C 	0.42120 0.85700 0.96440 0.14100
C 	C 	0.38188 0.82071 0.93579 -0.11400
C 	C 	0.38290 0.84786 0.92336 0.16400
C 	C 	0.35070 0.83080 0.89290 -0.47800
C 	C 	0.44390 0.99400 0.87050 -0.49500
C 	C 	0.49380 0.04170 0.89690 0.15600
C 	C 	0.53976 0.09816 0.89892 -0.10800
C 	C 	0.57320 0.12360 0.92820 0.15700
C 	C 	0.62880 0.18360 0.94320 -0.47800
C 	C 	0.71990 0.19990 0.03020 -0.49100
C 	C 	0.68060 0.14330 0.02990 0.16700
C 	C 	0.68600 0.12390 0.04790 -0.11800
C 	C 	0.63560 0.06885 0.03925 0.14200
C 	C 	0.61560 0.02440 0.04900 -0.46700
H 	H 	0.14070 0.16200 0.60710 0.11300
H 	H 	0.17420 0.17130 0.63430 0.12900
H 	H 	0.20500 0.21130 0.61290 0.13100
H 	H 	0.14100 0.04100 0.53780 0.12400
H 	H 	0.20480 0.10180 0.54860 0.14200
H 	H 	0.17650 0.06420 0.57150 0.14300
H 	H 	0.04510 0.53140 0.60070 0.11800
H 	H 	0.00450 0.49170 0.62080 0.13200
H 	H 	0.03750 0.49250 0.60960 0.13900
H 	H 	0.83980 0.32100 0.49820 0.11500
H 	H 	0.85320 0.30280 0.51560 0.14300
H 	H 	0.81830 0.29900 0.52730 0.13400
H 	H 	0.82840 0.89020 0.51180 0.11400
H 	H 	0.80270 0.87670 0.53960 0.13500
H 	H 	0.81310 0.91080 0.51970 0.13500
H 	H 	0.03430 0.09710 0.61600 0.11400
H 	H 	0.00230 0.10090 0.61420 0.13700
H 	H 	0.98830 0.06420 0.63350 0.13100
H 	H 	0.56220 0.20560 0.88760 0.12700
H 	H 	0.51540 0.14900 0.89620 0.15700
H 	H 	0.57760 0.19780 0.91540 0.14500
H 	H 	0.56630 0.09000 0.81490 0.11500
H 	H 	0.58520 0.09620 0.84920 0.13200
H 	H 	0.52170 0.04580 0.83190 0.13500
H 	H 	0.62770 0.13700 0.77170 0.10700
H 	H 	0.63310 0.12770 0.73920 0.13600
H 	H 	0.68410 0.17020 0.76910 0.13300
H 	H 	0.72860 0.32690 0.73110 0.11100
H 	H 	0.77610 0.34300 0.73270 0.12600
H 	H 	0.72580 0.30100 0.70240 0.12600
H 	H 	0.46860 0.25110 0.84950 0.12100
H 	H 	0.46300 0.25100 0.81440 0.14600
H 	H 	0.47670 0.29000 0.83970 0.13800
H 	H 	0.23270 0.09800 0.80670 0.11100
H 	H 	0.26630 0.15330 0.80100 0.12900
H 	H 	0.24990 0.11220 0.77550 0.13200
H 	H 	0.36290 0.55110 0.42260 0.12900
H 	H 	0.35200 0.51390 0.39790 0.14400
H 	H 	0.30410 0.48630 0.41160 0.15700
H 	H 	0.25870 0.52270 0.30440 0.11000
H 	H 	0.21070 0.46030 0.30420 0.13200
H 	H 	0.25970 0.49000 0.29090 0.13000
H 	H 	0.11830 0.32600 0.31330 0.10900
H 	H 	0.15530 0.38480 0.31290 0.13200
H 	H 	0.15210 0.37140 0.34490 0.12500
H 	H 	0.34490 0.45950 0.33040 0.11400
H 	H 	0.35670 0.49340 0.35930 0.13300
H 	H 	0.35570 0.50220 0.32610 0.13000
H 	H 	0.55700 0.85650 0.44830 0.13000
H 	H 	0.60800 0.88090 0.46650 0.14600
H 	H 	0.57500 0.87430 0.48490 0.14900
H 	H 	0.45090 0.65630 0.47520 0.11600
H 	H 	0.47930 0.69440 0.50910 0.13400
H 	H 	0.51460 0.70470 0.49070 0.13500
H 	H 	0.73750 0.15550 0.20420 0.11900
H 	H 	0.74890 0.17190 0.24040 0.14000
H 	H 	0.71580 0.11520 0.22360 0.13400
H 	H 	0.94240 0.25200 0.25100 0.12700
H 	H 	0.90110 0.20270 0.26620 0.13900
H 	H 	0.93460 0.25980 0.28280 0.15200
H 	H 	0.78220 0.07340 0.28000 0.10900
H 	H 	0.82910 0.12360 0.26650 0.13200
H 	H 	0.76640 0.07630 0.24890 0.13200
H 	H 	0.79750 0.21710 0.32800 0.12300
H 	H 	0.78400 0.20800 0.29180 0.14100
H 	H 	0.84550 0.25500 0.31170 0.13200
H 	H 	0.84920 0.23520 0.05220 0.11600
H 	H 	0.81380 0.23340 0.03940 0.13400
H 	H 	0.79110 0.18180 0.02710 0.13000
H 	H 	0.70280 0.13030 0.13930 0.09800
H 	H 	0.65800 0.08450 0.10730 0.12200
H 	H 	0.68090 0.13670 0.11600 0.12000
H 	H 	0.24320 0.11640 0.65420 0.11200
H 	H 	0.18890 0.08950 0.64240 0.12700
H 	H 	0.21170 0.08840 0.61830 0.12700
H 	H 	0.33770 0.30740 0.61910 0.12300
H 	H 	0.29980 0.26350 0.58610 0.15000
H 	H 	0.27400 0.26160 0.60920 0.13400
H 	H 	0.40200 0.39600 0.66140 0.10100
H 	H 	0.37810 0.40430 0.67660 0.12400
H 	H 	0.43980 0.45610 0.67490 0.12700
H 	H 	0.47960 0.44140 0.79960 0.12000
H 	H 	0.51070 0.49750 0.79900 0.13800
H 	H 	0.44870 0.44630 0.80000 0.13400
H 	H 	0.46690 0.36000 0.81370 0.11300
H 	H 	0.42730 0.31650 0.83260 0.13000
H 	H 	0.47600 0.33660 0.82820 0.13500
H 	H 	0.30700 0.14790 0.71210 0.11300
H 	H 	0.32850 0.14250 0.73700 0.14100
H 	H 	0.28030 0.12400 0.73970 0.13500
H 	H 	0.71630 0.23130 0.64500 0.12200
H 	H 	0.66690 0.19410 0.66000 0.14300
H 	H 	0.71480 0.25830 0.66810 0.13700
H 	H 	0.81640 0.26410 0.76950 0.11000
H 	H 	0.80730 0.29010 0.78020 0.12800
H 	H 	0.75840 0.22580 0.77340 0.13000
H 	H 	0.92250 0.33750 0.78640 0.11600
H 	H 	0.97010 0.35770 0.80580 0.14000
H 	H 	0.97890 0.39980 0.80630 0.13000
H 	H 	0.05980 0.43040 0.69520 0.10900
H 	H 	0.10230 0.48370 0.72360 0.12800
H 	H 	0.09480 0.44250 0.72350 0.12600
H 	H 	0.00460 0.39700 0.62780 0.11300
H 	H 	0.99350 0.39050 0.59180 0.13200
H 	H 	0.02280 0.44140 0.61600 0.13400
H 	H 	0.78820 0.28350 0.60050 0.11500
H 	H 	0.82620 0.33850 0.59150 0.13000
H 	H 	0.79800 0.28820 0.56720 0.13600
H 	H 	0.45390 0.73180 0.89470 0.11300
H 	H 	0.47890 0.73990 0.86780 0.13500
H 	H 	0.47190 0.71300 0.89290 0.13300
H 	H 	0.24970 0.50850 0.79960 0.11500
H 	H 	0.28650 0.51050 0.80540 0.13700
H 	H 	0.29570 0.54080 0.78230 0.13300
H 	H 	0.14870 0.44730 0.79180 0.11700
H 	H 	0.11950 0.43620 0.75990 0.13400
H 	H 	0.08350 0.39480 0.78030 0.14100
H 	H 	0.11620 0.54780 0.83680 0.12300
H 	H 	0.05440 0.48600 0.82040 0.14000
H 	H 	0.09190 0.52790 0.80040 0.13800
H 	H 	0.21740 0.66160 0.89160 0.11900
H 	H 	0.25670 0.72210 0.89420 0.13500
H 	H 	0.24810 0.70310 0.92460 0.14300
H 	H 	0.43830 0.78340 0.91750 0.09600
H 	H 	0.45120 0.81750 0.94710 0.12200
H 	H 	0.45740 0.83220 0.91520 0.12200
H 	H 	0.58950 0.68010 0.68560 0.11000
H 	H 	0.64600 0.74320 0.68760 0.12600
H 	H 	0.59260 0.70480 0.66060 0.12700
H 	H 	0.56150 0.77750 0.75220 0.11700
H 	H 	0.56880 0.79350 0.72070 0.13300
H 	H 	0.62130 0.83150 0.74840 0.14200
H 	H 	0.50150 0.73360 0.79350 0.10600
H 	H 	0.49250 0.73990 0.82520 0.12600
H 	H 	0.44490 0.70150 0.79380 0.12200
H 	H 	0.37920 0.52880 0.82500 0.12500
H 	H 	0.33580 0.51810 0.82510 0.14000
H 	H 	0.38590 0.55650 0.85500 0.14600
H 	H 	0.37980 0.46350 0.78610 0.12000
H 	H 	0.40030 0.44770 0.79160 0.13700
H 	H 	0.35430 0.41560 0.76090 0.13700
H 	H 	0.54110 0.58970 0.70800 0.11500
H 	H 	0.50120 0.52930 0.69190 0.13300
H 	H 	0.55080 0.56650 0.72170 0.14600
H 	H 	0.71030 0.91450 0.50940 0.12000
H 	H 	0.65700 0.85590 0.48470 0.13100
H 	H 	0.66870 0.90040 0.48730 0.13600
H 	H 	0.53440 0.78900 0.57800 0.12400
H 	H 	0.50970 0.78600 0.54830 0.14100
H 	H 	0.50030 0.74330 0.54660 0.13800
H 	H 	0.56240 0.79160 0.64080 0.13400
H 	H 	0.53730 0.74120 0.64830 0.14900
H 	H 	0.55600 0.78340 0.67440 0.15500
H 	H 	0.76940 0.89650 0.69810 0.11700
H 	H 	0.74260 0.87760 0.72600 0.13800
H 	H 	0.72260 0.83480 0.69920 0.13300
H 	H 	0.85700 0.95920 0.65920 0.12400
H 	H 	0.86160 0.93670 0.63450 0.13400
H 	H 	0.91320 0.00080 0.65080 0.14100
H 	H 	0.81520 0.98890 0.54170 0.11700
H 	H 	0.87640 0.02900 0.54600 0.13900
H 	H 	0.82620 0.96530 0.52910 0.13300
H 	H 	0.46640 0.88330 0.00630 0.10800
H 	H 	0.40660 0.81890 0.99570 0.12600
H 	H 	0.45260 0.84440 0.98060 0.12600
H 	H 	0.36140 0.86000 0.89120 0.11500
H 	H 	0.35810 0.82400 0.87630 0.13300
H 	H 	0.31170 0.79750 0.89120 0.13700
H 	H 	0.41920 0.96030 0.87630 0.12100
H 	H 	0.42560 0.99730 0.86510 0.13700
H 	H 	0.45440 0.99350 0.85290 0.13600
H 	H 	0.64210 0.18890 0.96420 0.11500
H 	H 	0.65390 0.19770 0.93140 0.13100
H 	H 	0.62630 0.20300 0.94370 0.13400
H 	H 	0.70310 0.19910 0.01440 0.12300
H 	H 	0.73000 0.21950 0.05050 0.14500
H 	H 	0.75260 0.21850 0.02610 0.13800
H 	H 	0.57700 0.98890 0.03830 0.10800
H 	H 	0.63670 0.02520 0.04410 0.13400
H 	H 	0.62030 0.03060 0.07130 0.12600
Ag	Ag	0.97557 0.54171 0.48314 0.45900
Ag	Ag	0.01942 0.54113 0.54783 0.43100
Ag	Ag	0.91887 0.40714 0.98405 0.43200
Ag	Ag	0.26671 0.10074 0.86427 0.43700
Ag	Ag	0.31196 0.10794 0.93130 0.42600
Ag	Ag	0.39157 0.17005 0.88232 0.46700
Ag	Ag	0.48532 0.90225 0.26127 0.43600
Ag	Ag	0.49578 0.84611 0.21997 0.42500
Ag	Ag	0.55243 0.95590 0.20663 0.46300
Ag	Ag	0.14373 0.30662 0.11185 0.42700
Ag	Ag	0.22861 0.41796 0.16689 0.43500
Ag	Ag	0.27449 0.38939 0.14064 0.46400
Ag	Ag	0.14794 0.84359 0.61409 0.43000
Ag	Ag	0.20686 0.88542 0.55896 0.43400
Ag	Ag	0.18162 0.93414 0.58270 0.46600
Ag	Ag	0.66227 0.31555 0.04020 0.45500
Ag	Ag	0.64666 0.36942 0.07254 0.44400
Ag	Ag	0.77100 0.44348 0.09370 0.41600
Ag	Ag	0.96434 0.84758 0.17180 0.41800
Ag	Ag	0.90052 0.73689 0.18735 0.44600
Ag	Ag	0.85508 0.72034 0.11596 0.44900
Ag	Ag	0.29134 0.02275 0.39371 0.43400
Ag	Ag	0.24608 0.01339 0.32679 0.43600
Ag	Ag	0.16030 0.94308 0.37360 0.44200
Ag	Ag	0.66500 0.24091 0.30617 0.43800
Ag	Ag	0.53304 0.14532 0.28412 0.44300
Ag	Ag	0.62141 0.26688 0.34003 0.44600
Ag	Ag	0.02512 0.01994 0.04030 0.41800
Ag	Ag	0.02298 0.95810 0.99116 0.44700
Ag	Ag	0.10727 0.08716 0.99315 0.45100
N 	N 	0.04300 0.61328 0.51848 -0.21700
N 	N 	0.05750 0.61180 0.54530 -0.22600
N 	N 	0.92230 0.47390 0.00660 -0.23500
N 	N 	0.89962 0.42797 0.00799 -0.23000
N 	N 	0.87990 0.42396 0.45066 -0.22600
N 	N 	0.90280 0.47032 0.45052 -0.21500
N 	N 	0.22462 0.07300 0.89662 -0.22700
N 	N 	0.24095 0.07236 0.92271 -0.23400
N 	N 	0.38844 0.15311 0.94315 -0.22000
N 	N 	0.41976 0.17548 0.92364 -0.20600
N 	N 	0.02351 0.86852 0.69283 -0.21700
N 	N 	0.97975 0.81509 0.67504 -0.21900
N 	N 	0.45405 0.83789 0.27134 -0.23400
N 	N 	0.45803 0.81563 0.25406 -0.23700
N 	N 	0.38125 0.69299 0.34084 -0.22200
N 	N 	0.42747 0.74270 0.36197 -0.21500
N 	N 	0.54783 0.99100 0.23143 -0.22200
N 	N 	0.51880 0.96780 0.25240 -0.22300
N 	N 	0.11732 0.32525 0.12377 -0.23800
N 	N 	0.15225 0.37078 0.14823 -0.23300
N 	N 	0.96583 0.27886 0.16129 -0.22500
N 	N 	0.95824 0.28193 0.13257 -0.21600
N 	N 	0.21555 0.31367 0.10902 -0.20200
N 	N 	0.16550 0.28315 0.10005 -0.22000
N 	N 	0.15324 0.80608 0.59452 -0.23200
N 	N 	0.18139 0.82640 0.57319 -0.22900
N 	N 	0.21924 0.93008 0.53552 -0.22100
N 	N 	0.20641 0.94816 0.54317 -0.21000
N 	N 	0.14693 0.90957 0.61870 -0.21100
N 	N 	0.13449 0.87389 0.63058 -0.22800
N 	N 	0.58764 0.27382 0.02486 -0.21300
N 	N 	0.58111 0.29481 0.03972 -0.21800
N 	N 	0.71222 0.45072 0.09774 -0.21600
N 	N 	0.76200 0.47960 0.10740 -0.23200
N 	N 	0.78305 0.41254 0.07299 -0.23100
N 	N 	0.74052 0.36400 0.04932 -0.21800
N 	N 	0.99406 0.85734 0.21480 -0.23000
N 	N 	0.96898 0.81100 0.21918 -0.22200
N 	N 	0.83945 0.66151 0.15556 -0.22600
N 	N 	0.82161 0.65418 0.12559 -0.22300
N 	N 	0.89726 0.78956 0.10542 -0.21800
N 	N 	0.93943 0.83891 0.12794 -0.23200
N 	N 	0.34040 0.06120 0.36440 -0.22500
N 	N 	0.32003 0.05520 0.33703 -0.22600
N 	N 	0.16977 0.96707 0.31324 -0.23200
N 	N 	0.13502 0.93920 0.33142 -0.22500
N 	N 	0.18890 0.94801 0.41451 -0.22700
N 	N 	0.24147 0.98297 0.42244 -0.22800
N 	N 	0.61163 0.16406 0.28109 -0.22200
N 	N 	0.55810 0.12560 0.26930 -0.22400
N 	N 	0.50487 0.15745 0.30492 -0.22700
N 	N 	0.53682 0.20282 0.32784 -0.22400
N 	N 	0.70175 0.32108 0.35683 -0.22000
N 	N 	0.71830 0.31180 0.34050 -0.23200
N 	N 	0.97493 0.94349 0.04062 -0.23600
N 	N 	0.97734 0.91964 0.02258 -0.21500
N 	N 	0.07748 0.00129 0.96477 -0.21800
N 	N 	0.10773 0.05030 0.96343 -0.21800
N 	N 	0.11718 0.12885 0.02823 -0.21400
N 	N 	0.08423 0.10156 0.04679 -0.22700
C 	C 	0.05760 0.67100 0.49740 -0.47300
C 	C 	0.06850 0.66020 0.52330 0.16500
C 	C 	0.09860 0.69050 0.55310 -0.12600
C 	C 	0.09350 0.66030 0.56720 0.17300
C 	C 	0.11630 0.67160 0.59810 -0.51600
C 	C 	0.91500 0.51900 0.02340 -0.48900
C 	C 	0.89830 0.47420 0.02130 0.16300
C 	C 	0.85890 0.42820 0.03190 -0.12100
C 	C 	0.86130 0.40050 0.02260 0.15000
C 	C 	0.83000 0.34830 0.02830 -0.47700
C 	C 	0.79850 0.32690 0.42300 -0.48800
C 	C 	0.83250 0.38200 0.42710 0.15800
C 	C 	0.82490 0.40070 0.41220 -0.11200
C 	C 	0.86960 0.45620 0.42800 0.15100
C 	C 	0.88400 0.49910 0.42210 -0.46600
C 	C 	0.15802 0.05300 0.87342 -0.52000
C 	C 	0.18463 0.05857 0.89920 0.18100
C 	C 	0.17541 0.04950 0.92791 -0.12100
C 	C 	0.21250 0.05958 0.94168 0.13500
C 	C 	0.22340 0.05800 0.97360 -0.47500
C 	C 	0.39370 0.15230 0.99760 -0.47600
C 	C 	0.41772 0.17010 0.97142 0.14700
C 	C 	0.46940 0.20481 0.97021 -0.10500
C 	C 	0.46890 0.20670 0.93940 0.14900
C 	C 	0.51190 0.23690 0.92340 -0.45800
C 	C 	0.12310 0.95640 0.70210 -0.50000
C 	C 	0.06960 0.89760 0.68680 0.16700
C 	C 	0.05559 0.86260 0.66359 -0.11800
C 	C 	0.00060 0.81278 0.65678 0.15500
C 	C 	0.96340 0.76100 0.63360 -0.47400
C 	C 	0.43070 0.83590 0.31760 -0.51600
C 	C 	0.43860 0.81860 0.29520 0.18300
C 	C 	0.43000 0.78170 0.29430 -0.13200
C 	C 	0.44320 0.78110 0.26830 0.14000
C 	C 	0.44320 0.74990 0.25490 -0.47000
C 	C 	0.32840 0.65220 0.28720 -0.48000
C 	C 	0.37481 0.69940 0.31461 0.15500
C 	C 	0.41806 0.75490 0.31796 -0.11000
C 	C 	0.44950 0.78010 0.34840 0.16400
C 	C 	0.50220 0.83940 0.36400 -0.47800
C 	C 	0.60530 0.07180 0.21350 -0.51700
C 	C 	0.56920 0.03530 0.23230 0.17200
C 	C 	0.55420 0.04260 0.25460 -0.11000
C 	C 	0.52150 0.99740 0.26610 0.15300
C 	C 	0.49560 0.98440 0.29100 -0.48000
C 	C 	0.02160 0.24540 0.09200 -0.48800
C 	C 	0.06924 0.29824 0.11748 0.14900
C 	C 	0.07180 0.32540 0.13740 -0.12700
C 	C 	0.12580 0.37190 0.15650 0.17100
C 	C 	0.15330 0.41620 0.18210 -0.50500
C 	C 	0.02390 0.29300 0.19510 -0.47500
C 	C 	0.00790 0.29490 0.16660 0.15200
C 	C 	0.02740 0.30770 0.14070 -0.11100
C 	C 	0.99540 0.29955 0.11975 0.16200
C 	C 	0.99790 0.30720 0.08910 -0.49900
C 	C 	0.26710 0.31220 0.10030 -0.46900
C 	C 	0.21520 0.28530 0.09590 0.15000
C 	C 	0.16120 0.23330 0.07870 -0.09900
C 	C 	0.13250 0.23510 0.08140 0.13700
C 	C 	0.07260 0.19020 0.06660 -0.45200
C 	C 	0.08440 0.72190 0.61210 -0.46200
C 	C 	0.12140 0.75530 0.59210 0.13200
C 	C 	0.13080 0.74390 0.56830 -0.10800
C 	C 	0.16870 0.78960 0.55710 0.16000
C 	C 	0.19360 0.80130 0.53190 -0.48900
C 	C 	0.23290 0.91060 0.49110 -0.45000
C 	C 	0.22050 0.92950 0.50680 0.14500
C 	C 	0.20920 0.94650 0.49390 -0.10600
C 	C 	0.19918 0.95721 0.51779 0.15200
C 	C 	0.18350 0.97560 0.51790 -0.48800
C 	C 	0.13010 0.94860 0.62090 -0.47600
C 	C 	0.12230 0.91200 0.62930 0.15500
C 	C 	0.09254 0.87668 0.64862 -0.11200
C 	C 	0.10220 0.85530 0.64830 0.15700
C 	C 	0.08040 0.81420 0.66380 -0.48500
C 	C 	0.54260 0.20610 0.97610 -0.48900
C 	C 	0.54710 0.23680 0.99750 0.15500
C 	C 	0.51560 0.23600 0.99480 -0.11000
C 	C 	0.53790 0.27210 0.02200 0.15000
C 	C 	0.52290 0.29010 0.03180 -0.46500
C 	C 	0.66840 0.46200 0.09400 -0.47000
C 	C 	0.71889 0.48475 0.10284 0.16000
C 	C 	0.77260 0.53720 0.11620 -0.10500
C 	C 	0.79950 0.53250 0.11840 0.14200
C 	C 	0.85850 0.57600 0.13070 -0.46600
C 	C 	0.88340 0.49510 0.09250 -0.48200
C 	C 	0.83020 0.44060 0.07020 0.14800
C 	C 	0.81850 0.41020 0.04530 -0.11800
C 	C 	0.76250 0.36340 0.03350 0.17100
C 	C 	0.72570 0.31470 0.00660 -0.47800
C 	C 	0.07520 0.95600 0.23980 -0.48500
C 	C 	0.03970 0.90130 0.23920 0.15000
C 	C 	0.04510 0.88340 0.25870 -0.11100
C 	C 	0.99940 0.82700 0.24500 0.16500
C 	C 	0.98480 0.78620 0.25520 -0.47900
C 	C 	0.83690 0.61780 0.18470 -0.49200
C 	C 	0.82340 0.62060 0.15500 0.17400
C 	C 	0.79560 0.58616 0.12656 -0.12800
C 	C 	0.79550 0.60950 0.10800 0.17100
C 	C 	0.77320 0.59150 0.07430 -0.49800
C 	C 	0.84720 0.75110 0.05130 -0.48100
C 	C 	0.89267 0.79850 0.07937 0.16300
C 	C 	0.93246 0.85277 0.08323 -0.10900
C 	C 	0.96150 0.87739 0.11449 0.12300
C 	C 	0.01150 0.93630 0.13380 -0.44600
C 	C 	0.42410 0.10630 0.39400 -0.45400
C 	C 	0.39020 0.09240 0.36620 0.13200
C 	C 	0.40400 0.10820 0.33880 -0.09800
C 	C 	0.35730 0.08320 0.32130 0.15200
C 	C 	0.34600 0.08380 0.29000 -0.47800
C 	C 	0.16970 0.97490 0.26020 -0.45800
C 	C 	0.14260 0.95260 0.28580 0.14400
C 	C 	0.08940 0.91480 0.28540 -0.11700
C 	C 	0.08690 0.90790 0.31460 0.16900
C 	C 	0.04190 0.87440 0.32930 -0.49600
C 	C 	0.11140 0.88760 0.43640 -0.49200
C 	C 	0.16920 0.93000 0.43900 0.15900
C 	C 	0.20940 0.95340 0.46300 -0.11800
C 	C 	0.25454 0.98650 0.45144 0.14900
C 	C 	0.31160 0.02310 0.46610 -0.47800
C 	C 	0.67300 0.17190 0.28630 -0.47300
C 	C 	0.61760 0.14000 0.27620 0.15900
C 	C 	0.56830 0.08600 0.26230 -0.12100
C 	C 	0.53080 0.07710 0.25850 0.16400
C 	C 	0.47040 0.02600 0.24500 -0.49300
C 	C 	0.40750 0.06410 0.28460 -0.53200
C 	C 	0.45220 0.11820 0.30580 0.18600
C 	C 	0.45250 0.13960 0.32970 -0.13100
C 	C 	0.50700 0.19340 0.34280 0.16600
C 	C 	0.53160 0.23560 0.36940 -0.48700
C 	C 	0.73070 0.37350 0.40660 -0.49400
C 	C 	0.73820 0.35590 0.38350 0.17100
C 	C 	0.77880 0.36870 0.38630 -0.12000
C 	C 	0.76480 0.34040 0.35820 0.15800
C 	C 	0.79400 0.33950 0.34730 -0.48800
C 	C 	0.94930 0.93810 0.08780 -0.46600
C 	C 	0.95680 0.92120 0.06420 0.14100
C 	C 	0.94609 0.88188 0.06117 -0.11400
C 	C 	0.95954 0.88290 0.03504 0.16400
C 	C 	0.95780 0.85070 0.01990 -0.47800
C 	C 	0.07340 0.94390 0.94990 -0.49400
C 	C 	0.09690 0.99380 0.95210 0.15500
C 	C 	0.14084 0.03976 0.94160 -0.10700
C 	C 	0.14500 0.07320 0.94960 0.15600
C 	C 	0.18560 0.12880 0.94520 -0.47800
C 	C 	0.18970 0.21990 0.02000 -0.49100
C 	C 	0.15070 0.18060 0.03730 0.16700
C 	C 	0.13810 0.18600 0.06210 -0.11800
C 	C 	0.09635 0.13560 0.06675 0.14200
C 	C 	0.06660 0.11560 0.09120 -0.46700
H 	H 	0.03360 0.64070 0.47870 0.11300
H 	H 	0.03990 0.67420 0.50290 0.12900
H 	H 	0.09210 0.70500 0.49370 0.13100
H 	H 	0.10320 0.64100 0.60000 0.12400
H 	H 	0.15620 0.70480 0.60300 0.14200
H 	H 	0.10500 0.67650 0.61230 0.14300
H 	H 	0.94440 0.54510 0.01370 0.11800
H 	H 	0.88370 0.50450 0.01280 0.13300
H 	H 	0.92790 0.53750 0.04500 0.13900
H 	H 	0.84160 0.33980 0.01880 0.11500
H 	H 	0.83760 0.35320 0.05040 0.14300
H 	H 	0.79100 0.31830 0.01930 0.13400
H 	H 	0.81660 0.32840 0.43820 0.11400
H 	H 	0.76310 0.30270 0.42600 0.13500
H 	H 	0.79340 0.31310 0.40230 0.13500
H 	H 	0.91830 0.53430 0.43720 0.11300
H 	H 	0.88810 0.50230 0.40140 0.13600
H 	H 	0.85480 0.48830 0.42410 0.13000
H 	H 	0.17460 0.06220 0.85660 0.12700
H 	H 	0.11920 0.01540 0.86640 0.15700
H 	H 	0.16220 0.07760 0.87980 0.14500
H 	H 	0.25140 0.06630 0.97630 0.11500
H 	H 	0.23600 0.08520 0.98900 0.13200
H 	H 	0.18980 0.02170 0.97590 0.13500
H 	H 	0.35600 0.12770 0.99070 0.10700
H 	H 	0.39390 0.13310 0.00540 0.13600
H 	H 	0.41500 0.18410 0.01390 0.13300
H 	H 	0.49750 0.22860 0.90170 0.11100
H 	H 	0.54340 0.27610 0.93310 0.12600
H 	H 	0.52340 0.22580 0.92480 0.12600
H 	H 	0.11910 0.96860 0.71750 0.12100
H 	H 	0.14860 0.96300 0.71200 0.14600
H 	H 	0.13700 0.97670 0.68670 0.13700
H 	H 	0.92600 0.73270 0.63470 0.11100
H 	H 	0.96530 0.76630 0.61300 0.12900
H 	H 	0.97440 0.74990 0.63770 0.13200
H 	H 	0.44030 0.86290 0.31180 0.12900
H 	H 	0.45410 0.85200 0.33810 0.14400
H 	H 	0.39250 0.80410 0.31780 0.15700
H 	H 	0.45430 0.75870 0.23600 0.11000
H 	H 	0.40650 0.71070 0.25040 0.13200
H 	H 	0.46880 0.75970 0.26970 0.13000
H 	H 	0.30500 0.61830 0.29230 0.10900
H 	H 	0.34240 0.65530 0.27050 0.13200
H 	H 	0.30720 0.65210 0.28070 0.12500
H 	H 	0.51450 0.84490 0.38540 0.11400
H 	H 	0.49740 0.85670 0.36330 0.13300
H 	H 	0.52960 0.85570 0.35350 0.13000
H 	H 	0.60870 0.05700 0.20050 0.13000
H 	H 	0.64150 0.10800 0.22710 0.14600
H 	H 	0.59010 0.07500 0.20070 0.14900
H 	H 	0.47570 0.95090 0.29460 0.11600
H 	H 	0.47020 0.97930 0.28490 0.13400
H 	H 	0.52390 0.01460 0.30990 0.13500
H 	H 	0.03330 0.23750 0.08200 0.11900
H 	H 	0.00850 0.24890 0.07700 0.14000
H 	H 	0.99220 0.21580 0.10060 0.13300
H 	H 	0.19140 0.44240 0.19040 0.12700
H 	H 	0.13490 0.40110 0.19840 0.13900
H 	H 	0.15180 0.43460 0.17480 0.15200
H 	H 	0.00220 0.28220 0.20880 0.10900
H 	H 	0.06260 0.32910 0.20550 0.13200
H 	H 	0.01750 0.26640 0.19010 0.13200
H 	H 	0.96950 0.29750 0.08040 0.12300
H 	H 	0.99220 0.28400 0.07600 0.14100
H 	H 	0.03380 0.34550 0.09050 0.13200
H 	H 	0.29700 0.34920 0.11400 0.11600
H 	H 	0.27440 0.31380 0.08040 0.13400
H 	H 	0.26400 0.29110 0.10930 0.13000
H 	H 	0.06350 0.20280 0.07250 0.09800
H 	H 	0.05070 0.15800 0.07350 0.12200
H 	H 	0.06490 0.18090 0.04420 0.12000
H 	H 	0.08900 0.74320 0.62680 0.11100
H 	H 	0.04650 0.68890 0.59940 0.12700
H 	H 	0.09340 0.71170 0.62330 0.12700
H 	H 	0.21860 0.83770 0.53030 0.12300
H 	H 	0.21370 0.79980 0.53630 0.15000
H 	H 	0.16480 0.77400 0.51240 0.13400
H 	H 	0.24060 0.90200 0.50600 0.10100
H 	H 	0.20150 0.87810 0.47380 0.12400
H 	H 	0.26490 0.93980 0.48370 0.12700
H 	H 	0.18000 0.97960 0.53820 0.12100
H 	H 	0.21170 0.01070 0.51320 0.13900
H 	H 	0.14870 0.94870 0.50240 0.13400
H 	H 	0.15320 0.96690 0.60690 0.11300
H 	H 	0.09470 0.92730 0.61080 0.13000
H 	H 	0.14780 0.97600 0.63940 0.13500
H 	H 	0.09490 0.80700 0.65910 0.11300
H 	H 	0.09150 0.82850 0.68600 0.14000
H 	H 	0.04060 0.78030 0.65630 0.13500
H 	H 	0.57130 0.21630 0.98500 0.12200
H 	H 	0.50690 0.16690 0.97280 0.14300
H 	H 	0.54670 0.21480 0.95650 0.13700
H 	H 	0.54690 0.31640 0.05230 0.11000
H 	H 	0.52710 0.30730 0.01720 0.12800
H 	H 	0.48500 0.25840 0.03260 0.13000
H 	H 	0.63610 0.42250 0.08500 0.11600
H 	H 	0.66430 0.47010 0.11240 0.14000
H 	H 	0.67260 0.47890 0.07910 0.13000
H 	H 	0.86460 0.55980 0.12940 0.10900
H 	H 	0.87870 0.60230 0.11860 0.12800
H 	H 	0.87130 0.59480 0.15230 0.12600
H 	H 	0.87680 0.50460 0.10760 0.11300
H 	H 	0.90170 0.49350 0.10300 0.13200
H 	H 	0.90680 0.52280 0.08140 0.13300
H 	H 	0.68770 0.28820 0.00470 0.11500
H 	H 	0.73470 0.32620 0.98770 0.13000
H 	H 	0.73080 0.29800 0.00980 0.13500
H 	H 	0.05920 0.95390 0.22210 0.11300
H 	H 	0.11110 0.97890 0.23900 0.13500
H 	H 	0.07900 0.97190 0.25890 0.13300
H 	H 	0.95010 0.74970 0.24120 0.11500
H 	H 	0.98110 0.78650 0.27600 0.13700
H 	H 	0.01340 0.79570 0.25490 0.13300
H 	H 	0.85690 0.64870 0.20140 0.11700
H 	H 	0.85960 0.61950 0.18330 0.13400
H 	H 	0.80320 0.58350 0.18870 0.14100
H 	H 	0.77940 0.61620 0.06840 0.12300
H 	H 	0.73400 0.55440 0.06840 0.14000
H 	H 	0.79150 0.59190 0.06400 0.13800
H 	H 	0.82580 0.71740 0.05580 0.11900
H 	H 	0.86250 0.75670 0.03460 0.13500
H 	H 	0.82350 0.74810 0.04500 0.14300
H 	H 	0.02080 0.93830 0.15490 0.09600
H 	H 	0.00410 0.95120 0.13370 0.12200
H 	H 	0.04220 0.95740 0.12520 0.12200
H 	H 	0.40390 0.08950 0.40940 0.11000
H 	H 	0.45840 0.14600 0.40280 0.12600
H 	H 	0.43200 0.09260 0.38780 0.12700
H 	H 	0.30930 0.06150 0.28400 0.11700
H 	H 	0.34810 0.06880 0.27530 0.13300
H 	H 	0.37290 0.12130 0.28980 0.14200
H 	H 	0.20800 0.00150 0.26790 0.10600
H 	H 	0.16730 0.99250 0.25260 0.12700
H 	H 	0.15110 0.94490 0.24340 0.12200
H 	H 	0.05420 0.87920 0.35040 0.12400
H 	H 	0.01070 0.83580 0.31770 0.14000
H 	H 	0.03090 0.88590 0.32940 0.14600
H 	H 	0.09370 0.87980 0.41630 0.12000
H 	H 	0.10870 0.90030 0.45260 0.13700
H 	H 	0.09340 0.85430 0.43870 0.13700
H 	H 	0.33310 0.04110 0.45140 0.11500
H 	H 	0.30930 0.00120 0.47190 0.13300
H 	H 	0.32910 0.05080 0.48430 0.14500
H 	H 	0.70090 0.21030 0.29580 0.12000
H 	H 	0.67230 0.15700 0.30110 0.13100
H 	H 	0.68140 0.16870 0.26830 0.13600
H 	H 	0.45640 0.03440 0.24540 0.12400
H 	H 	0.46140 0.00970 0.22370 0.14100
H 	H 	0.45370 0.00030 0.25700 0.13800
H 	H 	0.42160 0.06240 0.27080 0.13400
H 	H 	0.38900 0.03730 0.29610 0.14900
H 	H 	0.38160 0.05600 0.27260 0.15500
H 	H 	0.57130 0.26940 0.37290 0.11700
H 	H 	0.51660 0.24260 0.36500 0.13800
H 	H 	0.52340 0.22260 0.38780 0.13300
H 	H 	0.69780 0.35700 0.39780 0.12500
H 	H 	0.72710 0.36160 0.42490 0.13500
H 	H 	0.76240 0.41320 0.41240 0.14200
H 	H 	0.77350 0.31520 0.32630 0.11800
H 	H 	0.83040 0.37640 0.34740 0.14000
H 	H 	0.79710 0.32620 0.36090 0.13400
H 	H 	0.96010 0.96640 0.08310 0.10800
H 	H 	0.91090 0.90660 0.08770 0.12600
H 	H 	0.97200 0.95260 0.10820 0.12600
H 	H 	0.97020 0.86140 0.00140 0.11600
H 	H 	0.98180 0.85810 0.03410 0.13300
H 	H 	0.92050 0.81170 0.01420 0.13700
H 	H 	0.04290 0.91920 0.95890 0.12100
H 	H 	0.06050 0.92560 0.92830 0.13700
H 	H 	0.10150 0.95440 0.96090 0.13500
H 	H 	0.17790 0.14210 0.95320 0.11500
H 	H 	0.22250 0.15390 0.95620 0.13100
H 	H 	0.18260 0.12630 0.92330 0.13400
H 	H 	0.18870 0.20310 0.00400 0.12300
H 	H 	0.17950 0.23000 0.01050 0.14500
H 	H 	0.22650 0.25260 0.03410 0.13800
H 	H 	0.03870 0.07700 0.08810 0.10800
H 	H 	0.09260 0.13670 0.11150 0.13400
H 	H 	0.04900 0.12030 0.08970 0.12600
Ag	Ag	0.55857 0.49243 0.01686 0.45900
Ag	Ag	0.49330 0.47159 0.95217 0.43100
Ag	Ag	0.92309 0.93482 0.51595 0.43200
Ag	Ag	0.73647 0.40244 0.63573 0.43700
Ag	Ag	0.67664 0.38066 0.56870 0.42600
Ag	Ag	0.78773 0.50925 0.61768 0.46700
Ag	Ag	0.14098 0.22405 0.23873 0.43600
Ag	Ag	0.12614 0.27581 0.28003 0.42500
Ag	Ag	0.24927 0.34580 0.29337 0.46300
Ag	Ag	0.69477 0.03188 0.38815 0.42700
Ag	Ag	0.75107 0.06172 0.33311 0.43500
Ag	Ag	0.74875 0.13385 0.35936 0.46400
Ag	Ag	0.72950 0.53385 0.88591 0.43000
Ag	Ag	0.82646 0.64790 0.94104 0.43400
Ag	Ag	0.85144 0.59892 0.91730 0.46600
Ag	Ag	0.77535 0.62207 0.45980 0.45500
Ag	Ag	0.79688 0.57412 0.42746 0.44400
Ag	Ag	0.84978 0.67730 0.40630 0.41700
Ag	Ag	0.17578 0.79254 0.32820 0.41800
Ag	Ag	0.04954 0.71317 0.31265 0.44600
Ag	Ag	0.10438 0.73912 0.38404 0.44800
Ag	Ag	0.12904 0.89763 0.10629 0.43400
Ag	Ag	0.18660 0.91929 0.17321 0.43500
Ag	Ag	0.06948 0.78670 0.12640 0.44200
Ag	Ag	0.43474 0.35883 0.19383 0.43800
Ag	Ag	0.36120 0.24892 0.21588 0.44300
Ag	Ag	0.42685 0.28138 0.15997 0.44600
Ag	Ag	0.47964 0.98482 0.45970 0.41800
Ag	Ag	0.46694 0.03182 0.50884 0.44800
Ag	Ag	0.59401 0.11412 0.50685 0.45100
N 	N 	0.59480 0.52452 0.98152 -0.21700
N 	N 	0.56650 0.51220 0.95470 -0.22600
N 	N 	0.96730 0.91570 0.49340 -0.23500
N 	N 	0.91998 0.89163 0.49201 -0.23000
N 	N 	0.47330 0.42924 0.04934 -0.22600
N 	N 	0.51980 0.45228 0.04948 -0.21500
N 	N 	0.67638 0.32800 0.60338 -0.22700
N 	N 	0.64965 0.31824 0.57729 -0.23400
N 	N 	0.70996 0.44529 0.55685 -0.22000
N 	N 	0.75184 0.49612 0.57636 -0.20600
N 	N 	0.67569 0.33068 0.80717 -0.21600
N 	N 	0.64005 0.30471 0.82496 -0.21900
N 	N 	0.06655 0.18271 0.22866 -0.23400
N 	N 	0.06157 0.20397 0.24594 -0.23800
N 	N 	0.85215 0.04041 0.15916 -0.22200
N 	N 	0.88073 0.06550 0.13803 -0.21500
N 	N 	0.25957 0.31640 0.26857 -0.22200
N 	N 	0.21540 0.26640 0.24760 -0.22300
N 	N 	0.70148 0.99355 0.37623 -0.23800
N 	N 	0.72255 0.00402 0.35177 -0.23300
N 	N 	0.61757 0.80454 0.33871 -0.22500
N 	N 	0.64936 0.82567 0.36743 -0.21600
N 	N 	0.70465 0.10653 0.39098 -0.20200
N 	N 	0.68310 0.06545 0.39995 -0.22000
N 	N 	0.71156 0.55872 0.90548 -0.23200
N 	N 	0.75321 0.60820 0.92681 -0.22900
N 	N 	0.89456 0.68372 0.96448 -0.22000
N 	N 	0.90499 0.66324 0.95683 -0.21000
N 	N 	0.79087 0.52823 0.88130 -0.21100
N 	N 	0.74331 0.50391 0.86942 -0.22800
N 	N 	0.74896 0.56278 0.47514 -0.21300
N 	N 	0.75509 0.54139 0.46028 -0.21800
N 	N 	0.85298 0.61448 0.40226 -0.21600
N 	N 	0.87220 0.65460 0.39260 -0.23200
N 	N 	0.83955 0.71006 0.42701 -0.23100
N 	N 	0.81468 0.69120 0.45068 -0.21800
N 	N 	0.14254 0.77926 0.28520 -0.23000
N 	N 	0.09182 0.74980 0.28082 -0.22200
N 	N 	0.00595 0.68389 0.34444 -0.22600
N 	N 	0.02859 0.69602 0.37441 -0.22300
N 	N 	0.18414 0.79184 0.39458 -0.21800
N 	N 	0.21097 0.81149 0.37206 -0.23200
N 	N 	0.19680 0.97600 0.13560 -0.22500
N 	N 	0.21817 0.98300 0.16297 -0.22700
N 	N 	0.15383 0.85653 0.18676 -0.23200
N 	N 	0.10778 0.80360 0.16858 -0.22500
N 	N 	0.03350 0.77439 0.08549 -0.22700
N 	N 	0.06053 0.81903 0.07756 -0.22800
N 	N 	0.38297 0.33054 0.21891 -0.22200
N 	N 	0.35630 0.28880 0.23070 -0.22400
N 	N 	0.35253 0.19995 0.19508 -0.22700
N 	N 	0.37498 0.20898 0.17216 -0.22400
N 	N 	0.46425 0.34492 0.14317 -0.22000
N 	N 	0.47130 0.37780 0.15950 -0.23200
N 	N 	0.40287 0.93431 0.45938 -0.23600
N 	N 	0.39706 0.95476 0.47742 -0.21500
N 	N 	0.53652 0.11271 0.53523 -0.21800
N 	N 	0.58687 0.14430 0.53657 -0.21800
N 	N 	0.60062 0.08895 0.47177 -0.21400
N 	N 	0.55477 0.03744 0.45321 -0.22700
C 	C 	0.67360 0.56020 0.00260 -0.47300
C 	C 	0.63690 0.54520 0.97670 0.16500
C 	C 	0.63740 0.54550 0.94690 -0.12600
C 	C 	0.59310 0.52630 0.93280 0.17300
C 	C 	0.57350 0.51820 0.90190 -0.51600
C 	C 	0.99560 0.89160 0.47660 -0.48700
C 	C 	0.95290 0.87700 0.47870 0.16200
C 	C 	0.89630 0.82700 0.46810 -0.12100
C 	C 	0.87790 0.83870 0.47740 0.15000
C 	C 	0.82000 0.80170 0.47170 -0.47700
C 	C 	0.40390 0.37550 0.07700 -0.48800
C 	C 	0.45490 0.40540 0.07290 0.15800
C 	C 	0.48850 0.41270 0.08780 -0.11200
C 	C 	0.52820 0.44160 0.07200 0.15100
C 	C 	0.57700 0.46190 0.07790 -0.46600
C 	C 	0.67958 0.28460 0.62658 -0.52000
C 	C 	0.65937 0.28543 0.60080 0.18000
C 	C 	0.62159 0.24750 0.57209 -0.12100
C 	C 	0.61790 0.27082 0.55832 0.13500
C 	C 	0.58440 0.24980 0.52640 -0.47500
C 	C 	0.65470 0.39610 0.50240 -0.47600
C 	C 	0.69868 0.44630 0.52858 0.14700
C 	C 	0.73460 0.49919 0.52979 -0.10500
C 	C 	0.76730 0.52950 0.56060 0.14900
C 	C 	0.81350 0.58850 0.57660 -0.45800
C 	C 	0.75430 0.42100 0.79790 -0.50000
C 	C 	0.71080 0.38280 0.81320 0.16700
C 	C 	0.69901 0.39200 0.83641 -0.11800
C 	C 	0.65600 0.34382 0.84322 0.15600
C 	C 	0.62740 0.32980 0.86640 -0.47500
C 	C 	0.01830 0.11310 0.18240 -0.51500
C 	C 	0.02340 0.14340 0.20480 0.18300
C 	C 	0.98740 0.13570 0.20570 -0.13300
C 	C 	0.01280 0.17490 0.23170 0.14100
C 	C 	0.99500 0.18830 0.24510 -0.47200
C 	C 	0.86500 0.04120 0.21280 -0.48000
C 	C 	0.88479 0.06020 0.18539 0.15500
C 	C 	0.93694 0.10010 0.18204 -0.11000
C 	C 	0.93170 0.10110 0.15160 0.16400
C 	C 	0.97540 0.13820 0.13600 -0.47900
C 	C 	0.35830 0.39180 0.28650 -0.51700
C 	C 	0.30300 0.33690 0.26770 0.17200
C 	C 	0.28800 0.29960 0.24540 -0.11000
C 	C 	0.23130 0.25540 0.23390 0.15200
C 	C 	0.19340 0.20460 0.20900 -0.48000
C 	C 	0.65340 0.92960 0.40800 -0.48800
C 	C 	0.68076 0.95176 0.38252 0.14900
C 	C 	0.68800 0.93440 0.36260 -0.12700
C 	C 	0.71540 0.96930 0.34350 0.17100
C 	C 	0.73410 0.97120 0.31790 -0.50400
C 	C 	0.59790 0.82880 0.30490 -0.47400
C 	C 	0.62830 0.84130 0.33340 0.15200
C 	C 	0.66700 0.88670 0.35930 -0.11100
C 	C 	0.67980 0.87565 0.38025 0.16300
C 	C 	0.71810 0.90880 0.41090 -0.49900
C 	C 	0.71190 0.16680 0.39970 -0.46900
C 	C 	0.68940 0.11930 0.40410 0.15000
C 	C 	0.65460 0.08250 0.42130 -0.09900
C 	C 	0.65370 0.05110 0.41860 0.13700
C 	C 	0.62360 0.00600 0.43340 -0.45300
C 	C 	0.60980 0.47230 0.88790 -0.46200
C 	C 	0.66320 0.52930 0.90790 0.13200
C 	C 	0.67560 0.56250 0.93170 -0.10800
C 	C 	0.73250 0.61160 0.94290 0.16000
C 	C 	0.76940 0.66170 0.96810 -0.48900
C 	C 	0.91950 0.74180 0.00890 -0.45000
C 	C 	0.92270 0.71370 0.99320 0.14500
C 	C 	0.95260 0.71530 0.00610 -0.10600
C 	C 	0.93942 0.68139 0.98221 0.15200
C 	C 	0.95770 0.66560 0.98210 -0.48600
C 	C 	0.82770 0.50920 0.87910 -0.47600
C 	C 	0.78270 0.49300 0.87070 0.15500
C 	C 	0.72806 0.44392 0.85138 -0.11200
C 	C 	0.70700 0.45390 0.85170 0.15700
C 	C 	0.65040 0.41660 0.83620 -0.48500
C 	C 	0.73000 0.56650 0.52390 -0.48900
C 	C 	0.73930 0.54960 0.50250 0.15500
C 	C 	0.74120 0.52080 0.50520 -0.11000
C 	C 	0.75010 0.51590 0.47800 0.15000
C 	C 	0.75830 0.49110 0.46820 -0.46500
C 	C 	0.86800 0.57440 0.40600 -0.47000
C 	C 	0.88191 0.61605 0.39716 0.16000
C 	C 	0.92100 0.65640 0.38380 -0.10500
C 	C 	0.91410 0.68110 0.38160 0.14200
C 	C 	0.94530 0.72780 0.36930 -0.46600
C 	C 	0.90260 0.79090 0.40750 -0.48200
C 	C 	0.87040 0.76000 0.42980 0.14800
C 	C 	0.86490 0.77320 0.45470 -0.11800
C 	C 	0.82990 0.72900 0.46650 0.17100
C 	C 	0.80810 0.71910 0.49340 -0.47800
C 	C 	0.21620 0.83540 0.26020 -0.48600
C 	C 	0.16210 0.80050 0.26080 0.15000
C 	C 	0.12470 0.78640 0.24130 -0.11100
C 	C 	0.08200 0.75440 0.25500 0.16400
C 	C 	0.03100 0.72960 0.24480 -0.47900
C 	C 	0.93310 0.65220 0.31530 -0.49200
C 	C 	0.96560 0.66840 0.34500 0.17500
C 	C 	0.95960 0.66904 0.37344 -0.12800
C 	C 	0.00150 0.68750 0.39200 0.17100
C 	C 	0.01720 0.69890 0.42570 -0.49900
C 	C 	0.19980 0.79590 0.44870 -0.48100
C 	C 	0.21913 0.81330 0.42063 0.16300
C 	C 	0.26954 0.84923 0.41677 -0.10800
C 	C 	0.26290 0.84701 0.38551 0.12200
C 	C 	0.30250 0.87770 0.36620 -0.44500
C 	C 	0.21230 0.03010 0.10600 -0.45300
C 	C 	0.22620 0.02400 0.13380 0.13300
C 	C 	0.26940 0.06520 0.16120 -0.09800
C 	C 	0.26190 0.03600 0.17870 0.15300
C 	C 	0.29380 0.05600 0.21000 -0.47800
C 	C 	0.21470 0.90950 0.23980 -0.45700
C 	C 	0.16680 0.85680 0.21420 0.14300
C 	C 	0.12940 0.80400 0.21460 -0.11600
C 	C 	0.09330 0.77230 0.18540 0.16900
C 	C 	0.04510 0.71260 0.17070 -0.49600
C 	C 	0.95120 0.67500 0.06360 -0.49200
C 	C 	0.99100 0.73020 0.06100 0.16000
C 	C 	0.99040 0.74640 0.03700 -0.11800
C 	C 	0.03506 0.80310 0.04856 0.14900
C 	C 	0.05700 0.84550 0.03390 -0.47800
C 	C 	0.38560 0.38670 0.21370 -0.47300
C 	C 	0.36380 0.34140 0.22380 0.15900
C 	C 	0.32370 0.30600 0.23770 -0.12100
C 	C 	0.31860 0.27230 0.24150 0.16300
C 	C 	0.28100 0.22540 0.25500 -0.49300
C 	C 	0.27950 0.12290 0.21540 -0.53200
C 	C 	0.31240 0.14640 0.19420 0.18600
C 	C 	0.30990 0.12280 0.17030 -0.13100
C 	C 	0.35060 0.16420 0.15720 0.16600
C 	C 	0.36620 0.16220 0.13060 -0.48700
C 	C 	0.46690 0.32410 0.09340 -0.49400
C 	C 	0.47240 0.35470 0.11650 0.17100
C 	C 	0.48240 0.39250 0.11370 -0.12000
C 	C 	0.48220 0.40660 0.14180 0.15800
C 	C 	0.49220 0.44670 0.15270 -0.48800
C 	C 	0.35030 0.86150 0.41220 -0.46600
C 	C 	0.35700 0.89260 0.43580 0.14100
C 	C 	0.32071 0.88492 0.43883 -0.11400
C 	C 	0.34786 0.92450 0.46496 0.16400
C 	C 	0.33080 0.93790 0.48010 -0.47700
C 	C 	0.49400 0.12350 0.55010 -0.49500
C 	C 	0.54170 0.14480 0.54790 0.15600
C 	C 	0.59816 0.19924 0.55840 -0.10800
C 	C 	0.62360 0.19540 0.55040 0.15700
C 	C 	0.68360 0.24040 0.55480 -0.47800
C 	C 	0.69990 0.16970 0.48000 -0.49100
C 	C 	0.64330 0.11340 0.46270 0.16700
C 	C 	0.62390 0.07600 0.43790 -0.11800
C 	C 	0.56885 0.02960 0.43325 0.14200
C 	C 	0.52440 0.97540 0.40880 -0.46700
H 	H 	0.66200 0.55490 0.02130 0.11300
H 	H 	0.67130 0.53700 0.99710 0.12900
H 	H 	0.71130 0.59840 0.00630 0.13100
H 	H 	0.54100 0.50320 0.90000 0.12400
H 	H 	0.60180 0.55320 0.89700 0.14200
H 	H 	0.56420 0.49270 0.88770 0.14300
H 	H 	0.03140 0.93070 0.48630 0.11700
H 	H 	0.99170 0.87090 0.48720 0.13200
H 	H 	0.99250 0.88290 0.45500 0.13800
H 	H 	0.82100 0.82280 0.48120 0.11500
H 	H 	0.80280 0.78720 0.44960 0.14300
H 	H 	0.79900 0.77170 0.48070 0.13400
H 	H 	0.39020 0.37840 0.06180 0.11400
H 	H 	0.37670 0.33710 0.07400 0.13500
H 	H 	0.41080 0.39110 0.09770 0.13500
H 	H 	0.59710 0.48110 0.06280 0.11300
H 	H 	0.60090 0.48670 0.09860 0.13600
H 	H 	0.56420 0.43070 0.07590 0.13000
H 	H 	0.70560 0.31800 0.64340 0.12700
H 	H 	0.64900 0.25280 0.63360 0.15700
H 	H 	0.69780 0.28240 0.62020 0.14500
H 	H 	0.59000 0.27510 0.52370 0.11500
H 	H 	0.59620 0.24700 0.51100 0.13200
H 	H 	0.54580 0.21390 0.52410 0.13400
H 	H 	0.63700 0.36530 0.50930 0.10700
H 	H 	0.62770 0.38850 0.49460 0.13600
H 	H 	0.67020 0.40110 0.48610 0.13300
H 	H 	0.82690 0.59580 0.59830 0.11100
H 	H 	0.84300 0.61030 0.56690 0.12600
H 	H 	0.80100 0.59860 0.57520 0.12600
H 	H 	0.75110 0.40160 0.78250 0.12100
H 	H 	0.75100 0.43660 0.78800 0.14600
H 	H 	0.79000 0.45030 0.81330 0.13800
H 	H 	0.59800 0.29130 0.86530 0.11100
H 	H 	0.65330 0.35230 0.88700 0.12900
H 	H 	0.61220 0.33670 0.86230 0.13200
H 	H 	0.05110 0.12850 0.18820 0.12800
H 	H 	0.01390 0.11600 0.16190 0.14400
H 	H 	0.98630 0.07470 0.18220 0.15600
H 	H 	0.02270 0.21830 0.26400 0.11100
H 	H 	0.96030 0.15610 0.24960 0.13200
H 	H 	0.99000 0.19910 0.23030 0.13000
H 	H 	0.82600 0.01270 0.20770 0.10900
H 	H 	0.88480 0.07190 0.22950 0.13200
H 	H 	0.87140 0.02650 0.21930 0.12500
H 	H 	0.95950 0.12910 0.11460 0.11400
H 	H 	0.99340 0.13410 0.13670 0.13300
H 	H 	0.00220 0.17610 0.14650 0.13000
H 	H 	0.35650 0.40820 0.29950 0.13000
H 	H 	0.38090 0.41440 0.27290 0.14600
H 	H 	0.37430 0.38940 0.29930 0.14900
H 	H 	0.15630 0.18110 0.20540 0.11600
H 	H 	0.19440 0.18530 0.21510 0.13400
H 	H 	0.20470 0.21400 0.19010 0.13500
H 	H 	0.65550 0.95130 0.41800 0.11900
H 	H 	0.67190 0.93150 0.42300 0.14000
H 	H 	0.61520 0.89160 0.39940 0.13400
H 	H 	0.75200 0.00100 0.30960 0.12700
H 	H 	0.70270 0.93650 0.30160 0.13900
H 	H 	0.75980 0.97700 0.32520 0.15200
H 	H 	0.57340 0.79340 0.29120 0.10900
H 	H 	0.62360 0.85710 0.29450 0.13200
H 	H 	0.57630 0.82740 0.30990 0.13200
H 	H 	0.71710 0.88910 0.41960 0.12300
H 	H 	0.70800 0.91620 0.42400 0.14100
H 	H 	0.75500 0.94330 0.40950 0.13200
H 	H 	0.73520 0.18300 0.38600 0.11600
H 	H 	0.73340 0.19400 0.41960 0.13400
H 	H 	0.68180 0.15470 0.39070 0.13000
H 	H 	0.63030 0.99100 0.42750 0.09800
H 	H 	0.58450 0.97720 0.42650 0.12200
H 	H 	0.63670 0.02070 0.45580 0.12000
H 	H 	0.61640 0.46220 0.87320 0.11200
H 	H 	0.58950 0.44710 0.90060 0.12700
H 	H 	0.58840 0.47010 0.87670 0.12700
H 	H 	0.80740 0.68830 0.96970 0.12300
H 	H 	0.76350 0.67740 0.96370 0.15000
H 	H 	0.76160 0.65240 0.98760 0.13400
H 	H 	0.89600 0.73460 0.99400 0.10100
H 	H 	0.90430 0.72770 0.02620 0.12400
H 	H 	0.95610 0.78120 0.01630 0.12700
H 	H 	0.94140 0.64180 0.96180 0.12000
H 	H 	0.99750 0.69850 0.98680 0.13800
H 	H 	0.94630 0.64630 0.99760 0.13400
H 	H 	0.86000 0.54630 0.89310 0.11300
H 	H 	0.81650 0.48390 0.88920 0.13000
H 	H 	0.83660 0.50840 0.86060 0.13500
H 	H 	0.64790 0.43580 0.84090 0.11300
H 	H 	0.64250 0.40550 0.81400 0.14100
H 	H 	0.62400 0.38430 0.84370 0.13500
H 	H 	0.73130 0.58630 0.51500 0.12200
H 	H 	0.69410 0.53410 0.52720 0.14300
H 	H 	0.75830 0.59020 0.54350 0.13700
H 	H 	0.76410 0.49460 0.44770 0.11000
H 	H 	0.79010 0.50990 0.48280 0.12800
H 	H 	0.72580 0.45240 0.46740 0.13000
H 	H 	0.83750 0.55110 0.41500 0.11600
H 	H 	0.85770 0.55190 0.38760 0.14000
H 	H 	0.89980 0.59350 0.42090 0.13000
H 	H 	0.93040 0.73520 0.37060 0.10900
H 	H 	0.98370 0.76010 0.38140 0.12800
H 	H 	0.94250 0.71900 0.34770 0.12600
H 	H 	0.89700 0.76920 0.39240 0.11300
H 	H 	0.89050 0.79870 0.39700 0.13200
H 	H 	0.94140 0.82540 0.41860 0.13300
H 	H 	0.78350 0.68300 0.49530 0.11500
H 	H 	0.83850 0.74700 0.51230 0.13000
H 	H 	0.78820 0.72100 0.49020 0.13600
H 	H 	0.23180 0.83710 0.27790 0.11300
H 	H 	0.23990 0.87210 0.26100 0.13500
H 	H 	0.21300 0.82010 0.24110 0.13300
H 	H 	0.00850 0.70890 0.25880 0.11500
H 	H 	0.01050 0.70510 0.22400 0.13700
H 	H 	0.04080 0.75850 0.24510 0.13300
H 	H 	0.94730 0.65550 0.29860 0.11700
H 	H 	0.93620 0.67630 0.31670 0.13400
H 	H 	0.89480 0.61450 0.31130 0.14100
H 	H 	0.04780 0.71100 0.43160 0.12300
H 	H 	0.98600 0.66560 0.43160 0.14000
H 	H 	0.02790 0.72750 0.43600 0.13900
H 	H 	0.16160 0.77000 0.44420 0.11900
H 	H 	0.22210 0.82790 0.46540 0.13500
H 	H 	0.20310 0.77850 0.45500 0.14300
H 	H 	0.28340 0.86590 0.34510 0.09600
H 	H 	0.31750 0.87040 0.36630 0.12200
H 	H 	0.33220 0.91700 0.37480 0.12200
H 	H 	0.18010 0.99450 0.09060 0.11000
H 	H 	0.24320 0.05560 0.09720 0.12500
H 	H 	0.20480 0.04420 0.11220 0.12600
H 	H 	0.27750 0.02530 0.21600 0.11700
H 	H 	0.29350 0.07280 0.22470 0.13300
H 	H 	0.33150 0.08310 0.21020 0.14200
H 	H 	0.23360 0.94010 0.23210 0.10500
H 	H 	0.23990 0.91470 0.24740 0.12600
H 	H 	0.20150 0.90770 0.25660 0.12100
H 	H 	0.02880 0.70380 0.14960 0.12400
H 	H 	0.01810 0.69300 0.18230 0.14000
H 	H 	0.05650 0.70150 0.17060 0.14600
H 	H 	0.96350 0.67740 0.08370 0.12000
H 	H 	0.94770 0.65610 0.04740 0.13700
H 	H 	0.91560 0.65470 0.06130 0.13700
H 	H 	0.08970 0.88170 0.04860 0.11500
H 	H 	0.02930 0.83740 0.02810 0.13300
H 	H 	0.06650 0.84480 0.01570 0.14500
H 	H 	0.41450 0.40510 0.20420 0.12000
H 	H 	0.35590 0.37120 0.19890 0.13100
H 	H 	0.40040 0.41310 0.23170 0.13600
H 	H 	0.28900 0.21100 0.25460 0.12400
H 	H 	0.28600 0.23770 0.27630 0.14100
H 	H 	0.24330 0.19670 0.24300 0.13800
H 	H 	0.29160 0.15080 0.22920 0.13400
H 	H 	0.24120 0.09290 0.20390 0.14900
H 	H 	0.28340 0.10900 0.22740 0.15500
H 	H 	0.39650 0.19840 0.12710 0.11700
H 	H 	0.37760 0.15160 0.13500 0.13800
H 	H 	0.33480 0.13560 0.11220 0.13300
H 	H 	0.45920 0.30000 0.10220 0.12500
H 	H 	0.43670 0.30220 0.07510 0.13500
H 	H 	0.50080 0.35000 0.08760 0.14200
H 	H 	0.48890 0.44720 0.17370 0.11800
H 	H 	0.52900 0.48300 0.15260 0.14000
H 	H 	0.46530 0.43620 0.13910 0.13400
H 	H 	0.38330 0.87700 0.41690 0.10800
H 	H 	0.31890 0.82320 0.41230 0.12600
H 	H 	0.34440 0.86380 0.39180 0.12600
H 	H 	0.36000 0.96880 0.49860 0.11500
H 	H 	0.32400 0.94770 0.46590 0.13300
H 	H 	0.29750 0.90630 0.48580 0.13700
H 	H 	0.46030 0.08400 0.54110 0.12100
H 	H 	0.49730 0.13220 0.57170 0.13700
H 	H 	0.49350 0.14060 0.53910 0.13600
H 	H 	0.68890 0.22470 0.54680 0.11500
H 	H 	0.69770 0.26630 0.54380 0.13100
H 	H 	0.70300 0.25930 0.57670 0.13400
H 	H 	0.69910 0.18470 0.49600 0.12300
H 	H 	0.71950 0.16900 0.48950 0.14500
H 	H 	0.71850 0.19240 0.46590 0.13800
H 	H 	0.48890 0.95060 0.41190 0.10800
H 	H 	0.52520 0.98110 0.38850 0.13400
H 	H 	0.53060 0.95930 0.41030 0.12500
