data_crystal

_cell_length_a 10.84710
_cell_length_b 18.23200
_cell_length_c 18.89400
_cell_angle_alpha 108.71100
_cell_angle_beta  90.00000
_cell_angle_gamma 90.00000

_symmetry_space_group_name_	'P 1'
_symmetry_space_group_name_H-M	'P 1'

loop_
_symmetry_equiv_pos_as_xyz
  x,y,z

loop_
_atom_site_label
_atom_site_type_symbol
_atom_site_fract_x
_atom_site_fract_y
_atom_site_fract_z
_atom_site_charge
Zn	Zn	0.80482 0.68363 0.97198 1.22300
Zn	Zn	0.80603 0.78874 0.87493 1.22000
Zn	Zn	0.69518 0.18363 0.47198 1.22300
Zn	Zn	0.69397 0.28874 0.37493 1.22000
H 	H 	0.49240 0.38540 0.31760 0.03600
H 	H 	0.53860 0.45890 0.23140 0.03600
H 	H 	0.91440 0.33250 0.31030 0.22800
H 	H 	0.92710 0.33480 0.22670 0.23900
H 	H 	0.95000 0.41170 0.29590 0.23000
H 	H 	0.83090 0.40760 0.14840 0.04400
H 	H 	0.72410 0.46910 0.15240 0.04400
H 	H 	0.83080 0.56710 0.23470 0.06500
H 	H 	0.92260 0.50860 0.25600 0.06100
H 	H 	0.01400 0.47570 0.13600 0.04600
H 	H 	0.02660 0.56660 0.17890 0.02900
H 	H 	0.85260 0.43260 0.02220 0.03500
H 	H 	0.76440 0.50440 0.94300 0.02000
H 	H 	0.91330 0.72780 0.12240 0.21100
H 	H 	0.90040 0.69130 0.18860 0.20900
H 	H 	0.02620 0.68130 0.14220 0.21000
H 	H 	0.71230 0.99500 0.05310 0.04500
H 	H 	0.68350 0.10390 0.15750 0.04700
H 	H 	0.75770 0.97640 0.29220 0.04300
H 	H 	0.79150 0.86870 0.18770 0.03300
H 	H 	0.20100 0.78300 0.84220 0.04700
H 	H 	0.41480 0.77210 0.83750 0.03700
H 	H 	0.41050 0.69310 0.01350 0.04200
H 	H 	0.19660 0.70190 0.01830 0.03800
H 	H 	0.00760 0.88540 0.81760 0.03300
H 	H 	0.96140 0.95890 0.73140 0.03600
H 	H 	0.58560 0.83250 0.81030 0.22700
H 	H 	0.57290 0.83480 0.72670 0.23800
H 	H 	0.55000 0.91170 0.79590 0.23100
H 	H 	0.66910 0.90760 0.64840 0.04400
H 	H 	0.77590 0.96910 0.65240 0.04400
H 	H 	0.66920 0.06710 0.73470 0.06500
H 	H 	0.57740 0.00860 0.75600 0.06100
H 	H 	0.48600 0.97570 0.63600 0.04600
H 	H 	0.47340 0.06660 0.67890 0.03000
H 	H 	0.64740 0.93260 0.52220 0.03500
H 	H 	0.73560 0.00440 0.44300 0.02000
H 	H 	0.58670 0.22780 0.62240 0.21200
H 	H 	0.59960 0.19130 0.68860 0.20900
H 	H 	0.47380 0.18130 0.64220 0.21200
H 	H 	0.78770 0.49500 0.55310 0.04500
H 	H 	0.81650 0.60390 0.65750 0.04700
H 	H 	0.74230 0.47640 0.79220 0.04300
H 	H 	0.70850 0.36870 0.68770 0.03300
H 	H 	0.29900 0.28300 0.34220 0.04700
H 	H 	0.08520 0.27210 0.33750 0.03700
H 	H 	0.08950 0.19310 0.51350 0.04300
H 	H 	0.30340 0.20190 0.51830 0.03800
C 	C 	0.57140 0.39200 0.29890 0.00100
C 	C 	0.59650 0.43200 0.25170 0.00500
C 	C 	0.76870 0.38400 0.27770 0.28300
C 	C 	0.90130 0.36400 0.27760 -0.69600
C 	C 	0.78600 0.45230 0.18250 -0.01700
C 	C 	0.87660 0.51780 0.21440 -0.13100
C 	C 	0.96710 0.52470 0.15540 -0.01800
C 	C 	0.85430 0.48710 0.03220 -0.00300
C 	C 	0.80640 0.52660 0.98910 0.00800
C 	C 	0.88860 0.61070 0.08490 0.26700
C 	C 	0.93630 0.68410 0.13920 -0.65100
C 	C 	0.78060 0.85270 0.04220 0.41500
C 	C 	0.75740 0.92130 0.11000 -0.10200
C 	C 	0.72330 0.99130 0.10170 -0.00400
C 	C 	0.70500 0.05580 0.16380 -0.02900
C 	C 	0.71780 0.05080 0.23470 -0.08700
C 	C 	0.69810 0.12170 0.30200 0.38900
C 	C 	0.74960 0.98050 0.24350 -0.02500
C 	C 	0.76930 0.91660 0.18140 -0.00500
C 	C 	0.04040 0.74360 0.92940 0.38800
C 	C 	0.17790 0.74280 0.93020 -0.09000
C 	C 	0.24330 0.76420 0.87690 -0.02300
C 	C 	0.37010 0.75810 0.87440 -0.00300
C 	C 	0.43260 0.73180 0.92520 -0.09700
C 	C 	0.57080 0.72730 0.92330 0.40600
C 	C 	0.36760 0.71110 0.97850 -0.01000
C 	C 	0.24080 0.71630 0.98140 -0.01600
C 	C 	0.92860 0.89200 0.79890 0.00400
C 	C 	0.90350 0.93200 0.75170 0.00400
C 	C 	0.73130 0.88400 0.77770 0.28400
C 	C 	0.59870 0.86400 0.77760 -0.69700
C 	C 	0.71400 0.95230 0.68250 -0.01600
C 	C 	0.62340 0.01780 0.71440 -0.13200
C 	C 	0.53290 0.02470 0.65540 -0.01900
C 	C 	0.64570 0.98710 0.53220 -0.00200
C 	C 	0.69360 0.02660 0.48910 0.00700
C 	C 	0.61140 0.11070 0.58490 0.26800
C 	C 	0.56370 0.18410 0.63920 -0.65300
C 	C 	0.71940 0.35270 0.54220 0.41500
C 	C 	0.74260 0.42130 0.61000 -0.10200
C 	C 	0.77670 0.49130 0.60170 -0.00400
C 	C 	0.79500 0.55580 0.66380 -0.02800
C 	C 	0.78220 0.55080 0.73470 -0.08600
C 	C 	0.80190 0.62170 0.80200 0.38900
C 	C 	0.75040 0.48050 0.74350 -0.02600
C 	C 	0.73070 0.41660 0.68140 -0.00400
C 	C 	0.45960 0.24360 0.42940 0.39000
C 	C 	0.32210 0.24280 0.43020 -0.09100
C 	C 	0.25670 0.26420 0.37690 -0.02200
C 	C 	0.12990 0.25810 0.37440 -0.00500
C 	C 	0.06740 0.23180 0.42520 -0.09500
C 	C 	0.92920 0.22730 0.42330 0.40500
C 	C 	0.13240 0.21110 0.47850 -0.01100
C 	C 	0.25920 0.21630 0.48140 -0.01500
N 	N 	0.68170 0.36215 0.31529 -0.28400
N 	N 	0.72130 0.42670 0.23850 -0.15900
N 	N 	0.90600 0.54110 0.09310 -0.15400
N 	N 	0.82840 0.60410 0.02288 -0.28500
N 	N 	0.81830 0.86215 0.81529 -0.28500
N 	N 	0.77870 0.92670 0.73850 -0.15800
N 	N 	0.59400 0.04110 0.59310 -0.15500
N 	N 	0.67160 0.10410 0.52288 -0.28500
O 	O 	0.79510 0.78922 0.05210 -0.48200
O 	O 	0.78450 0.86471 0.98140 -0.47000
O 	O 	0.68550 0.18493 0.29077 -0.46600
O 	O 	0.69660 0.11130 0.36389 -0.47300
O 	O 	0.98860 0.78242 0.89467 -0.47200
O 	O 	0.98760 0.70290 0.96250 -0.47100
O 	O 	0.62650 0.75969 0.88413 -0.48900
O 	O 	0.62120 0.69240 0.96280 -0.46600
O 	O 	0.70490 0.28922 0.55210 -0.48300
O 	O 	0.71550 0.36471 0.48140 -0.47000
O 	O 	0.81450 0.68493 0.79077 -0.46600
O 	O 	0.80340 0.61130 0.86389 -0.47200
O 	O 	0.51140 0.28242 0.39467 -0.47400
O 	O 	0.51240 0.20290 0.46250 -0.47200
O 	O 	0.87350 0.25969 0.38413 -0.48900
O 	O 	0.87880 0.19240 0.46280 -0.46600
Zn	Zn	0.30482 0.81637 0.52802 1.22200
Zn	Zn	0.30603 0.71126 0.62507 1.21900
Zn	Zn	0.19518 0.31637 0.02802 1.22200
Zn	Zn	0.19397 0.21126 0.12507 1.21900
H 	H 	0.99240 0.11460 0.18240 0.03300
H 	H 	0.03860 0.04110 0.26860 0.03600
H 	H 	0.41440 0.16750 0.18970 0.22700
H 	H 	0.42710 0.16520 0.27330 0.23800
H 	H 	0.45000 0.08830 0.20410 0.23100
H 	H 	0.33090 0.09240 0.35160 0.04400
H 	H 	0.22410 0.03090 0.34760 0.04400
H 	H 	0.33080 0.93290 0.26530 0.06500
H 	H 	0.42260 0.99140 0.24400 0.06100
H 	H 	0.51400 0.02430 0.36400 0.04600
H 	H 	0.52660 0.93340 0.32110 0.03000
H 	H 	0.35260 0.06740 0.47780 0.03500
H 	H 	0.26440 0.99560 0.55700 0.02000
H 	H 	0.41330 0.77220 0.37760 0.21200
H 	H 	0.40040 0.80870 0.31140 0.20900
H 	H 	0.52620 0.81870 0.35780 0.21200
H 	H 	0.21230 0.50500 0.44690 0.04500
H 	H 	0.18350 0.39610 0.34250 0.04700
H 	H 	0.25770 0.52360 0.20780 0.04300
H 	H 	0.29150 0.63130 0.31230 0.03300
H 	H 	0.70100 0.71700 0.65780 0.04700
H 	H 	0.91480 0.72790 0.66250 0.03700
H 	H 	0.91050 0.80690 0.48650 0.04300
H 	H 	0.69660 0.79810 0.48170 0.03800
H 	H 	0.50760 0.61460 0.68240 0.03500
H 	H 	0.46140 0.54110 0.76860 0.03500
H 	H 	0.08560 0.66750 0.68970 0.22700
H 	H 	0.07290 0.66520 0.77330 0.23800
H 	H 	0.05000 0.58830 0.70410 0.23000
H 	H 	0.16910 0.59240 0.85160 0.04400
H 	H 	0.27590 0.53090 0.84760 0.04400
H 	H 	0.16920 0.43290 0.76530 0.06500
H 	H 	0.07740 0.49140 0.74400 0.06100
H 	H 	0.98600 0.52430 0.86400 0.04600
H 	H 	0.97340 0.43340 0.82110 0.02900
H 	H 	0.14740 0.56740 0.97780 0.03500
H 	H 	0.23560 0.49560 0.05700 0.02000
H 	H 	0.08670 0.27220 0.87760 0.21100
H 	H 	0.09960 0.30870 0.81140 0.20900
H 	H 	0.97380 0.31870 0.85780 0.21000
H 	H 	0.28770 0.00500 0.94690 0.04500
H 	H 	0.31650 0.89610 0.84250 0.04700
H 	H 	0.24230 0.02360 0.70780 0.04300
H 	H 	0.20850 0.13130 0.81230 0.03300
H 	H 	0.79900 0.21700 0.15780 0.04700
H 	H 	0.58520 0.22790 0.16250 0.03700
H 	H 	0.58950 0.30690 0.98650 0.04200
H 	H 	0.80340 0.29810 0.98170 0.03800
C 	C 	0.07140 0.10800 0.20110 0.00400
C 	C 	0.09650 0.06800 0.24830 0.00400
C 	C 	0.26870 0.11600 0.22230 0.28400
C 	C 	0.40130 0.13600 0.22240 -0.69700
C 	C 	0.28600 0.04770 0.31750 -0.01600
C 	C 	0.37660 0.98220 0.28560 -0.13200
C 	C 	0.46710 0.97530 0.34460 -0.01900
C 	C 	0.35430 0.01290 0.46780 -0.00200
C 	C 	0.30640 0.97340 0.51090 0.00700
C 	C 	0.38860 0.88930 0.41510 0.26800
C 	C 	0.43630 0.81590 0.36080 -0.65300
C 	C 	0.28060 0.64730 0.45780 0.41500
C 	C 	0.25740 0.57870 0.39000 -0.10200
C 	C 	0.22330 0.50870 0.39830 -0.00400
C 	C 	0.20500 0.44420 0.33620 -0.02800
C 	C 	0.21780 0.44920 0.26530 -0.08600
C 	C 	0.19810 0.37830 0.19800 0.38900
C 	C 	0.24960 0.51950 0.25650 -0.02600
C 	C 	0.26930 0.58340 0.31860 -0.00400
C 	C 	0.54040 0.75640 0.57060 0.39000
C 	C 	0.67790 0.75720 0.56980 -0.09100
C 	C 	0.74330 0.73580 0.62310 -0.02200
C 	C 	0.87010 0.74190 0.62560 -0.00500
C 	C 	0.93260 0.76820 0.57480 -0.09500
C 	C 	0.07080 0.77270 0.57670 0.40500
C 	C 	0.86760 0.78890 0.52150 -0.01100
C 	C 	0.74080 0.78370 0.51860 -0.01500
C 	C 	0.42860 0.60800 0.70110 0.00100
C 	C 	0.40350 0.56800 0.74830 0.00500
C 	C 	0.23130 0.61600 0.72230 0.28300
C 	C 	0.09870 0.63600 0.72240 -0.69600
C 	C 	0.21400 0.54770 0.81750 -0.01700
C 	C 	0.12340 0.48220 0.78560 -0.13100
C 	C 	0.03290 0.47530 0.84460 -0.01800
C 	C 	0.14570 0.51290 0.96780 -0.00300
C 	C 	0.19360 0.47340 0.01090 0.00800
C 	C 	0.11140 0.38930 0.91510 0.26700
C 	C 	0.06370 0.31590 0.86080 -0.65100
C 	C 	0.21940 0.14730 0.95780 0.41500
C 	C 	0.24260 0.07870 0.89000 -0.10200
C 	C 	0.27670 0.00870 0.89830 -0.00400
C 	C 	0.29500 0.94420 0.83620 -0.02900
C 	C 	0.28220 0.94920 0.76530 -0.08700
C 	C 	0.30190 0.87830 0.69800 0.38900
C 	C 	0.25040 0.01950 0.75650 -0.02500
C 	C 	0.23070 0.08340 0.81860 -0.00500
C 	C 	0.95960 0.25640 0.07060 0.38800
C 	C 	0.82210 0.25720 0.06980 -0.09000
C 	C 	0.75670 0.23580 0.12310 -0.02300
C 	C 	0.62990 0.24190 0.12560 -0.00300
C 	C 	0.56740 0.26820 0.07480 -0.09700
C 	C 	0.42920 0.27270 0.07670 0.40600
C 	C 	0.63240 0.28890 0.02150 -0.01000
C 	C 	0.75920 0.28370 0.01860 -0.01600
N 	N 	0.18170 0.13785 0.18471 -0.28500
N 	N 	0.22130 0.07330 0.26150 -0.15800
N 	N 	0.40600 0.95890 0.40690 -0.15500
N 	N 	0.32840 0.89590 0.47712 -0.28500
N 	N 	0.31830 0.63785 0.68471 -0.28400
N 	N 	0.27870 0.57330 0.76150 -0.15900
N 	N 	0.09400 0.45890 0.90690 -0.15400
N 	N 	0.17160 0.39590 0.97712 -0.28500
O 	O 	0.29510 0.71078 0.44790 -0.48300
O 	O 	0.28450 0.63529 0.51860 -0.47000
O 	O 	0.18550 0.31507 0.20923 -0.46600
O 	O 	0.19660 0.38870 0.13611 -0.47200
O 	O 	0.48860 0.71758 0.60533 -0.47400
O 	O 	0.48760 0.79710 0.53750 -0.47200
O 	O 	0.12650 0.74031 0.61587 -0.48900
O 	O 	0.12120 0.80760 0.53720 -0.46600
O 	O 	0.20490 0.21078 0.94790 -0.48200
O 	O 	0.21550 0.13529 0.01860 -0.47000
O 	O 	0.31450 0.81507 0.70923 -0.46600
O 	O 	0.30340 0.88870 0.63611 -0.47300
O 	O 	0.01140 0.21758 0.10533 -0.47200
O 	O 	0.01240 0.29710 0.03750 -0.47100
O 	O 	0.37350 0.24031 0.11587 -0.48900
O 	O 	0.37880 0.30760 0.03720 -0.46600
