data_crystal

_cell_length_a 16.43930
_cell_length_b 16.43930
_cell_length_c 23.77700
_cell_angle_alpha 90.00000
_cell_angle_beta  90.00000
_cell_angle_gamma 120.00000

_symmetry_space_group_name_	'P 1'
_symmetry_space_group_name_H-M	'P 1'

loop_
_symmetry_equiv_pos_as_xyz
  x,y,z

loop_
_atom_site_label
_atom_site_type_symbol
_atom_site_fract_x
_atom_site_fract_y
_atom_site_fract_z
_atom_site_charge
Pr	Pr	0.08433 0.08433 -0.00000 2.02000
Pr	Pr	0.00000 0.91567 0.66667 2.04600
Pr	Pr	0.91567 0.00000 0.33333 2.04700
Pr	Pr	0.91567 0.91567 0.50000 2.08900
Pr	Pr	0.00000 0.08433 0.16667 2.02100
Pr	Pr	0.08433 0.00000 0.83333 2.02300
H 	H 	0.11090 0.81210 0.90900 -0.00200
H 	H 	0.17770 0.72220 0.89350 0.08200
H 	H 	0.38690 0.88460 0.99920 0.12200
H 	H 	0.32510 0.98270 0.00900 -0.04400
H 	H 	0.47160 0.85100 0.94230 0.06900
H 	H 	0.61090 0.87990 0.98470 0.09400
H 	H 	0.77330 0.96080 0.98330 0.05400
H 	H 	0.70120 0.88910 0.57567 0.04700
H 	H 	0.54450 0.82230 0.56017 0.07700
H 	H 	0.49770 0.61310 0.66587 0.06800
H 	H 	0.65760 0.67490 0.67567 0.02300
H 	H 	0.37940 0.52840 0.60897 0.06800
H 	H 	0.26900 0.38910 0.65137 0.06900
H 	H 	0.18750 0.22670 0.64997 0.02800
H 	H 	0.18790 0.29880 0.24233 0.03900
H 	H 	0.27780 0.45550 0.22683 0.05900
H 	H 	0.11540 0.50230 0.33253 0.05800
H 	H 	0.01730 0.34240 0.34233 0.00300
H 	H 	0.14900 0.62060 0.27563 0.05700
H 	H 	0.12010 0.73100 0.31803 0.07000
H 	H 	0.03920 0.81250 0.31663 0.00500
H 	H 	0.88910 0.18790 0.40900 0.05400
H 	H 	0.82230 0.27780 0.39350 0.07100
H 	H 	0.61310 0.11540 0.49920 0.05700
H 	H 	0.67490 0.01730 0.50900 0.00700
H 	H 	0.52840 0.14900 0.44230 0.06000
H 	H 	0.38910 0.12010 0.48470 0.06400
H 	H 	0.22670 0.03920 0.48330 0.00800
H 	H 	0.29880 0.11090 0.07567 0.00900
H 	H 	0.45550 0.17770 0.06017 0.05200
H 	H 	0.50230 0.38690 0.16587 0.07000
H 	H 	0.34240 0.32510 0.17567 0.01400
H 	H 	0.62060 0.47160 0.10897 0.06300
H 	H 	0.73100 0.61090 0.15137 0.08000
H 	H 	0.81250 0.77330 0.14997 0.02100
H 	H 	0.81210 0.70120 0.74233 0.02700
H 	H 	0.72220 0.54450 0.72683 0.07400
H 	H 	0.88460 0.49770 0.83253 0.08500
H 	H 	0.98270 0.65760 0.84233 0.03900
H 	H 	0.85100 0.37940 0.77563 0.07400
H 	H 	0.87990 0.26900 0.81803 0.08400
H 	H 	0.96080 0.18750 0.81663 0.04700
H 	H 	0.29880 0.18790 0.75767 0.03900
H 	H 	0.45550 0.27780 0.77317 0.06400
H 	H 	0.50230 0.11540 0.66747 0.05900
H 	H 	0.34240 0.01730 0.65767 0.00300
H 	H 	0.62060 0.14900 0.72437 0.05800
H 	H 	0.73100 0.12010 0.68197 0.07000
H 	H 	0.81250 0.03920 0.68337 0.00500
H 	H 	0.81210 0.11090 0.09100 0.02700
H 	H 	0.72220 0.17770 0.10650 0.04500
H 	H 	0.88460 0.38690 0.00080 0.04000
H 	H 	0.98270 0.32510 0.99100 0.11500
H 	H 	0.85100 0.47160 0.05770 0.07400
H 	H 	0.87990 0.61090 0.01530 0.07800
H 	H 	0.96080 0.77330 0.01670 0.03200
H 	H 	0.88910 0.70120 0.42433 0.04700
H 	H 	0.82230 0.54450 0.43983 0.07700
H 	H 	0.61310 0.49770 0.33413 0.06800
H 	H 	0.67490 0.65760 0.32433 0.02300
H 	H 	0.52840 0.37940 0.39103 0.06800
H 	H 	0.38910 0.26900 0.34863 0.06900
H 	H 	0.22670 0.18750 0.35003 0.02800
H 	H 	0.70120 0.81210 0.25767 0.02700
H 	H 	0.54450 0.72220 0.27317 0.07400
H 	H 	0.49770 0.88460 0.16747 0.07600
H 	H 	0.65760 0.98270 0.15767 0.03400
H 	H 	0.37940 0.85100 0.22437 0.07300
H 	H 	0.26900 0.87990 0.18197 0.07700
H 	H 	0.18750 0.96080 0.18337 0.04600
H 	H 	0.18790 0.88910 0.59100 0.05400
H 	H 	0.27780 0.82230 0.60650 0.07100
H 	H 	0.11540 0.61310 0.50080 0.05700
H 	H 	0.01730 0.67490 0.49100 0.00600
H 	H 	0.14900 0.52840 0.55770 0.06000
H 	H 	0.12010 0.38910 0.51530 0.06300
H 	H 	0.03920 0.22670 0.51670 0.00800
H 	H 	0.11090 0.29880 0.92433 0.02500
H 	H 	0.17770 0.45550 0.93983 0.06400
H 	H 	0.38690 0.50230 0.83413 0.07200
H 	H 	0.32510 0.34240 0.82433 0.01700
H 	H 	0.47160 0.62060 0.89103 0.06400
H 	H 	0.61090 0.73100 0.84863 0.08200
H 	H 	0.77330 0.81250 0.85003 0.02500
H 	H 	0.22770 0.61385 0.91667 0.05000
H 	H 	0.38615 0.77230 0.58333 0.07500
H 	H 	0.38615 0.61385 0.25000 0.06300
H 	H 	0.77230 0.38615 0.41667 0.07500
H 	H 	0.61385 0.22770 0.08333 0.05400
H 	H 	0.61385 0.38615 0.75000 0.06400
C 	C 	0.17570 0.97610 0.96370 0.49800
C 	C 	0.21370 0.91070 0.95850 -0.23700
C 	C 	0.16850 0.82890 0.92540 0.11300
C 	C 	0.20720 0.77410 0.91710 -0.17800
C 	C 	0.29310 0.79550 0.94410 0.11200
C 	C 	0.33310 0.87170 0.97930 -0.21800
C 	C 	0.29520 0.93020 0.98590 0.22100
C 	C 	0.34210 0.74350 0.93030 0.00800
C 	C 	0.43850 0.78830 0.93130 -0.08400
C 	C 	0.64330 0.86660 0.95760 -0.12800
C 	C 	0.74030 0.91440 0.95660 0.09000
C 	C 	0.80040 0.82430 0.63037 0.37000
C 	C 	0.69700 0.78630 0.62517 -0.13500
C 	C 	0.66040 0.83150 0.59207 0.03200
C 	C 	0.56690 0.79280 0.58377 -0.10400
C 	C 	0.50240 0.70690 0.61077 0.04400
C 	C 	0.53860 0.66690 0.64597 -0.11500
C 	C 	0.63500 0.70480 0.65257 0.05100
C 	C 	0.40140 0.65790 0.59697 0.04300
C 	C 	0.34980 0.56150 0.59797 -0.11100
C 	C 	0.22330 0.35670 0.62427 -0.11700
C 	C 	0.17410 0.25970 0.62327 0.04400
C 	C 	0.02390 0.19960 0.29703 0.27800
C 	C 	0.08930 0.30300 0.29183 -0.12300
C 	C 	0.17110 0.33960 0.25873 0.00700
C 	C 	0.22590 0.43310 0.25043 -0.10000
C 	C 	0.20450 0.49760 0.27743 0.03200
C 	C 	0.12830 0.46140 0.31263 -0.11300
C 	C 	0.06980 0.36500 0.31923 0.02800
C 	C 	0.25650 0.59860 0.26363 0.03500
C 	C 	0.21170 0.65020 0.26463 -0.10800
C 	C 	0.13340 0.77670 0.29093 -0.12800
C 	C 	0.08560 0.82590 0.28993 0.06600
C 	C 	0.82430 0.02390 0.46370 0.27500
C 	C 	0.78630 0.08930 0.45850 -0.11200
C 	C 	0.83150 0.17110 0.42540 0.00700
C 	C 	0.79280 0.22590 0.41710 -0.09200
C 	C 	0.70690 0.20450 0.44410 0.03200
C 	C 	0.66690 0.12830 0.47930 -0.10700
C 	C 	0.70480 0.06980 0.48590 0.02500
C 	C 	0.65790 0.25650 0.43030 0.04300
C 	C 	0.56150 0.21170 0.43130 -0.11300
C 	C 	0.35670 0.13340 0.45760 -0.12000
C 	C 	0.25970 0.08560 0.45660 0.04300
C 	C 	0.19960 0.17570 0.13037 0.38100
C 	C 	0.30300 0.21370 0.12517 -0.16500
C 	C 	0.33960 0.16850 0.09207 0.03400
C 	C 	0.43310 0.20720 0.08377 -0.12400
C 	C 	0.49760 0.29310 0.11077 0.04400
C 	C 	0.46140 0.33310 0.14597 -0.13100
C 	C 	0.36500 0.29520 0.15257 0.05900
C 	C 	0.59860 0.34210 0.09697 0.03100
C 	C 	0.65020 0.43850 0.09797 -0.10700
C 	C 	0.77670 0.64330 0.12427 -0.13700
C 	C 	0.82590 0.74030 0.12327 0.08900
C 	C 	0.97610 0.80040 0.79703 0.47100
C 	C 	0.91070 0.69700 0.79183 -0.16800
C 	C 	0.82890 0.66040 0.75873 0.05900
C 	C 	0.77410 0.56690 0.75043 -0.12300
C 	C 	0.79550 0.50240 0.77743 0.06000
C 	C 	0.87170 0.53860 0.81263 -0.13000
C 	C 	0.93020 0.63500 0.81923 0.08300
C 	C 	0.74350 0.40140 0.76363 0.03600
C 	C 	0.78830 0.34980 0.76463 -0.10300
C 	C 	0.86660 0.22330 0.79093 -0.12400
C 	C 	0.91440 0.17410 0.78993 0.07000
C 	C 	0.19960 0.02390 0.70297 0.28100
C 	C 	0.30300 0.08930 0.70817 -0.12500
C 	C 	0.33960 0.17110 0.74127 0.01100
C 	C 	0.43310 0.22590 0.74957 -0.10200
C 	C 	0.49760 0.20450 0.72257 0.03500
C 	C 	0.46140 0.12830 0.68737 -0.11500
C 	C 	0.36500 0.06980 0.68077 0.03000
C 	C 	0.59860 0.25650 0.73637 0.03600
C 	C 	0.65020 0.21170 0.73537 -0.10500
C 	C 	0.77670 0.13340 0.70907 -0.12900
C 	C 	0.82590 0.08560 0.71007 0.06800
C 	C 	0.97610 0.17570 0.03630 0.45200
C 	C 	0.91070 0.21370 0.04150 -0.12200
C 	C 	0.82890 0.16850 0.07460 0.00300
C 	C 	0.77410 0.20720 0.08290 -0.08400
C 	C 	0.79550 0.29310 0.05590 0.00500
C 	C 	0.87170 0.33310 0.02070 -0.05200
C 	C 	0.93020 0.29520 0.01410 -0.05900
C 	C 	0.74350 0.34210 0.06970 0.04800
C 	C 	0.78830 0.43850 0.06870 -0.11400
C 	C 	0.86660 0.64330 0.04240 -0.13600
C 	C 	0.91440 0.74030 0.04340 0.08900
C 	C 	0.82430 0.80040 0.36963 0.37000
C 	C 	0.78630 0.69700 0.37483 -0.13500
C 	C 	0.83150 0.66040 0.40793 0.03200
C 	C 	0.79280 0.56690 0.41623 -0.10400
C 	C 	0.70690 0.50240 0.38923 0.04400
C 	C 	0.66690 0.53860 0.35403 -0.11500
C 	C 	0.70480 0.63500 0.34743 0.05100
C 	C 	0.65790 0.40140 0.40303 0.04300
C 	C 	0.56150 0.34980 0.40203 -0.11100
C 	C 	0.35670 0.22330 0.37573 -0.11700
C 	C 	0.25970 0.17410 0.37673 0.04400
C 	C 	0.80040 0.97610 0.20297 0.47100
C 	C 	0.69700 0.91070 0.20817 -0.17000
C 	C 	0.66040 0.82890 0.24127 0.05700
C 	C 	0.56690 0.77410 0.24957 -0.12400
C 	C 	0.50240 0.79550 0.22257 0.05600
C 	C 	0.53860 0.87170 0.18737 -0.13100
C 	C 	0.63500 0.93020 0.18077 0.07900
C 	C 	0.40140 0.74350 0.23637 0.03400
C 	C 	0.34980 0.78830 0.23537 -0.10600
C 	C 	0.22330 0.86660 0.20907 -0.12300
C 	C 	0.17410 0.91440 0.21007 0.06700
C 	C 	0.02390 0.82430 0.53630 0.27300
C 	C 	0.08930 0.78630 0.54150 -0.11200
C 	C 	0.17110 0.83150 0.57460 0.00700
C 	C 	0.22590 0.79280 0.58290 -0.09200
C 	C 	0.20450 0.70690 0.55590 0.03200
C 	C 	0.12830 0.66690 0.52070 -0.10700
C 	C 	0.06980 0.70480 0.51410 0.02400
C 	C 	0.25650 0.65790 0.56970 0.04300
C 	C 	0.21170 0.56150 0.56870 -0.11300
C 	C 	0.13340 0.35670 0.54240 -0.12000
C 	C 	0.08560 0.25970 0.54340 0.04300
C 	C 	0.17570 0.19960 0.86963 0.38100
C 	C 	0.21370 0.30300 0.87483 -0.15500
C 	C 	0.16850 0.33960 0.90793 0.03600
C 	C 	0.20720 0.43310 0.91623 -0.11900
C 	C 	0.29310 0.49760 0.88923 0.05200
C 	C 	0.33310 0.46140 0.85403 -0.12900
C 	C 	0.29520 0.36500 0.84743 0.06100
C 	C 	0.34210 0.59860 0.90303 0.02400
C 	C 	0.43850 0.65020 0.90203 -0.09200
C 	C 	0.64330 0.77670 0.87573 -0.13300
C 	C 	0.74030 0.82590 0.87673 0.08900
C 	C 	0.29310 0.64655 0.91667 -0.08100
C 	C 	0.48850 0.74425 0.91667 0.03000
C 	C 	0.59470 0.79735 0.91667 0.07200
C 	C 	0.78970 0.89485 0.91667 -0.15700
C 	C 	0.89470 0.94735 0.91667 0.52800
C 	C 	0.35345 0.70690 0.58333 -0.10900
C 	C 	0.25575 0.51150 0.58333 0.04200
C 	C 	0.20265 0.40530 0.58333 0.04200
C 	C 	0.10515 0.21030 0.58333 -0.13200
C 	C 	0.05265 0.10530 0.58333 0.34700
C 	C 	0.35345 0.64655 0.25000 -0.10300
C 	C 	0.25575 0.74425 0.25000 0.03700
C 	C 	0.20265 0.79735 0.25000 0.05400
C 	C 	0.10515 0.89485 0.25000 -0.14900
C 	C 	0.05265 0.94735 0.25000 0.44200
C 	C 	0.70690 0.35345 0.41667 -0.10900
C 	C 	0.51150 0.25575 0.41667 0.04200
C 	C 	0.40530 0.20265 0.41667 0.04200
C 	C 	0.21030 0.10515 0.41667 -0.13200
C 	C 	0.10530 0.05265 0.41667 0.34800
C 	C 	0.64655 0.29310 0.08333 -0.11000
C 	C 	0.74425 0.48850 0.08333 0.03800
C 	C 	0.79735 0.59470 0.08333 0.06300
C 	C 	0.89485 0.78970 0.08333 -0.17200
C 	C 	0.94735 0.89470 0.08333 0.53400
C 	C 	0.64655 0.35345 0.75000 -0.10000
C 	C 	0.74425 0.25575 0.75000 0.03800
C 	C 	0.79735 0.20265 0.75000 0.05700
C 	C 	0.89485 0.10515 0.75000 -0.15000
C 	C 	0.94735 0.05265 0.75000 0.44400
O 	O 	0.10890 0.96690 0.93164 -0.58800
O 	O 	0.21020 0.04100 0.99790 -0.53600
O 	O 	0.93480 0.00570 0.95554 -0.52900
O 	O 	0.85800 0.89110 0.59831 -0.55000
O 	O 	0.83080 0.78980 0.66457 -0.45400
O 	O 	0.07090 0.06520 0.62221 -0.52900
O 	O 	0.03310 0.14200 0.26497 -0.60300
O 	O 	0.95900 0.16920 0.33123 -0.39700
O 	O 	0.99430 0.92910 0.28887 -0.40800
O 	O 	0.89110 0.03310 0.43164 -0.57200
O 	O 	0.78980 0.95900 0.49790 -0.38700
O 	O 	0.06520 0.99430 0.45554 -0.44400
O 	O 	0.14200 0.10890 0.09831 -0.62300
O 	O 	0.16920 0.21020 0.16457 -0.48900
O 	O 	0.92910 0.93480 0.12221 -0.46500
O 	O 	0.96690 0.85800 0.76497 -0.55700
O 	O 	0.04100 0.83080 0.83123 -0.53900
O 	O 	0.00570 0.07090 0.78887 -0.58300
O 	O 	0.14200 0.03310 0.73503 -0.60200
O 	O 	0.16920 0.95900 0.66877 -0.40000
O 	O 	0.92910 0.99430 0.71113 -0.41000
O 	O 	0.96690 0.10890 0.06836 -0.59200
O 	O 	0.04100 0.21020 0.00210 -0.58000
O 	O 	0.00570 0.93480 0.04446 -0.56700
O 	O 	0.89110 0.85800 0.40169 -0.55000
O 	O 	0.78980 0.83080 0.33543 -0.45400
O 	O 	0.06520 0.07090 0.37779 -0.53000
O 	O 	0.85800 0.96690 0.23503 -0.55600
O 	O 	0.83080 0.04100 0.16877 -0.54500
O 	O 	0.07090 0.00570 0.21113 -0.58400
O 	O 	0.03310 0.89110 0.56836 -0.57200
O 	O 	0.95900 0.78980 0.50210 -0.38600
O 	O 	0.99430 0.06520 0.54446 -0.44300
O 	O 	0.10890 0.14200 0.90169 -0.60600
O 	O 	0.21020 0.16920 0.83543 -0.48500
O 	O 	0.93480 0.92910 0.87779 -0.45700
