data_crystal

_cell_length_a 9.66600
_cell_length_b 11.69200
_cell_length_c 12.36600
_cell_angle_alpha 72.75000
_cell_angle_beta  67.91200
_cell_angle_gamma 76.86900

_symmetry_space_group_name_	'P 1'
_symmetry_space_group_name_H-M	'P 1'

loop_
_symmetry_equiv_pos_as_xyz
  x,y,z

loop_
_atom_site_label
_atom_site_type_symbol
_atom_site_fract_x
_atom_site_fract_y
_atom_site_fract_z
_atom_site_charge
Li	Li	0.54690 0.38330 0.05330 0.55100
Li	Li	0.53490 0.07260 0.38750 0.55400
Li	Li	0.23400 0.10850 0.51650 0.55000
Li	Li	0.55490 0.30740 0.30520 0.55800
Li	Li	0.45310 0.61670 0.94670 0.55100
Li	Li	0.46510 0.92740 0.61250 0.55400
Li	Li	0.76600 0.89150 0.48350 0.55000
Li	Li	0.44510 0.69260 0.69480 0.55800
H 	H 	0.09720 0.10190 0.33810 0.02900
H 	H 	0.84950 0.33060 0.14630 0.05100
H 	H 	0.25160 0.40350 0.11190 0.04300
H 	H 	0.58180 0.61070 0.34860 0.04900
H 	H 	0.54430 0.77390 0.02550 0.04800
H 	H 	0.53820 0.97000 0.24400 0.04500
H 	H 	0.90280 0.89810 0.66190 0.02900
H 	H 	0.15050 0.66940 0.85370 0.05100
H 	H 	0.74840 0.59650 0.88810 0.04300
H 	H 	0.41820 0.38930 0.65140 0.04900
H 	H 	0.45570 0.22610 0.97450 0.04800
H 	H 	0.46180 0.03000 0.75600 0.04500
C 	C 	0.33713 0.21815 0.26309 0.38500
C 	C 	0.82672 0.12736 0.31992 0.39600
C 	C 	0.19788 0.24737 0.22866 -0.11800
C 	C 	0.08465 0.17360 0.28242 0.03600
C 	C 	0.95246 0.20569 0.25392 -0.10200
C 	C 	0.93632 0.30952 0.16739 -0.03400
C 	C 	0.05073 0.38182 0.11236 0.06600
C 	C 	0.17816 0.35186 0.14598 -0.03200
C 	C 	0.55552 0.79923 0.43610 0.36200
C 	C 	0.57182 0.55145 0.16284 0.38800
C 	C 	0.55816 0.79175 0.31572 -0.09500
C 	C 	0.56993 0.68129 0.29151 0.02800
C 	C 	0.56434 0.67393 0.18314 -0.09500
C 	C 	0.54770 0.77797 0.09842 -0.04300
C 	C 	0.53580 0.88894 0.12208 0.07300
C 	C 	0.54330 0.89516 0.22972 -0.04300
C 	C 	0.66287 0.78185 0.73691 0.38500
C 	C 	0.17328 0.87264 0.68008 0.39600
C 	C 	0.80212 0.75263 0.77134 -0.11800
C 	C 	0.91535 0.82640 0.71758 0.03600
C 	C 	0.04754 0.79431 0.74608 -0.10200
C 	C 	0.06368 0.69048 0.83261 -0.03400
C 	C 	0.94927 0.61818 0.88764 0.06600
C 	C 	0.82184 0.64814 0.85402 -0.03200
C 	C 	0.44448 0.20077 0.56390 0.36200
C 	C 	0.42818 0.44855 0.83716 0.38800
C 	C 	0.44184 0.20825 0.68428 -0.09500
C 	C 	0.43007 0.31871 0.70849 0.02800
C 	C 	0.43566 0.32607 0.81686 -0.09500
C 	C 	0.45230 0.22203 0.90158 -0.04300
C 	C 	0.46420 0.11106 0.87792 0.07300
C 	C 	0.45670 0.10484 0.77028 -0.04300
N 	N 	0.04882 0.49168 0.02276 -0.08600
N 	N 	0.51215 0.00262 0.04429 -0.08700
N 	N 	0.95118 0.50832 0.97724 -0.08600
N 	N 	0.48785 0.99738 0.95571 -0.08700
O 	O 	0.34833 0.12695 0.34518 -0.45600
O 	O 	0.43627 0.28701 0.20927 -0.45300
O 	O 	0.70339 0.16465 0.30184 -0.45400
O 	O 	0.85278 0.03127 0.38932 -0.40300
O 	O 	0.57219 0.90086 0.44458 -0.50000
O 	O 	0.54196 0.54604 0.07408 -0.45500
O 	O 	0.60464 0.46319 0.23713 -0.38400
O 	O 	0.53674 0.70917 0.51970 -0.37200
O 	O 	0.65167 0.87305 0.65482 -0.45600
O 	O 	0.56373 0.71299 0.79073 -0.45300
O 	O 	0.29661 0.83535 0.69816 -0.45400
O 	O 	0.14722 0.96873 0.61068 -0.40300
O 	O 	0.42781 0.09914 0.55542 -0.50000
O 	O 	0.45804 0.45396 0.92592 -0.45500
O 	O 	0.39536 0.53681 0.76287 -0.38400
O 	O 	0.46326 0.29083 0.48030 -0.37200
