data_crystal

_cell_length_a 38.98810
_cell_length_b 38.98810
_cell_length_c 22.29620
_cell_angle_alpha 90.00000
_cell_angle_beta  90.00000
_cell_angle_gamma 120.00000

_symmetry_space_group_name_	'P 1'
_symmetry_space_group_name_H-M	'P 1'

loop_
_symmetry_equiv_pos_as_xyz
  x,y,z

loop_
_atom_site_label
_atom_site_type_symbol
_atom_site_fract_x
_atom_site_fract_y
_atom_site_fract_z
_atom_site_charge
Mn	Mn	0.66392 0.73824 0.09236 1.21600
Mn	Mn	0.58001 0.65563 0.03378 1.29500
O 	O 	0.39461 0.91990 0.99762 -0.38600
O 	O 	0.37348 0.89757 0.08970 -0.37900
O 	O 	0.68342 0.94699 0.91477 -0.38500
O 	O 	0.71682 0.00845 0.94560 -0.55600
O 	O 	0.66782 0.04718 0.12943 -0.47200
O 	O 	0.61038 0.00212 0.16789 -0.52500
O 	O 	0.57184 0.70428 0.01038 -0.45400
O 	O 	0.61268 0.74257 0.08365 -0.52500
C 	C 	0.58846 0.73516 0.04267 0.41100
C 	C 	0.57754 0.76614 0.02633 -0.19200
C 	C 	0.55582 0.76316 0.97364 0.12800
H 	H 	0.54780 0.74190 0.94750 -0.00500
C 	C 	0.54700 0.79271 0.96234 -0.22800
H 	H 	0.53290 0.79110 0.92780 0.10300
C 	C 	0.55818 0.82428 0.99985 0.18500
C 	C 	0.57927 0.82658 0.04937 -0.23200
H 	H 	0.58700 0.84790 0.07520 0.11200
C 	C 	0.58984 0.79837 0.06319 0.12900
H 	H 	0.60510 0.80130 0.09700 -0.02000
C 	C 	0.54660 0.85563 0.98649 -0.19900
H 	H 	0.56050 0.86980 0.95060 0.08800
H 	H 	0.51850 0.84220 0.97770 0.09000
C 	C 	0.52654 0.87268 0.07963 -0.18100
H 	H 	0.54060 0.88550 0.11610 0.07100
H 	H 	0.51480 0.84440 0.08570 0.08400
C 	C 	0.49390 0.88152 0.07191 0.14500
C 	C 	0.46625 0.87314 0.11464 -0.19800
H 	H 	0.46810 0.86230 0.15080 0.08400
C 	C 	0.43518 0.88041 0.10578 0.08700
H 	H 	0.41630 0.87350 0.13580 0.01000
C 	C 	0.43157 0.89675 0.05611 -0.13000
C 	C 	0.45882 0.90663 0.01050 0.07100
H 	H 	0.45680 0.91820 0.97510 0.01200
C 	C 	0.48938 0.89857 0.01967 -0.18000
H 	H 	0.50790 0.90490 0.98920 0.09600
C 	C 	0.59075 0.92076 0.03437 0.03100
C 	C 	0.59672 0.94909 0.07733 -0.02400
H 	H 	0.57670 0.94370 0.10490 0.03400
C 	C 	0.63122 0.98473 0.08010 -0.12500
C 	C 	0.66093 0.99328 0.03736 0.04100
H 	H 	0.68420 0.01770 0.03750 -0.00900
C 	C 	0.65511 0.96520 0.99555 -0.11200
C 	C 	0.62103 0.92933 0.99430 -0.03100
H 	H 	0.61820 0.91050 0.96620 0.05400
C 	C 	0.39760 0.90537 0.04851 0.30100
C 	C 	0.68669 0.97374 0.94921 0.34300
C 	C 	0.63692 0.01381 0.12945 0.40500
N 	N 	0.55461 0.88388 0.03299 -0.07100
Mn	Mn	0.33059 0.07157 0.42569 1.21500
Mn	Mn	0.24667 0.98897 0.36712 1.29400
O 	O 	0.06128 0.25323 0.33095 -0.39000
O 	O 	0.04015 0.23090 0.42303 -0.38100
O 	O 	0.35009 0.28032 0.24810 -0.38700
O 	O 	0.38349 0.34178 0.27893 -0.55800
O 	O 	0.33449 0.38051 0.46276 -0.47100
O 	O 	0.27705 0.33545 0.50122 -0.52500
O 	O 	0.23851 0.03761 0.34371 -0.45200
O 	O 	0.27935 0.07590 0.41698 -0.52400
C 	C 	0.25513 0.06849 0.37600 0.40900
C 	C 	0.24421 0.09947 0.35966 -0.18500
C 	C 	0.22249 0.09649 0.30697 0.11900
H 	H 	0.21447 0.07523 0.28083 -0.00300
C 	C 	0.21367 0.12604 0.29567 -0.22100
H 	H 	0.19957 0.12443 0.26113 0.10000
C 	C 	0.22485 0.15761 0.33318 0.17700
C 	C 	0.24594 0.15991 0.38270 -0.22200
H 	H 	0.25367 0.18123 0.40853 0.10900
C 	C 	0.25651 0.13170 0.39652 0.12200
H 	H 	0.27177 0.13463 0.43033 -0.01800
C 	C 	0.21327 0.18896 0.31982 -0.19700
H 	H 	0.22717 0.20313 0.28393 0.08700
H 	H 	0.18517 0.17553 0.31103 0.08900
C 	C 	0.19321 0.20601 0.41296 -0.18100
H 	H 	0.20727 0.21883 0.44943 0.07100
H 	H 	0.18147 0.17773 0.41903 0.08400
C 	C 	0.16057 0.21485 0.40524 0.14500
C 	C 	0.13292 0.20647 0.44797 -0.19900
H 	H 	0.13477 0.19563 0.48413 0.08400
C 	C 	0.10185 0.21374 0.43911 0.08800
H 	H 	0.08297 0.20683 0.46913 0.01000
C 	C 	0.09824 0.23008 0.38944 -0.13200
C 	C 	0.12549 0.23996 0.34383 0.07500
H 	H 	0.12347 0.25153 0.30843 0.00900
C 	C 	0.15605 0.23190 0.35300 -0.17800
H 	H 	0.17457 0.23823 0.32253 0.09400
C 	C 	0.25742 0.25409 0.36770 0.03400
C 	C 	0.26339 0.28242 0.41066 -0.02400
H 	H 	0.24337 0.27703 0.43823 0.03400
C 	C 	0.29789 0.31806 0.41343 -0.12600
C 	C 	0.32760 0.32661 0.37069 0.04600
H 	H 	0.35087 0.35103 0.37083 -0.01100
C 	C 	0.32178 0.29853 0.32888 -0.11600
C 	C 	0.28770 0.26266 0.32763 -0.03300
H 	H 	0.28487 0.24383 0.29953 0.05400
C 	C 	0.06427 0.23870 0.38184 0.30500
C 	C 	0.35336 0.30707 0.28254 0.34400
C 	C 	0.30359 0.34714 0.46278 0.40500
N 	N 	0.22128 0.21721 0.36632 -0.07100
Mn	Mn	0.99725 0.40490 0.75903 1.21500
Mn	Mn	0.91334 0.32230 0.70045 1.29500
O 	O 	0.72794 0.58657 0.66429 -0.39000
O 	O 	0.70681 0.56424 0.75637 -0.38100
O 	O 	0.01675 0.61366 0.58144 -0.38700
O 	O 	0.05015 0.67512 0.61227 -0.55800
O 	O 	0.00115 0.71385 0.79610 -0.47200
O 	O 	0.94371 0.66879 0.83456 -0.52600
O 	O 	0.90517 0.37095 0.67705 -0.45200
O 	O 	0.94601 0.40924 0.75032 -0.52400
C 	C 	0.92179 0.40183 0.70934 0.40900
C 	C 	0.91087 0.43281 0.69300 -0.18500
C 	C 	0.88915 0.42983 0.64031 0.11900
H 	H 	0.88113 0.40857 0.61417 -0.00200
C 	C 	0.88033 0.45938 0.62901 -0.22100
H 	H 	0.86623 0.45777 0.59447 0.10000
C 	C 	0.89151 0.49095 0.66652 0.17700
C 	C 	0.91260 0.49325 0.71604 -0.22200
H 	H 	0.92033 0.51457 0.74187 0.10900
C 	C 	0.92317 0.46504 0.72986 0.12200
H 	H 	0.93843 0.46797 0.76367 -0.01700
C 	C 	0.87993 0.52230 0.65316 -0.19700
H 	H 	0.89383 0.53647 0.61727 0.08700
H 	H 	0.85183 0.50887 0.64437 0.08900
C 	C 	0.85987 0.53935 0.74630 -0.18100
H 	H 	0.87393 0.55217 0.78277 0.07100
H 	H 	0.84813 0.51107 0.75237 0.08400
C 	C 	0.82723 0.54819 0.73858 0.14500
C 	C 	0.79958 0.53981 0.78131 -0.19900
H 	H 	0.80143 0.52897 0.81747 0.08400
C 	C 	0.76851 0.54708 0.77245 0.08800
H 	H 	0.74963 0.54017 0.80247 0.01000
C 	C 	0.76490 0.56342 0.72278 -0.13200
C 	C 	0.79215 0.57330 0.67717 0.07500
H 	H 	0.79013 0.58487 0.64177 0.00900
C 	C 	0.82271 0.56524 0.68634 -0.17800
H 	H 	0.84123 0.57157 0.65587 0.09400
C 	C 	0.92408 0.58743 0.70104 0.03400
C 	C 	0.93005 0.61576 0.74400 -0.02400
H 	H 	0.91003 0.61037 0.77157 0.03400
C 	C 	0.96455 0.65140 0.74677 -0.12600
C 	C 	0.99426 0.65995 0.70403 0.04800
H 	H 	0.01753 0.68437 0.70417 -0.01200
C 	C 	0.98844 0.63187 0.66222 -0.11500
C 	C 	0.95436 0.59600 0.66097 -0.03300
H 	H 	0.95153 0.57717 0.63287 0.05500
C 	C 	0.73093 0.57204 0.71518 0.30400
C 	C 	0.02002 0.64041 0.61588 0.34400
C 	C 	0.97025 0.68048 0.79612 0.40600
N 	N 	0.88794 0.55055 0.69966 -0.07100
Mn	Mn	0.26176 0.92568 0.09236 1.21500
Mn	Mn	0.34437 0.92437 0.03378 1.29400
O 	O 	0.08010 0.47471 0.99762 -0.38700
O 	O 	0.10243 0.47591 0.08970 -0.38000
O 	O 	0.05301 0.73643 0.91477 -0.38600
O 	O 	0.99155 0.70837 0.94560 -0.55600
O 	O 	0.95282 0.62064 0.12943 -0.47200
O 	O 	0.99788 0.60826 0.16789 -0.52500
O 	O 	0.29572 0.86756 0.01038 -0.45400
O 	O 	0.25743 0.87011 0.08365 -0.52500
C 	C 	0.26484 0.85330 0.04267 0.41100
C 	C 	0.23386 0.81140 0.02633 -0.19200
C 	C 	0.23684 0.79266 0.97364 0.12800
H 	H 	0.25810 0.80590 0.94750 -0.00500
C 	C 	0.20729 0.75429 0.96234 -0.22800
H 	H 	0.20890 0.74180 0.92780 0.10300
C 	C 	0.17572 0.73390 0.99985 0.18500
C 	C 	0.17342 0.75269 0.04937 -0.23200
H 	H 	0.15210 0.73910 0.07520 0.11200
C 	C 	0.20163 0.79147 0.06319 0.12900
H 	H 	0.19870 0.80380 0.09700 -0.02000
C 	C 	0.14437 0.69097 0.98649 -0.19900
H 	H 	0.13020 0.69070 0.95060 0.08800
H 	H 	0.15780 0.67630 0.97770 0.09000
C 	C 	0.12732 0.65386 0.07963 -0.18100
H 	H 	0.11450 0.65510 0.11610 0.07100
H 	H 	0.15560 0.67040 0.08570 0.08400
C 	C 	0.11848 0.61238 0.07191 0.14500
C 	C 	0.12686 0.59311 0.11464 -0.19800
H 	H 	0.13770 0.60580 0.15080 0.08400
C 	C 	0.11959 0.55477 0.10578 0.08700
H 	H 	0.12650 0.54280 0.13580 0.01000
C 	C 	0.10325 0.53482 0.05611 -0.13000
C 	C 	0.09337 0.55219 0.01050 0.07100
H 	H 	0.08180 0.53860 0.97510 0.01200
C 	C 	0.10143 0.59081 0.01967 -0.18000
H 	H 	0.09510 0.60300 0.98920 0.09600
C 	C 	0.07924 0.66999 0.03437 0.03100
C 	C 	0.05091 0.64763 0.07733 -0.02400
H 	H 	0.05630 0.63300 0.10490 0.03400
C 	C 	0.01527 0.64649 0.08010 -0.12500
C 	C 	0.00672 0.66765 0.03736 0.04100
H 	H 	0.98230 0.66650 0.03750 -0.00900
C 	C 	0.03480 0.68991 0.99555 -0.11200
C 	C 	0.07067 0.69170 0.99430 -0.03100
H 	H 	0.08950 0.70770 0.96620 0.05400
C 	C 	0.09463 0.49223 0.04851 0.30100
C 	C 	0.02626 0.71295 0.94921 0.34300
C 	C 	0.98619 0.62311 0.12945 0.40500
N 	N 	0.11612 0.67073 0.03299 -0.07100
Mn	Mn	0.92843 0.25901 0.42569 1.21500
Mn	Mn	0.01103 0.25771 0.36712 1.29400
O 	O 	0.74677 0.80804 0.33095 -0.39000
O 	O 	0.76910 0.80924 0.42303 -0.38100
O 	O 	0.71968 0.06976 0.24810 -0.38700
O 	O 	0.65822 0.04170 0.27893 -0.55800
O 	O 	0.61949 0.95397 0.46276 -0.47200
O 	O 	0.66455 0.94159 0.50122 -0.52600
O 	O 	0.96239 0.20089 0.34371 -0.45200
O 	O 	0.92410 0.20344 0.41698 -0.52400
C 	C 	0.93151 0.18663 0.37600 0.40900
C 	C 	0.90053 0.14473 0.35966 -0.18500
C 	C 	0.90351 0.12599 0.30697 0.11900
H 	H 	0.92477 0.13923 0.28083 -0.00300
C 	C 	0.87396 0.08762 0.29567 -0.22100
H 	H 	0.87557 0.07513 0.26113 0.10000
C 	C 	0.84239 0.06723 0.33318 0.17700
C 	C 	0.84009 0.08602 0.38270 -0.22300
H 	H 	0.81877 0.07243 0.40853 0.10900
C 	C 	0.86830 0.12480 0.39652 0.12200
H 	H 	0.86537 0.13713 0.43033 -0.01800
C 	C 	0.81104 0.02430 0.31982 -0.19700
H 	H 	0.79687 0.02403 0.28393 0.08700
H 	H 	0.82447 0.00963 0.31103 0.08900
C 	C 	0.79399 0.98719 0.41296 -0.18400
H 	H 	0.78117 0.98843 0.44943 0.07200
H 	H 	0.82227 0.00373 0.41903 0.08600
C 	C 	0.78515 0.94571 0.40524 0.14600
C 	C 	0.79353 0.92644 0.44797 -0.20000
H 	H 	0.80437 0.93913 0.48413 0.08400
C 	C 	0.78626 0.88810 0.43911 0.08900
H 	H 	0.79317 0.87613 0.46913 0.00900
C 	C 	0.76992 0.86815 0.38944 -0.13300
C 	C 	0.76004 0.88552 0.34383 0.07600
H 	H 	0.74847 0.87193 0.30843 0.00900
C 	C 	0.76810 0.92414 0.35300 -0.17900
H 	H 	0.76177 0.93633 0.32253 0.09400
C 	C 	0.74591 0.00332 0.36770 0.03400
C 	C 	0.71758 0.98096 0.41066 -0.02500
H 	H 	0.72297 0.96633 0.43823 0.03400
C 	C 	0.68194 0.97982 0.41343 -0.12800
C 	C 	0.67339 0.00098 0.37069 0.05000
H 	H 	0.64897 0.99983 0.37083 -0.01300
C 	C 	0.70147 0.02324 0.32888 -0.11700
C 	C 	0.73734 0.02503 0.32763 -0.03200
H 	H 	0.75617 0.04103 0.29953 0.05400
C 	C 	0.76130 0.82556 0.38184 0.30500
C 	C 	0.69293 0.04628 0.28254 0.34500
C 	C 	0.65286 0.95644 0.46278 0.40500
N 	N 	0.78279 0.00406 0.36632 -0.07000
Mn	Mn	0.59510 0.59235 0.75903 1.21500
Mn	Mn	0.67770 0.59104 0.70045 1.29500
O 	O 	0.41343 0.14138 0.66429 -0.39000
O 	O 	0.43576 0.14258 0.75637 -0.38100
O 	O 	0.38634 0.40310 0.58144 -0.38700
O 	O 	0.32488 0.37504 0.61227 -0.55800
O 	O 	0.28615 0.28731 0.79610 -0.47100
O 	O 	0.33121 0.27493 0.83456 -0.52500
O 	O 	0.62905 0.53423 0.67705 -0.45200
O 	O 	0.59076 0.53678 0.75032 -0.52400
C 	C 	0.59817 0.51997 0.70934 0.40900
C 	C 	0.56719 0.47807 0.69300 -0.18500
C 	C 	0.57017 0.45933 0.64031 0.11900
H 	H 	0.59143 0.47257 0.61417 -0.00300
C 	C 	0.54062 0.42096 0.62901 -0.22100
H 	H 	0.54223 0.40847 0.59447 0.10000
C 	C 	0.50905 0.40057 0.66652 0.17700
C 	C 	0.50675 0.41936 0.71604 -0.22200
H 	H 	0.48543 0.40577 0.74187 0.10900
C 	C 	0.53496 0.45814 0.72986 0.12200
H 	H 	0.53203 0.47047 0.76367 -0.01700
C 	C 	0.47770 0.35764 0.65316 -0.19700
H 	H 	0.46353 0.35737 0.61727 0.08700
H 	H 	0.49113 0.34297 0.64437 0.08900
C 	C 	0.46065 0.32053 0.74630 -0.18100
H 	H 	0.44783 0.32177 0.78277 0.07100
H 	H 	0.48893 0.33707 0.75237 0.08400
C 	C 	0.45181 0.27905 0.73858 0.14500
C 	C 	0.46019 0.25978 0.78131 -0.19900
H 	H 	0.47103 0.27247 0.81747 0.08400
C 	C 	0.45292 0.22144 0.77245 0.08800
H 	H 	0.45983 0.20947 0.80247 0.01000
C 	C 	0.43658 0.20149 0.72278 -0.13200
C 	C 	0.42670 0.21886 0.67717 0.07500
H 	H 	0.41513 0.20527 0.64177 0.00900
C 	C 	0.43476 0.25748 0.68634 -0.17800
H 	H 	0.42843 0.26967 0.65587 0.09400
C 	C 	0.41257 0.33666 0.70104 0.03400
C 	C 	0.38424 0.31430 0.74400 -0.02400
H 	H 	0.38963 0.29967 0.77157 0.03400
C 	C 	0.34860 0.31316 0.74677 -0.12500
C 	C 	0.34005 0.33432 0.70403 0.04600
H 	H 	0.31563 0.33317 0.70417 -0.01100
C 	C 	0.36813 0.35658 0.66222 -0.11500
C 	C 	0.40400 0.35837 0.66097 -0.03300
H 	H 	0.42283 0.37437 0.63287 0.05500
C 	C 	0.42796 0.15890 0.71518 0.30400
C 	C 	0.35959 0.37962 0.61588 0.34400
C 	C 	0.31952 0.28978 0.79612 0.40500
N 	N 	0.44945 0.33740 0.69966 -0.07100
Mn	Mn	0.07432 0.33608 0.09236 1.21500
Mn	Mn	0.07563 0.41999 0.03378 1.29400
O 	O 	0.52529 0.60539 0.99762 -0.38700
O 	O 	0.52409 0.62652 0.08970 -0.38000
O 	O 	0.26357 0.31658 0.91477 -0.38700
O 	O 	0.29163 0.28318 0.94560 -0.55700
O 	O 	0.37936 0.33218 0.12943 -0.47200
O 	O 	0.39174 0.38962 0.16789 -0.52500
O 	O 	0.13244 0.42816 0.01038 -0.45400
O 	O 	0.12989 0.38732 0.08365 -0.52500
C 	C 	0.14670 0.41154 0.04267 0.41100
C 	C 	0.18860 0.42246 0.02633 -0.19200
C 	C 	0.20734 0.44418 0.97364 0.12800
H 	H 	0.19410 0.45220 0.94750 -0.00500
C 	C 	0.24571 0.45300 0.96234 -0.22800
H 	H 	0.25820 0.46710 0.92780 0.10300
C 	C 	0.26610 0.44182 0.99985 0.18500
C 	C 	0.24731 0.42073 0.04937 -0.23200
H 	H 	0.26090 0.41300 0.07520 0.11200
C 	C 	0.20853 0.41016 0.06319 0.12900
H 	H 	0.19620 0.39490 0.09700 -0.02000
C 	C 	0.30903 0.45340 0.98649 -0.19900
H 	H 	0.30930 0.43950 0.95060 0.08800
H 	H 	0.32370 0.48150 0.97770 0.09000
C 	C 	0.34614 0.47346 0.07963 -0.18100
H 	H 	0.34490 0.45940 0.11610 0.07100
H 	H 	0.32960 0.48520 0.08570 0.08400
C 	C 	0.38762 0.50610 0.07191 0.14500
C 	C 	0.40689 0.53375 0.11464 -0.19800
H 	H 	0.39420 0.53190 0.15080 0.08400
C 	C 	0.44523 0.56482 0.10578 0.08700
H 	H 	0.45720 0.58370 0.13580 0.01000
C 	C 	0.46518 0.56843 0.05611 -0.13000
C 	C 	0.44781 0.54118 0.01050 0.07100
H 	H 	0.46140 0.54320 0.97510 0.01200
C 	C 	0.40919 0.51062 0.01967 -0.18000
H 	H 	0.39700 0.49210 0.98920 0.09600
C 	C 	0.33001 0.40925 0.03437 0.03100
C 	C 	0.35237 0.40328 0.07733 -0.02400
H 	H 	0.36700 0.42330 0.10490 0.03400
C 	C 	0.35351 0.36878 0.08010 -0.12500
C 	C 	0.33235 0.33907 0.03736 0.04300
H 	H 	0.33350 0.31580 0.03750 -0.01100
C 	C 	0.31009 0.34489 0.99555 -0.11300
C 	C 	0.30830 0.37897 0.99430 -0.03000
H 	H 	0.29230 0.38180 0.96620 0.05400
C 	C 	0.50777 0.60240 0.04851 0.30100
C 	C 	0.28705 0.31331 0.94921 0.34400
C 	C 	0.37689 0.36308 0.12945 0.40400
N 	N 	0.32927 0.44539 0.03299 -0.07100
Mn	Mn	0.74099 0.66941 0.42569 1.21500
Mn	Mn	0.74229 0.75333 0.36712 1.29500
O 	O 	0.19196 0.93872 0.33095 -0.39000
O 	O 	0.19076 0.95985 0.42303 -0.38100
O 	O 	0.93024 0.64991 0.24810 -0.38700
O 	O 	0.95830 0.61651 0.27893 -0.55800
O 	O 	0.04603 0.66551 0.46276 -0.47200
O 	O 	0.05841 0.72295 0.50122 -0.52600
O 	O 	0.79911 0.76149 0.34371 -0.45200
O 	O 	0.79656 0.72065 0.41698 -0.52400
C 	C 	0.81337 0.74487 0.37600 0.40900
C 	C 	0.85527 0.75579 0.35966 -0.18500
C 	C 	0.87401 0.77751 0.30697 0.11900
H 	H 	0.86077 0.78553 0.28083 -0.00300
C 	C 	0.91238 0.78633 0.29567 -0.22100
H 	H 	0.92487 0.80043 0.26113 0.10000
C 	C 	0.93277 0.77515 0.33318 0.17700
C 	C 	0.91398 0.75406 0.38270 -0.22300
H 	H 	0.92757 0.74633 0.40853 0.10900
C 	C 	0.87520 0.74349 0.39652 0.12200
H 	H 	0.86287 0.72823 0.43033 -0.01800
C 	C 	0.97570 0.78673 0.31982 -0.19700
H 	H 	0.97597 0.77283 0.28393 0.08700
H 	H 	0.99037 0.81483 0.31103 0.08900
C 	C 	0.01281 0.80679 0.41296 -0.18400
H 	H 	0.01157 0.79273 0.44943 0.07100
H 	H 	0.99627 0.81853 0.41903 0.08500
C 	C 	0.05429 0.83943 0.40524 0.14600
C 	C 	0.07356 0.86708 0.44797 -0.20000
H 	H 	0.06087 0.86523 0.48413 0.08400
C 	C 	0.11190 0.89815 0.43911 0.08900
H 	H 	0.12387 0.91703 0.46913 0.00900
C 	C 	0.13185 0.90176 0.38944 -0.13300
C 	C 	0.11448 0.87451 0.34383 0.07600
H 	H 	0.12807 0.87653 0.30843 0.00900
C 	C 	0.07586 0.84395 0.35300 -0.17900
H 	H 	0.06367 0.82543 0.32253 0.09400
C 	C 	0.99668 0.74258 0.36770 0.03400
C 	C 	0.01904 0.73661 0.41066 -0.02400
H 	H 	0.03367 0.75663 0.43823 0.03400
C 	C 	0.02018 0.70211 0.41343 -0.12700
C 	C 	0.99902 0.67240 0.37069 0.05000
H 	H 	0.00017 0.64913 0.37083 -0.01300
C 	C 	0.97676 0.67822 0.32888 -0.11700
C 	C 	0.97497 0.71230 0.32763 -0.03200
H 	H 	0.95897 0.71513 0.29953 0.05400
C 	C 	0.17444 0.93573 0.38184 0.30500
C 	C 	0.95372 0.64664 0.28254 0.34500
C 	C 	0.04356 0.69641 0.46278 0.40500
N 	N 	0.99594 0.77872 0.36632 -0.07000
Mn	Mn	0.40765 0.00275 0.75903 1.21500
Mn	Mn	0.40896 0.08666 0.70045 1.29500
O 	O 	0.85862 0.27206 0.66429 -0.39000
O 	O 	0.85742 0.29319 0.75637 -0.38100
O 	O 	0.59690 0.98325 0.58144 -0.38700
O 	O 	0.62496 0.94985 0.61227 -0.55800
O 	O 	0.71269 0.99885 0.79610 -0.47200
O 	O 	0.72507 0.05629 0.83456 -0.52600
O 	O 	0.46577 0.09483 0.67705 -0.45200
O 	O 	0.46322 0.05399 0.75032 -0.52400
C 	C 	0.48003 0.07821 0.70934 0.40900
C 	C 	0.52193 0.08913 0.69300 -0.18500
C 	C 	0.54067 0.11085 0.64031 0.11900
H 	H 	0.52743 0.11887 0.61417 -0.00200
C 	C 	0.57904 0.11967 0.62901 -0.22100
H 	H 	0.59153 0.13377 0.59447 0.10000
C 	C 	0.59943 0.10849 0.66652 0.17700
C 	C 	0.58064 0.08740 0.71604 -0.22200
H 	H 	0.59423 0.07967 0.74187 0.10900
C 	C 	0.54186 0.07683 0.72986 0.12200
H 	H 	0.52953 0.06157 0.76367 -0.01700
C 	C 	0.64236 0.12007 0.65316 -0.19700
H 	H 	0.64263 0.10617 0.61727 0.08700
H 	H 	0.65703 0.14817 0.64437 0.08900
C 	C 	0.67947 0.14013 0.74630 -0.18100
H 	H 	0.67823 0.12607 0.78277 0.07100
H 	H 	0.66293 0.15187 0.75237 0.08400
C 	C 	0.72095 0.17277 0.73858 0.14500
C 	C 	0.74022 0.20042 0.78131 -0.19900
H 	H 	0.72753 0.19857 0.81747 0.08400
C 	C 	0.77856 0.23149 0.77245 0.08800
H 	H 	0.79053 0.25037 0.80247 0.01000
C 	C 	0.79851 0.23510 0.72278 -0.13200
C 	C 	0.78114 0.20785 0.67717 0.07500
H 	H 	0.79473 0.20987 0.64177 0.00900
C 	C 	0.74252 0.17729 0.68634 -0.17800
H 	H 	0.73033 0.15877 0.65587 0.09400
C 	C 	0.66334 0.07592 0.70104 0.03400
C 	C 	0.68570 0.06995 0.74400 -0.02400
H 	H 	0.70033 0.08997 0.77157 0.03400
C 	C 	0.68684 0.03545 0.74677 -0.12600
C 	C 	0.66568 0.00574 0.70403 0.04800
H 	H 	0.66683 0.98247 0.70417 -0.01200
C 	C 	0.64342 0.01156 0.66222 -0.11500
C 	C 	0.64163 0.04564 0.66097 -0.03300
H 	H 	0.62563 0.04847 0.63287 0.05500
C 	C 	0.84110 0.26907 0.71518 0.30400
C 	C 	0.62038 0.97998 0.61588 0.34400
C 	C 	0.71022 0.02975 0.79612 0.40600
N 	N 	0.66260 0.11206 0.69966 -0.07100
Mn	Mn	0.26176 0.33608 0.59236 1.21500
Mn	Mn	0.34437 0.41999 0.53378 1.29500
O 	O 	0.08010 0.60539 0.49762 -0.39000
O 	O 	0.10243 0.62652 0.58970 -0.38100
O 	O 	0.05301 0.31658 0.41477 -0.38700
O 	O 	0.99155 0.28318 0.44560 -0.55700
O 	O 	0.95282 0.33218 0.62943 -0.47100
O 	O 	0.99788 0.38962 0.66789 -0.52500
O 	O 	0.29572 0.42816 0.51038 -0.45200
O 	O 	0.25743 0.38732 0.58365 -0.52400
C 	C 	0.26484 0.41154 0.54267 0.40900
C 	C 	0.23386 0.42246 0.52633 -0.18500
C 	C 	0.23684 0.44418 0.47364 0.11900
H 	H 	0.25810 0.45220 0.44750 -0.00300
C 	C 	0.20729 0.45300 0.46234 -0.22100
H 	H 	0.20890 0.46710 0.42780 0.10000
C 	C 	0.17572 0.44182 0.49985 0.17700
C 	C 	0.17342 0.42073 0.54937 -0.22200
H 	H 	0.15210 0.41300 0.57520 0.10900
C 	C 	0.20163 0.41016 0.56319 0.12200
H 	H 	0.19870 0.39490 0.59700 -0.01800
C 	C 	0.14437 0.45340 0.48649 -0.19700
H 	H 	0.13020 0.43950 0.45060 0.08700
H 	H 	0.15780 0.48150 0.47770 0.08900
C 	C 	0.12732 0.47346 0.57963 -0.18100
H 	H 	0.11450 0.45940 0.61610 0.07100
H 	H 	0.15560 0.48520 0.58570 0.08400
C 	C 	0.11848 0.50610 0.57191 0.14500
C 	C 	0.12686 0.53375 0.61464 -0.19900
H 	H 	0.13770 0.53190 0.65080 0.08400
C 	C 	0.11959 0.56482 0.60578 0.08800
H 	H 	0.12650 0.58370 0.63580 0.01000
C 	C 	0.10325 0.56843 0.55611 -0.13200
C 	C 	0.09337 0.54118 0.51050 0.07500
H 	H 	0.08180 0.54320 0.47510 0.00900
C 	C 	0.10143 0.51062 0.51967 -0.17800
H 	H 	0.09510 0.49210 0.48920 0.09400
C 	C 	0.07924 0.40925 0.53437 0.03400
C 	C 	0.05091 0.40328 0.57733 -0.02500
H 	H 	0.05630 0.42330 0.60490 0.03400
C 	C 	0.01527 0.36878 0.58010 -0.12600
C 	C 	0.00672 0.33907 0.53736 0.04400
H 	H 	0.98230 0.31580 0.53750 -0.01000
C 	C 	0.03480 0.34489 0.49555 -0.11400
C 	C 	0.07067 0.37897 0.49430 -0.03400
H 	H 	0.08950 0.38180 0.46620 0.05500
C 	C 	0.09463 0.60240 0.54851 0.30400
C 	C 	0.02626 0.31331 0.44921 0.34300
C 	C 	0.98619 0.36308 0.62945 0.40500
N 	N 	0.11612 0.44539 0.53299 -0.07100
Mn	Mn	0.92843 0.66941 0.92569 1.21500
Mn	Mn	0.01103 0.75333 0.86712 1.29500
O 	O 	0.74677 0.93872 0.83095 -0.39000
O 	O 	0.76910 0.95985 0.92303 -0.38100
O 	O 	0.71968 0.64991 0.74810 -0.38700
O 	O 	0.65822 0.61651 0.77893 -0.55800
O 	O 	0.61949 0.66551 0.96276 -0.47100
O 	O 	0.66455 0.72295 0.00122 -0.52800
O 	O 	0.96239 0.76149 0.84371 -0.45200
O 	O 	0.92410 0.72065 0.91698 -0.52400
C 	C 	0.93151 0.74487 0.87600 0.40900
C 	C 	0.90053 0.75579 0.85966 -0.18500
C 	C 	0.90351 0.77751 0.80697 0.11900
H 	H 	0.92477 0.78553 0.78083 -0.00200
C 	C 	0.87396 0.78633 0.79567 -0.22100
H 	H 	0.87557 0.80043 0.76113 0.10000
C 	C 	0.84239 0.77515 0.83318 0.17700
C 	C 	0.84009 0.75406 0.88270 -0.22200
H 	H 	0.81877 0.74633 0.90853 0.10900
C 	C 	0.86830 0.74349 0.89652 0.12200
H 	H 	0.86537 0.72823 0.93033 -0.01700
C 	C 	0.81104 0.78673 0.81982 -0.19700
H 	H 	0.79687 0.77283 0.78393 0.08700
H 	H 	0.82447 0.81483 0.81103 0.08900
C 	C 	0.79399 0.80679 0.91296 -0.18100
H 	H 	0.78117 0.79273 0.94943 0.07100
H 	H 	0.82227 0.81853 0.91903 0.08400
C 	C 	0.78515 0.83943 0.90524 0.14500
C 	C 	0.79353 0.86708 0.94797 -0.19900
H 	H 	0.80437 0.86523 0.98413 0.08400
C 	C 	0.78626 0.89815 0.93911 0.08900
H 	H 	0.79317 0.91703 0.96913 0.01000
C 	C 	0.76992 0.90176 0.88944 -0.13200
C 	C 	0.76004 0.87451 0.84383 0.07600
H 	H 	0.74847 0.87653 0.80843 0.00900
C 	C 	0.76810 0.84395 0.85300 -0.17800
H 	H 	0.76177 0.82543 0.82253 0.09400
C 	C 	0.74591 0.74258 0.86770 0.03400
C 	C 	0.71758 0.73661 0.91066 -0.02400
H 	H 	0.72297 0.75663 0.93823 0.03400
C 	C 	0.68194 0.70211 0.91343 -0.12600
C 	C 	0.67339 0.67240 0.87069 0.04700
H 	H 	0.64897 0.64913 0.87083 -0.01100
C 	C 	0.70147 0.67822 0.82888 -0.11600
C 	C 	0.73734 0.71230 0.82763 -0.03300
H 	H 	0.75617 0.71513 0.79953 0.05400
C 	C 	0.76130 0.93573 0.88184 0.30500
C 	C 	0.69293 0.64664 0.78254 0.34400
C 	C 	0.65286 0.69641 0.96278 0.40700
N 	N 	0.78279 0.77872 0.86632 -0.07100
Mn	Mn	0.59510 0.00275 0.25903 1.21500
Mn	Mn	0.67770 0.08666 0.20045 1.29500
O 	O 	0.41343 0.27206 0.16429 -0.39000
O 	O 	0.43576 0.29319 0.25637 -0.38100
O 	O 	0.38634 0.98325 0.08144 -0.38800
O 	O 	0.32488 0.94985 0.11227 -0.55800
O 	O 	0.28615 0.99885 0.29610 -0.47200
O 	O 	0.33121 0.05629 0.33456 -0.52600
O 	O 	0.62905 0.09483 0.17705 -0.45200
O 	O 	0.59076 0.05399 0.25032 -0.52400
C 	C 	0.59817 0.07821 0.20934 0.40900
C 	C 	0.56719 0.08913 0.19300 -0.18500
C 	C 	0.57017 0.11085 0.14031 0.11900
H 	H 	0.59143 0.11887 0.11417 -0.00300
C 	C 	0.54062 0.11967 0.12901 -0.22100
H 	H 	0.54223 0.13377 0.09447 0.10000
C 	C 	0.50905 0.10849 0.16652 0.17700
C 	C 	0.50675 0.08740 0.21604 -0.22200
H 	H 	0.48543 0.07967 0.24187 0.10900
C 	C 	0.53496 0.07683 0.22986 0.12200
H 	H 	0.53203 0.06157 0.26367 -0.01700
C 	C 	0.47770 0.12007 0.15316 -0.19600
H 	H 	0.46353 0.10617 0.11727 0.08700
H 	H 	0.49113 0.14817 0.14437 0.08900
C 	C 	0.46065 0.14013 0.24630 -0.18100
H 	H 	0.44783 0.12607 0.28277 0.07100
H 	H 	0.48893 0.15187 0.25237 0.08400
C 	C 	0.45181 0.17277 0.23858 0.14500
C 	C 	0.46019 0.20042 0.28131 -0.19900
H 	H 	0.47103 0.19857 0.31747 0.08400
C 	C 	0.45292 0.23149 0.27245 0.08800
H 	H 	0.45983 0.25037 0.30247 0.01000
C 	C 	0.43658 0.23510 0.22278 -0.13200
C 	C 	0.42670 0.20785 0.17717 0.07500
H 	H 	0.41513 0.20987 0.14177 0.00900
C 	C 	0.43476 0.17729 0.18634 -0.17800
H 	H 	0.42843 0.15877 0.15587 0.09400
C 	C 	0.41257 0.07592 0.20104 0.03400
C 	C 	0.38424 0.06995 0.24400 -0.02400
H 	H 	0.38963 0.08997 0.27157 0.03400
C 	C 	0.34860 0.03545 0.24677 -0.12700
C 	C 	0.34005 0.00574 0.20403 0.04800
H 	H 	0.31563 0.98247 0.20417 -0.01200
C 	C 	0.36813 0.01156 0.16222 -0.11600
C 	C 	0.40400 0.04564 0.16097 -0.03300
H 	H 	0.42283 0.04847 0.13287 0.05400
C 	C 	0.42796 0.26907 0.21518 0.30400
C 	C 	0.35959 0.97998 0.11588 0.34400
C 	C 	0.31952 0.02975 0.29612 0.40600
N 	N 	0.44945 0.11206 0.19966 -0.07100
Mn	Mn	0.07432 0.73824 0.59236 1.21500
Mn	Mn	0.07563 0.65563 0.53378 1.29500
O 	O 	0.52529 0.91990 0.49762 -0.39000
O 	O 	0.52409 0.89757 0.58970 -0.38100
O 	O 	0.26357 0.94699 0.41477 -0.38700
O 	O 	0.29163 0.00845 0.44560 -0.55700
O 	O 	0.37936 0.04718 0.62943 -0.47100
O 	O 	0.39174 0.00212 0.66789 -0.52500
O 	O 	0.13244 0.70428 0.51038 -0.45200
O 	O 	0.12989 0.74257 0.58365 -0.52400
C 	C 	0.14670 0.73516 0.54267 0.40900
C 	C 	0.18860 0.76614 0.52633 -0.18500
C 	C 	0.20734 0.76316 0.47364 0.11900
H 	H 	0.19410 0.74190 0.44750 -0.00300
C 	C 	0.24571 0.79271 0.46234 -0.22100
H 	H 	0.25820 0.79110 0.42780 0.10000
C 	C 	0.26610 0.82428 0.49985 0.17700
C 	C 	0.24731 0.82658 0.54937 -0.22200
H 	H 	0.26090 0.84790 0.57520 0.10900
C 	C 	0.20853 0.79837 0.56319 0.12200
H 	H 	0.19620 0.80130 0.59700 -0.01800
C 	C 	0.30903 0.85563 0.48649 -0.19700
H 	H 	0.30930 0.86980 0.45060 0.08700
H 	H 	0.32370 0.84220 0.47770 0.08900
C 	C 	0.34614 0.87268 0.57963 -0.18100
H 	H 	0.34490 0.88550 0.61610 0.07100
H 	H 	0.32960 0.84440 0.58570 0.08400
C 	C 	0.38762 0.88152 0.57191 0.14500
C 	C 	0.40689 0.87314 0.61464 -0.19900
H 	H 	0.39420 0.86230 0.65080 0.08400
C 	C 	0.44523 0.88041 0.60578 0.08800
H 	H 	0.45720 0.87350 0.63580 0.01000
C 	C 	0.46518 0.89675 0.55611 -0.13200
C 	C 	0.44781 0.90663 0.51050 0.07500
H 	H 	0.46140 0.91820 0.47510 0.00900
C 	C 	0.40919 0.89857 0.51967 -0.17800
H 	H 	0.39700 0.90490 0.48920 0.09400
C 	C 	0.33001 0.92076 0.53437 0.03400
C 	C 	0.35237 0.94909 0.57733 -0.02500
H 	H 	0.36700 0.94370 0.60490 0.03400
C 	C 	0.35351 0.98473 0.58010 -0.12600
C 	C 	0.33235 0.99328 0.53736 0.04400
H 	H 	0.33350 0.01770 0.53750 -0.01000
C 	C 	0.31009 0.96520 0.49555 -0.11500
C 	C 	0.30830 0.92933 0.49430 -0.03400
H 	H 	0.29230 0.91050 0.46620 0.05500
C 	C 	0.50777 0.90537 0.54851 0.30400
C 	C 	0.28705 0.97374 0.44921 0.34300
C 	C 	0.37689 0.01381 0.62945 0.40500
N 	N 	0.32927 0.88388 0.53299 -0.07100
Mn	Mn	0.74099 0.07157 0.92569 1.21500
Mn	Mn	0.74229 0.98897 0.86712 1.29400
O 	O 	0.19196 0.25323 0.83095 -0.39000
O 	O 	0.19076 0.23090 0.92303 -0.38100
O 	O 	0.93024 0.28032 0.74810 -0.38700
O 	O 	0.95830 0.34178 0.77893 -0.55800
O 	O 	0.04603 0.38051 0.96276 -0.47100
O 	O 	0.05841 0.33545 0.00122 -0.52800
O 	O 	0.79911 0.03761 0.84371 -0.45200
O 	O 	0.79656 0.07590 0.91698 -0.52400
C 	C 	0.81337 0.06849 0.87600 0.40900
C 	C 	0.85527 0.09947 0.85966 -0.18500
C 	C 	0.87401 0.09649 0.80697 0.12000
H 	H 	0.86077 0.07523 0.78083 -0.00200
C 	C 	0.91238 0.12604 0.79567 -0.22100
H 	H 	0.92487 0.12443 0.76113 0.10000
C 	C 	0.93277 0.15761 0.83318 0.17700
C 	C 	0.91398 0.15991 0.88270 -0.22300
H 	H 	0.92757 0.18123 0.90853 0.11000
C 	C 	0.87520 0.13170 0.89652 0.12300
H 	H 	0.86287 0.13463 0.93033 -0.01700
C 	C 	0.97570 0.18896 0.81982 -0.19700
H 	H 	0.97597 0.20313 0.78393 0.08700
H 	H 	0.99037 0.17553 0.81103 0.08900
C 	C 	0.01281 0.20601 0.91296 -0.18400
H 	H 	0.01157 0.21883 0.94943 0.07200
H 	H 	0.99627 0.17773 0.91903 0.08600
C 	C 	0.05429 0.21485 0.90524 0.14600
C 	C 	0.07356 0.20647 0.94797 -0.20000
H 	H 	0.06087 0.19563 0.98413 0.08500
C 	C 	0.11190 0.21374 0.93911 0.08900
H 	H 	0.12387 0.20683 0.96913 0.01000
C 	C 	0.13185 0.23008 0.88944 -0.13300
C 	C 	0.11448 0.23996 0.84383 0.07600
H 	H 	0.12807 0.25153 0.80843 0.00900
C 	C 	0.07586 0.23190 0.85300 -0.17900
H 	H 	0.06367 0.23823 0.82253 0.09400
C 	C 	0.99668 0.25409 0.86770 0.03400
C 	C 	0.01904 0.28242 0.91066 -0.02400
H 	H 	0.03367 0.27703 0.93823 0.03400
C 	C 	0.02018 0.31806 0.91343 -0.12800
C 	C 	0.99902 0.32661 0.87069 0.05000
H 	H 	0.00017 0.35103 0.87083 -0.01300
C 	C 	0.97676 0.29853 0.82888 -0.11700
C 	C 	0.97497 0.26266 0.82763 -0.03200
H 	H 	0.95897 0.24383 0.79953 0.05400
C 	C 	0.17444 0.23870 0.88184 0.30500
C 	C 	0.95372 0.30707 0.78254 0.34500
C 	C 	0.04356 0.34714 0.96278 0.40800
N 	N 	0.99594 0.21721 0.86632 -0.07000
Mn	Mn	0.40765 0.40490 0.25903 1.21500
Mn	Mn	0.40896 0.32230 0.20045 1.29500
O 	O 	0.85862 0.58657 0.16429 -0.39000
O 	O 	0.85742 0.56424 0.25637 -0.38100
O 	O 	0.59690 0.61366 0.08144 -0.38800
O 	O 	0.62496 0.67512 0.11227 -0.55800
O 	O 	0.71269 0.71385 0.29610 -0.47100
O 	O 	0.72507 0.66879 0.33456 -0.52500
O 	O 	0.46577 0.37095 0.17705 -0.45300
O 	O 	0.46322 0.40924 0.25032 -0.52400
C 	C 	0.48003 0.40183 0.20934 0.40900
C 	C 	0.52193 0.43281 0.19300 -0.18500
C 	C 	0.54067 0.42983 0.14031 0.11900
H 	H 	0.52743 0.40857 0.11417 -0.00300
C 	C 	0.57904 0.45938 0.12901 -0.22100
H 	H 	0.59153 0.45777 0.09447 0.10000
C 	C 	0.59943 0.49095 0.16652 0.17700
C 	C 	0.58064 0.49325 0.21604 -0.22200
H 	H 	0.59423 0.51457 0.24187 0.10900
C 	C 	0.54186 0.46504 0.22986 0.12200
H 	H 	0.52953 0.46797 0.26367 -0.01800
C 	C 	0.64236 0.52230 0.15316 -0.19600
H 	H 	0.64263 0.53647 0.11727 0.08700
H 	H 	0.65703 0.50887 0.14437 0.08800
C 	C 	0.67947 0.53935 0.24630 -0.18100
H 	H 	0.67823 0.55217 0.28277 0.07100
H 	H 	0.66293 0.51107 0.25237 0.08400
C 	C 	0.72095 0.54819 0.23858 0.14500
C 	C 	0.74022 0.53981 0.28131 -0.19900
H 	H 	0.72753 0.52897 0.31747 0.08400
C 	C 	0.77856 0.54708 0.27245 0.08800
H 	H 	0.79053 0.54017 0.30247 0.01000
C 	C 	0.79851 0.56342 0.22278 -0.13200
C 	C 	0.78114 0.57330 0.17717 0.07500
H 	H 	0.79473 0.58487 0.14177 0.00900
C 	C 	0.74252 0.56524 0.18634 -0.17800
H 	H 	0.73033 0.57157 0.15587 0.09400
C 	C 	0.66334 0.58743 0.20104 0.03400
C 	C 	0.68570 0.61576 0.24400 -0.02400
H 	H 	0.70033 0.61037 0.27157 0.03400
C 	C 	0.68684 0.65140 0.24677 -0.12600
C 	C 	0.66568 0.65995 0.20403 0.04600
H 	H 	0.66683 0.68437 0.20417 -0.01100
C 	C 	0.64342 0.63187 0.16222 -0.11600
C 	C 	0.64163 0.59600 0.16097 -0.03300
H 	H 	0.62563 0.57717 0.13287 0.05400
C 	C 	0.84110 0.57204 0.21518 0.30400
C 	C 	0.62038 0.64041 0.11588 0.34400
C 	C 	0.71022 0.68048 0.29612 0.40500
N 	N 	0.66260 0.55055 0.19966 -0.07100
Mn	Mn	0.66392 0.92568 0.59236 1.21500
Mn	Mn	0.58001 0.92437 0.53378 1.29500
O 	O 	0.39461 0.47471 0.49762 -0.39000
O 	O 	0.37348 0.47591 0.58970 -0.38100
O 	O 	0.68342 0.73643 0.41477 -0.38700
O 	O 	0.71682 0.70837 0.44560 -0.55800
O 	O 	0.66782 0.62064 0.62943 -0.47100
O 	O 	0.61038 0.60826 0.66789 -0.52500
O 	O 	0.57184 0.86756 0.51038 -0.45200
O 	O 	0.61268 0.87011 0.58365 -0.52400
C 	C 	0.58846 0.85330 0.54267 0.40900
C 	C 	0.57754 0.81140 0.52633 -0.18500
C 	C 	0.55582 0.79266 0.47364 0.11900
H 	H 	0.54780 0.80590 0.44750 -0.00300
C 	C 	0.54700 0.75429 0.46234 -0.22100
H 	H 	0.53290 0.74180 0.42780 0.10000
C 	C 	0.55818 0.73390 0.49985 0.17700
C 	C 	0.57927 0.75269 0.54937 -0.22200
H 	H 	0.58700 0.73910 0.57520 0.10900
C 	C 	0.58984 0.79147 0.56319 0.12200
H 	H 	0.60510 0.80380 0.59700 -0.01800
C 	C 	0.54660 0.69097 0.48649 -0.19700
H 	H 	0.56050 0.69070 0.45060 0.08700
H 	H 	0.51850 0.67630 0.47770 0.08900
C 	C 	0.52654 0.65386 0.57963 -0.18100
H 	H 	0.54060 0.65510 0.61610 0.07100
H 	H 	0.51480 0.67040 0.58570 0.08400
C 	C 	0.49390 0.61238 0.57191 0.14500
C 	C 	0.46625 0.59311 0.61464 -0.19900
H 	H 	0.46810 0.60580 0.65080 0.08400
C 	C 	0.43518 0.55477 0.60578 0.08800
H 	H 	0.41630 0.54280 0.63580 0.01000
C 	C 	0.43157 0.53482 0.55611 -0.13200
C 	C 	0.45882 0.55219 0.51050 0.07500
H 	H 	0.45680 0.53860 0.47510 0.00900
C 	C 	0.48938 0.59081 0.51967 -0.17800
H 	H 	0.50790 0.60300 0.48920 0.09400
C 	C 	0.59075 0.66999 0.53437 0.03400
C 	C 	0.59672 0.64763 0.57733 -0.02400
H 	H 	0.57670 0.63300 0.60490 0.03400
C 	C 	0.63122 0.64649 0.58010 -0.12500
C 	C 	0.66093 0.66765 0.53736 0.04600
H 	H 	0.68420 0.66650 0.53750 -0.01100
C 	C 	0.65511 0.68991 0.49555 -0.11600
C 	C 	0.62103 0.69170 0.49430 -0.03300
H 	H 	0.61820 0.70770 0.46620 0.05500
C 	C 	0.39760 0.49223 0.54851 0.30400
C 	C 	0.68669 0.71295 0.44921 0.34400
C 	C 	0.63692 0.62311 0.62945 0.40400
N 	N 	0.55461 0.67073 0.53299 -0.07100
Mn	Mn	0.33059 0.25901 0.92569 1.21500
Mn	Mn	0.24667 0.25771 0.86712 1.29500
O 	O 	0.06128 0.80804 0.83095 -0.39000
O 	O 	0.04015 0.80924 0.92303 -0.38100
O 	O 	0.35009 0.06976 0.74810 -0.38700
O 	O 	0.38349 0.04170 0.77893 -0.55800
O 	O 	0.33449 0.95397 0.96276 -0.47100
O 	O 	0.27705 0.94159 0.00122 -0.52800
O 	O 	0.23851 0.20089 0.84371 -0.45200
O 	O 	0.27935 0.20344 0.91698 -0.52400
C 	C 	0.25513 0.18663 0.87600 0.40900
C 	C 	0.24421 0.14473 0.85966 -0.18500
C 	C 	0.22249 0.12599 0.80697 0.12000
H 	H 	0.21447 0.13923 0.78083 -0.00300
C 	C 	0.21367 0.08762 0.79567 -0.22100
H 	H 	0.19957 0.07513 0.76113 0.10000
C 	C 	0.22485 0.06723 0.83318 0.17700
C 	C 	0.24594 0.08602 0.88270 -0.22300
H 	H 	0.25367 0.07243 0.90853 0.11000
C 	C 	0.25651 0.12480 0.89652 0.12300
H 	H 	0.27177 0.13713 0.93033 -0.01700
C 	C 	0.21327 0.02430 0.81982 -0.19700
H 	H 	0.22717 0.02403 0.78393 0.08700
H 	H 	0.18517 0.00963 0.81103 0.08900
C 	C 	0.19321 0.98719 0.91296 -0.18400
H 	H 	0.20727 0.98843 0.94943 0.07200
H 	H 	0.18147 0.00373 0.91903 0.08600
C 	C 	0.16057 0.94571 0.90524 0.14600
C 	C 	0.13292 0.92644 0.94797 -0.20000
H 	H 	0.13477 0.93913 0.98413 0.08500
C 	C 	0.10185 0.88810 0.93911 0.08900
H 	H 	0.08297 0.87613 0.96913 0.00900
C 	C 	0.09824 0.86815 0.88944 -0.13300
C 	C 	0.12549 0.88552 0.84383 0.07600
H 	H 	0.12347 0.87193 0.80843 0.00900
C 	C 	0.15605 0.92414 0.85300 -0.17900
H 	H 	0.17457 0.93633 0.82253 0.09400
C 	C 	0.25742 0.00332 0.86770 0.03400
C 	C 	0.26339 0.98096 0.91066 -0.02400
H 	H 	0.24337 0.96633 0.93823 0.03400
C 	C 	0.29789 0.97982 0.91343 -0.12800
C 	C 	0.32760 0.00098 0.87069 0.05000
H 	H 	0.35087 0.99983 0.87083 -0.01300
C 	C 	0.32178 0.02324 0.82888 -0.11700
C 	C 	0.28770 0.02503 0.82763 -0.03200
H 	H 	0.28487 0.04103 0.79953 0.05400
C 	C 	0.06427 0.82556 0.88184 0.30500
C 	C 	0.35336 0.04628 0.78254 0.34500
C 	C 	0.30359 0.95644 0.96278 0.40800
N 	N 	0.22128 0.00406 0.86632 -0.07000
Mn	Mn	0.99725 0.59235 0.25903 1.21500
Mn	Mn	0.91334 0.59104 0.20045 1.29500
O 	O 	0.72794 0.14138 0.16429 -0.39000
O 	O 	0.70681 0.14258 0.25637 -0.38100
O 	O 	0.01675 0.40310 0.08144 -0.38800
O 	O 	0.05015 0.37504 0.11227 -0.55800
O 	O 	0.00115 0.28731 0.29610 -0.47300
O 	O 	0.94371 0.27493 0.33456 -0.52600
O 	O 	0.90517 0.53423 0.17705 -0.45300
O 	O 	0.94601 0.53678 0.25032 -0.52400
C 	C 	0.92179 0.51997 0.20934 0.40900
C 	C 	0.91087 0.47807 0.19300 -0.18500
C 	C 	0.88915 0.45933 0.14031 0.11900
H 	H 	0.88113 0.47257 0.11417 -0.00300
C 	C 	0.88033 0.42096 0.12901 -0.22100
H 	H 	0.86623 0.40847 0.09447 0.10000
C 	C 	0.89151 0.40057 0.16652 0.17700
C 	C 	0.91260 0.41936 0.21604 -0.22200
H 	H 	0.92033 0.40577 0.24187 0.10900
C 	C 	0.92317 0.45814 0.22986 0.12200
H 	H 	0.93843 0.47047 0.26367 -0.01700
C 	C 	0.87993 0.35764 0.15316 -0.19600
H 	H 	0.89383 0.35737 0.11727 0.08700
H 	H 	0.85183 0.34297 0.14437 0.08900
C 	C 	0.85987 0.32053 0.24630 -0.18100
H 	H 	0.87393 0.32177 0.28277 0.07100
H 	H 	0.84813 0.33707 0.25237 0.08400
C 	C 	0.82723 0.27905 0.23858 0.14500
C 	C 	0.79958 0.25978 0.28131 -0.19900
H 	H 	0.80143 0.27247 0.31747 0.08400
C 	C 	0.76851 0.22144 0.27245 0.08800
H 	H 	0.74963 0.20947 0.30247 0.01000
C 	C 	0.76490 0.20149 0.22278 -0.13200
C 	C 	0.79215 0.21886 0.17717 0.07500
H 	H 	0.79013 0.20527 0.14177 0.00900
C 	C 	0.82271 0.25748 0.18634 -0.17800
H 	H 	0.84123 0.26967 0.15587 0.09400
C 	C 	0.92408 0.33666 0.20104 0.03400
C 	C 	0.93005 0.31430 0.24400 -0.02400
H 	H 	0.91003 0.29967 0.27157 0.03400
C 	C 	0.96455 0.31316 0.24677 -0.12700
C 	C 	0.99426 0.33432 0.20403 0.04800
H 	H 	0.01753 0.33317 0.20417 -0.01200
C 	C 	0.98844 0.35658 0.16222 -0.11600
C 	C 	0.95436 0.35837 0.16097 -0.03300
H 	H 	0.95153 0.37437 0.13287 0.05400
C 	C 	0.73093 0.15890 0.21518 0.30400
C 	C 	0.02002 0.37962 0.11588 0.34400
C 	C 	0.97025 0.28978 0.29612 0.40600
N 	N 	0.88794 0.33740 0.19966 -0.07100
