# Generated by pormake.
# Topology gar, (4,6)-cn, num edge types: 1
# Building blocks:
#     Node 0, Type 0, BuildingBlock: KUFVIS_clean_sbu_0, # of connection points: 4
#     Node 1, Type 0, BuildingBlock: KUFVIS_clean_sbu_0, # of connection points: 4
#     Node 2, Type 0, BuildingBlock: KUFVIS_clean_sbu_0, # of connection points: 4
#     Node 3, Type 0, BuildingBlock: KUFVIS_clean_sbu_0, # of connection points: 4
#     Node 4, Type 0, BuildingBlock: KUFVIS_clean_sbu_0, # of connection points: 4
#     Node 5, Type 0, BuildingBlock: KUFVIS_clean_sbu_0, # of connection points: 4
#     Node 6, Type 0, BuildingBlock: KUFVIS_clean_sbu_0, # of connection points: 4
#     Node 7, Type 0, BuildingBlock: KUFVIS_clean_sbu_0, # of connection points: 4
#     Node 8, Type 0, BuildingBlock: KUFVIS_clean_sbu_0, # of connection points: 4
#     Node 9, Type 0, BuildingBlock: KUFVIS_clean_sbu_0, # of connection points: 4
#     Node 10, Type 0, BuildingBlock: KUFVIS_clean_sbu_0, # of connection points: 4
#     Node 11, Type 0, BuildingBlock: KUFVIS_clean_sbu_0, # of connection points: 4
#     Node 12, Type 0, BuildingBlock: KUFVIS_clean_sbu_0, # of connection points: 4
#     Node 13, Type 0, BuildingBlock: KUFVIS_clean_sbu_0, # of connection points: 4
#     Node 14, Type 0, BuildingBlock: KUFVIS_clean_sbu_0, # of connection points: 4
#     Node 15, Type 0, BuildingBlock: KUFVIS_clean_sbu_0, # of connection points: 4
#     Node 16, Type 0, BuildingBlock: KUFVIS_clean_sbu_0, # of connection points: 4
#     Node 17, Type 0, BuildingBlock: KUFVIS_clean_sbu_0, # of connection points: 4
#     Node 18, Type 0, BuildingBlock: KUFVIS_clean_sbu_0, # of connection points: 4
#     Node 19, Type 0, BuildingBlock: KUFVIS_clean_sbu_0, # of connection points: 4
#     Node 20, Type 0, BuildingBlock: KUFVIS_clean_sbu_0, # of connection points: 4
#     Node 21, Type 0, BuildingBlock: KUFVIS_clean_sbu_0, # of connection points: 4
#     Node 22, Type 0, BuildingBlock: KUFVIS_clean_sbu_0, # of connection points: 4
#     Node 23, Type 0, BuildingBlock: KUFVIS_clean_sbu_0, # of connection points: 4
#     Node 24, Type 1, BuildingBlock: GEDQOX_clean_sbu_0, # of connection points: 6
#     Node 25, Type 1, BuildingBlock: GEDQOX_clean_sbu_0, # of connection points: 6
#     Node 26, Type 1, BuildingBlock: GEDQOX_clean_sbu_0, # of connection points: 6
#     Node 27, Type 1, BuildingBlock: GEDQOX_clean_sbu_0, # of connection points: 6
#     Node 28, Type 1, BuildingBlock: GEDQOX_clean_sbu_0, # of connection points: 6
#     Node 29, Type 1, BuildingBlock: GEDQOX_clean_sbu_0, # of connection points: 6
#     Node 30, Type 1, BuildingBlock: GEDQOX_clean_sbu_0, # of connection points: 6
#     Node 31, Type 1, BuildingBlock: GEDQOX_clean_sbu_0, # of connection points: 6
#     Node 32, Type 1, BuildingBlock: GEDQOX_clean_sbu_0, # of connection points: 6
#     Node 33, Type 1, BuildingBlock: GEDQOX_clean_sbu_0, # of connection points: 6
#     Node 34, Type 1, BuildingBlock: GEDQOX_clean_sbu_0, # of connection points: 6
#     Node 35, Type 1, BuildingBlock: GEDQOX_clean_sbu_0, # of connection points: 6
#     Node 36, Type 1, BuildingBlock: GEDQOX_clean_sbu_0, # of connection points: 6
#     Node 37, Type 1, BuildingBlock: GEDQOX_clean_sbu_0, # of connection points: 6
#     Node 38, Type 1, BuildingBlock: GEDQOX_clean_sbu_0, # of connection points: 6
#     Node 39, Type 1, BuildingBlock: GEDQOX_clean_sbu_0, # of connection points: 6
#     Edge 40, Type (0, 1), BuildingBlock: EZIPEK_clean_linker_0, # of connection points: 2
#     Edge 41, Type (0, 1), BuildingBlock: EZIPEK_clean_linker_0, # of connection points: 2
#     Edge 42, Type (0, 1), BuildingBlock: EZIPEK_clean_linker_0, # of connection points: 2
#     Edge 43, Type (0, 1), BuildingBlock: EZIPEK_clean_linker_0, # of connection points: 2
#     Edge 44, Type (0, 1), BuildingBlock: EZIPEK_clean_linker_0, # of connection points: 2
#     Edge 45, Type (0, 1), BuildingBlock: EZIPEK_clean_linker_0, # of connection points: 2
#     Edge 46, Type (0, 1), BuildingBlock: EZIPEK_clean_linker_0, # of connection points: 2
#     Edge 47, Type (0, 1), BuildingBlock: EZIPEK_clean_linker_0, # of connection points: 2
#     Edge 48, Type (0, 1), BuildingBlock: EZIPEK_clean_linker_0, # of connection points: 2
#     Edge 49, Type (0, 1), BuildingBlock: EZIPEK_clean_linker_0, # of connection points: 2
#     Edge 50, Type (0, 1), BuildingBlock: EZIPEK_clean_linker_0, # of connection points: 2
#     Edge 51, Type (0, 1), BuildingBlock: EZIPEK_clean_linker_0, # of connection points: 2
#     Edge 52, Type (0, 1), BuildingBlock: EZIPEK_clean_linker_0, # of connection points: 2
#     Edge 53, Type (0, 1), BuildingBlock: EZIPEK_clean_linker_0, # of connection points: 2
#     Edge 54, Type (0, 1), BuildingBlock: EZIPEK_clean_linker_0, # of connection points: 2
#     Edge 55, Type (0, 1), BuildingBlock: EZIPEK_clean_linker_0, # of connection points: 2
#     Edge 56, Type (0, 1), BuildingBlock: EZIPEK_clean_linker_0, # of connection points: 2
#     Edge 57, Type (0, 1), BuildingBlock: EZIPEK_clean_linker_0, # of connection points: 2
#     Edge 58, Type (0, 1), BuildingBlock: EZIPEK_clean_linker_0, # of connection points: 2
#     Edge 59, Type (0, 1), BuildingBlock: EZIPEK_clean_linker_0, # of connection points: 2
#     Edge 60, Type (0, 1), BuildingBlock: EZIPEK_clean_linker_0, # of connection points: 2
#     Edge 61, Type (0, 1), BuildingBlock: EZIPEK_clean_linker_0, # of connection points: 2
#     Edge 62, Type (0, 1), BuildingBlock: EZIPEK_clean_linker_0, # of connection points: 2
#     Edge 63, Type (0, 1), BuildingBlock: EZIPEK_clean_linker_0, # of connection points: 2
#     Edge 64, Type (0, 1), BuildingBlock: EZIPEK_clean_linker_0, # of connection points: 2
#     Edge 65, Type (0, 1), BuildingBlock: EZIPEK_clean_linker_0, # of connection points: 2
#     Edge 66, Type (0, 1), BuildingBlock: EZIPEK_clean_linker_0, # of connection points: 2
#     Edge 67, Type (0, 1), BuildingBlock: EZIPEK_clean_linker_0, # of connection points: 2
#     Edge 68, Type (0, 1), BuildingBlock: EZIPEK_clean_linker_0, # of connection points: 2
#     Edge 69, Type (0, 1), BuildingBlock: EZIPEK_clean_linker_0, # of connection points: 2
#     Edge 70, Type (0, 1), BuildingBlock: EZIPEK_clean_linker_0, # of connection points: 2
#     Edge 71, Type (0, 1), BuildingBlock: EZIPEK_clean_linker_0, # of connection points: 2
#     Edge 72, Type (0, 1), BuildingBlock: EZIPEK_clean_linker_0, # of connection points: 2
#     Edge 73, Type (0, 1), BuildingBlock: EZIPEK_clean_linker_0, # of connection points: 2
#     Edge 74, Type (0, 1), BuildingBlock: EZIPEK_clean_linker_0, # of connection points: 2
#     Edge 75, Type (0, 1), BuildingBlock: EZIPEK_clean_linker_0, # of connection points: 2
#     Edge 76, Type (0, 1), BuildingBlock: EZIPEK_clean_linker_0, # of connection points: 2
#     Edge 77, Type (0, 1), BuildingBlock: EZIPEK_clean_linker_0, # of connection points: 2
#     Edge 78, Type (0, 1), BuildingBlock: EZIPEK_clean_linker_0, # of connection points: 2
#     Edge 79, Type (0, 1), BuildingBlock: EZIPEK_clean_linker_0, # of connection points: 2
#     Edge 80, Type (0, 1), BuildingBlock: EZIPEK_clean_linker_0, # of connection points: 2
#     Edge 81, Type (0, 1), BuildingBlock: EZIPEK_clean_linker_0, # of connection points: 2
#     Edge 82, Type (0, 1), BuildingBlock: EZIPEK_clean_linker_0, # of connection points: 2
#     Edge 83, Type (0, 1), BuildingBlock: EZIPEK_clean_linker_0, # of connection points: 2
#     Edge 84, Type (0, 1), BuildingBlock: EZIPEK_clean_linker_0, # of connection points: 2
#     Edge 85, Type (0, 1), BuildingBlock: EZIPEK_clean_linker_0, # of connection points: 2
#     Edge 86, Type (0, 1), BuildingBlock: EZIPEK_clean_linker_0, # of connection points: 2
#     Edge 87, Type (0, 1), BuildingBlock: EZIPEK_clean_linker_0, # of connection points: 2
#     Edge 88, Type (0, 1), BuildingBlock: EZIPEK_clean_linker_0, # of connection points: 2
#     Edge 89, Type (0, 1), BuildingBlock: EZIPEK_clean_linker_0, # of connection points: 2
#     Edge 90, Type (0, 1), BuildingBlock: EZIPEK_clean_linker_0, # of connection points: 2
#     Edge 91, Type (0, 1), BuildingBlock: EZIPEK_clean_linker_0, # of connection points: 2
#     Edge 92, Type (0, 1), BuildingBlock: EZIPEK_clean_linker_0, # of connection points: 2
#     Edge 93, Type (0, 1), BuildingBlock: EZIPEK_clean_linker_0, # of connection points: 2
#     Edge 94, Type (0, 1), BuildingBlock: EZIPEK_clean_linker_0, # of connection points: 2
#     Edge 95, Type (0, 1), BuildingBlock: EZIPEK_clean_linker_0, # of connection points: 2
#     Edge 96, Type (0, 1), BuildingBlock: EZIPEK_clean_linker_0, # of connection points: 2
#     Edge 97, Type (0, 1), BuildingBlock: EZIPEK_clean_linker_0, # of connection points: 2
#     Edge 98, Type (0, 1), BuildingBlock: EZIPEK_clean_linker_0, # of connection points: 2
#     Edge 99, Type (0, 1), BuildingBlock: EZIPEK_clean_linker_0, # of connection points: 2
#     Edge 100, Type (0, 1), BuildingBlock: EZIPEK_clean_linker_0, # of connection points: 2
#     Edge 101, Type (0, 1), BuildingBlock: EZIPEK_clean_linker_0, # of connection points: 2
#     Edge 102, Type (0, 1), BuildingBlock: EZIPEK_clean_linker_0, # of connection points: 2
#     Edge 103, Type (0, 1), BuildingBlock: EZIPEK_clean_linker_0, # of connection points: 2
#     Edge 104, Type (0, 1), BuildingBlock: EZIPEK_clean_linker_0, # of connection points: 2
#     Edge 105, Type (0, 1), BuildingBlock: EZIPEK_clean_linker_0, # of connection points: 2
#     Edge 106, Type (0, 1), BuildingBlock: EZIPEK_clean_linker_0, # of connection points: 2
#     Edge 107, Type (0, 1), BuildingBlock: EZIPEK_clean_linker_0, # of connection points: 2
#     Edge 108, Type (0, 1), BuildingBlock: EZIPEK_clean_linker_0, # of connection points: 2
#     Edge 109, Type (0, 1), BuildingBlock: EZIPEK_clean_linker_0, # of connection points: 2
#     Edge 110, Type (0, 1), BuildingBlock: EZIPEK_clean_linker_0, # of connection points: 2
#     Edge 111, Type (0, 1), BuildingBlock: EZIPEK_clean_linker_0, # of connection points: 2
#     Edge 112, Type (0, 1), BuildingBlock: EZIPEK_clean_linker_0, # of connection points: 2
#     Edge 113, Type (0, 1), BuildingBlock: EZIPEK_clean_linker_0, # of connection points: 2
#     Edge 114, Type (0, 1), BuildingBlock: EZIPEK_clean_linker_0, # of connection points: 2
#     Edge 115, Type (0, 1), BuildingBlock: EZIPEK_clean_linker_0, # of connection points: 2
#     Edge 116, Type (0, 1), BuildingBlock: EZIPEK_clean_linker_0, # of connection points: 2
#     Edge 117, Type (0, 1), BuildingBlock: EZIPEK_clean_linker_0, # of connection points: 2
#     Edge 118, Type (0, 1), BuildingBlock: EZIPEK_clean_linker_0, # of connection points: 2
#     Edge 119, Type (0, 1), BuildingBlock: EZIPEK_clean_linker_0, # of connection points: 2
#     Edge 120, Type (0, 1), BuildingBlock: EZIPEK_clean_linker_0, # of connection points: 2
#     Edge 121, Type (0, 1), BuildingBlock: EZIPEK_clean_linker_0, # of connection points: 2
#     Edge 122, Type (0, 1), BuildingBlock: EZIPEK_clean_linker_0, # of connection points: 2
#     Edge 123, Type (0, 1), BuildingBlock: EZIPEK_clean_linker_0, # of connection points: 2
#     Edge 124, Type (0, 1), BuildingBlock: EZIPEK_clean_linker_0, # of connection points: 2
#     Edge 125, Type (0, 1), BuildingBlock: EZIPEK_clean_linker_0, # of connection points: 2
#     Edge 126, Type (0, 1), BuildingBlock: EZIPEK_clean_linker_0, # of connection points: 2
#     Edge 127, Type (0, 1), BuildingBlock: EZIPEK_clean_linker_0, # of connection points: 2
#     Edge 128, Type (0, 1), BuildingBlock: EZIPEK_clean_linker_0, # of connection points: 2
#     Edge 129, Type (0, 1), BuildingBlock: EZIPEK_clean_linker_0, # of connection points: 2
#     Edge 130, Type (0, 1), BuildingBlock: EZIPEK_clean_linker_0, # of connection points: 2
#     Edge 131, Type (0, 1), BuildingBlock: EZIPEK_clean_linker_0, # of connection points: 2
#     Edge 132, Type (0, 1), BuildingBlock: EZIPEK_clean_linker_0, # of connection points: 2
#     Edge 133, Type (0, 1), BuildingBlock: EZIPEK_clean_linker_0, # of connection points: 2
#     Edge 134, Type (0, 1), BuildingBlock: EZIPEK_clean_linker_0, # of connection points: 2
#     Edge 135, Type (0, 1), BuildingBlock: EZIPEK_clean_linker_0, # of connection points: 2
# Relax obj value: 0.350
# Max RMSD: 0.520
# Mean RMSD: 0.186
data_MOF--net-gar--node1-KUFVIS_clean_sbu_0--node2-GEDQOX_clean_sbu_0--edge1-EZIPEK_clean_linker_0
_symmetry_space_group_name_H-M    P1
_symmetry_Int_Tables_number       1
_symmetry_cell_setting            triclinic
loop_
_symmetry_equiv_pos_as_xyz
'x, y, z'
_cell_length_a     45.80116
_cell_length_b     44.452901
_cell_length_c     40.264461
_cell_angle_alpha  99.473967
_cell_angle_beta   98.135774
_cell_angle_gamma 98.761943
loop_
_atom_site_label
_atom_site_type_symbol
_atom_site_fract_x
_atom_site_fract_y
_atom_site_fract_z
_atom_type_partial_charge
Mn0 Mn 0.16052 0.40361 0.52067 0.0
Mn1 Mn 0.13496 0.448 0.46716 0.0
C2 C 0.11122 0.41129 0.51516 0.0
C3 C 0.16694 0.35729 0.53683 0.0
C4 C 0.17109 0.47427 0.53833 0.0
O5 O 0.18967 0.40223 0.48691 0.0
O6 O 0.17193 0.43427 0.45506 0.0
C7 C 0.11818 0.39589 0.40738 0.0
N8 N 0.11164 0.42125 0.42685 0.0
C9 C 0.06381 0.41544 0.39072 0.0
C10 C 0.07109 0.39079 0.36885 0.0
C11 C 0.0981 0.38046 0.3777 0.0
C12 C 0.08457 0.42947 0.42024 0.0
H13 H 0.13807 0.38694 0.415 0.0
C14 C 0.18945 0.41526 0.46086 0.0
O15 O 0.18433 0.38303 0.55226 0.0
O16 O 0.14855 0.35789 0.50945 0.0
N17 N 0.09844 0.46229 0.47333 0.0
C18 C 0.0938 0.48474 0.49833 0.0
C19 C 0.06661 0.49563 0.49498 0.0
C20 C 0.04474 0.48425 0.46572 0.0
C21 C 0.05024 0.46172 0.43992 0.0
C22 C 0.07764 0.45138 0.44473 0.0
H23 H 0.11069 0.4943 0.52063 0.0
O24 O 0.12413 0.40457 0.54311 0.0
O25 O 0.12779 0.41452 0.49215 0.0
O26 O 0.17756 0.44858 0.54393 0.0
O27 O 0.15686 0.47721 0.50961 0.0
C28 C 1.02975 0.44939 0.40943 0.0
C29 C 0.03652 0.42617 0.38485 0.0
H30 H 0.05566 0.37895 0.34588 0.0
H31 H 0.10332 0.36052 0.36187 0.0
H32 H 0.06265 0.51297 0.51478 0.0
H33 H 1.02387 0.493 0.46337 0.0
H34 H 1.00848 0.45713 0.40495 0.0
H35 H 1.02021 0.41615 0.36197 0.0
Mn36 Mn 1.00824 0.74631 0.66211 0.0
Mn37 Mn 0.06652 0.79672 0.71595 0.0
C38 C 0.0606 0.7422 0.66761 0.0
C39 C 0.98995 0.71429 0.60544 0.0
C40 C 0.03519 0.80994 0.64938 0.0
O41 O 0.98826 0.77009 0.6991 0.0
O42 O 1.0291 0.80205 0.73255 0.0
C43 C 0.07157 0.74982 0.75996 0.0
N44 N 0.07847 0.77956 0.75523 0.0
C45 C 0.1057 0.79597 0.81268 0.0
C46 C 0.09982 0.76529 0.81767 0.0
C47 C 0.08249 0.74215 0.79125 0.0
C48 C 0.09444 0.80215 0.78079 0.0
H49 H 0.05733 0.73219 0.74022 0.0
C50 C 1.00101 0.791 0.72546 0.0
O51 O 1.0177 0.72046 0.61982 0.0
O52 O 0.97203 0.72653 0.62337 0.0
N53 N 0.08587 0.83585 0.74343 0.0
C54 C 0.08827 0.86451 0.73508 0.0
C55 C 0.10382 0.89047 0.75927 0.0
C56 C 0.11678 0.88669 0.79175 0.0
C57 C 0.11403 0.85697 0.79975 0.0
C58 C 0.09833 0.83195 0.77455 0.0
H59 H 0.07844 0.86756 0.71014 0.0
O60 O 0.04224 0.7282 0.64014 0.0
O61 O 0.04841 0.75698 0.68982 0.0
O62 O 1.01556 0.78508 0.6407 0.0
O63 O 0.05505 0.81619 0.67648 0.0
C64 C 0.12604 0.85122 0.83181 0.0
C65 C 0.12186 0.82075 0.83828 0.0
H66 H 0.10802 0.75935 0.84189 0.0
H67 H 0.07728 0.71853 0.79511 0.0
H68 H 0.10583 0.91333 0.7529 0.0
H69 H 0.1287 0.90679 0.81037 0.0
H70 H 0.13833 0.8701 0.85178 0.0
H71 H 0.13091 0.81667 0.86316 0.0
Mn72 Mn 0.66105 0.89858 0.01407 0.0
Mn73 Mn 0.64259 0.9498 0.96575 0.0
C74 C 0.613 0.90891 1.00683 0.0
C75 C 0.66278 0.84838 0.02058 0.0
C76 C 0.67547 0.9683 0.03988 0.0
O77 O 0.69411 0.9014 0.98553 0.0
O78 O 0.67749 0.93269 0.95216 0.0
C79 C 0.62259 0.90284 0.90165 0.0
N80 N 0.61856 0.92832 0.92309 0.0
C81 C 0.57227 0.92968 0.8872 0.0
C82 C 0.57792 0.90583 0.86286 0.0
C83 C 0.60281 0.89174 0.87058 0.0
C84 C 0.59332 0.94017 0.91733 0.0
H85 H 0.63988 0.89027 0.90903 0.0
C86 C 0.6938 0.91273 0.95833 0.0
O87 O 0.67943 0.87158 0.04237 0.0
O88 O 0.64831 0.85443 0.99317 0.0
N89 N 0.60773 0.96655 0.97351 0.0
C90 C 0.60234 0.98342 1.00249 0.0
C91 C 0.57494 0.99359 1.00221 0.0
C92 C 0.55403 0.98823 0.97196 0.0
C93 C 0.56013 0.971 0.94228 0.0
C94 C 0.58739 0.96026 0.94426 0.0
H95 H 0.61826 0.98794 0.02594 0.0
O96 O 0.62277 0.89728 0.03282 0.0
O97 O 0.63159 0.91418 0.98626 0.0
O98 O 0.67731 0.94095 0.04422 0.0
O99 O 0.66563 0.97442 1.01069 0.0
C100 C 0.53954 0.96258 0.91138 0.0
C101 C 0.54563 0.94191 0.88379 0.0
H102 H 0.56227 0.8968 0.83924 0.0
H103 H 0.60625 0.87184 0.85311 0.0
H104 H 0.56989 1.00495 0.02556 0.0
H105 H 0.53294 0.9964 0.97217 0.0
H106 H 0.51845 0.97089 0.90902 0.0
H107 H 0.52904 0.93444 0.8607 0.0
Mn108 Mn 0.50956 0.26059 0.13843 0.0
Mn109 Mn 0.44835 0.26033 0.08355 0.0
C110 C 0.48307 0.21325 0.10872 0.0
C111 C 0.56021 0.26291 0.15265 0.0
C112 C 0.45931 0.28788 0.15982 0.0
O113 O 0.51495 0.30303 0.12451 0.0
O114 O 0.47947 0.29393 0.07671 0.0
C115 C 0.46176 0.24384 0.0137 0.0
N116 N 0.44712 0.23623 0.03918 0.0
C117 C 0.42307 0.18691 1.00447 0.0
C118 C 0.4387 0.19378 0.97833 0.0
C119 C 0.45798 0.22247 0.98289 0.0
C120 C 0.42793 0.20903 0.0347 0.0
H121 H 0.47659 0.26589 0.01712 0.0
C122 C 0.50319 0.30994 0.09649 0.0
O123 O 0.5446 0.27291 0.17511 0.0
O124 O 0.5467 0.25216 0.12142 0.0
N125 N 0.41853 0.2271 0.08907 0.0
C126 C 0.40344 0.225 0.11564 0.0
C127 C 0.38245 0.19816 0.11463 0.0
C128 C 0.37682 0.17394 0.08605 0.0
C129 C 0.39198 0.17696 0.05855 0.0
C130 C 0.41278 0.20419 0.06111 0.0
H131 H 0.40709 0.24382 0.1372 0.0
O132 O 0.49852 0.21544 0.13904 0.0
O133 O 0.48077 0.23968 0.10003 0.0
O134 O 0.47873 0.27159 0.167 0.0
O135 O 0.44688 0.28673 0.12898 0.0
C136 C 0.38709 0.15414 0.02858 0.0
C137 C 0.40262 0.15912 1.00155 0.0
H138 H 0.43578 0.17738 0.9545 0.0
H139 H 0.46987 0.2281 0.9627 0.0
H140 H 0.3705 0.19623 0.13575 0.0
H141 H 0.36057 0.1533 0.08534 0.0
H142 H 0.37123 0.1328 0.02593 0.0
H143 H 0.39844 0.14156 0.97849 0.0
Mn144 Mn 0.08179 0.80001 0.26984 0.0
Mn145 Mn 1.02091 0.7808 0.20417 0.0
C146 C 0.06639 0.7483 0.23607 0.0
C147 C 0.13891 0.81137 0.28992 0.0
C148 C 1.01165 0.79811 0.27876 0.0
O149 O 0.07868 0.84209 0.2535 0.0
O150 O 0.03849 0.82541 0.21045 0.0
C151 C 0.04984 0.7914 0.14476 0.0
N152 N 0.03393 0.77172 0.16106 0.0
C153 C 1.02405 0.73092 0.11133 0.0
C154 C 0.04021 0.75083 0.09403 0.0
C155 C 0.05343 0.78108 0.11096 0.0
C156 C 1.02154 0.74238 0.14514 0.0
H157 H 0.05935 0.81492 0.15726 0.0
C158 C 0.05981 0.84648 0.22825 0.0
O159 O 0.11949 0.81717 0.30965 0.0
O160 O 0.12547 0.80096 0.25879 0.0
N161 N 1.00308 0.73774 0.19527 0.0
C162 C 0.98723 0.72175 0.21491 0.0
C163 C 0.97371 0.69065 0.20235 0.0
C164 C 0.97607 0.67645 0.16927 0.0
C165 C 0.99198 0.69353 0.14916 0.0
C166 C 1.0055 0.72428 0.1634 0.0
H167 H 0.98479 0.73275 0.23982 0.0
O168 O 0.08024 0.7531 0.26742 0.0
O169 O 0.059 0.77308 0.22729 0.0
O170 O 0.04026 0.80243 0.29197 0.0
O171 O 1.00304 0.7894 0.24653 0.0
C172 C 0.99432 0.68146 0.11527 0.0
C173 C 1.00993 0.7003 0.09623 0.0
H174 H 0.04267 0.74318 0.06779 0.0
H175 H 0.06597 0.79658 0.0978 0.0
H176 H 0.9612 0.6778 0.21797 0.0
H177 H 0.9653 0.65258 0.15943 0.0
H178 H 0.98372 0.65792 0.10337 0.0
H179 H 1.01048 0.69103 0.06986 0.0
Mn180 Mn 0.59007 0.84851 0.42264 0.0
Mn181 Mn 0.58442 0.88489 0.35617 0.0
C182 C 0.53964 0.8503 0.39426 0.0
C183 C 0.59913 0.80638 0.4493 0.0
C184 C 0.59738 0.92014 0.43049 0.0
O185 O 0.63392 0.85236 0.40982 0.0
O186 O 0.62736 0.87478 0.36438 0.0
C187 C 0.58933 0.83194 0.30327 0.0
N188 N 0.57378 0.85402 0.31523 0.0
C189 C 0.53321 0.83533 0.26778 0.0
C190 C 0.54897 0.81267 0.25477 0.0
C191 C 0.57713 0.81094 0.27264 0.0
C192 C 0.54655 0.85572 0.29836 0.0
H193 H 0.61081 0.8302 0.31705 0.0
C194 C 0.64437 0.86256 0.38488 0.0
O195 O 0.6056 0.83478 0.4654 0.0
O196 O 0.58697 0.80183 0.41719 0.0
N197 N 0.54596 0.89575 0.34336 0.0
C198 C 0.53324 0.91849 0.35954 0.0
C199 C 0.50499 0.92325 0.34497 0.0
C200 C 0.48994 0.9044 0.314 0.0
C201 C 0.50348 0.88124 0.29765 0.0
C202 C 0.53193 0.87795 0.31311 0.0
H203 H 0.54406 0.93225 0.38388 0.0
O204 O 0.5452 0.84433 0.42475 0.0
O205 O 0.56435 0.85388 0.38046 0.0
O206 O 0.59592 0.89534 0.44275 0.0
O207 O 0.59426 0.91898 0.39807 0.0
C208 C 0.48975 0.86113 0.26675 0.0
C209 C 0.50458 0.83815 0.25186 0.0
H210 H 0.53957 0.79632 0.23125 0.0
H211 H 0.58933 0.79335 0.26291 0.0
H212 H 0.49461 0.94103 0.35792 0.0
H213 H 0.46794 0.90781 0.30312 0.0
H214 H 0.46771 0.86302 0.25433 0.0
H215 H 0.49369 0.82267 0.22823 0.0
Mn216 Mn 0.57894 0.29834 0.76748 0.0
Mn217 Mn 0.52177 0.28009 0.69878 0.0
C218 C 0.56566 0.24711 0.73276 0.0
C219 C 0.63568 0.31059 0.7894 0.0
C220 C 0.50798 0.2964 0.77181 0.0
O221 O 0.57578 0.34092 0.75209 0.0
O222 O 0.54023 0.32414 0.70408 0.0
C223 C 0.55114 0.28787 0.63923 0.0
N224 N 0.53494 0.26915 0.65621 0.0
C225 C 0.5219 0.22815 0.60661 0.0
C226 C 0.53831 0.24712 0.58855 0.0
C227 C 0.5533 0.27694 0.60507 0.0
C228 C 0.52069 0.24027 0.64063 0.0
H229 H 0.56177 0.3112 0.65142 0.0
C230 C 0.55959 0.34534 0.72471 0.0
O231 O 0.61559 0.31507 0.80863 0.0
O232 O 0.62315 0.30104 0.75789 0.0
N233 N 0.50351 0.23725 0.69176 0.0
C234 C 0.49104 0.22113 0.7138 0.0
C235 C 0.47682 0.19011 0.70216 0.0
C236 C 0.47621 0.17579 0.66821 0.0
C237 C 0.49043 0.19244 0.64649 0.0
C238 C 0.50445 0.2232 0.65966 0.0
H239 H 0.4921 0.23188 0.74014 0.0
O240 O 0.57836 0.25155 0.76451 0.0
O241 O 0.55874 0.27203 0.72376 0.0
O242 O 0.53569 0.29817 0.78729 0.0
O243 O 0.50291 0.29122 0.7394 0.0
C244 C 0.49124 0.17977 0.61229 0.0
C245 C 0.50642 0.19784 0.59219 0.0
H246 H 0.53965 0.2391 0.56205 0.0
H247 H 0.566 0.29169 0.59129 0.0
H248 H 0.46653 0.17723 0.71938 0.0
H249 H 0.46519 0.15188 0.65926 0.0
H250 H 0.48007 0.15626 0.6011 0.0
H251 H 0.50583 0.18812 0.56568 0.0
Mn252 Mn 0.08914 0.3458 0.92344 0.0
Mn253 Mn 0.08289 0.38723 0.86146 0.0
C254 C 0.03869 0.35005 0.89685 0.0
C255 C 0.0973 0.30203 0.94744 0.0
C256 C 0.09579 0.41752 0.93683 0.0
O257 O 0.13213 0.34887 0.90894 0.0
O258 O 0.12627 0.37809 0.86971 0.0
C259 C 0.08718 0.33449 0.80795 0.0
N260 N 0.07282 0.35785 0.81928 0.0
C261 C 0.03242 0.34038 0.7714 0.0
C262 C 0.04775 0.31739 0.75824 0.0
C263 C 0.07509 0.31422 0.7768 0.0
C264 C 0.04578 0.36017 0.80239 0.0
H265 H 0.10727 0.33079 0.82299 0.0
C266 C 0.14318 0.36308 0.88689 0.0
O267 O 0.1049 0.32999 0.96454 0.0
O268 O 0.0844 0.29878 0.91572 0.0
N269 N 0.04452 0.3983 0.84902 0.0
C270 C 0.03217 0.42125 0.86552 0.0
C271 C 1.00393 0.42628 0.85127 0.0
C272 C 0.98888 0.40805 0.81994 0.0
C273 C 1.00254 0.38542 0.80278 0.0
C274 C 0.03088 0.38169 0.81805 0.0
H275 H 0.04358 0.43544 0.88958 0.0
O276 O 0.04441 0.34295 0.92681 0.0
O277 O 0.06315 0.35394 0.88288 0.0
O278 O 0.09761 0.39196 0.94665 0.0
O279 O 0.09113 0.41899 0.905 0.0
C280 C 0.98903 0.36627 0.77121 0.0
C281 C 1.00391 0.3437 0.75559 0.0
H282 H 0.03829 0.30145 0.73444 0.0
H283 H 0.08655 0.29583 0.76744 0.0
H284 H 0.99369 0.44403 0.86452 0.0
H285 H 0.96695 0.41175 0.80923 0.0
H286 H 0.96706 0.36849 0.7589 0.0
H287 H 0.99305 0.32873 0.73163 0.0
Mn288 Mn 0.49222 0.14742 0.32239 0.0
Mn289 Mn 0.44076 0.1448 0.37619 0.0
C290 C 0.46746 0.10015 0.33088 0.0
C291 C 0.50925 0.1458 0.26722 0.0
C292 C 0.50797 0.15299 0.40219 0.0
O293 O 0.47846 0.19082 0.32449 0.0
O294 O 0.44772 0.18638 0.36317 0.0
C295 C 0.38808 0.15245 0.32794 0.0
N296 N 0.40085 0.13674 0.35073 0.0
C297 C 0.35283 0.10688 0.35243 0.0
C298 C 0.33917 0.12309 0.32941 0.0
C299 C 0.35695 0.14567 0.31672 0.0
C300 C 0.38409 0.11397 0.36182 0.0
H301 H 0.40141 0.17014 0.31854 0.0
C302 C 0.45851 0.20063 0.34119 0.0
O303 O 0.52652 0.15709 0.29639 0.0
O304 O 0.48144 0.13747 0.27015 0.0
N305 N 0.42932 0.10663 0.39102 0.0
C306 C 0.44585 0.09254 0.4126 0.0
C307 C 0.43152 0.06796 0.42564 0.0
C308 C 0.40022 0.05968 0.41858 0.0
C309 C 0.3835 0.07527 0.39744 0.0
C310 C 0.39913 0.09823 0.38339 0.0
H311 H 0.46985 0.0997 0.41958 0.0
O312 O 0.49299 0.1024 0.32022 0.0
O313 O 0.45655 0.12553 0.33608 0.0
O314 O 0.51594 0.15609 0.3733 0.0
O315 O 0.48059 0.15124 0.406 0.0
C316 C 0.35191 0.06892 0.38979 0.0
C317 C 0.33661 0.08438 0.36692 0.0
H318 H 0.31508 0.11837 0.32127 0.0
H319 H 0.34664 0.15823 0.2988 0.0
H320 H 0.44456 0.05584 0.44175 0.0
H321 H 0.38927 0.04113 0.4293 0.0
H322 H 0.33919 0.05176 0.40093 0.0
H323 H 0.31237 0.07887 0.36076 0.0
Mn324 Mn 0.28309 0.17441 0.49444 0.0
Mn325 Mn 0.25726 0.14061 0.43387 0.0
C326 C 0.23912 0.15115 0.50283 0.0
C327 C 0.31747 0.20346 0.54617 0.0
C328 C 0.29183 0.21324 0.45593 0.0
O329 O 0.32026 0.16013 0.48134 0.0
O330 O 0.29651 0.12557 0.43658 0.0
C331 C 0.2464 0.07203 0.41433 0.0
N332 N 0.23554 0.09888 0.42121 0.0
C333 C 0.18463 0.07128 0.40457 0.0
C334 C 0.19534 0.0433 0.39887 0.0
C335 C 0.22636 0.04371 0.4035 0.0
C336 C 0.2057 0.09883 0.4153 0.0
H337 H 0.27016 0.07214 0.41651 0.0
C338 C 0.32016 0.13717 0.45845 0.0
O339 O 0.31004 0.21521 0.51997 0.0
O340 O 0.3029 0.17626 0.54413 0.0
N341 N 0.21857 0.15258 0.42993 0.0
C342 C 0.21173 0.18157 0.43597 0.0
C343 C 0.18158 0.18514 0.43237 0.0
C344 C 0.15873 0.15891 0.42244 0.0
C345 C 0.16626 0.12933 0.41626 0.0
C346 C 0.19672 0.12719 0.42047 0.0
H347 H 0.2291 0.20186 0.44396 0.0
O348 O 0.24519 0.18146 0.50908 0.0
O349 O 0.25578 0.1365 0.48396 0.0
O350 O 0.29877 0.21664 0.48825 0.0
O351 O 0.27804 0.18649 0.43805 0.0
C352 C 0.14469 0.10189 0.40617 0.0
C353 C 0.15388 0.07289 0.40013 0.0
H354 H 0.17995 0.0214 0.39056 0.0
H355 H 0.23483 0.02227 0.3984 0.0
H356 H 0.17597 0.20806 0.43732 0.0
H357 H 0.13549 0.16176 0.41967 0.0
H358 H 0.12098 0.10282 0.40282 0.0
H359 H 0.1371 0.05196 0.39217 0.0
Mn360 Mn 0.21848 0.07795 0.84508 0.0
Mn361 Mn 0.27199 0.0924 0.9135 0.0
C362 C 0.2467 0.1333 0.86413 0.0
C363 C 0.19414 0.06829 0.7844 0.0
C364 C 0.20384 0.07984 0.92179 0.0
O365 O 0.23338 0.03218 0.84454 0.0
O366 O 0.26916 0.04549 0.89085 0.0
C367 C 0.32568 0.08365 0.88197 0.0
N368 N 0.31085 0.1022 0.90135 0.0
C369 C 0.35175 0.1453 0.91007 0.0
C370 C 0.36749 0.12656 0.89048 0.0
C371 C 0.35437 0.09562 0.87634 0.0
C372 C 0.32333 0.13204 0.91512 0.0
H373 H 0.31578 0.05992 0.87072 0.0
C374 C 0.25528 0.02441 0.86451 0.0
O375 O 0.18079 0.06091 0.80881 0.0
O376 O 0.22276 0.07824 0.79428 0.0
N377 N 0.27896 0.1349 0.93647 0.0
C378 C 0.26031 0.1506 0.95322 0.0
C379 C 0.2698 0.18213 0.96785 0.0
C380 C 0.2983 0.1973 0.96507 0.0
C381 C 0.31705 0.18081 0.94759 0.0
C382 C 0.30643 0.14936 0.93359 0.0
H383 H 0.2382 0.13935 0.95517 0.0
O384 O 0.21895 0.12568 0.84895 0.0
O385 O 0.25632 0.10757 0.87046 0.0
O386 O 0.19568 0.07654 0.88908 0.0
O387 O 0.23233 0.08419 0.93301 0.0
C388 C 0.34566 0.19452 0.94303 0.0
C389 C 0.36299 0.17678 0.92428 0.0
H390 H 0.38954 0.13575 0.88589 0.0
H391 H 0.3663 0.08105 0.861 0.0
H392 H 0.25508 0.19477 0.98104 0.0
H393 H 0.30545 0.22169 0.97619 0.0
H394 H 0.35445 0.21877 0.95359 0.0
H395 H 0.38482 0.18767 0.92064 0.0
Mn396 Mn 0.27223 0.91916 0.09875 0.0
Mn397 Mn 0.28085 0.97249 0.04761 0.0
C398 C 0.31851 0.93684 0.08656 0.0
C399 C 0.27753 0.90375 0.15369 0.0
C400 C 0.26358 0.90293 0.01836 0.0
O401 O 0.23362 0.93943 0.10127 0.0
O402 O 0.2406 0.97034 0.06277 0.0
C403 C 0.28112 0.02814 0.10015 0.0
N404 N 0.29474 1.01251 0.07653 0.0
C405 C 0.33622 0.0552 0.08656 0.0
C406 C 0.32264 0.07154 0.11105 0.0
C407 C 0.29501 0.05789 0.11795 0.0
C408 C 0.32158 0.02532 0.07007 0.0
H409 H 0.25975 1.01823 0.10534 0.0
C410 C 0.22589 0.96059 0.08505 0.0
O411 O 0.26155 0.88567 0.12641 0.0
O412 O 0.28653 0.93188 0.15006 0.0
N413 N 0.31845 0.97916 0.03168 0.0
C414 C 0.32774 0.96146 1.00556 0.0
C415 C 0.35447 0.97243 0.99466 0.0
C416 C 0.37104 1.00182 1.01002 0.0
C417 C 0.36069 1.02008 0.03611 0.0
C418 C 0.33389 1.00789 0.046 0.0
H419 H 0.31496 0.93905 0.993 0.0
O420 O 0.31289 0.91034 0.09578 0.0
O421 O 0.29691 0.95269 0.0846 0.0
O422 O 0.25899 0.89529 0.0471 0.0
O423 O 0.26934 0.93151 0.01582 0.0
C424 C 0.37556 0.05021 0.05208 0.0
C425 C 0.36351 0.06762 0.07756 0.0
H426 H 0.33313 0.09466 0.12455 0.0
H427 H 0.28429 0.07038 0.13672 0.0
H428 H 0.36216 0.95831 0.97427 0.0
H429 H 0.39148 1.01029 1.00124 0.0
H430 H 0.39618 0.06035 0.0448 0.0
H431 H 0.37519 0.09074 0.08968 0.0
Mn432 Mn 0.38854 0.49824 0.16999 0.0
Mn433 Mn 0.40935 0.57365 0.16384 0.0
C434 C 0.43528 0.5146 0.15635 0.0
C435 C 0.38091 0.45784 0.20025 0.0
C436 C 0.36891 0.52705 0.1076 0.0
O437 O 0.35682 0.51892 0.19044 0.0
O438 O 0.37261 0.56761 0.18467 0.0
C439 C 0.42768 0.59485 0.23858 0.0
N440 N 0.43374 0.59415 0.20637 0.0
C441 C 0.48133 0.62791 0.22743 0.0
C442 C 0.47525 0.62973 0.26081 0.0
C443 C 0.44843 0.61286 0.26643 0.0
C444 C 0.45989 0.60938 0.20079 0.0
H445 H 0.40729 0.58153 0.2429 0.0
C446 C 0.35376 0.54715 0.19316 0.0
O447 O 0.36528 0.45669 0.17055 0.0
O448 O 0.40108 0.4826 0.21283 0.0
N449 N 0.44398 0.58498 0.144 0.0
C450 C 0.44692 0.57969 0.11046 0.0
C451 C 0.47269 0.59432 0.10038 0.0
C452 C 0.49491 0.61473 0.12484 0.0
C453 C 0.49127 0.62019 0.15916 0.0
C454 C 0.46505 0.605 0.16762 0.0
H455 H 0.43 0.56394 0.09171 0.0
O456 O 0.42353 0.48542 0.15116 0.0
O457 O 0.42035 0.53375 0.17207 0.0
O458 O 0.36917 0.50455 0.12361 0.0
O459 O 0.38456 0.55408 0.11901 0.0
C460 C 0.51282 0.63973 0.1854 0.0
C461 C 0.50797 0.64338 0.21957 0.0
H462 H 0.49118 0.64364 0.28234 0.0
H463 H 0.44378 0.61374 0.29215 0.0
H464 H 0.47545 0.58982 0.07386 0.0
H465 H 0.5148 0.6258 0.11706 0.0
H466 H 0.53341 0.65165 0.17964 0.0
H467 H 0.52492 0.65801 0.23961 0.0
Mn468 Mn 0.90727 0.24963 0.09951 0.0
Mn469 Mn 0.88388 0.18848 0.03296 0.0
C470 C 0.85697 0.23027 0.07952 0.0
C471 C 0.9102 0.27177 0.16084 0.0
C472 C 0.89935 0.25514 0.02209 0.0
O473 O 0.94616 0.22824 0.09792 0.0
O474 O 0.9277 0.19197 0.05009 0.0
C475 C 0.89339 0.13886 0.07248 0.0
N476 N 0.87483 0.1519 0.05181 0.0
C477 C 0.83264 0.11259 0.05281 0.0
C478 C 0.85138 0.09875 0.07391 0.0
C479 C 0.88187 0.11198 0.08382 0.0
C480 C 0.84538 0.13938 0.04227 0.0
H481 H 0.91681 0.14883 0.08042 0.0
C482 C 0.94901 0.20484 0.07498 0.0
O483 O 0.92199 0.28734 0.13985 0.0
O484 O 0.90245 0.24252 0.14796 0.0
N485 N 0.84202 0.18081 0.0142 0.0
C486 C 0.82692 0.19653 0.99321 0.0
C487 C 0.79593 0.18699 0.98232 0.0
C488 C 0.78098 0.16047 0.99162 0.0
C489 C 0.79727 0.14357 0.01149 0.0
C490 C 0.82807 0.15458 0.02222 0.0
H491 H 0.83819 0.2168 0.98563 0.0
O492 O 0.86598 0.25869 0.09487 0.0
O493 O 0.87763 0.21378 0.07504 0.0
O494 O 0.91054 0.26718 0.05375 0.0
O495 O 0.89056 0.22586 0.0119 0.0
C496 C 0.78405 0.11651 0.02151 0.0
C497 C 0.80173 0.10101 0.04214 0.0
H498 H 0.84257 0.07805 0.0828 0.0
H499 H 0.89648 0.10152 0.10023 0.0
H500 H 0.78361 0.20043 0.96728 0.0
H501 H 0.75701 0.15334 0.98349 0.0
H502 H 0.76026 0.10756 0.01373 0.0
H503 H 0.79126 0.08037 0.04994 0.0
Mn504 Mn 0.17332 0.52093 0.31896 0.0
Mn505 Mn 0.23273 0.55209 0.38187 0.0
C506 C 0.19538 0.57305 0.32811 0.0
C507 C 0.14993 0.50907 0.25944 0.0
C508 C 0.16812 0.53826 0.39585 0.0
O509 O 0.1934 0.48165 0.3269 0.0
O510 O 0.23139 0.50636 0.36927 0.0
C511 C 0.28254 0.53929 0.34481 0.0
N512 N 0.26834 0.5599 0.36238 0.0
C513 C 0.30585 0.60277 0.35829 0.0
C514 C 0.3208 0.582 0.34021 0.0
C515 C 0.30901 0.55014 0.33331 0.0
C516 C 0.27934 0.59067 0.36877 0.0
H517 H 0.27378 0.51475 0.33941 0.0
C518 C 0.21788 0.48165 0.34805 0.0
O519 O 0.13604 0.50052 0.28328 0.0
O520 O 0.17855 0.5176 0.2691 0.0
N521 N 0.23753 0.59631 0.3945 0.0
C522 C 0.22003 0.61359 0.4113 0.0
C523 C 0.2281 0.64602 0.41862 0.0
C524 C 0.25429 0.66035 0.40912 0.0
C525 C 0.27242 0.64213 0.39282 0.0
C526 C 0.26307 0.60991 0.38576 0.0
H527 H 0.19982 0.60285 0.41872 0.0
O528 O 0.16721 0.56425 0.31558 0.0
O529 O 0.20869 0.55183 0.3382 0.0
O530 O 0.15624 0.5247 0.36513 0.0
O531 O 0.19659 0.54712 0.40448 0.0
C532 C 0.29928 0.65475 0.38307 0.0
C533 C 0.31615 0.63505 0.36616 0.0
H534 H 0.34127 0.59027 0.33137 0.0
H535 H 0.32035 0.53395 0.31923 0.0
H536 H 0.21409 0.65996 0.43144 0.0
H537 H 0.26018 0.68539 0.41425 0.0
H538 H 0.30712 0.67959 0.38833 0.0
H539 H 0.33677 0.64503 0.35875 0.0
Mn540 Mn 0.89796 1.00663 0.69778 0.0
Mn541 Mn 0.88933 1.01569 0.61473 0.0
C542 C 0.94092 1.01759 0.67269 0.0
C543 C 0.88932 0.96287 0.72903 0.0
C544 C 0.87751 0.95316 0.63399 0.0
O545 O 0.85321 1.00691 0.68424 0.0
O546 O 0.85481 0.02587 0.63587 0.0
C547 C 0.89408 0.08369 0.63053 0.0
N548 N 0.90362 0.05824 0.61503 0.0
C549 C 0.93888 0.08951 0.59044 0.0
C550 C 0.9295 0.11614 0.60604 0.0
C551 C 0.90705 0.11321 0.6263 0.0
C552 C 0.92538 0.06078 0.59582 0.0
H553 H 0.87679 0.08148 0.6461 0.0
C554 C 0.84159 1.01928 0.66032 0.0
O555 O 0.89446 0.95949 0.69833 0.0
O556 O 0.88886 0.99087 0.74143 0.0
N557 N 0.92132 1.00732 0.59088 0.0
C558 C 0.92869 0.97949 0.57879 0.0
C559 C 0.9509 0.97839 0.5581 0.0
C560 C 0.96491 1.0058 0.54959 0.0
C561 C 0.95677 0.03414 0.56213 0.0
C562 C 0.93451 0.03378 0.58264 0.0
H563 H 0.91758 0.95829 0.58469 0.0
O564 O 0.94314 1.00945 0.70232 0.0
O565 O 0.91389 1.01891 0.65925 0.0
O566 O 0.88878 0.96242 0.66596 0.0
O567 O 0.8745 0.97123 0.61262 0.0
C568 C 0.97013 0.06281 0.55557 0.0
C569 C 0.96144 0.09045 0.57021 0.0
H570 H 0.93948 0.13894 0.60278 0.0
H571 H 0.89973 0.13363 0.63854 0.0
H572 H 0.9571 0.95644 0.54856 0.0
H573 H 0.98203 1.00483 0.53363 0.0
H574 H 0.98753 0.06394 0.53995 0.0
H575 H 0.97238 0.11253 0.56646 0.0
Mn576 Mn 0.94631 0.08455 0.31067 0.0
Mn577 Mn 0.89398 0.08175 0.36418 0.0
C578 C 0.91837 0.03165 0.31977 0.0
C579 C 0.97759 0.08734 0.25988 0.0
C580 C 0.96205 0.09347 0.39136 0.0
O581 O 0.93183 0.13179 0.3153 0.0
O582 O 0.89938 0.12523 0.35142 0.0
C583 C 0.8419 0.08584 0.31329 0.0
N584 N 0.85479 0.07096 0.33691 0.0
C585 C 0.81075 0.03126 0.32683 0.0
C586 C 0.79691 0.04638 0.30273 0.0
C587 C 0.81261 0.07371 0.29584 0.0
C588 C 0.84006 0.04432 0.34326 0.0
H589 H 0.85388 0.10671 0.30761 0.0
C590 C 0.91222 0.14299 0.33326 0.0
O591 O 0.98687 0.09795 0.29178 0.0
O592 O 0.94897 0.07681 0.25607 0.0
N593 N 0.88398 0.04371 0.37999 0.0
C594 C 0.89981 0.03281 0.40532 0.0
C595 C 0.88685 1.00614 0.41606 0.0
C596 C 0.85772 0.99097 0.40081 0.0
C597 C 0.84148 1.00312 0.3756 0.0
C598 C 0.85534 0.03017 0.36644 0.0
H599 H 0.92217 0.04433 0.41739 0.0
O600 O 0.94408 0.03595 0.30932 0.0
O601 O 0.90931 0.05874 0.32442 0.0
O602 O 0.96921 0.09337 0.36163 0.0
O603 O 0.93446 0.09119 0.39531 0.0
C604 C 0.81197 0.98963 0.35948 0.0
C605 C 0.79668 1.00358 0.33495 0.0
H606 H 0.77432 0.03711 0.28922 0.0
H607 H 0.80218 0.0854 0.27708 0.0
H608 H 0.89938 0.99719 0.43591 0.0
H609 H 0.84795 0.97017 0.40886 0.0
H610 H 0.80081 0.96853 0.36579 0.0
H611 H 0.77405 0.99291 0.32261 0.0
Mn612 Mn 0.4073 0.74993 0.60255 0.0
Mn613 Mn 0.38119 0.68805 0.53731 0.0
C614 C 0.35663 0.73177 0.58518 0.0
C615 C 0.41452 0.77337 0.66418 0.0
C616 C 0.39794 0.75387 0.5245 0.0
O617 O 0.4455 0.72775 0.59929 0.0
O618 O 0.42511 0.69052 0.5529 0.0
C619 C 0.39049 0.63933 0.57812 0.0
N620 N 0.37187 0.65236 0.55753 0.0
C621 C 0.32921 0.61472 0.56117 0.0
C622 C 0.34801 0.60087 0.58221 0.0
C623 C 0.37877 0.61327 0.59075 0.0
C624 C 0.34217 0.64067 0.54933 0.0
H625 H 0.41412 0.64872 0.58504 0.0
C626 C 0.4473 0.70376 0.57658 0.0
O627 O 0.42503 0.78771 0.64153 0.0
O628 O 0.4043 0.74434 0.65169 0.0
N629 N 0.33909 0.68126 0.51988 0.0
C630 C 0.32405 0.69655 0.49833 0.0
C631 C 0.29289 0.68765 0.48841 0.0
C632 C 0.27769 0.66207 0.49913 0.0
C633 C 0.29388 0.64547 0.51951 0.0
C634 C 0.32487 0.65582 0.52921 0.0
H635 H 0.33555 0.71602 0.48957 0.0
O636 O 0.36653 0.76011 0.6005 0.0
O637 O 0.37661 0.71459 0.57955 0.0
O638 O 0.40933 0.76637 0.55598 0.0
O639 O 0.38835 0.72463 0.51496 0.0
C640 C 0.28041 0.6193 0.53095 0.0
C641 C 0.29806 0.60394 0.55178 0.0
H642 H 0.33904 0.58081 0.59208 0.0
H643 H 0.39342 0.6028 0.60711 0.0
H644 H 0.28061 0.70086 0.47302 0.0
H645 H 0.25361 0.65538 0.49161 0.0
H646 H 0.25646 0.61091 0.52405 0.0
H647 H 0.28742 0.58397 0.56062 0.0
Mn648 Mn 0.4467 0.58428 0.81167 0.0
Mn649 Mn 0.39277 0.57923 0.8629 0.0
C650 C 0.41958 0.53017 0.81979 0.0
C651 C 0.47788 0.58775 0.76072 0.0
C652 C 0.46017 0.59457 0.8929 0.0
O653 O 0.43106 0.63142 0.8166 0.0
O654 O 0.39646 0.62246 0.84935 0.0
C655 C 0.34334 0.5749 0.80536 0.0
N656 N 0.35436 0.56543 0.83432 0.0
C657 C 0.31098 0.52527 0.82679 0.0
C658 C 0.29789 0.53675 0.79898 0.0
C659 C 0.31443 0.56127 0.78775 0.0
C660 C 0.33969 0.54023 0.84364 0.0
H661 H 0.35685 0.59233 0.79547 0.0
C662 C 0.40981 0.6415 0.83279 0.0
O663 O 0.4872 0.59834 0.79271 0.0
O664 O 0.44927 0.577 0.75702 0.0
N665 N 0.38443 0.54155 0.87973 0.0
C666 C 0.40196 0.53058 0.90354 0.0
C667 C 0.39054 0.50349 0.91445 0.0
C668 C 0.36099 0.48826 0.9014 0.0
C669 C 0.34304 0.50041 0.87767 0.0
C670 C 0.35561 0.52764 0.86785 0.0
H671 H 0.42453 0.54225 0.91411 0.0
O672 O 0.4453 0.53554 0.80962 0.0
O673 O 0.41003 0.55701 0.82445 0.0
O674 O 0.46839 0.59288 0.86346 0.0
O675 O 0.43233 0.59174 0.89566 0.0
C676 C 0.31355 0.48595 0.86244 0.0
C677 C 0.29756 0.49831 0.83691 0.0
H678 H 0.27583 0.52587 0.78494 0.0
H679 H 0.30519 0.56915 0.76515 0.0
H680 H 0.40473 0.49415 0.93245 0.0
H681 H 0.35257 0.46689 0.90916 0.0
H682 H 0.30331 0.46479 0.86942 0.0
H683 H 0.27537 0.4863 0.82441 0.0
Mn684 Mn 0.6756 1.01891 0.81806 0.0
Mn685 Mn 0.73349 0.05134 0.88303 0.0
C686 C 0.69741 0.07134 0.82782 0.0
C687 C 0.65465 1.00832 0.75667 0.0
C688 C 0.66822 0.03555 0.89462 0.0
O689 O 0.69622 0.98002 0.82748 0.0
O690 O 0.73325 1.00593 0.87058 0.0
C691 C 0.78636 0.04016 0.85095 0.0
N692 N 0.77037 0.06024 0.8663 0.0
C693 C 0.80829 0.10397 0.86559 0.0
C694 C 0.82517 0.08371 0.85002 0.0
C695 C 0.81407 0.0517 0.84251 0.0
C696 C 0.78086 0.09114 0.87356 0.0
H697 H 0.77817 1.01549 0.84523 0.0
C698 C 0.72046 0.98084 0.84959 0.0
O699 O 0.63909 1.00047 0.77947 0.0
O700 O 0.68302 1.01527 0.76855 0.0
N701 N 0.73682 0.09545 0.89517 0.0
C702 C 0.71726 0.11209 0.90881 0.0
C703 C 0.72379 0.1446 0.91475 0.0
C704 C 0.75057 0.15967 0.90717 0.0
C705 C 0.77092 0.14213 0.89448 0.0
C706 C 0.76291 0.10978 0.88836 0.0
H707 H 0.69645 0.10075 0.91438 0.0
O708 O 0.66948 0.06219 0.81457 0.0
O709 O 0.71081 0.05034 0.83825 0.0
O710 O 0.65689 0.02251 0.8635 0.0
O711 O 0.6965 0.04514 0.90379 0.0
C712 C 0.79861 0.15551 0.88714 0.0
C713 C 0.81736 0.13644 0.87289 0.0
H714 H 0.84649 0.09253 0.8433 0.0
H715 H 0.82687 0.03592 0.83028 0.0
H716 H 0.70811 0.15801 0.92488 0.0
H717 H 0.75526 0.18474 0.91118 0.0
H718 H 0.80567 0.18045 0.89223 0.0
H719 H 0.83846 0.14701 0.86701 0.0
Mn720 Mn 0.79401 0.6783 0.0233 0.0
Mn721 Mn 0.76148 0.64554 0.94376 0.0
C722 C 0.74234 0.66266 0.0132 0.0
C723 C 0.82009 0.6706 0.07386 0.0
C724 C 0.79019 0.71421 0.96727 0.0
O725 O 0.82754 0.66741 0.99882 0.0
O726 O 0.80144 0.63231 0.95362 0.0
C727 C 0.75119 0.57774 0.94213 0.0
N728 N 0.74016 0.60441 0.94117 0.0
C729 C 0.68952 0.57719 0.93549 0.0
C730 C 0.70055 0.54985 0.9385 0.0
C731 C 0.7315 0.55005 0.94136 0.0
C732 C 0.7103 0.60415 0.93681 0.0
H733 H 0.77476 0.57749 0.94288 0.0
C734 C 0.82578 0.64453 0.97472 0.0
O735 O 0.82353 0.69756 0.06491 0.0
O736 O 0.80144 0.64821 0.05336 0.0
N737 N 0.72261 0.65608 0.93326 0.0
C738 C 0.71548 0.6827 0.92452 0.0
C739 C 0.68524 0.68569 0.91752 0.0
C740 C 0.66261 0.66086 0.91854 0.0
C741 C 0.67045 0.63297 0.92548 0.0
C742 C 0.70099 0.63144 0.93226 0.0
H743 H 0.73271 0.70127 0.92229 0.0
O744 O 0.75566 0.6825 0.04049 0.0
O745 O 0.76014 0.65339 0.99269 0.0
O746 O 0.79185 0.71474 0.99916 0.0
O747 O 0.78215 0.68916 0.94459 0.0
C748 C 0.64917 0.60645 0.92531 0.0
C749 C 0.65872 0.57859 0.93042 0.0
H750 H 0.68539 0.5284 0.93767 0.0
H751 H 0.74012 0.52883 0.9426 0.0
H752 H 0.67941 0.70698 0.91112 0.0
H753 H 0.6393 0.66321 0.91315 0.0
H754 H 0.62541 0.60707 0.92066 0.0
H755 H 0.64214 0.55819 0.92962 0.0
Mn756 Mn 0.9992 0.65098 0.82756 0.0
Mn757 Mn 0.94788 0.64721 0.88125 0.0
C758 C 0.97595 0.60328 0.83704 0.0
C759 C 1.01551 0.6478 0.77253 0.0
C760 C 1.0151 0.65732 0.90745 0.0
O761 O 0.98514 0.69447 0.82977 0.0
O762 O 0.95468 0.68853 0.86824 0.0
C763 C 0.89587 0.65397 0.83153 0.0
N764 N 0.9083 0.63868 0.85503 0.0
C765 C 0.86038 0.60795 0.85524 0.0
C766 C 0.84702 0.62357 0.83134 0.0
C767 C 0.86493 0.64638 0.81907 0.0
C768 C 0.89149 0.6157 0.86573 0.0
H769 H 0.90932 0.67194 0.82246 0.0
C770 C 0.96569 0.70406 0.84744 0.0
O771 O 0.03318 0.66071 0.80104 0.0
O772 O 0.98762 0.64004 0.77546 0.0
N773 N 0.93646 0.60916 0.89631 0.0
C774 C 0.95274 0.59577 0.91889 0.0
C775 C 0.93822 0.57159 0.93238 0.0
C776 C 0.90694 0.56309 0.92477 0.0
C777 C 0.8905 0.57777 0.90232 0.0
C778 C 0.90632 0.60043 0.88803 0.0
H779 H 0.97666 0.60331 0.92645 0.0
O780 O 1.00132 0.60622 0.82612 0.0
O781 O 0.96414 0.62813 0.84163 0.0
O782 O 1.02292 0.6606 0.87851 0.0
O783 O 0.98764 0.65425 0.91121 0.0
C784 C 0.85898 0.57075 0.89354 0.0
C785 C 0.84398 0.58541 0.86954 0.0
H786 H 0.82305 0.61825 0.82226 0.0
H787 H 0.85484 0.65848 0.80052 0.0
H788 H 0.95107 0.56002 0.94933 0.0
H789 H 0.89581 0.545 0.936 0.0
H790 H 0.84612 0.55363 0.90461 0.0
H791 H 0.81981 0.57934 0.86246 0.0
Mn792 Mn 0.77024 0.41841 0.59732 0.0
Mn793 Mn 0.77959 0.47107 0.54557 0.0
C794 C 0.81703 0.43621 0.58625 0.0
C795 C 0.77281 0.40449 0.6536 0.0
C796 C 0.76254 0.40129 0.51708 0.0
O797 O 0.73147 0.43846 0.59845 0.0
O798 O 0.7393 0.46963 0.56046 0.0
C799 C 0.78005 0.52733 0.59732 0.0
N800 N 0.79346 0.51144 0.57368 0.0
C801 C 0.83402 0.55472 0.58134 0.0
C802 C 0.82062 0.57139 0.60576 0.0
C803 C 0.79359 0.55755 0.6139 0.0
C804 C 0.81981 0.52437 0.56617 0.0
H805 H 0.75912 0.51722 0.60343 0.0
C806 C 0.72422 0.45986 0.5824 0.0
O807 O 0.75873 0.38588 0.62572 0.0
O808 O 0.78301 0.43194 0.64876 0.0
N809 N 0.81731 0.47718 0.52981 0.0
C810 C 0.82719 0.4585 0.50499 0.0
C811 C 0.85366 0.46932 0.49349 0.0
C812 C 0.86923 0.49957 0.50673 0.0
C813 C 0.8586 0.51853 0.5319 0.0
C814 C 0.83216 0.50645 0.54257 0.0
H815 H 0.81494 0.43554 0.49374 0.0
O816 O 0.81127 0.40985 0.59583 0.0
O817 O 0.79529 0.45181 0.58331 0.0
O818 O 0.75795 0.39364 0.54583 0.0
O819 O 0.76786 0.42983 0.51424 0.0
C820 C 0.87303 0.54913 0.54644 0.0
C821 C 0.86085 0.56715 0.57132 0.0
H822 H 0.83083 0.59486 0.61834 0.0
H823 H 0.78303 0.57027 0.63269 0.0
H824 H 0.86172 0.45454 0.47398 0.0
H825 H 0.88919 0.50816 0.49715 0.0
H826 H 0.89358 0.55898 0.53879 0.0
H827 H 0.87227 0.59057 0.58252 0.0
Mn828 Mn 0.71845 0.57859 0.34244 0.0
Mn829 Mn 0.77156 0.59321 0.41134 0.0
C830 C 0.74689 0.63391 0.36149 0.0
C831 C 0.6963 0.56913 0.28089 0.0
C832 C 0.7032 0.58049 0.41929 0.0
O833 O 0.73339 0.53272 0.34257 0.0
O834 O 0.76911 0.54632 0.38896 0.0
C835 C 0.82502 0.58506 0.37919 0.0
N836 N 0.81019 0.60342 0.3988 0.0
C837 C 0.84945 0.6476 0.40449 0.0
C838 C 0.86517 0.62906 0.38463 0.0
C839 C 0.8529 0.59766 0.37195 0.0
C840 C 0.82189 0.6337 0.41122 0.0
H841 H 0.81564 0.56102 0.36884 0.0
C842 C 0.75533 0.52509 0.36272 0.0
O843 O 0.68145 0.56226 0.30441 0.0
O844 O 0.72478 0.57858 0.29229 0.0
N845 N 0.77812 0.63577 0.4341 0.0
C846 C 0.75969 0.65104 0.45169 0.0
C847 C 0.76859 0.6828 0.46552 0.0
C848 C 0.7962 0.69867 0.46093 0.0
C849 C 0.8148 0.68256 0.44275 0.0
C850 C 0.80496 0.65078 0.42993 0.0
H851 H 0.73818 0.63929 0.45494 0.0
O852 O 0.71928 0.62648 0.34595 0.0
O853 O 0.75604 0.60809 0.3682 0.0
O854 O 0.69516 0.57742 0.38648 0.0
O855 O 0.73171 0.58466 0.43059 0.0
C856 C 0.84249 0.69695 0.43636 0.0
C857 C 0.85981 0.67948 0.41727 0.0
H858 H 0.88655 0.63876 0.37868 0.0
H859 H 0.8648 0.58325 0.35638 0.0
H860 H 0.754 0.69512 0.47932 0.0
H861 H 0.80278 0.72327 0.47121 0.0
H862 H 0.85057 0.72151 0.44579 0.0
H863 H 0.88096 0.69087 0.41229 0.0
Nd864 Nd 0.10832 0.10637 0.09638 0.0
Nd865 Nd 0.06806 0.05854 0.08288 0.0
C866 C 0.14598 0.15966 0.11112 0.0
C867 C 0.14479 0.18301 0.0882 0.0
C868 C 0.12971 0.20805 0.09549 0.0
C869 C 0.12287 0.22615 0.0709 0.0
C870 C 0.13088 0.21967 0.03836 0.0
C871 C 0.14688 0.19546 0.03138 0.0
C872 C 0.1539 0.17749 0.056 0.0
C873 C 0.11295 0.08559 0.02665 0.0
C874 C 0.04196 0.12211 0.07375 0.0
C875 C 0.03281 1.00326 0.07424 0.0
C876 C 0.03801 0.97993 0.09663 0.0
C877 C 0.06547 0.9839 0.11909 0.0
C878 C 0.07038 0.96402 0.14216 0.0
C879 C 0.0481 0.93902 0.14341 0.0
C880 C 1.02056 0.93459 0.12083 0.0
C881 C 1.01553 0.9549 0.09782 0.0
C882 C 0.06549 0.08184 0.15287 0.0
C883 C 0.13442 0.04263 0.10101 0.0
O884 O 0.12316 0.15458 0.12666 0.0
O885 O 0.15403 0.13376 0.09909 0.0
O886 O 0.10834 0.11275 0.03962 0.0
O887 O 0.10686 0.06818 0.04873 0.0
O888 O 0.0694 0.13383 0.08934 0.0
O889 O 0.03604 0.09156 0.06176 0.0
O890 O 0.05271 1.00938 0.05506 0.0
O891 O 1.02578 0.02874 0.08899 0.0
O892 O 0.07216 0.0553 0.14127 0.0
O893 O 0.06912 0.09764 0.12908 0.0
O894 O 0.10771 0.03229 0.08315 0.0
O895 O 0.13947 0.07225 0.11661 0.0
H896 H 0.12207 0.21287 0.11975 0.0
H897 H 0.11065 0.24479 0.07698 0.0
H898 H 0.15342 0.19005 1.00656 0.0
H899 H 0.16529 0.15833 0.0491 0.0
H900 H 0.08329 1.00276 0.1195 0.0
H901 H 0.09172 0.96824 0.15922 0.0
H902 H 1.00285 0.91557 0.12123 0.0
H903 H 0.99401 0.95122 0.08124 0.0
Nd904 Nd 0.34442 0.85544 0.35846 0.0
Nd905 Nd 0.33736 0.80868 0.32258 0.0
C906 C 0.34537 0.91416 0.38339 0.0
C907 C 0.36212 0.93959 0.37131 0.0
C908 C 0.35455 0.96901 0.37639 0.0
C909 C 0.37057 0.99265 0.36387 0.0
C910 C 0.3949 0.9875 0.34747 0.0
C911 C 0.40106 0.95745 0.34026 0.0
C912 C 0.3845 0.93355 0.35183 0.0
C913 C 0.405 0.84618 0.35735 0.0
C914 C 0.32983 0.85908 0.27706 0.0
C915 C 0.33753 0.75065 0.29404 0.0
C916 C 0.31419 0.723 0.28597 0.0
C917 C 0.32169 0.69562 0.29455 0.0
C918 C 0.29924 0.67164 0.29682 0.0
C919 C 0.26897 0.67469 0.29061 0.0
C920 C 0.26132 0.70084 0.27867 0.0
C921 C 0.28389 0.72517 0.27685 0.0
C922 C 0.27626 0.81806 0.32162 0.0
C923 C 0.35338 0.80712 0.40489 0.0
O924 O 0.32342 0.89737 0.36079 0.0
O925 O 0.36166 0.89736 0.39879 0.0
O926 O 0.3929 0.85392 0.38378 0.0
O927 O 0.38401 0.84122 0.33081 0.0
O928 O 0.33328 0.87469 0.30831 0.0
O929 O 0.33502 0.8307 0.27425 0.0
O930 O 0.34531 0.76159 0.32659 0.0
O931 O 0.33449 0.77235 0.27641 0.0
O932 O 0.28838 0.80651 0.29673 0.0
O933 O 0.29699 0.82388 0.34857 0.0
O934 O 0.35481 0.7931 0.3739 0.0
O935 O 0.34322 0.83325 0.40648 0.0
H936 H 0.33633 0.97365 0.38979 0.0
H937 H 0.36415 1.01497 0.36712 0.0
H938 H 0.41917 0.95278 0.32666 0.0
H939 H 0.38931 0.91037 0.34581 0.0
H940 H 0.34493 0.69356 0.30163 0.0
H941 H 0.30551 0.6509 0.30422 0.0
H942 H 0.23804 0.70308 0.27256 0.0
H943 H 0.27764 0.74619 0.27013 0.0
Nd944 Nd 0.6066 0.09344 0.58399 0.0
Nd945 Nd 0.55318 0.07253 0.57516 0.0
C946 C 0.66503 0.10739 0.58369 0.0
C947 C 0.69019 0.09665 0.60229 0.0
C948 C 0.68529 0.07916 0.62773 0.0
C949 C 0.70827 0.06614 0.64314 0.0
C950 C 0.73638 0.07022 0.63301 0.0
C951 C 0.7416 0.08838 0.60827 0.0
C952 C 0.71861 0.10159 0.59301 0.0
C953 C 0.60049 0.06301 0.64001 0.0
C954 C 0.58525 0.027 0.53284 0.0
C955 C 0.49439 0.059 0.57369 0.0
C956 C 0.46962 0.0707 0.55522 0.0
C957 C 0.44208 0.07001 0.56671 0.0
C958 C 0.41874 0.08116 0.5488 0.0
C959 C 0.42246 0.09277 0.51883 0.0
C960 C 0.45054 0.0945 0.50839 0.0
C961 C 0.4738 0.08366 0.52634 0.0
C962 C 0.56099 0.10428 0.52038 0.0
C963 C 0.57437 0.1386 0.62837 0.0
O964 O 0.64682 0.08611 0.56088 0.0
O965 O 0.65069 0.12477 0.60226 0.0
O966 O 0.61384 0.09075 0.64069 0.0
O967 O 0.58764 0.05197 0.60907 0.0
O968 O 0.60231 0.05425 0.53609 0.0
O969 O 0.56456 0.02532 0.55218 0.0
O970 O 0.51243 0.07922 0.5978 0.0
O971 O 0.50894 0.04211 0.55479 0.0
O972 O 0.54767 0.07621 0.51795 0.0
O973 O 0.57261 0.11463 0.55166 0.0
O974 O 0.55529 0.11222 0.62188 0.0
O975 O 0.59664 0.1397 0.6111 0.0
H976 H 0.66345 0.07463 0.63487 0.0
H977 H 0.70381 0.05188 0.66187 0.0
H978 H 0.76319 0.09143 0.6 0.0
H979 H 0.72272 0.11478 0.57327 0.0
H980 H 0.43856 0.06071 0.58936 0.0
H981 H 0.39753 0.08012 0.55792 0.0
H982 H 0.45467 0.10452 0.48643 0.0
H983 H 0.49502 0.08533 0.51745 0.0
Nd984 Nd 0.34382 0.34036 0.8704 0.0
Nd985 Nd 0.3199 0.3236 0.82014 0.0
C986 C 0.35784 0.35754 0.93757 0.0
C987 C 0.35314 0.38591 0.95842 0.0
C988 C 0.33836 0.40666 0.9426 0.0
C989 C 0.33381 0.43399 0.96192 0.0
C990 C 0.34472 0.44113 0.99701 0.0
C991 C 0.35935 0.42039 0.01292 0.0
C992 C 0.36346 0.39272 0.99366 0.0
C993 C 0.36212 0.39557 0.84166 0.0
C994 C 0.27041 0.34729 0.86041 0.0
C995 C 0.30132 0.30849 0.75314 0.0
C996 C 0.314 0.30404 0.72198 0.0
C997 C 0.34516 0.3102 0.72298 0.0
C998 C 0.35735 0.29813 0.69494 0.0
C999 C 0.33823 0.28041 0.66583 0.0
C1000 C 0.30705 0.27678 0.66381 0.0
C1001 C 0.29497 0.28844 0.69189 0.0
C1002 C 0.30371 0.26934 0.85128 0.0
C1003 C 0.39232 0.31737 0.8288 0.0
O1004 O 0.33339 0.33859 0.92224 0.0
O1005 O 0.37707 0.36163 0.91718 0.0
O1006 O 0.37899 0.37963 0.85739 0.0
O1007 O 0.33526 0.37888 0.83759 0.0
O1008 O 0.2954 0.35062 0.88291 0.0
O1009 O 0.27388 0.3372 0.82913 0.0
O1010 O 0.30496 0.33662 0.77029 0.0
O1011 O 0.30593 0.28857 0.77264 0.0
O1012 O 0.28561 0.28537 0.83727 0.0
O1013 O 0.33026 0.28555 0.85274 0.0
O1014 O 0.3691 0.32062 0.80695 0.0
O1015 O 0.38704 0.31978 0.86025 0.0
H1016 H 0.33066 0.4019 0.91526 0.0
H1017 H 0.32239 0.44985 0.94954 0.0
H1018 H 0.36792 0.42587 0.04013 0.0
H1019 H 0.37495 0.37693 1.0061 0.0
H1020 H 0.36009 0.32276 0.74586 0.0
H1021 H 0.38146 0.30109 0.69659 0.0
H1022 H 0.29215 0.26314 0.64125 0.0
H1023 H 0.27091 0.28352 0.69086 0.0
Nd1024 Nd 0.08873 0.11141 0.59777 0.0
Nd1025 Nd 0.08641 0.05201 0.568 0.0
C1026 C 0.08286 0.16885 0.62061 0.0
C1027 C 0.09601 0.19793 0.61099 0.0
C1028 C 0.12348 0.2151 0.62969 0.0
C1029 C 0.13822 0.24026 0.61835 0.0
C1030 C 0.12546 0.249 0.58852 0.0
C1031 C 0.0978 0.23251 0.57016 0.0
C1032 C 0.08315 0.20709 0.58127 0.0
C1033 C 0.14061 0.10704 0.56988 0.0
C1034 C 0.04971 0.08993 0.51828 0.0
C1035 C 0.09278 0.99421 0.54548 0.0
C1036 C 0.08152 0.96411 0.55455 0.0
C1037 C 0.10172 0.94798 0.57059 0.0
C1038 C 0.09117 0.92119 0.58243 0.0
C1039 C 0.06027 0.91012 0.57833 0.0
C1040 C 0.04004 0.92539 0.56117 0.0
C1041 C 0.05055 0.95213 0.54927 0.0
C1042 C 0.0379 0.05622 0.60208 0.0
C1043 C 0.12265 0.07416 0.64851 0.0
O1044 O 0.0625 0.14958 0.59769 0.0
O1045 O 0.10203 0.15478 0.63617 0.0
O1046 O 0.1387 0.12379 0.59848 0.0
O1047 O 0.11444 0.09378 0.55502 0.0
O1048 O 0.05456 0.10993 0.54756 0.0
O1049 O 0.0632 0.06561 0.51816 0.0
O1050 O 0.11268 1.01376 0.56853 0.0
O1051 O 0.07289 1.00785 0.53048 0.0
O1052 O 0.03632 0.04086 0.57163 0.0
O1053 O 0.06449 0.06945 0.61354 0.0
O1054 O 0.12128 0.05519 0.6189 0.0
O1055 O 0.10675 0.09652 0.64827 0.0
H1056 H 0.13393 0.20867 0.65271 0.0
H1057 H 0.1594 0.25315 0.63298 0.0
H1058 H 0.08758 0.23936 0.54728 0.0
H1059 H 0.06207 0.19435 0.56627 0.0
H1060 H 0.12565 0.95659 0.57485 0.0
H1061 H 0.10704 0.90959 0.59568 0.0
H1062 H 1.01611 0.91714 0.55792 0.0
H1063 H 0.03431 0.96395 0.53702 0.0
Nd1064 Nd 0.35468 0.84784 0.86469 0.0
Nd1065 Nd 0.31492 0.82124 0.81966 0.0
C1066 C 0.39877 0.88703 0.90618 0.0
C1067 C 0.42981 0.89111 0.92237 0.0
C1068 C 0.44745 0.92077 0.9295 0.0
C1069 C 0.47672 0.92541 0.94693 0.0
C1070 C 0.48812 0.90043 0.95753 0.0
C1071 C 0.47017 0.87097 0.95129 0.0
C1072 C 0.44119 0.86622 0.93341 0.0
C1073 C 0.30656 0.83561 0.89956 0.0
C1074 C 0.36205 0.7726 0.84499 0.0
C1075 C 0.2711 0.78086 0.77929 0.0
C1076 C 0.2398 0.77138 0.76416 0.0
C1077 C 0.21865 0.78989 0.772 0.0
C1078 C 0.18956 0.78195 0.75357 0.0
C1079 C 0.18188 0.75572 0.72724 0.0
C1080 C 0.2029 0.7369 0.72009 0.0
C1081 C 0.23182 0.74472 0.73858 0.0
C1082 C 0.3629 0.83096 0.78393 0.0
C1083 C 0.30727 0.89674 0.84162 0.0
O1084 O 0.39307 0.88723 0.87343 0.0
O1085 O 0.38038 0.86612 0.91585 0.0
O1086 O 0.33239 0.82715 0.906 0.0
O1087 O 0.30543 0.84515 0.8713 0.0
O1088 O 0.37756 0.80085 0.85984 0.0
O1089 O 0.33386 0.77425 0.83176 0.0
O1090 O 0.27915 0.7797 0.81146 0.0
O1091 O 0.28555 0.80474 0.76983 0.0
O1092 O 0.33729 0.83956 0.77664 0.0
O1093 O 0.36416 0.82289 0.81304 0.0
O1094 O 0.29259 0.86874 0.82453 0.0
O1095 O 0.33495 0.89511 0.85641 0.0
H1096 H 0.43861 0.94022 0.92157 0.0
H1097 H 0.49056 0.9482 0.95168 0.0
H1098 H 0.47906 0.8515 0.9591 0.0
H1099 H 0.4277 0.84318 0.92827 0.0
H1100 H 0.22486 0.81072 0.79155 0.0
H1101 H 0.17324 0.79648 0.75924 0.0
H1102 H 0.19698 0.71648 0.69998 0.0
H1103 H 0.24822 0.7305 0.73225 0.0
Nd1104 Nd 0.56843 0.06428 0.06916 0.0
Nd1105 Nd 0.60285 0.11938 0.08826 0.0
C1106 C 0.52684 1.0142 0.05814 0.0
C1107 C 0.49736 1.00521 0.06675 0.0
C1108 C 0.47383 0.02058 0.05723 0.0
C1109 C 0.44545 1.01053 0.06378 0.0
C1110 C 0.44023 0.98486 0.07939 0.0
C1111 C 0.46379 0.97008 0.09007 0.0
C1112 C 0.49239 0.98035 0.08385 0.0
C1113 C 0.62736 0.05719 0.08824 0.0
C1114 C 0.56479 0.10296 0.14612 0.0
C1115 C 0.64436 0.16969 0.10173 0.0
C1116 C 0.67433 0.17778 0.09394 0.0
C1117 C 0.6811 0.16682 0.06164 0.0
C1118 C 0.7104 0.17335 0.05563 0.0
C1119 C 0.73291 0.19077 0.08189 0.0
C1120 C 0.72619 0.20155 0.1141 0.0
C1121 C 0.69699 0.19493 0.12012 0.0
C1122 C 0.54384 0.12616 0.07222 0.0
C1123 C 0.60678 0.07877 0.0112 0.0
O1124 O 0.52887 0.0334 0.03688 0.0
O1125 O 0.54946 1.02022 0.08334 0.0
O1126 O 0.60963 0.04316 0.0607 0.0
O1127 O 0.61422 0.07577 0.10539 0.0
O1128 O 0.5503 0.08219 0.11928 0.0
O1129 O 0.58978 0.11981 0.1419 0.0
O1130 O 0.64192 0.14993 0.12224 0.0
O1131 O 0.62209 0.16414 0.07613 0.0
O1132 O 0.56263 0.14184 0.09837 0.0
O1133 O 0.55643 0.1079 0.05391 0.0
O1134 O 0.6205 0.10134 0.03709 0.0
O1135 O 0.58153 0.06235 0.01525 0.0
H1136 H 0.4771 0.0399 0.04409 0.0
H1137 H 0.42743 0.0222 0.05584 0.0
H1138 H 0.45981 0.95018 0.10221 0.0
H1139 H 0.51041 0.9684 0.09151 0.0
H1140 H 0.66394 0.15299 0.04128 0.0
H1141 H 0.7156 0.16477 0.03075 0.0
H1142 H 0.7436 0.21482 0.13459 0.0
H1143 H 0.6921 0.20261 0.14534 0.0
Nd1144 Nd 0.3134 0.31759 0.31576 0.0
Nd1145 Nd 0.36247 0.36125 0.34887 0.0
C1146 C 0.26192 0.2843 0.28418 0.0
C1147 C 0.2347 0.29525 0.29444 0.0
C1148 C 0.23045 0.32525 0.29053 0.0
C1149 C 0.21936 0.34389 0.31551 0.0
C1150 C 0.21078 0.33245 0.34387 0.0
C1151 C 0.20857 0.30046 0.34342 0.0
C1152 C 0.22088 0.28205 0.31914 0.0
C1153 C 0.32091 0.31548 0.3848 0.0
C1154 C 0.29855 0.3859 0.34582 0.0
C1155 C 0.41356 0.39905 0.37104 0.0
C1156 C 0.43538 0.39865 0.34665 0.0
C1157 C 0.45541 0.37751 0.34699 0.0
C1158 C 0.4643 0.36458 0.3166 0.0
C1159 C 0.45251 0.3718 0.28522 0.0
C1160 C 0.43699 0.39675 0.28598 0.0
C1161 C 0.42908 0.41053 0.31652 0.0
C1162 C 0.3538 0.36155 0.27935 0.0
C1163 C 0.37756 0.2923 0.3249 0.0
O1164 O 0.27855 0.30213 0.2686 0.0
O1165 O 0.27828 0.27522 0.30842 0.0
O1166 O 0.29688 0.32011 0.367 0.0
O1167 O 0.34191 0.31867 0.36776 0.0
O1168 O 0.29044 0.36082 0.32184 0.0
O1169 O 0.32514 0.38934 0.3658 0.0
O1170 O 0.40733 0.37354 0.38274 0.0
O1171 O 0.38917 0.40947 0.36174 0.0
O1172 O 0.37742 0.35564 0.29639 0.0
O1173 O 0.3336 0.36015 0.29746 0.0
O1174 O 0.38563 0.31854 0.3472 0.0
O1175 O 0.35139 0.28831 0.30392 0.0
H1176 H 0.23969 0.33603 0.27114 0.0
H1177 H 0.21969 0.36798 0.31401 0.0
H1178 H 0.20071 0.29061 0.36412 0.0
H1179 H 0.22308 0.25877 0.32251 0.0
H1180 H 0.4613 0.36818 0.36975 0.0
H1181 H 0.47726 0.34615 0.31697 0.0
H1182 H 0.4289 0.40393 0.2625 0.0
H1183 H 0.41465 0.42761 0.31535 0.0
Nd1184 Nd 0.58862 0.61097 0.09541 0.0
Nd1185 Nd 0.59036 0.55565 0.06351 0.0
C1186 C 0.58133 0.66796 0.11856 0.0
C1187 C 0.59464 0.69501 0.10615 0.0
C1188 C 0.59248 0.72527 0.12065 0.0
C1189 C 0.60602 0.75021 0.10762 0.0
C1190 C 0.62196 0.74475 0.08047 0.0
C1191 C 0.62448 0.71456 0.06662 0.0
C1192 C 0.61076 0.68991 0.07928 0.0
C1193 C 0.63699 0.61237 0.05999 0.0
C1194 C 0.5482 0.59017 0.01809 0.0
C1195 C 0.60235 0.50162 0.03615 0.0
C1196 C 0.59832 0.47158 0.04659 0.0
C1197 C 0.59649 0.47016 0.08083 0.0
C1198 C 0.58437 0.44239 0.08946 0.0
C1199 C 0.57391 0.41599 0.06385 0.0
C1200 C 0.57772 0.41681 0.03006 0.0
C1201 C 0.58988 0.44461 0.02144 0.0
C1202 C 0.54115 0.55169 0.09707 0.0
C1203 C 0.62636 0.57615 0.14481 0.0
O1204 O 0.5613 0.64818 0.09594 0.0
O1205 O 0.60092 0.65445 0.13421 0.0
O1206 O 0.63892 0.62437 0.09172 0.0
O1207 O 0.61064 0.59902 0.04805 0.0
O1208 O 0.54812 0.60514 0.04942 0.0
O1209 O 0.56817 0.57184 0.01523 0.0
O1210 O 0.62268 0.52364 0.05569 0.0
O1211 O 0.57723 0.51089 0.02743 0.0
O1212 O 0.54038 0.54168 0.06498 0.0
O1213 O 0.56714 0.56637 0.10998 0.0
O1214 O 0.62539 0.55827 0.11457 0.0
O1215 O 0.60971 0.59779 0.14564 0.0
H1216 H 0.58018 0.72952 0.14152 0.0
H1217 H 0.60364 0.77358 0.11814 0.0
H1218 H 0.63633 0.71013 0.0454 0.0
H1219 H 0.61237 0.66666 0.06787 0.0
H1220 H 0.60242 0.49093 0.10043 0.0
H1221 H 0.58139 0.44195 0.11561 0.0
H1222 H 0.56952 0.3965 1.01012 0.0
H1223 H 0.59067 0.44553 0.99485 0.0
Nd1224 Nd 0.85271 0.34561 0.36503 0.0
Nd1225 Nd 0.81342 0.32108 0.31717 0.0
C1226 C 0.89663 0.38199 0.40997 0.0
C1227 C 0.92734 0.38514 0.42764 0.0
C1228 C 0.95164 0.38716 0.41011 0.0
C1229 C 0.98052 0.39018 0.42797 0.0
C1230 C 0.98551 0.39143 0.46342 0.0
C1231 C 0.96115 0.38866 0.48081 0.0
C1232 C 0.93224 0.38605 0.46308 0.0
C1233 C 0.80235 0.3336 0.39648 0.0
C1234 C 0.86002 0.27053 0.34255 0.0
C1235 C 0.76843 0.2845 0.27404 0.0
C1236 C 0.7373 0.27765 0.25716 0.0
C1237 C 0.71397 0.28572 0.27385 0.0
C1238 C 0.68505 0.2816 0.25516 0.0
C1239 C 0.67968 0.26978 0.21986 0.0
C1240 C 0.703 0.26154 0.20346 0.0
C1241 C 0.73162 0.26518 0.2221 0.0
C1242 C 0.86279 0.33168 0.28392 0.0
C1243 C 0.80758 0.39703 0.34155 0.0
O1244 O 0.8918 0.38436 0.3777 0.0
O1245 O 0.87738 0.36045 0.4174 0.0
O1246 O 0.82738 0.32382 0.40373 0.0
O1247 O 0.80312 0.34408 0.36894 0.0
O1248 O 0.8737 0.29775 0.3622 0.0
O1249 O 0.83372 0.27307 0.32434 0.0
O1250 O 0.77536 0.2811 0.30574 0.0
O1251 O 0.78483 0.3083 0.26664 0.0
O1252 O 0.83771 0.3414 0.27691 0.0
O1253 O 0.863 0.32246 0.31247 0.0
O1254 O 0.79319 0.36977 0.32233 0.0
O1255 O 0.83426 0.39414 0.3583 0.0
H1256 H 0.94837 0.38614 0.38275 0.0
H1257 H 0.999 0.39072 0.41404 0.0
H1258 H 0.96457 0.38887 0.50804 0.0
H1259 H 0.91365 0.38454 0.47702 0.0
H1260 H 0.71824 0.29581 0.30085 0.0
H1261 H 0.66707 0.28827 0.26791 0.0
H1262 H 0.69916 0.25315 0.17614 0.0
H1263 H 0.74962 0.25926 0.20888 0.0
Nd1264 Nd 0.06368 0.5727 0.56522 0.0
Nd1265 Nd 0.09942 0.62772 0.58478 0.0
C1266 C 1.021 0.52355 0.55132 0.0
C1267 C 0.9922 0.5121 0.56013 0.0
C1268 C 0.9888 0.51136 0.59414 0.0
C1269 C 0.96129 0.49849 0.60134 0.0
C1270 C 0.93697 0.48696 0.57466 0.0
C1271 C 0.94059 0.48751 0.54078 0.0
C1272 C 0.96804 0.50005 0.53355 0.0
C1273 C 0.12172 0.56373 0.58415 0.0
C1274 C 0.06098 0.61175 0.64237 0.0
C1275 C 0.14085 0.67829 0.59879 0.0
C1276 C 0.17144 0.686 0.59289 0.0
C1277 C 0.18092 0.6696 0.56471 0.0
C1278 C 0.21089 0.67524 0.56104 0.0
C1279 C 0.23144 0.69709 0.58571 0.0
C1280 C 0.22198 0.71371 0.61368 0.0
C1281 C 0.19196 0.70823 0.61719 0.0
C1282 C 0.04105 0.63505 0.56396 0.0
C1283 C 0.10541 0.58574 0.50953 0.0
O1284 O 1.02175 0.54542 0.53324 0.0
O1285 O 0.04468 0.52704 0.57479 0.0
O1286 O 0.10325 0.54898 0.55735 0.0
O1287 O 0.10949 0.58339 0.60131 0.0
O1288 O 0.04609 0.5904 0.6161 0.0
O1289 O 0.08628 0.62816 0.63843 0.0
O1290 O 0.13721 0.65928 0.61992 0.0
O1291 O 0.1199 0.67165 0.57176 0.0
O1292 O 0.05841 0.65019 0.59152 0.0
O1293 O 0.05449 0.61634 0.54762 0.0
O1294 O 0.1188 0.60825 0.53556 0.0
O1295 O 0.07946 0.56996 0.51258 0.0
H1296 H 1.00736 0.52037 0.61503 0.0
H1297 H 0.95886 0.49766 0.62756 0.0
H1298 H 0.92238 0.47748 0.51985 0.0
H1299 H 0.97056 0.49985 0.50716 0.0
H1300 H 0.16531 0.6523 0.54578 0.0
H1301 H 0.21812 0.66245 0.53931 0.0
H1302 H 0.23784 0.7308 0.6327 0.0
H1303 H 0.18483 0.72094 0.63903 0.0
Nd1304 Nd 0.84376 0.8419 0.36812 0.0
Nd1305 Nd 0.82154 0.82446 0.31801 0.0
C1306 C 0.86045 0.86034 0.43488 0.0
C1307 C 0.85161 0.85954 0.46823 0.0
C1308 C 0.8459 0.83191 0.48091 0.0
C1309 C 0.84192 0.83316 0.51494 0.0
C1310 C 0.8438 0.86199 0.53618 0.0
C1311 C 0.84785 0.88922 0.52268 0.0
C1312 C 0.85172 0.88798 0.48908 0.0
C1313 C 0.86191 0.89631 0.33816 0.0
C1314 C 0.77101 0.84646 0.35687 0.0
C1315 C 0.80791 0.80585 0.25111 0.0
C1316 C 0.81405 0.77759 0.23155 0.0
C1317 C 0.80743 0.77134 0.19593 0.0
C1318 C 0.81529 0.74515 0.17779 0.0
C1319 C 0.82996 0.72522 0.19516 0.0
C1320 C 0.83639 0.73134 0.23084 0.0
C1321 C 0.8283 0.75742 0.24894 0.0
C1322 C 0.80525 0.76908 0.34795 0.0
C1323 C 0.89507 0.82008 0.32829 0.0
O1324 O 0.86682 0.83531 0.41794 0.0
O1325 O 0.84624 0.87596 0.41544 0.0
O1326 O 0.87887 0.88006 0.35324 0.0
O1327 O 0.83511 0.87974 0.33442 0.0
O1328 O 0.7926 0.84011 0.37889 0.0
O1329 O 0.77886 0.84688 0.3268 0.0
O1330 O 0.83182 0.82581 0.26611 0.0
O1331 O 0.78862 0.80164 0.27144 0.0
O1332 O 0.78758 0.78291 0.33012 0.0
O1333 O 0.83142 0.78689 0.35219 0.0
O1334 O 0.87035 0.81642 0.30543 0.0
O1335 O 0.89092 0.82936 0.35965 0.0
H1336 H 0.8456 0.80965 0.46505 0.0
H1337 H 0.83866 0.81196 0.52496 0.0
H1338 H 0.84965 0.91175 0.53877 0.0
H1339 H 0.85623 0.90951 0.47982 0.0
H1340 H 0.79659 0.78681 0.18226 0.0
H1341 H 0.81023 0.74052 0.15011 0.0
H1342 H 0.8477 0.71616 0.24448 0.0
H1343 H 0.83356 0.76227 0.27653 0.0
Nd1344 Nd 0.84012 0.35695 0.85562 0.0
Nd1345 Nd 0.83502 0.31396 0.82342 0.0
C1346 C 0.84916 0.41637 0.88318 0.0
C1347 C 0.87089 0.44185 0.87757 0.0
C1348 C 0.86396 0.47158 0.88166 0.0
C1349 C 0.88192 0.49513 0.87117 0.0
C1350 C 0.90766 0.48977 0.85773 0.0
C1351 C 0.91423 0.45972 0.85273 0.0
C1352 C 0.89569 0.43579 0.86226 0.0
C1353 C 0.90461 0.34026 0.86167 0.0
C1354 C 0.82557 0.36156 0.7772 0.0
C1355 C 0.83325 0.25633 0.79287 0.0
C1356 C 0.81092 0.22953 0.79439 0.0
C1357 C 0.80054 0.22729 0.82528 0.0
C1358 C 0.7787 0.20262 0.82705 0.0
C1359 C 0.76663 0.17998 0.79795 0.0
C1360 C 0.7755 0.18305 0.76646 0.0
C1361 C 0.79783 0.20767 0.76477 0.0
C1362 C 0.77272 0.32071 0.8228 0.0
C1363 C 0.85302 0.31077 0.90457 0.0
O1364 O 0.82939 0.4037 0.85615 0.0
O1365 O 0.85959 0.39594 0.8991 0.0
O1366 O 0.88406 0.34557 0.83808 0.0
O1367 O 0.88353 0.3455 0.83882 0.0
O1368 O 0.81756 0.37135 0.8064 0.0
O1369 O 0.84144 0.33948 0.77799 0.0
O1370 O 0.85089 0.26914 0.82155 0.0
O1371 O 0.823 0.2767 0.77702 0.0
O1372 O 0.78565 0.31302 0.79709 0.0
O1373 O 0.79339 0.3259 0.84955 0.0
O1374 O 0.84878 0.29465 0.87335 0.0
O1375 O 0.84698 0.33886 0.9067 0.0
H1376 H 0.84399 0.47627 0.8916 0.0
H1377 H 0.87527 0.51735 0.87264 0.0
H1378 H 0.93345 0.45484 0.8413 0.0
H1379 H 0.90017 0.41246 0.85669 0.0
H1380 H 0.80935 0.24448 0.84825 0.0
H1381 H 0.77164 0.20083 0.85132 0.0
H1382 H 0.76612 0.16567 0.74373 0.0
H1383 H 0.80496 0.2096 0.74056 0.0
Nd1384 Nd 0.81787 0.81678 0.83016 0.0
Nd1385 Nd 0.86446 0.86034 0.87299 0.0
C1386 C 0.76963 0.7823 0.79293 0.0
C1387 C 0.74078 0.79099 0.80043 0.0
C1388 C 0.73518 0.82053 0.7966 0.0
C1389 C 0.71927 0.83647 0.81856 0.0
C1390 C 0.70647 0.82278 0.8437 0.0
C1391 C 0.7085 0.79132 0.8437 0.0
C1392 C 0.72533 0.77572 0.82238 0.0
C1393 C 0.81653 0.816 0.89909 0.0
C1394 C 0.80032 0.88473 0.85649 0.0
C1395 C 0.91335 0.89322 0.91095 0.0
C1396 C 0.94139 0.8857 0.89937 0.0
C1397 C 0.94678 0.85527 0.89827 0.0
C1398 C 0.95844 0.8406 0.87103 0.0
C1399 C 0.96757 0.85668 0.8459 0.0
C1400 C 0.9685 0.88896 0.85153 0.0
C1401 C 0.95487 0.90325 0.87758 0.0
C1402 C 0.864 0.86427 0.80493 0.0
C1403 C 0.88296 0.79426 0.84086 0.0
O1404 O 0.78686 0.80213 0.78012 0.0
O1405 O 0.78484 0.77262 0.81778 0.0
O1406 O 0.79455 0.81918 0.87688 0.0
O1407 O 0.83949 0.81672 0.88502 0.0
O1408 O 0.79464 0.85992 0.83193 0.0
O1409 O 0.82476 0.88828 0.88024 0.0
O1410 O 0.89703 0.87148 0.92216 0.0
O1411 O 0.89679 0.90518 0.88952 0.0
O1412 O 0.8868 0.86063 0.82565 0.0
O1413 O 0.84143 0.86129 0.81932 0.0
O1414 O 0.88854 0.81809 0.86644 0.0
O1415 O 0.85747 0.79009 0.8189 0.0
H1416 H 0.74636 0.83316 0.77975 0.0
H1417 H 0.71941 0.86061 0.81738 0.0
H1418 H 0.69906 0.77861 0.86125 0.0
H1419 H 0.72893 0.75283 0.82588 0.0
H1420 H 0.93791 0.84117 0.91535 0.0
H1421 H 0.95871 0.81609 0.86858 0.0
H1422 H 0.97681 0.90244 0.83364 0.0
H1423 H 0.95176 0.92698 0.878 0.0
Nd1424 Nd 0.60766 0.60673 0.59512 0.0
Nd1425 Nd 0.56758 0.55899 0.58204 0.0
C1426 C 0.64519 0.66021 0.61048 0.0
C1427 C 0.644 0.68427 0.58841 0.0
C1428 C 0.62841 0.70884 0.59611 0.0
C1429 C 0.62204 0.72784 0.57232 0.0
C1430 C 0.63107 0.72279 0.5402 0.0
C1431 C 0.64755 0.69904 0.53286 0.0
C1432 C 0.65403 0.68012 0.55665 0.0
C1433 C 0.61255 0.5862 0.5253 0.0
C1434 C 0.54105 0.62214 0.57286 0.0
C1435 C 0.53235 0.50373 0.57373 0.0
C1436 C 0.53753 0.48055 0.59633 0.0
C1437 C 0.56492 0.48474 0.61898 0.0
C1438 C 0.56985 0.46495 0.64214 0.0
C1439 C 0.54774 0.43973 0.64318 0.0
C1440 C 0.52031 0.43503 0.62034 0.0
C1441 C 0.51519 0.45534 0.59736 0.0
C1442 C 0.56508 0.58236 0.65221 0.0
C1443 C 0.63375 0.54284 0.59935 0.0
O1444 O 0.6225 0.65467 0.6261 0.0
O1445 O 0.65315 0.63451 0.59761 0.0
O1446 O 0.60816 0.61341 0.53848 0.0
O1447 O 0.60614 0.56866 0.54725 0.0
O1448 O 0.56862 0.63403 0.58785 0.0
O1449 O 0.53514 0.59158 0.56112 0.0
O1450 O 0.55229 0.50972 0.55457 0.0
O1451 O 0.52528 0.52928 0.58826 0.0
O1452 O 0.57182 0.55586 0.64056 0.0
O1453 O 0.56864 0.59809 0.6283 0.0
O1454 O 0.60692 0.53246 0.58189 0.0
O1455 O 0.63897 0.57249 0.61484 0.0
H1456 H 0.62008 0.71264 0.62005 0.0
H1457 H 0.60943 0.74609 0.57867 0.0
H1458 H 0.65488 0.69472 0.50836 0.0
H1459 H 0.66585 0.66138 0.54947 0.0
H1460 H 0.58273 0.50362 0.61933 0.0
H1461 H 0.59118 0.46927 0.65924 0.0
H1462 H 0.50278 0.41575 0.62049 0.0
H1463 H 0.49375 0.45144 0.58058 0.0
Nd1464 Nd 0.11439 0.59738 0.08953 0.0
Nd1465 Nd 0.05972 0.57593 0.07824 0.0
C1466 C 0.1731 0.61324 0.09202 0.0
C1467 C 0.19885 0.60464 0.11229 0.0
C1468 C 0.22524 0.60242 0.09888 0.0
C1469 C 0.24914 0.59275 0.11746 0.0
C1470 C 0.24682 0.58508 0.14957 0.0
C1471 C 0.22041 0.58724 0.16293 0.0
C1472 C 0.19665 0.597 0.14447 0.0
C1473 C 0.10475 0.56351 0.1418 0.0
C1474 C 0.09438 0.5309 0.03734 0.0
C1475 C 1.00114 0.56231 0.07697 0.0
C1476 C 0.9767 0.57514 0.05974 0.0
C1477 C 0.94994 0.57566 0.07269 0.0
C1478 C 0.92686 0.58793 0.05604 0.0
C1479 C 0.93005 0.59944 0.0259 0.0
C1480 C 0.95751 0.60024 0.01416 0.0
C1481 C 0.98057 0.58827 0.03088 0.0
C1482 C 0.06851 0.60753 0.02411 0.0
C1483 C 0.08045 0.64158 0.13268 0.0
O1484 O 0.15623 0.59093 0.06918 0.0
O1485 O 0.15735 0.63021 0.10901 0.0
O1486 O 0.11898 0.59148 0.14602 0.0
O1487 O 0.09371 0.55432 0.11028 0.0
O1488 O 0.11292 0.5576 0.04324 0.0
O1489 O 0.07165 0.52973 0.05398 0.0
O1490 O 1.01931 0.58156 0.10183 0.0
O1491 O 1.01542 0.54603 0.05706 0.0
O1492 O 0.05442 0.57969 0.0214 0.0
O1493 O 0.08027 0.61777 0.0555 0.0
O1494 O 0.06153 0.61506 0.12561 0.0
O1495 O 0.10335 0.6431 0.11647 0.0
H1496 H 0.22727 0.60796 0.07399 0.0
H1497 H 0.26942 0.59117 0.10682 0.0
H1498 H 0.21804 0.58109 0.18745 0.0
H1499 H 0.17647 0.59827 0.15528 0.0
H1500 H 0.94681 0.56638 0.09544 0.0
H1501 H 0.90613 0.58764 0.06613 0.0
H1502 H 0.96118 0.61015 0.99202 0.0
H1503 H 1.00133 0.58909 0.021 0.0
C1504 C 0.08292 0.25528 0.97426 0.0
C1505 C 0.10527 0.27598 0.96413 0.0
C1506 C 0.14441 0.25923 1.00175 0.0
C1507 C 0.12219 0.23804 0.01149 0.0
N1508 N 0.07104 0.21091 1.0013 0.0
N1509 N 0.1573 0.29184 0.96125 0.0
C1510 C 0.09163 0.23452 0.99591 0.0
C1511 C 0.13604 0.27601 0.9757 0.0
N1512 N 0.05337 0.25646 0.96452 0.0
N1513 N 0.17335 0.26453 0.01858 0.0
H1514 H 0.15176 0.30373 0.94165 0.0
H1515 H 0.17998 0.29057 0.96605 0.0
H1516 H 0.18041 0.25299 0.03795 0.0
H1517 H 0.18986 0.28218 0.01538 0.0
H1518 H 0.03606 0.24481 0.97434 0.0
H1519 H 0.04626 0.27061 0.94791 0.0
H1520 H 0.04907 0.20512 0.98817 0.0
H1521 H 0.0766 0.19531 0.01683 0.0
C1522 C 0.19412 0.8281 0.28029 0.0
C1523 C 0.17432 0.81586 0.30117 0.0
C1524 C 0.2217 0.81081 0.34006 0.0
C1525 C 0.24113 0.81917 0.31659 0.0
N1526 N 0.24152 0.83144 0.25992 0.0
N1527 N 0.17114 0.7916 0.35006 0.0
C1528 C 0.22592 0.82636 0.28556 0.0
C1529 C 0.1888 0.80651 0.33102 0.0
N1530 N 0.18297 0.84347 0.25601 0.0
N1531 N 0.23441 0.8065 0.37126 0.0
H1532 H 0.14781 0.7876 0.34446 0.0
H1533 H 0.17944 0.78072 0.36945 0.0
H1534 H 0.25737 0.8077 0.37825 0.0
H1535 H 0.22249 0.80411 0.39113 0.0
H1536 H 0.19647 0.85632 0.24263 0.0
H1537 H 0.16077 0.84672 0.25219 0.0
H1538 H 0.23109 0.8315 0.23519 0.0
H1539 H 0.26463 0.83415 0.26231 0.0
C1540 C 0.58509 0.97507 0.44651 0.0
C1541 C 0.60005 0.95096 0.45561 0.0
C1542 C 0.60942 0.97977 0.516 0.0
C1543 C 0.58913 0.99954 0.50703 0.0
N1544 N 0.55296 1.01105 0.46359 0.0
N1545 N 0.63185 0.93443 0.49963 0.0
C1546 C 0.5756 0.99565 0.47228 0.0
C1547 C 0.61372 0.95453 0.49069 0.0
N1548 N 0.58204 0.98045 0.41392 0.0
N1549 N 0.62515 0.98564 0.54857 0.0
H1550 H 0.64017 0.91992 0.48159 0.0
H1551 H 0.63896 0.93231 0.52472 0.0
H1552 H 0.62178 1.00307 0.56767 0.0
H1553 H 0.64258 0.97453 0.55645 0.0
H1554 H 0.57309 0.99916 0.40694 0.0
H1555 H 0.59262 0.9696 0.39535 0.0
H1556 H 0.54061 1.007 0.43895 0.0
H1557 H 0.54437 0.02499 0.48179 0.0
C1558 C 0.44842 0.2851 0.77226 0.0
C1559 C 0.47883 0.30004 0.78946 0.0
C1560 C 0.4519 0.32778 0.83337 0.0
C1561 C 0.42272 0.31064 0.81734 0.0
N1562 N 0.39666 0.26577 0.77678 0.0
N1563 N 0.50661 0.33406 0.84116 0.0
C1564 C 0.42227 0.28736 0.78852 0.0
C1565 C 0.47954 0.32059 0.82156 0.0
N1566 N 0.44286 0.26918 0.7393 0.0
N1567 N 0.45341 0.3525 0.85904 0.0
H1568 H 0.527 0.33212 0.83335 0.0
H1569 H 0.50892 0.34557 0.86636 0.0
H1570 H 0.43448 0.35848 0.86817 0.0
H1571 H 0.4729 0.36865 0.86919 0.0
H1572 H 0.4214 0.26381 0.72465 0.0
H1573 H 0.45838 0.26256 0.72484 0.0
H1574 H 0.39568 0.24577 0.7587 0.0
H1575 H 0.37743 0.26577 0.78791 0.0
C1576 C 0.03244 0.86422 0.64302 0.0
C1577 C 0.03505 0.83388 0.62773 0.0
C1578 C 0.0467 0.85287 0.57634 0.0
C1579 C 0.04916 0.88369 0.59415 0.0
N1580 N 0.0459 0.91939 0.64502 0.0
N1581 N 0.04429 0.79856 0.57957 0.0
C1582 C 0.04212 0.88957 0.62754 0.0
C1583 C 0.04156 0.82783 0.59403 0.0
N1584 N 1.0201 0.86857 0.67206 0.0
N1585 N 0.0491 0.84763 0.5425 0.0
H1586 H 0.0394 0.77936 0.59086 0.0
H1587 H 0.05281 0.79339 0.55709 0.0
H1588 H 0.0534 0.86554 0.52907 0.0
H1589 H 0.04451 0.8257 0.52702 0.0
H1590 H 1.01486 0.88964 0.68272 0.0
H1591 H 1.01235 0.85027 0.68366 0.0
H1592 H 0.04445 0.92505 0.6708 0.0
H1593 H 0.05267 0.93866 0.63446 0.0
C1594 C 0.56308 0.9213 0.01675 0.0
C1595 C 0.58072 0.90616 0.99559 0.0
C1596 C 0.53791 0.88913 0.94937 0.0
C1597 C 0.52007 0.90363 0.97072 0.0
N1598 N 0.51523 0.93226 0.02592 0.0
N1599 N 0.58231 0.86677 0.94686 0.0
C1600 C 0.53231 0.91915 1.0046 0.0
C1601 C 0.56743 0.88747 0.96332 0.0
N1602 N 0.57555 0.93807 0.0485 0.0
N1603 N 0.5269 0.87769 0.91547 0.0
H1604 H 0.60365 0.86369 0.95667 0.0
H1605 H 0.57231 0.85021 0.9252 0.0
H1606 H 0.5056 0.8795 0.90373 0.0
H1607 H 0.53985 0.86908 0.89814 0.0
H1608 H 0.5631 0.9497 0.06447 0.0
H1609 H 0.5983 0.94095 0.05837 0.0
H1610 H 0.49225 0.93169 0.01931 0.0
H1611 H 0.49225 0.93169 0.01931 0.0
C1612 C 0.50571 0.18876 0.05873 0.0
C1613 C 0.48567 0.18581 0.08292 0.0
C1614 C 0.4924 0.13193 0.08126 0.0
C1615 C 0.51548 0.13698 0.06186 0.0
N1616 N 0.5333 0.16234 0.01906 0.0
N1617 N 0.45249 0.15177 0.1072 0.0
C1618 C 0.51779 0.16255 0.04559 0.0
C1619 C 0.47606 0.15607 0.09016 0.0
N1620 N 0.51613 0.21678 0.05099 0.0
N1621 N 0.48778 0.10477 0.09286 0.0
H1622 H 0.44097 0.16965 0.11439 0.0
H1623 H 0.44307 0.13039 0.1119 0.0
H1624 H 0.49923 0.08693 0.08531 0.0
H1625 H 0.47319 0.10003 0.10969 0.0
H1626 H 0.53398 0.22038 0.03784 0.0
H1627 H 0.50853 0.23712 0.05873 0.0
H1628 H 0.53391 0.17924 1.00392 0.0
H1629 H 0.54272 0.14322 1.01018 0.0
C1630 C 0.22268 0.37982 0.43578 0.0
C1631 C 0.20333 0.40144 0.43123 0.0
C1632 C 0.18827 0.37686 0.37065 0.0
C1633 C 0.20713 0.35483 0.37481 0.0
N1634 N 0.24799 0.34036 0.41019 0.0
N1635 N 0.1807 0.42886 0.38976 0.0
C1636 C 0.22591 0.35762 0.40711 0.0
C1637 C 0.19051 0.40282 0.39719 0.0
N1638 N 0.23864 0.3811 0.46747 0.0
N1639 N 0.16725 0.37247 0.34177 0.0
H1640 H 0.18461 0.44967 0.40724 0.0
H1641 H 0.1727 0.4312 0.36493 0.0
H1642 H 0.16372 0.35281 0.32253 0.0
H1643 H 0.15118 0.38651 0.33877 0.0
H1644 H 0.24906 0.36326 0.47439 0.0
H1645 H 0.24131 0.40042 0.487 0.0
H1646 H 0.26456 0.34416 0.4316 0.0
H1647 H 0.25132 0.3237 0.39056 0.0
C1648 C 1.02928 0.07859 0.23852 0.0
C1649 C 0.99951 0.0858 0.23142 0.0
C1650 C 1.01181 0.08855 0.17169 0.0
C1651 C 0.04273 0.08505 0.18021 0.0
N1652 N 0.08045 0.08058 0.22605 0.0
N1653 N 0.96577 0.10247 0.18974 0.0
C1654 C 0.05102 0.0812 0.21489 0.0
C1655 C 0.99191 0.092 0.19749 0.0
N1656 N 0.03661 0.06697 0.26733 0.0
N1657 N 1.00038 0.08682 0.13815 0.0
H1658 H 0.95104 0.10532 0.20705 0.0
H1659 H 0.96013 0.11101 0.16755 0.0
H1660 H 1.01326 0.0839 0.11893 0.0
H1661 H 0.97768 0.08552 0.12909 0.0
H1662 H 0.05605 0.05789 0.27257 0.0
H1663 H 1.02171 0.06286 0.28403 0.0
H1664 H 0.08936 0.08179 0.2516 0.0
H1665 H 0.09656 0.08184 0.21018 0.0
C1666 C 0.40234 0.76626 0.46503 0.0
C1667 C 0.39236 0.7734 0.49688 0.0
C1668 C 0.35593 0.80129 0.46839 0.0
C1669 C 0.36708 0.79588 0.43696 0.0
N1670 N 0.40939 0.78213 0.41155 0.0
N1671 N 0.36678 0.80786 0.53018 0.0
C1672 C 0.39267 0.78081 0.43698 0.0
C1673 C 0.3716 0.79426 0.499 0.0
N1674 N 0.42162 0.74581 0.4615 0.0
N1675 N 0.32926 0.81132 0.46903 0.0
H1676 H 0.37787 0.80397 0.55306 0.0
H1677 H 0.354 0.82531 0.53323 0.0
H1678 H 0.31582 0.81451 0.44722 0.0
H1679 H 0.31878 0.81275 0.49046 0.0
H1680 H 0.42664 0.73653 0.43792 0.0
H1681 H 0.43147 0.73708 0.482 0.0
H1682 H 0.4296 0.77403 0.41195 0.0
H1683 H 0.40557 0.79497 0.39252 0.0
C1684 C 0.61911 1.0006 0.69719 0.0
C1685 C 0.64073 1.01991 0.72459 0.0
C1686 C 0.62701 0.06481 0.70079 0.0
C1687 C 0.61012 0.04615 0.66976 0.0
N1688 N 0.59124 0.99362 0.63909 0.0
N1689 N 0.67165 0.07123 0.742 0.0
C1690 C 0.60646 1.01318 0.66811 0.0
C1691 C 0.64667 0.0521 0.72311 0.0
N1692 N 0.61069 0.97015 0.69869 0.0
N1693 N 0.62372 0.09486 0.71031 0.0
H1694 H 0.68891 0.06318 0.75523 0.0
H1695 H 0.67735 0.09439 0.73984 0.0
H1696 H 0.60738 0.10457 0.69734 0.0
H1697 H 0.63415 0.10846 0.73389 0.0
H1698 H 0.59298 0.95541 0.68182 0.0
H1699 H 0.62041 0.96025 0.71829 0.0
H1700 H 0.59099 0.96983 0.63465 0.0
H1701 H 0.57986 1.00126 0.61878 0.0
C1702 C 0.3666 0.52333 0.04554 0.0
C1703 C 0.35122 0.51938 0.07273 0.0
C1704 C 0.32003 0.47217 0.03834 0.0
C1705 C 0.34233 0.47106 0.01733 0.0
N1706 N 0.38563 0.49668 0.99831 0.0
N1707 N 0.30657 0.4977 0.091 0.0
C1708 C 0.36482 0.49737 0.01941 0.0
C1709 C 0.32495 0.49666 0.06711 0.0
N1710 N 0.38271 0.55158 0.04502 0.0
N1711 N 0.29531 0.44922 0.03145 0.0
H1712 H 0.31043 0.51627 0.11168 0.0
H1713 H 0.28796 0.48089 0.09049 0.0
H1714 H 0.29164 0.43121 1.01027 0.0
H1715 H 0.27779 0.4488 0.04532 0.0
H1716 H 0.3932 0.55625 0.02462 0.0
H1717 H 0.38237 0.57097 0.06343 0.0
H1718 H 0.40432 0.51413 1.00137 0.0
H1719 H 0.38508 0.4777 0.97905 0.0
C1720 C 1.01007 0.07729 0.42236 0.0
C1721 C 0.98675 0.09546 0.42299 0.0
C1722 C 1.00514 0.11223 0.48604 0.0
C1723 C 1.02906 0.09446 0.48537 0.0
N1724 N 0.05983 0.07171 0.44778 0.0
N1725 N 0.97005 0.13821 0.45483 0.0
C1726 C 0.03299 0.08029 0.45204 0.0
C1727 C 0.98668 0.11515 0.45471 0.0
N1728 N 1.01043 0.05626 0.39369 0.0
N1729 N 0.99895 0.12617 0.51636 0.0
H1730 H 0.95742 0.14195 0.43272 0.0
H1731 H 0.97167 0.15596 0.47578 0.0
H1732 H 1.0113 0.12661 0.54005 0.0
H1733 H 0.97964 0.1356 0.51826 0.0
H1734 H 1.02437 0.03976 0.39334 0.0
H1735 H 0.99538 0.05345 0.37107 0.0
H1736 H 0.06511 0.06398 0.42386 0.0
H1737 H 0.07838 0.07674 0.46731 0.0
C1738 C 0.39438 0.77137 0.72121 0.0
C1739 C 0.40761 0.78956 0.6992 0.0
C1740 C 0.39553 0.83607 0.7362 0.0
C1741 C 0.3792 0.81701 0.75523 0.0
N1742 N 0.35689 0.76484 0.75748 0.0
N1743 N 0.4302 0.84137 0.69568 0.0
C1744 C 0.37724 0.78426 0.74559 0.0
C1745 C 0.41066 0.82261 0.70938 0.0
N1746 N 0.39987 0.74198 0.72074 0.0
N1747 N 0.3959 0.86727 0.74317 0.0
H1748 H 0.44466 0.83283 0.68032 0.0
H1749 H 0.43533 0.86537 0.70302 0.0
H1750 H 0.38642 0.87777 0.76312 0.0
H1751 H 0.40371 0.88257 0.7281 0.0
H1752 H 0.39317 0.72858 0.73821 0.0
H1753 H 0.41508 0.73296 0.70672 0.0
H1754 H 0.35235 0.74089 0.74904 0.0
H1755 H 0.34164 0.77295 0.77196 0.0
C1756 C 0.66065 0.04121 0.95676 0.0
C1757 C 0.64869 0.0421 0.92244 0.0
C1758 C 0.607 0.0646 0.94573 0.0
C1759 C 0.62187 0.06808 0.98023 0.0
N1760 N 0.66778 0.06309 0.0157 0.0
N1761 N 0.61165 0.06071 0.88575 0.0
C1762 C 0.64993 0.0576 0.98475 0.0
C1763 C 0.62192 0.05509 0.91724 0.0
N1764 N 0.68309 0.02487 0.9632 0.0
N1765 N 0.57871 0.07094 0.93983 0.0
H1766 H 0.62178 0.05538 0.86453 0.0
H1767 H 0.59459 0.07335 0.88134 0.0
H1768 H 0.56804 0.08014 0.95935 0.0
H1769 H 0.56522 0.06523 0.91578 0.0
H1770 H 0.69314 0.02424 0.98792 0.0
H1771 H 0.68976 1.00999 0.94398 0.0
H1772 H 0.66349 0.07676 0.03735 0.0
H1773 H 0.66349 0.07676 0.03735 0.0
C1774 C 0.37933 0.4027 0.20927 0.0
C1775 C 0.37376 0.43306 0.22008 0.0
C1776 C 0.35509 0.4171 0.26967 0.0
C1777 C 0.35806 0.38574 0.25757 0.0
N1778 N 0.37045 0.34824 0.21382 0.0
N1779 N 0.35062 0.46746 0.25646 0.0
C1780 C 0.36934 0.37843 0.22663 0.0
C1781 C 0.35987 0.43965 0.24893 0.0
N1782 N 0.39536 0.39742 0.18339 0.0
N1783 N 0.35007 0.42645 0.30206 0.0
H1784 H 0.35495 0.48539 0.24313 0.0
H1785 H 0.33649 0.47178 0.27415 0.0
H1786 H 0.34686 0.4118 0.3191 0.0
H1787 H 0.35194 0.44964 0.31341 0.0
H1788 H 0.40326 0.37689 0.17672 0.0
H1789 H 0.40295 0.41464 0.17029 0.0
H1790 H 0.3759 0.34082 0.18996 0.0
H1791 H 0.3637 0.33006 0.22606 0.0
C1792 C 0.17659 0.97719 0.06509 0.0
C1793 C 0.19967 0.97719 0.09249 0.0
C1794 C 0.17853 1.01795 0.12772 0.0
C1795 C 0.15811 0.02105 0.09866 0.0
N1796 N 0.14293 1.0055 0.03699 0.0
N1797 N 0.22389 1.00005 0.15014 0.0
C1798 C 0.15845 1.00094 0.06676 0.0
C1799 C 0.20081 0.99814 0.12396 0.0
N1800 N 0.17156 0.95385 0.03711 0.0
N1801 N 0.17599 0.03288 0.15934 0.0
H1802 H 0.23975 0.98556 0.14892 0.0
H1803 H 0.22846 1.01729 0.17203 0.0
H1804 H 0.16006 0.04695 0.16317 0.0
H1805 H 0.18776 0.02915 0.18193 0.0
H1806 H 0.15294 0.95007 0.01779 0.0
H1807 H 0.18418 0.93616 0.03516 0.0
H1808 H 0.14539 0.99437 0.01294 0.0
H1809 H 0.13052 0.02298 0.03546 0.0
C1810 C 0.68659 0.65789 0.01103 0.0
C1811 C 0.71265 0.64431 0.0147 0.0
C1812 C 0.68705 0.60617 0.04375 0.0
C1813 C 0.66096 0.61961 0.03952 0.0
N1814 N 0.63268 0.65026 1.0077 0.0
N1815 N 0.73488 0.60045 0.0267 0.0
C1816 C 0.6596 0.64279 0.01928 0.0
C1817 C 0.71183 0.61657 0.02817 0.0
N1818 N 0.68788 0.68592 1.00111 0.0
N1819 N 0.68858 0.58416 0.06366 0.0
H1820 H 0.73415 0.5786 0.03304 0.0
H1821 H 0.75356 0.60737 0.01597 0.0
H1822 H 0.67041 0.57497 0.07412 0.0
H1823 H 0.70826 0.5763 0.07142 0.0
H1824 H 0.67039 0.69842 1.00142 0.0
H1825 H 0.70717 0.69748 0.99452 0.0
H1826 H 0.63028 0.66515 0.99042 0.0
H1827 H 0.61243 0.63902 0.01242 0.0
C1828 C 0.76966 0.47359 0.32325 0.0
C1829 C 0.76678 0.49088 0.35629 0.0
C1830 C 0.79238 0.44815 0.37943 0.0
C1831 C 0.79337 0.42967 0.34638 0.0
N1832 N 0.777 0.42607 0.28626 0.0
N1833 N 0.77071 0.48636 0.41539 0.0
C1834 C 0.77998 0.4429 0.31845 0.0
C1835 C 0.77721 0.47573 0.38398 0.0
N1836 N 0.76417 0.4873 0.29566 0.0
N1837 N 0.80595 0.4393 0.40769 0.0
H1838 H 0.75875 0.50435 0.4198 0.0
H1839 H 0.77376 0.47509 0.436 0.0
H1840 H 0.81462 0.4189 0.40669 0.0
H1841 H 0.81027 0.45321 0.43188 0.0
H1842 H 0.76905 0.479 0.27173 0.0
H1843 H 0.75738 0.50874 0.29747 0.0
H1844 H 0.76424 0.43105 0.26499 0.0
H1845 H 0.7856 0.40571 0.28124 0.0
C1846 C 0.86459 0.43132 0.5643 0.0
C1847 C 0.84813 0.44915 0.5846 0.0
C1848 C 0.89086 0.49176 0.60067 0.0
C1849 C 0.90764 0.47325 0.58154 0.0
N1850 N 0.91357 0.42256 0.55404 0.0
N1851 N 0.84858 0.49202 0.63041 0.0
C1852 C 0.89549 0.44203 0.56626 0.0
C1853 C 0.86218 0.47805 0.6055 0.0
N1854 N 0.85038 0.40513 0.54164 0.0
N1855 N 0.90149 0.52265 0.61277 0.0
H1856 H 0.82784 0.48236 0.63542 0.0
H1857 H 0.8592 0.51167 0.64836 0.0
H1858 H 0.9218 0.53411 0.60846 0.0
H1859 H 0.88887 0.5376 0.62434 0.0
H1860 H 0.86078 0.39302 0.5237 0.0
H1861 H 0.82733 0.39772 0.5381 0.0
H1862 H 0.90624 0.39883 0.54535 0.0
H1863 H 0.93666 0.42951 0.55596 0.0
C1864 C 0.43963 0.25007 0.36138 0.0
C1865 C 0.44288 0.22761 0.33342 0.0
C1866 C 0.40208 0.24608 0.29769 0.0
C1867 C 0.39817 0.26769 0.32668 0.0
N1868 N 0.40599 0.2788 0.3885 0.0
N1869 N 0.42789 0.20524 0.27362 0.0
C1870 C 0.4152 0.26671 0.35909 0.0
C1871 C 0.42422 0.22596 0.30115 0.0
N1872 N 0.46024 0.25563 0.39073 0.0
N1873 N 0.38388 0.24377 0.26708 0.0
H1874 H 0.44313 0.19019 0.27517 0.0
H1875 H 0.41703 0.20339 0.24873 0.0
H1876 H 0.3701 0.25958 0.26215 0.0
H1877 H 0.38187 0.22605 0.24611 0.0
H1878 H 0.46105 0.27387 0.41095 0.0
H1879 H 0.47848 0.24417 0.39313 0.0
H1880 H 0.41573 0.27628 0.41266 0.0
H1881 H 0.38586 0.28697 0.38868 0.0
C1882 C 0.34283 0.09262 0.47552 0.0
C1883 C 0.34615 0.12101 0.46336 0.0
C1884 C 0.39961 0.13146 0.48788 0.0
C1885 C 0.39672 0.10204 0.49787 0.0
N1886 N 0.36704 0.05061 0.48942 0.0
N1887 N 0.37946 0.16206 0.44872 0.0
C1888 C 0.36882 0.08127 0.4878 0.0
C1889 C 0.37526 0.13844 0.46622 0.0
N1890 N 0.3152 0.07763 0.47822 0.0
N1891 N 0.42444 0.15371 0.501 0.0
H1892 H 0.36194 0.16681 0.43204 0.0
H1893 H 0.40063 0.17407 0.44769 0.0
H1894 H 0.44167 0.15081 0.51941 0.0
H1895 H 0.42626 0.17631 0.49655 0.0
H1896 H 0.31223 0.05856 0.49018 0.0
H1897 H 0.29554 0.08599 0.4719 0.0
H1898 H 0.34757 0.03427 0.47962 0.0
H1899 H 0.38584 0.04098 0.49647 0.0
C1900 C 0.79127 0.67461 0.34492 0.0
C1901 C 0.7661 0.66857 0.36259 0.0
C1902 C 0.77243 0.72815 0.37688 0.0
C1903 C 0.79488 0.73423 0.35587 0.0
N1904 N 0.82525 0.70991 0.31977 0.0
N1905 N 0.73153 0.69346 0.39217 0.0
C1906 C 0.80421 0.70631 0.34026 0.0
C1907 C 0.75656 0.69661 0.37738 0.0
N1908 N 0.80304 0.6497 0.33201 0.0
N1909 N 0.76748 0.75287 0.39892 0.0
H1910 H 0.72059 0.67206 0.39541 0.0
H1911 H 0.72065 0.71182 0.39934 0.0
H1912 H 0.77956 0.77518 0.40093 0.0
H1913 H 0.75435 0.7508 0.41781 0.0
H1914 H 0.82294 0.65136 0.32224 0.0
H1915 H 0.79382 0.62708 0.3333 0.0
H1916 H 0.83107 0.69174 0.30375 0.0
H1917 H 0.8362 0.73175 0.31793 0.0
C1918 C 0.93082 0.56066 0.82006 0.0
C1919 C 0.95997 0.57225 0.83948 0.0
C1920 C 0.95648 0.52727 0.86774 0.0
C1921 C 0.92722 0.51597 0.8487 0.0
N1922 N 0.88968 0.51703 0.80082 0.0
N1923 N 1.00333 0.56311 0.87567 0.0
C1924 C 0.91531 0.53128 0.82308 0.0
C1925 C 0.97387 0.55411 0.86082 0.0
N1926 N 0.91793 0.57763 0.79859 0.0
N1927 N 0.96676 0.514 0.89442 0.0
H1928 H 1.01617 0.58406 0.87419 0.0
H1929 H 1.01561 0.54893 0.88781 0.0
H1930 H 0.95456 0.49487 0.90121 0.0
H1931 H 0.98625 0.52358 0.91197 0.0
H1932 H 0.89527 0.57288 0.78793 0.0
H1933 H 0.92959 0.59734 0.7923 0.0
H1934 H 0.88117 0.52539 0.77948 0.0
H1935 H 0.87831 0.4951 0.80184 0.0
C1936 C 0.04 0.89463 0.2172 0.0
C1937 C 0.06286 0.87636 0.21504 0.0
C1938 C 0.07622 0.89914 0.16605 0.0
C1939 C 0.05379 0.91798 0.16875 0.0
N1940 N 1.01981 0.9392 0.20275 0.0
N1941 N 0.10706 0.86656 0.19245 0.0
C1942 C 0.03739 0.91743 0.19618 0.0
C1943 C 0.08257 0.88071 0.19131 0.0
N1944 N 1.01996 0.8893 0.23855 0.0
N1945 N 0.09021 0.89729 0.13815 0.0
H1946 H 0.11192 0.85262 0.21021 0.0
H1947 H 0.12392 0.87092 0.17812 0.0
H1948 H 0.08565 0.90956 0.11865 0.0
H1949 H 0.1043 0.88152 0.13268 0.0
H1950 H 1.00051 0.89879 0.23838 0.0
H1951 H 1.02212 0.87385 0.25521 0.0
H1952 H 1.00966 0.942 0.22435 0.0
H1953 H 1.01761 0.95639 0.18826 0.0
C1954 C 0.9894 0.37251 0.89942 0.0
C1955 C 1.00537 0.35166 0.88143 0.0
C1956 C 0.95524 0.32644 0.84449 0.0
C1957 C 0.93944 0.34727 0.86281 0.0
N1958 N 0.94318 0.39234 0.90628 0.0
N1959 N 1.00266 0.31004 0.8342 0.0
C1960 C 0.95725 0.37087 0.88973 0.0
C1961 C 0.98792 0.32924 0.85297 0.0
N1962 N 1.00525 0.39407 0.92664 0.0
N1963 N 0.93864 0.30278 0.81995 0.0
H1964 H 1.02565 0.31061 0.84043 0.0
H1965 H 0.99284 0.295 0.81142 0.0
H1966 H 0.91552 0.30085 0.81285 0.0
H1967 H 0.94719 0.28456 0.80746 0.0
H1968 H 0.99574 0.40716 0.94462 0.0
H1969 H 1.02858 0.39865 0.93142 0.0
H1970 H 0.95421 0.41249 0.92305 0.0
H1971 H 0.92002 0.39103 0.90165 0.0
C1972 C 0.58252 0.22274 0.67825 0.0
C1973 C 0.56806 0.21887 0.70676 0.0
C1974 C 0.56111 0.16193 0.68668 0.0
C1975 C 0.57144 0.16613 0.6554 0.0
N1976 N 0.58609 0.20266 0.61974 0.0
N1977 N 0.54212 0.18397 0.73708 0.0
C1978 C 0.58053 0.19713 0.65084 0.0
C1979 C 0.55701 0.1882 0.71064 0.0
N1980 N 0.59949 0.25069 0.67773 0.0
N1981 N 0.55684 0.13314 0.6949 0.0
H1982 H 0.53957 0.20227 0.75564 0.0
H1983 H 0.53002 0.16268 0.73899 0.0
H1984 H 0.56016 0.11325 0.67948 0.0
H1985 H 0.55303 0.12925 0.71885 0.0
H1986 H 0.61328 0.25389 0.65966 0.0
H1987 H 0.60254 0.2699 0.69731 0.0
H1988 H 0.59058 0.22483 0.61428 0.0
H1989 H 0.58274 0.18541 0.59808 0.0
C1990 C 0.69937 0.88443 0.37549 0.0
C1991 C 0.6772 0.85873 0.37829 0.0
C1992 C 0.71698 0.82558 0.36953 0.0
C1993 C 0.73859 0.85087 0.36473 0.0
N1994 N 0.74736 0.90437 0.35934 0.0
N1995 N 0.66509 0.80329 0.37179 0.0
C1996 C 0.72868 0.88018 0.36653 0.0
C1997 C 0.68636 0.82901 0.37394 0.0
N1998 N 0.69305 0.91357 0.38313 0.0
N1999 N 0.72559 0.79757 0.36953 0.0
H2000 H 0.64287 0.80441 0.37402 0.0
H2001 H 0.66853 0.78069 0.36472 0.0
H2002 H 0.74604 0.79342 0.36325 0.0
H2003 H 0.7134 0.77913 0.37746 0.0
H2004 H 0.7087 0.93375 0.38561 0.0
H2005 H 0.6727 0.91766 0.39003 0.0
H2006 H 0.74094 0.92528 0.35591 0.0
H2007 H 0.76891 0.90277 0.35451 0.0
C2008 C 0.14873 0.33315 0.58361 0.0
C2009 C 0.16249 0.33043 0.55389 0.0
C2010 C 0.15621 0.27407 0.5502 0.0
C2011 C 0.13998 0.27693 0.57777 0.0
N2012 N 0.12144 0.30895 0.62176 0.0
N2013 N 0.17946 0.29892 0.50854 0.0
C2014 C 0.13679 0.30634 0.5949 0.0
C2015 C 0.1665 0.301 0.53722 0.0
N2016 N 0.14508 0.36093 0.6011 0.0
N2017 N 0.16218 0.2457 0.53708 0.0
H2018 H 0.1888 0.31844 0.49979 0.0
H2019 H 0.18021 0.27813 0.49275 0.0
H2020 H 0.15483 0.22566 0.54612 0.0
H2021 H 0.17597 0.24212 0.51893 0.0
H2022 H 0.15255 0.38251 0.59542 0.0
H2023 H 0.15255 0.38251 0.59542 0.0
H2024 H 0.11856 0.33028 0.63492 0.0
H2025 H 0.11122 0.28998 0.6307 0.0
C2026 C 0.6118 0.29264 0.17224 0.0
C2027 C 0.59223 0.26358 0.1632 0.0
C2028 C 0.63045 0.23814 0.1898 0.0
C2029 C 0.64988 0.26734 0.19936 0.0
N2030 N 0.66236 0.32081 0.19387 0.0
N2031 N 0.58361 0.20791 0.15683 0.0
C2032 C 0.64157 0.29416 0.18874 0.0
C2033 C 0.6019 0.23598 0.16965 0.0
N2034 N 0.60154 0.31881 0.16582 0.0
N2035 N 0.63895 0.21289 0.20118 0.0
H2036 H 0.56231 0.20565 0.14247 0.0
H2037 H 0.59014 0.18666 0.15811 0.0
H2038 H 0.65983 0.21363 0.21582 0.0
H2039 H 0.62488 0.19157 0.19793 0.0
H2040 H 0.61332 0.34121 0.17547 0.0
H2041 H 0.5804 0.3182 0.15182 0.0
H2042 H 0.65865 0.3402 0.18365 0.0
H2043 H 0.68435 0.32288 0.20634 0.0
C2044 C 0.69087 0.02371 0.07264 0.0
C2045 C 0.677 0.99266 0.0711 0.0
C2046 C 0.64198 1.01093 0.10699 0.0
C2047 C 0.6514 0.04122 0.10163 0.0
N2048 N 0.69369 0.07828 0.09781 0.0
N2049 N 0.65232 0.9588 0.10409 0.0
C2050 C 0.67939 0.0482 0.09127 0.0
C2051 C 0.65701 0.98686 0.09433 0.0
N2052 N 0.71407 0.0295 0.05549 0.0
N2053 N 0.61699 1.00492 0.12135 0.0
H2054 H 0.66494 0.94176 0.09784 0.0
H2055 H 0.63892 0.95407 0.12212 0.0
H2056 H 0.60651 0.02278 0.13146 0.0
H2057 H 0.60633 0.98263 0.12197 0.0
H2058 H 0.72375 0.05169 0.05327 0.0
H2059 H 0.72304 1.01148 0.04294 0.0
H2060 H 0.71496 0.08521 0.09232 0.0
H2061 H 0.68428 0.09583 0.1106 0.0
C2062 C 0.995 0.79552 0.78585 0.0
C2063 C 0.98447 0.80133 0.75311 0.0
C2064 C 0.95944 0.84139 0.78038 0.0
C2065 C 0.97439 0.83898 0.8134 0.0
N2066 N 1.01075 0.8157 0.84568 0.0
N2067 N 0.95858 0.83172 0.71897 0.0
C2068 C 0.99332 0.81657 0.81549 0.0
C2069 C 0.96697 0.82464 0.75027 0.0
N2070 N 1.00822 0.77054 0.78942 0.0
N2071 N 0.93723 0.85853 0.77739 0.0
H2072 H 0.96249 0.81884 0.69644 0.0
H2073 H 0.94931 0.85124 0.71563 0.0
H2074 H 0.93069 0.87131 0.7981 0.0
H2075 H 0.9235 0.85802 0.75429 0.0
H2076 H 1.00939 0.75329 0.76889 0.0
H2077 H 1.00939 0.75329 0.76889 0.0
H2078 H 1.02465 0.79931 0.84789 0.0
H2079 H 1.01313 0.83273 0.86754 0.0
C2080 C 0.18384 0.06818 0.97967 0.0
C2081 C 0.17964 0.0798 0.9481 0.0
C2082 C 0.12986 0.09065 0.96604 0.0
C2083 C 0.13558 0.08177 0.99895 0.0
N2084 N 0.17549 0.07154 0.0388 0.0
N2085 N 0.14891 0.10962 0.91794 0.0
C2086 C 0.16464 0.07308 1.00595 0.0
C2087 C 0.15253 0.09284 0.94324 0.0
N2088 N 0.20578 0.05101 0.98465 0.0
N2089 N 0.10209 0.09687 0.95582 0.0
H2090 H 0.1648 0.11366 0.90234 0.0
H2091 H 0.13197 0.12265 0.91506 0.0
H2092 H 0.08553 0.09609 0.97115 0.0
H2093 H 0.09462 0.09988 0.93112 0.0
H2094 H 0.20825 0.03931 1.00501 0.0
H2095 H 0.21906 0.04537 0.9664 0.0
H2096 H 0.19736 0.06859 0.04679 0.0
H2097 H 0.16364 0.07661 0.05862 0.0
C2098 C 0.79886 0.41519 0.71692 0.0
C2099 C 0.78194 0.3938 0.68762 0.0
C2100 C 0.79366 0.3508 0.71687 0.0
C2101 C 0.81276 0.37215 0.74474 0.0
N2102 N 0.83648 0.42488 0.7685 0.0
N2103 N 0.75223 0.34252 0.66962 0.0
C2104 C 0.81595 0.40439 0.74397 0.0
C2105 C 0.77642 0.36186 0.69017 0.0
N2106 N 0.79613 0.4457 0.72079 0.0
N2107 N 0.79171 0.31967 0.71561 0.0
H2108 H 0.73612 0.35056 0.65417 0.0
H2109 H 0.74519 0.31969 0.67197 0.0
H2110 H 0.80213 0.31023 0.735 0.0
H2111 H 0.78169 0.3031 0.69397 0.0
H2112 H 0.80571 0.46217 0.74265 0.0
H2113 H 0.78046 0.45367 0.70463 0.0
H2114 H 0.84267 0.44817 0.7674 0.0
H2115 H 0.84965 0.41799 0.78822 0.0
C2116 C 0.54764 0.1236 0.42869 0.0
C2117 C 0.52992 0.14744 0.43266 0.0
C2118 C 0.54231 0.15021 0.49586 0.0
C2119 C 0.55436 0.12234 0.49126 0.0
N2120 N 0.56945 0.08317 0.45183 0.0
N2121 N 0.5129 0.18521 0.47182 0.0
C2122 C 0.55731 0.10943 0.45721 0.0
C2123 C 0.5284 0.16138 0.46686 0.0
N2124 N 0.5564 0.11498 0.39801 0.0
N2125 N 0.54438 0.16671 0.52796 0.0
H2126 H 0.50545 0.19627 0.45214 0.0
H2127 H 0.50677 0.1934 0.49514 0.0
H2128 H 0.55093 0.1584 0.54994 0.0
H2129 H 0.54218 0.1899 0.53244 0.0
H2130 H 0.57175 0.10022 0.39439 0.0
H2131 H 0.55116 0.12498 0.37689 0.0
H2132 H 0.56783 0.06948 0.42779 0.0
H2133 H 0.58017 0.07432 0.4717 0.0
C2134 C 0.86065 0.68787 0.12369 0.0
C2135 C 0.83359 0.66752 0.10838 0.0
C2136 C 0.81629 0.67143 0.16272 0.0
C2137 C 0.83843 0.69832 0.17481 0.0
N2138 N 0.88725 0.72614 0.17346 0.0
N2139 N 0.79337 0.62905 0.11672 0.0
C2140 C 0.8631 0.70391 0.15778 0.0
C2141 C 0.81447 0.65508 0.12928 0.0
N2142 N 0.88255 0.69295 0.10451 0.0
N2143 N 0.79548 0.66235 0.18173 0.0
H2144 H 0.79293 0.61523 0.093 0.0
H2145 H 0.77807 0.62032 0.13123 0.0
H2146 H 0.79556 0.67356 0.20668 0.0
H2147 H 0.79556 0.67356 0.20668 0.0
H2148 H 0.90305 0.70774 0.11344 0.0
H2149 H 0.88016 0.68072 0.07948 0.0
H2150 H 0.90577 0.7326 0.16228 0.0
H2151 H 0.88875 0.73757 0.19865 0.0
C2152 C 0.18709 0.06031 0.71757 0.0
C2153 C 0.1764 0.06911 0.74881 0.0
C2154 C 0.12893 0.07478 0.71332 0.0
C2155 C 0.14103 0.07033 0.68249 0.0
N2156 N 0.18524 0.06409 0.65761 0.0
N2157 N 0.13924 0.09387 0.7744 0.0
C2158 C 0.1711 0.06441 0.68528 0.0
C2159 C 0.14787 0.0788 0.74604 0.0
N2160 N 0.21203 0.04693 0.71825 0.0
N2161 N 0.09883 0.07402 0.71168 0.0
H2162 H 0.15306 0.10019 0.79822 0.0
H2163 H 0.12002 0.10383 0.77324 0.0
H2164 H 0.08382 0.06918 0.68865 0.0
H2165 H 0.08841 0.07426 0.7331 0.0
H2166 H 0.21921 0.0371 0.69621 0.0
H2167 H 0.22376 0.04282 0.7407 0.0
H2168 H 0.20799 0.06332 0.65895 0.0
H2169 H 0.17509 0.06768 0.63412 0.0
C2170 C 0.75463 0.38225 0.45168 0.0
C2171 C 0.76491 0.37713 0.48524 0.0
C2172 C 0.78829 0.33456 0.4568 0.0
C2173 C 0.78437 0.3448 0.42493 0.0
N2174 N 0.75582 0.37328 0.39048 0.0
N2175 N 0.79139 0.34548 0.51831 0.0
C2176 C 0.76512 0.36714 0.42197 0.0
C2177 C 0.78127 0.35215 0.48727 0.0
N2178 N 0.73323 0.40037 0.44804 0.0
N2179 N 0.79698 0.30658 0.45759 0.0
H2180 H 0.78579 0.35543 0.54116 0.0
H2181 H 0.80727 0.33132 0.52176 0.0
H2182 H 0.79955 0.29191 0.43557 0.0
H2183 H 0.79747 0.29595 0.47881 0.0
H2184 H 0.72285 0.40404 0.42475 0.0
H2185 H 0.72353 0.40949 0.4685 0.0
H2186 H 0.74651 0.39258 0.38646 0.0
H2187 H 0.75652 0.35823 0.36801 0.0
C2188 C 0.55278 0.14866 0.23271 0.0
C2189 C 0.52196 0.13804 0.23379 0.0
C2190 C 0.51989 0.10065 0.17972 0.0
C2191 C 0.55077 0.11141 0.17853 0.0
N2192 N 0.59813 0.13643 0.21365 0.0
N2193 N 0.47449 0.11328 0.19844 0.0
C2194 C 0.5676 0.13302 0.20766 0.0
C2195 C 0.50501 0.11671 0.20449 0.0
N2196 N 0.56759 0.1755 0.25384 0.0
N2197 N 0.50508 0.07326 0.15965 0.0
H2198 H 0.46282 0.12746 0.21267 0.0
H2199 H 0.46127 0.1002 0.17599 0.0
H2200 H 0.51579 0.05782 0.14568 0.0
H2201 H 0.48339 0.06327 0.16147 0.0
H2202 H 0.58911 0.18601 0.25202 0.0
H2203 H 0.55679 0.18973 0.26933 0.0
H2204 H 0.61143 0.14957 0.236 0.0
H2205 H 0.60975 0.12236 0.19913 0.0
C2206 C 0.82816 0.75609 0.95383 0.0
C2207 C 0.79807 0.74428 0.9561 0.0
C2208 C 0.78167 0.78742 0.9324 0.0
C2209 C 0.81118 0.79721 0.92637 0.0
N2210 N 0.86334 0.80116 0.94881 0.0
N2211 N 0.74937 0.75646 0.96172 0.0
C2212 C 0.83484 0.7847 0.94245 0.0
C2213 C 0.77571 0.76228 0.94969 0.0
N2214 N 0.85031 0.73997 0.96228 0.0
N2215 N 0.75903 0.80181 0.92144 0.0
H2216 H 0.74482 0.73894 0.97559 0.0
H2217 H 0.73332 0.77073 0.96083 0.0
H2218 H 0.76268 0.82414 0.91618 0.0
H2219 H 0.7368 0.79084 0.91756 0.0
H2220 H 0.87211 0.74586 0.95781 0.0
H2221 H 0.84638 0.71979 0.97223 0.0
H2222 H 0.88123 0.79461 0.9632 0.0
H2223 H 0.86815 0.82321 0.94302 0.0
C2224 C 0.98783 0.17791 0.04623 0.0
C2225 C 0.97644 0.18805 0.07684 0.0
C2226 C 1.01042 0.15775 0.10581 0.0
C2227 C 1.01819 0.14374 0.0742 0.0
N2228 N 1.01195 0.14042 0.01341 0.0
N2229 N 0.9737 0.18092 0.13449 0.0
C2230 C 1.00602 0.15378 0.04418 0.0
C2231 C 0.98704 0.17625 0.10626 0.0
N2232 N 0.98222 0.19239 0.01922 0.0
N2233 N 1.02574 0.15419 0.1361 0.0
H2234 H 0.95659 0.19376 0.13629 0.0
H2235 H 0.97771 0.16957 0.15491 0.0
H2236 H 0.04252 0.141 0.13775 0.0
H2237 H 1.02354 0.16663 0.15965 0.0
H2238 H 0.99186 0.18862 0.99733 0.0
H2239 H 0.97042 0.21075 0.02029 0.0
H2240 H 1.00146 0.14399 0.99007 0.0
H2241 H 1.02581 0.12388 0.01117 0.0
C2242 C 0.4652 0.51175 0.1087 0.0
C2243 C 0.4634 0.52389 0.14303 0.0
C2244 C 0.51515 0.55212 0.15082 0.0
C2245 C 0.51693 0.53969 0.11608 0.0
N2246 N 0.4984 0.49374 0.07202 0.0
N2247 N 0.48965 0.54972 0.19914 0.0
C2248 C 0.49337 0.51539 0.09784 0.0
C2249 C 0.48941 0.54181 0.16484 0.0
N2250 N 0.44001 0.49741 0.08585 0.0
N2251 N 0.53712 0.5738 0.17174 0.0
H2252 H 0.47159 0.54228 0.21072 0.0
H2253 H 0.50832 0.56301 0.21599 0.0
H2254 H 0.55677 0.58391 0.1648 0.0
H2255 H 0.55677 0.58391 0.1648 0.0
H2256 H 0.44027 0.49084 0.05981 0.0
H2257 H 0.41856 0.49519 0.09207 0.0
H2258 H 0.48209 0.47469 0.05956 0.0
H2259 H 0.51987 0.49166 0.0673 0.0
C2260 C 0.36851 0.68076 0.8414 0.0
C2261 C 0.39822 0.67594 0.8341 0.0
C2262 C 0.40378 0.73489 0.83122 0.0
C2263 C 0.37553 0.73967 0.84215 0.0
N2264 N 0.3353 0.71413 0.86504 0.0
N2265 N 0.44512 0.70526 0.82761 0.0
C2266 C 0.35949 0.7116 0.84918 0.0
C2267 C 0.41583 0.70512 0.83049 0.0
N2268 N 0.3469 0.65541 0.83877 0.0
N2269 N 0.41922 0.75877 0.81988 0.0
H2270 H 0.4547 0.68544 0.82709 0.0
H2271 H 0.46049 0.72543 0.82893 0.0
H2272 H 0.41188 0.77986 0.81998 0.0
H2273 H 0.4375 0.75667 0.80751 0.0
H2274 H 0.32441 0.65663 0.83919 0.0
H2275 H 0.35018 0.63307 0.83139 0.0
H2276 H 0.32471 0.69633 0.87544 0.0
H2277 H 0.32799 0.73512 0.87133 0.0
C2278 C 0.30383 0.73484 0.56368 0.0
C2279 C 0.32441 0.71959 0.58128 0.0
C2280 C 0.28311 0.68604 0.5967 0.0
C2281 C 0.26302 0.70336 0.582 0.0
N2282 N 0.25333 0.74544 0.55366 0.0
N2283 N 0.33429 0.68503 0.62053 0.0
C2284 C 0.2731 0.7281 0.56601 0.0
C2285 C 0.3143 0.69618 0.59927 0.0
N2286 N 0.3137 0.75494 0.5437 0.0
N2287 N 0.27233 0.65993 0.60818 0.0
H2288 H 0.35742 0.69215 0.624 0.0
H2289 H 0.3279 0.67051 0.63705 0.0
H2290 H 0.24952 0.65221 0.60743 0.0
H2291 H 0.28574 0.64448 0.61569 0.0
H2292 H 0.2997 0.76479 0.52764 0.0
H2293 H 0.3359 0.75888 0.54018 0.0
H2294 H 0.25979 0.7661 0.54551 0.0
H2295 H 0.23029 0.74017 0.55335 0.0
C2296 C 0.75247 0.94794 0.88339 0.0
C2297 C 0.73777 0.95321 0.85108 0.0
C2298 C 0.76827 0.91722 0.82348 0.0
C2299 C 0.77952 0.90909 0.8552 0.0
N2300 N 0.77564 0.91266 0.91454 0.0
N2301 N 0.73013 0.93703 0.78948 0.0
C2302 C 0.76979 0.92343 0.88485 0.0
C2303 C 0.74489 0.93573 0.82099 0.0
N2304 N 0.75007 0.96609 0.91343 0.0
N2305 N 0.78158 0.9094 0.79574 0.0
H2306 H 0.7146 0.95131 0.78527 0.0
H2307 H 0.73161 0.92178 0.76741 0.0
H2308 H 0.80015 0.89844 0.79676 0.0
H2309 H 0.77684 0.91735 0.77299 0.0
H2310 H 0.76405 0.96666 0.93642 0.0
H2311 H 0.73494 0.98121 0.91581 0.0
H2312 H 0.76678 0.91998 0.9363 0.0
H2313 H 0.78664 0.89399 0.91644 0.0
C2314 C 0.8052 0.0505 0.68391 0.0
C2315 C 0.81089 0.02631 0.65915 0.0
C2316 C 0.76223 0.02498 0.62397 0.0
C2317 C 0.75949 0.05274 0.6452 0.0
N2318 N 0.77667 0.09174 0.69613 0.0
N2319 N 0.79507 0.99046 0.60519 0.0
C2320 C 0.7802 0.06515 0.67581 0.0
C2321 C 0.78918 1.01316 0.62934 0.0
N2322 N 0.82403 0.05996 0.71465 0.0
N2323 N 0.73899 1.01001 0.5986 0.0
H2324 H 0.81414 0.98045 0.60843 0.0
H2325 H 0.78206 0.98283 0.581 0.0
H2326 H 0.71902 1.01833 0.59374 0.0
H2327 H 0.7383 0.988 0.58448 0.0
H2328 H 0.81962 0.07535 0.73497 0.0
H2329 H 0.84314 0.05066 0.721 0.0
H2330 H 0.79262 0.10421 0.71672 0.0
H2331 H 0.75805 0.10229 0.69139 0.0
C2332 C 0.41905 0.47594 0.84344 0.0
C2333 C 0.40355 0.49545 0.82452 0.0
C2334 C 0.36017 0.44763 0.81204 0.0
C2335 C 0.37458 0.43099 0.83597 0.0
N2336 N 0.41638 0.43994 0.88269 0.0
N2337 N 0.35807 0.49462 0.78643 0.0
C2338 C 0.40356 0.44829 0.85368 0.0
C2339 C 0.37358 0.47958 0.80788 0.0
N2340 N 0.44954 0.4824 0.85073 0.0
N2341 N 0.33367 0.43257 0.79226 0.0
H2342 H 0.3675 0.51585 0.78122 0.0
H2343 H 0.33583 0.48706 0.77481 0.0
H2344 H 0.32363 0.41056 0.79466 0.0
H2345 H 0.32228 0.44075 0.77241 0.0
H2346 H 0.46215 0.46775 0.86166 0.0
H2347 H 0.46224 0.4996 0.84155 0.0
H2348 H 0.43603 0.45284 0.898 0.0
H2349 H 0.40513 0.42377 0.89458 0.0
C2350 C 0.23248 0.59414 0.29341 0.0
C2351 C 0.21247 0.59953 0.31703 0.0
C2352 C 0.2271 0.65549 0.32113 0.0
C2353 C 0.2459 0.64977 0.29644 0.0
N2354 N 0.25785 0.61415 0.25091 0.0
N2355 N 0.1848 0.63492 0.34573 0.0
C2356 C 0.24575 0.6192 0.28 0.0
C2357 C 0.20756 0.63008 0.32806 0.0
N2358 N 0.23937 0.56546 0.28369 0.0
N2359 N 0.22926 0.68465 0.33966 0.0
H2360 H 0.17102 0.61706 0.35293 0.0
H2361 H 0.17838 0.65645 0.35121 0.0
H2362 H 0.24441 0.70369 0.33692 0.0
H2363 H 0.21797 0.68944 0.36008 0.0
H2364 H 0.25715 0.56202 0.27082 0.0
H2365 H 0.22954 0.54526 0.29034 0.0
H2366 H 0.25651 0.59221 0.23634 0.0
H2367 H 0.26622 0.63223 0.23939 0.0
C2368 C 0.6377 0.78197 0.48078 0.0
C2369 C 0.6071 0.78111 0.46743 0.0
C2370 C 0.59279 0.73822 0.49711 0.0
C2371 C 0.62296 0.74214 0.51412 0.0
N2372 N 0.67377 0.77023 0.52484 0.0
N2373 N 0.555 0.75999 0.46474 0.0
C2374 C 0.64537 0.76455 0.50646 0.0
C2375 C 0.58449 0.75942 0.47582 0.0
N2376 N 0.65955 0.79902 0.46823 0.0
N2377 N 0.57219 0.7138 0.50075 0.0
H2378 H 0.54816 0.77458 0.44854 0.0
H2379 H 0.53736 0.74747 0.47325 0.0
H2380 H 0.57744 0.6979 0.51602 0.0
H2381 H 0.55063 0.70773 0.48651 0.0
H2382 H 0.68226 0.79824 0.47422 0.0
H2383 H 0.6547 0.81157 0.44904 0.0
H2384 H 0.69021 0.78864 0.52324 0.0
H2385 H 0.6803 0.75813 0.5439 0.0
C2386 C 0.68486 0.30102 0.82737 0.0
C2387 C 0.6709 0.31575 0.80162 0.0
C2388 C 0.72327 0.33512 0.79207 0.0
C2389 C 0.73762 0.32124 0.81851 0.0
N2390 N 0.72997 0.29405 0.8643 0.0
N2391 N 0.6792 0.35258 0.76508 0.0
C2392 C 0.71766 0.30539 0.83714 0.0
C2393 C 0.69094 0.33416 0.78556 0.0
N2394 N 0.6667 0.28113 0.84136 0.0
N2395 N 0.74066 0.34969 0.77256 0.0
H2396 H 0.65636 0.35328 0.76029 0.0
H2397 H 0.69212 0.3695 0.75563 0.0
H2398 H 0.7638 0.35538 0.77902 0.0
H2399 H 0.73223 0.35525 0.74938 0.0
H2400 H 0.67453 0.2666 0.857 0.0
H2401 H 0.64339 0.27738 0.83519 0.0
H2402 H 0.71771 0.28536 0.88159 0.0
H2403 H 0.75301 0.29541 0.87106 0.0
C2404 C 0.11376 0.47572 0.9603 0.0
C2405 C 0.09804 0.44656 0.96392 0.0
C2406 C 0.08933 0.47243 0.02015 0.0
C2407 C 0.09889 0.50231 0.01305 0.0
N2408 N 0.11979 0.53155 0.97317 0.0
N2409 N 0.06618 0.41933 0.99717 0.0
C2410 C 0.11111 0.50376 0.98232 0.0
C2411 C 0.0846 0.44549 0.99383 0.0
N2412 N 0.13282 0.47672 0.93711 0.0
N2413 N 0.08634 0.46926 0.05275 0.0
H2414 H 0.06098 0.39889 0.97915 0.0
H2415 H 0.05343 0.41902 0.01665 0.0
H2416 H 0.09233 0.48778 0.07346 0.0
H2417 H 0.08206 0.44774 0.05993 0.0
H2418 H 0.14726 0.49683 0.93574 0.0
H2419 H 0.13702 0.45687 0.92219 0.0
H2420 H 0.12433 0.53334 0.94885 0.0
H2421 H 0.12095 0.55292 0.9886 0.0
C2422 C 0.96171 0.77898 0.29991 0.0
C2423 C 0.98546 0.8039 0.29959 0.0
C2424 C 0.95215 0.8393 0.32401 0.0
C2425 C 0.92666 0.81455 0.31892 0.0
N2426 N 0.90855 0.75991 0.29896 0.0
N2427 N 1.00206 0.85891 0.31237 0.0
C2428 C 0.93199 0.78424 0.30582 0.0
C2429 C 0.98022 0.83432 0.31221 0.0
N2430 N 0.96834 0.74992 0.29723 0.0
N2431 N 0.94987 0.86793 0.34063 0.0
H2432 H 1.0232 0.85602 0.30701 0.0
H2433 H 0.99896 0.88186 0.31638 0.0
H2434 H 0.93022 0.87279 0.34864 0.0
H2435 H 0.96792 0.88623 0.34879 0.0
H2436 H 0.95347 0.73067 0.30004 0.0
H2437 H 0.99023 0.74612 0.29666 0.0
H2438 H 0.90967 0.73804 0.28567 0.0
H2439 H 0.88735 0.76221 0.3045 0.0
C2440 C 0.54999 0.3354 0.08052 0.0
C2441 C 0.51988 0.33621 0.08483 0.0
C2442 C 0.52435 0.38825 0.07133 0.0
C2443 C 0.55545 0.38867 0.07148 0.0
N2444 N 0.59896 0.36466 0.07999 0.0
N2445 N 0.47765 0.36283 0.08398 0.0
C2446 C 0.56861 0.36282 0.07718 0.0
C2447 C 0.50671 0.36239 0.07988 0.0
N2448 N 0.5602 0.30791 0.07755 0.0
N2449 N 0.51162 0.41227 0.06216 0.0
H2450 H 0.46313 0.3435 0.08716 0.0
H2451 H 0.46806 0.38268 0.08563 0.0
H2452 H 0.52392 0.43195 0.05645 0.0
H2453 H 0.48864 0.41204 0.05794 0.0
H2454 H 0.58113 0.30528 0.07144 0.0
H2455 H 0.54635 0.28694 0.07721 0.0
H2456 H 0.61019 0.34774 0.08801 0.0
H2457 H 0.61327 0.38429 0.07699 0.0
C2458 C 0.06476 0.37831 0.47921 0.0
C2459 C 0.07833 0.40416 0.50556 0.0
C2460 C 1.0298 0.41998 0.50769 0.0
C2461 C 1.01643 0.39411 0.48149 0.0
N2462 N 1.01895 0.34318 0.45181 0.0
N2463 N 0.07273 0.44401 0.55146 0.0
C2464 C 0.03325 0.37153 0.47023 0.0
C2465 C 0.0604 0.4229 0.52232 0.0
N2466 N 0.0817 0.36027 0.46232 0.0
N2467 N 1.01405 0.44279 0.51701 0.0
H2468 H 0.09543 0.44777 0.56169 0.0
H2469 H 0.06016 0.45607 0.56677 0.0
H2470 H 0.9922 0.44278 0.50554 0.0
H2471 H 1.02362 0.46319 0.53411 0.0
H2472 H 0.07298 0.34425 0.43982 0.0
H2473 H 0.10473 0.36238 0.46922 0.0
H2474 H 1.02993 0.32466 0.44573 0.0
H2475 H 0.99563 0.33706 0.44591 0.0
C2476 C 1.00111 0.69812 0.54893 0.0
C2477 C 0.98176 0.69218 0.57235 0.0
C2478 C 0.98712 0.6378 0.56143 0.0
C2479 C 1.01431 0.64712 0.55002 0.0
N2480 N 0.04306 0.68287 0.52336 0.0
N2481 N 0.94696 0.65478 0.58976 0.0
C2482 C 1.01931 0.67597 0.53943 0.0
C2483 C 0.97085 0.66107 0.57377 0.0
N2484 N 1.00414 0.72629 0.53942 0.0
N2485 N 0.97852 0.6073 0.56254 0.0
H2486 H 0.93557 0.67231 0.59863 0.0
H2487 H 0.93851 0.63288 0.59389 0.0
H2488 H 0.99112 0.59083 0.55394 0.0
H2489 H 0.95879 0.59834 0.57028 0.0
H2490 H 1.01739 0.7325 0.5218 0.0
H2491 H 0.99139 0.74261 0.54813 0.0
H2492 H 0.04992 0.70454 0.51761 0.0
H2493 H 0.05602 0.6663 0.51612 0.0
C2494 C 0.69224 0.89759 0.89359 0.0
C2495 C 0.70326 0.89411 0.92783 0.0
C2496 C 0.70159 0.83936 0.9061 0.0
C2497 C 0.6957 0.84328 0.87191 0.0
N2498 N 0.67046 0.87159 0.83504 0.0
N2499 N 0.72936 0.86302 0.96167 0.0
C2500 C 0.68675 0.87136 0.86614 0.0
C2501 C 0.7122 0.86565 0.93213 0.0
N2502 N 0.68674 0.92562 0.88717 0.0
N2503 N 0.69011 0.81233 0.91495 0.0
H2504 H 0.73981 0.88243 0.98018 0.0
H2505 H 0.73551 0.84202 0.9655 0.0
H2506 H 0.67442 0.79534 0.89778 0.0
H2507 H 0.69212 0.8096 0.94041 0.0
H2508 H 0.67903 0.9297 0.86309 0.0
H2509 H 0.69263 0.946 0.90525 0.0
H2510 H 0.66053 0.88994 0.8289 0.0
H2511 H 0.66424 0.85154 0.81617 0.0
C2512 C 0.4919 0.59273 0.69807 0.0
C2513 C 0.4997 0.58641 0.73196 0.0
C2514 C 0.55101 0.58163 0.71461 0.0
C2515 C 0.54253 0.58563 0.67997 0.0
N2516 N 0.49996 0.58793 0.63853 0.0
N2517 N 0.53709 0.5675 0.76734 0.0
C2518 C 0.5116 0.58935 0.67195 0.0
C2519 C 0.5295 0.57911 0.7386 0.0
N2520 N 0.46573 0.60324 0.69067 0.0
N2521 N 0.58045 0.58081 0.7254 0.0
H2522 H 0.52241 0.56359 0.78434 0.0
H2523 H 0.55648 0.55829 0.77231 0.0
H2524 H 0.59639 0.58199 0.70931 0.0
H2525 H 0.58958 0.58193 0.75087 0.0
H2526 H 0.45991 0.61188 0.66859 0.0
H2527 H 0.45115 0.606 0.70816 0.0
H2528 H 0.47725 0.5868 0.62971 0.0
H2529 H 0.51267 0.58506 0.61914 0.0
C2530 C 0.87305 0.29654 0.99806 0.0
C2531 C 0.89321 0.27503 0.99482 0.0
C2532 C 0.89084 0.28101 0.93398 0.0
C2533 C 0.86688 0.29835 0.9358 0.0
N2534 N 0.83198 0.31715 0.97011 0.0
N2535 N 0.92061 0.24637 0.95807 0.0
C2536 C 0.8574 0.30487 0.96812 0.0
C2537 C 0.90175 0.26722 0.96223 0.0
N2538 N 0.86869 0.3094 0.02975 0.0
N2539 N 0.90467 0.27885 0.90598 0.0
H2540 H 0.9319 0.23869 0.97855 0.0
H2541 H 0.92407 0.23574 0.93425 0.0
H2542 H 0.89835 0.2883 0.88479 0.0
H2543 H 0.9245 0.27024 0.905 0.0
H2544 H 0.85683 0.32751 0.03392 0.0
H2545 H 0.87926 0.30425 0.05218 0.0
H2546 H 0.82199 0.3192 0.99188 0.0
H2547 H 0.81885 0.32189 0.94895 0.0
C2548 C 0.11 0.53459 0.22704 0.0
C2549 C 0.13414 0.5174 0.22657 0.0
C2550 C 0.13684 0.52731 0.16763 0.0
C2551 C 0.11198 0.54311 0.16791 0.0
N2552 N 0.0701 0.55371 0.19451 0.0
N2553 N 0.16589 0.49231 0.19248 0.0
C2554 C 0.09704 0.54393 0.1965 0.0
C2555 C 0.14607 0.51225 0.19557 0.0
N2556 N 0.1008 0.54464 0.25712 0.0
N2557 N 0.15238 0.52749 0.14109 0.0
H2558 H 0.17239 0.4804 0.21175 0.0
H2559 H 0.17353 0.48521 0.16983 0.0
H2560 H 0.14569 0.53702 0.11987 0.0
H2561 H 0.17279 0.51993 0.14102 0.0
H2562 H 0.08606 0.56025 0.25944 0.0
H2563 H 0.10997 0.54045 0.28064 0.0
H2564 H 0.0564 0.552 0.21294 0.0
H2565 H 0.06002 0.56029 0.17257 0.0
C2566 C 0.88627 0.89916 0.61479 0.0
C2567 C 0.86613 0.91974 0.62146 0.0
C2568 C 0.82439 0.8816 0.58708 0.0
C2569 C 0.84573 0.86578 0.57351 0.0
N2570 N 0.89241 0.84866 0.5853 0.0
N2571 N 0.81546 0.92574 0.62625 0.0
C2572 C 0.87509 0.87055 0.59192 0.0
C2573 C 0.83477 0.90914 0.61193 0.0
N2574 N 0.91595 0.9078 0.6285 0.0
N2575 N 0.79493 0.87205 0.57275 0.0
H2576 H 0.82315 0.9455 0.64526 0.0
H2577 H 0.79227 0.91895 0.62128 0.0
H2578 H 0.78807 0.85184 0.55413 0.0
H2579 H 0.77782 0.88379 0.57879 0.0
H2580 H 0.9324 0.8953 0.62187 0.0
H2581 H 0.92408 0.928 0.6466 0.0
H2582 H 0.91391 0.84985 0.59855 0.0
H2583 H 0.8838 0.82789 0.56809 0.0
C2584 C 0.49181 0.56618 0.93156 0.0
C2585 C 0.48348 0.59459 0.92497 0.0
C2586 C 0.51915 0.62114 0.97857 0.0
C2587 C 0.52521 0.59218 0.98657 0.0
N2588 N 0.51024 0.53656 0.97305 0.0
N2589 N 0.48706 0.64907 0.94565 0.0
C2590 C 0.50966 0.56463 0.96355 0.0
C2591 C 0.49648 0.62201 0.94966 0.0
N2592 N 0.48289 0.54024 0.90679 0.0
N2593 N 0.53612 0.64805 0.9975 0.0
H2594 H 0.47164 0.65063 0.92455 0.0
H2595 H 0.49284 0.66925 0.96421 0.0
H2596 H 0.55311 0.64848 0.01784 0.0
H2597 H 0.53527 0.66973 0.99121 0.0
H2598 H 0.49108 0.51973 0.90785 0.0
H2599 H 0.46921 0.54026 0.88388 0.0
H2600 H 0.49677 0.516 0.95937 0.0
H2601 H 0.52145 0.53416 0.99657 0.0
C2602 C 0.918 0.31096 0.21945 0.0
C2603 C 0.89925 0.28692 0.19367 0.0
C2604 C 0.85927 0.28954 0.23015 0.0
C2605 C 0.8767 0.31553 0.25412 0.0
N2606 N 0.9226 0.35255 0.26929 0.0
N2607 N 0.84838 0.25904 0.17298 0.0
C2608 C 0.9061 0.32658 0.24803 0.0
C2609 C 0.86899 0.27783 0.19879 0.0
N2610 N 0.94765 0.31821 0.2174 0.0
N2611 N 0.83355 0.27464 0.23797 0.0
H2612 H 0.85333 0.24953 0.14968 0.0
H2613 H 0.8254 0.25537 0.17327 0.0
H2614 H 0.82694 0.28072 0.26141 0.0
H2615 H 0.82138 0.25361 0.2238 0.0
H2616 H 0.96345 0.33301 0.23659 0.0
H2617 H 0.95697 0.30731 0.19755 0.0
H2618 H 0.9427 0.36423 0.26476 0.0
H2619 H 0.91505 0.36356 0.29055 0.0
C2620 C 0.12133 0.55822 0.41677 0.0
C2621 C 0.14882 0.54671 0.42335 0.0
C2622 C 0.15052 0.56733 0.48477 0.0
C2623 C 0.12109 0.57461 0.47928 0.0
N2624 N 0.077 0.57259 0.43767 0.0
N2625 N 0.18268 0.53175 0.46638 0.0
C2626 C 0.1059 0.56816 0.44458 0.0
C2627 C 0.1611 0.5486 0.45818 0.0
N2628 N 0.11077 0.56214 0.3846 0.0
N2629 N 0.16961 0.57936 0.51466 0.0
H2630 H 0.18931 0.5158 0.44818 0.0
H2631 H 0.19092 0.53074 0.49153 0.0
H2632 H 0.16434 0.59453 0.53436 0.0
H2633 H 0.19226 0.57777 0.51748 0.0
H2634 H 0.09287 0.57349 0.37921 0.0
H2635 H 0.12151 0.55718 0.36382 0.0
H2636 H 0.06358 0.56459 0.41373 0.0
H2637 H 0.06597 0.58285 0.45623 0.0
C2638 C 0.86758 0.90659 0.73008 0.0
C2639 C 0.88294 0.93672 0.74752 0.0
C2640 C 0.87806 0.92027 0.80138 0.0
C2641 C 0.8685 0.88895 0.78443 0.0
N2642 N 0.85743 0.85167 0.73171 0.0
N2643 N 0.91062 0.9679 0.80099 0.0
C2644 C 0.8646 0.8818 0.74842 0.0
C2645 C 0.89068 0.94227 0.78354 0.0
N2646 N 0.85337 0.90213 0.69713 0.0
N2647 N 0.87331 0.92974 0.83375 0.0
H2648 H 0.92263 0.98342 0.78889 0.0
H2649 H 0.91801 0.97128 0.82729 0.0
H2650 H 0.8602 0.91533 0.84587 0.0
H2651 H 0.87836 0.95293 0.84606 0.0
H2652 H 0.84037 0.88107 0.68408 0.0
H2653 H 0.85072 0.92058 0.68494 0.0
H2654 H 0.85708 0.84522 0.70554 0.0
H2655 H 0.8541 0.83317 0.74453 0.0
C2656 C 0.69967 0.49766 0.62157 0.0
C2657 C 0.6983 0.47684 0.58995 0.0
C2658 C 0.65738 0.50116 0.56462 0.0
C2659 C 0.6573 0.52116 0.59667 0.0
N2660 N 0.67531 0.53261 0.65731 0.0
N2661 N 0.6701 0.45406 0.53446 0.0
C2662 C 0.67767 0.51773 0.62559 0.0
C2663 C 0.67529 0.47723 0.56263 0.0
N2664 N 0.72272 0.49918 0.64766 0.0
N2665 N 0.64181 0.50597 0.53501 0.0
H2666 H 0.68257 0.43625 0.53229 0.0
H2667 H 0.65149 0.45054 0.51517 0.0
H2668 H 0.62947 0.52354 0.53376 0.0
H2669 H 0.6441 0.49496 0.51085 0.0
H2670 H 0.72747 0.51629 0.66967 0.0
H2671 H 0.7384 0.4845 0.64628 0.0
H2672 H 0.68702 0.52863 0.67981 0.0
H2673 H 0.65962 0.54693 0.6613 0.0
C2674 C 0.19822 0.106 0.50776 0.0
C2675 C 0.21769 0.13469 0.52248 0.0
C2676 C 0.19429 0.13303 0.57368 0.0
C2677 C 0.16866 0.11215 0.55409 0.0
N2678 N 0.14882 0.07521 0.50122 0.0
N2679 N 0.23592 0.17335 0.57458 0.0
C2680 C 0.17111 0.09776 0.52053 0.0
C2681 C 0.21598 0.14786 0.55682 0.0
N2682 N 0.2073 0.0845 0.48528 0.0
N2683 N 0.19975 0.13643 0.60848 0.0
H2684 H 0.25568 0.18197 0.56684 0.0
H2685 H 0.23248 0.18596 0.5975 0.0
H2686 H 0.18749 0.12204 0.62156 0.0
H2687 H 0.21927 0.14968 0.62369 0.0
H2688 H 0.19486 0.06225 0.47615 0.0
H2689 H 0.22926 0.08689 0.48085 0.0
H2690 H 0.14872 0.06703 0.47537 0.0
H2691 H 0.13056 0.06491 0.51057 0.0
C2692 C 0.26909 0.97311 0.82437 0.0
C2693 C 0.26652 0.9902 0.85765 0.0
C2694 C 0.29185 0.94708 0.88005 0.0
C2695 C 0.29265 0.92896 0.84681 0.0
N2696 N 0.27588 0.92559 0.78688 0.0
N2697 N 0.27075 0.98531 0.91668 0.0
C2698 C 0.27919 0.94237 0.81915 0.0
C2699 C 0.27694 0.97478 0.88509 0.0
N2700 N 0.26351 0.98707 0.79698 0.0
N2701 N 0.3054 0.93773 0.908 0.0
H2702 H 0.2589 1.00335 0.92137 0.0
H2703 H 0.27398 0.97397 0.9372 0.0
H2704 H 0.31399 0.91724 0.90649 0.0
H2705 H 0.30985 0.95129 0.93238 0.0
H2706 H 0.26812 0.97882 0.77291 0.0
H2707 H 0.25695 1.00862 0.79907 0.0
H2708 H 0.26319 0.93082 0.76572 0.0
H2709 H 0.28401 0.90494 0.78177 0.0
C2710 C 0.36432 0.93303 0.06076 0.0
C2711 C 0.34949 0.94957 0.08441 0.0
C2712 C 0.39562 0.9872 0.10772 0.0
C2713 C 0.40944 0.97213 0.08207 0.0
N2714 N 0.40671 0.93398 0.03104 0.0
N2715 N 0.35021 0.99204 0.13085 0.0
C2716 C 0.39385 0.94576 0.05789 0.0
C2717 C 0.36487 0.97665 0.108 0.0
N2718 N 0.35002 0.90539 0.04064 0.0
N2719 N 0.41233 1.01081 0.13246 0.0
H2720 H 0.32874 0.98348 0.13469 0.0
H2721 H 0.35871 1.01411 0.14523 0.0
H2722 H 0.43498 1.01909 0.13289 0.0
H2723 H 0.40463 0.02098 0.15392 0.0
H2724 H 0.36085 0.89036 0.02623 0.0
H2725 H 0.32742 0.8966 0.03944 0.0
H2726 H 0.39513 0.91728 1.01023 0.0
H2727 H 0.42842 0.94263 0.02791 0.0
C2728 C 0.93741 0.73829 0.8113 0.0
C2729 C 0.95126 0.73271 0.84344 0.0
C2730 C 0.91748 0.76341 0.87118 0.0
C2731 C 0.90517 0.77139 0.83998 0.0
N2732 N 0.90976 0.77147 0.78112 0.0
N2733 N 0.96069 0.75063 0.90432 0.0
C2734 C 0.91704 0.76032 0.81021 0.0
C2735 C 0.94339 0.74905 0.87334 0.0
N2736 N 0.94251 0.72184 0.78164 0.0
N2737 N 0.90327 0.76765 0.89867 0.0
H2738 H 0.95745 0.76424 0.92672 0.0
H2739 H 0.98026 0.7412 0.90666 0.0
H2740 H 0.88245 0.77451 0.89693 0.0
H2741 H 0.90998 0.76015 0.92128 0.0
H2742 H 0.93048 0.72219 0.75776 0.0
H2743 H 0.95765 0.70662 0.78096 0.0
H2744 H 0.91995 0.76687 0.75974 0.0
H2745 H 0.89557 0.78762 0.77958 0.0
C2746 C 0.88043 0.64551 0.97682 0.0
C2747 C 0.85179 0.62843 0.97711 0.0
C2748 C 0.87596 0.58817 0.99781 0.0
C2749 C 0.90397 0.60873 1.00583 0.0
N2750 N 0.93154 0.66006 1.00669 0.0
N2751 N 0.82309 0.58611 0.99626 0.0
C2752 C 0.90612 0.63815 0.99584 0.0
C2753 C 0.84958 0.60011 0.98928 0.0
N2754 N 0.88288 0.66924 0.95924 0.0
N2755 N 0.87439 0.55739 0.99856 0.0
H2756 H 0.80378 0.59583 0.9943 0.0
H2757 H 0.8214 0.56683 1.008 0.0
H2758 H 0.89345 0.54747 1.00314 0.0
H2759 H 0.85442 0.5414 0.99053 0.0
H2760 H 0.90346 0.68111 0.9561 0.0
H2761 H 0.86418 0.67442 0.94472 0.0
H2762 H 0.93299 0.68264 1.00227 0.0
H2763 H 0.94997 0.65689 0.02328 0.0
C2764 C 0.29187 0.17519 0.85044 0.0
C2765 C 0.26527 0.16835 0.8656 0.0
C2766 C 0.26775 0.22766 0.87609 0.0
C2767 C 0.29268 0.23435 0.85845 0.0
N2768 N 0.32672 0.211 0.82686 0.0
N2769 N 0.2276 0.19151 0.89096 0.0
C2770 C 0.30436 0.20698 0.84566 0.0
C2771 C 0.25344 0.19577 0.87771 0.0
N2772 N 0.30535 0.15088 0.83977 0.0
N2773 N 0.2583 0.25244 0.89339 0.0
H2774 H 0.21826 0.17023 0.89612 0.0
H2775 H 0.21461 0.20855 0.89537 0.0
H2776 H 0.26794 0.27526 0.89351 0.0
H2777 H 0.24322 0.2507 0.91034 0.0
H2778 H 0.32631 0.15323 0.8324 0.0
H2779 H 0.29629 0.12809 0.84048 0.0
H2780 H 0.33465 0.19297 0.8131 0.0
H2781 H 0.33624 0.2328 0.82325 0.0
C2782 C 0.46304 0.04983 0.35229 0.0
C2783 C 0.45015 0.06942 0.33212 0.0
C2784 C 0.40351 0.031 0.31558 0.0
C2785 C 0.41485 1.01406 0.33981 0.0
N2786 N 0.45414 1.00868 0.38414 0.0
N2787 N 0.40893 0.07805 0.29231 0.0
C2788 C 0.4445 0.0234 0.35843 0.0
C2789 C 0.4206 0.05979 0.31305 0.0
N2790 N 0.49266 0.05707 0.36687 0.0
N2791 N 0.37689 1.01884 0.29413 0.0
H2792 H 0.42173 0.0971 0.28604 0.0
H2793 H 0.38627 0.07497 0.28204 0.0
H2794 H 0.36422 0.99745 0.29491 0.0
H2795 H 0.36846 0.02841 0.2737 0.0
H2796 H 0.50417 0.0417 0.37787 0.0
H2797 H 0.5064 0.0778 0.36638 0.0
H2798 H 0.47407 1.01676 0.4014 0.0
H2799 H 0.44106 0.98997 0.39068 0.0
C2800 C 0.54207 0.3952 0.7174 0.0
C2801 C 0.56355 0.37573 0.71288 0.0
C2802 C 0.5758 0.39906 0.66381 0.0
C2803 C 0.55383 0.41833 0.66798 0.0
N2804 N 0.51896 0.43713 0.70318 0.0
N2805 N 0.6058 0.36426 0.68745 0.0
C2806 C 0.53814 0.41732 0.69606 0.0
C2807 C 0.58214 0.37959 0.688 0.0
N2808 N 0.52492 0.39248 0.74221 0.0
N2809 N 0.58918 0.39774 0.63546 0.0
H2810 H 0.61064 0.34991 0.7048 0.0
H2811 H 0.62208 0.36791 0.67222 0.0
H2812 H 0.58463 0.4108 0.61671 0.0
H2813 H 0.60287 0.38184 0.62889 0.0
H2814 H 0.50839 0.40584 0.74608 0.0
H2815 H 0.5277 0.37715 0.759 0.0
H2816 H 0.51504 0.45462 0.68962 0.0
H2817 H 0.51504 0.45462 0.68962 0.0
C2818 C 0.491 0.87414 0.39626 0.0
C2819 C 0.50632 0.85217 0.379 0.0
C2820 C 0.45528 0.82679 0.34397 0.0
C2821 C 0.44035 0.84969 0.36052 0.0
N2822 N 0.4481 0.90039 0.39611 0.0
N2823 N 0.50194 0.80881 0.33324 0.0
C2824 C 0.45953 0.87467 0.38487 0.0
C2825 C 0.48802 0.82909 0.3517 0.0
N2826 N 0.5066 0.89504 0.42422 0.0
N2827 N 0.43798 0.80169 0.32204 0.0
H2828 H 0.52492 0.80906 0.33899 0.0
H2829 H 0.49142 0.79349 0.31088 0.0
H2830 H 0.41479 0.79954 0.31564 0.0
H2831 H 0.44613 0.78225 0.31174 0.0
H2832 H 0.49635 0.90859 0.44107 0.0
H2833 H 0.52974 0.89776 0.43167 0.0
H2834 H 0.4612 0.92089 0.41038 0.0
H2835 H 0.42616 0.9027 0.38773 0.0
C2836 C 0.05968 0.68969 0.21329 0.0
C2837 C 0.06957 0.72069 0.20965 0.0
C2838 C 0.08391 0.69993 0.15434 0.0
C2839 C 0.07655 0.66884 0.15931 0.0
N2840 N 0.06501 0.63581 0.19955 0.0
N2841 N 0.09963 0.75403 0.18055 0.0
C2842 C 0.06631 0.66416 0.19038 0.0
C2843 C 0.08417 0.7254 0.18133 0.0
N2844 N 0.04358 0.68443 0.23847 0.0
N2845 N 0.08967 0.70558 0.12335 0.0
H2846 H 0.10122 0.77342 0.19949 0.0
H2847 H 0.11357 0.75791 0.16278 0.0
H2848 H 0.08835 0.68821 0.10223 0.0
H2849 H 0.0926 0.72766 0.11741 0.0
H2850 H 0.03276 0.66245 0.24004 0.0
H2851 H 0.03878 0.70234 0.25591 0.0
H2852 H 0.06043 0.63171 0.22319 0.0
H2853 H 0.07224 0.61738 0.18554 0.0
C2854 C 0.19926 0.35581 0.9069 0.0
C2855 C 0.17686 0.36165 0.88086 0.0
C2856 C 0.21892 0.36579 0.84598 0.0
C2857 C 0.23897 0.35398 0.86915 0.0
N2858 N 0.24374 0.3334 0.92115 0.0
N2859 N 0.16803 0.36785 0.8214 0.0
C2860 C 0.22777 0.34781 0.89939 0.0
C2861 C 0.18755 0.36544 0.84935 0.0
N2862 N 0.19463 0.36002 0.93997 0.0
N2863 N 0.23011 0.37936 0.82126 0.0
H2864 H 0.14562 0.36892 0.82116 0.0
H2865 H 0.17378 0.36615 0.7971 0.0
H2866 H 0.25274 0.38226 0.81912 0.0
H2867 H 0.21786 0.39145 0.80595 0.0
H2868 H 0.21092 0.35881 0.96036 0.0
H2869 H 0.17653 0.36913 0.94775 0.0
H2870 H 0.2352 0.32498 0.94117 0.0
H2871 H 0.26417 0.32718 0.91736 0.0
C2872 C 0.6226 0.80596 0.02583 0.0
C2873 C 0.65364 0.81852 0.03117 0.0
C2874 C 0.66418 0.78286 0.06963 0.0
C2875 C 0.63315 0.76999 0.0635 0.0
N2876 N 0.58417 0.76312 0.02895 0.0
N2877 N 0.70463 0.81433 0.05095 0.0
C2878 C 0.61271 0.77958 0.03939 0.0
C2879 C 0.67472 0.80555 0.05094 0.0
N2880 N 0.60285 0.8212 1.0098 0.0
N2881 N 0.68332 0.77394 0.09384 0.0
H2882 H 0.71264 0.83008 0.03632 0.0
H2883 H 0.72114 0.80387 0.06251 0.0
H2884 H 0.67631 0.7571 0.10769 0.0
H2885 H 0.70563 0.78468 0.10192 0.0
H2886 H 0.57959 0.81577 1.00746 0.0
H2887 H 0.57959 0.81577 1.00746 0.0
H2888 H 0.56962 0.76661 1.00818 0.0
H2889 H 0.57584 0.74394 0.03888 0.0
C2890 C 0.10078 0.7189 0.6949 0.0
C2891 C 0.09231 0.73992 0.6742 0.0
C2892 C 0.14401 0.76588 0.68161 0.0
C2893 C 0.15178 0.7482 0.7067 0.0
N2894 N 0.13772 0.70867 0.73895 0.0
N2895 N 0.10699 0.78077 0.64353 0.0
C2896 C 0.13034 0.72445 0.71345 0.0
C2897 C 0.11409 0.76229 0.66608 0.0
N2898 N 0.08035 0.6938 0.69682 0.0
N2899 N 0.16463 0.78699 0.67237 0.0
H2900 H 0.08541 0.77902 0.63009 0.0
H2901 H 0.08541 0.77902 0.63009 0.0
H2902 H 0.18755 0.79108 0.68209 0.0
H2903 H 0.18755 0.79108 0.68209 0.0
H2904 H 0.08558 0.67638 0.70968 0.0
H2905 H 0.05857 0.68943 0.68313 0.0
H2906 H 0.12216 0.69378 0.7479 0.0
H2907 H 0.15928 0.71205 0.75305 0.0
C2908 C 0.15202 0.49391 0.59179 0.0
C2909 C 0.17212 0.49928 0.56868 0.0
C2910 C 0.17393 0.55499 0.58663 0.0
C2911 C 0.14605 0.54807 0.59736 0.0
N2912 N 0.11236 0.51258 0.619 0.0
N2913 N 0.21149 0.53504 0.55579 0.0
C2914 C 0.137 0.51814 0.60396 0.0
C2915 C 0.18634 0.5301 0.57002 0.0
N2916 N 0.14751 0.46611 0.60213 0.0
N2917 N 0.18752 0.58522 0.59166 0.0
H2918 H 0.22062 0.51651 0.54463 0.0
H2919 H 0.22338 0.55688 0.55561 0.0
H2920 H 0.17766 0.60287 0.60352 0.0
H2921 H 0.20845 0.5925 0.58552 0.0
H2922 H 0.13433 0.46166 0.62045 0.0
H2923 H 0.15977 0.44882 0.59551 0.0
H2924 H 0.10205 0.49049 0.62081 0.0
H2925 H 0.10185 0.53059 0.62866 0.0
C2926 C 0.46366 0.34257 0.19305 0.0
C2927 C 0.45309 0.31008 0.18906 0.0
C2928 C 0.43932 0.31887 0.24599 0.0
C2929 C 0.45268 0.35083 0.25178 0.0
N2930 N 0.48188 0.39196 0.232 0.0
N2931 N 0.43319 0.26716 0.2138 0.0
C2932 C 0.46572 0.36248 0.22541 0.0
C2933 C 0.44183 0.29835 0.21619 0.0
N2934 N 0.47233 0.35442 0.1661 0.0
N2935 N 0.42318 0.30702 0.26815 0.0
H2936 H 0.4334 0.25079 0.19216 0.0
H2937 H 0.42699 0.25769 0.23428 0.0
H2938 H 0.41838 0.32014 0.28992 0.0
H2939 H 0.41838 0.32014 0.28992 0.0
H2940 H 0.47679 0.37804 0.16579 0.0
H2941 H 0.47288 0.34045 0.14297 0.0
H2942 H 0.49467 0.40088 0.21527 0.0
H2943 H 0.48491 0.40672 0.25566 0.0
C2944 C 0.6518 0.59341 0.44125 0.0
C2945 C 0.67894 0.58033 0.44578 0.0
C2946 C 0.66409 0.57343 0.50385 0.0
C2947 C 0.63504 0.58228 0.49723 0.0
N2948 N 0.60151 0.59767 0.45438 0.0
N2949 N 0.70508 0.55133 0.48209 0.0
C2950 C 0.62926 0.59128 0.46434 0.0
C2951 C 0.68319 0.56859 0.47734 0.0
N2952 N 0.648 0.61014 0.41594 0.0
N2953 N 0.67503 0.57161 0.53657 0.0
H2954 H 0.71825 0.54572 0.46371 0.0
H2955 H 0.70761 0.53954 0.50236 0.0
H2956 H 0.66323 0.57649 0.55649 0.0
H2957 H 0.6969 0.56858 0.5444 0.0
H2958 H 0.63111 0.62326 0.41326 0.0
H2959 H 0.66369 0.61398 0.40006 0.0
H2960 H 0.59391 0.60074 0.42975 0.0
H2961 H 0.58508 0.59695 0.46987 0.0
C2962 C 0.31064 0.87079 0.18326 0.0
C2963 C 0.29001 0.89186 0.18534 0.0
C2964 C 0.29473 0.89137 0.24747 0.0
C2965 C 0.31729 0.87215 0.24596 0.0
N2966 N 0.35197 0.85153 0.21265 0.0
N2967 N 0.26729 0.9268 0.22141 0.0
C2968 C 0.32654 0.86397 0.21384 0.0
C2969 C 0.28388 0.90374 0.21812 0.0
N2970 N 0.31561 0.85734 0.15202 0.0
N2971 N 0.2817 0.89623 0.27595 0.0
H2972 H 0.25719 0.9349 0.20057 0.0
H2973 H 0.2654 0.93943 0.24498 0.0
H2974 H 0.28632 0.88602 0.29705 0.0
H2975 H 0.26315 0.90709 0.27701 0.0
H2976 H 0.32729 0.83901 0.14864 0.0
H2977 H 0.30624 0.86272 0.12913 0.0
H2978 H 0.36173 0.84798 0.19082 0.0
H2979 H 0.36551 0.84838 0.23443 0.0
C2980 C 0.03526 0.66539 0.97211 0.0
C2981 C 0.0374 0.65242 0.93782 0.0
C2982 C 0.06394 0.61356 0.96105 0.0
C2983 C 0.06142 0.62598 0.99546 0.0
N2984 N 0.05053 0.66934 0.03315 0.0
N2985 N 0.06582 0.62231 0.90342 0.0
C2986 C 0.04916 0.65374 1.00077 0.0
C2987 C 0.05555 0.62918 0.93349 0.0
N2988 N 1.01912 0.68864 0.97745 0.0
N2989 N 0.07379 0.58612 0.95411 0.0
H2990 H 0.06195 0.63395 0.88331 0.0
H2991 H 0.08138 0.60774 0.89998 0.0
H2992 H 0.08155 0.5746 0.97306 0.0
H2993 H 0.07219 0.57372 0.92938 0.0
H2994 H 1.01274 0.69618 1.00081 0.0
H2995 H 1.01141 0.69982 0.95799 0.0
H2996 H 0.04806 0.69245 0.0383 0.0
H2997 H 0.05645 0.66027 0.05477 0.0
C2998 C 0.35022 0.25302 0.57767 0.0
C2999 C 0.33877 0.2214 0.57665 0.0
C3000 C 0.34803 0.22987 0.6386 0.0
C3001 C 0.34978 0.26199 0.63864 0.0
N3002 N 0.35822 0.30535 0.61041 0.0
N3003 N 0.34379 0.17829 0.60463 0.0
C3004 C 0.35362 0.27406 0.60894 0.0
C3005 C 0.3433 0.20916 0.60678 0.0
N3006 N 0.35835 0.26243 0.54917 0.0
N3007 N 0.3486 0.21945 0.66872 0.0
H3008 H 0.34318 0.16374 0.58128 0.0
H3009 H 0.34807 0.16785 0.62567 0.0
H3010 H 0.35319 0.23463 0.69229 0.0
H3011 H 0.34422 0.19616 0.67047 0.0
H3012 H 0.36825 0.28504 0.54883 0.0
H3013 H 0.35863 0.24654 0.52707 0.0
H3014 H 0.35757 0.31554 0.58886 0.0
H3015 H 0.36174 0.32105 0.63355 0.0
C3016 C 0.68477 0.59706 0.22979 0.0
C3017 C 0.68056 0.56965 0.24422 0.0
C3018 C 0.64056 0.54611 0.19329 0.0
C3019 C 0.64623 0.57274 0.17798 0.0
N3020 N 0.67859 0.62111 0.17959 0.0
N3021 N 0.65753 0.51592 0.23536 0.0
C3022 C 0.66979 0.59739 0.19572 0.0
C3023 C 0.65927 0.54362 0.22462 0.0
N3024 N 0.70172 0.62373 0.24934 0.0
N3025 N 0.61632 0.52356 0.17871 0.0
H3026 H 0.67096 0.51306 0.2574 0.0
H3027 H 0.64502 0.49522 0.22088 0.0
H3028 H 0.60231 0.52456 0.15627 0.0
H3029 H 0.60863 0.50525 0.19021 0.0
H3030 H 0.70278 0.64526 0.24213 0.0
H3031 H 0.71252 0.62512 0.27424 0.0
H3032 H 0.69772 0.63795 0.18903 0.0
H3033 H 0.66845 0.62223 0.15506 0.0
C3034 C 0.25837 0.88411 0.95274 0.0
C3035 C 0.26648 0.8787 0.98672 0.0
C3036 C 0.29454 0.83872 0.96161 0.0
C3037 C 0.28867 0.8463 0.92833 0.0
N3038 N 0.25294 0.8657 0.89137 0.0
N3039 N 0.28318 0.84126 0.01913 0.0
C3040 C 0.26709 0.86599 0.92367 0.0
C3041 C 0.28183 0.85317 0.98985 0.0
N3042 N 0.24151 0.90633 0.94784 0.0
N3043 N 0.31187 0.81688 0.96642 0.0
H3044 H 0.27267 0.84866 0.03935 0.0
H3045 H 0.2915 0.82116 0.02201 0.0
H3046 H 0.31536 0.80054 0.94636 0.0
H3047 H 0.32256 0.81481 0.99034 0.0
H3048 H 0.23907 0.9153 0.92548 0.0
H3049 H 0.23037 0.9162 0.96654 0.0
H3050 H 0.23558 0.87772 0.88596 0.0
H3051 H 0.25533 0.84982 0.87027 0.0
C3052 C 0.05106 0.62117 0.73806 0.0
C3053 C 1.0272 0.63853 0.73913 0.0
C3054 C 1.02235 0.63345 0.6761 0.0
C3055 C 0.04829 0.61924 0.67552 0.0
N3056 N 0.08934 0.60284 0.70775 0.0
N3057 N 0.99389 0.66569 0.70898 0.0
C3058 C 0.06323 0.6142 0.70711 0.0
C3059 C 1.01374 0.64563 0.70799 0.0
N3060 N 0.06104 0.60951 0.76607 0.0
N3061 N 1.00594 0.63585 0.64603 0.0
H3062 H 0.98767 0.67564 0.73163 0.0
H3063 H 0.98593 0.67492 0.68804 0.0
H3064 H 1.01234 0.62889 0.62269 0.0
H3065 H 0.98499 0.64241 0.64418 0.0
H3066 H 0.07589 0.59396 0.76589 0.0
H3067 H 0.0522 0.6127 0.78859 0.0
H3068 H 0.10348 0.60245 0.73028 0.0
H3069 H 0.09791 0.59563 0.68571 0.0
C3070 C 0.29695 0.27041 0.45226 0.0
C3071 C 0.30112 0.23986 0.43898 0.0
C3072 C 0.31904 0.25875 0.39047 0.0
C3073 C 0.31742 0.28992 0.40505 0.0
N3074 N 0.31253 0.32559 0.45485 0.0
N3075 N 0.32531 0.20802 0.40085 0.0
C3076 C 0.30886 0.29579 0.43761 0.0
C3077 C 0.31508 0.23501 0.40986 0.0
N3078 N 0.28012 0.27516 0.47742 0.0
N3079 N 0.32238 0.25092 0.35728 0.0
H3080 H 0.3233 0.19006 0.41445 0.0
H3081 H 0.33869 0.20489 0.38208 0.0
H3082 H 0.32337 0.26669 0.34124 0.0
H3083 H 0.32047 0.22809 0.34464 0.0
H3084 H 0.27414 0.29651 0.48561 0.0
H3085 H 0.26933 0.2572 0.48743 0.0
H3086 H 0.3093 0.33116 0.48009 0.0
H3087 H 0.32132 0.34453 0.44479 0.0
C3088 C 0.48653 0.67598 0.60688 0.0
C3089 C 0.47471 0.68702 0.57743 0.0
C3090 C 0.50363 0.65269 0.5439 0.0
C3091 C 0.51712 0.64352 0.57389 0.0
N3092 N 0.52653 0.65508 0.63586 0.0
N3093 N 0.4782 0.69026 0.51897 0.0
C3094 C 0.51018 0.6579 0.60584 0.0
C3095 C 0.48509 0.67647 0.54626 0.0
N3096 N 0.4741 0.68098 0.63575 0.0
N3097 N 0.50864 0.63884 0.51288 0.0
H3098 H 0.46607 0.70836 0.52018 0.0
H3099 H 0.48713 0.68624 0.49661 0.0
H3100 H 0.52274 0.62256 0.51035 0.0
H3101 H 0.49719 0.64175 0.48971 0.0
H3102 H 0.47904 0.67012 0.65639 0.0
H3103 H 0.4568 0.69351 0.63797 0.0
H3104 H 0.52491 0.66786 0.65946 0.0
H3105 H 0.54354 0.64216 0.63717 0.0
C3106 C 0.98519 1.00574 0.64513 0.0
C3107 C 0.96801 0.02768 0.6579 0.0
C3108 C 1.00162 0.06919 0.64159 0.0
C3109 C 1.01634 0.04694 0.62466 0.0
N3110 N 1.02517 0.99443 0.61386 0.0
N3111 N 0.96444 0.08207 0.67402 0.0
C3112 C 1.00911 1.0153 0.62771 0.0
C3113 C 0.97768 0.05965 0.6581 0.0
N3114 N 0.97912 0.97605 0.65058 0.0
N3115 N 1.00929 0.10004 0.64174 0.0
H3116 H 0.9468 0.07766 0.68737 0.0
H3117 H 0.9468 0.07766 0.68737 0.0
H3118 H 1.0265 0.10951 0.63006 0.0
H3119 H 1.0265 0.10951 0.63006 0.0
H3120 H 0.99176 0.95908 0.6443 0.0
H3121 H 0.9622 0.96872 0.66373 0.0
H3122 H 1.01862 0.97053 0.61026 0.0
H3123 H 0.04524 1.00113 0.60543 0.0
C3124 C 0.88979 0.18952 0.30539 0.0
C3125 C 0.90197 0.17753 0.33473 0.0
C3126 C 0.88513 0.22508 0.3691 0.0
C3127 C 0.87459 0.2381 0.33986 0.0
N3128 N 0.8748 0.23269 0.27967 0.0
N3129 N 0.91478 0.19078 0.39594 0.0
C3130 C 0.8791 0.21991 0.30805 0.0
C3131 C 0.9003 0.19743 0.36675 0.0
N3132 N 0.88719 0.17119 0.27408 0.0
N3133 N 0.87957 0.23851 0.4 0.0
H3134 H 0.92638 0.17233 0.39571 0.0
H3135 H 0.91812 0.20527 0.41976 0.0
H3136 H 0.86925 0.25791 0.40299 0.0
H3137 H 0.88258 0.22893 0.42188 0.0
H3138 H 0.87546 0.17561 0.25182 0.0
H3139 H 0.89483 0.15013 0.27092 0.0
H3140 H 0.88032 0.22363 0.25631 0.0
H3141 H 0.86892 0.25447 0.28097 0.0
C3142 C 0.80352 0.23175 0.05878 0.0
C3143 C 0.82498 0.21692 0.07562 0.0
C3144 C 0.78491 0.18073 0.08955 0.0
C3145 C 0.76392 0.19776 0.0762 0.0
N3146 N 0.75249 0.24106 0.05096 0.0
N3147 N 0.83633 0.18181 0.11387 0.0
C3148 C 0.77295 0.22363 0.06137 0.0
C3149 C 0.81584 0.19245 0.09272 0.0
N3150 N 0.8124 0.25303 0.03961 0.0
N3151 N 0.7752 0.15337 0.09926 0.0
H3152 H 0.85926 0.19031 0.11833 0.0
H3153 H 0.83034 0.16641 0.12968 0.0
H3154 H 0.75253 0.14414 0.09727 0.0
H3155 H 0.78945 0.13843 0.10613 0.0
H3156 H 0.79762 0.26248 0.02399 0.0
H3157 H 0.83457 0.25866 0.03633 0.0
H3158 H 0.75829 0.26235 0.04382 0.0
H3159 H 0.72965 0.23526 0.05153 0.0
C3160 C 0.24035 0.43655 0.31632 0.0
C3161 C 0.2348 0.45359 0.34753 0.0
C3162 C 0.27033 0.42492 0.37844 0.0
C3163 C 0.27792 0.41061 0.34729 0.0
N3164 N 0.27468 0.41012 0.28683 0.0
N3165 N 0.24794 0.46454 0.40946 0.0
C3166 C 0.26404 0.41843 0.31643 0.0
C3167 C 0.251 0.44796 0.37879 0.0
N3168 N 0.2232 0.43726 0.28591 0.0
N3169 N 0.28051 0.41557 0.40796 0.0
H3170 H 0.23133 0.47784 0.4124 0.0
H3171 H 0.26252 0.46588 0.43218 0.0
H3172 H 0.29353 0.39835 0.40877 0.0
H3173 H 0.27408 0.42279 0.43131 0.0
H3174 H 0.22351 0.42209 0.26334 0.0
H3175 H 0.20653 0.45048 0.28319 0.0
H3176 H 0.26851 0.41843 0.26461 0.0
H3177 H 0.29229 0.39799 0.28529 0.0
C3178 C 0.32252 0.58798 0.20415 0.0
C3179 C 0.32424 0.5561 0.19855 0.0
C3180 C 0.27185 0.54327 0.1701 0.0
C3181 C 0.27231 0.57522 0.16947 0.0
N3182 N 0.29718 0.62859 0.18745 0.0
N3183 N 0.29599 0.50502 0.19447 0.0
C3184 C 0.29722 0.59785 0.1875 0.0
C3185 C 0.2974 0.53407 0.18726 0.0
N3186 N 0.34492 0.60842 0.22621 0.0
N3187 N 0.2478 0.52164 0.15263 0.0
H3188 H 0.31337 0.49917 0.21038 0.0
H3189 H 0.27646 0.4884 0.18899 0.0
H3190 H 0.22864 0.52748 0.13988 0.0
H3191 H 0.24765 0.49787 0.14875 0.0
H3192 H 0.34435 0.63183 0.23384 0.0
H3193 H 0.36256 0.60076 0.23981 0.0
H3194 H 0.31594 0.64591 0.19677 0.0
H3195 H 0.27852 0.63678 0.17683 0.0
C3196 C 0.87345 0.98055 0.30592 0.0
C3197 C 0.90204 0.99758 0.32523 0.0
C3198 C 0.90106 0.95081 0.35536 0.0
C3199 C 0.874 0.9322 0.33408 0.0
N3200 N 0.8365 0.9318 0.28585 0.0
N3201 N 0.94464 0.99258 0.36481 0.0
C3202 C 0.86083 0.94813 0.30869 0.0
C3203 C 0.91618 0.98036 0.3483 0.0
N3204 N 0.85793 0.99545 0.2843 0.0
N3205 N 0.91144 0.94196 0.3851 0.0
H3206 H 0.95532 1.01458 0.36337 0.0
H3207 H 0.9582 0.98006 0.37798 0.0
H3208 H 0.89973 0.92402 0.39425 0.0
H3209 H 0.92897 0.9553 0.40344 0.0
H3210 H 0.83589 0.98719 0.27213 0.0
H3211 H 0.86656 1.01752 0.28059 0.0
H3212 H 0.82715 0.93944 0.26439 0.0
H3213 H 0.82685 0.90932 0.28715 0.0
C3214 C 0.70423 0.1278 0.82425 0.0
C3215 C 0.71446 0.09908 0.81888 0.0
C3216 C 0.75814 0.12335 0.79798 0.0
C3217 C 0.74725 0.1516 0.80192 0.0
N3218 N 0.70699 0.1794 0.81111 0.0
N3219 N 0.74572 0.06793 0.78903 0.0
C3220 C 0.7193 0.15341 0.81266 0.0
C3221 C 0.73974 0.09628 0.80224 0.0
N3222 N 0.68086 0.13097 0.84146 0.0
N3223 N 0.78662 0.12243 0.79165 0.0
H3224 H 0.73296 0.04691 0.79028 0.0
H3225 H 0.76157 0.06512 0.77312 0.0
H3226 H 0.80182 0.14192 0.79013 0.0
H3227 H 0.79642 0.10275 0.79125 0.0
H3228 H 0.67455 0.15219 0.84932 0.0
H3229 H 0.66945 0.11291 0.85082 0.0
H3230 H 0.68536 0.18103 0.81543 0.0
H3231 H 0.71741 0.19836 0.80227 0.0
loop_
_geom_bond_atom_site_label_1
_geom_bond_atom_site_label_2
_geom_bond_distance
_geom_bond_site_symmetry_2
_ccdc_geom_bond_type
Mn0 O5 2.095 . S
Mn0 O15 2.162 . S
Mn0 O16 2.297 . S
Mn0 O24 2.385 . S
Mn0 O25 2.209 . S
Mn0 O26 2.094 . S
Mn1 O6 2.121 . S
Mn1 N8 2.257 . S
Mn1 N17 2.282 . S
Mn1 O25 2.215 . S
Mn1 O27 2.117 . S
C2 O24 1.234 . S
C2 O25 1.283 . S
C3 O15 1.281 . S
C3 O16 1.236 . S
C4 O26 1.240 . S
C4 O27 1.264 . S
O5 Mn0 2.095 . S
O5 C14 1.250 . S
O6 Mn1 2.121 . S
O6 C14 1.258 . S
C7 N8 1.326 . S
C7 C11 1.460 . S
C7 H13 0.929 . S
N8 Mn1 2.257 . S
N8 C7 1.326 . S
N8 C12 1.362 . S
C9 C10 1.258 . S
C9 C12 1.431 . S
C9 C29 1.449 . S
C10 C9 1.258 . S
C10 C11 1.477 . S
C10 H30 0.931 . S
C11 C7 1.460 . S
C11 C10 1.477 . S
C11 H31 0.930 . S
C12 N8 1.362 . S
C12 C9 1.431 . S
C12 C22 1.476 . S
H13 C7 0.929 . S
C14 O5 1.250 . S
C14 O6 1.258 . S
O15 Mn0 2.162 . S
O15 C3 1.281 . S
O16 Mn0 2.297 . S
O16 C3 1.236 . S
N17 Mn1 2.282 . S
N17 C18 1.328 . S
N17 C22 1.318 . S
C18 N17 1.328 . S
C18 C19 1.457 . S
C18 H23 0.929 . S
C19 C18 1.457 . S
C19 C20 1.291 . S
C19 H32 0.931 . S
C20 C19 1.291 . S
C20 C21 1.373 . S
C20 H33 0.929 1_455 S
C21 C20 1.373 . S
C21 C22 1.396 . S
C21 C28 1.403 . S
C22 C12 1.476 . S
C22 N17 1.318 . S
C22 C21 1.396 . S
H23 C18 0.929 . S
O24 Mn0 2.385 . S
O24 C2 1.234 . S
O25 Mn0 2.209 . S
O25 Mn1 2.215 . S
O25 C2 1.283 . S
O26 Mn0 2.094 . S
O26 C4 1.240 . S
O27 Mn1 2.117 . S
O27 C4 1.264 . S
C28 C21 1.403 . S
C28 C29 1.399 . S
C28 H34 0.929 1_455 S
C29 C9 1.449 . S
C29 C28 1.399 . S
C29 H35 0.930 . S
H30 C10 0.931 . S
H31 C11 0.930 . S
H32 C19 0.931 . S
H33 C20 0.929 1_655 S
H34 C28 0.929 1_655 S
H35 C29 0.930 . S
Mn36 O41 2.111 . S
Mn36 O51 2.161 . S
Mn36 O52 2.295 . S
Mn36 O60 2.369 1_655 S
Mn36 O61 2.202 1_655 S
Mn36 O62 2.095 1_655 S
Mn37 O42 2.121 1_455 S
Mn37 N44 2.257 . S
Mn37 N53 2.282 . S
Mn37 O61 2.215 . S
Mn37 O63 2.117 . S
C38 O60 1.234 . S
C38 O61 1.283 . S
C39 O51 1.281 . S
C39 O52 1.236 . S
C40 O62 1.239 . S
C40 O63 1.264 . S
O41 Mn36 2.111 . S
O41 C50 1.250 . S
O42 Mn37 2.121 1_655 S
O42 C50 1.258 . S
C43 N44 1.326 . S
C43 C47 1.460 . S
C43 H49 0.924 1_455 S
N44 Mn37 2.257 . S
N44 C43 1.326 . S
N44 C48 1.362 . S
C45 C46 1.258 . S
C45 C48 1.431 . S
C45 C65 1.449 . S
C46 C45 1.258 . S
C46 C47 1.477 . S
C46 H66 0.931 . S
C47 C43 1.460 . S
C47 C46 1.477 . S
C47 H67 0.930 . S
C48 N44 1.362 . S
C48 C45 1.431 . S
C48 C58 1.476 . S
H49 C43 0.924 1_655 S
C50 O41 1.250 . S
C50 O42 1.258 . S
O51 Mn36 2.161 . S
O51 C39 1.281 . S
O52 Mn36 2.295 . S
O52 C39 1.236 . S
N53 Mn37 2.282 . S
N53 C54 1.328 . S
N53 C58 1.318 . S
C54 N53 1.328 . S
C54 C55 1.457 . S
C54 H59 0.929 . S
C55 C54 1.457 . S
C55 C56 1.291 . S
C55 H68 0.931 . S
C56 C55 1.291 . S
C56 C57 1.373 . S
C56 H69 0.929 . S
C57 C56 1.373 . S
C57 C58 1.396 . S
C57 C64 1.403 . S
C58 C48 1.476 . S
C58 N53 1.318 . S
C58 C57 1.396 . S
H59 C54 0.929 . S
O60 Mn36 2.369 1_455 S
O60 C38 1.234 . S
O61 Mn36 2.202 1_455 S
O61 Mn37 2.215 . S
O61 C38 1.283 . S
O62 Mn36 2.095 1_455 S
O62 C40 1.239 . S
O63 Mn37 2.117 . S
O63 C40 1.264 . S
C64 C57 1.403 . S
C64 C65 1.399 . S
C64 H70 0.929 . S
C65 C45 1.449 . S
C65 C64 1.399 . S
C65 H71 0.930 . S
H66 C46 0.931 . S
H67 C47 0.930 . S
H68 C55 0.931 . S
H69 C56 0.929 . S
H70 C64 0.929 . S
H71 C65 0.930 . S
Mn72 O77 2.095 1_554 S
Mn72 O87 2.162 . S
Mn72 O88 2.297 1_554 S
Mn72 O96 2.385 . S
Mn72 O97 2.209 1_554 S
Mn72 O98 2.094 . S
Mn73 O78 2.121 . S
Mn73 N80 2.257 . S
Mn73 N89 2.282 . S
Mn73 O97 2.215 . S
Mn73 O99 2.117 . S
C74 O96 1.230 1_556 S
C74 O97 1.283 . S
C75 O87 1.281 . S
C75 O88 1.236 1_554 S
C76 O98 1.240 . S
C76 O99 1.264 1_554 S
O77 Mn72 2.095 1_556 S
O77 C86 1.250 . S
O78 Mn73 2.121 . S
O78 C86 1.258 . S
C79 N80 1.326 . S
C79 C83 1.460 . S
C79 H85 0.929 . S
N80 Mn73 2.257 . S
N80 C79 1.326 . S
N80 C84 1.362 . S
C81 C82 1.258 . S
C81 C84 1.431 . S
C81 C101 1.449 . S
C82 C81 1.258 . S
C82 C83 1.477 . S
C82 H102 0.931 . S
C83 C79 1.460 . S
C83 C82 1.477 . S
C83 H103 0.930 . S
C84 N80 1.362 . S
C84 C81 1.431 . S
C84 C94 1.476 . S
H85 C79 0.929 . S
C86 O77 1.250 . S
C86 O78 1.258 . S
O87 Mn72 2.162 . S
O87 C75 1.281 . S
O88 Mn72 2.297 1_556 S
O88 C75 1.236 1_556 S
N89 Mn73 2.282 . S
N89 C90 1.328 . S
N89 C94 1.318 . S
C90 N89 1.328 . S
C90 C91 1.457 . S
C90 H95 0.929 . S
C91 C90 1.457 . S
C91 C92 1.291 . S
C91 H104 0.931 . S
C92 C91 1.291 . S
C92 C93 1.373 . S
C92 H105 0.929 . S
C93 C92 1.373 . S
C93 C94 1.396 . S
C93 C100 1.403 . S
C94 C84 1.476 . S
C94 N89 1.318 . S
C94 C93 1.396 . S
H95 C90 0.929 . S
O96 Mn72 2.385 . S
O96 C74 1.230 1_554 S
O97 Mn72 2.209 1_556 S
O97 Mn73 2.215 . S
O97 C74 1.283 . S
O98 Mn72 2.094 . S
O98 C76 1.240 . S
O99 Mn73 2.117 . S
O99 C76 1.264 1_556 S
C100 C93 1.403 . S
C100 C101 1.399 . S
C100 H106 0.929 . S
C101 C81 1.449 . S
C101 C100 1.399 . S
C101 H107 0.930 . S
H102 C82 0.931 . S
H103 C83 0.930 . S
H104 C91 0.931 . S
H105 C92 0.929 . S
H106 C100 0.929 . S
H107 C101 0.930 . S
Mn108 O113 2.095 . S
Mn108 O123 2.162 . S
Mn108 O124 2.297 . S
Mn108 O132 2.385 . S
Mn108 O133 2.209 . S
Mn108 O134 2.094 . S
Mn109 O114 2.121 . S
Mn109 N116 2.257 1_554 S
Mn109 N125 2.282 . S
Mn109 O133 2.215 . S
Mn109 O135 2.117 . S
C110 O132 1.234 . S
C110 O133 1.283 . S
C111 O123 1.281 . S
C111 O124 1.236 . S
C112 O134 1.240 . S
C112 O135 1.264 . S
O113 Mn108 2.095 . S
O113 C122 1.250 . S
O114 Mn109 2.121 . S
O114 C122 1.258 . S
C115 N116 1.326 . S
C115 C119 1.460 . S
C115 H121 0.929 . S
N116 Mn109 2.257 1_556 S
N116 C115 1.326 . S
N116 C120 1.362 . S
C117 C118 1.258 . S
C117 C120 1.431 . S
C117 C137 1.449 . S
C118 C117 1.258 . S
C118 C119 1.477 . S
C118 H138 0.931 . S
C119 C115 1.460 . S
C119 C118 1.477 . S
C119 H139 0.930 . S
C120 N116 1.362 . S
C120 C117 1.431 . S
C120 C130 1.476 1_556 S
H121 C115 0.929 . S
C122 O113 1.250 . S
C122 O114 1.258 . S
O123 Mn108 2.162 . S
O123 C111 1.281 . S
O124 Mn108 2.297 . S
O124 C111 1.236 . S
N125 Mn109 2.282 . S
N125 C126 1.328 . S
N125 C130 1.318 . S
C126 N125 1.328 . S
C126 C127 1.457 . S
C126 H131 0.929 . S
C127 C126 1.457 . S
C127 C128 1.291 . S
C127 H140 0.931 . S
C128 C127 1.291 . S
C128 C129 1.373 1_554 S
C128 H141 0.929 . S
C129 C128 1.373 1_556 S
C129 C130 1.396 1_556 S
C129 C136 1.403 . S
C130 C120 1.476 1_554 S
C130 N125 1.318 . S
C130 C129 1.396 1_554 S
H131 C126 0.929 . S
O132 Mn108 2.385 . S
O132 C110 1.234 . S
O133 Mn108 2.209 . S
O133 Mn109 2.215 . S
O133 C110 1.283 . S
O134 Mn108 2.094 . S
O134 C112 1.240 . S
O135 Mn109 2.117 . S
O135 C112 1.264 . S
C136 C129 1.403 . S
C136 C137 1.399 . S
C136 H142 0.929 . S
C137 C117 1.449 . S
C137 C136 1.399 . S
C137 H143 0.930 . S
H138 C118 0.931 . S
H139 C119 0.930 . S
H140 C127 0.931 . S
H141 C128 0.929 . S
H142 C136 0.929 . S
H143 C137 0.930 . S
Mn144 O149 2.095 . S
Mn144 O159 2.162 . S
Mn144 O160 2.297 . S
Mn144 O168 2.385 . S
Mn144 O169 2.209 . S
Mn144 O170 2.094 . S
Mn145 O150 2.121 1_655 S
Mn145 N152 2.257 . S
Mn145 N161 2.282 . S
Mn145 O169 2.215 1_655 S
Mn145 O171 2.117 . S
C146 O168 1.234 . S
C146 O169 1.283 . S
C147 O159 1.281 . S
C147 O160 1.236 . S
C148 O170 1.240 1_655 S
C148 O171 1.264 . S
O149 Mn144 2.095 . S
O149 C158 1.250 . S
O150 Mn145 2.121 1_455 S
O150 C158 1.258 . S
C151 N152 1.326 1_455 S
C151 C155 1.460 . S
C151 H157 0.929 . S
N152 Mn145 2.257 . S
N152 C151 1.326 1_655 S
N152 C156 1.362 . S
C153 C154 1.258 . S
C153 C156 1.431 . S
C153 C173 1.449 . S
C154 C153 1.258 . S
C154 C155 1.477 1_655 S
C154 H174 0.931 . S
C155 C151 1.460 . S
C155 C154 1.477 1_455 S
C155 H175 0.930 . S
C156 N152 1.362 . S
C156 C153 1.431 . S
C156 C166 1.476 . S
H157 C151 0.929 . S
C158 O149 1.250 . S
C158 O150 1.258 . S
O159 Mn144 2.162 . S
O159 C147 1.281 . S
O160 Mn144 2.297 . S
O160 C147 1.236 . S
N161 Mn145 2.282 . S
N161 C162 1.328 . S
N161 C166 1.318 . S
C162 N161 1.328 . S
C162 C163 1.457 . S
C162 H167 0.929 . S
C163 C162 1.457 . S
C163 C164 1.291 . S
C163 H176 0.931 . S
C164 C163 1.291 . S
C164 C165 1.373 . S
C164 H177 0.929 . S
C165 C164 1.373 . S
C165 C166 1.396 . S
C165 C172 1.403 . S
C166 C156 1.476 . S
C166 N161 1.318 . S
C166 C165 1.396 . S
H167 C162 0.929 . S
O168 Mn144 2.385 . S
O168 C146 1.234 . S
O169 Mn144 2.209 . S
O169 Mn145 2.215 1_455 S
O169 C146 1.283 . S
O170 Mn144 2.094 . S
O170 C148 1.240 1_455 S
O171 Mn145 2.117 . S
O171 C148 1.264 . S
C172 C165 1.403 . S
C172 C173 1.399 . S
C172 H178 0.929 . S
C173 C153 1.449 . S
C173 C172 1.399 . S
C173 H179 0.930 . S
H174 C154 0.931 . S
H175 C155 0.930 . S
H176 C163 0.931 . S
H177 C164 0.929 . S
H178 C172 0.929 . S
H179 C173 0.930 . S
Mn180 O185 2.095 . S
Mn180 O195 2.162 . S
Mn180 O196 2.297 . S
Mn180 O204 2.385 . S
Mn180 O205 2.209 . S
Mn180 O206 2.094 . S
Mn181 O186 2.121 . S
Mn181 N188 2.257 . S
Mn181 N197 2.282 . S
Mn181 O205 2.215 . S
Mn181 O207 2.117 . S
C182 O204 1.234 . S
C182 O205 1.283 . S
C183 O195 1.281 . S
C183 O196 1.236 . S
C184 O206 1.240 . S
C184 O207 1.264 . S
O185 Mn180 2.095 . S
O185 C194 1.250 . S
O186 Mn181 2.121 . S
O186 C194 1.258 . S
C187 N188 1.326 . S
C187 C191 1.460 . S
C187 H193 0.929 . S
N188 Mn181 2.257 . S
N188 C187 1.326 . S
N188 C192 1.362 . S
C189 C190 1.258 . S
C189 C192 1.431 . S
C189 C209 1.449 . S
C190 C189 1.258 . S
C190 C191 1.477 . S
C190 H210 0.931 . S
C191 C187 1.460 . S
C191 C190 1.477 . S
C191 H211 0.930 . S
C192 N188 1.362 . S
C192 C189 1.431 . S
C192 C202 1.476 . S
H193 C187 0.929 . S
C194 O185 1.250 . S
C194 O186 1.258 . S
O195 Mn180 2.162 . S
O195 C183 1.281 . S
O196 Mn180 2.297 . S
O196 C183 1.236 . S
N197 Mn181 2.282 . S
N197 C198 1.328 . S
N197 C202 1.318 . S
C198 N197 1.328 . S
C198 C199 1.457 . S
C198 H203 0.929 . S
C199 C198 1.457 . S
C199 C200 1.291 . S
C199 H212 0.931 . S
C200 C199 1.291 . S
C200 C201 1.373 . S
C200 H213 0.929 . S
C201 C200 1.373 . S
C201 C202 1.396 . S
C201 C208 1.403 . S
C202 C192 1.476 . S
C202 N197 1.318 . S
C202 C201 1.396 . S
H203 C198 0.929 . S
O204 Mn180 2.385 . S
O204 C182 1.234 . S
O205 Mn180 2.209 . S
O205 Mn181 2.215 . S
O205 C182 1.283 . S
O206 Mn180 2.094 . S
O206 C184 1.240 . S
O207 Mn181 2.117 . S
O207 C184 1.264 . S
C208 C201 1.403 . S
C208 C209 1.399 . S
C208 H214 0.929 . S
C209 C189 1.449 . S
C209 C208 1.399 . S
C209 H215 0.930 . S
H210 C190 0.931 . S
H211 C191 0.930 . S
H212 C199 0.931 . S
H213 C200 0.929 . S
H214 C208 0.929 . S
H215 C209 0.930 . S
Mn216 O221 2.095 . S
Mn216 O231 2.162 . S
Mn216 O232 2.297 . S
Mn216 O240 2.385 . S
Mn216 O241 2.209 . S
Mn216 O242 2.094 . S
Mn217 O222 2.121 . S
Mn217 N224 2.257 . S
Mn217 N233 2.282 . S
Mn217 O241 2.215 . S
Mn217 O243 2.117 . S
C218 O240 1.234 . S
C218 O241 1.283 . S
C219 O231 1.281 . S
C219 O232 1.236 . S
C220 O242 1.240 . S
C220 O243 1.264 . S
O221 Mn216 2.095 . S
O221 C230 1.250 . S
O222 Mn217 2.121 . S
O222 C230 1.258 . S
C223 N224 1.326 . S
C223 C227 1.460 . S
C223 H229 0.929 . S
N224 Mn217 2.257 . S
N224 C223 1.326 . S
N224 C228 1.362 . S
C225 C226 1.258 . S
C225 C228 1.431 . S
C225 C245 1.449 . S
C226 C225 1.258 . S
C226 C227 1.477 . S
C226 H246 0.931 . S
C227 C223 1.460 . S
C227 C226 1.477 . S
C227 H247 0.930 . S
C228 N224 1.362 . S
C228 C225 1.431 . S
C228 C238 1.476 . S
H229 C223 0.929 . S
C230 O221 1.250 . S
C230 O222 1.258 . S
O231 Mn216 2.162 . S
O231 C219 1.281 . S
O232 Mn216 2.297 . S
O232 C219 1.236 . S
N233 Mn217 2.282 . S
N233 C234 1.328 . S
N233 C238 1.318 . S
C234 N233 1.328 . S
C234 C235 1.457 . S
C234 H239 0.929 . S
C235 C234 1.457 . S
C235 C236 1.291 . S
C235 H248 0.931 . S
C236 C235 1.291 . S
C236 C237 1.373 . S
C236 H249 0.929 . S
C237 C236 1.373 . S
C237 C238 1.396 . S
C237 C244 1.403 . S
C238 C228 1.476 . S
C238 N233 1.318 . S
C238 C237 1.396 . S
H239 C234 0.929 . S
O240 Mn216 2.385 . S
O240 C218 1.234 . S
O241 Mn216 2.209 . S
O241 Mn217 2.215 . S
O241 C218 1.283 . S
O242 Mn216 2.094 . S
O242 C220 1.240 . S
O243 Mn217 2.117 . S
O243 C220 1.264 . S
C244 C237 1.403 . S
C244 C245 1.399 . S
C244 H250 0.929 . S
C245 C225 1.449 . S
C245 C244 1.399 . S
C245 H251 0.930 . S
H246 C226 0.931 . S
H247 C227 0.930 . S
H248 C235 0.931 . S
H249 C236 0.929 . S
H250 C244 0.929 . S
H251 C245 0.930 . S
Mn252 O257 2.095 . S
Mn252 O267 2.162 . S
Mn252 O268 2.297 . S
Mn252 O276 2.385 . S
Mn252 O277 2.209 . S
Mn252 O278 2.094 . S
Mn253 O258 2.121 . S
Mn253 N260 2.257 . S
Mn253 N269 2.282 . S
Mn253 O277 2.215 . S
Mn253 O279 2.117 . S
C254 O276 1.234 . S
C254 O277 1.283 . S
C255 O267 1.281 . S
C255 O268 1.236 . S
C256 O278 1.240 . S
C256 O279 1.264 . S
O257 Mn252 2.095 . S
O257 C266 1.250 . S
O258 Mn253 2.121 . S
O258 C266 1.258 . S
C259 N260 1.326 . S
C259 C263 1.460 . S
C259 H265 0.929 . S
N260 Mn253 2.257 . S
N260 C259 1.326 . S
N260 C264 1.362 . S
C261 C262 1.258 . S
C261 C264 1.431 . S
C261 C281 1.449 1_455 S
C262 C261 1.258 . S
C262 C263 1.477 . S
C262 H282 0.931 . S
C263 C259 1.460 . S
C263 C262 1.477 . S
C263 H283 0.930 . S
C264 N260 1.362 . S
C264 C261 1.431 . S
C264 C274 1.476 . S
H265 C259 0.929 . S
C266 O257 1.250 . S
C266 O258 1.258 . S
O267 Mn252 2.162 . S
O267 C255 1.281 . S
O268 Mn252 2.297 . S
O268 C255 1.236 . S
N269 Mn253 2.282 . S
N269 C270 1.328 . S
N269 C274 1.318 . S
C270 N269 1.328 . S
C270 C271 1.457 1_455 S
C270 H275 0.929 . S
C271 C270 1.457 1_655 S
C271 C272 1.291 . S
C271 H284 0.931 . S
C272 C271 1.291 . S
C272 C273 1.373 . S
C272 H285 0.929 . S
C273 C272 1.373 . S
C273 C274 1.396 1_655 S
C273 C280 1.403 . S
C274 C264 1.476 . S
C274 N269 1.318 . S
C274 C273 1.396 1_455 S
H275 C270 0.929 . S
O276 Mn252 2.385 . S
O276 C254 1.234 . S
O277 Mn252 2.209 . S
O277 Mn253 2.215 . S
O277 C254 1.283 . S
O278 Mn252 2.094 . S
O278 C256 1.240 . S
O279 Mn253 2.117 . S
O279 C256 1.264 . S
C280 C273 1.403 . S
C280 C281 1.399 . S
C280 H286 0.929 . S
C281 C261 1.449 1_655 S
C281 C280 1.399 . S
C281 H287 0.930 . S
H282 C262 0.931 . S
H283 C263 0.930 . S
H284 C271 0.931 . S
H285 C272 0.929 . S
H286 C280 0.929 . S
H287 C281 0.930 . S
Mn288 O293 2.095 . S
Mn288 O303 2.162 . S
Mn288 O304 2.297 . S
Mn288 O312 2.385 . S
Mn288 O313 2.209 . S
Mn288 O314 2.094 . S
Mn289 O294 2.121 . S
Mn289 N296 2.257 . S
Mn289 N305 2.282 . S
Mn289 O313 2.215 . S
Mn289 O315 2.117 . S
C290 O312 1.234 . S
C290 O313 1.283 . S
C291 O303 1.281 . S
C291 O304 1.236 . S
C292 O314 1.240 . S
C292 O315 1.264 . S
O293 Mn288 2.095 . S
O293 C302 1.250 . S
O294 Mn289 2.121 . S
O294 C302 1.258 . S
C295 N296 1.326 . S
C295 C299 1.460 . S
C295 H301 0.929 . S
N296 Mn289 2.257 . S
N296 C295 1.326 . S
N296 C300 1.362 . S
C297 C298 1.258 . S
C297 C300 1.431 . S
C297 C317 1.449 . S
C298 C297 1.258 . S
C298 C299 1.477 . S
C298 H318 0.931 . S
C299 C295 1.460 . S
C299 C298 1.477 . S
C299 H319 0.930 . S
C300 N296 1.362 . S
C300 C297 1.431 . S
C300 C310 1.476 . S
H301 C295 0.929 . S
C302 O293 1.250 . S
C302 O294 1.258 . S
O303 Mn288 2.162 . S
O303 C291 1.281 . S
O304 Mn288 2.297 . S
O304 C291 1.236 . S
N305 Mn289 2.282 . S
N305 C306 1.328 . S
N305 C310 1.318 . S
C306 N305 1.328 . S
C306 C307 1.457 . S
C306 H311 0.929 . S
C307 C306 1.457 . S
C307 C308 1.291 . S
C307 H320 0.931 . S
C308 C307 1.291 . S
C308 C309 1.373 . S
C308 H321 0.929 . S
C309 C308 1.373 . S
C309 C310 1.396 . S
C309 C316 1.403 . S
C310 C300 1.476 . S
C310 N305 1.318 . S
C310 C309 1.396 . S
H311 C306 0.929 . S
O312 Mn288 2.385 . S
O312 C290 1.234 . S
O313 Mn288 2.209 . S
O313 Mn289 2.215 . S
O313 C290 1.283 . S
O314 Mn288 2.094 . S
O314 C292 1.240 . S
O315 Mn289 2.117 . S
O315 C292 1.264 . S
C316 C309 1.403 . S
C316 C317 1.399 . S
C316 H322 0.929 . S
C317 C297 1.449 . S
C317 C316 1.399 . S
C317 H323 0.930 . S
H318 C298 0.931 . S
H319 C299 0.930 . S
H320 C307 0.931 . S
H321 C308 0.929 . S
H322 C316 0.929 . S
H323 C317 0.930 . S
Mn324 O329 2.095 . S
Mn324 O339 2.162 . S
Mn324 O340 2.297 . S
Mn324 O348 2.385 . S
Mn324 O349 2.209 . S
Mn324 O350 2.094 . S
Mn325 O330 2.121 . S
Mn325 N332 2.257 . S
Mn325 N341 2.282 . S
Mn325 O349 2.215 . S
Mn325 O351 2.117 . S
C326 O348 1.234 . S
C326 O349 1.283 . S
C327 O339 1.281 . S
C327 O340 1.236 . S
C328 O350 1.240 . S
C328 O351 1.264 . S
O329 Mn324 2.095 . S
O329 C338 1.250 . S
O330 Mn325 2.121 . S
O330 C338 1.258 . S
C331 N332 1.326 . S
C331 C335 1.460 1_545 S
C331 H337 0.929 . S
N332 Mn325 2.257 . S
N332 C331 1.326 . S
N332 C336 1.362 . S
C333 C334 1.258 . S
C333 C336 1.431 1_565 S
C333 C353 1.449 . S
C334 C333 1.258 . S
C334 C335 1.477 . S
C334 H354 0.931 . S
C335 C331 1.460 1_565 S
C335 C334 1.477 . S
C335 H355 0.930 . S
C336 N332 1.362 . S
C336 C333 1.431 1_545 S
C336 C346 1.476 . S
H337 C331 0.929 . S
C338 O329 1.250 . S
C338 O330 1.258 . S
O339 Mn324 2.162 . S
O339 C327 1.281 . S
O340 Mn324 2.297 . S
O340 C327 1.236 . S
N341 Mn325 2.282 . S
N341 C342 1.328 . S
N341 C346 1.318 . S
C342 N341 1.328 . S
C342 C343 1.457 . S
C342 H347 0.929 . S
C343 C342 1.457 . S
C343 C344 1.291 . S
C343 H356 0.931 . S
C344 C343 1.291 . S
C344 C345 1.373 . S
C344 H357 0.929 . S
C345 C344 1.373 . S
C345 C346 1.396 . S
C345 C352 1.403 1_545 S
C346 C336 1.476 . S
C346 N341 1.318 . S
C346 C345 1.396 . S
H347 C342 0.929 . S
O348 Mn324 2.385 . S
O348 C326 1.234 . S
O349 Mn324 2.209 . S
O349 Mn325 2.215 . S
O349 C326 1.283 . S
O350 Mn324 2.094 . S
O350 C328 1.240 . S
O351 Mn325 2.117 . S
O351 C328 1.264 . S
C352 C345 1.403 1_565 S
C352 C353 1.399 . S
C352 H358 0.929 . S
C353 C333 1.449 . S
C353 C352 1.399 . S
C353 H359 0.930 . S
H354 C334 0.931 . S
H355 C335 0.930 . S
H356 C343 0.931 . S
H357 C344 0.929 . S
H358 C352 0.929 . S
H359 C353 0.930 . S
Mn360 O365 2.095 1_545 S
Mn360 O375 2.162 . S
Mn360 O376 2.297 . S
Mn360 O384 2.385 . S
Mn360 O385 2.209 . S
Mn360 O386 2.094 . S
Mn361 O366 2.121 . S
Mn361 N368 2.257 . S
Mn361 N377 2.282 . S
Mn361 O385 2.215 . S
Mn361 O387 2.117 . S
C362 O384 1.234 . S
C362 O385 1.283 . S
C363 O375 1.281 . S
C363 O376 1.236 . S
C364 O386 1.240 . S
C364 O387 1.264 . S
O365 Mn360 2.095 1_565 S
O365 C374 1.250 . S
O366 Mn361 2.121 . S
O366 C374 1.258 1_545 S
C367 N368 1.326 . S
C367 C371 1.460 . S
C367 H373 0.929 . S
N368 Mn361 2.257 . S
N368 C367 1.326 . S
N368 C372 1.362 . S
C369 C370 1.258 . S
C369 C372 1.431 . S
C369 C389 1.449 . S
C370 C369 1.258 . S
C370 C371 1.477 . S
C370 H390 0.931 . S
C371 C367 1.460 . S
C371 C370 1.477 . S
C371 H391 0.930 . S
C372 N368 1.362 . S
C372 C369 1.431 . S
C372 C382 1.476 . S
H373 C367 0.929 . S
C374 O365 1.250 . S
C374 O366 1.258 1_565 S
O375 Mn360 2.162 . S
O375 C363 1.281 . S
O376 Mn360 2.297 . S
O376 C363 1.236 . S
N377 Mn361 2.282 . S
N377 C378 1.328 . S
N377 C382 1.318 . S
C378 N377 1.328 . S
C378 C379 1.457 . S
C378 H383 0.929 . S
C379 C378 1.457 . S
C379 C380 1.291 . S
C379 H392 0.931 . S
C380 C379 1.291 . S
C380 C381 1.373 . S
C380 H393 0.929 . S
C381 C380 1.373 . S
C381 C382 1.396 . S
C381 C388 1.403 . S
C382 C372 1.476 . S
C382 N377 1.318 . S
C382 C381 1.396 . S
H383 C378 0.929 . S
O384 Mn360 2.385 . S
O384 C362 1.234 . S
O385 Mn360 2.209 . S
O385 Mn361 2.215 . S
O385 C362 1.283 . S
O386 Mn360 2.094 . S
O386 C364 1.240 . S
O387 Mn361 2.117 . S
O387 C364 1.264 . S
C388 C381 1.403 . S
C388 C389 1.399 . S
C388 H394 0.929 . S
C389 C369 1.449 . S
C389 C388 1.399 . S
C389 H395 0.930 . S
H390 C370 0.931 . S
H391 C371 0.930 . S
H392 C379 0.931 . S
H393 C380 0.929 . S
H394 C388 0.929 . S
H395 C389 0.930 . S
Mn396 O401 2.095 . S
Mn396 O411 2.162 . S
Mn396 O412 2.297 . S
Mn396 O420 2.385 . S
Mn396 O421 2.209 . S
Mn396 O422 2.094 . S
Mn397 O402 2.121 . S
Mn397 N404 2.257 . S
Mn397 N413 2.282 . S
Mn397 O421 2.215 . S
Mn397 O423 2.117 . S
C398 O420 1.234 . S
C398 O421 1.283 . S
C399 O411 1.281 . S
C399 O412 1.236 . S
C400 O422 1.240 . S
C400 O423 1.264 . S
O401 Mn396 2.095 . S
O401 C410 1.250 . S
O402 Mn397 2.121 . S
O402 C410 1.258 . S
C403 N404 1.326 1_545 S
C403 C407 1.460 . S
C403 H409 0.929 . S
N404 Mn397 2.257 . S
N404 C403 1.326 1_565 S
N404 C408 1.362 1_565 S
C405 C406 1.258 . S
C405 C408 1.431 . S
C405 C425 1.449 . S
C406 C405 1.258 . S
C406 C407 1.477 . S
C406 H426 0.931 . S
C407 C403 1.460 . S
C407 C406 1.477 . S
C407 H427 0.930 . S
C408 N404 1.362 1_545 S
C408 C405 1.431 . S
C408 C418 1.476 1_545 S
H409 C403 0.929 . S
C410 O401 1.250 . S
C410 O402 1.258 . S
O411 Mn396 2.162 . S
O411 C399 1.281 . S
O412 Mn396 2.297 . S
O412 C399 1.236 . S
N413 Mn397 2.282 . S
N413 C414 1.317 1_554 S
N413 C418 1.318 . S
C414 N413 1.317 1_556 S
C414 C415 1.469 . S
C414 H419 0.928 . S
C415 C414 1.469 . S
C415 C416 1.291 . S
C415 H428 0.931 . S
C416 C415 1.291 . S
C416 C417 1.373 1_556 S
C416 H429 0.929 . S
C417 C416 1.373 1_554 S
C417 C418 1.396 . S
C417 C424 1.403 1_565 S
C418 C408 1.476 1_565 S
C418 N413 1.318 . S
C418 C417 1.396 . S
H419 C414 0.928 . S
O420 Mn396 2.385 . S
O420 C398 1.234 . S
O421 Mn396 2.209 . S
O421 Mn397 2.215 . S
O421 C398 1.283 . S
O422 Mn396 2.094 . S
O422 C400 1.240 . S
O423 Mn397 2.117 . S
O423 C400 1.264 . S
C424 C417 1.403 1_545 S
C424 C425 1.399 . S
C424 H430 0.929 . S
C425 C405 1.449 . S
C425 C424 1.399 . S
C425 H431 0.930 . S
H426 C406 0.931 . S
H427 C407 0.930 . S
H428 C415 0.931 . S
H429 C416 0.929 . S
H430 C424 0.929 . S
H431 C425 0.930 . S
Mn432 O437 2.095 . S
Mn432 O447 2.162 . S
Mn432 O448 2.297 . S
Mn432 O456 2.385 . S
Mn432 O457 2.209 . S
Mn432 O458 2.094 . S
Mn433 O438 2.121 . S
Mn433 N440 2.257 . S
Mn433 N449 2.282 . S
Mn433 O457 2.215 . S
Mn433 O459 2.117 . S
C434 O456 1.234 . S
C434 O457 1.283 . S
C435 O447 1.281 . S
C435 O448 1.236 . S
C436 O458 1.240 . S
C436 O459 1.264 . S
O437 Mn432 2.095 . S
O437 C446 1.250 . S
O438 Mn433 2.121 . S
O438 C446 1.258 . S
C439 N440 1.326 . S
C439 C443 1.460 . S
C439 H445 0.929 . S
N440 Mn433 2.257 . S
N440 C439 1.326 . S
N440 C444 1.362 . S
C441 C442 1.258 . S
C441 C444 1.431 . S
C441 C461 1.449 . S
C442 C441 1.258 . S
C442 C443 1.477 . S
C442 H462 0.931 . S
C443 C439 1.460 . S
C443 C442 1.477 . S
C443 H463 0.930 . S
C444 N440 1.362 . S
C444 C441 1.431 . S
C444 C454 1.476 . S
H445 C439 0.929 . S
C446 O437 1.250 . S
C446 O438 1.258 . S
O447 Mn432 2.162 . S
O447 C435 1.281 . S
O448 Mn432 2.297 . S
O448 C435 1.236 . S
N449 Mn433 2.282 . S
N449 C450 1.328 . S
N449 C454 1.318 . S
C450 N449 1.328 . S
C450 C451 1.457 . S
C450 H455 0.929 . S
C451 C450 1.457 . S
C451 C452 1.291 . S
C451 H464 0.931 . S
C452 C451 1.291 . S
C452 C453 1.373 . S
C452 H465 0.929 . S
C453 C452 1.373 . S
C453 C454 1.396 . S
C453 C460 1.403 . S
C454 C444 1.476 . S
C454 N449 1.318 . S
C454 C453 1.396 . S
H455 C450 0.929 . S
O456 Mn432 2.385 . S
O456 C434 1.234 . S
O457 Mn432 2.209 . S
O457 Mn433 2.215 . S
O457 C434 1.283 . S
O458 Mn432 2.094 . S
O458 C436 1.240 . S
O459 Mn433 2.117 . S
O459 C436 1.264 . S
C460 C453 1.403 . S
C460 C461 1.399 . S
C460 H466 0.929 . S
C461 C441 1.449 . S
C461 C460 1.399 . S
C461 H467 0.930 . S
H462 C442 0.931 . S
H463 C443 0.930 . S
H464 C451 0.931 . S
H465 C452 0.929 . S
H466 C460 0.929 . S
H467 C461 0.930 . S
Mn468 O473 2.095 . S
Mn468 O483 2.162 . S
Mn468 O484 2.297 . S
Mn468 O492 2.385 . S
Mn468 O493 2.209 . S
Mn468 O494 2.094 . S
Mn469 O474 2.121 . S
Mn469 N476 2.257 . S
Mn469 N485 2.282 1_554 S
Mn469 O493 2.215 . S
Mn469 O495 2.123 . S
C470 O492 1.234 . S
C470 O493 1.283 . S
C471 O483 1.281 . S
C471 O484 1.236 . S
C472 O494 1.240 . S
C472 O495 1.265 . S
O473 Mn468 2.095 . S
O473 C482 1.250 . S
O474 Mn469 2.121 . S
O474 C482 1.258 . S
C475 N476 1.326 . S
C475 C479 1.460 . S
C475 H481 0.929 . S
N476 Mn469 2.257 . S
N476 C475 1.326 . S
N476 C480 1.362 1_554 S
C477 C478 1.268 . S
C477 C480 1.431 . S
C477 C497 1.449 . S
C478 C477 1.268 . S
C478 C479 1.469 1_556 S
C478 H498 0.929 . S
C479 C475 1.460 . S
C479 C478 1.469 1_554 S
C479 H499 0.930 . S
C480 N476 1.362 1_556 S
C480 C477 1.431 . S
C480 C490 1.476 . S
H481 C475 0.929 . S
C482 O473 1.250 . S
C482 O474 1.258 . S
O483 Mn468 2.162 . S
O483 C471 1.281 . S
O484 Mn468 2.297 . S
O484 C471 1.236 . S
N485 Mn469 2.282 1_556 S
N485 C486 1.328 . S
N485 C490 1.318 . S
C486 N485 1.328 . S
C486 C487 1.457 . S
C486 H491 0.929 . S
C487 C486 1.457 . S
C487 C488 1.291 . S
C487 H500 0.931 . S
C488 C487 1.291 . S
C488 C489 1.373 . S
C488 H501 0.929 . S
C489 C488 1.373 . S
C489 C490 1.396 . S
C489 C496 1.403 . S
C490 C480 1.476 . S
C490 N485 1.318 . S
C490 C489 1.396 . S
H491 C486 0.929 . S
O492 Mn468 2.385 . S
O492 C470 1.234 . S
O493 Mn468 2.209 . S
O493 Mn469 2.215 . S
O493 C470 1.283 . S
O494 Mn468 2.094 . S
O494 C472 1.240 . S
O495 Mn469 2.123 . S
O495 C472 1.265 . S
C496 C489 1.403 . S
C496 C497 1.399 . S
C496 H502 0.929 . S
C497 C477 1.449 . S
C497 C496 1.399 . S
C497 H503 0.930 . S
H498 C478 0.929 . S
H499 C479 0.930 . S
H500 C487 0.931 . S
H501 C488 0.929 . S
H502 C496 0.929 . S
H503 C497 0.930 . S
Mn504 O509 2.095 . S
Mn504 O519 2.162 . S
Mn504 O520 2.297 . S
Mn504 O528 2.385 . S
Mn504 O529 2.209 . S
Mn504 O530 2.094 . S
Mn505 O510 2.121 . S
Mn505 N512 2.257 . S
Mn505 N521 2.282 . S
Mn505 O529 2.215 . S
Mn505 O531 2.117 . S
C506 O528 1.234 . S
C506 O529 1.283 . S
C507 O519 1.281 . S
C507 O520 1.236 . S
C508 O530 1.240 . S
C508 O531 1.264 . S
O509 Mn504 2.095 . S
O509 C518 1.250 . S
O510 Mn505 2.121 . S
O510 C518 1.258 . S
C511 N512 1.326 . S
C511 C515 1.460 . S
C511 H517 0.929 . S
N512 Mn505 2.257 . S
N512 C511 1.326 . S
N512 C516 1.362 . S
C513 C514 1.258 . S
C513 C516 1.431 . S
C513 C533 1.449 . S
C514 C513 1.258 . S
C514 C515 1.477 . S
C514 H534 0.931 . S
C515 C511 1.460 . S
C515 C514 1.477 . S
C515 H535 0.930 . S
C516 N512 1.362 . S
C516 C513 1.431 . S
C516 C526 1.476 . S
H517 C511 0.929 . S
C518 O509 1.250 . S
C518 O510 1.258 . S
O519 Mn504 2.162 . S
O519 C507 1.281 . S
O520 Mn504 2.297 . S
O520 C507 1.236 . S
N521 Mn505 2.282 . S
N521 C522 1.328 . S
N521 C526 1.318 . S
C522 N521 1.328 . S
C522 C523 1.457 . S
C522 H527 0.929 . S
C523 C522 1.457 . S
C523 C524 1.291 . S
C523 H536 0.931 . S
C524 C523 1.291 . S
C524 C525 1.373 . S
C524 H537 0.929 . S
C525 C524 1.373 . S
C525 C526 1.396 . S
C525 C532 1.403 . S
C526 C516 1.476 . S
C526 N521 1.318 . S
C526 C525 1.396 . S
H527 C522 0.929 . S
O528 Mn504 2.385 . S
O528 C506 1.234 . S
O529 Mn504 2.209 . S
O529 Mn505 2.215 . S
O529 C506 1.283 . S
O530 Mn504 2.094 . S
O530 C508 1.240 . S
O531 Mn505 2.117 . S
O531 C508 1.264 . S
C532 C525 1.403 . S
C532 C533 1.399 . S
C532 H538 0.929 . S
C533 C513 1.449 . S
C533 C532 1.399 . S
C533 H539 0.930 . S
H534 C514 0.931 . S
H535 C515 0.930 . S
H536 C523 0.931 . S
H537 C524 0.929 . S
H538 C532 0.929 . S
H539 C533 0.930 . S
Mn540 O545 2.095 1_565 S
Mn540 O555 2.162 . S
Mn540 O556 2.297 1_565 S
Mn540 O564 2.384 . S
Mn540 O565 2.209 1_565 S
Mn540 O566 2.094 . S
Mn541 O546 2.121 . S
Mn541 N548 2.257 . S
Mn541 N557 2.282 . S
Mn541 O565 2.215 . S
Mn541 O567 2.117 1_545 S
C542 O564 1.210 1_545 S
C542 O565 1.283 . S
C543 O555 1.281 . S
C543 O556 1.236 1_565 S
C544 O566 1.240 . S
C544 O567 1.264 . S
O545 Mn540 2.095 1_545 S
O545 C554 1.250 . S
O546 Mn541 2.121 . S
O546 C554 1.258 . S
C547 N548 1.326 . S
C547 C551 1.460 . S
C547 H553 0.929 . S
N548 Mn541 2.257 . S
N548 C547 1.326 . S
N548 C552 1.362 . S
C549 C550 1.258 . S
C549 C552 1.431 . S
C549 C569 1.449 . S
C550 C549 1.258 . S
C550 C551 1.477 . S
C550 H570 0.931 . S
C551 C547 1.460 . S
C551 C550 1.477 . S
C551 H571 0.930 . S
C552 N548 1.362 . S
C552 C549 1.431 . S
C552 C562 1.476 . S
H553 C547 0.929 . S
C554 O545 1.250 . S
C554 O546 1.258 . S
O555 Mn540 2.162 . S
O555 C543 1.281 . S
O556 Mn540 2.297 1_545 S
O556 C543 1.236 1_545 S
N557 Mn541 2.282 . S
N557 C558 1.328 . S
N557 C562 1.318 . S
C558 N557 1.328 . S
C558 C559 1.457 . S
C558 H563 0.929 . S
C559 C558 1.457 . S
C559 C560 1.291 . S
C559 H572 0.931 . S
C560 C559 1.291 . S
C560 C561 1.373 . S
C560 H573 0.929 . S
C561 C560 1.373 . S
C561 C562 1.396 . S
C561 C568 1.403 . S
C562 C552 1.476 . S
C562 N557 1.318 . S
C562 C561 1.396 . S
H563 C558 0.929 . S
O564 Mn540 2.384 . S
O564 C542 1.210 1_565 S
O565 Mn540 2.209 1_545 S
O565 Mn541 2.215 . S
O565 C542 1.283 . S
O566 Mn540 2.094 . S
O566 C544 1.240 . S
O567 Mn541 2.117 1_565 S
O567 C544 1.264 . S
C568 C561 1.403 . S
C568 C569 1.399 . S
C568 H574 0.929 . S
C569 C549 1.449 . S
C569 C568 1.399 . S
C569 H575 0.930 . S
H570 C550 0.931 . S
H571 C551 0.930 . S
H572 C559 0.931 . S
H573 C560 0.929 . S
H574 C568 0.929 . S
H575 C569 0.930 . S
Mn576 O581 2.095 . S
Mn576 O591 2.162 . S
Mn576 O592 2.297 . S
Mn576 O600 2.385 . S
Mn576 O601 2.209 . S
Mn576 O602 2.094 . S
Mn577 O582 2.121 . S
Mn577 N584 2.257 . S
Mn577 N593 2.282 . S
Mn577 O601 2.215 . S
Mn577 O603 2.117 . S
C578 O600 1.234 . S
C578 O601 1.283 . S
C579 O591 1.281 . S
C579 O592 1.236 . S
C580 O602 1.240 . S
C580 O603 1.264 . S
O581 Mn576 2.095 . S
O581 C590 1.250 . S
O582 Mn577 2.121 . S
O582 C590 1.258 . S
C583 N584 1.326 . S
C583 C587 1.460 . S
C583 H589 0.929 . S
N584 Mn577 2.257 . S
N584 C583 1.326 . S
N584 C588 1.362 . S
C585 C586 1.258 . S
C585 C588 1.431 . S
C585 C605 1.449 1_545 S
C586 C585 1.258 . S
C586 C587 1.477 . S
C586 H606 0.931 . S
C587 C583 1.460 . S
C587 C586 1.477 . S
C587 H607 0.930 . S
C588 N584 1.362 . S
C588 C585 1.431 . S
C588 C598 1.476 . S
H589 C583 0.929 . S
C590 O581 1.250 . S
C590 O582 1.258 . S
O591 Mn576 2.162 . S
O591 C579 1.281 . S
O592 Mn576 2.297 . S
O592 C579 1.236 . S
N593 Mn577 2.282 . S
N593 C594 1.328 . S
N593 C598 1.318 . S
C594 N593 1.328 . S
C594 C595 1.457 1_545 S
C594 H599 0.929 . S
C595 C594 1.457 1_565 S
C595 C596 1.291 . S
C595 H608 0.930 . S
C596 C595 1.291 . S
C596 C597 1.373 . S
C596 H609 0.929 . S
C597 C596 1.373 . S
C597 C598 1.396 1_565 S
C597 C604 1.403 . S
C598 C588 1.476 . S
C598 N593 1.318 . S
C598 C597 1.396 1_545 S
H599 C594 0.929 . S
O600 Mn576 2.385 . S
O600 C578 1.234 . S
O601 Mn576 2.209 . S
O601 Mn577 2.215 . S
O601 C578 1.283 . S
O602 Mn576 2.094 . S
O602 C580 1.240 . S
O603 Mn577 2.117 . S
O603 C580 1.264 . S
C604 C597 1.403 . S
C604 C605 1.399 . S
C604 H610 0.929 . S
C605 C585 1.449 1_565 S
C605 C604 1.399 . S
C605 H611 0.930 . S
H606 C586 0.931 . S
H607 C587 0.930 . S
H608 C595 0.930 . S
H609 C596 0.929 . S
H610 C604 0.929 . S
H611 C605 0.930 . S
Mn612 O617 2.095 . S
Mn612 O627 2.162 . S
Mn612 O628 2.297 . S
Mn612 O636 2.385 . S
Mn612 O637 2.209 . S
Mn612 O638 2.094 . S
Mn613 O618 2.121 . S
Mn613 N620 2.257 . S
Mn613 N629 2.282 . S
Mn613 O637 2.215 . S
Mn613 O639 2.117 . S
C614 O636 1.234 . S
C614 O637 1.283 . S
C615 O627 1.281 . S
C615 O628 1.236 . S
C616 O638 1.240 . S
C616 O639 1.264 . S
O617 Mn612 2.095 . S
O617 C626 1.250 . S
O618 Mn613 2.121 . S
O618 C626 1.258 . S
C619 N620 1.326 . S
C619 C623 1.460 . S
C619 H625 0.929 . S
N620 Mn613 2.257 . S
N620 C619 1.326 . S
N620 C624 1.362 . S
C621 C622 1.258 . S
C621 C624 1.431 . S
C621 C641 1.449 . S
C622 C621 1.258 . S
C622 C623 1.477 . S
C622 H642 0.931 . S
C623 C619 1.460 . S
C623 C622 1.477 . S
C623 H643 0.930 . S
C624 N620 1.362 . S
C624 C621 1.431 . S
C624 C634 1.476 . S
H625 C619 0.929 . S
C626 O617 1.250 . S
C626 O618 1.258 . S
O627 Mn612 2.162 . S
O627 C615 1.281 . S
O628 Mn612 2.297 . S
O628 C615 1.236 . S
N629 Mn613 2.282 . S
N629 C630 1.328 . S
N629 C634 1.318 . S
C630 N629 1.328 . S
C630 C631 1.457 . S
C630 H635 0.929 . S
C631 C630 1.457 . S
C631 C632 1.291 . S
C631 H644 0.931 . S
C632 C631 1.291 . S
C632 C633 1.373 . S
C632 H645 0.929 . S
C633 C632 1.373 . S
C633 C634 1.396 . S
C633 C640 1.403 . S
C634 C624 1.476 . S
C634 N629 1.318 . S
C634 C633 1.396 . S
H635 C630 0.929 . S
O636 Mn612 2.385 . S
O636 C614 1.234 . S
O637 Mn612 2.209 . S
O637 Mn613 2.215 . S
O637 C614 1.283 . S
O638 Mn612 2.094 . S
O638 C616 1.240 . S
O639 Mn613 2.117 . S
O639 C616 1.264 . S
C640 C633 1.403 . S
C640 C641 1.399 . S
C640 H646 0.929 . S
C641 C621 1.449 . S
C641 C640 1.399 . S
C641 H647 0.930 . S
H642 C622 0.931 . S
H643 C623 0.930 . S
H644 C631 0.931 . S
H645 C632 0.929 . S
H646 C640 0.929 . S
H647 C641 0.930 . S
Mn648 O653 2.095 . S
Mn648 O663 2.162 . S
Mn648 O664 2.297 . S
Mn648 O672 2.385 . S
Mn648 O673 2.209 . S
Mn648 O674 2.094 . S
Mn649 O654 2.121 . S
Mn649 N656 2.257 . S
Mn649 N665 2.282 . S
Mn649 O673 2.215 . S
Mn649 O675 2.117 . S
C650 O672 1.234 . S
C650 O673 1.283 . S
C651 O663 1.281 . S
C651 O664 1.236 . S
C652 O674 1.240 . S
C652 O675 1.264 . S
O653 Mn648 2.095 . S
O653 C662 1.250 . S
O654 Mn649 2.121 . S
O654 C662 1.258 . S
C655 N656 1.326 . S
C655 C659 1.460 . S
C655 H661 0.929 . S
N656 Mn649 2.257 . S
N656 C655 1.326 . S
N656 C660 1.362 . S
C657 C658 1.258 . S
C657 C660 1.431 . S
C657 C677 1.449 . S
C658 C657 1.258 . S
C658 C659 1.477 . S
C658 H678 0.931 . S
C659 C655 1.460 . S
C659 C658 1.477 . S
C659 H679 0.930 . S
C660 N656 1.362 . S
C660 C657 1.431 . S
C660 C670 1.476 . S
H661 C655 0.929 . S
C662 O653 1.250 . S
C662 O654 1.258 . S
O663 Mn648 2.162 . S
O663 C651 1.281 . S
O664 Mn648 2.297 . S
O664 C651 1.236 . S
N665 Mn649 2.282 . S
N665 C666 1.328 . S
N665 C670 1.318 . S
C666 N665 1.328 . S
C666 C667 1.457 . S
C666 H671 0.929 . S
C667 C666 1.457 . S
C667 C668 1.291 . S
C667 H680 0.931 . S
C668 C667 1.291 . S
C668 C669 1.373 . S
C668 H681 0.929 . S
C669 C668 1.373 . S
C669 C670 1.396 . S
C669 C676 1.403 . S
C670 C660 1.476 . S
C670 N665 1.318 . S
C670 C669 1.396 . S
H671 C666 0.929 . S
O672 Mn648 2.385 . S
O672 C650 1.234 . S
O673 Mn648 2.209 . S
O673 Mn649 2.215 . S
O673 C650 1.283 . S
O674 Mn648 2.094 . S
O674 C652 1.240 . S
O675 Mn649 2.117 . S
O675 C652 1.264 . S
C676 C669 1.403 . S
C676 C677 1.399 . S
C676 H682 0.929 . S
C677 C657 1.449 . S
C677 C676 1.399 . S
C677 H683 0.930 . S
H678 C658 0.931 . S
H679 C659 0.930 . S
H680 C667 0.931 . S
H681 C668 0.929 . S
H682 C676 0.929 . S
H683 C677 0.930 . S
Mn684 O689 2.099 . S
Mn684 O699 2.161 . S
Mn684 O700 2.297 . S
Mn684 O708 2.382 1_565 S
Mn684 O709 2.207 1_565 S
Mn684 O710 2.094 1_565 S
Mn685 O690 2.121 1_545 S
Mn685 N692 2.257 . S
Mn685 N701 2.282 . S
Mn685 O709 2.215 . S
Mn685 O711 2.117 . S
C686 O708 1.234 . S
C686 O709 1.283 . S
C687 O699 1.281 . S
C687 O700 1.236 . S
C688 O710 1.238 . S
C688 O711 1.264 . S
O689 Mn684 2.099 . S
O689 C698 1.250 . S
O690 Mn685 2.121 1_565 S
O690 C698 1.258 . S
C691 N692 1.326 . S
C691 C695 1.460 . S
C691 H697 0.929 1_545 S
N692 Mn685 2.257 . S
N692 C691 1.326 . S
N692 C696 1.362 . S
C693 C694 1.258 . S
C693 C696 1.431 . S
C693 C713 1.449 . S
C694 C693 1.258 . S
C694 C695 1.477 . S
C694 H714 0.931 . S
C695 C691 1.460 . S
C695 C694 1.477 . S
C695 H715 0.930 . S
C696 N692 1.362 . S
C696 C693 1.431 . S
C696 C706 1.476 . S
H697 C691 0.929 1_565 S
C698 O689 1.250 . S
C698 O690 1.258 . S
O699 Mn684 2.161 . S
O699 C687 1.281 . S
O700 Mn684 2.297 . S
O700 C687 1.236 . S
N701 Mn685 2.282 . S
N701 C702 1.328 . S
N701 C706 1.318 . S
C702 N701 1.328 . S
C702 C703 1.457 . S
C702 H707 0.929 . S
C703 C702 1.457 . S
C703 C704 1.291 . S
C703 H716 0.931 . S
C704 C703 1.291 . S
C704 C705 1.373 . S
C704 H717 0.929 . S
C705 C704 1.373 . S
C705 C706 1.396 . S
C705 C712 1.403 . S
C706 C696 1.476 . S
C706 N701 1.318 . S
C706 C705 1.396 . S
H707 C702 0.929 . S
O708 Mn684 2.382 1_545 S
O708 C686 1.234 . S
O709 Mn684 2.207 1_545 S
O709 Mn685 2.215 . S
O709 C686 1.283 . S
O710 Mn684 2.094 1_545 S
O710 C688 1.238 . S
O711 Mn685 2.117 . S
O711 C688 1.264 . S
C712 C705 1.403 . S
C712 C713 1.399 . S
C712 H718 0.929 . S
C713 C693 1.449 . S
C713 C712 1.399 . S
C713 H719 0.930 . S
H714 C694 0.931 . S
H715 C695 0.930 . S
H716 C703 0.931 . S
H717 C704 0.929 . S
H718 C712 0.929 . S
H719 C713 0.930 . S
Mn720 O725 2.095 1_554 S
Mn720 O735 2.162 . S
Mn720 O736 2.297 . S
Mn720 O744 2.386 1_554 S
Mn720 O745 2.209 1_554 S
Mn720 O746 2.094 1_554 S
Mn721 O726 2.121 . S
Mn721 N728 2.257 . S
Mn721 N737 2.282 . S
Mn721 O745 2.215 . S
Mn721 O747 2.117 . S
C722 O744 1.234 . S
C722 O745 1.283 . S
C723 O735 1.281 . S
C723 O736 1.236 . S
C724 O746 1.240 . S
C724 O747 1.264 . S
O725 Mn720 2.095 1_556 S
O725 C734 1.250 . S
O726 Mn721 2.121 . S
O726 C734 1.258 . S
C727 N728 1.326 . S
C727 C731 1.460 . S
C727 H733 0.929 . S
N728 Mn721 2.257 . S
N728 C727 1.326 . S
N728 C732 1.362 . S
C729 C730 1.258 . S
C729 C732 1.431 . S
C729 C749 1.449 . S
C730 C729 1.258 . S
C730 C731 1.477 . S
C730 H750 0.931 . S
C731 C727 1.460 . S
C731 C730 1.477 . S
C731 H751 0.930 . S
C732 N728 1.362 . S
C732 C729 1.431 . S
C732 C742 1.476 . S
H733 C727 0.929 . S
C734 O725 1.250 . S
C734 O726 1.258 . S
O735 Mn720 2.162 . S
O735 C723 1.281 . S
O736 Mn720 2.297 . S
O736 C723 1.236 . S
N737 Mn721 2.282 . S
N737 C738 1.328 . S
N737 C742 1.318 . S
C738 N737 1.328 . S
C738 C739 1.457 . S
C738 H743 0.929 . S
C739 C738 1.457 . S
C739 C740 1.291 . S
C739 H752 0.931 . S
C740 C739 1.291 . S
C740 C741 1.373 . S
C740 H753 0.929 . S
C741 C740 1.373 . S
C741 C742 1.396 . S
C741 C748 1.403 . S
C742 C732 1.476 . S
C742 N737 1.318 . S
C742 C741 1.396 . S
H743 C738 0.929 . S
O744 Mn720 2.386 1_556 S
O744 C722 1.234 . S
O745 Mn720 2.209 1_556 S
O745 Mn721 2.215 . S
O745 C722 1.283 . S
O746 Mn720 2.094 1_556 S
O746 C724 1.240 . S
O747 Mn721 2.117 . S
O747 C724 1.264 . S
C748 C741 1.403 . S
C748 C749 1.399 . S
C748 H754 0.929 . S
C749 C729 1.449 . S
C749 C748 1.399 . S
C749 H755 0.930 . S
H750 C730 0.931 . S
H751 C731 0.930 . S
H752 C739 0.931 . S
H753 C740 0.929 . S
H754 C748 0.929 . S
H755 C749 0.930 . S
Mn756 O761 2.095 . S
Mn756 O771 2.162 1_655 S
Mn756 O772 2.297 . S
Mn756 O780 2.385 . S
Mn756 O781 2.209 . S
Mn756 O782 2.094 1_655 S
Mn757 O762 2.121 . S
Mn757 N764 2.257 . S
Mn757 N773 2.282 . S
Mn757 O781 2.215 . S
Mn757 O783 2.117 . S
C758 O780 1.234 . S
C758 O781 1.283 . S
C759 O771 1.267 1_655 S
C759 O772 1.262 . S
C760 O782 1.240 . S
C760 O783 1.264 1_455 S
O761 Mn756 2.095 . S
O761 C770 1.250 . S
O762 Mn757 2.121 . S
O762 C770 1.258 . S
C763 N764 1.326 . S
C763 C767 1.460 . S
C763 H769 0.929 . S
N764 Mn757 2.257 . S
N764 C763 1.326 . S
N764 C768 1.362 . S
C765 C766 1.258 . S
C765 C768 1.431 . S
C765 C785 1.449 . S
C766 C765 1.258 . S
C766 C767 1.477 . S
C766 H786 0.931 . S
C767 C763 1.460 . S
C767 C766 1.477 . S
C767 H787 0.930 . S
C768 N764 1.362 . S
C768 C765 1.431 . S
C768 C778 1.476 . S
H769 C763 0.929 . S
C770 O761 1.250 . S
C770 O762 1.258 . S
O771 Mn756 2.162 1_455 S
O771 C759 1.267 1_455 S
O772 Mn756 2.297 . S
O772 C759 1.262 . S
N773 Mn757 2.282 . S
N773 C774 1.328 . S
N773 C778 1.318 . S
C774 N773 1.328 . S
C774 C775 1.457 . S
C774 H779 0.929 . S
C775 C774 1.457 . S
C775 C776 1.291 . S
C775 H788 0.931 . S
C776 C775 1.291 . S
C776 C777 1.373 . S
C776 H789 0.929 . S
C777 C776 1.373 . S
C777 C778 1.396 . S
C777 C784 1.403 . S
C778 C768 1.476 . S
C778 N773 1.318 . S
C778 C777 1.396 . S
H779 C774 0.929 . S
O780 Mn756 2.385 . S
O780 C758 1.234 . S
O781 Mn756 2.209 . S
O781 Mn757 2.215 . S
O781 C758 1.283 . S
O782 Mn756 2.094 1_455 S
O782 C760 1.240 . S
O783 Mn757 2.117 . S
O783 C760 1.264 1_655 S
C784 C777 1.403 . S
C784 C785 1.399 . S
C784 H790 0.929 . S
C785 C765 1.449 . S
C785 C784 1.399 . S
C785 H791 0.930 . S
H786 C766 0.931 . S
H787 C767 0.930 . S
H788 C775 0.931 . S
H789 C776 0.929 . S
H790 C784 0.929 . S
H791 C785 0.930 . S
Mn792 O797 2.095 . S
Mn792 O807 2.162 . S
Mn792 O808 2.297 . S
Mn792 O816 2.385 . S
Mn792 O817 2.209 . S
Mn792 O818 2.094 . S
Mn793 O798 2.121 . S
Mn793 N800 2.257 . S
Mn793 N809 2.282 . S
Mn793 O817 2.215 . S
Mn793 O819 2.117 . S
C794 O816 1.234 . S
C794 O817 1.283 . S
C795 O807 1.281 . S
C795 O808 1.236 . S
C796 O818 1.240 . S
C796 O819 1.264 . S
O797 Mn792 2.095 . S
O797 C806 1.250 . S
O798 Mn793 2.121 . S
O798 C806 1.258 . S
C799 N800 1.326 . S
C799 C803 1.460 . S
C799 H805 0.929 . S
N800 Mn793 2.257 . S
N800 C799 1.326 . S
N800 C804 1.362 . S
C801 C802 1.258 . S
C801 C804 1.431 . S
C801 C821 1.449 . S
C802 C801 1.258 . S
C802 C803 1.477 . S
C802 H822 0.931 . S
C803 C799 1.460 . S
C803 C802 1.477 . S
C803 H823 0.930 . S
C804 N800 1.362 . S
C804 C801 1.431 . S
C804 C814 1.476 . S
H805 C799 0.929 . S
C806 O797 1.250 . S
C806 O798 1.258 . S
O807 Mn792 2.162 . S
O807 C795 1.281 . S
O808 Mn792 2.297 . S
O808 C795 1.236 . S
N809 Mn793 2.282 . S
N809 C810 1.328 . S
N809 C814 1.318 . S
C810 N809 1.328 . S
C810 C811 1.457 . S
C810 H815 0.929 . S
C811 C810 1.457 . S
C811 C812 1.291 . S
C811 H824 0.931 . S
C812 C811 1.291 . S
C812 C813 1.373 . S
C812 H825 0.929 . S
C813 C812 1.373 . S
C813 C814 1.396 . S
C813 C820 1.403 . S
C814 C804 1.476 . S
C814 N809 1.318 . S
C814 C813 1.396 . S
H815 C810 0.929 . S
O816 Mn792 2.385 . S
O816 C794 1.234 . S
O817 Mn792 2.209 . S
O817 Mn793 2.215 . S
O817 C794 1.283 . S
O818 Mn792 2.094 . S
O818 C796 1.240 . S
O819 Mn793 2.117 . S
O819 C796 1.264 . S
C820 C813 1.403 . S
C820 C821 1.399 . S
C820 H826 0.929 . S
C821 C801 1.449 . S
C821 C820 1.399 . S
C821 H827 0.930 . S
H822 C802 0.931 . S
H823 C803 0.930 . S
H824 C811 0.931 . S
H825 C812 0.929 . S
H826 C820 0.929 . S
H827 C821 0.930 . S
Mn828 O833 2.095 . S
Mn828 O843 2.162 . S
Mn828 O844 2.297 . S
Mn828 O852 2.385 . S
Mn828 O853 2.209 . S
Mn828 O854 2.094 . S
Mn829 O834 2.121 . S
Mn829 N836 2.257 . S
Mn829 N845 2.282 . S
Mn829 O853 2.215 . S
Mn829 O855 2.117 . S
C830 O852 1.234 . S
C830 O853 1.283 . S
C831 O843 1.281 . S
C831 O844 1.236 . S
C832 O854 1.240 . S
C832 O855 1.264 . S
O833 Mn828 2.095 . S
O833 C842 1.250 . S
O834 Mn829 2.121 . S
O834 C842 1.258 . S
C835 N836 1.326 . S
C835 C839 1.460 . S
C835 H841 0.929 . S
N836 Mn829 2.257 . S
N836 C835 1.326 . S
N836 C840 1.362 . S
C837 C838 1.258 . S
C837 C840 1.431 . S
C837 C857 1.449 . S
C838 C837 1.258 . S
C838 C839 1.477 . S
C838 H858 0.931 . S
C839 C835 1.460 . S
C839 C838 1.477 . S
C839 H859 0.930 . S
C840 N836 1.362 . S
C840 C837 1.431 . S
C840 C850 1.476 . S
H841 C835 0.929 . S
C842 O833 1.250 . S
C842 O834 1.258 . S
O843 Mn828 2.162 . S
O843 C831 1.281 . S
O844 Mn828 2.297 . S
O844 C831 1.236 . S
N845 Mn829 2.282 . S
N845 C846 1.328 . S
N845 C850 1.318 . S
C846 N845 1.328 . S
C846 C847 1.457 . S
C846 H851 0.929 . S
C847 C846 1.457 . S
C847 C848 1.291 . S
C847 H860 0.931 . S
C848 C847 1.291 . S
C848 C849 1.373 . S
C848 H861 0.929 . S
C849 C848 1.373 . S
C849 C850 1.396 . S
C849 C856 1.403 . S
C850 C840 1.476 . S
C850 N845 1.318 . S
C850 C849 1.396 . S
H851 C846 0.929 . S
O852 Mn828 2.385 . S
O852 C830 1.234 . S
O853 Mn828 2.209 . S
O853 Mn829 2.215 . S
O853 C830 1.283 . S
O854 Mn828 2.094 . S
O854 C832 1.240 . S
O855 Mn829 2.117 . S
O855 C832 1.264 . S
C856 C849 1.403 . S
C856 C857 1.399 . S
C856 H862 0.929 . S
C857 C837 1.449 . S
C857 C856 1.399 . S
C857 H863 0.930 . S
H858 C838 0.931 . S
H859 C839 0.930 . S
H860 C847 0.931 . S
H861 C848 0.929 . S
H862 C856 0.929 . S
H863 C857 0.930 . S
Nd864 C866 2.836 . S
Nd864 O884 2.500 . S
Nd864 O885 2.492 . S
Nd864 O886 2.487 . S
Nd864 O887 2.682 . S
Nd864 O888 2.410 . S
Nd864 O893 2.414 . S
Nd864 O895 2.424 . S
Nd865 C875 2.836 1_545 S
Nd865 O887 2.414 . S
Nd865 O889 2.424 1_455 S
Nd865 O890 2.500 1_545 S
Nd865 O891 2.492 1_545 S
Nd865 O892 2.487 . S
Nd865 O893 2.682 . S
Nd865 O894 2.410 . S
C866 Nd864 2.836 . S
C866 C867 1.498 . S
C866 O884 1.258 . S
C866 O885 1.239 . S
C867 C866 1.498 . S
C867 C868 1.366 . S
C867 C872 1.407 . S
C868 C867 1.366 . S
C868 C869 1.392 . S
C868 H896 0.930 . S
C869 C868 1.392 . S
C869 C870 1.398 . S
C869 H897 0.929 . S
C870 C869 1.398 . S
C870 C871 1.352 . S
C871 C870 1.352 . S
C871 C872 1.384 . S
C871 H898 0.930 . S
C872 C867 1.407 . S
C872 C871 1.384 . S
C872 H899 0.929 . S
C873 O886 1.241 . S
C873 O887 1.273 . S
C874 O888 1.251 . S
C874 O889 1.268 1_455 S
C875 Nd865 2.836 1_565 S
C875 C876 1.498 . S
C875 O890 1.258 . S
C875 O891 1.239 . S
C876 C875 1.498 . S
C876 C877 1.366 . S
C876 C881 1.407 . S
C877 C876 1.366 . S
C877 C878 1.392 . S
C877 H900 0.930 . S
C878 C877 1.392 . S
C878 C879 1.398 . S
C878 H901 0.929 . S
C879 C878 1.398 . S
C879 C880 1.352 . S
C880 C879 1.352 . S
C880 C881 1.384 . S
C880 H902 0.930 . S
C881 C876 1.407 . S
C881 C880 1.384 . S
C881 H903 0.929 . S
C882 O892 1.241 . S
C882 O893 1.273 . S
C883 O894 1.251 . S
C883 O895 1.268 . S
O884 Nd864 2.500 . S
O884 C866 1.258 . S
O885 Nd864 2.492 . S
O885 C866 1.239 . S
O886 Nd864 2.487 . S
O886 C873 1.241 . S
O887 Nd864 2.682 . S
O887 Nd865 2.414 . S
O887 C873 1.273 . S
O888 Nd864 2.410 . S
O888 C874 1.251 . S
O889 Nd865 2.424 1_655 S
O889 C874 1.268 1_655 S
O890 Nd865 2.500 1_565 S
O890 C875 1.258 . S
O891 Nd865 2.492 1_565 S
O891 C875 1.239 . S
O892 Nd865 2.487 . S
O892 C882 1.241 . S
O893 Nd864 2.414 . S
O893 Nd865 2.682 . S
O893 C882 1.273 . S
O894 Nd865 2.410 . S
O894 C883 1.251 . S
O895 Nd864 2.424 . S
O895 C883 1.268 . S
H896 C868 0.930 . S
H897 C869 0.929 . S
H898 C871 0.930 . S
H899 C872 0.929 . S
H900 C877 0.930 . S
H901 C878 0.929 . S
H902 C880 0.930 . S
H903 C881 0.929 . S
Nd904 C906 2.836 . S
Nd904 O924 2.500 . S
Nd904 O925 2.492 . S
Nd904 O926 2.487 . S
Nd904 O927 2.682 . S
Nd904 O928 2.410 . S
Nd904 O933 2.414 . S
Nd904 O935 2.424 . S
Nd905 C915 2.836 . S
Nd905 O927 2.414 . S
Nd905 O929 2.424 . S
Nd905 O930 2.500 . S
Nd905 O931 2.492 . S
Nd905 O932 2.487 . S
Nd905 O933 2.682 . S
Nd905 O934 2.410 . S
C906 Nd904 2.836 . S
C906 C907 1.498 . S
C906 O924 1.258 . S
C906 O925 1.239 . S
C907 C906 1.498 . S
C907 C908 1.366 . S
C907 C912 1.407 . S
C908 C907 1.366 . S
C908 C909 1.392 . S
C908 H936 0.930 . S
C909 C908 1.392 . S
C909 C910 1.406 . S
C909 H937 0.929 . S
C910 C909 1.406 . S
C910 C911 1.363 . S
C911 C910 1.363 . S
C911 C912 1.384 . S
C911 H938 0.930 1_565 S
C912 C907 1.407 . S
C912 C911 1.384 . S
C912 H939 0.929 . S
C913 O926 1.241 . S
C913 O927 1.273 . S
C914 O928 1.251 . S
C914 O929 1.268 . S
C915 Nd905 2.836 . S
C915 C916 1.498 . S
C915 O930 1.258 . S
C915 O931 1.239 . S
C916 C915 1.498 . S
C916 C917 1.366 . S
C916 C921 1.407 . S
C917 C916 1.366 . S
C917 C918 1.392 . S
C917 H940 0.930 . S
C918 C917 1.392 . S
C918 C919 1.398 . S
C918 H941 0.929 . S
C919 C918 1.398 . S
C919 C920 1.352 . S
C920 C919 1.352 . S
C920 C921 1.384 . S
C920 H942 0.930 . S
C921 C916 1.407 . S
C921 C920 1.384 . S
C921 H943 0.929 . S
C922 O932 1.241 . S
C922 O933 1.273 . S
C923 O934 1.251 . S
C923 O935 1.268 . S
O924 Nd904 2.500 . S
O924 C906 1.258 . S
O925 Nd904 2.492 . S
O925 C906 1.239 . S
O926 Nd904 2.487 . S
O926 C913 1.241 . S
O927 Nd904 2.682 . S
O927 Nd905 2.414 . S
O927 C913 1.273 . S
O928 Nd904 2.410 . S
O928 C914 1.251 . S
O929 Nd905 2.424 . S
O929 C914 1.268 . S
O930 Nd905 2.500 . S
O930 C915 1.258 . S
O931 Nd905 2.492 . S
O931 C915 1.239 . S
O932 Nd905 2.487 . S
O932 C922 1.241 . S
O933 Nd904 2.414 . S
O933 Nd905 2.682 . S
O933 C922 1.273 . S
O934 Nd905 2.410 . S
O934 C923 1.251 . S
O935 Nd904 2.424 . S
O935 C923 1.268 . S
H936 C908 0.930 . S
H937 C909 0.929 . S
H938 C911 0.930 1_545 S
H939 C912 0.929 . S
H940 C917 0.930 . S
H941 C918 0.929 . S
H942 C920 0.930 . S
H943 C921 0.929 . S
Nd944 C946 2.836 . S
Nd944 O964 2.500 . S
Nd944 O965 2.492 . S
Nd944 O966 2.487 . S
Nd944 O967 2.682 . S
Nd944 O968 2.410 . S
Nd944 O973 2.414 . S
Nd944 O975 2.424 . S
Nd945 C955 2.836 . S
Nd945 O967 2.414 . S
Nd945 O969 2.424 . S
Nd945 O970 2.500 . S
Nd945 O971 2.492 . S
Nd945 O972 2.487 . S
Nd945 O973 2.682 . S
Nd945 O974 2.410 . S
C946 Nd944 2.836 . S
C946 C947 1.498 . S
C946 O964 1.258 . S
C946 O965 1.239 . S
C947 C946 1.498 . S
C947 C948 1.366 . S
C947 C952 1.407 . S
C948 C947 1.366 . S
C948 C949 1.392 . S
C948 H976 0.930 . S
C949 C948 1.392 . S
C949 C950 1.398 . S
C949 H977 0.929 . S
C950 C949 1.398 . S
C950 C951 1.352 . S
C951 C950 1.352 . S
C951 C952 1.384 . S
C951 H978 0.930 . S
C952 C947 1.407 . S
C952 C951 1.384 . S
C952 H979 0.929 . S
C953 O966 1.241 . S
C953 O967 1.273 . S
C954 O968 1.251 . S
C954 O969 1.268 . S
C955 Nd945 2.836 . S
C955 C956 1.498 . S
C955 O970 1.258 . S
C955 O971 1.239 . S
C956 C955 1.498 . S
C956 C957 1.366 . S
C956 C961 1.407 . S
C957 C956 1.366 . S
C957 C958 1.392 . S
C957 H980 0.930 . S
C958 C957 1.392 . S
C958 C959 1.398 . S
C958 H981 0.929 . S
C959 C958 1.398 . S
C959 C960 1.352 . S
C960 C959 1.352 . S
C960 C961 1.384 . S
C960 H982 0.930 . S
C961 C956 1.407 . S
C961 C960 1.384 . S
C961 H983 0.929 . S
C962 O972 1.241 . S
C962 O973 1.273 . S
C963 O974 1.251 . S
C963 O975 1.268 . S
O964 Nd944 2.500 . S
O964 C946 1.258 . S
O965 Nd944 2.492 . S
O965 C946 1.239 . S
O966 Nd944 2.487 . S
O966 C953 1.241 . S
O967 Nd944 2.682 . S
O967 Nd945 2.414 . S
O967 C953 1.273 . S
O968 Nd944 2.410 . S
O968 C954 1.251 . S
O969 Nd945 2.424 . S
O969 C954 1.268 . S
O970 Nd945 2.500 . S
O970 C955 1.258 . S
O971 Nd945 2.492 . S
O971 C955 1.239 . S
O972 Nd945 2.487 . S
O972 C962 1.241 . S
O973 Nd944 2.414 . S
O973 Nd945 2.682 . S
O973 C962 1.273 . S
O974 Nd945 2.410 . S
O974 C963 1.251 . S
O975 Nd944 2.424 . S
O975 C963 1.268 . S
H976 C948 0.930 . S
H977 C949 0.929 . S
H978 C951 0.930 . S
H979 C952 0.929 . S
H980 C957 0.930 . S
H981 C958 0.929 . S
H982 C960 0.930 . S
H983 C961 0.929 . S
Nd984 C986 2.836 . S
Nd984 O1004 2.500 . S
Nd984 O1005 2.492 . S
Nd984 O1006 2.487 . S
Nd984 O1007 2.682 . S
Nd984 O1008 2.410 . S
Nd984 O1013 2.414 . S
Nd984 O1015 2.424 . S
Nd985 C995 2.836 . S
Nd985 O1007 2.414 . S
Nd985 O1009 2.424 . S
Nd985 O1010 2.500 . S
Nd985 O1011 2.492 . S
Nd985 O1012 2.487 . S
Nd985 O1013 2.682 . S
Nd985 O1014 2.410 . S
C986 Nd984 2.836 . S
C986 C987 1.498 . S
C986 O1004 1.258 . S
C986 O1005 1.239 . S
C987 C986 1.498 . S
C987 C988 1.366 . S
C987 C992 1.407 . S
C988 C987 1.366 . S
C988 C989 1.392 1_556 S
C988 H1016 0.930 . S
C989 C988 1.392 1_554 S
C989 C990 1.398 . S
C989 H1017 0.929 . S
C990 C989 1.398 . S
C990 C991 1.352 . S
C991 C990 1.352 . S
C991 C992 1.384 1_554 S
C991 H1018 0.930 . S
C992 C987 1.407 . S
C992 C991 1.384 1_556 S
C992 H1019 0.929 . S
C993 O1006 1.241 . S
C993 O1007 1.273 . S
C994 O1008 1.251 . S
C994 O1009 1.268 . S
C995 Nd985 2.836 . S
C995 C996 1.498 . S
C995 O1010 1.258 . S
C995 O1011 1.239 . S
C996 C995 1.498 . S
C996 C997 1.366 . S
C996 C1001 1.407 . S
C997 C996 1.366 . S
C997 C998 1.392 . S
C997 H1020 0.930 . S
C998 C997 1.392 . S
C998 C999 1.398 . S
C998 H1021 0.929 . S
C999 C998 1.398 . S
C999 C1000 1.352 . S
C1000 C999 1.352 . S
C1000 C1001 1.384 . S
C1000 H1022 0.930 . S
C1001 C996 1.407 . S
C1001 C1000 1.384 . S
C1001 H1023 0.929 . S
C1002 O1012 1.241 . S
C1002 O1013 1.273 . S
C1003 O1014 1.251 . S
C1003 O1015 1.268 . S
O1004 Nd984 2.500 . S
O1004 C986 1.258 . S
O1005 Nd984 2.492 . S
O1005 C986 1.239 . S
O1006 Nd984 2.487 . S
O1006 C993 1.241 . S
O1007 Nd984 2.682 . S
O1007 Nd985 2.414 . S
O1007 C993 1.273 . S
O1008 Nd984 2.410 . S
O1008 C994 1.251 . S
O1009 Nd985 2.424 . S
O1009 C994 1.268 . S
O1010 Nd985 2.500 . S
O1010 C995 1.258 . S
O1011 Nd985 2.492 . S
O1011 C995 1.239 . S
O1012 Nd985 2.487 . S
O1012 C1002 1.241 . S
O1013 Nd984 2.414 . S
O1013 Nd985 2.682 . S
O1013 C1002 1.273 . S
O1014 Nd985 2.410 . S
O1014 C1003 1.251 . S
O1015 Nd984 2.424 . S
O1015 C1003 1.268 . S
H1016 C988 0.930 . S
H1017 C989 0.929 . S
H1018 C991 0.930 . S
H1019 C992 0.929 . S
H1020 C997 0.930 . S
H1021 C998 0.929 . S
H1022 C1000 0.930 . S
H1023 C1001 0.929 . S
Nd1024 C1026 2.836 . S
Nd1024 O1044 2.500 . S
Nd1024 O1045 2.492 . S
Nd1024 O1046 2.487 . S
Nd1024 O1047 2.682 . S
Nd1024 O1048 2.410 . S
Nd1024 O1053 2.414 . S
Nd1024 O1055 2.424 . S
Nd1025 C1035 2.836 1_545 S
Nd1025 O1047 2.414 . S
Nd1025 O1049 2.424 . S
Nd1025 O1050 2.500 1_545 S
Nd1025 O1051 2.492 1_545 S
Nd1025 O1052 2.487 1_455 S
Nd1025 O1053 2.682 . S
Nd1025 O1054 2.410 . S
C1026 Nd1024 2.836 . S
C1026 C1027 1.498 . S
C1026 O1044 1.258 . S
C1026 O1045 1.239 . S
C1027 C1026 1.498 . S
C1027 C1028 1.366 . S
C1027 C1032 1.407 . S
C1028 C1027 1.366 . S
C1028 C1029 1.392 . S
C1028 H1056 0.930 . S
C1029 C1028 1.392 . S
C1029 C1030 1.398 . S
C1029 H1057 0.929 1_455 S
C1030 C1029 1.398 . S
C1030 C1031 1.352 . S
C1031 C1030 1.352 . S
C1031 C1032 1.384 . S
C1031 H1058 0.930 . S
C1032 C1027 1.407 . S
C1032 C1031 1.384 . S
C1032 H1059 0.929 . S
C1033 O1046 1.241 . S
C1033 O1047 1.273 . S
C1034 O1048 1.251 . S
C1034 O1049 1.268 . S
C1035 Nd1025 2.836 1_565 S
C1035 C1036 1.498 . S
C1035 O1050 1.258 . S
C1035 O1051 1.239 . S
C1036 C1035 1.498 . S
C1036 C1037 1.366 . S
C1036 C1041 1.407 . S
C1037 C1036 1.366 . S
C1037 C1038 1.392 . S
C1037 H1060 0.930 . S
C1038 C1037 1.392 . S
C1038 C1039 1.398 . S
C1038 H1061 0.929 . S
C1039 C1038 1.398 . S
C1039 C1040 1.352 . S
C1040 C1039 1.352 . S
C1040 C1041 1.384 . S
C1040 H1062 0.930 . S
C1041 C1036 1.407 . S
C1041 C1040 1.384 . S
C1041 H1063 0.929 . S
C1042 O1052 1.241 1_455 S
C1042 O1053 1.273 . S
C1043 O1054 1.251 . S
C1043 O1055 1.268 . S
O1044 Nd1024 2.500 . S
O1044 C1026 1.258 . S
O1045 Nd1024 2.492 . S
O1045 C1026 1.239 . S
O1046 Nd1024 2.487 . S
O1046 C1033 1.241 . S
O1047 Nd1024 2.682 . S
O1047 Nd1025 2.414 . S
O1047 C1033 1.273 . S
O1048 Nd1024 2.410 . S
O1048 C1034 1.251 . S
O1049 Nd1025 2.424 . S
O1049 C1034 1.268 . S
O1050 Nd1025 2.500 1_565 S
O1050 C1035 1.258 . S
O1051 Nd1025 2.492 1_565 S
O1051 C1035 1.239 . S
O1052 Nd1025 2.487 1_655 S
O1052 C1042 1.241 1_655 S
O1053 Nd1024 2.414 . S
O1053 Nd1025 2.682 . S
O1053 C1042 1.273 . S
O1054 Nd1025 2.410 . S
O1054 C1043 1.251 . S
O1055 Nd1024 2.424 . S
O1055 C1043 1.268 . S
H1056 C1028 0.930 . S
H1057 C1029 0.929 1_655 S
H1058 C1031 0.930 . S
H1059 C1032 0.929 . S
H1060 C1037 0.930 . S
H1061 C1038 0.929 . S
H1062 C1040 0.930 . S
H1063 C1041 0.929 . S
Nd1064 C1066 2.836 . S
Nd1064 O1084 2.500 . S
Nd1064 O1085 2.492 . S
Nd1064 O1086 2.487 . S
Nd1064 O1087 2.682 . S
Nd1064 O1088 2.410 . S
Nd1064 O1093 2.414 . S
Nd1064 O1095 2.424 . S
Nd1065 C1075 2.836 . S
Nd1065 O1087 2.414 . S
Nd1065 O1089 2.424 . S
Nd1065 O1090 2.500 . S
Nd1065 O1091 2.492 . S
Nd1065 O1092 2.487 . S
Nd1065 O1093 2.682 . S
Nd1065 O1094 2.410 . S
C1066 Nd1064 2.836 . S
C1066 C1067 1.498 . S
C1066 O1084 1.258 . S
C1066 O1085 1.239 . S
C1067 C1066 1.498 . S
C1067 C1068 1.366 . S
C1067 C1072 1.407 . S
C1068 C1067 1.366 . S
C1068 C1069 1.392 . S
C1068 H1096 0.930 . S
C1069 C1068 1.392 . S
C1069 C1070 1.398 . S
C1069 H1097 0.929 . S
C1070 C1069 1.398 . S
C1070 C1071 1.352 . S
C1071 C1070 1.352 . S
C1071 C1072 1.384 . S
C1071 H1098 0.930 . S
C1072 C1067 1.407 . S
C1072 C1071 1.384 . S
C1072 H1099 0.929 . S
C1073 O1086 1.241 . S
C1073 O1087 1.273 . S
C1074 O1088 1.251 . S
C1074 O1089 1.268 . S
C1075 Nd1065 2.836 . S
C1075 C1076 1.498 . S
C1075 O1090 1.258 . S
C1075 O1091 1.239 . S
C1076 C1075 1.498 . S
C1076 C1077 1.366 . S
C1076 C1081 1.407 . S
C1077 C1076 1.366 . S
C1077 C1078 1.392 . S
C1077 H1100 0.930 . S
C1078 C1077 1.392 . S
C1078 C1079 1.398 . S
C1078 H1101 0.929 . S
C1079 C1078 1.398 . S
C1079 C1080 1.352 . S
C1080 C1079 1.352 . S
C1080 C1081 1.384 . S
C1080 H1102 0.930 . S
C1081 C1076 1.407 . S
C1081 C1080 1.384 . S
C1081 H1103 0.929 . S
C1082 O1092 1.241 . S
C1082 O1093 1.273 . S
C1083 O1094 1.251 . S
C1083 O1095 1.268 . S
O1084 Nd1064 2.500 . S
O1084 C1066 1.258 . S
O1085 Nd1064 2.492 . S
O1085 C1066 1.239 . S
O1086 Nd1064 2.487 . S
O1086 C1073 1.241 . S
O1087 Nd1064 2.682 . S
O1087 Nd1065 2.414 . S
O1087 C1073 1.273 . S
O1088 Nd1064 2.410 . S
O1088 C1074 1.251 . S
O1089 Nd1065 2.424 . S
O1089 C1074 1.268 . S
O1090 Nd1065 2.500 . S
O1090 C1075 1.258 . S
O1091 Nd1065 2.492 . S
O1091 C1075 1.239 . S
O1092 Nd1065 2.487 . S
O1092 C1082 1.241 . S
O1093 Nd1064 2.414 . S
O1093 Nd1065 2.682 . S
O1093 C1082 1.273 . S
O1094 Nd1065 2.410 . S
O1094 C1083 1.251 . S
O1095 Nd1064 2.424 . S
O1095 C1083 1.268 . S
H1096 C1068 0.930 . S
H1097 C1069 0.929 . S
H1098 C1071 0.930 . S
H1099 C1072 0.929 . S
H1100 C1077 0.930 . S
H1101 C1078 0.929 . S
H1102 C1080 0.930 . S
H1103 C1081 0.929 . S
Nd1104 C1106 2.836 . S
Nd1104 O1124 2.500 . S
Nd1104 O1125 2.492 . S
Nd1104 O1126 2.487 . S
Nd1104 O1127 2.682 . S
Nd1104 O1128 2.410 . S
Nd1104 O1133 2.414 . S
Nd1104 O1135 2.424 . S
Nd1105 C1115 2.836 . S
Nd1105 O1127 2.414 . S
Nd1105 O1129 2.424 . S
Nd1105 O1130 2.500 . S
Nd1105 O1131 2.492 . S
Nd1105 O1132 2.487 . S
Nd1105 O1133 2.682 . S
Nd1105 O1134 2.410 . S
C1106 Nd1104 2.836 . S
C1106 C1107 1.498 . S
C1106 O1124 1.258 . S
C1106 O1125 1.239 . S
C1107 C1106 1.498 . S
C1107 C1108 1.366 . S
C1107 C1112 1.407 1_545 S
C1108 C1107 1.366 . S
C1108 C1109 1.392 . S
C1108 H1136 0.930 . S
C1109 C1108 1.392 . S
C1109 C1110 1.398 . S
C1109 H1137 0.929 . S
C1110 C1109 1.398 . S
C1110 C1111 1.352 1_545 S
C1111 C1110 1.352 1_565 S
C1111 C1112 1.384 . S
C1111 H1138 0.930 . S
C1112 C1107 1.407 1_565 S
C1112 C1111 1.384 . S
C1112 H1139 0.929 . S
C1113 O1126 1.241 . S
C1113 O1127 1.273 . S
C1114 O1128 1.251 . S
C1114 O1129 1.268 . S
C1115 Nd1105 2.836 . S
C1115 C1116 1.498 . S
C1115 O1130 1.258 . S
C1115 O1131 1.239 . S
C1116 C1115 1.498 . S
C1116 C1117 1.366 . S
C1116 C1121 1.407 . S
C1117 C1116 1.366 . S
C1117 C1118 1.392 . S
C1117 H1140 0.930 . S
C1118 C1117 1.392 . S
C1118 C1119 1.398 . S
C1118 H1141 0.929 . S
C1119 C1118 1.398 . S
C1119 C1120 1.352 . S
C1120 C1119 1.352 . S
C1120 C1121 1.384 . S
C1120 H1142 0.930 . S
C1121 C1116 1.407 . S
C1121 C1120 1.384 . S
C1121 H1143 0.929 . S
C1122 O1132 1.241 . S
C1122 O1133 1.273 . S
C1123 O1134 1.251 . S
C1123 O1135 1.268 . S
O1124 Nd1104 2.500 . S
O1124 C1106 1.258 . S
O1125 Nd1104 2.492 . S
O1125 C1106 1.239 . S
O1126 Nd1104 2.487 . S
O1126 C1113 1.241 . S
O1127 Nd1104 2.682 . S
O1127 Nd1105 2.414 . S
O1127 C1113 1.273 . S
O1128 Nd1104 2.410 . S
O1128 C1114 1.251 . S
O1129 Nd1105 2.424 . S
O1129 C1114 1.268 . S
O1130 Nd1105 2.500 . S
O1130 C1115 1.258 . S
O1131 Nd1105 2.492 . S
O1131 C1115 1.239 . S
O1132 Nd1105 2.487 . S
O1132 C1122 1.241 . S
O1133 Nd1104 2.414 . S
O1133 Nd1105 2.682 . S
O1133 C1122 1.273 . S
O1134 Nd1105 2.410 . S
O1134 C1123 1.251 . S
O1135 Nd1104 2.424 . S
O1135 C1123 1.268 . S
H1136 C1108 0.930 . S
H1137 C1109 0.929 . S
H1138 C1111 0.930 . S
H1139 C1112 0.929 . S
H1140 C1117 0.930 . S
H1141 C1118 0.929 . S
H1142 C1120 0.930 . S
H1143 C1121 0.929 . S
Nd1144 C1146 2.836 . S
Nd1144 O1164 2.500 . S
Nd1144 O1165 2.492 . S
Nd1144 O1166 2.487 . S
Nd1144 O1167 2.682 . S
Nd1144 O1168 2.410 . S
Nd1144 O1173 2.414 . S
Nd1144 O1175 2.424 . S
Nd1145 C1155 2.836 . S
Nd1145 O1167 2.414 . S
Nd1145 O1169 2.424 . S
Nd1145 O1170 2.500 . S
Nd1145 O1171 2.492 . S
Nd1145 O1172 2.487 . S
Nd1145 O1173 2.682 . S
Nd1145 O1174 2.410 . S
C1146 Nd1144 2.836 . S
C1146 C1147 1.498 . S
C1146 O1164 1.258 . S
C1146 O1165 1.239 . S
C1147 C1146 1.498 . S
C1147 C1148 1.366 . S
C1147 C1152 1.407 . S
C1148 C1147 1.366 . S
C1148 C1149 1.392 . S
C1148 H1176 0.930 . S
C1149 C1148 1.392 . S
C1149 C1150 1.398 . S
C1149 H1177 0.929 . S
C1150 C1149 1.398 . S
C1150 C1151 1.352 . S
C1151 C1150 1.352 . S
C1151 C1152 1.384 . S
C1151 H1178 0.930 . S
C1152 C1147 1.407 . S
C1152 C1151 1.384 . S
C1152 H1179 0.929 . S
C1153 O1166 1.241 . S
C1153 O1167 1.273 . S
C1154 O1168 1.251 . S
C1154 O1169 1.268 . S
C1155 Nd1145 2.836 . S
C1155 C1156 1.498 . S
C1155 O1170 1.258 . S
C1155 O1171 1.239 . S
C1156 C1155 1.498 . S
C1156 C1157 1.366 . S
C1156 C1161 1.407 . S
C1157 C1156 1.366 . S
C1157 C1158 1.392 . S
C1157 H1180 0.930 . S
C1158 C1157 1.392 . S
C1158 C1159 1.398 . S
C1158 H1181 0.929 . S
C1159 C1158 1.398 . S
C1159 C1160 1.352 . S
C1160 C1159 1.352 . S
C1160 C1161 1.384 . S
C1160 H1182 0.930 . S
C1161 C1156 1.407 . S
C1161 C1160 1.384 . S
C1161 H1183 0.929 . S
C1162 O1172 1.241 . S
C1162 O1173 1.273 . S
C1163 O1174 1.251 . S
C1163 O1175 1.268 . S
O1164 Nd1144 2.500 . S
O1164 C1146 1.258 . S
O1165 Nd1144 2.492 . S
O1165 C1146 1.239 . S
O1166 Nd1144 2.487 . S
O1166 C1153 1.241 . S
O1167 Nd1144 2.682 . S
O1167 Nd1145 2.414 . S
O1167 C1153 1.273 . S
O1168 Nd1144 2.410 . S
O1168 C1154 1.251 . S
O1169 Nd1145 2.424 . S
O1169 C1154 1.268 . S
O1170 Nd1145 2.500 . S
O1170 C1155 1.258 . S
O1171 Nd1145 2.492 . S
O1171 C1155 1.239 . S
O1172 Nd1145 2.487 . S
O1172 C1162 1.241 . S
O1173 Nd1144 2.414 . S
O1173 Nd1145 2.682 . S
O1173 C1162 1.273 . S
O1174 Nd1145 2.410 . S
O1174 C1163 1.251 . S
O1175 Nd1144 2.424 . S
O1175 C1163 1.268 . S
H1176 C1148 0.930 . S
H1177 C1149 0.929 . S
H1178 C1151 0.930 . S
H1179 C1152 0.929 . S
H1180 C1157 0.930 . S
H1181 C1158 0.929 . S
H1182 C1160 0.930 . S
H1183 C1161 0.929 . S
Nd1184 C1186 2.836 . S
Nd1184 O1204 2.500 . S
Nd1184 O1205 2.492 . S
Nd1184 O1206 2.487 . S
Nd1184 O1207 2.682 . S
Nd1184 O1208 2.410 . S
Nd1184 O1213 2.414 . S
Nd1184 O1215 2.424 . S
Nd1185 C1195 2.836 . S
Nd1185 O1207 2.414 . S
Nd1185 O1209 2.424 . S
Nd1185 O1210 2.500 . S
Nd1185 O1211 2.492 . S
Nd1185 O1212 2.487 . S
Nd1185 O1213 2.682 . S
Nd1185 O1214 2.410 . S
C1186 Nd1184 2.836 . S
C1186 C1187 1.498 . S
C1186 O1204 1.258 . S
C1186 O1205 1.239 . S
C1187 C1186 1.498 . S
C1187 C1188 1.366 . S
C1187 C1192 1.407 . S
C1188 C1187 1.366 . S
C1188 C1189 1.392 . S
C1188 H1216 0.930 . S
C1189 C1188 1.392 . S
C1189 C1190 1.398 . S
C1189 H1217 0.929 . S
C1190 C1189 1.398 . S
C1190 C1191 1.352 . S
C1191 C1190 1.352 . S
C1191 C1192 1.384 . S
C1191 H1218 0.930 . S
C1192 C1187 1.407 . S
C1192 C1191 1.384 . S
C1192 H1219 0.929 . S
C1193 O1206 1.241 . S
C1193 O1207 1.273 . S
C1194 O1208 1.251 . S
C1194 O1209 1.268 . S
C1195 Nd1185 2.836 . S
C1195 C1196 1.498 . S
C1195 O1210 1.258 . S
C1195 O1211 1.239 . S
C1196 C1195 1.498 . S
C1196 C1197 1.366 . S
C1196 C1201 1.407 . S
C1197 C1196 1.366 . S
C1197 C1198 1.392 . S
C1197 H1220 0.930 . S
C1198 C1197 1.392 . S
C1198 C1199 1.398 . S
C1198 H1221 0.929 . S
C1199 C1198 1.398 . S
C1199 C1200 1.352 . S
C1200 C1199 1.352 . S
C1200 C1201 1.384 . S
C1200 H1222 0.930 . S
C1201 C1196 1.407 . S
C1201 C1200 1.384 . S
C1201 H1223 0.929 . S
C1202 O1212 1.241 . S
C1202 O1213 1.273 . S
C1203 O1214 1.251 . S
C1203 O1215 1.268 . S
O1204 Nd1184 2.500 . S
O1204 C1186 1.258 . S
O1205 Nd1184 2.492 . S
O1205 C1186 1.239 . S
O1206 Nd1184 2.487 . S
O1206 C1193 1.241 . S
O1207 Nd1184 2.682 . S
O1207 Nd1185 2.414 . S
O1207 C1193 1.273 . S
O1208 Nd1184 2.410 . S
O1208 C1194 1.251 . S
O1209 Nd1185 2.424 . S
O1209 C1194 1.268 . S
O1210 Nd1185 2.500 . S
O1210 C1195 1.258 . S
O1211 Nd1185 2.492 . S
O1211 C1195 1.239 . S
O1212 Nd1185 2.487 . S
O1212 C1202 1.241 . S
O1213 Nd1184 2.414 . S
O1213 Nd1185 2.682 . S
O1213 C1202 1.273 . S
O1214 Nd1185 2.410 . S
O1214 C1203 1.251 . S
O1215 Nd1184 2.424 . S
O1215 C1203 1.268 . S
H1216 C1188 0.930 . S
H1217 C1189 0.929 . S
H1218 C1191 0.930 . S
H1219 C1192 0.929 . S
H1220 C1197 0.930 . S
H1221 C1198 0.929 . S
H1222 C1200 0.930 . S
H1223 C1201 0.929 . S
Nd1224 C1226 2.836 . S
Nd1224 O1244 2.500 . S
Nd1224 O1245 2.492 . S
Nd1224 O1246 2.487 . S
Nd1224 O1247 2.682 . S
Nd1224 O1248 2.410 . S
Nd1224 O1253 2.414 . S
Nd1224 O1255 2.424 . S
Nd1225 C1235 2.836 . S
Nd1225 O1247 2.414 . S
Nd1225 O1249 2.424 . S
Nd1225 O1250 2.500 . S
Nd1225 O1251 2.492 . S
Nd1225 O1252 2.487 . S
Nd1225 O1253 2.682 . S
Nd1225 O1254 2.410 . S
C1226 Nd1224 2.836 . S
C1226 C1227 1.498 . S
C1226 O1244 1.258 . S
C1226 O1245 1.239 . S
C1227 C1226 1.498 . S
C1227 C1228 1.366 . S
C1227 C1232 1.407 . S
C1228 C1227 1.366 . S
C1228 C1229 1.392 . S
C1228 H1256 0.930 . S
C1229 C1228 1.392 . S
C1229 C1230 1.398 . S
C1229 H1257 0.929 . S
C1230 C1229 1.398 . S
C1230 C1231 1.352 . S
C1231 C1230 1.352 . S
C1231 C1232 1.384 . S
C1231 H1258 0.930 . S
C1232 C1227 1.407 . S
C1232 C1231 1.384 . S
C1232 H1259 0.929 . S
C1233 O1246 1.241 . S
C1233 O1247 1.273 . S
C1234 O1248 1.251 . S
C1234 O1249 1.268 . S
C1235 Nd1225 2.836 . S
C1235 C1236 1.498 . S
C1235 O1250 1.258 . S
C1235 O1251 1.239 . S
C1236 C1235 1.498 . S
C1236 C1237 1.366 . S
C1236 C1241 1.407 . S
C1237 C1236 1.366 . S
C1237 C1238 1.392 . S
C1237 H1260 0.930 . S
C1238 C1237 1.392 . S
C1238 C1239 1.398 . S
C1238 H1261 0.929 . S
C1239 C1238 1.398 . S
C1239 C1240 1.352 . S
C1240 C1239 1.352 . S
C1240 C1241 1.384 . S
C1240 H1262 0.930 . S
C1241 C1236 1.407 . S
C1241 C1240 1.384 . S
C1241 H1263 0.929 . S
C1242 O1252 1.241 . S
C1242 O1253 1.273 . S
C1243 O1254 1.251 . S
C1243 O1255 1.268 . S
O1244 Nd1224 2.500 . S
O1244 C1226 1.258 . S
O1245 Nd1224 2.492 . S
O1245 C1226 1.239 . S
O1246 Nd1224 2.487 . S
O1246 C1233 1.241 . S
O1247 Nd1224 2.682 . S
O1247 Nd1225 2.414 . S
O1247 C1233 1.273 . S
O1248 Nd1224 2.410 . S
O1248 C1234 1.251 . S
O1249 Nd1225 2.424 . S
O1249 C1234 1.268 . S
O1250 Nd1225 2.500 . S
O1250 C1235 1.258 . S
O1251 Nd1225 2.492 . S
O1251 C1235 1.239 . S
O1252 Nd1225 2.487 . S
O1252 C1242 1.241 . S
O1253 Nd1224 2.414 . S
O1253 Nd1225 2.682 . S
O1253 C1242 1.273 . S
O1254 Nd1225 2.410 . S
O1254 C1243 1.251 . S
O1255 Nd1224 2.424 . S
O1255 C1243 1.268 . S
H1256 C1228 0.930 . S
H1257 C1229 0.929 . S
H1258 C1231 0.930 . S
H1259 C1232 0.929 . S
H1260 C1237 0.930 . S
H1261 C1238 0.929 . S
H1262 C1240 0.930 . S
H1263 C1241 0.929 . S
Nd1264 C1266 2.836 1_455 S
Nd1264 O1284 2.500 1_455 S
Nd1264 O1285 2.492 1_455 S
Nd1264 O1286 2.487 . S
Nd1264 O1287 2.682 . S
Nd1264 O1288 2.410 . S
Nd1264 O1293 2.414 . S
Nd1264 O1295 2.424 . S
Nd1265 C1275 2.836 . S
Nd1265 O1287 2.414 . S
Nd1265 O1289 2.424 . S
Nd1265 O1290 2.500 . S
Nd1265 O1291 2.492 . S
Nd1265 O1292 2.487 . S
Nd1265 O1293 2.682 . S
Nd1265 O1294 2.410 . S
C1266 Nd1264 2.836 1_655 S
C1266 C1267 1.498 . S
C1266 O1284 1.258 . S
C1266 O1285 1.239 . S
C1267 C1266 1.498 . S
C1267 C1268 1.366 . S
C1267 C1272 1.407 . S
C1268 C1267 1.366 . S
C1268 C1269 1.392 . S
C1268 H1296 0.930 . S
C1269 C1268 1.392 . S
C1269 C1270 1.398 . S
C1269 H1297 0.929 . S
C1270 C1269 1.398 . S
C1270 C1271 1.352 . S
C1271 C1270 1.352 . S
C1271 C1272 1.384 . S
C1271 H1298 0.930 . S
C1272 C1267 1.407 . S
C1272 C1271 1.384 . S
C1272 H1299 0.929 . S
C1273 O1286 1.241 . S
C1273 O1287 1.273 . S
C1274 O1288 1.251 . S
C1274 O1289 1.268 . S
C1275 Nd1265 2.836 . S
C1275 C1276 1.498 . S
C1275 O1290 1.258 . S
C1275 O1291 1.239 . S
C1276 C1275 1.498 . S
C1276 C1277 1.366 . S
C1276 C1281 1.407 . S
C1277 C1276 1.366 . S
C1277 C1278 1.392 . S
C1277 H1300 0.930 . S
C1278 C1277 1.392 . S
C1278 C1279 1.398 . S
C1278 H1301 0.929 . S
C1279 C1278 1.398 . S
C1279 C1280 1.352 . S
C1280 C1279 1.352 . S
C1280 C1281 1.384 . S
C1280 H1302 0.930 . S
C1281 C1276 1.407 . S
C1281 C1280 1.384 . S
C1281 H1303 0.929 . S
C1282 O1292 1.241 . S
C1282 O1293 1.273 . S
C1283 O1294 1.251 . S
C1283 O1295 1.268 . S
O1284 Nd1264 2.500 1_655 S
O1284 C1266 1.258 . S
O1285 Nd1264 2.492 1_655 S
O1285 C1266 1.239 . S
O1286 Nd1264 2.487 . S
O1286 C1273 1.241 . S
O1287 Nd1264 2.682 . S
O1287 Nd1265 2.414 . S
O1287 C1273 1.273 . S
O1288 Nd1264 2.410 . S
O1288 C1274 1.251 . S
O1289 Nd1265 2.424 . S
O1289 C1274 1.268 . S
O1290 Nd1265 2.500 . S
O1290 C1275 1.258 . S
O1291 Nd1265 2.492 . S
O1291 C1275 1.239 . S
O1292 Nd1265 2.487 . S
O1292 C1282 1.241 . S
O1293 Nd1264 2.414 . S
O1293 Nd1265 2.682 . S
O1293 C1282 1.273 . S
O1294 Nd1265 2.410 . S
O1294 C1283 1.251 . S
O1295 Nd1264 2.424 . S
O1295 C1283 1.268 . S
H1296 C1268 0.930 . S
H1297 C1269 0.929 . S
H1298 C1271 0.930 . S
H1299 C1272 0.929 . S
H1300 C1277 0.930 . S
H1301 C1278 0.929 . S
H1302 C1280 0.930 . S
H1303 C1281 0.929 . S
Nd1304 C1306 2.836 . S
Nd1304 O1324 2.500 . S
Nd1304 O1325 2.492 . S
Nd1304 O1326 2.487 . S
Nd1304 O1327 2.682 . S
Nd1304 O1328 2.410 . S
Nd1304 O1333 2.414 . S
Nd1304 O1335 2.424 . S
Nd1305 C1315 2.836 . S
Nd1305 O1327 2.414 . S
Nd1305 O1329 2.424 . S
Nd1305 O1330 2.500 . S
Nd1305 O1331 2.492 . S
Nd1305 O1332 2.487 . S
Nd1305 O1333 2.682 . S
Nd1305 O1334 2.410 . S
C1306 Nd1304 2.836 . S
C1306 C1307 1.498 . S
C1306 O1324 1.258 . S
C1306 O1325 1.239 . S
C1307 C1306 1.498 . S
C1307 C1308 1.366 . S
C1307 C1312 1.407 . S
C1308 C1307 1.366 . S
C1308 C1309 1.392 . S
C1308 H1336 0.930 . S
C1309 C1308 1.392 . S
C1309 C1310 1.398 . S
C1309 H1337 0.929 . S
C1310 C1309 1.398 . S
C1310 C1311 1.352 . S
C1311 C1310 1.352 . S
C1311 C1312 1.384 . S
C1311 H1338 0.930 . S
C1312 C1307 1.407 . S
C1312 C1311 1.384 . S
C1312 H1339 0.929 . S
C1313 O1326 1.241 . S
C1313 O1327 1.273 . S
C1314 O1328 1.251 . S
C1314 O1329 1.268 . S
C1315 Nd1305 2.836 . S
C1315 C1316 1.498 . S
C1315 O1330 1.258 . S
C1315 O1331 1.239 . S
C1316 C1315 1.498 . S
C1316 C1317 1.366 . S
C1316 C1321 1.407 . S
C1317 C1316 1.366 . S
C1317 C1318 1.392 . S
C1317 H1340 0.930 . S
C1318 C1317 1.392 . S
C1318 C1319 1.398 . S
C1318 H1341 0.929 . S
C1319 C1318 1.398 . S
C1319 C1320 1.352 . S
C1320 C1319 1.352 . S
C1320 C1321 1.384 . S
C1320 H1342 0.930 . S
C1321 C1316 1.407 . S
C1321 C1320 1.384 . S
C1321 H1343 0.929 . S
C1322 O1332 1.241 . S
C1322 O1333 1.273 . S
C1323 O1334 1.251 . S
C1323 O1335 1.268 . S
O1324 Nd1304 2.500 . S
O1324 C1306 1.258 . S
O1325 Nd1304 2.492 . S
O1325 C1306 1.239 . S
O1326 Nd1304 2.487 . S
O1326 C1313 1.241 . S
O1327 Nd1304 2.682 . S
O1327 Nd1305 2.414 . S
O1327 C1313 1.273 . S
O1328 Nd1304 2.410 . S
O1328 C1314 1.251 . S
O1329 Nd1305 2.424 . S
O1329 C1314 1.268 . S
O1330 Nd1305 2.500 . S
O1330 C1315 1.258 . S
O1331 Nd1305 2.492 . S
O1331 C1315 1.239 . S
O1332 Nd1305 2.487 . S
O1332 C1322 1.241 . S
O1333 Nd1304 2.414 . S
O1333 Nd1305 2.682 . S
O1333 C1322 1.273 . S
O1334 Nd1305 2.410 . S
O1334 C1323 1.251 . S
O1335 Nd1304 2.424 . S
O1335 C1323 1.268 . S
H1336 C1308 0.930 . S
H1337 C1309 0.929 . S
H1338 C1311 0.930 . S
H1339 C1312 0.929 . S
H1340 C1317 0.930 . S
H1341 C1318 0.929 . S
H1342 C1320 0.930 . S
H1343 C1321 0.929 . S
Nd1344 C1346 2.836 . S
Nd1344 O1364 2.500 . S
Nd1344 O1365 2.492 . S
Nd1344 O1366 2.487 . S
Nd1344 O1367 2.682 . S
Nd1344 O1368 2.410 . S
Nd1344 O1373 2.414 . S
Nd1344 O1375 2.424 . S
Nd1345 C1355 2.836 . S
Nd1345 O1367 2.414 . S
Nd1345 O1369 2.424 . S
Nd1345 O1370 2.500 . S
Nd1345 O1371 2.492 . S
Nd1345 O1372 2.487 . S
Nd1345 O1373 2.682 . S
Nd1345 O1374 2.410 . S
C1346 Nd1344 2.836 . S
C1346 C1347 1.498 . S
C1346 O1364 1.258 . S
C1346 O1365 1.239 . S
C1347 C1346 1.498 . S
C1347 C1348 1.366 . S
C1347 C1352 1.407 . S
C1348 C1347 1.366 . S
C1348 C1349 1.392 . S
C1348 H1376 0.930 . S
C1349 C1348 1.392 . S
C1349 C1350 1.398 . S
C1349 H1377 0.929 . S
C1350 C1349 1.398 . S
C1350 C1351 1.352 . S
C1351 C1350 1.352 . S
C1351 C1352 1.384 . S
C1351 H1378 0.930 . S
C1352 C1347 1.407 . S
C1352 C1351 1.384 . S
C1352 H1379 0.929 . S
C1353 O1366 1.241 . S
C1353 O1367 1.273 . S
C1354 O1368 1.251 . S
C1354 O1369 1.268 . S
C1355 Nd1345 2.836 . S
C1355 C1356 1.498 . S
C1355 O1370 1.258 . S
C1355 O1371 1.239 . S
C1356 C1355 1.498 . S
C1356 C1357 1.366 . S
C1356 C1361 1.407 . S
C1357 C1356 1.366 . S
C1357 C1358 1.392 . S
C1357 H1380 0.930 . S
C1358 C1357 1.392 . S
C1358 C1359 1.398 . S
C1358 H1381 0.929 . S
C1359 C1358 1.398 . S
C1359 C1360 1.352 . S
C1360 C1359 1.352 . S
C1360 C1361 1.384 . S
C1360 H1382 0.930 . S
C1361 C1356 1.407 . S
C1361 C1360 1.384 . S
C1361 H1383 0.929 . S
C1362 O1372 1.241 . S
C1362 O1373 1.273 . S
C1363 O1374 1.251 . S
C1363 O1375 1.268 . S
O1364 Nd1344 2.500 . S
O1364 C1346 1.258 . S
O1365 Nd1344 2.492 . S
O1365 C1346 1.239 . S
O1366 Nd1344 2.487 . S
O1366 C1353 1.241 . S
O1367 Nd1344 2.682 . S
O1367 Nd1345 2.414 . S
O1367 C1353 1.273 . S
O1368 Nd1344 2.410 . S
O1368 C1354 1.251 . S
O1369 Nd1345 2.424 . S
O1369 C1354 1.268 . S
O1370 Nd1345 2.500 . S
O1370 C1355 1.258 . S
O1371 Nd1345 2.492 . S
O1371 C1355 1.239 . S
O1372 Nd1345 2.487 . S
O1372 C1362 1.241 . S
O1373 Nd1344 2.414 . S
O1373 Nd1345 2.682 . S
O1373 C1362 1.273 . S
O1374 Nd1345 2.410 . S
O1374 C1363 1.251 . S
O1375 Nd1344 2.424 . S
O1375 C1363 1.268 . S
H1376 C1348 0.930 . S
H1377 C1349 0.929 . S
H1378 C1351 0.930 . S
H1379 C1352 0.929 . S
H1380 C1357 0.930 . S
H1381 C1358 0.929 . S
H1382 C1360 0.930 . S
H1383 C1361 0.929 . S
Nd1384 C1386 2.836 . S
Nd1384 O1404 2.500 . S
Nd1384 O1405 2.492 . S
Nd1384 O1406 2.487 . S
Nd1384 O1407 2.682 . S
Nd1384 O1408 2.410 . S
Nd1384 O1413 2.414 . S
Nd1384 O1415 2.424 . S
Nd1385 C1395 2.836 . S
Nd1385 O1407 2.414 . S
Nd1385 O1409 2.424 . S
Nd1385 O1410 2.500 . S
Nd1385 O1411 2.492 . S
Nd1385 O1412 2.487 . S
Nd1385 O1413 2.682 . S
Nd1385 O1414 2.410 . S
C1386 Nd1384 2.836 . S
C1386 C1387 1.498 . S
C1386 O1404 1.258 . S
C1386 O1405 1.239 . S
C1387 C1386 1.498 . S
C1387 C1388 1.366 . S
C1387 C1392 1.407 . S
C1388 C1387 1.366 . S
C1388 C1389 1.392 . S
C1388 H1416 0.930 . S
C1389 C1388 1.392 . S
C1389 C1390 1.398 . S
C1389 H1417 0.929 . S
C1390 C1389 1.398 . S
C1390 C1391 1.352 . S
C1391 C1390 1.352 . S
C1391 C1392 1.384 . S
C1391 H1418 0.930 . S
C1392 C1387 1.407 . S
C1392 C1391 1.384 . S
C1392 H1419 0.929 . S
C1393 O1406 1.241 . S
C1393 O1407 1.273 . S
C1394 O1408 1.251 . S
C1394 O1409 1.268 . S
C1395 Nd1385 2.836 . S
C1395 C1396 1.498 . S
C1395 O1410 1.258 . S
C1395 O1411 1.239 . S
C1396 C1395 1.498 . S
C1396 C1397 1.366 . S
C1396 C1401 1.407 . S
C1397 C1396 1.366 . S
C1397 C1398 1.392 . S
C1397 H1420 0.930 . S
C1398 C1397 1.392 . S
C1398 C1399 1.398 . S
C1398 H1421 0.929 . S
C1399 C1398 1.398 . S
C1399 C1400 1.352 . S
C1400 C1399 1.352 . S
C1400 C1401 1.384 . S
C1400 H1422 0.930 . S
C1401 C1396 1.407 . S
C1401 C1400 1.384 . S
C1401 H1423 0.929 . S
C1402 O1412 1.241 . S
C1402 O1413 1.273 . S
C1403 O1414 1.251 . S
C1403 O1415 1.268 . S
O1404 Nd1384 2.500 . S
O1404 C1386 1.258 . S
O1405 Nd1384 2.492 . S
O1405 C1386 1.239 . S
O1406 Nd1384 2.487 . S
O1406 C1393 1.241 . S
O1407 Nd1384 2.682 . S
O1407 Nd1385 2.414 . S
O1407 C1393 1.273 . S
O1408 Nd1384 2.410 . S
O1408 C1394 1.251 . S
O1409 Nd1385 2.424 . S
O1409 C1394 1.268 . S
O1410 Nd1385 2.500 . S
O1410 C1395 1.258 . S
O1411 Nd1385 2.492 . S
O1411 C1395 1.239 . S
O1412 Nd1385 2.487 . S
O1412 C1402 1.241 . S
O1413 Nd1384 2.414 . S
O1413 Nd1385 2.682 . S
O1413 C1402 1.273 . S
O1414 Nd1385 2.410 . S
O1414 C1403 1.251 . S
O1415 Nd1384 2.424 . S
O1415 C1403 1.268 . S
H1416 C1388 0.930 . S
H1417 C1389 0.929 . S
H1418 C1391 0.930 . S
H1419 C1392 0.929 . S
H1420 C1397 0.930 . S
H1421 C1398 0.929 . S
H1422 C1400 0.930 . S
H1423 C1401 0.929 . S
Nd1424 C1426 2.836 . S
Nd1424 O1444 2.500 . S
Nd1424 O1445 2.492 . S
Nd1424 O1446 2.487 . S
Nd1424 O1447 2.682 . S
Nd1424 O1448 2.410 . S
Nd1424 O1453 2.414 . S
Nd1424 O1455 2.424 . S
Nd1425 C1435 2.836 . S
Nd1425 O1447 2.414 . S
Nd1425 O1449 2.424 . S
Nd1425 O1450 2.500 . S
Nd1425 O1451 2.492 . S
Nd1425 O1452 2.487 . S
Nd1425 O1453 2.682 . S
Nd1425 O1454 2.410 . S
C1426 Nd1424 2.836 . S
C1426 C1427 1.498 . S
C1426 O1444 1.258 . S
C1426 O1445 1.239 . S
C1427 C1426 1.498 . S
C1427 C1428 1.366 . S
C1427 C1432 1.407 . S
C1428 C1427 1.366 . S
C1428 C1429 1.392 . S
C1428 H1456 0.930 . S
C1429 C1428 1.392 . S
C1429 C1430 1.398 . S
C1429 H1457 0.929 . S
C1430 C1429 1.398 . S
C1430 C1431 1.352 . S
C1431 C1430 1.352 . S
C1431 C1432 1.384 . S
C1431 H1458 0.930 . S
C1432 C1427 1.407 . S
C1432 C1431 1.384 . S
C1432 H1459 0.929 . S
C1433 O1446 1.241 . S
C1433 O1447 1.273 . S
C1434 O1448 1.251 . S
C1434 O1449 1.268 . S
C1435 Nd1425 2.836 . S
C1435 C1436 1.498 . S
C1435 O1450 1.258 . S
C1435 O1451 1.239 . S
C1436 C1435 1.498 . S
C1436 C1437 1.366 . S
C1436 C1441 1.407 . S
C1437 C1436 1.366 . S
C1437 C1438 1.392 . S
C1437 H1460 0.930 . S
C1438 C1437 1.392 . S
C1438 C1439 1.398 . S
C1438 H1461 0.929 . S
C1439 C1438 1.398 . S
C1439 C1440 1.352 . S
C1440 C1439 1.352 . S
C1440 C1441 1.384 . S
C1440 H1462 0.930 . S
C1441 C1436 1.407 . S
C1441 C1440 1.384 . S
C1441 H1463 0.929 . S
C1442 O1452 1.241 . S
C1442 O1453 1.273 . S
C1443 O1454 1.251 . S
C1443 O1455 1.268 . S
O1444 Nd1424 2.500 . S
O1444 C1426 1.258 . S
O1445 Nd1424 2.492 . S
O1445 C1426 1.239 . S
O1446 Nd1424 2.487 . S
O1446 C1433 1.241 . S
O1447 Nd1424 2.682 . S
O1447 Nd1425 2.414 . S
O1447 C1433 1.273 . S
O1448 Nd1424 2.410 . S
O1448 C1434 1.251 . S
O1449 Nd1425 2.424 . S
O1449 C1434 1.268 . S
O1450 Nd1425 2.500 . S
O1450 C1435 1.258 . S
O1451 Nd1425 2.492 . S
O1451 C1435 1.239 . S
O1452 Nd1425 2.487 . S
O1452 C1442 1.241 . S
O1453 Nd1424 2.414 . S
O1453 Nd1425 2.682 . S
O1453 C1442 1.273 . S
O1454 Nd1425 2.410 . S
O1454 C1443 1.251 . S
O1455 Nd1424 2.424 . S
O1455 C1443 1.268 . S
H1456 C1428 0.930 . S
H1457 C1429 0.929 . S
H1458 C1431 0.930 . S
H1459 C1432 0.929 . S
H1460 C1437 0.930 . S
H1461 C1438 0.929 . S
H1462 C1440 0.930 . S
H1463 C1441 0.929 . S
Nd1464 C1466 2.836 . S
Nd1464 O1484 2.500 . S
Nd1464 O1485 2.492 . S
Nd1464 O1486 2.487 . S
Nd1464 O1487 2.682 . S
Nd1464 O1488 2.410 . S
Nd1464 O1493 2.414 . S
Nd1464 O1495 2.424 . S
Nd1465 C1475 2.836 1_455 S
Nd1465 O1487 2.414 . S
Nd1465 O1489 2.424 . S
Nd1465 O1490 2.500 1_455 S
Nd1465 O1491 2.492 1_455 S
Nd1465 O1492 2.487 . S
Nd1465 O1493 2.682 . S
Nd1465 O1494 2.410 . S
C1466 Nd1464 2.836 . S
C1466 C1467 1.498 . S
C1466 O1484 1.258 . S
C1466 O1485 1.239 . S
C1467 C1466 1.498 . S
C1467 C1468 1.366 . S
C1467 C1472 1.407 . S
C1468 C1467 1.366 . S
C1468 C1469 1.392 . S
C1468 H1496 0.930 . S
C1469 C1468 1.392 . S
C1469 C1470 1.398 . S
C1469 H1497 0.929 . S
C1470 C1469 1.398 . S
C1470 C1471 1.352 . S
C1471 C1470 1.352 . S
C1471 C1472 1.384 . S
C1471 H1498 0.930 . S
C1472 C1467 1.407 . S
C1472 C1471 1.384 . S
C1472 H1499 0.929 . S
C1473 O1486 1.241 . S
C1473 O1487 1.273 . S
C1474 O1488 1.251 . S
C1474 O1489 1.268 . S
C1475 Nd1465 2.836 1_655 S
C1475 C1476 1.498 . S
C1475 O1490 1.258 . S
C1475 O1491 1.239 . S
C1476 C1475 1.498 . S
C1476 C1477 1.366 . S
C1476 C1481 1.407 . S
C1477 C1476 1.366 . S
C1477 C1478 1.392 . S
C1477 H1500 0.930 . S
C1478 C1477 1.392 . S
C1478 C1479 1.398 . S
C1478 H1501 0.929 . S
C1479 C1478 1.398 . S
C1479 C1480 1.352 . S
C1480 C1479 1.352 . S
C1480 C1481 1.384 . S
C1480 H1502 0.930 . S
C1481 C1476 1.407 . S
C1481 C1480 1.384 . S
C1481 H1503 0.929 . S
C1482 O1492 1.241 . S
C1482 O1493 1.273 . S
C1483 O1494 1.251 . S
C1483 O1495 1.268 . S
O1484 Nd1464 2.500 . S
O1484 C1466 1.258 . S
O1485 Nd1464 2.492 . S
O1485 C1466 1.239 . S
O1486 Nd1464 2.487 . S
O1486 C1473 1.241 . S
O1487 Nd1464 2.682 . S
O1487 Nd1465 2.414 . S
O1487 C1473 1.273 . S
O1488 Nd1464 2.410 . S
O1488 C1474 1.251 . S
O1489 Nd1465 2.424 . S
O1489 C1474 1.268 . S
O1490 Nd1465 2.500 1_655 S
O1490 C1475 1.258 . S
O1491 Nd1465 2.492 1_655 S
O1491 C1475 1.239 . S
O1492 Nd1465 2.487 . S
O1492 C1482 1.241 . S
O1493 Nd1464 2.414 . S
O1493 Nd1465 2.682 . S
O1493 C1482 1.273 . S
O1494 Nd1465 2.410 . S
O1494 C1483 1.251 . S
O1495 Nd1464 2.424 . S
O1495 C1483 1.268 . S
H1496 C1468 0.930 . S
H1497 C1469 0.929 . S
H1498 C1471 0.930 . S
H1499 C1472 0.929 . S
H1500 C1477 0.930 . S
H1501 C1478 0.929 . S
H1502 C1480 0.930 . S
H1503 C1481 0.929 . S
C1504 C1505 1.363 . S
C1504 C1510 1.379 1_556 S
C1504 N1512 1.356 . S
C1505 C1504 1.363 . S
C1505 C1511 1.363 . S
C1506 C1507 1.363 . S
C1506 C1511 1.379 1_554 S
C1506 N1513 1.356 . S
C1507 C1506 1.363 . S
C1507 C1510 1.363 . S
N1508 C1510 1.356 . S
N1508 H1520 0.984 . S
N1508 H1521 0.985 . S
N1509 C1511 1.356 . S
N1509 H1514 0.984 . S
N1509 H1515 0.988 . S
C1510 C1504 1.379 1_554 S
C1510 C1507 1.363 . S
C1510 N1508 1.356 . S
C1511 C1505 1.363 . S
C1511 C1506 1.379 1_556 S
C1511 N1509 1.356 . S
N1512 C1504 1.356 . S
N1512 H1518 0.984 . S
N1512 H1519 0.984 . S
N1513 C1506 1.356 . S
N1513 H1516 0.984 . S
N1513 H1517 0.985 . S
H1514 N1509 0.984 . S
H1515 N1509 0.988 . S
H1516 N1513 0.984 . S
H1517 N1513 0.985 . S
H1518 N1512 0.984 . S
H1519 N1512 0.984 . S
H1520 N1508 0.984 . S
H1521 N1508 0.985 . S
C1522 C1523 1.363 . S
C1522 C1528 1.379 . S
C1522 N1530 1.356 . S
C1523 C1522 1.363 . S
C1523 C1529 1.363 . S
C1524 C1525 1.363 . S
C1524 C1529 1.379 . S
C1524 N1531 1.356 . S
C1525 C1524 1.363 . S
C1525 C1528 1.363 . S
N1526 C1528 1.356 . S
N1526 H1538 0.984 . S
N1526 H1539 0.985 . S
N1527 C1529 1.356 . S
N1527 H1532 0.984 . S
N1527 H1533 0.985 . S
C1528 C1522 1.379 . S
C1528 C1525 1.363 . S
C1528 N1526 1.356 . S
C1529 C1523 1.363 . S
C1529 C1524 1.379 . S
C1529 N1527 1.356 . S
N1530 C1522 1.356 . S
N1530 H1536 0.984 . S
N1530 H1537 0.984 . S
N1531 C1524 1.356 . S
N1531 H1534 0.984 . S
N1531 H1535 0.985 . S
H1532 N1527 0.984 . S
H1533 N1527 0.985 . S
H1534 N1531 0.984 . S
H1535 N1531 0.985 . S
H1536 N1530 0.984 . S
H1537 N1530 0.984 . S
H1538 N1526 0.984 . S
H1539 N1526 0.985 . S
C1540 C1541 1.363 . S
C1540 C1546 1.379 . S
C1540 N1548 1.356 . S
C1541 C1540 1.363 . S
C1541 C1547 1.363 . S
C1542 C1543 1.363 . S
C1542 C1547 1.379 . S
C1542 N1549 1.356 . S
C1543 C1542 1.363 . S
C1543 C1546 1.363 . S
N1544 C1546 1.356 1_545 S
N1544 H1556 0.984 . S
N1544 H1557 0.985 . S
N1545 C1547 1.356 . S
N1545 H1550 0.984 . S
N1545 H1551 0.985 . S
C1546 C1540 1.379 . S
C1546 C1543 1.363 . S
C1546 N1544 1.356 1_565 S
C1547 C1541 1.363 . S
C1547 C1542 1.379 . S
C1547 N1545 1.356 . S
N1548 C1540 1.356 . S
N1548 H1554 0.984 . S
N1548 H1555 0.984 . S
N1549 C1542 1.356 . S
N1549 H1552 0.984 1_565 S
N1549 H1553 0.985 . S
H1550 N1545 0.984 . S
H1551 N1545 0.985 . S
H1552 N1549 0.984 1_545 S
H1553 N1549 0.985 . S
H1554 N1548 0.984 . S
H1555 N1548 0.984 . S
H1556 N1544 0.984 . S
H1557 N1544 0.985 . S
C1558 C1559 1.363 . S
C1558 C1564 1.379 . S
C1558 N1566 1.356 . S
C1559 C1558 1.363 . S
C1559 C1565 1.363 . S
C1560 C1561 1.363 . S
C1560 C1565 1.379 . S
C1560 N1567 1.356 . S
C1561 C1560 1.363 . S
C1561 C1564 1.363 . S
N1562 C1564 1.356 . S
N1562 H1574 0.984 . S
N1562 H1575 0.985 . S
N1563 C1565 1.356 . S
N1563 H1568 0.984 . S
N1563 H1569 0.985 . S
C1564 C1558 1.379 . S
C1564 C1561 1.363 . S
C1564 N1562 1.356 . S
C1565 C1559 1.363 . S
C1565 C1560 1.379 . S
C1565 N1563 1.356 . S
N1566 C1558 1.356 . S
N1566 H1572 0.984 . S
N1566 H1573 0.984 . S
N1567 C1560 1.356 . S
N1567 H1570 0.984 . S
N1567 H1571 0.985 . S
H1568 N1563 0.984 . S
H1569 N1563 0.985 . S
H1570 N1567 0.984 . S
H1571 N1567 0.985 . S
H1572 N1566 0.984 . S
H1573 N1566 0.984 . S
H1574 N1562 0.984 . S
H1575 N1562 0.985 . S
C1576 C1577 1.363 . S
C1576 C1582 1.379 . S
C1576 N1584 1.356 1_455 S
C1577 C1576 1.363 . S
C1577 C1583 1.363 . S
C1578 C1579 1.363 . S
C1578 C1583 1.379 . S
C1578 N1585 1.356 . S
C1579 C1578 1.363 . S
C1579 C1582 1.363 . S
N1580 C1582 1.356 . S
N1580 H1592 0.984 . S
N1580 H1593 0.985 . S
N1581 C1583 1.356 . S
N1581 H1586 0.984 . S
N1581 H1587 0.985 . S
C1582 C1576 1.379 . S
C1582 C1579 1.363 . S
C1582 N1580 1.356 . S
C1583 C1577 1.363 . S
C1583 C1578 1.379 . S
C1583 N1581 1.356 . S
N1584 C1576 1.356 1_655 S
N1584 H1590 0.984 . S
N1584 H1591 0.984 . S
N1585 C1578 1.356 . S
N1585 H1588 0.984 . S
N1585 H1589 0.985 . S
H1586 N1581 0.984 . S
H1587 N1581 0.985 . S
H1588 N1585 0.984 . S
H1589 N1585 0.985 . S
H1590 N1584 0.984 . S
H1591 N1584 0.984 . S
H1592 N1580 0.984 . S
H1593 N1580 0.985 . S
C1594 C1595 1.363 . S
C1594 C1600 1.379 . S
C1594 N1602 1.356 . S
C1595 C1594 1.363 . S
C1595 C1601 1.363 . S
C1596 C1597 1.363 . S
C1596 C1601 1.379 . S
C1596 N1603 1.356 . S
C1597 C1596 1.363 . S
C1597 C1600 1.363 . S
N1598 C1600 1.356 . S
N1598 H1610 0.984 . S
N1598 H1611 0.985 . S
N1599 C1601 1.356 . S
N1599 H1604 0.984 . S
N1599 H1605 0.985 . S
C1600 C1594 1.379 . S
C1600 C1597 1.363 . S
C1600 N1598 1.356 . S
C1601 C1595 1.363 . S
C1601 C1596 1.379 . S
C1601 N1599 1.356 . S
N1602 C1594 1.356 . S
N1602 H1608 0.984 . S
N1602 H1609 0.984 . S
N1603 C1596 1.356 . S
N1603 H1606 0.984 . S
N1603 H1607 0.985 . S
H1604 N1599 0.984 . S
H1605 N1599 0.985 . S
H1606 N1603 0.984 . S
H1607 N1603 0.985 . S
H1608 N1602 0.984 . S
H1609 N1602 0.984 . S
H1610 N1598 0.984 . S
H1611 N1598 0.985 . S
C1612 C1613 1.363 . S
C1612 C1618 1.379 . S
C1612 N1620 1.356 . S
C1613 C1612 1.363 . S
C1613 C1619 1.363 . S
C1614 C1615 1.363 . S
C1614 C1619 1.379 . S
C1614 N1621 1.356 . S
C1615 C1614 1.363 . S
C1615 C1618 1.363 . S
N1616 C1618 1.356 . S
N1616 H1628 0.984 . S
N1616 H1629 0.985 . S
N1617 C1619 1.356 . S
N1617 H1622 0.984 . S
N1617 H1623 0.985 . S
C1618 C1612 1.379 . S
C1618 C1615 1.363 . S
C1618 N1616 1.356 . S
C1619 C1613 1.363 . S
C1619 C1614 1.379 . S
C1619 N1617 1.356 . S
N1620 C1612 1.356 . S
N1620 H1626 0.984 1_554 S
N1620 H1627 0.984 . S
N1621 C1614 1.356 . S
N1621 H1624 0.984 . S
N1621 H1625 0.985 . S
H1622 N1617 0.984 . S
H1623 N1617 0.985 . S
H1624 N1621 0.984 . S
H1625 N1621 0.985 . S
H1626 N1620 0.984 1_556 S
H1627 N1620 0.984 . S
H1628 N1616 0.984 . S
H1629 N1616 0.985 . S
C1630 C1631 1.363 . S
C1630 C1636 1.379 . S
C1630 N1638 1.356 . S
C1631 C1630 1.363 . S
C1631 C1637 1.363 . S
C1632 C1633 1.363 . S
C1632 C1637 1.379 . S
C1632 N1639 1.356 . S
C1633 C1632 1.363 . S
C1633 C1636 1.363 . S
N1634 C1636 1.356 . S
N1634 H1646 0.984 . S
N1634 H1647 0.985 . S
N1635 C1637 1.356 . S
N1635 H1640 0.984 . S
N1635 H1641 0.985 . S
C1636 C1630 1.379 . S
C1636 C1633 1.363 . S
C1636 N1634 1.356 . S
C1637 C1631 1.363 . S
C1637 C1632 1.379 . S
C1637 N1635 1.356 . S
N1638 C1630 1.356 . S
N1638 H1644 0.984 . S
N1638 H1645 0.984 . S
N1639 C1632 1.356 . S
N1639 H1642 0.984 . S
N1639 H1643 0.985 . S
H1640 N1635 0.984 . S
H1641 N1635 0.985 . S
H1642 N1639 0.984 . S
H1643 N1639 0.985 . S
H1644 N1638 0.984 . S
H1645 N1638 0.984 . S
H1646 N1634 0.984 . S
H1647 N1634 0.985 . S
C1648 C1649 1.363 . S
C1648 C1654 1.379 1_655 S
C1648 N1656 1.356 . S
C1649 C1648 1.363 . S
C1649 C1655 1.363 . S
C1650 C1651 1.363 1_655 S
C1650 C1655 1.379 . S
C1650 N1657 1.350 1_655 S
C1651 C1650 1.363 1_455 S
C1651 C1654 1.363 . S
N1652 C1654 1.356 . S
N1652 H1664 0.984 . S
N1652 H1665 0.985 . S
N1653 C1655 1.356 . S
N1653 H1658 0.984 . S
N1653 H1659 0.985 . S
C1654 C1648 1.379 1_455 S
C1654 C1651 1.363 . S
C1654 N1652 1.356 . S
C1655 C1649 1.363 . S
C1655 C1650 1.379 . S
C1655 N1653 1.356 . S
N1656 C1648 1.356 . S
N1656 H1662 0.984 . S
N1656 H1663 0.984 . S
N1657 C1650 1.350 1_455 S
N1657 H1660 1.006 . S
N1657 H1661 0.970 1_455 S
H1658 N1653 0.984 . S
H1659 N1653 0.985 . S
H1660 N1657 1.006 . S
H1661 N1657 0.970 1_655 S
H1662 N1656 0.984 . S
H1663 N1656 0.984 . S
H1664 N1652 0.984 . S
H1665 N1652 0.985 . S
C1666 C1667 1.363 . S
C1666 C1672 1.379 . S
C1666 N1674 1.356 . S
C1667 C1666 1.363 . S
C1667 C1673 1.363 . S
C1668 C1669 1.363 . S
C1668 C1673 1.379 . S
C1668 N1675 1.356 . S
C1669 C1668 1.363 . S
C1669 C1672 1.363 . S
N1670 C1672 1.356 . S
N1670 H1682 0.984 . S
N1670 H1683 0.985 . S
N1671 C1673 1.356 . S
N1671 H1676 0.984 . S
N1671 H1677 0.985 . S
C1672 C1666 1.379 . S
C1672 C1669 1.363 . S
C1672 N1670 1.356 . S
C1673 C1667 1.363 . S
C1673 C1668 1.379 . S
C1673 N1671 1.356 . S
N1674 C1666 1.356 . S
N1674 H1680 0.984 . S
N1674 H1681 0.984 . S
N1675 C1668 1.356 . S
N1675 H1678 0.984 . S
N1675 H1679 0.985 . S
H1676 N1671 0.984 . S
H1677 N1671 0.985 . S
H1678 N1675 0.984 . S
H1679 N1675 0.985 . S
H1680 N1674 0.984 . S
H1681 N1674 0.984 . S
H1682 N1670 0.984 . S
H1683 N1670 0.985 . S
C1684 C1685 1.363 1_565 S
C1684 C1690 1.379 1_565 S
C1684 N1692 1.356 . S
C1685 C1684 1.363 1_545 S
C1685 C1691 1.363 . S
C1686 C1687 1.363 . S
C1686 C1691 1.379 . S
C1686 N1693 1.356 . S
C1687 C1686 1.363 . S
C1687 C1690 1.363 . S
N1688 C1690 1.356 . S
N1688 H1700 0.984 1_545 S
N1688 H1701 0.985 . S
N1689 C1691 1.356 . S
N1689 H1694 0.984 . S
N1689 H1695 0.985 . S
C1690 C1684 1.379 1_545 S
C1690 C1687 1.363 . S
C1690 N1688 1.356 . S
C1691 C1685 1.363 . S
C1691 C1686 1.379 . S
C1691 N1689 1.356 . S
N1692 C1684 1.356 . S
N1692 H1698 0.984 . S
N1692 H1699 0.984 . S
N1693 C1686 1.356 . S
N1693 H1696 0.984 . S
N1693 H1697 0.985 . S
H1694 N1689 0.984 . S
H1695 N1689 0.985 . S
H1696 N1693 0.984 . S
H1697 N1693 0.985 . S
H1698 N1692 0.984 . S
H1699 N1692 0.984 . S
H1700 N1688 0.984 1_565 S
H1701 N1688 0.985 . S
C1702 C1703 1.363 . S
C1702 C1708 1.379 . S
C1702 N1710 1.356 . S
C1703 C1702 1.363 . S
C1703 C1709 1.363 . S
C1704 C1705 1.363 . S
C1704 C1709 1.379 . S
C1704 N1711 1.356 . S
C1705 C1704 1.363 . S
C1705 C1708 1.363 . S
N1706 C1708 1.356 . S
N1706 H1718 0.984 1_554 S
N1706 H1719 0.985 1_554 S
N1707 C1709 1.356 . S
N1707 H1712 0.984 . S
N1707 H1713 0.985 . S
C1708 C1702 1.379 . S
C1708 C1705 1.363 . S
C1708 N1706 1.356 . S
C1709 C1703 1.363 . S
C1709 C1704 1.379 . S
C1709 N1707 1.356 . S
N1710 C1702 1.356 . S
N1710 H1716 0.984 . S
N1710 H1717 0.984 . S
N1711 C1704 1.356 . S
N1711 H1714 0.984 . S
N1711 H1715 0.985 . S
H1712 N1707 0.984 . S
H1713 N1707 0.985 . S
H1714 N1711 0.984 . S
H1715 N1711 0.985 . S
H1716 N1710 0.984 . S
H1717 N1710 0.984 . S
H1718 N1706 0.984 1_556 S
H1719 N1706 0.985 1_556 S
C1720 C1721 1.363 1_455 S
C1720 C1726 1.379 . S
C1720 N1728 1.356 . S
C1721 C1720 1.363 1_655 S
C1721 C1727 1.363 . S
C1722 C1723 1.363 1_655 S
C1722 C1727 1.379 . S
C1722 N1729 1.356 . S
C1723 C1722 1.363 1_455 S
C1723 C1726 1.363 . S
N1724 C1726 1.356 . S
N1724 H1736 0.984 . S
N1724 H1737 0.985 . S
N1725 C1727 1.356 . S
N1725 H1730 0.984 . S
N1725 H1731 0.985 . S
C1726 C1720 1.379 . S
C1726 C1723 1.363 . S
C1726 N1724 1.356 . S
C1727 C1721 1.363 . S
C1727 C1722 1.379 . S
C1727 N1725 1.356 . S
N1728 C1720 1.356 . S
N1728 H1734 0.984 . S
N1728 H1735 0.984 1_455 S
N1729 C1722 1.356 . S
N1729 H1732 0.984 . S
N1729 H1733 0.985 . S
H1730 N1725 0.984 . S
H1731 N1725 0.985 . S
H1732 N1729 0.984 . S
H1733 N1729 0.985 . S
H1734 N1728 0.984 . S
H1735 N1728 0.984 1_655 S
H1736 N1724 0.984 . S
H1737 N1724 0.985 . S
C1738 C1739 1.363 . S
C1738 C1744 1.379 . S
C1738 N1746 1.356 . S
C1739 C1738 1.363 . S
C1739 C1745 1.363 . S
C1740 C1741 1.363 . S
C1740 C1745 1.379 . S
C1740 N1747 1.356 . S
C1741 C1740 1.363 . S
C1741 C1744 1.363 . S
N1742 C1744 1.356 . S
N1742 H1754 0.984 . S
N1742 H1755 0.985 . S
N1743 C1745 1.356 . S
N1743 H1748 0.984 . S
N1743 H1749 0.985 . S
C1744 C1738 1.379 . S
C1744 C1741 1.363 . S
C1744 N1742 1.356 . S
C1745 C1739 1.363 . S
C1745 C1740 1.379 . S
C1745 N1743 1.356 . S
N1746 C1738 1.356 . S
N1746 H1752 0.984 . S
N1746 H1753 0.984 . S
N1747 C1740 1.356 . S
N1747 H1750 0.984 . S
N1747 H1751 0.985 . S
H1748 N1743 0.984 . S
H1749 N1743 0.985 . S
H1750 N1747 0.984 . S
H1751 N1747 0.985 . S
H1752 N1746 0.984 . S
H1753 N1746 0.984 . S
H1754 N1742 0.984 . S
H1755 N1742 0.985 . S
C1756 C1757 1.363 . S
C1756 C1762 1.379 . S
C1756 N1764 1.356 1_545 S
C1757 C1756 1.363 . S
C1757 C1763 1.363 . S
C1758 C1759 1.363 . S
C1758 C1763 1.379 . S
C1758 N1765 1.356 . S
C1759 C1758 1.363 . S
C1759 C1762 1.363 . S
N1760 C1762 1.356 . S
N1760 H1772 0.997 . S
N1760 H1773 0.985 1_556 S
N1761 C1763 1.356 . S
N1761 H1766 0.984 . S
N1761 H1767 0.985 . S
C1762 C1756 1.379 . S
C1762 C1759 1.363 . S
C1762 N1760 1.356 . S
C1763 C1757 1.363 . S
C1763 C1758 1.379 . S
C1763 N1761 1.356 . S
N1764 C1756 1.356 1_565 S
N1764 H1770 0.984 . S
N1764 H1771 0.984 . S
N1765 C1758 1.356 . S
N1765 H1768 0.984 . S
N1765 H1769 0.985 . S
H1766 N1761 0.984 . S
H1767 N1761 0.985 . S
H1768 N1765 0.984 . S
H1769 N1765 0.985 . S
H1770 N1764 0.984 . S
H1771 N1764 0.984 . S
H1772 N1760 0.997 . S
H1773 N1760 0.985 1_554 S
C1774 C1775 1.363 . S
C1774 C1780 1.379 . S
C1774 N1782 1.356 . S
C1775 C1774 1.363 . S
C1775 C1781 1.363 . S
C1776 C1777 1.363 . S
C1776 C1781 1.379 . S
C1776 N1783 1.356 . S
C1777 C1776 1.363 . S
C1777 C1780 1.363 . S
N1778 C1780 1.356 . S
N1778 H1790 0.984 . S
N1778 H1791 0.985 . S
N1779 C1781 1.356 . S
N1779 H1784 0.984 . S
N1779 H1785 0.985 . S
C1780 C1774 1.379 . S
C1780 C1777 1.363 . S
C1780 N1778 1.356 . S
C1781 C1775 1.363 . S
C1781 C1776 1.379 . S
C1781 N1779 1.356 . S
N1782 C1774 1.356 . S
N1782 H1788 0.984 . S
N1782 H1789 0.984 . S
N1783 C1776 1.356 . S
N1783 H1786 0.984 . S
N1783 H1787 0.985 . S
H1784 N1779 0.984 . S
H1785 N1779 0.985 . S
H1786 N1783 0.984 . S
H1787 N1783 0.985 . S
H1788 N1782 0.984 . S
H1789 N1782 0.984 . S
H1790 N1778 0.984 . S
H1791 N1778 0.985 . S
C1792 C1793 1.363 . S
C1792 C1798 1.379 . S
C1792 N1800 1.356 . S
C1793 C1792 1.363 . S
C1793 C1799 1.363 . S
C1794 C1795 1.363 . S
C1794 C1799 1.379 . S
C1794 N1801 1.356 . S
C1795 C1794 1.363 . S
C1795 C1798 1.363 . S
N1796 C1798 1.356 1_545 S
N1796 H1808 0.984 . S
N1796 H1809 0.985 . S
N1797 C1799 1.356 . S
N1797 H1802 0.984 . S
N1797 H1803 0.985 . S
C1798 C1792 1.379 . S
C1798 C1795 1.363 . S
C1798 N1796 1.356 1_565 S
C1799 C1793 1.363 . S
C1799 C1794 1.379 . S
C1799 N1797 1.356 . S
N1800 C1792 1.356 . S
N1800 H1806 0.984 . S
N1800 H1807 0.984 . S
N1801 C1794 1.356 . S
N1801 H1804 0.984 1_565 S
N1801 H1805 0.985 . S
H1802 N1797 0.984 . S
H1803 N1797 0.985 . S
H1804 N1801 0.984 1_545 S
H1805 N1801 0.985 . S
H1806 N1800 0.984 . S
H1807 N1800 0.984 . S
H1808 N1796 0.984 . S
H1809 N1796 0.985 . S
C1810 C1811 1.363 1_556 S
C1810 C1816 1.379 1_556 S
C1810 N1818 1.356 . S
C1811 C1810 1.363 1_554 S
C1811 C1817 1.363 . S
C1812 C1813 1.363 . S
C1812 C1817 1.379 . S
C1812 N1819 1.356 . S
C1813 C1812 1.363 . S
C1813 C1816 1.363 . S
N1814 C1816 1.356 . S
N1814 H1826 0.984 1_554 S
N1814 H1827 0.985 . S
N1815 C1817 1.356 . S
N1815 H1820 0.984 . S
N1815 H1821 0.985 . S
C1816 C1810 1.379 1_554 S
C1816 C1813 1.363 . S
C1816 N1814 1.356 . S
C1817 C1811 1.363 . S
C1817 C1812 1.379 . S
C1817 N1815 1.356 . S
N1818 C1810 1.356 . S
N1818 H1824 0.984 . S
N1818 H1825 0.984 . S
N1819 C1812 1.356 . S
N1819 H1822 0.984 . S
N1819 H1823 0.985 . S
H1820 N1815 0.984 . S
H1821 N1815 0.985 . S
H1822 N1819 0.984 . S
H1823 N1819 0.985 . S
H1824 N1818 0.984 . S
H1825 N1818 0.984 . S
H1826 N1814 0.984 1_556 S
H1827 N1814 0.985 . S
C1828 C1829 1.363 . S
C1828 C1834 1.379 . S
C1828 N1836 1.356 . S
C1829 C1828 1.363 . S
C1829 C1835 1.363 . S
C1830 C1831 1.363 . S
C1830 C1835 1.379 . S
C1830 N1837 1.356 . S
C1831 C1830 1.363 . S
C1831 C1834 1.363 . S
N1832 C1834 1.356 . S
N1832 H1844 0.984 . S
N1832 H1845 0.985 . S
N1833 C1835 1.356 . S
N1833 H1838 0.984 . S
N1833 H1839 0.985 . S
C1834 C1828 1.379 . S
C1834 C1831 1.363 . S
C1834 N1832 1.356 . S
C1835 C1829 1.363 . S
C1835 C1830 1.379 . S
C1835 N1833 1.356 . S
N1836 C1828 1.356 . S
N1836 H1842 0.984 . S
N1836 H1843 0.984 . S
N1837 C1830 1.356 . S
N1837 H1840 0.984 . S
N1837 H1841 0.985 . S
H1838 N1833 0.984 . S
H1839 N1833 0.985 . S
H1840 N1837 0.984 . S
H1841 N1837 0.985 . S
H1842 N1836 0.984 . S
H1843 N1836 0.984 . S
H1844 N1832 0.984 . S
H1845 N1832 0.985 . S
C1846 C1847 1.363 . S
C1846 C1852 1.379 . S
C1846 N1854 1.356 . S
C1847 C1846 1.363 . S
C1847 C1853 1.363 . S
C1848 C1849 1.363 . S
C1848 C1853 1.379 . S
C1848 N1855 1.356 . S
C1849 C1848 1.363 . S
C1849 C1852 1.363 . S
N1850 C1852 1.356 . S
N1850 H1862 0.984 . S
N1850 H1863 0.985 . S
N1851 C1853 1.356 . S
N1851 H1856 0.984 . S
N1851 H1857 0.985 . S
C1852 C1846 1.379 . S
C1852 C1849 1.363 . S
C1852 N1850 1.356 . S
C1853 C1847 1.363 . S
C1853 C1848 1.379 . S
C1853 N1851 1.356 . S
N1854 C1846 1.356 . S
N1854 H1860 0.984 . S
N1854 H1861 0.984 . S
N1855 C1848 1.356 . S
N1855 H1858 0.984 . S
N1855 H1859 0.985 . S
H1856 N1851 0.984 . S
H1857 N1851 0.985 . S
H1858 N1855 0.984 . S
H1859 N1855 0.985 . S
H1860 N1854 0.984 . S
H1861 N1854 0.984 . S
H1862 N1850 0.984 . S
H1863 N1850 0.985 . S
C1864 C1865 1.363 . S
C1864 C1870 1.379 . S
C1864 N1872 1.356 . S
C1865 C1864 1.363 . S
C1865 C1871 1.363 . S
C1866 C1867 1.363 . S
C1866 C1871 1.379 . S
C1866 N1873 1.356 . S
C1867 C1866 1.363 . S
C1867 C1870 1.363 . S
N1868 C1870 1.356 . S
N1868 H1880 0.984 . S
N1868 H1881 0.985 . S
N1869 C1871 1.356 . S
N1869 H1874 0.984 . S
N1869 H1875 0.985 . S
C1870 C1864 1.379 . S
C1870 C1867 1.363 . S
C1870 N1868 1.356 . S
C1871 C1865 1.363 . S
C1871 C1866 1.379 . S
C1871 N1869 1.356 . S
N1872 C1864 1.356 . S
N1872 H1878 0.984 . S
N1872 H1879 0.984 . S
N1873 C1866 1.356 . S
N1873 H1876 0.984 . S
N1873 H1877 0.985 . S
H1874 N1869 0.984 . S
H1875 N1869 0.985 . S
H1876 N1873 0.984 . S
H1877 N1873 0.985 . S
H1878 N1872 0.984 . S
H1879 N1872 0.984 . S
H1880 N1868 0.984 . S
H1881 N1868 0.985 . S
C1882 C1883 1.363 . S
C1882 C1888 1.379 . S
C1882 N1890 1.356 . S
C1883 C1882 1.363 . S
C1883 C1889 1.363 . S
C1884 C1885 1.363 . S
C1884 C1889 1.379 . S
C1884 N1891 1.356 . S
C1885 C1884 1.363 . S
C1885 C1888 1.363 . S
N1886 C1888 1.356 . S
N1886 H1898 0.984 . S
N1886 H1899 0.985 . S
N1887 C1889 1.356 . S
N1887 H1892 0.984 . S
N1887 H1893 0.985 . S
C1888 C1882 1.379 . S
C1888 C1885 1.363 . S
C1888 N1886 1.356 . S
C1889 C1883 1.363 . S
C1889 C1884 1.379 . S
C1889 N1887 1.356 . S
N1890 C1882 1.356 . S
N1890 H1896 0.984 . S
N1890 H1897 0.984 . S
N1891 C1884 1.356 . S
N1891 H1894 0.984 . S
N1891 H1895 0.985 . S
H1892 N1887 0.984 . S
H1893 N1887 0.985 . S
H1894 N1891 0.984 . S
H1895 N1891 0.985 . S
H1896 N1890 0.984 . S
H1897 N1890 0.984 . S
H1898 N1886 0.984 . S
H1899 N1886 0.985 . S
C1900 C1901 1.363 . S
C1900 C1906 1.379 . S
C1900 N1908 1.356 . S
C1901 C1900 1.363 . S
C1901 C1907 1.363 . S
C1902 C1903 1.363 . S
C1902 C1907 1.379 . S
C1902 N1909 1.356 . S
C1903 C1902 1.363 . S
C1903 C1906 1.363 . S
N1904 C1906 1.356 . S
N1904 H1916 0.984 . S
N1904 H1917 0.985 . S
N1905 C1907 1.356 . S
N1905 H1910 0.984 . S
N1905 H1911 0.985 . S
C1906 C1900 1.379 . S
C1906 C1903 1.363 . S
C1906 N1904 1.356 . S
C1907 C1901 1.363 . S
C1907 C1902 1.379 . S
C1907 N1905 1.356 . S
N1908 C1900 1.356 . S
N1908 H1914 0.984 . S
N1908 H1915 0.984 . S
N1909 C1902 1.356 . S
N1909 H1912 0.984 . S
N1909 H1913 0.985 . S
H1910 N1905 0.984 . S
H1911 N1905 0.985 . S
H1912 N1909 0.984 . S
H1913 N1909 0.985 . S
H1914 N1908 0.984 . S
H1915 N1908 0.984 . S
H1916 N1904 0.984 . S
H1917 N1904 0.985 . S
C1918 C1919 1.363 . S
C1918 C1924 1.379 . S
C1918 N1926 1.356 . S
C1919 C1918 1.363 . S
C1919 C1925 1.363 . S
C1920 C1921 1.363 . S
C1920 C1925 1.379 . S
C1920 N1927 1.356 . S
C1921 C1920 1.363 . S
C1921 C1924 1.363 . S
N1922 C1924 1.356 . S
N1922 H1934 0.984 . S
N1922 H1935 0.985 . S
N1923 C1925 1.356 . S
N1923 H1928 0.984 . S
N1923 H1929 0.985 . S
C1924 C1918 1.379 . S
C1924 C1921 1.363 . S
C1924 N1922 1.356 . S
C1925 C1919 1.363 . S
C1925 C1920 1.379 . S
C1925 N1923 1.356 . S
N1926 C1918 1.356 . S
N1926 H1932 0.984 . S
N1926 H1933 0.984 . S
N1927 C1920 1.356 . S
N1927 H1930 0.984 . S
N1927 H1931 0.985 . S
H1928 N1923 0.984 . S
H1929 N1923 0.985 . S
H1930 N1927 0.984 . S
H1931 N1927 0.985 . S
H1932 N1926 0.984 . S
H1933 N1926 0.984 . S
H1934 N1922 0.984 . S
H1935 N1922 0.985 . S
C1936 C1937 1.363 . S
C1936 C1942 1.379 . S
C1936 N1944 1.356 . S
C1937 C1936 1.363 . S
C1937 C1943 1.363 . S
C1938 C1939 1.363 . S
C1938 C1943 1.379 . S
C1938 N1945 1.356 . S
C1939 C1938 1.363 . S
C1939 C1942 1.363 . S
N1940 C1942 1.356 . S
N1940 H1952 0.984 . S
N1940 H1953 0.985 . S
N1941 C1943 1.356 . S
N1941 H1946 0.984 . S
N1941 H1947 0.985 . S
C1942 C1936 1.379 . S
C1942 C1939 1.363 . S
C1942 N1940 1.356 . S
C1943 C1937 1.363 . S
C1943 C1938 1.379 . S
C1943 N1941 1.356 . S
N1944 C1936 1.356 . S
N1944 H1950 0.984 . S
N1944 H1951 0.984 . S
N1945 C1938 1.356 . S
N1945 H1948 0.984 . S
N1945 H1949 0.985 . S
H1946 N1941 0.984 . S
H1947 N1941 0.985 . S
H1948 N1945 0.984 . S
H1949 N1945 0.985 . S
H1950 N1944 0.984 . S
H1951 N1944 0.984 . S
H1952 N1940 0.984 . S
H1953 N1940 0.985 . S
C1954 C1955 1.363 . S
C1954 C1960 1.379 . S
C1954 N1962 1.356 . S
C1955 C1954 1.363 . S
C1955 C1961 1.363 . S
C1956 C1957 1.363 . S
C1956 C1961 1.379 . S
C1956 N1963 1.356 . S
C1957 C1956 1.363 . S
C1957 C1960 1.363 . S
N1958 C1960 1.356 . S
N1958 H1970 0.984 . S
N1958 H1971 0.985 . S
N1959 C1961 1.356 . S
N1959 H1964 0.984 . S
N1959 H1965 0.985 . S
C1960 C1954 1.379 . S
C1960 C1957 1.363 . S
C1960 N1958 1.356 . S
C1961 C1955 1.363 . S
C1961 C1956 1.379 . S
C1961 N1959 1.356 . S
N1962 C1954 1.356 . S
N1962 H1968 0.984 . S
N1962 H1969 0.984 . S
N1963 C1956 1.356 . S
N1963 H1966 0.984 . S
N1963 H1967 0.985 . S
H1964 N1959 0.984 . S
H1965 N1959 0.985 . S
H1966 N1963 0.984 . S
H1967 N1963 0.985 . S
H1968 N1962 0.984 . S
H1969 N1962 0.984 . S
H1970 N1958 0.984 . S
H1971 N1958 0.985 . S
C1972 C1973 1.363 . S
C1972 C1978 1.379 . S
C1972 N1980 1.356 . S
C1973 C1972 1.363 . S
C1973 C1979 1.363 . S
C1974 C1975 1.363 . S
C1974 C1979 1.379 . S
C1974 N1981 1.356 . S
C1975 C1974 1.363 . S
C1975 C1978 1.363 . S
N1976 C1978 1.356 . S
N1976 H1988 0.984 . S
N1976 H1989 0.985 . S
N1977 C1979 1.356 . S
N1977 H1982 0.984 . S
N1977 H1983 0.985 . S
C1978 C1972 1.379 . S
C1978 C1975 1.363 . S
C1978 N1976 1.356 . S
C1979 C1973 1.363 . S
C1979 C1974 1.379 . S
C1979 N1977 1.356 . S
N1980 C1972 1.356 . S
N1980 H1986 0.984 . S
N1980 H1987 0.984 . S
N1981 C1974 1.356 . S
N1981 H1984 0.984 . S
N1981 H1985 0.985 . S
H1982 N1977 0.984 . S
H1983 N1977 0.985 . S
H1984 N1981 0.984 . S
H1985 N1981 0.985 . S
H1986 N1980 0.984 . S
H1987 N1980 0.984 . S
H1988 N1976 0.984 . S
H1989 N1976 0.985 . S
C1990 C1991 1.363 . S
C1990 C1996 1.379 . S
C1990 N1998 1.356 . S
C1991 C1990 1.363 . S
C1991 C1997 1.363 . S
C1992 C1993 1.363 . S
C1992 C1997 1.379 . S
C1992 N1999 1.356 . S
C1993 C1992 1.363 . S
C1993 C1996 1.363 . S
N1994 C1996 1.356 . S
N1994 H2006 0.984 . S
N1994 H2007 0.985 . S
N1995 C1997 1.356 . S
N1995 H2000 0.984 . S
N1995 H2001 0.985 . S
C1996 C1990 1.379 . S
C1996 C1993 1.363 . S
C1996 N1994 1.356 . S
C1997 C1991 1.363 . S
C1997 C1992 1.379 . S
C1997 N1995 1.356 . S
N1998 C1990 1.356 . S
N1998 H2004 0.984 . S
N1998 H2005 0.984 . S
N1999 C1992 1.356 . S
N1999 H2002 0.984 . S
N1999 H2003 0.985 . S
H2000 N1995 0.984 . S
H2001 N1995 0.985 . S
H2002 N1999 0.984 . S
H2003 N1999 0.985 . S
H2004 N1998 0.984 . S
H2005 N1998 0.984 . S
H2006 N1994 0.984 . S
H2007 N1994 0.985 . S
C2008 C2009 1.363 . S
C2008 C2014 1.379 . S
C2008 N2016 1.356 . S
C2009 C2008 1.363 . S
C2009 C2015 1.363 . S
C2010 C2011 1.363 . S
C2010 C2015 1.379 . S
C2010 N2017 1.356 . S
C2011 C2010 1.363 . S
C2011 C2014 1.363 . S
N2012 C2014 1.356 . S
N2012 H2024 0.984 . S
N2012 H2025 0.985 . S
N2013 C2015 1.356 . S
N2013 H2018 0.984 . S
N2013 H2019 0.985 . S
C2014 C2008 1.379 . S
C2014 C2011 1.363 . S
C2014 N2012 1.356 . S
C2015 C2009 1.363 . S
C2015 C2010 1.379 . S
C2015 N2013 1.356 . S
N2016 C2008 1.356 . S
N2016 H2022 0.984 . S
N2016 H2023 0.984 . S
N2017 C2010 1.356 . S
N2017 H2020 0.984 . S
N2017 H2021 0.985 . S
H2018 N2013 0.984 . S
H2019 N2013 0.985 . S
H2020 N2017 0.984 . S
H2021 N2017 0.985 . S
H2022 N2016 0.984 . S
H2023 N2016 0.984 . S
H2024 N2012 0.984 . S
H2025 N2012 0.985 . S
C2026 C2027 1.363 . S
C2026 C2032 1.379 . S
C2026 N2034 1.356 . S
C2027 C2026 1.363 . S
C2027 C2033 1.363 . S
C2028 C2029 1.363 . S
C2028 C2033 1.379 . S
C2028 N2035 1.356 . S
C2029 C2028 1.363 . S
C2029 C2032 1.363 . S
N2030 C2032 1.356 . S
N2030 H2042 0.984 . S
N2030 H2043 0.985 . S
N2031 C2033 1.356 . S
N2031 H2036 0.984 . S
N2031 H2037 0.985 . S
C2032 C2026 1.379 . S
C2032 C2029 1.363 . S
C2032 N2030 1.356 . S
C2033 C2027 1.363 . S
C2033 C2028 1.379 . S
C2033 N2031 1.356 . S
N2034 C2026 1.356 . S
N2034 H2040 0.984 . S
N2034 H2041 0.984 . S
N2035 C2028 1.356 . S
N2035 H2038 0.984 . S
N2035 H2039 0.985 . S
H2036 N2031 0.984 . S
H2037 N2031 0.985 . S
H2038 N2035 0.984 . S
H2039 N2035 0.985 . S
H2040 N2034 0.984 . S
H2041 N2034 0.984 . S
H2042 N2030 0.984 . S
H2043 N2030 0.985 . S
C2044 C2045 1.401 . S
C2044 C2050 1.353 1_565 S
C2044 N2052 1.356 . S
C2045 C2044 1.401 . S
C2045 C2051 1.363 . S
C2046 C2047 1.363 1_565 S
C2046 C2051 1.379 . S
C2046 N2053 1.356 . S
C2047 C2046 1.363 1_545 S
C2047 C2050 1.363 . S
N2048 C2050 1.356 . S
N2048 H2060 0.984 . S
N2048 H2061 0.985 . S
N2049 C2051 1.356 . S
N2049 H2054 0.984 . S
N2049 H2055 0.985 . S
C2050 C2044 1.353 1_545 S
C2050 C2047 1.363 . S
C2050 N2048 1.356 . S
C2051 C2045 1.363 . S
C2051 C2046 1.379 . S
C2051 N2049 1.356 . S
N2052 C2044 1.356 . S
N2052 H2058 0.961 1_565 S
N2052 H2059 1.008 . S
N2053 C2046 1.356 . S
N2053 H2056 0.991 . S
N2053 H2057 0.985 . S
H2054 N2049 0.984 . S
H2055 N2049 0.985 . S
H2056 N2053 0.991 . S
H2057 N2053 0.985 . S
H2058 N2052 0.961 1_545 S
H2059 N2052 1.008 . S
H2060 N2048 0.984 . S
H2061 N2048 0.985 . S
C2062 C2063 1.363 . S
C2062 C2068 1.379 . S
C2062 N2070 1.331 1_655 S
C2063 C2062 1.363 . S
C2063 C2069 1.363 . S
C2064 C2065 1.363 . S
C2064 C2069 1.379 . S
C2064 N2071 1.356 . S
C2065 C2064 1.363 . S
C2065 C2068 1.363 . S
N2066 C2068 1.356 1_455 S
N2066 H2078 0.984 . S
N2066 H2079 0.985 . S
N2067 C2069 1.356 . S
N2067 H2072 0.984 . S
N2067 H2073 0.985 . S
C2068 C2062 1.379 . S
C2068 C2065 1.363 . S
C2068 N2066 1.356 1_655 S
C2069 C2063 1.363 . S
C2069 C2064 1.379 . S
C2069 N2067 1.356 . S
N2070 C2062 1.331 1_455 S
N2070 H2076 1.026 . S
N2070 H2077 0.970 1_455 S
N2071 C2064 1.356 . S
N2071 H2074 0.984 . S
N2071 H2075 0.985 . S
H2072 N2067 0.984 . S
H2073 N2067 0.985 . S
H2074 N2071 0.984 . S
H2075 N2071 0.985 . S
H2076 N2070 1.026 . S
H2077 N2070 0.970 1_655 S
H2078 N2066 0.984 . S
H2079 N2066 0.985 . S
C2080 C2081 1.363 . S
C2080 C2086 1.379 . S
C2080 N2088 1.356 . S
C2081 C2080 1.363 . S
C2081 C2087 1.363 . S
C2082 C2083 1.363 . S
C2082 C2087 1.379 . S
C2082 N2089 1.356 1_545 S
C2083 C2082 1.363 . S
C2083 C2086 1.363 . S
N2084 C2086 1.356 1_554 S
N2084 H2096 0.984 . S
N2084 H2097 0.985 . S
N2085 C2087 1.356 1_565 S
N2085 H2090 0.984 1_565 S
N2085 H2091 0.985 . S
C2086 C2080 1.379 . S
C2086 C2083 1.363 . S
C2086 N2084 1.356 1_556 S
C2087 C2081 1.363 . S
C2087 C2082 1.379 . S
C2087 N2085 1.356 1_545 S
N2088 C2080 1.356 . S
N2088 H2094 0.984 . S
N2088 H2095 0.984 . S
N2089 C2082 1.356 1_565 S
N2089 H2092 0.984 . S
N2089 H2093 0.985 . S
H2090 N2085 0.984 1_545 S
H2091 N2085 0.985 . S
H2092 N2089 0.984 . S
H2093 N2089 0.985 . S
H2094 N2088 0.984 . S
H2095 N2088 0.984 . S
H2096 N2084 0.984 . S
H2097 N2084 0.985 . S
C2098 C2099 1.363 . S
C2098 C2104 1.379 . S
C2098 N2106 1.356 . S
C2099 C2098 1.363 . S
C2099 C2105 1.363 . S
C2100 C2101 1.363 . S
C2100 C2105 1.379 . S
C2100 N2107 1.356 . S
C2101 C2100 1.363 . S
C2101 C2104 1.363 . S
N2102 C2104 1.356 . S
N2102 H2114 0.984 . S
N2102 H2115 0.985 . S
N2103 C2105 1.356 . S
N2103 H2108 0.984 . S
N2103 H2109 0.985 . S
C2104 C2098 1.379 . S
C2104 C2101 1.363 . S
C2104 N2102 1.356 . S
C2105 C2099 1.363 . S
C2105 C2100 1.379 . S
C2105 N2103 1.356 . S
N2106 C2098 1.356 . S
N2106 H2112 0.984 . S
N2106 H2113 0.984 . S
N2107 C2100 1.356 . S
N2107 H2110 0.984 . S
N2107 H2111 0.985 . S
H2108 N2103 0.984 . S
H2109 N2103 0.985 . S
H2110 N2107 0.984 . S
H2111 N2107 0.985 . S
H2112 N2106 0.984 . S
H2113 N2106 0.984 . S
H2114 N2102 0.984 . S
H2115 N2102 0.985 . S
C2116 C2117 1.363 . S
C2116 C2122 1.379 . S
C2116 N2124 1.356 . S
C2117 C2116 1.363 . S
C2117 C2123 1.363 . S
C2118 C2119 1.363 . S
C2118 C2123 1.379 . S
C2118 N2125 1.356 . S
C2119 C2118 1.363 . S
C2119 C2122 1.363 . S
N2120 C2122 1.356 . S
N2120 H2132 0.984 . S
N2120 H2133 0.985 . S
N2121 C2123 1.356 . S
N2121 H2126 0.984 . S
N2121 H2127 0.985 . S
C2122 C2116 1.379 . S
C2122 C2119 1.363 . S
C2122 N2120 1.356 . S
C2123 C2117 1.363 . S
C2123 C2118 1.379 . S
C2123 N2121 1.356 . S
N2124 C2116 1.356 . S
N2124 H2130 0.984 . S
N2124 H2131 0.984 . S
N2125 C2118 1.356 . S
N2125 H2128 0.984 . S
N2125 H2129 0.985 . S
H2126 N2121 0.984 . S
H2127 N2121 0.985 . S
H2128 N2125 0.984 . S
H2129 N2125 0.985 . S
H2130 N2124 0.984 . S
H2131 N2124 0.984 . S
H2132 N2120 0.984 . S
H2133 N2120 0.985 . S
C2134 C2135 1.363 . S
C2134 C2140 1.379 . S
C2134 N2142 1.356 . S
C2135 C2134 1.363 . S
C2135 C2141 1.363 . S
C2136 C2137 1.363 . S
C2136 C2141 1.379 . S
C2136 N2143 1.356 . S
C2137 C2136 1.363 . S
C2137 C2140 1.363 . S
N2138 C2140 1.356 . S
N2138 H2150 0.984 . S
N2138 H2151 0.985 . S
N2139 C2141 1.356 . S
N2139 H2144 0.984 . S
N2139 H2145 0.985 . S
C2140 C2134 1.379 . S
C2140 C2137 1.363 . S
C2140 N2138 1.356 . S
C2141 C2135 1.363 . S
C2141 C2136 1.379 . S
C2141 N2139 1.356 . S
N2142 C2134 1.356 . S
N2142 H2148 0.984 . S
N2142 H2149 0.984 . S
N2143 C2136 1.356 . S
N2143 H2146 0.984 . S
N2143 H2147 0.985 . S
H2144 N2139 0.984 . S
H2145 N2139 0.985 . S
H2146 N2143 0.984 . S
H2147 N2143 0.985 . S
H2148 N2142 0.984 . S
H2149 N2142 0.984 . S
H2150 N2138 0.984 . S
H2151 N2138 0.985 . S
C2152 C2153 1.363 . S
C2152 C2158 1.379 . S
C2152 N2160 1.356 1_545 S
C2153 C2152 1.363 . S
C2153 C2159 1.363 . S
C2154 C2155 1.363 . S
C2154 C2159 1.379 . S
C2154 N2161 1.356 . S
C2155 C2154 1.363 . S
C2155 C2158 1.363 . S
N2156 C2158 1.356 . S
N2156 H2168 0.984 1_545 S
N2156 H2169 0.985 . S
N2157 C2159 1.356 . S
N2157 H2162 0.984 . S
N2157 H2163 0.985 . S
C2158 C2152 1.379 . S
C2158 C2155 1.363 . S
C2158 N2156 1.356 . S
C2159 C2153 1.363 . S
C2159 C2154 1.379 . S
C2159 N2157 1.356 . S
N2160 C2152 1.356 1_565 S
N2160 H2166 0.984 . S
N2160 H2167 0.984 . S
N2161 C2154 1.356 . S
N2161 H2164 0.984 . S
N2161 H2165 0.985 . S
H2162 N2157 0.984 . S
H2163 N2157 0.985 . S
H2164 N2161 0.984 . S
H2165 N2161 0.985 . S
H2166 N2160 0.984 . S
H2167 N2160 0.984 . S
H2168 N2156 0.984 1_565 S
H2169 N2156 0.985 . S
C2170 C2171 1.363 . S
C2170 C2176 1.379 . S
C2170 N2178 1.356 . S
C2171 C2170 1.363 . S
C2171 C2177 1.363 . S
C2172 C2173 1.363 . S
C2172 C2177 1.379 . S
C2172 N2179 1.356 . S
C2173 C2172 1.363 . S
C2173 C2176 1.363 . S
N2174 C2176 1.356 . S
N2174 H2186 0.984 . S
N2174 H2187 0.985 . S
N2175 C2177 1.356 . S
N2175 H2180 0.984 . S
N2175 H2181 0.985 . S
C2176 C2170 1.379 . S
C2176 C2173 1.363 . S
C2176 N2174 1.356 . S
C2177 C2171 1.363 . S
C2177 C2172 1.379 . S
C2177 N2175 1.356 . S
N2178 C2170 1.356 . S
N2178 H2184 0.984 . S
N2178 H2185 0.984 . S
N2179 C2172 1.356 . S
N2179 H2182 0.984 . S
N2179 H2183 0.985 . S
H2180 N2175 0.984 . S
H2181 N2175 0.985 . S
H2182 N2179 0.984 . S
H2183 N2179 0.985 . S
H2184 N2178 0.984 . S
H2185 N2178 0.984 . S
H2186 N2174 0.984 . S
H2187 N2174 0.985 . S
C2188 C2189 1.363 . S
C2188 C2194 1.379 . S
C2188 N2196 1.356 . S
C2189 C2188 1.363 . S
C2189 C2195 1.363 . S
C2190 C2191 1.363 . S
C2190 C2195 1.379 . S
C2190 N2197 1.356 . S
C2191 C2190 1.363 . S
C2191 C2194 1.363 . S
N2192 C2194 1.356 . S
N2192 H2204 0.984 . S
N2192 H2205 0.985 . S
N2193 C2195 1.356 . S
N2193 H2198 0.984 . S
N2193 H2199 0.985 . S
C2194 C2188 1.379 . S
C2194 C2191 1.363 . S
C2194 N2192 1.356 . S
C2195 C2189 1.363 . S
C2195 C2190 1.379 . S
C2195 N2193 1.356 . S
N2196 C2188 1.356 . S
N2196 H2202 0.984 . S
N2196 H2203 0.984 . S
N2197 C2190 1.356 . S
N2197 H2200 0.984 . S
N2197 H2201 0.985 . S
H2198 N2193 0.984 . S
H2199 N2193 0.985 . S
H2200 N2197 0.984 . S
H2201 N2197 0.985 . S
H2202 N2196 0.984 . S
H2203 N2196 0.984 . S
H2204 N2192 0.984 . S
H2205 N2192 0.985 . S
C2206 C2207 1.363 . S
C2206 C2212 1.379 . S
C2206 N2214 1.356 . S
C2207 C2206 1.363 . S
C2207 C2213 1.363 . S
C2208 C2209 1.363 . S
C2208 C2213 1.379 . S
C2208 N2215 1.356 . S
C2209 C2208 1.363 . S
C2209 C2212 1.363 . S
N2210 C2212 1.356 . S
N2210 H2222 0.984 . S
N2210 H2223 0.985 . S
N2211 C2213 1.356 . S
N2211 H2216 0.984 . S
N2211 H2217 0.985 . S
C2212 C2206 1.379 . S
C2212 C2209 1.363 . S
C2212 N2210 1.356 . S
C2213 C2207 1.363 . S
C2213 C2208 1.379 . S
C2213 N2211 1.356 . S
N2214 C2206 1.356 . S
N2214 H2220 0.984 . S
N2214 H2221 0.984 . S
N2215 C2208 1.356 . S
N2215 H2218 0.984 . S
N2215 H2219 0.985 . S
H2216 N2211 0.984 . S
H2217 N2211 0.985 . S
H2218 N2215 0.984 . S
H2219 N2215 0.985 . S
H2220 N2214 0.984 . S
H2221 N2214 0.984 . S
H2222 N2210 0.984 . S
H2223 N2210 0.985 . S
C2224 C2225 1.363 . S
C2224 C2230 1.379 . S
C2224 N2232 1.356 . S
C2225 C2224 1.363 . S
C2225 C2231 1.363 . S
C2226 C2227 1.363 . S
C2226 C2231 1.379 . S
C2226 N2233 1.356 1_655 S
C2227 C2226 1.363 . S
C2227 C2230 1.363 . S
N2228 C2230 1.356 . S
N2228 H2240 0.984 1_554 S
N2228 H2241 0.985 . S
N2229 C2231 1.356 . S
N2229 H2234 0.984 . S
N2229 H2235 0.985 1_655 S
C2230 C2224 1.379 . S
C2230 C2227 1.363 . S
C2230 N2228 1.356 . S
C2231 C2225 1.363 . S
C2231 C2226 1.379 . S
C2231 N2229 1.356 . S
N2232 C2224 1.356 . S
N2232 H2238 0.984 . S
N2232 H2239 0.984 . S
N2233 C2226 1.356 1_455 S
N2233 H2236 0.984 . S
N2233 H2237 0.985 . S
H2234 N2229 0.984 . S
H2235 N2229 0.985 1_455 S
H2236 N2233 0.984 . S
H2237 N2233 0.985 . S
H2238 N2232 0.984 . S
H2239 N2232 0.984 . S
H2240 N2228 0.984 1_556 S
H2241 N2228 0.985 . S
C2242 C2243 1.363 . S
C2242 C2248 1.379 . S
C2242 N2250 1.356 . S
C2243 C2242 1.363 . S
C2243 C2249 1.363 . S
C2244 C2245 1.363 . S
C2244 C2249 1.379 . S
C2244 N2251 1.356 . S
C2245 C2244 1.363 . S
C2245 C2248 1.363 . S
N2246 C2248 1.356 . S
N2246 H2258 0.984 . S
N2246 H2259 0.985 . S
N2247 C2249 1.356 . S
N2247 H2252 0.984 . S
N2247 H2253 0.985 . S
C2248 C2242 1.379 . S
C2248 C2245 1.363 . S
C2248 N2246 1.356 . S
C2249 C2243 1.363 . S
C2249 C2244 1.379 . S
C2249 N2247 1.356 . S
N2250 C2242 1.356 . S
N2250 H2256 0.984 . S
N2250 H2257 0.984 . S
N2251 C2244 1.356 . S
N2251 H2254 0.984 . S
N2251 H2255 0.985 . S
H2252 N2247 0.984 . S
H2253 N2247 0.985 . S
H2254 N2251 0.984 . S
H2255 N2251 0.985 . S
H2256 N2250 0.984 . S
H2257 N2250 0.984 . S
H2258 N2246 0.984 . S
H2259 N2246 0.985 . S
C2260 C2261 1.363 . S
C2260 C2266 1.379 . S
C2260 N2268 1.356 . S
C2261 C2260 1.363 . S
C2261 C2267 1.363 . S
C2262 C2263 1.363 . S
C2262 C2267 1.379 . S
C2262 N2269 1.356 . S
C2263 C2262 1.363 . S
C2263 C2266 1.363 . S
N2264 C2266 1.356 . S
N2264 H2276 0.984 . S
N2264 H2277 0.985 . S
N2265 C2267 1.356 . S
N2265 H2270 0.984 . S
N2265 H2271 0.985 . S
C2266 C2260 1.379 . S
C2266 C2263 1.363 . S
C2266 N2264 1.356 . S
C2267 C2261 1.363 . S
C2267 C2262 1.379 . S
C2267 N2265 1.356 . S
N2268 C2260 1.356 . S
N2268 H2274 0.984 . S
N2268 H2275 0.984 . S
N2269 C2262 1.356 . S
N2269 H2272 0.984 . S
N2269 H2273 0.985 . S
H2270 N2265 0.984 . S
H2271 N2265 0.985 . S
H2272 N2269 0.984 . S
H2273 N2269 0.985 . S
H2274 N2268 0.984 . S
H2275 N2268 0.984 . S
H2276 N2264 0.984 . S
H2277 N2264 0.985 . S
C2278 C2279 1.363 . S
C2278 C2284 1.379 . S
C2278 N2286 1.356 . S
C2279 C2278 1.363 . S
C2279 C2285 1.363 . S
C2280 C2281 1.363 . S
C2280 C2285 1.379 . S
C2280 N2287 1.356 . S
C2281 C2280 1.363 . S
C2281 C2284 1.363 . S
N2282 C2284 1.356 . S
N2282 H2294 0.984 . S
N2282 H2295 0.985 . S
N2283 C2285 1.356 . S
N2283 H2288 0.984 . S
N2283 H2289 0.985 . S
C2284 C2278 1.379 . S
C2284 C2281 1.363 . S
C2284 N2282 1.356 . S
C2285 C2279 1.363 . S
C2285 C2280 1.379 . S
C2285 N2283 1.356 . S
N2286 C2278 1.356 . S
N2286 H2292 0.984 . S
N2286 H2293 0.984 . S
N2287 C2280 1.356 . S
N2287 H2290 0.984 . S
N2287 H2291 0.985 . S
H2288 N2283 0.984 . S
H2289 N2283 0.985 . S
H2290 N2287 0.984 . S
H2291 N2287 0.985 . S
H2292 N2286 0.984 . S
H2293 N2286 0.984 . S
H2294 N2282 0.984 . S
H2295 N2282 0.985 . S
C2296 C2297 1.363 . S
C2296 C2302 1.379 . S
C2296 N2304 1.356 . S
C2297 C2296 1.363 . S
C2297 C2303 1.363 . S
C2298 C2299 1.363 . S
C2298 C2303 1.379 . S
C2298 N2305 1.356 . S
C2299 C2298 1.363 . S
C2299 C2302 1.363 . S
N2300 C2302 1.356 . S
N2300 H2312 0.984 . S
N2300 H2313 0.985 . S
N2301 C2303 1.356 . S
N2301 H2306 0.984 . S
N2301 H2307 0.985 . S
C2302 C2296 1.379 . S
C2302 C2299 1.363 . S
C2302 N2300 1.356 . S
C2303 C2297 1.363 . S
C2303 C2298 1.379 . S
C2303 N2301 1.356 . S
N2304 C2296 1.356 . S
N2304 H2310 0.984 . S
N2304 H2311 0.984 . S
N2305 C2298 1.356 . S
N2305 H2308 0.984 . S
N2305 H2309 0.985 . S
H2306 N2301 0.984 . S
H2307 N2301 0.985 . S
H2308 N2305 0.984 . S
H2309 N2305 0.985 . S
H2310 N2304 0.984 . S
H2311 N2304 0.984 . S
H2312 N2300 0.984 . S
H2313 N2300 0.985 . S
C2314 C2315 1.363 . S
C2314 C2320 1.379 . S
C2314 N2322 1.356 . S
C2315 C2314 1.363 . S
C2315 C2321 1.363 . S
C2316 C2317 1.363 . S
C2316 C2321 1.379 . S
C2316 N2323 1.356 . S
C2317 C2316 1.363 . S
C2317 C2320 1.363 . S
N2318 C2320 1.356 . S
N2318 H2330 0.984 . S
N2318 H2331 0.985 . S
N2319 C2321 1.356 . S
N2319 H2324 0.984 . S
N2319 H2325 0.985 . S
C2320 C2314 1.379 . S
C2320 C2317 1.363 . S
C2320 N2318 1.356 . S
C2321 C2315 1.363 . S
C2321 C2316 1.379 . S
C2321 N2319 1.356 . S
N2322 C2314 1.356 . S
N2322 H2328 0.984 . S
N2322 H2329 0.984 . S
N2323 C2316 1.356 . S
N2323 H2326 0.984 . S
N2323 H2327 0.985 . S
H2324 N2319 0.984 . S
H2325 N2319 0.985 . S
H2326 N2323 0.984 . S
H2327 N2323 0.985 . S
H2328 N2322 0.984 . S
H2329 N2322 0.984 . S
H2330 N2318 0.984 . S
H2331 N2318 0.985 . S
C2332 C2333 1.363 . S
C2332 C2338 1.379 . S
C2332 N2340 1.356 . S
C2333 C2332 1.363 . S
C2333 C2339 1.363 . S
C2334 C2335 1.363 . S
C2334 C2339 1.379 . S
C2334 N2341 1.356 . S
C2335 C2334 1.363 . S
C2335 C2338 1.363 . S
N2336 C2338 1.356 . S
N2336 H2348 0.984 . S
N2336 H2349 0.985 . S
N2337 C2339 1.356 . S
N2337 H2342 0.984 . S
N2337 H2343 0.985 . S
C2338 C2332 1.379 . S
C2338 C2335 1.363 . S
C2338 N2336 1.356 . S
C2339 C2333 1.363 . S
C2339 C2334 1.379 . S
C2339 N2337 1.356 . S
N2340 C2332 1.356 . S
N2340 H2346 0.984 . S
N2340 H2347 0.984 . S
N2341 C2334 1.356 . S
N2341 H2344 0.984 . S
N2341 H2345 0.985 . S
H2342 N2337 0.984 . S
H2343 N2337 0.985 . S
H2344 N2341 0.984 . S
H2345 N2341 0.985 . S
H2346 N2340 0.984 . S
H2347 N2340 0.984 . S
H2348 N2336 0.984 . S
H2349 N2336 0.985 . S
C2350 C2351 1.363 . S
C2350 C2356 1.379 . S
C2350 N2358 1.356 . S
C2351 C2350 1.363 . S
C2351 C2357 1.363 . S
C2352 C2353 1.363 . S
C2352 C2357 1.379 . S
C2352 N2359 1.356 . S
C2353 C2352 1.363 . S
C2353 C2356 1.363 . S
N2354 C2356 1.356 . S
N2354 H2366 0.984 . S
N2354 H2367 0.985 . S
N2355 C2357 1.356 . S
N2355 H2360 0.984 . S
N2355 H2361 0.985 . S
C2356 C2350 1.379 . S
C2356 C2353 1.363 . S
C2356 N2354 1.356 . S
C2357 C2351 1.363 . S
C2357 C2352 1.379 . S
C2357 N2355 1.356 . S
N2358 C2350 1.356 . S
N2358 H2364 0.984 . S
N2358 H2365 0.984 . S
N2359 C2352 1.356 . S
N2359 H2362 0.984 . S
N2359 H2363 0.985 . S
H2360 N2355 0.984 . S
H2361 N2355 0.985 . S
H2362 N2359 0.984 . S
H2363 N2359 0.985 . S
H2364 N2358 0.984 . S
H2365 N2358 0.984 . S
H2366 N2354 0.984 . S
H2367 N2354 0.985 . S
C2368 C2369 1.363 . S
C2368 C2374 1.379 . S
C2368 N2376 1.356 . S
C2369 C2368 1.363 . S
C2369 C2375 1.363 . S
C2370 C2371 1.363 . S
C2370 C2375 1.379 . S
C2370 N2377 1.356 . S
C2371 C2370 1.363 . S
C2371 C2374 1.363 . S
N2372 C2374 1.356 . S
N2372 H2384 0.984 . S
N2372 H2385 0.985 . S
N2373 C2375 1.356 . S
N2373 H2378 0.984 . S
N2373 H2379 0.985 . S
C2374 C2368 1.379 . S
C2374 C2371 1.363 . S
C2374 N2372 1.356 . S
C2375 C2369 1.363 . S
C2375 C2370 1.379 . S
C2375 N2373 1.356 . S
N2376 C2368 1.356 . S
N2376 H2382 0.984 . S
N2376 H2383 0.984 . S
N2377 C2370 1.356 . S
N2377 H2380 0.984 . S
N2377 H2381 0.985 . S
H2378 N2373 0.984 . S
H2379 N2373 0.985 . S
H2380 N2377 0.984 . S
H2381 N2377 0.985 . S
H2382 N2376 0.984 . S
H2383 N2376 0.984 . S
H2384 N2372 0.984 . S
H2385 N2372 0.985 . S
C2386 C2387 1.363 . S
C2386 C2392 1.379 . S
C2386 N2394 1.356 . S
C2387 C2386 1.363 . S
C2387 C2393 1.363 . S
C2388 C2389 1.363 . S
C2388 C2393 1.379 . S
C2388 N2395 1.356 . S
C2389 C2388 1.363 . S
C2389 C2392 1.363 . S
N2390 C2392 1.356 . S
N2390 H2402 0.984 . S
N2390 H2403 0.985 . S
N2391 C2393 1.356 . S
N2391 H2396 0.984 . S
N2391 H2397 0.985 . S
C2392 C2386 1.379 . S
C2392 C2389 1.363 . S
C2392 N2390 1.356 . S
C2393 C2387 1.363 . S
C2393 C2388 1.379 . S
C2393 N2391 1.356 . S
N2394 C2386 1.356 . S
N2394 H2400 0.984 . S
N2394 H2401 0.984 . S
N2395 C2388 1.356 . S
N2395 H2398 0.984 . S
N2395 H2399 0.985 . S
H2396 N2391 0.984 . S
H2397 N2391 0.985 . S
H2398 N2395 0.984 . S
H2399 N2395 0.985 . S
H2400 N2394 0.984 . S
H2401 N2394 0.984 . S
H2402 N2390 0.984 . S
H2403 N2390 0.985 . S
C2404 C2405 1.363 . S
C2404 C2410 1.379 1_556 S
C2404 N2412 1.356 . S
C2405 C2404 1.363 . S
C2405 C2411 1.363 . S
C2406 C2407 1.363 . S
C2406 C2411 1.379 1_554 S
C2406 N2413 1.356 . S
C2407 C2406 1.363 . S
C2407 C2410 1.363 . S
N2408 C2410 1.356 . S
N2408 H2420 0.979 1_554 S
N2408 H2421 0.985 . S
N2409 C2411 1.356 . S
N2409 H2414 0.984 . S
N2409 H2415 0.968 1_556 S
C2410 C2404 1.379 1_554 S
C2410 C2407 1.363 . S
C2410 N2408 1.356 . S
C2411 C2405 1.363 . S
C2411 C2406 1.379 1_556 S
C2411 N2409 1.356 . S
N2412 C2404 1.356 . S
N2412 H2418 0.984 . S
N2412 H2419 0.984 . S
N2413 C2406 1.356 . S
N2413 H2416 0.984 . S
N2413 H2417 0.985 . S
H2414 N2409 0.984 . S
H2415 N2409 0.968 1_554 S
H2416 N2413 0.984 . S
H2417 N2413 0.985 . S
H2418 N2412 0.984 . S
H2419 N2412 0.984 . S
H2420 N2408 0.979 1_556 S
H2421 N2408 0.985 . S
C2422 C2423 1.363 . S
C2422 C2428 1.379 . S
C2422 N2430 1.356 . S
C2423 C2422 1.363 . S
C2423 C2429 1.363 . S
C2424 C2425 1.363 . S
C2424 C2429 1.379 . S
C2424 N2431 1.356 . S
C2425 C2424 1.363 . S
C2425 C2428 1.363 . S
N2426 C2428 1.356 . S
N2426 H2438 0.984 . S
N2426 H2439 0.985 . S
N2427 C2429 1.356 . S
N2427 H2432 0.984 . S
N2427 H2433 0.985 . S
C2428 C2422 1.379 . S
C2428 C2425 1.363 . S
C2428 N2426 1.356 . S
C2429 C2423 1.363 . S
C2429 C2424 1.379 . S
C2429 N2427 1.356 . S
N2430 C2422 1.356 . S
N2430 H2436 0.984 . S
N2430 H2437 0.984 . S
N2431 C2424 1.356 . S
N2431 H2434 0.984 . S
N2431 H2435 0.985 . S
H2432 N2427 0.984 . S
H2433 N2427 0.985 . S
H2434 N2431 0.984 . S
H2435 N2431 0.985 . S
H2436 N2430 0.984 . S
H2437 N2430 0.984 . S
H2438 N2426 0.984 . S
H2439 N2426 0.985 . S
C2440 C2441 1.363 . S
C2440 C2446 1.379 . S
C2440 N2448 1.356 . S
C2441 C2440 1.363 . S
C2441 C2447 1.363 . S
C2442 C2443 1.363 . S
C2442 C2447 1.379 . S
C2442 N2449 1.356 . S
C2443 C2442 1.363 . S
C2443 C2446 1.363 . S
N2444 C2446 1.356 . S
N2444 H2456 0.984 . S
N2444 H2457 0.985 . S
N2445 C2447 1.356 . S
N2445 H2450 0.984 . S
N2445 H2451 0.985 . S
C2446 C2440 1.379 . S
C2446 C2443 1.363 . S
C2446 N2444 1.356 . S
C2447 C2441 1.363 . S
C2447 C2442 1.379 . S
C2447 N2445 1.356 . S
N2448 C2440 1.356 . S
N2448 H2454 0.984 . S
N2448 H2455 0.984 . S
N2449 C2442 1.356 . S
N2449 H2452 0.984 . S
N2449 H2453 0.985 . S
H2450 N2445 0.984 . S
H2451 N2445 0.985 . S
H2452 N2449 0.984 . S
H2453 N2449 0.985 . S
H2454 N2448 0.984 . S
H2455 N2448 0.984 . S
H2456 N2444 0.984 . S
H2457 N2444 0.985 . S
C2458 C2459 1.363 . S
C2458 C2464 1.379 . S
C2458 N2466 1.356 . S
C2459 C2458 1.363 . S
C2459 C2465 1.363 . S
C2460 C2461 1.363 . S
C2460 C2465 1.379 . S
C2460 N2467 1.356 . S
C2461 C2460 1.363 . S
C2461 C2464 1.363 . S
N2462 C2464 1.356 . S
N2462 H2474 0.984 . S
N2462 H2475 0.985 1_455 S
N2463 C2465 1.356 . S
N2463 H2468 0.984 . S
N2463 H2469 0.985 . S
C2464 C2458 1.379 . S
C2464 C2461 1.363 . S
C2464 N2462 1.356 . S
C2465 C2459 1.363 . S
C2465 C2460 1.379 . S
C2465 N2463 1.356 . S
N2466 C2458 1.356 . S
N2466 H2472 0.984 . S
N2466 H2473 0.984 . S
N2467 C2460 1.356 . S
N2467 H2470 0.984 . S
N2467 H2471 0.985 . S
H2468 N2463 0.984 . S
H2469 N2463 0.985 . S
H2470 N2467 0.984 . S
H2471 N2467 0.985 . S
H2472 N2466 0.984 . S
H2473 N2466 0.984 . S
H2474 N2462 0.984 . S
H2475 N2462 0.985 1_655 S
C2476 C2477 1.363 . S
C2476 C2482 1.379 1_655 S
C2476 N2484 1.356 . S
C2477 C2476 1.363 . S
C2477 C2483 1.363 1_655 S
C2478 C2479 1.363 . S
C2478 C2483 1.379 . S
C2478 N2485 1.356 . S
C2479 C2478 1.363 . S
C2479 C2482 1.363 . S
N2480 C2482 1.356 . S
N2480 H2492 0.984 . S
N2480 H2493 0.985 . S
N2481 C2483 1.356 1_655 S
N2481 H2486 0.984 . S
N2481 H2487 0.988 . S
C2482 C2476 1.379 1_455 S
C2482 C2479 1.363 . S
C2482 N2480 1.356 . S
C2483 C2477 1.363 1_455 S
C2483 C2478 1.379 . S
C2483 N2481 1.356 1_455 S
N2484 C2476 1.356 . S
N2484 H2490 0.984 . S
N2484 H2491 0.984 . S
N2485 C2478 1.356 . S
N2485 H2488 0.984 . S
N2485 H2489 0.985 . S
H2486 N2481 0.984 . S
H2487 N2481 0.988 . S
H2488 N2485 0.984 . S
H2489 N2485 0.985 . S
H2490 N2484 0.984 . S
H2491 N2484 0.984 . S
H2492 N2480 0.984 . S
H2493 N2480 0.985 . S
C2494 C2495 1.363 . S
C2494 C2500 1.379 . S
C2494 N2502 1.356 . S
C2495 C2494 1.363 . S
C2495 C2501 1.363 . S
C2496 C2497 1.363 . S
C2496 C2501 1.379 . S
C2496 N2503 1.356 . S
C2497 C2496 1.363 . S
C2497 C2500 1.363 . S
N2498 C2500 1.356 . S
N2498 H2510 0.984 . S
N2498 H2511 0.985 . S
N2499 C2501 1.356 . S
N2499 H2504 0.984 . S
N2499 H2505 0.985 . S
C2500 C2494 1.379 . S
C2500 C2497 1.363 . S
C2500 N2498 1.356 . S
C2501 C2495 1.363 . S
C2501 C2496 1.379 . S
C2501 N2499 1.356 . S
N2502 C2494 1.356 . S
N2502 H2508 0.984 . S
N2502 H2509 0.984 . S
N2503 C2496 1.356 . S
N2503 H2506 0.984 . S
N2503 H2507 0.985 . S
H2504 N2499 0.984 . S
H2505 N2499 0.985 . S
H2506 N2503 0.984 . S
H2507 N2503 0.985 . S
H2508 N2502 0.984 . S
H2509 N2502 0.984 . S
H2510 N2498 0.984 . S
H2511 N2498 0.985 . S
C2512 C2513 1.363 . S
C2512 C2518 1.379 . S
C2512 N2520 1.356 . S
C2513 C2512 1.363 . S
C2513 C2519 1.363 . S
C2514 C2515 1.363 . S
C2514 C2519 1.379 . S
C2514 N2521 1.356 . S
C2515 C2514 1.363 . S
C2515 C2518 1.363 . S
N2516 C2518 1.356 . S
N2516 H2528 0.984 . S
N2516 H2529 0.985 . S
N2517 C2519 1.356 . S
N2517 H2522 0.984 . S
N2517 H2523 0.985 . S
C2518 C2512 1.379 . S
C2518 C2515 1.363 . S
C2518 N2516 1.356 . S
C2519 C2513 1.363 . S
C2519 C2514 1.379 . S
C2519 N2517 1.356 . S
N2520 C2512 1.356 . S
N2520 H2526 0.984 . S
N2520 H2527 0.984 . S
N2521 C2514 1.356 . S
N2521 H2524 0.984 . S
N2521 H2525 0.985 . S
H2522 N2517 0.984 . S
H2523 N2517 0.985 . S
H2524 N2521 0.984 . S
H2525 N2521 0.985 . S
H2526 N2520 0.984 . S
H2527 N2520 0.984 . S
H2528 N2516 0.984 . S
H2529 N2516 0.985 . S
C2530 C2531 1.363 . S
C2530 C2536 1.379 . S
C2530 N2538 1.356 1_556 S
C2531 C2530 1.363 . S
C2531 C2537 1.363 . S
C2532 C2533 1.363 . S
C2532 C2537 1.379 . S
C2532 N2539 1.356 . S
C2533 C2532 1.363 . S
C2533 C2536 1.363 . S
N2534 C2536 1.356 . S
N2534 H2546 0.984 . S
N2534 H2547 0.985 . S
N2535 C2537 1.356 . S
N2535 H2540 0.984 . S
N2535 H2541 0.985 . S
C2536 C2530 1.379 . S
C2536 C2533 1.363 . S
C2536 N2534 1.356 . S
C2537 C2531 1.363 . S
C2537 C2532 1.379 . S
C2537 N2535 1.356 . S
N2538 C2530 1.356 1_554 S
N2538 H2544 0.984 . S
N2538 H2545 0.984 . S
N2539 C2532 1.356 . S
N2539 H2542 0.984 . S
N2539 H2543 0.985 . S
H2540 N2535 0.984 . S
H2541 N2535 0.985 . S
H2542 N2539 0.984 . S
H2543 N2539 0.985 . S
H2544 N2538 0.984 . S
H2545 N2538 0.984 . S
H2546 N2534 0.984 . S
H2547 N2534 0.985 . S
C2548 C2549 1.363 . S
C2548 C2554 1.379 . S
C2548 N2556 1.356 . S
C2549 C2548 1.363 . S
C2549 C2555 1.363 . S
C2550 C2551 1.363 . S
C2550 C2555 1.379 . S
C2550 N2557 1.356 . S
C2551 C2550 1.363 . S
C2551 C2554 1.363 . S
N2552 C2554 1.356 . S
N2552 H2564 0.984 . S
N2552 H2565 0.985 . S
N2553 C2555 1.356 . S
N2553 H2558 0.984 . S
N2553 H2559 0.985 . S
C2554 C2548 1.379 . S
C2554 C2551 1.363 . S
C2554 N2552 1.356 . S
C2555 C2549 1.363 . S
C2555 C2550 1.379 . S
C2555 N2553 1.356 . S
N2556 C2548 1.356 . S
N2556 H2562 0.984 . S
N2556 H2563 0.984 . S
N2557 C2550 1.356 . S
N2557 H2560 0.984 . S
N2557 H2561 0.985 . S
H2558 N2553 0.984 . S
H2559 N2553 0.985 . S
H2560 N2557 0.984 . S
H2561 N2557 0.985 . S
H2562 N2556 0.984 . S
H2563 N2556 0.984 . S
H2564 N2552 0.984 . S
H2565 N2552 0.985 . S
C2566 C2567 1.363 . S
C2566 C2572 1.379 . S
C2566 N2574 1.356 . S
C2567 C2566 1.363 . S
C2567 C2573 1.363 . S
C2568 C2569 1.363 . S
C2568 C2573 1.379 . S
C2568 N2575 1.356 . S
C2569 C2568 1.363 . S
C2569 C2572 1.363 . S
N2570 C2572 1.356 . S
N2570 H2582 0.984 . S
N2570 H2583 0.985 . S
N2571 C2573 1.356 . S
N2571 H2576 0.987 . S
N2571 H2577 0.985 . S
C2572 C2566 1.379 . S
C2572 C2569 1.363 . S
C2572 N2570 1.356 . S
C2573 C2567 1.363 . S
C2573 C2568 1.379 . S
C2573 N2571 1.356 . S
N2574 C2566 1.356 . S
N2574 H2580 0.984 . S
N2574 H2581 0.984 . S
N2575 C2568 1.356 . S
N2575 H2578 0.984 . S
N2575 H2579 0.985 . S
H2576 N2571 0.987 . S
H2577 N2571 0.985 . S
H2578 N2575 0.984 . S
H2579 N2575 0.985 . S
H2580 N2574 0.984 . S
H2581 N2574 0.984 . S
H2582 N2570 0.984 . S
H2583 N2570 0.985 . S
C2584 C2585 1.363 . S
C2584 C2590 1.379 . S
C2584 N2592 1.356 . S
C2585 C2584 1.363 . S
C2585 C2591 1.363 . S
C2586 C2587 1.363 . S
C2586 C2591 1.379 . S
C2586 N2593 1.356 . S
C2587 C2586 1.363 . S
C2587 C2590 1.363 . S
N2588 C2590 1.356 . S
N2588 H2600 0.984 . S
N2588 H2601 0.985 . S
N2589 C2591 1.356 . S
N2589 H2594 0.984 . S
N2589 H2595 0.985 . S
C2590 C2584 1.379 . S
C2590 C2587 1.363 . S
C2590 N2588 1.356 . S
C2591 C2585 1.363 . S
C2591 C2586 1.379 . S
C2591 N2589 1.356 . S
N2592 C2584 1.356 . S
N2592 H2598 0.984 . S
N2592 H2599 0.984 . S
N2593 C2586 1.356 . S
N2593 H2596 0.984 1_556 S
N2593 H2597 0.985 . S
H2594 N2589 0.984 . S
H2595 N2589 0.985 . S
H2596 N2593 0.984 1_554 S
H2597 N2593 0.985 . S
H2598 N2592 0.984 . S
H2599 N2592 0.984 . S
H2600 N2588 0.984 . S
H2601 N2588 0.985 . S
C2602 C2603 1.363 . S
C2602 C2608 1.379 . S
C2602 N2610 1.356 . S
C2603 C2602 1.363 . S
C2603 C2609 1.363 . S
C2604 C2605 1.363 . S
C2604 C2609 1.379 . S
C2604 N2611 1.356 . S
C2605 C2604 1.363 . S
C2605 C2608 1.363 . S
N2606 C2608 1.356 . S
N2606 H2618 0.984 . S
N2606 H2619 0.985 . S
N2607 C2609 1.356 . S
N2607 H2612 0.984 . S
N2607 H2613 0.985 . S
C2608 C2602 1.379 . S
C2608 C2605 1.363 . S
C2608 N2606 1.356 . S
C2609 C2603 1.363 . S
C2609 C2604 1.379 . S
C2609 N2607 1.356 . S
N2610 C2602 1.356 . S
N2610 H2616 0.984 . S
N2610 H2617 0.984 . S
N2611 C2604 1.356 . S
N2611 H2614 0.984 . S
N2611 H2615 0.985 . S
H2612 N2607 0.984 . S
H2613 N2607 0.985 . S
H2614 N2611 0.984 . S
H2615 N2611 0.985 . S
H2616 N2610 0.984 . S
H2617 N2610 0.984 . S
H2618 N2606 0.984 . S
H2619 N2606 0.985 . S
C2620 C2621 1.363 . S
C2620 C2626 1.379 . S
C2620 N2628 1.356 . S
C2621 C2620 1.363 . S
C2621 C2627 1.363 . S
C2622 C2623 1.363 . S
C2622 C2627 1.379 . S
C2622 N2629 1.356 . S
C2623 C2622 1.363 . S
C2623 C2626 1.363 . S
N2624 C2626 1.356 . S
N2624 H2636 0.984 . S
N2624 H2637 0.985 . S
N2625 C2627 1.356 . S
N2625 H2630 0.984 . S
N2625 H2631 0.985 . S
C2626 C2620 1.379 . S
C2626 C2623 1.363 . S
C2626 N2624 1.356 . S
C2627 C2621 1.363 . S
C2627 C2622 1.379 . S
C2627 N2625 1.356 . S
N2628 C2620 1.356 . S
N2628 H2634 0.984 . S
N2628 H2635 0.984 . S
N2629 C2622 1.356 . S
N2629 H2632 0.984 . S
N2629 H2633 0.985 . S
H2630 N2625 0.984 . S
H2631 N2625 0.985 . S
H2632 N2629 0.984 . S
H2633 N2629 0.985 . S
H2634 N2628 0.984 . S
H2635 N2628 0.984 . S
H2636 N2624 0.984 . S
H2637 N2624 0.985 . S
C2638 C2639 1.363 . S
C2638 C2644 1.379 . S
C2638 N2646 1.356 . S
C2639 C2638 1.363 . S
C2639 C2645 1.363 . S
C2640 C2641 1.363 . S
C2640 C2645 1.379 . S
C2640 N2647 1.356 . S
C2641 C2640 1.363 . S
C2641 C2644 1.363 . S
N2642 C2644 1.356 . S
N2642 H2654 0.984 . S
N2642 H2655 0.985 . S
N2643 C2645 1.356 . S
N2643 H2648 0.984 . S
N2643 H2649 0.985 . S
C2644 C2638 1.379 . S
C2644 C2641 1.363 . S
C2644 N2642 1.356 . S
C2645 C2639 1.363 . S
C2645 C2640 1.379 . S
C2645 N2643 1.356 . S
N2646 C2638 1.356 . S
N2646 H2652 0.984 . S
N2646 H2653 0.984 . S
N2647 C2640 1.356 . S
N2647 H2650 0.984 . S
N2647 H2651 0.985 . S
H2648 N2643 0.984 . S
H2649 N2643 0.985 . S
H2650 N2647 0.984 . S
H2651 N2647 0.985 . S
H2652 N2646 0.984 . S
H2653 N2646 0.984 . S
H2654 N2642 0.984 . S
H2655 N2642 0.985 . S
C2656 C2657 1.363 . S
C2656 C2662 1.379 . S
C2656 N2664 1.356 . S
C2657 C2656 1.363 . S
C2657 C2663 1.363 . S
C2658 C2659 1.363 . S
C2658 C2663 1.379 . S
C2658 N2665 1.356 . S
C2659 C2658 1.363 . S
C2659 C2662 1.363 . S
N2660 C2662 1.356 . S
N2660 H2672 0.984 . S
N2660 H2673 0.985 . S
N2661 C2663 1.356 . S
N2661 H2666 0.984 . S
N2661 H2667 0.985 . S
C2662 C2656 1.379 . S
C2662 C2659 1.363 . S
C2662 N2660 1.356 . S
C2663 C2657 1.363 . S
C2663 C2658 1.379 . S
C2663 N2661 1.356 . S
N2664 C2656 1.356 . S
N2664 H2670 0.984 . S
N2664 H2671 0.984 . S
N2665 C2658 1.356 . S
N2665 H2668 0.984 . S
N2665 H2669 0.985 . S
H2666 N2661 0.984 . S
H2667 N2661 0.985 . S
H2668 N2665 0.984 . S
H2669 N2665 0.985 . S
H2670 N2664 0.984 . S
H2671 N2664 0.984 . S
H2672 N2660 0.984 . S
H2673 N2660 0.985 . S
C2674 C2675 1.363 . S
C2674 C2680 1.379 . S
C2674 N2682 1.356 . S
C2675 C2674 1.363 . S
C2675 C2681 1.363 . S
C2676 C2677 1.363 . S
C2676 C2681 1.379 . S
C2676 N2683 1.356 . S
C2677 C2676 1.363 . S
C2677 C2680 1.363 . S
N2678 C2680 1.356 . S
N2678 H2690 0.984 . S
N2678 H2691 0.985 . S
N2679 C2681 1.356 . S
N2679 H2684 0.984 . S
N2679 H2685 0.985 . S
C2680 C2674 1.379 . S
C2680 C2677 1.363 . S
C2680 N2678 1.356 . S
C2681 C2675 1.363 . S
C2681 C2676 1.379 . S
C2681 N2679 1.356 . S
N2682 C2674 1.356 . S
N2682 H2688 0.984 . S
N2682 H2689 0.984 . S
N2683 C2676 1.356 . S
N2683 H2686 0.984 . S
N2683 H2687 0.985 . S
H2684 N2679 0.984 . S
H2685 N2679 0.985 . S
H2686 N2683 0.984 . S
H2687 N2683 0.985 . S
H2688 N2682 0.984 . S
H2689 N2682 0.984 . S
H2690 N2678 0.984 . S
H2691 N2678 0.985 . S
C2692 C2693 1.363 . S
C2692 C2698 1.379 . S
C2692 N2700 1.356 . S
C2693 C2692 1.363 . S
C2693 C2699 1.363 . S
C2694 C2695 1.363 . S
C2694 C2699 1.379 . S
C2694 N2701 1.356 . S
C2695 C2694 1.363 . S
C2695 C2698 1.363 . S
N2696 C2698 1.356 . S
N2696 H2708 0.984 . S
N2696 H2709 0.985 . S
N2697 C2699 1.356 . S
N2697 H2702 0.984 . S
N2697 H2703 0.985 . S
C2698 C2692 1.379 . S
C2698 C2695 1.363 . S
C2698 N2696 1.356 . S
C2699 C2693 1.363 . S
C2699 C2694 1.379 . S
C2699 N2697 1.356 . S
N2700 C2692 1.356 . S
N2700 H2706 0.984 . S
N2700 H2707 0.984 . S
N2701 C2694 1.356 . S
N2701 H2704 0.984 . S
N2701 H2705 0.985 . S
H2702 N2697 0.984 . S
H2703 N2697 0.985 . S
H2704 N2701 0.984 . S
H2705 N2701 0.985 . S
H2706 N2700 0.984 . S
H2707 N2700 0.984 . S
H2708 N2696 0.984 . S
H2709 N2696 0.985 . S
C2710 C2711 1.363 . S
C2710 C2716 1.379 . S
C2710 N2718 1.356 . S
C2711 C2710 1.363 . S
C2711 C2717 1.363 . S
C2712 C2713 1.363 . S
C2712 C2717 1.379 . S
C2712 N2719 1.356 1_565 S
C2713 C2712 1.363 . S
C2713 C2716 1.363 . S
N2714 C2716 1.356 . S
N2714 H2726 0.984 . S
N2714 H2727 0.985 . S
N2715 C2717 1.356 . S
N2715 H2720 0.984 . S
N2715 H2721 0.985 . S
C2716 C2710 1.379 . S
C2716 C2713 1.363 . S
C2716 N2714 1.356 . S
C2717 C2711 1.363 . S
C2717 C2712 1.379 . S
C2717 N2715 1.356 . S
N2718 C2710 1.356 . S
N2718 H2724 0.984 . S
N2718 H2725 0.984 . S
N2719 C2712 1.356 1_545 S
N2719 H2722 0.984 . S
N2719 H2723 0.985 . S
H2720 N2715 0.984 . S
H2721 N2715 0.985 . S
H2722 N2719 0.984 . S
H2723 N2719 0.985 . S
H2724 N2718 0.984 . S
H2725 N2718 0.984 . S
H2726 N2714 0.984 . S
H2727 N2714 0.985 . S
C2728 C2729 1.363 . S
C2728 C2734 1.379 . S
C2728 N2736 1.356 . S
C2729 C2728 1.363 . S
C2729 C2735 1.363 . S
C2730 C2731 1.363 . S
C2730 C2735 1.379 . S
C2730 N2737 1.356 . S
C2731 C2730 1.363 . S
C2731 C2734 1.363 . S
N2732 C2734 1.356 . S
N2732 H2744 0.984 . S
N2732 H2745 0.985 . S
N2733 C2735 1.356 . S
N2733 H2738 0.984 . S
N2733 H2739 0.985 . S
C2734 C2728 1.379 . S
C2734 C2731 1.363 . S
C2734 N2732 1.356 . S
C2735 C2729 1.363 . S
C2735 C2730 1.379 . S
C2735 N2733 1.356 . S
N2736 C2728 1.356 . S
N2736 H2742 0.984 . S
N2736 H2743 0.984 . S
N2737 C2730 1.356 . S
N2737 H2740 0.984 . S
N2737 H2741 0.985 . S
H2738 N2733 0.984 . S
H2739 N2733 0.985 . S
H2740 N2737 0.984 . S
H2741 N2737 0.985 . S
H2742 N2736 0.984 . S
H2743 N2736 0.984 . S
H2744 N2732 0.984 . S
H2745 N2732 0.985 . S
C2746 C2747 1.363 . S
C2746 C2752 1.379 . S
C2746 N2754 1.356 . S
C2747 C2746 1.363 . S
C2747 C2753 1.363 . S
C2748 C2749 1.363 . S
C2748 C2753 1.379 . S
C2748 N2755 1.356 . S
C2749 C2748 1.363 . S
C2749 C2752 1.363 . S
N2750 C2752 1.356 . S
N2750 H2762 0.984 . S
N2750 H2763 0.985 . S
N2751 C2753 1.356 . S
N2751 H2756 0.984 . S
N2751 H2757 0.985 . S
C2752 C2746 1.379 . S
C2752 C2749 1.363 . S
C2752 N2750 1.356 . S
C2753 C2747 1.363 . S
C2753 C2748 1.379 . S
C2753 N2751 1.356 . S
N2754 C2746 1.356 . S
N2754 H2760 0.984 . S
N2754 H2761 0.984 1_554 S
N2755 C2748 1.356 . S
N2755 H2758 0.984 . S
N2755 H2759 0.985 . S
H2756 N2751 0.984 . S
H2757 N2751 0.985 . S
H2758 N2755 0.984 . S
H2759 N2755 0.985 . S
H2760 N2754 0.984 . S
H2761 N2754 0.984 1_556 S
H2762 N2750 0.984 . S
H2763 N2750 0.985 . S
C2764 C2765 1.363 . S
C2764 C2770 1.379 . S
C2764 N2772 1.356 . S
C2765 C2764 1.363 . S
C2765 C2771 1.363 . S
C2766 C2767 1.363 . S
C2766 C2771 1.379 . S
C2766 N2773 1.356 . S
C2767 C2766 1.363 . S
C2767 C2770 1.363 . S
N2768 C2770 1.356 . S
N2768 H2780 0.984 . S
N2768 H2781 0.985 . S
N2769 C2771 1.356 . S
N2769 H2774 0.984 . S
N2769 H2775 0.985 . S
C2770 C2764 1.379 . S
C2770 C2767 1.363 . S
C2770 N2768 1.356 . S
C2771 C2765 1.363 . S
C2771 C2766 1.379 . S
C2771 N2769 1.356 . S
N2772 C2764 1.356 . S
N2772 H2778 0.984 . S
N2772 H2779 0.984 . S
N2773 C2766 1.356 . S
N2773 H2776 0.984 . S
N2773 H2777 0.985 . S
H2774 N2769 0.984 . S
H2775 N2769 0.985 . S
H2776 N2773 0.984 . S
H2777 N2773 0.985 . S
H2778 N2772 0.984 . S
H2779 N2772 0.984 . S
H2780 N2768 0.984 . S
H2781 N2768 0.985 . S
C2782 C2783 1.363 . S
C2782 C2788 1.379 . S
C2782 N2790 1.356 . S
C2783 C2782 1.363 . S
C2783 C2789 1.363 . S
C2784 C2785 1.363 . S
C2784 C2789 1.379 . S
C2784 N2791 1.356 . S
C2785 C2784 1.363 . S
C2785 C2788 1.363 . S
N2786 C2788 1.356 . S
N2786 H2798 0.984 1_545 S
N2786 H2799 0.985 1_545 S
N2787 C2789 1.356 . S
N2787 H2792 0.984 . S
N2787 H2793 0.985 . S
C2788 C2782 1.379 . S
C2788 C2785 1.363 . S
C2788 N2786 1.356 . S
C2789 C2783 1.363 . S
C2789 C2784 1.379 . S
C2789 N2787 1.356 . S
N2790 C2782 1.356 . S
N2790 H2796 0.984 . S
N2790 H2797 0.984 . S
N2791 C2784 1.356 . S
N2791 H2794 0.984 . S
N2791 H2795 0.985 . S
H2792 N2787 0.984 . S
H2793 N2787 0.985 . S
H2794 N2791 0.984 . S
H2795 N2791 0.985 . S
H2796 N2790 0.984 . S
H2797 N2790 0.984 . S
H2798 N2786 0.984 1_565 S
H2799 N2786 0.985 1_565 S
C2800 C2801 1.363 . S
C2800 C2806 1.379 . S
C2800 N2808 1.356 . S
C2801 C2800 1.363 . S
C2801 C2807 1.363 . S
C2802 C2803 1.363 . S
C2802 C2807 1.379 . S
C2802 N2809 1.356 . S
C2803 C2802 1.363 . S
C2803 C2806 1.363 . S
N2804 C2806 1.356 . S
N2804 H2816 0.984 . S
N2804 H2817 0.985 . S
N2805 C2807 1.356 . S
N2805 H2810 0.984 . S
N2805 H2811 0.985 . S
C2806 C2800 1.379 . S
C2806 C2803 1.363 . S
C2806 N2804 1.356 . S
C2807 C2801 1.363 . S
C2807 C2802 1.379 . S
C2807 N2805 1.356 . S
N2808 C2800 1.356 . S
N2808 H2814 0.984 . S
N2808 H2815 0.984 . S
N2809 C2802 1.356 . S
N2809 H2812 0.984 . S
N2809 H2813 0.985 . S
H2810 N2805 0.984 . S
H2811 N2805 0.985 . S
H2812 N2809 0.984 . S
H2813 N2809 0.985 . S
H2814 N2808 0.984 . S
H2815 N2808 0.984 . S
H2816 N2804 0.984 . S
H2817 N2804 0.985 . S
C2818 C2819 1.363 . S
C2818 C2824 1.379 . S
C2818 N2826 1.356 . S
C2819 C2818 1.363 . S
C2819 C2825 1.363 . S
C2820 C2821 1.363 . S
C2820 C2825 1.379 . S
C2820 N2827 1.356 . S
C2821 C2820 1.363 . S
C2821 C2824 1.363 . S
N2822 C2824 1.356 . S
N2822 H2834 0.984 . S
N2822 H2835 0.985 . S
N2823 C2825 1.356 . S
N2823 H2828 0.984 . S
N2823 H2829 0.985 . S
C2824 C2818 1.379 . S
C2824 C2821 1.363 . S
C2824 N2822 1.356 . S
C2825 C2819 1.363 . S
C2825 C2820 1.379 . S
C2825 N2823 1.356 . S
N2826 C2818 1.356 . S
N2826 H2832 0.984 . S
N2826 H2833 0.984 . S
N2827 C2820 1.356 . S
N2827 H2830 0.984 . S
N2827 H2831 0.985 . S
H2828 N2823 0.984 . S
H2829 N2823 0.985 . S
H2830 N2827 0.984 . S
H2831 N2827 0.985 . S
H2832 N2826 0.984 . S
H2833 N2826 0.984 . S
H2834 N2822 0.984 . S
H2835 N2822 0.985 . S
C2836 C2837 1.363 . S
C2836 C2842 1.379 . S
C2836 N2844 1.356 . S
C2837 C2836 1.363 . S
C2837 C2843 1.363 . S
C2838 C2839 1.363 . S
C2838 C2843 1.379 . S
C2838 N2845 1.356 . S
C2839 C2838 1.363 . S
C2839 C2842 1.363 . S
N2840 C2842 1.356 . S
N2840 H2852 0.984 . S
N2840 H2853 0.985 . S
N2841 C2843 1.356 . S
N2841 H2846 0.984 . S
N2841 H2847 0.985 1_455 S
C2842 C2836 1.379 . S
C2842 C2839 1.363 . S
C2842 N2840 1.356 . S
C2843 C2837 1.363 . S
C2843 C2838 1.379 . S
C2843 N2841 1.356 . S
N2844 C2836 1.356 . S
N2844 H2850 0.984 . S
N2844 H2851 0.984 . S
N2845 C2838 1.356 . S
N2845 H2848 0.984 . S
N2845 H2849 0.961 1_455 S
H2846 N2841 0.984 . S
H2847 N2841 0.985 1_655 S
H2848 N2845 0.984 . S
H2849 N2845 0.961 1_655 S
H2850 N2844 0.984 . S
H2851 N2844 0.984 . S
H2852 N2840 0.984 . S
H2853 N2840 0.985 . S
C2854 C2855 1.363 . S
C2854 C2860 1.379 . S
C2854 N2862 1.356 . S
C2855 C2854 1.363 . S
C2855 C2861 1.363 . S
C2856 C2857 1.363 . S
C2856 C2861 1.379 . S
C2856 N2863 1.356 . S
C2857 C2856 1.363 . S
C2857 C2860 1.363 . S
N2858 C2860 1.356 . S
N2858 H2870 0.984 . S
N2858 H2871 0.985 . S
N2859 C2861 1.356 . S
N2859 H2864 0.984 . S
N2859 H2865 0.985 . S
C2860 C2854 1.379 . S
C2860 C2857 1.363 . S
C2860 N2858 1.356 . S
C2861 C2855 1.363 . S
C2861 C2856 1.379 . S
C2861 N2859 1.356 . S
N2862 C2854 1.356 . S
N2862 H2868 0.984 . S
N2862 H2869 0.984 . S
N2863 C2856 1.356 . S
N2863 H2866 0.984 . S
N2863 H2867 0.985 . S
H2864 N2859 0.984 . S
H2865 N2859 0.985 . S
H2866 N2863 0.984 . S
H2867 N2863 0.985 . S
H2868 N2862 0.984 . S
H2869 N2862 0.984 . S
H2870 N2858 0.984 . S
H2871 N2858 0.985 . S
C2872 C2873 1.363 . S
C2872 C2878 1.379 . S
C2872 N2880 1.356 1_554 S
C2873 C2872 1.363 . S
C2873 C2879 1.363 . S
C2874 C2875 1.363 . S
C2874 C2879 1.379 . S
C2874 N2881 1.356 . S
C2875 C2874 1.363 . S
C2875 C2878 1.363 . S
N2876 C2878 1.356 1_556 S
N2876 H2888 0.984 . S
N2876 H2889 0.985 . S
N2877 C2879 1.356 . S
N2877 H2882 0.984 . S
N2877 H2883 0.985 . S
C2878 C2872 1.379 . S
C2878 C2875 1.363 . S
C2878 N2876 1.356 1_554 S
C2879 C2873 1.363 . S
C2879 C2874 1.379 . S
C2879 N2877 1.356 . S
N2880 C2872 1.356 1_556 S
N2880 H2886 0.984 . S
N2880 H2887 0.984 . S
N2881 C2874 1.356 . S
N2881 H2884 0.984 . S
N2881 H2885 0.985 . S
H2882 N2877 0.984 . S
H2883 N2877 0.985 . S
H2884 N2881 0.984 . S
H2885 N2881 0.985 . S
H2886 N2880 0.984 . S
H2887 N2880 0.984 . S
H2888 N2876 0.984 . S
H2889 N2876 0.985 . S
C2890 C2891 1.363 . S
C2890 C2896 1.379 . S
C2890 N2898 1.356 . S
C2891 C2890 1.363 . S
C2891 C2897 1.363 . S
C2892 C2893 1.363 . S
C2892 C2897 1.379 . S
C2892 N2899 1.356 . S
C2893 C2892 1.363 . S
C2893 C2896 1.363 . S
N2894 C2896 1.356 . S
N2894 H2906 0.984 . S
N2894 H2907 0.985 . S
N2895 C2897 1.356 . S
N2895 H2900 0.984 . S
N2895 H2901 0.985 . S
C2896 C2890 1.379 . S
C2896 C2893 1.363 . S
C2896 N2894 1.356 . S
C2897 C2891 1.363 . S
C2897 C2892 1.379 . S
C2897 N2895 1.356 . S
N2898 C2890 1.356 . S
N2898 H2904 0.984 . S
N2898 H2905 0.984 . S
N2899 C2892 1.356 . S
N2899 H2902 0.984 . S
N2899 H2903 0.985 . S
H2900 N2895 0.984 . S
H2901 N2895 0.985 . S
H2902 N2899 0.984 . S
H2903 N2899 0.985 . S
H2904 N2898 0.984 . S
H2905 N2898 0.984 . S
H2906 N2894 0.984 . S
H2907 N2894 0.985 . S
C2908 C2909 1.363 . S
C2908 C2914 1.379 . S
C2908 N2916 1.356 . S
C2909 C2908 1.363 . S
C2909 C2915 1.363 . S
C2910 C2911 1.363 . S
C2910 C2915 1.379 . S
C2910 N2917 1.356 . S
C2911 C2910 1.363 . S
C2911 C2914 1.363 . S
N2912 C2914 1.356 . S
N2912 H2924 0.984 . S
N2912 H2925 0.985 . S
N2913 C2915 1.356 . S
N2913 H2918 0.984 . S
N2913 H2919 0.985 . S
C2914 C2908 1.379 . S
C2914 C2911 1.363 . S
C2914 N2912 1.356 . S
C2915 C2909 1.363 . S
C2915 C2910 1.379 . S
C2915 N2913 1.356 . S
N2916 C2908 1.356 . S
N2916 H2922 0.984 . S
N2916 H2923 0.984 . S
N2917 C2910 1.356 . S
N2917 H2920 0.984 . S
N2917 H2921 0.985 . S
H2918 N2913 0.984 . S
H2919 N2913 0.985 . S
H2920 N2917 0.984 . S
H2921 N2917 0.985 . S
H2922 N2916 0.984 . S
H2923 N2916 0.984 . S
H2924 N2912 0.984 . S
H2925 N2912 0.985 . S
C2926 C2927 1.363 . S
C2926 C2932 1.379 . S
C2926 N2934 1.356 . S
C2927 C2926 1.363 . S
C2927 C2933 1.363 . S
C2928 C2929 1.363 . S
C2928 C2933 1.379 . S
C2928 N2935 1.356 . S
C2929 C2928 1.363 . S
C2929 C2932 1.363 . S
N2930 C2932 1.356 . S
N2930 H2942 0.984 . S
N2930 H2943 0.985 . S
N2931 C2933 1.356 . S
N2931 H2936 0.984 . S
N2931 H2937 0.985 . S
C2932 C2926 1.379 . S
C2932 C2929 1.363 . S
C2932 N2930 1.356 . S
C2933 C2927 1.363 . S
C2933 C2928 1.379 . S
C2933 N2931 1.356 . S
N2934 C2926 1.356 . S
N2934 H2940 0.984 . S
N2934 H2941 0.984 . S
N2935 C2928 1.356 . S
N2935 H2938 0.984 . S
N2935 H2939 0.985 . S
H2936 N2931 0.984 . S
H2937 N2931 0.985 . S
H2938 N2935 0.984 . S
H2939 N2935 0.985 . S
H2940 N2934 0.984 . S
H2941 N2934 0.984 . S
H2942 N2930 0.984 . S
H2943 N2930 0.985 . S
C2944 C2945 1.363 . S
C2944 C2950 1.379 . S
C2944 N2952 1.356 . S
C2945 C2944 1.363 . S
C2945 C2951 1.363 . S
C2946 C2947 1.363 . S
C2946 C2951 1.379 . S
C2946 N2953 1.356 . S
C2947 C2946 1.363 . S
C2947 C2950 1.363 . S
N2948 C2950 1.356 . S
N2948 H2960 0.984 . S
N2948 H2961 0.985 . S
N2949 C2951 1.356 . S
N2949 H2954 0.984 . S
N2949 H2955 0.985 . S
C2950 C2944 1.379 . S
C2950 C2947 1.363 . S
C2950 N2948 1.356 . S
C2951 C2945 1.363 . S
C2951 C2946 1.379 . S
C2951 N2949 1.356 . S
N2952 C2944 1.356 . S
N2952 H2958 0.984 . S
N2952 H2959 0.984 . S
N2953 C2946 1.356 . S
N2953 H2956 0.984 . S
N2953 H2957 0.985 . S
H2954 N2949 0.984 . S
H2955 N2949 0.985 . S
H2956 N2953 0.984 . S
H2957 N2953 0.985 . S
H2958 N2952 0.984 . S
H2959 N2952 0.984 . S
H2960 N2948 0.984 . S
H2961 N2948 0.985 . S
C2962 C2963 1.363 . S
C2962 C2968 1.379 . S
C2962 N2970 1.356 . S
C2963 C2962 1.363 . S
C2963 C2969 1.363 . S
C2964 C2965 1.363 . S
C2964 C2969 1.379 . S
C2964 N2971 1.356 . S
C2965 C2964 1.363 . S
C2965 C2968 1.363 . S
N2966 C2968 1.356 . S
N2966 H2978 0.984 . S
N2966 H2979 0.985 . S
N2967 C2969 1.356 . S
N2967 H2972 0.984 . S
N2967 H2973 0.985 . S
C2968 C2962 1.379 . S
C2968 C2965 1.363 . S
C2968 N2966 1.356 . S
C2969 C2963 1.363 . S
C2969 C2964 1.379 . S
C2969 N2967 1.356 . S
N2970 C2962 1.356 . S
N2970 H2976 0.984 . S
N2970 H2977 0.984 . S
N2971 C2964 1.356 . S
N2971 H2974 0.984 . S
N2971 H2975 0.985 . S
H2972 N2967 0.984 . S
H2973 N2967 0.985 . S
H2974 N2971 0.984 . S
H2975 N2971 0.985 . S
H2976 N2970 0.984 . S
H2977 N2970 0.984 . S
H2978 N2966 0.984 . S
H2979 N2966 0.985 . S
C2980 C2981 1.363 . S
C2980 C2986 1.379 . S
C2980 N2988 1.356 . S
C2981 C2980 1.363 . S
C2981 C2987 1.363 . S
C2982 C2983 1.363 . S
C2982 C2987 1.379 . S
C2982 N2989 1.356 . S
C2983 C2982 1.363 . S
C2983 C2986 1.363 . S
N2984 C2986 1.356 1_554 S
N2984 H2996 0.984 . S
N2984 H2997 0.985 . S
N2985 C2987 1.356 . S
N2985 H2990 0.984 . S
N2985 H2991 0.985 . S
C2986 C2980 1.379 . S
C2986 C2983 1.363 . S
C2986 N2984 1.356 1_556 S
C2987 C2981 1.363 . S
C2987 C2982 1.379 . S
C2987 N2985 1.356 . S
N2988 C2980 1.356 . S
N2988 H2994 0.984 . S
N2988 H2995 0.984 . S
N2989 C2982 1.356 . S
N2989 H2992 0.984 . S
N2989 H2993 0.985 . S
H2990 N2985 0.984 . S
H2991 N2985 0.985 . S
H2992 N2989 0.984 . S
H2993 N2989 0.985 . S
H2994 N2988 0.984 . S
H2995 N2988 0.984 . S
H2996 N2984 0.984 . S
H2997 N2984 0.985 . S
C2998 C2999 1.363 . S
C2998 C3004 1.379 . S
C2998 N3006 1.356 . S
C2999 C2998 1.363 . S
C2999 C3005 1.363 . S
C3000 C3001 1.363 . S
C3000 C3005 1.379 . S
C3000 N3007 1.356 . S
C3001 C3000 1.363 . S
C3001 C3004 1.363 . S
N3002 C3004 1.356 . S
N3002 H3014 0.984 . S
N3002 H3015 0.985 . S
N3003 C3005 1.356 . S
N3003 H3008 0.984 . S
N3003 H3009 0.985 . S
C3004 C2998 1.379 . S
C3004 C3001 1.363 . S
C3004 N3002 1.356 . S
C3005 C2999 1.363 . S
C3005 C3000 1.379 . S
C3005 N3003 1.356 . S
N3006 C2998 1.356 . S
N3006 H3012 0.984 . S
N3006 H3013 0.984 . S
N3007 C3000 1.356 . S
N3007 H3010 0.984 . S
N3007 H3011 0.985 . S
H3008 N3003 0.984 . S
H3009 N3003 0.985 . S
H3010 N3007 0.984 . S
H3011 N3007 0.985 . S
H3012 N3006 0.984 . S
H3013 N3006 0.984 . S
H3014 N3002 0.984 . S
H3015 N3002 0.985 . S
C3016 C3017 1.363 . S
C3016 C3022 1.379 . S
C3016 N3024 1.356 . S
C3017 C3016 1.363 . S
C3017 C3023 1.363 . S
C3018 C3019 1.363 . S
C3018 C3023 1.379 . S
C3018 N3025 1.356 . S
C3019 C3018 1.363 . S
C3019 C3022 1.363 . S
N3020 C3022 1.356 . S
N3020 H3032 0.984 . S
N3020 H3033 0.985 . S
N3021 C3023 1.356 . S
N3021 H3026 0.984 . S
N3021 H3027 0.985 . S
C3022 C3016 1.379 . S
C3022 C3019 1.363 . S
C3022 N3020 1.356 . S
C3023 C3017 1.363 . S
C3023 C3018 1.379 . S
C3023 N3021 1.356 . S
N3024 C3016 1.356 . S
N3024 H3030 0.984 . S
N3024 H3031 0.984 . S
N3025 C3018 1.356 . S
N3025 H3028 0.984 . S
N3025 H3029 0.985 . S
H3026 N3021 0.984 . S
H3027 N3021 0.985 . S
H3028 N3025 0.984 . S
H3029 N3025 0.985 . S
H3030 N3024 0.984 . S
H3031 N3024 0.984 . S
H3032 N3020 0.984 . S
H3033 N3020 0.985 . S
C3034 C3035 1.363 . S
C3034 C3040 1.379 . S
C3034 N3042 1.356 . S
C3035 C3034 1.363 . S
C3035 C3041 1.363 . S
C3036 C3037 1.363 . S
C3036 C3041 1.379 . S
C3036 N3043 1.356 . S
C3037 C3036 1.363 . S
C3037 C3040 1.363 . S
N3038 C3040 1.356 . S
N3038 H3050 0.984 . S
N3038 H3051 0.985 . S
N3039 C3041 1.356 . S
N3039 H3044 0.984 1_556 S
N3039 H3045 0.985 1_556 S
C3040 C3034 1.379 . S
C3040 C3037 1.363 . S
C3040 N3038 1.356 . S
C3041 C3035 1.363 . S
C3041 C3036 1.379 . S
C3041 N3039 1.356 . S
N3042 C3034 1.356 . S
N3042 H3048 0.984 . S
N3042 H3049 0.984 . S
N3043 C3036 1.356 . S
N3043 H3046 0.984 . S
N3043 H3047 0.985 . S
H3044 N3039 0.984 1_554 S
H3045 N3039 0.985 1_554 S
H3046 N3043 0.984 . S
H3047 N3043 0.985 . S
H3048 N3042 0.984 . S
H3049 N3042 0.984 . S
H3050 N3038 0.984 . S
H3051 N3038 0.985 . S
C3052 C3053 1.363 . S
C3052 C3058 1.379 . S
C3052 N3060 1.356 . S
C3053 C3052 1.363 . S
C3053 C3059 1.363 1_455 S
C3054 C3055 1.363 . S
C3054 C3059 1.379 1_455 S
C3054 N3061 1.356 1_455 S
C3055 C3054 1.363 . S
C3055 C3058 1.363 . S
N3056 C3058 1.356 . S
N3056 H3068 0.984 . S
N3056 H3069 0.985 . S
N3057 C3059 1.356 . S
N3057 H3062 0.984 . S
N3057 H3063 0.985 . S
C3058 C3052 1.379 . S
C3058 C3055 1.363 . S
C3058 N3056 1.356 . S
C3059 C3053 1.363 1_655 S
C3059 C3054 1.379 1_655 S
C3059 N3057 1.356 . S
N3060 C3052 1.356 . S
N3060 H3066 0.984 . S
N3060 H3067 0.984 . S
N3061 C3054 1.356 1_655 S
N3061 H3064 0.984 1_655 S
N3061 H3065 0.985 . S
H3062 N3057 0.984 . S
H3063 N3057 0.985 . S
H3064 N3061 0.984 1_455 S
H3065 N3061 0.985 . S
H3066 N3060 0.984 . S
H3067 N3060 0.984 . S
H3068 N3056 0.984 . S
H3069 N3056 0.985 . S
C3070 C3071 1.363 . S
C3070 C3076 1.379 . S
C3070 N3078 1.356 . S
C3071 C3070 1.363 . S
C3071 C3077 1.363 . S
C3072 C3073 1.363 . S
C3072 C3077 1.379 . S
C3072 N3079 1.356 . S
C3073 C3072 1.363 . S
C3073 C3076 1.363 . S
N3074 C3076 1.356 . S
N3074 H3086 0.984 . S
N3074 H3087 0.985 . S
N3075 C3077 1.356 . S
N3075 H3080 0.984 . S
N3075 H3081 0.985 . S
C3076 C3070 1.379 . S
C3076 C3073 1.363 . S
C3076 N3074 1.356 . S
C3077 C3071 1.363 . S
C3077 C3072 1.379 . S
C3077 N3075 1.356 . S
N3078 C3070 1.356 . S
N3078 H3084 0.984 . S
N3078 H3085 0.984 . S
N3079 C3072 1.356 . S
N3079 H3082 0.984 . S
N3079 H3083 0.985 . S
H3080 N3075 0.984 . S
H3081 N3075 0.985 . S
H3082 N3079 0.984 . S
H3083 N3079 0.985 . S
H3084 N3078 0.984 . S
H3085 N3078 0.984 . S
H3086 N3074 0.984 . S
H3087 N3074 0.985 . S
C3088 C3089 1.363 . S
C3088 C3094 1.379 . S
C3088 N3096 1.356 . S
C3089 C3088 1.363 . S
C3089 C3095 1.363 . S
C3090 C3091 1.363 . S
C3090 C3095 1.379 . S
C3090 N3097 1.356 . S
C3091 C3090 1.363 . S
C3091 C3094 1.363 . S
N3092 C3094 1.356 . S
N3092 H3104 0.984 . S
N3092 H3105 0.985 . S
N3093 C3095 1.356 . S
N3093 H3098 0.984 . S
N3093 H3099 0.985 . S
C3094 C3088 1.379 . S
C3094 C3091 1.363 . S
C3094 N3092 1.356 . S
C3095 C3089 1.363 . S
C3095 C3090 1.379 . S
C3095 N3093 1.356 . S
N3096 C3088 1.356 . S
N3096 H3102 0.984 . S
N3096 H3103 0.984 . S
N3097 C3090 1.356 . S
N3097 H3100 0.984 . S
N3097 H3101 0.985 . S
H3098 N3093 0.984 . S
H3099 N3093 0.985 . S
H3100 N3097 0.984 . S
H3101 N3097 0.985 . S
H3102 N3096 0.984 . S
H3103 N3096 0.984 . S
H3104 N3092 0.984 . S
H3105 N3092 0.985 . S
C3106 C3107 1.363 . S
C3106 C3112 1.379 . S
C3106 N3114 1.356 . S
C3107 C3106 1.363 . S
C3107 C3113 1.363 . S
C3108 C3109 1.363 . S
C3108 C3113 1.379 . S
C3108 N3115 1.356 . S
C3109 C3108 1.363 . S
C3109 C3112 1.363 . S
N3110 C3112 1.369 . S
N3110 H3122 0.978 1_655 S
N3110 H3123 0.978 1_655 S
N3111 C3113 1.356 . S
N3111 H3116 0.984 . S
N3111 H3117 0.985 . S
C3112 C3106 1.379 . S
C3112 C3109 1.363 . S
C3112 N3110 1.369 . S
C3113 C3107 1.363 . S
C3113 C3108 1.379 . S
C3113 N3111 1.356 . S
N3114 C3106 1.356 . S
N3114 H3120 0.984 1_545 S
N3114 H3121 0.984 . S
N3115 C3108 1.356 . S
N3115 H3118 0.984 . S
N3115 H3119 0.985 . S
H3116 N3111 0.984 . S
H3117 N3111 0.985 . S
H3118 N3115 0.984 . S
H3119 N3115 0.985 . S
H3120 N3114 0.984 1_565 S
H3121 N3114 0.984 . S
H3122 N3110 0.978 1_455 S
H3123 N3110 0.978 1_455 S
C3124 C3125 1.363 . S
C3124 C3130 1.379 . S
C3124 N3132 1.356 . S
C3125 C3124 1.363 . S
C3125 C3131 1.363 . S
C3126 C3127 1.363 . S
C3126 C3131 1.379 . S
C3126 N3133 1.356 . S
C3127 C3126 1.363 . S
C3127 C3130 1.363 . S
N3128 C3130 1.356 . S
N3128 H3140 0.984 . S
N3128 H3141 0.985 . S
N3129 C3131 1.356 . S
N3129 H3134 0.984 . S
N3129 H3135 0.985 . S
C3130 C3124 1.379 . S
C3130 C3127 1.363 . S
C3130 N3128 1.356 . S
C3131 C3125 1.363 . S
C3131 C3126 1.379 . S
C3131 N3129 1.356 . S
N3132 C3124 1.356 . S
N3132 H3138 0.984 . S
N3132 H3139 0.984 . S
N3133 C3126 1.356 . S
N3133 H3136 0.984 . S
N3133 H3137 0.985 . S
H3134 N3129 0.984 . S
H3135 N3129 0.985 . S
H3136 N3133 0.984 . S
H3137 N3133 0.985 . S
H3138 N3132 0.984 . S
H3139 N3132 0.984 . S
H3140 N3128 0.984 . S
H3141 N3128 0.985 . S
C3142 C3143 1.363 . S
C3142 C3148 1.379 . S
C3142 N3150 1.356 . S
C3143 C3142 1.363 . S
C3143 C3149 1.363 . S
C3144 C3145 1.363 . S
C3144 C3149 1.379 . S
C3144 N3151 1.356 . S
C3145 C3144 1.363 . S
C3145 C3148 1.363 . S
N3146 C3148 1.356 . S
N3146 H3158 0.984 1_554 S
N3146 H3159 0.985 . S
N3147 C3149 1.356 . S
N3147 H3152 0.984 . S
N3147 H3153 0.985 . S
C3148 C3142 1.379 . S
C3148 C3145 1.363 . S
C3148 N3146 1.356 . S
C3149 C3143 1.363 . S
C3149 C3144 1.379 . S
C3149 N3147 1.356 . S
N3150 C3142 1.356 . S
N3150 H3156 0.984 . S
N3150 H3157 0.984 . S
N3151 C3144 1.356 . S
N3151 H3154 0.984 . S
N3151 H3155 0.985 . S
H3152 N3147 0.984 . S
H3153 N3147 0.985 . S
H3154 N3151 0.984 . S
H3155 N3151 0.985 . S
H3156 N3150 0.984 . S
H3157 N3150 0.984 . S
H3158 N3146 0.984 1_556 S
H3159 N3146 0.985 . S
C3160 C3161 1.363 . S
C3160 C3166 1.379 . S
C3160 N3168 1.356 . S
C3161 C3160 1.363 . S
C3161 C3167 1.363 . S
C3162 C3163 1.363 . S
C3162 C3167 1.379 . S
C3162 N3169 1.356 . S
C3163 C3162 1.363 . S
C3163 C3166 1.363 . S
N3164 C3166 1.356 . S
N3164 H3176 0.984 . S
N3164 H3177 0.985 . S
N3165 C3167 1.356 . S
N3165 H3170 0.984 . S
N3165 H3171 0.985 . S
C3166 C3160 1.379 . S
C3166 C3163 1.363 . S
C3166 N3164 1.356 . S
C3167 C3161 1.363 . S
C3167 C3162 1.379 . S
C3167 N3165 1.356 . S
N3168 C3160 1.356 . S
N3168 H3174 0.984 . S
N3168 H3175 0.984 . S
N3169 C3162 1.356 . S
N3169 H3172 0.984 . S
N3169 H3173 0.985 . S
H3170 N3165 0.984 . S
H3171 N3165 0.985 . S
H3172 N3169 0.984 . S
H3173 N3169 0.985 . S
H3174 N3168 0.984 . S
H3175 N3168 0.984 . S
H3176 N3164 0.984 . S
H3177 N3164 0.985 . S
C3178 C3179 1.363 . S
C3178 C3184 1.379 . S
C3178 N3186 1.356 . S
C3179 C3178 1.363 . S
C3179 C3185 1.363 . S
C3180 C3181 1.363 . S
C3180 C3185 1.379 . S
C3180 N3187 1.356 . S
C3181 C3180 1.363 . S
C3181 C3184 1.363 . S
N3182 C3184 1.356 . S
N3182 H3194 0.984 . S
N3182 H3195 0.985 . S
N3183 C3185 1.356 . S
N3183 H3188 0.984 . S
N3183 H3189 0.985 . S
C3184 C3178 1.379 . S
C3184 C3181 1.363 . S
C3184 N3182 1.356 . S
C3185 C3179 1.363 . S
C3185 C3180 1.379 . S
C3185 N3183 1.356 . S
N3186 C3178 1.356 . S
N3186 H3192 0.984 . S
N3186 H3193 0.984 . S
N3187 C3180 1.356 . S
N3187 H3190 0.984 . S
N3187 H3191 0.985 . S
H3188 N3183 0.984 . S
H3189 N3183 0.985 . S
H3190 N3187 0.984 . S
H3191 N3187 0.985 . S
H3192 N3186 0.984 . S
H3193 N3186 0.984 . S
H3194 N3182 0.984 . S
H3195 N3182 0.985 . S
C3196 C3197 1.363 . S
C3196 C3202 1.379 . S
C3196 N3204 1.356 . S
C3197 C3196 1.363 . S
C3197 C3203 1.363 . S
C3198 C3199 1.363 . S
C3198 C3203 1.379 . S
C3198 N3205 1.356 . S
C3199 C3198 1.363 . S
C3199 C3202 1.363 . S
N3200 C3202 1.356 . S
N3200 H3212 0.984 . S
N3200 H3213 0.985 . S
N3201 C3203 1.356 . S
N3201 H3206 0.984 1_565 S
N3201 H3207 0.977 . S
C3202 C3196 1.379 . S
C3202 C3199 1.363 . S
C3202 N3200 1.356 . S
C3203 C3197 1.363 . S
C3203 C3198 1.379 . S
C3203 N3201 1.356 . S
N3204 C3196 1.356 . S
N3204 H3210 0.984 . S
N3204 H3211 0.984 . S
N3205 C3198 1.356 . S
N3205 H3208 0.984 . S
N3205 H3209 0.985 . S
H3206 N3201 0.984 1_545 S
H3207 N3201 0.977 . S
H3208 N3205 0.984 . S
H3209 N3205 0.985 . S
H3210 N3204 0.984 . S
H3211 N3204 0.984 . S
H3212 N3200 0.984 . S
H3213 N3200 0.985 . S
C3214 C3215 1.363 . S
C3214 C3220 1.379 . S
C3214 N3222 1.356 . S
C3215 C3214 1.363 . S
C3215 C3221 1.363 . S
C3216 C3217 1.363 . S
C3216 C3221 1.379 . S
C3216 N3223 1.356 . S
C3217 C3216 1.363 . S
C3217 C3220 1.363 . S
N3218 C3220 1.356 . S
N3218 H3230 0.984 . S
N3218 H3231 0.985 . S
N3219 C3221 1.356 . S
N3219 H3224 0.984 . S
N3219 H3225 0.985 . S
C3220 C3214 1.379 . S
C3220 C3217 1.363 . S
C3220 N3218 1.356 . S
C3221 C3215 1.363 . S
C3221 C3216 1.379 . S
C3221 N3219 1.356 . S
N3222 C3214 1.356 . S
N3222 H3228 0.984 . S
N3222 H3229 0.984 . S
N3223 C3216 1.356 . S
N3223 H3226 0.984 . S
N3223 H3227 0.985 . S
H3224 N3219 0.984 . S
H3225 N3219 0.985 . S
H3226 N3223 0.984 . S
H3227 N3223 0.985 . S
H3228 N3222 0.984 . S
H3229 N3222 0.984 . S
H3230 N3218 0.984 . S
H3231 N3218 0.985 . S
C1505 C255 1.546 . S
C1507 C870 1.451 . S
C1523 C147 2.047 . S
C1525 C922 1.914 . S
C1541 C184 1.422 . S
C1543 C954 1.435 1_565 S
C1561 C1003 2.517 . S
C1559 C220 2.499 . S
C1577 C40 1.291 . S
C1579 C1039 1.326 . S
C1597 C1070 0.733 . S
C1595 C74 0.722 . S
C1615 C1122 0.552 . S
C1613 C110 0.710 . S
C1631 C14 2.629 . S
C1633 C1150 2.518 . S
C1651 C882 2.083 . S
C1649 C579 2.245 . S
C1667 C616 1.837 . S
C1669 C923 1.898 . S
C1687 C953 1.960 . S
C1685 C687 2.075 1_545 S
C1705 C990 0.953 . S
C1703 C436 1.035 . S
C1721 C580 1.857 . S
C1723 C1034 1.879 . S
C1741 C1082 2.091 . S
C1739 C615 2.027 . S
C1759 C1123 1.892 1_556 S
C1757 C688 1.842 . S
C1777 C1162 1.970 . S
C1775 C435 2.111 . S
C1795 C883 2.359 1_565 S
C1793 C410 2.281 . S
C1811 C722 1.787 1_554 S
C1813 C1193 1.797 . S
C1831 C1243 2.576 . S
C1829 C842 2.562 . S
C1849 C1270 1.036 . S
C1847 C794 1.047 . S
C1865 C302 2.747 . S
C1867 C1163 2.727 . S
C1883 C338 2.102 . S
C1885 C959 1.787 . S
C1901 C830 2.662 . S
C1903 C1322 2.579 . S
C1921 C1350 1.389 . S
C1919 C758 1.543 . S
C1939 C879 1.576 . S
C1937 C158 1.606 . S
C1957 C1353 1.981 . S
C1955 C254 2.093 1_655 S
C1973 C218 1.434 . S
C1975 C963 1.441 . S
C1991 C194 2.517 . S
C1993 C1314 2.498 . S
C2011 C1030 1.289 . S
C2009 C3 1.349 . S
C2027 C111 0.929 . S
C2029 C1239 0.920 . S
C2047 C1113 0.593 . S
C2045 C76 0.615 . S
C2065 C1399 2.593 . S
C2063 C50 2.556 . S
C2083 C873 2.017 1_556 S
C2081 C364 2.246 . S
C2101 C1354 1.948 . S
C2099 C795 1.925 . S
C2117 C292 2.000 . S
C2119 C962 1.931 . S
C2135 C723 0.817 . S
C2137 C1319 0.796 . S
C2153 C363 1.854 . S
C2155 C1043 1.848 . S
C2173 C1233 2.092 . S
C2171 C796 2.001 . S
C2189 C291 1.944 . S
C2191 C1114 1.951 . S
C2207 C724 2.281 . S
C2209 C1393 2.049 . S
C2225 C482 2.205 . S
C2227 C874 2.349 1_655 S
C2243 C434 1.918 . S
C2245 C1202 2.000 . S
C2261 C662 2.365 . S
C2263 C1074 2.460 . S
C2279 C614 0.995 . S
C2281 C1279 0.992 . S
C2299 C1394 2.712 . S
C2297 C698 2.595 . S
C2315 C554 1.661 . S
C2317 C950 1.791 . S
C2335 C993 2.528 . S
C2333 C650 2.588 . S
C2353 C919 1.483 . S
C2351 C506 1.669 . S
C2369 C183 1.517 . S
C2371 C1430 1.418 . S
C2389 C1362 1.962 . S
C2387 C219 2.120 . S
C2405 C256 1.515 . S
C2407 C1474 1.534 . S
C2423 C148 2.490 . S
C2425 C1323 2.512 . S
C2441 C122 1.578 . S
C2443 C1199 1.412 . S
C2461 C1230 0.995 1_455 S
C2459 C2 1.065 . S
C2479 C1282 0.610 . S
C2477 C39 0.717 . S
C2497 C1390 1.622 . S
C2495 C86 1.715 . S
C2515 C1442 2.026 . S
C2513 C651 2.189 . S
C2531 C472 1.938 1_556 S
C2533 C1363 2.006 . S
C2551 C1473 1.979 . S
C2549 C507 2.069 . S
C2569 C1310 0.815 . S
C2567 C544 0.853 . S
C2587 C1194 1.986 1_556 S
C2585 C652 1.962 . S
C2603 C471 2.078 . S
C2605 C1242 2.089 . S
C2623 C1283 1.909 . S
C2621 C508 1.856 . S
C2639 C543 1.973 . S
C2641 C1402 1.833 . S
C2659 C1443 2.361 . S
C2657 C806 2.283 . S
C2675 C326 1.952 . S
C2677 C1033 2.038 . S
C2695 C1083 2.531 . S
C2693 C374 2.546 . S
C2713 C1110 1.164 1_565 S
C2711 C398 1.199 . S
C2731 C1403 2.613 . S
C2729 C770 2.611 . S
C2747 C734 1.775 1_554 S
C2749 C1479 1.491 . S
C2767 C1002 2.647 . S
C2765 C362 2.710 . S
C2785 C910 1.393 1_545 S
C2783 C290 1.556 . S
C2801 C230 1.603 . S
C2803 C1439 1.566 . S
C2821 C913 2.027 . S
C2819 C182 2.165 . S
C2837 C146 1.471 . S
C2839 C1483 1.482 . S
C2855 C266 2.519 . S
C2857 C994 2.502 . S
C2873 C75 1.316 . S
C2875 C1190 1.241 . S
C2893 C1079 0.923 . S
C2891 C38 0.974 . S
C2909 C4 0.736 . S
C2911 C1273 0.570 . S
C2927 C112 2.582 . S
C2929 C1159 2.322 . S
C2947 C1433 1.990 . S
C2945 C832 2.222 . S
C2963 C399 1.971 . S
C2965 C914 1.990 . S
C2983 C1482 1.985 1_556 S
C2981 C760 2.044 . S
C2999 C327 0.922 . S
C3001 C999 0.895 . S
C3017 C831 1.981 . S
C3019 C1203 1.990 . S
C3037 C1073 2.134 . S
C3035 C400 2.103 1_556 S
C3053 C759 1.908 1_455 S
C3055 C1274 1.937 . S
C3073 C1153 1.980 . S
C3071 C328 2.215 . S
C3091 C1434 2.366 . S
C3089 C626 2.224 . S
C3109 C1042 2.026 1_655 S
C3107 C542 1.946 . S
C3125 C590 2.328 . S
C3127 C1234 2.417 . S
C3145 C1119 1.061 . S
C3143 C470 1.075 . S
C3161 C518 2.487 . S
C3163 C1154 2.608 . S
C3179 C446 1.574 . S
C3181 C1470 1.690 . S
C3199 C1313 2.578 . S
C3197 C578 2.625 1_565 S
C3217 C1359 1.375 . S
C3215 C686 1.558 . S
