# Generated by pormake.
# Topology ssa, (4,4)-cn, num edge types: 1
# Building blocks:
#     Node 0, Type 0, BuildingBlock: KOZSID_clean_sbu_0, # of connection points: 4
#     Node 1, Type 0, BuildingBlock: KOZSID_clean_sbu_0, # of connection points: 4
#     Node 2, Type 0, BuildingBlock: KOZSID_clean_sbu_0, # of connection points: 4
#     Node 3, Type 0, BuildingBlock: KOZSID_clean_sbu_0, # of connection points: 4
#     Node 4, Type 0, BuildingBlock: KOZSID_clean_sbu_0, # of connection points: 4
#     Node 5, Type 0, BuildingBlock: KOZSID_clean_sbu_0, # of connection points: 4
#     Node 6, Type 1, BuildingBlock: KOZSID_clean_sbu_0, # of connection points: 4
#     Node 7, Type 1, BuildingBlock: KOZSID_clean_sbu_0, # of connection points: 4
#     Node 8, Type 1, BuildingBlock: KOZSID_clean_sbu_0, # of connection points: 4
#     Node 9, Type 1, BuildingBlock: KOZSID_clean_sbu_0, # of connection points: 4
#     Node 10, Type 1, BuildingBlock: KOZSID_clean_sbu_0, # of connection points: 4
#     Node 11, Type 1, BuildingBlock: KOZSID_clean_sbu_0, # of connection points: 4
#     Edge 12, Type (0, 1), BuildingBlock: XUDNAN_clean_linker_2, # of connection points: 2
#     Edge 13, Type (0, 1), BuildingBlock: XUDNAN_clean_linker_2, # of connection points: 2
#     Edge 14, Type (0, 1), BuildingBlock: XUDNAN_clean_linker_2, # of connection points: 2
#     Edge 15, Type (0, 1), BuildingBlock: XUDNAN_clean_linker_2, # of connection points: 2
#     Edge 16, Type (0, 1), BuildingBlock: XUDNAN_clean_linker_2, # of connection points: 2
#     Edge 17, Type (0, 1), BuildingBlock: XUDNAN_clean_linker_2, # of connection points: 2
#     Edge 18, Type (0, 1), BuildingBlock: XUDNAN_clean_linker_2, # of connection points: 2
#     Edge 19, Type (0, 1), BuildingBlock: XUDNAN_clean_linker_2, # of connection points: 2
#     Edge 20, Type (0, 1), BuildingBlock: XUDNAN_clean_linker_2, # of connection points: 2
#     Edge 21, Type (0, 1), BuildingBlock: XUDNAN_clean_linker_2, # of connection points: 2
#     Edge 22, Type (0, 1), BuildingBlock: XUDNAN_clean_linker_2, # of connection points: 2
#     Edge 23, Type (0, 1), BuildingBlock: XUDNAN_clean_linker_2, # of connection points: 2
#     Edge 24, Type (0, 1), BuildingBlock: XUDNAN_clean_linker_2, # of connection points: 2
#     Edge 25, Type (0, 1), BuildingBlock: XUDNAN_clean_linker_2, # of connection points: 2
#     Edge 26, Type (0, 1), BuildingBlock: XUDNAN_clean_linker_2, # of connection points: 2
#     Edge 27, Type (0, 1), BuildingBlock: XUDNAN_clean_linker_2, # of connection points: 2
#     Edge 28, Type (0, 1), BuildingBlock: XUDNAN_clean_linker_2, # of connection points: 2
#     Edge 29, Type (0, 1), BuildingBlock: XUDNAN_clean_linker_2, # of connection points: 2
#     Edge 30, Type (0, 1), BuildingBlock: XUDNAN_clean_linker_2, # of connection points: 2
#     Edge 31, Type (0, 1), BuildingBlock: XUDNAN_clean_linker_2, # of connection points: 2
#     Edge 32, Type (0, 1), BuildingBlock: XUDNAN_clean_linker_2, # of connection points: 2
#     Edge 33, Type (0, 1), BuildingBlock: XUDNAN_clean_linker_2, # of connection points: 2
#     Edge 34, Type (0, 1), BuildingBlock: XUDNAN_clean_linker_2, # of connection points: 2
#     Edge 35, Type (0, 1), BuildingBlock: XUDNAN_clean_linker_2, # of connection points: 2
# Relax obj value: 0.009
# Max RMSD: 0.036
# Mean RMSD: 0.017
data_MOF--net-ssa--node1-KOZSID_clean_sbu_0--node2-KOZSID_clean_sbu_0--edge1-XUDNAN_clean_linker_2
_symmetry_space_group_name_H-M    P1
_symmetry_Int_Tables_number       1
_symmetry_cell_setting            triclinic
loop_
_symmetry_equiv_pos_as_xyz
'x, y, z'
_cell_length_a     58.030744
_cell_length_b     59.451641
_cell_length_c     41.73037
_cell_angle_alpha  90.639667
_cell_angle_beta   92.880223
_cell_angle_gamma 122.35125
loop_
_atom_site_label
_atom_site_type_symbol
_atom_site_fract_x
_atom_site_fract_y
_atom_site_fract_z
_atom_type_partial_charge
C0 C 0.96228 0.51331 0.99862 0.0
C1 C 0.94118 0.51077 0.01586 0.0
C2 C 0.94607 0.50645 0.04687 0.0
C3 C 0.9695 0.50612 0.04683 0.0
N4 N 0.97967 0.50981 0.01773 0.0
Co5 Co 0.01175 0.50807 0.00676 0.0
N6 N 0.0112 0.49011 0.04717 0.0
C7 C 0.99778 0.48924 0.07306 0.0
C8 C 1.00298 0.47839 0.09899 0.0
C9 C 0.02121 0.47235 0.08925 0.0
C10 C 0.02599 0.47958 0.05748 0.0
N11 N 0.04399 0.50652 0.99571 0.0
C12 C 0.05495 0.49324 0.0092 0.0
C13 C 0.07685 0.49716 0.99249 0.0
C14 C 0.08072 0.51462 0.96915 0.0
C15 C 0.06072 0.52 0.97232 0.0
N16 N 0.01213 0.52609 0.96656 0.0
C17 C 0.0331 0.53834 0.94744 0.0
C18 C 0.02762 0.54901 0.92136 0.0
C19 C 1.00156 0.54317 0.92424 0.0
C20 C 0.99251 0.52909 0.95195 0.0
N21 N 0.03645 0.54287 0.02887 0.0
C22 C 0.0729 0.59288 0.05912 0.0
C23 C 0.0509 0.58876 0.03884 0.0
C24 C 0.03274 0.56351 0.02418 0.0
C25 C 0.07627 0.57156 0.06395 0.0
C26 C 0.05801 0.5469 0.04854 0.0
N27 N 0.987 0.47361 0.98418 0.0
C28 C 0.97174 0.44903 0.93342 0.0
C29 C 0.94569 0.432 0.94427 0.0
C30 C 0.9416 0.43445 0.97662 0.0
C31 C 0.96266 0.45536 0.99628 0.0
C32 C 0.99209 0.46956 0.95374 0.0
H33 H 0.9586 0.45779 0.02058 0.0
H34 H 0.01131 0.48321 0.94394 0.0
H35 H 0.0158 0.56077 0.0089 0.0
H36 H 0.06169 0.53125 0.05248 0.0
C37 C 0.97932 0.49743 0.07168 0.0
C38 C 0.96604 0.52072 0.96483 0.0
C39 C 0.04746 0.47956 0.03983 0.0
C40 C 0.05521 0.53515 0.9516 0.0
H41 H 0.92389 0.51174 0.00706 0.0
H42 H 0.93324 0.50257 0.06666 0.0
H43 H 0.99479 0.47554 0.12238 0.0
H44 H 0.03073 0.46471 0.10469 0.0
H45 H 0.08926 0.48884 0.99712 0.0
H46 H 0.09601 0.52211 0.9516 0.0
H47 H 0.04056 0.55889 0.90185 0.0
H48 H 0.99052 0.54867 0.90784 0.0
H49 H 0.04757 0.60479 0.03466 0.0
H50 H 0.09325 0.57403 0.07914 0.0
H51 H 0.97605 0.4473 0.90886 0.0
H52 H 0.92185 0.42145 0.98611 0.0
C53 C 0.55625 0.02234 0.54993 0.0
C54 C 0.55877 0.01324 0.5796 0.0
C55 C 0.53348 0.99203 0.5853 0.0
C56 C 0.51708 0.98917 0.55875 0.0
N57 N 0.53046 0.00705 0.53622 0.0
Co58 Co 0.51455 0.00929 0.49347 0.0
N59 N 0.47683 0.98014 0.50342 0.0
C60 C 0.46915 0.96823 0.53172 0.0
C61 C 0.44161 0.95004 0.53209 0.0
C62 C 0.43113 0.95002 0.50207 0.0
C63 C 0.45307 0.96792 0.48482 0.0
N64 N 0.49879 0.0106 0.45007 0.0
C65 C 0.47386 0.99324 0.43507 0.0
C66 C 0.47321 0.99867 0.40277 0.0
C67 C 0.49808 0.02047 0.39749 0.0
C68 C 0.51279 0.02678 0.42636 0.0
N69 N 0.55213 0.03935 0.48414 0.0
C70 C 0.55914 0.05348 0.45729 0.0
C71 C 0.58538 0.07508 0.45898 0.0
C72 C 0.59579 0.07512 0.48893 0.0
C73 C 0.57531 0.05307 0.50374 0.0
N74 N 0.5214 0.98246 0.4747 0.0
C75 C 0.52832 0.94291 0.44654 0.0
C76 C 0.53911 0.96785 0.4332 0.0
C77 C 0.53561 0.98722 0.44764 0.0
C78 C 0.51409 0.93829 0.4743 0.0
C79 C 0.51093 0.95806 0.48781 0.0
N80 N 0.50759 0.03606 0.51234 0.0
C81 C 0.50663 0.07627 0.50834 0.0
C82 C 0.49956 0.07501 0.54019 0.0
C83 C 0.49649 0.05375 0.55768 0.0
C84 C 0.50047 0.03472 0.54347 0.0
C85 C 0.5105 0.05682 0.49504 0.0
H86 H 0.49767 0.0191 0.55829 0.0
H87 H 0.51602 0.05909 0.47074 0.0
H88 H 0.54451 0.00588 0.43644 0.0
H89 H 0.49968 0.95301 0.50877 0.0
C90 C 0.48862 0.97232 0.55605 0.0
C91 C 0.57844 0.04654 0.53677 0.0
C92 C 0.45067 0.9711 0.45031 0.0
C93 C 0.54036 0.04653 0.43124 0.0
H94 H 0.57682 0.02163 0.59591 0.0
H95 H 0.52751 0.98078 0.60683 0.0
H96 H 0.4306 0.93754 0.55147 0.0
H97 H 0.40986 0.93752 0.49353 0.0
H98 H 0.45703 0.98772 0.38426 0.0
H99 H 0.50503 0.02984 0.37489 0.0
H100 H 0.59547 0.0896 0.44094 0.0
H101 H 0.61598 0.09028 0.49875 0.0
H102 H 0.55062 0.97263 0.41198 0.0
H103 H 0.50499 0.91927 0.48547 0.0
H104 H 0.50956 0.09242 0.4937 0.0
H105 H 0.49058 0.05145 0.58222 0.0
C106 C 0.56076 0.53987 0.96729 0.0
C107 C 0.57042 0.55506 0.94041 0.0
C108 C 0.5481 0.55154 0.92275 0.0
C109 C 0.52611 0.53461 0.9398 0.0
N110 N 0.53326 0.52768 0.96747 0.0
Co111 Co 0.50756 0.50297 0.99837 0.0
N112 N 0.47728 0.5057 0.97916 0.0
C113 C 0.47577 0.51435 0.95002 0.0
C114 C 0.45277 0.51541 0.94476 0.0
C115 C 0.4392 0.50707 0.9725 0.0
C116 C 0.45481 0.50146 0.99303 0.0
N117 N 0.48144 0.47797 0.02865 0.0
C118 C 0.45829 0.47563 0.03788 0.0
C119 C 0.44642 0.45671 0.06085 0.0
C120 C 0.46303 0.44698 0.06614 0.0
C121 C 0.48402 0.46054 0.0462 0.0
N122 N 0.53779 0.50029 0.01827 0.0
C123 C 0.53479 0.4812 0.03798 0.0
C124 C 0.55909 0.48366 0.0472 0.0
C125 C 0.57854 0.5053 0.03185 0.0
C126 C 0.56498 0.51489 0.01397 0.0
N127 N 0.5176 0.53317 0.02825 0.0
C128 C 0.52809 0.57479 0.07193 0.0
C129 C 0.52551 0.55121 0.08256 0.0
C130 C 0.52075 0.53103 0.06052 0.0
C131 C 0.52544 0.57691 0.0386 0.0
C132 C 0.52004 0.55593 0.01733 0.0
N133 N 0.49741 0.47265 0.96841 0.0
C134 C 0.51096 0.44922 0.93414 0.0
C135 C 0.48366 0.42963 0.92557 0.0
C136 C 0.46327 0.43197 0.93895 0.0
C137 C 0.47056 0.4534 0.96061 0.0
C138 C 0.51735 0.47057 0.95513 0.0
H139 H 0.45447 0.45445 0.97098 0.0
H140 H 0.53857 0.48544 0.96038 0.0
H141 H 0.51904 0.51338 0.06973 0.0
H142 H 0.51753 0.55805 0.99201 0.0
C143 C 0.499 0.52712 0.9323 0.0
C144 C 0.57782 0.53451 0.98913 0.0
C145 C 0.44766 0.49139 0.02514 0.0
C146 C 0.50923 0.46261 0.04921 0.0
H147 H 0.59135 0.5667 0.93369 0.0
H148 H 0.54799 0.56044 0.90031 0.0
H149 H 0.44742 0.52302 0.92418 0.0
H150 H 0.42034 0.50568 0.97733 0.0
H151 H 0.42817 0.45102 0.07305 0.0
H152 H 0.46107 0.43316 0.08409 0.0
H153 H 0.5623 0.47119 0.0631 0.0
H154 H 0.60008 0.51246 0.03261 0.0
H155 H 0.52665 0.54791 0.10787 0.0
H156 H 0.52764 0.59467 0.02877 0.0
H157 H 0.52738 0.44845 0.92405 0.0
H158 H 0.44186 0.41721 0.93297 0.0
C159 C 0.95347 0.44015 0.51599 0.0
C160 C 0.93079 0.41912 0.49903 0.0
C161 C 0.93307 0.42563 0.4674 0.0
C162 C 0.95688 0.45022 0.46684 0.0
N163 N 0.9698 0.45951 0.49608 0.0
Co164 Co 1.00374 0.49504 0.50676 0.0
N165 N 1.00026 0.50946 0.46513 0.0
C166 C 0.98321 0.49482 0.43961 0.0
C167 C 0.98519 0.50978 0.4139 0.0
C168 C 0.00527 0.53536 0.42335 0.0
C169 C 0.01471 0.53458 0.45431 0.0
N170 N 0.03754 0.53077 0.51803 0.0
C171 C 0.04896 0.55412 0.50251 0.0
C172 C 0.07352 0.57353 0.51838 0.0
C173 C 0.07801 0.56186 0.54399 0.0
C174 C 0.05606 0.53605 0.5425 0.0
N175 N 0.0072 0.48024 0.54791 0.0
C176 C 0.02975 0.49059 0.56793 0.0
C177 C 0.02549 0.47643 0.59519 0.0
C178 C 0.99848 0.45604 0.59219 0.0
C179 C 0.98782 0.45901 0.56324 0.0
N180 N 0.0256 0.48313 0.48654 0.0
C181 C 0.0542 0.4658 0.45211 0.0
C182 C 0.03273 0.44818 0.47078 0.0
C183 C 0.01892 0.45732 0.48809 0.0
C184 C 0.0618 0.49245 0.45266 0.0
C185 C 0.04721 0.5005 0.46953 0.0
N186 N 0.98157 0.50635 0.52691 0.0
C187 C 0.96864 0.51808 0.57529 0.0
C188 C 0.94301 0.5101 0.56043 0.0
C189 C 0.93825 0.50263 0.52763 0.0
C190 C 0.95769 0.50086 0.5114 0.0
C191 C 0.98771 0.51629 0.55801 0.0
H192 H 0.95256 0.49352 0.48679 0.0
H193 H 0.00673 0.52142 0.57045 0.0
H194 H 1.00249 0.44336 0.50218 0.0
H195 H 0.05348 0.52086 0.46821 0.0
C196 C 0.96433 0.46741 0.44143 0.0
C197 C 0.95938 0.44123 0.55077 0.0
C198 C 0.0405 0.55697 0.46963 0.0
C199 C 0.05188 0.51645 0.56397 0.0
H200 H 0.91412 0.40124 0.50849 0.0
H201 H 0.91821 0.41453 0.44755 0.0
H202 H 0.97358 0.50289 0.39093 0.0
H203 H 0.01319 0.55248 0.40852 0.0
H204 H 0.08758 0.5936 0.51124 0.0
H205 H 0.09554 0.57097 0.56119 0.0
H206 H 0.03974 0.48135 0.61576 0.0
H207 H 0.98771 0.44106 0.60952 0.0
H208 H 0.02616 0.42739 0.47146 0.0
H209 H 0.07894 0.50727 0.43994 0.0
H210 H 0.9734 0.52418 0.60053 0.0
H211 H 0.91915 0.49715 0.51477 0.0
C212 C 0.46382 0.99188 0.07068 0.0
C213 C 0.46371 0.00431 0.09894 0.0
C214 C 0.48644 0.02951 0.10013 0.0
C215 C 0.49902 0.03109 0.07254 0.0
N216 N 0.48539 0.0086 0.05345 0.0
Co217 Co 0.49717 1.00192 0.01184 0.0
N218 N 0.53296 0.03724 0.01618 0.0
C219 C 0.54193 0.05545 0.04097 0.0
C220 C 0.56707 0.07791 0.03733 0.0
C221 C 0.57453 0.07405 0.00829 0.0
C222 C 0.5533 0.04941 0.99565 0.0
N223 N 0.50872 0.99542 0.96986 0.0
C224 C 0.53093 0.01175 0.95319 0.0
C225 C 0.52957 1.00005 0.92357 0.0
C226 C 0.50585 0.97559 0.92144 0.0
C227 C 0.4939 0.97375 0.94958 0.0
N228 N 0.46156 0.96635 0.00795 0.0
C229 C 0.4526 0.94793 0.98342 0.0
C230 C 0.42864 0.92455 0.98853 0.0
C231 C 0.42216 0.92794 0.01845 0.0
C232 C 0.44256 0.95336 0.02987 0.0
N233 N 0.48046 0.01908 0.98809 0.0
C234 C 0.47179 0.04968 0.94429 0.0
C235 C 0.4611 0.02271 0.93734 0.0
C236 C 0.46512 0.00771 0.95978 0.0
C237 C 0.48364 0.06012 0.97508 0.0
C238 C 0.48754 0.04444 0.99662 0.0
N239 N 0.51412 0.98494 0.03523 0.0
C240 C 0.52096 0.94842 0.04041 0.0
C241 C 0.53385 0.95805 0.07107 0.0
C242 C 0.53754 0.98193 0.08294 0.0
C243 C 0.52781 0.99504 0.06467 0.0
C244 C 0.51132 0.96204 0.02308 0.0
H245 H 0.5311 0.01303 0.07515 0.0
H246 H 0.50132 0.95343 1.00011 0.0
H247 H 0.45694 0.9874 0.95293 0.0
H248 H 0.49773 0.0538 0.01926 0.0
C249 C 0.52528 0.05184 0.06602 0.0
C250 C 0.44404 0.96365 0.06244 0.0
C251 C 0.55319 0.03881 0.96373 0.0
C252 C 0.4683 0.95241 0.95712 0.0
H253 H 0.44923 0.99566 0.11735 0.0
H254 H 0.49369 0.04441 0.11959 0.0
H255 H 0.5783 0.09538 0.05345 0.0
H256 H 0.59325 0.08806 0.99739 0.0
H257 H 0.54388 0.00851 0.905 0.0
H258 H 0.49789 0.96117 0.90136 0.0
H259 H 0.4178 0.90674 0.97293 0.0
H260 H 0.40486 0.91301 0.0308 0.0
H261 H 0.45077 0.01355 0.91414 0.0
H262 H 0.49165 0.08081 0.98176 0.0
H263 H 0.51816 0.93035 0.02976 0.0
H264 H 0.54721 0.9902 0.10664 0.0
C265 C 0.52834 0.55876 0.50323 0.0
C266 C 0.52564 0.57621 0.52258 0.0
C267 C 0.51116 0.56201 0.54768 0.0
C268 C 0.50596 0.53687 0.54206 0.0
N269 N 0.51703 0.53441 0.5156 0.0
Co270 Co 0.51276 0.50125 0.4966 0.0
N271 N 0.48716 0.479 0.52973 0.0
C272 C 0.4796 0.48779 0.55471 0.0
C273 C 0.46326 0.46823 0.57474 0.0
C274 C 0.46048 0.44561 0.56213 0.0
C275 C 0.47519 0.45265 0.53476 0.0
N276 N 0.50783 0.46798 0.47679 0.0
C277 C 0.49326 0.44254 0.48625 0.0
C278 C 0.49515 0.42528 0.46547 0.0
C279 C 0.51197 0.44047 0.44241 0.0
C280 C 0.51923 0.466 0.45024 0.0
N281 N 0.539 0.52384 0.46405 0.0
C282 C 0.54946 0.51596 0.44146 0.0
C283 C 0.56512 0.53562 0.42103 0.0
C284 C 0.56395 0.55703 0.43062 0.0
C285 C 0.54765 0.54918 0.45652 0.0
N286 N 0.54425 0.50643 0.52532 0.0
C287 C 0.58924 0.51328 0.56479 0.0
C288 C 0.58415 0.50328 0.53303 0.0
C289 C 0.56204 0.50018 0.51405 0.0
C290 C 0.57088 0.51927 0.57671 0.0
C291 C 0.54873 0.51573 0.55676 0.0
N292 N 0.48153 0.49598 0.46775 0.0
C293 C 0.46112 0.48994 0.41381 0.0
C294 C 0.43753 0.48742 0.42498 0.0
C295 C 0.43695 0.49036 0.45834 0.0
C296 C 0.45912 0.4948 0.47915 0.0
C297 C 0.48221 0.49366 0.43519 0.0
H298 H 0.45772 0.49706 0.50436 0.0
H299 H 0.49895 0.49457 0.42458 0.0
H300 H 0.55986 0.49254 0.49028 0.0
H301 H 0.53558 0.5207 0.56734 0.0
C302 C 0.48871 0.51465 0.55922 0.0
C303 C 0.53829 0.56497 0.47127 0.0
C304 C 0.47853 0.43403 0.51546 0.0
C305 C 0.53895 0.48882 0.43537 0.0
H306 H 0.53211 0.59659 0.51792 0.0
H307 H 0.50395 0.56877 0.56667 0.0
H308 H 0.4549 0.4703 0.59639 0.0
H309 H 0.44941 0.42633 0.57257 0.0
H310 H 0.48589 0.40402 0.46734 0.0
H311 H 0.51888 0.43382 0.42295 0.0
H312 H 0.57427 0.53388 0.39993 0.0
H313 H 0.57281 0.57566 0.41868 0.0
H314 H 0.59711 0.49756 0.52263 0.0
H315 H 0.57379 0.52712 0.60113 0.0
H316 H 0.46355 0.48903 0.38837 0.0
H317 H 0.41936 0.48876 0.4685 0.0
C318 C 0.21045 0.49482 0.18723 0.0
C319 C 0.21069 0.5183 0.1854 0.0
C320 C 0.23332 0.53744 0.20324 0.0
C321 C 0.24529 0.52465 0.21573 0.0
N322 N 0.2319 0.49849 0.20673 0.0
Co323 Co 0.23912 0.47166 0.22572 0.0
N324 N 0.2702 0.49928 0.2554 0.0
C325 C 0.28076 0.52579 0.25575 0.0
C326 C 0.30383 0.54043 0.27581 0.0
C327 C 0.30862 0.52224 0.2888 0.0
C328 C 0.28787 0.49733 0.2762 0.0
N329 N 0.24487 0.44446 0.24605 0.0
C330 C 0.26291 0.44714 0.27017 0.0
C331 C 0.25809 0.42252 0.27867 0.0
C332 C 0.23709 0.40381 0.25841 0.0
C333 C 0.22991 0.41789 0.23914 0.0
N334 N 0.2092 0.44437 0.19495 0.0
C335 C 0.20205 0.41883 0.19039 0.0
C336 C 0.18283 0.40535 0.16547 0.0
C337 C 0.17705 0.42325 0.15371 0.0
C338 C 0.19265 0.44659 0.17271 0.0
N339 N 0.26622 0.47855 0.19348 0.0
C340 C 0.30862 0.48961 0.15312 0.0
C341 C 0.2918 0.46422 0.16476 0.0
C342 C 0.27083 0.45912 0.18437 0.0
C343 C 0.30301 0.50908 0.16108 0.0
C344 C 0.28197 0.50321 0.1811 0.0
N345 N 0.21233 0.46476 0.25797 0.0
C346 C 0.17157 0.43418 0.28477 0.0
C347 C 0.17415 0.45511 0.30347 0.0
C348 C 0.19616 0.48091 0.29914 0.0
C349 C 0.21502 0.48523 0.27667 0.0
C350 C 0.19059 0.43944 0.26205 0.0
H351 H 0.2316 0.5053 0.27478 0.0
H352 H 0.18723 0.42275 0.24791 0.0
H353 H 0.25903 0.43933 0.19233 0.0
H354 H 0.27916 0.51911 0.18652 0.0
C355 C 0.26816 0.53625 0.23748 0.0
C356 C 0.18951 0.46951 0.17027 0.0
C357 C 0.28628 0.4725 0.28384 0.0
C358 C 0.21135 0.4073 0.21224 0.0
H359 H 0.19583 0.52148 0.17337 0.0
H360 H 0.23968 0.55802 0.20764 0.0
H361 H 0.31593 0.56183 0.28019 0.0
H362 H 0.32577 0.52704 0.30527 0.0
H363 H 0.26926 0.41858 0.2969 0.0
H364 H 0.22867 0.38257 0.25718 0.0
H365 H 0.17343 0.3847 0.15751 0.0
H366 H 0.16233 0.41923 0.13399 0.0
H367 H 0.29519 0.44835 0.15966 0.0
H368 H 0.31486 0.52891 0.15208 0.0
H369 H 0.15464 0.4139 0.2872 0.0
H370 H 0.19903 0.49769 0.31336 0.0
C371 C 0.71284 0.20779 0.69496 0.0
C372 C 0.69272 0.20983 0.67828 0.0
C373 C 0.69054 0.22849 0.69474 0.0
C374 C 0.70971 0.23717 0.72005 0.0
N375 N 0.72419 0.22535 0.72065 0.0
Co376 Co 0.75583 0.23418 0.75153 0.0
N377 N 0.75231 0.26134 0.77575 0.0
C378 C 0.73212 0.26616 0.77147 0.0
C379 C 0.73514 0.28593 0.79189 0.0
C380 C 0.75884 0.29443 0.81006 0.0
C381 C 0.76899 0.27939 0.79945 0.0
N382 N 0.78847 0.24411 0.78136 0.0
C383 C 0.80249 0.26465 0.80344 0.0
C384 C 0.82569 0.26601 0.81666 0.0
C385 C 0.82642 0.2457 0.80234 0.0
C386 C 0.80392 0.23336 0.78108 0.0
N387 N 0.75858 0.20611 0.72823 0.0
C388 C 0.77602 0.19826 0.73624 0.0
C389 C 0.77114 0.1764 0.71869 0.0
C390 C 0.74911 0.16967 0.69831 0.0
C391 C 0.74206 0.18825 0.70416 0.0
N392 N 0.78109 0.26196 0.72229 0.0
C393 C 0.81932 0.30461 0.68573 0.0
C394 C 0.82285 0.28377 0.6939 0.0
C395 C 0.80364 0.26281 0.71203 0.0
C396 C 0.79562 0.30291 0.69515 0.0
C397 C 0.77703 0.28172 0.71311 0.0
N398 N 0.73046 0.2064 0.78109 0.0
C399 C 0.72143 0.17336 0.82058 0.0
C400 C 0.69419 0.16606 0.82197 0.0
C401 C 0.68571 0.17984 0.80275 0.0
C402 C 0.70395 0.19974 0.7829 0.0
C403 C 0.73888 0.19311 0.80015 0.0
H404 H 0.69591 0.20927 0.76907 0.0
H405 H 0.7591 0.19714 0.80025 0.0
H406 H 0.80766 0.24772 0.71805 0.0
H407 H 0.75967 0.28198 0.71979 0.0
C408 C 0.71341 0.25503 0.74482 0.0
C409 C 0.71939 0.18794 0.68651 0.0
C410 C 0.79531 0.28404 0.81129 0.0
C411 C 0.79685 0.21183 0.7603 0.0
H412 H 0.68046 0.19866 0.65678 0.0
H413 H 0.67635 0.23465 0.68921 0.0
H414 H 0.72243 0.29416 0.79235 0.0
H415 H 0.76814 0.31048 0.82828 0.0
H416 H 0.84094 0.28045 0.83429 0.0
H417 H 0.84186 0.24091 0.80638 0.0
H418 H 0.78204 0.16629 0.72082 0.0
H419 H 0.73924 0.15266 0.68147 0.0
H420 H 0.84076 0.28399 0.68725 0.0
H421 H 0.79136 0.31801 0.68884 0.0
H422 H 0.72957 0.16401 0.83535 0.0
H423 H 0.66488 0.17503 0.8024 0.0
C424 C 0.51726 0.71882 0.21277 0.0
C425 C 0.49206 0.69754 0.20046 0.0
C426 C 0.47269 0.69684 0.21846 0.0
C427 C 0.48694 0.71757 0.24077 0.0
N428 N 0.51415 0.7318 0.23768 0.0
Co429 Co 0.54181 0.76199 0.26741 0.0
N430 N 0.51322 0.76513 0.28786 0.0
C431 C 0.48621 0.74675 0.28565 0.0
C432 C 0.47135 0.75431 0.30208 0.0
C433 C 0.49019 0.77902 0.31565 0.0
C434 C 0.51557 0.78518 0.30663 0.0
N435 N 0.56926 0.79197 0.29726 0.0
C436 C 0.56688 0.80967 0.3154 0.0
C437 C 0.5915 0.8278 0.33218 0.0
C438 C 0.60976 0.82102 0.3246 0.0
C439 C 0.59542 0.7993 0.30356 0.0
N440 N 0.57055 0.75908 0.24696 0.0
C441 C 0.59691 0.77107 0.25807 0.0
C442 C 0.61239 0.76642 0.23859 0.0
C443 C 0.59459 0.74989 0.21402 0.0
C444 C 0.56902 0.74502 0.22014 0.0
N445 N 0.54544 0.78767 0.23601 0.0
C446 C 0.55111 0.82856 0.19767 0.0
C447 C 0.57407 0.82861 0.20993 0.0
C448 C 0.57081 0.80821 0.22915 0.0
C449 C 0.52515 0.80673 0.20369 0.0
C450 C 0.52278 0.78641 0.22258 0.0
N451 N 0.53826 0.73642 0.29914 0.0
C452 C 0.53591 0.69587 0.31166 0.0
C453 C 0.53242 0.69933 0.34373 0.0
C454 C 0.53205 0.72171 0.3534 0.0
C455 C 0.53531 0.74021 0.33074 0.0
C456 C 0.53858 0.71448 0.28977 0.0
H457 H 0.53529 0.75749 0.3388 0.0
H458 H 0.54072 0.71083 0.26527 0.0
H459 H 0.58896 0.80959 0.23919 0.0
H460 H 0.50259 0.77019 0.22724 0.0
C461 C 0.47535 0.72493 0.26392 0.0
C462 C 0.54353 0.7233 0.20344 0.0
C463 C 0.54148 0.80914 0.3186 0.0
C464 C 0.60696 0.78863 0.28499 0.0
H465 H 0.48797 0.68321 0.18135 0.0
H466 H 0.45082 0.68268 0.21583 0.0
H467 H 0.44937 0.74359 0.30313 0.0
H468 H 0.48577 0.79106 0.33063 0.0
H469 H 0.59589 0.84431 0.3481 0.0
H470 H 0.63126 0.83148 0.33233 0.0
H471 H 0.63406 0.7742 0.24177 0.0
H472 H 0.59956 0.74129 0.19461 0.0
H473 H 0.59457 0.84455 0.20525 0.0
H474 H 0.50671 0.8057 0.19496 0.0
H475 H 0.53611 0.67862 0.30344 0.0
H476 H 0.52936 0.72487 0.37819 0.0
C477 C 0.75203 0.55215 0.73467 0.0
C478 C 0.75579 0.57576 0.72353 0.0
C479 C 0.77601 0.59598 0.7433 0.0
C480 C 0.78339 0.5837 0.76544 0.0
N481 N 0.76932 0.55702 0.76072 0.0
Co482 Co 0.77284 0.53197 0.78872 0.0
N483 N 0.80853 0.561 0.80914 0.0
C484 C 0.81878 0.58731 0.80769 0.0
C485 C 0.84475 0.60277 0.8218 0.0
C486 C 0.85119 0.58515 0.83313 0.0
C487 C 0.82847 0.55971 0.82588 0.0
N488 N 0.77638 0.50704 0.81693 0.0
C489 C 0.79849 0.51028 0.83432 0.0
C490 C 0.79131 0.48783 0.85159 0.0
C491 C 0.76391 0.47003 0.84465 0.0
C492 C 0.75579 0.48253 0.82375 0.0
N493 N 0.73709 0.50282 0.76831 0.0
C494 C 0.7211 0.4785 0.77997 0.0
C495 C 0.69755 0.4624 0.76104 0.0
C496 C 0.69854 0.47763 0.7361 0.0
C497 C 0.72263 0.50238 0.74139 0.0
N498 N 0.79202 0.52592 0.75583 0.0
C499 C 0.81958 0.51699 0.70894 0.0
C500 C 0.79873 0.49574 0.72489 0.0
C501 C 0.78523 0.50061 0.74809 0.0
C502 C 0.82639 0.54287 0.71719 0.0
C503 C 0.81239 0.54689 0.74062 0.0
N504 N 0.75345 0.53794 0.82164 0.0
C505 C 0.71513 0.54047 0.8356 0.0
C506 C 0.72332 0.54337 0.8683 0.0
C507 C 0.74748 0.5443 0.87711 0.0
C508 C 0.76222 0.54152 0.85343 0.0
C509 C 0.73036 0.53782 0.81283 0.0
H510 H 0.78048 0.54188 0.8609 0.0
H511 H 0.72312 0.53534 0.78803 0.0
H512 H 0.76929 0.48383 0.75983 0.0
H513 H 0.81802 0.56699 0.74635 0.0
C514 C 0.80571 0.5966 0.78799 0.0
C515 C 0.72994 0.52558 0.72204 0.0
C516 C 0.82578 0.53501 0.83733 0.0
C517 C 0.73046 0.47053 0.80634 0.0
H518 H 0.7447 0.57814 0.70362 0.0
H519 H 0.78465 0.61714 0.74134 0.0
H520 H 0.85799 0.62428 0.82236 0.0
H521 H 0.87051 0.59058 0.84525 0.0
H522 H 0.80437 0.4847 0.86783 0.0
H523 H 0.7516 0.45006 0.8531 0.0
H524 H 0.68183 0.44183 0.7645 0.0
H525 H 0.68308 0.4713 0.71656 0.0
H526 H 0.79299 0.47542 0.71975 0.0
H527 H 0.84211 0.55991 0.70529 0.0
H528 H 0.69697 0.54025 0.82751 0.0
H529 H 0.7546 0.54647 0.90211 0.0
C530 C 0.26737 0.81434 0.32645 0.0
C531 C 0.26015 0.82963 0.34345 0.0
C532 C 0.2344 0.82209 0.33151 0.0
C533 C 0.22734 0.80255 0.30823 0.0
N534 N 0.247 0.79738 0.30495 0.0
Co535 Co 0.24481 0.7697 0.27615 0.0
N536 N 0.21566 0.76859 0.24796 0.0
C537 C 0.1999 0.77781 0.25614 0.0
C538 C 0.18081 0.77367 0.23218 0.0
C539 C 0.18449 0.76068 0.2076 0.0
C540 C 0.20573 0.75755 0.21797 0.0
N541 N 0.24242 0.74163 0.24754 0.0
C542 C 0.23041 0.73286 0.21756 0.0
C543 C 0.23374 0.71275 0.20624 0.0
C544 C 0.24758 0.70837 0.2304 0.0
C545 C 0.25214 0.72609 0.25498 0.0
N546 N 0.27408 0.77126 0.30468 0.0
C547 C 0.28053 0.75266 0.30606 0.0
C548 C 0.30396 0.76099 0.32502 0.0
C549 C 0.3127 0.78631 0.33617 0.0
C550 C 0.29371 0.79195 0.3239 0.0
N551 N 0.21674 0.74178 0.30211 0.0
C552 C 0.17815 0.6995 0.33796 0.0
C553 C 0.20063 0.7225 0.35335 0.0
C554 C 0.21975 0.74332 0.33501 0.0
C555 C 0.17497 0.69871 0.30437 0.0
C556 C 0.19423 0.71991 0.28705 0.0
N557 N 0.27292 0.79726 0.25002 0.0
C558 C 0.31468 0.81397 0.2233 0.0
C559 C 0.31441 0.8363 0.21349 0.0
C560 C 0.29245 0.83838 0.22195 0.0
C561 C 0.27202 0.81875 0.24039 0.0
C562 C 0.29393 0.79485 0.24127 0.0
H563 H 0.25562 0.82102 0.24706 0.0
H564 H 0.29509 0.7781 0.24826 0.0
H565 H 0.2373 0.76041 0.34742 0.0
H566 H 0.19109 0.71819 0.26129 0.0
C567 C 0.20544 0.79253 0.28508 0.0
C568 C 0.29357 0.81623 0.33118 0.0
C569 C 0.21283 0.74054 0.20088 0.0
C570 C 0.26897 0.73155 0.28298 0.0
H571 H 0.27239 0.84487 0.3621 0.0
H572 H 0.22287 0.83078 0.33794 0.0
H573 H 0.16609 0.77955 0.23242 0.0
H574 H 0.17221 0.75348 0.18509 0.0
H575 H 0.22636 0.70193 0.1832 0.0
H576 H 0.25415 0.69444 0.22975 0.0
H577 H 0.31476 0.75084 0.32815 0.0
H578 H 0.33147 0.79904 0.35053 0.0
H579 H 0.204 0.72396 0.37926 0.0
H580 H 0.15779 0.68155 0.29138 0.0
H581 H 0.33089 0.81116 0.21702 0.0
H582 H 0.2914 0.85533 0.21506 0.0
C583 C 0.4483 0.26351 0.77392 0.0
C584 C 0.42251 0.25601 0.78304 0.0
C585 C 0.40433 0.23219 0.76729 0.0
C586 C 0.41993 0.22639 0.74965 0.0
N587 N 0.44706 0.24474 0.75367 0.0
Co588 Co 0.47663 0.24425 0.73128 0.0
N589 N 0.44976 0.20936 0.70769 0.0
C590 C 0.42266 0.194 0.71167 0.0
C591 C 0.40951 0.17035 0.69395 0.0
C592 C 0.42945 0.17045 0.67785 0.0
C593 C 0.45369 0.19436 0.68651 0.0
N594 N 0.50602 0.24465 0.70729 0.0
C595 C 0.50461 0.22703 0.68497 0.0
C596 C 0.53004 0.23578 0.67362 0.0
C597 C 0.54817 0.25956 0.68952 0.0
C598 C 0.53285 0.26409 0.70941 0.0
N599 N 0.5037 0.27823 0.75648 0.0
C600 C 0.5312 0.29173 0.7556 0.0
C601 C 0.54467 0.31473 0.77454 0.0
C602 C 0.52462 0.31613 0.78828 0.0
C603 C 0.49985 0.29369 0.77708 0.0
N604 N 0.48091 0.22373 0.76577 0.0
C605 C 0.48479 0.18805 0.80589 0.0
C606 C 0.50773 0.20818 0.7917 0.0
C607 C 0.50547 0.22598 0.77231 0.0
C608 C 0.46041 0.18733 0.80178 0.0
C609 C 0.45892 0.20523 0.78175 0.0
N610 N 0.47221 0.26449 0.69661 0.0
C611 C 0.48978 0.30487 0.66751 0.0
C612 C 0.46516 0.29396 0.64869 0.0
C613 C 0.44434 0.26773 0.65412 0.0
C614 C 0.44808 0.2537 0.67827 0.0
C615 C 0.493 0.28979 0.69063 0.0
H616 H 0.43103 0.23415 0.68171 0.0
H617 H 0.51247 0.29923 0.70357 0.0
H618 H 0.52372 0.24087 0.76214 0.0
H619 H 0.43948 0.20303 0.77881 0.0
C620 C 0.40994 0.20317 0.73059 0.0
C621 C 0.4732 0.28879 0.78493 0.0
C622 C 0.47987 0.20175 0.67404 0.0
C623 C 0.54335 0.28481 0.73272 0.0
H624 H 0.41734 0.26666 0.79937 0.0
H625 H 0.38237 0.22042 0.7687 0.0
H626 H 0.38796 0.15497 0.69269 0.0
H627 H 0.42647 0.15467 0.66158 0.0
H628 H 0.53505 0.22584 0.65598 0.0
H629 H 0.57004 0.27175 0.68743 0.0
H630 H 0.5664 0.32954 0.77663 0.0
H631 H 0.52806 0.33251 0.80371 0.0
H632 H 0.52724 0.20985 0.79502 0.0
H633 H 0.44217 0.17217 0.81263 0.0
H634 H 0.50655 0.32517 0.66508 0.0
H635 H 0.42506 0.25782 0.63992 0.0
H636 H 0.10386 0.50991 0.05309 0.0
H637 H 0.0321 0.43171 0.06597 0.0
H638 H 0.06008 0.42104 0.10163 0.0
H639 H 0.14911 0.48332 0.04682 0.0
H640 H 0.17835 0.51334 0.06518 0.0
H641 H 0.15234 0.51495 0.0418 0.0
H642 H 0.14662 0.53867 0.09033 0.0
H643 H 0.17212 0.53656 0.11412 0.0
H644 H 0.13847 0.52279 0.12827 0.0
H645 H 0.09495 0.42265 0.14326 0.0
H646 H 0.1357 0.43038 0.17539 0.0
H647 H 0.18687 0.50124 0.12292 0.0
C648 C 0.09411 0.4902 0.06253 0.0
C649 C 0.06554 0.47173 0.05695 0.0
C650 C 0.05378 0.44631 0.07021 0.0
C651 C 0.06952 0.44011 0.09057 0.0
C652 C 0.09741 0.45901 0.09618 0.0
C653 C 0.10984 0.48304 0.08132 0.0
C654 C 0.14055 0.49895 0.08937 0.0
C655 C 0.156 0.50286 0.05898 0.0
C656 C 0.14998 0.52583 0.10654 0.0
C657 C 0.14332 0.48052 0.11196 0.0
C658 C 0.11805 0.458 0.11635 0.0
C659 C 0.11495 0.43971 0.13906 0.0
C660 C 0.13828 0.44426 0.1572 0.0
C661 C 0.16475 0.46628 0.15172 0.0
C662 C 0.16709 0.4844 0.12829 0.0
H663 H 0.58132 0.07174 0.59356 0.0
H664 H 0.63158 0.06318 0.52729 0.0
H665 H 0.67329 0.09891 0.55796 0.0
H666 H 0.62177 0.1408 0.60944 0.0
H667 H 0.61715 0.1398 0.6519 0.0
H668 H 0.59118 0.11359 0.62493 0.0
H669 H 0.59398 0.07823 0.65762 0.0
H670 H 0.61963 0.10428 0.68506 0.0
H671 H 0.62658 0.08164 0.66525 0.0
H672 H 0.70878 0.14001 0.5912 0.0
H673 H 0.73651 0.17659 0.63211 0.0
H674 H 0.66377 0.15239 0.68264 0.0
C675 C 0.60115 0.07716 0.58586 0.0
C676 C 0.60341 0.06541 0.55757 0.0
C677 C 0.62958 0.07257 0.54845 0.0
C678 C 0.65329 0.09276 0.5657 0.0
C679 C 0.65039 0.10471 0.5928 0.0
C680 C 0.62501 0.09652 0.60354 0.0
C681 C 0.62763 0.11172 0.63431 0.0
C682 C 0.6136 0.1274 0.62986 0.0
C683 C 0.61629 0.09284 0.66222 0.0
C684 C 0.65841 0.13025 0.63867 0.0
C685 C 0.67112 0.12628 0.61409 0.0
C686 C 0.69918 0.14274 0.61118 0.0
C687 C 0.71474 0.16342 0.63445 0.0
C688 C 0.70238 0.16682 0.66091 0.0
C689 C 0.67381 0.14999 0.6629 0.0
H690 H 0.51296 0.61214 0.06643 0.0
H691 H 0.55664 0.58844 0.13117 0.0
H692 H 0.5639 0.62255 0.17109 0.0
H693 H 0.55906 0.68334 0.08565 0.0
H694 H 0.53225 0.6901 0.08235 0.0
H695 H 0.52918 0.66288 0.05889 0.0
H696 H 0.48278 0.63034 0.08257 0.0
H697 H 0.48578 0.65742 0.10628 0.0
H698 H 0.48096 0.62835 0.12554 0.0
H699 H 0.5645 0.65746 0.20559 0.0
H700 H 0.56277 0.69435 0.23018 0.0
H701 H 0.52442 0.70037 0.14155 0.0
C702 C 0.52438 0.6142 0.08876 0.0
C703 C 0.53364 0.5968 0.09548 0.0
C704 C 0.54832 0.60051 0.12541 0.0
C705 C 0.55286 0.62015 0.14832 0.0
C706 C 0.54318 0.63656 0.14102 0.0
C707 C 0.52966 0.63418 0.11179 0.0
C708 C 0.52226 0.65517 0.10981 0.0
C709 C 0.53654 0.67399 0.08256 0.0
C710 C 0.49109 0.64203 0.10581 0.0
C711 C 0.53366 0.66956 0.14255 0.0
C712 C 0.54527 0.65816 0.16025 0.0
C713 C 0.55591 0.66686 0.19176 0.0
C714 C 0.55489 0.68791 0.2055 0.0
C715 C 0.54392 0.70062 0.18767 0.0
C716 C 0.53317 0.69124 0.15568 0.0
H717 H 0.94628 0.5432 0.61017 0.0
H718 H 0.88893 0.47035 0.55411 0.0
H719 H 0.85144 0.46502 0.58497 0.0
H720 H 0.91596 0.51946 0.68567 0.0
H721 H 0.92208 0.55116 0.69946 0.0
H722 H 0.94454 0.54995 0.67221 0.0
H723 H 0.93569 0.57811 0.63249 0.0
H724 H 0.91315 0.57936 0.65958 0.0
H725 H 0.90107 0.56684 0.6187 0.0
H726 H 0.82004 0.46718 0.62168 0.0
H727 H 0.79681 0.47628 0.66296 0.0
H728 H 0.87441 0.54656 0.6973 0.0
C729 C 0.92586 0.52611 0.6044 0.0
C730 C 0.92059 0.50746 0.57924 0.0
C731 C 0.89348 0.48536 0.57258 0.0
C732 C 0.87201 0.482 0.59017 0.0
C733 C 0.87788 0.50079 0.61459 0.0
C734 C 0.9041 0.52236 0.62187 0.0
C735 C 0.90479 0.53931 0.64981 0.0
C736 C 0.92292 0.54 0.67849 0.0
C737 C 0.91423 0.56758 0.63952 0.0
C738 C 0.87486 0.52386 0.65701 0.0
C739 C 0.85974 0.50175 0.63633 0.0
C740 C 0.83168 0.48436 0.63815 0.0
C741 C 0.8187 0.48962 0.66185 0.0
C742 C 0.83374 0.51204 0.6836 0.0
C743 C 0.86223 0.5294 0.68092 0.0
H744 H 0.38821 0.93576 0.07011 0.0
H745 H 0.4648 0.95044 0.11327 0.0
H746 H 0.44024 0.92094 0.15722 0.0
H747 H 0.35737 0.93353 0.14448 0.0
H748 H 0.32348 0.907 0.13025 0.0
H749 H 0.34696 0.92945 0.10229 0.0
H750 H 0.341 0.88945 0.06899 0.0
H751 H 0.31738 0.86687 0.09674 0.0
H752 H 0.3471 0.86602 0.08847 0.0
H753 H 0.40756 0.88967 0.1961 0.0
H754 H 0.36896 0.85778 0.22697 0.0
H755 H 0.31249 0.86228 0.1592 0.0
C756 C 0.39968 0.93259 0.08881 0.0
C757 C 0.42841 0.94522 0.08829 0.0
C758 C 0.44282 0.94088 0.11326 0.0
C759 C 0.42903 0.92419 0.13829 0.0
C760 C 0.40072 0.91197 0.13816 0.0
C761 C 0.38614 0.91587 0.11407 0.0
C762 C 0.35574 0.89998 0.11961 0.0
C763 C 0.34527 0.91861 0.12445 0.0
C764 C 0.33934 0.87935 0.0918 0.0
C765 C 0.35552 0.8865 0.15051 0.0
C766 C 0.38176 0.89381 0.16072 0.0
C767 C 0.38694 0.88379 0.18827 0.0
C768 C 0.3648 0.86556 0.20562 0.0
C769 C 0.33757 0.8573 0.19555 0.0
C770 C 0.33302 0.86831 0.16775 0.0
H771 H 0.512 0.41797 0.53803 0.0
H772 H 0.42669 0.39158 0.52205 0.0
H773 H 0.41339 0.35063 0.55118 0.0
H774 H 0.50101 0.34996 0.53007 0.0
H775 H 0.52776 0.35822 0.56064 0.0
H776 H 0.52998 0.38374 0.5356 0.0
H777 H 0.53537 0.41193 0.58652 0.0
H778 H 0.53273 0.38639 0.61169 0.0
H779 H 0.50962 0.39765 0.61539 0.0
H780 H 0.4104 0.31694 0.58927 0.0
H781 H 0.41692 0.28986 0.62816 0.0
H782 H 0.5041 0.3354 0.61412 0.0
C783 C 0.49052 0.40312 0.53996 0.0
C784 C 0.47027 0.40771 0.52815 0.0
C785 C 0.44235 0.38819 0.53114 0.0
C786 C 0.43469 0.365 0.54761 0.0
C787 C 0.45522 0.36146 0.56011 0.0
C788 C 0.48253 0.37968 0.55581 0.0
C789 C 0.50061 0.37166 0.57267 0.0
C790 C 0.51573 0.36552 0.54829 0.0
C791 C 0.52076 0.39319 0.59807 0.0
C792 C 0.4793 0.34664 0.58814 0.0
C793 C 0.45328 0.34113 0.58064 0.0
C794 C 0.43058 0.32052 0.59451 0.0
C795 C 0.43455 0.30506 0.61653 0.0
C796 C 0.46103 0.30995 0.62425 0.0
C797 C 0.48355 0.33094 0.6093 0.0
H798 H 0.52555 0.92835 0.38223 0.0
H799 H 0.53998 0.90989 0.47869 0.0
H800 H 0.54478 0.87417 0.45639 0.0
H801 H 0.48616 0.86069 0.34992 0.0
H802 H 0.50032 0.86858 0.31116 0.0
H803 H 0.49831 0.89312 0.33443 0.0
H804 H 0.55036 0.92648 0.33132 0.0
H805 H 0.55249 0.90206 0.30796 0.0
H806 H 0.5738 0.91684 0.34454 0.0
H807 H 0.54732 0.83986 0.42414 0.0
H808 H 0.54822 0.80968 0.38357 0.0
H809 H 0.53286 0.84994 0.30752 0.0
C810 C 0.52999 0.91697 0.39865 0.0
C811 C 0.5322 0.92196 0.43236 0.0
C812 C 0.53772 0.9063 0.45289 0.0
C813 C 0.54065 0.88601 0.44042 0.0
C814 C 0.53806 0.88144 0.40724 0.0
C815 C 0.53292 0.89647 0.38656 0.0
C816 C 0.53081 0.88711 0.35183 0.0
C817 C 0.5022 0.87676 0.3359 0.0
C818 C 0.5532 0.90946 0.33279 0.0
C819 C 0.53563 0.86455 0.35628 0.0
C820 C 0.53974 0.86166 0.3885 0.0
C821 C 0.54431 0.84206 0.39884 0.0
C822 C 0.54483 0.82505 0.37571 0.0
C823 C 0.541 0.82778 0.34256 0.0
C824 C 0.53613 0.84767 0.33275 0.0
H825 H 0.58352 0.50953 0.93824 0.0
H826 H 0.63037 0.57042 0.0136 0.0
H827 H 0.67346 0.57848 0.99257 0.0
H828 H 0.62681 0.48291 0.93672 0.0
H829 H 0.62209 0.47711 0.89372 0.0
H830 H 0.59555 0.47587 0.91575 0.0
H831 H 0.59619 0.51143 0.8798 0.0
H832 H 0.62272 0.51282 0.85765 0.0
H833 H 0.62789 0.54284 0.87623 0.0
H834 H 0.71141 0.58021 0.96139 0.0
H835 H 0.74041 0.57637 0.92287 0.0
H836 H 0.66752 0.51389 0.86878 0.0
C837 C 0.60289 0.52446 0.95038 0.0
C838 C 0.60388 0.53946 0.97741 0.0
C839 C 0.62943 0.55885 0.99278 0.0
C840 C 0.65387 0.56347 0.98102 0.0
C841 C 0.6522 0.54841 0.95401 0.0
C842 C 0.62727 0.52929 0.93897 0.0
C843 C 0.63074 0.51622 0.90992 0.0
C844 C 0.61805 0.48625 0.91431 0.0
C845 C 0.61868 0.52114 0.87908 0.0
C846 C 0.66157 0.53109 0.91063 0.0
C847 C 0.67369 0.54948 0.93628 0.0
C848 C 0.70208 0.56578 0.94133 0.0
C849 C 0.71839 0.56337 0.91943 0.0
C850 C 0.70628 0.54493 0.89269 0.0
C851 C 0.67747 0.52844 0.88868 0.0
H852 H 0.06919 0.61265 0.4689 0.0
H853 H 0.06047 0.54326 0.42052 0.0
H854 H 0.09514 0.57214 0.38369 0.0
H855 H 0.07845 0.64999 0.39796 0.0
H856 H 0.10378 0.6819 0.4169 0.0
H857 H 0.07855 0.65598 0.44044 0.0
H858 H 0.11699 0.65965 0.47879 0.0
H859 H 0.14236 0.6856 0.45537 0.0
H860 H 0.14323 0.65622 0.46258 0.0
H861 H 0.12936 0.60762 0.35077 0.0
H862 H 0.16207 0.64821 0.32382 0.0
H863 H 0.15096 0.69631 0.39271 0.0
C864 C 0.0748 0.60366 0.45068 0.0
C865 C 0.06213 0.57558 0.44786 0.0
C866 C 0.0699 0.5646 0.42347 0.0
C867 C 0.08961 0.58089 0.40231 0.0
C868 C 0.1017 0.60835 0.40566 0.0
C869 C 0.09476 0.6198 0.42922 0.0
C870 C 0.111 0.65003 0.42704 0.0
C871 C 0.09179 0.66006 0.42017 0.0
C872 C 0.12949 0.66368 0.45778 0.0
C873 C 0.12784 0.65361 0.39843 0.0
C874 C 0.12199 0.62917 0.38659 0.0
C875 C 0.13417 0.62689 0.35987 0.0
C876 C 0.15267 0.65009 0.34462 0.0
C877 C 0.1591 0.6755 0.35598 0.0
C878 C 0.14667 0.67723 0.38358 0.0
H879 H 0.45804 0.0874 0.94586 0.0
H880 H 0.49058 0.05246 0.88534 0.0
H881 H 0.4978 0.08436 0.8437 0.0
H882 H 0.42214 0.09951 0.88067 0.0
H883 H 0.42953 0.1305 0.89894 0.0
H884 H 0.42644 0.10455 0.92378 0.0
H885 H 0.47466 0.13762 0.95083 0.0
H886 H 0.47801 0.16361 0.92588 0.0
H887 H 0.50339 0.15493 0.92624 0.0
H888 H 0.50396 0.12137 0.81014 0.0
H889 H 0.50466 0.15884 0.78415 0.0
H890 H 0.4665 0.16898 0.86514 0.0
C891 C 0.46643 0.08639 0.92369 0.0
C892 C 0.47357 0.06739 0.91862 0.0
C893 C 0.48456 0.0666 0.8894 0.0
C894 C 0.48893 0.08474 0.86574 0.0
C895 C 0.48194 0.10338 0.87156 0.0
C896 C 0.47057 0.10414 0.89957 0.0
C897 C 0.46468 0.12609 0.89954 0.0
C898 C 0.43386 0.11446 0.9008 0.0
C899 C 0.48117 0.14678 0.92727 0.0
C900 C 0.47475 0.13767 0.86729 0.0
C901 C 0.48484 0.12439 0.85171 0.0
C902 C 0.49597 0.13183 0.82198 0.0
C903 C 0.49647 0.15322 0.80754 0.0
C904 C 0.48569 0.16674 0.82271 0.0
C905 C 0.47473 0.15885 0.85299 0.0
H906 H 0.39945 0.50273 0.4276 0.0
H907 H 0.42114 0.4567 0.36891 0.0
H908 H 0.38659 0.44977 0.32711 0.0
H909 H 0.32552 0.4589 0.40612 0.0
H910 H 0.31983 0.48588 0.4064 0.0
H911 H 0.34698 0.48814 0.43206 0.0
H912 H 0.38171 0.53266 0.40722 0.0
H913 H 0.35472 0.53036 0.38121 0.0
H914 H 0.38435 0.53376 0.36433 0.0
H915 H 0.35261 0.45059 0.2893 0.0
H916 H 0.31569 0.45313 0.26111 0.0
H917 H 0.31011 0.49263 0.34566 0.0
C918 C 0.39678 0.49093 0.40618 0.0
C919 C 0.41406 0.48115 0.40147 0.0
C920 C 0.40936 0.4656 0.37292 0.0
C921 C 0.38947 0.46125 0.34893 0.0
C922 C 0.37357 0.47186 0.35385 0.0
C923 C 0.37639 0.4858 0.38201 0.0
C924 C 0.35558 0.494 0.38129 0.0
C925 C 0.3358 0.48095 0.40806 0.0
C926 C 0.36996 0.52451 0.38366 0.0
C927 C 0.34103 0.48275 0.34822 0.0
C928 C 0.35214 0.47043 0.33273 0.0
C929 C 0.34338 0.45974 0.30139 0.0
C930 C 0.3224 0.46128 0.28555 0.0
C931 C 0.30984 0.47286 0.30116 0.0
C932 C 0.31935 0.48372 0.33303 0.0
H933 H 0.90527 0.37932 0.95135 0.0
H934 H 0.93391 0.4433 0.88495 0.0
H935 H 0.8967 0.41306 0.84515 0.0
H936 H 0.88745 0.32768 0.89313 0.0
H937 H 0.85734 0.3027 0.91175 0.0
H938 H 0.88532 0.32972 0.93591 0.0
H939 H 0.85241 0.34226 0.9578 0.0
H940 H 0.82432 0.31525 0.93365 0.0
H941 H 0.83206 0.34876 0.92999 0.0
H942 H 0.85838 0.37558 0.81129 0.0
H943 H 0.82115 0.33265 0.78555 0.0
H944 H 0.81606 0.29316 0.87395 0.0
C945 C 0.90347 0.38698 0.92856 0.0
C946 C 0.92264 0.41357 0.9211 0.0
C947 C 0.91976 0.42285 0.89093 0.0
C948 C 0.89856 0.40591 0.86827 0.0
C949 C 0.88025 0.37974 0.87614 0.0
C950 C 0.88239 0.37027 0.90555 0.0
C951 C 0.86055 0.34096 0.90735 0.0
C952 C 0.87344 0.32429 0.91232 0.0
C953 C 0.84119 0.33656 0.93377 0.0
C954 C 0.84615 0.3354 0.87422 0.0
C955 C 0.85778 0.3581 0.85667 0.0
C956 C 0.8489 0.35772 0.82488 0.0
C957 C 0.82781 0.33337 0.81048 0.0
C958 C 0.81599 0.30988 0.82789 0.0
C959 C 0.82487 0.311 0.8603 0.0
H960 H 0.93361 0.49842 0.90815 0.0
H961 H 0.95717 0.55949 0.9829 0.0
H962 H 0.92359 0.56894 0.95894 0.0
H963 H 0.92538 0.53613 0.84382 0.0
H964 H 0.89691 0.50685 0.82316 0.0
H965 H 0.92258 0.50451 0.84629 0.0
H966 H 0.885 0.46754 0.87907 0.0
H967 H 0.85923 0.46991 0.85626 0.0
H968 H 0.86228 0.47397 0.89944 0.0
H969 H 0.88422 0.56834 0.93081 0.0
H970 H 0.84712 0.56393 0.89427 0.0
H971 H 0.85232 0.50782 0.83268 0.0
C972 C 0.93172 0.51387 0.91924 0.0
C973 C 0.94736 0.52769 0.94798 0.0
C974 C 0.94484 0.5482 0.96142 0.0
C975 C 0.92585 0.55371 0.94796 0.0
C976 C 0.91004 0.53916 0.92034 0.0
C977 C 0.91321 0.52014 0.90555 0.0
C978 C 0.89425 0.50827 0.87521 0.0
C979 C 0.91077 0.51431 0.84535 0.0
C980 C 0.87399 0.47813 0.87766 0.0
C981 C 0.87969 0.5233 0.87565 0.0
C982 C 0.88892 0.54068 0.90225 0.0
C983 C 0.87743 0.55544 0.90935 0.0
C984 C 0.85646 0.55292 0.88836 0.0
C985 C 0.84769 0.53653 0.85984 0.0
C986 C 0.85921 0.52115 0.85377 0.0
H987 H 0.42503 0.91654 0.44791 0.0
H988 H 0.41774 0.98028 0.41016 0.0
H989 H 0.37958 0.94786 0.37239 0.0
H990 H 0.40508 0.87352 0.37949 0.0
H991 H 0.38334 0.84317 0.39951 0.0
H992 H 0.41182 0.87141 0.42164 0.0
H993 H 0.37955 0.87104 0.46269 0.0
H994 H 0.35111 0.84231 0.44122 0.0
H995 H 0.35008 0.8717 0.44843 0.0
H996 H 0.34672 0.909 0.33398 0.0
H997 H 0.31104 0.86517 0.30918 0.0
H998 H 0.32986 0.82621 0.38404 0.0
C999 C 0.41525 0.92364 0.43187 0.0
C1000 C 0.42532 0.95114 0.43063 0.0
C1001 C 0.4113 0.95949 0.41021 0.0
C1002 C 0.38958 0.94124 0.38881 0.0
C1003 C 0.38096 0.91445 0.38969 0.0
C1004 C 0.39236 0.90549 0.4119 0.0
C1005 C 0.3768 0.87532 0.4108 0.0
C1006 C 0.39538 0.86527 0.40236 0.0
C1007 C 0.36359 0.86445 0.44267 0.0
C1008 C 0.35549 0.86879 0.38369 0.0
C1009 C 0.35893 0.8917 0.37112 0.0
C1010 C 0.34334 0.89089 0.34416 0.0
C1011 C 0.3232 0.86592 0.33023 0.0
C1012 C 0.31795 0.84206 0.34403 0.0
C1013 C 0.33419 0.84369 0.37147 0.0
H1014 H 0.50203 0.39543 0.92671 0.0
H1015 H 0.4503 0.4145 0.87054 0.0
H1016 H 0.44178 0.38052 0.82871 0.0
H1017 H 0.53255 0.38387 0.86183 0.0
H1018 H 0.53227 0.3561 0.87913 0.0
H1019 H 0.53406 0.38159 0.90485 0.0
H1020 H 0.49096 0.3459 0.9321 0.0
H1021 H 0.48918 0.32026 0.90665 0.0
H1022 H 0.4601 0.32355 0.9077 0.0
H1023 H 0.44202 0.3469 0.79094 0.0
H1024 H 0.44684 0.31283 0.76293 0.0
H1025 H 0.49459 0.31226 0.84579 0.0
C1026 C 0.48876 0.39228 0.90568 0.0
C1027 C 0.47683 0.40764 0.90182 0.0
C1028 C 0.45946 0.40284 0.87408 0.0
C1029 C 0.45464 0.38369 0.85013 0.0
C1030 C 0.46695 0.3691 0.85449 0.0
C1031 C 0.48326 0.37282 0.88185 0.0
C1032 C 0.49357 0.35412 0.88093 0.0
C1033 C 0.52498 0.36987 0.88173 0.0
C1034 C 0.4828 0.33481 0.90848 0.0
C1035 C 0.48088 0.33958 0.84857 0.0
C1036 C 0.46586 0.34875 0.83354 0.0
C1037 C 0.45341 0.33933 0.80273 0.0
C1038 C 0.45624 0.31999 0.78698 0.0
C1039 C 0.47105 0.30987 0.80214 0.0
C1040 C 0.48328 0.31971 0.83351 0.0
H1041 H 0.07472 0.48409 0.39354 0.0
H1042 H 0.06694 0.42783 0.46437 0.0
H1043 H 0.09401 0.4163 0.43187 0.0
H1044 H 0.07391 0.44813 0.32246 0.0
H1045 H 0.09941 0.47805 0.30437 0.0
H1046 H 0.07675 0.47931 0.33125 0.0
H1047 H 0.11846 0.51608 0.36658 0.0
H1048 H 0.14125 0.51492 0.33989 0.0
H1049 H 0.14409 0.50997 0.38209 0.0
H1050 H 0.12427 0.41277 0.39224 0.0
H1051 H 0.15623 0.41904 0.35087 0.0
H1052 H 0.14673 0.48038 0.30952 0.0
C1053 C 0.07869 0.46939 0.40251 0.0
C1054 C 0.06871 0.45702 0.43179 0.0
C1055 C 0.07399 0.43741 0.44191 0.0
C1056 C 0.08949 0.43083 0.42366 0.0
C1057 C 0.09964 0.44407 0.39543 0.0
C1058 C 0.09446 0.463 0.38503 0.0
C1059 C 0.1091 0.4758 0.35517 0.0
C1060 C 0.08856 0.46996 0.32663 0.0
C1061 C 0.12943 0.50597 0.36132 0.0
C1062 C 0.12374 0.46141 0.35051 0.0
C1063 C 0.11773 0.44285 0.37361 0.0
C1064 C 0.12904 0.42722 0.37406 0.0
C1065 C 0.14709 0.43085 0.35049 0.0
C1066 C 0.15397 0.45026 0.32722 0.0
C1067 C 0.14197 0.46556 0.32723 0.0
H1068 H 0.56789 0.08611 0.93541 0.0
H1069 H 0.59081 0.02799 0.945 0.0
H1070 H 0.62861 0.05367 0.90947 0.0
H1071 H 0.58262 0.09988 0.85233 0.0
H1072 H 0.59634 0.13507 0.8575 0.0
H1073 H 0.57091 0.11203 0.88334 0.0
H1074 H 0.60329 0.13817 0.93332 0.0
H1075 H 0.62879 0.16136 0.90765 0.0
H1076 H 0.63721 0.14404 0.93644 0.0
H1077 H 0.66311 0.085 0.87177 0.0
H1078 H 0.69344 0.12063 0.83691 0.0
H1079 H 0.65041 0.16065 0.85393 0.0
C1080 C 0.58096 0.07891 0.92999 0.0
C1081 C 0.57634 0.05493 0.94269 0.0
C1082 C 0.5939 0.04616 0.93527 0.0
C1083 C 0.6154 0.06063 0.91514 0.0
C1084 C 0.61933 0.08408 0.90279 0.0
C1085 C 0.60276 0.09331 0.9101 0.0
C1086 C 0.61183 0.11941 0.8941 0.0
C1087 C 0.58907 0.11641 0.87041 0.0
C1088 C 0.62082 0.14209 0.91938 0.0
C1089 C 0.63601 0.12334 0.87655 0.0
C1090 C 0.63983 0.10262 0.88182 0.0
C1091 C 0.6605 0.10149 0.86782 0.0
C1092 C 0.67787 0.1221 0.84817 0.0
C1093 C 0.67491 0.14401 0.84272 0.0
C1094 C 0.65341 0.14433 0.85718 0.0
H1095 H 0.57473 0.61245 0.44472 0.0
H1096 H 0.48838 0.55669 0.45561 0.0
H1097 H 0.47761 0.58655 0.42705 0.0
H1098 H 0.5755 0.67269 0.4535 0.0
H1099 H 0.59912 0.68958 0.4229 0.0
H1100 H 0.60022 0.66427 0.44497 0.0
H1101 H 0.59423 0.63821 0.39176 0.0
H1102 H 0.59355 0.66365 0.36952 0.0
H1103 H 0.56575 0.62936 0.3636 0.0
H1104 H 0.47641 0.62286 0.39842 0.0
H1105 H 0.48444 0.66094 0.36618 0.0
H1106 H 0.5711 0.6914 0.37055 0.0
C1107 C 0.55356 0.60636 0.44049 0.0
C1108 C 0.53231 0.58225 0.45196 0.0
C1109 C 0.50487 0.57515 0.44683 0.0
C1110 C 0.49859 0.59197 0.43077 0.0
C1111 C 0.52002 0.6157 0.41981 0.0
C1112 C 0.5469 0.62271 0.42398 0.0
C1113 C 0.56595 0.6488 0.4087 0.0
C1114 C 0.5864 0.67009 0.43404 0.0
C1115 C 0.58073 0.64476 0.3818 0.0
C1116 C 0.54559 0.65538 0.39535 0.0
C1117 C 0.51924 0.63621 0.40242 0.0
C1118 C 0.49693 0.63798 0.3927 0.0
C1119 C 0.50164 0.65965 0.37464 0.0
C1120 C 0.52833 0.67894 0.36638 0.0
C1121 C 0.55057 0.67691 0.37701 0.0
H1122 H 0.51349 0.09714 0.60238 0.0
H1123 H 0.47475 0.09883 0.51147 0.0
H1124 H 0.46638 0.13175 0.53543 0.0
H1125 H 0.46746 0.10165 0.65291 0.0
H1126 H 0.49368 0.12262 0.6836 0.0
H1127 H 0.49727 0.09964 0.65916 0.0
H1128 H 0.54408 0.1385 0.6425 0.0
H1129 H 0.54062 0.1616 0.66688 0.0
H1130 H 0.54629 0.16708 0.62484 0.0
H1131 H 0.46119 0.16394 0.56962 0.0
H1132 H 0.46022 0.1933 0.6115 0.0
H1133 H 0.50184 0.17072 0.68035 0.0
C1134 C 0.50311 0.10429 0.58749 0.0
C1135 C 0.49489 0.0953 0.55484 0.0
C1136 C 0.48168 0.10558 0.53629 0.0
C1137 C 0.47666 0.12421 0.54978 0.0
C1138 C 0.48496 0.13254 0.58195 0.0
C1139 C 0.49796 0.12296 0.60058 0.0
C1140 C 0.5047 0.13512 0.63461 0.0
C1141 C 0.48989 0.11347 0.65901 0.0
C1142 C 0.53577 0.15155 0.64267 0.0
C1143 C 0.49334 0.15292 0.63225 0.0
C1144 C 0.48204 0.15114 0.60163 0.0
C1145 C 0.47004 0.16552 0.59363 0.0
C1146 C 0.46955 0.18211 0.61748 0.0
C1147 C 0.48097 0.18423 0.64896 0.0
C1148 C 0.49306 0.16947 0.65638 0.0
H1149 H 0.39352 0.45724 0.03569 0.0
H1150 H 0.46248 0.53773 0.05681 0.0
H1151 H 0.4341 0.54693 0.0904 0.0
H1152 H 0.34104 0.47341 0.03126 0.0
H1153 H 0.31629 0.44335 0.04979 0.0
H1154 H 0.34184 0.44365 0.02666 0.0
H1155 H 0.35746 0.42728 0.07544 0.0
H1156 H 0.33202 0.42698 0.09874 0.0
H1157 H 0.36745 0.44593 0.11336 0.0
H1158 H 0.39865 0.54628 0.12388 0.0
H1159 H 0.35902 0.53651 0.15389 0.0
H1160 H 0.31235 0.45673 0.10901 0.0
C1161 C 0.40246 0.4768 0.04732 0.0
C1162 C 0.43007 0.49683 0.04398 0.0
C1163 C 0.44129 0.52224 0.05927 0.0
C1164 C 0.42535 0.52758 0.07833 0.0
C1165 C 0.39818 0.5073 0.08155 0.0
C1166 C 0.38678 0.48246 0.06631 0.0
C1167 C 0.35725 0.46403 0.07412 0.0
C1168 C 0.33797 0.45562 0.04364 0.0
C1169 C 0.35333 0.43962 0.09145 0.0
C1170 C 0.35388 0.48224 0.0964 0.0
C1171 C 0.3777 0.50711 0.10035 0.0
C1172 C 0.37978 0.52698 0.12064 0.0
C1173 C 0.357 0.52126 0.13743 0.0
C1174 C 0.33227 0.49587 0.13384 0.0
C1175 C 0.33086 0.47627 0.11271 0.0
H1176 H 0.93196 0.38652 0.55674 0.0
H1177 H 0.93875 0.45787 0.59553 0.0
H1178 H 0.90415 0.43094 0.63418 0.0
H1179 H 0.8586 0.34221 0.56315 0.0
H1180 H 0.86067 0.31411 0.57429 0.0
H1181 H 0.88573 0.33896 0.54957 0.0
H1182 H 0.92443 0.34617 0.59042 0.0
H1183 H 0.89949 0.32145 0.61536 0.0
H1184 H 0.92392 0.35458 0.63191 0.0
H1185 H 0.86926 0.39637 0.669 0.0
H1186 H 0.83609 0.35687 0.69723 0.0
H1187 H 0.85074 0.30692 0.63585 0.0
C1188 C 0.92587 0.39633 0.5732 0.0
C1189 C 0.93771 0.42424 0.57297 0.0
C1190 C 0.92973 0.43652 0.59524 0.0
C1191 C 0.91013 0.42136 0.61726 0.0
C1192 C 0.89875 0.39388 0.6169 0.0
C1193 C 0.90626 0.38142 0.59544 0.0
C1194 C 0.89093 0.35158 0.60034 0.0
C1195 C 0.87291 0.33578 0.57003 0.0
C1196 C 0.91088 0.34294 0.61009 0.0
C1197 C 0.87364 0.34919 0.6279 0.0
C1198 C 0.87854 0.37388 0.63701 0.0
C1199 C 0.86515 0.37692 0.66188 0.0
C1200 C 0.84613 0.35423 0.67768 0.0
C1201 C 0.84034 0.3285 0.66871 0.0
C1202 C 0.85463 0.32617 0.64353 0.0
H1203 H 0.50741 0.90369 0.07531 0.0
H1204 H 0.57987 0.97803 0.11204 0.0
H1205 H 0.59268 0.95289 0.14736 0.0
H1206 H 0.49163 0.87055 0.14788 0.0
H1207 H 0.48088 0.83837 0.13 0.0
H1208 H 0.47777 0.86206 0.10678 0.0
H1209 H 0.50649 0.85907 0.06327 0.0
H1210 H 0.50952 0.83519 0.08625 0.0
H1211 H 0.5398 0.86516 0.07469 0.0
H1212 H 0.59604 0.91996 0.18095 0.0
H1213 H 0.59094 0.88154 0.20896 0.0
H1214 H 0.51821 0.82834 0.14721 0.0
C1215 C 0.52628 0.91474 0.09026 0.0
C1216 C 0.54257 0.94291 0.0909 0.0
C1217 C 0.56679 0.9565 0.11144 0.0
C1218 C 0.57435 0.94239 0.13143 0.0
C1219 C 0.55765 0.91469 0.1304 0.0
C1220 C 0.53427 0.90098 0.11014 0.0
C1221 C 0.51968 0.87119 0.114 0.0
C1222 C 0.49078 0.85989 0.12535 0.0
C1223 C 0.51883 0.85681 0.08269 0.0
C1224 C 0.53832 0.87032 0.13997 0.0
C1225 C 0.56008 0.89562 0.14909 0.0
C1226 C 0.57936 0.90001 0.17362 0.0
C1227 C 0.57637 0.87794 0.18923 0.0
C1228 C 0.55437 0.85168 0.18012 0.0
C1229 C 0.5352 0.84802 0.15498 0.0
H1230 H 0.59432 0.50544 0.6299 0.0
H1231 H 0.64033 0.53142 0.54455 0.0
H1232 H 0.68008 0.53581 0.57486 0.0
H1233 H 0.65178 0.55079 0.68613 0.0
H1234 H 0.6412 0.52711 0.71733 0.0
H1235 H 0.61605 0.52582 0.68891 0.0
H1236 H 0.59815 0.47643 0.67418 0.0
H1237 H 0.62345 0.47768 0.7023 0.0
H1238 H 0.62155 0.46769 0.66082 0.0
H1239 H 0.71489 0.53646 0.61376 0.0
H1240 H 0.74316 0.53604 0.66 0.0
H1241 H 0.67624 0.51191 0.72116 0.0
C1242 C 0.61282 0.51233 0.61765 0.0
C1243 C 0.6138 0.51764 0.58449 0.0
C1244 C 0.63858 0.52651 0.56958 0.0
C1245 C 0.66144 0.52925 0.58668 0.0
C1246 C 0.6596 0.52333 0.61898 0.0
C1247 C 0.63606 0.51534 0.63449 0.0
C1248 C 0.63979 0.51058 0.66958 0.0
C1249 C 0.63705 0.52972 0.6918 0.0
C1250 C 0.61952 0.48136 0.67715 0.0
C1251 C 0.66898 0.51706 0.67123 0.0
C1252 C 0.67995 0.52421 0.64167 0.0
C1253 C 0.70652 0.5309 0.63702 0.0
C1254 C 0.72239 0.53051 0.66331 0.0
C1255 C 0.71175 0.52353 0.69389 0.0
C1256 C 0.68469 0.51681 0.69785 0.0
H1257 H 0.0904 0.60301 0.12235 0.0
H1258 H 0.10015 0.64167 0.03214 0.0
H1259 H 0.13686 0.68464 0.05856 0.0
H1260 H 0.10264 0.65888 0.17418 0.0
H1261 H 0.12046 0.65211 0.20538 0.0
H1262 H 0.09402 0.62524 0.17951 0.0
H1263 H 0.12817 0.61203 0.16431 0.0
H1264 H 0.15479 0.63905 0.1898 0.0
H1265 H 0.15988 0.63653 0.14799 0.0
H1266 H 0.17525 0.72265 0.09468 0.0
H1267 H 0.2093 0.75275 0.13827 0.0
H1268 H 0.17263 0.68862 0.2041 0.0
C1269 C 0.10009 0.6206 0.10825 0.0
C1270 C 0.0926 0.61915 0.07527 0.0
C1271 C 0.10554 0.64253 0.05755 0.0
C1272 C 0.12645 0.66692 0.07231 0.0
C1273 C 0.13383 0.66752 0.1048 0.0
C1274 C 0.12071 0.64499 0.1226 0.0
C1275 C 0.13258 0.65058 0.15693 0.0
C1276 C 0.11115 0.64647 0.18038 0.0
C1277 C 0.14456 0.63353 0.16522 0.0
C1278 C 0.15479 0.67966 0.15562 0.0
C1279 C 0.15535 0.68919 0.12541 0.0
C1280 C 0.17486 0.71542 0.11846 0.0
C1281 C 0.19413 0.73229 0.14314 0.0
C1282 C 0.19359 0.72272 0.17411 0.0
C1283 C 0.17356 0.6962 0.18039 0.0
loop_
_geom_bond_atom_site_label_1
_geom_bond_atom_site_label_2
_geom_bond_distance
_geom_bond_site_symmetry_2
_ccdc_geom_bond_type
C0 C1 1.443 . S
C0 N4 1.376 1_556 S
C0 C38 1.389 . S
C1 C0 1.443 . S
C1 C2 1.340 1_556 S
C1 H41 0.951 . S
C2 C1 1.340 1_554 S
C2 C3 1.439 . S
C2 H42 0.950 . S
C3 C2 1.439 . S
C3 N4 1.374 . S
C3 C37 1.395 . S
N4 C0 1.376 1_554 S
N4 C3 1.374 . S
N4 Co5 1.961 1_655 S
Co5 N4 1.961 1_455 S
Co5 N6 2.019 1_455 S
Co5 N11 2.055 1_554 S
Co5 N16 1.972 1_554 S
Co5 N21 2.297 . S
Co5 N27 2.269 1_454 S
N6 Co5 2.019 1_655 S
N6 C7 1.376 . S
N6 C10 1.383 1_655 S
C7 N6 1.376 . S
C7 C8 1.446 . S
C7 C37 1.391 . S
C8 C7 1.446 . S
C8 C9 1.339 1_655 S
C8 H43 0.949 . S
C9 C8 1.339 1_455 S
C9 C10 1.439 . S
C9 H44 0.950 . S
C10 N6 1.383 1_455 S
C10 C9 1.439 . S
C10 C39 1.392 . S
N11 Co5 2.055 1_556 S
N11 C12 1.376 1_556 S
N11 C15 1.374 . S
C12 N11 1.376 1_554 S
C12 C13 1.443 . S
C12 C39 1.389 . S
C13 C12 1.443 . S
C13 C14 1.340 1_554 S
C13 H45 0.951 . S
C14 C13 1.340 1_556 S
C14 C15 1.439 . S
C14 H46 0.950 . S
C15 N11 1.374 . S
C15 C14 1.439 . S
C15 C40 1.395 . S
N16 Co5 1.972 1_556 S
N16 C17 1.376 . S
N16 C20 1.383 1_455 S
C17 N16 1.376 . S
C17 C18 1.446 . S
C17 C40 1.391 . S
C18 C17 1.446 . S
C18 C19 1.339 1_455 S
C18 H47 0.949 . S
C19 C18 1.339 1_655 S
C19 C20 1.439 . S
C19 H48 0.950 . S
C20 N16 1.383 1_655 S
C20 C19 1.439 . S
C20 C38 1.392 . S
N21 Co5 2.297 . S
N21 C24 1.332 . S
N21 C26 1.332 . S
C22 C23 1.386 . S
C22 C25 1.388 . S
C23 C22 1.386 . S
C23 C24 1.382 . S
C23 H49 0.950 . S
C24 N21 1.332 . S
C24 C23 1.382 . S
C24 H35 0.954 1_554 S
C25 C22 1.388 . S
C25 C26 1.382 . S
C25 H50 0.950 . S
C26 N21 1.332 . S
C26 C25 1.382 . S
C26 H36 0.948 . S
N27 Co5 2.269 1_656 S
N27 C31 1.332 . S
N27 C32 1.332 . S
C28 C29 1.388 . S
C28 C32 1.382 . S
C28 H51 0.950 . S
C29 C28 1.388 . S
C29 C30 1.386 . S
C30 C29 1.386 . S
C30 C31 1.382 . S
C30 H52 0.950 . S
C31 N27 1.332 . S
C31 C30 1.382 . S
C31 H33 0.952 1_556 S
C32 N27 1.332 . S
C32 C28 1.382 . S
C32 H34 0.948 . S
H33 C31 0.952 1_554 S
H34 C32 0.948 . S
H35 C24 0.954 1_556 S
H36 C26 0.948 . S
C37 C3 1.395 . S
C37 C7 1.391 . S
C38 C0 1.389 . S
C38 C20 1.392 . S
C39 C10 1.392 . S
C39 C12 1.389 . S
C40 C15 1.395 . S
C40 C17 1.391 . S
H41 C1 0.951 . S
H42 C2 0.950 . S
H43 C8 0.949 . S
H44 C9 0.950 . S
H45 C13 0.951 . S
H46 C14 0.950 . S
H47 C18 0.949 . S
H48 C19 0.950 . S
H49 C23 0.950 . S
H50 C25 0.950 . S
H51 C28 0.950 . S
H52 C30 0.950 . S
C53 C54 1.443 . S
C53 N57 1.376 1_545 S
C53 C91 1.389 . S
C54 C53 1.443 . S
C54 C55 1.340 1_545 S
C54 H94 0.951 . S
C55 C54 1.340 1_565 S
C55 C56 1.439 . S
C55 H95 0.950 . S
C56 C55 1.439 . S
C56 N57 1.374 . S
C56 C90 1.395 . S
N57 C53 1.376 1_565 S
N57 C56 1.374 . S
N57 Co58 2.003 1_565 S
Co58 N57 2.003 1_545 S
Co58 N59 1.986 1_545 S
Co58 N64 2.013 . S
Co58 N69 2.004 . S
Co58 N74 2.267 1_545 S
Co58 N80 2.298 . S
N59 Co58 1.986 1_565 S
N59 C60 1.376 . S
N59 C63 1.383 . S
C60 N59 1.376 . S
C60 C61 1.446 . S
C60 C90 1.391 . S
C61 C60 1.446 . S
C61 C62 1.339 . S
C61 H96 0.949 . S
C62 C61 1.339 . S
C62 C63 1.439 . S
C62 H97 0.950 . S
C63 N59 1.383 . S
C63 C62 1.439 . S
C63 C92 1.392 . S
N64 Co58 2.013 . S
N64 C65 1.376 1_545 S
N64 C68 1.374 . S
C65 N64 1.376 1_565 S
C65 C66 1.443 . S
C65 C92 1.389 . S
C66 C65 1.443 . S
C66 C67 1.340 1_565 S
C66 H98 0.951 . S
C67 C66 1.340 1_545 S
C67 C68 1.439 . S
C67 H99 0.950 . S
C68 N64 1.374 . S
C68 C67 1.439 . S
C68 C93 1.395 . S
N69 Co58 2.004 . S
N69 C70 1.376 . S
N69 C73 1.383 . S
C70 N69 1.376 . S
C70 C71 1.446 . S
C70 C93 1.391 . S
C71 C70 1.446 . S
C71 C72 1.339 . S
C71 H100 0.949 . S
C72 C71 1.339 . S
C72 C73 1.439 . S
C72 H101 0.950 . S
C73 N69 1.383 . S
C73 C72 1.439 . S
C73 C91 1.392 . S
N74 Co58 2.267 1_565 S
N74 C77 1.332 . S
N74 C79 1.332 . S
C75 C76 1.386 . S
C75 C78 1.388 . S
C76 C75 1.386 . S
C76 C77 1.382 . S
C76 H102 0.950 . S
C77 N74 1.332 . S
C77 C76 1.382 . S
C77 H88 0.952 1_565 S
C78 C75 1.388 . S
C78 C79 1.382 . S
C78 H103 0.950 . S
C79 N74 1.332 . S
C79 C78 1.382 . S
C79 H89 0.948 . S
N80 Co58 2.298 . S
N80 C84 1.332 . S
N80 C85 1.332 . S
C81 C82 1.388 . S
C81 C85 1.382 . S
C81 H104 0.950 . S
C82 C81 1.388 . S
C82 C83 1.386 . S
C83 C82 1.386 . S
C83 C84 1.382 . S
C83 H105 0.950 . S
C84 N80 1.332 . S
C84 C83 1.382 . S
C84 H86 0.952 1_545 S
C85 N80 1.332 . S
C85 C81 1.382 . S
C85 H87 0.948 . S
H86 C84 0.952 1_565 S
H87 C85 0.948 . S
H88 C77 0.952 1_545 S
H89 C79 0.948 . S
C90 C56 1.395 . S
C90 C60 1.391 . S
C91 C53 1.389 . S
C91 C73 1.392 . S
C92 C63 1.392 . S
C92 C65 1.389 . S
C93 C68 1.395 . S
C93 C70 1.391 . S
H94 C54 0.951 . S
H95 C55 0.950 . S
H96 C61 0.949 . S
H97 C62 0.950 . S
H98 C66 0.951 . S
H99 C67 0.950 . S
H100 C71 0.949 . S
H101 C72 0.950 . S
H102 C76 0.950 . S
H103 C78 0.950 . S
H104 C81 0.950 . S
H105 C83 0.950 . S
C106 C107 1.443 . S
C106 N110 1.376 . S
C106 C144 1.389 . S
C107 C106 1.443 . S
C107 C108 1.340 . S
C107 H147 0.951 . S
C108 C107 1.340 . S
C108 C109 1.439 . S
C108 H148 0.950 . S
C109 C108 1.439 . S
C109 N110 1.374 . S
C109 C143 1.395 . S
N110 C106 1.376 . S
N110 C109 1.374 . S
N110 Co111 1.991 1_556 S
Co111 N110 1.991 1_554 S
Co111 N112 1.992 1_554 S
Co111 N117 2.025 . S
Co111 N122 1.998 . S
Co111 N127 2.292 . S
Co111 N133 2.273 1_554 S
N112 Co111 1.992 1_556 S
N112 C113 1.376 . S
N112 C116 1.383 1_556 S
C113 N112 1.376 . S
C113 C114 1.446 . S
C113 C143 1.391 . S
C114 C113 1.446 . S
C114 C115 1.339 . S
C114 H149 0.949 . S
C115 C114 1.339 . S
C115 C116 1.439 1_556 S
C115 H150 0.950 1_556 S
C116 N112 1.383 1_554 S
C116 C115 1.439 1_554 S
C116 C145 1.392 . S
N117 Co111 2.025 . S
N117 C118 1.376 . S
N117 C121 1.374 . S
C118 N117 1.376 . S
C118 C119 1.443 . S
C118 C145 1.389 . S
C119 C118 1.443 . S
C119 C120 1.340 . S
C119 H151 0.951 . S
C120 C119 1.340 . S
C120 C121 1.439 . S
C120 H152 0.950 . S
C121 N117 1.374 . S
C121 C120 1.439 . S
C121 C146 1.395 . S
N122 Co111 1.998 . S
N122 C123 1.376 . S
N122 C126 1.383 1_554 S
C123 N122 1.376 . S
C123 C124 1.446 . S
C123 C146 1.391 . S
C124 C123 1.446 . S
C124 C125 1.339 . S
C124 H153 0.949 . S
C125 C124 1.339 . S
C125 C126 1.439 1_554 S
C125 H154 0.950 1_554 S
C126 N122 1.383 1_556 S
C126 C125 1.439 1_556 S
C126 C144 1.392 . S
N127 Co111 2.292 . S
N127 C130 1.332 . S
N127 C132 1.332 . S
C128 C129 1.386 . S
C128 C131 1.388 . S
C129 C128 1.386 . S
C129 C130 1.382 . S
C129 H155 0.950 . S
C130 N127 1.332 . S
C130 C129 1.382 . S
C130 H141 0.952 . S
C131 C128 1.388 . S
C131 C132 1.382 . S
C131 H156 0.950 . S
C132 N127 1.332 . S
C132 C131 1.382 . S
C132 H142 0.948 . S
N133 Co111 2.273 1_556 S
N133 C137 1.332 . S
N133 C138 1.332 . S
C134 C135 1.388 . S
C134 C138 1.382 . S
C134 H157 0.950 . S
C135 C134 1.388 . S
C135 C136 1.386 . S
C136 C135 1.386 . S
C136 C137 1.382 . S
C136 H158 0.950 . S
C137 N133 1.332 . S
C137 C136 1.382 . S
C137 H139 0.952 . S
C138 N133 1.332 . S
C138 C134 1.382 . S
C138 H140 0.948 . S
H139 C137 0.952 . S
H140 C138 0.948 . S
H141 C130 0.952 . S
H142 C132 0.948 . S
C143 C109 1.395 . S
C143 C113 1.391 . S
C144 C106 1.389 . S
C144 C126 1.392 . S
C145 C116 1.392 . S
C145 C118 1.389 . S
C146 C121 1.395 . S
C146 C123 1.391 . S
H147 C107 0.951 . S
H148 C108 0.950 . S
H149 C114 0.949 . S
H150 C115 0.950 1_554 S
H151 C119 0.951 . S
H152 C120 0.950 . S
H153 C124 0.949 . S
H154 C125 0.950 1_556 S
H155 C129 0.950 . S
H156 C131 0.950 . S
H157 C134 0.950 . S
H158 C136 0.950 . S
C159 C160 1.443 . S
C159 N163 1.376 . S
C159 C197 1.389 . S
C160 C159 1.443 . S
C160 C161 1.340 . S
C160 H200 0.951 . S
C161 C160 1.340 . S
C161 C162 1.439 . S
C161 H201 0.950 . S
C162 C161 1.439 . S
C162 N163 1.374 . S
C162 C196 1.395 . S
N163 C159 1.376 . S
N163 C162 1.374 . S
N163 Co164 1.978 1_655 S
Co164 N163 1.978 1_455 S
Co164 N165 1.975 1_455 S
Co164 N170 2.039 . S
Co164 N175 2.015 . S
Co164 N180 2.322 . S
Co164 N186 2.244 1_455 S
N165 Co164 1.975 1_655 S
N165 C166 1.376 . S
N165 C169 1.383 1_655 S
C166 N165 1.376 . S
C166 C167 1.446 . S
C166 C196 1.391 . S
C167 C166 1.446 . S
C167 C168 1.339 1_655 S
C167 H202 0.949 . S
C168 C167 1.339 1_455 S
C168 C169 1.439 . S
C168 H203 0.950 . S
C169 N165 1.383 1_455 S
C169 C168 1.439 . S
C169 C198 1.392 . S
N170 Co164 2.039 . S
N170 C171 1.376 . S
N170 C174 1.374 . S
C171 N170 1.376 . S
C171 C172 1.443 . S
C171 C198 1.389 . S
C172 C171 1.443 . S
C172 C173 1.340 . S
C172 H204 0.951 . S
C173 C172 1.340 . S
C173 C174 1.439 . S
C173 H205 0.950 . S
C174 N170 1.374 . S
C174 C173 1.439 . S
C174 C199 1.395 . S
N175 Co164 2.015 . S
N175 C176 1.376 . S
N175 C179 1.383 1_455 S
C176 N175 1.376 . S
C176 C177 1.446 . S
C176 C199 1.391 . S
C177 C176 1.446 . S
C177 C178 1.336 1_455 S
C177 H206 0.949 . S
C178 C177 1.336 1_655 S
C178 C179 1.440 . S
C178 H207 0.950 . S
C179 N175 1.383 1_655 S
C179 C178 1.440 . S
C179 C197 1.392 . S
N180 Co164 2.322 . S
N180 C183 1.332 . S
N180 C185 1.332 . S
C181 C182 1.386 . S
C181 C184 1.388 . S
C182 C181 1.386 . S
C182 C183 1.382 . S
C182 H208 0.950 . S
C183 N180 1.332 . S
C183 C182 1.382 . S
C183 H194 0.952 . S
C184 C181 1.388 . S
C184 C185 1.382 . S
C184 H209 0.950 . S
C185 N180 1.332 . S
C185 C184 1.382 . S
C185 H195 0.946 . S
N186 Co164 2.244 1_655 S
N186 C190 1.332 . S
N186 C191 1.332 . S
C187 C188 1.388 . S
C187 C191 1.382 . S
C187 H210 0.950 . S
C188 C187 1.388 . S
C188 C189 1.386 . S
C189 C188 1.386 . S
C189 C190 1.382 . S
C189 H211 0.950 . S
C190 N186 1.332 . S
C190 C189 1.382 . S
C190 H192 0.952 . S
C191 N186 1.332 . S
C191 C187 1.382 . S
C191 H193 0.948 1_655 S
H192 C190 0.952 . S
H193 C191 0.948 1_455 S
H194 C183 0.952 . S
H195 C185 0.946 . S
C196 C162 1.395 . S
C196 C166 1.391 . S
C197 C159 1.389 . S
C197 C179 1.392 . S
C198 C169 1.392 . S
C198 C171 1.389 . S
C199 C174 1.395 . S
C199 C176 1.391 . S
H200 C160 0.951 . S
H201 C161 0.950 . S
H202 C167 0.949 . S
H203 C168 0.950 . S
H204 C172 0.951 . S
H205 C173 0.950 . S
H206 C177 0.949 . S
H207 C178 0.950 . S
H208 C182 0.950 . S
H209 C184 0.950 . S
H210 C187 0.950 . S
H211 C189 0.950 . S
C212 C213 1.443 . S
C212 N216 1.376 1_565 S
C212 C250 1.389 . S
C213 C212 1.443 . S
C213 C214 1.340 1_565 S
C213 H253 0.951 . S
C214 C213 1.340 1_545 S
C214 C215 1.439 . S
C214 H254 0.950 . S
C215 C214 1.439 . S
C215 N216 1.374 . S
C215 C249 1.395 . S
N216 C212 1.376 1_545 S
N216 C215 1.374 . S
N216 Co217 2.031 . S
Co217 N216 2.031 . S
Co217 N218 2.005 . S
Co217 N223 1.985 1_544 S
Co217 N228 1.985 1_544 S
Co217 N233 2.289 1_554 S
Co217 N239 2.276 1_545 S
N218 Co217 2.005 . S
N218 C219 1.376 . S
N218 C222 1.383 1_554 S
C219 N218 1.376 . S
C219 C220 1.446 . S
C219 C249 1.391 . S
C220 C219 1.446 . S
C220 C221 1.339 1_554 S
C220 H255 0.949 . S
C221 C220 1.339 1_556 S
C221 C222 1.439 . S
C221 H256 0.950 . S
C222 N218 1.383 1_556 S
C222 C221 1.439 . S
C222 C251 1.392 . S
N223 Co217 1.985 1_566 S
N223 C224 1.376 1_565 S
N223 C227 1.374 . S
C224 N223 1.376 1_545 S
C224 C225 1.443 . S
C224 C251 1.389 . S
C225 C224 1.443 . S
C225 C226 1.340 1_545 S
C225 H257 0.951 . S
C226 C225 1.340 1_565 S
C226 C227 1.439 . S
C226 H258 0.950 . S
C227 N223 1.374 . S
C227 C226 1.439 . S
C227 C252 1.395 . S
N228 Co217 1.985 1_566 S
N228 C229 1.376 . S
N228 C232 1.383 1_556 S
C229 N228 1.376 . S
C229 C230 1.446 . S
C229 C252 1.391 . S
C230 C229 1.446 . S
C230 C231 1.339 1_556 S
C230 H259 0.949 . S
C231 C230 1.339 1_554 S
C231 C232 1.439 . S
C231 H260 0.950 . S
C232 N228 1.383 1_554 S
C232 C231 1.439 . S
C232 C250 1.392 . S
N233 Co217 2.289 1_556 S
N233 C236 1.332 . S
N233 C238 1.332 . S
C234 C235 1.386 . S
C234 C237 1.388 . S
C235 C234 1.386 . S
C235 C236 1.382 . S
C235 H261 0.950 . S
C236 N233 1.332 . S
C236 C235 1.382 . S
C236 H247 0.952 1_545 S
C237 C234 1.388 . S
C237 C238 1.382 . S
C237 H262 0.950 . S
C238 N233 1.332 . S
C238 C237 1.382 . S
C238 H248 0.948 . S
N239 Co217 2.276 1_565 S
N239 C243 1.332 . S
N239 C244 1.332 . S
C240 C241 1.388 . S
C240 C244 1.382 . S
C240 H263 0.950 . S
C241 C240 1.388 . S
C241 C242 1.386 . S
C242 C241 1.386 . S
C242 C243 1.382 . S
C242 H264 0.950 . S
C243 N239 1.332 . S
C243 C242 1.382 . S
C243 H245 0.952 1_565 S
C244 N239 1.332 . S
C244 C240 1.382 . S
C244 H246 0.948 . S
H245 C243 0.952 1_545 S
H246 C244 0.948 . S
H247 C236 0.952 1_565 S
H248 C238 0.948 . S
C249 C215 1.395 . S
C249 C219 1.391 . S
C250 C212 1.389 . S
C250 C232 1.392 . S
C251 C222 1.392 . S
C251 C224 1.389 . S
C252 C227 1.395 . S
C252 C229 1.391 . S
H253 C213 0.951 . S
H254 C214 0.950 . S
H255 C220 0.949 . S
H256 C221 0.950 . S
H257 C225 0.951 . S
H258 C226 0.950 . S
H259 C230 0.949 . S
H260 C231 0.950 . S
H261 C235 0.950 . S
H262 C237 0.950 . S
H263 C240 0.950 . S
H264 C242 0.950 . S
C265 C266 1.443 . S
C265 N269 1.376 . S
C265 C303 1.389 . S
C266 C265 1.443 . S
C266 C267 1.340 . S
C266 H306 0.951 . S
C267 C266 1.340 . S
C267 C268 1.439 . S
C267 H307 0.950 . S
C268 C267 1.439 . S
C268 N269 1.374 . S
C268 C302 1.395 . S
N269 C265 1.376 . S
N269 C268 1.374 . S
N269 Co270 2.008 . S
Co270 N269 2.008 . S
Co270 N271 1.995 . S
Co270 N276 2.008 . S
Co270 N281 1.995 . S
Co270 N286 2.282 . S
Co270 N292 2.282 . S
N271 Co270 1.995 . S
N271 C272 1.376 . S
N271 C275 1.383 . S
C272 N271 1.376 . S
C272 C273 1.446 . S
C272 C302 1.391 . S
C273 C272 1.446 . S
C273 C274 1.339 . S
C273 H308 0.949 . S
C274 C273 1.339 . S
C274 C275 1.439 . S
C274 H309 0.950 . S
C275 N271 1.383 . S
C275 C274 1.439 . S
C275 C304 1.392 . S
N276 Co270 2.008 . S
N276 C277 1.376 . S
N276 C280 1.374 . S
C277 N276 1.376 . S
C277 C278 1.443 . S
C277 C304 1.389 . S
C278 C277 1.443 . S
C278 C279 1.340 . S
C278 H310 0.951 . S
C279 C278 1.340 . S
C279 C280 1.439 . S
C279 H311 0.950 . S
C280 N276 1.374 . S
C280 C279 1.439 . S
C280 C305 1.395 . S
N281 Co270 1.995 . S
N281 C282 1.376 . S
N281 C285 1.383 . S
C282 N281 1.376 . S
C282 C283 1.446 . S
C282 C305 1.391 . S
C283 C282 1.446 . S
C283 C284 1.339 . S
C283 H312 0.949 . S
C284 C283 1.339 . S
C284 C285 1.439 . S
C284 H313 0.950 . S
C285 N281 1.383 . S
C285 C284 1.439 . S
C285 C303 1.392 . S
N286 Co270 2.282 . S
N286 C289 1.332 . S
N286 C291 1.332 . S
C287 C288 1.386 . S
C287 C290 1.388 . S
C288 C287 1.386 . S
C288 C289 1.382 . S
C288 H314 0.950 . S
C289 N286 1.332 . S
C289 C288 1.382 . S
C289 H300 0.952 . S
C290 C287 1.388 . S
C290 C291 1.382 . S
C290 H315 0.950 . S
C291 N286 1.332 . S
C291 C290 1.382 . S
C291 H301 0.948 . S
N292 Co270 2.282 . S
N292 C296 1.332 . S
N292 C297 1.332 . S
C293 C294 1.388 . S
C293 C297 1.382 . S
C293 H316 0.950 . S
C294 C293 1.388 . S
C294 C295 1.386 . S
C295 C294 1.386 . S
C295 C296 1.382 . S
C295 H317 0.950 . S
C296 N292 1.332 . S
C296 C295 1.382 . S
C296 H298 0.952 . S
C297 N292 1.332 . S
C297 C293 1.382 . S
C297 H299 0.948 . S
H298 C296 0.952 . S
H299 C297 0.948 . S
H300 C289 0.952 . S
H301 C291 0.948 . S
C302 C268 1.395 . S
C302 C272 1.391 . S
C303 C265 1.389 . S
C303 C285 1.392 . S
C304 C275 1.392 . S
C304 C277 1.389 . S
C305 C280 1.395 . S
C305 C282 1.391 . S
H306 C266 0.951 . S
H307 C267 0.950 . S
H308 C273 0.949 . S
H309 C274 0.950 . S
H310 C278 0.951 . S
H311 C279 0.950 . S
H312 C283 0.949 . S
H313 C284 0.950 . S
H314 C288 0.950 . S
H315 C290 0.950 . S
H316 C293 0.950 . S
H317 C295 0.950 . S
C318 C319 1.443 . S
C318 N322 1.376 . S
C318 C356 1.389 . S
C319 C318 1.443 . S
C319 C320 1.340 . S
C319 H359 0.951 . S
C320 C319 1.340 . S
C320 C321 1.439 . S
C320 H360 0.950 . S
C321 C320 1.439 . S
C321 N322 1.374 . S
C321 C355 1.395 . S
N322 C318 1.376 . S
N322 C321 1.374 . S
N322 Co323 2.008 . S
Co323 N322 2.008 . S
Co323 N324 1.995 . S
Co323 N329 2.008 . S
Co323 N334 1.995 . S
Co323 N339 2.282 . S
Co323 N345 2.282 . S
N324 Co323 1.995 . S
N324 C325 1.376 . S
N324 C328 1.383 . S
C325 N324 1.376 . S
C325 C326 1.446 . S
C325 C355 1.391 . S
C326 C325 1.446 . S
C326 C327 1.339 . S
C326 H361 0.949 . S
C327 C326 1.339 . S
C327 C328 1.439 . S
C327 H362 0.950 . S
C328 N324 1.383 . S
C328 C327 1.439 . S
C328 C357 1.392 . S
N329 Co323 2.008 . S
N329 C330 1.376 . S
N329 C333 1.374 . S
C330 N329 1.376 . S
C330 C331 1.443 . S
C330 C357 1.389 . S
C331 C330 1.443 . S
C331 C332 1.340 . S
C331 H363 0.951 . S
C332 C331 1.340 . S
C332 C333 1.439 . S
C332 H364 0.950 . S
C333 N329 1.374 . S
C333 C332 1.439 . S
C333 C358 1.395 . S
N334 Co323 1.995 . S
N334 C335 1.376 . S
N334 C338 1.383 . S
C335 N334 1.376 . S
C335 C336 1.446 . S
C335 C358 1.391 . S
C336 C335 1.446 . S
C336 C337 1.339 . S
C336 H365 0.949 . S
C337 C336 1.339 . S
C337 C338 1.439 . S
C337 H366 0.950 . S
C338 N334 1.383 . S
C338 C337 1.439 . S
C338 C356 1.392 . S
N339 Co323 2.282 . S
N339 C342 1.332 . S
N339 C344 1.332 . S
C340 C341 1.386 . S
C340 C343 1.388 . S
C341 C340 1.386 . S
C341 C342 1.382 . S
C341 H367 0.950 . S
C342 N339 1.332 . S
C342 C341 1.382 . S
C342 H353 0.952 . S
C343 C340 1.388 . S
C343 C344 1.382 . S
C343 H368 0.950 . S
C344 N339 1.332 . S
C344 C343 1.382 . S
C344 H354 0.948 . S
N345 Co323 2.282 . S
N345 C349 1.332 . S
N345 C350 1.332 . S
C346 C347 1.388 . S
C346 C350 1.382 . S
C346 H369 0.950 . S
C347 C346 1.388 . S
C347 C348 1.386 . S
C348 C347 1.386 . S
C348 C349 1.382 . S
C348 H370 0.950 . S
C349 N345 1.332 . S
C349 C348 1.382 . S
C349 H351 0.952 . S
C350 N345 1.332 . S
C350 C346 1.382 . S
C350 H352 0.948 . S
H351 C349 0.952 . S
H352 C350 0.948 . S
H353 C342 0.952 . S
H354 C344 0.948 . S
C355 C321 1.395 . S
C355 C325 1.391 . S
C356 C318 1.389 . S
C356 C338 1.392 . S
C357 C328 1.392 . S
C357 C330 1.389 . S
C358 C333 1.395 . S
C358 C335 1.391 . S
H359 C319 0.951 . S
H360 C320 0.950 . S
H361 C326 0.949 . S
H362 C327 0.950 . S
H363 C331 0.951 . S
H364 C332 0.950 . S
H365 C336 0.949 . S
H366 C337 0.950 . S
H367 C341 0.950 . S
H368 C343 0.950 . S
H369 C346 0.950 . S
H370 C348 0.950 . S
C371 C372 1.443 . S
C371 N375 1.376 . S
C371 C409 1.389 . S
C372 C371 1.443 . S
C372 C373 1.340 . S
C372 H412 0.951 . S
C373 C372 1.340 . S
C373 C374 1.439 . S
C373 H413 0.950 . S
C374 C373 1.439 . S
C374 N375 1.374 . S
C374 C408 1.395 . S
N375 C371 1.376 . S
N375 C374 1.374 . S
N375 Co376 2.008 . S
Co376 N375 2.008 . S
Co376 N377 1.995 . S
Co376 N382 2.008 . S
Co376 N387 1.995 . S
Co376 N392 2.282 . S
Co376 N398 2.282 . S
N377 Co376 1.995 . S
N377 C378 1.376 . S
N377 C381 1.383 . S
C378 N377 1.376 . S
C378 C379 1.446 . S
C378 C408 1.391 . S
C379 C378 1.446 . S
C379 C380 1.339 . S
C379 H414 0.949 . S
C380 C379 1.339 . S
C380 C381 1.439 . S
C380 H415 0.950 . S
C381 N377 1.383 . S
C381 C380 1.439 . S
C381 C410 1.392 . S
N382 Co376 2.008 . S
N382 C383 1.376 . S
N382 C386 1.374 . S
C383 N382 1.376 . S
C383 C384 1.443 . S
C383 C410 1.389 . S
C384 C383 1.443 . S
C384 C385 1.340 . S
C384 H416 0.951 . S
C385 C384 1.340 . S
C385 C386 1.439 . S
C385 H417 0.950 . S
C386 N382 1.374 . S
C386 C385 1.439 . S
C386 C411 1.395 . S
N387 Co376 1.995 . S
N387 C388 1.376 . S
N387 C391 1.383 . S
C388 N387 1.376 . S
C388 C389 1.446 . S
C388 C411 1.391 . S
C389 C388 1.446 . S
C389 C390 1.339 . S
C389 H418 0.949 . S
C390 C389 1.339 . S
C390 C391 1.439 . S
C390 H419 0.950 . S
C391 N387 1.383 . S
C391 C390 1.439 . S
C391 C409 1.392 . S
N392 Co376 2.282 . S
N392 C395 1.332 . S
N392 C397 1.332 . S
C393 C394 1.386 . S
C393 C396 1.388 . S
C394 C393 1.386 . S
C394 C395 1.382 . S
C394 H420 0.950 . S
C395 N392 1.332 . S
C395 C394 1.382 . S
C395 H406 0.952 . S
C396 C393 1.388 . S
C396 C397 1.382 . S
C396 H421 0.950 . S
C397 N392 1.332 . S
C397 C396 1.382 . S
C397 H407 0.948 . S
N398 Co376 2.282 . S
N398 C402 1.332 . S
N398 C403 1.332 . S
C399 C400 1.388 . S
C399 C403 1.382 . S
C399 H422 0.950 . S
C400 C399 1.388 . S
C400 C401 1.386 . S
C401 C400 1.386 . S
C401 C402 1.382 . S
C401 H423 0.950 . S
C402 N398 1.332 . S
C402 C401 1.382 . S
C402 H404 0.952 . S
C403 N398 1.332 . S
C403 C399 1.382 . S
C403 H405 0.948 . S
H404 C402 0.952 . S
H405 C403 0.948 . S
H406 C395 0.952 . S
H407 C397 0.948 . S
C408 C374 1.395 . S
C408 C378 1.391 . S
C409 C371 1.389 . S
C409 C391 1.392 . S
C410 C381 1.392 . S
C410 C383 1.389 . S
C411 C386 1.395 . S
C411 C388 1.391 . S
H412 C372 0.951 . S
H413 C373 0.950 . S
H414 C379 0.949 . S
H415 C380 0.950 . S
H416 C384 0.951 . S
H417 C385 0.950 . S
H418 C389 0.949 . S
H419 C390 0.950 . S
H420 C394 0.950 . S
H421 C396 0.950 . S
H422 C399 0.950 . S
H423 C401 0.950 . S
C424 C425 1.443 . S
C424 N428 1.376 . S
C424 C462 1.389 . S
C425 C424 1.443 . S
C425 C426 1.340 . S
C425 H465 0.951 . S
C426 C425 1.340 . S
C426 C427 1.439 . S
C426 H466 0.950 . S
C427 C426 1.439 . S
C427 N428 1.374 . S
C427 C461 1.395 . S
N428 C424 1.376 . S
N428 C427 1.374 . S
N428 Co429 2.008 . S
Co429 N428 2.008 . S
Co429 N430 1.995 . S
Co429 N435 2.008 . S
Co429 N440 1.995 . S
Co429 N445 2.282 . S
Co429 N451 2.282 . S
N430 Co429 1.995 . S
N430 C431 1.376 . S
N430 C434 1.383 . S
C431 N430 1.376 . S
C431 C432 1.446 . S
C431 C461 1.391 . S
C432 C431 1.446 . S
C432 C433 1.339 . S
C432 H467 0.949 . S
C433 C432 1.339 . S
C433 C434 1.439 . S
C433 H468 0.950 . S
C434 N430 1.383 . S
C434 C433 1.439 . S
C434 C463 1.392 . S
N435 Co429 2.008 . S
N435 C436 1.376 . S
N435 C439 1.374 . S
C436 N435 1.376 . S
C436 C437 1.443 . S
C436 C463 1.389 . S
C437 C436 1.443 . S
C437 C438 1.340 . S
C437 H469 0.951 . S
C438 C437 1.340 . S
C438 C439 1.439 . S
C438 H470 0.950 . S
C439 N435 1.374 . S
C439 C438 1.439 . S
C439 C464 1.395 . S
N440 Co429 1.995 . S
N440 C441 1.376 . S
N440 C444 1.383 . S
C441 N440 1.376 . S
C441 C442 1.446 . S
C441 C464 1.391 . S
C442 C441 1.446 . S
C442 C443 1.339 . S
C442 H471 0.949 . S
C443 C442 1.339 . S
C443 C444 1.439 . S
C443 H472 0.950 . S
C444 N440 1.383 . S
C444 C443 1.439 . S
C444 C462 1.392 . S
N445 Co429 2.282 . S
N445 C448 1.332 . S
N445 C450 1.332 . S
C446 C447 1.386 . S
C446 C449 1.388 . S
C447 C446 1.386 . S
C447 C448 1.382 . S
C447 H473 0.950 . S
C448 N445 1.332 . S
C448 C447 1.382 . S
C448 H459 0.952 . S
C449 C446 1.388 . S
C449 C450 1.382 . S
C449 H474 0.950 . S
C450 N445 1.332 . S
C450 C449 1.382 . S
C450 H460 0.948 . S
N451 Co429 2.282 . S
N451 C455 1.332 . S
N451 C456 1.332 . S
C452 C453 1.388 . S
C452 C456 1.382 . S
C452 H475 0.950 . S
C453 C452 1.388 . S
C453 C454 1.386 . S
C454 C453 1.386 . S
C454 C455 1.382 . S
C454 H476 0.950 . S
C455 N451 1.332 . S
C455 C454 1.382 . S
C455 H457 0.952 . S
C456 N451 1.332 . S
C456 C452 1.382 . S
C456 H458 0.948 . S
H457 C455 0.952 . S
H458 C456 0.948 . S
H459 C448 0.952 . S
H460 C450 0.948 . S
C461 C427 1.395 . S
C461 C431 1.391 . S
C462 C424 1.389 . S
C462 C444 1.392 . S
C463 C434 1.392 . S
C463 C436 1.389 . S
C464 C439 1.395 . S
C464 C441 1.391 . S
H465 C425 0.951 . S
H466 C426 0.950 . S
H467 C432 0.949 . S
H468 C433 0.950 . S
H469 C437 0.951 . S
H470 C438 0.950 . S
H471 C442 0.949 . S
H472 C443 0.950 . S
H473 C447 0.950 . S
H474 C449 0.950 . S
H475 C452 0.950 . S
H476 C454 0.950 . S
C477 C478 1.443 . S
C477 N481 1.376 . S
C477 C515 1.389 . S
C478 C477 1.443 . S
C478 C479 1.340 . S
C478 H518 0.951 . S
C479 C478 1.340 . S
C479 C480 1.439 . S
C479 H519 0.950 . S
C480 C479 1.439 . S
C480 N481 1.374 . S
C480 C514 1.395 . S
N481 C477 1.376 . S
N481 C480 1.374 . S
N481 Co482 2.008 . S
Co482 N481 2.008 . S
Co482 N483 1.995 . S
Co482 N488 2.008 . S
Co482 N493 1.995 . S
Co482 N498 2.282 . S
Co482 N504 2.282 . S
N483 Co482 1.995 . S
N483 C484 1.376 . S
N483 C487 1.383 . S
C484 N483 1.376 . S
C484 C485 1.446 . S
C484 C514 1.391 . S
C485 C484 1.446 . S
C485 C486 1.339 . S
C485 H520 0.949 . S
C486 C485 1.339 . S
C486 C487 1.439 . S
C486 H521 0.950 . S
C487 N483 1.383 . S
C487 C486 1.439 . S
C487 C516 1.392 . S
N488 Co482 2.008 . S
N488 C489 1.376 . S
N488 C492 1.374 . S
C489 N488 1.376 . S
C489 C490 1.443 . S
C489 C516 1.389 . S
C490 C489 1.443 . S
C490 C491 1.340 . S
C490 H522 0.951 . S
C491 C490 1.340 . S
C491 C492 1.439 . S
C491 H523 0.950 . S
C492 N488 1.374 . S
C492 C491 1.439 . S
C492 C517 1.395 . S
N493 Co482 1.995 . S
N493 C494 1.376 . S
N493 C497 1.383 . S
C494 N493 1.376 . S
C494 C495 1.446 . S
C494 C517 1.391 . S
C495 C494 1.446 . S
C495 C496 1.339 . S
C495 H524 0.949 . S
C496 C495 1.339 . S
C496 C497 1.439 . S
C496 H525 0.950 . S
C497 N493 1.383 . S
C497 C496 1.439 . S
C497 C515 1.392 . S
N498 Co482 2.282 . S
N498 C501 1.332 . S
N498 C503 1.332 . S
C499 C500 1.386 . S
C499 C502 1.388 . S
C500 C499 1.386 . S
C500 C501 1.382 . S
C500 H526 0.950 . S
C501 N498 1.332 . S
C501 C500 1.382 . S
C501 H512 0.952 . S
C502 C499 1.388 . S
C502 C503 1.382 . S
C502 H527 0.950 . S
C503 N498 1.332 . S
C503 C502 1.382 . S
C503 H513 0.948 . S
N504 Co482 2.282 . S
N504 C508 1.332 . S
N504 C509 1.332 . S
C505 C506 1.388 . S
C505 C509 1.382 . S
C505 H528 0.950 . S
C506 C505 1.388 . S
C506 C507 1.386 . S
C507 C506 1.386 . S
C507 C508 1.382 . S
C507 H529 0.950 . S
C508 N504 1.332 . S
C508 C507 1.382 . S
C508 H510 0.952 . S
C509 N504 1.332 . S
C509 C505 1.382 . S
C509 H511 0.948 . S
H510 C508 0.952 . S
H511 C509 0.948 . S
H512 C501 0.952 . S
H513 C503 0.948 . S
C514 C480 1.395 . S
C514 C484 1.391 . S
C515 C477 1.389 . S
C515 C497 1.392 . S
C516 C487 1.392 . S
C516 C489 1.389 . S
C517 C492 1.395 . S
C517 C494 1.391 . S
H518 C478 0.951 . S
H519 C479 0.950 . S
H520 C485 0.949 . S
H521 C486 0.950 . S
H522 C490 0.951 . S
H523 C491 0.950 . S
H524 C495 0.949 . S
H525 C496 0.950 . S
H526 C500 0.950 . S
H527 C502 0.950 . S
H528 C505 0.950 . S
H529 C507 0.950 . S
C530 C531 1.443 . S
C530 N534 1.376 . S
C530 C568 1.389 . S
C531 C530 1.443 . S
C531 C532 1.340 . S
C531 H571 0.951 . S
C532 C531 1.340 . S
C532 C533 1.439 . S
C532 H572 0.950 . S
C533 C532 1.439 . S
C533 N534 1.374 . S
C533 C567 1.395 . S
N534 C530 1.376 . S
N534 C533 1.374 . S
N534 Co535 2.008 . S
Co535 N534 2.008 . S
Co535 N536 1.995 . S
Co535 N541 2.008 . S
Co535 N546 1.995 . S
Co535 N551 2.282 . S
Co535 N557 2.282 . S
N536 Co535 1.995 . S
N536 C537 1.376 . S
N536 C540 1.383 . S
C537 N536 1.376 . S
C537 C538 1.446 . S
C537 C567 1.391 . S
C538 C537 1.446 . S
C538 C539 1.339 . S
C538 H573 0.949 . S
C539 C538 1.339 . S
C539 C540 1.439 . S
C539 H574 0.950 . S
C540 N536 1.383 . S
C540 C539 1.439 . S
C540 C569 1.392 . S
N541 Co535 2.008 . S
N541 C542 1.376 . S
N541 C545 1.374 . S
C542 N541 1.376 . S
C542 C543 1.443 . S
C542 C569 1.389 . S
C543 C542 1.443 . S
C543 C544 1.340 . S
C543 H575 0.951 . S
C544 C543 1.340 . S
C544 C545 1.439 . S
C544 H576 0.950 . S
C545 N541 1.374 . S
C545 C544 1.439 . S
C545 C570 1.395 . S
N546 Co535 1.995 . S
N546 C547 1.376 . S
N546 C550 1.383 . S
C547 N546 1.376 . S
C547 C548 1.446 . S
C547 C570 1.391 . S
C548 C547 1.446 . S
C548 C549 1.339 . S
C548 H577 0.949 . S
C549 C548 1.339 . S
C549 C550 1.439 . S
C549 H578 0.950 . S
C550 N546 1.383 . S
C550 C549 1.439 . S
C550 C568 1.392 . S
N551 Co535 2.282 . S
N551 C554 1.332 . S
N551 C556 1.332 . S
C552 C553 1.386 . S
C552 C555 1.388 . S
C553 C552 1.386 . S
C553 C554 1.382 . S
C553 H579 0.950 . S
C554 N551 1.332 . S
C554 C553 1.382 . S
C554 H565 0.952 . S
C555 C552 1.388 . S
C555 C556 1.382 . S
C555 H580 0.950 . S
C556 N551 1.332 . S
C556 C555 1.382 . S
C556 H566 0.948 . S
N557 Co535 2.282 . S
N557 C561 1.332 . S
N557 C562 1.332 . S
C558 C559 1.388 . S
C558 C562 1.382 . S
C558 H581 0.950 . S
C559 C558 1.388 . S
C559 C560 1.386 . S
C560 C559 1.386 . S
C560 C561 1.382 . S
C560 H582 0.950 . S
C561 N557 1.332 . S
C561 C560 1.382 . S
C561 H563 0.952 . S
C562 N557 1.332 . S
C562 C558 1.382 . S
C562 H564 0.948 . S
H563 C561 0.952 . S
H564 C562 0.948 . S
H565 C554 0.952 . S
H566 C556 0.948 . S
C567 C533 1.395 . S
C567 C537 1.391 . S
C568 C530 1.389 . S
C568 C550 1.392 . S
C569 C540 1.392 . S
C569 C542 1.389 . S
C570 C545 1.395 . S
C570 C547 1.391 . S
H571 C531 0.951 . S
H572 C532 0.950 . S
H573 C538 0.949 . S
H574 C539 0.950 . S
H575 C543 0.951 . S
H576 C544 0.950 . S
H577 C548 0.949 . S
H578 C549 0.950 . S
H579 C553 0.950 . S
H580 C555 0.950 . S
H581 C558 0.950 . S
H582 C560 0.950 . S
C583 C584 1.443 . S
C583 N587 1.376 . S
C583 C621 1.389 . S
C584 C583 1.443 . S
C584 C585 1.340 . S
C584 H624 0.951 . S
C585 C584 1.340 . S
C585 C586 1.439 . S
C585 H625 0.950 . S
C586 C585 1.439 . S
C586 N587 1.374 . S
C586 C620 1.395 . S
N587 C583 1.376 . S
N587 C586 1.374 . S
N587 Co588 2.008 . S
Co588 N587 2.008 . S
Co588 N589 1.995 . S
Co588 N594 2.008 . S
Co588 N599 1.995 . S
Co588 N604 2.282 . S
Co588 N610 2.282 . S
N589 Co588 1.995 . S
N589 C590 1.376 . S
N589 C593 1.383 . S
C590 N589 1.376 . S
C590 C591 1.446 . S
C590 C620 1.391 . S
C591 C590 1.446 . S
C591 C592 1.339 . S
C591 H626 0.949 . S
C592 C591 1.339 . S
C592 C593 1.439 . S
C592 H627 0.950 . S
C593 N589 1.383 . S
C593 C592 1.439 . S
C593 C622 1.392 . S
N594 Co588 2.008 . S
N594 C595 1.376 . S
N594 C598 1.374 . S
C595 N594 1.376 . S
C595 C596 1.443 . S
C595 C622 1.389 . S
C596 C595 1.443 . S
C596 C597 1.340 . S
C596 H628 0.951 . S
C597 C596 1.340 . S
C597 C598 1.439 . S
C597 H629 0.950 . S
C598 N594 1.374 . S
C598 C597 1.439 . S
C598 C623 1.395 . S
N599 Co588 1.995 . S
N599 C600 1.376 . S
N599 C603 1.383 . S
C600 N599 1.376 . S
C600 C601 1.446 . S
C600 C623 1.391 . S
C601 C600 1.446 . S
C601 C602 1.339 . S
C601 H630 0.949 . S
C602 C601 1.339 . S
C602 C603 1.439 . S
C602 H631 0.950 . S
C603 N599 1.383 . S
C603 C602 1.439 . S
C603 C621 1.392 . S
N604 Co588 2.282 . S
N604 C607 1.332 . S
N604 C609 1.332 . S
C605 C606 1.386 . S
C605 C608 1.388 . S
C606 C605 1.386 . S
C606 C607 1.382 . S
C606 H632 0.950 . S
C607 N604 1.332 . S
C607 C606 1.382 . S
C607 H618 0.952 . S
C608 C605 1.388 . S
C608 C609 1.382 . S
C608 H633 0.950 . S
C609 N604 1.332 . S
C609 C608 1.382 . S
C609 H619 0.948 . S
N610 Co588 2.282 . S
N610 C614 1.332 . S
N610 C615 1.332 . S
C611 C612 1.388 . S
C611 C615 1.382 . S
C611 H634 0.950 . S
C612 C611 1.388 . S
C612 C613 1.386 . S
C613 C612 1.386 . S
C613 C614 1.382 . S
C613 H635 0.950 . S
C614 N610 1.332 . S
C614 C613 1.382 . S
C614 H616 0.952 . S
C615 N610 1.332 . S
C615 C611 1.382 . S
C615 H617 0.948 . S
H616 C614 0.952 . S
H617 C615 0.948 . S
H618 C607 0.952 . S
H619 C609 0.948 . S
C620 C586 1.395 . S
C620 C590 1.391 . S
C621 C583 1.389 . S
C621 C603 1.392 . S
C622 C593 1.392 . S
C622 C595 1.389 . S
C623 C598 1.395 . S
C623 C600 1.391 . S
H624 C584 0.951 . S
H625 C585 0.950 . S
H626 C591 0.949 . S
H627 C592 0.950 . S
H628 C596 0.951 . S
H629 C597 0.950 . S
H630 C601 0.949 . S
H631 C602 0.950 . S
H632 C606 0.950 . S
H633 C608 0.950 . S
H634 C611 0.950 . S
H635 C613 0.950 . S
H636 C648 0.930 . S
H637 C650 0.930 . S
H638 C651 0.930 . S
H639 C655 0.959 . S
H640 C655 0.959 . S
H641 C655 0.961 . S
H642 C656 0.960 . S
H643 C656 0.961 . S
H644 C656 0.959 . S
H645 C659 0.929 . S
H646 C660 0.931 . S
H647 C662 0.930 . S
C648 H636 0.930 . S
C648 C649 1.399 . S
C648 C653 1.399 . S
C649 C648 1.399 . S
C649 C650 1.376 . S
C650 H637 0.930 . S
C650 C649 1.376 . S
C650 C651 1.388 . S
C651 H638 0.930 . S
C651 C650 1.388 . S
C651 C652 1.390 . S
C652 C651 1.390 . S
C652 C653 1.394 . S
C652 C658 1.465 . S
C653 C648 1.399 . S
C653 C652 1.394 . S
C653 C654 1.516 . S
C654 C653 1.516 . S
C654 C655 1.502 . S
C654 C656 1.561 . S
C654 C657 1.526 . S
C655 H639 0.959 . S
C655 H640 0.959 . S
C655 H641 0.961 . S
C655 C654 1.502 . S
C656 H642 0.960 . S
C656 H643 0.961 . S
C656 H644 0.959 . S
C656 C654 1.561 . S
C657 C654 1.526 . S
C657 C658 1.396 . S
C657 C662 1.390 . S
C658 C652 1.465 . S
C658 C657 1.396 . S
C658 C659 1.399 . S
C659 H645 0.929 . S
C659 C658 1.399 . S
C659 C660 1.385 . S
C660 H646 0.931 . S
C660 C659 1.385 . S
C660 C661 1.389 . S
C661 C660 1.389 . S
C661 C662 1.387 . S
C662 H647 0.930 . S
C662 C657 1.390 . S
C662 C661 1.387 . S
H663 C675 0.930 . S
H664 C677 0.930 . S
H665 C678 0.930 . S
H666 C682 0.959 . S
H667 C682 0.959 . S
H668 C682 0.961 . S
H669 C683 0.960 . S
H670 C683 0.961 . S
H671 C683 0.959 . S
H672 C686 0.929 . S
H673 C687 0.931 . S
H674 C689 0.930 . S
C675 H663 0.930 . S
C675 C676 1.399 . S
C675 C680 1.399 . S
C676 C675 1.399 . S
C676 C677 1.376 . S
C677 H664 0.930 . S
C677 C676 1.376 . S
C677 C678 1.388 . S
C678 H665 0.930 . S
C678 C677 1.388 . S
C678 C679 1.390 . S
C679 C678 1.390 . S
C679 C680 1.394 . S
C679 C685 1.465 . S
C680 C675 1.399 . S
C680 C679 1.394 . S
C680 C681 1.516 . S
C681 C680 1.516 . S
C681 C682 1.502 . S
C681 C683 1.561 . S
C681 C684 1.526 . S
C682 H666 0.959 . S
C682 H667 0.959 . S
C682 H668 0.961 . S
C682 C681 1.502 . S
C683 H669 0.960 . S
C683 H670 0.961 . S
C683 H671 0.959 . S
C683 C681 1.561 . S
C684 C681 1.526 . S
C684 C685 1.396 . S
C684 C689 1.390 . S
C685 C679 1.465 . S
C685 C684 1.396 . S
C685 C686 1.399 . S
C686 H672 0.929 . S
C686 C685 1.399 . S
C686 C687 1.385 . S
C687 H673 0.931 . S
C687 C686 1.385 . S
C687 C688 1.389 . S
C688 C687 1.389 . S
C688 C689 1.387 . S
C689 H674 0.930 . S
C689 C684 1.390 . S
C689 C688 1.387 . S
H690 C702 0.930 . S
H691 C704 0.930 . S
H692 C705 0.930 . S
H693 C709 0.959 . S
H694 C709 0.959 . S
H695 C709 0.961 . S
H696 C710 0.960 . S
H697 C710 0.961 . S
H698 C710 0.959 . S
H699 C713 0.929 . S
H700 C714 0.931 . S
H701 C716 0.930 . S
C702 H690 0.930 . S
C702 C703 1.399 . S
C702 C707 1.399 . S
C703 C702 1.399 . S
C703 C704 1.376 . S
C704 H691 0.930 . S
C704 C703 1.376 . S
C704 C705 1.388 . S
C705 H692 0.930 . S
C705 C704 1.388 . S
C705 C706 1.390 . S
C706 C705 1.390 . S
C706 C707 1.394 . S
C706 C712 1.465 . S
C707 C702 1.399 . S
C707 C706 1.394 . S
C707 C708 1.516 . S
C708 C707 1.516 . S
C708 C709 1.502 . S
C708 C710 1.561 . S
C708 C711 1.526 . S
C709 H693 0.959 . S
C709 H694 0.959 . S
C709 H695 0.961 . S
C709 C708 1.502 . S
C710 H696 0.960 . S
C710 H697 0.961 . S
C710 H698 0.959 . S
C710 C708 1.561 . S
C711 C708 1.526 . S
C711 C712 1.396 . S
C711 C716 1.390 . S
C712 C706 1.465 . S
C712 C711 1.396 . S
C712 C713 1.399 . S
C713 H699 0.929 . S
C713 C712 1.399 . S
C713 C714 1.385 . S
C714 H700 0.931 . S
C714 C713 1.385 . S
C714 C715 1.389 . S
C715 C714 1.389 . S
C715 C716 1.387 . S
C716 H701 0.930 . S
C716 C711 1.390 . S
C716 C715 1.387 . S
H717 C729 0.930 . S
H718 C731 0.930 . S
H719 C732 0.930 . S
H720 C736 0.959 . S
H721 C736 0.959 . S
H722 C736 0.961 . S
H723 C737 0.960 . S
H724 C737 0.961 . S
H725 C737 0.959 . S
H726 C740 0.929 . S
H727 C741 0.931 . S
H728 C743 0.930 . S
C729 H717 0.930 . S
C729 C730 1.399 . S
C729 C734 1.399 . S
C730 C729 1.399 . S
C730 C731 1.376 . S
C731 H718 0.930 . S
C731 C730 1.376 . S
C731 C732 1.388 . S
C732 H719 0.930 . S
C732 C731 1.388 . S
C732 C733 1.390 . S
C733 C732 1.390 . S
C733 C734 1.394 . S
C733 C739 1.465 . S
C734 C729 1.399 . S
C734 C733 1.394 . S
C734 C735 1.516 . S
C735 C734 1.516 . S
C735 C736 1.502 . S
C735 C737 1.561 . S
C735 C738 1.526 . S
C736 H720 0.959 . S
C736 H721 0.959 . S
C736 H722 0.961 . S
C736 C735 1.502 . S
C737 H723 0.960 . S
C737 H724 0.961 . S
C737 H725 0.959 . S
C737 C735 1.561 . S
C738 C735 1.526 . S
C738 C739 1.396 . S
C738 C743 1.390 . S
C739 C733 1.465 . S
C739 C738 1.396 . S
C739 C740 1.399 . S
C740 H726 0.929 . S
C740 C739 1.399 . S
C740 C741 1.385 . S
C741 H727 0.931 . S
C741 C740 1.385 . S
C741 C742 1.389 . S
C742 C741 1.389 . S
C742 C743 1.387 . S
C743 H728 0.930 . S
C743 C738 1.390 . S
C743 C742 1.387 . S
H744 C756 0.930 . S
H745 C758 0.930 . S
H746 C759 0.930 . S
H747 C763 0.959 . S
H748 C763 0.959 . S
H749 C763 0.961 . S
H750 C764 0.960 . S
H751 C764 0.961 . S
H752 C764 0.959 . S
H753 C767 0.929 . S
H754 C768 0.931 . S
H755 C770 0.930 . S
C756 H744 0.930 . S
C756 C757 1.399 . S
C756 C761 1.399 . S
C757 C756 1.399 . S
C757 C758 1.376 . S
C758 H745 0.930 . S
C758 C757 1.376 . S
C758 C759 1.388 . S
C759 H746 0.930 . S
C759 C758 1.388 . S
C759 C760 1.390 . S
C760 C759 1.390 . S
C760 C761 1.394 . S
C760 C766 1.465 . S
C761 C756 1.399 . S
C761 C760 1.394 . S
C761 C762 1.516 . S
C762 C761 1.516 . S
C762 C763 1.502 . S
C762 C764 1.561 . S
C762 C765 1.526 . S
C763 H747 0.959 . S
C763 H748 0.959 . S
C763 H749 0.961 . S
C763 C762 1.502 . S
C764 H750 0.960 . S
C764 H751 0.961 . S
C764 H752 0.959 . S
C764 C762 1.561 . S
C765 C762 1.526 . S
C765 C766 1.396 . S
C765 C770 1.390 . S
C766 C760 1.465 . S
C766 C765 1.396 . S
C766 C767 1.399 . S
C767 H753 0.929 . S
C767 C766 1.399 . S
C767 C768 1.385 . S
C768 H754 0.931 . S
C768 C767 1.385 . S
C768 C769 1.389 . S
C769 C768 1.389 . S
C769 C770 1.387 . S
C770 H755 0.930 . S
C770 C765 1.390 . S
C770 C769 1.387 . S
H771 C783 0.930 . S
H772 C785 0.930 . S
H773 C786 0.930 . S
H774 C790 0.959 . S
H775 C790 0.959 . S
H776 C790 0.961 . S
H777 C791 0.960 . S
H778 C791 0.961 . S
H779 C791 0.959 . S
H780 C794 0.929 . S
H781 C795 0.931 . S
H782 C797 0.930 . S
C783 H771 0.930 . S
C783 C784 1.399 . S
C783 C788 1.399 . S
C784 C783 1.399 . S
C784 C785 1.376 . S
C785 H772 0.930 . S
C785 C784 1.376 . S
C785 C786 1.388 . S
C786 H773 0.930 . S
C786 C785 1.388 . S
C786 C787 1.390 . S
C787 C786 1.390 . S
C787 C788 1.394 . S
C787 C793 1.465 . S
C788 C783 1.399 . S
C788 C787 1.394 . S
C788 C789 1.516 . S
C789 C788 1.516 . S
C789 C790 1.502 . S
C789 C791 1.561 . S
C789 C792 1.526 . S
C790 H774 0.959 . S
C790 H775 0.959 . S
C790 H776 0.961 . S
C790 C789 1.502 . S
C791 H777 0.960 . S
C791 H778 0.961 . S
C791 H779 0.959 . S
C791 C789 1.561 . S
C792 C789 1.526 . S
C792 C793 1.396 . S
C792 C797 1.390 . S
C793 C787 1.465 . S
C793 C792 1.396 . S
C793 C794 1.399 . S
C794 H780 0.929 . S
C794 C793 1.399 . S
C794 C795 1.385 . S
C795 H781 0.931 . S
C795 C794 1.385 . S
C795 C796 1.389 . S
C796 C795 1.389 . S
C796 C797 1.387 . S
C797 H782 0.930 . S
C797 C792 1.390 . S
C797 C796 1.387 . S
H798 C810 0.930 . S
H799 C812 0.930 . S
H800 C813 0.930 . S
H801 C817 0.959 . S
H802 C817 0.959 . S
H803 C817 0.961 . S
H804 C818 0.960 . S
H805 C818 0.961 . S
H806 C818 0.959 . S
H807 C821 0.929 . S
H808 C822 0.931 . S
H809 C824 0.930 . S
C810 H798 0.930 . S
C810 C811 1.399 . S
C810 C815 1.399 . S
C811 C810 1.399 . S
C811 C812 1.376 . S
C812 H799 0.930 . S
C812 C811 1.376 . S
C812 C813 1.388 . S
C813 H800 0.930 . S
C813 C812 1.388 . S
C813 C814 1.390 . S
C814 C813 1.390 . S
C814 C815 1.394 . S
C814 C820 1.465 . S
C815 C810 1.399 . S
C815 C814 1.394 . S
C815 C816 1.516 . S
C816 C815 1.516 . S
C816 C817 1.502 . S
C816 C818 1.561 . S
C816 C819 1.526 . S
C817 H801 0.959 . S
C817 H802 0.959 . S
C817 H803 0.961 . S
C817 C816 1.502 . S
C818 H804 0.960 . S
C818 H805 0.961 . S
C818 H806 0.959 . S
C818 C816 1.561 . S
C819 C816 1.526 . S
C819 C820 1.396 . S
C819 C824 1.390 . S
C820 C814 1.465 . S
C820 C819 1.396 . S
C820 C821 1.399 . S
C821 H807 0.929 . S
C821 C820 1.399 . S
C821 C822 1.385 . S
C822 H808 0.931 . S
C822 C821 1.385 . S
C822 C823 1.389 . S
C823 C822 1.389 . S
C823 C824 1.387 . S
C824 H809 0.930 . S
C824 C819 1.390 . S
C824 C823 1.387 . S
H825 C837 0.930 . S
H826 C839 0.930 . S
H827 C840 0.930 . S
H828 C844 0.959 . S
H829 C844 0.959 . S
H830 C844 0.961 . S
H831 C845 0.960 . S
H832 C845 0.961 . S
H833 C845 0.959 . S
H834 C848 0.929 . S
H835 C849 0.931 . S
H836 C851 0.930 . S
C837 H825 0.930 . S
C837 C838 1.399 . S
C837 C842 1.399 . S
C838 C837 1.399 . S
C838 C839 1.376 . S
C839 H826 0.930 . S
C839 C838 1.376 . S
C839 C840 1.388 . S
C840 H827 0.930 . S
C840 C839 1.388 . S
C840 C841 1.390 . S
C841 C840 1.390 . S
C841 C842 1.394 . S
C841 C847 1.465 . S
C842 C837 1.399 . S
C842 C841 1.394 . S
C842 C843 1.516 . S
C843 C842 1.516 . S
C843 C844 1.502 . S
C843 C845 1.561 . S
C843 C846 1.526 . S
C844 H828 0.959 . S
C844 H829 0.959 . S
C844 H830 0.961 . S
C844 C843 1.502 . S
C845 H831 0.960 . S
C845 H832 0.961 . S
C845 H833 0.959 . S
C845 C843 1.561 . S
C846 C843 1.526 . S
C846 C847 1.396 . S
C846 C851 1.390 . S
C847 C841 1.465 . S
C847 C846 1.396 . S
C847 C848 1.399 . S
C848 H834 0.929 . S
C848 C847 1.399 . S
C848 C849 1.385 . S
C849 H835 0.931 . S
C849 C848 1.385 . S
C849 C850 1.389 . S
C850 C849 1.389 . S
C850 C851 1.387 . S
C851 H836 0.930 . S
C851 C846 1.390 . S
C851 C850 1.387 . S
H852 C864 0.930 . S
H853 C866 0.930 . S
H854 C867 0.930 . S
H855 C871 0.959 . S
H856 C871 0.959 . S
H857 C871 0.961 . S
H858 C872 0.960 . S
H859 C872 0.961 . S
H860 C872 0.959 . S
H861 C875 0.929 . S
H862 C876 0.931 . S
H863 C878 0.930 . S
C864 H852 0.930 . S
C864 C865 1.399 . S
C864 C869 1.399 . S
C865 C864 1.399 . S
C865 C866 1.376 . S
C866 H853 0.930 . S
C866 C865 1.376 . S
C866 C867 1.388 . S
C867 H854 0.930 . S
C867 C866 1.388 . S
C867 C868 1.390 . S
C868 C867 1.390 . S
C868 C869 1.394 . S
C868 C874 1.465 . S
C869 C864 1.399 . S
C869 C868 1.394 . S
C869 C870 1.516 . S
C870 C869 1.516 . S
C870 C871 1.502 . S
C870 C872 1.561 . S
C870 C873 1.526 . S
C871 H855 0.959 . S
C871 H856 0.959 . S
C871 H857 0.961 . S
C871 C870 1.502 . S
C872 H858 0.960 . S
C872 H859 0.961 . S
C872 H860 0.959 . S
C872 C870 1.561 . S
C873 C870 1.526 . S
C873 C874 1.396 . S
C873 C878 1.390 . S
C874 C868 1.465 . S
C874 C873 1.396 . S
C874 C875 1.399 . S
C875 H861 0.929 . S
C875 C874 1.399 . S
C875 C876 1.385 . S
C876 H862 0.931 . S
C876 C875 1.385 . S
C876 C877 1.389 . S
C877 C876 1.389 . S
C877 C878 1.387 . S
C878 H863 0.930 . S
C878 C873 1.390 . S
C878 C877 1.387 . S
H879 C891 0.930 . S
H880 C893 0.930 . S
H881 C894 0.930 . S
H882 C898 0.959 . S
H883 C898 0.959 . S
H884 C898 0.961 . S
H885 C899 0.960 . S
H886 C899 0.961 . S
H887 C899 0.959 . S
H888 C902 0.929 . S
H889 C903 0.931 . S
H890 C905 0.930 . S
C891 H879 0.930 . S
C891 C892 1.399 . S
C891 C896 1.399 . S
C892 C891 1.399 . S
C892 C893 1.376 . S
C893 H880 0.930 . S
C893 C892 1.376 . S
C893 C894 1.388 . S
C894 H881 0.930 . S
C894 C893 1.388 . S
C894 C895 1.390 . S
C895 C894 1.390 . S
C895 C896 1.394 . S
C895 C901 1.465 . S
C896 C891 1.399 . S
C896 C895 1.394 . S
C896 C897 1.516 . S
C897 C896 1.516 . S
C897 C898 1.502 . S
C897 C899 1.561 . S
C897 C900 1.526 . S
C898 H882 0.959 . S
C898 H883 0.959 . S
C898 H884 0.961 . S
C898 C897 1.502 . S
C899 H885 0.960 . S
C899 H886 0.961 . S
C899 H887 0.959 . S
C899 C897 1.561 . S
C900 C897 1.526 . S
C900 C901 1.396 . S
C900 C905 1.390 . S
C901 C895 1.465 . S
C901 C900 1.396 . S
C901 C902 1.399 . S
C902 H888 0.929 . S
C902 C901 1.399 . S
C902 C903 1.385 . S
C903 H889 0.931 . S
C903 C902 1.385 . S
C903 C904 1.389 . S
C904 C903 1.389 . S
C904 C905 1.387 . S
C905 H890 0.930 . S
C905 C900 1.390 . S
C905 C904 1.387 . S
H906 C918 0.930 . S
H907 C920 0.930 . S
H908 C921 0.930 . S
H909 C925 0.959 . S
H910 C925 0.959 . S
H911 C925 0.961 . S
H912 C926 0.960 . S
H913 C926 0.961 . S
H914 C926 0.959 . S
H915 C929 0.929 . S
H916 C930 0.931 . S
H917 C932 0.930 . S
C918 H906 0.930 . S
C918 C919 1.399 . S
C918 C923 1.399 . S
C919 C918 1.399 . S
C919 C920 1.376 . S
C920 H907 0.930 . S
C920 C919 1.376 . S
C920 C921 1.388 . S
C921 H908 0.930 . S
C921 C920 1.388 . S
C921 C922 1.390 . S
C922 C921 1.390 . S
C922 C923 1.394 . S
C922 C928 1.465 . S
C923 C918 1.399 . S
C923 C922 1.394 . S
C923 C924 1.516 . S
C924 C923 1.516 . S
C924 C925 1.502 . S
C924 C926 1.561 . S
C924 C927 1.526 . S
C925 H909 0.959 . S
C925 H910 0.959 . S
C925 H911 0.961 . S
C925 C924 1.502 . S
C926 H912 0.960 . S
C926 H913 0.961 . S
C926 H914 0.959 . S
C926 C924 1.561 . S
C927 C924 1.526 . S
C927 C928 1.396 . S
C927 C932 1.390 . S
C928 C922 1.465 . S
C928 C927 1.396 . S
C928 C929 1.399 . S
C929 H915 0.929 . S
C929 C928 1.399 . S
C929 C930 1.385 . S
C930 H916 0.931 . S
C930 C929 1.385 . S
C930 C931 1.389 . S
C931 C930 1.389 . S
C931 C932 1.387 . S
C932 H917 0.930 . S
C932 C927 1.390 . S
C932 C931 1.387 . S
H933 C945 0.930 . S
H934 C947 0.930 . S
H935 C948 0.930 . S
H936 C952 0.959 . S
H937 C952 0.959 . S
H938 C952 0.961 . S
H939 C953 0.960 . S
H940 C953 0.961 . S
H941 C953 0.959 . S
H942 C956 0.929 . S
H943 C957 0.931 . S
H944 C959 0.930 . S
C945 H933 0.930 . S
C945 C946 1.399 . S
C945 C950 1.399 . S
C946 C945 1.399 . S
C946 C947 1.376 . S
C947 H934 0.930 . S
C947 C946 1.376 . S
C947 C948 1.388 . S
C948 H935 0.930 . S
C948 C947 1.388 . S
C948 C949 1.390 . S
C949 C948 1.390 . S
C949 C950 1.394 . S
C949 C955 1.465 . S
C950 C945 1.399 . S
C950 C949 1.394 . S
C950 C951 1.516 . S
C951 C950 1.516 . S
C951 C952 1.502 . S
C951 C953 1.561 . S
C951 C954 1.526 . S
C952 H936 0.959 . S
C952 H937 0.959 . S
C952 H938 0.961 . S
C952 C951 1.502 . S
C953 H939 0.960 . S
C953 H940 0.961 . S
C953 H941 0.959 . S
C953 C951 1.561 . S
C954 C951 1.526 . S
C954 C955 1.396 . S
C954 C959 1.390 . S
C955 C949 1.465 . S
C955 C954 1.396 . S
C955 C956 1.399 . S
C956 H942 0.929 . S
C956 C955 1.399 . S
C956 C957 1.385 . S
C957 H943 0.931 . S
C957 C956 1.385 . S
C957 C958 1.389 . S
C958 C957 1.389 . S
C958 C959 1.387 . S
C959 H944 0.930 . S
C959 C954 1.390 . S
C959 C958 1.387 . S
H960 C972 0.930 . S
H961 C974 0.930 . S
H962 C975 0.930 . S
H963 C979 0.959 . S
H964 C979 0.959 . S
H965 C979 0.961 . S
H966 C980 0.960 . S
H967 C980 0.961 . S
H968 C980 0.959 . S
H969 C983 0.929 . S
H970 C984 0.931 . S
H971 C986 0.930 . S
C972 H960 0.930 . S
C972 C973 1.399 . S
C972 C977 1.399 . S
C973 C972 1.399 . S
C973 C974 1.376 . S
C974 H961 0.930 . S
C974 C973 1.376 . S
C974 C975 1.388 . S
C975 H962 0.930 . S
C975 C974 1.388 . S
C975 C976 1.390 . S
C976 C975 1.390 . S
C976 C977 1.394 . S
C976 C982 1.465 . S
C977 C972 1.399 . S
C977 C976 1.394 . S
C977 C978 1.516 . S
C978 C977 1.516 . S
C978 C979 1.502 . S
C978 C980 1.561 . S
C978 C981 1.526 . S
C979 H963 0.959 . S
C979 H964 0.959 . S
C979 H965 0.961 . S
C979 C978 1.502 . S
C980 H966 0.960 . S
C980 H967 0.961 . S
C980 H968 0.959 . S
C980 C978 1.561 . S
C981 C978 1.526 . S
C981 C982 1.396 . S
C981 C986 1.390 . S
C982 C976 1.465 . S
C982 C981 1.396 . S
C982 C983 1.399 . S
C983 H969 0.929 . S
C983 C982 1.399 . S
C983 C984 1.385 . S
C984 H970 0.931 . S
C984 C983 1.385 . S
C984 C985 1.389 . S
C985 C984 1.389 . S
C985 C986 1.387 . S
C986 H971 0.930 . S
C986 C981 1.390 . S
C986 C985 1.387 . S
H987 C999 0.930 . S
H988 C1001 0.930 . S
H989 C1002 0.930 . S
H990 C1006 0.959 . S
H991 C1006 0.959 . S
H992 C1006 0.961 . S
H993 C1007 0.960 . S
H994 C1007 0.961 . S
H995 C1007 0.959 . S
H996 C1010 0.929 . S
H997 C1011 0.931 . S
H998 C1013 0.930 . S
C999 H987 0.930 . S
C999 C1000 1.399 . S
C999 C1004 1.399 . S
C1000 C999 1.399 . S
C1000 C1001 1.376 . S
C1001 H988 0.930 . S
C1001 C1000 1.376 . S
C1001 C1002 1.388 . S
C1002 H989 0.930 . S
C1002 C1001 1.388 . S
C1002 C1003 1.390 . S
C1003 C1002 1.390 . S
C1003 C1004 1.394 . S
C1003 C1009 1.465 . S
C1004 C999 1.399 . S
C1004 C1003 1.394 . S
C1004 C1005 1.516 . S
C1005 C1004 1.516 . S
C1005 C1006 1.502 . S
C1005 C1007 1.561 . S
C1005 C1008 1.526 . S
C1006 H990 0.959 . S
C1006 H991 0.959 . S
C1006 H992 0.961 . S
C1006 C1005 1.502 . S
C1007 H993 0.960 . S
C1007 H994 0.961 . S
C1007 H995 0.959 . S
C1007 C1005 1.561 . S
C1008 C1005 1.526 . S
C1008 C1009 1.396 . S
C1008 C1013 1.390 . S
C1009 C1003 1.465 . S
C1009 C1008 1.396 . S
C1009 C1010 1.399 . S
C1010 H996 0.929 . S
C1010 C1009 1.399 . S
C1010 C1011 1.385 . S
C1011 H997 0.931 . S
C1011 C1010 1.385 . S
C1011 C1012 1.389 . S
C1012 C1011 1.389 . S
C1012 C1013 1.387 . S
C1013 H998 0.930 . S
C1013 C1008 1.390 . S
C1013 C1012 1.387 . S
H1014 C1026 0.930 . S
H1015 C1028 0.930 . S
H1016 C1029 0.930 . S
H1017 C1033 0.959 . S
H1018 C1033 0.959 . S
H1019 C1033 0.961 . S
H1020 C1034 0.960 . S
H1021 C1034 0.961 . S
H1022 C1034 0.959 . S
H1023 C1037 0.929 . S
H1024 C1038 0.931 . S
H1025 C1040 0.930 . S
C1026 H1014 0.930 . S
C1026 C1027 1.399 . S
C1026 C1031 1.399 . S
C1027 C1026 1.399 . S
C1027 C1028 1.376 . S
C1028 H1015 0.930 . S
C1028 C1027 1.376 . S
C1028 C1029 1.388 . S
C1029 H1016 0.930 . S
C1029 C1028 1.388 . S
C1029 C1030 1.390 . S
C1030 C1029 1.390 . S
C1030 C1031 1.394 . S
C1030 C1036 1.465 . S
C1031 C1026 1.399 . S
C1031 C1030 1.394 . S
C1031 C1032 1.516 . S
C1032 C1031 1.516 . S
C1032 C1033 1.502 . S
C1032 C1034 1.561 . S
C1032 C1035 1.526 . S
C1033 H1017 0.959 . S
C1033 H1018 0.959 . S
C1033 H1019 0.961 . S
C1033 C1032 1.502 . S
C1034 H1020 0.960 . S
C1034 H1021 0.961 . S
C1034 H1022 0.959 . S
C1034 C1032 1.561 . S
C1035 C1032 1.526 . S
C1035 C1036 1.396 . S
C1035 C1040 1.390 . S
C1036 C1030 1.465 . S
C1036 C1035 1.396 . S
C1036 C1037 1.399 . S
C1037 H1023 0.929 . S
C1037 C1036 1.399 . S
C1037 C1038 1.385 . S
C1038 H1024 0.931 . S
C1038 C1037 1.385 . S
C1038 C1039 1.389 . S
C1039 C1038 1.389 . S
C1039 C1040 1.387 . S
C1040 H1025 0.930 . S
C1040 C1035 1.390 . S
C1040 C1039 1.387 . S
H1041 C1053 0.930 . S
H1042 C1055 0.930 . S
H1043 C1056 0.930 . S
H1044 C1060 0.959 . S
H1045 C1060 0.959 . S
H1046 C1060 0.961 . S
H1047 C1061 0.960 . S
H1048 C1061 0.961 . S
H1049 C1061 0.959 . S
H1050 C1064 0.929 . S
H1051 C1065 0.931 . S
H1052 C1067 0.930 . S
C1053 H1041 0.930 . S
C1053 C1054 1.399 . S
C1053 C1058 1.399 . S
C1054 C1053 1.399 . S
C1054 C1055 1.376 . S
C1055 H1042 0.930 . S
C1055 C1054 1.376 . S
C1055 C1056 1.388 . S
C1056 H1043 0.930 . S
C1056 C1055 1.388 . S
C1056 C1057 1.390 . S
C1057 C1056 1.390 . S
C1057 C1058 1.394 . S
C1057 C1063 1.465 . S
C1058 C1053 1.399 . S
C1058 C1057 1.394 . S
C1058 C1059 1.516 . S
C1059 C1058 1.516 . S
C1059 C1060 1.502 . S
C1059 C1061 1.561 . S
C1059 C1062 1.526 . S
C1060 H1044 0.959 . S
C1060 H1045 0.959 . S
C1060 H1046 0.961 . S
C1060 C1059 1.502 . S
C1061 H1047 0.960 . S
C1061 H1048 0.961 . S
C1061 H1049 0.959 . S
C1061 C1059 1.561 . S
C1062 C1059 1.526 . S
C1062 C1063 1.396 . S
C1062 C1067 1.390 . S
C1063 C1057 1.465 . S
C1063 C1062 1.396 . S
C1063 C1064 1.399 . S
C1064 H1050 0.929 . S
C1064 C1063 1.399 . S
C1064 C1065 1.385 . S
C1065 H1051 0.931 . S
C1065 C1064 1.385 . S
C1065 C1066 1.389 . S
C1066 C1065 1.389 . S
C1066 C1067 1.387 . S
C1067 H1052 0.930 . S
C1067 C1062 1.390 . S
C1067 C1066 1.387 . S
H1068 C1080 0.930 . S
H1069 C1082 0.930 . S
H1070 C1083 0.930 . S
H1071 C1087 0.959 . S
H1072 C1087 0.959 . S
H1073 C1087 0.961 . S
H1074 C1088 0.960 . S
H1075 C1088 0.961 . S
H1076 C1088 0.959 . S
H1077 C1091 0.929 . S
H1078 C1092 0.931 . S
H1079 C1094 0.930 . S
C1080 H1068 0.930 . S
C1080 C1081 1.399 . S
C1080 C1085 1.399 . S
C1081 C1080 1.399 . S
C1081 C1082 1.376 . S
C1082 H1069 0.930 . S
C1082 C1081 1.376 . S
C1082 C1083 1.388 . S
C1083 H1070 0.930 . S
C1083 C1082 1.388 . S
C1083 C1084 1.390 . S
C1084 C1083 1.390 . S
C1084 C1085 1.394 . S
C1084 C1090 1.465 . S
C1085 C1080 1.399 . S
C1085 C1084 1.394 . S
C1085 C1086 1.516 . S
C1086 C1085 1.516 . S
C1086 C1087 1.502 . S
C1086 C1088 1.561 . S
C1086 C1089 1.526 . S
C1087 H1071 0.959 . S
C1087 H1072 0.959 . S
C1087 H1073 0.961 . S
C1087 C1086 1.502 . S
C1088 H1074 0.960 . S
C1088 H1075 0.961 . S
C1088 H1076 0.959 . S
C1088 C1086 1.561 . S
C1089 C1086 1.526 . S
C1089 C1090 1.396 . S
C1089 C1094 1.390 . S
C1090 C1084 1.465 . S
C1090 C1089 1.396 . S
C1090 C1091 1.399 . S
C1091 H1077 0.929 . S
C1091 C1090 1.399 . S
C1091 C1092 1.385 . S
C1092 H1078 0.931 . S
C1092 C1091 1.385 . S
C1092 C1093 1.389 . S
C1093 C1092 1.389 . S
C1093 C1094 1.387 . S
C1094 H1079 0.930 . S
C1094 C1089 1.390 . S
C1094 C1093 1.387 . S
H1095 C1107 0.930 . S
H1096 C1109 0.930 . S
H1097 C1110 0.930 . S
H1098 C1114 0.959 . S
H1099 C1114 0.959 . S
H1100 C1114 0.961 . S
H1101 C1115 0.960 . S
H1102 C1115 0.961 . S
H1103 C1115 0.959 . S
H1104 C1118 0.929 . S
H1105 C1119 0.931 . S
H1106 C1121 0.930 . S
C1107 H1095 0.930 . S
C1107 C1108 1.399 . S
C1107 C1112 1.399 . S
C1108 C1107 1.399 . S
C1108 C1109 1.376 . S
C1109 H1096 0.930 . S
C1109 C1108 1.376 . S
C1109 C1110 1.388 . S
C1110 H1097 0.930 . S
C1110 C1109 1.388 . S
C1110 C1111 1.390 . S
C1111 C1110 1.390 . S
C1111 C1112 1.394 . S
C1111 C1117 1.465 . S
C1112 C1107 1.399 . S
C1112 C1111 1.394 . S
C1112 C1113 1.516 . S
C1113 C1112 1.516 . S
C1113 C1114 1.502 . S
C1113 C1115 1.561 . S
C1113 C1116 1.526 . S
C1114 H1098 0.959 . S
C1114 H1099 0.959 . S
C1114 H1100 0.961 . S
C1114 C1113 1.502 . S
C1115 H1101 0.960 . S
C1115 H1102 0.961 . S
C1115 H1103 0.959 . S
C1115 C1113 1.561 . S
C1116 C1113 1.526 . S
C1116 C1117 1.396 . S
C1116 C1121 1.390 . S
C1117 C1111 1.465 . S
C1117 C1116 1.396 . S
C1117 C1118 1.399 . S
C1118 H1104 0.929 . S
C1118 C1117 1.399 . S
C1118 C1119 1.385 . S
C1119 H1105 0.931 . S
C1119 C1118 1.385 . S
C1119 C1120 1.389 . S
C1120 C1119 1.389 . S
C1120 C1121 1.387 . S
C1121 H1106 0.930 . S
C1121 C1116 1.390 . S
C1121 C1120 1.387 . S
H1122 C1134 0.930 . S
H1123 C1136 0.930 . S
H1124 C1137 0.930 . S
H1125 C1141 0.959 . S
H1126 C1141 0.959 . S
H1127 C1141 0.961 . S
H1128 C1142 0.960 . S
H1129 C1142 0.961 . S
H1130 C1142 0.959 . S
H1131 C1145 0.929 . S
H1132 C1146 0.931 . S
H1133 C1148 0.930 . S
C1134 H1122 0.930 . S
C1134 C1135 1.399 . S
C1134 C1139 1.399 . S
C1135 C1134 1.399 . S
C1135 C1136 1.376 . S
C1136 H1123 0.930 . S
C1136 C1135 1.376 . S
C1136 C1137 1.388 . S
C1137 H1124 0.930 . S
C1137 C1136 1.388 . S
C1137 C1138 1.390 . S
C1138 C1137 1.390 . S
C1138 C1139 1.394 . S
C1138 C1144 1.465 . S
C1139 C1134 1.399 . S
C1139 C1138 1.394 . S
C1139 C1140 1.516 . S
C1140 C1139 1.516 . S
C1140 C1141 1.502 . S
C1140 C1142 1.561 . S
C1140 C1143 1.526 . S
C1141 H1125 0.959 . S
C1141 H1126 0.959 . S
C1141 H1127 0.961 . S
C1141 C1140 1.502 . S
C1142 H1128 0.960 . S
C1142 H1129 0.961 . S
C1142 H1130 0.959 . S
C1142 C1140 1.561 . S
C1143 C1140 1.526 . S
C1143 C1144 1.396 . S
C1143 C1148 1.390 . S
C1144 C1138 1.465 . S
C1144 C1143 1.396 . S
C1144 C1145 1.399 . S
C1145 H1131 0.929 . S
C1145 C1144 1.399 . S
C1145 C1146 1.385 . S
C1146 H1132 0.931 . S
C1146 C1145 1.385 . S
C1146 C1147 1.389 . S
C1147 C1146 1.389 . S
C1147 C1148 1.387 . S
C1148 H1133 0.930 . S
C1148 C1143 1.390 . S
C1148 C1147 1.387 . S
H1149 C1161 0.930 . S
H1150 C1163 0.930 . S
H1151 C1164 0.930 . S
H1152 C1168 0.959 . S
H1153 C1168 0.959 . S
H1154 C1168 0.961 . S
H1155 C1169 0.960 . S
H1156 C1169 0.961 . S
H1157 C1169 0.959 . S
H1158 C1172 0.929 . S
H1159 C1173 0.931 . S
H1160 C1175 0.930 . S
C1161 H1149 0.930 . S
C1161 C1162 1.399 . S
C1161 C1166 1.399 . S
C1162 C1161 1.399 . S
C1162 C1163 1.376 . S
C1163 H1150 0.930 . S
C1163 C1162 1.376 . S
C1163 C1164 1.388 . S
C1164 H1151 0.930 . S
C1164 C1163 1.388 . S
C1164 C1165 1.390 . S
C1165 C1164 1.390 . S
C1165 C1166 1.394 . S
C1165 C1171 1.465 . S
C1166 C1161 1.399 . S
C1166 C1165 1.394 . S
C1166 C1167 1.516 . S
C1167 C1166 1.516 . S
C1167 C1168 1.502 . S
C1167 C1169 1.561 . S
C1167 C1170 1.526 . S
C1168 H1152 0.959 . S
C1168 H1153 0.959 . S
C1168 H1154 0.961 . S
C1168 C1167 1.502 . S
C1169 H1155 0.960 . S
C1169 H1156 0.961 . S
C1169 H1157 0.959 . S
C1169 C1167 1.561 . S
C1170 C1167 1.526 . S
C1170 C1171 1.396 . S
C1170 C1175 1.390 . S
C1171 C1165 1.465 . S
C1171 C1170 1.396 . S
C1171 C1172 1.399 . S
C1172 H1158 0.929 . S
C1172 C1171 1.399 . S
C1172 C1173 1.385 . S
C1173 H1159 0.931 . S
C1173 C1172 1.385 . S
C1173 C1174 1.389 . S
C1174 C1173 1.389 . S
C1174 C1175 1.387 . S
C1175 H1160 0.930 . S
C1175 C1170 1.390 . S
C1175 C1174 1.387 . S
H1176 C1188 0.930 . S
H1177 C1190 0.930 . S
H1178 C1191 0.930 . S
H1179 C1195 0.959 . S
H1180 C1195 0.959 . S
H1181 C1195 0.961 . S
H1182 C1196 0.960 . S
H1183 C1196 0.961 . S
H1184 C1196 0.959 . S
H1185 C1199 0.929 . S
H1186 C1200 0.931 . S
H1187 C1202 0.930 . S
C1188 H1176 0.930 . S
C1188 C1189 1.399 . S
C1188 C1193 1.399 . S
C1189 C1188 1.399 . S
C1189 C1190 1.376 . S
C1190 H1177 0.930 . S
C1190 C1189 1.376 . S
C1190 C1191 1.388 . S
C1191 H1178 0.930 . S
C1191 C1190 1.388 . S
C1191 C1192 1.390 . S
C1192 C1191 1.390 . S
C1192 C1193 1.394 . S
C1192 C1198 1.465 . S
C1193 C1188 1.399 . S
C1193 C1192 1.394 . S
C1193 C1194 1.516 . S
C1194 C1193 1.516 . S
C1194 C1195 1.502 . S
C1194 C1196 1.561 . S
C1194 C1197 1.526 . S
C1195 H1179 0.959 . S
C1195 H1180 0.959 . S
C1195 H1181 0.961 . S
C1195 C1194 1.502 . S
C1196 H1182 0.960 . S
C1196 H1183 0.961 . S
C1196 H1184 0.959 . S
C1196 C1194 1.561 . S
C1197 C1194 1.526 . S
C1197 C1198 1.396 . S
C1197 C1202 1.390 . S
C1198 C1192 1.465 . S
C1198 C1197 1.396 . S
C1198 C1199 1.399 . S
C1199 H1185 0.929 . S
C1199 C1198 1.399 . S
C1199 C1200 1.385 . S
C1200 H1186 0.931 . S
C1200 C1199 1.385 . S
C1200 C1201 1.389 . S
C1201 C1200 1.389 . S
C1201 C1202 1.387 . S
C1202 H1187 0.930 . S
C1202 C1197 1.390 . S
C1202 C1201 1.387 . S
H1203 C1215 0.930 . S
H1204 C1217 0.930 . S
H1205 C1218 0.930 . S
H1206 C1222 0.959 . S
H1207 C1222 0.959 . S
H1208 C1222 0.961 . S
H1209 C1223 0.960 . S
H1210 C1223 0.961 . S
H1211 C1223 0.959 . S
H1212 C1226 0.929 . S
H1213 C1227 0.931 . S
H1214 C1229 0.930 . S
C1215 H1203 0.930 . S
C1215 C1216 1.399 . S
C1215 C1220 1.399 . S
C1216 C1215 1.399 . S
C1216 C1217 1.376 . S
C1217 H1204 0.930 . S
C1217 C1216 1.376 . S
C1217 C1218 1.388 . S
C1218 H1205 0.930 . S
C1218 C1217 1.388 . S
C1218 C1219 1.390 . S
C1219 C1218 1.390 . S
C1219 C1220 1.394 . S
C1219 C1225 1.465 . S
C1220 C1215 1.399 . S
C1220 C1219 1.394 . S
C1220 C1221 1.516 . S
C1221 C1220 1.516 . S
C1221 C1222 1.502 . S
C1221 C1223 1.561 . S
C1221 C1224 1.526 . S
C1222 H1206 0.959 . S
C1222 H1207 0.959 . S
C1222 H1208 0.961 . S
C1222 C1221 1.502 . S
C1223 H1209 0.960 . S
C1223 H1210 0.961 . S
C1223 H1211 0.959 . S
C1223 C1221 1.561 . S
C1224 C1221 1.526 . S
C1224 C1225 1.396 . S
C1224 C1229 1.390 . S
C1225 C1219 1.465 . S
C1225 C1224 1.396 . S
C1225 C1226 1.399 . S
C1226 H1212 0.929 . S
C1226 C1225 1.399 . S
C1226 C1227 1.385 . S
C1227 H1213 0.931 . S
C1227 C1226 1.385 . S
C1227 C1228 1.389 . S
C1228 C1227 1.389 . S
C1228 C1229 1.387 . S
C1229 H1214 0.930 . S
C1229 C1224 1.390 . S
C1229 C1228 1.387 . S
H1230 C1242 0.930 . S
H1231 C1244 0.930 . S
H1232 C1245 0.930 . S
H1233 C1249 0.959 . S
H1234 C1249 0.959 . S
H1235 C1249 0.961 . S
H1236 C1250 0.960 . S
H1237 C1250 0.961 . S
H1238 C1250 0.959 . S
H1239 C1253 0.929 . S
H1240 C1254 0.931 . S
H1241 C1256 0.930 . S
C1242 H1230 0.930 . S
C1242 C1243 1.399 . S
C1242 C1247 1.399 . S
C1243 C1242 1.399 . S
C1243 C1244 1.376 . S
C1244 H1231 0.930 . S
C1244 C1243 1.376 . S
C1244 C1245 1.388 . S
C1245 H1232 0.930 . S
C1245 C1244 1.388 . S
C1245 C1246 1.390 . S
C1246 C1245 1.390 . S
C1246 C1247 1.394 . S
C1246 C1252 1.465 . S
C1247 C1242 1.399 . S
C1247 C1246 1.394 . S
C1247 C1248 1.516 . S
C1248 C1247 1.516 . S
C1248 C1249 1.502 . S
C1248 C1250 1.561 . S
C1248 C1251 1.526 . S
C1249 H1233 0.959 . S
C1249 H1234 0.959 . S
C1249 H1235 0.961 . S
C1249 C1248 1.502 . S
C1250 H1236 0.960 . S
C1250 H1237 0.961 . S
C1250 H1238 0.959 . S
C1250 C1248 1.561 . S
C1251 C1248 1.526 . S
C1251 C1252 1.396 . S
C1251 C1256 1.390 . S
C1252 C1246 1.465 . S
C1252 C1251 1.396 . S
C1252 C1253 1.399 . S
C1253 H1239 0.929 . S
C1253 C1252 1.399 . S
C1253 C1254 1.385 . S
C1254 H1240 0.931 . S
C1254 C1253 1.385 . S
C1254 C1255 1.389 . S
C1255 C1254 1.389 . S
C1255 C1256 1.387 . S
C1256 H1241 0.930 . S
C1256 C1251 1.390 . S
C1256 C1255 1.387 . S
H1257 C1269 0.930 . S
H1258 C1271 0.930 . S
H1259 C1272 0.930 . S
H1260 C1276 0.959 . S
H1261 C1276 0.959 . S
H1262 C1276 0.961 . S
H1263 C1277 0.960 . S
H1264 C1277 0.961 . S
H1265 C1277 0.959 . S
H1266 C1280 0.929 . S
H1267 C1281 0.931 . S
H1268 C1283 0.930 . S
C1269 H1257 0.930 . S
C1269 C1270 1.399 . S
C1269 C1274 1.399 . S
C1270 C1269 1.399 . S
C1270 C1271 1.376 . S
C1271 H1258 0.930 . S
C1271 C1270 1.376 . S
C1271 C1272 1.388 . S
C1272 H1259 0.930 . S
C1272 C1271 1.388 . S
C1272 C1273 1.390 . S
C1273 C1272 1.390 . S
C1273 C1274 1.394 . S
C1273 C1279 1.465 . S
C1274 C1269 1.399 . S
C1274 C1273 1.394 . S
C1274 C1275 1.516 . S
C1275 C1274 1.516 . S
C1275 C1276 1.502 . S
C1275 C1277 1.561 . S
C1275 C1278 1.526 . S
C1276 H1260 0.959 . S
C1276 H1261 0.959 . S
C1276 H1262 0.961 . S
C1276 C1275 1.502 . S
C1277 H1263 0.960 . S
C1277 H1264 0.961 . S
C1277 H1265 0.959 . S
C1277 C1275 1.561 . S
C1278 C1275 1.526 . S
C1278 C1279 1.396 . S
C1278 C1283 1.390 . S
C1279 C1273 1.465 . S
C1279 C1278 1.396 . S
C1279 C1280 1.399 . S
C1280 H1266 0.929 . S
C1280 C1279 1.399 . S
C1280 C1281 1.385 . S
C1281 H1267 0.931 . S
C1281 C1280 1.385 . S
C1281 C1282 1.389 . S
C1282 C1281 1.389 . S
C1282 C1283 1.387 . S
C1283 H1268 0.930 . S
C1283 C1278 1.390 . S
C1283 C1282 1.387 . S
C649 C39 1.957 . S
C661 C356 1.945 . S
C676 C91 1.621 . S
C688 C409 1.632 . S
C715 C462 1.676 . S
C703 C128 1.696 . S
C742 C499 1.293 . S
C730 C188 1.339 . S
C769 C559 1.690 . S
C757 C250 1.704 . S
C796 C612 1.576 . S
C784 C304 1.569 . S
C811 C75 1.816 . S
C823 C463 1.802 . S
C838 C144 1.588 . S
C850 C506 1.595 . S
C877 C552 1.736 . S
C865 C198 1.749 . S
C904 C605 1.306 . S
C892 C234 1.355 . S
C919 C294 1.636 . S
C931 C357 1.645 . S
C958 C410 1.457 . S
C946 C29 1.486 . S
C985 C516 1.950 . S
C973 C38 1.948 . S
C1000 C92 1.620 . S
C1012 C568 1.640 . S
C1039 C621 1.691 . S
C1027 C135 1.688 . S
C1054 C181 1.341 . S
C1066 C347 1.297 . S
C1081 C251 1.696 . S
C1093 C400 1.701 . S
C1108 C303 1.590 . S
C1120 C453 1.531 . S
C1135 C82 1.811 . S
C1147 C622 1.818 . S
C1174 C340 1.571 . S
C1162 C145 1.594 . S
C1189 C197 1.742 . S
C1201 C393 1.737 . S
C1216 C241 1.333 . S
C1228 C446 1.353 . S
C1243 C287 1.640 . S
C1255 C515 1.635 . S
C1270 C22 1.482 . S
C1282 C569 1.450 . S
