# Generated by pormake.
# Topology ocu, (6,8)-cn, num edge types: 1
# Building blocks:
#     Node 0, Type 0, BuildingBlock: JUFBIX_clean_sbu_0, # of connection points: 6
#     Node 1, Type 0, BuildingBlock: JUFBIX_clean_sbu_0, # of connection points: 6
#     Node 2, Type 0, BuildingBlock: JUFBIX_clean_sbu_0, # of connection points: 6
#     Node 3, Type 0, BuildingBlock: JUFBIX_clean_sbu_0, # of connection points: 6
#     Node 4, Type 0, BuildingBlock: JUFBIX_clean_sbu_0, # of connection points: 6
#     Node 5, Type 0, BuildingBlock: JUFBIX_clean_sbu_0, # of connection points: 6
#     Node 6, Type 0, BuildingBlock: JUFBIX_clean_sbu_0, # of connection points: 6
#     Node 7, Type 0, BuildingBlock: JUFBIX_clean_sbu_0, # of connection points: 6
#     Node 8, Type 1, BuildingBlock: AJUNOK_clean_sbu_0, # of connection points: 8
#     Node 9, Type 1, BuildingBlock: AJUNOK_clean_sbu_0, # of connection points: 8
#     Node 10, Type 1, BuildingBlock: AJUNOK_clean_sbu_0, # of connection points: 8
#     Node 11, Type 1, BuildingBlock: AJUNOK_clean_sbu_0, # of connection points: 8
#     Node 12, Type 1, BuildingBlock: AJUNOK_clean_sbu_0, # of connection points: 8
#     Node 13, Type 1, BuildingBlock: AJUNOK_clean_sbu_0, # of connection points: 8
#     Edge 14, Type (0, 1), BuildingBlock: MIFKUJ_clean_linker_0, # of connection points: 2
#     Edge 15, Type (0, 1), BuildingBlock: MIFKUJ_clean_linker_0, # of connection points: 2
#     Edge 16, Type (0, 1), BuildingBlock: MIFKUJ_clean_linker_0, # of connection points: 2
#     Edge 17, Type (0, 1), BuildingBlock: MIFKUJ_clean_linker_0, # of connection points: 2
#     Edge 18, Type (0, 1), BuildingBlock: MIFKUJ_clean_linker_0, # of connection points: 2
#     Edge 19, Type (0, 1), BuildingBlock: MIFKUJ_clean_linker_0, # of connection points: 2
#     Edge 20, Type (0, 1), BuildingBlock: MIFKUJ_clean_linker_0, # of connection points: 2
#     Edge 21, Type (0, 1), BuildingBlock: MIFKUJ_clean_linker_0, # of connection points: 2
#     Edge 22, Type (0, 1), BuildingBlock: MIFKUJ_clean_linker_0, # of connection points: 2
#     Edge 23, Type (0, 1), BuildingBlock: MIFKUJ_clean_linker_0, # of connection points: 2
#     Edge 24, Type (0, 1), BuildingBlock: MIFKUJ_clean_linker_0, # of connection points: 2
#     Edge 25, Type (0, 1), BuildingBlock: MIFKUJ_clean_linker_0, # of connection points: 2
#     Edge 26, Type (0, 1), BuildingBlock: MIFKUJ_clean_linker_0, # of connection points: 2
#     Edge 27, Type (0, 1), BuildingBlock: MIFKUJ_clean_linker_0, # of connection points: 2
#     Edge 28, Type (0, 1), BuildingBlock: MIFKUJ_clean_linker_0, # of connection points: 2
#     Edge 29, Type (0, 1), BuildingBlock: MIFKUJ_clean_linker_0, # of connection points: 2
#     Edge 30, Type (0, 1), BuildingBlock: MIFKUJ_clean_linker_0, # of connection points: 2
#     Edge 31, Type (0, 1), BuildingBlock: MIFKUJ_clean_linker_0, # of connection points: 2
#     Edge 32, Type (0, 1), BuildingBlock: MIFKUJ_clean_linker_0, # of connection points: 2
#     Edge 33, Type (0, 1), BuildingBlock: MIFKUJ_clean_linker_0, # of connection points: 2
#     Edge 34, Type (0, 1), BuildingBlock: MIFKUJ_clean_linker_0, # of connection points: 2
#     Edge 35, Type (0, 1), BuildingBlock: MIFKUJ_clean_linker_0, # of connection points: 2
#     Edge 36, Type (0, 1), BuildingBlock: MIFKUJ_clean_linker_0, # of connection points: 2
#     Edge 37, Type (0, 1), BuildingBlock: MIFKUJ_clean_linker_0, # of connection points: 2
#     Edge 38, Type (0, 1), BuildingBlock: MIFKUJ_clean_linker_0, # of connection points: 2
#     Edge 39, Type (0, 1), BuildingBlock: MIFKUJ_clean_linker_0, # of connection points: 2
#     Edge 40, Type (0, 1), BuildingBlock: MIFKUJ_clean_linker_0, # of connection points: 2
#     Edge 41, Type (0, 1), BuildingBlock: MIFKUJ_clean_linker_0, # of connection points: 2
#     Edge 42, Type (0, 1), BuildingBlock: MIFKUJ_clean_linker_0, # of connection points: 2
#     Edge 43, Type (0, 1), BuildingBlock: MIFKUJ_clean_linker_0, # of connection points: 2
#     Edge 44, Type (0, 1), BuildingBlock: MIFKUJ_clean_linker_0, # of connection points: 2
#     Edge 45, Type (0, 1), BuildingBlock: MIFKUJ_clean_linker_0, # of connection points: 2
#     Edge 46, Type (0, 1), BuildingBlock: MIFKUJ_clean_linker_0, # of connection points: 2
#     Edge 47, Type (0, 1), BuildingBlock: MIFKUJ_clean_linker_0, # of connection points: 2
#     Edge 48, Type (0, 1), BuildingBlock: MIFKUJ_clean_linker_0, # of connection points: 2
#     Edge 49, Type (0, 1), BuildingBlock: MIFKUJ_clean_linker_0, # of connection points: 2
#     Edge 50, Type (0, 1), BuildingBlock: MIFKUJ_clean_linker_0, # of connection points: 2
#     Edge 51, Type (0, 1), BuildingBlock: MIFKUJ_clean_linker_0, # of connection points: 2
#     Edge 52, Type (0, 1), BuildingBlock: MIFKUJ_clean_linker_0, # of connection points: 2
#     Edge 53, Type (0, 1), BuildingBlock: MIFKUJ_clean_linker_0, # of connection points: 2
#     Edge 54, Type (0, 1), BuildingBlock: MIFKUJ_clean_linker_0, # of connection points: 2
#     Edge 55, Type (0, 1), BuildingBlock: MIFKUJ_clean_linker_0, # of connection points: 2
#     Edge 56, Type (0, 1), BuildingBlock: MIFKUJ_clean_linker_0, # of connection points: 2
#     Edge 57, Type (0, 1), BuildingBlock: MIFKUJ_clean_linker_0, # of connection points: 2
#     Edge 58, Type (0, 1), BuildingBlock: MIFKUJ_clean_linker_0, # of connection points: 2
#     Edge 59, Type (0, 1), BuildingBlock: MIFKUJ_clean_linker_0, # of connection points: 2
#     Edge 60, Type (0, 1), BuildingBlock: MIFKUJ_clean_linker_0, # of connection points: 2
#     Edge 61, Type (0, 1), BuildingBlock: MIFKUJ_clean_linker_0, # of connection points: 2
# Relax obj value: 0.250
# Max RMSD: 0.332
# Mean RMSD: 0.234
data_MOF--net-ocu--node1-JUFBIX_clean_sbu_0--node2-AJUNOK_clean_sbu_0--edge1-MIFKUJ_clean_linker_0
_symmetry_space_group_name_H-M    P1
_symmetry_Int_Tables_number       1
_symmetry_cell_setting            triclinic
loop_
_symmetry_equiv_pos_as_xyz
'x, y, z'
_cell_length_a     52.001905
_cell_length_b     52.79836
_cell_length_c     44.975268
_cell_angle_alpha  99.47973
_cell_angle_beta   99.006117
_cell_angle_gamma 101.40141
loop_
_atom_site_label
_atom_site_type_symbol
_atom_site_fract_x
_atom_site_fract_y
_atom_site_fract_z
_atom_type_partial_charge
Co0 Co 0.23737 0.23951 0.24687 0.0
C1 C 0.23573 0.27919 0.29527 0.0
Co2 Co 0.27236 0.27287 0.2571 0.0
C3 C 0.20835 0.18607 0.24012 0.0
C4 C 0.18222 0.2116 0.23072 0.0
N5 N 0.20825 0.21122 0.23796 0.0
N6 N 0.18343 0.17083 0.23558 0.0
C7 C 0.16696 0.18686 0.22919 0.0
H8 H 0.22639 0.17944 0.24679 0.0
H9 H 0.17475 0.22909 0.22875 0.0
C10 C 0.27407 0.23314 0.20886 0.0
N11 N 0.30151 0.30111 0.26534 0.0
C12 C 0.3086 0.31593 0.24503 0.0
C13 C 0.32119 0.3102 0.29054 0.0
N14 N 0.3318 0.33377 0.25633 0.0
C15 C 0.34018 0.33014 0.28483 0.0
C16 C 0.28051 0.23262 0.28788 0.0
O17 O 0.25177 0.22249 0.2147 0.0
O18 O 0.28619 0.25609 0.22394 0.0
O19 O 0.29159 0.25521 0.28392 0.0
O20 O 0.25626 0.2227 0.2749 0.0
O21 O 0.25846 0.28951 0.29009 0.0
H22 H 0.32221 0.30221 0.31124 0.0
H23 H 0.29783 0.31267 0.22159 0.0
O24 O 0.22308 0.25666 0.27936 0.0
O25 O 0.21869 0.25646 0.21906 0.0
O26 O 0.25288 0.29024 0.23004 0.0
C27 C 0.22911 0.27947 0.2159 0.0
H28 H 0.14541 0.18189 0.2268 0.0
H29 H 0.35894 0.34056 0.2999 0.0
Co30 Co 0.77314 0.26756 0.24605 0.0
C31 C 0.77583 0.30105 0.30048 0.0
Co32 Co 0.73751 0.25823 0.26604 0.0
C33 C 0.80107 0.2767 0.19859 0.0
C34 C 0.82857 0.27937 0.24029 0.0
N35 N 0.80229 0.27477 0.22816 0.0
N36 N 0.82546 0.28267 0.19158 0.0
C37 C 0.84294 0.28442 0.2178 0.0
H38 H 0.78251 0.27504 0.18288 0.0
H39 H 0.83671 0.27965 0.26403 0.0
C40 C 0.73471 0.22414 0.21207 0.0
N41 N 0.70855 0.25093 0.28409 0.0
C42 C 0.71016 0.24954 0.31385 0.0
C43 C 0.68223 0.24416 0.27171 0.0
N44 N 0.686 0.24149 0.32067 0.0
C45 C 0.66825 0.2382 0.29423 0.0
C46 C 0.73291 0.29249 0.22646 0.0
O47 O 0.75765 0.23841 0.21317 0.0
O48 O 0.72209 0.22944 0.23339 0.0
O49 O 0.7209 0.2804 0.24432 0.0
O50 O 0.75623 0.28979 0.22384 0.0
O51 O 0.75279 0.28684 0.29862 0.0
H52 H 0.6739 0.24239 0.24766 0.0
H53 H 0.72893 0.25321 0.32991 0.0
O54 O 0.78871 0.29648 0.27917 0.0
O55 O 0.78985 0.24572 0.2681 0.0
O56 O 0.75441 0.23571 0.2881 0.0
C57 C 0.77796 0.23352 0.28592 0.0
H58 H 0.86452 0.28975 0.2208 0.0
H59 H 0.64694 0.23011 0.2908 0.0
Co60 Co 0.76123 0.74655 0.27146 0.0
C61 C 0.79201 0.79146 0.25876 0.0
Co62 Co 0.74813 0.75519 0.22606 0.0
C63 C 0.77688 0.71791 0.3169 0.0
C64 C 0.78402 0.75914 0.3358 0.0
N65 N 0.77389 0.741 0.30967 0.0
N66 N 0.78881 0.72081 0.34652 0.0
C67 C 0.79324 0.7468 0.35855 0.0
H68 H 0.77089 0.69944 0.30036 0.0
H69 H 0.78557 0.78007 0.33774 0.0
C70 C 0.717 0.71076 0.23932 0.0
N71 N 0.73553 0.76071 0.18749 0.0
C72 C 0.72478 0.78082 0.18094 0.0
C73 C 0.73364 0.745 0.15992 0.0
N74 N 0.71618 0.77824 0.15056 0.0
C75 C 0.72184 0.75587 0.13709 0.0
C76 C 0.78452 0.72288 0.22573 0.0
O77 O 0.73271 0.71698 0.2652 0.0
O78 O 0.7206 0.72439 0.21894 0.0
O79 O 0.7711 0.73493 0.20918 0.0
O80 O 0.78289 0.72501 0.2539 0.0
O81 O 0.77544 0.78635 0.23348 0.0
H82 H 0.73969 0.72645 0.15661 0.0
H83 H 0.72292 0.79696 0.1981 0.0
O84 O 0.78945 0.77618 0.27763 0.0
O85 O 0.73963 0.76809 0.28908 0.0
O86 O 0.72531 0.77542 0.24361 0.0
C87 C 0.72498 0.77888 0.27218 0.0
H88 H 0.80359 0.75648 0.38164 0.0
H89 H 0.71671 0.74743 0.11271 0.0
Co90 Co 0.24039 0.77221 0.25732 0.0
C91 C 0.2851 0.76546 0.2972 0.0
Co92 Co 0.25778 0.73935 0.24095 0.0
C93 C 0.20714 0.80189 0.28588 0.0
C94 C 0.24519 0.82578 0.28469 0.0
N95 N 0.22952 0.80127 0.27456 0.0
N96 N 0.20851 0.82561 0.30342 0.0
C97 C 0.23233 0.84078 0.30237 0.0
H98 H 0.19085 0.78483 0.28274 0.0
H99 H 0.26557 0.8318 0.28165 0.0
C100 C 0.21263 0.74569 0.20136 0.0
N101 N 0.26867 0.71041 0.22389 0.0
C102 C 0.29156 0.70976 0.21371 0.0
C103 C 0.25261 0.68619 0.21243 0.0
N104 N 0.29001 0.68636 0.19569 0.0
C105 C 0.26571 0.67136 0.19487 0.0
C106 C 0.21824 0.72586 0.27527 0.0
O107 O 0.21278 0.76547 0.22181 0.0
O108 O 0.23012 0.73235 0.20599 0.0
O109 O 0.23496 0.71734 0.2609 0.0
O110 O 0.21698 0.74981 0.27665 0.0
O111 O 0.28579 0.74646 0.27618 0.0
H112 H 0.23193 0.68041 0.2145 0.0
H113 H 0.30805 0.72672 0.21702 0.0
O114 O 0.26743 0.77864 0.29275 0.0
O115 O 0.26394 0.79442 0.23801 0.0
O116 O 0.2805 0.76132 0.22071 0.0
C117 C 0.2799 0.78545 0.22272 0.0
H118 H 0.2409 0.86061 0.31543 0.0
H119 H 0.25751 0.65174 0.18101 0.0
Co120 Co 0.26883 0.75205 0.73679 0.0
C121 C 0.26853 0.79141 0.78476 0.0
Co122 Co 0.23468 0.74253 0.75913 0.0
C123 C 0.29553 0.75594 0.68701 0.0
C124 C 0.32357 0.76557 0.72977 0.0
N125 N 0.2972 0.75857 0.71757 0.0
N126 N 0.31976 0.7611 0.67948 0.0
C127 C 0.33754 0.7672 0.70632 0.0
H128 H 0.27682 0.75053 0.67054 0.0
H129 H 0.33202 0.76955 0.75408 0.0
C130 C 0.23607 0.70292 0.71167 0.0
N131 N 0.20613 0.73554 0.77805 0.0
C132 C 0.20688 0.74004 0.80855 0.0
C133 C 0.18028 0.72513 0.765 0.0
N134 N 0.18247 0.73274 0.81534 0.0
C135 C 0.16568 0.72327 0.78784 0.0
C136 C 0.22465 0.7685 0.71098 0.0
O137 O 0.25708 0.71913 0.71038 0.0
O138 O 0.22207 0.70931 0.73122 0.0
O139 O 0.21469 0.75904 0.73193 0.0
O140 O 0.24833 0.76724 0.70845 0.0
O141 O 0.24759 0.77538 0.78692 0.0
H142 H 0.17264 0.71893 0.74052 0.0
H143 H 0.22519 0.74834 0.82531 0.0
O144 O 0.28106 0.78526 0.76358 0.0
O145 O 0.28908 0.73688 0.765 0.0
O146 O 0.25472 0.7262 0.78661 0.0
C147 C 0.27893 0.72627 0.78512 0.0
H148 H 0.35901 0.77366 0.70893 0.0
H149 H 0.14449 0.71466 0.78423 0.0
Co150 Co 0.24957 0.24005 0.77319 0.0
C151 C 0.28739 0.27898 0.75751 0.0
Co152 Co 0.23909 0.25047 0.72807 0.0
C153 C 0.26815 0.21272 0.81967 0.0
C154 C 0.26735 0.25238 0.83863 0.0
N155 N 0.26129 0.23444 0.812 0.0
N156 N 0.27854 0.21648 0.84992 0.0
C157 C 0.2779 0.24138 0.86199 0.0
H158 H 0.2662 0.1947 0.80321 0.0
H159 H 0.26527 0.27251 0.84075 0.0
C160 C 0.2009 0.21222 0.74406 0.0
N161 N 0.22725 0.25634 0.68955 0.0
C162 C 0.22384 0.27936 0.68235 0.0
C163 C 0.21685 0.23814 0.66344 0.0
N164 N 0.21116 0.2763 0.65297 0.0
C165 C 0.20694 0.25036 0.6409 0.0
C166 C 0.26734 0.2106 0.72662 0.0
O167 O 0.21785 0.21368 0.76819 0.0
O168 O 0.20687 0.22589 0.72437 0.0
O169 O 0.25511 0.22351 0.71004 0.0
O170 O 0.26737 0.21465 0.75529 0.0
O171 O 0.2712 0.27543 0.73222 0.0
H172 H 0.21518 0.21715 0.66142 0.0
H173 H 0.22958 0.29786 0.69885 0.0
O174 O 0.28113 0.26627 0.77798 0.0
O175 O 0.23173 0.26567 0.79059 0.0
O176 O 0.22329 0.27747 0.74636 0.0
C177 C 0.22173 0.28031 0.77457 0.0
H178 H 0.28583 0.25141 0.88563 0.0
H179 H 0.19583 0.24058 0.61813 0.0
Co180 Co 0.74408 0.26954 0.75586 0.0
C181 C 0.79155 0.2626 0.78957 0.0
Co182 Co 0.75915 0.23636 0.73521 0.0
C183 C 0.71108 0.29899 0.78532 0.0
C184 C 0.74947 0.3229 0.78526 0.0
N185 N 0.73398 0.2983 0.77514 0.0
N186 N 0.71176 0.32299 0.80165 0.0
C187 C 0.73581 0.33816 0.8015 0.0
H188 H 0.69451 0.28203 0.7815 0.0
H189 H 0.76985 0.32904 0.78225 0.0
C190 C 0.71192 0.24319 0.70123 0.0
N191 N 0.76954 0.20785 0.71628 0.0
C192 C 0.79352 0.20767 0.70875 0.0
C193 C 0.75451 0.18325 0.70477 0.0
N194 N 0.79407 0.184 0.69265 0.0
C195 C 0.7696 0.16847 0.69021 0.0
C196 C 0.72396 0.22306 0.77457 0.0
O197 O 0.71423 0.26293 0.72269 0.0
O198 O 0.72908 0.22916 0.70286 0.0
O199 O 0.73908 0.21413 0.75788 0.0
O200 O 0.72278 0.24706 0.77672 0.0
O201 O 0.7895 0.24365 0.76733 0.0
H202 H 0.73371 0.17676 0.70605 0.0
H203 H 0.81012 0.22476 0.71464 0.0
O204 O 0.77371 0.27593 0.78901 0.0
O205 O 0.76544 0.292 0.73489 0.0
O206 O 0.77928 0.25862 0.71273 0.0
C207 C 0.77945 0.28306 0.71677 0.0
H208 H 0.74353 0.35842 0.81359 0.0
H209 H 0.76276 0.14824 0.67776 0.0
Co210 Co 0.73423 0.74111 0.74565 0.0
C211 C 0.73028 0.77918 0.79522 0.0
Co212 Co 0.76915 0.77473 0.76076 0.0
C213 C 0.70668 0.68733 0.7353 0.0
C214 C 0.67922 0.71231 0.7302 0.0
N215 N 0.70546 0.71249 0.73478 0.0
N216 N 0.68238 0.67151 0.73306 0.0
C217 C 0.66498 0.68716 0.72918 0.0
H218 H 0.72534 0.68126 0.73985 0.0
H219 H 0.67116 0.72971 0.73038 0.0
C220 C 0.77351 0.73682 0.71155 0.0
N221 N 0.79867 0.80323 0.77135 0.0
C222 C 0.80059 0.82678 0.76286 0.0
C223 C 0.82412 0.80269 0.78268 0.0
N224 N 0.82619 0.84035 0.76682 0.0
C225 C 0.84096 0.82535 0.77998 0.0
C226 C 0.77558 0.73352 0.78962 0.0
O227 O 0.75057 0.72521 0.71478 0.0
O228 O 0.78467 0.75931 0.72848 0.0
O229 O 0.78697 0.75653 0.78754 0.0
O230 O 0.7519 0.72369 0.77457 0.0
O231 O 0.75388 0.78988 0.79304 0.0
H232 H 0.83049 0.7859 0.78958 0.0
H233 H 0.78367 0.83296 0.75166 0.0
O234 O 0.71795 0.75762 0.77687 0.0
O235 O 0.71684 0.75819 0.71708 0.0
O236 O 0.75036 0.79254 0.73337 0.0
C237 C 0.72752 0.78184 0.71647 0.0
H238 H 0.64379 0.6817 0.72919 0.0
H239 H 0.86255 0.82883 0.78403 0.0
Cd240 Cd 0.00714 0.97895 0.53402 0.0
Cd241 Cd 0.00759 0.03466 0.45897 0.0
C242 C 0.06617 0.96467 0.54303 0.0
N243 N 0.03961 0.95334 0.53333 0.0
C244 C 0.04804 0.91052 0.53494 0.0
C245 C 0.07523 0.9219 0.5471 0.0
C246 C 0.08438 0.94925 0.55007 0.0
C247 C 0.03047 0.92671 0.52836 0.0
H248 H 0.0732 0.98581 0.54702 0.0
H249 H 0.00925 0.91818 0.5211 0.0
C250 C 0.97097 0.97886 0.45809 0.0
C251 C 0.94775 0.0455 0.44747 0.0
C252 C 0.92882 0.06038 0.4417 0.0
C253 C 0.93616 0.08797 0.45089 0.0
C254 C 0.9621 0.09966 0.46796 0.0
C255 C 0.98045 0.08399 0.4732 0.0
N256 N 0.97324 0.05748 0.46222 0.0
H257 H 0.94239 0.02465 0.43801 0.0
H258 H 1.00097 0.09322 0.48412 0.0
C259 C 0.02112 0.98169 0.42183 0.0
N260 N 0.03135 0.0041 0.4436 0.0
C261 C 0.07069 0.98939 0.4597 0.0
C262 C 0.05961 0.9652 0.43938 0.0
C263 C 0.03492 0.96163 0.41958 0.0
C264 C 0.05613 0.00876 0.46131 0.0
H265 H 0.00185 0.97883 0.40714 0.0
H266 H 0.06407 0.02715 0.47769 0.0
C267 C 0.04253 0.03324 0.53178 0.0
C268 C 0.97459 0.95095 0.56736 0.0
N269 N 0.98684 0.01328 0.54845 0.0
C270 C 0.99789 0.03423 0.57204 0.0
C271 C 0.98591 0.05562 0.57597 0.0
C272 C 0.96219 0.05507 0.55575 0.0
C273 C 0.95067 0.03265 0.53262 0.0
C274 C 0.96317 0.01171 0.52981 0.0
C275 C 0.03895 0.06945 0.43153 0.0
O276 O 0.98931 0.98361 0.48177 0.0
O277 O 0.97221 0.99496 0.43996 0.0
O278 O 0.02354 0.02585 0.50876 0.0
O279 O 0.04444 0.01796 0.55069 0.0
O280 O 0.96977 0.94479 0.5381 0.0
O281 O 0.99527 0.9689 0.58041 0.0
O282 O 0.0445 0.07093 0.46045 0.0
O283 O 0.01823 0.05254 0.41613 0.0
H284 H 0.01623 0.03461 0.5874 0.0
H285 H 0.9541 0.99419 0.51256 0.0
H286 H 0.04008 0.88956 0.5325 0.0
H287 H 0.10525 0.95877 0.559 0.0
H288 H 0.90927 0.05045 0.42806 0.0
H289 H 0.96858 0.12084 0.47581 0.0
H290 H 0.0899 0.99289 0.47497 0.0
H291 H 0.02628 0.94343 0.40292 0.0
H292 H 0.99486 0.07218 0.59487 0.0
H293 H 0.9322 0.03126 0.51683 0.0
Cd294 Cd 0.47817 0.99462 0.04261 0.0
Cd295 Cd 0.53027 0.01884 0.96336 0.0
C296 C 0.52067 0.96825 0.07766 0.0
N297 N 0.51042 0.97035 0.04872 0.0
C298 C 0.53772 0.94362 0.02746 0.0
C299 C 0.5485 0.94095 0.05704 0.0
C300 C 0.53989 0.95355 0.0824 0.0
C301 C 0.51849 0.95841 0.02379 0.0
H302 H 0.51387 0.97801 0.09703 0.0
H303 H 0.50992 0.96004 0.00098 0.0
C304 C 0.4745 0.97921 0.96075 0.0
C305 C 0.47984 0.03701 0.93212 0.0
C306 C 0.45858 0.04931 0.92867 0.0
C307 C 0.45489 0.06707 0.95372 0.0
C308 C 0.47256 0.07146 0.98206 0.0
C309 C 0.49344 0.05841 0.98457 0.0
N310 N 0.49658 0.04159 0.95976 0.0
H311 H 0.4829 0.02358 0.91278 0.0
H312 H 0.50723 0.06187 0.00624 0.0
C313 C 0.54439 0.96796 0.92536 0.0
N314 N 0.55067 0.98298 0.95423 0.0
C315 C 0.58513 0.96056 0.96837 0.0
C316 C 0.57974 0.94535 0.93837 0.0
C317 C 0.55852 0.94884 0.917 0.0
C318 C 0.57023 0.97926 0.97587 0.0
H319 H 0.52892 0.97143 0.90847 0.0
H320 H 0.57495 0.99141 0.99868 0.0
C321 C 0.53736 0.02998 0.04677 0.0
C322 C 0.44332 0.95933 0.07044 0.0
N323 N 0.45581 0.02952 0.04731 0.0
C324 C 0.46825 0.05385 0.06444 0.0
C325 C 0.45343 0.0727 0.07174 0.0
C326 C 0.42548 0.06643 0.06146 0.0
C327 C 0.4135 0.04159 0.04247 0.0
C328 C 0.42904 0.02336 0.03586 0.0
C329 C 0.56418 0.05467 0.93515 0.0
O330 O 0.48286 0.99194 0.98819 0.0
O331 O 0.48885 0.98412 0.94091 0.0
O332 O 0.52731 0.02205 0.01838 0.0
O333 O 0.52253 0.02484 0.06615 0.0
O334 O 0.44325 0.95441 0.04174 0.0
O335 O 0.45919 0.98054 0.08593 0.0
O336 O 0.57037 0.05407 0.96351 0.0
O337 O 0.54258 0.03892 0.92017 0.0
H338 H 0.48947 0.05824 0.07373 0.0
H339 H 0.41944 0.0038 0.02274 0.0
H340 H 0.54356 0.93383 0.00733 0.0
H341 H 0.54793 0.95207 0.1056 0.0
H342 H 0.44516 0.04488 0.90655 0.0
H343 H 0.47066 0.0852 0.00187 0.0
H344 H 0.60145 0.95891 0.98555 0.0
H345 H 0.55318 0.93731 0.89377 0.0
H346 H 0.4636 0.09143 0.08667 0.0
H347 H 0.39216 0.03594 0.0335 0.0
Cd348 Cd 0.98966 0.48516 0.0435 0.0
Cd349 Cd 0.01495 0.52199 0.94538 0.0
C350 C 0.04703 0.4776 0.08083 0.0
N351 N 0.02319 0.46432 0.06251 0.0
C352 C 0.03462 0.42293 0.06578 0.0
C353 C 0.05928 0.43595 0.08509 0.0
C354 C 0.0655 0.46374 0.09232 0.0
C355 C 0.01689 0.43752 0.0547 0.0
H356 H 0.05158 0.49892 0.08683 0.0
H357 H 0.99786 0.42742 0.04001 0.0
C358 C 0.97825 0.46792 0.96077 0.0
C359 C 0.95746 0.52797 0.90527 0.0
C360 C 0.93844 0.5416 0.89445 0.0
C361 C 0.9421 0.56877 0.90621 0.0
C362 C 0.96453 0.58127 0.92945 0.0
C363 C 0.98277 0.56691 0.93979 0.0
N364 N 0.97925 0.54087 0.92738 0.0
H365 H 0.95509 0.50729 0.89561 0.0
H366 H 1.00018 0.57671 0.95741 0.0
C367 C 0.0247 0.47068 0.89811 0.0
N368 N 0.03771 0.49267 0.91968 0.0
C369 C 0.07985 0.48154 0.91615 0.0
C370 C 0.06693 0.45838 0.89451 0.0
C371 C 0.03895 0.45305 0.88548 0.0
C372 C 0.0648 0.49831 0.92865 0.0
H373 H 0.00322 0.46658 0.89083 0.0
H374 H 0.0748 0.51574 0.9459 0.0
C375 C 0.02606 0.53886 0.02822 0.0
C376 C 0.94408 0.44682 0.04484 0.0
N377 N 0.97004 0.51755 0.06831 0.0
C378 C 0.98231 0.53519 0.09479 0.0
C379 C 0.96918 0.55371 0.10792 0.0
C380 C 0.94297 0.55389 0.09399 0.0
C381 C 0.93089 0.53517 0.06682 0.0
C382 C 0.94485 0.51736 0.05429 0.0
C383 C 0.05465 0.56714 0.94714 0.0
O384 O 0.98701 0.48095 0.988 0.0
O385 O 0.98396 0.47855 0.93852 0.0
O386 O 0.01766 0.52522 0.00117 0.0
O387 O 0.01998 0.52892 0.05077 0.0
O388 O 0.9469 0.45463 0.01999 0.0
O389 O 0.96251 0.45688 0.06842 0.0
O390 O 0.05448 0.55594 0.97009 0.0
O391 O 0.03702 0.55643 0.92298 0.0
H392 H 0.00234 0.53502 0.10567 0.0
H393 H 0.93544 0.50312 0.03334 0.0
H394 H 0.02907 0.40162 0.05913 0.0
H395 H 0.08415 0.47463 0.1073 0.0
H396 H 0.92153 0.53118 0.87641 0.0
H397 H 0.96802 0.60204 0.93954 0.0
H398 H 0.10135 0.48632 0.92391 0.0
H399 H 0.02824 0.43553 0.86863 0.0
H400 H 0.9796 0.56785 0.12862 0.0
H401 H 0.9106 0.5339 0.05543 0.0
Cd402 Cd 0.49022 0.46643 0.01801 0.0
Cd403 Cd 0.51635 0.535 0.96293 0.0
C404 C 0.54611 0.46509 0.05903 0.0
N405 N 0.53 0.45303 0.03145 0.0
C406 C 0.55482 0.41942 0.02603 0.0
C407 C 0.57087 0.43076 0.05519 0.0
C408 C 0.5668 0.45432 0.07128 0.0
C409 C 0.53415 0.43081 0.01467 0.0
H410 H 0.54203 0.48224 0.07245 0.0
H411 H 0.52064 0.42127 0.99316 0.0
C412 C 0.47606 0.48128 0.94654 0.0
C413 C 0.45919 0.55137 0.95842 0.0
C414 C 0.44094 0.567 0.95258 0.0
C415 C 0.45032 0.59407 0.9536 0.0
C416 C 0.47799 0.60498 0.96276 0.0
C417 C 0.49552 0.58858 0.96828 0.0
N418 N 0.48592 0.56221 0.96519 0.0
H419 H 0.45204 0.53035 0.95576 0.0
H420 H 0.51689 0.59665 0.97338 0.0
C421 C 0.53658 0.48592 0.93429 0.0
N422 N 0.54059 0.50268 0.96179 0.0
C423 C 0.56797 0.47764 0.98598 0.0
C424 C 0.56238 0.45898 0.95838 0.0
C425 C 0.547 0.4636 0.93215 0.0
C426 C 0.55646 0.49944 0.9873 0.0
H427 H 0.52439 0.48941 0.91425 0.0
H428 H 0.5597 0.5134 0.00875 0.0
C429 C 0.51797 0.53097 0.04484 0.0
C430 C 0.45498 0.4218 0.02708 0.0
N431 N 0.46221 0.491 0.03601 0.0
C432 C 0.45841 0.49462 0.06549 0.0
C433 C 0.4443 0.51317 0.07553 0.0
C434 C 0.43384 0.52741 0.05469 0.0
C435 C 0.43673 0.52197 0.02406 0.0
C436 C 0.45095 0.50349 0.01518 0.0
C437 C 0.55135 0.56355 0.93244 0.0
O438 O 0.49176 0.48302 0.97168 0.0
O439 O 0.48072 0.49955 0.9317 0.0
O440 O 0.51737 0.53223 0.01679 0.0
O441 O 0.51078 0.50887 0.05254 0.0
O442 O 0.44961 0.43053 0.00263 0.0
O443 O 0.47689 0.43296 0.04542 0.0
O444 O 0.55728 0.56643 0.96156 0.0
O445 O 0.52888 0.54875 0.91876 0.0
H446 H 0.46751 0.48417 0.08144 0.0
H447 H 0.4539 0.4999 0.99192 0.0
H448 H 0.55717 0.40114 0.013 0.0
H449 H 0.57881 0.46375 0.09376 0.0
H450 H 0.41988 0.5576 0.94536 0.0
H451 H 0.48613 0.62579 0.96437 0.0
H452 H 0.58032 0.47492 0.00642 0.0
H453 H 0.54309 0.4501 0.91019 0.0
H454 H 0.44205 0.51673 0.09929 0.0
H455 H 0.429 0.53263 0.00741 0.0
Cd456 Cd 0.97889 0.49942 0.54537 0.0
Cd457 Cd 0.02707 0.51273 0.45719 0.0
C458 C 0.03125 0.48519 0.58326 0.0
N459 N 0.01245 0.47775 0.5569 0.0
C460 C 0.0323 0.44285 0.53828 0.0
C461 C 0.05241 0.45033 0.56492 0.0
C462 C 0.05184 0.47201 0.58749 0.0
C463 C 0.01254 0.457 0.53469 0.0
H464 H 0.03053 0.50164 0.60072 0.0
H465 H 0.99702 0.45129 0.51424 0.0
C466 C 0.97322 0.47578 0.46609 0.0
C467 C 0.97017 0.52022 0.42106 0.0
C468 C 0.94772 0.53097 0.41759 0.0
C469 C 0.94671 0.5533 0.43895 0.0
C470 C 0.96856 0.56406 0.46349 0.0
C471 C 0.99016 0.55219 0.46657 0.0
N472 N 0.99047 0.53061 0.44569 0.0
H473 H 0.97109 0.50321 0.40453 0.0
H474 H 0.00682 0.56019 0.48567 0.0
C475 C 0.04216 0.45481 0.44293 0.0
N476 N 0.05332 0.48071 0.45536 0.0
C477 C 0.09726 0.47226 0.45948 0.0
C478 C 0.08643 0.44559 0.44546 0.0
C479 C 0.05837 0.43687 0.4378 0.0
C480 C 0.08033 0.48952 0.46399 0.0
H481 H 0.02071 0.44817 0.43575 0.0
H482 H 0.08887 0.51023 0.47332 0.0
C483 C 0.03736 0.53431 0.54107 0.0
C484 C 0.94409 0.463 0.57206 0.0
N485 N 0.95862 0.53534 0.55436 0.0
C486 C 0.96502 0.55011 0.58338 0.0
C487 C 0.95108 0.56932 0.5921 0.0
C488 C 0.93007 0.57326 0.57085 0.0
C489 C 0.92432 0.55808 0.5408 0.0
C490 C 0.93901 0.53928 0.53294 0.0
C491 C 0.05786 0.54828 0.42599 0.0
O492 O 0.9832 0.49239 0.49086 0.0
O493 O 0.98577 0.47613 0.44388 0.0
O494 O 0.02706 0.52416 0.51313 0.0
O495 O 0.02289 0.53159 0.56135 0.0
O496 O 0.94407 0.45908 0.54339 0.0
O497 O 0.96014 0.48379 0.58838 0.0
O498 O 0.05679 0.55481 0.45421 0.0
O499 O 0.04475 0.52525 0.41213 0.0
H500 H 0.98037 0.54628 0.60012 0.0
H501 H 0.93417 0.52731 0.51001 0.0
H502 H 0.03138 0.42588 0.52063 0.0
H503 H 0.06709 0.47877 0.6082 0.0
H504 H 0.93132 0.52168 0.39852 0.0
H505 H 0.9693 0.5817 0.48003 0.0
H506 H 0.11868 0.47994 0.46627 0.0
H507 H 0.04896 0.41667 0.42655 0.0
H508 H 0.95598 0.58014 0.61565 0.0
H509 H 0.90837 0.56043 0.52363 0.0
Cd510 Cd 0.49233 0.99233 0.55223 0.0
Cd511 Cd 0.51044 0.01156 0.44443 0.0
C512 C 0.54107 0.97967 0.59964 0.0
N513 N 0.52915 0.975 0.56948 0.0
C514 C 0.55321 0.94161 0.55723 0.0
C515 C 0.56519 0.9452 0.58838 0.0
C516 C 0.55928 0.96499 0.60961 0.0
C517 C 0.53515 0.95666 0.54831 0.0
H518 H 0.5355 0.9939 0.61618 0.0
H519 H 0.52504 0.953 0.52455 0.0
C520 C 0.47612 0.96331 0.47127 0.0
C521 C 0.45364 0.01987 0.40452 0.0
C522 C 0.43591 0.03457 0.39314 0.0
C523 C 0.44317 0.06239 0.40042 0.0
C524 C 0.4682 0.07453 0.41946 0.0
C525 C 0.48518 0.05916 0.43027 0.0
N526 N 0.47782 0.03238 0.42263 0.0
H527 H 0.44811 0.99853 0.39884 0.0
H528 H 0.50437 0.06864 0.44498 0.0
C529 C 0.51876 0.95989 0.39643 0.0
N530 N 0.52997 0.97757 0.42319 0.0
C531 C 0.56966 0.96072 0.42696 0.0
C532 C 0.55898 0.94258 0.39908 0.0
C533 C 0.53292 0.94199 0.38402 0.0
C534 C 0.55477 0.97798 0.43864 0.0
H535 H 0.4991 0.96003 0.38437 0.0
H536 H 0.56327 0.99222 0.45983 0.0
C537 C 0.52569 0.04071 0.52585 0.0
C538 C 0.45488 0.9507 0.56202 0.0
N539 N 0.47227 0.02422 0.57681 0.0
C540 C 0.47197 0.02797 0.60741 0.0
C541 C 0.45694 0.04471 0.62024 0.0
C542 C 0.4419 0.05758 0.60136 0.0
C543 C 0.44336 0.05385 0.57002 0.0
C544 C 0.45864 0.03702 0.55821 0.0
C545 C 0.55738 0.04629 0.4409 0.0
O546 O 0.48582 0.98023 0.49598 0.0
O547 O 0.48104 0.96911 0.44608 0.0
O548 O 0.51577 0.02397 0.50095 0.0
O549 O 0.52126 0.03466 0.55109 0.0
O550 O 0.44962 0.96189 0.53957 0.0
O551 O 0.47698 0.96027 0.58086 0.0
O552 O 0.55126 0.04366 0.46664 0.0
O553 O 0.54139 0.03266 0.41663 0.0
H554 H 0.4827 0.01732 0.62169 0.0
H555 H 0.45907 0.03357 0.53392 0.0
H556 H 0.55736 0.92696 0.5399 0.0
H557 H 0.56765 0.96832 0.6339 0.0
H558 H 0.41694 0.02426 0.37843 0.0
H559 H 0.47458 0.09579 0.42634 0.0
H560 H 0.58945 0.96166 0.43965 0.0
H561 H 0.52392 0.92846 0.36239 0.0
H562 H 0.45629 0.04671 0.64444 0.0
H563 H 0.43255 0.0636 0.5546 0.0
H564 H 0.13623 0.13477 0.21807 0.0
H565 H 0.11728 0.10792 0.25202 0.0
H566 H 0.19435 0.12527 0.31212 0.0
H567 H 0.21337 0.15244 0.27891 0.0
H568 H 0.14746 0.07317 0.31207 0.0
H569 H 0.17598 0.17039 0.33408 0.0
H570 H 0.18253 0.21237 0.31592 0.0
H571 H 0.099 0.19506 0.2752 0.0
H572 H 0.09216 0.15262 0.29258 0.0
H573 H 0.09297 0.08595 0.4492 0.0
H574 H 0.12428 0.10032 0.41649 0.0
H575 H 0.05791 0.09943 0.34522 0.0
H576 H 0.02657 0.08447 0.37738 0.0
H577 H 0.10532 0.1438 0.35587 0.0
H578 H 0.07739 0.04751 0.34004 0.0
H579 H 0.0725 0.00638 0.36003 0.0
H580 H 0.15746 0.02298 0.39234 0.0
H581 H 0.16276 0.06452 0.37308 0.0
C582 C 0.14942 0.13191 0.23776 0.0
C583 C 0.1759 0.14686 0.24661 0.0
C584 C 0.13864 0.11627 0.25692 0.0
C585 C 0.15438 0.11535 0.28486 0.0
C586 C 0.18195 0.12593 0.29065 0.0
C587 C 0.19275 0.14169 0.27157 0.0
C588 C 0.14112 0.11213 0.31099 0.0
C589 C 0.13855 0.08865 0.32201 0.0
C590 C 0.12984 0.13256 0.32404 0.0
C591 C 0.13362 0.15834 0.3144 0.0
C592 C 0.15906 0.17552 0.32114 0.0
C593 C 0.16282 0.19939 0.31102 0.0
C594 C 0.14117 0.20644 0.2945 0.0
C595 C 0.11573 0.1896 0.28805 0.0
C596 C 0.11191 0.16563 0.298 0.0
C597 C 0.08516 0.0896 0.42692 0.0
C598 C 0.05747 0.08403 0.41557 0.0
C599 C 0.103 0.09762 0.40829 0.0
C600 C 0.09321 0.10055 0.3785 0.0
C601 C 0.06567 0.09715 0.3682 0.0
C602 C 0.04786 0.08864 0.38651 0.0
C603 C 0.11119 0.10466 0.35676 0.0
C604 C 0.11461 0.12843 0.34643 0.0
C605 C 0.12356 0.08465 0.34489 0.0
C606 C 0.12044 0.05923 0.35542 0.0
C607 C 0.095 0.04247 0.35159 0.0
C608 C 0.09216 0.01909 0.36278 0.0
C609 C 0.11465 0.0121 0.37752 0.0
C610 C 0.14005 0.02843 0.38097 0.0
C611 C 0.14299 0.0519 0.36992 0.0
H612 H 0.1124 0.99401 0.38622 0.0
H613 H 0.14414 0.22491 0.28662 0.0
H614 H 0.83142 0.23657 0.29869 0.0
H615 H 0.85515 0.21148 0.32954 0.0
H616 H 0.78032 0.16979 0.34625 0.0
H617 H 0.7564 0.19595 0.31634 0.0
H618 H 0.81657 0.17922 0.39647 0.0
H619 H 0.81324 0.14092 0.29243 0.0
H620 H 0.81763 0.13976 0.23845 0.0
H621 H 0.90206 0.17278 0.2673 0.0
H622 H 0.89811 0.17445 0.3215 0.0
H623 H 0.88138 0.07915 0.44447 0.0
H624 H 0.85171 0.10287 0.41847 0.0
H625 H 0.92026 0.15743 0.40478 0.0
H626 H 0.94992 0.1334 0.42964 0.0
H627 H 0.88307 0.13724 0.3519 0.0
H628 H 0.88305 0.17477 0.45848 0.0
H629 H 0.8761 0.16944 0.51033 0.0
H630 H 0.79371 0.13111 0.47361 0.0
H631 H 0.80028 0.13579 0.42145 0.0
C632 C 0.81994 0.22202 0.30884 0.0
C633 C 0.79198 0.21795 0.30467 0.0
C634 C 0.83356 0.20761 0.32645 0.0
C635 C 0.81952 0.1882 0.33963 0.0
C636 C 0.7916 0.1845 0.33615 0.0
C637 C 0.77794 0.19935 0.31893 0.0
C638 C 0.83422 0.1717 0.35652 0.0
C639 C 0.83084 0.16976 0.38654 0.0
C640 C 0.8528 0.15915 0.34365 0.0
C641 C 0.85534 0.15797 0.31105 0.0
C642 C 0.83272 0.14807 0.28728 0.0
C643 C 0.83513 0.14731 0.25664 0.0
C644 C 0.86011 0.15624 0.24946 0.0
C645 C 0.88273 0.16588 0.2729 0.0
C646 C 0.88042 0.1667 0.30358 0.0
C647 C 0.89015 0.09631 0.43611 0.0
C648 C 0.91809 0.10436 0.43925 0.0
C649 C 0.87315 0.10994 0.42142 0.0
C650 C 0.88377 0.13199 0.40975 0.0
C651 C 0.91163 0.14049 0.41362 0.0
C652 C 0.92859 0.12688 0.42822 0.0
C653 C 0.86607 0.14552 0.39208 0.0
C654 C 0.86877 0.14672 0.36177 0.0
C655 C 0.84649 0.15675 0.40445 0.0
C656 C 0.84222 0.1554 0.43603 0.0
C657 C 0.86346 0.16517 0.46146 0.0
C658 C 0.8596 0.16224 0.49089 0.0
C659 C 0.83452 0.1498 0.49519 0.0
C660 C 0.81314 0.14065 0.47019 0.0
C661 C 0.81692 0.14346 0.4407 0.0
H662 H 0.83167 0.14715 0.51786 0.0
H663 H 0.86194 0.15565 0.22572 0.0
H664 H 0.84158 0.80035 0.29245 0.0
H665 H 0.86446 0.84153 0.32802 0.0
H666 H 0.80728 0.88115 0.28724 0.0
H667 H 0.78402 0.83963 0.25138 0.0
H668 H 0.874 0.90813 0.31546 0.0
H669 H 0.78724 0.87617 0.33606 0.0
H670 H 0.74754 0.84279 0.33838 0.0
H671 H 0.79587 0.81001 0.40134 0.0
H672 H 0.83605 0.84275 0.39869 0.0
H673 H 0.92299 0.98924 0.46258 0.0
H674 H 0.8807 0.96088 0.43339 0.0
H675 H 0.92033 0.89742 0.41371 0.0
H676 H 0.9628 0.92583 0.44302 0.0
H677 H 0.85015 0.89377 0.41523 0.0
H678 H 0.93046 0.91388 0.34884 0.0
H679 H 0.9704 0.94822 0.34888 0.0
H680 H 0.93006 0.00863 0.37826 0.0
H681 H 0.88999 0.97461 0.37848 0.0
C682 C 0.83465 0.81812 0.2901 0.0
C683 C 0.81101 0.81695 0.26958 0.0
C684 C 0.84757 0.84151 0.3105 0.0
C685 C 0.83699 0.86391 0.31055 0.0
C686 C 0.81543 0.86381 0.28751 0.0
C687 C 0.8024 0.84024 0.2669 0.0
C688 C 0.84646 0.88543 0.33759 0.0
C689 C 0.86813 0.90569 0.33712 0.0
C690 C 0.83868 0.88208 0.36578 0.0
C691 C 0.81474 0.86181 0.36692 0.0
C692 C 0.7895 0.86159 0.35001 0.0
C693 C 0.76688 0.84282 0.35146 0.0
C694 C 0.76917 0.8243 0.37002 0.0
C695 C 0.79412 0.82444 0.38705 0.0
C696 C 0.81684 0.84305 0.38551 0.0
C697 C 0.92227 0.96871 0.45362 0.0
C698 C 0.94591 0.95956 0.45448 0.0
C699 C 0.89809 0.95255 0.43712 0.0
C700 C 0.89769 0.92736 0.42121 0.0
C701 C 0.92045 0.91688 0.4261 0.0
C702 C 0.94466 0.93305 0.44277 0.0
C703 C 0.87777 0.91592 0.39287 0.0
C704 C 0.85481 0.89723 0.39336 0.0
C705 C 0.88366 0.92132 0.3646 0.0
C706 C 0.90731 0.94178 0.36352 0.0
C707 C 0.93011 0.93451 0.35506 0.0
C708 C 0.95276 0.95389 0.35515 0.0
C709 C 0.95273 0.98059 0.36348 0.0
C710 C 0.93005 0.98796 0.37179 0.0
C711 C 0.90739 0.96864 0.37184 0.0
H712 H 0.9703 0.99557 0.36359 0.0
H713 H 0.75163 0.80982 0.3712 0.0
H714 H 0.17273 0.79144 0.32484 0.0
H715 H 0.14453 0.80307 0.36107 0.0
H716 H 0.17699 0.88563 0.36551 0.0
H717 H 0.20426 0.87442 0.32832 0.0
H718 H 0.17502 0.86882 0.42494 0.0
H719 H 0.12156 0.86147 0.3209 0.0
H720 H 0.09895 0.83568 0.26933 0.0
H721 H 0.05316 0.77861 0.31002 0.0
H722 H 0.0758 0.80396 0.36187 0.0
H723 H 0.11173 0.96879 0.43652 0.0
H724 H 0.13445 0.93285 0.42986 0.0
H725 H 0.06256 0.87753 0.43446 0.0
H726 H 0.03948 0.91378 0.44061 0.0
H727 H 0.07916 0.86279 0.38452 0.0
H728 H 0.12153 0.88484 0.48849 0.0
H729 H 0.14448 0.91291 0.53881 0.0
H730 H 0.21126 0.94339 0.4997 0.0
H731 H 0.18879 0.91588 0.4491 0.0
C732 C 0.17366 0.81208 0.33308 0.0
C733 C 0.19086 0.83206 0.3236 0.0
C734 C 0.15779 0.8186 0.35413 0.0
C735 C 0.1592 0.8451 0.36616 0.0
C736 C 0.17617 0.86502 0.35678 0.0
C737 C 0.19168 0.85858 0.33548 0.0
C738 C 0.14184 0.85273 0.38705 0.0
C739 C 0.15393 0.8673 0.41658 0.0
C740 C 0.11421 0.8495 0.37629 0.0
C741 C 0.10061 0.83436 0.34518 0.0
C742 C 0.10684 0.84329 0.31882 0.0
C743 C 0.094 0.8288 0.28956 0.0
C744 C 0.07471 0.80546 0.2864 0.0
C745 C 0.06817 0.79664 0.3125 0.0
C746 C 0.081 0.81106 0.34182 0.0
C747 C 0.101 0.94907 0.43687 0.0
C748 C 0.07389 0.94385 0.43867 0.0
C749 C 0.11405 0.92855 0.43344 0.0
C750 C 0.10031 0.90255 0.43226 0.0
C751 C 0.07353 0.89749 0.4356 0.0
C752 C 0.06035 0.91806 0.43877 0.0
C753 C 0.11274 0.88078 0.42186 0.0
C754 C 0.09979 0.8633 0.39412 0.0
C755 C 0.13962 0.88142 0.43438 0.0
C756 C 0.15345 0.89808 0.46491 0.0
C757 C 0.14108 0.89757 0.49055 0.0
C758 C 0.15399 0.91339 0.51914 0.0
C759 C 0.17926 0.92985 0.52244 0.0
C760 C 0.19171 0.93055 0.49714 0.0
C761 C 0.17894 0.91476 0.4685 0.0
H762 H 0.18919 0.94207 0.5446 0.0
H763 H 0.06477 0.79427 0.26373 0.0
H764 H 0.21494 0.76128 0.64832 0.0
H765 H 0.18963 0.78502 0.61639 0.0
H766 H 0.17784 0.83306 0.69852 0.0
H767 H 0.20078 0.80758 0.72989 0.0
H768 H 0.13604 0.82454 0.66253 0.0
H769 H 0.22623 0.85248 0.6476 0.0
H770 H 0.26894 0.84672 0.63331 0.0
H771 H 0.22786 0.80944 0.54134 0.0
H772 H 0.18484 0.81464 0.5552 0.0
H773 H 0.11025 0.9347 0.60204 0.0
H774 H 0.13678 0.90711 0.62539 0.0
H775 H 0.10738 0.8451 0.54481 0.0
H776 H 0.0804 0.87261 0.52123 0.0
H777 H 0.16835 0.85877 0.57549 0.0
H778 H 0.07771 0.83451 0.59471 0.0
H779 H 0.03777 0.84536 0.61208 0.0
H780 H 0.08514 0.88272 0.70132 0.0
H781 H 0.12545 0.87245 0.68428 0.0
C782 C 0.20672 0.77685 0.65933 0.0
C783 C 0.20964 0.78265 0.69144 0.0
C784 C 0.19252 0.79066 0.64114 0.0
C785 C 0.18215 0.81143 0.65484 0.0
C786 C 0.18538 0.81716 0.6871 0.0
C787 C 0.19858 0.80267 0.70512 0.0
C788 C 0.16734 0.82687 0.636 0.0
C789 C 0.1435 0.83219 0.64379 0.0
C790 C 0.17642 0.83665 0.61093 0.0
C791 C 0.20229 0.83369 0.60254 0.0
C792 C 0.22629 0.8429 0.62439 0.0
C793 C 0.25055 0.83975 0.61636 0.0
C794 C 0.2511 0.82766 0.58646 0.0
C795 C 0.22739 0.81876 0.56451 0.0
C796 C 0.20308 0.82181 0.57243 0.0
C797 C 0.10977 0.9154 0.58898 0.0
C798 C 0.09321 0.90586 0.55973 0.0
C799 C 0.1249 0.89963 0.60242 0.0
C800 C 0.12402 0.8741 0.58683 0.0
C801 C 0.10836 0.8648 0.55715 0.0
C802 C 0.09283 0.88044 0.54384 0.0
C803 C 0.13782 0.85657 0.60273 0.0
C804 C 0.16122 0.85091 0.59428 0.0
C805 C 0.1289 0.8471 0.6278 0.0
C806 C 0.1046 0.85292 0.63813 0.0
C807 C 0.07964 0.84523 0.61795 0.0
C808 C 0.05693 0.85124 0.62775 0.0
C809 C 0.05893 0.86477 0.65777 0.0
C810 C 0.08362 0.87226 0.67807 0.0
C811 C 0.10639 0.86633 0.66836 0.0
H812 H 0.04133 0.86941 0.66531 0.0
H813 H 0.2699 0.82526 0.58028 0.0
H814 H 0.15365 0.22588 0.73544 0.0
H815 H 0.11635 0.19974 0.69529 0.0
H816 H 0.1524 0.13279 0.69374 0.0
H817 H 0.18982 0.159 0.73381 0.0
H818 H 0.15664 0.16485 0.64442 0.0
H819 H 0.09245 0.12178 0.69984 0.0
H820 H 0.0612 0.12164 0.73581 0.0
H821 H 0.01679 0.16564 0.68372 0.0
H822 H 0.04795 0.16625 0.64759 0.0
H823 H 0.09547 0.04605 0.55598 0.0
H824 H 0.12012 0.08963 0.58405 0.0
H825 H 0.05388 0.12255 0.55145 0.0
H826 H 0.02927 0.07866 0.52299 0.0
H827 H 0.05996 0.1233 0.61148 0.0
H828 H 0.11651 0.15492 0.54853 0.0
H829 H 0.14685 0.15555 0.51157 0.0
H830 H 0.20568 0.13528 0.57595 0.0
H831 H 0.17558 0.13398 0.61308 0.0
C832 C 0.15256 0.20502 0.72806 0.0
C833 C 0.17458 0.19437 0.73697 0.0
C834 C 0.1313 0.19017 0.70506 0.0
C835 C 0.13217 0.1647 0.69122 0.0
C836 C 0.15166 0.15257 0.70424 0.0
C837 C 0.17292 0.16744 0.72728 0.0
C838 C 0.11906 0.15445 0.65892 0.0
C839 C 0.13554 0.15544 0.63702 0.0
C840 C 0.09127 0.14459 0.64939 0.0
C841 C 0.0728 0.14447 0.67135 0.0
C842 C 0.07624 0.13174 0.6963 0.0
C843 C 0.05848 0.13148 0.71665 0.0
C844 C 0.03714 0.14379 0.71219 0.0
C845 C 0.03343 0.15627 0.68727 0.0
C846 C 0.0511 0.15652 0.66682 0.0
C847 C 0.08683 0.06285 0.55353 0.0
C848 C 0.06051 0.05926 0.53794 0.0
C849 C 0.10097 0.08784 0.56932 0.0
C850 C 0.08864 0.10928 0.57012 0.0
C851 C 0.0637 0.10624 0.55105 0.0
C852 C 0.04971 0.08122 0.53479 0.0
C853 C 0.09805 0.13109 0.59711 0.0
C854 C 0.08098 0.13313 0.61836 0.0
C855 C 0.12537 0.1439 0.60604 0.0
C856 C 0.14366 0.14436 0.58368 0.0
C857 C 0.13583 0.15039 0.55476 0.0
C858 C 0.15302 0.15089 0.53377 0.0
C859 C 0.17818 0.14547 0.54141 0.0
C860 C 0.1862 0.13953 0.57007 0.0
C861 C 0.16908 0.13896 0.59114 0.0
H862 H 0.19145 0.14587 0.52513 0.0
H863 H 0.02337 0.14352 0.72792 0.0
H864 H 0.83244 0.21729 0.67434 0.0
H865 H 0.86822 0.20552 0.64956 0.0
H866 H 0.83953 0.124 0.65399 0.0
H867 H 0.80438 0.13575 0.67976 0.0
H868 H 0.89305 0.13924 0.67024 0.0
H869 H 0.82268 0.14804 0.59069 0.0
H870 H 0.79307 0.17211 0.56444 0.0
H871 H 0.86146 0.22647 0.55114 0.0
H872 H 0.89151 0.20307 0.57797 0.0
H873 H 0.90884 0.05047 0.55252 0.0
H874 H 0.8867 0.08493 0.57 0.0
H875 H 0.96143 0.14281 0.58867 0.0
H876 H 0.98398 0.10829 0.57041 0.0
H877 H 0.89457 0.15044 0.56296 0.0
H878 H 0.96505 0.13861 0.64642 0.0
H879 H 0.99032 0.10802 0.66648 0.0
H880 H 0.91685 0.05472 0.66789 0.0
H881 H 0.8911 0.08456 0.64691 0.0
C882 C 0.83404 0.19694 0.67053 0.0
C883 C 0.81559 0.17737 0.67895 0.0
C884 C 0.85434 0.19026 0.65616 0.0
C885 C 0.85631 0.16393 0.64985 0.0
C886 C 0.83827 0.14447 0.65875 0.0
C887 C 0.81807 0.15113 0.67317 0.0
C888 C 0.87656 0.1561 0.63316 0.0
C889 C 0.89376 0.14223 0.64705 0.0
C890 C 0.8775 0.16011 0.60292 0.0
C891 C 0.85935 0.1741 0.58682 0.0
C892 C 0.83142 0.16536 0.58258 0.0
C893 C 0.81455 0.17886 0.56756 0.0
C894 C 0.82538 0.20091 0.5563 0.0
C895 C 0.8531 0.20948 0.56001 0.0
C896 C 0.87006 0.19613 0.57516 0.0
C897 C 0.92045 0.07065 0.55906 0.0
C898 C 0.94822 0.07668 0.56059 0.0
C899 C 0.90771 0.09032 0.56891 0.0
C900 C 0.92256 0.11619 0.58056 0.0
C901 C 0.94978 0.12286 0.5795 0.0
C902 C 0.96262 0.10311 0.56957 0.0
C903 C 0.9108 0.13379 0.60019 0.0
C904 C 0.89488 0.14896 0.58678 0.0
C905 C 0.91079 0.13094 0.63085 0.0
C906 C 0.92622 0.11374 0.64505 0.0
C907 C 0.95432 0.12034 0.65098 0.0
C908 C 0.96871 0.10313 0.66245 0.0
C909 C 0.9552 0.07948 0.66853 0.0
C910 C 0.92726 0.07302 0.66318 0.0
C911 C 0.91277 0.09005 0.65148 0.0
H912 H 0.96637 0.06617 0.67737 0.0
H913 H 0.81229 0.21126 0.54455 0.0
H914 H 0.7985 0.85518 0.71812 0.0
H915 H 0.81829 0.87833 0.68205 0.0
H916 H 0.89604 0.89365 0.74028 0.0
H917 H 0.87638 0.87136 0.77756 0.0
H918 H 0.85723 0.92972 0.684 0.0
H919 H 0.9303 0.86102 0.69091 0.0
H920 H 0.9321 0.81804 0.70493 0.0
H921 H 0.84663 0.79259 0.67832 0.0
H922 H 0.8444 0.83517 0.66351 0.0
H923 H 0.97313 0.96981 0.62667 0.0
H924 H 0.94078 0.95294 0.65653 0.0
H925 H 0.9014 0.8897 0.5795 0.0
H926 H 0.93368 0.90678 0.54901 0.0
H927 H 0.91248 0.87385 0.63665 0.0
H928 H 0.87147 0.935 0.59305 0.0
H929 H 0.86796 0.97717 0.57798 0.0
H930 H 0.8843 0.01571 0.67298 0.0
H931 H 0.88894 0.97404 0.68864 0.0
C932 C 0.81963 0.86424 0.7242 0.0
C933 C 0.83601 0.8604 0.75046 0.0
C934 C 0.83088 0.87753 0.70333 0.0
C935 C 0.85858 0.88697 0.7083 0.0
C936 C 0.87458 0.886 0.736 0.0
C937 C 0.86332 0.87306 0.75713 0.0
C938 C 0.87121 0.89396 0.68284 0.0
C939 C 0.86932 0.91764 0.67353 0.0
C940 C 0.88597 0.87742 0.66855 0.0
C941 C 0.88718 0.85142 0.6765 0.0
C942 C 0.91191 0.8462 0.68792 0.0
C943 C 0.913 0.82192 0.69602 0.0
C944 C 0.88947 0.80268 0.69273 0.0
C945 C 0.86481 0.8076 0.6811 0.0
C946 C 0.86364 0.8318 0.67284 0.0
C947 C 0.9577 0.95221 0.61607 0.0
C948 C 0.95594 0.93949 0.58558 0.0
C949 C 0.93913 0.94277 0.63308 0.0
C950 C 0.91864 0.92034 0.61999 0.0
C951 C 0.91707 0.90718 0.58978 0.0
C952 C 0.93548 0.91688 0.57251 0.0
C953 C 0.89959 0.91035 0.63867 0.0
C954 C 0.90019 0.88594 0.64673 0.0
C955 C 0.88332 0.92607 0.65136 0.0
C956 C 0.88083 0.95135 0.64203 0.0
C957 C 0.87473 0.95254 0.61075 0.0
C958 C 0.87254 0.97638 0.60209 0.0
C959 C 0.87608 0.99917 0.6245 0.0
C960 C 0.88177 0.99812 0.65562 0.0
C961 C 0.88421 0.97438 0.6644 0.0
H962 H 0.87432 0.01761 0.61776 0.0
H963 H 0.89035 0.78389 0.69901 0.0
H964 H 0.31991 0.25029 0.18758 0.0
H965 H 0.34447 0.22321 0.15847 0.0
H966 H 0.28345 0.15366 0.1545 0.0
H967 H 0.25873 0.18049 0.18325 0.0
H968 H 0.3341 0.14778 0.17571 0.0
H969 H 0.28897 0.17666 0.09041 0.0
H970 H 0.27503 0.20915 0.06157 0.0
H971 H 0.35722 0.24441 0.06343 0.0
H972 H 0.37168 0.21216 0.09238 0.0
H973 H 0.37648 0.05352 0.07744 0.0
H974 H 0.35023 0.08301 0.09833 0.0
H975 H 0.41044 0.15033 0.09317 0.0
H976 H 0.43645 0.12079 0.0709 0.0
H977 H 0.36144 0.15877 0.07688 0.0
H978 H 0.40687 0.12989 0.16121 0.0
H979 H 0.42131 0.09749 0.18982 0.0
H980 H 0.33957 0.06354 0.19166 0.0
H981 H 0.32457 0.09542 0.16248 0.0
C982 C 0.31147 0.2293 0.18002 0.0
C983 C 0.28728 0.21762 0.18773 0.0
C984 C 0.32554 0.21384 0.16336 0.0
C985 C 0.31582 0.18637 0.15426 0.0
C986 C 0.29137 0.17479 0.16126 0.0
C987 C 0.27717 0.19023 0.17758 0.0
C988 C 0.33183 0.16942 0.13917 0.0
C989 C 0.33975 0.14996 0.15388 0.0
C990 C 0.34 0.17278 0.1112 0.0
C991 C 0.3314 0.1922 0.09386 0.0
C992 C 0.30408 0.19148 0.08487 0.0
C993 C 0.29608 0.20978 0.0684 0.0
C994 C 0.31523 0.22884 0.06067 0.0
C995 C 0.34242 0.22959 0.06934 0.0
C996 C 0.35052 0.21129 0.08575 0.0
C997 C 0.384 0.07457 0.08011 0.0
C998 C 0.40874 0.08468 0.07247 0.0
C999 C 0.36905 0.09147 0.09248 0.0
C1000 C 0.37853 0.11897 0.09794 0.0
C1001 C 0.40275 0.1292 0.08941 0.0
C1002 C 0.41773 0.11226 0.0769 0.0
C1003 C 0.36343 0.13688 0.11325 0.0
C1004 C 0.3558 0.15659 0.0987 0.0
C1005 C 0.35564 0.13389 0.14154 0.0
C1006 C 0.36459 0.11484 0.15934 0.0
C1007 C 0.39195 0.11537 0.16749 0.0
C1008 C 0.40023 0.09711 0.18381 0.0
C1009 C 0.38135 0.07839 0.19243 0.0
C1010 C 0.35416 0.078 0.18488 0.0
C1011 C 0.34575 0.09615 0.16844 0.0
H1012 H 0.38781 0.06424 0.20502 0.0
H1013 H 0.30901 0.24301 0.04793 0.0
H1014 H 0.86868 0.31826 0.18597 0.0
H1015 H 0.87211 0.34056 0.14307 0.0
H1016 H 0.79732 0.29006 0.09205 0.0
H1017 H 0.79415 0.26679 0.13467 0.0
H1018 H 0.83711 0.30543 0.05525 0.0
H1019 H 0.78887 0.34323 0.12369 0.0
H1020 H 0.77865 0.35727 0.17472 0.0
H1021 H 0.85328 0.41495 0.20086 0.0
H1022 H 0.86417 0.40098 0.15016 0.0
H1023 H 0.8961 0.42919 0.0038 0.0
H1024 H 0.85641 0.39768 0.00962 0.0
H1025 H 0.90003 0.38787 0.09528 0.0
H1026 H 0.93881 0.41984 0.09038 0.0
H1027 H 0.84606 0.40087 0.0945 0.0
H1028 H 0.87727 0.30957 0.02811 0.0
H1029 H 0.8785 0.28925 0.975 0.0
H1030 H 0.8268 0.33605 0.9398 0.0
H1031 H 0.82465 0.35608 0.99259 0.0
C1032 C 0.85343 0.31118 0.1653 0.0
C1033 C 0.83081 0.29122 0.16401 0.0
C1034 C 0.85529 0.32409 0.14089 0.0
C1035 C 0.83454 0.31733 0.11497 0.0
C1036 C 0.81327 0.2957 0.11216 0.0
C1037 C 0.81146 0.28263 0.13658 0.0
C1038 C 0.83426 0.33496 0.09288 0.0
C1039 C 0.83873 0.32629 0.06347 0.0
C1040 C 0.83413 0.36173 0.10288 0.0
C1041 C 0.82726 0.37112 0.13301 0.0
C1042 C 0.8031 0.35892 0.14031 0.0
C1043 C 0.79721 0.36683 0.16921 0.0
C1044 C 0.81529 0.38701 0.191 0.0
C1045 C 0.83926 0.39938 0.18391 0.0
C1046 C 0.84526 0.39152 0.15505 0.0
C1047 C 0.89708 0.42016 0.02377 0.0
C1048 C 0.92044 0.42702 0.04675 0.0
C1049 C 0.8745 0.40202 0.02691 0.0
C1050 C 0.8754 0.39025 0.05271 0.0
C1051 C 0.89892 0.39682 0.07521 0.0
C1052 C 0.92109 0.41513 0.07242 0.0
C1053 C 0.85228 0.37181 0.05839 0.0
C1054 C 0.84313 0.37995 0.08533 0.0
C1055 C 0.84737 0.34458 0.0457 0.0
C1056 C 0.85127 0.33476 0.01434 0.0
C1057 C 0.86637 0.3157 0.00904 0.0
C1058 C 0.86705 0.30407 0.97899 0.0
C1059 C 0.85265 0.31131 0.9541 0.0
C1060 C 0.83802 0.33056 0.95914 0.0
C1061 C 0.83716 0.34214 0.98911 0.0
H1062 H 0.85248 0.30177 0.9309 0.0
H1063 H 0.81073 0.39306 0.2134 0.0
H1064 H 0.72086 0.79379 0.09708 0.0
H1065 H 0.6949 0.82178 0.0726 0.0
H1066 H 0.65136 0.82602 0.14671 0.0
H1067 H 0.67761 0.79883 0.17149 0.0
H1068 H 0.62176 0.80939 0.07619 0.0
H1069 H 0.68884 0.87506 0.15677 0.0
H1070 H 0.73538 0.89709 0.18187 0.0
H1071 H 0.75136 0.91675 0.0966 0.0
H1072 H 0.70495 0.89446 0.07091 0.0
H1073 H 0.54838 0.90475 0.0935 0.0
H1074 H 0.57961 0.87628 0.10006 0.0
H1075 H 0.6228 0.90998 0.03606 0.0
H1076 H 0.59179 0.93912 0.02993 0.0
H1077 H 0.65596 0.90603 0.08906 0.0
H1078 H 0.58612 0.85062 0.01193 0.0
H1079 H 0.53956 0.82957 0.98625 0.0
H1080 H 0.52894 0.78959 0.06073 0.0
H1081 H 0.57523 0.81096 0.08734 0.0
C1082 C 0.70575 0.80081 0.10799 0.0
C1083 C 0.7012 0.79443 0.13611 0.0
C1084 C 0.69109 0.81672 0.09414 0.0
C1085 C 0.67144 0.82583 0.10805 0.0
C1086 C 0.66659 0.81913 0.13584 0.0
C1087 C 0.6816 0.80379 0.14998 0.0
C1088 C 0.65554 0.84225 0.09375 0.0
C1089 C 0.62912 0.83051 0.07882 0.0
C1090 C 0.66573 0.86953 0.09641 0.0
C1091 C 0.69361 0.88271 0.11182 0.0
C1092 C 0.70238 0.88376 0.14328 0.0
C1093 C 0.7287 0.89638 0.15764 0.0
C1094 C 0.74636 0.90821 0.1408 0.0
C1095 C 0.73769 0.9075 0.10959 0.0
C1096 C 0.71139 0.89488 0.09512 0.0
C1097 C 0.56466 0.90628 0.08105 0.0
C1098 C 0.56775 0.92413 0.06125 0.0
C1099 C 0.58228 0.88984 0.08455 0.0
C1100 C 0.6032 0.89085 0.06819 0.0
C1101 C 0.60662 0.90887 0.04868 0.0
C1102 C 0.58889 0.92533 0.04509 0.0
C1103 C 0.6217 0.87336 0.07246 0.0
C1104 C 0.64866 0.88483 0.08551 0.0
C1105 C 0.61204 0.84573 0.06776 0.0
C1106 C 0.58419 0.83254 0.05174 0.0
C1107 C 0.57382 0.83752 0.02299 0.0
C1108 C 0.54746 0.82551 0.00825 0.0
C1109 C 0.53132 0.80823 0.02183 0.0
C1110 C 0.54149 0.80296 0.05022 0.0
C1111 C 0.5678 0.81503 0.06516 0.0
H1112 H 0.51093 0.79892 0.01034 0.0
H1113 H 0.76671 0.91799 0.15196 0.0
H1114 H 0.21425 0.71205 0.14972 0.0
H1115 H 0.17721 0.6888 0.10858 0.0
H1116 H 0.12605 0.73491 0.14729 0.0
H1117 H 0.16346 0.75801 0.18962 0.0
H1118 H 0.1046 0.68624 0.14144 0.0
H1119 H 0.13501 0.73277 0.06818 0.0
H1120 H 0.16424 0.75472 0.03725 0.0
H1121 H 0.18713 0.68231 0.00763 0.0
H1122 H 0.1584 0.66003 0.03875 0.0
H1123 H 0.00728 0.58315 0.03593 0.0
H1124 H 0.03391 0.62864 0.05471 0.0
H1125 H 0.10637 0.60058 0.05393 0.0
H1126 H 0.07974 0.55519 0.03546 0.0
H1127 H 0.10838 0.64874 0.03413 0.0
H1128 H 0.08378 0.60712 0.1173 0.0
H1129 H 0.05147 0.58481 0.14475 0.0
H1130 H 0.01515 0.65126 0.15309 0.0
H1131 H 0.04698 0.67381 0.12516 0.0
C1132 C 0.19531 0.71777 0.14918 0.0
C1133 C 0.19162 0.7365 0.17325 0.0
C1134 C 0.17411 0.70466 0.12523 0.0
C1135 C 0.1487 0.7101 0.12454 0.0
C1136 C 0.14547 0.73038 0.14727 0.0
C1137 C 0.16684 0.74358 0.17144 0.0
C1138 C 0.12522 0.69112 0.10391 0.0
C1139 C 0.10485 0.67888 0.11752 0.0
C1140 C 0.12561 0.68099 0.07282 0.0
C1141 C 0.14454 0.69472 0.05588 0.0
C1142 C 0.14656 0.72161 0.05542 0.0
C1143 C 0.16297 0.73409 0.03775 0.0
C1144 C 0.17751 0.71991 0.02046 0.0
C1145 C 0.17584 0.69327 0.02101 0.0
C1146 C 0.15946 0.68069 0.03861 0.0
C1147 C 0.02889 0.58696 0.03912 0.0
C1148 C 0.04167 0.56605 0.03409 0.0
C1149 C 0.04401 0.61279 0.04985 0.0
C1150 C 0.07206 0.61787 0.05581 0.0
C1151 C 0.08474 0.59703 0.04931 0.0
C1152 C 0.06962 0.57121 0.03884 0.0
C1153 C 0.08841 0.64422 0.07177 0.0
C1154 C 0.10749 0.65734 0.05742 0.0
C1155 C 0.08658 0.65546 0.10192 0.0
C1156 C 0.06749 0.64198 0.11877 0.0
C1157 C 0.06872 0.61686 0.1247 0.0
C1158 C 0.05052 0.60419 0.14038 0.0
C1159 C 0.03121 0.61659 0.15057 0.0
C1160 C 0.03008 0.64168 0.14511 0.0
C1161 C 0.04818 0.6544 0.12935 0.0
H1162 H 0.01719 0.6068 0.1628 0.0
H1163 H 0.19004 0.72955 0.00662 0.0
H1164 H 0.31132 0.83072 0.78542 0.0
H1165 H 0.33728 0.86336 0.83015 0.0
H1166 H 0.27885 0.83845 0.88394 0.0
H1167 H 0.2525 0.80546 0.8391 0.0
H1168 H 0.312 0.9006 0.89396 0.0
H1169 H 0.31696 0.81078 0.89723 0.0
H1170 H 0.31801 0.76561 0.87314 0.0
H1171 H 0.39154 0.79532 0.84534 0.0
H1172 H 0.3902 0.84078 0.86769 0.0
H1173 H 0.43516 0.97145 0.99333 0.0
H1174 H 0.39399 0.93669 0.9803 0.0
H1175 H 0.41698 0.90593 0.89586 0.0
H1176 H 0.45878 0.93962 0.90992 0.0
H1177 H 0.39311 0.8665 0.92159 0.0
H1178 H 0.37637 0.95286 0.89944 0.0
H1179 H 0.37943 0.99969 0.92138 0.0
H1180 H 0.33166 0.97659 0.98635 0.0
H1181 H 0.3285 0.92964 0.96487 0.0
C1182 C 0.30351 0.83264 0.80644 0.0
C1183 C 0.28022 0.81515 0.80898 0.0
C1184 C 0.31829 0.85139 0.83191 0.0
C1185 C 0.31004 0.8529 0.86024 0.0
C1186 C 0.28541 0.83745 0.86215 0.0
C1187 C 0.27051 0.81858 0.83656 0.0
C1188 C 0.32979 0.86699 0.88805 0.0
C1189 C 0.32938 0.89293 0.9009 0.0
C1190 C 0.35231 0.85677 0.8971 0.0
C1191 C 0.35341 0.82929 0.88411 0.0
C1192 C 0.33318 0.80775 0.88565 0.0
C1193 C 0.33381 0.78208 0.87227 0.0
C1194 C 0.35494 0.77762 0.85796 0.0
C1195 C 0.37525 0.79882 0.85656 0.0
C1196 C 0.3745 0.82455 0.86947 0.0
C1197 C 0.43171 0.95669 0.97257 0.0
C1198 C 0.45017 0.95793 0.95289 0.0
C1199 C 0.40815 0.93704 0.96499 0.0
C1200 C 0.40243 0.91881 0.93708 0.0
C1201 C 0.42116 0.9197 0.91768 0.0
C1202 C 0.44486 0.93911 0.92551 0.0
C1203 C 0.37598 0.9005 0.92589 0.0
C1204 C 0.37516 0.87373 0.91611 0.0
C1205 C 0.35242 0.90991 0.91976 0.0
C1206 C 0.3522 0.93787 0.9306 0.0
C1207 C 0.36632 0.95782 0.91821 0.0
C1208 C 0.36821 0.98435 0.93068 0.0
C1209 C 0.35587 0.9911 0.95536 0.0
C1210 C 0.34126 0.97133 0.96729 0.0
C1211 C 0.33936 0.94477 0.95494 0.0
H1212 H 0.35757 0.01164 0.96518 0.0
H1213 H 0.35566 0.75776 0.84804 0.0
H1214 H 0.19853 0.27947 0.825 0.0
H1215 H 0.17264 0.30994 0.84575 0.0
H1216 H 0.18741 0.35557 0.77656 0.0
H1217 H 0.21251 0.32466 0.75493 0.0
H1218 H 0.19558 0.38117 0.85204 0.0
H1219 H 0.13604 0.32767 0.75647 0.0
H1220 H 0.11427 0.28395 0.72422 0.0
H1221 H 0.0752 0.26272 0.79681 0.0
H1222 H 0.09773 0.30598 0.83007 0.0
H1223 H 0.112 0.47021 0.87059 0.0
H1224 H 0.13828 0.44016 0.85053 0.0
H1225 H 0.08437 0.3748 0.87099 0.0
H1226 H 0.05727 0.40477 0.88956 0.0
H1227 H 0.09659 0.35751 0.82146 0.0
H1228 H 0.15037 0.40606 0.91643 0.0
H1229 H 0.17452 0.44486 0.95651 0.0
H1230 H 0.22481 0.47093 0.89515 0.0
H1231 H 0.20072 0.43245 0.85454 0.0
C1232 C 0.19635 0.29605 0.81426 0.0
C1233 C 0.20746 0.29961 0.78823 0.0
C1234 C 0.18156 0.31341 0.82615 0.0
C1235 C 0.17806 0.33491 0.81261 0.0
C1236 C 0.18986 0.33904 0.78727 0.0
C1237 C 0.2041 0.32133 0.7749 0.0
C1238 C 0.16139 0.35262 0.82435 0.0
C1239 C 0.17396 0.37631 0.84507 0.0
C1240 C 0.13316 0.34553 0.81634 0.0
C1241 C 0.11887 0.31994 0.79592 0.0
C1242 C 0.12307 0.31359 0.76571 0.0
C1243 C 0.11054 0.2889 0.74721 0.0
C1244 C 0.0933 0.27057 0.7584 0.0
C1245 C 0.08857 0.27692 0.78816 0.0
C1246 C 0.10129 0.3015 0.80689 0.0
C1247 C 0.10577 0.44941 0.87078 0.0
C1248 C 0.08263 0.43989 0.88179 0.0
C1249 C 0.12093 0.4322 0.85949 0.0
C1250 C 0.11385 0.4051 0.85981 0.0
C1251 C 0.09045 0.39553 0.87044 0.0
C1252 C 0.07494 0.41269 0.88111 0.0
C1253 C 0.1307 0.38684 0.84891 0.0
C1254 C 0.1182 0.36277 0.82847 0.0
C1255 C 0.15903 0.39322 0.85802 0.0
C1256 C 0.17354 0.41649 0.88232 0.0
C1257 C 0.16644 0.42017 0.91139 0.0
C1258 C 0.18014 0.44209 0.93422 0.0
C1259 C 0.20113 0.46039 0.92835 0.0
C1260 C 0.20851 0.45676 0.89965 0.0
C1261 C 0.19485 0.43489 0.87672 0.0
H1262 H 0.21172 0.47734 0.94606 0.0
H1263 H 0.0836 0.25147 0.744 0.0
H1264 H 0.67216 0.22026 0.78065 0.0
H1265 H 0.64559 0.19189 0.80791 0.0
H1266 H 0.714 0.16038 0.83623 0.0
H1267 H 0.73962 0.18697 0.80632 0.0
H1268 H 0.67654 0.12318 0.82766 0.0
H1269 H 0.68624 0.21004 0.88518 0.0
H1270 H 0.68404 0.25687 0.89567 0.0
H1271 H 0.59891 0.23476 0.86391 0.0
H1272 H 0.60061 0.18785 0.85286 0.0
H1273 H 0.61843 0.07499 0.95083 0.0
H1274 H 0.6464 0.10369 0.92461 0.0
H1275 H 0.57631 0.10451 0.85979 0.0
H1276 H 0.54844 0.07512 0.88516 0.0
H1277 H 0.6155 0.15736 0.89001 0.0
H1278 H 0.61019 0.06837 0.83371 0.0
H1279 H 0.61603 0.02287 0.83105 0.0
H1280 H 0.69949 0.05246 0.8708 0.0
H1281 H 0.69402 0.09816 0.87412 0.0
C1282 C 0.68144 0.20717 0.79264 0.0
C1283 C 0.70798 0.20588 0.79142 0.0
C1284 C 0.66632 0.19111 0.80866 0.0
C1285 C 0.67774 0.17426 0.82526 0.0
C1286 C 0.70439 0.17302 0.82385 0.0
C1287 C 0.71917 0.18833 0.80679 0.0
C1288 C 0.66186 0.15755 0.84335 0.0
C1289 C 0.66361 0.13105 0.84161 0.0
C1290 C 0.64459 0.1672 0.86177 0.0
C1291 C 0.64359 0.19543 0.86796 0.0
C1292 C 0.66708 0.21518 0.88021 0.0
C1293 C 0.66592 0.24173 0.88629 0.0
C1294 C 0.64136 0.24875 0.88043 0.0
C1295 C 0.61791 0.22927 0.86842 0.0
C1296 C 0.61896 0.20271 0.86227 0.0
C1297 C 0.609 0.0813 0.93099 0.0
C1298 C 0.58121 0.07275 0.92007 0.0
C1299 C 0.625 0.09767 0.916 0.0
C1300 C 0.61347 0.10633 0.89023 0.0
C1301 C 0.58567 0.09819 0.87965 0.0
C1302 C 0.56977 0.0813 0.89413 0.0
C1303 C 0.63034 0.1235 0.87393 0.0
C1304 C 0.62869 0.14992 0.87609 0.0
C1305 C 0.64837 0.11412 0.85684 0.0
C1306 C 0.65164 0.08665 0.85444 0.0
C1307 C 0.62973 0.06517 0.84212 0.0
C1308 C 0.63298 0.03934 0.84045 0.0
C1309 C 0.6581 0.03477 0.85082 0.0
C1310 C 0.68003 0.05602 0.8628 0.0
C1311 C 0.67687 0.08188 0.86456 0.0
H1312 H 0.66058 0.01477 0.84951 0.0
H1313 H 0.64045 0.26925 0.88533 0.0
H1314 H 0.75666 0.68567 0.80433 0.0
H1315 H 0.78299 0.65658 0.82525 0.0
H1316 H 0.85562 0.71478 0.83144 0.0
H1317 H 0.82955 0.74389 0.81077 0.0
H1318 H 0.85773 0.66505 0.80236 0.0
H1319 H 0.83408 0.70482 0.89546 0.0
H1320 H 0.80283 0.71753 0.92797 0.0
H1321 H 0.76389 0.63604 0.91781 0.0
H1322 H 0.79474 0.62286 0.8849 0.0
H1323 H 0.95462 0.61762 0.89206 0.0
H1324 H 0.92423 0.64375 0.87293 0.0
H1325 H 0.85655 0.58164 0.87306 0.0
H1326 H 0.88701 0.55535 0.89256 0.0
H1327 H 0.8493 0.6306 0.89743 0.0
H1328 H 0.8729 0.59011 0.80639 0.0
H1329 H 0.90228 0.57628 0.77195 0.0
H1330 H 0.93921 0.65736 0.77589 0.0
H1331 H 0.9103 0.67168 0.81074 0.0
C1332 C 0.77821 0.69241 0.81054 0.0
C1333 C 0.79093 0.71717 0.8059 0.0
C1334 C 0.79325 0.67576 0.82253 0.0
C1335 C 0.82133 0.68346 0.82992 0.0
C1336 C 0.83401 0.70837 0.82587 0.0
C1337 C 0.81901 0.72509 0.81423 0.0
C1338 C 0.83769 0.6653 0.84076 0.0
C1339 C 0.85612 0.65779 0.82336 0.0
C1340 C 0.83496 0.65503 0.86756 0.0
C1341 C 0.81652 0.66288 0.88747 0.0
C1342 C 0.81871 0.68963 0.89996 0.0
C1343 C 0.80111 0.69691 0.9185 0.0
C1344 C 0.78133 0.67761 0.92487 0.0
C1345 C 0.77919 0.65097 0.91281 0.0
C1346 C 0.79675 0.64358 0.89424 0.0
C1347 C 0.93327 0.60951 0.88819 0.0
C1348 C 0.92329 0.58435 0.89392 0.0
C1349 C 0.91589 0.62443 0.87702 0.0
C1350 C 0.88805 0.61464 0.87131 0.0
C1351 C 0.87794 0.58962 0.87722 0.0
C1352 C 0.89538 0.57453 0.88816 0.0
C1353 C 0.8697 0.6307 0.85928 0.0
C1354 C 0.85087 0.63778 0.87638 0.0
C1355 C 0.87188 0.64044 0.83202 0.0
C1356 C 0.88963 0.63196 0.81146 0.0
C1357 C 0.88749 0.60499 0.80019 0.0
C1358 C 0.90401 0.59706 0.78053 0.0
C1359 C 0.92266 0.61593 0.7718 0.0
C1360 C 0.92479 0.64277 0.78271 0.0
C1361 C 0.90833 0.6508 0.8024 0.0
H1362 H 0.9354 0.60975 0.75654 0.0
H1363 H 0.76771 0.68329 0.93922 0.0
H1364 H 0.17474 0.26903 0.19915 0.0
H1365 H 0.14759 0.29583 0.17562 0.0
H1366 H 0.21918 0.35067 0.16957 0.0
H1367 H 0.24652 0.32453 0.19482 0.0
H1368 H 0.18713 0.3775 0.1872 0.0
H1369 H 0.17454 0.30358 0.10444 0.0
H1370 H 0.16349 0.2566 0.07909 0.0
H1371 H 0.08398 0.24811 0.09744 0.0
H1372 H 0.09465 0.29498 0.12323 0.0
H1373 H 0.11413 0.44612 0.09192 0.0
H1374 H 0.14437 0.42006 0.11193 0.0
H1375 H 0.07714 0.36484 0.1274 0.0
H1376 H 0.04688 0.39058 0.10717 0.0
H1377 H 0.10876 0.33885 0.10248 0.0
H1378 H 0.12279 0.41299 0.18704 0.0
H1379 H 0.13438 0.46018 0.21165 0.0
H1380 H 0.21212 0.46837 0.18818 0.0
H1381 H 0.20087 0.42128 0.16311 0.0
C1382 C 0.18475 0.28661 0.19246 0.0
C1383 C 0.21284 0.29447 0.19861 0.0
C1384 C 0.16914 0.30194 0.1788 0.0
C1385 C 0.18116 0.32514 0.17006 0.0
C1386 C 0.20928 0.33287 0.17592 0.0
C1387 C 0.22494 0.3178 0.1902 0.0
C1388 C 0.16443 0.3418 0.15598 0.0
C1389 C 0.17029 0.36904 0.16829 0.0
C1390 C 0.14201 0.33092 0.13166 0.0
C1391 C 0.13548 0.30276 0.11598 0.0
C1392 C 0.15475 0.29166 0.10323 0.0
C1393 C 0.14855 0.26505 0.08876 0.0
C1394 C 0.12307 0.24937 0.08671 0.0
C1395 C 0.10371 0.26028 0.09906 0.0
C1396 C 0.10982 0.28687 0.11357 0.0
C1397 C 0.10581 0.42856 0.09984 0.0
C1398 C 0.07801 0.4205 0.09787 0.0
C1399 C 0.12315 0.41364 0.11133 0.0
C1400 C 0.11317 0.39054 0.12157 0.0
C1401 C 0.08543 0.3825 0.11961 0.0
C1402 C 0.0681 0.39725 0.10794 0.0
C1403 C 0.13135 0.3744 0.1339 0.0
C1404 C 0.12574 0.34727 0.12124 0.0
C1405 C 0.15408 0.38541 0.15772 0.0
C1406 C 0.16088 0.41368 0.17292 0.0
C1407 C 0.14229 0.4249 0.18694 0.0
C1408 C 0.14881 0.45162 0.20101 0.0
C1409 C 0.17394 0.46728 0.2014 0.0
C1410 C 0.19264 0.45623 0.18781 0.0
C1411 C 0.18622 0.42952 0.1737 0.0
H1412 H 0.17894 0.48796 0.21228 0.0
H1413 H 0.11831 0.22877 0.07552 0.0
H1414 H 0.21741 0.73936 0.86993 0.0
H1415 H 0.20595 0.72859 0.91737 0.0
H1416 H 0.12208 0.71254 0.87666 0.0
H1417 H 0.13319 0.72501 0.83007 0.0
H1418 H 0.12796 0.72658 0.93627 0.0
H1419 H 0.16295 0.66554 0.86497 0.0
H1420 H 0.19912 0.65443 0.8394 0.0
H1421 H 0.251 0.66679 0.92725 0.0
H1422 H 0.21527 0.6786 0.95331 0.0
H1423 H 0.0493 0.60259 0.91084 0.0
H1424 H 0.08001 0.64443 0.91309 0.0
H1425 H 0.13342 0.63063 0.98921 0.0
H1426 H 0.10226 0.58856 0.98745 0.0
H1427 H 0.15753 0.64328 0.94063 0.0
H1428 H 0.10425 0.67935 0.0031 0.0
H1429 H 0.06261 0.68484 0.02031 0.0
H1430 H 0.03848 0.71458 0.9396 0.0
H1431 H 0.07971 0.70859 0.92176 0.0
C1432 C 0.19649 0.73441 0.87119 0.0
C1433 C 0.17618 0.73188 0.84535 0.0
C1434 C 0.19001 0.72826 0.89855 0.0
C1435 C 0.16321 0.71888 0.90022 0.0
C1436 C 0.14298 0.7194 0.87585 0.0
C1437 C 0.1494 0.72604 0.84881 0.0
C1438 C 0.15583 0.70357 0.92362 0.0
C1439 C 0.1346 0.70852 0.93774 0.0
C1440 C 0.16528 0.68052 0.92654 0.0
C1441 C 0.18665 0.67327 0.91101 0.0
C1442 C 0.18214 0.66602 0.87878 0.0
C1443 C 0.20257 0.65968 0.86422 0.0
C1444 C 0.22741 0.66009 0.8817 0.0
C1445 C 0.23184 0.66674 0.91377 0.0
C1446 C 0.21154 0.6733 0.92844 0.0
C1447 C 0.06749 0.60849 0.92821 0.0
C1448 C 0.07351 0.59233 0.94888 0.0
C1449 C 0.08484 0.63257 0.92975 0.0
C1450 C 0.10864 0.64089 0.95184 0.0
C1451 C 0.11486 0.62476 0.97248 0.0
C1452 C 0.09717 0.60075 0.97131 0.0
C1453 C 0.1279 0.66505 0.95038 0.0
C1454 C 0.15163 0.6619 0.94079 0.0
C1455 C 0.12001 0.68923 0.9505 0.0
C1456 C 0.0953 0.69361 0.96131 0.0
C1457 C 0.09007 0.68701 0.98912 0.0
C1458 C 0.06648 0.69016 0.99891 0.0
C1459 C 0.04791 0.70013 0.98108 0.0
C1460 C 0.05293 0.70694 0.95346 0.0
C1461 C 0.07648 0.70369 0.94355 0.0
H1462 H 0.02962 0.70255 0.98864 0.0
H1463 H 0.24318 0.65511 0.8704 0.0
H1464 H 0.28348 0.21382 0.91013 0.0
H1465 H 0.3079 0.18616 0.93671 0.0
H1466 H 0.32704 0.15258 0.85104 0.0
H1467 H 0.30279 0.17991 0.82454 0.0
H1468 H 0.31312 0.11542 0.88186 0.0
H1469 H 0.3713 0.2031 0.90463 0.0
H1470 H 0.38395 0.25105 0.92537 0.0
H1471 H 0.37557 0.23748 0.01526 0.0
H1472 H 0.36241 0.18943 0.99495 0.0
H1473 H 0.43822 0.08694 0.90384 0.0
H1474 H 0.40178 0.10913 0.89568 0.0
H1475 H 0.38712 0.1041 0.98651 0.0
H1476 H 0.42307 0.08049 0.99457 0.0
H1477 H 0.39223 0.15753 0.96483 0.0
H1478 H 0.34037 0.06771 0.94026 0.0
H1479 H 0.33011 0.02037 0.91661 0.0
H1480 H 0.33096 0.03925 0.8275 0.0
H1481 H 0.34076 0.08674 0.85051 0.0
C1482 C 0.29285 0.20045 0.89703 0.0
C1483 C 0.2912 0.19902 0.86526 0.0
C1484 C 0.30675 0.18469 0.91221 0.0
C1485 C 0.31942 0.1675 0.89587 0.0
C1486 C 0.31724 0.16561 0.86406 0.0
C1487 C 0.30328 0.18119 0.84889 0.0
C1488 C 0.33577 0.1519 0.91161 0.0
C1489 C 0.3303 0.12463 0.90015 0.0
C1490 C 0.35781 0.16383 0.93601 0.0
C1491 C 0.36546 0.19271 0.94817 0.0
C1492 C 0.37186 0.21036 0.92875 0.0
C1493 C 0.37917 0.23755 0.94044 0.0
C1494 C 0.38041 0.24731 0.97159 0.0
C1495 C 0.37444 0.22989 0.99112 0.0
C1496 C 0.36705 0.20268 0.97953 0.0
C1497 C 0.42703 0.09003 0.92197 0.0
C1498 C 0.43331 0.08152 0.94967 0.0
C1499 C 0.40635 0.10291 0.91732 0.0
C1500 C 0.39173 0.10788 0.94037 0.0
C1501 C 0.39823 0.10022 0.96846 0.0
C1502 C 0.41882 0.08691 0.97303 0.0
C1503 C 0.36989 0.1214 0.93436 0.0
C1504 C 0.37441 0.14825 0.94744 0.0
C1505 C 0.34719 0.10925 0.91112 0.0
C1506 C 0.34141 0.08075 0.89714 0.0
C1507 C 0.33852 0.06176 0.91564 0.0
C1508 C 0.33276 0.03491 0.90236 0.0
C1509 C 0.33015 0.0268 0.87064 0.0
C1510 C 0.33304 0.04555 0.85208 0.0
C1511 C 0.33853 0.07244 0.8652 0.0
H1512 H 0.32577 0.006 0.86045 0.0
H1513 H 0.3861 0.26836 0.98061 0.0
H1514 H 0.79731 0.2952 0.8448 0.0
H1515 H 0.83901 0.31686 0.8806 0.0
H1516 H 0.8819 0.27105 0.82677 0.0
H1517 H 0.83998 0.24917 0.79041 0.0
H1518 H 0.89193 0.29921 0.91329 0.0
H1519 H 0.91318 0.30995 0.81011 0.0
H1520 H 0.89654 0.30751 0.75493 0.0
H1521 H 0.84447 0.3584 0.77779 0.0
H1522 H 0.86077 0.36095 0.83313 0.0
H1523 H 0.99341 0.42389 0.97357 0.0
H1524 H 0.96974 0.3781 0.94996 0.0
H1525 H 0.90276 0.40617 0.90902 0.0
H1526 H 0.92695 0.45166 0.93121 0.0
H1527 H 0.91958 0.37653 0.86661 0.0
H1528 H 0.90449 0.37118 0.97118 0.0
H1529 H 0.91919 0.37114 0.02597 0.0
H1530 H 0.95796 0.30834 0.00217 0.0
H1531 H 0.94386 0.30809 0.94711 0.0
C1532 C 0.81544 0.28911 0.841 0.0
C1533 C 0.81548 0.27089 0.81448 0.0
C1534 C 0.83923 0.30126 0.86173 0.0
C1535 C 0.86348 0.29552 0.85631 0.0
C1536 C 0.86332 0.27559 0.8314 0.0
C1537 C 0.83938 0.26324 0.8106 0.0
C1538 C 0.88834 0.31498 0.8721 0.0
C1539 C 0.89843 0.31606 0.90318 0.0
C1540 C 0.89746 0.33642 0.85855 0.0
C1541 C 0.88818 0.33567 0.82555 0.0
C1542 C 0.89823 0.32065 0.80328 0.0
C1543 C 0.88884 0.31921 0.77204 0.0
C1544 C 0.86949 0.33281 0.76287 0.0
C1545 C 0.85948 0.3479 0.78493 0.0
C1546 C 0.86882 0.34939 0.81623 0.0
C1547 C 0.9733 0.42002 0.96021 0.0
C1548 C 0.96178 0.44099 0.95409 0.0
C1549 C 0.95985 0.39394 0.94669 0.0
C1550 C 0.93457 0.3887 0.92744 0.0
C1551 C 0.92239 0.40975 0.92344 0.0
C1552 C 0.93602 0.43567 0.93631 0.0
C1553 C 0.92142 0.362 0.9089 0.0
C1554 C 0.91376 0.35968 0.87701 0.0
C1555 C 0.91491 0.33945 0.92192 0.0
C1556 C 0.92354 0.33994 0.95503 0.0
C1557 C 0.91652 0.35765 0.9776 0.0
C1558 C 0.92471 0.35767 0.00871 0.0
C1559 C 0.93966 0.33998 0.01759 0.0
C1560 C 0.94646 0.32212 0.9953 0.0
C1561 C 0.93839 0.32203 0.96413 0.0
H1562 H 0.94583 0.34001 0.04172 0.0
H1563 H 0.86232 0.33166 0.73867 0.0
H1564 H 0.67857 0.78372 0.78467 0.0
H1565 H 0.6573 0.81171 0.8175 0.0
H1566 H 0.72898 0.83323 0.88753 0.0
H1567 H 0.75103 0.80687 0.85381 0.0
H1568 H 0.65316 0.81176 0.88591 0.0
H1569 H 0.73975 0.8786 0.89373 0.0
H1570 H 0.77533 0.89857 0.86862 0.0
H1571 H 0.7163 0.9145 0.80048 0.0
H1572 H 0.68054 0.89433 0.82544 0.0
H1573 H 0.60354 0.91376 0.97193 0.0
H1574 H 0.63299 0.88535 0.95611 0.0
H1575 H 0.62397 0.90676 0.86718 0.0
H1576 H 0.59584 0.93606 0.88322 0.0
H1577 H 0.67442 0.9078 0.88724 0.0
H1578 H 0.58913 0.84507 0.88144 0.0
H1579 H 0.55223 0.82403 0.9041 0.0
H1580 H 0.60855 0.80285 0.97064 0.0
H1581 H 0.64578 0.82381 0.94839 0.0
C1582 C 0.68973 0.79434 0.80715 0.0
C1583 C 0.71648 0.79325 0.81669 0.0
C1584 C 0.67761 0.8104 0.82582 0.0
C1585 C 0.69183 0.82523 0.85461 0.0
C1586 C 0.71801 0.82289 0.86492 0.0
C1587 C 0.73045 0.80753 0.84583 0.0
C1588 C 0.67922 0.8435 0.87319 0.0
C1589 C 0.65815 0.83285 0.88681 0.0
C1590 C 0.68567 0.87102 0.87439 0.0
C1591 C 0.70739 0.88357 0.86018 0.0
C1592 C 0.73435 0.88563 0.87287 0.0
C1593 C 0.75459 0.89726 0.85892 0.0
C1594 C 0.74808 0.90739 0.83263 0.0
C1595 C 0.72135 0.90626 0.82053 0.0
C1596 C 0.70111 0.89463 0.83446 0.0
C1597 C 0.60797 0.91259 0.94908 0.0
C1598 C 0.59702 0.92716 0.92881 0.0
C1599 C 0.62465 0.89609 0.93995 0.0
C1600 C 0.63055 0.89362 0.91028 0.0
C1601 C 0.61974 0.90823 0.89016 0.0
C1602 C 0.60329 0.92478 0.89928 0.0
C1603 C 0.64802 0.87609 0.89974 0.0
C1604 C 0.66987 0.88685 0.88731 0.0
C1605 C 0.6426 0.8488 0.90025 0.0
C1606 C 0.62019 0.83611 0.91339 0.0
C1607 C 0.59362 0.83599 0.90097 0.0
C1608 C 0.57266 0.82406 0.91371 0.0
C1609 C 0.57805 0.81209 0.93876 0.0
C1610 C 0.60441 0.81207 0.95118 0.0
C1611 C 0.62543 0.82392 0.93848 0.0
H1612 H 0.5618 0.80274 0.94847 0.0
H1613 H 0.76376 0.9164 0.82186 0.0
H1614 H 0.78539 0.70654 0.16488 0.0
H1615 H 0.81309 0.67882 0.14289 0.0
H1616 H 0.85036 0.67451 0.23398 0.0
H1617 H 0.82256 0.70203 0.25619 0.0
H1618 H 0.88722 0.68419 0.1954 0.0
H1619 H 0.80464 0.62358 0.19343 0.0
H1620 H 0.75572 0.60654 0.18126 0.0
H1621 H 0.75622 0.5997 0.08491 0.0
H1622 H 0.80514 0.61711 0.09653 0.0
H1623 H 0.94559 0.57454 0.15527 0.0
H1624 H 0.92023 0.6047 0.17721 0.0
H1625 H 0.88038 0.60628 0.08624 0.0
H1626 H 0.9063 0.57702 0.06395 0.0
H1627 H 0.84495 0.59832 0.1247 0.0
H1628 H 0.92684 0.65836 0.12568 0.0
H1629 H 0.97563 0.67614 0.13688 0.0
H1630 H 0.97652 0.68477 0.23366 0.0
H1631 H 0.92772 0.66667 0.22303 0.0
C1632 C 0.79951 0.69974 0.18027 0.0
C1633 C 0.80167 0.70645 0.21233 0.0
C1634 C 0.81529 0.68383 0.16765 0.0
C1635 C 0.83371 0.67443 0.18677 0.0
C1636 C 0.83629 0.68152 0.21877 0.0
C1637 C 0.82029 0.69717 0.23142 0.0
C1638 C 0.84998 0.6569 0.17334 0.0
C1639 C 0.87801 0.66524 0.18028 0.0
C1640 C 0.83795 0.63247 0.15297 0.0
C1641 C 0.80853 0.62194 0.14589 0.0
C1642 C 0.7943 0.61868 0.16966 0.0
C1643 C 0.76657 0.60891 0.16286 0.0
C1644 C 0.75286 0.60212 0.13234 0.0
C1645 C 0.76686 0.60502 0.10855 0.0
C1646 C 0.7946 0.61482 0.11523 0.0
C1647 C 0.93183 0.5816 0.13978 0.0
C1648 C 0.9281 0.57306 0.10768 0.0
C1649 C 0.91719 0.59879 0.15245 0.0
C1650 C 0.89838 0.60781 0.1334 0.0
C1651 C 0.89464 0.59947 0.10144 0.0
C1652 C 0.90944 0.58253 0.08873 0.0
C1653 C 0.88224 0.62555 0.14678 0.0
C1654 C 0.85421 0.61725 0.13983 0.0
C1655 C 0.89427 0.65006 0.167 0.0
C1656 C 0.92365 0.66085 0.17353 0.0
C1657 C 0.93746 0.6638 0.14935 0.0
C1658 C 0.96511 0.67399 0.15559 0.0
C1659 C 0.97918 0.68151 0.18596 0.0
C1660 C 0.9656 0.67889 0.21015 0.0
C1661 C 0.93793 0.66868 0.20403 0.0
H1662 H 1.00059 0.68941 0.19075 0.0
H1663 H 0.73139 0.59455 0.12712 0.0
H1664 H 0.29716 0.77156 0.16924 0.0
H1665 H 0.3237 0.80024 0.14225 0.0
H1666 H 0.32957 0.86704 0.21479 0.0
H1667 H 0.30115 0.83861 0.24042 0.0
H1668 H 0.32421 0.88398 0.16699 0.0
H1669 H 0.38362 0.83133 0.20156 0.0
H1670 H 0.39765 0.79021 0.20776 0.0
H1671 H 0.38734 0.76652 0.10981 0.0
H1672 H 0.37294 0.80736 0.10301 0.0
H1673 H 0.43524 0.96781 0.12969 0.0
H1674 H 0.4075 0.93792 0.15445 0.0
H1675 H 0.38486 0.87954 0.07016 0.0
H1676 H 0.41247 0.90949 0.04509 0.0
H1677 H 0.39899 0.85832 0.12249 0.0
H1678 H 0.34121 0.91405 0.09046 0.0
H1679 H 0.33006 0.95693 0.08728 0.0
H1680 H 0.34143 0.97689 0.18567 0.0
H1681 H 0.353 0.93424 0.18945 0.0
C1682 C 0.30418 0.79237 0.17943 0.0
C1683 C 0.29712 0.80277 0.20704 0.0
C1684 C 0.31965 0.80883 0.16409 0.0
C1685 C 0.32948 0.836 0.1766 0.0
C1686 C 0.32242 0.8463 0.20436 0.0
C1687 C 0.30622 0.82998 0.21917 0.0
C1688 C 0.34651 0.85378 0.16061 0.0
C1689 C 0.34079 0.87836 0.15778 0.0
C1690 C 0.36803 0.84668 0.14775 0.0
C1691 C 0.37697 0.82227 0.15178 0.0
C1692 C 0.38422 0.81728 0.18134 0.0
C1693 C 0.39225 0.79403 0.18496 0.0
C1694 C 0.39332 0.77573 0.15919 0.0
C1695 C 0.38647 0.78069 0.12974 0.0
C1696 C 0.3784 0.8039 0.126 0.0
C1697 C 0.42433 0.94864 0.11633 0.0
C1698 C 0.42609 0.94114 0.08532 0.0
C1699 C 0.4084 0.93155 0.13055 0.0
C1700 C 0.3939 0.90643 0.1142 0.0
C1701 C 0.39582 0.89876 0.08331 0.0
C1702 C 0.41156 0.91598 0.06896 0.0
C1703 C 0.37671 0.88831 0.12936 0.0
C1704 C 0.38241 0.86375 0.1319 0.0
C1705 C 0.35557 0.89563 0.14252 0.0
C1706 C 0.34817 0.92106 0.14024 0.0
C1707 C 0.34148 0.92765 0.11142 0.0
C1708 C 0.33507 0.9519 0.10951 0.0
C1709 C 0.33509 0.96965 0.13626 0.0
C1710 C 0.34144 0.96313 0.16497 0.0
C1711 C 0.34789 0.93891 0.16701 0.0
H1712 H 0.33015 0.98843 0.13473 0.0
H1713 H 0.3995 0.75772 0.16203 0.0
H1714 H 0.68781 0.18863 0.20573 0.0
H1715 H 0.66851 0.15013 0.16489 0.0
H1716 H 0.73496 0.16929 0.11966 0.0
H1717 H 0.75485 0.20831 0.16097 0.0
H1718 H 0.67559 0.15476 0.08241 0.0
H1719 H 0.73927 0.12047 0.14049 0.0
H1720 H 0.76717 0.1167 0.18849 0.0
H1721 H 0.69669 0.08438 0.22065 0.0
H1722 H 0.66834 0.08836 0.17311 0.0
H1723 H 0.57501 0.03652 0.01148 0.0
H1724 H 0.6213 0.06209 0.02703 0.0
H1725 H 0.60959 0.08089 0.12033 0.0
H1726 H 0.56334 0.05543 0.10474 0.0
H1727 H 0.65922 0.06927 0.11655 0.0
H1728 H 0.59845 0.11843 0.06816 0.0
H1729 H 0.56921 0.12644 0.02367 0.0
H1730 H 0.63446 0.1347 0.97548 0.0
H1731 H 0.66375 0.12543 0.01911 0.0
C1732 C 0.69841 0.1848 0.18717 0.0
C1733 C 0.72292 0.20138 0.18665 0.0
C1734 C 0.68737 0.16279 0.16389 0.0
C1735 C 0.70054 0.1569 0.13963 0.0
C1736 C 0.7247 0.17361 0.13841 0.0
C1737 C 0.73596 0.19574 0.16198 0.0
C1738 C 0.68817 0.1329 0.11616 0.0
C1739 C 0.67274 0.13566 0.08896 0.0
C1740 C 0.68475 0.10817 0.12492 0.0
C1741 C 0.70167 0.10458 0.15308 0.0
C1742 C 0.72971 0.11254 0.15779 0.0
C1743 C 0.74561 0.11041 0.18495 0.0
C1744 C 0.73371 0.10025 0.20757 0.0
C1745 C 0.70589 0.09215 0.20304 0.0
C1746 C 0.68989 0.09426 0.17593 0.0
C1747 C 0.58235 0.04619 0.03522 0.0
C1748 C 0.56546 0.04454 0.05672 0.0
C1749 C 0.60883 0.06049 0.04412 0.0
C1750 C 0.61876 0.07338 0.07476 0.0
C1751 C 0.60226 0.07088 0.09655 0.0
C1752 C 0.5758 0.05657 0.08761 0.0
C1753 C 0.64525 0.09175 0.08418 0.0
C1754 C 0.66321 0.08775 0.10869 0.0
C1755 C 0.65095 0.11536 0.07291 0.0
C1756 C 0.63313 0.12062 0.04662 0.0
C1757 C 0.60644 0.12145 0.04785 0.0
C1758 C 0.58983 0.12618 0.02276 0.0
C1759 C 0.59988 0.13077 0.9966 0.0
C1760 C 0.62659 0.13076 0.99556 0.0
C1761 C 0.64316 0.12561 0.02039 0.0
H1762 H 0.58703 0.13451 0.97722 0.0
H1763 H 0.74605 0.0987 0.22863 0.0
H1764 H 0.7175 0.65336 0.77122 0.0
H1765 H 0.70511 0.62295 0.80405 0.0
H1766 H 0.62325 0.60452 0.75548 0.0
H1767 H 0.63554 0.63491 0.72196 0.0
H1768 H 0.67162 0.63972 0.83918 0.0
H1769 H 0.58969 0.54714 0.76956 0.0
H1770 H 0.58354 0.51268 0.72319 0.0
H1771 H 0.66866 0.52569 0.73075 0.0
H1772 H 0.67539 0.55994 0.77744 0.0
H1773 H 0.5402 0.56831 0.87316 0.0
H1774 H 0.57193 0.57889 0.84016 0.0
H1775 H 0.63754 0.59214 0.91697 0.0
H1776 H 0.6056 0.58183 0.95052 0.0
H1777 H 0.60927 0.55272 0.82565 0.0
H1778 H 0.68943 0.6392 0.90218 0.0
H1779 H 0.6946 0.67537 0.9467 0.0
H1780 H 0.61174 0.67647 0.92164 0.0
H1781 H 0.60619 0.64058 0.87681 0.0
C1782 C 0.69705 0.64214 0.76639 0.0
C1783 C 0.67723 0.64746 0.7446 0.0
C1784 C 0.69005 0.62463 0.78534 0.0
C1785 C 0.66325 0.61188 0.78254 0.0
C1786 C 0.64411 0.61421 0.75803 0.0
C1787 C 0.65109 0.63183 0.73909 0.0
C1788 C 0.65419 0.60197 0.80883 0.0
C1789 C 0.65867 0.62034 0.83658 0.0
C1790 C 0.63699 0.57692 0.80514 0.0
C1791 C 0.63304 0.55627 0.777 0.0
C1792 C 0.60713 0.54258 0.76147 0.0
C1793 C 0.60353 0.52308 0.73508 0.0
C1794 C 0.62569 0.51703 0.724 0.0
C1795 C 0.65151 0.53045 0.7393 0.0
C1796 C 0.65522 0.54995 0.7657 0.0
C1797 C 0.56136 0.57385 0.88318 0.0
C1798 C 0.57049 0.57425 0.91436 0.0
C1799 C 0.57946 0.57963 0.86424 0.0
C1800 C 0.60702 0.58592 0.87607 0.0
C1801 C 0.61629 0.58731 0.90747 0.0
C1802 C 0.59808 0.58163 0.9266 0.0
C1803 C 0.62562 0.59101 0.85502 0.0
C1804 C 0.62297 0.57172 0.82848 0.0
C1805 C 0.64426 0.61535 0.85957 0.0
C1806 C 0.64731 0.6369 0.88649 0.0
C1807 C 0.67232 0.64715 0.90623 0.0
C1808 C 0.67533 0.66762 0.93148 0.0
C1809 C 0.65348 0.6781 0.93709 0.0
C1810 C 0.62861 0.66822 0.91738 0.0
C1811 C 0.62551 0.64779 0.89208 0.0
H1812 H 0.65584 0.69395 0.95665 0.0
H1813 H 0.62287 0.50193 0.70357 0.0
H1814 H 0.2635 0.70015 0.82984 0.0
H1815 H 0.29016 0.67784 0.86215 0.0
H1816 H 0.35759 0.70225 0.82011 0.0
H1817 H 0.33098 0.72378 0.7873 0.0
H1818 H 0.35217 0.65329 0.82181 0.0
H1819 H 0.35311 0.7308 0.89787 0.0
H1820 H 0.33331 0.76177 0.92939 0.0
H1821 H 0.29163 0.69799 0.96425 0.0
H1822 H 0.3112 0.66664 0.93304 0.0
H1823 H 0.45997 0.63121 0.91848 0.0
H1824 H 0.42862 0.65391 0.89437 0.0
H1825 H 0.36674 0.61495 0.93583 0.0
H1826 H 0.39845 0.59269 0.96119 0.0
H1827 H 0.36514 0.66728 0.93547 0.0
H1828 H 0.36771 0.59085 0.86318 0.0
H1829 H 0.38922 0.56031 0.83371 0.0
H1830 H 0.42429 0.62236 0.79147 0.0
H1831 H 0.40328 0.65338 0.82103 0.0
C1832 C 0.28405 0.70084 0.8276 0.0
C1833 C 0.29509 0.71371 0.80591 0.0
C1834 C 0.29935 0.68822 0.84627 0.0
C1835 C 0.32604 0.68852 0.84385 0.0
C1836 C 0.33705 0.70162 0.82241 0.0
C1837 C 0.32179 0.714 0.80365 0.0
C1838 C 0.34236 0.6742 0.86231 0.0
C1839 C 0.3552 0.65668 0.8467 0.0
C1840 C 0.34558 0.67765 0.89471 0.0
C1841 C 0.33337 0.69637 0.91288 0.0
C1842 C 0.33952 0.72336 0.91204 0.0
C1843 C 0.32837 0.74097 0.92986 0.0
C1844 C 0.31102 0.7318 0.94853 0.0
C1845 C 0.30494 0.70503 0.94962 0.0
C1846 C 0.31611 0.68735 0.93196 0.0
C1847 C 0.43993 0.62789 0.92323 0.0
C1848 C 0.43179 0.61 0.9418 0.0
C1849 C 0.42191 0.6407 0.90908 0.0
C1850 C 0.39521 0.63577 0.91284 0.0
C1851 C 0.38722 0.6189 0.93245 0.0
C1852 C 0.40532 0.60606 0.94674 0.0
C1853 C 0.37558 0.64729 0.89495 0.0
C1854 C 0.36198 0.66397 0.91058 0.0
C1855 C 0.37162 0.64313 0.86251 0.0
C1856 C 0.38409 0.62447 0.8445 0.0
C1857 C 0.38016 0.59802 0.84776 0.0
C1858 C 0.39223 0.58063 0.83102 0.0
C1859 C 0.40815 0.58941 0.81077 0.0
C1860 C 0.41197 0.61559 0.80717 0.0
C1861 C 0.39996 0.63308 0.82389 0.0
H1862 H 0.4175 0.57591 0.79784 0.0
H1863 H 0.3024 0.74546 0.96228 0.0
H1864 H 0.3336 0.27773 0.79323 0.0
H1865 H 0.3683 0.31633 0.82033 0.0
H1866 H 0.33148 0.36497 0.7668 0.0
H1867 H 0.29648 0.32618 0.73935 0.0
H1868 H 0.40111 0.37366 0.80163 0.0
H1869 H 0.30624 0.37682 0.81137 0.0
H1870 H 0.26039 0.35297 0.81168 0.0
H1871 H 0.29133 0.31429 0.88148 0.0
H1872 H 0.33737 0.33747 0.88099 0.0
H1873 H 0.42699 0.48737 0.92362 0.0
H1874 H 0.39021 0.4524 0.89225 0.0
H1875 H 0.4339 0.3942 0.91394 0.0
H1876 H 0.47073 0.42923 0.94578 0.0
H1877 H 0.3585 0.39511 0.89141 0.0
H1878 H 0.44961 0.37559 0.84867 0.0
H1879 H 0.4969 0.39902 0.85552 0.0
H1880 H 0.47317 0.47234 0.8545 0.0
H1881 H 0.4258 0.44927 0.8473 0.0
C1882 C 0.33358 0.29645 0.78632 0.0
C1883 C 0.31219 0.29936 0.76497 0.0
C1884 C 0.35349 0.31837 0.80158 0.0
C1885 C 0.35196 0.3433 0.79575 0.0
C1886 C 0.33278 0.34571 0.77141 0.0
C1887 C 0.31283 0.32363 0.75588 0.0
C1888 C 0.36521 0.36616 0.82021 0.0
C1889 C 0.39168 0.37878 0.82094 0.0
C1890 C 0.35284 0.37241 0.8455 0.0
C1891 C 0.32518 0.35869 0.84597 0.0
C1892 C 0.30324 0.36305 0.82657 0.0
C1893 C 0.27723 0.34965 0.82676 0.0
C1894 C 0.27295 0.33208 0.84653 0.0
C1895 C 0.29467 0.32786 0.86612 0.0
C1896 C 0.32071 0.34109 0.86587 0.0
C1897 C 0.42817 0.46701 0.92272 0.0
C1898 C 0.45163 0.4607 0.93629 0.0
C1899 C 0.40707 0.44712 0.90517 0.0
C1900 C 0.40974 0.421 0.90062 0.0
C1901 C 0.4317 0.4144 0.91741 0.0
C1902 C 0.4527 0.43432 0.93533 0.0
C1903 C 0.39424 0.40265 0.87269 0.0
C1904 C 0.36759 0.39066 0.87162 0.0
C1905 C 0.40625 0.39735 0.8469 0.0
C1906 C 0.43425 0.4107 0.84737 0.0
C1907 C 0.4545 0.39662 0.84933 0.0
C1908 C 0.48131 0.40986 0.85343 0.0
C1909 C 0.48802 0.43715 0.85543 0.0
C1910 C 0.46794 0.4512 0.85289 0.0
C1911 C 0.44113 0.43805 0.84875 0.0
H1912 H 0.50876 0.44747 0.85908 0.0
H1913 H 0.25283 0.3218 0.84676 0.0
H1914 H 0.70217 0.37141 0.81517 0.0
H1915 H 0.67146 0.38475 0.84715 0.0
H1916 H 0.64588 0.30451 0.85783 0.0
H1917 H 0.67736 0.29107 0.82666 0.0
H1918 H 0.61723 0.36827 0.83868 0.0
H1919 H 0.63333 0.31076 0.93418 0.0
H1920 H 0.66656 0.28828 0.95685 0.0
H1921 H 0.72958 0.3425 0.93324 0.0
H1922 H 0.69675 0.36545 0.91077 0.0
H1923 H 0.53566 0.40854 0.93274 0.0
H1924 H 0.55604 0.37284 0.91343 0.0
H1925 H 0.63411 0.42039 0.95847 0.0
H1926 H 0.61384 0.45619 0.97779 0.0
H1927 H 0.63051 0.36428 0.94947 0.0
H1928 H 0.61058 0.43273 0.89337 0.0
H1929 H 0.58095 0.45793 0.8692 0.0
H1930 H 0.53064 0.38596 0.8135 0.0
H1931 H 0.55982 0.36033 0.83772 0.0
C1932 C 0.69011 0.35663 0.82444 0.0
C1933 C 0.69226 0.33028 0.81857 0.0
C1934 C 0.67248 0.36421 0.84248 0.0
C1935 C 0.65671 0.34558 0.85501 0.0
C1936 C 0.65821 0.31911 0.84861 0.0
C1937 C 0.67594 0.31148 0.83054 0.0
C1938 C 0.63902 0.3544 0.87501 0.0
C1939 C 0.61979 0.36697 0.86277 0.0
C1940 C 0.6425 0.35267 0.90639 0.0
C1941 C 0.66255 0.33955 0.92046 0.0
C1942 C 0.6543 0.31793 0.93398 0.0
C1943 C 0.67306 0.30512 0.94678 0.0
C1944 C 0.70015 0.3139 0.94639 0.0
C1945 C 0.70857 0.33563 0.93338 0.0
C1946 C 0.68989 0.34853 0.92057 0.0
C1947 C 0.55709 0.41094 0.93943 0.0
C1948 C 0.57338 0.43527 0.95581 0.0
C1949 C 0.56863 0.39049 0.92866 0.0
C1950 C 0.59653 0.39434 0.93402 0.0
C1951 C 0.61251 0.41717 0.95408 0.0
C1952 C 0.60094 0.43765 0.96498 0.0
C1953 C 0.60908 0.37846 0.91312 0.0
C1954 C 0.62732 0.36469 0.92514 0.0
C1955 C 0.60504 0.37932 0.88148 0.0
C1956 C 0.58713 0.39463 0.8676 0.0
C1957 C 0.59303 0.42229 0.87622 0.0
C1958 C 0.57638 0.43664 0.86245 0.0
C1959 C 0.55395 0.42355 0.83981 0.0
C1960 C 0.54802 0.39606 0.83104 0.0
C1961 C 0.56457 0.38162 0.8448 0.0
H1962 H 0.54125 0.4347 0.82892 0.0
H1963 H 0.71463 0.30389 0.95622 0.0
H1964 H 0.69098 0.3137 0.23788 0.0
H1965 H 0.66632 0.33748 0.20592 0.0
H1966 H 0.71843 0.33023 0.14065 0.0
H1967 H 0.74411 0.3075 0.17352 0.0
H1968 H 0.70686 0.37569 0.14383 0.0
H1969 H 0.65381 0.28863 0.12892 0.0
H1970 H 0.63096 0.24851 0.14393 0.0
H1971 H 0.58124 0.2923 0.18812 0.0
H1972 H 0.60404 0.33278 0.17373 0.0
H1973 H 0.60775 0.40718 0.03083 0.0
H1974 H 0.63783 0.38328 0.05647 0.0
H1975 H 0.60595 0.39866 0.13884 0.0
H1976 H 0.57606 0.42232 0.11358 0.0
H1977 H 0.60792 0.3457 0.12027 0.0
H1978 H 0.66519 0.43373 0.13576 0.0
H1979 H 0.68835 0.47207 0.11776 0.0
H1980 H 0.72971 0.42277 0.06684 0.0
H1981 H 0.70653 0.38406 0.08424 0.0
C1982 C 0.69731 0.31733 0.21682 0.0
C1983 C 0.71928 0.30849 0.20803 0.0
C1984 C 0.68307 0.33077 0.19842 0.0
C1985 C 0.68992 0.33494 0.17031 0.0
C1986 C 0.71254 0.32703 0.16204 0.0
C1987 C 0.72719 0.31402 0.18083 0.0
C1988 C 0.67306 0.3471 0.1495 0.0
C1989 C 0.68526 0.36881 0.13827 0.0
C1990 C 0.64482 0.33817 0.14204 0.0
C1991 C 0.63077 0.31379 0.15041 0.0
C1992 C 0.63809 0.28973 0.14197 0.0
C1993 C 0.62514 0.26693 0.15036 0.0
C1994 C 0.6047 0.26787 0.16702 0.0
C1995 C 0.5971 0.29161 0.17523 0.0
C1996 C 0.61 0.31448 0.16692 0.0
C1997 C 0.60727 0.40546 0.05442 0.0
C1998 C 0.58975 0.41684 0.0703 0.0
C1999 C 0.62449 0.39193 0.06905 0.0
C2000 C 0.62418 0.38934 0.0996 0.0
C2001 C 0.60656 0.40051 0.1153 0.0
C2002 C 0.58965 0.4142 0.1009 0.0
C2003 C 0.64169 0.37461 0.11544 0.0
C2004 C 0.62955 0.35232 0.12561 0.0
C2005 C 0.66992 0.38267 0.12131 0.0
C2006 C 0.6839 0.40596 0.111 0.0
C2007 C 0.67905 0.43103 0.1205 0.0
C2008 C 0.69222 0.45283 0.11046 0.0
C2009 C 0.71042 0.44984 0.09108 0.0
C2010 C 0.71557 0.42505 0.08179 0.0
C2011 C 0.70244 0.40318 0.09176 0.0
H2012 H 0.72059 0.46675 0.08333 0.0
H2013 H 0.59472 0.2502 0.17352 0.0
H2014 H 0.70858 0.66108 0.20703 0.0
H2015 H 0.66476 0.63103 0.18617 0.0
H2016 H 0.62717 0.68543 0.23642 0.0
H2017 H 0.67118 0.71525 0.25774 0.0
H2018 H 0.61903 0.60584 0.20493 0.0
H2019 H 0.57741 0.69457 0.17632 0.0
H2020 H 0.59378 0.74069 0.17214 0.0
H2021 H 0.66751 0.72353 0.15284 0.0
H2022 H 0.65109 0.67703 0.15556 0.0
H2023 H 0.50418 0.54026 0.10074 0.0
H2024 H 0.52654 0.57653 0.14386 0.0
H2025 H 0.57613 0.61133 0.08586 0.0
H2026 H 0.55303 0.57576 0.0424 0.0
H2027 H 0.5707 0.64864 0.13066 0.0
H2028 H 0.59451 0.56378 0.12035 0.0
H2029 H 0.58364 0.51536 0.11435 0.0
H2030 H 0.55586 0.52247 0.19973 0.0
H2031 H 0.56632 0.57102 0.20599 0.0
C2032 C 0.69103 0.66592 0.21457 0.0
C2033 C 0.69282 0.69009 0.23385 0.0
C2034 C 0.66611 0.64883 0.20282 0.0
C2035 C 0.64287 0.65623 0.20968 0.0
C2036 C 0.64496 0.67947 0.23103 0.0
C2037 C 0.66995 0.69638 0.24312 0.0
C2038 C 0.61696 0.64224 0.19007 0.0
C2039 C 0.60798 0.6153 0.18928 0.0
C2040 C 0.60322 0.65457 0.16901 0.0
C2041 C 0.61324 0.68246 0.16694 0.0
C2042 C 0.59711 0.70065 0.1712 0.0
C2043 C 0.60639 0.72686 0.16899 0.0
C2044 C 0.63181 0.73517 0.16262 0.0
C2045 C 0.6479 0.71715 0.15802 0.0
C2046 C 0.63858 0.69084 0.15983 0.0
C2047 C 0.51937 0.55606 0.09707 0.0
C2048 C 0.52764 0.55493 0.06872 0.0
C2049 C 0.53192 0.57683 0.12159 0.0
C2050 C 0.55341 0.59614 0.11818 0.0
C2051 C 0.55964 0.59653 0.08897 0.0
C2052 C 0.54667 0.57607 0.06425 0.0
C2053 C 0.57287 0.6122 0.14539 0.0
C2054 C 0.58081 0.63948 0.14745 0.0
C2055 C 0.58655 0.59997 0.16664 0.0
C2056 C 0.58098 0.57092 0.16351 0.0
C2057 C 0.58605 0.55498 0.1378 0.0
C2058 C 0.57993 0.52753 0.13433 0.0
C2059 C 0.569 0.51583 0.15661 0.0
C2060 C 0.56428 0.53157 0.18247 0.0
C2061 C 0.57031 0.55905 0.18601 0.0
H2062 H 0.56424 0.49456 0.15386 0.0
H2063 H 0.63895 0.7555 0.16102 0.0
H2064 H 0.27744 0.66968 0.13472 0.0
H2065 H 0.30632 0.65281 0.10211 0.0
H2066 H 0.37156 0.67292 0.18043 0.0
H2067 H 0.34273 0.69082 0.21278 0.0
H2068 H 0.38858 0.6746 0.1237 0.0
H2069 H 0.32967 0.61613 0.17033 0.0
H2070 H 0.28591 0.59678 0.18154 0.0
H2071 H 0.25416 0.56889 0.08498 0.0
H2072 H 0.29765 0.58848 0.0732 0.0
H2073 H 0.45101 0.56633 0.1059 0.0
H2074 H 0.42937 0.60205 0.12203 0.0
H2075 H 0.36691 0.57279 0.04112 0.0
H2076 H 0.38787 0.53661 0.02546 0.0
H2077 H 0.34807 0.57846 0.09309 0.0
H2078 H 0.41032 0.62993 0.0472 0.0
H2079 H 0.45454 0.64849 0.03674 0.0
H2080 H 0.48103 0.68835 0.13116 0.0
H2081 H 0.43707 0.66967 0.14235 0.0
C2082 C 0.29816 0.67103 0.14459 0.0
C2083 C 0.30797 0.68061 0.17611 0.0
C2084 C 0.31463 0.66174 0.12605 0.0
C2085 C 0.34074 0.6612 0.13917 0.0
C2086 C 0.35138 0.6732 0.17005 0.0
C2087 C 0.33498 0.68308 0.1885 0.0
C2088 C 0.35458 0.64345 0.12277 0.0
C2089 C 0.3799 0.65357 0.11697 0.0
C2090 C 0.34283 0.61612 0.11379 0.0
C2091 C 0.31678 0.60404 0.12088 0.0
C2092 C 0.31329 0.60604 0.15149 0.0
C2093 C 0.28855 0.59502 0.15795 0.0
C2094 C 0.26724 0.58169 0.13398 0.0
C2095 C 0.27066 0.57928 0.10352 0.0
C2096 C 0.29534 0.59033 0.09694 0.0
C2097 C 0.43257 0.5675 0.09174 0.0
C2098 C 0.42085 0.54868 0.0647 0.0
C2099 C 0.42058 0.58811 0.10062 0.0
C2100 C 0.39687 0.59012 0.08243 0.0
C2101 C 0.38539 0.57159 0.05518 0.0
C2102 C 0.39729 0.55097 0.04637 0.0
C2103 C 0.3822 0.60946 0.09382 0.0
C2104 C 0.35668 0.59955 0.09906 0.0
C2105 C 0.39392 0.6368 0.10228 0.0
C2106 C 0.42041 0.6482 0.09568 0.0
C2107 C 0.42563 0.64246 0.06582 0.0
C2108 C 0.45065 0.65305 0.05974 0.0
C2109 C 0.4706 0.66955 0.08329 0.0
C2110 C 0.46555 0.67555 0.11295 0.0
C2111 C 0.44057 0.66499 0.11917 0.0
H2112 H 0.48996 0.67773 0.07854 0.0
H2113 H 0.2481 0.57317 0.13903 0.0
H2114 H 0.38093 0.33252 0.2459 0.0
H2115 H 0.40027 0.34922 0.20477 0.0
H2116 H 0.33402 0.38593 0.18475 0.0
H2117 H 0.31409 0.36774 0.22486 0.0
H2118 H 0.33906 0.35913 0.13505 0.0
H2119 H 0.40138 0.42224 0.21465 0.0
H2120 H 0.43439 0.43901 0.26316 0.0
H2121 H 0.48676 0.39305 0.2285 0.0
H2122 H 0.45394 0.37572 0.17992 0.0
H2123 H 0.40379 0.42462 0.02808 0.0
H2124 H 0.37859 0.40846 0.06537 0.0
H2125 H 0.43675 0.36334 0.08915 0.0
H2126 H 0.46255 0.38055 0.05295 0.0
H2127 H 0.43428 0.39829 0.13716 0.0
H2128 H 0.36795 0.33464 0.05659 0.0
H2129 H 0.33414 0.32148 0.00847 0.0
H2130 H 0.28876 0.37415 0.04595 0.0
H2131 H 0.32242 0.38782 0.09416 0.0
C2132 C 0.37113 0.34494 0.23334 0.0
C2133 C 0.34628 0.34915 0.23841 0.0
C2134 C 0.3821 0.35449 0.20984 0.0
C2135 C 0.36867 0.369 0.19169 0.0
C2136 C 0.34469 0.3747 0.19832 0.0
C2137 C 0.33345 0.36461 0.22132 0.0
C2138 C 0.37811 0.37561 0.16386 0.0
C2139 C 0.35983 0.36812 0.13563 0.0
C2140 C 0.4052 0.38707 0.16446 0.0
C2141 C 0.42507 0.39752 0.19368 0.0
C2142 C 0.41985 0.41555 0.21744 0.0
C2143 C 0.43855 0.42519 0.24494 0.0
C2144 C 0.46263 0.41706 0.24893 0.0
C2145 C 0.4681 0.39932 0.22539 0.0
C2146 C 0.44946 0.38962 0.19784 0.0
C2147 C 0.41035 0.41014 0.0401 0.0
C2148 C 0.43499 0.40371 0.03778 0.0
C2149 C 0.39604 0.40104 0.06157 0.0
C2150 C 0.40597 0.38491 0.08029 0.0
C2151 C 0.42889 0.37596 0.07513 0.0
C2152 C 0.44345 0.38551 0.05422 0.0
C2153 C 0.39545 0.38098 0.10835 0.0
C2154 C 0.41353 0.38929 0.13667 0.0
C2155 C 0.36811 0.37082 0.10786 0.0
C2156 C 0.34783 0.36242 0.07889 0.0
C2157 C 0.35086 0.34355 0.05449 0.0
C2158 C 0.33169 0.33596 0.02721 0.0
C2159 C 0.30935 0.34702 0.02413 0.0
C2160 C 0.30608 0.36562 0.04835 0.0
C2161 C 0.32517 0.37325 0.07567 0.0
H2162 H 0.29456 0.34114 0.00299 0.0
H2163 H 0.47708 0.42454 0.27024 0.0
H2164 H 0.82689 0.74985 0.7104 0.0
H2165 H 0.8524 0.72373 0.68222 0.0
H2166 H 0.77948 0.66634 0.63786 0.0
H2167 H 0.75401 0.69184 0.6672 0.0
H2168 H 0.8139 0.64152 0.65597 0.0
H2169 H 0.81803 0.71146 0.60006 0.0
H2170 H 0.82651 0.75766 0.59354 0.0
H2171 H 0.90932 0.76908 0.63456 0.0
H2172 H 0.90127 0.72305 0.64178 0.0
H2173 H 0.87569 0.56722 0.55463 0.0
H2174 H 0.84837 0.59676 0.57328 0.0
H2175 H 0.91923 0.65107 0.62857 0.0
H2176 H 0.94683 0.62206 0.60925 0.0
H2177 H 0.88487 0.67724 0.6021 0.0
H2178 H 0.87942 0.60813 0.66061 0.0
H2179 H 0.87067 0.56198 0.66734 0.0
H2180 H 0.78934 0.54925 0.62014 0.0
H2181 H 0.79771 0.59527 0.61283 0.0
C2182 C 0.8162 0.73189 0.69428 0.0
C2183 C 0.78836 0.72298 0.69103 0.0
C2184 C 0.83085 0.71695 0.678 0.0
C2185 C 0.81795 0.69307 0.65749 0.0
C2186 C 0.79001 0.68462 0.65352 0.0
C2187 C 0.7754 0.69932 0.67019 0.0
C2188 C 0.83367 0.6761 0.64171 0.0
C2189 C 0.82901 0.64932 0.64367 0.0
C2190 C 0.85399 0.68622 0.62627 0.0
C2191 C 0.85899 0.71383 0.62165 0.0
C2192 C 0.83802 0.72386 0.60785 0.0
C2193 C 0.84276 0.75001 0.604 0.0
C2194 C 0.86844 0.76628 0.61361 0.0
C2195 C 0.88945 0.75642 0.62705 0.0
C2196 C 0.88481 0.7303 0.63103 0.0
C2197 C 0.88558 0.58566 0.57032 0.0
C2198 C 0.91353 0.59212 0.58055 0.0
C2199 C 0.86986 0.60244 0.58121 0.0
C2200 C 0.88167 0.62599 0.60272 0.0
C2201 C 0.90962 0.63297 0.61212 0.0
C2202 C 0.92536 0.61621 0.60124 0.0
C2203 C 0.86489 0.64284 0.61633 0.0
C2204 C 0.86947 0.66953 0.6141 0.0
C2205 C 0.84438 0.63267 0.63139 0.0
C2206 C 0.83928 0.60504 0.63589 0.0
C2207 C 0.85973 0.59543 0.65147 0.0
C2208 C 0.85482 0.56931 0.65543 0.0
C2209 C 0.82948 0.55267 0.64409 0.0
C2210 C 0.80897 0.56215 0.62886 0.0
C2211 C 0.81377 0.58825 0.62483 0.0
H2212 H 0.82573 0.53245 0.64717 0.0
H2213 H 0.87206 0.78655 0.61069 0.0
H2214 H 0.28928 0.77844 0.63622 0.0
H2215 H 0.30595 0.79936 0.59645 0.0
H2216 H 0.37958 0.77418 0.61663 0.0
H2217 H 0.36304 0.75318 0.65659 0.0
H2218 H 0.37601 0.82962 0.64109 0.0
H2219 H 0.35355 0.76181 0.54807 0.0
H2220 H 0.32222 0.72862 0.50638 0.0
H2221 H 0.28423 0.78849 0.47876 0.0
H2222 H 0.31495 0.82198 0.5207 0.0
H2223 H 0.46898 0.91314 0.59067 0.0
H2224 H 0.44019 0.87259 0.59618 0.0
H2225 H 0.37193 0.89271 0.5457 0.0
H2226 H 0.40123 0.93305 0.53866 0.0
H2227 H 0.36775 0.84006 0.53265 0.0
H2228 H 0.38324 0.90613 0.62283 0.0
H2229 H 0.40889 0.94176 0.66599 0.0
H2230 H 0.45214 0.88819 0.70114 0.0
H2231 H 0.42702 0.8523 0.65794 0.0
C2232 C 0.30845 0.77612 0.63113 0.0
C2233 C 0.32539 0.76507 0.65017 0.0
C2234 C 0.31782 0.7879 0.60813 0.0
C2235 C 0.34405 0.78854 0.60402 0.0
C2236 C 0.35923 0.7738 0.61959 0.0
C2237 C 0.34998 0.76221 0.6427 0.0
C2238 C 0.35845 0.81136 0.59386 0.0
C2239 C 0.37462 0.83168 0.6173 0.0
C2240 C 0.35486 0.81462 0.56308 0.0
C2241 C 0.33641 0.7944 0.53783 0.0
C2242 C 0.33831 0.76788 0.5334 0.0
C2243 C 0.32066 0.749 0.50968 0.0
C2244 C 0.30115 0.75641 0.49005 0.0
C2245 C 0.2993 0.78275 0.49404 0.0
C2246 C 0.31683 0.80169 0.51778 0.0
C2247 C 0.44784 0.90894 0.58073 0.0
C2248 C 0.43709 0.92643 0.56496 0.0
C2249 C 0.43145 0.88573 0.58373 0.0
C2250 C 0.40387 0.88005 0.57198 0.0
C2251 C 0.39317 0.89691 0.55506 0.0
C2252 C 0.40979 0.91997 0.55136 0.0
C2253 C 0.38639 0.85759 0.57985 0.0
C2254 C 0.36926 0.83778 0.55635 0.0
C2255 C 0.38815 0.85499 0.61084 0.0
C2256 C 0.40336 0.87655 0.63697 0.0
C2257 C 0.39836 0.90198 0.63963 0.0
C2258 C 0.41278 0.92222 0.66413 0.0
C2259 C 0.43217 0.91725 0.68626 0.0
C2260 C 0.43713 0.89201 0.68396 0.0
C2261 C 0.42278 0.8717 0.65949 0.0
H2262 H 0.44331 0.93294 0.70521 0.0
H2263 H 0.28757 0.74178 0.47164 0.0
H2264 H 0.19791 0.31928 0.68306 0.0
H2265 H 0.17392 0.34859 0.66037 0.0
H2266 H 0.17289 0.30598 0.56959 0.0
H2267 H 0.19789 0.27667 0.59223 0.0
H2268 H 0.18105 0.36215 0.57477 0.0
H2269 H 0.11942 0.29014 0.59377 0.0
H2270 H 0.10028 0.25757 0.62252 0.0
H2271 H 0.09196 0.32007 0.69202 0.0
H2272 H 0.11135 0.35306 0.66383 0.0
H2273 H 0.07588 0.42473 0.52192 0.0
H2274 H 0.10428 0.39391 0.52974 0.0
H2275 H 0.10537 0.41117 0.62724 0.0
H2276 H 0.07473 0.43957 0.61926 0.0
H2277 H 0.09451 0.36145 0.60843 0.0
H2278 H 0.16373 0.43368 0.58935 0.0
H2279 H 0.17981 0.46393 0.55628 0.0
H2280 H 0.1694 0.39806 0.4819 0.0
H2281 H 0.15369 0.36745 0.51468 0.0
C2282 C 0.19336 0.31643 0.65828 0.0
C2283 C 0.19975 0.29545 0.63945 0.0
C2284 C 0.17943 0.33314 0.64535 0.0
C2285 C 0.1714 0.32914 0.61339 0.0
C2286 C 0.1789 0.30923 0.59434 0.0
C2287 C 0.19294 0.29241 0.60731 0.0
C2288 C 0.15327 0.34453 0.60055 0.0
C2289 C 0.16197 0.36187 0.58178 0.0
C2290 C 0.12828 0.34377 0.60939 0.0
C2291 C 0.11698 0.32407 0.62675 0.0
C2292 C 0.11373 0.29695 0.61532 0.0
C2293 C 0.10277 0.27841 0.63147 0.0
C2294 C 0.09487 0.28674 0.65903 0.0
C2295 C 0.09803 0.31365 0.67061 0.0
C2296 C 0.10897 0.33228 0.65453 0.0
C2297 C 0.08198 0.42182 0.54502 0.0
C2298 C 0.07273 0.43452 0.56992 0.0
C2299 C 0.09869 0.40453 0.54951 0.0
C2300 C 0.10722 0.40039 0.57913 0.0
C2301 C 0.09899 0.41399 0.60413 0.0
C2302 C 0.0817 0.43058 0.59957 0.0
C2303 C 0.12302 0.38055 0.58438 0.0
C2304 C 0.1136 0.36191 0.60138 0.0
C2305 C 0.14707 0.37997 0.57353 0.0
C2306 C 0.15746 0.39835 0.55437 0.0
C2307 C 0.16494 0.4257 0.56596 0.0
C2308 C 0.17398 0.44289 0.54728 0.0
C2309 C 0.17547 0.43294 0.51696 0.0
C2310 C 0.16824 0.40575 0.50536 0.0
C2311 C 0.15943 0.38847 0.52403 0.0
H2312 H 0.18228 0.44628 0.50247 0.0
H2313 H 0.08622 0.27233 0.67137 0.0
H2314 H 0.71194 0.22181 0.64226 0.0
H2315 H 0.67299 0.19892 0.60229 0.0
H2316 H 0.62083 0.22151 0.66241 0.0
H2317 H 0.65998 0.2452 0.70234 0.0
H2318 H 0.61626 0.1668 0.64484 0.0
H2319 H 0.61528 0.24044 0.59937 0.0
H2320 H 0.6323 0.27882 0.57763 0.0
H2321 H 0.65067 0.22795 0.50307 0.0
H2322 H 0.63414 0.18924 0.52467 0.0
H2323 H 0.50959 0.08514 0.51688 0.0
H2324 H 0.53692 0.13035 0.53572 0.0
H2325 H 0.60683 0.09934 0.55709 0.0
H2326 H 0.5795 0.05436 0.53903 0.0
H2327 H 0.59179 0.16496 0.53313 0.0
H2328 H 0.62374 0.11662 0.63261 0.0
H2329 H 0.60752 0.07636 0.65173 0.0
H2330 H 0.52625 0.07877 0.61802 0.0
H2331 H 0.54202 0.11935 0.59929 0.0
C2332 C 0.69216 0.22266 0.64653 0.0
C2333 C 0.68886 0.23503 0.67538 0.0
C2334 C 0.66994 0.20974 0.62363 0.0
C2335 C 0.64404 0.20854 0.6294 0.0
C2336 C 0.64068 0.22242 0.65747 0.0
C2337 C 0.663 0.23592 0.68021 0.0
C2338 C 0.62145 0.18861 0.60884 0.0
C2339 C 0.61053 0.16677 0.62057 0.0
C2340 C 0.61399 0.18854 0.57712 0.0
C2341 C 0.6239 0.21186 0.56398 0.0
C2342 C 0.6233 0.2374 0.57858 0.0
C2343 C 0.63277 0.25925 0.56622 0.0
C2344 C 0.64271 0.25584 0.53908 0.0
C2345 C 0.64309 0.23057 0.52418 0.0
C2346 C 0.63367 0.20867 0.53649 0.0
C2347 C 0.53102 0.08818 0.52431 0.0
C2348 C 0.54263 0.06659 0.5267 0.0
C2349 C 0.54659 0.11393 0.53492 0.0
C2350 C 0.57377 0.11806 0.54806 0.0
C2351 C 0.58586 0.09647 0.54705 0.0
C2352 C 0.57029 0.07084 0.53682 0.0
C2353 C 0.58789 0.14322 0.56919 0.0
C2354 C 0.59714 0.16566 0.55759 0.0
C2355 C 0.59382 0.14414 0.60118 0.0
C2356 C 0.58408 0.12095 0.61448 0.0
C2357 C 0.60242 0.10875 0.62966 0.0
C2358 C 0.5933 0.08583 0.64034 0.0
C2359 C 0.56588 0.07499 0.63605 0.0
C2360 C 0.54749 0.08718 0.62132 0.0
C2361 C 0.55651 0.11015 0.6107 0.0
H2362 H 0.55887 0.05714 0.64415 0.0
H2363 H 0.65001 0.27278 0.52953 0.0
H2364 H 0.82892 0.32071 0.32214 0.0
H2365 H 0.85019 0.34815 0.37243 0.0
H2366 H 0.77286 0.35158 0.39411 0.0
H2367 H 0.75119 0.32346 0.34371 0.0
H2368 H 0.81439 0.40231 0.40215 0.0
H2369 H 0.80001 0.32447 0.43919 0.0
H2370 H 0.79501 0.27705 0.43902 0.0
H2371 H 0.87805 0.2839 0.4354 0.0
H2372 H 0.88351 0.33122 0.43494 0.0
H2373 H 0.93356 0.48275 0.49605 0.0
H2374 H 0.89107 0.45188 0.49261 0.0
H2375 H 0.91344 0.39526 0.42664 0.0
H2376 H 0.95665 0.42588 0.43113 0.0
H2377 H 0.88313 0.37215 0.46827 0.0
H2378 H 0.87676 0.43679 0.39454 0.0
H2379 H 0.88561 0.48383 0.39092 0.0
H2380 H 0.84437 0.50075 0.46479 0.0
H2381 H 0.83498 0.45375 0.46842 0.0
C2382 C 0.81642 0.32747 0.33744 0.0
C2383 C 0.78848 0.32016 0.32905 0.0
C2384 C 0.82853 0.34275 0.36628 0.0
C2385 C 0.81294 0.35122 0.38701 0.0
C2386 C 0.78505 0.34473 0.37847 0.0
C2387 C 0.77283 0.32896 0.3497 0.0
C2388 C 0.82679 0.36881 0.41628 0.0
C2389 C 0.8286 0.39582 0.41783 0.0
C2390 C 0.84508 0.36013 0.43673 0.0
C2391 C 0.84218 0.33158 0.4372 0.0
C2392 C 0.81721 0.31589 0.43823 0.0
C2393 C 0.81429 0.28898 0.43824 0.0
C2394 C 0.83621 0.27748 0.43725 0.0
C2395 C 0.8611 0.29286 0.43627 0.0
C2396 C 0.86413 0.31977 0.43623 0.0
C2397 C 0.92959 0.46349 0.48131 0.0
C2398 C 0.94827 0.45651 0.46401 0.0
C2399 C 0.90541 0.4459 0.4795 0.0
C2400 C 0.89928 0.42133 0.45957 0.0
C2401 C 0.91814 0.41404 0.44263 0.0
C2402 C 0.94253 0.43159 0.44475 0.0
C2403 C 0.8718 0.40512 0.45175 0.0
C2404 C 0.86764 0.37863 0.45442 0.0
C2405 C 0.85123 0.41417 0.43522 0.0
C2406 C 0.85503 0.44191 0.43158 0.0
C2407 C 0.86929 0.45056 0.40967 0.0
C2408 C 0.87445 0.47718 0.40767 0.0
C2409 C 0.86543 0.49527 0.42749 0.0
C2410 C 0.85112 0.48671 0.44924 0.0
C2411 C 0.84577 0.46008 0.4512 0.0
H2412 H 0.8696 0.51591 0.42606 0.0
H2413 H 0.83391 0.25665 0.43723 0.0
H2414 H 0.71008 0.78094 0.32819 0.0
H2415 H 0.68098 0.80719 0.34964 0.0
H2416 H 0.67286 0.84103 0.26858 0.0
H2417 H 0.70101 0.81403 0.24657 0.0
H2418 H 0.6836 0.85611 0.36717 0.0
H2419 H 0.61439 0.85922 0.25451 0.0
H2420 H 0.59587 0.83217 0.20256 0.0
H2421 H 0.60409 0.76213 0.23632 0.0
H2422 H 0.62234 0.78874 0.28863 0.0
H2423 H 0.61198 0.95553 0.39575 0.0
H2424 H 0.63916 0.92698 0.37468 0.0
H2425 H 0.57059 0.86119 0.351 0.0
H2426 H 0.5431 0.88992 0.37155 0.0
H2427 H 0.59644 0.85929 0.30648 0.0
H2428 H 0.62245 0.87117 0.41522 0.0
H2429 H 0.63823 0.89666 0.46827 0.0
H2430 H 0.71289 0.93084 0.44573 0.0
H2431 H 0.69719 0.90634 0.39217 0.0
C2432 C 0.70198 0.79389 0.31487 0.0
C2433 C 0.70771 0.7952 0.28554 0.0
C2434 C 0.68537 0.80899 0.32722 0.0
C2435 C 0.67418 0.82588 0.31062 0.0
C2436 C 0.6805 0.82768 0.28162 0.0
C2437 C 0.69678 0.8123 0.26908 0.0
C2438 C 0.65613 0.84169 0.32374 0.0
C2439 C 0.66453 0.85674 0.35385 0.0
C2440 C 0.63095 0.84235 0.30673 0.0
C2441 C 0.61992 0.82603 0.27544 0.0
C2442 C 0.61215 0.83804 0.25089 0.0
C2443 C 0.60173 0.82279 0.22139 0.0
C2444 C 0.59884 0.79548 0.21616 0.0
C2445 C 0.60639 0.78331 0.24042 0.0
C2446 C 0.61681 0.79848 0.27 0.0
C2447 C 0.60268 0.93494 0.38624 0.0
C2448 C 0.57535 0.92501 0.38563 0.0
C2449 C 0.6183 0.91857 0.37419 0.0
C2450 C 0.60718 0.89168 0.36169 0.0
C2451 C 0.57976 0.8818 0.36055 0.0
C2452 C 0.56402 0.89827 0.3723 0.0
C2453 C 0.62408 0.87397 0.3497 0.0
C2454 C 0.61548 0.85859 0.31982 0.0
C2455 C 0.64882 0.87261 0.36715 0.0
C2456 C 0.65852 0.88705 0.39954 0.0
C2457 C 0.64217 0.88425 0.42148 0.0
C2458 C 0.6511 0.89852 0.45167 0.0
C2459 C 0.67659 0.91526 0.46041 0.0
C2460 C 0.69316 0.91784 0.43893 0.0
C2461 C 0.68422 0.90382 0.40862 0.0
H2462 H 0.68348 0.92623 0.48383 0.0
H2463 H 0.59066 0.7838 0.1933 0.0
H2464 H 0.20884 0.67199 0.26678 0.0
H2465 H 0.18051 0.64262 0.29154 0.0
H2466 H 0.15983 0.70963 0.34275 0.0
H2467 H 0.18789 0.7392 0.31771 0.0
H2468 H 0.17446 0.67387 0.37922 0.0
H2469 H 0.11504 0.67135 0.28469 0.0
H2470 H 0.10139 0.66503 0.22843 0.0
H2471 H 0.1094 0.58482 0.21804 0.0
H2472 H 0.12346 0.59076 0.27423 0.0
H2473 H 0.07382 0.60208 0.44245 0.0
H2474 H 0.09929 0.63247 0.41639 0.0
H2475 H 0.10423 0.56662 0.34827 0.0
H2476 H 0.07725 0.53632 0.37334 0.0
H2477 H 0.09764 0.60273 0.32006 0.0
H2478 H 0.1584 0.60388 0.4123 0.0
H2479 H 0.1737 0.60876 0.46813 0.0
H2480 H 0.16645 0.68927 0.48258 0.0
H2481 H 0.15071 0.68477 0.42686 0.0
C2482 C 0.19822 0.68054 0.28324 0.0
C2483 C 0.20068 0.70803 0.29019 0.0
C2484 C 0.18193 0.66366 0.29733 0.0
C2485 C 0.16785 0.67382 0.31895 0.0
C2486 C 0.17043 0.70127 0.32614 0.0
C2487 C 0.18643 0.71816 0.31172 0.0
C2488 C 0.15082 0.65582 0.33432 0.0
C2489 C 0.15742 0.65853 0.36636 0.0
C2490 C 0.12909 0.63522 0.31749 0.0
C2491 C 0.12059 0.6316 0.28368 0.0
C2492 C 0.11413 0.65244 0.2704 0.0
C2493 C 0.10626 0.64891 0.23852 0.0
C2494 C 0.10461 0.62457 0.21967 0.0
C2495 C 0.11073 0.60368 0.23267 0.0
C2496 C 0.11863 0.60711 0.26454 0.0
C2497 C 0.08034 0.59407 0.42191 0.0
C2498 C 0.0736 0.56672 0.41011 0.0
C2499 C 0.09515 0.6115 0.40707 0.0
C2500 C 0.10449 0.60204 0.38058 0.0
C2501 C 0.09749 0.57466 0.36863 0.0
C2502 C 0.08209 0.55726 0.38306 0.0
C2503 C 0.12125 0.62056 0.36522 0.0
C2504 C 0.11466 0.61798 0.3331 0.0
C2505 C 0.14333 0.64102 0.38194 0.0
C2506 C 0.15309 0.64389 0.41542 0.0
C2507 C 0.15991 0.62258 0.4274 0.0
C2508 C 0.16867 0.62528 0.45902 0.0
C2509 C 0.17095 0.64928 0.47888 0.0
C2510 C 0.16461 0.67067 0.46715 0.0
C2511 C 0.15578 0.66806 0.43555 0.0
H2512 H 0.17765 0.6513 0.50334 0.0
H2513 H 0.09856 0.6219 0.195 0.0
H2514 H 0.26216 0.18595 0.30522 0.0
H2515 H 0.28863 0.15691 0.32572 0.0
H2516 H 0.36127 0.21302 0.3261 0.0
H2517 H 0.33497 0.24226 0.30581 0.0
H2518 H 0.36133 0.16216 0.2982 0.0
H2519 H 0.34273 0.2055 0.39262 0.0
H2520 H 0.31383 0.22037 0.42713 0.0
H2521 H 0.27314 0.14 0.42096 0.0
H2522 H 0.3016 0.12466 0.38606 0.0
H2523 H 0.45718 0.10891 0.38084 0.0
H2524 H 0.42837 0.13686 0.36328 0.0
H2525 H 0.3592 0.08129 0.37381 0.0
H2526 H 0.38815 0.05354 0.39265 0.0
H2527 H 0.35543 0.13025 0.39523 0.0
H2528 H 0.37352 0.08613 0.30244 0.0
H2529 H 0.40124 0.07 0.26717 0.0
H2530 H 0.4405 0.14974 0.26784 0.0
H2531 H 0.41337 0.16637 0.30362 0.0
C2532 C 0.28377 0.19234 0.31014 0.0
C2533 C 0.2964 0.21656 0.304 0.0
C2534 C 0.29889 0.17568 0.32186 0.0
C2535 C 0.32699 0.18275 0.32753 0.0
C2536 C 0.33964 0.20711 0.32192 0.0
C2537 C 0.32454 0.22391 0.31052 0.0
C2538 C 0.34319 0.16435 0.33811 0.0
C2539 C 0.36032 0.15548 0.31963 0.0
C2540 C 0.34119 0.1548 0.36549 0.0
C2541 C 0.3241 0.16396 0.38649 0.0
C2542 C 0.32747 0.19101 0.39841 0.0
C2543 C 0.3112 0.19952 0.41808 0.0
C2544 C 0.29161 0.18114 0.42616 0.0
C2545 C 0.2883 0.15421 0.41465 0.0
C2546 C 0.30451 0.1456 0.39494 0.0
C2547 C 0.43587 0.10262 0.37971 0.0
C2548 C 0.42512 0.07886 0.38832 0.0
C2549 C 0.41932 0.11857 0.36929 0.0
C2550 C 0.39147 0.11114 0.36679 0.0
C2551 C 0.38059 0.08748 0.3754 0.0
C2552 C 0.39719 0.07147 0.3859 0.0
C2553 C 0.37392 0.12829 0.35551 0.0
C2554 C 0.35646 0.13687 0.37376 0.0
C2555 C 0.37538 0.13736 0.32771 0.0
C2556 C 0.39163 0.12748 0.30602 0.0
C2557 C 0.38824 0.10023 0.2953 0.0
C2558 C 0.40384 0.091 0.27521 0.0
C2559 C 0.42273 0.10884 0.26543 0.0
C2560 C 0.42593 0.13595 0.27555 0.0
C2561 C 0.41045 0.14529 0.29574 0.0
H2562 H 0.43483 0.10164 0.24993 0.0
H2563 H 0.27904 0.18777 0.4414 0.0
H2564 H 0.73603 0.83554 0.72489 0.0
H2565 H 0.70795 0.86137 0.70034 0.0
H2566 H 0.65637 0.78984 0.6441 0.0
H2567 H 0.68404 0.76374 0.66913 0.0
H2568 H 0.66792 0.83125 0.61133 0.0
H2569 H 0.63753 0.81513 0.70116 0.0
H2570 H 0.63728 0.81378 0.75556 0.0
H2571 H 0.65811 0.89848 0.7786 0.0
H2572 H 0.66046 0.9003 0.72493 0.0
H2573 H 0.55939 0.89204 0.56696 0.0
H2574 H 0.58706 0.86315 0.58494 0.0
H2575 H 0.63796 0.9291 0.65179 0.0
H2576 H 0.61055 0.95825 0.63374 0.0
H2577 H 0.6243 0.88733 0.67733 0.0
H2578 H 0.65726 0.90092 0.58443 0.0
H2579 H 0.65275 0.8995 0.5287 0.0
H2580 H 0.61959 0.81599 0.51019 0.0
H2581 H 0.62366 0.81697 0.56577 0.0
C2582 C 0.71894 0.82527 0.707 0.0
C2583 C 0.71232 0.79754 0.69895 0.0
C2584 C 0.70282 0.84009 0.69309 0.0
C2585 C 0.67996 0.82755 0.67049 0.0
C2586 C 0.67391 0.79994 0.66145 0.0
C2587 C 0.68974 0.78505 0.6758 0.0
C2588 C 0.66187 0.84329 0.65731 0.0
C2589 C 0.65821 0.84336 0.62573 0.0
C2590 C 0.64907 0.85902 0.67604 0.0
C2591 C 0.64964 0.85784 0.70893 0.0
C2592 C 0.6429 0.83346 0.71796 0.0
C2593 C 0.64239 0.83259 0.74876 0.0
C2594 C 0.64795 0.85598 0.77068 0.0
C2595 C 0.65426 0.88029 0.76185 0.0
C2596 C 0.65537 0.88125 0.73124 0.0
C2597 C 0.57674 0.90059 0.58513 0.0
C2598 C 0.5827 0.92765 0.59876 0.0
C2599 C 0.59256 0.88395 0.59543 0.0
C2600 C 0.61485 0.89391 0.61954 0.0
C2601 C 0.6209 0.92088 0.63314 0.0
C2602 C 0.60509 0.93755 0.62286 0.0
C2603 C 0.63121 0.87618 0.63162 0.0
C2604 C 0.63429 0.87547 0.66301 0.0
C2605 C 0.64305 0.85956 0.61263 0.0
C2606 C 0.64056 0.85907 0.57924 0.0
C2607 C 0.64882 0.8823 0.56845 0.0
C2608 C 0.64638 0.88156 0.53689 0.0
C2609 C 0.63584 0.85767 0.51592 0.0
C2610 C 0.62774 0.83448 0.52646 0.0
C2611 C 0.63014 0.83511 0.55797 0.0
H2612 H 0.63399 0.85706 0.49151 0.0
H2613 H 0.64711 0.85524 0.79442 0.0
H2614 H 0.71968 0.22148 0.35777 0.0
H2615 H 0.70667 0.19325 0.39279 0.0
H2616 H 0.62816 0.20976 0.37973 0.0
H2617 H 0.64104 0.23821 0.34422 0.0
H2618 H 0.68186 0.18728 0.44301 0.0
H2619 H 0.5856 0.15172 0.34948 0.0
H2620 H 0.57039 0.15423 0.29544 0.0
H2621 H 0.65068 0.1612 0.27993 0.0
H2622 H 0.66622 0.15817 0.33364 0.0
H2623 H 0.57856 0.09394 0.47863 0.0
H2624 H 0.61229 0.12956 0.46944 0.0
H2625 H 0.6238 0.07726 0.39051 0.0
H2626 H 0.58905 0.04207 0.39885 0.0
H2627 H 0.61015 0.11645 0.37366 0.0
H2628 H 0.67337 0.1063 0.45534 0.0
H2629 H 0.6921 0.10167 0.50742 0.0
H2630 H 0.68587 0.18012 0.54414 0.0
H2631 H 0.66693 0.18515 0.49228 0.0
C2632 C 0.70001 0.22016 0.36326 0.0
C2633 C 0.68101 0.23143 0.34749 0.0
C2634 C 0.69268 0.20404 0.38351 0.0
C2635 C 0.66634 0.19902 0.38812 0.0
C2636 C 0.64853 0.21323 0.37596 0.0
C2637 C 0.65577 0.22921 0.35549 0.0
C2638 C 0.65586 0.17479 0.3986 0.0
C2639 C 0.66604 0.17172 0.4282 0.0
C2640 C 0.63645 0.15408 0.3783 0.0
C2641 C 0.62709 0.15506 0.34566 0.0
C2642 C 0.59995 0.15365 0.33447 0.0
C2643 C 0.59128 0.15516 0.3039 0.0
C2644 C 0.60957 0.15798 0.2843 0.0
C2645 C 0.63654 0.1591 0.29515 0.0
C2646 C 0.64528 0.15748 0.32565 0.0
C2647 C 0.5889 0.08993 0.45988 0.0
C2648 C 0.58112 0.06561 0.4391 0.0
C2649 C 0.60829 0.11021 0.45477 0.0
C2650 C 0.6205 0.10608 0.42922 0.0
C2651 C 0.61445 0.08089 0.41021 0.0
C2652 C 0.59459 0.06088 0.41486 0.0
C2653 C 0.63527 0.12885 0.41893 0.0
C2654 C 0.626 0.1317 0.38894 0.0
C2655 C 0.65614 0.14874 0.43867 0.0
C2656 C 0.66808 0.1459 0.4699 0.0
C2657 C 0.67566 0.12247 0.47452 0.0
C2658 C 0.68645 0.1198 0.50403 0.0
C2659 C 0.69001 0.14051 0.52912 0.0
C2660 C 0.68301 0.16403 0.52472 0.0
C2661 C 0.67226 0.1668 0.49525 0.0
H2662 H 0.69831 0.13839 0.55195 0.0
H2663 H 0.60283 0.15924 0.26068 0.0
H2664 H 0.80151 0.72199 0.40777 0.0
H2665 H 0.82148 0.69038 0.43192 0.0
H2666 H 0.81628 0.6428 0.34258 0.0
H2667 H 0.7971 0.6743 0.31825 0.0
H2668 H 0.80347 0.61262 0.38507 0.0
H2669 H 0.87241 0.68553 0.37528 0.0
H2670 H 0.8954 0.73239 0.38334 0.0
H2671 H 0.90737 0.73821 0.4811 0.0
H2672 H 0.88409 0.69142 0.4736 0.0
H2673 H 0.91521 0.55609 0.38507 0.0
H2674 H 0.8802 0.58023 0.37875 0.0
H2675 H 0.89188 0.60534 0.47703 0.0
H2676 H 0.92603 0.57998 0.48392 0.0
H2677 H 0.89749 0.64664 0.44096 0.0
H2678 H 0.83441 0.57026 0.44887 0.0
H2679 H 0.8127 0.52293 0.43855 0.0
H2680 H 0.79232 0.52288 0.34229 0.0
H2681 H 0.81363 0.57037 0.35207 0.0
C2682 C 0.80453 0.70479 0.39324 0.0
C2683 C 0.7979 0.70094 0.36101 0.0
C2684 C 0.81575 0.68667 0.40711 0.0
C2685 C 0.82042 0.66443 0.38895 0.0
C2686 C 0.81262 0.65981 0.35694 0.0
C2687 C 0.80159 0.67793 0.34307 0.0
C2688 C 0.83562 0.64711 0.40279 0.0
C2689 C 0.82398 0.62002 0.39743 0.0
C2690 C 0.8622 0.65697 0.41933 0.0
C2691 C 0.87616 0.6851 0.42389 0.0
C2692 C 0.87971 0.69688 0.3985 0.0
C2693 C 0.89284 0.7234 0.40296 0.0
C2694 C 0.90274 0.7383 0.43272 0.0
C2695 C 0.89961 0.72667 0.45807 0.0
C2696 C 0.88645 0.70015 0.45373 0.0
C2697 C 0.90986 0.56589 0.40551 0.0
C2698 C 0.92367 0.56602 0.43508 0.0
C2699 C 0.88986 0.57981 0.40178 0.0
C2700 C 0.88353 0.59439 0.42746 0.0
C2701 C 0.89657 0.59408 0.457 0.0
C2702 C 0.91625 0.57975 0.4608 0.0
C2703 C 0.86545 0.61216 0.42284 0.0
C2704 C 0.87667 0.63934 0.42962 0.0
C2705 C 0.83863 0.60237 0.40735 0.0
C2706 C 0.82575 0.57383 0.4012 0.0
C2707 C 0.82543 0.56013 0.42547 0.0
C2708 C 0.81316 0.53328 0.41973 0.0
C2709 C 0.80134 0.51984 0.38976 0.0
C2710 C 0.80153 0.5333 0.36549 0.0
C2711 C 0.81357 0.56023 0.37114 0.0
H2712 H 0.79195 0.49903 0.38537 0.0
H2713 H 0.91291 0.75883 0.43613 0.0
H2714 H 0.33734 0.76089 0.30828 0.0
H2715 H 0.37166 0.78482 0.3536 0.0
H2716 H 0.31102 0.81205 0.3968 0.0
H2717 H 0.27692 0.78846 0.35201 0.0
H2718 H 0.353 0.84957 0.37317 0.0
H2719 H 0.33816 0.78446 0.43559 0.0
H2720 H 0.33591 0.74035 0.44777 0.0
H2721 H 0.41951 0.74836 0.44688 0.0
H2722 H 0.4221 0.79211 0.43346 0.0
H2723 H 0.426 0.95225 0.48273 0.0
H2724 H 0.39497 0.90898 0.47034 0.0
H2725 H 0.4571 0.87288 0.44214 0.0
H2726 H 0.48864 0.91614 0.45629 0.0
H2727 H 0.41486 0.8371 0.4627 0.0
H2728 H 0.42785 0.89655 0.39155 0.0
H2729 H 0.43214 0.94059 0.37851 0.0
H2730 H 0.35296 0.94183 0.39413 0.0
H2731 H 0.34848 0.898 0.40793 0.0
C2732 C 0.33129 0.77113 0.32797 0.0
C2733 C 0.30467 0.7734 0.32645 0.0
C2734 C 0.35083 0.78463 0.35388 0.0
C2735 C 0.34376 0.80013 0.37845 0.0
C2736 C 0.31679 0.80003 0.37815 0.0
C2737 C 0.2974 0.78677 0.35239 0.0
C2738 C 0.36419 0.82161 0.39968 0.0
C2739 C 0.36626 0.84682 0.39297 0.0
C2740 C 0.38182 0.8178 0.425 0.0
C2741 C 0.38024 0.79146 0.43304 0.0
C2742 C 0.35599 0.77669 0.4375 0.0
C2743 C 0.35467 0.75177 0.44477 0.0
C2744 C 0.37754 0.74158 0.44817 0.0
C2745 C 0.40179 0.75626 0.44422 0.0
C2746 C 0.40319 0.78109 0.4367 0.0
C2747 C 0.43342 0.93486 0.47575 0.0
C2748 C 0.45969 0.93726 0.47096 0.0
C2749 C 0.4157 0.91017 0.46857 0.0
C2750 C 0.42373 0.88779 0.45511 0.0
C2751 C 0.45062 0.88984 0.45279 0.0
C2752 C 0.46849 0.91454 0.46051 0.0
C2753 C 0.40319 0.86491 0.43626 0.0
C2754 C 0.40133 0.83965 0.44306 0.0
C2755 C 0.38572 0.86836 0.41057 0.0
C2756 C 0.38792 0.89416 0.40102 0.0
C2757 C 0.41141 0.90628 0.39232 0.0
C2758 C 0.41389 0.9312 0.38482 0.0
C2759 C 0.39286 0.94402 0.38554 0.0
C2760 C 0.36925 0.93189 0.39363 0.0
C2761 C 0.36673 0.90701 0.40129 0.0
H2762 H 0.39483 0.96334 0.37979 0.0
H2763 H 0.37648 0.72233 0.45389 0.0
H2764 H 0.25053 0.33194 0.3205 0.0
H2765 H 0.22669 0.35814 0.35113 0.0
H2766 H 0.16813 0.28755 0.3507 0.0
H2767 H 0.19122 0.26144 0.31846 0.0
H2768 H 0.14286 0.32189 0.34077 0.0
H2769 H 0.21856 0.32556 0.41768 0.0
H2770 H 0.26621 0.3328 0.44125 0.0
H2771 H 0.27884 0.41425 0.43406 0.0
H2772 H 0.23133 0.40743 0.41007 0.0
H2773 H 0.07955 0.39241 0.44572 0.0
H2774 H 0.10622 0.36243 0.42617 0.0
H2775 H 0.16035 0.42769 0.40623 0.0
H2776 H 0.13362 0.45764 0.42496 0.0
H2777 H 0.18721 0.39378 0.4305 0.0
H2778 H 0.11101 0.38746 0.34997 0.0
H2779 H 0.06284 0.37933 0.32826 0.0
H2780 H 0.051 0.30068 0.3456 0.0
H2781 H 0.09907 0.30847 0.36779 0.0
C2782 C 0.2328 0.32189 0.32729 0.0
C2783 C 0.22294 0.29449 0.31716 0.0
C2784 C 0.21919 0.33695 0.34507 0.0
C2785 C 0.19572 0.32495 0.35395 0.0
C2786 C 0.18617 0.29744 0.34435 0.0
C2787 C 0.1995 0.28244 0.32603 0.0
C2788 C 0.18031 0.34125 0.37151 0.0
C2789 C 0.15261 0.33719 0.36079 0.0
C2790 C 0.1928 0.36171 0.39743 0.0
C2791 C 0.22141 0.3659 0.41181 0.0
C2792 C 0.23154 0.34497 0.42091 0.0
C2793 C 0.25852 0.34901 0.43438 0.0
C2794 C 0.27556 0.37395 0.43907 0.0
C2795 C 0.26563 0.39493 0.43038 0.0
C2796 C 0.23867 0.391 0.41687 0.0
C2797 C 0.09708 0.40043 0.43713 0.0
C2798 C 0.10414 0.42754 0.43671 0.0
C2799 C 0.1124 0.38324 0.42606 0.0
C2800 C 0.13511 0.3927 0.41426 0.0
C2801 C 0.14292 0.41987 0.41516 0.0
C2802 C 0.12759 0.43705 0.42608 0.0
C2803 C 0.15006 0.37432 0.39961 0.0
C2804 C 0.17759 0.37813 0.41077 0.0
C2805 C 0.13741 0.3534 0.37439 0.0
C2806 C 0.10856 0.34865 0.36084 0.0
C2807 C 0.09809 0.3685 0.34935 0.0
C2808 C 0.07082 0.36394 0.33693 0.0
C2809 C 0.05385 0.33953 0.33564 0.0
C2810 C 0.06415 0.31959 0.34667 0.0
C2811 C 0.09141 0.32406 0.35915 0.0
H2812 H 0.03274 0.33604 0.32602 0.0
H2813 H 0.29644 0.37703 0.44951 0.0
H2814 H 0.31003 0.19563 0.75635 0.0
H2815 H 0.33906 0.16986 0.73368 0.0
H2816 H 0.29004 0.15956 0.64401 0.0
H2817 H 0.26133 0.18613 0.66637 0.0
H2818 H 0.30618 0.11109 0.66378 0.0
H2819 H 0.34073 0.19908 0.65069 0.0
H2820 H 0.35725 0.24724 0.66762 0.0
H2821 H 0.42168 0.23586 0.7326 0.0
H2822 H 0.40526 0.18757 0.71638 0.0
H2823 H 0.39177 0.06019 0.57376 0.0
H2824 H 0.36207 0.08605 0.5941 0.0
H2825 H 0.4207 0.11697 0.67797 0.0
H2826 H 0.45102 0.09176 0.6573 0.0
H2827 H 0.39897 0.15534 0.66057 0.0
H2828 H 0.36521 0.06778 0.6741 0.0
H2829 H 0.34865 0.01953 0.65858 0.0
H2830 H 0.28283 0.02963 0.59455 0.0
H2831 H 0.29922 0.07799 0.60938 0.0
C2832 C 0.30525 0.18769 0.73184 0.0
C2833 C 0.28333 0.1929 0.71317 0.0
C2834 C 0.32194 0.17307 0.71891 0.0
C2835 C 0.31676 0.16287 0.68716 0.0
C2836 C 0.29439 0.16726 0.66856 0.0
C2837 C 0.27803 0.18244 0.68137 0.0
C2838 C 0.33509 0.14811 0.67347 0.0
C2839 C 0.32634 0.12077 0.66262 0.0
C2840 C 0.3616 0.16069 0.67273 0.0
C2841 C 0.37154 0.1897 0.68262 0.0
C2842 C 0.35823 0.20683 0.66885 0.0
C2843 C 0.36762 0.23416 0.67825 0.0
C2844 C 0.39044 0.2446 0.70126 0.0
C2845 C 0.40396 0.22773 0.71483 0.0
C2846 C 0.39463 0.20038 0.70554 0.0
C2847 C 0.39859 0.07273 0.59639 0.0
C2848 C 0.42392 0.0738 0.61383 0.0
C2849 C 0.38138 0.08732 0.60816 0.0
C2850 C 0.38889 0.10324 0.6378 0.0
C2851 C 0.41433 0.10476 0.6551 0.0
C2852 C 0.43159 0.09013 0.64333 0.0
C2853 C 0.37014 0.11813 0.65075 0.0
C2854 C 0.37881 0.14555 0.66158 0.0
C2855 C 0.34356 0.10558 0.65161 0.0
C2856 C 0.33361 0.07651 0.64262 0.0
C2857 C 0.34733 0.05972 0.65652 0.0
C2858 C 0.33795 0.03235 0.64788 0.0
C2859 C 0.31475 0.02152 0.62553 0.0
C2860 C 0.30083 0.03805 0.61182 0.0
C2861 C 0.31014 0.06544 0.62035 0.0
H2862 H 0.30751 0.00032 0.61888 0.0
H2863 H 0.39769 0.26577 0.70849 0.0
H2864 H 0.79854 0.33648 0.73448 0.0
H2865 H 0.82613 0.36601 0.70949 0.0
H2866 H 0.82416 0.30025 0.63733 0.0
H2867 H 0.79815 0.27037 0.6637 0.0
H2868 H 0.86946 0.32836 0.64573 0.0
H2869 H 0.78533 0.35179 0.63114 0.0
H2870 H 0.74528 0.36489 0.64558 0.0
H2871 H 0.79449 0.43681 0.7026 0.0
H2872 H 0.83488 0.42397 0.68883 0.0
H2873 H 0.9134 0.41359 0.54449 0.0
H2874 H 0.88502 0.38254 0.56754 0.0
H2875 H 0.90582 0.43877 0.65351 0.0
H2876 H 0.93451 0.46975 0.63079 0.0
H2877 H 0.85005 0.41507 0.63524 0.0
H2878 H 0.93457 0.38816 0.64574 0.0
H2879 H 0.97175 0.37347 0.62545 0.0
H2880 H 0.91655 0.30539 0.56752 0.0
H2881 H 0.87899 0.3199 0.58713 0.0
C2882 C 0.80392 0.3283 0.71323 0.0
C2883 C 0.79592 0.30104 0.701 0.0
C2884 C 0.81957 0.34532 0.69868 0.0
C2885 C 0.82685 0.33578 0.67078 0.0
C2886 C 0.81896 0.30842 0.65869 0.0
C2887 C 0.80393 0.29126 0.67374 0.0
C2888 C 0.84294 0.35417 0.65458 0.0
C2889 C 0.86478 0.34709 0.64311 0.0
C2890 C 0.83737 0.37892 0.65097 0.0
C2891 C 0.81313 0.3868 0.65916 0.0
C2892 C 0.78761 0.37033 0.6469 0.0
C2893 C 0.76486 0.37771 0.65496 0.0
C2894 C 0.76735 0.40164 0.67505 0.0
C2895 C 0.7926 0.41827 0.68707 0.0
C2896 C 0.81542 0.41096 0.67912 0.0
C2897 C 0.91197 0.41937 0.56832 0.0
C2898 C 0.9264 0.4442 0.58581 0.0
C2899 C 0.89574 0.40154 0.5815 0.0
C2900 C 0.89332 0.40818 0.61238 0.0
C2901 C 0.90732 0.43312 0.62968 0.0
C2902 C 0.92382 0.45082 0.61666 0.0
C2903 C 0.87637 0.38918 0.62679 0.0
C2904 C 0.85444 0.39622 0.63786 0.0
C2905 C 0.88134 0.36409 0.62914 0.0
C2906 C 0.90396 0.35525 0.61768 0.0
C2907 C 0.93035 0.37016 0.62851 0.0
C2908 C 0.95149 0.36186 0.61716 0.0
C2909 C 0.94651 0.33855 0.59516 0.0
C2910 C 0.92038 0.32346 0.58453 0.0
C2911 C 0.89916 0.33171 0.59577 0.0
H2912 H 0.9629 0.33215 0.58639 0.0
H2913 H 0.74971 0.40732 0.68127 0.0
H2914 H 0.25918 0.68687 0.66372 0.0
H2915 H 0.24255 0.64698 0.62377 0.0
H2916 H 0.17917 0.62112 0.67099 0.0
H2917 H 0.19548 0.66104 0.71097 0.0
H2918 H 0.19948 0.57834 0.63667 0.0
H2919 H 0.16551 0.66088 0.62559 0.0
H2920 H 0.17658 0.70812 0.62323 0.0
H2921 H 0.22034 0.69121 0.55178 0.0
H2922 H 0.20982 0.64391 0.55416 0.0
H2923 H 0.06673 0.55254 0.59908 0.0
H2924 H 0.11493 0.57004 0.61379 0.0
H2925 H 0.12127 0.56091 0.51827 0.0
H2926 H 0.0729 0.54291 0.50346 0.0
H2927 H 0.1471 0.61132 0.55546 0.0
H2928 H 0.14893 0.52398 0.552 0.0
H2929 H 0.13337 0.47795 0.55686 0.0
H2930 H 0.15015 0.5019 0.65514 0.0
H2931 H 0.16473 0.54825 0.65101 0.0
C2932 C 0.24203 0.67241 0.66599 0.0
C2933 C 0.22815 0.67731 0.69006 0.0
C2934 C 0.23284 0.6495 0.64334 0.0
C2935 C 0.20976 0.6312 0.64457 0.0
C2936 C 0.19725 0.63497 0.66993 0.0
C2937 C 0.20629 0.65795 0.69247 0.0
C2938 C 0.1947 0.61194 0.61689 0.0
C2939 C 0.18838 0.58514 0.61832 0.0
C2940 C 0.18129 0.62087 0.59223 0.0
C2941 C 0.18697 0.64903 0.59009 0.0
C2942 C 0.17747 0.6673 0.60939 0.0
C2943 C 0.18371 0.69405 0.60811 0.0
C2944 C 0.19917 0.70266 0.58738 0.0
C2945 C 0.20841 0.68452 0.56787 0.0
C2946 C 0.20235 0.65775 0.56919 0.0
C2947 C 0.07831 0.55435 0.58119 0.0
C2948 C 0.06606 0.54671 0.55004 0.0
C2949 C 0.10585 0.56402 0.58958 0.0
C2950 C 0.12155 0.56624 0.56701 0.0
C2951 C 0.10942 0.55905 0.53591 0.0
C2952 C 0.08184 0.54909 0.52752 0.0
C2953 C 0.15031 0.57814 0.57686 0.0
C2954 C 0.1593 0.60367 0.57211 0.0
C2955 C 0.16621 0.56784 0.59814 0.0
C2956 C 0.15819 0.53979 0.60116 0.0
C2957 C 0.14923 0.51954 0.5747 0.0
C2958 C 0.14048 0.49335 0.57732 0.0
C2959 C 0.14097 0.48701 0.60629 0.0
C2960 C 0.14995 0.50686 0.63271 0.0
C2961 C 0.15846 0.53313 0.63024 0.0
H2962 H 0.13443 0.46672 0.60829 0.0
H2963 H 0.20398 0.72338 0.58642 0.0
loop_
_geom_bond_atom_site_label_1
_geom_bond_atom_site_label_2
_geom_bond_distance
_geom_bond_site_symmetry_2
_ccdc_geom_bond_type
Co0 N5 2.057 . S
Co0 O17 2.021 . S
Co0 O20 2.062 . S
Co0 O24 2.117 . S
Co0 O25 2.020 . S
C1 O21 1.259 . S
C1 O24 1.258 . S
Co2 N11 2.057 . S
Co2 O18 2.117 . S
Co2 O19 2.020 . S
Co2 O21 2.021 . S
Co2 O26 2.062 . S
C3 N5 1.316 . S
C3 N6 1.347 . S
C3 H8 0.931 . S
C4 N5 1.375 . S
C4 C7 1.350 . S
C4 H9 0.930 . S
N5 Co0 2.057 . S
N5 C3 1.316 . S
N5 C4 1.375 . S
N6 C3 1.347 . S
N6 C7 1.373 . S
C7 C4 1.350 . S
C7 N6 1.373 . S
C7 H28 0.931 . S
H8 C3 0.931 . S
H9 C4 0.930 . S
C10 O17 1.259 . S
C10 O18 1.258 . S
N11 Co2 2.057 . S
N11 C12 1.316 . S
N11 C13 1.375 . S
C12 N11 1.316 . S
C12 N14 1.347 . S
C12 H23 0.931 . S
C13 N11 1.375 . S
C13 C15 1.350 . S
C13 H22 0.930 . S
N14 C12 1.347 . S
N14 C15 1.373 . S
C15 C13 1.350 . S
C15 N14 1.373 . S
C15 H29 0.931 . S
C16 O19 1.256 . S
C16 O20 1.255 . S
O17 Co0 2.021 . S
O17 C10 1.259 . S
O18 Co2 2.117 . S
O18 C10 1.258 . S
O19 Co2 2.020 . S
O19 C16 1.256 . S
O20 Co0 2.062 . S
O20 C16 1.255 . S
O21 C1 1.259 . S
O21 Co2 2.021 . S
H22 C13 0.930 . S
H23 C12 0.931 . S
O24 Co0 2.117 . S
O24 C1 1.258 . S
O25 Co0 2.020 . S
O25 C27 1.256 . S
O26 Co2 2.062 . S
O26 C27 1.255 . S
C27 O25 1.256 . S
C27 O26 1.255 . S
H28 C7 0.931 . S
H29 C15 0.931 . S
Co30 N35 2.057 . S
Co30 O47 2.021 . S
Co30 O50 2.062 . S
Co30 O54 2.117 . S
Co30 O55 2.020 . S
C31 O51 1.259 . S
C31 O54 1.258 . S
Co32 N41 2.057 . S
Co32 O48 2.117 . S
Co32 O49 2.020 . S
Co32 O51 2.021 . S
Co32 O56 2.062 . S
C33 N35 1.316 . S
C33 N36 1.347 . S
C33 H38 0.931 . S
C34 N35 1.375 . S
C34 C37 1.350 . S
C34 H39 0.930 . S
N35 Co30 2.057 . S
N35 C33 1.316 . S
N35 C34 1.375 . S
N36 C33 1.347 . S
N36 C37 1.373 . S
C37 C34 1.350 . S
C37 N36 1.373 . S
C37 H58 0.931 . S
H38 C33 0.931 . S
H39 C34 0.930 . S
C40 O47 1.259 . S
C40 O48 1.258 . S
N41 Co32 2.057 . S
N41 C42 1.316 . S
N41 C43 1.375 . S
C42 N41 1.316 . S
C42 N44 1.347 . S
C42 H53 0.931 . S
C43 N41 1.375 . S
C43 C45 1.350 . S
C43 H52 0.930 . S
N44 C42 1.347 . S
N44 C45 1.373 . S
C45 C43 1.350 . S
C45 N44 1.373 . S
C45 H59 0.931 . S
C46 O49 1.256 . S
C46 O50 1.255 . S
O47 Co30 2.021 . S
O47 C40 1.259 . S
O48 Co32 2.117 . S
O48 C40 1.258 . S
O49 Co32 2.020 . S
O49 C46 1.256 . S
O50 Co30 2.062 . S
O50 C46 1.255 . S
O51 C31 1.259 . S
O51 Co32 2.021 . S
H52 C43 0.930 . S
H53 C42 0.931 . S
O54 Co30 2.117 . S
O54 C31 1.258 . S
O55 Co30 2.020 . S
O55 C57 1.256 . S
O56 Co32 2.062 . S
O56 C57 1.255 . S
C57 O55 1.256 . S
C57 O56 1.255 . S
H58 C37 0.931 . S
H59 C45 0.931 . S
Co60 N65 2.057 . S
Co60 O77 2.021 . S
Co60 O80 2.062 . S
Co60 O84 2.117 . S
Co60 O85 2.020 . S
C61 O81 1.259 . S
C61 O84 1.258 . S
Co62 N71 2.057 . S
Co62 O78 2.117 . S
Co62 O79 2.020 . S
Co62 O81 2.021 . S
Co62 O86 2.062 . S
C63 N65 1.316 . S
C63 N66 1.347 . S
C63 H68 0.931 . S
C64 N65 1.375 . S
C64 C67 1.350 . S
C64 H69 0.930 . S
N65 Co60 2.057 . S
N65 C63 1.316 . S
N65 C64 1.375 . S
N66 C63 1.347 . S
N66 C67 1.373 . S
C67 C64 1.350 . S
C67 N66 1.373 . S
C67 H88 0.931 . S
H68 C63 0.931 . S
H69 C64 0.930 . S
C70 O77 1.259 . S
C70 O78 1.258 . S
N71 Co62 2.057 . S
N71 C72 1.316 . S
N71 C73 1.375 . S
C72 N71 1.316 . S
C72 N74 1.347 . S
C72 H83 0.931 . S
C73 N71 1.375 . S
C73 C75 1.350 . S
C73 H82 0.930 . S
N74 C72 1.347 . S
N74 C75 1.373 . S
C75 C73 1.350 . S
C75 N74 1.373 . S
C75 H89 0.931 . S
C76 O79 1.256 . S
C76 O80 1.255 . S
O77 Co60 2.021 . S
O77 C70 1.259 . S
O78 Co62 2.117 . S
O78 C70 1.258 . S
O79 Co62 2.020 . S
O79 C76 1.256 . S
O80 Co60 2.062 . S
O80 C76 1.255 . S
O81 C61 1.259 . S
O81 Co62 2.021 . S
H82 C73 0.930 . S
H83 C72 0.931 . S
O84 Co60 2.117 . S
O84 C61 1.258 . S
O85 Co60 2.020 . S
O85 C87 1.256 . S
O86 Co62 2.062 . S
O86 C87 1.255 . S
C87 O85 1.256 . S
C87 O86 1.255 . S
H88 C67 0.931 . S
H89 C75 0.931 . S
Co90 N95 2.057 . S
Co90 O107 2.021 . S
Co90 O110 2.062 . S
Co90 O114 2.117 . S
Co90 O115 2.020 . S
C91 O111 1.259 . S
C91 O114 1.258 . S
Co92 N101 2.057 . S
Co92 O108 2.117 . S
Co92 O109 2.020 . S
Co92 O111 2.021 . S
Co92 O116 2.062 . S
C93 N95 1.316 . S
C93 N96 1.347 . S
C93 H98 0.931 . S
C94 N95 1.375 . S
C94 C97 1.350 . S
C94 H99 0.930 . S
N95 Co90 2.057 . S
N95 C93 1.316 . S
N95 C94 1.375 . S
N96 C93 1.347 . S
N96 C97 1.373 . S
C97 C94 1.350 . S
C97 N96 1.373 . S
C97 H118 0.931 . S
H98 C93 0.931 . S
H99 C94 0.930 . S
C100 O107 1.259 . S
C100 O108 1.258 . S
N101 Co92 2.057 . S
N101 C102 1.316 . S
N101 C103 1.375 . S
C102 N101 1.316 . S
C102 N104 1.347 . S
C102 H113 0.931 . S
C103 N101 1.375 . S
C103 C105 1.350 . S
C103 H112 0.930 . S
N104 C102 1.347 . S
N104 C105 1.373 . S
C105 C103 1.350 . S
C105 N104 1.373 . S
C105 H119 0.931 . S
C106 O109 1.256 . S
C106 O110 1.255 . S
O107 Co90 2.021 . S
O107 C100 1.259 . S
O108 Co92 2.117 . S
O108 C100 1.258 . S
O109 Co92 2.020 . S
O109 C106 1.256 . S
O110 Co90 2.062 . S
O110 C106 1.255 . S
O111 C91 1.259 . S
O111 Co92 2.021 . S
H112 C103 0.930 . S
H113 C102 0.931 . S
O114 Co90 2.117 . S
O114 C91 1.258 . S
O115 Co90 2.020 . S
O115 C117 1.256 . S
O116 Co92 2.062 . S
O116 C117 1.255 . S
C117 O115 1.256 . S
C117 O116 1.255 . S
H118 C97 0.931 . S
H119 C105 0.931 . S
Co120 N125 2.057 . S
Co120 O137 2.021 . S
Co120 O140 2.062 . S
Co120 O144 2.117 . S
Co120 O145 2.020 . S
C121 O141 1.259 . S
C121 O144 1.258 . S
Co122 N131 2.057 . S
Co122 O138 2.117 . S
Co122 O139 2.020 . S
Co122 O141 2.021 . S
Co122 O146 2.062 . S
C123 N125 1.316 . S
C123 N126 1.347 . S
C123 H128 0.931 . S
C124 N125 1.375 . S
C124 C127 1.350 . S
C124 H129 0.930 . S
N125 Co120 2.057 . S
N125 C123 1.316 . S
N125 C124 1.375 . S
N126 C123 1.347 . S
N126 C127 1.373 . S
C127 C124 1.350 . S
C127 N126 1.373 . S
C127 H148 0.931 . S
H128 C123 0.931 . S
H129 C124 0.930 . S
C130 O137 1.259 . S
C130 O138 1.258 . S
N131 Co122 2.057 . S
N131 C132 1.316 . S
N131 C133 1.375 . S
C132 N131 1.316 . S
C132 N134 1.347 . S
C132 H143 0.931 . S
C133 N131 1.375 . S
C133 C135 1.350 . S
C133 H142 0.930 . S
N134 C132 1.347 . S
N134 C135 1.373 . S
C135 C133 1.350 . S
C135 N134 1.373 . S
C135 H149 0.931 . S
C136 O139 1.256 . S
C136 O140 1.255 . S
O137 Co120 2.021 . S
O137 C130 1.259 . S
O138 Co122 2.117 . S
O138 C130 1.258 . S
O139 Co122 2.020 . S
O139 C136 1.256 . S
O140 Co120 2.062 . S
O140 C136 1.255 . S
O141 C121 1.259 . S
O141 Co122 2.021 . S
H142 C133 0.930 . S
H143 C132 0.931 . S
O144 Co120 2.117 . S
O144 C121 1.258 . S
O145 Co120 2.020 . S
O145 C147 1.256 . S
O146 Co122 2.062 . S
O146 C147 1.255 . S
C147 O145 1.256 . S
C147 O146 1.255 . S
H148 C127 0.931 . S
H149 C135 0.931 . S
Co150 N155 2.057 . S
Co150 O167 2.021 . S
Co150 O170 2.062 . S
Co150 O174 2.117 . S
Co150 O175 2.020 . S
C151 O171 1.259 . S
C151 O174 1.258 . S
Co152 N161 2.057 . S
Co152 O168 2.117 . S
Co152 O169 2.020 . S
Co152 O171 2.021 . S
Co152 O176 2.062 . S
C153 N155 1.316 . S
C153 N156 1.347 . S
C153 H158 0.931 . S
C154 N155 1.375 . S
C154 C157 1.350 . S
C154 H159 0.930 . S
N155 Co150 2.057 . S
N155 C153 1.316 . S
N155 C154 1.375 . S
N156 C153 1.347 . S
N156 C157 1.373 . S
C157 C154 1.350 . S
C157 N156 1.373 . S
C157 H178 0.931 . S
H158 C153 0.931 . S
H159 C154 0.930 . S
C160 O167 1.259 . S
C160 O168 1.258 . S
N161 Co152 2.057 . S
N161 C162 1.316 . S
N161 C163 1.375 . S
C162 N161 1.316 . S
C162 N164 1.347 . S
C162 H173 0.931 . S
C163 N161 1.375 . S
C163 C165 1.350 . S
C163 H172 0.930 . S
N164 C162 1.347 . S
N164 C165 1.373 . S
C165 C163 1.350 . S
C165 N164 1.373 . S
C165 H179 0.931 . S
C166 O169 1.256 . S
C166 O170 1.255 . S
O167 Co150 2.021 . S
O167 C160 1.259 . S
O168 Co152 2.117 . S
O168 C160 1.258 . S
O169 Co152 2.020 . S
O169 C166 1.256 . S
O170 Co150 2.062 . S
O170 C166 1.255 . S
O171 C151 1.259 . S
O171 Co152 2.021 . S
H172 C163 0.930 . S
H173 C162 0.931 . S
O174 Co150 2.117 . S
O174 C151 1.258 . S
O175 Co150 2.020 . S
O175 C177 1.256 . S
O176 Co152 2.062 . S
O176 C177 1.255 . S
C177 O175 1.256 . S
C177 O176 1.255 . S
H178 C157 0.931 . S
H179 C165 0.931 . S
Co180 N185 2.057 . S
Co180 O197 2.021 . S
Co180 O200 2.062 . S
Co180 O204 2.117 . S
Co180 O205 2.020 . S
C181 O201 1.259 . S
C181 O204 1.258 . S
Co182 N191 2.057 . S
Co182 O198 2.117 . S
Co182 O199 2.020 . S
Co182 O201 2.021 . S
Co182 O206 2.062 . S
C183 N185 1.316 . S
C183 N186 1.347 . S
C183 H188 0.931 . S
C184 N185 1.375 . S
C184 C187 1.350 . S
C184 H189 0.930 . S
N185 Co180 2.057 . S
N185 C183 1.316 . S
N185 C184 1.375 . S
N186 C183 1.347 . S
N186 C187 1.373 . S
C187 C184 1.350 . S
C187 N186 1.373 . S
C187 H208 0.931 . S
H188 C183 0.931 . S
H189 C184 0.930 . S
C190 O197 1.259 . S
C190 O198 1.258 . S
N191 Co182 2.057 . S
N191 C192 1.316 . S
N191 C193 1.375 . S
C192 N191 1.316 . S
C192 N194 1.347 . S
C192 H203 0.931 . S
C193 N191 1.375 . S
C193 C195 1.350 . S
C193 H202 0.930 . S
N194 C192 1.347 . S
N194 C195 1.373 . S
C195 C193 1.350 . S
C195 N194 1.373 . S
C195 H209 0.931 . S
C196 O199 1.256 . S
C196 O200 1.255 . S
O197 Co180 2.021 . S
O197 C190 1.259 . S
O198 Co182 2.117 . S
O198 C190 1.258 . S
O199 Co182 2.020 . S
O199 C196 1.256 . S
O200 Co180 2.062 . S
O200 C196 1.255 . S
O201 C181 1.259 . S
O201 Co182 2.021 . S
H202 C193 0.930 . S
H203 C192 0.931 . S
O204 Co180 2.117 . S
O204 C181 1.258 . S
O205 Co180 2.020 . S
O205 C207 1.256 . S
O206 Co182 2.062 . S
O206 C207 1.255 . S
C207 O205 1.256 . S
C207 O206 1.255 . S
H208 C187 0.931 . S
H209 C195 0.931 . S
Co210 N215 2.057 . S
Co210 O227 2.021 . S
Co210 O230 2.062 . S
Co210 O234 2.117 . S
Co210 O235 2.020 . S
C211 O231 1.259 . S
C211 O234 1.258 . S
Co212 N221 2.057 . S
Co212 O228 2.117 . S
Co212 O229 2.020 . S
Co212 O231 2.021 . S
Co212 O236 2.062 . S
C213 N215 1.316 . S
C213 N216 1.347 . S
C213 H218 0.931 . S
C214 N215 1.375 . S
C214 C217 1.350 . S
C214 H219 0.930 . S
N215 Co210 2.057 . S
N215 C213 1.316 . S
N215 C214 1.375 . S
N216 C213 1.347 . S
N216 C217 1.373 . S
C217 C214 1.350 . S
C217 N216 1.373 . S
C217 H238 0.931 . S
H218 C213 0.931 . S
H219 C214 0.930 . S
C220 O227 1.259 . S
C220 O228 1.258 . S
N221 Co212 2.057 . S
N221 C222 1.316 . S
N221 C223 1.375 . S
C222 N221 1.316 . S
C222 N224 1.347 . S
C222 H233 0.931 . S
C223 N221 1.375 . S
C223 C225 1.350 . S
C223 H232 0.930 . S
N224 C222 1.347 . S
N224 C225 1.373 . S
C225 C223 1.350 . S
C225 N224 1.373 . S
C225 H239 0.931 . S
C226 O229 1.256 . S
C226 O230 1.255 . S
O227 Co210 2.021 . S
O227 C220 1.259 . S
O228 Co212 2.117 . S
O228 C220 1.258 . S
O229 Co212 2.020 . S
O229 C226 1.256 . S
O230 Co210 2.062 . S
O230 C226 1.255 . S
O231 C211 1.259 . S
O231 Co212 2.021 . S
H232 C223 0.930 . S
H233 C222 0.931 . S
O234 Co210 2.117 . S
O234 C211 1.258 . S
O235 Co210 2.020 . S
O235 C237 1.256 . S
O236 Co212 2.062 . S
O236 C237 1.255 . S
C237 O235 1.256 . S
C237 O236 1.255 . S
H238 C217 0.931 . S
H239 C225 0.931 . S
Cd240 N243 2.334 1_655 S
Cd240 N269 2.304 1_565 S
Cd240 O276 2.268 . S
Cd240 O279 2.273 1_665 S
Cd240 O280 2.417 . S
Cd240 O281 2.330 . S
Cd241 N256 2.304 1_455 S
Cd241 N260 2.334 1_545 S
Cd241 O277 2.273 1_445 S
Cd241 O278 2.268 . S
Cd241 O282 2.417 . S
Cd241 O283 2.330 . S
C242 N243 1.332 . S
C242 C246 1.381 . S
C242 H248 0.931 . S
N243 Cd240 2.334 1_455 S
N243 C242 1.332 . S
N243 C247 1.328 . S
C244 C245 1.396 . S
C244 C247 1.378 . S
C244 H286 0.931 . S
C245 C244 1.396 . S
C245 C246 1.382 . S
C246 C242 1.381 . S
C246 C245 1.382 . S
C246 H287 0.930 . S
C247 N243 1.328 . S
C247 C244 1.378 . S
C247 H249 0.930 1_455 S
H248 C242 0.931 . S
H249 C247 0.930 1_655 S
C250 O276 1.238 . S
C250 O277 1.253 . S
C251 C252 1.379 . S
C251 N256 1.337 . S
C251 H257 0.929 . S
C252 C251 1.379 . S
C252 C253 1.380 . S
C252 H288 0.929 . S
C253 C252 1.380 . S
C253 C254 1.399 . S
C254 C253 1.399 . S
C254 C255 1.376 . S
C254 H289 0.931 . S
C255 C254 1.376 . S
C255 N256 1.338 . S
C255 H258 0.930 1_655 S
N256 Cd241 2.304 1_655 S
N256 C251 1.337 . S
N256 C255 1.338 . S
H257 C251 0.929 . S
H258 C255 0.930 1_455 S
C259 N260 1.332 . S
C259 C263 1.381 . S
C259 H265 0.931 . S
N260 Cd241 2.334 1_565 S
N260 C259 1.332 . S
N260 C264 1.328 . S
C261 C262 1.396 . S
C261 C264 1.378 . S
C261 H290 0.931 . S
C262 C261 1.396 . S
C262 C263 1.382 . S
C263 C259 1.381 . S
C263 C262 1.382 . S
C263 H291 0.930 . S
C264 N260 1.328 . S
C264 C261 1.378 . S
C264 H266 0.930 1_565 S
H265 C259 0.931 . S
H266 C264 0.930 1_545 S
C267 O278 1.238 . S
C267 O279 1.253 . S
C268 O280 1.239 . S
C268 O281 1.230 . S
N269 Cd240 2.304 1_545 S
N269 C270 1.337 . S
N269 C274 1.338 . S
C270 N269 1.337 . S
C270 C271 1.379 . S
C270 H284 0.929 . S
C271 C270 1.379 . S
C271 C272 1.380 . S
C271 H292 0.929 . S
C272 C271 1.380 . S
C272 C273 1.399 . S
C273 C272 1.399 . S
C273 C274 1.376 . S
C273 H293 0.931 . S
C274 N269 1.338 . S
C274 C273 1.376 . S
C274 H285 0.921 1_545 S
C275 O282 1.239 . S
C275 O283 1.230 . S
O276 Cd240 2.268 . S
O276 C250 1.238 . S
O277 Cd241 2.273 1_665 S
O277 C250 1.253 . S
O278 Cd241 2.268 . S
O278 C267 1.238 . S
O279 Cd240 2.273 1_445 S
O279 C267 1.253 . S
O280 Cd240 2.417 . S
O280 C268 1.239 . S
O281 Cd240 2.330 . S
O281 C268 1.230 . S
O282 Cd241 2.417 . S
O282 C275 1.239 . S
O283 Cd241 2.330 . S
O283 C275 1.230 . S
H284 C270 0.929 . S
H285 C274 0.921 1_565 S
H286 C244 0.931 . S
H287 C246 0.930 . S
H288 C252 0.929 . S
H289 C254 0.931 . S
H290 C261 0.931 . S
H291 C263 0.930 . S
H292 C271 0.929 . S
H293 C273 0.931 . S
Cd294 N297 2.334 . S
Cd294 N323 2.304 1_565 S
Cd294 O330 2.268 1_554 S
Cd294 O333 2.273 1_565 S
Cd294 O334 2.417 . S
Cd294 O335 2.330 . S
Cd295 N310 2.304 . S
Cd295 N314 2.334 1_545 S
Cd295 O331 2.273 1_545 S
Cd295 O332 2.268 1_556 S
Cd295 O336 2.417 . S
Cd295 O337 2.330 . S
C296 N297 1.332 . S
C296 C300 1.381 . S
C296 H302 0.931 . S
N297 Cd294 2.334 . S
N297 C296 1.332 . S
N297 C301 1.328 . S
C298 C299 1.396 . S
C298 C301 1.378 . S
C298 H340 0.931 1_554 S
C299 C298 1.396 . S
C299 C300 1.382 . S
C300 C296 1.381 . S
C300 C299 1.382 . S
C300 H341 0.930 . S
C301 N297 1.328 . S
C301 C298 1.378 . S
C301 H303 0.930 1_554 S
H302 C296 0.931 . S
H303 C301 0.930 1_556 S
C304 O330 1.238 . S
C304 O331 1.253 . S
C305 C306 1.379 . S
C305 N310 1.337 . S
C305 H311 0.929 . S
C306 C305 1.379 . S
C306 C307 1.380 . S
C306 H342 0.929 . S
C307 C306 1.380 . S
C307 C308 1.399 . S
C308 C307 1.399 . S
C308 C309 1.376 . S
C308 H343 0.931 1_556 S
C309 C308 1.376 . S
C309 N310 1.338 . S
C309 H312 0.930 1_556 S
N310 Cd295 2.304 . S
N310 C305 1.337 . S
N310 C309 1.338 . S
H311 C305 0.929 . S
H312 C309 0.930 1_554 S
C313 N314 1.332 . S
C313 C317 1.381 . S
C313 H319 0.931 . S
N314 Cd295 2.334 1_565 S
N314 C313 1.332 . S
N314 C318 1.328 . S
C315 C316 1.396 . S
C315 C318 1.378 . S
C315 H344 0.931 1_556 S
C316 C315 1.396 . S
C316 C317 1.382 . S
C317 C313 1.381 . S
C317 C316 1.382 . S
C317 H345 0.930 . S
C318 N314 1.328 . S
C318 C315 1.378 . S
C318 H320 0.930 1_566 S
H319 C313 0.931 . S
H320 C318 0.930 1_544 S
C321 O332 1.238 . S
C321 O333 1.253 . S
C322 O334 1.239 . S
C322 O335 1.230 . S
N323 Cd294 2.304 1_545 S
N323 C324 1.337 . S
N323 C328 1.338 . S
C324 N323 1.337 . S
C324 C325 1.379 . S
C324 H338 0.929 . S
C325 C324 1.379 . S
C325 C326 1.380 . S
C325 H346 0.929 . S
C326 C325 1.380 . S
C326 C327 1.399 . S
C327 C326 1.399 . S
C327 C328 1.376 . S
C327 H347 0.931 1_554 S
C328 N323 1.338 . S
C328 C327 1.376 . S
C328 H339 0.919 1_544 S
C329 O336 1.239 . S
C329 O337 1.230 . S
O330 Cd294 2.268 1_556 S
O330 C304 1.238 . S
O331 Cd295 2.273 1_565 S
O331 C304 1.253 . S
O332 Cd295 2.268 1_554 S
O332 C321 1.238 . S
O333 Cd294 2.273 1_545 S
O333 C321 1.253 . S
O334 Cd294 2.417 . S
O334 C322 1.239 . S
O335 Cd294 2.330 . S
O335 C322 1.230 . S
O336 Cd295 2.417 . S
O336 C329 1.239 . S
O337 Cd295 2.330 . S
O337 C329 1.230 . S
H338 C324 0.929 . S
H339 C328 0.919 1_566 S
H340 C298 0.931 1_556 S
H341 C300 0.930 . S
H342 C306 0.929 . S
H343 C308 0.931 1_554 S
H344 C315 0.931 1_554 S
H345 C317 0.930 . S
H346 C325 0.929 . S
H347 C327 0.931 1_556 S
Cd348 N351 2.334 1_655 S
Cd348 N377 2.304 . S
Cd348 O384 2.268 1_554 S
Cd348 O387 2.273 1_655 S
Cd348 O388 2.417 . S
Cd348 O389 2.330 . S
Cd349 N364 2.304 1_455 S
Cd349 N368 2.334 . S
Cd349 O385 2.273 1_455 S
Cd349 O386 2.268 1_556 S
Cd349 O390 2.417 . S
Cd349 O391 2.330 . S
C350 N351 1.332 . S
C350 C354 1.381 . S
C350 H356 0.931 . S
N351 Cd348 2.334 1_455 S
N351 C350 1.332 . S
N351 C355 1.328 . S
C352 C353 1.396 . S
C352 C355 1.378 . S
C352 H394 0.931 1_554 S
C353 C352 1.396 . S
C353 C354 1.382 . S
C354 C350 1.381 . S
C354 C353 1.382 . S
C354 H395 0.930 . S
C355 N351 1.328 . S
C355 C352 1.378 . S
C355 H357 0.930 1_454 S
H356 C350 0.931 . S
H357 C355 0.930 1_656 S
C358 O384 1.238 . S
C358 O385 1.253 . S
C359 C360 1.379 . S
C359 N364 1.337 . S
C359 H365 0.929 . S
C360 C359 1.379 . S
C360 C361 1.380 . S
C360 H396 0.929 . S
C361 C360 1.380 . S
C361 C362 1.399 . S
C362 C361 1.399 . S
C362 C363 1.376 . S
C362 H397 0.931 1_556 S
C363 C362 1.376 . S
C363 N364 1.338 . S
C363 H366 0.930 1_656 S
N364 Cd349 2.304 1_655 S
N364 C359 1.337 . S
N364 C363 1.338 . S
H365 C359 0.929 . S
H366 C363 0.930 1_454 S
C367 N368 1.332 . S
C367 C371 1.381 . S
C367 H373 0.931 . S
N368 Cd349 2.334 . S
N368 C367 1.332 . S
N368 C372 1.328 . S
C369 C370 1.396 . S
C369 C372 1.378 . S
C369 H398 0.931 1_556 S
C370 C369 1.396 . S
C370 C371 1.382 . S
C371 C367 1.381 . S
C371 C370 1.382 . S
C371 H399 0.930 . S
C372 N368 1.328 . S
C372 C369 1.378 . S
C372 H374 0.930 1_556 S
H373 C367 0.931 . S
H374 C372 0.930 1_554 S
C375 O386 1.238 . S
C375 O387 1.253 . S
C376 O388 1.239 . S
C376 O389 1.230 . S
N377 Cd348 2.304 . S
N377 C378 1.337 . S
N377 C382 1.338 . S
C378 N377 1.337 . S
C378 C379 1.379 . S
C378 H392 0.929 . S
C379 C378 1.379 . S
C379 C380 1.380 . S
C379 H400 0.929 . S
C380 C379 1.380 . S
C380 C381 1.399 . S
C381 C380 1.399 . S
C381 C382 1.376 . S
C381 H401 0.931 1_554 S
C382 N377 1.338 . S
C382 C381 1.376 . S
C382 H393 0.930 1_554 S
C383 O390 1.239 . S
C383 O391 1.230 . S
O384 Cd348 2.268 1_556 S
O384 C358 1.238 . S
O385 Cd349 2.273 1_655 S
O385 C358 1.253 . S
O386 Cd349 2.268 1_554 S
O386 C375 1.238 . S
O387 Cd348 2.273 1_455 S
O387 C375 1.253 . S
O388 Cd348 2.417 . S
O388 C376 1.239 . S
O389 Cd348 2.330 . S
O389 C376 1.230 . S
O390 Cd349 2.417 . S
O390 C383 1.239 . S
O391 Cd349 2.330 . S
O391 C383 1.230 . S
H392 C378 0.929 . S
H393 C382 0.930 1_556 S
H394 C352 0.931 1_556 S
H395 C354 0.930 . S
H396 C360 0.929 . S
H397 C362 0.931 1_554 S
H398 C369 0.931 1_554 S
H399 C371 0.930 . S
H400 C379 0.929 . S
H401 C381 0.931 1_556 S
Cd402 N405 2.334 . S
Cd402 N431 2.304 . S
Cd402 O438 2.268 1_554 S
Cd402 O441 2.273 . S
Cd402 O442 2.417 . S
Cd402 O443 2.330 . S
Cd403 N418 2.304 . S
Cd403 N422 2.334 . S
Cd403 O439 2.273 . S
Cd403 O440 2.268 1_556 S
Cd403 O444 2.417 . S
Cd403 O445 2.330 . S
C404 N405 1.332 . S
C404 C408 1.381 . S
C404 H410 0.931 . S
N405 Cd402 2.334 . S
N405 C404 1.332 . S
N405 C409 1.328 . S
C406 C407 1.396 . S
C406 C409 1.378 . S
C406 H448 0.931 1_554 S
C407 C406 1.396 . S
C407 C408 1.382 . S
C408 C404 1.381 . S
C408 C407 1.382 . S
C408 H449 0.930 . S
C409 N405 1.328 . S
C409 C406 1.378 . S
C409 H411 0.930 1_554 S
H410 C404 0.931 . S
H411 C409 0.930 1_556 S
C412 O438 1.238 . S
C412 O439 1.253 . S
C413 C414 1.379 . S
C413 N418 1.337 . S
C413 H419 0.929 . S
C414 C413 1.379 . S
C414 C415 1.380 . S
C414 H450 0.929 . S
C415 C414 1.380 . S
C415 C416 1.399 . S
C416 C415 1.399 . S
C416 C417 1.376 . S
C416 H451 0.931 1_556 S
C417 C416 1.376 . S
C417 N418 1.338 . S
C417 H420 0.930 1_556 S
N418 Cd403 2.304 . S
N418 C413 1.337 . S
N418 C417 1.338 . S
H419 C413 0.929 . S
H420 C417 0.930 1_554 S
C421 N422 1.332 . S
C421 C425 1.381 . S
C421 H427 0.931 . S
N422 Cd403 2.334 . S
N422 C421 1.332 . S
N422 C426 1.328 . S
C423 C424 1.396 . S
C423 C426 1.378 . S
C423 H452 0.931 1_556 S
C424 C423 1.396 . S
C424 C425 1.382 . S
C425 C421 1.381 . S
C425 C424 1.382 . S
C425 H453 0.930 . S
C426 N422 1.328 . S
C426 C423 1.378 . S
C426 H428 0.930 1_556 S
H427 C421 0.931 . S
H428 C426 0.930 1_554 S
C429 O440 1.238 . S
C429 O441 1.253 . S
C430 O442 1.239 . S
C430 O443 1.230 . S
N431 Cd402 2.304 . S
N431 C432 1.337 . S
N431 C436 1.338 . S
C432 N431 1.337 . S
C432 C433 1.379 . S
C432 H446 0.929 . S
C433 C432 1.379 . S
C433 C434 1.380 . S
C433 H454 0.929 . S
C434 C433 1.380 . S
C434 C435 1.399 . S
C435 C434 1.399 . S
C435 C436 1.376 . S
C435 H455 0.931 1_554 S
C436 N431 1.338 . S
C436 C435 1.376 . S
C436 H447 0.930 1_554 S
C437 O444 1.239 . S
C437 O445 1.230 . S
O438 Cd402 2.268 1_556 S
O438 C412 1.238 . S
O439 Cd403 2.273 . S
O439 C412 1.253 . S
O440 Cd403 2.268 1_554 S
O440 C429 1.238 . S
O441 Cd402 2.273 . S
O441 C429 1.253 . S
O442 Cd402 2.417 . S
O442 C430 1.239 . S
O443 Cd402 2.330 . S
O443 C430 1.230 . S
O444 Cd403 2.417 . S
O444 C437 1.239 . S
O445 Cd403 2.330 . S
O445 C437 1.230 . S
H446 C432 0.929 . S
H447 C436 0.930 1_556 S
H448 C406 0.931 1_556 S
H449 C408 0.930 . S
H450 C414 0.929 . S
H451 C416 0.931 1_554 S
H452 C423 0.931 1_554 S
H453 C425 0.930 . S
H454 C433 0.929 . S
H455 C435 0.931 1_556 S
Cd456 N459 2.334 1_655 S
Cd456 N485 2.304 . S
Cd456 O492 2.268 . S
Cd456 O495 2.273 1_655 S
Cd456 O496 2.417 . S
Cd456 O497 2.330 . S
Cd457 N472 2.304 1_455 S
Cd457 N476 2.334 . S
Cd457 O493 2.273 1_455 S
Cd457 O494 2.268 . S
Cd457 O498 2.417 . S
Cd457 O499 2.330 . S
C458 N459 1.332 . S
C458 C462 1.381 . S
C458 H464 0.931 . S
N459 Cd456 2.334 1_455 S
N459 C458 1.332 . S
N459 C463 1.328 . S
C460 C461 1.396 . S
C460 C463 1.378 . S
C460 H502 0.931 . S
C461 C460 1.396 . S
C461 C462 1.382 . S
C462 C458 1.381 . S
C462 C461 1.382 . S
C462 H503 0.930 . S
C463 N459 1.328 . S
C463 C460 1.378 . S
C463 H465 0.930 1_455 S
H464 C458 0.931 . S
H465 C463 0.930 1_655 S
C466 O492 1.238 . S
C466 O493 1.253 . S
C467 C468 1.379 . S
C467 N472 1.337 . S
C467 H473 0.929 . S
C468 C467 1.379 . S
C468 C469 1.380 . S
C468 H504 0.929 . S
C469 C468 1.380 . S
C469 C470 1.399 . S
C470 C469 1.399 . S
C470 C471 1.376 . S
C470 H505 0.931 . S
C471 C470 1.376 . S
C471 N472 1.338 . S
C471 H474 0.930 1_655 S
N472 Cd457 2.304 1_655 S
N472 C467 1.337 . S
N472 C471 1.338 . S
H473 C467 0.929 . S
H474 C471 0.930 1_455 S
C475 N476 1.332 . S
C475 C479 1.381 . S
C475 H481 0.931 . S
N476 Cd457 2.334 . S
N476 C475 1.332 . S
N476 C480 1.328 . S
C477 C478 1.396 . S
C477 C480 1.378 . S
C477 H506 0.931 . S
C478 C477 1.396 . S
C478 C479 1.382 . S
C479 C475 1.381 . S
C479 C478 1.382 . S
C479 H507 0.930 . S
C480 N476 1.328 . S
C480 C477 1.378 . S
C480 H482 0.930 . S
H481 C475 0.931 . S
H482 C480 0.930 . S
C483 O494 1.238 . S
C483 O495 1.253 . S
C484 O496 1.239 . S
C484 O497 1.230 . S
N485 Cd456 2.304 . S
N485 C486 1.337 . S
N485 C490 1.338 . S
C486 N485 1.337 . S
C486 C487 1.379 . S
C486 H500 0.929 . S
C487 C486 1.379 . S
C487 C488 1.380 . S
C487 H508 0.929 . S
C488 C487 1.380 . S
C488 C489 1.399 . S
C489 C488 1.399 . S
C489 C490 1.376 . S
C489 H509 0.931 . S
C490 N485 1.338 . S
C490 C489 1.376 . S
C490 H501 0.930 . S
C491 O498 1.239 . S
C491 O499 1.230 . S
O492 Cd456 2.268 . S
O492 C466 1.238 . S
O493 Cd457 2.273 1_655 S
O493 C466 1.253 . S
O494 Cd457 2.268 . S
O494 C483 1.238 . S
O495 Cd456 2.273 1_455 S
O495 C483 1.253 . S
O496 Cd456 2.417 . S
O496 C484 1.239 . S
O497 Cd456 2.330 . S
O497 C484 1.230 . S
O498 Cd457 2.417 . S
O498 C491 1.239 . S
O499 Cd457 2.330 . S
O499 C491 1.230 . S
H500 C486 0.929 . S
H501 C490 0.930 . S
H502 C460 0.931 . S
H503 C462 0.930 . S
H504 C468 0.929 . S
H505 C470 0.931 . S
H506 C477 0.931 . S
H507 C479 0.930 . S
H508 C487 0.929 . S
H509 C489 0.931 . S
Cd510 N513 2.334 . S
Cd510 N539 2.304 1_565 S
Cd510 O546 2.268 . S
Cd510 O549 2.273 1_565 S
Cd510 O550 2.417 . S
Cd510 O551 2.330 . S
Cd511 N526 2.304 . S
Cd511 N530 2.334 1_545 S
Cd511 O547 2.273 1_545 S
Cd511 O548 2.268 . S
Cd511 O552 2.417 . S
Cd511 O553 2.330 . S
C512 N513 1.332 . S
C512 C516 1.381 . S
C512 H518 0.931 . S
N513 Cd510 2.334 . S
N513 C512 1.332 . S
N513 C517 1.328 . S
C514 C515 1.396 . S
C514 C517 1.378 . S
C514 H556 0.931 . S
C515 C514 1.396 . S
C515 C516 1.382 . S
C516 C512 1.381 . S
C516 C515 1.382 . S
C516 H557 0.930 . S
C517 N513 1.328 . S
C517 C514 1.378 . S
C517 H519 0.930 . S
H518 C512 0.931 . S
H519 C517 0.930 . S
C520 O546 1.238 . S
C520 O547 1.253 . S
C521 C522 1.379 . S
C521 N526 1.337 . S
C521 H527 0.929 . S
C522 C521 1.379 . S
C522 C523 1.380 . S
C522 H558 0.929 . S
C523 C522 1.380 . S
C523 C524 1.399 . S
C524 C523 1.399 . S
C524 C525 1.376 . S
C524 H559 0.931 . S
C525 C524 1.376 . S
C525 N526 1.338 . S
C525 H528 0.930 . S
N526 Cd511 2.304 . S
N526 C521 1.337 . S
N526 C525 1.338 . S
H527 C521 0.929 . S
H528 C525 0.930 . S
C529 N530 1.332 . S
C529 C533 1.381 . S
C529 H535 0.931 . S
N530 Cd511 2.334 1_565 S
N530 C529 1.332 . S
N530 C534 1.328 . S
C531 C532 1.396 . S
C531 C534 1.378 . S
C531 H560 0.931 . S
C532 C531 1.396 . S
C532 C533 1.382 . S
C533 C529 1.381 . S
C533 C532 1.382 . S
C533 H561 0.930 . S
C534 N530 1.328 . S
C534 C531 1.378 . S
C534 H536 0.930 1_565 S
H535 C529 0.931 . S
H536 C534 0.930 1_545 S
C537 O548 1.238 . S
C537 O549 1.253 . S
C538 O550 1.239 . S
C538 O551 1.230 . S
N539 Cd510 2.304 1_545 S
N539 C540 1.337 . S
N539 C544 1.338 . S
C540 N539 1.337 . S
C540 C541 1.379 . S
C540 H554 0.929 . S
C541 C540 1.379 . S
C541 C542 1.380 . S
C541 H562 0.929 . S
C542 C541 1.380 . S
C542 C543 1.399 . S
C543 C542 1.399 . S
C543 C544 1.376 . S
C543 H563 0.931 . S
C544 N539 1.338 . S
C544 C543 1.376 . S
C544 H555 0.920 1_545 S
C545 O552 1.239 . S
C545 O553 1.230 . S
O546 Cd510 2.268 . S
O546 C520 1.238 . S
O547 Cd511 2.273 1_565 S
O547 C520 1.253 . S
O548 Cd511 2.268 . S
O548 C537 1.238 . S
O549 Cd510 2.273 1_545 S
O549 C537 1.253 . S
O550 Cd510 2.417 . S
O550 C538 1.239 . S
O551 Cd510 2.330 . S
O551 C538 1.230 . S
O552 Cd511 2.417 . S
O552 C545 1.239 . S
O553 Cd511 2.330 . S
O553 C545 1.230 . S
H554 C540 0.929 . S
H555 C544 0.920 1_565 S
H556 C514 0.931 . S
H557 C516 0.930 . S
H558 C522 0.929 . S
H559 C524 0.931 . S
H560 C531 0.931 . S
H561 C533 0.930 . S
H562 C541 0.929 . S
H563 C543 0.931 . S
H564 C582 0.951 . S
H565 C584 0.951 . S
H566 C586 0.950 . S
H567 C587 0.950 . S
H568 C589 0.950 . S
H569 C592 0.950 . S
H570 C593 0.950 . S
H571 C595 0.950 . S
H572 C596 0.950 . S
H573 C597 0.951 . S
H574 C599 0.951 . S
H575 C601 0.950 . S
H576 C602 0.950 . S
H577 C604 0.950 . S
H578 C607 0.950 . S
H579 C608 0.950 1_565 S
H580 C610 0.950 . S
H581 C611 0.950 . S
C582 H564 0.951 . S
C582 C583 1.366 . S
C582 C584 1.388 . S
C583 C582 1.366 . S
C583 C587 1.385 . S
C584 H565 0.951 . S
C584 C582 1.388 . S
C584 C585 1.366 . S
C585 C584 1.366 . S
C585 C586 1.414 . S
C585 C588 1.499 . S
C586 H566 0.950 . S
C586 C585 1.414 . S
C586 C587 1.374 . S
C587 H567 0.950 . S
C587 C583 1.385 . S
C587 C586 1.374 . S
C588 C585 1.499 . S
C588 C589 1.373 . S
C588 C590 1.389 . S
C589 H568 0.950 . S
C589 C588 1.373 . S
C589 C605 1.377 . S
C590 C588 1.389 . S
C590 C591 1.524 . S
C590 C604 1.377 . S
C591 C590 1.524 . S
C591 C592 1.397 . S
C591 C596 1.363 . S
C592 H569 0.950 . S
C592 C591 1.397 . S
C592 C593 1.334 . S
C593 H570 0.950 . S
C593 C592 1.334 . S
C593 C594 1.287 . S
C594 C593 1.287 . S
C594 C595 1.524 . S
C594 H613 0.913 . S
C595 H571 0.950 . S
C595 C594 1.524 . S
C595 C596 1.415 . S
C596 H572 0.950 . S
C596 C591 1.363 . S
C596 C595 1.415 . S
C597 H573 0.951 . S
C597 C598 1.366 . S
C597 C599 1.388 . S
C598 C597 1.366 . S
C598 C602 1.385 . S
C599 H574 0.951 . S
C599 C597 1.388 . S
C599 C600 1.366 . S
C600 C599 1.366 . S
C600 C601 1.414 . S
C600 C603 1.499 . S
C601 H575 0.950 . S
C601 C600 1.414 . S
C601 C602 1.374 . S
C602 H576 0.950 . S
C602 C598 1.385 . S
C602 C601 1.374 . S
C603 C600 1.499 . S
C603 C604 1.373 . S
C603 C605 1.389 . S
C604 H577 0.950 . S
C604 C590 1.377 . S
C604 C603 1.373 . S
C605 C589 1.377 . S
C605 C603 1.389 . S
C605 C606 1.524 . S
C606 C605 1.524 . S
C606 C607 1.397 . S
C606 C611 1.363 . S
C607 H578 0.950 . S
C607 C606 1.397 . S
C607 C608 1.334 . S
C608 H579 0.950 1_545 S
C608 C607 1.334 . S
C608 C609 1.287 . S
C609 C608 1.287 . S
C609 C610 1.524 . S
C609 H612 0.999 1_545 S
C610 H580 0.950 . S
C610 C609 1.524 . S
C610 C611 1.415 . S
C611 H581 0.950 . S
C611 C606 1.363 . S
C611 C610 1.415 . S
H612 C609 0.999 1_565 S
H613 C594 0.913 . S
H614 C632 0.951 . S
H615 C634 0.951 . S
H616 C636 0.950 . S
H617 C637 0.950 . S
H618 C639 0.950 . S
H619 C642 0.950 . S
H620 C643 0.950 . S
H621 C645 0.950 . S
H622 C646 0.950 . S
H623 C647 0.951 . S
H624 C649 0.951 . S
H625 C651 0.950 . S
H626 C652 0.950 . S
H627 C654 0.950 . S
H628 C657 0.950 . S
H629 C658 0.950 . S
H630 C660 0.950 . S
H631 C661 0.950 . S
C632 H614 0.951 . S
C632 C633 1.366 . S
C632 C634 1.388 . S
C633 C632 1.366 . S
C633 C637 1.385 . S
C634 H615 0.951 . S
C634 C632 1.388 . S
C634 C635 1.366 . S
C635 C634 1.366 . S
C635 C636 1.414 . S
C635 C638 1.499 . S
C636 H616 0.950 . S
C636 C635 1.414 . S
C636 C637 1.374 . S
C637 H617 0.950 . S
C637 C633 1.385 . S
C637 C636 1.374 . S
C638 C635 1.499 . S
C638 C639 1.373 . S
C638 C640 1.389 . S
C639 H618 0.950 . S
C639 C638 1.373 . S
C639 C655 1.377 . S
C640 C638 1.389 . S
C640 C641 1.524 . S
C640 C654 1.377 . S
C641 C640 1.524 . S
C641 C642 1.397 . S
C641 C646 1.363 . S
C642 H619 0.950 . S
C642 C641 1.397 . S
C642 C643 1.334 . S
C643 H620 0.950 . S
C643 C642 1.334 . S
C643 C644 1.287 . S
C644 C643 1.287 . S
C644 C645 1.524 . S
C644 H663 0.913 . S
C645 H621 0.950 . S
C645 C644 1.524 . S
C645 C646 1.415 . S
C646 H622 0.950 . S
C646 C641 1.363 . S
C646 C645 1.415 . S
C647 H623 0.951 . S
C647 C648 1.366 . S
C647 C649 1.388 . S
C648 C647 1.366 . S
C648 C652 1.385 . S
C649 H624 0.951 . S
C649 C647 1.388 . S
C649 C650 1.366 . S
C650 C649 1.366 . S
C650 C651 1.414 . S
C650 C653 1.499 . S
C651 H625 0.950 . S
C651 C650 1.414 . S
C651 C652 1.374 . S
C652 H626 0.950 . S
C652 C648 1.385 . S
C652 C651 1.374 . S
C653 C650 1.499 . S
C653 C654 1.373 . S
C653 C655 1.389 . S
C654 H627 0.950 . S
C654 C640 1.377 . S
C654 C653 1.373 . S
C655 C639 1.377 . S
C655 C653 1.389 . S
C655 C656 1.524 . S
C656 C655 1.524 . S
C656 C657 1.397 . S
C656 C661 1.363 . S
C657 H628 0.950 . S
C657 C656 1.397 . S
C657 C658 1.334 . S
C658 H629 0.950 . S
C658 C657 1.334 . S
C658 C659 1.287 . S
C659 C658 1.287 . S
C659 C660 1.524 . S
C659 H662 0.999 . S
C660 H630 0.950 . S
C660 C659 1.524 . S
C660 C661 1.415 . S
C661 H631 0.950 . S
C661 C656 1.363 . S
C661 C660 1.415 . S
H662 C659 0.999 . S
H663 C644 0.913 . S
H664 C682 0.951 . S
H665 C684 0.951 . S
H666 C686 0.950 . S
H667 C687 0.950 . S
H668 C689 0.950 . S
H669 C692 0.950 . S
H670 C693 0.950 . S
H671 C695 0.950 . S
H672 C696 0.950 . S
H673 C697 0.951 . S
H674 C699 0.951 . S
H675 C701 0.950 . S
H676 C702 0.950 . S
H677 C704 0.950 . S
H678 C707 0.950 . S
H679 C708 0.950 . S
H680 C710 0.950 . S
H681 C711 0.950 . S
C682 H664 0.951 . S
C682 C683 1.366 . S
C682 C684 1.388 . S
C683 C682 1.366 . S
C683 C687 1.385 . S
C684 H665 0.951 . S
C684 C682 1.388 . S
C684 C685 1.366 . S
C685 C684 1.366 . S
C685 C686 1.414 . S
C685 C688 1.499 . S
C686 H666 0.950 . S
C686 C685 1.414 . S
C686 C687 1.374 . S
C687 H667 0.950 . S
C687 C683 1.385 . S
C687 C686 1.374 . S
C688 C685 1.499 . S
C688 C689 1.373 . S
C688 C690 1.389 . S
C689 H668 0.950 . S
C689 C688 1.373 . S
C689 C705 1.377 . S
C690 C688 1.389 . S
C690 C691 1.524 . S
C690 C704 1.377 . S
C691 C690 1.524 . S
C691 C692 1.397 . S
C691 C696 1.363 . S
C692 H669 0.950 . S
C692 C691 1.397 . S
C692 C693 1.334 . S
C693 H670 0.950 . S
C693 C692 1.334 . S
C693 C694 1.287 . S
C694 C693 1.287 . S
C694 C695 1.524 . S
C694 H713 0.913 . S
C695 H671 0.950 . S
C695 C694 1.524 . S
C695 C696 1.415 . S
C696 H672 0.950 . S
C696 C691 1.363 . S
C696 C695 1.415 . S
C697 H673 0.951 . S
C697 C698 1.366 . S
C697 C699 1.388 . S
C698 C697 1.366 . S
C698 C702 1.385 . S
C699 H674 0.951 . S
C699 C697 1.388 . S
C699 C700 1.366 . S
C700 C699 1.366 . S
C700 C701 1.414 . S
C700 C703 1.499 . S
C701 H675 0.950 . S
C701 C700 1.414 . S
C701 C702 1.374 . S
C702 H676 0.950 . S
C702 C698 1.385 . S
C702 C701 1.374 . S
C703 C700 1.499 . S
C703 C704 1.373 . S
C703 C705 1.389 . S
C704 H677 0.950 . S
C704 C690 1.377 . S
C704 C703 1.373 . S
C705 C689 1.377 . S
C705 C703 1.389 . S
C705 C706 1.524 . S
C706 C705 1.524 . S
C706 C707 1.397 . S
C706 C711 1.363 . S
C707 H678 0.950 . S
C707 C706 1.397 . S
C707 C708 1.334 . S
C708 H679 0.950 . S
C708 C707 1.334 . S
C708 C709 1.287 . S
C709 C708 1.287 . S
C709 C710 1.524 . S
C709 H712 0.999 . S
C710 H680 0.950 . S
C710 C709 1.524 . S
C710 C711 1.415 . S
C711 H681 0.950 . S
C711 C706 1.363 . S
C711 C710 1.415 . S
H712 C709 0.999 . S
H713 C694 0.913 . S
H714 C732 0.951 . S
H715 C734 0.951 . S
H716 C736 0.950 . S
H717 C737 0.950 . S
H718 C739 0.950 . S
H719 C742 0.950 . S
H720 C743 0.950 . S
H721 C745 0.950 . S
H722 C746 0.950 . S
H723 C747 0.951 . S
H724 C749 0.951 . S
H725 C751 0.950 . S
H726 C752 0.950 . S
H727 C754 0.950 . S
H728 C757 0.950 . S
H729 C758 0.950 . S
H730 C760 0.950 . S
H731 C761 0.950 . S
C732 H714 0.951 . S
C732 C733 1.366 . S
C732 C734 1.388 . S
C733 C732 1.366 . S
C733 C737 1.385 . S
C734 H715 0.951 . S
C734 C732 1.388 . S
C734 C735 1.366 . S
C735 C734 1.366 . S
C735 C736 1.414 . S
C735 C738 1.499 . S
C736 H716 0.950 . S
C736 C735 1.414 . S
C736 C737 1.374 . S
C737 H717 0.950 . S
C737 C733 1.385 . S
C737 C736 1.374 . S
C738 C735 1.499 . S
C738 C739 1.373 . S
C738 C740 1.389 . S
C739 H718 0.950 . S
C739 C738 1.373 . S
C739 C755 1.377 . S
C740 C738 1.389 . S
C740 C741 1.524 . S
C740 C754 1.377 . S
C741 C740 1.524 . S
C741 C742 1.397 . S
C741 C746 1.363 . S
C742 H719 0.950 . S
C742 C741 1.397 . S
C742 C743 1.334 . S
C743 H720 0.950 . S
C743 C742 1.334 . S
C743 C744 1.287 . S
C744 C743 1.287 . S
C744 C745 1.524 . S
C744 H763 0.913 . S
C745 H721 0.950 . S
C745 C744 1.524 . S
C745 C746 1.415 . S
C746 H722 0.950 . S
C746 C741 1.363 . S
C746 C745 1.415 . S
C747 H723 0.951 . S
C747 C748 1.366 . S
C747 C749 1.388 . S
C748 C747 1.366 . S
C748 C752 1.385 . S
C749 H724 0.951 . S
C749 C747 1.388 . S
C749 C750 1.366 . S
C750 C749 1.366 . S
C750 C751 1.414 . S
C750 C753 1.499 . S
C751 H725 0.950 . S
C751 C750 1.414 . S
C751 C752 1.374 . S
C752 H726 0.950 . S
C752 C748 1.385 . S
C752 C751 1.374 . S
C753 C750 1.499 . S
C753 C754 1.373 . S
C753 C755 1.389 . S
C754 H727 0.950 . S
C754 C740 1.377 . S
C754 C753 1.373 . S
C755 C739 1.377 . S
C755 C753 1.389 . S
C755 C756 1.524 . S
C756 C755 1.524 . S
C756 C757 1.397 . S
C756 C761 1.363 . S
C757 H728 0.950 . S
C757 C756 1.397 . S
C757 C758 1.334 . S
C758 H729 0.950 . S
C758 C757 1.334 . S
C758 C759 1.287 . S
C759 C758 1.287 . S
C759 C760 1.524 . S
C759 H762 0.999 . S
C760 H730 0.950 . S
C760 C759 1.524 . S
C760 C761 1.415 . S
C761 H731 0.950 . S
C761 C756 1.363 . S
C761 C760 1.415 . S
H762 C759 0.999 . S
H763 C744 0.913 . S
H764 C782 0.951 . S
H765 C784 0.951 . S
H766 C786 0.950 . S
H767 C787 0.950 . S
H768 C789 0.950 . S
H769 C792 0.950 . S
H770 C793 0.950 . S
H771 C795 0.950 . S
H772 C796 0.950 . S
H773 C797 0.951 . S
H774 C799 0.951 . S
H775 C801 0.950 . S
H776 C802 0.950 . S
H777 C804 0.950 . S
H778 C807 0.950 . S
H779 C808 0.950 . S
H780 C810 0.950 . S
H781 C811 0.950 . S
C782 H764 0.951 . S
C782 C783 1.366 . S
C782 C784 1.388 . S
C783 C782 1.366 . S
C783 C787 1.385 . S
C784 H765 0.951 . S
C784 C782 1.388 . S
C784 C785 1.366 . S
C785 C784 1.366 . S
C785 C786 1.414 . S
C785 C788 1.499 . S
C786 H766 0.950 . S
C786 C785 1.414 . S
C786 C787 1.374 . S
C787 H767 0.950 . S
C787 C783 1.385 . S
C787 C786 1.374 . S
C788 C785 1.499 . S
C788 C789 1.373 . S
C788 C790 1.389 . S
C789 H768 0.950 . S
C789 C788 1.373 . S
C789 C805 1.377 . S
C790 C788 1.389 . S
C790 C791 1.524 . S
C790 C804 1.377 . S
C791 C790 1.524 . S
C791 C792 1.397 . S
C791 C796 1.363 . S
C792 H769 0.950 . S
C792 C791 1.397 . S
C792 C793 1.334 . S
C793 H770 0.950 . S
C793 C792 1.334 . S
C793 C794 1.287 . S
C794 C793 1.287 . S
C794 C795 1.524 . S
C794 H813 0.913 . S
C795 H771 0.950 . S
C795 C794 1.524 . S
C795 C796 1.415 . S
C796 H772 0.950 . S
C796 C791 1.363 . S
C796 C795 1.415 . S
C797 H773 0.951 . S
C797 C798 1.366 . S
C797 C799 1.388 . S
C798 C797 1.366 . S
C798 C802 1.385 . S
C799 H774 0.951 . S
C799 C797 1.388 . S
C799 C800 1.366 . S
C800 C799 1.366 . S
C800 C801 1.414 . S
C800 C803 1.499 . S
C801 H775 0.950 . S
C801 C800 1.414 . S
C801 C802 1.374 . S
C802 H776 0.950 . S
C802 C798 1.385 . S
C802 C801 1.374 . S
C803 C800 1.499 . S
C803 C804 1.373 . S
C803 C805 1.389 . S
C804 H777 0.950 . S
C804 C790 1.377 . S
C804 C803 1.373 . S
C805 C789 1.377 . S
C805 C803 1.389 . S
C805 C806 1.524 . S
C806 C805 1.524 . S
C806 C807 1.397 . S
C806 C811 1.363 . S
C807 H778 0.950 . S
C807 C806 1.397 . S
C807 C808 1.334 . S
C808 H779 0.950 . S
C808 C807 1.334 . S
C808 C809 1.287 . S
C809 C808 1.287 . S
C809 C810 1.524 . S
C809 H812 0.999 . S
C810 H780 0.950 . S
C810 C809 1.524 . S
C810 C811 1.415 . S
C811 H781 0.950 . S
C811 C806 1.363 . S
C811 C810 1.415 . S
H812 C809 0.999 . S
H813 C794 0.913 . S
H814 C832 0.951 . S
H815 C834 0.951 . S
H816 C836 0.950 . S
H817 C837 0.950 . S
H818 C839 0.950 . S
H819 C842 0.950 . S
H820 C843 0.950 . S
H821 C845 0.950 . S
H822 C846 0.950 . S
H823 C847 0.951 . S
H824 C849 0.951 . S
H825 C851 0.950 . S
H826 C852 0.950 . S
H827 C854 0.950 . S
H828 C857 0.950 . S
H829 C858 0.950 . S
H830 C860 0.950 . S
H831 C861 0.950 . S
C832 H814 0.951 . S
C832 C833 1.366 . S
C832 C834 1.388 . S
C833 C832 1.366 . S
C833 C837 1.385 . S
C834 H815 0.951 . S
C834 C832 1.388 . S
C834 C835 1.366 . S
C835 C834 1.366 . S
C835 C836 1.414 . S
C835 C838 1.499 . S
C836 H816 0.950 . S
C836 C835 1.414 . S
C836 C837 1.374 . S
C837 H817 0.950 . S
C837 C833 1.385 . S
C837 C836 1.374 . S
C838 C835 1.499 . S
C838 C839 1.373 . S
C838 C840 1.389 . S
C839 H818 0.950 . S
C839 C838 1.373 . S
C839 C855 1.377 . S
C840 C838 1.389 . S
C840 C841 1.524 . S
C840 C854 1.377 . S
C841 C840 1.524 . S
C841 C842 1.397 . S
C841 C846 1.363 . S
C842 H819 0.950 . S
C842 C841 1.397 . S
C842 C843 1.334 . S
C843 H820 0.950 . S
C843 C842 1.334 . S
C843 C844 1.287 . S
C844 C843 1.287 . S
C844 C845 1.524 . S
C844 H863 0.913 . S
C845 H821 0.950 . S
C845 C844 1.524 . S
C845 C846 1.415 . S
C846 H822 0.950 . S
C846 C841 1.363 . S
C846 C845 1.415 . S
C847 H823 0.951 . S
C847 C848 1.366 . S
C847 C849 1.388 . S
C848 C847 1.366 . S
C848 C852 1.385 . S
C849 H824 0.951 . S
C849 C847 1.388 . S
C849 C850 1.366 . S
C850 C849 1.366 . S
C850 C851 1.414 . S
C850 C853 1.499 . S
C851 H825 0.950 . S
C851 C850 1.414 . S
C851 C852 1.374 . S
C852 H826 0.950 . S
C852 C848 1.385 . S
C852 C851 1.374 . S
C853 C850 1.499 . S
C853 C854 1.373 . S
C853 C855 1.389 . S
C854 H827 0.950 . S
C854 C840 1.377 . S
C854 C853 1.373 . S
C855 C839 1.377 . S
C855 C853 1.389 . S
C855 C856 1.524 . S
C856 C855 1.524 . S
C856 C857 1.397 . S
C856 C861 1.363 . S
C857 H828 0.950 . S
C857 C856 1.397 . S
C857 C858 1.334 . S
C858 H829 0.950 . S
C858 C857 1.334 . S
C858 C859 1.287 . S
C859 C858 1.287 . S
C859 C860 1.524 . S
C859 H862 0.999 . S
C860 H830 0.950 . S
C860 C859 1.524 . S
C860 C861 1.415 . S
C861 H831 0.950 . S
C861 C856 1.363 . S
C861 C860 1.415 . S
H862 C859 0.999 . S
H863 C844 0.913 . S
H864 C882 0.951 . S
H865 C884 0.951 . S
H866 C886 0.950 . S
H867 C887 0.950 . S
H868 C889 0.950 . S
H869 C892 0.950 . S
H870 C893 0.950 . S
H871 C895 0.950 . S
H872 C896 0.950 . S
H873 C897 0.951 . S
H874 C899 0.951 . S
H875 C901 0.950 . S
H876 C902 0.950 . S
H877 C904 0.950 . S
H878 C907 0.950 . S
H879 C908 0.950 . S
H880 C910 0.950 . S
H881 C911 0.950 . S
C882 H864 0.951 . S
C882 C883 1.366 . S
C882 C884 1.388 . S
C883 C882 1.366 . S
C883 C887 1.385 . S
C884 H865 0.951 . S
C884 C882 1.388 . S
C884 C885 1.366 . S
C885 C884 1.366 . S
C885 C886 1.414 . S
C885 C888 1.499 . S
C886 H866 0.950 . S
C886 C885 1.414 . S
C886 C887 1.374 . S
C887 H867 0.950 . S
C887 C883 1.385 . S
C887 C886 1.374 . S
C888 C885 1.499 . S
C888 C889 1.373 . S
C888 C890 1.389 . S
C889 H868 0.950 . S
C889 C888 1.373 . S
C889 C905 1.377 . S
C890 C888 1.389 . S
C890 C891 1.524 . S
C890 C904 1.377 . S
C891 C890 1.524 . S
C891 C892 1.397 . S
C891 C896 1.363 . S
C892 H869 0.950 . S
C892 C891 1.397 . S
C892 C893 1.334 . S
C893 H870 0.950 . S
C893 C892 1.334 . S
C893 C894 1.287 . S
C894 C893 1.287 . S
C894 C895 1.524 . S
C894 H913 0.913 . S
C895 H871 0.950 . S
C895 C894 1.524 . S
C895 C896 1.415 . S
C896 H872 0.950 . S
C896 C891 1.363 . S
C896 C895 1.415 . S
C897 H873 0.951 . S
C897 C898 1.366 . S
C897 C899 1.388 . S
C898 C897 1.366 . S
C898 C902 1.385 . S
C899 H874 0.951 . S
C899 C897 1.388 . S
C899 C900 1.366 . S
C900 C899 1.366 . S
C900 C901 1.414 . S
C900 C903 1.499 . S
C901 H875 0.950 . S
C901 C900 1.414 . S
C901 C902 1.374 . S
C902 H876 0.950 . S
C902 C898 1.385 . S
C902 C901 1.374 . S
C903 C900 1.499 . S
C903 C904 1.373 . S
C903 C905 1.389 . S
C904 H877 0.950 . S
C904 C890 1.377 . S
C904 C903 1.373 . S
C905 C889 1.377 . S
C905 C903 1.389 . S
C905 C906 1.524 . S
C906 C905 1.524 . S
C906 C907 1.397 . S
C906 C911 1.363 . S
C907 H878 0.950 . S
C907 C906 1.397 . S
C907 C908 1.334 . S
C908 H879 0.950 . S
C908 C907 1.334 . S
C908 C909 1.287 . S
C909 C908 1.287 . S
C909 C910 1.524 . S
C909 H912 0.999 . S
C910 H880 0.950 . S
C910 C909 1.524 . S
C910 C911 1.415 . S
C911 H881 0.950 . S
C911 C906 1.363 . S
C911 C910 1.415 . S
H912 C909 0.999 . S
H913 C894 0.913 . S
H914 C932 0.951 . S
H915 C934 0.951 . S
H916 C936 0.950 . S
H917 C937 0.950 . S
H918 C939 0.950 . S
H919 C942 0.950 . S
H920 C943 0.950 . S
H921 C945 0.950 . S
H922 C946 0.950 . S
H923 C947 0.951 . S
H924 C949 0.951 . S
H925 C951 0.950 . S
H926 C952 0.950 . S
H927 C954 0.950 . S
H928 C957 0.950 . S
H929 C958 0.950 . S
H930 C960 0.950 1_545 S
H931 C961 0.950 . S
C932 H914 0.951 . S
C932 C933 1.366 . S
C932 C934 1.388 . S
C933 C932 1.366 . S
C933 C937 1.385 . S
C934 H915 0.951 . S
C934 C932 1.388 . S
C934 C935 1.366 . S
C935 C934 1.366 . S
C935 C936 1.414 . S
C935 C938 1.499 . S
C936 H916 0.950 . S
C936 C935 1.414 . S
C936 C937 1.374 . S
C937 H917 0.950 . S
C937 C933 1.385 . S
C937 C936 1.374 . S
C938 C935 1.499 . S
C938 C939 1.373 . S
C938 C940 1.389 . S
C939 H918 0.950 . S
C939 C938 1.373 . S
C939 C955 1.377 . S
C940 C938 1.389 . S
C940 C941 1.524 . S
C940 C954 1.377 . S
C941 C940 1.524 . S
C941 C942 1.397 . S
C941 C946 1.363 . S
C942 H919 0.950 . S
C942 C941 1.397 . S
C942 C943 1.334 . S
C943 H920 0.950 . S
C943 C942 1.334 . S
C943 C944 1.287 . S
C944 C943 1.287 . S
C944 C945 1.524 . S
C944 H963 0.913 . S
C945 H921 0.950 . S
C945 C944 1.524 . S
C945 C946 1.415 . S
C946 H922 0.950 . S
C946 C941 1.363 . S
C946 C945 1.415 . S
C947 H923 0.951 . S
C947 C948 1.366 . S
C947 C949 1.388 . S
C948 C947 1.366 . S
C948 C952 1.385 . S
C949 H924 0.951 . S
C949 C947 1.388 . S
C949 C950 1.366 . S
C950 C949 1.366 . S
C950 C951 1.414 . S
C950 C953 1.499 . S
C951 H925 0.950 . S
C951 C950 1.414 . S
C951 C952 1.374 . S
C952 H926 0.950 . S
C952 C948 1.385 . S
C952 C951 1.374 . S
C953 C950 1.499 . S
C953 C954 1.373 . S
C953 C955 1.389 . S
C954 H927 0.950 . S
C954 C940 1.377 . S
C954 C953 1.373 . S
C955 C939 1.377 . S
C955 C953 1.389 . S
C955 C956 1.524 . S
C956 C955 1.524 . S
C956 C957 1.397 . S
C956 C961 1.363 . S
C957 H928 0.950 . S
C957 C956 1.397 . S
C957 C958 1.334 . S
C958 H929 0.950 . S
C958 C957 1.334 . S
C958 C959 1.287 . S
C959 C958 1.287 . S
C959 C960 1.524 . S
C959 H962 0.999 1_565 S
C960 H930 0.950 1_565 S
C960 C959 1.524 . S
C960 C961 1.415 . S
C961 H931 0.950 . S
C961 C956 1.363 . S
C961 C960 1.415 . S
H962 C959 0.999 1_545 S
H963 C944 0.913 . S
H964 C982 0.951 . S
H965 C984 0.951 . S
H966 C986 0.950 . S
H967 C987 0.950 . S
H968 C989 0.950 . S
H969 C992 0.950 . S
H970 C993 0.950 . S
H971 C995 0.950 . S
H972 C996 0.950 . S
H973 C997 0.951 . S
H974 C999 0.951 . S
H975 C1001 0.950 . S
H976 C1002 0.950 . S
H977 C1004 0.950 . S
H978 C1007 0.950 . S
H979 C1008 0.950 . S
H980 C1010 0.950 . S
H981 C1011 0.950 . S
C982 H964 0.951 . S
C982 C983 1.366 . S
C982 C984 1.388 . S
C983 C982 1.366 . S
C983 C987 1.385 . S
C984 H965 0.951 . S
C984 C982 1.388 . S
C984 C985 1.366 . S
C985 C984 1.366 . S
C985 C986 1.414 . S
C985 C988 1.499 . S
C986 H966 0.950 . S
C986 C985 1.414 . S
C986 C987 1.374 . S
C987 H967 0.950 . S
C987 C983 1.385 . S
C987 C986 1.374 . S
C988 C985 1.499 . S
C988 C989 1.373 . S
C988 C990 1.389 . S
C989 H968 0.950 . S
C989 C988 1.373 . S
C989 C1005 1.377 . S
C990 C988 1.389 . S
C990 C991 1.524 . S
C990 C1004 1.377 . S
C991 C990 1.524 . S
C991 C992 1.397 . S
C991 C996 1.363 . S
C992 H969 0.950 . S
C992 C991 1.397 . S
C992 C993 1.334 . S
C993 H970 0.950 . S
C993 C992 1.334 . S
C993 C994 1.287 . S
C994 C993 1.287 . S
C994 C995 1.524 . S
C994 H1013 0.913 . S
C995 H971 0.950 . S
C995 C994 1.524 . S
C995 C996 1.415 . S
C996 H972 0.950 . S
C996 C991 1.363 . S
C996 C995 1.415 . S
C997 H973 0.951 . S
C997 C998 1.366 . S
C997 C999 1.388 . S
C998 C997 1.366 . S
C998 C1002 1.385 . S
C999 H974 0.951 . S
C999 C997 1.388 . S
C999 C1000 1.366 . S
C1000 C999 1.366 . S
C1000 C1001 1.414 . S
C1000 C1003 1.499 . S
C1001 H975 0.950 . S
C1001 C1000 1.414 . S
C1001 C1002 1.374 . S
C1002 H976 0.950 . S
C1002 C998 1.385 . S
C1002 C1001 1.374 . S
C1003 C1000 1.499 . S
C1003 C1004 1.373 . S
C1003 C1005 1.389 . S
C1004 H977 0.950 . S
C1004 C990 1.377 . S
C1004 C1003 1.373 . S
C1005 C989 1.377 . S
C1005 C1003 1.389 . S
C1005 C1006 1.524 . S
C1006 C1005 1.524 . S
C1006 C1007 1.397 . S
C1006 C1011 1.363 . S
C1007 H978 0.950 . S
C1007 C1006 1.397 . S
C1007 C1008 1.334 . S
C1008 H979 0.950 . S
C1008 C1007 1.334 . S
C1008 C1009 1.287 . S
C1009 C1008 1.287 . S
C1009 C1010 1.524 . S
C1009 H1012 0.999 . S
C1010 H980 0.950 . S
C1010 C1009 1.524 . S
C1010 C1011 1.415 . S
C1011 H981 0.950 . S
C1011 C1006 1.363 . S
C1011 C1010 1.415 . S
H1012 C1009 0.999 . S
H1013 C994 0.913 . S
H1014 C1032 0.951 . S
H1015 C1034 0.951 . S
H1016 C1036 0.950 . S
H1017 C1037 0.950 . S
H1018 C1039 0.950 . S
H1019 C1042 0.950 . S
H1020 C1043 0.950 . S
H1021 C1045 0.950 . S
H1022 C1046 0.950 . S
H1023 C1047 0.951 . S
H1024 C1049 0.951 . S
H1025 C1051 0.950 . S
H1026 C1052 0.950 . S
H1027 C1054 0.950 . S
H1028 C1057 0.950 . S
H1029 C1058 0.950 . S
H1030 C1060 0.950 1_556 S
H1031 C1061 0.950 . S
C1032 H1014 0.951 . S
C1032 C1033 1.366 . S
C1032 C1034 1.388 . S
C1033 C1032 1.366 . S
C1033 C1037 1.385 . S
C1034 H1015 0.951 . S
C1034 C1032 1.388 . S
C1034 C1035 1.366 . S
C1035 C1034 1.366 . S
C1035 C1036 1.414 . S
C1035 C1038 1.499 . S
C1036 H1016 0.950 . S
C1036 C1035 1.414 . S
C1036 C1037 1.374 . S
C1037 H1017 0.950 . S
C1037 C1033 1.385 . S
C1037 C1036 1.374 . S
C1038 C1035 1.499 . S
C1038 C1039 1.373 . S
C1038 C1040 1.389 . S
C1039 H1018 0.950 . S
C1039 C1038 1.373 . S
C1039 C1055 1.377 . S
C1040 C1038 1.389 . S
C1040 C1041 1.524 . S
C1040 C1054 1.377 . S
C1041 C1040 1.524 . S
C1041 C1042 1.397 . S
C1041 C1046 1.363 . S
C1042 H1019 0.950 . S
C1042 C1041 1.397 . S
C1042 C1043 1.334 . S
C1043 H1020 0.950 . S
C1043 C1042 1.334 . S
C1043 C1044 1.287 . S
C1044 C1043 1.287 . S
C1044 C1045 1.524 . S
C1044 H1063 0.913 . S
C1045 H1021 0.950 . S
C1045 C1044 1.524 . S
C1045 C1046 1.415 . S
C1046 H1022 0.950 . S
C1046 C1041 1.363 . S
C1046 C1045 1.415 . S
C1047 H1023 0.951 . S
C1047 C1048 1.366 . S
C1047 C1049 1.388 . S
C1048 C1047 1.366 . S
C1048 C1052 1.385 . S
C1049 H1024 0.951 . S
C1049 C1047 1.388 . S
C1049 C1050 1.366 . S
C1050 C1049 1.366 . S
C1050 C1051 1.414 . S
C1050 C1053 1.499 . S
C1051 H1025 0.950 . S
C1051 C1050 1.414 . S
C1051 C1052 1.374 . S
C1052 H1026 0.950 . S
C1052 C1048 1.385 . S
C1052 C1051 1.374 . S
C1053 C1050 1.499 . S
C1053 C1054 1.373 . S
C1053 C1055 1.389 . S
C1054 H1027 0.950 . S
C1054 C1040 1.377 . S
C1054 C1053 1.373 . S
C1055 C1039 1.377 . S
C1055 C1053 1.389 . S
C1055 C1056 1.524 . S
C1056 C1055 1.524 . S
C1056 C1057 1.397 . S
C1056 C1061 1.363 . S
C1057 H1028 0.950 . S
C1057 C1056 1.397 . S
C1057 C1058 1.334 . S
C1058 H1029 0.950 . S
C1058 C1057 1.334 . S
C1058 C1059 1.287 1_554 S
C1059 C1058 1.287 1_556 S
C1059 C1060 1.524 1_556 S
C1059 H1062 0.999 . S
C1060 H1030 0.950 1_554 S
C1060 C1059 1.524 1_554 S
C1060 C1061 1.415 . S
C1061 H1031 0.950 . S
C1061 C1056 1.363 . S
C1061 C1060 1.415 . S
H1062 C1059 0.999 . S
H1063 C1044 0.913 . S
H1064 C1082 0.951 . S
H1065 C1084 0.951 . S
H1066 C1086 0.950 . S
H1067 C1087 0.950 . S
H1068 C1089 0.950 . S
H1069 C1092 0.950 . S
H1070 C1093 0.950 . S
H1071 C1095 0.950 . S
H1072 C1096 0.950 . S
H1073 C1097 0.951 . S
H1074 C1099 0.951 . S
H1075 C1101 0.950 . S
H1076 C1102 0.950 . S
H1077 C1104 0.950 . S
H1078 C1107 0.950 . S
H1079 C1108 0.950 1_556 S
H1080 C1110 0.950 . S
H1081 C1111 0.950 . S
C1082 H1064 0.951 . S
C1082 C1083 1.366 . S
C1082 C1084 1.388 . S
C1083 C1082 1.366 . S
C1083 C1087 1.385 . S
C1084 H1065 0.951 . S
C1084 C1082 1.388 . S
C1084 C1085 1.366 . S
C1085 C1084 1.366 . S
C1085 C1086 1.414 . S
C1085 C1088 1.499 . S
C1086 H1066 0.950 . S
C1086 C1085 1.414 . S
C1086 C1087 1.374 . S
C1087 H1067 0.950 . S
C1087 C1083 1.385 . S
C1087 C1086 1.374 . S
C1088 C1085 1.499 . S
C1088 C1089 1.373 . S
C1088 C1090 1.389 . S
C1089 H1068 0.950 . S
C1089 C1088 1.373 . S
C1089 C1105 1.377 . S
C1090 C1088 1.389 . S
C1090 C1091 1.524 . S
C1090 C1104 1.377 . S
C1091 C1090 1.524 . S
C1091 C1092 1.397 . S
C1091 C1096 1.363 . S
C1092 H1069 0.950 . S
C1092 C1091 1.397 . S
C1092 C1093 1.334 . S
C1093 H1070 0.950 . S
C1093 C1092 1.334 . S
C1093 C1094 1.287 . S
C1094 C1093 1.287 . S
C1094 C1095 1.524 . S
C1094 H1113 0.913 . S
C1095 H1071 0.950 . S
C1095 C1094 1.524 . S
C1095 C1096 1.415 . S
C1096 H1072 0.950 . S
C1096 C1091 1.363 . S
C1096 C1095 1.415 . S
C1097 H1073 0.951 . S
C1097 C1098 1.366 . S
C1097 C1099 1.388 . S
C1098 C1097 1.366 . S
C1098 C1102 1.385 . S
C1099 H1074 0.951 . S
C1099 C1097 1.388 . S
C1099 C1100 1.366 . S
C1100 C1099 1.366 . S
C1100 C1101 1.414 . S
C1100 C1103 1.499 . S
C1101 H1075 0.950 . S
C1101 C1100 1.414 . S
C1101 C1102 1.374 . S
C1102 H1076 0.950 . S
C1102 C1098 1.385 . S
C1102 C1101 1.374 . S
C1103 C1100 1.499 . S
C1103 C1104 1.373 . S
C1103 C1105 1.389 . S
C1104 H1077 0.950 . S
C1104 C1090 1.377 . S
C1104 C1103 1.373 . S
C1105 C1089 1.377 . S
C1105 C1103 1.389 . S
C1105 C1106 1.524 . S
C1106 C1105 1.524 . S
C1106 C1107 1.397 . S
C1106 C1111 1.363 . S
C1107 H1078 0.950 . S
C1107 C1106 1.397 . S
C1107 C1108 1.334 . S
C1108 H1079 0.950 1_554 S
C1108 C1107 1.334 . S
C1108 C1109 1.287 . S
C1109 C1108 1.287 . S
C1109 C1110 1.524 . S
C1109 H1112 0.999 . S
C1110 H1080 0.950 . S
C1110 C1109 1.524 . S
C1110 C1111 1.415 . S
C1111 H1081 0.950 . S
C1111 C1106 1.363 . S
C1111 C1110 1.415 . S
H1112 C1109 0.999 . S
H1113 C1094 0.913 . S
H1114 C1132 0.951 . S
H1115 C1134 0.951 . S
H1116 C1136 0.950 . S
H1117 C1137 0.950 . S
H1118 C1139 0.950 . S
H1119 C1142 0.950 . S
H1120 C1143 0.950 . S
H1121 C1145 0.950 . S
H1122 C1146 0.950 . S
H1123 C1147 0.951 . S
H1124 C1149 0.951 . S
H1125 C1151 0.950 . S
H1126 C1152 0.950 . S
H1127 C1154 0.950 . S
H1128 C1157 0.950 . S
H1129 C1158 0.950 . S
H1130 C1160 0.950 . S
H1131 C1161 0.950 . S
C1132 H1114 0.951 . S
C1132 C1133 1.366 . S
C1132 C1134 1.388 . S
C1133 C1132 1.366 . S
C1133 C1137 1.385 . S
C1134 H1115 0.951 . S
C1134 C1132 1.388 . S
C1134 C1135 1.366 . S
C1135 C1134 1.366 . S
C1135 C1136 1.414 . S
C1135 C1138 1.499 . S
C1136 H1116 0.950 . S
C1136 C1135 1.414 . S
C1136 C1137 1.374 . S
C1137 H1117 0.950 . S
C1137 C1133 1.385 . S
C1137 C1136 1.374 . S
C1138 C1135 1.499 . S
C1138 C1139 1.373 . S
C1138 C1140 1.389 . S
C1139 H1118 0.950 . S
C1139 C1138 1.373 . S
C1139 C1155 1.377 . S
C1140 C1138 1.389 . S
C1140 C1141 1.524 . S
C1140 C1154 1.377 . S
C1141 C1140 1.524 . S
C1141 C1142 1.397 . S
C1141 C1146 1.363 . S
C1142 H1119 0.950 . S
C1142 C1141 1.397 . S
C1142 C1143 1.334 . S
C1143 H1120 0.950 . S
C1143 C1142 1.334 . S
C1143 C1144 1.287 . S
C1144 C1143 1.287 . S
C1144 C1145 1.524 . S
C1144 H1163 0.913 . S
C1145 H1121 0.950 . S
C1145 C1144 1.524 . S
C1145 C1146 1.415 . S
C1146 H1122 0.950 . S
C1146 C1141 1.363 . S
C1146 C1145 1.415 . S
C1147 H1123 0.951 . S
C1147 C1148 1.366 . S
C1147 C1149 1.388 . S
C1148 C1147 1.366 . S
C1148 C1152 1.385 . S
C1149 H1124 0.951 . S
C1149 C1147 1.388 . S
C1149 C1150 1.366 . S
C1150 C1149 1.366 . S
C1150 C1151 1.414 . S
C1150 C1153 1.499 . S
C1151 H1125 0.950 . S
C1151 C1150 1.414 . S
C1151 C1152 1.374 . S
C1152 H1126 0.950 . S
C1152 C1148 1.385 . S
C1152 C1151 1.374 . S
C1153 C1150 1.499 . S
C1153 C1154 1.373 . S
C1153 C1155 1.389 . S
C1154 H1127 0.950 . S
C1154 C1140 1.377 . S
C1154 C1153 1.373 . S
C1155 C1139 1.377 . S
C1155 C1153 1.389 . S
C1155 C1156 1.524 . S
C1156 C1155 1.524 . S
C1156 C1157 1.397 . S
C1156 C1161 1.363 . S
C1157 H1128 0.950 . S
C1157 C1156 1.397 . S
C1157 C1158 1.334 . S
C1158 H1129 0.950 . S
C1158 C1157 1.334 . S
C1158 C1159 1.287 . S
C1159 C1158 1.287 . S
C1159 C1160 1.524 . S
C1159 H1162 0.999 . S
C1160 H1130 0.950 . S
C1160 C1159 1.524 . S
C1160 C1161 1.415 . S
C1161 H1131 0.950 . S
C1161 C1156 1.363 . S
C1161 C1160 1.415 . S
H1162 C1159 0.999 . S
H1163 C1144 0.913 . S
H1164 C1182 0.951 . S
H1165 C1184 0.951 . S
H1166 C1186 0.950 . S
H1167 C1187 0.950 . S
H1168 C1189 0.950 . S
H1169 C1192 0.950 . S
H1170 C1193 0.950 . S
H1171 C1195 0.950 . S
H1172 C1196 0.950 . S
H1173 C1197 0.951 . S
H1174 C1199 0.951 . S
H1175 C1201 0.950 . S
H1176 C1202 0.950 . S
H1177 C1204 0.950 . S
H1178 C1207 0.950 . S
H1179 C1208 0.950 . S
H1180 C1210 0.950 . S
H1181 C1211 0.950 . S
C1182 H1164 0.951 . S
C1182 C1183 1.366 . S
C1182 C1184 1.388 . S
C1183 C1182 1.366 . S
C1183 C1187 1.385 . S
C1184 H1165 0.951 . S
C1184 C1182 1.388 . S
C1184 C1185 1.366 . S
C1185 C1184 1.366 . S
C1185 C1186 1.414 . S
C1185 C1188 1.499 . S
C1186 H1166 0.950 . S
C1186 C1185 1.414 . S
C1186 C1187 1.374 . S
C1187 H1167 0.950 . S
C1187 C1183 1.385 . S
C1187 C1186 1.374 . S
C1188 C1185 1.499 . S
C1188 C1189 1.373 . S
C1188 C1190 1.389 . S
C1189 H1168 0.950 . S
C1189 C1188 1.373 . S
C1189 C1205 1.377 . S
C1190 C1188 1.389 . S
C1190 C1191 1.524 . S
C1190 C1204 1.377 . S
C1191 C1190 1.524 . S
C1191 C1192 1.397 . S
C1191 C1196 1.363 . S
C1192 H1169 0.950 . S
C1192 C1191 1.397 . S
C1192 C1193 1.334 . S
C1193 H1170 0.950 . S
C1193 C1192 1.334 . S
C1193 C1194 1.287 . S
C1194 C1193 1.287 . S
C1194 C1195 1.524 . S
C1194 H1213 0.913 . S
C1195 H1171 0.950 . S
C1195 C1194 1.524 . S
C1195 C1196 1.415 . S
C1196 H1172 0.950 . S
C1196 C1191 1.363 . S
C1196 C1195 1.415 . S
C1197 H1173 0.951 . S
C1197 C1198 1.366 . S
C1197 C1199 1.388 . S
C1198 C1197 1.366 . S
C1198 C1202 1.385 . S
C1199 H1174 0.951 . S
C1199 C1197 1.388 . S
C1199 C1200 1.366 . S
C1200 C1199 1.366 . S
C1200 C1201 1.414 . S
C1200 C1203 1.499 . S
C1201 H1175 0.950 . S
C1201 C1200 1.414 . S
C1201 C1202 1.374 . S
C1202 H1176 0.950 . S
C1202 C1198 1.385 . S
C1202 C1201 1.374 . S
C1203 C1200 1.499 . S
C1203 C1204 1.373 . S
C1203 C1205 1.389 . S
C1204 H1177 0.950 . S
C1204 C1190 1.377 . S
C1204 C1203 1.373 . S
C1205 C1189 1.377 . S
C1205 C1203 1.389 . S
C1205 C1206 1.524 . S
C1206 C1205 1.524 . S
C1206 C1207 1.397 . S
C1206 C1211 1.363 . S
C1207 H1178 0.950 . S
C1207 C1206 1.397 . S
C1207 C1208 1.334 . S
C1208 H1179 0.950 . S
C1208 C1207 1.334 . S
C1208 C1209 1.287 . S
C1209 C1208 1.287 . S
C1209 C1210 1.524 . S
C1209 H1212 0.999 . S
C1210 H1180 0.950 . S
C1210 C1209 1.524 . S
C1210 C1211 1.415 . S
C1211 H1181 0.950 . S
C1211 C1206 1.363 . S
C1211 C1210 1.415 . S
H1212 C1209 0.999 . S
H1213 C1194 0.913 . S
H1214 C1232 0.951 . S
H1215 C1234 0.951 . S
H1216 C1236 0.950 . S
H1217 C1237 0.950 . S
H1218 C1239 0.950 . S
H1219 C1242 0.950 . S
H1220 C1243 0.950 . S
H1221 C1245 0.950 . S
H1222 C1246 0.950 . S
H1223 C1247 0.951 . S
H1224 C1249 0.951 . S
H1225 C1251 0.950 . S
H1226 C1252 0.950 . S
H1227 C1254 0.950 . S
H1228 C1257 0.950 . S
H1229 C1258 0.950 . S
H1230 C1260 0.950 . S
H1231 C1261 0.950 . S
C1232 H1214 0.951 . S
C1232 C1233 1.366 . S
C1232 C1234 1.388 . S
C1233 C1232 1.366 . S
C1233 C1237 1.385 . S
C1234 H1215 0.951 . S
C1234 C1232 1.388 . S
C1234 C1235 1.366 . S
C1235 C1234 1.366 . S
C1235 C1236 1.414 . S
C1235 C1238 1.499 . S
C1236 H1216 0.950 . S
C1236 C1235 1.414 . S
C1236 C1237 1.374 . S
C1237 H1217 0.950 . S
C1237 C1233 1.385 . S
C1237 C1236 1.374 . S
C1238 C1235 1.499 . S
C1238 C1239 1.373 . S
C1238 C1240 1.389 . S
C1239 H1218 0.950 . S
C1239 C1238 1.373 . S
C1239 C1255 1.377 . S
C1240 C1238 1.389 . S
C1240 C1241 1.524 . S
C1240 C1254 1.377 . S
C1241 C1240 1.524 . S
C1241 C1242 1.397 . S
C1241 C1246 1.363 . S
C1242 H1219 0.950 . S
C1242 C1241 1.397 . S
C1242 C1243 1.334 . S
C1243 H1220 0.950 . S
C1243 C1242 1.334 . S
C1243 C1244 1.287 . S
C1244 C1243 1.287 . S
C1244 C1245 1.524 . S
C1244 H1263 0.913 . S
C1245 H1221 0.950 . S
C1245 C1244 1.524 . S
C1245 C1246 1.415 . S
C1246 H1222 0.950 . S
C1246 C1241 1.363 . S
C1246 C1245 1.415 . S
C1247 H1223 0.951 . S
C1247 C1248 1.366 . S
C1247 C1249 1.388 . S
C1248 C1247 1.366 . S
C1248 C1252 1.385 . S
C1249 H1224 0.951 . S
C1249 C1247 1.388 . S
C1249 C1250 1.366 . S
C1250 C1249 1.366 . S
C1250 C1251 1.414 . S
C1250 C1253 1.499 . S
C1251 H1225 0.950 . S
C1251 C1250 1.414 . S
C1251 C1252 1.374 . S
C1252 H1226 0.950 . S
C1252 C1248 1.385 . S
C1252 C1251 1.374 . S
C1253 C1250 1.499 . S
C1253 C1254 1.373 . S
C1253 C1255 1.389 . S
C1254 H1227 0.950 . S
C1254 C1240 1.377 . S
C1254 C1253 1.373 . S
C1255 C1239 1.377 . S
C1255 C1253 1.389 . S
C1255 C1256 1.524 . S
C1256 C1255 1.524 . S
C1256 C1257 1.397 . S
C1256 C1261 1.363 . S
C1257 H1228 0.950 . S
C1257 C1256 1.397 . S
C1257 C1258 1.334 . S
C1258 H1229 0.950 . S
C1258 C1257 1.334 . S
C1258 C1259 1.287 . S
C1259 C1258 1.287 . S
C1259 C1260 1.524 . S
C1259 H1262 0.999 . S
C1260 H1230 0.950 . S
C1260 C1259 1.524 . S
C1260 C1261 1.415 . S
C1261 H1231 0.950 . S
C1261 C1256 1.363 . S
C1261 C1260 1.415 . S
H1262 C1259 0.999 . S
H1263 C1244 0.913 . S
H1264 C1282 0.951 . S
H1265 C1284 0.951 . S
H1266 C1286 0.950 . S
H1267 C1287 0.950 . S
H1268 C1289 0.950 . S
H1269 C1292 0.950 . S
H1270 C1293 0.950 . S
H1271 C1295 0.950 . S
H1272 C1296 0.950 . S
H1273 C1297 0.951 . S
H1274 C1299 0.951 . S
H1275 C1301 0.950 . S
H1276 C1302 0.950 . S
H1277 C1304 0.950 . S
H1278 C1307 0.950 . S
H1279 C1308 0.950 . S
H1280 C1310 0.950 . S
H1281 C1311 0.950 . S
C1282 H1264 0.951 . S
C1282 C1283 1.366 . S
C1282 C1284 1.388 . S
C1283 C1282 1.366 . S
C1283 C1287 1.385 . S
C1284 H1265 0.951 . S
C1284 C1282 1.388 . S
C1284 C1285 1.366 . S
C1285 C1284 1.366 . S
C1285 C1286 1.414 . S
C1285 C1288 1.499 . S
C1286 H1266 0.950 . S
C1286 C1285 1.414 . S
C1286 C1287 1.374 . S
C1287 H1267 0.950 . S
C1287 C1283 1.385 . S
C1287 C1286 1.374 . S
C1288 C1285 1.499 . S
C1288 C1289 1.373 . S
C1288 C1290 1.389 . S
C1289 H1268 0.950 . S
C1289 C1288 1.373 . S
C1289 C1305 1.377 . S
C1290 C1288 1.389 . S
C1290 C1291 1.524 . S
C1290 C1304 1.377 . S
C1291 C1290 1.524 . S
C1291 C1292 1.397 . S
C1291 C1296 1.363 . S
C1292 H1269 0.950 . S
C1292 C1291 1.397 . S
C1292 C1293 1.334 . S
C1293 H1270 0.950 . S
C1293 C1292 1.334 . S
C1293 C1294 1.287 . S
C1294 C1293 1.287 . S
C1294 C1295 1.524 . S
C1294 H1313 0.913 . S
C1295 H1271 0.950 . S
C1295 C1294 1.524 . S
C1295 C1296 1.415 . S
C1296 H1272 0.950 . S
C1296 C1291 1.363 . S
C1296 C1295 1.415 . S
C1297 H1273 0.951 . S
C1297 C1298 1.366 . S
C1297 C1299 1.388 . S
C1298 C1297 1.366 . S
C1298 C1302 1.385 . S
C1299 H1274 0.951 . S
C1299 C1297 1.388 . S
C1299 C1300 1.366 . S
C1300 C1299 1.366 . S
C1300 C1301 1.414 . S
C1300 C1303 1.499 . S
C1301 H1275 0.950 . S
C1301 C1300 1.414 . S
C1301 C1302 1.374 . S
C1302 H1276 0.950 . S
C1302 C1298 1.385 . S
C1302 C1301 1.374 . S
C1303 C1300 1.499 . S
C1303 C1304 1.373 . S
C1303 C1305 1.389 . S
C1304 H1277 0.950 . S
C1304 C1290 1.377 . S
C1304 C1303 1.373 . S
C1305 C1289 1.377 . S
C1305 C1303 1.389 . S
C1305 C1306 1.524 . S
C1306 C1305 1.524 . S
C1306 C1307 1.397 . S
C1306 C1311 1.363 . S
C1307 H1278 0.950 . S
C1307 C1306 1.397 . S
C1307 C1308 1.334 . S
C1308 H1279 0.950 . S
C1308 C1307 1.334 . S
C1308 C1309 1.287 . S
C1309 C1308 1.287 . S
C1309 C1310 1.524 . S
C1309 H1312 0.999 . S
C1310 H1280 0.950 . S
C1310 C1309 1.524 . S
C1310 C1311 1.415 . S
C1311 H1281 0.950 . S
C1311 C1306 1.363 . S
C1311 C1310 1.415 . S
H1312 C1309 0.999 . S
H1313 C1294 0.913 . S
H1314 C1332 0.951 . S
H1315 C1334 0.951 . S
H1316 C1336 0.950 . S
H1317 C1337 0.950 . S
H1318 C1339 0.950 . S
H1319 C1342 0.950 . S
H1320 C1343 0.950 . S
H1321 C1345 0.950 . S
H1322 C1346 0.950 . S
H1323 C1347 0.951 . S
H1324 C1349 0.951 . S
H1325 C1351 0.950 . S
H1326 C1352 0.950 . S
H1327 C1354 0.950 . S
H1328 C1357 0.950 . S
H1329 C1358 0.950 . S
H1330 C1360 0.950 . S
H1331 C1361 0.950 . S
C1332 H1314 0.951 . S
C1332 C1333 1.366 . S
C1332 C1334 1.388 . S
C1333 C1332 1.366 . S
C1333 C1337 1.385 . S
C1334 H1315 0.951 . S
C1334 C1332 1.388 . S
C1334 C1335 1.366 . S
C1335 C1334 1.366 . S
C1335 C1336 1.414 . S
C1335 C1338 1.499 . S
C1336 H1316 0.950 . S
C1336 C1335 1.414 . S
C1336 C1337 1.374 . S
C1337 H1317 0.950 . S
C1337 C1333 1.385 . S
C1337 C1336 1.374 . S
C1338 C1335 1.499 . S
C1338 C1339 1.373 . S
C1338 C1340 1.389 . S
C1339 H1318 0.950 . S
C1339 C1338 1.373 . S
C1339 C1355 1.377 . S
C1340 C1338 1.389 . S
C1340 C1341 1.524 . S
C1340 C1354 1.377 . S
C1341 C1340 1.524 . S
C1341 C1342 1.397 . S
C1341 C1346 1.363 . S
C1342 H1319 0.950 . S
C1342 C1341 1.397 . S
C1342 C1343 1.334 . S
C1343 H1320 0.950 . S
C1343 C1342 1.334 . S
C1343 C1344 1.287 . S
C1344 C1343 1.287 . S
C1344 C1345 1.524 . S
C1344 H1363 0.913 . S
C1345 H1321 0.950 . S
C1345 C1344 1.524 . S
C1345 C1346 1.415 . S
C1346 H1322 0.950 . S
C1346 C1341 1.363 . S
C1346 C1345 1.415 . S
C1347 H1323 0.951 . S
C1347 C1348 1.366 . S
C1347 C1349 1.388 . S
C1348 C1347 1.366 . S
C1348 C1352 1.385 . S
C1349 H1324 0.951 . S
C1349 C1347 1.388 . S
C1349 C1350 1.366 . S
C1350 C1349 1.366 . S
C1350 C1351 1.414 . S
C1350 C1353 1.499 . S
C1351 H1325 0.950 . S
C1351 C1350 1.414 . S
C1351 C1352 1.374 . S
C1352 H1326 0.950 . S
C1352 C1348 1.385 . S
C1352 C1351 1.374 . S
C1353 C1350 1.499 . S
C1353 C1354 1.373 . S
C1353 C1355 1.389 . S
C1354 H1327 0.950 . S
C1354 C1340 1.377 . S
C1354 C1353 1.373 . S
C1355 C1339 1.377 . S
C1355 C1353 1.389 . S
C1355 C1356 1.524 . S
C1356 C1355 1.524 . S
C1356 C1357 1.397 . S
C1356 C1361 1.363 . S
C1357 H1328 0.950 . S
C1357 C1356 1.397 . S
C1357 C1358 1.334 . S
C1358 H1329 0.950 . S
C1358 C1357 1.334 . S
C1358 C1359 1.287 . S
C1359 C1358 1.287 . S
C1359 C1360 1.524 . S
C1359 H1362 0.999 . S
C1360 H1330 0.950 . S
C1360 C1359 1.524 . S
C1360 C1361 1.415 . S
C1361 H1331 0.950 . S
C1361 C1356 1.363 . S
C1361 C1360 1.415 . S
H1362 C1359 0.999 . S
H1363 C1344 0.913 . S
H1364 C1382 0.951 . S
H1365 C1384 0.951 . S
H1366 C1386 0.950 . S
H1367 C1387 0.950 . S
H1368 C1389 0.950 . S
H1369 C1392 0.950 . S
H1370 C1393 0.950 . S
H1371 C1395 0.950 . S
H1372 C1396 0.950 . S
H1373 C1397 0.951 . S
H1374 C1399 0.951 . S
H1375 C1401 0.950 . S
H1376 C1402 0.950 . S
H1377 C1404 0.950 . S
H1378 C1407 0.950 . S
H1379 C1408 0.950 . S
H1380 C1410 0.950 . S
H1381 C1411 0.950 . S
C1382 H1364 0.951 . S
C1382 C1383 1.366 . S
C1382 C1384 1.388 . S
C1383 C1382 1.366 . S
C1383 C1387 1.385 . S
C1384 H1365 0.951 . S
C1384 C1382 1.388 . S
C1384 C1385 1.366 . S
C1385 C1384 1.366 . S
C1385 C1386 1.414 . S
C1385 C1388 1.499 . S
C1386 H1366 0.950 . S
C1386 C1385 1.414 . S
C1386 C1387 1.374 . S
C1387 H1367 0.950 . S
C1387 C1383 1.385 . S
C1387 C1386 1.374 . S
C1388 C1385 1.499 . S
C1388 C1389 1.373 . S
C1388 C1390 1.389 . S
C1389 H1368 0.950 . S
C1389 C1388 1.373 . S
C1389 C1405 1.377 . S
C1390 C1388 1.389 . S
C1390 C1391 1.524 . S
C1390 C1404 1.377 . S
C1391 C1390 1.524 . S
C1391 C1392 1.397 . S
C1391 C1396 1.363 . S
C1392 H1369 0.950 . S
C1392 C1391 1.397 . S
C1392 C1393 1.334 . S
C1393 H1370 0.950 . S
C1393 C1392 1.334 . S
C1393 C1394 1.287 . S
C1394 C1393 1.287 . S
C1394 C1395 1.524 . S
C1394 H1413 0.913 . S
C1395 H1371 0.950 . S
C1395 C1394 1.524 . S
C1395 C1396 1.415 . S
C1396 H1372 0.950 . S
C1396 C1391 1.363 . S
C1396 C1395 1.415 . S
C1397 H1373 0.951 . S
C1397 C1398 1.366 . S
C1397 C1399 1.388 . S
C1398 C1397 1.366 . S
C1398 C1402 1.385 . S
C1399 H1374 0.951 . S
C1399 C1397 1.388 . S
C1399 C1400 1.366 . S
C1400 C1399 1.366 . S
C1400 C1401 1.414 . S
C1400 C1403 1.499 . S
C1401 H1375 0.950 . S
C1401 C1400 1.414 . S
C1401 C1402 1.374 . S
C1402 H1376 0.950 . S
C1402 C1398 1.385 . S
C1402 C1401 1.374 . S
C1403 C1400 1.499 . S
C1403 C1404 1.373 . S
C1403 C1405 1.389 . S
C1404 H1377 0.950 . S
C1404 C1390 1.377 . S
C1404 C1403 1.373 . S
C1405 C1389 1.377 . S
C1405 C1403 1.389 . S
C1405 C1406 1.524 . S
C1406 C1405 1.524 . S
C1406 C1407 1.397 . S
C1406 C1411 1.363 . S
C1407 H1378 0.950 . S
C1407 C1406 1.397 . S
C1407 C1408 1.334 . S
C1408 H1379 0.950 . S
C1408 C1407 1.334 . S
C1408 C1409 1.287 . S
C1409 C1408 1.287 . S
C1409 C1410 1.524 . S
C1409 H1412 0.999 . S
C1410 H1380 0.950 . S
C1410 C1409 1.524 . S
C1410 C1411 1.415 . S
C1411 H1381 0.950 . S
C1411 C1406 1.363 . S
C1411 C1410 1.415 . S
H1412 C1409 0.999 . S
H1413 C1394 0.913 . S
H1414 C1432 0.951 . S
H1415 C1434 0.951 . S
H1416 C1436 0.950 . S
H1417 C1437 0.950 . S
H1418 C1439 0.950 . S
H1419 C1442 0.950 . S
H1420 C1443 0.950 . S
H1421 C1445 0.950 . S
H1422 C1446 0.950 . S
H1423 C1447 0.951 . S
H1424 C1449 0.951 . S
H1425 C1451 0.950 . S
H1426 C1452 0.950 . S
H1427 C1454 0.950 . S
H1428 C1457 0.950 . S
H1429 C1458 0.950 . S
H1430 C1460 0.950 . S
H1431 C1461 0.950 . S
C1432 H1414 0.951 . S
C1432 C1433 1.366 . S
C1432 C1434 1.388 . S
C1433 C1432 1.366 . S
C1433 C1437 1.385 . S
C1434 H1415 0.951 . S
C1434 C1432 1.388 . S
C1434 C1435 1.366 . S
C1435 C1434 1.366 . S
C1435 C1436 1.414 . S
C1435 C1438 1.499 . S
C1436 H1416 0.950 . S
C1436 C1435 1.414 . S
C1436 C1437 1.374 . S
C1437 H1417 0.950 . S
C1437 C1433 1.385 . S
C1437 C1436 1.374 . S
C1438 C1435 1.499 . S
C1438 C1439 1.373 . S
C1438 C1440 1.389 . S
C1439 H1418 0.950 . S
C1439 C1438 1.373 . S
C1439 C1455 1.377 . S
C1440 C1438 1.389 . S
C1440 C1441 1.524 . S
C1440 C1454 1.377 . S
C1441 C1440 1.524 . S
C1441 C1442 1.397 . S
C1441 C1446 1.363 . S
C1442 H1419 0.950 . S
C1442 C1441 1.397 . S
C1442 C1443 1.334 . S
C1443 H1420 0.950 . S
C1443 C1442 1.334 . S
C1443 C1444 1.287 . S
C1444 C1443 1.287 . S
C1444 C1445 1.524 . S
C1444 H1463 0.913 . S
C1445 H1421 0.950 . S
C1445 C1444 1.524 . S
C1445 C1446 1.415 . S
C1446 H1422 0.950 . S
C1446 C1441 1.363 . S
C1446 C1445 1.415 . S
C1447 H1423 0.951 . S
C1447 C1448 1.366 . S
C1447 C1449 1.388 . S
C1448 C1447 1.366 . S
C1448 C1452 1.385 . S
C1449 H1424 0.951 . S
C1449 C1447 1.388 . S
C1449 C1450 1.366 . S
C1450 C1449 1.366 . S
C1450 C1451 1.414 . S
C1450 C1453 1.499 . S
C1451 H1425 0.950 . S
C1451 C1450 1.414 . S
C1451 C1452 1.374 . S
C1452 H1426 0.950 . S
C1452 C1448 1.385 . S
C1452 C1451 1.374 . S
C1453 C1450 1.499 . S
C1453 C1454 1.373 . S
C1453 C1455 1.389 . S
C1454 H1427 0.950 . S
C1454 C1440 1.377 . S
C1454 C1453 1.373 . S
C1455 C1439 1.377 . S
C1455 C1453 1.389 . S
C1455 C1456 1.524 . S
C1456 C1455 1.524 . S
C1456 C1457 1.397 . S
C1456 C1461 1.363 . S
C1457 H1428 0.950 . S
C1457 C1456 1.397 . S
C1457 C1458 1.334 . S
C1458 H1429 0.950 . S
C1458 C1457 1.334 . S
C1458 C1459 1.287 . S
C1459 C1458 1.287 . S
C1459 C1460 1.524 . S
C1459 H1462 0.999 . S
C1460 H1430 0.950 . S
C1460 C1459 1.524 . S
C1460 C1461 1.415 . S
C1461 H1431 0.950 . S
C1461 C1456 1.363 . S
C1461 C1460 1.415 . S
H1462 C1459 0.999 . S
H1463 C1444 0.913 . S
H1464 C1482 0.951 . S
H1465 C1484 0.951 . S
H1466 C1486 0.950 . S
H1467 C1487 0.950 . S
H1468 C1489 0.950 . S
H1469 C1492 0.950 . S
H1470 C1493 0.950 . S
H1471 C1495 0.950 . S
H1472 C1496 0.950 . S
H1473 C1497 0.951 . S
H1474 C1499 0.951 . S
H1475 C1501 0.950 . S
H1476 C1502 0.950 1_554 S
H1477 C1504 0.950 . S
H1478 C1507 0.950 . S
H1479 C1508 0.950 . S
H1480 C1510 0.950 . S
H1481 C1511 0.950 . S
C1482 H1464 0.951 . S
C1482 C1483 1.366 . S
C1482 C1484 1.388 . S
C1483 C1482 1.366 . S
C1483 C1487 1.385 . S
C1484 H1465 0.951 . S
C1484 C1482 1.388 . S
C1484 C1485 1.366 . S
C1485 C1484 1.366 . S
C1485 C1486 1.414 . S
C1485 C1488 1.499 . S
C1486 H1466 0.950 . S
C1486 C1485 1.414 . S
C1486 C1487 1.374 . S
C1487 H1467 0.950 . S
C1487 C1483 1.385 . S
C1487 C1486 1.374 . S
C1488 C1485 1.499 . S
C1488 C1489 1.373 . S
C1488 C1490 1.389 . S
C1489 H1468 0.950 . S
C1489 C1488 1.373 . S
C1489 C1505 1.377 . S
C1490 C1488 1.389 . S
C1490 C1491 1.524 . S
C1490 C1504 1.377 . S
C1491 C1490 1.524 . S
C1491 C1492 1.397 . S
C1491 C1496 1.363 . S
C1492 H1469 0.950 . S
C1492 C1491 1.397 . S
C1492 C1493 1.334 . S
C1493 H1470 0.950 . S
C1493 C1492 1.334 . S
C1493 C1494 1.287 . S
C1494 C1493 1.287 . S
C1494 C1495 1.524 . S
C1494 H1513 0.913 . S
C1495 H1471 0.950 . S
C1495 C1494 1.524 . S
C1495 C1496 1.415 . S
C1496 H1472 0.950 . S
C1496 C1491 1.363 . S
C1496 C1495 1.415 . S
C1497 H1473 0.951 . S
C1497 C1498 1.366 . S
C1497 C1499 1.388 . S
C1498 C1497 1.366 . S
C1498 C1502 1.385 . S
C1499 H1474 0.951 . S
C1499 C1497 1.388 . S
C1499 C1500 1.366 . S
C1500 C1499 1.366 . S
C1500 C1501 1.414 . S
C1500 C1503 1.499 . S
C1501 H1475 0.950 . S
C1501 C1500 1.414 . S
C1501 C1502 1.374 . S
C1502 H1476 0.950 1_556 S
C1502 C1498 1.385 . S
C1502 C1501 1.374 . S
C1503 C1500 1.499 . S
C1503 C1504 1.373 . S
C1503 C1505 1.389 . S
C1504 H1477 0.950 . S
C1504 C1490 1.377 . S
C1504 C1503 1.373 . S
C1505 C1489 1.377 . S
C1505 C1503 1.389 . S
C1505 C1506 1.524 . S
C1506 C1505 1.524 . S
C1506 C1507 1.397 . S
C1506 C1511 1.363 . S
C1507 H1478 0.950 . S
C1507 C1506 1.397 . S
C1507 C1508 1.334 . S
C1508 H1479 0.950 . S
C1508 C1507 1.334 . S
C1508 C1509 1.287 . S
C1509 C1508 1.287 . S
C1509 C1510 1.524 . S
C1509 H1512 0.999 . S
C1510 H1480 0.950 . S
C1510 C1509 1.524 . S
C1510 C1511 1.415 . S
C1511 H1481 0.950 . S
C1511 C1506 1.363 . S
C1511 C1510 1.415 . S
H1512 C1509 0.999 . S
H1513 C1494 0.913 . S
H1514 C1532 0.951 . S
H1515 C1534 0.951 . S
H1516 C1536 0.950 . S
H1517 C1537 0.950 . S
H1518 C1539 0.950 . S
H1519 C1542 0.950 . S
H1520 C1543 0.950 . S
H1521 C1545 0.950 . S
H1522 C1546 0.950 . S
H1523 C1547 0.951 . S
H1524 C1549 0.951 . S
H1525 C1551 0.950 . S
H1526 C1552 0.950 . S
H1527 C1554 0.950 . S
H1528 C1557 0.950 . S
H1529 C1558 0.950 1_554 S
H1530 C1560 0.950 . S
H1531 C1561 0.950 . S
C1532 H1514 0.951 . S
C1532 C1533 1.366 . S
C1532 C1534 1.388 . S
C1533 C1532 1.366 . S
C1533 C1537 1.385 . S
C1534 H1515 0.951 . S
C1534 C1532 1.388 . S
C1534 C1535 1.366 . S
C1535 C1534 1.366 . S
C1535 C1536 1.414 . S
C1535 C1538 1.499 . S
C1536 H1516 0.950 . S
C1536 C1535 1.414 . S
C1536 C1537 1.374 . S
C1537 H1517 0.950 . S
C1537 C1533 1.385 . S
C1537 C1536 1.374 . S
C1538 C1535 1.499 . S
C1538 C1539 1.373 . S
C1538 C1540 1.389 . S
C1539 H1518 0.950 . S
C1539 C1538 1.373 . S
C1539 C1555 1.377 . S
C1540 C1538 1.389 . S
C1540 C1541 1.524 . S
C1540 C1554 1.377 . S
C1541 C1540 1.524 . S
C1541 C1542 1.397 . S
C1541 C1546 1.363 . S
C1542 H1519 0.950 . S
C1542 C1541 1.397 . S
C1542 C1543 1.334 . S
C1543 H1520 0.950 . S
C1543 C1542 1.334 . S
C1543 C1544 1.287 . S
C1544 C1543 1.287 . S
C1544 C1545 1.524 . S
C1544 H1563 0.913 . S
C1545 H1521 0.950 . S
C1545 C1544 1.524 . S
C1545 C1546 1.415 . S
C1546 H1522 0.950 . S
C1546 C1541 1.363 . S
C1546 C1545 1.415 . S
C1547 H1523 0.951 . S
C1547 C1548 1.366 . S
C1547 C1549 1.388 . S
C1548 C1547 1.366 . S
C1548 C1552 1.385 . S
C1549 H1524 0.951 . S
C1549 C1547 1.388 . S
C1549 C1550 1.366 . S
C1550 C1549 1.366 . S
C1550 C1551 1.414 . S
C1550 C1553 1.499 . S
C1551 H1525 0.950 . S
C1551 C1550 1.414 . S
C1551 C1552 1.374 . S
C1552 H1526 0.950 . S
C1552 C1548 1.385 . S
C1552 C1551 1.374 . S
C1553 C1550 1.499 . S
C1553 C1554 1.373 . S
C1553 C1555 1.389 . S
C1554 H1527 0.950 . S
C1554 C1540 1.377 . S
C1554 C1553 1.373 . S
C1555 C1539 1.377 . S
C1555 C1553 1.389 . S
C1555 C1556 1.524 . S
C1556 C1555 1.524 . S
C1556 C1557 1.397 . S
C1556 C1561 1.363 . S
C1557 H1528 0.950 . S
C1557 C1556 1.397 . S
C1557 C1558 1.334 . S
C1558 H1529 0.950 1_556 S
C1558 C1557 1.334 . S
C1558 C1559 1.287 1_556 S
C1559 C1558 1.287 1_554 S
C1559 C1560 1.524 1_554 S
C1559 H1562 0.999 . S
C1560 H1530 0.950 . S
C1560 C1559 1.524 1_556 S
C1560 C1561 1.415 . S
C1561 H1531 0.950 . S
C1561 C1556 1.363 . S
C1561 C1560 1.415 . S
H1562 C1559 0.999 . S
H1563 C1544 0.913 . S
H1564 C1582 0.951 . S
H1565 C1584 0.951 . S
H1566 C1586 0.950 . S
H1567 C1587 0.950 . S
H1568 C1589 0.950 . S
H1569 C1592 0.950 . S
H1570 C1593 0.950 . S
H1571 C1595 0.950 . S
H1572 C1596 0.950 . S
H1573 C1597 0.951 . S
H1574 C1599 0.951 . S
H1575 C1601 0.950 . S
H1576 C1602 0.950 . S
H1577 C1604 0.950 . S
H1578 C1607 0.950 . S
H1579 C1608 0.950 . S
H1580 C1610 0.950 . S
H1581 C1611 0.950 . S
C1582 H1564 0.951 . S
C1582 C1583 1.366 . S
C1582 C1584 1.388 . S
C1583 C1582 1.366 . S
C1583 C1587 1.385 . S
C1584 H1565 0.951 . S
C1584 C1582 1.388 . S
C1584 C1585 1.366 . S
C1585 C1584 1.366 . S
C1585 C1586 1.414 . S
C1585 C1588 1.499 . S
C1586 H1566 0.950 . S
C1586 C1585 1.414 . S
C1586 C1587 1.374 . S
C1587 H1567 0.950 . S
C1587 C1583 1.385 . S
C1587 C1586 1.374 . S
C1588 C1585 1.499 . S
C1588 C1589 1.373 . S
C1588 C1590 1.389 . S
C1589 H1568 0.950 . S
C1589 C1588 1.373 . S
C1589 C1605 1.377 . S
C1590 C1588 1.389 . S
C1590 C1591 1.524 . S
C1590 C1604 1.377 . S
C1591 C1590 1.524 . S
C1591 C1592 1.397 . S
C1591 C1596 1.363 . S
C1592 H1569 0.950 . S
C1592 C1591 1.397 . S
C1592 C1593 1.334 . S
C1593 H1570 0.950 . S
C1593 C1592 1.334 . S
C1593 C1594 1.287 . S
C1594 C1593 1.287 . S
C1594 C1595 1.524 . S
C1594 H1613 0.913 . S
C1595 H1571 0.950 . S
C1595 C1594 1.524 . S
C1595 C1596 1.415 . S
C1596 H1572 0.950 . S
C1596 C1591 1.363 . S
C1596 C1595 1.415 . S
C1597 H1573 0.951 . S
C1597 C1598 1.366 . S
C1597 C1599 1.388 . S
C1598 C1597 1.366 . S
C1598 C1602 1.385 . S
C1599 H1574 0.951 . S
C1599 C1597 1.388 . S
C1599 C1600 1.366 . S
C1600 C1599 1.366 . S
C1600 C1601 1.414 . S
C1600 C1603 1.499 . S
C1601 H1575 0.950 . S
C1601 C1600 1.414 . S
C1601 C1602 1.374 . S
C1602 H1576 0.950 . S
C1602 C1598 1.385 . S
C1602 C1601 1.374 . S
C1603 C1600 1.499 . S
C1603 C1604 1.373 . S
C1603 C1605 1.389 . S
C1604 H1577 0.950 . S
C1604 C1590 1.377 . S
C1604 C1603 1.373 . S
C1605 C1589 1.377 . S
C1605 C1603 1.389 . S
C1605 C1606 1.524 . S
C1606 C1605 1.524 . S
C1606 C1607 1.397 . S
C1606 C1611 1.363 . S
C1607 H1578 0.950 . S
C1607 C1606 1.397 . S
C1607 C1608 1.334 . S
C1608 H1579 0.950 . S
C1608 C1607 1.334 . S
C1608 C1609 1.287 . S
C1609 C1608 1.287 . S
C1609 C1610 1.524 . S
C1609 H1612 0.999 . S
C1610 H1580 0.950 . S
C1610 C1609 1.524 . S
C1610 C1611 1.415 . S
C1611 H1581 0.950 . S
C1611 C1606 1.363 . S
C1611 C1610 1.415 . S
H1612 C1609 0.999 . S
H1613 C1594 0.913 . S
H1614 C1632 0.951 . S
H1615 C1634 0.951 . S
H1616 C1636 0.950 . S
H1617 C1637 0.950 . S
H1618 C1639 0.950 . S
H1619 C1642 0.950 . S
H1620 C1643 0.950 . S
H1621 C1645 0.950 . S
H1622 C1646 0.950 . S
H1623 C1647 0.951 . S
H1624 C1649 0.951 . S
H1625 C1651 0.950 . S
H1626 C1652 0.950 . S
H1627 C1654 0.950 . S
H1628 C1657 0.950 . S
H1629 C1658 0.950 . S
H1630 C1660 0.950 . S
H1631 C1661 0.950 . S
C1632 H1614 0.951 . S
C1632 C1633 1.366 . S
C1632 C1634 1.388 . S
C1633 C1632 1.366 . S
C1633 C1637 1.385 . S
C1634 H1615 0.951 . S
C1634 C1632 1.388 . S
C1634 C1635 1.366 . S
C1635 C1634 1.366 . S
C1635 C1636 1.414 . S
C1635 C1638 1.499 . S
C1636 H1616 0.950 . S
C1636 C1635 1.414 . S
C1636 C1637 1.374 . S
C1637 H1617 0.950 . S
C1637 C1633 1.385 . S
C1637 C1636 1.374 . S
C1638 C1635 1.499 . S
C1638 C1639 1.373 . S
C1638 C1640 1.389 . S
C1639 H1618 0.950 . S
C1639 C1638 1.373 . S
C1639 C1655 1.377 . S
C1640 C1638 1.389 . S
C1640 C1641 1.524 . S
C1640 C1654 1.377 . S
C1641 C1640 1.524 . S
C1641 C1642 1.397 . S
C1641 C1646 1.363 . S
C1642 H1619 0.950 . S
C1642 C1641 1.397 . S
C1642 C1643 1.334 . S
C1643 H1620 0.950 . S
C1643 C1642 1.334 . S
C1643 C1644 1.287 . S
C1644 C1643 1.287 . S
C1644 C1645 1.524 . S
C1644 H1663 0.913 . S
C1645 H1621 0.950 . S
C1645 C1644 1.524 . S
C1645 C1646 1.415 . S
C1646 H1622 0.950 . S
C1646 C1641 1.363 . S
C1646 C1645 1.415 . S
C1647 H1623 0.951 . S
C1647 C1648 1.366 . S
C1647 C1649 1.388 . S
C1648 C1647 1.366 . S
C1648 C1652 1.385 . S
C1649 H1624 0.951 . S
C1649 C1647 1.388 . S
C1649 C1650 1.366 . S
C1650 C1649 1.366 . S
C1650 C1651 1.414 . S
C1650 C1653 1.499 . S
C1651 H1625 0.950 . S
C1651 C1650 1.414 . S
C1651 C1652 1.374 . S
C1652 H1626 0.950 . S
C1652 C1648 1.385 . S
C1652 C1651 1.374 . S
C1653 C1650 1.499 . S
C1653 C1654 1.373 . S
C1653 C1655 1.389 . S
C1654 H1627 0.950 . S
C1654 C1640 1.377 . S
C1654 C1653 1.373 . S
C1655 C1639 1.377 . S
C1655 C1653 1.389 . S
C1655 C1656 1.524 . S
C1656 C1655 1.524 . S
C1656 C1657 1.397 . S
C1656 C1661 1.363 . S
C1657 H1628 0.950 . S
C1657 C1656 1.397 . S
C1657 C1658 1.334 . S
C1658 H1629 0.950 . S
C1658 C1657 1.334 . S
C1658 C1659 1.287 . S
C1659 C1658 1.287 . S
C1659 C1660 1.524 . S
C1659 H1662 0.999 . S
C1660 H1630 0.950 . S
C1660 C1659 1.524 . S
C1660 C1661 1.415 . S
C1661 H1631 0.950 . S
C1661 C1656 1.363 . S
C1661 C1660 1.415 . S
H1662 C1659 0.999 . S
H1663 C1644 0.913 . S
H1664 C1682 0.951 . S
H1665 C1684 0.951 . S
H1666 C1686 0.950 . S
H1667 C1687 0.950 . S
H1668 C1689 0.950 . S
H1669 C1692 0.950 . S
H1670 C1693 0.950 . S
H1671 C1695 0.950 . S
H1672 C1696 0.950 . S
H1673 C1697 0.951 . S
H1674 C1699 0.951 . S
H1675 C1701 0.950 . S
H1676 C1702 0.950 . S
H1677 C1704 0.950 . S
H1678 C1707 0.950 . S
H1679 C1708 0.950 . S
H1680 C1710 0.950 . S
H1681 C1711 0.950 . S
C1682 H1664 0.951 . S
C1682 C1683 1.366 . S
C1682 C1684 1.388 . S
C1683 C1682 1.366 . S
C1683 C1687 1.385 . S
C1684 H1665 0.951 . S
C1684 C1682 1.388 . S
C1684 C1685 1.366 . S
C1685 C1684 1.366 . S
C1685 C1686 1.414 . S
C1685 C1688 1.499 . S
C1686 H1666 0.950 . S
C1686 C1685 1.414 . S
C1686 C1687 1.374 . S
C1687 H1667 0.950 . S
C1687 C1683 1.385 . S
C1687 C1686 1.374 . S
C1688 C1685 1.499 . S
C1688 C1689 1.373 . S
C1688 C1690 1.389 . S
C1689 H1668 0.950 . S
C1689 C1688 1.373 . S
C1689 C1705 1.377 . S
C1690 C1688 1.389 . S
C1690 C1691 1.524 . S
C1690 C1704 1.377 . S
C1691 C1690 1.524 . S
C1691 C1692 1.397 . S
C1691 C1696 1.363 . S
C1692 H1669 0.950 . S
C1692 C1691 1.397 . S
C1692 C1693 1.334 . S
C1693 H1670 0.950 . S
C1693 C1692 1.334 . S
C1693 C1694 1.287 . S
C1694 C1693 1.287 . S
C1694 C1695 1.524 . S
C1694 H1713 0.913 . S
C1695 H1671 0.950 . S
C1695 C1694 1.524 . S
C1695 C1696 1.415 . S
C1696 H1672 0.950 . S
C1696 C1691 1.363 . S
C1696 C1695 1.415 . S
C1697 H1673 0.951 . S
C1697 C1698 1.366 . S
C1697 C1699 1.388 . S
C1698 C1697 1.366 . S
C1698 C1702 1.385 . S
C1699 H1674 0.951 . S
C1699 C1697 1.388 . S
C1699 C1700 1.366 . S
C1700 C1699 1.366 . S
C1700 C1701 1.414 . S
C1700 C1703 1.499 . S
C1701 H1675 0.950 . S
C1701 C1700 1.414 . S
C1701 C1702 1.374 . S
C1702 H1676 0.950 . S
C1702 C1698 1.385 . S
C1702 C1701 1.374 . S
C1703 C1700 1.499 . S
C1703 C1704 1.373 . S
C1703 C1705 1.389 . S
C1704 H1677 0.950 . S
C1704 C1690 1.377 . S
C1704 C1703 1.373 . S
C1705 C1689 1.377 . S
C1705 C1703 1.389 . S
C1705 C1706 1.524 . S
C1706 C1705 1.524 . S
C1706 C1707 1.397 . S
C1706 C1711 1.363 . S
C1707 H1678 0.950 . S
C1707 C1706 1.397 . S
C1707 C1708 1.334 . S
C1708 H1679 0.950 . S
C1708 C1707 1.334 . S
C1708 C1709 1.287 . S
C1709 C1708 1.287 . S
C1709 C1710 1.524 . S
C1709 H1712 0.999 . S
C1710 H1680 0.950 . S
C1710 C1709 1.524 . S
C1710 C1711 1.415 . S
C1711 H1681 0.950 . S
C1711 C1706 1.363 . S
C1711 C1710 1.415 . S
H1712 C1709 0.999 . S
H1713 C1694 0.913 . S
H1714 C1732 0.951 . S
H1715 C1734 0.951 . S
H1716 C1736 0.950 . S
H1717 C1737 0.950 . S
H1718 C1739 0.950 . S
H1719 C1742 0.950 . S
H1720 C1743 0.950 . S
H1721 C1745 0.950 . S
H1722 C1746 0.950 . S
H1723 C1747 0.951 . S
H1724 C1749 0.951 . S
H1725 C1751 0.950 . S
H1726 C1752 0.950 . S
H1727 C1754 0.950 . S
H1728 C1757 0.950 . S
H1729 C1758 0.950 . S
H1730 C1760 0.950 . S
H1731 C1761 0.950 . S
C1732 H1714 0.951 . S
C1732 C1733 1.366 . S
C1732 C1734 1.388 . S
C1733 C1732 1.366 . S
C1733 C1737 1.385 . S
C1734 H1715 0.951 . S
C1734 C1732 1.388 . S
C1734 C1735 1.366 . S
C1735 C1734 1.366 . S
C1735 C1736 1.414 . S
C1735 C1738 1.499 . S
C1736 H1716 0.950 . S
C1736 C1735 1.414 . S
C1736 C1737 1.374 . S
C1737 H1717 0.950 . S
C1737 C1733 1.385 . S
C1737 C1736 1.374 . S
C1738 C1735 1.499 . S
C1738 C1739 1.373 . S
C1738 C1740 1.389 . S
C1739 H1718 0.950 . S
C1739 C1738 1.373 . S
C1739 C1755 1.377 . S
C1740 C1738 1.389 . S
C1740 C1741 1.524 . S
C1740 C1754 1.377 . S
C1741 C1740 1.524 . S
C1741 C1742 1.397 . S
C1741 C1746 1.363 . S
C1742 H1719 0.950 . S
C1742 C1741 1.397 . S
C1742 C1743 1.334 . S
C1743 H1720 0.950 . S
C1743 C1742 1.334 . S
C1743 C1744 1.287 . S
C1744 C1743 1.287 . S
C1744 C1745 1.524 . S
C1744 H1763 0.913 . S
C1745 H1721 0.950 . S
C1745 C1744 1.524 . S
C1745 C1746 1.415 . S
C1746 H1722 0.950 . S
C1746 C1741 1.363 . S
C1746 C1745 1.415 . S
C1747 H1723 0.951 . S
C1747 C1748 1.366 . S
C1747 C1749 1.388 . S
C1748 C1747 1.366 . S
C1748 C1752 1.385 . S
C1749 H1724 0.951 . S
C1749 C1747 1.388 . S
C1749 C1750 1.366 . S
C1750 C1749 1.366 . S
C1750 C1751 1.414 . S
C1750 C1753 1.499 . S
C1751 H1725 0.950 . S
C1751 C1750 1.414 . S
C1751 C1752 1.374 . S
C1752 H1726 0.950 . S
C1752 C1748 1.385 . S
C1752 C1751 1.374 . S
C1753 C1750 1.499 . S
C1753 C1754 1.373 . S
C1753 C1755 1.389 . S
C1754 H1727 0.950 . S
C1754 C1740 1.377 . S
C1754 C1753 1.373 . S
C1755 C1739 1.377 . S
C1755 C1753 1.389 . S
C1755 C1756 1.524 . S
C1756 C1755 1.524 . S
C1756 C1757 1.397 . S
C1756 C1761 1.363 . S
C1757 H1728 0.950 . S
C1757 C1756 1.397 . S
C1757 C1758 1.334 . S
C1758 H1729 0.950 . S
C1758 C1757 1.334 . S
C1758 C1759 1.287 . S
C1759 C1758 1.287 . S
C1759 C1760 1.524 . S
C1759 H1762 0.999 1_554 S
C1760 H1730 0.950 . S
C1760 C1759 1.524 . S
C1760 C1761 1.415 . S
C1761 H1731 0.950 . S
C1761 C1756 1.363 . S
C1761 C1760 1.415 . S
H1762 C1759 0.999 1_556 S
H1763 C1744 0.913 . S
H1764 C1782 0.951 . S
H1765 C1784 0.951 . S
H1766 C1786 0.950 . S
H1767 C1787 0.950 . S
H1768 C1789 0.950 . S
H1769 C1792 0.950 . S
H1770 C1793 0.950 . S
H1771 C1795 0.950 . S
H1772 C1796 0.950 . S
H1773 C1797 0.951 . S
H1774 C1799 0.951 . S
H1775 C1801 0.950 . S
H1776 C1802 0.950 . S
H1777 C1804 0.950 . S
H1778 C1807 0.950 . S
H1779 C1808 0.950 . S
H1780 C1810 0.950 . S
H1781 C1811 0.950 . S
C1782 H1764 0.951 . S
C1782 C1783 1.366 . S
C1782 C1784 1.388 . S
C1783 C1782 1.366 . S
C1783 C1787 1.385 . S
C1784 H1765 0.951 . S
C1784 C1782 1.388 . S
C1784 C1785 1.366 . S
C1785 C1784 1.366 . S
C1785 C1786 1.414 . S
C1785 C1788 1.499 . S
C1786 H1766 0.950 . S
C1786 C1785 1.414 . S
C1786 C1787 1.374 . S
C1787 H1767 0.950 . S
C1787 C1783 1.385 . S
C1787 C1786 1.374 . S
C1788 C1785 1.499 . S
C1788 C1789 1.373 . S
C1788 C1790 1.389 . S
C1789 H1768 0.950 . S
C1789 C1788 1.373 . S
C1789 C1805 1.377 . S
C1790 C1788 1.389 . S
C1790 C1791 1.524 . S
C1790 C1804 1.377 . S
C1791 C1790 1.524 . S
C1791 C1792 1.397 . S
C1791 C1796 1.363 . S
C1792 H1769 0.950 . S
C1792 C1791 1.397 . S
C1792 C1793 1.334 . S
C1793 H1770 0.950 . S
C1793 C1792 1.334 . S
C1793 C1794 1.287 . S
C1794 C1793 1.287 . S
C1794 C1795 1.524 . S
C1794 H1813 0.913 . S
C1795 H1771 0.950 . S
C1795 C1794 1.524 . S
C1795 C1796 1.415 . S
C1796 H1772 0.950 . S
C1796 C1791 1.363 . S
C1796 C1795 1.415 . S
C1797 H1773 0.951 . S
C1797 C1798 1.366 . S
C1797 C1799 1.388 . S
C1798 C1797 1.366 . S
C1798 C1802 1.385 . S
C1799 H1774 0.951 . S
C1799 C1797 1.388 . S
C1799 C1800 1.366 . S
C1800 C1799 1.366 . S
C1800 C1801 1.414 . S
C1800 C1803 1.499 . S
C1801 H1775 0.950 . S
C1801 C1800 1.414 . S
C1801 C1802 1.374 . S
C1802 H1776 0.950 . S
C1802 C1798 1.385 . S
C1802 C1801 1.374 . S
C1803 C1800 1.499 . S
C1803 C1804 1.373 . S
C1803 C1805 1.389 . S
C1804 H1777 0.950 . S
C1804 C1790 1.377 . S
C1804 C1803 1.373 . S
C1805 C1789 1.377 . S
C1805 C1803 1.389 . S
C1805 C1806 1.524 . S
C1806 C1805 1.524 . S
C1806 C1807 1.397 . S
C1806 C1811 1.363 . S
C1807 H1778 0.950 . S
C1807 C1806 1.397 . S
C1807 C1808 1.334 . S
C1808 H1779 0.950 . S
C1808 C1807 1.334 . S
C1808 C1809 1.287 . S
C1809 C1808 1.287 . S
C1809 C1810 1.524 . S
C1809 H1812 0.999 . S
C1810 H1780 0.950 . S
C1810 C1809 1.524 . S
C1810 C1811 1.415 . S
C1811 H1781 0.950 . S
C1811 C1806 1.363 . S
C1811 C1810 1.415 . S
H1812 C1809 0.999 . S
H1813 C1794 0.913 . S
H1814 C1832 0.951 . S
H1815 C1834 0.951 . S
H1816 C1836 0.950 . S
H1817 C1837 0.950 . S
H1818 C1839 0.950 . S
H1819 C1842 0.950 . S
H1820 C1843 0.950 . S
H1821 C1845 0.950 . S
H1822 C1846 0.950 . S
H1823 C1847 0.951 . S
H1824 C1849 0.951 . S
H1825 C1851 0.950 . S
H1826 C1852 0.950 . S
H1827 C1854 0.950 . S
H1828 C1857 0.950 . S
H1829 C1858 0.950 . S
H1830 C1860 0.950 . S
H1831 C1861 0.950 . S
C1832 H1814 0.951 . S
C1832 C1833 1.366 . S
C1832 C1834 1.388 . S
C1833 C1832 1.366 . S
C1833 C1837 1.385 . S
C1834 H1815 0.951 . S
C1834 C1832 1.388 . S
C1834 C1835 1.366 . S
C1835 C1834 1.366 . S
C1835 C1836 1.414 . S
C1835 C1838 1.499 . S
C1836 H1816 0.950 . S
C1836 C1835 1.414 . S
C1836 C1837 1.374 . S
C1837 H1817 0.950 . S
C1837 C1833 1.385 . S
C1837 C1836 1.374 . S
C1838 C1835 1.499 . S
C1838 C1839 1.373 . S
C1838 C1840 1.389 . S
C1839 H1818 0.950 . S
C1839 C1838 1.373 . S
C1839 C1855 1.377 . S
C1840 C1838 1.389 . S
C1840 C1841 1.524 . S
C1840 C1854 1.377 . S
C1841 C1840 1.524 . S
C1841 C1842 1.397 . S
C1841 C1846 1.363 . S
C1842 H1819 0.950 . S
C1842 C1841 1.397 . S
C1842 C1843 1.334 . S
C1843 H1820 0.950 . S
C1843 C1842 1.334 . S
C1843 C1844 1.287 . S
C1844 C1843 1.287 . S
C1844 C1845 1.524 . S
C1844 H1863 0.913 . S
C1845 H1821 0.950 . S
C1845 C1844 1.524 . S
C1845 C1846 1.415 . S
C1846 H1822 0.950 . S
C1846 C1841 1.363 . S
C1846 C1845 1.415 . S
C1847 H1823 0.951 . S
C1847 C1848 1.366 . S
C1847 C1849 1.388 . S
C1848 C1847 1.366 . S
C1848 C1852 1.385 . S
C1849 H1824 0.951 . S
C1849 C1847 1.388 . S
C1849 C1850 1.366 . S
C1850 C1849 1.366 . S
C1850 C1851 1.414 . S
C1850 C1853 1.499 . S
C1851 H1825 0.950 . S
C1851 C1850 1.414 . S
C1851 C1852 1.374 . S
C1852 H1826 0.950 . S
C1852 C1848 1.385 . S
C1852 C1851 1.374 . S
C1853 C1850 1.499 . S
C1853 C1854 1.373 . S
C1853 C1855 1.389 . S
C1854 H1827 0.950 . S
C1854 C1840 1.377 . S
C1854 C1853 1.373 . S
C1855 C1839 1.377 . S
C1855 C1853 1.389 . S
C1855 C1856 1.524 . S
C1856 C1855 1.524 . S
C1856 C1857 1.397 . S
C1856 C1861 1.363 . S
C1857 H1828 0.950 . S
C1857 C1856 1.397 . S
C1857 C1858 1.334 . S
C1858 H1829 0.950 . S
C1858 C1857 1.334 . S
C1858 C1859 1.287 . S
C1859 C1858 1.287 . S
C1859 C1860 1.524 . S
C1859 H1862 0.999 . S
C1860 H1830 0.950 . S
C1860 C1859 1.524 . S
C1860 C1861 1.415 . S
C1861 H1831 0.950 . S
C1861 C1856 1.363 . S
C1861 C1860 1.415 . S
H1862 C1859 0.999 . S
H1863 C1844 0.913 . S
H1864 C1882 0.951 . S
H1865 C1884 0.951 . S
H1866 C1886 0.950 . S
H1867 C1887 0.950 . S
H1868 C1889 0.950 . S
H1869 C1892 0.950 . S
H1870 C1893 0.950 . S
H1871 C1895 0.950 . S
H1872 C1896 0.950 . S
H1873 C1897 0.951 . S
H1874 C1899 0.951 . S
H1875 C1901 0.950 . S
H1876 C1902 0.950 . S
H1877 C1904 0.950 . S
H1878 C1907 0.950 . S
H1879 C1908 0.950 . S
H1880 C1910 0.950 . S
H1881 C1911 0.950 . S
C1882 H1864 0.951 . S
C1882 C1883 1.366 . S
C1882 C1884 1.388 . S
C1883 C1882 1.366 . S
C1883 C1887 1.385 . S
C1884 H1865 0.951 . S
C1884 C1882 1.388 . S
C1884 C1885 1.366 . S
C1885 C1884 1.366 . S
C1885 C1886 1.414 . S
C1885 C1888 1.499 . S
C1886 H1866 0.950 . S
C1886 C1885 1.414 . S
C1886 C1887 1.374 . S
C1887 H1867 0.950 . S
C1887 C1883 1.385 . S
C1887 C1886 1.374 . S
C1888 C1885 1.499 . S
C1888 C1889 1.373 . S
C1888 C1890 1.389 . S
C1889 H1868 0.950 . S
C1889 C1888 1.373 . S
C1889 C1905 1.377 . S
C1890 C1888 1.389 . S
C1890 C1891 1.524 . S
C1890 C1904 1.377 . S
C1891 C1890 1.524 . S
C1891 C1892 1.397 . S
C1891 C1896 1.363 . S
C1892 H1869 0.950 . S
C1892 C1891 1.397 . S
C1892 C1893 1.334 . S
C1893 H1870 0.950 . S
C1893 C1892 1.334 . S
C1893 C1894 1.287 . S
C1894 C1893 1.287 . S
C1894 C1895 1.524 . S
C1894 H1913 0.913 . S
C1895 H1871 0.950 . S
C1895 C1894 1.524 . S
C1895 C1896 1.415 . S
C1896 H1872 0.950 . S
C1896 C1891 1.363 . S
C1896 C1895 1.415 . S
C1897 H1873 0.951 . S
C1897 C1898 1.366 . S
C1897 C1899 1.388 . S
C1898 C1897 1.366 . S
C1898 C1902 1.385 . S
C1899 H1874 0.951 . S
C1899 C1897 1.388 . S
C1899 C1900 1.366 . S
C1900 C1899 1.366 . S
C1900 C1901 1.414 . S
C1900 C1903 1.499 . S
C1901 H1875 0.950 . S
C1901 C1900 1.414 . S
C1901 C1902 1.374 . S
C1902 H1876 0.950 . S
C1902 C1898 1.385 . S
C1902 C1901 1.374 . S
C1903 C1900 1.499 . S
C1903 C1904 1.373 . S
C1903 C1905 1.389 . S
C1904 H1877 0.950 . S
C1904 C1890 1.377 . S
C1904 C1903 1.373 . S
C1905 C1889 1.377 . S
C1905 C1903 1.389 . S
C1905 C1906 1.524 . S
C1906 C1905 1.524 . S
C1906 C1907 1.397 . S
C1906 C1911 1.363 . S
C1907 H1878 0.950 . S
C1907 C1906 1.397 . S
C1907 C1908 1.334 . S
C1908 H1879 0.950 . S
C1908 C1907 1.334 . S
C1908 C1909 1.287 . S
C1909 C1908 1.287 . S
C1909 C1910 1.524 . S
C1909 H1912 0.999 . S
C1910 H1880 0.950 . S
C1910 C1909 1.524 . S
C1910 C1911 1.415 . S
C1911 H1881 0.950 . S
C1911 C1906 1.363 . S
C1911 C1910 1.415 . S
H1912 C1909 0.999 . S
H1913 C1894 0.913 . S
H1914 C1932 0.951 . S
H1915 C1934 0.951 . S
H1916 C1936 0.950 . S
H1917 C1937 0.950 . S
H1918 C1939 0.950 . S
H1919 C1942 0.950 . S
H1920 C1943 0.950 . S
H1921 C1945 0.950 . S
H1922 C1946 0.950 . S
H1923 C1947 0.951 . S
H1924 C1949 0.951 . S
H1925 C1951 0.950 . S
H1926 C1952 0.950 . S
H1927 C1954 0.950 . S
H1928 C1957 0.950 . S
H1929 C1958 0.950 . S
H1930 C1960 0.950 . S
H1931 C1961 0.950 . S
C1932 H1914 0.951 . S
C1932 C1933 1.366 . S
C1932 C1934 1.388 . S
C1933 C1932 1.366 . S
C1933 C1937 1.385 . S
C1934 H1915 0.951 . S
C1934 C1932 1.388 . S
C1934 C1935 1.366 . S
C1935 C1934 1.366 . S
C1935 C1936 1.414 . S
C1935 C1938 1.499 . S
C1936 H1916 0.950 . S
C1936 C1935 1.414 . S
C1936 C1937 1.374 . S
C1937 H1917 0.950 . S
C1937 C1933 1.385 . S
C1937 C1936 1.374 . S
C1938 C1935 1.499 . S
C1938 C1939 1.373 . S
C1938 C1940 1.389 . S
C1939 H1918 0.950 . S
C1939 C1938 1.373 . S
C1939 C1955 1.377 . S
C1940 C1938 1.389 . S
C1940 C1941 1.524 . S
C1940 C1954 1.377 . S
C1941 C1940 1.524 . S
C1941 C1942 1.397 . S
C1941 C1946 1.363 . S
C1942 H1919 0.950 . S
C1942 C1941 1.397 . S
C1942 C1943 1.334 . S
C1943 H1920 0.950 . S
C1943 C1942 1.334 . S
C1943 C1944 1.287 . S
C1944 C1943 1.287 . S
C1944 C1945 1.524 . S
C1944 H1963 0.913 . S
C1945 H1921 0.950 . S
C1945 C1944 1.524 . S
C1945 C1946 1.415 . S
C1946 H1922 0.950 . S
C1946 C1941 1.363 . S
C1946 C1945 1.415 . S
C1947 H1923 0.951 . S
C1947 C1948 1.366 . S
C1947 C1949 1.388 . S
C1948 C1947 1.366 . S
C1948 C1952 1.385 . S
C1949 H1924 0.951 . S
C1949 C1947 1.388 . S
C1949 C1950 1.366 . S
C1950 C1949 1.366 . S
C1950 C1951 1.414 . S
C1950 C1953 1.499 . S
C1951 H1925 0.950 . S
C1951 C1950 1.414 . S
C1951 C1952 1.374 . S
C1952 H1926 0.950 . S
C1952 C1948 1.385 . S
C1952 C1951 1.374 . S
C1953 C1950 1.499 . S
C1953 C1954 1.373 . S
C1953 C1955 1.389 . S
C1954 H1927 0.950 . S
C1954 C1940 1.377 . S
C1954 C1953 1.373 . S
C1955 C1939 1.377 . S
C1955 C1953 1.389 . S
C1955 C1956 1.524 . S
C1956 C1955 1.524 . S
C1956 C1957 1.397 . S
C1956 C1961 1.363 . S
C1957 H1928 0.950 . S
C1957 C1956 1.397 . S
C1957 C1958 1.334 . S
C1958 H1929 0.950 . S
C1958 C1957 1.334 . S
C1958 C1959 1.287 . S
C1959 C1958 1.287 . S
C1959 C1960 1.524 . S
C1959 H1962 0.999 . S
C1960 H1930 0.950 . S
C1960 C1959 1.524 . S
C1960 C1961 1.415 . S
C1961 H1931 0.950 . S
C1961 C1956 1.363 . S
C1961 C1960 1.415 . S
H1962 C1959 0.999 . S
H1963 C1944 0.913 . S
H1964 C1982 0.951 . S
H1965 C1984 0.951 . S
H1966 C1986 0.950 . S
H1967 C1987 0.950 . S
H1968 C1989 0.950 . S
H1969 C1992 0.950 . S
H1970 C1993 0.950 . S
H1971 C1995 0.950 . S
H1972 C1996 0.950 . S
H1973 C1997 0.951 . S
H1974 C1999 0.951 . S
H1975 C2001 0.950 . S
H1976 C2002 0.950 . S
H1977 C2004 0.950 . S
H1978 C2007 0.950 . S
H1979 C2008 0.950 . S
H1980 C2010 0.950 . S
H1981 C2011 0.950 . S
C1982 H1964 0.951 . S
C1982 C1983 1.366 . S
C1982 C1984 1.388 . S
C1983 C1982 1.366 . S
C1983 C1987 1.385 . S
C1984 H1965 0.951 . S
C1984 C1982 1.388 . S
C1984 C1985 1.366 . S
C1985 C1984 1.366 . S
C1985 C1986 1.414 . S
C1985 C1988 1.499 . S
C1986 H1966 0.950 . S
C1986 C1985 1.414 . S
C1986 C1987 1.374 . S
C1987 H1967 0.950 . S
C1987 C1983 1.385 . S
C1987 C1986 1.374 . S
C1988 C1985 1.499 . S
C1988 C1989 1.373 . S
C1988 C1990 1.389 . S
C1989 H1968 0.950 . S
C1989 C1988 1.373 . S
C1989 C2005 1.377 . S
C1990 C1988 1.389 . S
C1990 C1991 1.524 . S
C1990 C2004 1.377 . S
C1991 C1990 1.524 . S
C1991 C1992 1.397 . S
C1991 C1996 1.363 . S
C1992 H1969 0.950 . S
C1992 C1991 1.397 . S
C1992 C1993 1.334 . S
C1993 H1970 0.950 . S
C1993 C1992 1.334 . S
C1993 C1994 1.287 . S
C1994 C1993 1.287 . S
C1994 C1995 1.524 . S
C1994 H2013 0.913 . S
C1995 H1971 0.950 . S
C1995 C1994 1.524 . S
C1995 C1996 1.415 . S
C1996 H1972 0.950 . S
C1996 C1991 1.363 . S
C1996 C1995 1.415 . S
C1997 H1973 0.951 . S
C1997 C1998 1.366 . S
C1997 C1999 1.388 . S
C1998 C1997 1.366 . S
C1998 C2002 1.385 . S
C1999 H1974 0.951 . S
C1999 C1997 1.388 . S
C1999 C2000 1.366 . S
C2000 C1999 1.366 . S
C2000 C2001 1.414 . S
C2000 C2003 1.499 . S
C2001 H1975 0.950 . S
C2001 C2000 1.414 . S
C2001 C2002 1.374 . S
C2002 H1976 0.950 . S
C2002 C1998 1.385 . S
C2002 C2001 1.374 . S
C2003 C2000 1.499 . S
C2003 C2004 1.373 . S
C2003 C2005 1.389 . S
C2004 H1977 0.950 . S
C2004 C1990 1.377 . S
C2004 C2003 1.373 . S
C2005 C1989 1.377 . S
C2005 C2003 1.389 . S
C2005 C2006 1.524 . S
C2006 C2005 1.524 . S
C2006 C2007 1.397 . S
C2006 C2011 1.363 . S
C2007 H1978 0.950 . S
C2007 C2006 1.397 . S
C2007 C2008 1.334 . S
C2008 H1979 0.950 . S
C2008 C2007 1.334 . S
C2008 C2009 1.287 . S
C2009 C2008 1.287 . S
C2009 C2010 1.524 . S
C2009 H2012 0.999 . S
C2010 H1980 0.950 . S
C2010 C2009 1.524 . S
C2010 C2011 1.415 . S
C2011 H1981 0.950 . S
C2011 C2006 1.363 . S
C2011 C2010 1.415 . S
H2012 C2009 0.999 . S
H2013 C1994 0.913 . S
H2014 C2032 0.951 . S
H2015 C2034 0.951 . S
H2016 C2036 0.950 . S
H2017 C2037 0.950 . S
H2018 C2039 0.950 . S
H2019 C2042 0.950 . S
H2020 C2043 0.950 . S
H2021 C2045 0.950 . S
H2022 C2046 0.950 . S
H2023 C2047 0.951 . S
H2024 C2049 0.951 . S
H2025 C2051 0.950 . S
H2026 C2052 0.950 . S
H2027 C2054 0.950 . S
H2028 C2057 0.950 . S
H2029 C2058 0.950 . S
H2030 C2060 0.950 . S
H2031 C2061 0.950 . S
C2032 H2014 0.951 . S
C2032 C2033 1.366 . S
C2032 C2034 1.388 . S
C2033 C2032 1.366 . S
C2033 C2037 1.385 . S
C2034 H2015 0.951 . S
C2034 C2032 1.388 . S
C2034 C2035 1.366 . S
C2035 C2034 1.366 . S
C2035 C2036 1.414 . S
C2035 C2038 1.499 . S
C2036 H2016 0.950 . S
C2036 C2035 1.414 . S
C2036 C2037 1.374 . S
C2037 H2017 0.950 . S
C2037 C2033 1.385 . S
C2037 C2036 1.374 . S
C2038 C2035 1.499 . S
C2038 C2039 1.373 . S
C2038 C2040 1.389 . S
C2039 H2018 0.950 . S
C2039 C2038 1.373 . S
C2039 C2055 1.377 . S
C2040 C2038 1.389 . S
C2040 C2041 1.524 . S
C2040 C2054 1.377 . S
C2041 C2040 1.524 . S
C2041 C2042 1.397 . S
C2041 C2046 1.363 . S
C2042 H2019 0.950 . S
C2042 C2041 1.397 . S
C2042 C2043 1.334 . S
C2043 H2020 0.950 . S
C2043 C2042 1.334 . S
C2043 C2044 1.287 . S
C2044 C2043 1.287 . S
C2044 C2045 1.524 . S
C2044 H2063 0.913 . S
C2045 H2021 0.950 . S
C2045 C2044 1.524 . S
C2045 C2046 1.415 . S
C2046 H2022 0.950 . S
C2046 C2041 1.363 . S
C2046 C2045 1.415 . S
C2047 H2023 0.951 . S
C2047 C2048 1.366 . S
C2047 C2049 1.388 . S
C2048 C2047 1.366 . S
C2048 C2052 1.385 . S
C2049 H2024 0.951 . S
C2049 C2047 1.388 . S
C2049 C2050 1.366 . S
C2050 C2049 1.366 . S
C2050 C2051 1.414 . S
C2050 C2053 1.499 . S
C2051 H2025 0.950 . S
C2051 C2050 1.414 . S
C2051 C2052 1.374 . S
C2052 H2026 0.950 . S
C2052 C2048 1.385 . S
C2052 C2051 1.374 . S
C2053 C2050 1.499 . S
C2053 C2054 1.373 . S
C2053 C2055 1.389 . S
C2054 H2027 0.950 . S
C2054 C2040 1.377 . S
C2054 C2053 1.373 . S
C2055 C2039 1.377 . S
C2055 C2053 1.389 . S
C2055 C2056 1.524 . S
C2056 C2055 1.524 . S
C2056 C2057 1.397 . S
C2056 C2061 1.363 . S
C2057 H2028 0.950 . S
C2057 C2056 1.397 . S
C2057 C2058 1.334 . S
C2058 H2029 0.950 . S
C2058 C2057 1.334 . S
C2058 C2059 1.287 . S
C2059 C2058 1.287 . S
C2059 C2060 1.524 . S
C2059 H2062 0.999 . S
C2060 H2030 0.950 . S
C2060 C2059 1.524 . S
C2060 C2061 1.415 . S
C2061 H2031 0.950 . S
C2061 C2056 1.363 . S
C2061 C2060 1.415 . S
H2062 C2059 0.999 . S
H2063 C2044 0.913 . S
H2064 C2082 0.951 . S
H2065 C2084 0.951 . S
H2066 C2086 0.950 . S
H2067 C2087 0.950 . S
H2068 C2089 0.950 . S
H2069 C2092 0.950 . S
H2070 C2093 0.950 . S
H2071 C2095 0.950 . S
H2072 C2096 0.950 . S
H2073 C2097 0.951 . S
H2074 C2099 0.951 . S
H2075 C2101 0.950 . S
H2076 C2102 0.950 . S
H2077 C2104 0.950 . S
H2078 C2107 0.950 . S
H2079 C2108 0.950 . S
H2080 C2110 0.950 . S
H2081 C2111 0.950 . S
C2082 H2064 0.951 . S
C2082 C2083 1.366 . S
C2082 C2084 1.388 . S
C2083 C2082 1.366 . S
C2083 C2087 1.385 . S
C2084 H2065 0.951 . S
C2084 C2082 1.388 . S
C2084 C2085 1.366 . S
C2085 C2084 1.366 . S
C2085 C2086 1.414 . S
C2085 C2088 1.499 . S
C2086 H2066 0.950 . S
C2086 C2085 1.414 . S
C2086 C2087 1.374 . S
C2087 H2067 0.950 . S
C2087 C2083 1.385 . S
C2087 C2086 1.374 . S
C2088 C2085 1.499 . S
C2088 C2089 1.373 . S
C2088 C2090 1.389 . S
C2089 H2068 0.950 . S
C2089 C2088 1.373 . S
C2089 C2105 1.377 . S
C2090 C2088 1.389 . S
C2090 C2091 1.524 . S
C2090 C2104 1.377 . S
C2091 C2090 1.524 . S
C2091 C2092 1.397 . S
C2091 C2096 1.363 . S
C2092 H2069 0.950 . S
C2092 C2091 1.397 . S
C2092 C2093 1.334 . S
C2093 H2070 0.950 . S
C2093 C2092 1.334 . S
C2093 C2094 1.287 . S
C2094 C2093 1.287 . S
C2094 C2095 1.524 . S
C2094 H2113 0.913 . S
C2095 H2071 0.950 . S
C2095 C2094 1.524 . S
C2095 C2096 1.415 . S
C2096 H2072 0.950 . S
C2096 C2091 1.363 . S
C2096 C2095 1.415 . S
C2097 H2073 0.951 . S
C2097 C2098 1.366 . S
C2097 C2099 1.388 . S
C2098 C2097 1.366 . S
C2098 C2102 1.385 . S
C2099 H2074 0.951 . S
C2099 C2097 1.388 . S
C2099 C2100 1.366 . S
C2100 C2099 1.366 . S
C2100 C2101 1.414 . S
C2100 C2103 1.499 . S
C2101 H2075 0.950 . S
C2101 C2100 1.414 . S
C2101 C2102 1.374 . S
C2102 H2076 0.950 . S
C2102 C2098 1.385 . S
C2102 C2101 1.374 . S
C2103 C2100 1.499 . S
C2103 C2104 1.373 . S
C2103 C2105 1.389 . S
C2104 H2077 0.950 . S
C2104 C2090 1.377 . S
C2104 C2103 1.373 . S
C2105 C2089 1.377 . S
C2105 C2103 1.389 . S
C2105 C2106 1.524 . S
C2106 C2105 1.524 . S
C2106 C2107 1.397 . S
C2106 C2111 1.363 . S
C2107 H2078 0.950 . S
C2107 C2106 1.397 . S
C2107 C2108 1.334 . S
C2108 H2079 0.950 . S
C2108 C2107 1.334 . S
C2108 C2109 1.287 . S
C2109 C2108 1.287 . S
C2109 C2110 1.524 . S
C2109 H2112 0.999 . S
C2110 H2080 0.950 . S
C2110 C2109 1.524 . S
C2110 C2111 1.415 . S
C2111 H2081 0.950 . S
C2111 C2106 1.363 . S
C2111 C2110 1.415 . S
H2112 C2109 0.999 . S
H2113 C2094 0.913 . S
H2114 C2132 0.951 . S
H2115 C2134 0.951 . S
H2116 C2136 0.950 . S
H2117 C2137 0.950 . S
H2118 C2139 0.950 . S
H2119 C2142 0.950 . S
H2120 C2143 0.950 . S
H2121 C2145 0.950 . S
H2122 C2146 0.950 . S
H2123 C2147 0.951 . S
H2124 C2149 0.951 . S
H2125 C2151 0.950 . S
H2126 C2152 0.950 . S
H2127 C2154 0.950 . S
H2128 C2157 0.950 . S
H2129 C2158 0.950 . S
H2130 C2160 0.950 . S
H2131 C2161 0.950 . S
C2132 H2114 0.951 . S
C2132 C2133 1.366 . S
C2132 C2134 1.388 . S
C2133 C2132 1.366 . S
C2133 C2137 1.385 . S
C2134 H2115 0.951 . S
C2134 C2132 1.388 . S
C2134 C2135 1.366 . S
C2135 C2134 1.366 . S
C2135 C2136 1.414 . S
C2135 C2138 1.499 . S
C2136 H2116 0.950 . S
C2136 C2135 1.414 . S
C2136 C2137 1.374 . S
C2137 H2117 0.950 . S
C2137 C2133 1.385 . S
C2137 C2136 1.374 . S
C2138 C2135 1.499 . S
C2138 C2139 1.373 . S
C2138 C2140 1.389 . S
C2139 H2118 0.950 . S
C2139 C2138 1.373 . S
C2139 C2155 1.377 . S
C2140 C2138 1.389 . S
C2140 C2141 1.524 . S
C2140 C2154 1.377 . S
C2141 C2140 1.524 . S
C2141 C2142 1.397 . S
C2141 C2146 1.363 . S
C2142 H2119 0.950 . S
C2142 C2141 1.397 . S
C2142 C2143 1.334 . S
C2143 H2120 0.950 . S
C2143 C2142 1.334 . S
C2143 C2144 1.287 . S
C2144 C2143 1.287 . S
C2144 C2145 1.524 . S
C2144 H2163 0.913 . S
C2145 H2121 0.950 . S
C2145 C2144 1.524 . S
C2145 C2146 1.415 . S
C2146 H2122 0.950 . S
C2146 C2141 1.363 . S
C2146 C2145 1.415 . S
C2147 H2123 0.951 . S
C2147 C2148 1.366 . S
C2147 C2149 1.388 . S
C2148 C2147 1.366 . S
C2148 C2152 1.385 . S
C2149 H2124 0.951 . S
C2149 C2147 1.388 . S
C2149 C2150 1.366 . S
C2150 C2149 1.366 . S
C2150 C2151 1.414 . S
C2150 C2153 1.499 . S
C2151 H2125 0.950 . S
C2151 C2150 1.414 . S
C2151 C2152 1.374 . S
C2152 H2126 0.950 . S
C2152 C2148 1.385 . S
C2152 C2151 1.374 . S
C2153 C2150 1.499 . S
C2153 C2154 1.373 . S
C2153 C2155 1.389 . S
C2154 H2127 0.950 . S
C2154 C2140 1.377 . S
C2154 C2153 1.373 . S
C2155 C2139 1.377 . S
C2155 C2153 1.389 . S
C2155 C2156 1.524 . S
C2156 C2155 1.524 . S
C2156 C2157 1.397 . S
C2156 C2161 1.363 . S
C2157 H2128 0.950 . S
C2157 C2156 1.397 . S
C2157 C2158 1.334 . S
C2158 H2129 0.950 . S
C2158 C2157 1.334 . S
C2158 C2159 1.287 . S
C2159 C2158 1.287 . S
C2159 C2160 1.524 . S
C2159 H2162 0.999 . S
C2160 H2130 0.950 . S
C2160 C2159 1.524 . S
C2160 C2161 1.415 . S
C2161 H2131 0.950 . S
C2161 C2156 1.363 . S
C2161 C2160 1.415 . S
H2162 C2159 0.999 . S
H2163 C2144 0.913 . S
H2164 C2182 0.951 . S
H2165 C2184 0.951 . S
H2166 C2186 0.950 . S
H2167 C2187 0.950 . S
H2168 C2189 0.950 . S
H2169 C2192 0.950 . S
H2170 C2193 0.950 . S
H2171 C2195 0.950 . S
H2172 C2196 0.950 . S
H2173 C2197 0.951 . S
H2174 C2199 0.951 . S
H2175 C2201 0.950 . S
H2176 C2202 0.950 . S
H2177 C2204 0.950 . S
H2178 C2207 0.950 . S
H2179 C2208 0.950 . S
H2180 C2210 0.950 . S
H2181 C2211 0.950 . S
C2182 H2164 0.951 . S
C2182 C2183 1.366 . S
C2182 C2184 1.388 . S
C2183 C2182 1.366 . S
C2183 C2187 1.385 . S
C2184 H2165 0.951 . S
C2184 C2182 1.388 . S
C2184 C2185 1.366 . S
C2185 C2184 1.366 . S
C2185 C2186 1.414 . S
C2185 C2188 1.499 . S
C2186 H2166 0.950 . S
C2186 C2185 1.414 . S
C2186 C2187 1.374 . S
C2187 H2167 0.950 . S
C2187 C2183 1.385 . S
C2187 C2186 1.374 . S
C2188 C2185 1.499 . S
C2188 C2189 1.373 . S
C2188 C2190 1.389 . S
C2189 H2168 0.950 . S
C2189 C2188 1.373 . S
C2189 C2205 1.377 . S
C2190 C2188 1.389 . S
C2190 C2191 1.524 . S
C2190 C2204 1.377 . S
C2191 C2190 1.524 . S
C2191 C2192 1.397 . S
C2191 C2196 1.363 . S
C2192 H2169 0.950 . S
C2192 C2191 1.397 . S
C2192 C2193 1.334 . S
C2193 H2170 0.950 . S
C2193 C2192 1.334 . S
C2193 C2194 1.287 . S
C2194 C2193 1.287 . S
C2194 C2195 1.524 . S
C2194 H2213 0.913 . S
C2195 H2171 0.950 . S
C2195 C2194 1.524 . S
C2195 C2196 1.415 . S
C2196 H2172 0.950 . S
C2196 C2191 1.363 . S
C2196 C2195 1.415 . S
C2197 H2173 0.951 . S
C2197 C2198 1.366 . S
C2197 C2199 1.388 . S
C2198 C2197 1.366 . S
C2198 C2202 1.385 . S
C2199 H2174 0.951 . S
C2199 C2197 1.388 . S
C2199 C2200 1.366 . S
C2200 C2199 1.366 . S
C2200 C2201 1.414 . S
C2200 C2203 1.499 . S
C2201 H2175 0.950 . S
C2201 C2200 1.414 . S
C2201 C2202 1.374 . S
C2202 H2176 0.950 . S
C2202 C2198 1.385 . S
C2202 C2201 1.374 . S
C2203 C2200 1.499 . S
C2203 C2204 1.373 . S
C2203 C2205 1.389 . S
C2204 H2177 0.950 . S
C2204 C2190 1.377 . S
C2204 C2203 1.373 . S
C2205 C2189 1.377 . S
C2205 C2203 1.389 . S
C2205 C2206 1.524 . S
C2206 C2205 1.524 . S
C2206 C2207 1.397 . S
C2206 C2211 1.363 . S
C2207 H2178 0.950 . S
C2207 C2206 1.397 . S
C2207 C2208 1.334 . S
C2208 H2179 0.950 . S
C2208 C2207 1.334 . S
C2208 C2209 1.287 . S
C2209 C2208 1.287 . S
C2209 C2210 1.524 . S
C2209 H2212 0.999 . S
C2210 H2180 0.950 . S
C2210 C2209 1.524 . S
C2210 C2211 1.415 . S
C2211 H2181 0.950 . S
C2211 C2206 1.363 . S
C2211 C2210 1.415 . S
H2212 C2209 0.999 . S
H2213 C2194 0.913 . S
H2214 C2232 0.951 . S
H2215 C2234 0.951 . S
H2216 C2236 0.950 . S
H2217 C2237 0.950 . S
H2218 C2239 0.950 . S
H2219 C2242 0.950 . S
H2220 C2243 0.950 . S
H2221 C2245 0.950 . S
H2222 C2246 0.950 . S
H2223 C2247 0.951 . S
H2224 C2249 0.951 . S
H2225 C2251 0.950 . S
H2226 C2252 0.950 . S
H2227 C2254 0.950 . S
H2228 C2257 0.950 . S
H2229 C2258 0.950 . S
H2230 C2260 0.950 . S
H2231 C2261 0.950 . S
C2232 H2214 0.951 . S
C2232 C2233 1.366 . S
C2232 C2234 1.388 . S
C2233 C2232 1.366 . S
C2233 C2237 1.385 . S
C2234 H2215 0.951 . S
C2234 C2232 1.388 . S
C2234 C2235 1.366 . S
C2235 C2234 1.366 . S
C2235 C2236 1.414 . S
C2235 C2238 1.499 . S
C2236 H2216 0.950 . S
C2236 C2235 1.414 . S
C2236 C2237 1.374 . S
C2237 H2217 0.950 . S
C2237 C2233 1.385 . S
C2237 C2236 1.374 . S
C2238 C2235 1.499 . S
C2238 C2239 1.373 . S
C2238 C2240 1.389 . S
C2239 H2218 0.950 . S
C2239 C2238 1.373 . S
C2239 C2255 1.377 . S
C2240 C2238 1.389 . S
C2240 C2241 1.524 . S
C2240 C2254 1.377 . S
C2241 C2240 1.524 . S
C2241 C2242 1.397 . S
C2241 C2246 1.363 . S
C2242 H2219 0.950 . S
C2242 C2241 1.397 . S
C2242 C2243 1.334 . S
C2243 H2220 0.950 . S
C2243 C2242 1.334 . S
C2243 C2244 1.287 . S
C2244 C2243 1.287 . S
C2244 C2245 1.524 . S
C2244 H2263 0.913 . S
C2245 H2221 0.950 . S
C2245 C2244 1.524 . S
C2245 C2246 1.415 . S
C2246 H2222 0.950 . S
C2246 C2241 1.363 . S
C2246 C2245 1.415 . S
C2247 H2223 0.951 . S
C2247 C2248 1.366 . S
C2247 C2249 1.388 . S
C2248 C2247 1.366 . S
C2248 C2252 1.385 . S
C2249 H2224 0.951 . S
C2249 C2247 1.388 . S
C2249 C2250 1.366 . S
C2250 C2249 1.366 . S
C2250 C2251 1.414 . S
C2250 C2253 1.499 . S
C2251 H2225 0.950 . S
C2251 C2250 1.414 . S
C2251 C2252 1.374 . S
C2252 H2226 0.950 . S
C2252 C2248 1.385 . S
C2252 C2251 1.374 . S
C2253 C2250 1.499 . S
C2253 C2254 1.373 . S
C2253 C2255 1.389 . S
C2254 H2227 0.950 . S
C2254 C2240 1.377 . S
C2254 C2253 1.373 . S
C2255 C2239 1.377 . S
C2255 C2253 1.389 . S
C2255 C2256 1.524 . S
C2256 C2255 1.524 . S
C2256 C2257 1.397 . S
C2256 C2261 1.363 . S
C2257 H2228 0.950 . S
C2257 C2256 1.397 . S
C2257 C2258 1.334 . S
C2258 H2229 0.950 . S
C2258 C2257 1.334 . S
C2258 C2259 1.287 . S
C2259 C2258 1.287 . S
C2259 C2260 1.524 . S
C2259 H2262 0.999 . S
C2260 H2230 0.950 . S
C2260 C2259 1.524 . S
C2260 C2261 1.415 . S
C2261 H2231 0.950 . S
C2261 C2256 1.363 . S
C2261 C2260 1.415 . S
H2262 C2259 0.999 . S
H2263 C2244 0.913 . S
H2264 C2282 0.951 . S
H2265 C2284 0.951 . S
H2266 C2286 0.950 . S
H2267 C2287 0.950 . S
H2268 C2289 0.950 . S
H2269 C2292 0.950 . S
H2270 C2293 0.950 . S
H2271 C2295 0.950 . S
H2272 C2296 0.950 . S
H2273 C2297 0.951 . S
H2274 C2299 0.951 . S
H2275 C2301 0.950 . S
H2276 C2302 0.950 . S
H2277 C2304 0.950 . S
H2278 C2307 0.950 . S
H2279 C2308 0.950 . S
H2280 C2310 0.950 . S
H2281 C2311 0.950 . S
C2282 H2264 0.951 . S
C2282 C2283 1.366 . S
C2282 C2284 1.388 . S
C2283 C2282 1.366 . S
C2283 C2287 1.385 . S
C2284 H2265 0.951 . S
C2284 C2282 1.388 . S
C2284 C2285 1.366 . S
C2285 C2284 1.366 . S
C2285 C2286 1.414 . S
C2285 C2288 1.499 . S
C2286 H2266 0.950 . S
C2286 C2285 1.414 . S
C2286 C2287 1.374 . S
C2287 H2267 0.950 . S
C2287 C2283 1.385 . S
C2287 C2286 1.374 . S
C2288 C2285 1.499 . S
C2288 C2289 1.373 . S
C2288 C2290 1.389 . S
C2289 H2268 0.950 . S
C2289 C2288 1.373 . S
C2289 C2305 1.377 . S
C2290 C2288 1.389 . S
C2290 C2291 1.524 . S
C2290 C2304 1.377 . S
C2291 C2290 1.524 . S
C2291 C2292 1.397 . S
C2291 C2296 1.363 . S
C2292 H2269 0.950 . S
C2292 C2291 1.397 . S
C2292 C2293 1.334 . S
C2293 H2270 0.950 . S
C2293 C2292 1.334 . S
C2293 C2294 1.287 . S
C2294 C2293 1.287 . S
C2294 C2295 1.524 . S
C2294 H2313 0.913 . S
C2295 H2271 0.950 . S
C2295 C2294 1.524 . S
C2295 C2296 1.415 . S
C2296 H2272 0.950 . S
C2296 C2291 1.363 . S
C2296 C2295 1.415 . S
C2297 H2273 0.951 . S
C2297 C2298 1.366 . S
C2297 C2299 1.388 . S
C2298 C2297 1.366 . S
C2298 C2302 1.385 . S
C2299 H2274 0.951 . S
C2299 C2297 1.388 . S
C2299 C2300 1.366 . S
C2300 C2299 1.366 . S
C2300 C2301 1.414 . S
C2300 C2303 1.499 . S
C2301 H2275 0.950 . S
C2301 C2300 1.414 . S
C2301 C2302 1.374 . S
C2302 H2276 0.950 . S
C2302 C2298 1.385 . S
C2302 C2301 1.374 . S
C2303 C2300 1.499 . S
C2303 C2304 1.373 . S
C2303 C2305 1.389 . S
C2304 H2277 0.950 . S
C2304 C2290 1.377 . S
C2304 C2303 1.373 . S
C2305 C2289 1.377 . S
C2305 C2303 1.389 . S
C2305 C2306 1.524 . S
C2306 C2305 1.524 . S
C2306 C2307 1.397 . S
C2306 C2311 1.363 . S
C2307 H2278 0.950 . S
C2307 C2306 1.397 . S
C2307 C2308 1.334 . S
C2308 H2279 0.950 . S
C2308 C2307 1.334 . S
C2308 C2309 1.287 . S
C2309 C2308 1.287 . S
C2309 C2310 1.524 . S
C2309 H2312 0.999 . S
C2310 H2280 0.950 . S
C2310 C2309 1.524 . S
C2310 C2311 1.415 . S
C2311 H2281 0.950 . S
C2311 C2306 1.363 . S
C2311 C2310 1.415 . S
H2312 C2309 0.999 . S
H2313 C2294 0.913 . S
H2314 C2332 0.951 . S
H2315 C2334 0.951 . S
H2316 C2336 0.950 . S
H2317 C2337 0.950 . S
H2318 C2339 0.950 . S
H2319 C2342 0.950 . S
H2320 C2343 0.950 . S
H2321 C2345 0.950 . S
H2322 C2346 0.950 . S
H2323 C2347 0.951 . S
H2324 C2349 0.951 . S
H2325 C2351 0.950 . S
H2326 C2352 0.950 . S
H2327 C2354 0.950 . S
H2328 C2357 0.950 . S
H2329 C2358 0.950 . S
H2330 C2360 0.950 . S
H2331 C2361 0.950 . S
C2332 H2314 0.951 . S
C2332 C2333 1.366 . S
C2332 C2334 1.388 . S
C2333 C2332 1.366 . S
C2333 C2337 1.385 . S
C2334 H2315 0.951 . S
C2334 C2332 1.388 . S
C2334 C2335 1.366 . S
C2335 C2334 1.366 . S
C2335 C2336 1.414 . S
C2335 C2338 1.499 . S
C2336 H2316 0.950 . S
C2336 C2335 1.414 . S
C2336 C2337 1.374 . S
C2337 H2317 0.950 . S
C2337 C2333 1.385 . S
C2337 C2336 1.374 . S
C2338 C2335 1.499 . S
C2338 C2339 1.373 . S
C2338 C2340 1.389 . S
C2339 H2318 0.950 . S
C2339 C2338 1.373 . S
C2339 C2355 1.377 . S
C2340 C2338 1.389 . S
C2340 C2341 1.524 . S
C2340 C2354 1.377 . S
C2341 C2340 1.524 . S
C2341 C2342 1.397 . S
C2341 C2346 1.363 . S
C2342 H2319 0.950 . S
C2342 C2341 1.397 . S
C2342 C2343 1.334 . S
C2343 H2320 0.950 . S
C2343 C2342 1.334 . S
C2343 C2344 1.287 . S
C2344 C2343 1.287 . S
C2344 C2345 1.524 . S
C2344 H2363 0.913 . S
C2345 H2321 0.950 . S
C2345 C2344 1.524 . S
C2345 C2346 1.415 . S
C2346 H2322 0.950 . S
C2346 C2341 1.363 . S
C2346 C2345 1.415 . S
C2347 H2323 0.951 . S
C2347 C2348 1.366 . S
C2347 C2349 1.388 . S
C2348 C2347 1.366 . S
C2348 C2352 1.385 . S
C2349 H2324 0.951 . S
C2349 C2347 1.388 . S
C2349 C2350 1.366 . S
C2350 C2349 1.366 . S
C2350 C2351 1.414 . S
C2350 C2353 1.499 . S
C2351 H2325 0.950 . S
C2351 C2350 1.414 . S
C2351 C2352 1.374 . S
C2352 H2326 0.950 . S
C2352 C2348 1.385 . S
C2352 C2351 1.374 . S
C2353 C2350 1.499 . S
C2353 C2354 1.373 . S
C2353 C2355 1.389 . S
C2354 H2327 0.950 . S
C2354 C2340 1.377 . S
C2354 C2353 1.373 . S
C2355 C2339 1.377 . S
C2355 C2353 1.389 . S
C2355 C2356 1.524 . S
C2356 C2355 1.524 . S
C2356 C2357 1.397 . S
C2356 C2361 1.363 . S
C2357 H2328 0.950 . S
C2357 C2356 1.397 . S
C2357 C2358 1.334 . S
C2358 H2329 0.950 . S
C2358 C2357 1.334 . S
C2358 C2359 1.287 . S
C2359 C2358 1.287 . S
C2359 C2360 1.524 . S
C2359 H2362 0.999 . S
C2360 H2330 0.950 . S
C2360 C2359 1.524 . S
C2360 C2361 1.415 . S
C2361 H2331 0.950 . S
C2361 C2356 1.363 . S
C2361 C2360 1.415 . S
H2362 C2359 0.999 . S
H2363 C2344 0.913 . S
H2364 C2382 0.951 . S
H2365 C2384 0.951 . S
H2366 C2386 0.950 . S
H2367 C2387 0.950 . S
H2368 C2389 0.950 . S
H2369 C2392 0.950 . S
H2370 C2393 0.950 . S
H2371 C2395 0.950 . S
H2372 C2396 0.950 . S
H2373 C2397 0.951 . S
H2374 C2399 0.951 . S
H2375 C2401 0.950 . S
H2376 C2402 0.950 . S
H2377 C2404 0.950 . S
H2378 C2407 0.950 . S
H2379 C2408 0.950 . S
H2380 C2410 0.950 . S
H2381 C2411 0.950 . S
C2382 H2364 0.951 . S
C2382 C2383 1.366 . S
C2382 C2384 1.388 . S
C2383 C2382 1.366 . S
C2383 C2387 1.385 . S
C2384 H2365 0.951 . S
C2384 C2382 1.388 . S
C2384 C2385 1.366 . S
C2385 C2384 1.366 . S
C2385 C2386 1.414 . S
C2385 C2388 1.499 . S
C2386 H2366 0.950 . S
C2386 C2385 1.414 . S
C2386 C2387 1.374 . S
C2387 H2367 0.950 . S
C2387 C2383 1.385 . S
C2387 C2386 1.374 . S
C2388 C2385 1.499 . S
C2388 C2389 1.373 . S
C2388 C2390 1.389 . S
C2389 H2368 0.950 . S
C2389 C2388 1.373 . S
C2389 C2405 1.377 . S
C2390 C2388 1.389 . S
C2390 C2391 1.524 . S
C2390 C2404 1.377 . S
C2391 C2390 1.524 . S
C2391 C2392 1.397 . S
C2391 C2396 1.363 . S
C2392 H2369 0.950 . S
C2392 C2391 1.397 . S
C2392 C2393 1.334 . S
C2393 H2370 0.950 . S
C2393 C2392 1.334 . S
C2393 C2394 1.287 . S
C2394 C2393 1.287 . S
C2394 C2395 1.524 . S
C2394 H2413 0.913 . S
C2395 H2371 0.950 . S
C2395 C2394 1.524 . S
C2395 C2396 1.415 . S
C2396 H2372 0.950 . S
C2396 C2391 1.363 . S
C2396 C2395 1.415 . S
C2397 H2373 0.951 . S
C2397 C2398 1.366 . S
C2397 C2399 1.388 . S
C2398 C2397 1.366 . S
C2398 C2402 1.385 . S
C2399 H2374 0.951 . S
C2399 C2397 1.388 . S
C2399 C2400 1.366 . S
C2400 C2399 1.366 . S
C2400 C2401 1.414 . S
C2400 C2403 1.499 . S
C2401 H2375 0.950 . S
C2401 C2400 1.414 . S
C2401 C2402 1.374 . S
C2402 H2376 0.950 . S
C2402 C2398 1.385 . S
C2402 C2401 1.374 . S
C2403 C2400 1.499 . S
C2403 C2404 1.373 . S
C2403 C2405 1.389 . S
C2404 H2377 0.950 . S
C2404 C2390 1.377 . S
C2404 C2403 1.373 . S
C2405 C2389 1.377 . S
C2405 C2403 1.389 . S
C2405 C2406 1.524 . S
C2406 C2405 1.524 . S
C2406 C2407 1.397 . S
C2406 C2411 1.363 . S
C2407 H2378 0.950 . S
C2407 C2406 1.397 . S
C2407 C2408 1.334 . S
C2408 H2379 0.950 . S
C2408 C2407 1.334 . S
C2408 C2409 1.287 . S
C2409 C2408 1.287 . S
C2409 C2410 1.524 . S
C2409 H2412 0.999 . S
C2410 H2380 0.950 . S
C2410 C2409 1.524 . S
C2410 C2411 1.415 . S
C2411 H2381 0.950 . S
C2411 C2406 1.363 . S
C2411 C2410 1.415 . S
H2412 C2409 0.999 . S
H2413 C2394 0.913 . S
H2414 C2432 0.951 . S
H2415 C2434 0.951 . S
H2416 C2436 0.950 . S
H2417 C2437 0.950 . S
H2418 C2439 0.950 . S
H2419 C2442 0.950 . S
H2420 C2443 0.950 . S
H2421 C2445 0.950 . S
H2422 C2446 0.950 . S
H2423 C2447 0.951 . S
H2424 C2449 0.951 . S
H2425 C2451 0.950 . S
H2426 C2452 0.950 . S
H2427 C2454 0.950 . S
H2428 C2457 0.950 . S
H2429 C2458 0.950 . S
H2430 C2460 0.950 . S
H2431 C2461 0.950 . S
C2432 H2414 0.951 . S
C2432 C2433 1.366 . S
C2432 C2434 1.388 . S
C2433 C2432 1.366 . S
C2433 C2437 1.385 . S
C2434 H2415 0.951 . S
C2434 C2432 1.388 . S
C2434 C2435 1.366 . S
C2435 C2434 1.366 . S
C2435 C2436 1.414 . S
C2435 C2438 1.499 . S
C2436 H2416 0.950 . S
C2436 C2435 1.414 . S
C2436 C2437 1.374 . S
C2437 H2417 0.950 . S
C2437 C2433 1.385 . S
C2437 C2436 1.374 . S
C2438 C2435 1.499 . S
C2438 C2439 1.373 . S
C2438 C2440 1.389 . S
C2439 H2418 0.950 . S
C2439 C2438 1.373 . S
C2439 C2455 1.377 . S
C2440 C2438 1.389 . S
C2440 C2441 1.524 . S
C2440 C2454 1.377 . S
C2441 C2440 1.524 . S
C2441 C2442 1.397 . S
C2441 C2446 1.363 . S
C2442 H2419 0.950 . S
C2442 C2441 1.397 . S
C2442 C2443 1.334 . S
C2443 H2420 0.950 . S
C2443 C2442 1.334 . S
C2443 C2444 1.287 . S
C2444 C2443 1.287 . S
C2444 C2445 1.524 . S
C2444 H2463 0.913 . S
C2445 H2421 0.950 . S
C2445 C2444 1.524 . S
C2445 C2446 1.415 . S
C2446 H2422 0.950 . S
C2446 C2441 1.363 . S
C2446 C2445 1.415 . S
C2447 H2423 0.951 . S
C2447 C2448 1.366 . S
C2447 C2449 1.388 . S
C2448 C2447 1.366 . S
C2448 C2452 1.385 . S
C2449 H2424 0.951 . S
C2449 C2447 1.388 . S
C2449 C2450 1.366 . S
C2450 C2449 1.366 . S
C2450 C2451 1.414 . S
C2450 C2453 1.499 . S
C2451 H2425 0.950 . S
C2451 C2450 1.414 . S
C2451 C2452 1.374 . S
C2452 H2426 0.950 . S
C2452 C2448 1.385 . S
C2452 C2451 1.374 . S
C2453 C2450 1.499 . S
C2453 C2454 1.373 . S
C2453 C2455 1.389 . S
C2454 H2427 0.950 . S
C2454 C2440 1.377 . S
C2454 C2453 1.373 . S
C2455 C2439 1.377 . S
C2455 C2453 1.389 . S
C2455 C2456 1.524 . S
C2456 C2455 1.524 . S
C2456 C2457 1.397 . S
C2456 C2461 1.363 . S
C2457 H2428 0.950 . S
C2457 C2456 1.397 . S
C2457 C2458 1.334 . S
C2458 H2429 0.950 . S
C2458 C2457 1.334 . S
C2458 C2459 1.287 . S
C2459 C2458 1.287 . S
C2459 C2460 1.524 . S
C2459 H2462 0.999 . S
C2460 H2430 0.950 . S
C2460 C2459 1.524 . S
C2460 C2461 1.415 . S
C2461 H2431 0.950 . S
C2461 C2456 1.363 . S
C2461 C2460 1.415 . S
H2462 C2459 0.999 . S
H2463 C2444 0.913 . S
H2464 C2482 0.951 . S
H2465 C2484 0.951 . S
H2466 C2486 0.950 . S
H2467 C2487 0.950 . S
H2468 C2489 0.950 . S
H2469 C2492 0.950 . S
H2470 C2493 0.950 . S
H2471 C2495 0.950 . S
H2472 C2496 0.950 . S
H2473 C2497 0.951 . S
H2474 C2499 0.951 . S
H2475 C2501 0.950 . S
H2476 C2502 0.950 . S
H2477 C2504 0.950 . S
H2478 C2507 0.950 . S
H2479 C2508 0.950 . S
H2480 C2510 0.950 . S
H2481 C2511 0.950 . S
C2482 H2464 0.951 . S
C2482 C2483 1.366 . S
C2482 C2484 1.388 . S
C2483 C2482 1.366 . S
C2483 C2487 1.385 . S
C2484 H2465 0.951 . S
C2484 C2482 1.388 . S
C2484 C2485 1.366 . S
C2485 C2484 1.366 . S
C2485 C2486 1.414 . S
C2485 C2488 1.499 . S
C2486 H2466 0.950 . S
C2486 C2485 1.414 . S
C2486 C2487 1.374 . S
C2487 H2467 0.950 . S
C2487 C2483 1.385 . S
C2487 C2486 1.374 . S
C2488 C2485 1.499 . S
C2488 C2489 1.373 . S
C2488 C2490 1.389 . S
C2489 H2468 0.950 . S
C2489 C2488 1.373 . S
C2489 C2505 1.377 . S
C2490 C2488 1.389 . S
C2490 C2491 1.524 . S
C2490 C2504 1.377 . S
C2491 C2490 1.524 . S
C2491 C2492 1.397 . S
C2491 C2496 1.363 . S
C2492 H2469 0.950 . S
C2492 C2491 1.397 . S
C2492 C2493 1.334 . S
C2493 H2470 0.950 . S
C2493 C2492 1.334 . S
C2493 C2494 1.287 . S
C2494 C2493 1.287 . S
C2494 C2495 1.524 . S
C2494 H2513 0.913 . S
C2495 H2471 0.950 . S
C2495 C2494 1.524 . S
C2495 C2496 1.415 . S
C2496 H2472 0.950 . S
C2496 C2491 1.363 . S
C2496 C2495 1.415 . S
C2497 H2473 0.951 . S
C2497 C2498 1.366 . S
C2497 C2499 1.388 . S
C2498 C2497 1.366 . S
C2498 C2502 1.385 . S
C2499 H2474 0.951 . S
C2499 C2497 1.388 . S
C2499 C2500 1.366 . S
C2500 C2499 1.366 . S
C2500 C2501 1.414 . S
C2500 C2503 1.499 . S
C2501 H2475 0.950 . S
C2501 C2500 1.414 . S
C2501 C2502 1.374 . S
C2502 H2476 0.950 . S
C2502 C2498 1.385 . S
C2502 C2501 1.374 . S
C2503 C2500 1.499 . S
C2503 C2504 1.373 . S
C2503 C2505 1.389 . S
C2504 H2477 0.950 . S
C2504 C2490 1.377 . S
C2504 C2503 1.373 . S
C2505 C2489 1.377 . S
C2505 C2503 1.389 . S
C2505 C2506 1.524 . S
C2506 C2505 1.524 . S
C2506 C2507 1.397 . S
C2506 C2511 1.363 . S
C2507 H2478 0.950 . S
C2507 C2506 1.397 . S
C2507 C2508 1.334 . S
C2508 H2479 0.950 . S
C2508 C2507 1.334 . S
C2508 C2509 1.287 . S
C2509 C2508 1.287 . S
C2509 C2510 1.524 . S
C2509 H2512 0.999 . S
C2510 H2480 0.950 . S
C2510 C2509 1.524 . S
C2510 C2511 1.415 . S
C2511 H2481 0.950 . S
C2511 C2506 1.363 . S
C2511 C2510 1.415 . S
H2512 C2509 0.999 . S
H2513 C2494 0.913 . S
H2514 C2532 0.951 . S
H2515 C2534 0.951 . S
H2516 C2536 0.950 . S
H2517 C2537 0.950 . S
H2518 C2539 0.950 . S
H2519 C2542 0.950 . S
H2520 C2543 0.950 . S
H2521 C2545 0.950 . S
H2522 C2546 0.950 . S
H2523 C2547 0.951 . S
H2524 C2549 0.951 . S
H2525 C2551 0.950 . S
H2526 C2552 0.950 . S
H2527 C2554 0.950 . S
H2528 C2557 0.950 . S
H2529 C2558 0.950 . S
H2530 C2560 0.950 . S
H2531 C2561 0.950 . S
C2532 H2514 0.951 . S
C2532 C2533 1.366 . S
C2532 C2534 1.388 . S
C2533 C2532 1.366 . S
C2533 C2537 1.385 . S
C2534 H2515 0.951 . S
C2534 C2532 1.388 . S
C2534 C2535 1.366 . S
C2535 C2534 1.366 . S
C2535 C2536 1.414 . S
C2535 C2538 1.499 . S
C2536 H2516 0.950 . S
C2536 C2535 1.414 . S
C2536 C2537 1.374 . S
C2537 H2517 0.950 . S
C2537 C2533 1.385 . S
C2537 C2536 1.374 . S
C2538 C2535 1.499 . S
C2538 C2539 1.373 . S
C2538 C2540 1.389 . S
C2539 H2518 0.950 . S
C2539 C2538 1.373 . S
C2539 C2555 1.377 . S
C2540 C2538 1.389 . S
C2540 C2541 1.524 . S
C2540 C2554 1.377 . S
C2541 C2540 1.524 . S
C2541 C2542 1.397 . S
C2541 C2546 1.363 . S
C2542 H2519 0.950 . S
C2542 C2541 1.397 . S
C2542 C2543 1.334 . S
C2543 H2520 0.950 . S
C2543 C2542 1.334 . S
C2543 C2544 1.287 . S
C2544 C2543 1.287 . S
C2544 C2545 1.524 . S
C2544 H2563 0.913 . S
C2545 H2521 0.950 . S
C2545 C2544 1.524 . S
C2545 C2546 1.415 . S
C2546 H2522 0.950 . S
C2546 C2541 1.363 . S
C2546 C2545 1.415 . S
C2547 H2523 0.951 . S
C2547 C2548 1.366 . S
C2547 C2549 1.388 . S
C2548 C2547 1.366 . S
C2548 C2552 1.385 . S
C2549 H2524 0.951 . S
C2549 C2547 1.388 . S
C2549 C2550 1.366 . S
C2550 C2549 1.366 . S
C2550 C2551 1.414 . S
C2550 C2553 1.499 . S
C2551 H2525 0.950 . S
C2551 C2550 1.414 . S
C2551 C2552 1.374 . S
C2552 H2526 0.950 . S
C2552 C2548 1.385 . S
C2552 C2551 1.374 . S
C2553 C2550 1.499 . S
C2553 C2554 1.373 . S
C2553 C2555 1.389 . S
C2554 H2527 0.950 . S
C2554 C2540 1.377 . S
C2554 C2553 1.373 . S
C2555 C2539 1.377 . S
C2555 C2553 1.389 . S
C2555 C2556 1.524 . S
C2556 C2555 1.524 . S
C2556 C2557 1.397 . S
C2556 C2561 1.363 . S
C2557 H2528 0.950 . S
C2557 C2556 1.397 . S
C2557 C2558 1.334 . S
C2558 H2529 0.950 . S
C2558 C2557 1.334 . S
C2558 C2559 1.287 . S
C2559 C2558 1.287 . S
C2559 C2560 1.524 . S
C2559 H2562 0.999 . S
C2560 H2530 0.950 . S
C2560 C2559 1.524 . S
C2560 C2561 1.415 . S
C2561 H2531 0.950 . S
C2561 C2556 1.363 . S
C2561 C2560 1.415 . S
H2562 C2559 0.999 . S
H2563 C2544 0.913 . S
H2564 C2582 0.951 . S
H2565 C2584 0.951 . S
H2566 C2586 0.950 . S
H2567 C2587 0.950 . S
H2568 C2589 0.950 . S
H2569 C2592 0.950 . S
H2570 C2593 0.950 . S
H2571 C2595 0.950 . S
H2572 C2596 0.950 . S
H2573 C2597 0.951 . S
H2574 C2599 0.951 . S
H2575 C2601 0.950 . S
H2576 C2602 0.950 . S
H2577 C2604 0.950 . S
H2578 C2607 0.950 . S
H2579 C2608 0.950 . S
H2580 C2610 0.950 . S
H2581 C2611 0.950 . S
C2582 H2564 0.951 . S
C2582 C2583 1.366 . S
C2582 C2584 1.388 . S
C2583 C2582 1.366 . S
C2583 C2587 1.385 . S
C2584 H2565 0.951 . S
C2584 C2582 1.388 . S
C2584 C2585 1.366 . S
C2585 C2584 1.366 . S
C2585 C2586 1.414 . S
C2585 C2588 1.499 . S
C2586 H2566 0.950 . S
C2586 C2585 1.414 . S
C2586 C2587 1.374 . S
C2587 H2567 0.950 . S
C2587 C2583 1.385 . S
C2587 C2586 1.374 . S
C2588 C2585 1.499 . S
C2588 C2589 1.373 . S
C2588 C2590 1.389 . S
C2589 H2568 0.950 . S
C2589 C2588 1.373 . S
C2589 C2605 1.377 . S
C2590 C2588 1.389 . S
C2590 C2591 1.524 . S
C2590 C2604 1.377 . S
C2591 C2590 1.524 . S
C2591 C2592 1.397 . S
C2591 C2596 1.363 . S
C2592 H2569 0.950 . S
C2592 C2591 1.397 . S
C2592 C2593 1.334 . S
C2593 H2570 0.950 . S
C2593 C2592 1.334 . S
C2593 C2594 1.287 . S
C2594 C2593 1.287 . S
C2594 C2595 1.524 . S
C2594 H2613 0.913 . S
C2595 H2571 0.950 . S
C2595 C2594 1.524 . S
C2595 C2596 1.415 . S
C2596 H2572 0.950 . S
C2596 C2591 1.363 . S
C2596 C2595 1.415 . S
C2597 H2573 0.951 . S
C2597 C2598 1.366 . S
C2597 C2599 1.388 . S
C2598 C2597 1.366 . S
C2598 C2602 1.385 . S
C2599 H2574 0.951 . S
C2599 C2597 1.388 . S
C2599 C2600 1.366 . S
C2600 C2599 1.366 . S
C2600 C2601 1.414 . S
C2600 C2603 1.499 . S
C2601 H2575 0.950 . S
C2601 C2600 1.414 . S
C2601 C2602 1.374 . S
C2602 H2576 0.950 . S
C2602 C2598 1.385 . S
C2602 C2601 1.374 . S
C2603 C2600 1.499 . S
C2603 C2604 1.373 . S
C2603 C2605 1.389 . S
C2604 H2577 0.950 . S
C2604 C2590 1.377 . S
C2604 C2603 1.373 . S
C2605 C2589 1.377 . S
C2605 C2603 1.389 . S
C2605 C2606 1.524 . S
C2606 C2605 1.524 . S
C2606 C2607 1.397 . S
C2606 C2611 1.363 . S
C2607 H2578 0.950 . S
C2607 C2606 1.397 . S
C2607 C2608 1.334 . S
C2608 H2579 0.950 . S
C2608 C2607 1.334 . S
C2608 C2609 1.287 . S
C2609 C2608 1.287 . S
C2609 C2610 1.524 . S
C2609 H2612 0.999 . S
C2610 H2580 0.950 . S
C2610 C2609 1.524 . S
C2610 C2611 1.415 . S
C2611 H2581 0.950 . S
C2611 C2606 1.363 . S
C2611 C2610 1.415 . S
H2612 C2609 0.999 . S
H2613 C2594 0.913 . S
H2614 C2632 0.951 . S
H2615 C2634 0.951 . S
H2616 C2636 0.950 . S
H2617 C2637 0.950 . S
H2618 C2639 0.950 . S
H2619 C2642 0.950 . S
H2620 C2643 0.950 . S
H2621 C2645 0.950 . S
H2622 C2646 0.950 . S
H2623 C2647 0.951 . S
H2624 C2649 0.951 . S
H2625 C2651 0.950 . S
H2626 C2652 0.950 . S
H2627 C2654 0.950 . S
H2628 C2657 0.950 . S
H2629 C2658 0.950 . S
H2630 C2660 0.950 . S
H2631 C2661 0.950 . S
C2632 H2614 0.951 . S
C2632 C2633 1.366 . S
C2632 C2634 1.388 . S
C2633 C2632 1.366 . S
C2633 C2637 1.385 . S
C2634 H2615 0.951 . S
C2634 C2632 1.388 . S
C2634 C2635 1.366 . S
C2635 C2634 1.366 . S
C2635 C2636 1.414 . S
C2635 C2638 1.499 . S
C2636 H2616 0.950 . S
C2636 C2635 1.414 . S
C2636 C2637 1.374 . S
C2637 H2617 0.950 . S
C2637 C2633 1.385 . S
C2637 C2636 1.374 . S
C2638 C2635 1.499 . S
C2638 C2639 1.373 . S
C2638 C2640 1.389 . S
C2639 H2618 0.950 . S
C2639 C2638 1.373 . S
C2639 C2655 1.377 . S
C2640 C2638 1.389 . S
C2640 C2641 1.524 . S
C2640 C2654 1.377 . S
C2641 C2640 1.524 . S
C2641 C2642 1.397 . S
C2641 C2646 1.363 . S
C2642 H2619 0.950 . S
C2642 C2641 1.397 . S
C2642 C2643 1.334 . S
C2643 H2620 0.950 . S
C2643 C2642 1.334 . S
C2643 C2644 1.287 . S
C2644 C2643 1.287 . S
C2644 C2645 1.524 . S
C2644 H2663 0.913 . S
C2645 H2621 0.950 . S
C2645 C2644 1.524 . S
C2645 C2646 1.415 . S
C2646 H2622 0.950 . S
C2646 C2641 1.363 . S
C2646 C2645 1.415 . S
C2647 H2623 0.951 . S
C2647 C2648 1.366 . S
C2647 C2649 1.388 . S
C2648 C2647 1.366 . S
C2648 C2652 1.385 . S
C2649 H2624 0.951 . S
C2649 C2647 1.388 . S
C2649 C2650 1.366 . S
C2650 C2649 1.366 . S
C2650 C2651 1.414 . S
C2650 C2653 1.499 . S
C2651 H2625 0.950 . S
C2651 C2650 1.414 . S
C2651 C2652 1.374 . S
C2652 H2626 0.950 . S
C2652 C2648 1.385 . S
C2652 C2651 1.374 . S
C2653 C2650 1.499 . S
C2653 C2654 1.373 . S
C2653 C2655 1.389 . S
C2654 H2627 0.950 . S
C2654 C2640 1.377 . S
C2654 C2653 1.373 . S
C2655 C2639 1.377 . S
C2655 C2653 1.389 . S
C2655 C2656 1.524 . S
C2656 C2655 1.524 . S
C2656 C2657 1.397 . S
C2656 C2661 1.363 . S
C2657 H2628 0.950 . S
C2657 C2656 1.397 . S
C2657 C2658 1.334 . S
C2658 H2629 0.950 . S
C2658 C2657 1.334 . S
C2658 C2659 1.287 . S
C2659 C2658 1.287 . S
C2659 C2660 1.524 . S
C2659 H2662 0.999 . S
C2660 H2630 0.950 . S
C2660 C2659 1.524 . S
C2660 C2661 1.415 . S
C2661 H2631 0.950 . S
C2661 C2656 1.363 . S
C2661 C2660 1.415 . S
H2662 C2659 0.999 . S
H2663 C2644 0.913 . S
H2664 C2682 0.951 . S
H2665 C2684 0.951 . S
H2666 C2686 0.950 . S
H2667 C2687 0.950 . S
H2668 C2689 0.950 . S
H2669 C2692 0.950 . S
H2670 C2693 0.950 . S
H2671 C2695 0.950 . S
H2672 C2696 0.950 . S
H2673 C2697 0.951 . S
H2674 C2699 0.951 . S
H2675 C2701 0.950 . S
H2676 C2702 0.950 . S
H2677 C2704 0.950 . S
H2678 C2707 0.950 . S
H2679 C2708 0.950 . S
H2680 C2710 0.950 . S
H2681 C2711 0.950 . S
C2682 H2664 0.951 . S
C2682 C2683 1.366 . S
C2682 C2684 1.388 . S
C2683 C2682 1.366 . S
C2683 C2687 1.385 . S
C2684 H2665 0.951 . S
C2684 C2682 1.388 . S
C2684 C2685 1.366 . S
C2685 C2684 1.366 . S
C2685 C2686 1.414 . S
C2685 C2688 1.499 . S
C2686 H2666 0.950 . S
C2686 C2685 1.414 . S
C2686 C2687 1.374 . S
C2687 H2667 0.950 . S
C2687 C2683 1.385 . S
C2687 C2686 1.374 . S
C2688 C2685 1.499 . S
C2688 C2689 1.373 . S
C2688 C2690 1.389 . S
C2689 H2668 0.950 . S
C2689 C2688 1.373 . S
C2689 C2705 1.377 . S
C2690 C2688 1.389 . S
C2690 C2691 1.524 . S
C2690 C2704 1.377 . S
C2691 C2690 1.524 . S
C2691 C2692 1.397 . S
C2691 C2696 1.363 . S
C2692 H2669 0.950 . S
C2692 C2691 1.397 . S
C2692 C2693 1.334 . S
C2693 H2670 0.950 . S
C2693 C2692 1.334 . S
C2693 C2694 1.287 . S
C2694 C2693 1.287 . S
C2694 C2695 1.524 . S
C2694 H2713 0.913 . S
C2695 H2671 0.950 . S
C2695 C2694 1.524 . S
C2695 C2696 1.415 . S
C2696 H2672 0.950 . S
C2696 C2691 1.363 . S
C2696 C2695 1.415 . S
C2697 H2673 0.951 . S
C2697 C2698 1.366 . S
C2697 C2699 1.388 . S
C2698 C2697 1.366 . S
C2698 C2702 1.385 . S
C2699 H2674 0.951 . S
C2699 C2697 1.388 . S
C2699 C2700 1.366 . S
C2700 C2699 1.366 . S
C2700 C2701 1.414 . S
C2700 C2703 1.499 . S
C2701 H2675 0.950 . S
C2701 C2700 1.414 . S
C2701 C2702 1.374 . S
C2702 H2676 0.950 . S
C2702 C2698 1.385 . S
C2702 C2701 1.374 . S
C2703 C2700 1.499 . S
C2703 C2704 1.373 . S
C2703 C2705 1.389 . S
C2704 H2677 0.950 . S
C2704 C2690 1.377 . S
C2704 C2703 1.373 . S
C2705 C2689 1.377 . S
C2705 C2703 1.389 . S
C2705 C2706 1.524 . S
C2706 C2705 1.524 . S
C2706 C2707 1.397 . S
C2706 C2711 1.363 . S
C2707 H2678 0.950 . S
C2707 C2706 1.397 . S
C2707 C2708 1.334 . S
C2708 H2679 0.950 . S
C2708 C2707 1.334 . S
C2708 C2709 1.287 . S
C2709 C2708 1.287 . S
C2709 C2710 1.524 . S
C2709 H2712 0.999 . S
C2710 H2680 0.950 . S
C2710 C2709 1.524 . S
C2710 C2711 1.415 . S
C2711 H2681 0.950 . S
C2711 C2706 1.363 . S
C2711 C2710 1.415 . S
H2712 C2709 0.999 . S
H2713 C2694 0.913 . S
H2714 C2732 0.951 . S
H2715 C2734 0.951 . S
H2716 C2736 0.950 . S
H2717 C2737 0.950 . S
H2718 C2739 0.950 . S
H2719 C2742 0.950 . S
H2720 C2743 0.950 . S
H2721 C2745 0.950 . S
H2722 C2746 0.950 . S
H2723 C2747 0.951 . S
H2724 C2749 0.951 . S
H2725 C2751 0.950 . S
H2726 C2752 0.950 . S
H2727 C2754 0.950 . S
H2728 C2757 0.950 . S
H2729 C2758 0.950 . S
H2730 C2760 0.950 . S
H2731 C2761 0.950 . S
C2732 H2714 0.951 . S
C2732 C2733 1.366 . S
C2732 C2734 1.388 . S
C2733 C2732 1.366 . S
C2733 C2737 1.385 . S
C2734 H2715 0.951 . S
C2734 C2732 1.388 . S
C2734 C2735 1.366 . S
C2735 C2734 1.366 . S
C2735 C2736 1.414 . S
C2735 C2738 1.499 . S
C2736 H2716 0.950 . S
C2736 C2735 1.414 . S
C2736 C2737 1.374 . S
C2737 H2717 0.950 . S
C2737 C2733 1.385 . S
C2737 C2736 1.374 . S
C2738 C2735 1.499 . S
C2738 C2739 1.373 . S
C2738 C2740 1.389 . S
C2739 H2718 0.950 . S
C2739 C2738 1.373 . S
C2739 C2755 1.377 . S
C2740 C2738 1.389 . S
C2740 C2741 1.524 . S
C2740 C2754 1.377 . S
C2741 C2740 1.524 . S
C2741 C2742 1.397 . S
C2741 C2746 1.363 . S
C2742 H2719 0.950 . S
C2742 C2741 1.397 . S
C2742 C2743 1.334 . S
C2743 H2720 0.950 . S
C2743 C2742 1.334 . S
C2743 C2744 1.287 . S
C2744 C2743 1.287 . S
C2744 C2745 1.524 . S
C2744 H2763 0.913 . S
C2745 H2721 0.950 . S
C2745 C2744 1.524 . S
C2745 C2746 1.415 . S
C2746 H2722 0.950 . S
C2746 C2741 1.363 . S
C2746 C2745 1.415 . S
C2747 H2723 0.951 . S
C2747 C2748 1.366 . S
C2747 C2749 1.388 . S
C2748 C2747 1.366 . S
C2748 C2752 1.385 . S
C2749 H2724 0.951 . S
C2749 C2747 1.388 . S
C2749 C2750 1.366 . S
C2750 C2749 1.366 . S
C2750 C2751 1.414 . S
C2750 C2753 1.499 . S
C2751 H2725 0.950 . S
C2751 C2750 1.414 . S
C2751 C2752 1.374 . S
C2752 H2726 0.950 . S
C2752 C2748 1.385 . S
C2752 C2751 1.374 . S
C2753 C2750 1.499 . S
C2753 C2754 1.373 . S
C2753 C2755 1.389 . S
C2754 H2727 0.950 . S
C2754 C2740 1.377 . S
C2754 C2753 1.373 . S
C2755 C2739 1.377 . S
C2755 C2753 1.389 . S
C2755 C2756 1.524 . S
C2756 C2755 1.524 . S
C2756 C2757 1.397 . S
C2756 C2761 1.363 . S
C2757 H2728 0.950 . S
C2757 C2756 1.397 . S
C2757 C2758 1.334 . S
C2758 H2729 0.950 . S
C2758 C2757 1.334 . S
C2758 C2759 1.287 . S
C2759 C2758 1.287 . S
C2759 C2760 1.524 . S
C2759 H2762 0.999 . S
C2760 H2730 0.950 . S
C2760 C2759 1.524 . S
C2760 C2761 1.415 . S
C2761 H2731 0.950 . S
C2761 C2756 1.363 . S
C2761 C2760 1.415 . S
H2762 C2759 0.999 . S
H2763 C2744 0.913 . S
H2764 C2782 0.951 . S
H2765 C2784 0.951 . S
H2766 C2786 0.950 . S
H2767 C2787 0.950 . S
H2768 C2789 0.950 . S
H2769 C2792 0.950 . S
H2770 C2793 0.950 . S
H2771 C2795 0.950 . S
H2772 C2796 0.950 . S
H2773 C2797 0.951 . S
H2774 C2799 0.951 . S
H2775 C2801 0.950 . S
H2776 C2802 0.950 . S
H2777 C2804 0.950 . S
H2778 C2807 0.950 . S
H2779 C2808 0.950 . S
H2780 C2810 0.950 . S
H2781 C2811 0.950 . S
C2782 H2764 0.951 . S
C2782 C2783 1.366 . S
C2782 C2784 1.388 . S
C2783 C2782 1.366 . S
C2783 C2787 1.385 . S
C2784 H2765 0.951 . S
C2784 C2782 1.388 . S
C2784 C2785 1.366 . S
C2785 C2784 1.366 . S
C2785 C2786 1.414 . S
C2785 C2788 1.499 . S
C2786 H2766 0.950 . S
C2786 C2785 1.414 . S
C2786 C2787 1.374 . S
C2787 H2767 0.950 . S
C2787 C2783 1.385 . S
C2787 C2786 1.374 . S
C2788 C2785 1.499 . S
C2788 C2789 1.373 . S
C2788 C2790 1.389 . S
C2789 H2768 0.950 . S
C2789 C2788 1.373 . S
C2789 C2805 1.377 . S
C2790 C2788 1.389 . S
C2790 C2791 1.524 . S
C2790 C2804 1.377 . S
C2791 C2790 1.524 . S
C2791 C2792 1.397 . S
C2791 C2796 1.363 . S
C2792 H2769 0.950 . S
C2792 C2791 1.397 . S
C2792 C2793 1.334 . S
C2793 H2770 0.950 . S
C2793 C2792 1.334 . S
C2793 C2794 1.287 . S
C2794 C2793 1.287 . S
C2794 C2795 1.524 . S
C2794 H2813 0.913 . S
C2795 H2771 0.950 . S
C2795 C2794 1.524 . S
C2795 C2796 1.415 . S
C2796 H2772 0.950 . S
C2796 C2791 1.363 . S
C2796 C2795 1.415 . S
C2797 H2773 0.951 . S
C2797 C2798 1.366 . S
C2797 C2799 1.388 . S
C2798 C2797 1.366 . S
C2798 C2802 1.385 . S
C2799 H2774 0.951 . S
C2799 C2797 1.388 . S
C2799 C2800 1.366 . S
C2800 C2799 1.366 . S
C2800 C2801 1.414 . S
C2800 C2803 1.499 . S
C2801 H2775 0.950 . S
C2801 C2800 1.414 . S
C2801 C2802 1.374 . S
C2802 H2776 0.950 . S
C2802 C2798 1.385 . S
C2802 C2801 1.374 . S
C2803 C2800 1.499 . S
C2803 C2804 1.373 . S
C2803 C2805 1.389 . S
C2804 H2777 0.950 . S
C2804 C2790 1.377 . S
C2804 C2803 1.373 . S
C2805 C2789 1.377 . S
C2805 C2803 1.389 . S
C2805 C2806 1.524 . S
C2806 C2805 1.524 . S
C2806 C2807 1.397 . S
C2806 C2811 1.363 . S
C2807 H2778 0.950 . S
C2807 C2806 1.397 . S
C2807 C2808 1.334 . S
C2808 H2779 0.950 . S
C2808 C2807 1.334 . S
C2808 C2809 1.287 . S
C2809 C2808 1.287 . S
C2809 C2810 1.524 . S
C2809 H2812 0.999 . S
C2810 H2780 0.950 . S
C2810 C2809 1.524 . S
C2810 C2811 1.415 . S
C2811 H2781 0.950 . S
C2811 C2806 1.363 . S
C2811 C2810 1.415 . S
H2812 C2809 0.999 . S
H2813 C2794 0.913 . S
H2814 C2832 0.951 . S
H2815 C2834 0.951 . S
H2816 C2836 0.950 . S
H2817 C2837 0.950 . S
H2818 C2839 0.950 . S
H2819 C2842 0.950 . S
H2820 C2843 0.950 . S
H2821 C2845 0.950 . S
H2822 C2846 0.950 . S
H2823 C2847 0.951 . S
H2824 C2849 0.951 . S
H2825 C2851 0.950 . S
H2826 C2852 0.950 . S
H2827 C2854 0.950 . S
H2828 C2857 0.950 . S
H2829 C2858 0.950 . S
H2830 C2860 0.950 . S
H2831 C2861 0.950 . S
C2832 H2814 0.951 . S
C2832 C2833 1.366 . S
C2832 C2834 1.388 . S
C2833 C2832 1.366 . S
C2833 C2837 1.385 . S
C2834 H2815 0.951 . S
C2834 C2832 1.388 . S
C2834 C2835 1.366 . S
C2835 C2834 1.366 . S
C2835 C2836 1.414 . S
C2835 C2838 1.499 . S
C2836 H2816 0.950 . S
C2836 C2835 1.414 . S
C2836 C2837 1.374 . S
C2837 H2817 0.950 . S
C2837 C2833 1.385 . S
C2837 C2836 1.374 . S
C2838 C2835 1.499 . S
C2838 C2839 1.373 . S
C2838 C2840 1.389 . S
C2839 H2818 0.950 . S
C2839 C2838 1.373 . S
C2839 C2855 1.377 . S
C2840 C2838 1.389 . S
C2840 C2841 1.524 . S
C2840 C2854 1.377 . S
C2841 C2840 1.524 . S
C2841 C2842 1.397 . S
C2841 C2846 1.363 . S
C2842 H2819 0.950 . S
C2842 C2841 1.397 . S
C2842 C2843 1.334 . S
C2843 H2820 0.950 . S
C2843 C2842 1.334 . S
C2843 C2844 1.287 . S
C2844 C2843 1.287 . S
C2844 C2845 1.524 . S
C2844 H2863 0.913 . S
C2845 H2821 0.950 . S
C2845 C2844 1.524 . S
C2845 C2846 1.415 . S
C2846 H2822 0.950 . S
C2846 C2841 1.363 . S
C2846 C2845 1.415 . S
C2847 H2823 0.951 . S
C2847 C2848 1.366 . S
C2847 C2849 1.388 . S
C2848 C2847 1.366 . S
C2848 C2852 1.385 . S
C2849 H2824 0.951 . S
C2849 C2847 1.388 . S
C2849 C2850 1.366 . S
C2850 C2849 1.366 . S
C2850 C2851 1.414 . S
C2850 C2853 1.499 . S
C2851 H2825 0.950 . S
C2851 C2850 1.414 . S
C2851 C2852 1.374 . S
C2852 H2826 0.950 . S
C2852 C2848 1.385 . S
C2852 C2851 1.374 . S
C2853 C2850 1.499 . S
C2853 C2854 1.373 . S
C2853 C2855 1.389 . S
C2854 H2827 0.950 . S
C2854 C2840 1.377 . S
C2854 C2853 1.373 . S
C2855 C2839 1.377 . S
C2855 C2853 1.389 . S
C2855 C2856 1.524 . S
C2856 C2855 1.524 . S
C2856 C2857 1.397 . S
C2856 C2861 1.363 . S
C2857 H2828 0.950 . S
C2857 C2856 1.397 . S
C2857 C2858 1.334 . S
C2858 H2829 0.950 . S
C2858 C2857 1.334 . S
C2858 C2859 1.287 . S
C2859 C2858 1.287 . S
C2859 C2860 1.524 . S
C2859 H2862 0.999 . S
C2860 H2830 0.950 . S
C2860 C2859 1.524 . S
C2860 C2861 1.415 . S
C2861 H2831 0.950 . S
C2861 C2856 1.363 . S
C2861 C2860 1.415 . S
H2862 C2859 0.999 . S
H2863 C2844 0.913 . S
H2864 C2882 0.951 . S
H2865 C2884 0.951 . S
H2866 C2886 0.950 . S
H2867 C2887 0.950 . S
H2868 C2889 0.950 . S
H2869 C2892 0.950 . S
H2870 C2893 0.950 . S
H2871 C2895 0.950 . S
H2872 C2896 0.950 . S
H2873 C2897 0.951 . S
H2874 C2899 0.951 . S
H2875 C2901 0.950 . S
H2876 C2902 0.950 . S
H2877 C2904 0.950 . S
H2878 C2907 0.950 . S
H2879 C2908 0.950 . S
H2880 C2910 0.950 . S
H2881 C2911 0.950 . S
C2882 H2864 0.951 . S
C2882 C2883 1.366 . S
C2882 C2884 1.388 . S
C2883 C2882 1.366 . S
C2883 C2887 1.385 . S
C2884 H2865 0.951 . S
C2884 C2882 1.388 . S
C2884 C2885 1.366 . S
C2885 C2884 1.366 . S
C2885 C2886 1.414 . S
C2885 C2888 1.499 . S
C2886 H2866 0.950 . S
C2886 C2885 1.414 . S
C2886 C2887 1.374 . S
C2887 H2867 0.950 . S
C2887 C2883 1.385 . S
C2887 C2886 1.374 . S
C2888 C2885 1.499 . S
C2888 C2889 1.373 . S
C2888 C2890 1.389 . S
C2889 H2868 0.950 . S
C2889 C2888 1.373 . S
C2889 C2905 1.377 . S
C2890 C2888 1.389 . S
C2890 C2891 1.524 . S
C2890 C2904 1.377 . S
C2891 C2890 1.524 . S
C2891 C2892 1.397 . S
C2891 C2896 1.363 . S
C2892 H2869 0.950 . S
C2892 C2891 1.397 . S
C2892 C2893 1.334 . S
C2893 H2870 0.950 . S
C2893 C2892 1.334 . S
C2893 C2894 1.287 . S
C2894 C2893 1.287 . S
C2894 C2895 1.524 . S
C2894 H2913 0.913 . S
C2895 H2871 0.950 . S
C2895 C2894 1.524 . S
C2895 C2896 1.415 . S
C2896 H2872 0.950 . S
C2896 C2891 1.363 . S
C2896 C2895 1.415 . S
C2897 H2873 0.951 . S
C2897 C2898 1.366 . S
C2897 C2899 1.388 . S
C2898 C2897 1.366 . S
C2898 C2902 1.385 . S
C2899 H2874 0.951 . S
C2899 C2897 1.388 . S
C2899 C2900 1.366 . S
C2900 C2899 1.366 . S
C2900 C2901 1.414 . S
C2900 C2903 1.499 . S
C2901 H2875 0.950 . S
C2901 C2900 1.414 . S
C2901 C2902 1.374 . S
C2902 H2876 0.950 . S
C2902 C2898 1.385 . S
C2902 C2901 1.374 . S
C2903 C2900 1.499 . S
C2903 C2904 1.373 . S
C2903 C2905 1.389 . S
C2904 H2877 0.950 . S
C2904 C2890 1.377 . S
C2904 C2903 1.373 . S
C2905 C2889 1.377 . S
C2905 C2903 1.389 . S
C2905 C2906 1.524 . S
C2906 C2905 1.524 . S
C2906 C2907 1.397 . S
C2906 C2911 1.363 . S
C2907 H2878 0.950 . S
C2907 C2906 1.397 . S
C2907 C2908 1.334 . S
C2908 H2879 0.950 . S
C2908 C2907 1.334 . S
C2908 C2909 1.287 . S
C2909 C2908 1.287 . S
C2909 C2910 1.524 . S
C2909 H2912 0.999 . S
C2910 H2880 0.950 . S
C2910 C2909 1.524 . S
C2910 C2911 1.415 . S
C2911 H2881 0.950 . S
C2911 C2906 1.363 . S
C2911 C2910 1.415 . S
H2912 C2909 0.999 . S
H2913 C2894 0.913 . S
H2914 C2932 0.951 . S
H2915 C2934 0.951 . S
H2916 C2936 0.950 . S
H2917 C2937 0.950 . S
H2918 C2939 0.950 . S
H2919 C2942 0.950 . S
H2920 C2943 0.950 . S
H2921 C2945 0.950 . S
H2922 C2946 0.950 . S
H2923 C2947 0.951 . S
H2924 C2949 0.951 . S
H2925 C2951 0.950 . S
H2926 C2952 0.950 . S
H2927 C2954 0.950 . S
H2928 C2957 0.950 . S
H2929 C2958 0.950 . S
H2930 C2960 0.950 . S
H2931 C2961 0.950 . S
C2932 H2914 0.951 . S
C2932 C2933 1.366 . S
C2932 C2934 1.388 . S
C2933 C2932 1.366 . S
C2933 C2937 1.385 . S
C2934 H2915 0.951 . S
C2934 C2932 1.388 . S
C2934 C2935 1.366 . S
C2935 C2934 1.366 . S
C2935 C2936 1.414 . S
C2935 C2938 1.499 . S
C2936 H2916 0.950 . S
C2936 C2935 1.414 . S
C2936 C2937 1.374 . S
C2937 H2917 0.950 . S
C2937 C2933 1.385 . S
C2937 C2936 1.374 . S
C2938 C2935 1.499 . S
C2938 C2939 1.373 . S
C2938 C2940 1.389 . S
C2939 H2918 0.950 . S
C2939 C2938 1.373 . S
C2939 C2955 1.377 . S
C2940 C2938 1.389 . S
C2940 C2941 1.524 . S
C2940 C2954 1.377 . S
C2941 C2940 1.524 . S
C2941 C2942 1.397 . S
C2941 C2946 1.363 . S
C2942 H2919 0.950 . S
C2942 C2941 1.397 . S
C2942 C2943 1.334 . S
C2943 H2920 0.950 . S
C2943 C2942 1.334 . S
C2943 C2944 1.287 . S
C2944 C2943 1.287 . S
C2944 C2945 1.524 . S
C2944 H2963 0.913 . S
C2945 H2921 0.950 . S
C2945 C2944 1.524 . S
C2945 C2946 1.415 . S
C2946 H2922 0.950 . S
C2946 C2941 1.363 . S
C2946 C2945 1.415 . S
C2947 H2923 0.951 . S
C2947 C2948 1.366 . S
C2947 C2949 1.388 . S
C2948 C2947 1.366 . S
C2948 C2952 1.385 . S
C2949 H2924 0.951 . S
C2949 C2947 1.388 . S
C2949 C2950 1.366 . S
C2950 C2949 1.366 . S
C2950 C2951 1.414 . S
C2950 C2953 1.499 . S
C2951 H2925 0.950 . S
C2951 C2950 1.414 . S
C2951 C2952 1.374 . S
C2952 H2926 0.950 . S
C2952 C2948 1.385 . S
C2952 C2951 1.374 . S
C2953 C2950 1.499 . S
C2953 C2954 1.373 . S
C2953 C2955 1.389 . S
C2954 H2927 0.950 . S
C2954 C2940 1.377 . S
C2954 C2953 1.373 . S
C2955 C2939 1.377 . S
C2955 C2953 1.389 . S
C2955 C2956 1.524 . S
C2956 C2955 1.524 . S
C2956 C2957 1.397 . S
C2956 C2961 1.363 . S
C2957 H2928 0.950 . S
C2957 C2956 1.397 . S
C2957 C2958 1.334 . S
C2958 H2929 0.950 . S
C2958 C2957 1.334 . S
C2958 C2959 1.287 . S
C2959 C2958 1.287 . S
C2959 C2960 1.524 . S
C2959 H2962 0.999 . S
C2960 H2930 0.950 . S
C2960 C2959 1.524 . S
C2960 C2961 1.415 . S
C2961 H2931 0.950 . S
C2961 C2956 1.363 . S
C2961 C2960 1.415 . S
H2962 C2959 0.999 . S
H2963 C2944 0.913 . S
C598 C275 0.544 . S
C583 N6 0.603 . S
C648 C253 2.142 . S
C633 C57 2.219 . S
C698 C250 0.494 . S
C683 C61 0.483 . S
C733 N96 0.792 . S
C748 C262 0.791 . S
C783 C136 2.218 . S
C798 C245 2.138 . S
C848 C267 0.492 . S
C833 C160 0.482 . S
C883 N194 0.795 . S
C898 C272 0.796 . S
C933 N224 0.603 . S
C948 C268 0.544 . S
C998 C326 2.104 . S
C983 C10 2.167 . S
C1033 N36 0.697 . S
C1048 C376 0.674 . S
C1098 C299 0.828 . S
C1083 N74 0.823 . S
C1148 C375 0.521 . S
C1133 C100 0.523 . S
C1183 C121 0.534 . S
C1198 C304 0.530 . S
C1248 C370 2.068 . S
C1233 C177 2.125 . S
C1283 C196 1.940 . S
C1298 C329 1.950 . S
C1333 C226 2.221 . S
C1348 C361 2.176 . S
C1383 C27 2.228 . S
C1398 C353 2.182 . S
C1433 N134 0.704 . S
C1448 C383 0.683 . S
C1498 C307 0.843 . S
C1483 N156 0.838 . S
C1548 C358 0.534 . S
C1533 C181 0.538 . S
C1583 C211 2.174 . S
C1598 C316 2.108 . S
C1633 C76 2.139 . S
C1648 C380 2.085 . S
C1698 C322 1.959 . S
C1683 C117 1.949 . S
C1733 C40 0.547 . S
C1748 C321 0.544 . S
C1783 N216 0.600 . S
C1798 C437 0.544 . S
C1833 C147 2.219 . S
C1848 C415 2.143 . S
C1898 C412 0.494 . S
C1883 C151 0.483 . S
C1948 C424 0.794 . S
C1933 N186 0.793 . S
C1983 C46 2.217 . S
C1998 C407 2.138 . S
C2048 C429 0.493 . S
C2033 C70 0.482 . S
C2083 N104 0.795 . S
C2098 C434 0.794 . S
C2133 N14 0.602 . S
C2148 C430 0.544 . S
C2183 C220 2.167 . S
C2198 C488 2.104 . S
C2248 C538 0.672 . S
C2233 N126 0.694 . S
C2283 N164 0.825 . S
C2298 C461 0.829 . S
C2333 C190 0.523 . S
C2348 C537 0.521 . S
C2398 C466 0.531 . S
C2383 C31 0.533 . S
C2433 C87 2.125 . S
C2448 C532 2.068 . S
C2498 C491 1.951 . S
C2483 C106 1.940 . S
C2548 C523 2.176 . S
C2533 C16 2.222 . S
C2598 C515 2.181 . S
C2583 C237 2.229 . S
C2633 N44 0.704 . S
C2648 C545 0.683 . S
C2683 N66 0.837 . S
C2698 C469 0.843 . S
C2748 C520 0.535 . S
C2733 C91 0.537 . S
C2783 C1 2.174 . S
C2798 C478 2.109 . S
C2833 C166 2.139 . S
C2848 C542 2.086 . S
C2898 C484 1.959 . S
C2883 C207 1.948 . S
C2948 C483 0.544 . S
C2933 C130 0.547 . S
