# Generated by pormake.
# Topology apo, (3,6)-cn, num edge types: 1
# Building blocks:
#     Node 0, Type 0, BuildingBlock: WUSLED_clean_sbu_0, # of connection points: 3
#     Node 1, Type 0, BuildingBlock: WUSLED_clean_sbu_0, # of connection points: 3
#     Node 2, Type 0, BuildingBlock: WUSLED_clean_sbu_0, # of connection points: 3
#     Node 3, Type 0, BuildingBlock: WUSLED_clean_sbu_0, # of connection points: 3
#     Node 4, Type 0, BuildingBlock: WUSLED_clean_sbu_0, # of connection points: 3
#     Node 5, Type 0, BuildingBlock: WUSLED_clean_sbu_0, # of connection points: 3
#     Node 6, Type 0, BuildingBlock: WUSLED_clean_sbu_0, # of connection points: 3
#     Node 7, Type 0, BuildingBlock: WUSLED_clean_sbu_0, # of connection points: 3
#     Node 8, Type 1, BuildingBlock: KUMBOL_clean_sbu_1, # of connection points: 6
#     Node 9, Type 1, BuildingBlock: KUMBOL_clean_sbu_1, # of connection points: 6
#     Node 10, Type 1, BuildingBlock: KUMBOL_clean_sbu_1, # of connection points: 6
#     Node 11, Type 1, BuildingBlock: KUMBOL_clean_sbu_1, # of connection points: 6
#     Edge 12, Type (0, 1), BuildingBlock: KIFKEQ_clean_linker_1, # of connection points: 2
#     Edge 13, Type (0, 1), BuildingBlock: KIFKEQ_clean_linker_1, # of connection points: 2
#     Edge 14, Type (0, 1), BuildingBlock: KIFKEQ_clean_linker_1, # of connection points: 2
#     Edge 15, Type (0, 1), BuildingBlock: KIFKEQ_clean_linker_1, # of connection points: 2
#     Edge 16, Type (0, 1), BuildingBlock: KIFKEQ_clean_linker_1, # of connection points: 2
#     Edge 17, Type (0, 1), BuildingBlock: KIFKEQ_clean_linker_1, # of connection points: 2
#     Edge 18, Type (0, 1), BuildingBlock: KIFKEQ_clean_linker_1, # of connection points: 2
#     Edge 19, Type (0, 1), BuildingBlock: KIFKEQ_clean_linker_1, # of connection points: 2
#     Edge 20, Type (0, 1), BuildingBlock: KIFKEQ_clean_linker_1, # of connection points: 2
#     Edge 21, Type (0, 1), BuildingBlock: KIFKEQ_clean_linker_1, # of connection points: 2
#     Edge 22, Type (0, 1), BuildingBlock: KIFKEQ_clean_linker_1, # of connection points: 2
#     Edge 23, Type (0, 1), BuildingBlock: KIFKEQ_clean_linker_1, # of connection points: 2
#     Edge 24, Type (0, 1), BuildingBlock: KIFKEQ_clean_linker_1, # of connection points: 2
#     Edge 25, Type (0, 1), BuildingBlock: KIFKEQ_clean_linker_1, # of connection points: 2
#     Edge 26, Type (0, 1), BuildingBlock: KIFKEQ_clean_linker_1, # of connection points: 2
#     Edge 27, Type (0, 1), BuildingBlock: KIFKEQ_clean_linker_1, # of connection points: 2
#     Edge 28, Type (0, 1), BuildingBlock: KIFKEQ_clean_linker_1, # of connection points: 2
#     Edge 29, Type (0, 1), BuildingBlock: KIFKEQ_clean_linker_1, # of connection points: 2
#     Edge 30, Type (0, 1), BuildingBlock: KIFKEQ_clean_linker_1, # of connection points: 2
#     Edge 31, Type (0, 1), BuildingBlock: KIFKEQ_clean_linker_1, # of connection points: 2
#     Edge 32, Type (0, 1), BuildingBlock: KIFKEQ_clean_linker_1, # of connection points: 2
#     Edge 33, Type (0, 1), BuildingBlock: KIFKEQ_clean_linker_1, # of connection points: 2
#     Edge 34, Type (0, 1), BuildingBlock: KIFKEQ_clean_linker_1, # of connection points: 2
#     Edge 35, Type (0, 1), BuildingBlock: KIFKEQ_clean_linker_1, # of connection points: 2
# Relax obj value: 0.010
# Max RMSD: 0.098
# Mean RMSD: 0.075
data_MOF--net-apo--node1-WUSLED_clean_sbu_0--node2-KUMBOL_clean_sbu_1--edge1-KIFKEQ_clean_linker_1
_symmetry_space_group_name_H-M    P1
_symmetry_Int_Tables_number       1
_symmetry_cell_setting            triclinic
loop_
_symmetry_equiv_pos_as_xyz
'x, y, z'
_cell_length_a     32.094555
_cell_length_b     56.365957
_cell_length_c     68.128701
_cell_angle_alpha  90.36009
_cell_angle_beta   89.936247
_cell_angle_gamma 90.362882
loop_
_atom_site_label
_atom_site_type_symbol
_atom_site_fract_x
_atom_site_fract_y
_atom_site_fract_z
_atom_type_partial_charge
C0 C 0.32455 0.43175 0.37208 0.0
C1 C 0.33306 0.45288 0.38242 0.0
C2 C 0.35812 0.47183 0.35224 0.0
C3 C 0.34966 0.47274 0.37258 0.0
C4 C 0.34933 0.45054 0.34209 0.0
C5 C 0.33289 0.43084 0.35188 0.0
U6 U 0.29757 0.38655 0.41433 0.0
O7 O 0.23863 0.3666 0.41771 0.0
O8 O 0.29639 0.34755 0.41138 0.0
C9 C 0.25579 0.34604 0.41357 0.0
C10 C 0.30561 0.4105 0.38136 0.0
C11 C 0.23337 0.33037 0.39945 0.0
C12 C 0.2004 0.3225 0.36775 0.0
C13 C 0.22144 0.33803 0.38069 0.0
C14 C 0.20301 0.29155 0.39213 0.0
C15 C 0.19107 0.29894 0.37325 0.0
C16 C 0.22384 0.30704 0.40501 0.0
C17 C 0.33966 0.39619 0.46828 0.0
C18 C 0.31537 0.39119 0.50211 0.0
C19 C 0.38922 0.3928 0.49534 0.0
C20 C 0.3808 0.39544 0.47528 0.0
C21 C 0.35672 0.39084 0.50918 0.0
C22 C 0.30695 0.39387 0.48195 0.0
C23 C 0.33244 0.40198 0.44718 0.0
O24 O 0.33109 0.39355 0.38664 0.0
O25 O 0.27493 0.41379 0.39388 0.0
O26 O 0.29455 0.40772 0.44167 0.0
O27 O 0.35209 0.38906 0.43402 0.0
H28 H 0.32682 0.45406 0.39802 0.0
H29 H 0.3563 0.4887 0.38096 0.0
H30 H 0.3545 0.44915 0.32642 0.0
H31 H 0.32622 0.41483 0.34354 0.0
H32 H 0.19211 0.32882 0.35331 0.0
H33 H 0.22855 0.35595 0.37604 0.0
H34 H 0.19586 0.27377 0.39711 0.0
H35 H 0.23255 0.30074 0.41942 0.0
H36 H 0.2894 0.38948 0.51217 0.0
H37 H 0.42144 0.39311 0.50003 0.0
H38 H 0.40671 0.39761 0.46522 0.0
H39 H 0.27483 0.39454 0.47715 0.0
C40 C 0.20291 0.14642 0.97321 0.0
C41 C 0.16254 0.13783 0.97719 0.0
C42 C 0.17462 0.14114 0.01267 0.0
C43 C 0.14858 0.13526 0.99665 0.0
C44 C 0.21525 0.14934 1.00855 0.0
C45 C 0.2291 0.15198 0.98912 0.0
U46 U 0.21504 0.13103 0.91766 0.0
O47 O 0.21218 0.15464 0.892 0.0
O48 O 0.26971 0.13525 0.8982 0.0
C49 C 0.25086 0.15043 0.8867 0.0
C50 C 0.21783 0.15094 0.95283 0.0
C51 C 0.27593 0.17053 0.87891 0.0
C52 C 0.2971 0.21223 0.87806 0.0
C53 C 0.27492 0.19352 0.88701 0.0
C54 C 0.32156 0.18519 0.85296 0.0
C55 C 0.32064 0.20837 0.86079 0.0
C56 C 0.29966 0.16662 0.86191 0.0
C57 C 0.16487 0.07199 0.89839 0.0
C58 C 0.16545 0.05648 0.86486 0.0
C59 C 0.13039 0.03453 0.8905 0.0
C60 C 0.14181 0.05203 0.90416 0.0
C61 C 0.1417 0.03652 0.8706 0.0
C62 C 0.17686 0.07409 0.87863 0.0
C63 C 0.17557 0.09012 0.91341 0.0
O64 O 0.24707 0.13686 0.94604 0.0
O65 O 0.18945 0.15591 0.93958 0.0
O66 O 0.15724 0.11081 0.91188 0.0
O67 O 0.21501 0.09192 0.91836 0.0
H68 H 0.14159 0.1333 0.96527 0.0
H69 H 0.11734 0.12856 0.99914 0.0
H70 H 0.23616 0.15433 0.02036 0.0
H71 H 0.26026 0.15877 0.98651 0.0
H72 H 0.29586 0.2297 0.88473 0.0
H73 H 0.25673 0.19705 0.90009 0.0
H74 H 0.33837 0.18139 0.83953 0.0
H75 H 0.30058 0.14912 0.85523 0.0
H76 H 0.1745 0.05873 0.84967 0.0
H77 H 0.11286 0.01929 0.89562 0.0
H78 H 0.13245 0.04996 0.91935 0.0
H79 H 0.19474 0.08936 0.87384 0.0
C80 C 0.82217 0.08847 0.65149 0.0
C81 C 0.84278 0.07096 0.64047 0.0
C82 C 0.85245 0.04698 0.67006 0.0
C83 C 0.85785 0.05042 0.64968 0.0
C84 C 0.83191 0.06475 0.6809 0.0
C85 C 0.81701 0.08515 0.67173 0.0
U86 U 0.79909 0.13556 0.61029 0.0
O87 O 0.74089 0.15594 0.60719 0.0
O88 O 0.79917 0.17437 0.61448 0.0
C89 C 0.75863 0.17614 0.61225 0.0
C90 C 0.80541 0.11041 0.6427 0.0
C91 C 0.73611 0.19093 0.62691 0.0
C92 C 0.72231 0.20402 0.66056 0.0
C93 C 0.74296 0.18893 0.64722 0.0
C94 C 0.68728 0.223 0.63353 0.0
C95 C 0.69443 0.22149 0.6539 0.0
C96 C 0.70784 0.20797 0.62027 0.0
C97 C 0.83921 0.12655 0.55595 0.0
C98 C 0.81594 0.14247 0.52453 0.0
C99 C 0.8818 0.12207 0.5264 0.0
C100 C 0.87543 0.11843 0.54654 0.0
C101 C 0.85206 0.13399 0.51497 0.0
C102 C 0.80953 0.13874 0.54476 0.0
C103 C 0.83268 0.12058 0.57702 0.0
O104 O 0.83243 0.12686 0.63759 0.0
O105 O 0.77448 0.10808 0.63019 0.0
O106 O 0.79463 0.11509 0.58265 0.0
O107 O 0.85302 0.13336 0.59012 0.0
H108 H 0.84709 0.07314 0.62482 0.0
H109 H 0.87319 0.03709 0.64079 0.0
H110 H 0.82778 0.06311 0.69661 0.0
H111 H 0.80137 0.09847 0.68055 0.0
H112 H 0.72894 0.20233 0.67607 0.0
H113 H 0.76461 0.17591 0.65273 0.0
H114 H 0.66552 0.23579 0.62776 0.0
H115 H 0.70185 0.20981 0.60471 0.0
H116 H 0.79208 0.15155 0.5163 0.0
H117 H 0.91031 0.11562 0.51981 0.0
H118 H 0.89879 0.10892 0.55478 0.0
H119 H 0.78118 0.1451 0.55156 0.0
C120 C 0.69143 0.36177 0.05213 0.0
C121 C 0.68157 0.38409 0.04436 0.0
C122 C 0.66775 0.36625 0.01198 0.0
C123 C 0.66991 0.3863 0.02451 0.0
C124 C 0.67745 0.34397 0.02002 0.0
C125 C 0.68905 0.34181 0.03976 0.0
U126 U 0.7065 0.37988 0.10739 0.0
O127 O 0.69948 0.3574 0.13368 0.0
O128 O 0.76044 0.37298 0.12653 0.0
C129 C 0.73894 0.35947 0.13858 0.0
C130 C 0.70546 0.35854 0.07275 0.0
C131 C 0.75965 0.33839 0.14711 0.0
C132 C 0.81325 0.30779 0.14721 0.0
C133 C 0.79176 0.32602 0.13751 0.0
C134 C 0.77065 0.31394 0.17605 0.0
C135 C 0.80331 0.30162 0.16675 0.0
C136 C 0.74918 0.33195 0.16636 0.0
C137 C 0.66645 0.4399 0.12833 0.0
C138 C 0.69131 0.47107 0.15062 0.0
C139 C 0.61757 0.46248 0.14853 0.0
C140 C 0.62555 0.44474 0.13452 0.0
C141 C 0.65028 0.47609 0.15666 0.0
C142 C 0.69931 0.45323 0.13664 0.0
C143 C 0.67362 0.42226 0.11226 0.0
O144 O 0.73639 0.37204 0.07892 0.0
O145 O 0.67629 0.35559 0.08608 0.0
O146 O 0.65184 0.40246 0.11309 0.0
O147 O 0.71227 0.41886 0.10648 0.0
H148 H 0.6831 0.39979 0.05359 0.0
H149 H 0.66233 0.40373 0.01902 0.0
H150 H 0.67706 0.32814 0.01094 0.0
H151 H 0.69675 0.32442 0.04534 0.0
H152 H 0.83774 0.2986 0.13938 0.0
H153 H 0.80067 0.33067 0.12268 0.0
H154 H 0.76236 0.31024 0.19114 0.0
H155 H 0.72497 0.34142 0.17421 0.0
H156 H 0.71737 0.48096 0.15667 0.0
H157 H 0.58553 0.46601 0.15253 0.0
H158 H 0.59947 0.43507 0.12822 0.0
H159 H 0.73123 0.45016 0.13219 0.0
C160 C 0.69889 0.58276 0.64763 0.0
C161 C 0.66627 0.57001 0.63865 0.0
C162 C 0.66566 0.54134 0.66561 0.0
C163 C 0.64984 0.54951 0.64754 0.0
C164 C 0.69874 0.55413 0.67431 0.0
C165 C 0.71508 0.5745 0.66542 0.0
U166 U 0.71969 0.63097 0.60738 0.0
O167 O 0.71841 0.66978 0.61159 0.0
O168 O 0.7769 0.65241 0.60358 0.0
C169 C 0.75868 0.67234 0.60869 0.0
C170 C 0.71549 0.60529 0.63959 0.0
C171 C 0.7814 0.68777 0.62285 0.0
C172 C 0.80638 0.69741 0.65582 0.0
C173 C 0.78528 0.682 0.6428 0.0
C174 C 0.82016 0.72439 0.62909 0.0
C175 C 0.82388 0.71897 0.64917 0.0
C176 C 0.79921 0.70902 0.61615 0.0
C177 C 0.67609 0.62154 0.55366 0.0
C178 C 0.6987 0.63104 0.52028 0.0
C179 C 0.62657 0.62105 0.52645 0.0
C180 C 0.6355 0.61824 0.54643 0.0
C181 C 0.65802 0.6273 0.51295 0.0
C182 C 0.70765 0.62817 0.54037 0.0
C183 C 0.68463 0.61561 0.57458 0.0
O184 O 0.74622 0.60379 0.62689 0.0
O185 O 0.68815 0.62161 0.63502 0.0
O186 O 0.66458 0.62777 0.58809 0.0
O187 O 0.7232 0.61075 0.5796 0.0
H188 H 0.65325 0.57604 0.62491 0.0
H189 H 0.62476 0.54005 0.64024 0.0
H190 H 0.71139 0.54882 0.68832 0.0
H191 H 0.74004 0.58414 0.6727 0.0
H192 H 0.80824 0.69266 0.67117 0.0
H193 H 0.77175 0.6657 0.64832 0.0
H194 H 0.83376 0.74051 0.62326 0.0
H195 H 0.79681 0.7138 0.60082 0.0
H196 H 0.72376 0.63614 0.5105 0.0
H197 H 0.59507 0.61751 0.52153 0.0
H198 H 0.61066 0.61277 0.55623 0.0
H199 H 0.73935 0.63075 0.54541 0.0
C200 C 0.81108 0.87062 0.05016 0.0
C201 C 0.85044 0.88026 0.04563 0.0
C202 C 0.83735 0.87531 1.01034 0.0
C203 C 0.86341 0.88254 0.02598 0.0
C204 C 0.79771 0.86603 0.01501 0.0
C205 C 0.78486 0.8637 0.03462 0.0
U206 U 0.79975 0.88666 0.10578 0.0
O207 O 0.74554 0.88172 0.12541 0.0
O208 O 0.80403 0.86324 0.13152 0.0
C209 C 0.76524 0.86691 0.13692 0.0
C210 C 0.7973 0.86634 0.07075 0.0
C211 C 0.74114 0.84655 0.14492 0.0
C212 C 0.72132 0.80465 0.14599 0.0
C213 C 0.74279 0.82353 0.1369 0.0
C214 C 0.69637 0.83157 0.17107 0.0
C215 C 0.69785 0.80837 0.1633 0.0
C216 C 0.71757 0.85031 0.16199 0.0
C217 C 0.84589 0.94653 0.12514 0.0
C218 C 0.84964 0.95999 0.15921 0.0
C219 C 0.87095 0.98634 0.13312 0.0
C220 C 0.86133 0.9687 0.11925 0.0
C221 C 0.86534 0.98231 0.15333 0.0
C222 C 0.83995 0.94229 0.14525 0.0
C223 C 0.83682 0.92832 0.10992 0.0
O224 O 0.82643 0.86217 0.08383 0.0
O225 O 0.76748 0.87999 0.07759 0.0
O226 O 0.79759 0.92575 0.1048 0.0
O227 O 0.85635 0.90799 0.11147 0.0
H228 H 0.87137 0.88583 0.05726 0.0
H229 H 0.89388 0.8901 0.02306 0.0
H230 H 0.77687 0.85997 1.00352 0.0
H231 H 0.75449 0.85606 0.03766 0.0
H232 H 0.72298 0.78716 0.13938 0.0
H233 H 0.76088 0.82012 0.12377 0.0
H234 H 0.67961 0.83528 0.18453 0.0
H235 H 0.71618 0.86783 0.1686 0.0
H236 H 0.84448 0.95624 0.17459 0.0
H237 H 0.88361 1.00303 0.12795 0.0
H238 H 0.86631 0.97235 0.10382 0.0
H239 H 0.82793 0.92532 0.15014 0.0
C240 C 0.18365 0.92808 0.37194 0.0
C241 C 0.18001 0.94893 0.38322 0.0
C242 C 0.15633 0.97079 0.35435 0.0
C243 C 0.16627 0.97009 0.37452 0.0
C244 C 0.15926 0.94966 0.34334 0.0
C245 C 0.17271 0.92865 0.35203 0.0
U246 U 0.21139 0.87957 0.41132 0.0
O247 O 0.20914 0.84081 0.40652 0.0
O248 O 0.26904 0.85848 0.41198 0.0
C249 C 0.24991 0.83868 0.40683 0.0
C250 C 0.20103 0.90576 0.37977 0.0
C251 C 0.26896 0.82415 0.39078 0.0
C252 C 0.27113 0.78677 0.37244 0.0
C253 C 0.25211 0.80169 0.38631 0.0
C254 C 0.32427 0.81651 0.36682 0.0
C255 C 0.30788 0.79376 0.36266 0.0
C256 C 0.30515 0.83148 0.38072 0.0
C257 C 0.17906 0.88777 0.46693 0.0
C258 C 0.16369 0.85985 0.49331 0.0
C259 C 0.17123 0.90162 0.50079 0.0
C260 C 0.17925 0.90618 0.48091 0.0
C261 C 0.16278 0.87842 0.50734 0.0
C262 C 0.17164 0.86447 0.47335 0.0
C263 C 0.18305 0.894 0.44579 0.0
O264 O 0.23383 0.90739 0.39125 0.0
O265 O 0.17441 0.8893 0.38529 0.0
O266 O 0.16075 0.88164 0.43312 0.0
O267 O 0.22042 0.89936 0.43917 0.0
H268 H 0.1884 0.94896 0.39862 0.0
H269 H 0.16451 0.98602 0.38343 0.0
H270 H 0.15117 0.94934 0.32791 0.0
H271 H 0.17524 0.9128 0.34302 0.0
H272 H 0.25703 0.76962 0.36948 0.0
H273 H 0.22441 0.79543 0.39383 0.0
H274 H 0.3527 0.82251 0.35981 0.0
H275 H 0.31926 0.8486 0.38382 0.0
H276 H 0.15802 0.84169 0.4977 0.0
H277 H 0.17025 0.91651 0.51088 0.0
H278 H 0.18445 0.92434 0.47636 0.0
H279 H 0.17125 0.84989 0.46291 0.0
C280 C 0.30429 0.65518 0.97057 0.0
C281 C 0.33801 0.64189 0.97764 0.0
C282 C 0.32135 0.65324 0.01164 0.0
C283 C 0.34648 0.64096 0.99795 0.0
C284 C 0.2877 0.66648 1.00433 0.0
C285 C 0.27934 0.66738 0.98416 0.0
U286 U 0.30009 0.63538 0.91513 0.0
O287 O 0.24879 0.64068 0.89413 0.0
O288 O 0.30952 0.65748 0.88877 0.0
C289 C 0.27109 0.65437 0.88257 0.0
C290 C 0.29486 0.65768 0.94928 0.0
C291 C 0.24986 0.67483 0.87342 0.0
C292 C 0.21076 0.71186 0.87472 0.0
C293 C 0.23211 0.69346 0.88432 0.0
C294 C 0.22493 0.69322 0.84337 0.0
C295 C 0.20646 0.71183 0.85407 0.0
C296 C 0.24627 0.67504 0.85291 0.0
C297 C 0.34333 0.57404 0.89828 0.0
C298 C 0.35699 0.56039 0.8648 0.0
C299 C 0.36163 0.53282 0.89175 0.0
C300 C 0.35083 0.55096 0.90492 0.0
C301 C 0.36532 0.53724 0.87149 0.0
C302 C 0.34617 0.57861 0.87806 0.0
C303 C 0.33392 0.59289 0.91292 0.0
O304 O 0.3265 0.6601 0.93715 0.0
O305 O 0.26495 0.64417 0.9421 0.0
O306 O 0.29441 0.59639 0.91701 0.0
O307 O 0.35537 0.61276 0.91154 0.0
H308 H 0.35786 0.63232 0.9675 0.0
H309 H 0.37244 0.63041 1.00292 0.0
H310 H 0.26804 0.67659 0.01417 0.0
H311 H 0.25341 0.67795 0.97912 0.0
H312 H 0.19682 0.7258 0.88348 0.0
H313 H 0.23436 0.69366 0.90018 0.0
H314 H 0.2231 0.69271 0.8275 0.0
H315 H 0.25977 0.66091 0.84417 0.0
H316 H 0.35975 0.56458 0.84936 0.0
H317 H 0.36692 0.51523 0.8975 0.0
H318 H 0.34867 0.54697 0.92043 0.0
H319 H 0.34052 0.59629 0.87256 0.0
C320 C 0.88396 0.11068 0.27016 0.0
C321 C 0.89868 0.07105 0.2818 0.0
C322 C 0.91006 0.09515 0.27996 0.0
C323 C 0.86203 0.06262 0.27283 0.0
C324 C 0.84662 0.10244 0.26156 0.0
C325 C 0.83606 0.07828 0.26274 0.0
N326 N 0.89567 0.13384 0.26867 0.0
C327 C 0.87058 0.14991 0.25968 0.0
C328 C 0.82117 0.11872 0.25189 0.0
C329 C 0.83308 0.14258 0.25107 0.0
Gd330 Gd 0.05335 0.14744 0.24327 0.0
Gd331 Gd 0.95934 0.14441 0.28328 0.0
N332 N 0.94558 0.10378 0.28836 0.0
C333 C 0.92378 0.05629 0.29316 0.0
C334 C 0.96725 0.09008 0.30119 0.0
C335 C 0.95768 0.066 0.30328 0.0
H336 H 0.99104 0.0978 0.31037 0.0
H337 H 0.97585 0.05509 0.31305 0.0
H338 H 0.03375 0.20567 0.23806 0.0
H339 H 0.87957 0.16836 0.25915 0.0
H340 H 0.07171 0.24364 0.24093 0.0
H341 H 0.91613 0.03768 0.29495 0.0
H342 H 0.85305 0.04412 0.27394 0.0
H343 H 0.1226 0.10484 0.25312 0.0
H344 H 0.79223 0.11307 0.24509 0.0
H345 H 0.81342 0.15533 0.24379 0.0
H346 H 0.21091 0.22115 0.25811 0.0
H347 H 0.80768 0.07156 0.25607 0.0
H348 H 0.23969 0.13837 0.26573 0.0
H349 H 0.19672 0.10196 0.26246 0.0
N350 N 0.12336 0.14252 0.25183 0.0
C351 C 0.14651 0.16274 0.25325 0.0
C352 C 0.14086 0.12086 0.25491 0.0
C353 C 0.20711 0.13976 0.26177 0.0
C354 C 0.18292 0.11916 0.26 0.0
C355 C 0.18904 0.1619 0.25835 0.0
H356 H 0.24474 0.18279 0.26394 0.0
N357 N 0.08584 0.18473 0.24592 0.0
C358 C 0.12739 0.18444 0.24996 0.0
C359 C 0.1299 0.22725 0.24854 0.0
C360 C 0.15037 0.20575 0.25169 0.0
C361 C 0.06607 0.20556 0.24219 0.0
C362 C 0.08764 0.22713 0.24365 0.0
O363 O 0.95114 0.12952 0.25203 0.0
O364 O 0.01468 0.11401 0.24414 0.0
O365 O 0.04315 0.15622 0.21254 0.0
O366 O 0.09341 0.13302 0.2203 0.0
O367 O 0.02337 0.12963 0.29133 0.0
O368 O 0.04945 0.11464 0.26219 0.0
O369 O 0.06443 0.16628 0.27252 0.0
O370 O 1.00061 0.17709 0.28556 0.0
O371 O 0.95256 0.14224 0.31571 0.0
O372 O 0.90983 0.16305 0.29811 0.0
O373 O 0.99288 0.1664 0.23608 0.0
O374 O 0.95858 0.17762 0.26472 0.0
C375 C 0.97388 0.1131 0.24341 0.0
C376 C 0.04669 0.11435 0.28151 0.0
C377 C 0.06386 0.12788 0.18867 0.0
C378 C 0.06944 0.11953 0.15321 0.0
C379 C 0.02994 0.09313 0.17471 0.0
C380 C 0.03932 0.10745 0.19089 0.0
C381 C 0.04484 0.09903 0.15609 0.0
C382 C 0.07907 0.13388 0.16979 0.0
C383 C 0.07333 0.14297 0.206 0.0
C384 C 0.19278 0.20495 0.25668 0.0
C385 C 0.21205 0.1831 0.26001 0.0
H386 H 0.14645 0.24401 0.24975 0.0
C387 C 0.04142 0.17923 0.28446 0.0
C388 C 0.96619 0.17988 0.24576 0.0
C389 C 0.89555 0.16349 0.33318 0.0
C390 C 0.8804 0.1644 0.36871 0.0
C391 C 0.83941 0.18794 0.34612 0.0
C392 C 0.86279 0.17959 0.33035 0.0
C393 C 0.84817 0.18053 0.36509 0.0
C394 C 0.90408 0.15563 0.35258 0.0
C395 C 0.91995 0.15586 0.31553 0.0
H396 H 0.01109 0.07732 0.17663 0.0
H397 H 0.02754 0.10255 0.20518 0.0
H398 H 0.03744 0.08727 0.14394 0.0
H399 H 0.09774 0.1498 0.16802 0.0
H400 H 0.81438 0.20034 0.34362 0.0
H401 H 0.85515 0.18597 0.31583 0.0
H402 H 0.82942 0.18737 0.37706 0.0
H403 H 0.92914 0.14326 0.35516 0.0
C404 C 0.62787 0.40483 0.7672 0.0
C405 C 0.61601 0.44496 0.77889 0.0
C406 C 0.60317 0.42104 0.77727 0.0
C407 C 0.65276 0.4525 0.76953 0.0
C408 C 0.66522 0.41222 0.75813 0.0
C409 C 0.67731 0.43617 0.75919 0.0
N410 N 0.61457 0.38192 0.76574 0.0
C411 C 0.63806 0.36526 0.75634 0.0
C412 C 0.68905 0.39532 0.74806 0.0
C413 C 0.67552 0.37172 0.74728 0.0
Gd414 Gd 0.45504 0.37238 0.74238 0.0
Gd415 Gd 0.55115 0.37285 0.78115 0.0
N416 N 0.56736 0.4133 0.78595 0.0
C417 C 0.5921 0.46046 0.79033 0.0
C418 C 0.54672 0.42774 0.79876 0.0
C419 C 0.55783 0.45166 0.80067 0.0
H420 H 0.5227 0.42073 0.80811 0.0
H421 H 0.54055 0.46316 0.81047 0.0
H422 H 0.46993 0.31401 0.73533 0.0
H423 H 0.62788 0.34699 0.75585 0.0
H424 H 0.42882 0.27695 0.73679 0.0
H425 H 0.6009 0.47896 0.79196 0.0
H426 H 0.66284 0.47086 0.77046 0.0
H427 H 0.38914 0.41651 0.75335 0.0
H428 H 0.71793 0.4003 0.7409 0.0
H429 H 0.69392 0.3585 0.73968 0.0
H430 H 0.29146 0.30253 0.75474 0.0
H431 H 0.70571 0.44223 0.75216 0.0
H432 H 0.26944 0.38573 0.76504 0.0
H433 H 0.31529 0.42107 0.76278 0.0
N434 N 0.38547 0.37891 0.75115 0.0
C435 C 0.3607 0.35928 0.752 0.0
C436 C 0.36965 0.40092 0.75476 0.0
C437 C 0.30192 0.38359 0.76109 0.0
C438 C 0.32773 0.40359 0.75989 0.0
C439 C 0.31823 0.3611 0.75705 0.0
H440 H 0.26079 0.34154 0.76186 0.0
N441 N 0.41949 0.33597 0.74394 0.0
C442 C 0.37801 0.33722 0.74798 0.0
C443 C 0.37198 0.2946 0.74498 0.0
C444 C 0.35328 0.3165 0.74891 0.0
C445 C 0.43758 0.31479 0.73943 0.0
C446 C 0.41424 0.29377 0.7401 0.0
O447 O 0.55781 0.38803 0.75012 0.0
O448 O 0.49501 0.40526 0.7442 0.0
O449 O 0.46532 0.36415 0.71148 0.0
O450 O 0.41608 0.38798 0.71968 0.0
O451 O 0.48803 0.38761 0.79072 0.0
O452 O 0.46055 0.40426 0.76273 0.0
O453 O 0.44449 0.35137 0.77053 0.0
O454 O 0.50835 0.341 0.78391 0.0
O455 O 0.56107 0.3759 0.81333 0.0
O456 O 0.5999 0.35297 0.79522 0.0
O457 O 0.51413 0.35242 0.73418 0.0
O458 O 0.54908 0.3398 0.76206 0.0
C459 C 0.53567 0.40527 0.74256 0.0
C460 C 0.46413 0.40339 0.78201 0.0
C461 C 0.44651 0.39318 0.68819 0.0
C462 C 0.44334 0.40179 0.65282 0.0
C463 C 0.48399 0.427 0.67497 0.0
C464 C 0.47256 0.41295 0.69089 0.0
C465 C 0.46969 0.42148 0.65613 0.0
C466 C 0.43155 0.38771 0.66911 0.0
C467 C 0.4359 0.37798 0.70518 0.0
C468 C 0.31094 0.31826 0.7539 0.0
C469 C 0.29348 0.34049 0.75798 0.0
H470 H 0.35405 0.27827 0.74557 0.0
C471 C 0.4676 0.3386 0.78246 0.0
C472 C 0.54037 0.33811 0.74316 0.0
C473 C 0.61734 0.35355 0.82997 0.0
C474 C 0.63731 0.35502 0.86493 0.0
C475 C 0.67535 0.33006 0.84194 0.0
C476 C 0.64979 0.33733 0.82667 0.0
C477 C 0.66935 0.33886 0.86084 0.0
C478 C 0.6108 0.36226 0.84939 0.0
C479 C 0.59218 0.3612 0.8127 0.0
H480 H 0.50416 0.44225 0.67725 0.0
H481 H 0.48408 0.41747 0.70534 0.0
H482 H 0.47897 0.43284 0.6441 0.0
H483 H 0.4116 0.37235 0.6669 0.0
H484 H 0.70017 0.31758 0.83909 0.0
H485 H 0.65577 0.33023 0.81213 0.0
H486 H 0.68982 0.33289 0.87242 0.0
H487 H 0.5861 0.3748 0.85231 0.0
C488 C 0.87575 0.84279 0.76636 0.0
C489 C 0.88402 0.80021 0.76959 0.0
C490 C 0.90013 0.82345 0.77146 0.0
C491 C 0.84361 0.79667 0.76218 0.0
C492 C 0.83512 0.8393 0.75899 0.0
C493 C 0.81925 0.81615 0.7569 0.0
N494 N 0.89236 0.86498 0.76795 0.0
C495 C 0.86974 0.88445 0.76301 0.0
C496 C 0.81186 0.85918 0.75369 0.0
C497 C 0.8292 0.88185 0.75578 0.0
Gd498 Gd 0.05426 0.8719 0.73974 0.0
Gd499 Gd 0.96083 0.86742 0.77963 0.0
N500 N 0.93971 0.82737 0.77801 0.0
C501 C 0.9089 0.7812 0.77536 0.0
C502 C 0.96277 0.80903 0.78498 0.0
C503 C 0.94817 0.78568 0.78339 0.0
H504 H 0.99172 0.81225 0.79239 0.0
H505 H 0.96696 0.77117 0.78866 0.0
H506 H 0.03619 0.93008 0.73436 0.0
H507 H 0.88275 0.90203 0.76483 0.0
H508 H 0.07378 0.96803 0.73886 0.0
H509 H 0.89766 0.76308 0.77417 0.0
H510 H 0.83086 0.77892 0.76054 0.0
H511 H 0.12433 0.82893 0.74711 0.0
H512 H 0.78053 0.85723 0.74797 0.0
H513 H 0.81136 0.89733 0.75182 0.0
H514 H 0.21106 0.94488 0.75879 0.0
H515 H 0.78817 0.81311 0.75118 0.0
H516 H 0.23982 0.86175 0.76361 0.0
H517 H 0.19772 0.82552 0.75753 0.0
N518 N 0.12419 0.86657 0.74853 0.0
C519 C 0.1471 0.88672 0.75118 0.0
C520 C 0.14204 0.8448 0.75036 0.0
C521 C 0.20746 0.86333 0.75931 0.0
C522 C 0.18377 0.84284 0.75596 0.0
C523 C 0.18933 0.88564 0.75677 0.0
H524 H 0.24455 0.90627 0.76393 0.0
N525 N 0.08718 0.90899 0.74332 0.0
C526 C 0.12827 0.90855 0.74823 0.0
C527 C 0.13099 0.95138 0.74768 0.0
C528 C 0.1511 0.92977 0.75086 0.0
C529 C 0.06796 0.92992 0.73933 0.0
C530 C 0.08936 0.95143 0.7417 0.0
O531 O 0.95131 0.85305 0.74854 0.0
O532 O 0.01477 0.8384 0.73905 0.0
O533 O 0.0451 0.88293 0.70946 0.0
O534 O 0.09391 0.85836 0.71624 0.0
O535 O 0.02515 0.85281 0.78704 0.0
O536 O 0.05196 0.83847 0.75793 0.0
O537 O 0.06301 0.89144 0.7692 0.0
O538 O 0.99764 0.90147 0.78077 0.0
O539 O 0.96368 0.85878 0.81077 0.0
O540 O 0.91607 0.8822 0.80038 0.0
O541 O 0.99258 0.88989 0.73301 0.0
O542 O 0.96038 0.90157 0.76201 0.0
C543 C 0.97382 0.83782 0.73845 0.0
C544 C 0.04991 0.83831 0.77725 0.0
C545 C 0.06418 0.85573 0.68443 0.0
C546 C 0.06825 0.84951 0.64865 0.0
C547 C 0.02749 0.82269 0.66921 0.0
C548 C 0.0383 0.83573 0.68591 0.0
C549 C 0.04221 0.82947 0.65078 0.0
C550 C 0.07945 0.86254 0.66575 0.0
C551 C 0.07456 0.86958 0.70236 0.0
C552 C 0.19305 0.92876 0.75662 0.0
C553 C 0.21211 0.90676 0.75957 0.0
H554 H 0.14743 0.96808 0.74958 0.0
C555 C 0.03817 0.90476 0.78005 0.0
C556 C 0.96825 0.90436 0.74307 0.0
C557 C 0.93984 0.88819 0.83303 0.0
C558 C 0.93391 0.89653 0.86849 0.0
C559 C 0.96782 0.92484 0.84661 0.0
C560 C 0.96053 0.90992 0.83058 0.0
C561 C 0.95466 0.91829 0.86534 0.0
C562 C 0.92632 0.88153 0.85205 0.0
C563 C 0.9329 0.87253 0.81573 0.0
H564 H 0.00754 0.80722 0.67056 0.0
H565 H 0.02651 0.83023 0.70003 0.0
H566 H 0.0335 0.81879 0.63815 0.0
H567 H 0.09924 0.8781 0.66451 0.0
H568 H 0.98368 0.94165 0.84448 0.0
H569 H 0.97089 0.91537 0.81621 0.0
H570 H 0.96033 0.93051 0.87739 0.0
H571 H 0.9106 0.86465 0.85405 0.0
C572 C 0.64421 0.66893 0.26529 0.0
C573 C 0.64579 0.71117 0.27256 0.0
C574 C 0.6253 0.68899 0.27297 0.0
C575 C 0.68492 0.7131 0.26346 0.0
C576 C 0.68437 0.67063 0.25695 0.0
C577 C 0.70413 0.69288 0.25563 0.0
N578 N 0.62448 0.64761 0.26705 0.0
C579 C 0.64519 0.62713 0.26265 0.0
C580 C 0.7041 0.6498 0.25081 0.0
C581 C 0.68473 0.62793 0.25402 0.0
Gd582 Gd 0.46961 0.64326 0.23669 0.0
Gd583 Gd 0.55657 0.64885 0.28043 0.0
N584 N 0.58697 0.68671 0.28121 0.0
C585 C 0.62655 0.73064 0.2816 0.0
C586 C 0.56897 0.70525 0.29096 0.0
C587 C 0.58825 0.72758 0.29109 0.0
H588 H 0.53931 0.70279 0.29823 0.0
H589 H 0.57353 0.7424 0.29843 0.0
H590 H 0.50565 0.59665 0.21051 0.0
H591 H 0.63181 0.61001 0.26599 0.0
H592 H 0.48886 0.55433 0.20572 0.0
H593 H 0.64133 0.74798 0.28163 0.0
H594 H 0.70096 0.73005 0.26277 0.0
H595 H 0.38706 0.6676 0.25869 0.0
H596 H 0.73493 0.65034 0.24432 0.0
H597 H 0.70051 0.61164 0.25015 0.0
H598 H 0.3573 0.54451 0.23827 0.0
H599 H 0.73478 0.69454 0.24908 0.0
H600 H 0.295 0.61339 0.26739 0.0
H601 H 0.31805 0.65516 0.2711 0.0
N602 N 0.40342 0.6331 0.24873 0.0
C603 C 0.39074 0.61029 0.24585 0.0
C604 C 0.37761 0.64928 0.25731 0.0
C605 C 0.32537 0.61875 0.26197 0.0
C606 C 0.33834 0.64232 0.26417 0.0
C607 C 0.35158 0.6024 0.25265 0.0
H608 H 0.31014 0.57209 0.2553 0.0
N609 N 0.45477 0.60311 0.22969 0.0
C610 C 0.41756 0.59474 0.23639 0.0
C611 C 0.43227 0.55604 0.22269 0.0
C612 C 0.40553 0.5709 0.23328 0.0
C613 C 0.47911 0.58922 0.21797 0.0
C614 C 0.4689 0.56537 0.21471 0.0
O615 O 0.54637 0.67899 0.25874 0.0
O616 O 0.53283 0.6594 0.2301 0.0
O617 O 0.4551 0.63818 0.20575 0.0
O618 O 0.43697 0.67059 0.22016 0.0
O619 O 0.49118 0.66215 0.28614 0.0
O620 O 0.46392 0.67586 0.25678 0.0
O621 O 0.45719 0.62651 0.2668 0.0
O622 O 0.52125 0.61421 0.27768 0.0
O623 O 0.54093 0.65302 0.31138 0.0
O624 O 0.60006 0.63831 0.30335 0.0
O625 O 0.53467 0.62893 0.23096 0.0
O626 O 0.5597 0.61583 0.2608 0.0
C627 C 0.54964 0.67735 0.23957 0.0
C628 C 0.46791 0.67708 0.27617 0.0
C629 C 0.39671 0.6575 0.1924 0.0
C630 C 0.36027 0.65711 0.16052 0.0
C631 C 0.32131 0.65474 0.19125 0.0
C632 C 0.3582 0.65583 0.20201 0.0
C633 C 0.32224 0.65538 0.17077 0.0
C634 C 0.39768 0.65794 0.17157 0.0
C635 C 0.43599 0.65824 0.20388 0.0
C636 C 0.36691 0.56281 0.24041 0.0
C637 C 0.33998 0.57853 0.25004 0.0
H638 H 0.4242 0.53761 0.22 0.0
C639 C 0.48061 0.61143 0.27649 0.0
C640 C 0.55696 0.61412 0.24147 0.0
C641 C 0.57106 0.62633 0.33381 0.0
C642 C 0.57769 0.6156 0.36863 0.0
C643 C 0.54718 0.58782 0.34501 0.0
C644 C 0.55295 0.60413 0.32993 0.0
C645 C 0.55927 0.59348 0.36417 0.0
C646 C 0.58383 0.63199 0.35319 0.0
C647 C 0.57532 0.64381 0.31778 0.0
H648 H 0.29175 0.65334 0.19883 0.0
H649 H 0.35656 0.6553 0.21785 0.0
H650 H 0.29296 0.65421 0.16292 0.0
H651 H 0.42737 0.65925 0.16406 0.0
H652 H 0.5331 0.57072 0.34184 0.0
H653 H 0.54312 0.59949 0.31521 0.0
H654 H 0.5545 0.58038 0.37554 0.0
H655 H 0.59756 0.64922 0.3563 0.0
H656 H 0.18086 0.98736 0.31842 0.0
H657 H 0.10311 1.00544 0.36796 0.0
H658 H 0.15768 0.02269 0.30137 0.0
H659 H 0.07935 0.04083 0.35076 0.0
H660 H 0.06925 0.11297 0.3204 0.0
H661 H 0.09799 0.0795 0.3385 0.0
H662 H 0.09769 0.0375 0.28523 0.0
H663 H 0.06973 0.07096 0.26723 0.0
C664 C 0.15856 0.99881 0.32566 0.0
C665 C 0.14357 0.99333 0.34453 0.0
C666 C 0.14517 0.01913 0.31583 0.0
C667 C 0.11622 0.03465 0.32452 0.0
C668 C 0.10197 0.0295 0.34362 0.0
C669 C 0.11555 0.00915 0.35351 0.0
C670 C 0.07569 0.09663 0.31255 0.0
C671 C 0.06717 0.09469 0.29235 0.0
C672 C 0.09188 0.07734 0.32296 0.0
C673 C 0.10017 0.05562 0.31342 0.0
C674 C 0.0924 0.05395 0.29311 0.0
C675 C 0.07626 0.0732 0.28273 0.0
H676 H 0.42386 0.50272 0.87748 0.0
H677 H 0.33706 0.52758 0.83394 0.0
H678 H 0.44431 0.47053 0.85567 0.0
H679 H 0.35763 0.49518 0.812 0.0
H680 H 0.43898 0.44785 0.77086 0.0
H681 H 0.41391 0.48008 0.79186 0.0
H682 H 0.41954 0.43385 0.84209 0.0
H683 H 0.44508 0.40184 0.82114 0.0
C684 C 0.40872 0.50122 0.86332 0.0
C685 C 0.37844 0.5178 0.85765 0.0
C686 C 0.42049 0.48264 0.85076 0.0
C687 C 0.40243 0.47995 0.83204 0.0
C688 C 0.37255 0.49671 0.8262 0.0
C689 C 0.36075 0.51536 0.83881 0.0
C690 C 0.43424 0.44446 0.78634 0.0
C691 C 0.44427 0.42224 0.7943 0.0
C692 C 0.41986 0.46299 0.79842 0.0
C693 C 0.41506 0.4598 0.8188 0.0
C694 C 0.42366 0.43725 0.82658 0.0
C695 C 0.43801 0.41877 0.81452 0.0
H696 H 0.706 0.50696 0.68689 0.0
H697 H 0.58332 0.5274 0.66755 0.0
H698 H 0.67558 0.47435 0.70545 0.0
H699 H 0.55314 0.49406 0.6853 0.0
H700 H 0.50717 0.45014 0.73712 0.0
H701 H 0.53875 0.48203 0.71814 0.0
H702 H 0.64177 0.43631 0.70326 0.0
H703 H 0.60993 0.40439 0.72242 0.0
C704 C 0.67253 0.50451 0.6865 0.0
C705 C 0.64723 0.52012 0.67575 0.0
C706 C 0.65508 0.48553 0.697 0.0
C707 C 0.61175 0.4815 0.69706 0.0
C708 C 0.58655 0.49676 0.68593 0.0
C709 C 0.60399 0.51576 0.67547 0.0
C710 C 0.53657 0.44689 0.72978 0.0
C711 C 0.55612 0.42473 0.73136 0.0
C712 C 0.55463 0.46517 0.71877 0.0
C713 C 0.59282 0.46186 0.70896 0.0
C714 C 0.61259 0.4397 0.71073 0.0
C715 C 0.5944 0.42136 0.72175 0.0
H716 H 0.85421 0.0306 0.1507 0.0
H717 H 0.90248 0.97709 0.18948 0.0
H718 H 0.87763 0.06151 0.17335 0.0
H719 H 0.92432 0.00799 0.21255 0.0
H720 H 0.00599 0.0695 0.23558 0.0
H721 H 0.97704 0.03804 0.21503 0.0
H722 H 0.86751 0.08039 0.20487 0.0
H723 H 0.8976 0.11237 0.22493 0.0
C724 C 0.86965 0.02536 0.16409 0.0
C725 C 0.87672 1.0012 0.16806 0.0
C726 C 0.88264 0.04316 0.17726 0.0
C727 C 0.90313 0.0374 0.19484 0.0
C728 C 0.90921 0.01322 0.19906 0.0
C729 C 0.89618 0.99541 0.1859 0.0
C730 C 0.97564 0.0721 0.22902 0.0
C731 C 0.95408 0.09348 0.23195 0.0
C732 C 0.9588 0.05391 0.21733 0.0
C733 C 0.91978 0.05649 0.20821 0.0
C734 C 0.89782 0.07777 0.21145 0.0
C735 C 0.9148 0.09604 0.22315 0.0
H736 H 0.9256 0.02277 0.6635 0.0
H737 H 0.81515 0.02161 0.69974 0.0
H738 H 0.95228 0.98842 0.68099 0.0
H739 H 0.84183 0.98734 0.71722 0.0
H740 H 0.9231 0.94183 0.75807 0.0
H741 H 0.89484 0.97566 0.74034 0.0
H742 H 0.94173 0.94662 0.68589 0.0
H743 H 0.97028 0.91311 0.70354 0.0
C744 C 0.90672 0.01507 0.67503 0.0
C745 C 0.86821 0.02519 0.68018 0.0
C746 C 0.92208 0.99531 0.68512 0.0
C747 C 0.89938 0.98502 0.70066 0.0
C748 C 0.86065 0.99497 0.70564 0.0
C749 C 0.8453 0.01469 0.69555 0.0
C750 C 0.92711 0.94255 0.7423 0.0
C751 C 0.949 0.92458 0.73232 0.0
C752 C 0.9108 0.96198 0.73208 0.0
C753 C 0.91602 0.96406 0.7116 0.0
C754 C 0.93759 0.94595 0.70165 0.0
C755 C 0.95378 0.92655 0.71183 0.0
H756 H 0.59284 0.47715 0.18672 0.0
H757 H 0.68719 0.5202 0.15873 0.0
H758 H 0.57517 0.51036 0.20827 0.0
H759 H 0.67046 0.55311 0.1807 0.0
H760 H 0.58852 0.61448 0.20434 0.0
H761 H 0.61427 0.58099 0.18516 0.0
H762 H 0.59918 0.53546 0.23546 0.0
H763 H 0.5727 0.56914 0.2546 0.0
C764 C 0.61 0.49364 0.1852 0.0
C765 C 0.64135 0.49591 0.17083 0.0
C766 C 0.60019 0.51264 0.19776 0.0
C767 C 0.62129 0.53453 0.19628 0.0
C768 C 0.6532 0.53665 0.18218 0.0
C769 C 0.66313 0.51763 0.16968 0.0
C770 C 0.59127 0.59739 0.21139 0.0
C771 C 0.57841 0.59445 0.23097 0.0
C772 C 0.6062 0.57815 0.20041 0.0
C773 C 0.60865 0.55538 0.20866 0.0
C774 C 0.59723 0.55264 0.22852 0.0
C775 C 0.58252 0.57199 0.23958 0.0
H776 H 0.41625 0.47174 0.32262 0.0
H777 H 0.34078 0.5195 0.35719 0.0
H778 H 0.44312 0.50503 0.30393 0.0
H779 H 0.36934 0.55314 0.33897 0.0
H780 H 0.39966 0.60625 0.28951 0.0
H781 H 0.36934 0.57279 0.30744 0.0
H782 H 0.48884 0.53793 0.30665 0.0
H783 H 0.51817 0.57059 0.28796 0.0
C784 C 0.40528 0.48935 0.32628 0.0
C785 C 0.37602 0.49274 0.34145 0.0
C786 C 0.42119 0.50859 0.31566 0.0
C787 C 0.40863 0.53197 0.31987 0.0
C788 C 0.37949 0.53544 0.3351 0.0
C789 C 0.36349 0.51611 0.34576 0.0
C790 C 0.41917 0.59122 0.29287 0.0
C791 C 0.46127 0.59108 0.28712 0.0
C792 C 0.40197 0.57216 0.30343 0.0
C793 C 0.4265 0.55248 0.30858 0.0
C794 C 0.46862 0.55246 0.30276 0.0
C795 C 0.48564 0.57139 0.29216 0.0
H796 H 0.0662 0.01368 0.86864 0.0
H797 H 0.18562 0.01718 0.83951 0.0
H798 H 0.04392 0.98254 0.84613 0.0
H799 H 0.16258 0.98637 0.81635 0.0
H800 H 0.11862 0.91139 0.79337 0.0
H801 H 0.14513 0.94385 0.81408 0.0
H802 H 0.02418 0.97693 0.81253 0.0
H803 H 0.998 0.94476 0.792 0.0
C804 C 0.08782 1.00782 0.85743 0.0
C805 C 0.12789 0.01799 0.85605 0.0
C806 C 0.07479 0.99008 0.8443 0.0
C807 C 0.10128 0.98191 0.82926 0.0
C808 C 0.14139 0.99206 0.8278 0.0
C809 C 0.15445 0.00994 0.84096 0.0
C810 C 0.09786 0.92572 0.79734 0.0
C811 C 0.05592 0.92517 0.79135 0.0
C812 C 0.11307 0.94438 0.80919 0.0
C813 C 0.08665 0.96291 0.81533 0.0
C814 C 0.04522 0.96273 0.80859 0.0
C815 C 0.03017 0.94422 0.79677 0.0
H816 H 0.21755 0.12606 0.04534 0.0
H817 H 0.0971 0.15182 0.02753 0.0
H818 H 0.19272 0.12277 0.07907 0.0
H819 H 0.07235 0.14874 0.06122 0.0
H820 H 0.02691 0.11529 0.11842 0.0
H821 H 0.05258 0.12087 0.08523 0.0
H822 H 0.17178 0.14359 0.10822 0.0
H823 H 0.14639 0.13695 0.14164 0.0
C824 C 0.18586 0.13126 0.0486 0.0
C825 C 0.15939 0.1391 0.0335 0.0
C826 C 0.17158 0.12943 0.06806 0.0
C827 C 0.13035 0.13543 0.0731 0.0
C828 C 0.10404 0.1435 0.05801 0.0
C829 C 0.11827 0.14525 0.03857 0.0
C830 C 0.05871 0.12138 0.11649 0.0
C831 C 0.0846 0.1254 0.13289 0.0
C832 C 0.07337 0.12488 0.09732 0.0
C833 C 0.11446 0.13265 0.09379 0.0
C834 C 0.14015 0.13726 0.11021 0.0
C835 C 0.1254 0.13375 0.12947 0.0
H836 H 0.31394 0.41049 0.54056 0.0
H837 H 0.42144 0.36757 0.52722 0.0
H838 H 0.33277 0.41027 0.57529 0.0
H839 H 0.44045 0.3677 0.56181 0.0
H840 H 0.49048 0.40068 0.61941 0.0
H841 H 0.46756 0.39611 0.58553 0.0
H842 H 0.3409 0.38613 0.60537 0.0
H843 H 0.36408 0.39102 0.63953 0.0
C844 C 0.34125 0.4007 0.54497 0.0
C845 C 0.36629 0.38926 0.5308 0.0
C846 C 0.3521 0.4006 0.56499 0.0
C847 C 0.38843 0.38916 0.57148 0.0
C848 C 0.41272 0.37712 0.55741 0.0
C849 C 0.40179 0.37711 0.53746 0.0
C850 C 0.45773 0.39738 0.6166 0.0
C851 C 0.42915 0.39634 0.63227 0.0
C852 C 0.44456 0.39458 0.59711 0.0
C853 C 0.40226 0.39078 0.59255 0.0
C854 C 0.37366 0.38924 0.60824 0.0
C855 C 0.38698 0.3918 0.62786 0.0
H856 H 0.62127 0.33542 0.9891 0.0
H857 H 0.68878 0.40178 0.98596 0.0
H858 H 0.6089 0.33672 0.95388 0.0
H859 H 0.67478 0.40362 0.95082 0.0
H860 H 0.69536 0.37915 0.88616 0.0
H861 H 0.69799 0.38457 0.92162 0.0
H862 H 0.57422 0.35461 0.92654 0.0
H863 H 0.57225 0.34883 0.89079 0.0
C864 C 0.63331 0.35042 0.98097 0.0
C865 C 0.65659 0.36833 0.99057 0.0
C866 C 0.62562 0.35134 0.96069 0.0
C867 C 0.64089 0.37023 0.94925 0.0
C868 C 0.66292 0.38858 0.95896 0.0
C869 C 0.6706 0.38766 0.97927 0.0
C870 C 0.66822 0.37436 0.89478 0.0
C871 C 0.63347 0.36374 0.88562 0.0
C872 C 0.66968 0.37745 0.9152 0.0
C873 C 0.6365 0.36986 0.92721 0.0
C874 C 0.60069 0.36038 0.91791 0.0
C875 C 0.59918 0.3574 0.89736 0.0
H876 H 0.88686 0.10304 0.48804 0.0
H877 H 0.83282 0.17282 0.49237 0.0
H878 H 0.89987 0.10918 0.45312 0.0
H879 H 0.84437 0.17859 0.45739 0.0
H880 H 0.90213 0.1936 0.39886 0.0
H881 H 0.89805 0.1856 0.43394 0.0
H882 H 0.86703 0.11242 0.42128 0.0
H883 H 0.8721 0.12057 0.38598 0.0
C884 C 0.8778 0.11975 0.48162 0.0
C885 C 0.85891 0.13747 0.49327 0.0
C886 C 0.8849 0.12316 0.46144 0.0
C887 C 0.87356 0.14447 0.45223 0.0
C888 C 0.85434 0.16208 0.46387 0.0
C889 C 0.84712 0.15864 0.484 0.0
C890 C 0.89556 0.17564 0.4036 0.0
C891 C 0.88783 0.15768 0.38961 0.0
C892 C 0.89254 0.1711 0.42376 0.0
C893 C 0.88131 0.14844 0.43066 0.0
C894 C 0.87587 0.13008 0.41665 0.0
C895 C 0.87905 0.13467 0.39637 0.0
H896 H 0.79159 0.88758 0.97768 0.0
H897 H 0.91534 0.86675 0.99501 0.0
H898 H 0.81467 0.89035 0.94365 0.0
H899 H 0.93836 0.86935 0.96102 0.0
H900 H 0.97751 0.90289 0.90271 0.0
H901 H 0.95399 0.89712 0.93623 0.0
H902 H 0.83687 0.8692 0.91477 0.0
H903 H 0.86007 0.87594 0.88097 0.0
C904 C 0.82366 0.88335 0.97426 0.0
C905 C 0.85154 0.87704 0.98931 0.0
C906 C 0.83693 0.88488 0.95463 0.0
C907 C 0.87854 0.88013 0.94935 0.0
C908 C 0.90628 0.8736 0.96439 0.0
C909 C 0.89304 0.87212 0.98401 0.0
C910 C 0.94665 0.89554 0.90506 0.0
C911 C 0.9206 0.89015 0.88898 0.0
C912 C 0.93325 0.89197 0.92441 0.0
C913 C 0.89331 0.88275 0.92846 0.0
C914 C 0.8676 0.87667 0.91236 0.0
C915 C 0.8811 0.88024 0.89291 0.0
H916 H 0.70701 0.61463 0.48115 0.0
H917 H 0.58669 0.64404 0.49542 0.0
H918 H 0.68867 0.61477 0.44636 0.0
H919 H 0.56826 0.64372 0.46077 0.0
H920 H 0.53115 0.60874 0.40172 0.0
H921 H 0.55189 0.61374 0.43589 0.0
H922 H 0.67232 0.63974 0.41728 0.0
H923 H 0.65142 0.63448 0.38282 0.0
C924 C 0.67689 0.62145 0.47695 0.0
C925 C 0.64828 0.62908 0.49136 0.0
C926 C 0.66633 0.6215 0.4569 0.0
C927 C 0.62677 0.62904 0.45065 0.0
C928 C 0.59871 0.63734 0.46498 0.0
C929 C 0.60931 0.63745 0.48496 0.0
C930 C 0.56201 0.61566 0.40487 0.0
C931 C 0.58964 0.62111 0.38946 0.0
C932 C 0.57385 0.6187 0.42453 0.0
C933 C 0.61388 0.62713 0.42948 0.0
C934 C 0.64137 0.63301 0.41406 0.0
C935 C 0.62928 0.63023 0.3943 0.0
H936 H 0.26455 0.65161 0.04184 0.0
H937 H 0.39716 0.65306 0.03117 0.0
H938 H 0.27704 0.65303 0.07697 0.0
H939 H 0.40972 0.65433 0.06662 0.0
H940 H 0.41153 0.63416 0.13377 0.0
H941 H 0.4045 0.63264 0.09789 0.0
H942 H 0.30057 0.68072 0.10151 0.0
H943 H 0.30754 0.68217 0.137 0.0
C944 C 0.29648 0.65241 0.04692 0.0
C945 C 0.32974 0.65254 0.03341 0.0
C946 C 0.30369 0.65324 0.06721 0.0
C947 C 0.34445 0.65416 0.07484 0.0
C948 C 0.37788 0.65354 0.0614 0.0
C949 C 0.37064 0.65277 0.041 0.0
C950 C 0.38757 0.64465 0.12686 0.0
C951 C 0.35973 0.658 0.13844 0.0
C952 C 0.38345 0.64375 0.10624 0.0
C953 C 0.35139 0.65619 0.09666 0.0
C954 C 0.32486 0.67032 0.10826 0.0
C955 C 0.32896 0.67121 0.12872 0.0
H956 H 0.19327 0.90049 0.54083 0.0
H957 H 0.10609 0.84621 0.52219 0.0
H958 H 0.17101 0.89514 0.57476 0.0
H959 H 0.0855 0.84003 0.55612 0.0
H960 H 0.02265 0.85096 0.61478 0.0
H961 H 0.04657 0.85804 0.58146 0.0
H962 H 0.17149 0.87009 0.60301 0.0
H963 H 0.14705 0.86331 0.63662 0.0
C964 C 0.16944 0.88734 0.54389 0.0
C965 C 0.15142 0.87393 0.52849 0.0
C966 C 0.15697 0.88407 0.5635 0.0
C967 C 0.12606 0.86726 0.5684 0.0
C968 C 0.10878 0.85349 0.55305 0.0
C969 C 0.12115 0.85679 0.53347 0.0
C970 C 0.05527 0.85512 0.61247 0.0
C971 C 0.08293 0.8563 0.62849 0.0
C972 C 0.06913 0.85907 0.59324 0.0
C973 C 0.11127 0.86426 0.58926 0.0
C974 C 0.13878 0.86626 0.60536 0.0
C975 C 0.12478 0.86239 0.62471 0.0
H976 H 0.12632 0.30768 0.34763 0.0
H977 H 0.2064 0.25149 0.36753 0.0
H978 H 0.09055 0.27963 0.32578 0.0
H979 H 0.16988 0.22343 0.34632 0.0
H980 H 0.12487 0.18299 0.29261 0.0
H981 H 0.16068 0.21251 0.31264 0.0
H982 H 0.04305 0.24578 0.32589 0.0
H983 H 0.0072 0.21659 0.30512 0.0
C984 C 0.13646 0.28939 0.34733 0.0
C985 C 0.16935 0.28197 0.35948 0.0
C986 C 0.11557 0.2732 0.33494 0.0
C987 C 0.12712 0.24912 0.3342 0.0
C988 C 0.16024 0.2418 0.34623 0.0
C989 C 0.18096 0.25792 0.35864 0.0
C990 C 0.10653 0.19675 0.29953 0.0
C991 C 0.06301 0.1974 0.297 0.0
C992 C 0.12714 0.2136 0.31129 0.0
C993 C 0.10493 0.23163 0.32106 0.0
C994 C 0.06138 0.23238 0.31848 0.0
C995 C 0.04071 0.21547 0.30666 0.0
H996 H 0.29747 0.25529 0.85694 0.0
H997 H 0.39595 0.20682 0.84132 0.0
H998 H 0.3333 0.28689 0.83928 0.0
H999 H 0.43031 0.23788 0.82271 0.0
H1000 H 0.50348 0.30324 0.80425 0.0
H1001 H 0.46919 0.27309 0.82409 0.0
H1002 H 0.34917 0.30105 0.80773 0.0
H1003 H 0.38361 0.33203 0.78895 0.0
C1004 C 0.32682 0.2513 0.84984 0.0
C1005 C 0.34345 0.22825 0.85061 0.0
C1006 C 0.34718 0.26944 0.83938 0.0
C1007 C 0.38483 0.26513 0.8293 0.0
C1008 C 0.40173 0.24217 0.83036 0.0
C1009 C 0.38154 0.22412 0.84088 0.0
C1010 C 0.46977 0.30305 0.80492 0.0
C1011 C 0.44648 0.31999 0.79462 0.0
C1012 C 0.44994 0.28553 0.81623 0.0
C1013 C 0.40612 0.28428 0.81756 0.0
C1014 C 0.38289 0.30139 0.80736 0.0
C1015 C 0.40274 0.31903 0.79622 0.0
H1016 H 0.67831 0.26887 0.64879 0.0
H1017 H 0.66267 0.21264 0.69095 0.0
H1018 H 0.64196 0.29604 0.67062 0.0
H1019 H 0.62618 0.24001 0.71294 0.0
H1020 H 0.59522 0.3032 0.7548 0.0
H1021 H 0.63316 0.27503 0.73404 0.0
H1022 H 0.57332 0.30372 0.68275 0.0
H1023 H 0.53629 0.33195 0.70326 0.0
C1024 C 0.66681 0.26217 0.66265 0.0
C1025 C 0.67324 0.23833 0.66788 0.0
C1026 C 0.64586 0.27785 0.67524 0.0
C1027 C 0.63057 0.27031 0.69357 0.0
C1028 C 0.63773 0.24661 0.69905 0.0
C1029 C 0.65873 0.23085 0.6864 0.0
C1030 C 0.59015 0.30351 0.73909 0.0
C1031 C 0.56273 0.32011 0.73081 0.0
C1032 C 0.6118 0.28722 0.72716 0.0
C1033 C 0.60675 0.2871 0.7066 0.0
C1034 C 0.57882 0.30347 0.69843 0.0
C1035 C 0.55721 0.31965 0.7103 0.0
H1036 H 0.88722 0.29121 0.16447 0.0
H1037 H 0.77429 0.26966 0.19419 0.0
H1038 H 0.92641 0.26229 0.18337 0.0
H1039 H 0.81375 0.24124 0.21335 0.0
H1040 H 0.90574 0.21097 0.25873 0.0
H1041 H 0.86685 0.23986 0.23954 0.0
H1042 H 0.93501 0.21931 0.18758 0.0
H1043 H 0.97375 0.19048 0.20662 0.0
C1044 C 0.87052 0.2802 0.17484 0.0
C1045 C 0.82733 0.28304 0.17771 0.0
C1046 C 0.89315 0.26362 0.18579 0.0
C1047 C 0.87341 0.24947 0.20005 0.0
C1048 C 0.83023 0.25211 0.20279 0.0
C1049 C 0.80755 0.26852 0.19175 0.0
C1050 C 0.91245 0.21253 0.24321 0.0
C1051 C 0.94287 0.19812 0.23431 0.0
C1052 C 0.88997 0.22909 0.23216 0.0
C1053 C 0.89761 0.23195 0.21193 0.0
C1054 C 0.92846 0.21781 0.20312 0.0
C1055 C 0.9506 0.20112 0.2141 0.0
H1056 H 0.82065 0.76767 0.64955 0.0
H1057 H 0.87623 0.70902 0.6802 0.0
H1058 H 0.85719 0.79547 0.67097 0.0
H1059 H 0.91177 0.73698 0.70221 0.0
H1060 H 0.00357 0.79533 0.72427 0.0
H1061 H 0.96752 0.76641 0.70326 0.0
H1062 H 0.85786 0.81042 0.7039 0.0
H1063 H 0.89439 0.83958 0.7241 0.0
C1064 C 0.84071 0.76063 0.66085 0.0
C1065 C 0.84548 0.73595 0.66297 0.0
C1066 C 0.86136 0.77666 0.67336 0.0
C1067 C 0.88754 0.76861 0.68846 0.0
C1068 C 0.89226 0.74393 0.69067 0.0
C1069 C 0.87143 0.72784 0.67815 0.0
C1070 C 0.97182 0.79885 0.71983 0.0
C1071 C 0.95199 0.81985 0.72588 0.0
C1072 C 0.95095 0.78214 0.70792 0.0
C1073 C 0.90964 0.78598 0.70173 0.0
C1074 C 0.88978 0.80691 0.70803 0.0
C1075 C 0.91065 0.82358 0.71985 0.0
H1076 H 0.62243 0.80947 0.18266 0.0
H1077 H 0.72213 0.76163 0.16737 0.0
H1078 H 0.58815 0.77802 0.20101 0.0
H1079 H 0.68713 0.72995 0.18549 0.0
H1080 H 0.58881 0.67324 0.20399 0.0
H1081 H 0.62463 0.70419 0.18526 0.0
H1082 H 0.59699 0.75501 0.23106 0.0
H1083 H 0.56042 0.72417 0.24947 0.0
C1084 C 0.63733 0.79232 0.18326 0.0
C1085 C 0.67551 0.78838 0.17355 0.0
C1086 C 0.6175 0.77419 0.19383 0.0
C1087 C 0.6349 0.75139 0.19494 0.0
C1088 C 0.67255 0.7472 0.18487 0.0
C1089 C 0.69261 0.76543 0.17438 0.0
C1090 C 0.59034 0.69104 0.21003 0.0
C1091 C 0.57193 0.69618 0.22832 0.0
C1092 C 0.6112 0.70877 0.19936 0.0
C1093 C 0.61378 0.73221 0.20657 0.0
C1094 C 0.59534 0.73728 0.2249 0.0
C1095 C 0.57473 0.71952 0.2356 0.0
H1096 H 0.34859 0.80365 0.32777 0.0
H1097 H 0.31723 0.7456 0.36623 0.0
H1098 H 0.38611 0.77616 0.30621 0.0
H1099 H 0.35321 0.71823 0.34447 0.0
H1100 H 0.46244 0.68087 0.31607 0.0
H1101 H 0.42379 0.70913 0.33567 0.0
H1102 H 0.37847 0.74228 0.28296 0.0
H1103 H 0.41815 0.71383 0.26302 0.0
C1104 C 0.34954 0.78507 0.33165 0.0
C1105 C 0.32973 0.77699 0.34887 0.0
C1106 C 0.37071 0.76923 0.31913 0.0
C1107 C 0.37299 0.74489 0.32356 0.0
C1108 C 0.35271 0.73684 0.34063 0.0
C1109 C 0.33152 0.75259 0.35306 0.0
C1110 C 0.44431 0.69409 0.30848 0.0
C1111 C 0.44347 0.69483 0.28781 0.0
C1112 C 0.42177 0.71032 0.31984 0.0
C1113 C 0.3975 0.72797 0.31101 0.0
C1114 C 0.39693 0.72902 0.29032 0.0
C1115 C 0.41951 0.7126 0.27886 0.0
H1116 H 0.15281 0.70654 0.82299 0.0
H1117 H 0.20575 0.76014 0.86116 0.0
H1118 H 0.1162 0.737 0.80483 0.0
H1119 H 0.1694 0.79084 0.84279 0.0
H1120 H 0.0667 0.83789 0.81674 0.0
H1121 H 0.10348 0.80789 0.83552 0.0
H1122 H 0.12572 0.76813 0.78216 0.0
H1123 H 0.08733 0.7976 0.76358 0.0
C1124 C 0.15699 0.72488 0.82744 0.0
C1125 C 0.18264 0.73077 0.84354 0.0
C1126 C 0.13598 0.74246 0.81693 0.0
C1127 C 0.13992 0.76661 0.82209 0.0
C1128 C 0.16508 0.77249 0.8384 0.0
C1129 C 0.18603 0.75484 0.84899 0.0
C1130 C 0.0795 0.82277 0.80898 0.0
C1131 C 0.07432 0.82041 0.78853 0.0
C1132 C 0.10095 0.80557 0.81978 0.0
C1133 C 0.11785 0.7854 0.81049 0.0
C1134 C 0.11284 0.78316 0.78999 0.0
C1135 C 0.09127 0.80033 0.77921 0.0
loop_
_geom_bond_atom_site_label_1
_geom_bond_atom_site_label_2
_geom_bond_distance
_geom_bond_site_symmetry_2
_ccdc_geom_bond_type
C0 C1 1.264 . S
C0 C5 1.479 . S
C0 C10 1.465 . S
C1 C0 1.264 . S
C1 C3 1.339 . S
C1 H28 0.931 . S
C2 C3 1.395 . S
C2 C4 1.320 . S
C3 C1 1.339 . S
C3 C2 1.395 . S
C3 H29 0.929 . S
C4 C2 1.320 . S
C4 C5 1.405 . S
C4 H30 0.930 . S
C5 C0 1.479 . S
C5 C4 1.405 . S
C5 H31 0.931 . S
U6 O7 2.454 . S
U6 O8 2.458 . S
U6 C9 2.984 . S
U6 C10 2.847 . S
U6 C23 2.882 . S
U6 O24 2.441 . S
U6 O25 2.420 . S
U6 O26 2.455 . S
U6 O27 2.449 . S
O7 U6 2.454 . S
O7 C9 1.353 . S
O8 U6 2.458 . S
O8 C9 1.286 . S
C9 U6 2.984 . S
C9 O7 1.353 . S
C9 O8 1.286 . S
C9 C11 1.363 . S
C10 C0 1.465 . S
C10 U6 2.847 . S
C10 O24 1.249 . S
C10 O25 1.202 . S
C11 C9 1.363 . S
C11 C13 1.408 . S
C11 C16 1.342 . S
C12 C13 1.310 . S
C12 C15 1.461 . S
C12 H32 0.932 . S
C13 C11 1.408 . S
C13 C12 1.310 . S
C13 H33 0.930 . S
C14 C15 1.474 . S
C14 C16 1.285 . S
C14 H34 0.929 . S
C15 C12 1.461 . S
C15 C14 1.474 . S
C16 C11 1.342 . S
C16 C14 1.285 . S
C16 H35 0.930 . S
C17 C20 1.424 . S
C17 C22 1.245 . S
C17 C23 1.428 . S
C18 C21 1.260 . S
C18 C22 1.477 . S
C18 H36 0.932 . S
C19 C20 1.384 . S
C19 C21 1.479 . S
C19 H37 0.929 . S
C20 C17 1.424 . S
C20 C19 1.384 . S
C20 H38 0.928 . S
C21 C18 1.260 . S
C21 C19 1.479 . S
C22 C17 1.245 . S
C22 C18 1.477 . S
C22 H39 0.932 . S
C23 U6 2.882 . S
C23 C17 1.428 . S
C23 O26 1.301 . S
C23 O27 1.282 . S
O24 U6 2.441 . S
O24 C10 1.249 . S
O25 U6 2.420 . S
O25 C10 1.202 . S
O26 U6 2.455 . S
O26 C23 1.301 . S
O27 U6 2.449 . S
O27 C23 1.282 . S
H28 C1 0.931 . S
H29 C3 0.929 . S
H30 C4 0.930 . S
H31 C5 0.931 . S
H32 C12 0.932 . S
H33 C13 0.930 . S
H34 C14 0.929 . S
H35 C16 0.930 . S
H36 C18 0.932 . S
H37 C19 0.929 . S
H38 C20 0.928 . S
H39 C22 0.932 . S
C40 C41 1.264 . S
C40 C45 1.479 . S
C40 C50 1.465 . S
C41 C40 1.264 . S
C41 C43 1.339 . S
C41 H68 0.931 . S
C42 C43 1.395 1_554 S
C42 C44 1.320 . S
C43 C41 1.339 . S
C43 C42 1.395 1_556 S
C43 H69 0.920 1_556 S
C44 C42 1.320 . S
C44 C45 1.405 1_554 S
C44 H70 0.930 . S
C45 C40 1.479 . S
C45 C44 1.405 1_556 S
C45 H71 0.931 . S
U46 O47 2.454 . S
U46 O48 2.458 . S
U46 C49 2.984 . S
U46 C50 2.847 . S
U46 C63 2.882 . S
U46 O64 2.441 . S
U46 O65 2.420 . S
U46 O66 2.455 . S
U46 O67 2.449 . S
O47 U46 2.454 . S
O47 C49 1.353 . S
O48 U46 2.458 . S
O48 C49 1.286 . S
C49 U46 2.984 . S
C49 O47 1.353 . S
C49 O48 1.286 . S
C49 C51 1.363 . S
C50 C40 1.465 . S
C50 U46 2.847 . S
C50 O64 1.249 . S
C50 O65 1.202 . S
C51 C49 1.363 . S
C51 C53 1.408 . S
C51 C56 1.342 . S
C52 C53 1.310 . S
C52 C55 1.461 . S
C52 H72 0.932 . S
C53 C51 1.408 . S
C53 C52 1.310 . S
C53 H73 0.930 . S
C54 C55 1.474 . S
C54 C56 1.285 . S
C54 H74 0.929 . S
C55 C52 1.461 . S
C55 C54 1.474 . S
C56 C51 1.342 . S
C56 C54 1.285 . S
C56 H75 0.930 . S
C57 C60 1.424 . S
C57 C62 1.245 . S
C57 C63 1.428 . S
C58 C61 1.260 . S
C58 C62 1.477 . S
C58 H76 0.932 . S
C59 C60 1.384 . S
C59 C61 1.479 . S
C59 H77 0.929 . S
C60 C57 1.424 . S
C60 C59 1.384 . S
C60 H78 0.928 . S
C61 C58 1.260 . S
C61 C59 1.479 . S
C62 C57 1.245 . S
C62 C58 1.477 . S
C62 H79 0.932 . S
C63 U46 2.882 . S
C63 C57 1.428 . S
C63 O66 1.301 . S
C63 O67 1.282 . S
O64 U46 2.441 . S
O64 C50 1.249 . S
O65 U46 2.420 . S
O65 C50 1.202 . S
O66 U46 2.455 . S
O66 C63 1.301 . S
O67 U46 2.449 . S
O67 C63 1.282 . S
H68 C41 0.931 . S
H69 C43 0.920 1_554 S
H70 C44 0.930 . S
H71 C45 0.931 . S
H72 C52 0.932 . S
H73 C53 0.930 . S
H74 C54 0.929 . S
H75 C56 0.930 . S
H76 C58 0.932 . S
H77 C59 0.929 . S
H78 C60 0.928 . S
H79 C62 0.932 . S
C80 C81 1.264 . S
C80 C85 1.479 . S
C80 C90 1.465 . S
C81 C80 1.264 . S
C81 C83 1.339 . S
C81 H108 0.931 . S
C82 C83 1.395 . S
C82 C84 1.320 . S
C83 C81 1.339 . S
C83 C82 1.395 . S
C83 H109 0.929 . S
C84 C82 1.320 . S
C84 C85 1.405 . S
C84 H110 0.930 . S
C85 C80 1.479 . S
C85 C84 1.405 . S
C85 H111 0.931 . S
U86 O87 2.454 . S
U86 O88 2.458 . S
U86 C89 2.984 . S
U86 C90 2.847 . S
U86 C103 2.882 . S
U86 O104 2.441 . S
U86 O105 2.420 . S
U86 O106 2.455 . S
U86 O107 2.449 . S
O87 U86 2.454 . S
O87 C89 1.353 . S
O88 U86 2.458 . S
O88 C89 1.286 . S
C89 U86 2.984 . S
C89 O87 1.353 . S
C89 O88 1.286 . S
C89 C91 1.363 . S
C90 C80 1.465 . S
C90 U86 2.847 . S
C90 O104 1.249 . S
C90 O105 1.202 . S
C91 C89 1.363 . S
C91 C93 1.408 . S
C91 C96 1.342 . S
C92 C93 1.310 . S
C92 C95 1.461 . S
C92 H112 0.932 . S
C93 C91 1.408 . S
C93 C92 1.310 . S
C93 H113 0.930 . S
C94 C95 1.474 . S
C94 C96 1.285 . S
C94 H114 0.929 . S
C95 C92 1.461 . S
C95 C94 1.474 . S
C96 C91 1.342 . S
C96 C94 1.285 . S
C96 H115 0.930 . S
C97 C100 1.424 . S
C97 C102 1.245 . S
C97 C103 1.428 . S
C98 C101 1.260 . S
C98 C102 1.477 . S
C98 H116 0.932 . S
C99 C100 1.384 . S
C99 C101 1.479 . S
C99 H117 0.929 . S
C100 C97 1.424 . S
C100 C99 1.384 . S
C100 H118 0.928 . S
C101 C98 1.260 . S
C101 C99 1.479 . S
C102 C97 1.245 . S
C102 C98 1.477 . S
C102 H119 0.932 . S
C103 U86 2.882 . S
C103 C97 1.428 . S
C103 O106 1.301 . S
C103 O107 1.282 . S
O104 U86 2.441 . S
O104 C90 1.249 . S
O105 U86 2.420 . S
O105 C90 1.202 . S
O106 U86 2.455 . S
O106 C103 1.301 . S
O107 U86 2.449 . S
O107 C103 1.282 . S
H108 C81 0.931 . S
H109 C83 0.929 . S
H110 C84 0.930 . S
H111 C85 0.931 . S
H112 C92 0.932 . S
H113 C93 0.930 . S
H114 C94 0.929 . S
H115 C96 0.930 . S
H116 C98 0.932 . S
H117 C99 0.929 . S
H118 C100 0.928 . S
H119 C102 0.932 . S
C120 C121 1.264 . S
C120 C125 1.479 . S
C120 C130 1.465 . S
C121 C120 1.264 . S
C121 C123 1.339 . S
C121 H148 0.931 . S
C122 C123 1.395 1_556 S
C122 C124 1.320 1_556 S
C123 C121 1.339 . S
C123 C122 1.395 1_554 S
C123 H149 0.929 . S
C124 C122 1.320 1_554 S
C124 C125 1.405 . S
C124 H150 0.930 1_554 S
C125 C120 1.479 . S
C125 C124 1.405 . S
C125 H151 0.931 . S
U126 O127 2.454 . S
U126 O128 2.458 . S
U126 C129 2.984 . S
U126 C130 2.847 . S
U126 C143 2.882 . S
U126 O144 2.441 . S
U126 O145 2.420 . S
U126 O146 2.455 . S
U126 O147 2.449 . S
O127 U126 2.454 . S
O127 C129 1.353 . S
O128 U126 2.458 . S
O128 C129 1.286 . S
C129 U126 2.984 . S
C129 O127 1.353 . S
C129 O128 1.286 . S
C129 C131 1.363 . S
C130 C120 1.465 . S
C130 U126 2.847 . S
C130 O144 1.249 . S
C130 O145 1.202 . S
C131 C129 1.363 . S
C131 C133 1.408 . S
C131 C136 1.342 . S
C132 C133 1.310 . S
C132 C135 1.461 . S
C132 H152 0.932 . S
C133 C131 1.408 . S
C133 C132 1.310 . S
C133 H153 0.930 . S
C134 C135 1.474 . S
C134 C136 1.285 . S
C134 H154 0.929 . S
C135 C132 1.461 . S
C135 C134 1.474 . S
C136 C131 1.342 . S
C136 C134 1.285 . S
C136 H155 0.930 . S
C137 C140 1.424 . S
C137 C142 1.245 . S
C137 C143 1.428 . S
C138 C141 1.260 . S
C138 C142 1.477 . S
C138 H156 0.932 . S
C139 C140 1.384 . S
C139 C141 1.479 . S
C139 H157 0.929 . S
C140 C137 1.424 . S
C140 C139 1.384 . S
C140 H158 0.928 . S
C141 C138 1.260 . S
C141 C139 1.479 . S
C142 C137 1.245 . S
C142 C138 1.477 . S
C142 H159 0.932 . S
C143 U126 2.882 . S
C143 C137 1.428 . S
C143 O146 1.301 . S
C143 O147 1.282 . S
O144 U126 2.441 . S
O144 C130 1.249 . S
O145 U126 2.420 . S
O145 C130 1.202 . S
O146 U126 2.455 . S
O146 C143 1.301 . S
O147 U126 2.449 . S
O147 C143 1.282 . S
H148 C121 0.931 . S
H149 C123 0.929 . S
H150 C124 0.930 1_556 S
H151 C125 0.931 . S
H152 C132 0.932 . S
H153 C133 0.930 . S
H154 C134 0.929 . S
H155 C136 0.930 . S
H156 C138 0.932 . S
H157 C139 0.929 . S
H158 C140 0.928 . S
H159 C142 0.932 . S
C160 C161 1.264 . S
C160 C165 1.479 . S
C160 C170 1.465 . S
C161 C160 1.264 . S
C161 C163 1.339 . S
C161 H188 0.931 . S
C162 C163 1.395 . S
C162 C164 1.320 . S
C163 C161 1.339 . S
C163 C162 1.395 . S
C163 H189 0.929 . S
C164 C162 1.320 . S
C164 C165 1.405 . S
C164 H190 0.930 . S
C165 C160 1.479 . S
C165 C164 1.405 . S
C165 H191 0.931 . S
U166 O167 2.454 . S
U166 O168 2.458 . S
U166 C169 2.984 . S
U166 C170 2.847 . S
U166 C183 2.882 . S
U166 O184 2.441 . S
U166 O185 2.420 . S
U166 O186 2.455 . S
U166 O187 2.449 . S
O167 U166 2.454 . S
O167 C169 1.353 . S
O168 U166 2.458 . S
O168 C169 1.286 . S
C169 U166 2.984 . S
C169 O167 1.353 . S
C169 O168 1.286 . S
C169 C171 1.363 . S
C170 C160 1.465 . S
C170 U166 2.847 . S
C170 O184 1.249 . S
C170 O185 1.202 . S
C171 C169 1.363 . S
C171 C173 1.408 . S
C171 C176 1.342 . S
C172 C173 1.310 . S
C172 C175 1.461 . S
C172 H192 0.932 . S
C173 C171 1.408 . S
C173 C172 1.310 . S
C173 H193 0.930 . S
C174 C175 1.474 . S
C174 C176 1.285 . S
C174 H194 0.929 . S
C175 C172 1.461 . S
C175 C174 1.474 . S
C176 C171 1.342 . S
C176 C174 1.285 . S
C176 H195 0.930 . S
C177 C180 1.424 . S
C177 C182 1.245 . S
C177 C183 1.428 . S
C178 C181 1.260 . S
C178 C182 1.477 . S
C178 H196 0.932 . S
C179 C180 1.384 . S
C179 C181 1.479 . S
C179 H197 0.929 . S
C180 C177 1.424 . S
C180 C179 1.384 . S
C180 H198 0.928 . S
C181 C178 1.260 . S
C181 C179 1.479 . S
C182 C177 1.245 . S
C182 C178 1.477 . S
C182 H199 0.932 . S
C183 U166 2.882 . S
C183 C177 1.428 . S
C183 O186 1.301 . S
C183 O187 1.282 . S
O184 U166 2.441 . S
O184 C170 1.249 . S
O185 U166 2.420 . S
O185 C170 1.202 . S
O186 U166 2.455 . S
O186 C183 1.301 . S
O187 U166 2.449 . S
O187 C183 1.282 . S
H188 C161 0.931 . S
H189 C163 0.929 . S
H190 C164 0.930 . S
H191 C165 0.931 . S
H192 C172 0.932 . S
H193 C173 0.930 . S
H194 C174 0.929 . S
H195 C176 0.930 . S
H196 C178 0.932 . S
H197 C179 0.929 . S
H198 C180 0.928 . S
H199 C182 0.932 . S
C200 C201 1.264 . S
C200 C205 1.479 . S
C200 C210 1.465 . S
C201 C200 1.264 . S
C201 C203 1.339 . S
C201 H228 0.931 . S
C202 C203 1.395 1_556 S
C202 C204 1.320 . S
C203 C201 1.339 . S
C203 C202 1.395 1_554 S
C203 H229 0.929 1_554 S
C204 C202 1.320 . S
C204 C205 1.405 1_556 S
C204 H230 0.930 . S
C205 C200 1.479 . S
C205 C204 1.405 1_554 S
C205 H231 0.931 . S
U206 O207 2.454 . S
U206 O208 2.458 . S
U206 C209 2.984 . S
U206 C210 2.847 . S
U206 C223 2.882 . S
U206 O224 2.441 . S
U206 O225 2.420 . S
U206 O226 2.455 . S
U206 O227 2.449 . S
O207 U206 2.454 . S
O207 C209 1.353 . S
O208 U206 2.458 . S
O208 C209 1.286 . S
C209 U206 2.984 . S
C209 O207 1.353 . S
C209 O208 1.286 . S
C209 C211 1.363 . S
C210 C200 1.465 . S
C210 U206 2.847 . S
C210 O224 1.249 . S
C210 O225 1.202 . S
C211 C209 1.363 . S
C211 C213 1.408 . S
C211 C216 1.342 . S
C212 C213 1.310 . S
C212 C215 1.461 . S
C212 H232 0.932 . S
C213 C211 1.408 . S
C213 C212 1.310 . S
C213 H233 0.930 . S
C214 C215 1.474 . S
C214 C216 1.285 . S
C214 H234 0.929 . S
C215 C212 1.461 . S
C215 C214 1.474 . S
C216 C211 1.342 . S
C216 C214 1.285 . S
C216 H235 0.930 . S
C217 C220 1.424 . S
C217 C222 1.245 . S
C217 C223 1.428 . S
C218 C221 1.260 . S
C218 C222 1.477 . S
C218 H236 0.932 . S
C219 C220 1.384 . S
C219 C221 1.479 . S
C219 H237 0.929 . S
C220 C217 1.424 . S
C220 C219 1.384 . S
C220 H238 0.928 . S
C221 C218 1.260 . S
C221 C219 1.479 . S
C222 C217 1.245 . S
C222 C218 1.477 . S
C222 H239 0.932 . S
C223 U206 2.882 . S
C223 C217 1.428 . S
C223 O226 1.301 . S
C223 O227 1.282 . S
O224 U206 2.441 . S
O224 C210 1.249 . S
O225 U206 2.420 . S
O225 C210 1.202 . S
O226 U206 2.455 . S
O226 C223 1.301 . S
O227 U206 2.449 . S
O227 C223 1.282 . S
H228 C201 0.931 . S
H229 C203 0.929 1_556 S
H230 C204 0.930 . S
H231 C205 0.931 . S
H232 C212 0.932 . S
H233 C213 0.930 . S
H234 C214 0.929 . S
H235 C216 0.930 . S
H236 C218 0.932 . S
H237 C219 0.929 . S
H238 C220 0.928 . S
H239 C222 0.932 . S
C240 C241 1.264 . S
C240 C245 1.479 . S
C240 C250 1.465 . S
C241 C240 1.264 . S
C241 C243 1.339 . S
C241 H268 0.931 . S
C242 C243 1.395 . S
C242 C244 1.320 . S
C243 C241 1.339 . S
C243 C242 1.395 . S
C243 H269 0.929 . S
C244 C242 1.320 . S
C244 C245 1.405 . S
C244 H270 0.930 . S
C245 C240 1.479 . S
C245 C244 1.405 . S
C245 H271 0.931 . S
U246 O247 2.454 . S
U246 O248 2.458 . S
U246 C249 2.984 . S
U246 C250 2.847 . S
U246 C263 2.882 . S
U246 O264 2.441 . S
U246 O265 2.420 . S
U246 O266 2.455 . S
U246 O267 2.449 . S
O247 U246 2.454 . S
O247 C249 1.353 . S
O248 U246 2.458 . S
O248 C249 1.286 . S
C249 U246 2.984 . S
C249 O247 1.353 . S
C249 O248 1.286 . S
C249 C251 1.363 . S
C250 C240 1.465 . S
C250 U246 2.847 . S
C250 O264 1.249 . S
C250 O265 1.202 . S
C251 C249 1.363 . S
C251 C253 1.408 . S
C251 C256 1.342 . S
C252 C253 1.310 . S
C252 C255 1.461 . S
C252 H272 0.932 . S
C253 C251 1.408 . S
C253 C252 1.310 . S
C253 H273 0.930 . S
C254 C255 1.474 . S
C254 C256 1.285 . S
C254 H274 0.929 . S
C255 C252 1.461 . S
C255 C254 1.474 . S
C256 C251 1.342 . S
C256 C254 1.285 . S
C256 H275 0.930 . S
C257 C260 1.424 . S
C257 C262 1.245 . S
C257 C263 1.428 . S
C258 C261 1.260 . S
C258 C262 1.477 . S
C258 H276 0.932 . S
C259 C260 1.384 . S
C259 C261 1.479 . S
C259 H277 0.929 . S
C260 C257 1.424 . S
C260 C259 1.384 . S
C260 H278 0.928 . S
C261 C258 1.260 . S
C261 C259 1.479 . S
C262 C257 1.245 . S
C262 C258 1.477 . S
C262 H279 0.932 . S
C263 U246 2.882 . S
C263 C257 1.428 . S
C263 O266 1.301 . S
C263 O267 1.282 . S
O264 U246 2.441 . S
O264 C250 1.249 . S
O265 U246 2.420 . S
O265 C250 1.202 . S
O266 U246 2.455 . S
O266 C263 1.301 . S
O267 U246 2.449 . S
O267 C263 1.282 . S
H268 C241 0.931 . S
H269 C243 0.929 . S
H270 C244 0.930 . S
H271 C245 0.931 . S
H272 C252 0.932 . S
H273 C253 0.930 . S
H274 C254 0.929 . S
H275 C256 0.930 . S
H276 C258 0.932 . S
H277 C259 0.929 . S
H278 C260 0.928 . S
H279 C262 0.932 . S
C280 C281 1.264 . S
C280 C285 1.479 . S
C280 C290 1.465 . S
C281 C280 1.264 . S
C281 C283 1.339 . S
C281 H308 0.931 . S
C282 C283 1.395 1_554 S
C282 C284 1.320 1_554 S
C283 C281 1.339 . S
C283 C282 1.395 1_556 S
C283 H309 0.918 1_556 S
C284 C282 1.320 1_556 S
C284 C285 1.405 . S
C284 H310 0.930 1_556 S
C285 C280 1.479 . S
C285 C284 1.405 . S
C285 H311 0.931 . S
U286 O287 2.454 . S
U286 O288 2.458 . S
U286 C289 2.984 . S
U286 C290 2.847 . S
U286 C303 2.882 . S
U286 O304 2.441 . S
U286 O305 2.420 . S
U286 O306 2.455 . S
U286 O307 2.449 . S
O287 U286 2.454 . S
O287 C289 1.353 . S
O288 U286 2.458 . S
O288 C289 1.286 . S
C289 U286 2.984 . S
C289 O287 1.353 . S
C289 O288 1.286 . S
C289 C291 1.363 . S
C290 C280 1.465 . S
C290 U286 2.847 . S
C290 O304 1.249 . S
C290 O305 1.202 . S
C291 C289 1.363 . S
C291 C293 1.408 . S
C291 C296 1.342 . S
C292 C293 1.310 . S
C292 C295 1.461 . S
C292 H312 0.932 . S
C293 C291 1.408 . S
C293 C292 1.310 . S
C293 H313 0.930 . S
C294 C295 1.474 . S
C294 C296 1.285 . S
C294 H314 0.929 . S
C295 C292 1.461 . S
C295 C294 1.474 . S
C296 C291 1.342 . S
C296 C294 1.285 . S
C296 H315 0.930 . S
C297 C300 1.424 . S
C297 C302 1.245 . S
C297 C303 1.428 . S
C298 C301 1.260 . S
C298 C302 1.477 . S
C298 H316 0.932 . S
C299 C300 1.384 . S
C299 C301 1.479 . S
C299 H317 0.929 . S
C300 C297 1.424 . S
C300 C299 1.384 . S
C300 H318 0.928 . S
C301 C298 1.260 . S
C301 C299 1.479 . S
C302 C297 1.245 . S
C302 C298 1.477 . S
C302 H319 0.932 . S
C303 U286 2.882 . S
C303 C297 1.428 . S
C303 O306 1.301 . S
C303 O307 1.282 . S
O304 U286 2.441 . S
O304 C290 1.249 . S
O305 U286 2.420 . S
O305 C290 1.202 . S
O306 U286 2.455 . S
O306 C303 1.301 . S
O307 U286 2.449 . S
O307 C303 1.282 . S
H308 C281 0.931 . S
H309 C283 0.918 1_554 S
H310 C284 0.930 1_554 S
H311 C285 0.931 . S
H312 C292 0.932 . S
H313 C293 0.930 . S
H314 C294 0.929 . S
H315 C296 0.930 . S
H316 C298 0.932 . S
H317 C299 0.929 . S
H318 C300 0.928 . S
H319 C302 0.932 . S
C320 C322 1.422 . S
C320 C324 1.415 . S
C320 N326 1.369 . S
C321 C322 1.421 . S
C321 C323 1.417 . S
C321 C333 1.422 . S
C322 C320 1.422 . S
C322 C321 1.421 . S
C322 N332 1.359 . S
C323 C321 1.417 . S
C323 C325 1.329 . S
C323 H342 0.930 . S
C324 C320 1.415 . S
C324 C325 1.437 . S
C324 C328 1.413 . S
C325 C323 1.329 . S
C325 C324 1.437 . S
C325 H347 0.929 . S
N326 C320 1.369 . S
N326 C327 1.338 . S
N326 Gd331 2.622 . S
C327 N326 1.338 . S
C327 C329 1.378 . S
C327 H339 0.929 . S
C328 C324 1.413 . S
C328 C329 1.348 . S
C328 H344 0.931 . S
C329 C327 1.378 . S
C329 C328 1.348 . S
C329 H345 0.930 . S
Gd330 N350 2.622 . S
Gd330 N357 2.570 . S
Gd330 O364 2.353 . S
Gd330 O365 2.468 . S
Gd330 O366 2.427 . S
Gd330 O368 2.388 . S
Gd330 O369 2.386 . S
Gd330 O373 2.322 . S
Gd330 C383 2.805 . S
Gd331 N326 2.622 . S
Gd331 N332 2.570 . S
Gd331 O363 2.386 . S
Gd331 O367 2.307 1_655 S
Gd331 O370 2.337 1_655 S
Gd331 O371 2.468 . S
Gd331 O372 2.427 . S
Gd331 O374 2.388 . S
Gd331 C395 2.805 . S
N332 C322 1.359 . S
N332 Gd331 2.570 . S
N332 C334 1.343 . S
C333 C321 1.422 . S
C333 C335 1.321 . S
C333 H341 0.931 . S
C334 N332 1.343 . S
C334 C335 1.390 . S
C334 H336 0.931 . S
C335 C333 1.321 . S
C335 C334 1.390 . S
C335 H337 0.930 . S
H336 C334 0.931 . S
H337 C335 0.930 . S
H338 C361 0.931 . S
H339 C327 0.929 . S
H340 C362 0.930 . S
H341 C333 0.931 . S
H342 C323 0.930 . S
H343 C352 0.929 . S
H344 C328 0.931 . S
H345 C329 0.930 . S
H346 C384 0.930 . S
H347 C325 0.929 . S
H348 C353 0.931 . S
H349 C354 0.930 . S
N350 Gd330 2.622 . S
N350 C351 1.369 . S
N350 C352 1.338 . S
C351 N350 1.369 . S
C351 C355 1.415 . S
C351 C358 1.422 . S
C352 H343 0.929 . S
C352 N350 1.338 . S
C352 C354 1.378 . S
C353 H348 0.931 . S
C353 C354 1.348 . S
C353 C355 1.413 . S
C354 H349 0.930 . S
C354 C352 1.378 . S
C354 C353 1.348 . S
C355 C351 1.415 . S
C355 C353 1.413 . S
C355 C385 1.437 . S
H356 C385 0.929 . S
N357 Gd330 2.570 . S
N357 C358 1.359 . S
N357 C361 1.343 . S
C358 C351 1.422 . S
C358 N357 1.359 . S
C358 C360 1.421 . S
C359 C360 1.422 . S
C359 C362 1.321 . S
C359 H386 0.931 . S
C360 C358 1.421 . S
C360 C359 1.422 . S
C360 C384 1.417 . S
C361 H338 0.931 . S
C361 N357 1.343 . S
C361 C362 1.390 . S
C362 H340 0.930 . S
C362 C359 1.321 . S
C362 C361 1.390 . S
O363 Gd331 2.386 . S
O363 C375 1.265 . S
O364 Gd330 2.353 . S
O364 C375 1.242 1_455 S
O365 Gd330 2.468 . S
O365 C383 1.263 . S
O366 Gd330 2.427 . S
O366 C383 1.252 . S
O367 Gd331 2.307 1_455 S
O367 C376 1.261 . S
O368 Gd330 2.388 . S
O368 C376 1.252 . S
O369 Gd330 2.386 . S
O369 C387 1.265 . S
O370 Gd331 2.337 1_455 S
O370 C387 1.262 . S
O371 Gd331 2.468 . S
O371 C395 1.263 . S
O372 Gd331 2.427 . S
O372 C395 1.252 . S
O373 Gd330 2.322 . S
O373 C388 1.244 1_455 S
O374 Gd331 2.388 . S
O374 C388 1.252 . S
C375 O363 1.265 . S
C375 O364 1.242 1_655 S
C376 O367 1.261 . S
C376 O368 1.252 . S
C377 C380 1.394 . S
C377 C382 1.370 . S
C377 C383 1.500 . S
C378 C381 1.383 . S
C378 C382 1.395 . S
C379 C380 1.396 . S
C379 C381 1.365 . S
C379 H396 0.929 . S
C380 C377 1.394 . S
C380 C379 1.396 . S
C380 H397 0.930 . S
C381 C378 1.383 . S
C381 C379 1.365 . S
C381 H398 0.931 . S
C382 C377 1.370 . S
C382 C378 1.395 . S
C382 H399 0.930 . S
C383 Gd330 2.805 . S
C383 O365 1.263 . S
C383 O366 1.252 . S
C383 C377 1.500 . S
C384 H346 0.930 . S
C384 C360 1.417 . S
C384 C385 1.329 . S
C385 C355 1.437 . S
C385 H356 0.929 . S
C385 C384 1.329 . S
H386 C359 0.931 . S
C387 O369 1.265 . S
C387 O370 1.262 . S
C388 O373 1.244 1_655 S
C388 O374 1.252 . S
C389 C392 1.394 . S
C389 C394 1.370 . S
C389 C395 1.500 . S
C390 C393 1.383 . S
C390 C394 1.395 . S
C391 C392 1.396 . S
C391 C393 1.365 . S
C391 H400 0.929 . S
C392 C389 1.394 . S
C392 C391 1.396 . S
C392 H401 0.930 . S
C393 C390 1.383 . S
C393 C391 1.365 . S
C393 H402 0.931 . S
C394 C389 1.370 . S
C394 C390 1.395 . S
C394 H403 0.930 . S
C395 Gd331 2.805 . S
C395 O371 1.263 . S
C395 O372 1.252 . S
C395 C389 1.500 . S
H396 C379 0.929 . S
H397 C380 0.930 . S
H398 C381 0.931 . S
H399 C382 0.930 . S
H400 C391 0.929 . S
H401 C392 0.930 . S
H402 C393 0.931 . S
H403 C394 0.930 . S
C404 C406 1.422 . S
C404 C408 1.415 . S
C404 N410 1.369 . S
C405 C406 1.421 . S
C405 C407 1.417 . S
C405 C417 1.422 . S
C406 C404 1.422 . S
C406 C405 1.421 . S
C406 N416 1.359 . S
C407 C405 1.417 . S
C407 C409 1.329 . S
C407 H426 0.930 . S
C408 C404 1.415 . S
C408 C409 1.437 . S
C408 C412 1.413 . S
C409 C407 1.329 . S
C409 C408 1.437 . S
C409 H431 0.929 . S
N410 C404 1.369 . S
N410 C411 1.338 . S
N410 Gd415 2.622 . S
C411 N410 1.338 . S
C411 C413 1.378 . S
C411 H423 0.929 . S
C412 C408 1.413 . S
C412 C413 1.348 . S
C412 H428 0.931 . S
C413 C411 1.378 . S
C413 C412 1.348 . S
C413 H429 0.930 . S
Gd414 N434 2.622 . S
Gd414 N441 2.570 . S
Gd414 O448 2.353 . S
Gd414 O449 2.468 . S
Gd414 O450 2.427 . S
Gd414 O452 2.388 . S
Gd414 O453 2.386 . S
Gd414 O457 2.307 . S
Gd414 C467 2.805 . S
Gd415 N410 2.622 . S
Gd415 N416 2.570 . S
Gd415 O447 2.386 . S
Gd415 O451 2.307 . S
Gd415 O454 2.353 . S
Gd415 O455 2.468 . S
Gd415 O456 2.427 . S
Gd415 O458 2.388 . S
Gd415 C479 2.805 . S
N416 C406 1.359 . S
N416 Gd415 2.570 . S
N416 C418 1.343 . S
C417 C405 1.422 . S
C417 C419 1.321 . S
C417 H425 0.931 . S
C418 N416 1.343 . S
C418 C419 1.390 . S
C418 H420 0.931 . S
C419 C417 1.321 . S
C419 C418 1.390 . S
C419 H421 0.930 . S
H420 C418 0.931 . S
H421 C419 0.930 . S
H422 C445 0.931 . S
H423 C411 0.929 . S
H424 C446 0.930 . S
H425 C417 0.931 . S
H426 C407 0.930 . S
H427 C436 0.929 . S
H428 C412 0.931 . S
H429 C413 0.930 . S
H430 C468 0.930 . S
H431 C409 0.929 . S
H432 C437 0.931 . S
H433 C438 0.930 . S
N434 Gd414 2.622 . S
N434 C435 1.369 . S
N434 C436 1.338 . S
C435 N434 1.369 . S
C435 C439 1.415 . S
C435 C442 1.422 . S
C436 H427 0.929 . S
C436 N434 1.338 . S
C436 C438 1.378 . S
C437 H432 0.931 . S
C437 C438 1.348 . S
C437 C439 1.413 . S
C438 H433 0.930 . S
C438 C436 1.378 . S
C438 C437 1.348 . S
C439 C435 1.415 . S
C439 C437 1.413 . S
C439 C469 1.437 . S
H440 C469 0.929 . S
N441 Gd414 2.570 . S
N441 C442 1.359 . S
N441 C445 1.343 . S
C442 C435 1.422 . S
C442 N441 1.359 . S
C442 C444 1.421 . S
C443 C444 1.422 . S
C443 C446 1.321 . S
C443 H470 0.931 . S
C444 C442 1.421 . S
C444 C443 1.422 . S
C444 C468 1.417 . S
C445 H422 0.931 . S
C445 N441 1.343 . S
C445 C446 1.390 . S
C446 H424 0.930 . S
C446 C443 1.321 . S
C446 C445 1.390 . S
O447 Gd415 2.386 . S
O447 C459 1.265 . S
O448 Gd414 2.353 . S
O448 C459 1.242 . S
O449 Gd414 2.468 . S
O449 C467 1.263 . S
O450 Gd414 2.427 . S
O450 C467 1.252 . S
O451 Gd415 2.307 . S
O451 C460 1.261 . S
O452 Gd414 2.388 . S
O452 C460 1.252 . S
O453 Gd414 2.386 . S
O453 C471 1.265 . S
O454 Gd415 2.353 . S
O454 C471 1.242 . S
O455 Gd415 2.468 . S
O455 C479 1.263 . S
O456 Gd415 2.427 . S
O456 C479 1.252 . S
O457 Gd414 2.307 . S
O457 C472 1.261 . S
O458 Gd415 2.388 . S
O458 C472 1.252 . S
C459 O447 1.265 . S
C459 O448 1.242 . S
C460 O451 1.261 . S
C460 O452 1.252 . S
C461 C464 1.394 . S
C461 C466 1.370 . S
C461 C467 1.500 . S
C462 C465 1.383 . S
C462 C466 1.395 . S
C463 C464 1.396 . S
C463 C465 1.365 . S
C463 H480 0.929 . S
C464 C461 1.394 . S
C464 C463 1.396 . S
C464 H481 0.930 . S
C465 C462 1.383 . S
C465 C463 1.365 . S
C465 H482 0.931 . S
C466 C461 1.370 . S
C466 C462 1.395 . S
C466 H483 0.930 . S
C467 Gd414 2.805 . S
C467 O449 1.263 . S
C467 O450 1.252 . S
C467 C461 1.500 . S
C468 H430 0.930 . S
C468 C444 1.417 . S
C468 C469 1.329 . S
C469 C439 1.437 . S
C469 H440 0.929 . S
C469 C468 1.329 . S
H470 C443 0.931 . S
C471 O453 1.265 . S
C471 O454 1.242 . S
C472 O457 1.261 . S
C472 O458 1.252 . S
C473 C476 1.394 . S
C473 C478 1.370 . S
C473 C479 1.500 . S
C474 C477 1.383 . S
C474 C478 1.395 . S
C475 C476 1.396 . S
C475 C477 1.365 . S
C475 H484 0.929 . S
C476 C473 1.394 . S
C476 C475 1.396 . S
C476 H485 0.930 . S
C477 C474 1.383 . S
C477 C475 1.365 . S
C477 H486 0.931 . S
C478 C473 1.370 . S
C478 C474 1.395 . S
C478 H487 0.930 . S
C479 Gd415 2.805 . S
C479 O455 1.263 . S
C479 O456 1.252 . S
C479 C473 1.500 . S
H480 C463 0.929 . S
H481 C464 0.930 . S
H482 C465 0.931 . S
H483 C466 0.930 . S
H484 C475 0.929 . S
H485 C476 0.930 . S
H486 C477 0.931 . S
H487 C478 0.930 . S
C488 C490 1.422 . S
C488 C492 1.415 . S
C488 N494 1.369 . S
C489 C490 1.421 . S
C489 C491 1.417 . S
C489 C501 1.422 . S
C490 C488 1.422 . S
C490 C489 1.421 . S
C490 N500 1.359 . S
C491 C489 1.417 . S
C491 C493 1.329 . S
C491 H510 0.930 . S
C492 C488 1.415 . S
C492 C493 1.437 . S
C492 C496 1.413 . S
C493 C491 1.329 . S
C493 C492 1.437 . S
C493 H515 0.929 . S
N494 C488 1.369 . S
N494 C495 1.338 . S
N494 Gd499 2.622 . S
C495 N494 1.338 . S
C495 C497 1.378 . S
C495 H507 0.929 . S
C496 C492 1.413 . S
C496 C497 1.348 . S
C496 H512 0.931 . S
C497 C495 1.378 . S
C497 C496 1.348 . S
C497 H513 0.930 . S
Gd498 N518 2.622 . S
Gd498 N525 2.570 . S
Gd498 O532 2.353 . S
Gd498 O533 2.468 . S
Gd498 O534 2.427 . S
Gd498 O536 2.388 . S
Gd498 O537 2.386 . S
Gd498 O541 2.307 . S
Gd498 C551 2.805 . S
Gd499 N494 2.622 . S
Gd499 N500 2.570 . S
Gd499 O531 2.386 . S
Gd499 O535 2.307 1_655 S
Gd499 O538 2.353 1_655 S
Gd499 O539 2.468 . S
Gd499 O540 2.427 . S
Gd499 O542 2.388 . S
Gd499 C563 2.805 . S
N500 C490 1.359 . S
N500 Gd499 2.570 . S
N500 C502 1.343 . S
C501 C489 1.422 . S
C501 C503 1.321 . S
C501 H509 0.931 . S
C502 N500 1.343 . S
C502 C503 1.390 . S
C502 H504 0.931 . S
C503 C501 1.321 . S
C503 C502 1.390 . S
C503 H505 0.930 . S
H504 C502 0.931 . S
H505 C503 0.930 . S
H506 C529 0.931 . S
H507 C495 0.929 . S
H508 C530 0.930 . S
H509 C501 0.931 . S
H510 C491 0.930 . S
H511 C520 0.929 . S
H512 C496 0.931 . S
H513 C497 0.930 . S
H514 C552 0.930 . S
H515 C493 0.929 . S
H516 C521 0.931 . S
H517 C522 0.930 . S
N518 Gd498 2.622 . S
N518 C519 1.369 . S
N518 C520 1.338 . S
C519 N518 1.369 . S
C519 C523 1.415 . S
C519 C526 1.422 . S
C520 H511 0.929 . S
C520 N518 1.338 . S
C520 C522 1.378 . S
C521 H516 0.931 . S
C521 C522 1.348 . S
C521 C523 1.413 . S
C522 H517 0.930 . S
C522 C520 1.378 . S
C522 C521 1.348 . S
C523 C519 1.415 . S
C523 C521 1.413 . S
C523 C553 1.437 . S
H524 C553 0.929 . S
N525 Gd498 2.570 . S
N525 C526 1.359 . S
N525 C529 1.343 . S
C526 C519 1.422 . S
C526 N525 1.359 . S
C526 C528 1.421 . S
C527 C528 1.422 . S
C527 C530 1.321 . S
C527 H554 0.931 . S
C528 C526 1.421 . S
C528 C527 1.422 . S
C528 C552 1.417 . S
C529 H506 0.931 . S
C529 N525 1.343 . S
C529 C530 1.390 . S
C530 H508 0.930 . S
C530 C527 1.321 . S
C530 C529 1.390 . S
O531 Gd499 2.386 . S
O531 C543 1.265 . S
O532 Gd498 2.353 . S
O532 C543 1.242 1_455 S
O533 Gd498 2.468 . S
O533 C551 1.263 . S
O534 Gd498 2.427 . S
O534 C551 1.252 . S
O535 Gd499 2.307 1_455 S
O535 C544 1.261 . S
O536 Gd498 2.388 . S
O536 C544 1.252 . S
O537 Gd498 2.386 . S
O537 C555 1.265 . S
O538 Gd499 2.353 1_455 S
O538 C555 1.242 . S
O539 Gd499 2.468 . S
O539 C563 1.263 . S
O540 Gd499 2.427 . S
O540 C563 1.252 . S
O541 Gd498 2.307 . S
O541 C556 1.261 1_455 S
O542 Gd499 2.388 . S
O542 C556 1.252 . S
C543 O531 1.265 . S
C543 O532 1.242 1_655 S
C544 O535 1.261 . S
C544 O536 1.252 . S
C545 C548 1.394 . S
C545 C550 1.370 . S
C545 C551 1.500 . S
C546 C549 1.383 . S
C546 C550 1.395 . S
C547 C548 1.396 . S
C547 C549 1.365 . S
C547 H564 0.929 . S
C548 C545 1.394 . S
C548 C547 1.396 . S
C548 H565 0.930 . S
C549 C546 1.383 . S
C549 C547 1.365 . S
C549 H566 0.931 . S
C550 C545 1.370 . S
C550 C546 1.395 . S
C550 H567 0.930 . S
C551 Gd498 2.805 . S
C551 O533 1.263 . S
C551 O534 1.252 . S
C551 C545 1.500 . S
C552 H514 0.930 . S
C552 C528 1.417 . S
C552 C553 1.329 . S
C553 C523 1.437 . S
C553 H524 0.929 . S
C553 C552 1.329 . S
H554 C527 0.931 . S
C555 O537 1.265 . S
C555 O538 1.242 . S
C556 O541 1.261 1_655 S
C556 O542 1.252 . S
C557 C560 1.394 . S
C557 C562 1.370 . S
C557 C563 1.500 . S
C558 C561 1.383 . S
C558 C562 1.395 . S
C559 C560 1.396 . S
C559 C561 1.365 . S
C559 H568 0.929 . S
C560 C557 1.394 . S
C560 C559 1.396 . S
C560 H569 0.930 . S
C561 C558 1.383 . S
C561 C559 1.365 . S
C561 H570 0.931 . S
C562 C557 1.370 . S
C562 C558 1.395 . S
C562 H571 0.930 . S
C563 Gd499 2.805 . S
C563 O539 1.263 . S
C563 O540 1.252 . S
C563 C557 1.500 . S
H564 C547 0.929 . S
H565 C548 0.930 . S
H566 C549 0.931 . S
H567 C550 0.930 . S
H568 C559 0.929 . S
H569 C560 0.930 . S
H570 C561 0.931 . S
H571 C562 0.930 . S
C572 C574 1.422 . S
C572 C576 1.415 . S
C572 N578 1.369 . S
C573 C574 1.421 . S
C573 C575 1.417 . S
C573 C585 1.422 . S
C574 C572 1.422 . S
C574 C573 1.421 . S
C574 N584 1.359 . S
C575 C573 1.417 . S
C575 C577 1.329 . S
C575 H594 0.930 . S
C576 C572 1.415 . S
C576 C577 1.437 . S
C576 C580 1.413 . S
C577 C575 1.329 . S
C577 C576 1.437 . S
C577 H599 0.929 . S
N578 C572 1.369 . S
N578 C579 1.338 . S
N578 Gd583 2.622 . S
C579 N578 1.338 . S
C579 C581 1.378 . S
C579 H591 0.929 . S
C580 C576 1.413 . S
C580 C581 1.348 . S
C580 H596 0.931 . S
C581 C579 1.378 . S
C581 C580 1.348 . S
C581 H597 0.930 . S
Gd582 N602 2.622 . S
Gd582 N609 2.570 . S
Gd582 O616 2.353 . S
Gd582 O617 2.468 . S
Gd582 O618 2.427 . S
Gd582 O620 2.388 . S
Gd582 O621 2.386 . S
Gd582 O625 2.307 . S
Gd582 C635 2.805 . S
Gd583 N578 2.622 . S
Gd583 N584 2.570 . S
Gd583 O615 2.386 . S
Gd583 O619 2.307 . S
Gd583 O622 2.353 . S
Gd583 O623 2.468 . S
Gd583 O624 2.427 . S
Gd583 O626 2.388 . S
Gd583 C647 2.805 . S
N584 C574 1.359 . S
N584 Gd583 2.570 . S
N584 C586 1.343 . S
C585 C573 1.422 . S
C585 C587 1.321 . S
C585 H593 0.931 . S
C586 N584 1.343 . S
C586 C587 1.390 . S
C586 H588 0.931 . S
C587 C585 1.321 . S
C587 C586 1.390 . S
C587 H589 0.930 . S
H588 C586 0.931 . S
H589 C587 0.930 . S
H590 C613 0.931 . S
H591 C579 0.929 . S
H592 C614 0.930 . S
H593 C585 0.931 . S
H594 C575 0.930 . S
H595 C604 0.929 . S
H596 C580 0.931 . S
H597 C581 0.930 . S
H598 C636 0.930 . S
H599 C577 0.929 . S
H600 C605 0.931 . S
H601 C606 0.930 . S
N602 Gd582 2.622 . S
N602 C603 1.369 . S
N602 C604 1.338 . S
C603 N602 1.369 . S
C603 C607 1.415 . S
C603 C610 1.422 . S
C604 H595 0.929 . S
C604 N602 1.338 . S
C604 C606 1.378 . S
C605 H600 0.931 . S
C605 C606 1.348 . S
C605 C607 1.413 . S
C606 H601 0.930 . S
C606 C604 1.378 . S
C606 C605 1.348 . S
C607 C603 1.415 . S
C607 C605 1.413 . S
C607 C637 1.437 . S
H608 C637 0.929 . S
N609 Gd582 2.570 . S
N609 C610 1.359 . S
N609 C613 1.343 . S
C610 C603 1.422 . S
C610 N609 1.359 . S
C610 C612 1.421 . S
C611 C612 1.422 . S
C611 C614 1.321 . S
C611 H638 0.931 . S
C612 C610 1.421 . S
C612 C611 1.422 . S
C612 C636 1.417 . S
C613 H590 0.931 . S
C613 N609 1.343 . S
C613 C614 1.390 . S
C614 H592 0.930 . S
C614 C611 1.321 . S
C614 C613 1.390 . S
O615 Gd583 2.386 . S
O615 C627 1.265 . S
O616 Gd582 2.353 . S
O616 C627 1.242 . S
O617 Gd582 2.468 . S
O617 C635 1.263 . S
O618 Gd582 2.427 . S
O618 C635 1.252 . S
O619 Gd583 2.307 . S
O619 C628 1.261 . S
O620 Gd582 2.388 . S
O620 C628 1.252 . S
O621 Gd582 2.386 . S
O621 C639 1.265 . S
O622 Gd583 2.353 . S
O622 C639 1.242 . S
O623 Gd583 2.468 . S
O623 C647 1.263 . S
O624 Gd583 2.427 . S
O624 C647 1.252 . S
O625 Gd582 2.307 . S
O625 C640 1.261 . S
O626 Gd583 2.388 . S
O626 C640 1.252 . S
C627 O615 1.265 . S
C627 O616 1.242 . S
C628 O619 1.261 . S
C628 O620 1.252 . S
C629 C632 1.394 . S
C629 C634 1.370 . S
C629 C635 1.500 . S
C630 C633 1.383 . S
C630 C634 1.395 . S
C631 C632 1.396 . S
C631 C633 1.365 . S
C631 H648 0.929 . S
C632 C629 1.394 . S
C632 C631 1.396 . S
C632 H649 0.930 . S
C633 C630 1.383 . S
C633 C631 1.365 . S
C633 H650 0.931 . S
C634 C629 1.370 . S
C634 C630 1.395 . S
C634 H651 0.930 . S
C635 Gd582 2.805 . S
C635 O617 1.263 . S
C635 O618 1.252 . S
C635 C629 1.500 . S
C636 H598 0.930 . S
C636 C612 1.417 . S
C636 C637 1.329 . S
C637 C607 1.437 . S
C637 H608 0.929 . S
C637 C636 1.329 . S
H638 C611 0.931 . S
C639 O621 1.265 . S
C639 O622 1.242 . S
C640 O625 1.261 . S
C640 O626 1.252 . S
C641 C644 1.394 . S
C641 C646 1.370 . S
C641 C647 1.500 . S
C642 C645 1.383 . S
C642 C646 1.395 . S
C643 C644 1.396 . S
C643 C645 1.365 . S
C643 H652 0.929 . S
C644 C641 1.394 . S
C644 C643 1.396 . S
C644 H653 0.930 . S
C645 C642 1.383 . S
C645 C643 1.365 . S
C645 H654 0.931 . S
C646 C641 1.370 . S
C646 C642 1.395 . S
C646 H655 0.930 . S
C647 Gd583 2.805 . S
C647 O623 1.263 . S
C647 O624 1.252 . S
C647 C641 1.500 . S
H648 C631 0.929 . S
H649 C632 0.930 . S
H650 C633 0.931 . S
H651 C634 0.930 . S
H652 C643 0.929 . S
H653 C644 0.930 . S
H654 C645 0.931 . S
H655 C646 0.930 . S
H656 C664 0.950 1_565 S
H657 C669 0.950 . S
H658 C666 0.950 . S
H659 C668 0.950 . S
H660 C670 0.950 . S
H661 C672 0.950 . S
H662 C674 0.950 . S
H663 C675 0.950 . S
C664 H656 0.950 1_545 S
C664 C665 1.389 . S
C664 C666 1.391 . S
C665 C664 1.389 . S
C665 C669 1.403 . S
C666 H658 0.950 . S
C666 C664 1.391 . S
C666 C667 1.400 . S
C667 C666 1.400 . S
C667 C668 1.398 . S
C667 C673 1.491 . S
C668 H659 0.950 . S
C668 C667 1.398 . S
C668 C669 1.391 . S
C669 H657 0.950 . S
C669 C665 1.403 . S
C669 C668 1.391 . S
C670 H660 0.950 . S
C670 C671 1.386 . S
C670 C672 1.391 . S
C671 C670 1.386 . S
C671 C675 1.393 . S
C672 H661 0.950 . S
C672 C670 1.391 . S
C672 C673 1.400 . S
C673 C667 1.491 . S
C673 C672 1.400 . S
C673 C674 1.398 . S
C674 H662 0.950 . S
C674 C673 1.398 . S
C674 C675 1.391 . S
C675 H663 0.950 . S
C675 C671 1.393 . S
C675 C674 1.391 . S
H676 C684 0.950 . S
H677 C689 0.950 . S
H678 C686 0.950 . S
H679 C688 0.950 . S
H680 C690 0.950 . S
H681 C692 0.950 . S
H682 C694 0.950 . S
H683 C695 0.950 . S
C684 H676 0.950 . S
C684 C685 1.386 . S
C684 C686 1.391 . S
C685 C684 1.386 . S
C685 C689 1.393 . S
C686 H678 0.950 . S
C686 C684 1.391 . S
C686 C687 1.400 . S
C687 C686 1.400 . S
C687 C688 1.398 . S
C687 C693 1.491 . S
C688 H679 0.950 . S
C688 C687 1.398 . S
C688 C689 1.391 . S
C689 H677 0.950 . S
C689 C685 1.393 . S
C689 C688 1.391 . S
C690 H680 0.950 . S
C690 C691 1.386 . S
C690 C692 1.391 . S
C691 C690 1.386 . S
C691 C695 1.393 . S
C692 H681 0.950 . S
C692 C690 1.391 . S
C692 C693 1.400 . S
C693 C687 1.491 . S
C693 C692 1.400 . S
C693 C694 1.398 . S
C694 H682 0.950 . S
C694 C693 1.398 . S
C694 C695 1.391 . S
C695 H683 0.950 . S
C695 C691 1.393 . S
C695 C694 1.391 . S
H696 C704 0.950 . S
H697 C709 0.950 . S
H698 C706 0.950 . S
H699 C708 0.950 . S
H700 C710 0.950 . S
H701 C712 0.950 . S
H702 C714 0.950 . S
H703 C715 0.950 . S
C704 H696 0.950 . S
C704 C705 1.386 . S
C704 C706 1.391 . S
C705 C704 1.386 . S
C705 C709 1.393 . S
C706 H698 0.950 . S
C706 C704 1.391 . S
C706 C707 1.400 . S
C707 C706 1.400 . S
C707 C708 1.398 . S
C707 C713 1.491 . S
C708 H699 0.950 . S
C708 C707 1.398 . S
C708 C709 1.391 . S
C709 H697 0.950 . S
C709 C705 1.393 . S
C709 C708 1.391 . S
C710 H700 0.950 . S
C710 C711 1.386 . S
C710 C712 1.391 . S
C711 C710 1.386 . S
C711 C715 1.393 . S
C712 H701 0.950 . S
C712 C710 1.391 . S
C712 C713 1.400 . S
C713 C707 1.491 . S
C713 C712 1.400 . S
C713 C714 1.398 . S
C714 H702 0.950 . S
C714 C713 1.398 . S
C714 C715 1.391 . S
C715 H703 0.950 . S
C715 C711 1.393 . S
C715 C714 1.391 . S
H716 C724 0.950 . S
H717 C729 0.950 . S
H718 C726 0.950 . S
H719 C728 0.950 . S
H720 C730 0.950 . S
H721 C732 0.950 . S
H722 C734 0.950 . S
H723 C735 0.950 . S
C724 H716 0.950 . S
C724 C725 1.358 1_545 S
C724 C726 1.391 . S
C725 C724 1.358 1_565 S
C725 C729 1.399 . S
C726 H718 0.950 . S
C726 C724 1.391 . S
C726 C727 1.400 . S
C727 C726 1.400 . S
C727 C728 1.398 . S
C727 C733 1.491 . S
C728 H719 0.950 . S
C728 C727 1.398 . S
C728 C729 1.391 1_545 S
C729 H717 0.950 . S
C729 C725 1.399 . S
C729 C728 1.391 1_565 S
C730 H720 0.950 . S
C730 C731 1.386 . S
C730 C732 1.391 . S
C731 C730 1.386 . S
C731 C735 1.393 . S
C732 H721 0.950 . S
C732 C730 1.391 . S
C732 C733 1.400 . S
C733 C727 1.491 . S
C733 C732 1.400 . S
C733 C734 1.398 . S
C734 H722 0.950 . S
C734 C733 1.398 . S
C734 C735 1.391 . S
C735 H723 0.950 . S
C735 C731 1.393 . S
C735 C734 1.391 . S
H736 C744 0.950 . S
H737 C749 0.950 1_545 S
H738 C746 0.950 . S
H739 C748 0.950 . S
H740 C750 0.950 . S
H741 C752 0.950 . S
H742 C754 0.950 . S
H743 C755 0.950 . S
C744 H736 0.950 . S
C744 C745 1.398 . S
C744 C746 1.391 . S
C745 C744 1.398 . S
C745 C749 1.394 . S
C746 H738 0.950 . S
C746 C744 1.391 . S
C746 C747 1.400 . S
C747 C746 1.400 . S
C747 C748 1.398 . S
C747 C753 1.491 . S
C748 H739 0.950 . S
C748 C747 1.398 . S
C748 C749 1.391 . S
C749 H737 0.950 1_565 S
C749 C745 1.394 . S
C749 C748 1.391 . S
C750 H740 0.950 . S
C750 C751 1.386 . S
C750 C752 1.391 . S
C751 C750 1.386 . S
C751 C755 1.393 . S
C752 H741 0.950 . S
C752 C750 1.391 . S
C752 C753 1.400 . S
C753 C747 1.491 . S
C753 C752 1.400 . S
C753 C754 1.398 . S
C754 H742 0.950 . S
C754 C753 1.398 . S
C754 C755 1.391 . S
C755 H743 0.950 . S
C755 C751 1.393 . S
C755 C754 1.391 . S
H756 C764 0.950 . S
H757 C769 0.950 . S
H758 C766 0.950 . S
H759 C768 0.950 . S
H760 C770 0.950 . S
H761 C772 0.950 . S
H762 C774 0.950 . S
H763 C775 0.950 . S
C764 H756 0.950 . S
C764 C765 1.386 . S
C764 C766 1.391 . S
C765 C764 1.386 . S
C765 C769 1.393 . S
C766 H758 0.950 . S
C766 C764 1.391 . S
C766 C767 1.400 . S
C767 C766 1.400 . S
C767 C768 1.398 . S
C767 C773 1.491 . S
C768 H759 0.950 . S
C768 C767 1.398 . S
C768 C769 1.391 . S
C769 H757 0.950 . S
C769 C765 1.393 . S
C769 C768 1.391 . S
C770 H760 0.950 . S
C770 C771 1.386 . S
C770 C772 1.391 . S
C771 C770 1.386 . S
C771 C775 1.393 . S
C772 H761 0.950 . S
C772 C770 1.391 . S
C772 C773 1.400 . S
C773 C767 1.491 . S
C773 C772 1.400 . S
C773 C774 1.398 . S
C774 H762 0.950 . S
C774 C773 1.398 . S
C774 C775 1.391 . S
C775 H763 0.950 . S
C775 C771 1.393 . S
C775 C774 1.391 . S
H776 C784 0.950 . S
H777 C789 0.950 . S
H778 C786 0.950 . S
H779 C788 0.950 . S
H780 C790 0.950 . S
H781 C792 0.950 . S
H782 C794 0.950 . S
H783 C795 0.950 . S
C784 H776 0.950 . S
C784 C785 1.386 . S
C784 C786 1.391 . S
C785 C784 1.386 . S
C785 C789 1.393 . S
C786 H778 0.950 . S
C786 C784 1.391 . S
C786 C787 1.400 . S
C787 C786 1.400 . S
C787 C788 1.398 . S
C787 C793 1.491 . S
C788 H779 0.950 . S
C788 C787 1.398 . S
C788 C789 1.391 . S
C789 H777 0.950 . S
C789 C785 1.393 . S
C789 C788 1.391 . S
C790 H780 0.950 . S
C790 C791 1.386 . S
C790 C792 1.391 . S
C791 C790 1.386 . S
C791 C795 1.393 . S
C792 H781 0.950 . S
C792 C790 1.391 . S
C792 C793 1.400 . S
C793 C787 1.491 . S
C793 C792 1.400 . S
C793 C794 1.398 . S
C794 H782 0.950 . S
C794 C793 1.398 . S
C794 C795 1.391 . S
C795 H783 0.950 . S
C795 C791 1.393 . S
C795 C794 1.391 . S
H796 C804 0.950 . S
H797 C809 0.950 1_545 S
H798 C806 0.950 . S
H799 C808 0.950 . S
H800 C810 0.950 . S
H801 C812 0.950 . S
H802 C814 0.950 . S
H803 C815 0.950 . S
C804 H796 0.950 . S
C804 C805 1.363 1_565 S
C804 C806 1.391 . S
C805 C804 1.363 1_545 S
C805 C809 1.386 1_545 S
C806 H798 0.950 . S
C806 C804 1.391 . S
C806 C807 1.400 . S
C807 C806 1.400 . S
C807 C808 1.398 . S
C807 C813 1.491 . S
C808 H799 0.950 . S
C808 C807 1.398 . S
C808 C809 1.391 . S
C809 H797 0.950 1_565 S
C809 C805 1.386 1_565 S
C809 C808 1.391 . S
C810 H800 0.950 . S
C810 C811 1.386 . S
C810 C812 1.391 . S
C811 C810 1.386 . S
C811 C815 1.393 . S
C812 H801 0.950 . S
C812 C810 1.391 . S
C812 C813 1.400 . S
C813 C807 1.491 . S
C813 C812 1.400 . S
C813 C814 1.398 . S
C814 H802 0.950 . S
C814 C813 1.398 . S
C814 C815 1.391 . S
C815 H803 0.950 . S
C815 C811 1.393 . S
C815 C814 1.391 . S
H816 C824 0.950 . S
H817 C829 0.950 . S
H818 C826 0.950 . S
H819 C828 0.950 . S
H820 C830 0.950 . S
H821 C832 0.950 . S
H822 C834 0.950 . S
H823 C835 0.950 . S
C824 H816 0.950 . S
C824 C825 1.386 . S
C824 C826 1.391 . S
C825 C824 1.386 . S
C825 C829 1.393 . S
C826 H818 0.950 . S
C826 C824 1.391 . S
C826 C827 1.400 . S
C827 C826 1.400 . S
C827 C828 1.398 . S
C827 C833 1.491 . S
C828 H819 0.950 . S
C828 C827 1.398 . S
C828 C829 1.391 . S
C829 H817 0.950 . S
C829 C825 1.393 . S
C829 C828 1.391 . S
C830 H820 0.950 . S
C830 C831 1.386 . S
C830 C832 1.391 . S
C831 C830 1.386 . S
C831 C835 1.393 . S
C832 H821 0.950 . S
C832 C830 1.391 . S
C832 C833 1.400 . S
C833 C827 1.491 . S
C833 C832 1.400 . S
C833 C834 1.398 . S
C834 H822 0.950 . S
C834 C833 1.398 . S
C834 C835 1.391 . S
C835 H823 0.950 . S
C835 C831 1.393 . S
C835 C834 1.391 . S
H836 C844 0.950 . S
H837 C849 0.950 . S
H838 C846 0.950 . S
H839 C848 0.950 . S
H840 C850 0.950 . S
H841 C852 0.950 . S
H842 C854 0.950 . S
H843 C855 0.950 . S
C844 H836 0.950 . S
C844 C845 1.386 . S
C844 C846 1.391 . S
C845 C844 1.386 . S
C845 C849 1.393 . S
C846 H838 0.950 . S
C846 C844 1.391 . S
C846 C847 1.400 . S
C847 C846 1.400 . S
C847 C848 1.398 . S
C847 C853 1.491 . S
C848 H839 0.950 . S
C848 C847 1.398 . S
C848 C849 1.391 . S
C849 H837 0.950 . S
C849 C845 1.393 . S
C849 C848 1.391 . S
C850 H840 0.950 . S
C850 C851 1.386 . S
C850 C852 1.391 . S
C851 C850 1.386 . S
C851 C855 1.393 . S
C852 H841 0.950 . S
C852 C850 1.391 . S
C852 C853 1.400 . S
C853 C847 1.491 . S
C853 C852 1.400 . S
C853 C854 1.398 . S
C854 H842 0.950 . S
C854 C853 1.398 . S
C854 C855 1.391 . S
C855 H843 0.950 . S
C855 C851 1.393 . S
C855 C854 1.391 . S
H856 C864 0.950 . S
H857 C869 0.950 . S
H858 C866 0.950 . S
H859 C868 0.950 . S
H860 C870 0.950 . S
H861 C872 0.950 . S
H862 C874 0.950 . S
H863 C875 0.950 . S
C864 H856 0.950 . S
C864 C865 1.386 . S
C864 C866 1.391 . S
C865 C864 1.386 . S
C865 C869 1.393 . S
C866 H858 0.950 . S
C866 C864 1.391 . S
C866 C867 1.400 . S
C867 C866 1.400 . S
C867 C868 1.398 . S
C867 C873 1.491 . S
C868 H859 0.950 . S
C868 C867 1.398 . S
C868 C869 1.391 . S
C869 H857 0.950 . S
C869 C865 1.393 . S
C869 C868 1.391 . S
C870 H860 0.950 . S
C870 C871 1.386 . S
C870 C872 1.391 . S
C871 C870 1.386 . S
C871 C875 1.393 . S
C872 H861 0.950 . S
C872 C870 1.391 . S
C872 C873 1.400 . S
C873 C867 1.491 . S
C873 C872 1.400 . S
C873 C874 1.398 . S
C874 H862 0.950 . S
C874 C873 1.398 . S
C874 C875 1.391 . S
C875 H863 0.950 . S
C875 C871 1.393 . S
C875 C874 1.391 . S
H876 C884 0.950 . S
H877 C889 0.950 . S
H878 C886 0.950 . S
H879 C888 0.950 . S
H880 C890 0.950 . S
H881 C892 0.950 . S
H882 C894 0.950 . S
H883 C895 0.950 . S
C884 H876 0.950 . S
C884 C885 1.386 . S
C884 C886 1.391 . S
C885 C884 1.386 . S
C885 C889 1.393 . S
C886 H878 0.950 . S
C886 C884 1.391 . S
C886 C887 1.400 . S
C887 C886 1.400 . S
C887 C888 1.398 . S
C887 C893 1.491 . S
C888 H879 0.950 . S
C888 C887 1.398 . S
C888 C889 1.391 . S
C889 H877 0.950 . S
C889 C885 1.393 . S
C889 C888 1.391 . S
C890 H880 0.950 . S
C890 C891 1.386 . S
C890 C892 1.391 . S
C891 C890 1.386 . S
C891 C895 1.393 . S
C892 H881 0.950 . S
C892 C890 1.391 . S
C892 C893 1.400 . S
C893 C887 1.491 . S
C893 C892 1.400 . S
C893 C894 1.398 . S
C894 H882 0.950 . S
C894 C893 1.398 . S
C894 C895 1.391 . S
C895 H883 0.950 . S
C895 C891 1.393 . S
C895 C894 1.391 . S
H896 C904 0.950 . S
H897 C909 0.950 . S
H898 C906 0.950 . S
H899 C908 0.950 . S
H900 C910 0.950 . S
H901 C912 0.950 . S
H902 C914 0.950 . S
H903 C915 0.950 . S
C904 H896 0.950 . S
C904 C905 1.386 . S
C904 C906 1.391 . S
C905 C904 1.386 . S
C905 C909 1.393 . S
C906 H898 0.950 . S
C906 C904 1.391 . S
C906 C907 1.400 . S
C907 C906 1.400 . S
C907 C908 1.398 . S
C907 C913 1.491 . S
C908 H899 0.950 . S
C908 C907 1.398 . S
C908 C909 1.391 . S
C909 H897 0.950 . S
C909 C905 1.393 . S
C909 C908 1.391 . S
C910 H900 0.950 . S
C910 C911 1.386 . S
C910 C912 1.391 . S
C911 C910 1.386 . S
C911 C915 1.393 . S
C912 H901 0.950 . S
C912 C910 1.391 . S
C912 C913 1.400 . S
C913 C907 1.491 . S
C913 C912 1.400 . S
C913 C914 1.398 . S
C914 H902 0.950 . S
C914 C913 1.398 . S
C914 C915 1.391 . S
C915 H903 0.950 . S
C915 C911 1.393 . S
C915 C914 1.391 . S
H916 C924 0.950 . S
H917 C929 0.950 . S
H918 C926 0.950 . S
H919 C928 0.950 . S
H920 C930 0.950 . S
H921 C932 0.950 . S
H922 C934 0.950 . S
H923 C935 0.950 . S
C924 H916 0.950 . S
C924 C925 1.386 . S
C924 C926 1.391 . S
C925 C924 1.386 . S
C925 C929 1.393 . S
C926 H918 0.950 . S
C926 C924 1.391 . S
C926 C927 1.400 . S
C927 C926 1.400 . S
C927 C928 1.398 . S
C927 C933 1.491 . S
C928 H919 0.950 . S
C928 C927 1.398 . S
C928 C929 1.391 . S
C929 H917 0.950 . S
C929 C925 1.393 . S
C929 C928 1.391 . S
C930 H920 0.950 . S
C930 C931 1.386 . S
C930 C932 1.391 . S
C931 C930 1.386 . S
C931 C935 1.393 . S
C932 H921 0.950 . S
C932 C930 1.391 . S
C932 C933 1.400 . S
C933 C927 1.491 . S
C933 C932 1.400 . S
C933 C934 1.398 . S
C934 H922 0.950 . S
C934 C933 1.398 . S
C934 C935 1.391 . S
C935 H923 0.950 . S
C935 C931 1.393 . S
C935 C934 1.391 . S
H936 C944 0.950 . S
H937 C949 0.950 . S
H938 C946 0.950 . S
H939 C948 0.950 . S
H940 C950 0.950 . S
H941 C952 0.950 . S
H942 C954 0.950 . S
H943 C955 0.950 . S
C944 H936 0.950 . S
C944 C945 1.386 . S
C944 C946 1.391 . S
C945 C944 1.386 . S
C945 C949 1.393 . S
C946 H938 0.950 . S
C946 C944 1.391 . S
C946 C947 1.400 . S
C947 C946 1.400 . S
C947 C948 1.398 . S
C947 C953 1.491 . S
C948 H939 0.950 . S
C948 C947 1.398 . S
C948 C949 1.391 . S
C949 H937 0.950 . S
C949 C945 1.393 . S
C949 C948 1.391 . S
C950 H940 0.950 . S
C950 C951 1.386 . S
C950 C952 1.391 . S
C951 C950 1.386 . S
C951 C955 1.393 . S
C952 H941 0.950 . S
C952 C950 1.391 . S
C952 C953 1.400 . S
C953 C947 1.491 . S
C953 C952 1.400 . S
C953 C954 1.398 . S
C954 H942 0.950 . S
C954 C953 1.398 . S
C954 C955 1.391 . S
C955 H943 0.950 . S
C955 C951 1.393 . S
C955 C954 1.391 . S
H956 C964 0.950 . S
H957 C969 0.950 . S
H958 C966 0.950 . S
H959 C968 0.950 . S
H960 C970 0.950 . S
H961 C972 0.950 . S
H962 C974 0.950 . S
H963 C975 0.950 . S
C964 H956 0.950 . S
C964 C965 1.386 . S
C964 C966 1.391 . S
C965 C964 1.386 . S
C965 C969 1.393 . S
C966 H958 0.950 . S
C966 C964 1.391 . S
C966 C967 1.400 . S
C967 C966 1.400 . S
C967 C968 1.398 . S
C967 C973 1.491 . S
C968 H959 0.950 . S
C968 C967 1.398 . S
C968 C969 1.391 . S
C969 H957 0.950 . S
C969 C965 1.393 . S
C969 C968 1.391 . S
C970 H960 0.950 . S
C970 C971 1.386 . S
C970 C972 1.391 . S
C971 C970 1.386 . S
C971 C975 1.393 . S
C972 H961 0.950 . S
C972 C970 1.391 . S
C972 C973 1.400 . S
C973 C967 1.491 . S
C973 C972 1.400 . S
C973 C974 1.398 . S
C974 H962 0.950 . S
C974 C973 1.398 . S
C974 C975 1.391 . S
C975 H963 0.950 . S
C975 C971 1.393 . S
C975 C974 1.391 . S
H976 C984 0.950 . S
H977 C989 0.950 . S
H978 C986 0.950 . S
H979 C988 0.950 . S
H980 C990 0.950 . S
H981 C992 0.950 . S
H982 C994 0.950 . S
H983 C995 0.950 . S
C984 H976 0.950 . S
C984 C985 1.386 . S
C984 C986 1.391 . S
C985 C984 1.386 . S
C985 C989 1.393 . S
C986 H978 0.950 . S
C986 C984 1.391 . S
C986 C987 1.400 . S
C987 C986 1.400 . S
C987 C988 1.398 . S
C987 C993 1.491 . S
C988 H979 0.950 . S
C988 C987 1.398 . S
C988 C989 1.391 . S
C989 H977 0.950 . S
C989 C985 1.393 . S
C989 C988 1.391 . S
C990 H980 0.950 . S
C990 C991 1.386 . S
C990 C992 1.391 . S
C991 C990 1.386 . S
C991 C995 1.393 . S
C992 H981 0.950 . S
C992 C990 1.391 . S
C992 C993 1.400 . S
C993 C987 1.491 . S
C993 C992 1.400 . S
C993 C994 1.398 . S
C994 H982 0.950 . S
C994 C993 1.398 . S
C994 C995 1.391 . S
C995 H983 0.950 . S
C995 C991 1.393 . S
C995 C994 1.391 . S
H996 C1004 0.950 . S
H997 C1009 0.950 . S
H998 C1006 0.950 . S
H999 C1008 0.950 . S
H1000 C1010 0.950 . S
H1001 C1012 0.950 . S
H1002 C1014 0.950 . S
H1003 C1015 0.950 . S
C1004 H996 0.950 . S
C1004 C1005 1.386 . S
C1004 C1006 1.391 . S
C1005 C1004 1.386 . S
C1005 C1009 1.393 . S
C1006 H998 0.950 . S
C1006 C1004 1.391 . S
C1006 C1007 1.400 . S
C1007 C1006 1.400 . S
C1007 C1008 1.398 . S
C1007 C1013 1.491 . S
C1008 H999 0.950 . S
C1008 C1007 1.398 . S
C1008 C1009 1.391 . S
C1009 H997 0.950 . S
C1009 C1005 1.393 . S
C1009 C1008 1.391 . S
C1010 H1000 0.950 . S
C1010 C1011 1.386 . S
C1010 C1012 1.391 . S
C1011 C1010 1.386 . S
C1011 C1015 1.393 . S
C1012 H1001 0.950 . S
C1012 C1010 1.391 . S
C1012 C1013 1.400 . S
C1013 C1007 1.491 . S
C1013 C1012 1.400 . S
C1013 C1014 1.398 . S
C1014 H1002 0.950 . S
C1014 C1013 1.398 . S
C1014 C1015 1.391 . S
C1015 H1003 0.950 . S
C1015 C1011 1.393 . S
C1015 C1014 1.391 . S
H1016 C1024 0.950 . S
H1017 C1029 0.950 . S
H1018 C1026 0.950 . S
H1019 C1028 0.950 . S
H1020 C1030 0.950 . S
H1021 C1032 0.950 . S
H1022 C1034 0.950 . S
H1023 C1035 0.950 . S
C1024 H1016 0.950 . S
C1024 C1025 1.386 . S
C1024 C1026 1.391 . S
C1025 C1024 1.386 . S
C1025 C1029 1.393 . S
C1026 H1018 0.950 . S
C1026 C1024 1.391 . S
C1026 C1027 1.400 . S
C1027 C1026 1.400 . S
C1027 C1028 1.398 . S
C1027 C1033 1.491 . S
C1028 H1019 0.950 . S
C1028 C1027 1.398 . S
C1028 C1029 1.391 . S
C1029 H1017 0.950 . S
C1029 C1025 1.393 . S
C1029 C1028 1.391 . S
C1030 H1020 0.950 . S
C1030 C1031 1.386 . S
C1030 C1032 1.391 . S
C1031 C1030 1.386 . S
C1031 C1035 1.393 . S
C1032 H1021 0.950 . S
C1032 C1030 1.391 . S
C1032 C1033 1.400 . S
C1033 C1027 1.491 . S
C1033 C1032 1.400 . S
C1033 C1034 1.398 . S
C1034 H1022 0.950 . S
C1034 C1033 1.398 . S
C1034 C1035 1.391 . S
C1035 H1023 0.950 . S
C1035 C1031 1.393 . S
C1035 C1034 1.391 . S
H1036 C1044 0.950 . S
H1037 C1049 0.950 . S
H1038 C1046 0.950 . S
H1039 C1048 0.950 . S
H1040 C1050 0.950 . S
H1041 C1052 0.950 . S
H1042 C1054 0.950 . S
H1043 C1055 0.962 . S
C1044 H1036 0.950 . S
C1044 C1045 1.386 . S
C1044 C1046 1.391 . S
C1045 C1044 1.386 . S
C1045 C1049 1.393 . S
C1046 H1038 0.950 . S
C1046 C1044 1.391 . S
C1046 C1047 1.400 . S
C1047 C1046 1.400 . S
C1047 C1048 1.398 . S
C1047 C1053 1.491 . S
C1048 H1039 0.950 . S
C1048 C1047 1.398 . S
C1048 C1049 1.391 . S
C1049 H1037 0.950 . S
C1049 C1045 1.393 . S
C1049 C1048 1.391 . S
C1050 H1040 0.950 . S
C1050 C1051 1.386 . S
C1050 C1052 1.391 . S
C1051 C1050 1.386 . S
C1051 C1055 1.393 . S
C1052 H1041 0.950 . S
C1052 C1050 1.391 . S
C1052 C1053 1.400 . S
C1053 C1047 1.491 . S
C1053 C1052 1.400 . S
C1053 C1054 1.398 . S
C1054 H1042 0.950 . S
C1054 C1053 1.398 . S
C1054 C1055 1.391 . S
C1055 H1043 0.962 . S
C1055 C1051 1.393 . S
C1055 C1054 1.391 . S
H1056 C1064 0.950 . S
H1057 C1069 0.950 . S
H1058 C1066 0.950 . S
H1059 C1068 0.950 . S
H1060 C1070 0.950 . S
H1061 C1072 0.950 . S
H1062 C1074 0.950 . S
H1063 C1075 0.950 . S
C1064 H1056 0.950 . S
C1064 C1065 1.386 . S
C1064 C1066 1.391 . S
C1065 C1064 1.386 . S
C1065 C1069 1.393 . S
C1066 H1058 0.950 . S
C1066 C1064 1.391 . S
C1066 C1067 1.400 . S
C1067 C1066 1.400 . S
C1067 C1068 1.398 . S
C1067 C1073 1.491 . S
C1068 H1059 0.950 . S
C1068 C1067 1.398 . S
C1068 C1069 1.391 . S
C1069 H1057 0.950 . S
C1069 C1065 1.393 . S
C1069 C1068 1.391 . S
C1070 H1060 0.950 . S
C1070 C1071 1.386 . S
C1070 C1072 1.391 . S
C1071 C1070 1.386 . S
C1071 C1075 1.393 . S
C1072 H1061 0.950 . S
C1072 C1070 1.391 . S
C1072 C1073 1.400 . S
C1073 C1067 1.491 . S
C1073 C1072 1.400 . S
C1073 C1074 1.398 . S
C1074 H1062 0.950 . S
C1074 C1073 1.398 . S
C1074 C1075 1.391 . S
C1075 H1063 0.950 . S
C1075 C1071 1.393 . S
C1075 C1074 1.391 . S
H1076 C1084 0.950 . S
H1077 C1089 0.950 . S
H1078 C1086 0.950 . S
H1079 C1088 0.950 . S
H1080 C1090 0.950 . S
H1081 C1092 0.950 . S
H1082 C1094 0.950 . S
H1083 C1095 0.950 . S
C1084 H1076 0.950 . S
C1084 C1085 1.386 . S
C1084 C1086 1.391 . S
C1085 C1084 1.386 . S
C1085 C1089 1.393 . S
C1086 H1078 0.950 . S
C1086 C1084 1.391 . S
C1086 C1087 1.400 . S
C1087 C1086 1.400 . S
C1087 C1088 1.398 . S
C1087 C1093 1.491 . S
C1088 H1079 0.950 . S
C1088 C1087 1.398 . S
C1088 C1089 1.391 . S
C1089 H1077 0.950 . S
C1089 C1085 1.393 . S
C1089 C1088 1.391 . S
C1090 H1080 0.950 . S
C1090 C1091 1.386 . S
C1090 C1092 1.391 . S
C1091 C1090 1.386 . S
C1091 C1095 1.393 . S
C1092 H1081 0.950 . S
C1092 C1090 1.391 . S
C1092 C1093 1.400 . S
C1093 C1087 1.491 . S
C1093 C1092 1.400 . S
C1093 C1094 1.398 . S
C1094 H1082 0.950 . S
C1094 C1093 1.398 . S
C1094 C1095 1.391 . S
C1095 H1083 0.950 . S
C1095 C1091 1.393 . S
C1095 C1094 1.391 . S
H1096 C1104 0.950 . S
H1097 C1109 0.950 . S
H1098 C1106 0.950 . S
H1099 C1108 0.950 . S
H1100 C1110 0.950 . S
H1101 C1112 0.950 . S
H1102 C1114 0.950 . S
H1103 C1115 0.950 . S
C1104 H1096 0.950 . S
C1104 C1105 1.386 . S
C1104 C1106 1.391 . S
C1105 C1104 1.386 . S
C1105 C1109 1.393 . S
C1106 H1098 0.950 . S
C1106 C1104 1.391 . S
C1106 C1107 1.400 . S
C1107 C1106 1.400 . S
C1107 C1108 1.398 . S
C1107 C1113 1.491 . S
C1108 H1099 0.950 . S
C1108 C1107 1.398 . S
C1108 C1109 1.391 . S
C1109 H1097 0.950 . S
C1109 C1105 1.393 . S
C1109 C1108 1.391 . S
C1110 H1100 0.950 . S
C1110 C1111 1.386 . S
C1110 C1112 1.391 . S
C1111 C1110 1.386 . S
C1111 C1115 1.393 . S
C1112 H1101 0.950 . S
C1112 C1110 1.391 . S
C1112 C1113 1.400 . S
C1113 C1107 1.491 . S
C1113 C1112 1.400 . S
C1113 C1114 1.398 . S
C1114 H1102 0.950 . S
C1114 C1113 1.398 . S
C1114 C1115 1.391 . S
C1115 H1103 0.950 . S
C1115 C1111 1.393 . S
C1115 C1114 1.391 . S
H1116 C1124 0.950 . S
H1117 C1129 0.950 . S
H1118 C1126 0.950 . S
H1119 C1128 0.950 . S
H1120 C1130 0.950 . S
H1121 C1132 0.950 . S
H1122 C1134 0.950 . S
H1123 C1135 0.950 . S
C1124 H1116 0.950 . S
C1124 C1125 1.386 . S
C1124 C1126 1.391 . S
C1125 C1124 1.386 . S
C1125 C1129 1.393 . S
C1126 H1118 0.950 . S
C1126 C1124 1.391 . S
C1126 C1127 1.400 . S
C1127 C1126 1.400 . S
C1127 C1128 1.398 . S
C1127 C1133 1.491 . S
C1128 H1119 0.950 . S
C1128 C1127 1.398 . S
C1128 C1129 1.391 . S
C1129 H1117 0.950 . S
C1129 C1125 1.393 . S
C1129 C1128 1.391 . S
C1130 H1120 0.950 . S
C1130 C1131 1.386 . S
C1130 C1132 1.391 . S
C1131 C1130 1.386 . S
C1131 C1135 1.393 . S
C1132 H1121 0.950 . S
C1132 C1130 1.391 . S
C1132 C1133 1.400 . S
C1133 C1127 1.491 . S
C1133 C1132 1.400 . S
C1133 C1134 1.398 . S
C1134 H1122 0.950 . S
C1134 C1133 1.398 . S
C1134 C1135 1.391 . S
C1135 H1123 0.950 . S
C1135 C1131 1.393 . S
C1135 C1134 1.391 . S
C665 C242 1.439 1_545 S
C671 C376 1.483 . S
C691 C460 1.475 . S
C685 C301 1.491 . S
C711 C459 1.485 . S
C705 C162 1.446 . S
C725 C221 1.509 . S
C731 C375 1.481 . S
C751 C556 1.484 . S
C745 C82 1.479 1_565 S
C771 C640 1.485 . S
C765 C141 1.468 . S
C785 C2 1.482 . S
C791 C639 1.487 . S
C805 C61 1.484 . S
C811 C555 1.479 . S
C831 C378 1.330 . S
C825 C42 1.495 . S
C851 C462 1.316 . S
C845 C21 1.534 . S
C871 C474 1.389 . S
C865 C122 1.515 . S
C891 C390 1.416 . S
C885 C101 1.550 . S
C911 C558 1.362 . S
C905 C202 1.528 . S
C925 C181 1.498 . S
C931 C642 1.352 . S
C951 C630 1.407 . S
C945 C282 1.546 . S
C965 C261 1.514 . S
C971 C546 1.384 . S
C991 C387 1.613 . S
C985 C15 1.601 . S
C1011 C471 1.602 . S
C1005 C55 1.598 . S
C1025 C95 1.595 . S
C1031 C472 1.587 . S
C1051 C388 1.581 . S
C1045 C135 1.576 . S
C1071 C543 1.613 . S
C1065 C175 1.597 . S
C1085 C215 1.599 . S
C1091 C627 1.601 . S
C1105 C255 1.591 . S
C1111 C628 1.582 . S
C1125 C295 1.585 . S
C1131 C544 1.573 . S
