# Generated by pormake.
# Topology cor, (4,6)-cn, num edge types: 1
# Building blocks:
#     Node 0, Type 0, BuildingBlock: TATPOV_clean_sbu_0, # of connection points: 4
#     Node 1, Type 0, BuildingBlock: TATPOV_clean_sbu_0, # of connection points: 4
#     Node 2, Type 0, BuildingBlock: TATPOV_clean_sbu_0, # of connection points: 4
#     Node 3, Type 0, BuildingBlock: TATPOV_clean_sbu_0, # of connection points: 4
#     Node 4, Type 0, BuildingBlock: TATPOV_clean_sbu_0, # of connection points: 4
#     Node 5, Type 0, BuildingBlock: TATPOV_clean_sbu_0, # of connection points: 4
#     Node 6, Type 0, BuildingBlock: TATPOV_clean_sbu_0, # of connection points: 4
#     Node 7, Type 0, BuildingBlock: TATPOV_clean_sbu_0, # of connection points: 4
#     Node 8, Type 0, BuildingBlock: TATPOV_clean_sbu_0, # of connection points: 4
#     Node 9, Type 0, BuildingBlock: TATPOV_clean_sbu_0, # of connection points: 4
#     Node 10, Type 0, BuildingBlock: TATPOV_clean_sbu_0, # of connection points: 4
#     Node 11, Type 0, BuildingBlock: TATPOV_clean_sbu_0, # of connection points: 4
#     Node 12, Type 0, BuildingBlock: TATPOV_clean_sbu_0, # of connection points: 4
#     Node 13, Type 0, BuildingBlock: TATPOV_clean_sbu_0, # of connection points: 4
#     Node 14, Type 0, BuildingBlock: TATPOV_clean_sbu_0, # of connection points: 4
#     Node 15, Type 0, BuildingBlock: TATPOV_clean_sbu_0, # of connection points: 4
#     Node 16, Type 0, BuildingBlock: TATPOV_clean_sbu_0, # of connection points: 4
#     Node 17, Type 0, BuildingBlock: TATPOV_clean_sbu_0, # of connection points: 4
#     Node 18, Type 1, BuildingBlock: MIDCAF_clean_sbu_0, # of connection points: 6
#     Node 19, Type 1, BuildingBlock: MIDCAF_clean_sbu_0, # of connection points: 6
#     Node 20, Type 1, BuildingBlock: MIDCAF_clean_sbu_0, # of connection points: 6
#     Node 21, Type 1, BuildingBlock: MIDCAF_clean_sbu_0, # of connection points: 6
#     Node 22, Type 1, BuildingBlock: MIDCAF_clean_sbu_0, # of connection points: 6
#     Node 23, Type 1, BuildingBlock: MIDCAF_clean_sbu_0, # of connection points: 6
#     Node 24, Type 1, BuildingBlock: MIDCAF_clean_sbu_0, # of connection points: 6
#     Node 25, Type 1, BuildingBlock: MIDCAF_clean_sbu_0, # of connection points: 6
#     Node 26, Type 1, BuildingBlock: MIDCAF_clean_sbu_0, # of connection points: 6
#     Node 27, Type 1, BuildingBlock: MIDCAF_clean_sbu_0, # of connection points: 6
#     Node 28, Type 1, BuildingBlock: MIDCAF_clean_sbu_0, # of connection points: 6
#     Node 29, Type 1, BuildingBlock: MIDCAF_clean_sbu_0, # of connection points: 6
#     Edge 30, Type (0, 1), BuildingBlock: OJICUG_clean_linker_0, # of connection points: 2
#     Edge 31, Type (0, 1), BuildingBlock: OJICUG_clean_linker_0, # of connection points: 2
#     Edge 32, Type (0, 1), BuildingBlock: OJICUG_clean_linker_0, # of connection points: 2
#     Edge 33, Type (0, 1), BuildingBlock: OJICUG_clean_linker_0, # of connection points: 2
#     Edge 34, Type (0, 1), BuildingBlock: OJICUG_clean_linker_0, # of connection points: 2
#     Edge 35, Type (0, 1), BuildingBlock: OJICUG_clean_linker_0, # of connection points: 2
#     Edge 36, Type (0, 1), BuildingBlock: OJICUG_clean_linker_0, # of connection points: 2
#     Edge 37, Type (0, 1), BuildingBlock: OJICUG_clean_linker_0, # of connection points: 2
#     Edge 38, Type (0, 1), BuildingBlock: OJICUG_clean_linker_0, # of connection points: 2
#     Edge 39, Type (0, 1), BuildingBlock: OJICUG_clean_linker_0, # of connection points: 2
#     Edge 40, Type (0, 1), BuildingBlock: OJICUG_clean_linker_0, # of connection points: 2
#     Edge 41, Type (0, 1), BuildingBlock: OJICUG_clean_linker_0, # of connection points: 2
#     Edge 42, Type (0, 1), BuildingBlock: OJICUG_clean_linker_0, # of connection points: 2
#     Edge 43, Type (0, 1), BuildingBlock: OJICUG_clean_linker_0, # of connection points: 2
#     Edge 44, Type (0, 1), BuildingBlock: OJICUG_clean_linker_0, # of connection points: 2
#     Edge 45, Type (0, 1), BuildingBlock: OJICUG_clean_linker_0, # of connection points: 2
#     Edge 46, Type (0, 1), BuildingBlock: OJICUG_clean_linker_0, # of connection points: 2
#     Edge 47, Type (0, 1), BuildingBlock: OJICUG_clean_linker_0, # of connection points: 2
#     Edge 48, Type (0, 1), BuildingBlock: OJICUG_clean_linker_0, # of connection points: 2
#     Edge 49, Type (0, 1), BuildingBlock: OJICUG_clean_linker_0, # of connection points: 2
#     Edge 50, Type (0, 1), BuildingBlock: OJICUG_clean_linker_0, # of connection points: 2
#     Edge 51, Type (0, 1), BuildingBlock: OJICUG_clean_linker_0, # of connection points: 2
#     Edge 52, Type (0, 1), BuildingBlock: OJICUG_clean_linker_0, # of connection points: 2
#     Edge 53, Type (0, 1), BuildingBlock: OJICUG_clean_linker_0, # of connection points: 2
#     Edge 54, Type (0, 1), BuildingBlock: OJICUG_clean_linker_0, # of connection points: 2
#     Edge 55, Type (0, 1), BuildingBlock: OJICUG_clean_linker_0, # of connection points: 2
#     Edge 56, Type (0, 1), BuildingBlock: OJICUG_clean_linker_0, # of connection points: 2
#     Edge 57, Type (0, 1), BuildingBlock: OJICUG_clean_linker_0, # of connection points: 2
#     Edge 58, Type (0, 1), BuildingBlock: OJICUG_clean_linker_0, # of connection points: 2
#     Edge 59, Type (0, 1), BuildingBlock: OJICUG_clean_linker_0, # of connection points: 2
#     Edge 60, Type (0, 1), BuildingBlock: OJICUG_clean_linker_0, # of connection points: 2
#     Edge 61, Type (0, 1), BuildingBlock: OJICUG_clean_linker_0, # of connection points: 2
#     Edge 62, Type (0, 1), BuildingBlock: OJICUG_clean_linker_0, # of connection points: 2
#     Edge 63, Type (0, 1), BuildingBlock: OJICUG_clean_linker_0, # of connection points: 2
#     Edge 64, Type (0, 1), BuildingBlock: OJICUG_clean_linker_0, # of connection points: 2
#     Edge 65, Type (0, 1), BuildingBlock: OJICUG_clean_linker_0, # of connection points: 2
#     Edge 66, Type (0, 1), BuildingBlock: OJICUG_clean_linker_0, # of connection points: 2
#     Edge 67, Type (0, 1), BuildingBlock: OJICUG_clean_linker_0, # of connection points: 2
#     Edge 68, Type (0, 1), BuildingBlock: OJICUG_clean_linker_0, # of connection points: 2
#     Edge 69, Type (0, 1), BuildingBlock: OJICUG_clean_linker_0, # of connection points: 2
#     Edge 70, Type (0, 1), BuildingBlock: OJICUG_clean_linker_0, # of connection points: 2
#     Edge 71, Type (0, 1), BuildingBlock: OJICUG_clean_linker_0, # of connection points: 2
#     Edge 72, Type (0, 1), BuildingBlock: OJICUG_clean_linker_0, # of connection points: 2
#     Edge 73, Type (0, 1), BuildingBlock: OJICUG_clean_linker_0, # of connection points: 2
#     Edge 74, Type (0, 1), BuildingBlock: OJICUG_clean_linker_0, # of connection points: 2
#     Edge 75, Type (0, 1), BuildingBlock: OJICUG_clean_linker_0, # of connection points: 2
#     Edge 76, Type (0, 1), BuildingBlock: OJICUG_clean_linker_0, # of connection points: 2
#     Edge 77, Type (0, 1), BuildingBlock: OJICUG_clean_linker_0, # of connection points: 2
#     Edge 78, Type (0, 1), BuildingBlock: OJICUG_clean_linker_0, # of connection points: 2
#     Edge 79, Type (0, 1), BuildingBlock: OJICUG_clean_linker_0, # of connection points: 2
#     Edge 80, Type (0, 1), BuildingBlock: OJICUG_clean_linker_0, # of connection points: 2
#     Edge 81, Type (0, 1), BuildingBlock: OJICUG_clean_linker_0, # of connection points: 2
#     Edge 82, Type (0, 1), BuildingBlock: OJICUG_clean_linker_0, # of connection points: 2
#     Edge 83, Type (0, 1), BuildingBlock: OJICUG_clean_linker_0, # of connection points: 2
#     Edge 84, Type (0, 1), BuildingBlock: OJICUG_clean_linker_0, # of connection points: 2
#     Edge 85, Type (0, 1), BuildingBlock: OJICUG_clean_linker_0, # of connection points: 2
#     Edge 86, Type (0, 1), BuildingBlock: OJICUG_clean_linker_0, # of connection points: 2
#     Edge 87, Type (0, 1), BuildingBlock: OJICUG_clean_linker_0, # of connection points: 2
#     Edge 88, Type (0, 1), BuildingBlock: OJICUG_clean_linker_0, # of connection points: 2
#     Edge 89, Type (0, 1), BuildingBlock: OJICUG_clean_linker_0, # of connection points: 2
#     Edge 90, Type (0, 1), BuildingBlock: OJICUG_clean_linker_0, # of connection points: 2
#     Edge 91, Type (0, 1), BuildingBlock: OJICUG_clean_linker_0, # of connection points: 2
#     Edge 92, Type (0, 1), BuildingBlock: OJICUG_clean_linker_0, # of connection points: 2
#     Edge 93, Type (0, 1), BuildingBlock: OJICUG_clean_linker_0, # of connection points: 2
#     Edge 94, Type (0, 1), BuildingBlock: OJICUG_clean_linker_0, # of connection points: 2
#     Edge 95, Type (0, 1), BuildingBlock: OJICUG_clean_linker_0, # of connection points: 2
#     Edge 96, Type (0, 1), BuildingBlock: OJICUG_clean_linker_0, # of connection points: 2
#     Edge 97, Type (0, 1), BuildingBlock: OJICUG_clean_linker_0, # of connection points: 2
#     Edge 98, Type (0, 1), BuildingBlock: OJICUG_clean_linker_0, # of connection points: 2
#     Edge 99, Type (0, 1), BuildingBlock: OJICUG_clean_linker_0, # of connection points: 2
#     Edge 100, Type (0, 1), BuildingBlock: OJICUG_clean_linker_0, # of connection points: 2
#     Edge 101, Type (0, 1), BuildingBlock: OJICUG_clean_linker_0, # of connection points: 2
# Relax obj value: 0.149
# Max RMSD: 0.194
# Mean RMSD: 0.171
data_MOF--net-cor--node1-TATPOV_clean_sbu_0--node2-MIDCAF_clean_sbu_0--edge1-OJICUG_clean_linker_0
_symmetry_space_group_name_H-M    P1
_symmetry_Int_Tables_number       1
_symmetry_cell_setting            triclinic
loop_
_symmetry_equiv_pos_as_xyz
'x, y, z'
_cell_length_a     28.358897
_cell_length_b     28.459103
_cell_length_c     71.519542
_cell_angle_alpha  89.853727
_cell_angle_beta   90.93426
_cell_angle_gamma 120.75944
loop_
_atom_site_label
_atom_site_type_symbol
_atom_site_fract_x
_atom_site_fract_y
_atom_site_fract_z
_atom_type_partial_charge
Zn0 Zn 0.75199 0.89601 0.25552 0.0
Zn1 Zn 0.74215 0.98071 0.26553 0.0
O2 O 0.66365 0.91454 0.26819 0.0
O3 O 0.67066 0.84568 0.25756 0.0
O4 O 0.73548 0.04756 0.26638 0.0
O5 O 0.78543 0.92836 0.23026 0.0
O6 O 0.77972 -0.00176 0.23995 0.0
C7 C 0.64218 0.86369 0.26455 0.0
C8 C 0.8028 0.94796 0.29215 0.0
O9 O 0.78727 0.98183 0.28835 0.0
O10 O 0.79496 0.9113 0.28031 0.0
C11 C 0.77946 0.09386 0.26525 0.0
O12 O 0.82712 0.0969 0.26698 0.0
C13 C 0.79312 0.97569 0.22749 0.0
Zn14 Zn 0.9134 0.77108 0.27184 0.0
Zn15 Zn 0.00327 0.77537 0.26003 0.0
O16 O 0.94151 0.69418 0.25901 0.0
O17 O 0.86906 0.6895 0.2717 0.0
O18 O 0.0718 0.76995 0.2586 0.0
O19 O 0.94821 0.81304 0.29585 0.0
O20 O 0.02384 0.82293 0.28425 0.0
C21 C 0.89144 0.66634 0.26379 0.0
C22 C 0.95094 0.81673 0.23364 0.0
O23 O 0.99197 0.81043 0.23648 0.0
O24 O 0.9165 0.80582 0.24651 0.0
C25 C 0.08174 0.75369 0.27402 0.0
O26 O 0.04692 0.7407 0.28771 0.0
C27 C -0.00057 0.8325 0.29715 0.0
Zn28 Zn 0.27035 0.16766 0.26918 0.0
Zn29 Zn 0.28815 0.2649 0.26028 0.0
O30 O 0.36539 0.27312 0.25755 0.0
O31 O 0.34937 0.19292 0.26762 0.0
O32 O 0.29711 0.34058 0.26034 0.0
O33 O 0.2376 0.16313 0.29428 0.0
O34 O 0.25039 0.24305 0.28603 0.0
C35 C 0.38191 0.23968 0.26106 0.0
C36 C 0.22344 0.17213 0.23289 0.0
O37 O 0.24194 0.22235 0.23693 0.0
O38 O 0.228 0.14119 0.24466 0.0
C39 C 0.2531 0.34223 0.26132 0.0
O40 O 0.20559 0.2968 0.25903 0.0
C41 C 0.2342 0.20471 0.2979 0.0
Zn42 Zn 0.25934 0.10662 0.75116 0.0
Zn43 Zn 0.28668 0.0293 0.75051 0.0
O44 O 0.36095 0.09979 0.74799 0.0
O45 O 0.33997 0.16443 0.74675 0.0
O46 O 0.30454 0.97119 0.7539 0.0
O47 O 0.23016 0.08248 0.77847 0.0
O48 O 0.24776 0.01649 0.77524 0.0
C49 C 0.37537 0.1499 0.74608 0.0
C50 C 0.21334 0.02862 0.71917 0.0
O51 O 0.23904 0.00753 0.72673 0.0
O52 O 0.21379 0.06897 0.72697 0.0
C53 C 0.26326 0.92301 0.75435 0.0
O54 O 0.21436 0.91437 0.74984 0.0
C55 C 0.22936 0.04051 0.78499 0.0
Zn56 Zn 0.13165 0.28529 0.75624 0.0
Zn57 Zn 0.03357 0.26271 0.76319 0.0
O58 O 0.0879 0.34322 0.77029 0.0
O59 O 0.17082 0.36435 0.76197 0.0
O60 O 0.96002 0.26063 0.76118 0.0
O61 O 0.11965 0.25351 0.7305 0.0
O62 O 0.03468 0.22475 0.73836 0.0
C63 C 0.13938 0.37715 0.76987 0.0
C64 C 0.08181 0.21981 0.79017 0.0
O65 O 0.03856 0.22143 0.7861 0.0
O66 O 0.12213 0.2405 0.77919 0.0
C67 C 0.94764 0.27258 0.7453 0.0
O68 O 0.9811 0.28318 0.73134 0.0
C69 C 0.06881 0.22468 0.72695 0.0
Zn70 Zn 0.74276 0.86186 0.7574 0.0
Zn71 Zn 0.73344 0.76581 0.75604 0.0
O72 O 0.65325 0.74423 0.76159 0.0
O73 O 0.6631 0.82637 0.76182 0.0
O74 O 0.73258 0.69406 0.75051 0.0
O75 O 0.77236 0.88777 0.73188 0.0
O76 O 0.76131 0.80563 0.7304 0.0
C77 C 0.6334 0.77522 0.76387 0.0
C78 C 0.7951 0.84627 0.78897 0.0
O79 O 0.77946 0.80024 0.78095 0.0
O80 O 0.78775 0.88162 0.78083 0.0
C81 C 0.77388 0.68814 0.7531 0.0
O82 O 0.81855 0.72801 0.76106 0.0
C83 C 0.77418 0.85105 0.7226 0.0
Zn84 Zn 0.38214 0.23781 0.59485 0.0
Zn85 Zn 0.40965 0.3413 0.60118 0.0
O86 O 0.3283 0.3018 0.60835 0.0
O87 O 0.3073 0.21618 0.60464 0.0
O88 O 0.43337 0.42106 0.60261 0.0
O89 O 0.40045 0.25099 0.56698 0.0
O90 O 0.42588 0.33604 0.57331 0.0
C91 C 0.29439 0.25071 0.6097 0.0
C92 C 0.45943 0.28797 0.6256 0.0
O93 O 0.45372 0.32868 0.62184 0.0
O94 O 0.43678 0.24586 0.61515 0.0
C95 C 0.47096 0.45641 0.59224 0.0
O96 O 0.49966 0.44219 0.58198 0.0
C97 C 0.41998 0.29983 0.56156 0.0
Zn98 Zn 0.58405 0.10225 0.60265 0.0
Zn99 Zn 0.66823 0.08924 0.59428 0.0
O100 O 0.59618 0.01582 0.59081 0.0
O101 O 0.52714 0.02238 0.60116 0.0
O102 O 0.7238 0.06528 0.59251 0.0
O103 O 0.62069 0.13947 0.62735 0.0
O104 O 0.69175 0.13329 0.61923 0.0
C105 C 0.54507 0.99442 0.59374 0.0
C106 C 0.64163 0.15103 0.56686 0.0
O107 O 0.67549 0.13609 0.57165 0.0
O108 O 0.6024 0.14202 0.57748 0.0
C109 C 0.72277 0.03416 0.60554 0.0
O110 O 0.68674 0.02041 0.61887 0.0
C111 C 0.6688 0.14905 0.63076 0.0
Zn112 Zn 0.92586 0.50105 0.59063 0.0
Zn113 Zn 0.96234 0.60816 0.58813 0.0
O114 O 0.03091 0.60173 0.58374 0.0
O115 O 0.0016 0.51441 0.58868 0.0
O116 O 0.98789 0.68789 0.59273 0.0
O117 O 0.89303 0.49416 0.61613 0.0
O118 O 0.92106 0.58129 0.61297 0.0
C119 C 0.03957 0.56185 0.58439 0.0
C120 C 0.88998 0.53511 0.55682 0.0
O121 O 0.9149 0.583 0.56403 0.0
O122 O 0.88769 0.49524 0.56564 0.0
C123 C 0.02503 0.73312 0.58618 0.0
O124 O 0.05551 0.73355 0.57247 0.0
C125 C 0.89742 0.53766 0.62249 0.0
Zn126 Zn 0.94146 0.45767 0.10625 0.0
Zn127 Zn 0.95214 0.37339 0.09639 0.0
O128 O 0.03007 0.44002 0.09321 0.0
O129 O 0.02248 0.50868 0.1037 0.0
O130 O 0.95919 0.30672 0.09564 0.0
O131 O 0.9091 0.42606 0.13169 0.0
O132 O 0.9155 0.35651 0.12212 0.0
C133 C 0.05105 0.49097 0.09657 0.0
C134 C 0.88998 0.40452 0.06987 0.0
O135 O 0.90612 0.37116 0.07371 0.0
O136 O 0.8976 0.44128 0.08163 0.0
C137 C 0.91516 0.26048 0.09682 0.0
O138 O 0.86756 0.25758 0.09511 0.0
C139 C 0.90208 0.37904 0.13458 0.0
Zn140 Zn 0.7748 0.58016 0.0898 0.0
Zn141 Zn 0.68494 0.5754 0.10162 0.0
O142 O 0.74661 0.65679 0.10252 0.0
O143 O 0.81895 0.66161 0.08969 0.0
O144 O 0.61621 0.58061 0.10301 0.0
O145 O 0.74029 0.53773 0.0659 0.0
O146 O 0.66441 0.52723 0.07751 0.0
C147 C 0.79656 0.68474 0.09761 0.0
C148 C 0.73793 0.53487 0.12805 0.0
O149 O 0.69663 0.54078 0.12524 0.0
O150 O 0.77231 0.54593 0.11515 0.0
C151 C 0.60625 0.59649 0.08752 0.0
O152 O 0.6411 0.60916 0.07386 0.0
C153 C 0.68899 0.51776 0.06463 0.0
Zn154 Zn 0.42083 0.18242 0.09194 0.0
Zn155 Zn 0.40311 0.08473 0.10055 0.0
O156 O 0.32568 0.07599 0.10337 0.0
O157 O 0.34155 0.1563 0.09347 0.0
O158 O 0.39501 0.00939 0.09982 0.0
O159 O 0.454 0.18793 0.0668 0.0
O160 O 0.44071 0.10775 0.07487 0.0
C161 C 0.30905 0.10937 0.09993 0.0
C162 C 0.46758 0.17678 0.12821 0.0
O163 O 0.44927 0.12669 0.124 0.0
O164 O 0.46287 0.20793 0.11657 0.0
C165 C 0.43938 0.0089 0.09772 0.0
O166 O 0.48657 0.05491 0.09957 0.0
C167 C 0.45717 0.14628 0.06309 0.0
Zn168 Zn 0.08809 0.55337 0.92476 0.0
Zn169 Zn 0.07693 0.63977 0.93244 0.0
O170 O -0.00056 0.57531 0.93762 0.0
O171 O 0.00699 0.50557 0.92819 0.0
O172 O 0.07274 0.70908 0.9316 0.0
O173 O 0.11803 0.57745 0.89861 0.0
O174 O 0.10311 0.64356 0.90549 0.0
C175 C 0.97863 0.52407 0.93495 0.0
C176 C 0.1421 0.61226 0.95978 0.0
O177 O 0.12636 0.64539 0.95496 0.0
O178 O 0.13319 0.5731 0.94898 0.0
C179 C 0.1095 0.7503 0.92271 0.0
O180 O 0.15308 0.74992 0.917 0.0
C181 C 0.11737 0.61987 0.89375 0.0
Zn182 Zn 0.24711 0.4274 0.94003 0.0
Zn183 Zn 0.34438 0.43588 0.93194 0.0
O184 O 0.28529 0.35604 0.92584 0.0
O185 O 0.20546 0.3471 0.93232 0.0
O186 O 0.41445 0.4339 0.9318 0.0
O187 O 0.27376 0.45553 0.96708 0.0
O188 O 0.35298 0.46923 0.95779 0.0
C189 C 0.23307 0.3271 0.92606 0.0
C190 C 0.30937 0.49978 0.90834 0.0
O191 O 0.34593 0.48735 0.91177 0.0
O192 O 0.2667 0.48079 0.91823 0.0
C193 C 0.42049 0.41205 0.94653 0.0
O194 O 0.38107 0.39153 0.95883 0.0
C195 C 0.32436 0.47381 0.97029 0.0
Zn196 Zn 0.61347 0.8298 0.93124 0.0
Zn197 Zn 0.63537 0.93393 0.92894 0.0
O198 O 0.71243 0.94481 0.92545 0.0
O199 O 0.69347 0.85921 0.92584 0.0
O200 O 0.64244 0.00796 0.93163 0.0
O201 O 0.58502 0.82222 0.95802 0.0
O202 O 0.59754 0.90414 0.95389 0.0
C203 C 0.72739 0.90968 0.92355 0.0
C204 C 0.56672 0.85123 0.89818 0.0
O205 O 0.59066 0.89969 0.90485 0.0
O206 O 0.56631 0.81298 0.90748 0.0
C207 C 0.59747 0.00785 0.93195 0.0
O208 O 0.55128 0.96245 0.92795 0.0
C209 C 0.58151 0.86216 0.96401 0.0
Zn210 Zn 0.60187 0.79488 0.4346 0.0
Zn211 Zn 0.61279 0.70949 0.42501 0.0
O212 O 0.69081 0.77524 0.42158 0.0
O213 O 0.68323 0.84402 0.43204 0.0
O214 O 0.61849 0.64167 0.42405 0.0
O215 O 0.57027 0.76467 0.46028 0.0
O216 O 0.58041 0.69685 0.45136 0.0
C217 C 0.71186 0.82611 0.42509 0.0
C218 C 0.54995 0.74065 0.39844 0.0
O219 O 0.56587 0.70726 0.40253 0.0
O220 O 0.55794 0.77804 0.40997 0.0
C221 C 0.57905 0.59814 0.43096 0.0
O222 O 0.53335 0.59662 0.43508 0.0
C223 C 0.56643 0.7192 0.46369 0.0
Zn224 Zn 0.4425 0.92731 0.41911 0.0
Zn225 Zn 0.34713 0.9136 0.43009 0.0
O226 O 0.40352 0.99543 0.43299 0.0
O227 O 0.48311 0.00863 0.42383 0.0
O228 O 0.27593 0.91365 0.43112 0.0
O229 O 0.41173 0.89138 0.39349 0.0
O230 O 0.33273 0.87077 0.40533 0.0
C231 C 0.45496 0.02685 0.43093 0.0
C232 C 0.40022 0.87103 0.45556 0.0
O233 O 0.35885 0.87688 0.45294 0.0
O234 O 0.436 0.88504 0.44295 0.0
C235 C 0.26769 0.93216 0.41592 0.0
O236 O 0.30503 0.94918 0.40291 0.0
C237 C 0.35992 0.86703 0.39205 0.0
Zn238 Zn 0.06777 0.5154 0.4208 0.0
Zn239 Zn 0.05604 0.41825 0.42783 0.0
O240 O 0.97665 0.403 0.43093 0.0
O241 O 0.98837 0.48497 0.4261 0.0
O242 O 0.05221 0.34536 0.42743 0.0
O243 O 0.09506 0.51895 0.39435 0.0
O244 O 0.09191 0.44288 0.40212 0.0
C245 C 0.95783 0.43535 0.43056 0.0
C246 C 0.12285 0.51167 0.45518 0.0
O247 O 0.1029 0.46136 0.45095 0.0
O248 O 0.11687 0.54299 0.44399 0.0
C249 C 0.09744 0.34598 0.4271 0.0
O250 O 0.1437 0.39232 0.42997 0.0
C251 C 0.10328 0.48048 0.39031 0.0
Zn252 Zn 0.98516 0.02044 0.10764 0.0
Zn253 Zn 0.98285 0.02346 0.17394 0.0
Zn254 Zn 0.988 0.01962 0.14286 0.0
C255 C 0.92394 0.92041 0.17012 0.0
C256 C 0.08615 0.05844 0.17189 0.0
O257 O 0.94756 0.06494 0.13305 0.0
O258 O 0.94932 0.0624 0.10221 0.0
C259 C 0.9318 0.91144 0.11771 0.0
O260 O 0.95309 0.93681 0.15527 0.0
O261 O 0.91387 0.95328 0.17838 0.0
O262 O 0.04919 0.02358 0.18218 0.0
O263 O 0.07267 0.06828 0.15566 0.0
O264 O 0.94306 0.94146 0.10353 0.0
O265 O 0.94632 0.93276 0.13417 0.0
O266 O 0.0748 0.06128 0.13521 0.0
O267 O 0.06501 0.05591 0.10443 0.0
C268 C 0.09549 0.0688 0.11884 0.0
O269 O 0.93417 0.05036 0.15326 0.0
O270 O 0.9827 0.09288 0.17813 0.0
C271 C 0.93762 0.07839 0.11688 0.0
C272 C 0.93904 0.07615 0.16867 0.0
Zn273 Zn 0.04642 0.04307 0.35012 0.0
Zn274 Zn 0.04643 0.03968 0.41763 0.0
Zn275 Zn 0.0396 0.03757 0.38169 0.0
C276 C 0.09026 0.14707 0.4076 0.0
C277 C 0.9342 0.98108 0.40612 0.0
O278 O 0.07134 0.98772 0.36946 0.0
O279 O 0.1128 0.0382 0.34515 0.0
C280 C 0.08802 0.14293 0.35561 0.0
O281 O 0.07922 0.1237 0.39142 0.0
O282 O 0.08207 0.11924 0.42223 0.0
O283 O 0.96571 0.99539 0.42031 0.0
O284 O 0.95384 0.99463 0.38963 0.0
O285 O 0.04785 0.11276 0.34501 0.0
O286 O 0.09233 0.12267 0.37126 0.0
O287 O 0.95491 -0.00061 0.36897 0.0
O288 O 0.97809 0.97603 0.343 0.0
C289 C 0.94124 0.97411 0.35307 0.0
O290 O 0.08235 0.9935 0.39019 0.0
O291 O 0.08911 0.0031 0.42091 0.0
C292 C 0.09684 0.99427 0.354 0.0
C293 C 0.09908 0.98582 0.40613 0.0
Zn294 Zn 0.0511 0.00557 0.90729 0.0
Zn295 Zn 0.04185 0.98553 0.84486 0.0
Zn296 Zn 0.04282 0.99566 0.87596 0.0
C297 C 0.09423 0.09314 0.84815 0.0
C298 C 0.93728 0.94014 0.84868 0.0
O299 O 0.08478 0.95139 0.88572 0.0
O300 O 0.04622 0.93604 0.91314 0.0
C301 C 0.11877 0.10536 0.89849 0.0
O302 O 0.07148 0.07702 0.86413 0.0
O303 O 0.09894 0.06009 0.83778 0.0
O304 O 0.97041 0.96984 0.83643 0.0
O305 O 0.95523 0.93976 0.86536 0.0
O306 O 0.12274 0.07418 0.91013 0.0
O307 O 0.08367 0.08413 0.88484 0.0
O308 O 0.95746 0.95321 0.88563 0.0
O309 O 0.98323 0.0088 0.90992 0.0
C310 C 0.94528 0.97411 0.89937 0.0
O311 O 0.1036 0.97358 0.86493 0.0
O312 O 0.05477 0.92365 0.8412 0.0
C313 C 0.07086 0.92451 0.90115 0.0
C314 C 0.10047 0.94789 0.84966 0.0
Zn315 Zn 0.95133 0.93067 0.67046 0.0
Zn316 Zn 0.00225 0.00965 0.60452 0.0
Zn317 Zn 0.99127 0.99047 0.63895 0.0
C318 C 0.0239 0.92465 0.61142 0.0
C319 C 0.07778 0.10635 0.62485 0.0
O320 O 0.02769 0.05669 0.65782 0.0
O321 O 0.96101 0.00646 0.67758 0.0
C322 C 0.87682 0.90052 0.65133 0.0
O323 O 0.0184 0.9355 0.62844 0.0
O324 O 0.01793 0.95072 0.59815 0.0
O325 O 0.064 0.08565 0.60864 0.0
O326 O 0.05324 0.07745 0.63922 0.0
O327 O 0.90228 0.87522 0.65043 0.0
O328 O 0.9033 0.95066 0.64607 0.0
O329 O 0.03908 0.95122 0.6481 0.0
O330 O 0.01501 0.92701 0.67744 0.0
C331 C 0.04894 0.93872 0.66454 0.0
O332 O 0.91247 0.97826 0.62747 0.0
O333 O 0.93037 0.00149 0.59792 0.0
C334 C 0.00029 0.05286 0.67243 0.0
C335 C 0.89783 0.98751 0.61142 0.0
Zn336 Zn 0.66336 0.38128 0.50747 0.0
Zn337 Zn 0.63393 0.34107 0.44736 0.0
Zn338 Zn 0.64547 0.35614 0.47815 0.0
C339 C 0.73907 0.37064 0.45356 0.0
C340 C 0.56521 0.24455 0.4607 0.0
O341 O 0.58111 0.3748 0.48737 0.0
O342 O 0.58838 0.34877 0.51575 0.0
C343 C 0.74496 0.46093 0.49508 0.0
O344 O 0.72841 0.39446 0.46672 0.0
O345 O 0.69997 0.3341 0.44383 0.0
O346 O 0.56021 0.27434 0.44871 0.0
O347 O 0.60368 0.26701 0.47319 0.0
O348 O 0.70549 0.46202 0.50243 0.0
O349 O 0.73341 0.41894 0.48488 0.0
O350 O 0.6266 0.28224 0.49342 0.0
O351 O 0.69827 0.33544 0.51122 0.0
C352 C 0.66259 0.28778 0.5058 0.0
O353 O 0.60167 0.39853 0.46947 0.0
O354 O 0.64011 0.41195 0.442 0.0
C355 C 0.56111 0.35797 0.5038 0.0
C356 C 0.61601 0.42464 0.45388 0.0
Zn357 Zn 0.71601 0.37238 0.74643 0.0
Zn358 Zn 0.71414 0.36871 0.67893 0.0
Zn359 Zn 0.71064 0.37094 0.71065 0.0
C360 C 0.60918 0.30594 0.68256 0.0
C361 C 0.75826 0.47134 0.68269 0.0
O362 O 0.75591 0.32875 0.72 0.0
O363 O 0.7691 0.34725 0.75021 0.0
C364 C 0.60446 0.30721 0.73456 0.0
O365 O 0.62571 0.33358 0.69799 0.0
O366 O 0.64358 0.30264 0.67263 0.0
O367 O 0.71835 0.43883 0.6724 0.0
O368 O 0.7636 0.45418 0.69885 0.0
O369 O 0.63628 0.31648 0.74844 0.0
O370 O 0.62415 0.32911 0.71867 0.0
O371 O 0.75055 0.45877 0.71895 0.0
O372 O 0.74072 0.45159 0.74958 0.0
C373 C 0.75423 0.48073 0.73505 0.0
O374 O 0.74004 0.31701 0.69968 0.0
O375 O 0.77781 0.35965 0.67365 0.0
C376 C 0.77753 0.32708 0.73583 0.0
C377 C 0.76341 0.31885 0.68411 0.0
Zn378 Zn 0.70578 0.33088 0.25369 0.0
Zn379 Zn 0.7095 0.32729 0.18732 0.0
Zn380 Zn 0.70345 0.3314 0.21842 0.0
C381 C 0.76623 0.43092 0.19117 0.0
C382 C 0.60544 0.29009 0.18908 0.0
O383 O 0.74498 0.28742 0.22856 0.0
O384 O 0.74295 0.29036 0.25938 0.0
C385 C 0.7574 0.4397 0.24354 0.0
O386 O 0.73714 0.41397 0.20602 0.0
O387 O 0.77702 0.39869 0.18282 0.0
O388 O 0.64227 0.32443 0.17863 0.0
O389 O 0.61897 0.28139 0.20548 0.0
O390 O 0.74633 0.40988 0.25777 0.0
O391 O 0.74358 0.41819 0.22709 0.0
O392 O 0.61652 0.28848 0.22586 0.0
O393 O 0.62576 0.29395 0.25666 0.0
C394 C 0.5955 0.2806 0.24218 0.0
O395 O 0.75914 0.30245 0.2084 0.0
O396 O 0.71232 0.25924 0.18334 0.0
C397 C 0.75518 0.27454 0.24478 0.0
C398 C 0.75565 0.27692 0.19306 0.0
Zn399 Zn 0.64549 0.30564 1.01185 0.0
Zn400 Zn 0.64604 0.31199 0.94445 0.0
Zn401 Zn 0.65312 0.31267 0.98026 0.0
C402 C 0.60323 0.20447 0.95371 0.0
C403 C 0.7582 0.37025 0.95581 0.0
O404 O 0.6205 0.36145 0.99284 0.0
O405 O 0.57948 0.31078 0.01719 0.0
C406 C 0.60425 0.20617 1.00571 0.0
O407 O 0.61447 0.22708 0.97002 0.0
O408 O 0.61061 0.23286 0.93928 0.0
O409 O 0.72649 0.35623 0.94168 0.0
O410 O 0.73888 0.35638 0.97233 0.0
O411 O 0.64421 0.23579 0.01648 0.0
O412 O 0.60063 0.22711 0.99013 0.0
O413 O 0.73777 0.35132 0.99295 0.0
O414 O 0.71366 0.37245 0.01918 0.0
C415 C 0.75092 0.3758 1.00898 0.0
O416 O 0.60965 0.35609 0.97217 0.0
O417 O 0.6035 0.34859 0.94138 0.0
C418 C 0.5948 0.35452 1.00828 0.0
C419 C 0.59304 0.3646 0.95634 0.0
Zn420 Zn 0.35249 0.76045 0.84053 0.0
Zn421 Zn 0.30955 0.67194 0.78458 0.0
Zn422 Zn 0.3287 0.69888 0.8154 0.0
C423 C 0.41562 0.70178 0.78964 0.0
C424 C 0.24175 0.58352 0.80428 0.0
O425 O 0.26573 0.72223 0.82058 0.0
O426 O 0.28983 0.76633 0.84745 0.0
C427 C 0.44417 0.80081 0.82962 0.0
O428 O 0.40708 0.72708 0.80274 0.0
O429 O 0.3753 0.66454 0.78051 0.0
O430 O 0.23712 0.60844 0.79047 0.0
O431 O 0.28237 0.60946 0.81576 0.0
O432 O 0.41849 0.82609 0.83045 0.0
O433 O 0.41789 0.75116 0.82341 0.0
O434 O 0.30392 0.63587 0.83513 0.0
O435 O 0.35819 0.70058 0.85529 0.0
C436 C 0.32937 0.65021 0.85092 0.0
O437 O 0.29053 0.74141 0.80243 0.0
O438 O 0.30761 0.73325 0.77299 0.0
C439 C 0.2527 0.73778 0.83562 0.0
C440 C 0.29236 0.75449 0.78512 0.0
Zn441 Zn 0.38324 0.70258 0.08665 0.0
Zn442 Zn 0.38385 0.69752 0.0195 0.0
Zn443 Zn 0.37654 0.69812 0.05101 0.0
C444 C 0.27701 0.63885 0.022 0.0
C445 C 0.43541 0.7995 0.02308 0.0
O446 O 0.41694 0.65259 0.06118 0.0
O447 O 0.42761 0.66856 0.09157 0.0
C448 C 0.27109 0.64534 0.07517 0.0
O449 O 0.29225 0.66436 0.03785 0.0
O450 O 0.31196 0.6364 0.01214 0.0
O451 O 0.39553 0.77012 0.01229 0.0
O452 O 0.4362 0.78059 0.03942 0.0
O453 O 0.30273 0.65755 0.08926 0.0
O454 O 0.29061 0.65978 0.05868 0.0
O455 O 0.41916 0.7861 0.05929 0.0
O456 O 0.41681 0.78207 0.09015 0.0
C457 C 0.42784 0.80975 0.07537 0.0
O458 O 0.40027 0.63946 0.04089 0.0
O459 O 0.44272 0.68052 0.01523 0.0
C460 C 0.43573 0.64817 0.07722 0.0
C461 C 0.42346 0.63894 0.02558 0.0
Zn462 Zn 0.35653 0.66475 0.58045 0.0
Zn463 Zn 0.37594 0.6612 0.51497 0.0
Zn464 Zn 0.36576 0.66615 0.54582 0.0
C465 C 0.42711 0.76534 0.51875 0.0
C466 C 0.27125 0.62052 0.51464 0.0
O467 O 0.41515 0.63242 0.5581 0.0
O468 O 0.40356 0.63654 0.5883 0.0
C469 C 0.40166 0.77288 0.57032 0.0
O470 O 0.39598 0.74734 0.5331 0.0
O471 O 0.44141 0.73473 0.51115 0.0
O472 O 0.30891 0.65403 0.50428 0.0
O473 O 0.28326 0.61295 0.53146 0.0
O474 O 0.38419 0.74284 0.58454 0.0
O475 O 0.39824 0.75175 0.55413 0.0
O476 O 0.27752 0.61569 0.55146 0.0
O477 O 0.27738 0.61528 0.58236 0.0
C478 C 0.25151 0.60143 0.56696 0.0
O479 O 0.42684 0.64262 0.53774 0.0
O480 O 0.38244 0.5946 0.5131 0.0
C481 C 0.4239 0.62366 0.57514 0.0
C482 C 0.4257 0.61602 0.52299 0.0
Zn483 Zn 0.30773 0.65089 0.27227 0.0
Zn484 Zn 0.30419 0.64592 0.33972 0.0
Zn485 Zn 0.31376 0.65258 0.30808 0.0
C486 C 0.41154 0.7115 0.33734 0.0
C487 C 0.25607 0.54554 0.33394 0.0
O488 O 0.27152 0.69718 0.29933 0.0
O489 O 0.26263 0.68484 0.26874 0.0
C490 C 0.41978 0.70954 0.28396 0.0
O491 O 0.39821 0.68882 0.321 0.0
O492 O 0.37465 0.70801 0.34777 0.0
O493 O 0.29489 0.57324 0.34532 0.0
O494 O 0.25623 0.5675 0.31811 0.0
O495 O 0.38833 0.69704 0.2698 0.0
O496 O 0.40001 0.69425 0.30038 0.0
O497 O 0.27395 0.56591 0.29834 0.0
O498 O 0.27482 0.57176 0.26752 0.0
C499 C 0.26512 0.54329 0.28206 0.0
O500 O 0.28628 0.70651 0.32003 0.0
O501 O 0.24302 0.65908 0.3447 0.0
C502 C 0.25324 0.70304 0.28341 0.0
C503 C 0.26177 0.70281 0.33549 0.0
C504 C 0.19163 0.09835 0.20876 0.0
C505 C 0.19872 0.1491 0.21423 0.0
H506 H 0.15234 0.03058 0.18977 0.0
C507 C 0.18078 0.17569 0.20197 0.0
H508 H 0.20633 0.07731 0.21756 0.0
C509 C 0.15079 0.14905 0.18564 0.0
C510 C 0.13852 0.09564 0.18143 0.0
H511 H 0.18652 0.21523 0.2056 0.0
H512 H 0.13202 0.16761 0.17754 0.0
C513 C 0.16196 0.07202 0.19254 0.0
C514 C 0.81168 0.97858 0.19325 0.0
C515 C 0.82062 0.0061 0.21037 0.0
H516 H 0.83946 0.98171 0.16542 0.0
C517 C 0.8594 0.06235 0.21134 0.0
H518 H 0.78109 0.9355 0.192 0.0
C519 C 0.89388 0.08867 0.19625 0.0
C520 C 0.88925 0.05943 0.1798 0.0
H521 H 0.86649 0.0848 0.22431 0.0
H522 H 0.92771 0.13024 0.19815 0.0
C523 C 0.84466 0.00549 0.17791 0.0
C524 C 0.89022 0.83158 0.21173 0.0
C525 C 0.94052 0.83411 0.21516 0.0
H526 H 0.84416 0.85456 0.1939 0.0
C527 C 0.97955 0.85339 0.20091 0.0
H528 H 0.85843 0.8156 0.22212 0.0
C529 C 0.97052 0.87467 0.18439 0.0
C530 C 0.92243 0.8771 0.18192 0.0
H531 H 0.01823 0.85491 0.20294 0.0
H532 H 0.00349 0.89413 0.17447 0.0
C533 C 0.8813 0.85272 0.19532 0.0
C534 C 0.16901 0.22273 0.3151 0.0
C535 C 0.20836 0.20677 0.31537 0.0
H536 H 0.09905 0.21607 0.32872 0.0
C537 C 0.21758 0.18594 0.33193 0.0
H538 H 0.16162 0.23948 0.30252 0.0
C539 C 0.18368 0.17521 0.34725 0.0
C540 C 0.13833 0.18256 0.34585 0.0
H541 H 0.24847 0.17432 0.33255 0.0
H542 H 0.1884 0.15392 0.35905 0.0
C543 C 0.13377 0.21019 0.33021 0.0
C544 C 0.83754 0.90682 0.31557 0.0
C545 C 0.82832 0.94938 0.31061 0.0
H546 H 0.87854 0.87985 0.3342 0.0
C547 C 0.84441 0.99286 0.32333 0.0
H548 H 0.82444 0.8719 0.3064 0.0
C549 C 0.8744 -0.00346 0.33964 0.0
C550 C 0.88877 0.95691 0.34338 0.0
H551 H 0.83695 0.02574 0.32013 0.0
H552 H 0.89152 0.03336 0.34811 0.0
C553 C 0.86728 0.91051 0.33179 0.0
C554 C 0.08454 0.91183 0.31134 0.0
C555 C 0.03078 0.86751 0.31338 0.0
H556 H 0.149 0.9873 0.32311 0.0
C557 C 0.00558 0.85925 0.33078 0.0
H558 H 0.1052 0.91884 0.29813 0.0
C559 C 0.03158 0.89706 0.34534 0.0
C560 C 0.0825 0.94513 0.34256 0.0
H561 H 0.96456 0.82484 0.33286 0.0
H562 H 0.00896 0.89132 0.35804 0.0
C563 C 0.10993 0.95067 0.32574 0.0
C564 C 0.81924 0.90133 0.81845 0.0
C565 C 0.81941 0.85918 0.80818 0.0
H566 H 0.85463 0.95828 0.8412 0.0
C567 C 0.84521 0.8328 0.81615 0.0
H568 H 0.79823 0.92148 0.81305 0.0
C569 C 0.87637 0.85325 0.83277 0.0
C570 C 0.88228 0.90034 0.84152 0.0
H571 H 0.84522 0.79958 0.8088 0.0
H572 H 0.90175 0.83688 0.83729 0.0
C573 C 0.85014 0.92149 0.83498 0.0
C574 C 0.17607 0.96001 0.80589 0.0
C575 C 0.20509 0.01707 0.80346 0.0
H576 H 0.12074 0.89274 0.82298 0.0
C577 C 0.21 0.05043 0.81871 0.0
H578 H 0.17227 0.93312 0.79452 0.0
C579 C 0.1832 0.02704 0.83555 0.0
C580 C 0.14842 0.96994 0.83709 0.0
H581 H 0.2333 0.09454 0.81744 0.0
H582 H 0.18528 0.05396 0.84662 0.0
C583 C 0.14744 0.93674 0.82237 0.0
C584 C 0.13794 0.19855 0.81188 0.0
C585 C 0.08787 0.19604 0.80785 0.0
H586 H 0.18015 0.16915 0.82881 0.0
C587 C 0.0451 0.17052 0.82068 0.0
H588 H 0.17247 0.21909 0.80261 0.0
C589 C 0.0506 0.14337 0.8362 0.0
C590 C 0.09864 0.14108 0.8389 0.0
H591 H 0.00651 0.16887 0.8182 0.0
H592 H 0.01523 0.11933 0.84486 0.0
C593 C 0.14313 0.17114 0.82717 0.0
C594 C 0.79179 0.82001 0.69208 0.0
C595 C 0.79155 0.86111 0.70281 0.0
H596 H 0.81669 0.79975 0.66678 0.0
C597 C 0.80943 0.91243 0.69458 0.0
H598 H 0.77716 0.77966 0.69779 0.0
C599 C 0.83163 0.92384 0.67665 0.0
C600 C 0.83676 0.88426 0.66666 0.0
H601 H 0.80879 0.94475 0.70232 0.0
H602 H 0.84862 0.96494 0.67132 0.0
C603 C 0.81386 0.83138 0.67418 0.0
C604 C 0.15352 0.94851 0.69819 0.0
C605 C 0.18163 0.00522 0.7015 0.0
H606 H 0.08877 0.88149 0.68265 0.0
C607 C 0.17605 0.03896 0.68838 0.0
H608 H 0.15745 0.92154 0.70798 0.0
C609 C 0.13909 0.01608 0.67325 0.0
C610 C 0.10537 0.95904 0.67141 0.0
H611 H 0.19797 0.0829 0.69039 0.0
H612 H 0.13156 0.04288 0.66455 0.0
C613 C 0.1151 0.92555 0.68342 0.0
C614 C 0.08602 0.18852 0.69745 0.0
C615 C 0.04915 0.18598 0.71093 0.0
H616 H 0.09923 0.14865 0.67445 0.0
C617 C -0.0055 0.14243 0.71012 0.0
H618 H 0.12835 0.22171 0.69764 0.0
C619 C 0.9781 0.10037 0.69701 0.0
C620 C 0.01574 0.10135 0.68424 0.0
H621 H 0.96501 0.13925 0.72024 0.0
H622 H 0.9363 0.06613 0.69729 0.0
C623 C 0.06935 0.14676 0.68414 0.0
C624 C 0.84403 0.55722 0.53077 0.0
C625 C 0.86425 0.52488 0.53795 0.0
H626 H 0.79082 0.56287 0.51045 0.0
C627 C 0.85683 0.4799 0.52734 0.0
H628 H 0.84999 0.59267 0.53845 0.0
C629 C 0.82462 0.46392 0.51098 0.0
C630 C 0.79805 0.49183 0.50522 0.0
H631 H 0.87339 0.45511 0.53225 0.0
H632 H 0.81551 0.42614 0.50417 0.0
C633 C 0.81092 0.54063 0.51456 0.0
C634 C 0.43573 0.27652 0.52918 0.0
C635 C 0.44167 0.31606 0.54227 0.0
H636 H 0.4676 0.26041 0.50466 0.0
C637 C 0.47455 0.37165 0.53752 0.0
H638 H 0.40991 0.23335 0.53211 0.0
C639 C 0.50728 0.3871 0.52158 0.0
C640 C 0.50742 0.34731 0.51006 0.0
H641 H 0.47917 0.40338 0.54699 0.0
H642 H 0.53789 0.42989 0.51979 0.0
C643 C 0.46785 0.29211 0.51311 0.0
C644 C 0.59956 0.17266 0.53974 0.0
C645 C 0.64667 0.17835 0.54879 0.0
H646 H 0.56762 0.20144 0.51808 0.0
C647 C 0.69821 0.21253 0.54096 0.0
H648 H 0.55916 0.14575 0.54531 0.0
C649 C 0.70298 0.24464 0.52545 0.0
C650 C 0.65618 0.24195 0.51727 0.0
H651 H 0.73508 0.21729 0.54756 0.0
H652 H 0.74358 0.27425 0.52061 0.0
C653 C 0.60422 0.20374 0.52396 0.0
C654 C 0.88312 0.51302 0.65619 0.0
C655 C 0.8731 0.53689 0.64062 0.0
H656 H 0.85654 0.47801 0.6832 0.0
C657 C 0.83473 0.5539 0.64193 0.0
H658 H 0.91306 0.50022 0.65553 0.0
C659 C 0.80151 0.54029 0.65767 0.0
C660 C 0.80738 0.51083 0.67244 0.0
H661 H 0.82663 0.5727 0.63009 0.0
H662 H 0.76737 0.5473 0.65737 0.0
C663 C 0.85142 0.50135 0.67219 0.0
C664 C 0.49959 0.24485 0.64593 0.0
C665 C 0.49053 0.28836 0.64259 0.0
H666 H 0.54297 0.21521 0.66215 0.0
C667 C 0.51112 0.33153 0.6557 0.0
H668 H 0.48349 0.21035 0.63638 0.0
C669 C 0.54397 0.33333 0.67089 0.0
C670 C 0.55721 0.29232 0.67307 0.0
H671 H 0.50391 0.36512 0.65379 0.0
H672 H 0.56327 0.36937 0.67978 0.0
C673 C 0.5327 0.24693 0.66095 0.0
C674 C 0.67241 0.17991 0.66374 0.0
C675 C 0.69976 0.18368 0.64711 0.0
H676 H 0.67332 0.21854 0.68942 0.0
C677 C 0.75457 0.22609 0.64533 0.0
H678 H 0.63029 0.14738 0.66554 0.0
C679 C 0.77906 0.26776 0.65888 0.0
C680 C 0.74962 0.26688 0.67466 0.0
H681 H 0.77665 0.22994 0.63265 0.0
H682 H 0.81903 0.3031 0.65617 0.0
C683 C 0.6975 0.22049 0.67756 0.0
C684 C 0.51095 0.17298 0.15895 0.0
C685 C 0.49235 0.19946 0.1469 0.0
H686 H 0.56042 0.18112 0.18318 0.0
C687 C 0.49897 0.24984 0.1526 0.0
H688 H 0.50563 0.13373 0.15513 0.0
C689 C 0.52882 0.27602 0.16881 0.0
C690 C 0.55289 0.2526 0.17969 0.0
H691 H 0.48377 0.27077 0.14396 0.0
H692 H 0.53807 0.31728 0.17173 0.0
C693 C 0.54111 0.19948 0.17527 0.0
C694 C 0.88247 0.37658 0.16873 0.0
C695 C 0.87496 0.34873 0.15176 0.0
H696 H 0.85332 0.37334 0.19634 0.0
C697 C 0.83772 0.29208 0.15097 0.0
H698 H 0.91187 0.42002 0.16985 0.0
C699 C 0.80316 0.26544 0.16601 0.0
C700 C 0.80617 0.29479 0.18223 0.0
H701 H 0.83174 0.26938 0.13814 0.0
H702 H 0.77038 0.22334 0.16419 0.0
C703 C 0.84942 0.34943 0.18402 0.0
C704 C 0.70951 0.49754 0.16071 0.0
C705 C 0.74864 0.51759 0.14649 0.0
H706 H 0.68578 0.45601 0.18702 0.0
C707 C 0.79926 0.52077 0.14989 0.0
H708 H 0.67056 0.49549 0.15871 0.0
C709 C 0.80842 0.49944 0.1662 0.0
C710 C 0.76722 0.47426 0.17954 0.0
H711 H 0.83113 0.53736 0.13952 0.0
H712 H 0.84585 0.49811 0.16757 0.0
C713 C 0.71878 0.47609 0.17714 0.0
C714 C 0.47499 0.16592 0.02914 0.0
C715 C 0.48318 0.14424 0.04567 0.0
H716 H 0.50504 0.19789 1.00209 0.0
C717 C 0.52146 0.12686 0.04596 0.0
H718 H 0.44488 0.17857 0.02849 0.0
C719 C 0.55679 0.13881 0.03092 0.0
C720 C 0.55335 0.16722 0.01532 0.0
H721 H 0.52798 0.10936 0.05851 0.0
H722 H 0.59078 0.1318 0.03244 0.0
C723 C 0.5089 0.17599 0.01387 0.0
C724 C 0.85429 0.44458 0.04639 0.0
C725 C 0.86423 0.40255 0.05141 0.0
H726 H 0.8126 0.47055 0.02768 0.0
C727 C 0.84886 0.35915 0.03873 0.0
H728 H 0.86685 0.47945 0.05553 0.0
C729 C 0.81882 0.35495 0.02238 0.0
C730 C 0.80369 0.39397 0.01858 0.0
H731 H 0.85693 0.32669 0.04197 0.0
H732 H 0.80221 0.31812 0.01394 0.0
C733 C 0.82449 0.44038 0.03013 0.0
C734 C 0.60479 0.43683 0.05069 0.0
C735 C 0.65785 0.48218 0.0485 0.0
H736 H 0.54177 0.36016 0.03917 0.0
C737 C 0.6829 0.49081 0.03106 0.0
H738 H 0.58428 0.42949 0.06395 0.0
C739 C 0.65761 0.45243 0.01661 0.0
C740 C 0.60763 0.40348 0.01956 0.0
H741 H 0.72338 0.52599 0.02886 0.0
H742 H 0.68025 0.45859 1.00389 0.0
C743 C 0.58014 0.39746 0.03642 0.0
C744 C 0.52041 0.78815 0.87072 0.0
C745 C 0.54222 0.84015 0.87903 0.0
H746 H 0.4747 0.73542 0.84778 0.0
C747 C 0.54161 0.88184 0.86865 0.0
H748 H 0.52145 0.75541 0.8781 0.0
C749 C 0.51551 0.87056 0.8511 0.0
C750 C 0.48923 0.8173 0.84355 0.0
H751 H 0.55926 0.92273 0.87438 0.0
H752 H 0.51222 0.90261 0.8441 0.0
C753 C 0.49456 0.77695 0.8531 0.0
C754 C 0.15095 0.61847 0.86154 0.0
C755 C 0.13721 0.64484 0.87513 0.0
H756 H 0.19584 0.62752 0.83673 0.0
C757 C 0.14748 0.69787 0.87143 0.0
H758 H 0.1425 0.5772 0.86372 0.0
C759 C 0.17831 0.72683 0.85598 0.0
C760 C 0.19836 0.70284 0.84377 0.0
H761 H 0.13599 0.71891 0.88128 0.0
H762 H 0.19183 0.76987 0.85483 0.0
C763 C 0.18053 0.64702 0.84581 0.0
C764 C 0.2697 0.52566 0.88167 0.0
C765 C 0.31567 0.5361 0.89267 0.0
H766 H 0.23852 0.55311 0.85928 0.0
C767 C 0.3668 0.58253 0.88905 0.0
H768 H 0.22988 0.48988 0.88419 0.0
C769 C 0.37133 0.61932 0.87521 0.0
C770 C 0.32522 0.60917 0.86437 0.0
H771 H 0.40271 0.59144 0.89738 0.0
H772 H 0.41079 0.65595 0.87306 0.0
C773 C 0.27463 0.56148 0.8674 0.0
C774 C 0.55808 0.82817 0.99693 0.0
C775 C 0.55491 0.8587 0.98204 0.0
H776 H 0.52515 0.78972 0.02312 0.0
C777 C 0.52227 0.8825 0.98393 0.0
H778 H 0.5836 0.81014 0.99597 0.0
C779 C 0.48804 0.87005 0.99934 0.0
C780 C 0.48722 0.83506 0.01338 0.0
H781 H 0.51941 0.90667 0.97273 0.0
H782 H 0.45831 0.88321 0.99932 0.0
C783 C 0.52542 0.8175 0.01267 0.0
C784 C 0.17091 0.57145 0.98529 0.0
C785 C 0.16744 0.61611 0.97853 0.0
H786 H 0.20597 0.54258 1.00569 0.0
C787 C 0.18829 0.66321 0.98985 0.0
H788 H 0.15396 0.53384 0.97727 0.0
C789 C 0.21724 0.66756 1.00653 0.0
C790 C 0.22548 0.62483 0.01214 0.0
H791 H 0.18536 0.69792 0.98524 0.0
H792 H 0.23819 0.70645 0.01388 0.0
C793 C 0.19936 0.57572 1.00191 0.0
C794 C 0.40961 0.54315 0.98741 0.0
C795 C 0.35241 0.50655 0.98737 0.0
H796 H 0.47792 0.61414 1.00004 0.0
C797 C 0.32255 0.50625 1.00288 0.0
H798 H 0.43409 0.5442 0.97577 0.0
C799 C 0.34844 0.54503 0.01723 0.0
C800 C 0.40424 0.586 0.01601 0.0
H801 H 0.27865 0.47819 1.0034 0.0
H802 H 0.32324 0.54656 0.02817 0.0
C803 C 0.4351 0.58291 1.00145 0.0
C804 C 0.16254 0.58617 0.47926 0.0
C805 C 0.15149 0.53428 0.4734 0.0
H806 H 0.20751 0.65345 0.49813 0.0
C807 C 0.16927 0.50587 0.48487 0.0
H808 H 0.14835 0.60876 0.47107 0.0
C809 C 0.20237 0.5314 0.50076 0.0
C810 C 0.21783 0.58545 0.50539 0.0
H811 H 0.1607 0.46549 0.48091 0.0
H812 H 0.22049 0.51112 0.50822 0.0
C813 C 0.1953 0.61139 0.49506 0.0
C814 C 0.50886 0.63274 0.48135 0.0
C815 C 0.54219 0.69003 0.48133 0.0
H816 H 0.44582 0.56277 0.49546 0.0
C817 C 0.54847 0.71901 0.49793 0.0
H818 H 0.50401 0.60912 0.46888 0.0
C819 C 0.51735 0.69183 0.5136 0.0
C820 C 0.47698 0.63591 0.51245 0.0
H821 H 0.57513 0.76304 0.49847 0.0
H822 H 0.5198 0.71617 0.5256 0.0
C823 C 0.47617 0.60593 0.49673 0.0
C824 C 0.37061 0.83155 0.48786 0.0
C825 C 0.40992 0.85163 0.4737 0.0
H826 H 0.3465 0.79013 0.51416 0.0
C827 C 0.4602 0.85408 0.47706 0.0
H828 H 0.33196 0.83016 0.48589 0.0
C829 C 0.46903 0.83253 0.49336 0.0
C830 C 0.42777 0.80775 0.50671 0.0
H831 H 0.4922 0.87066 0.46674 0.0
H832 H 0.50638 0.83108 0.49479 0.0
C833 C 0.37951 0.80983 0.50427 0.0
C834 C 0.1662 0.46097 0.37217 0.0
C835 C 0.13084 0.48196 0.37271 0.0
H836 H 0.23426 0.46369 0.35849 0.0
C837 C 0.12702 0.50962 0.35702 0.0
H838 H 0.16957 0.43892 0.384 0.0
C839 C 0.1622 0.52133 0.34197 0.0
C840 C 0.20334 0.50761 0.34276 0.0
H841 H 0.09938 0.52536 0.35691 0.0
H842 H 0.16195 0.54752 0.33099 0.0
C843 C 0.20263 0.47425 0.3574 0.0
C844 C 0.51582 0.78078 0.37438 0.0
C845 C 0.52433 0.73815 0.37988 0.0
H846 H 0.47557 0.80721 0.35518 0.0
C847 C 0.50786 0.69376 0.36753 0.0
H848 H 0.52925 0.81638 0.38323 0.0
C849 C 0.47812 0.68935 0.35108 0.0
C850 C 0.46446 0.7292 0.34677 0.0
H851 H 0.51481 0.66078 0.37115 0.0
H852 H 0.46055 0.65189 0.34294 0.0
C853 C 0.4864 0.77641 0.35799 0.0
C854 C 0.27499 0.79029 0.37676 0.0
C855 C 0.33052 0.83174 0.37556 0.0
H856 H 0.2086 0.71686 0.36455 0.0
C857 C 0.35828 0.83664 0.35892 0.0
H858 H 0.25216 0.78568 0.38931 0.0
C859 C 0.33251 0.79835 0.34442 0.0
C860 C 0.27893 0.75337 0.34649 0.0
H861 H 0.40078 0.86859 0.35743 0.0
H862 H 0.35665 0.80112 0.33244 0.0
C863 C 0.24966 0.75119 0.36246 0.0
C864 C 0.22983 0.12252 0.0949 0.0
C865 C 0.25366 0.09718 0.10493 0.0
H866 H 0.16155 0.13438 0.09183 0.0
C867 C 0.22729 0.0665 0.12087 0.0
H868 H 0.24959 0.14702 0.0827 0.0
C869 C 0.17747 0.06086 0.12651 0.0
C870 C 0.15312 0.08504 0.11606 0.0
H871 H 0.24552 0.04764 0.1291 0.0
H872 H 0.15684 0.03564 0.13848 0.0
C873 C 0.17994 0.11609 0.10029 0.0
C874 C 0.95422 0.21748 0.11739 0.0
C875 C 0.91718 0.21222 0.10311 0.0
H876 H 0.9872 0.17743 0.13382 0.0
C877 C 0.88099 0.16038 0.09545 0.0
H878 H 0.98174 0.25695 0.12378 0.0
C879 C 0.88471 0.11518 0.10099 0.0
C880 C 0.923 0.12079 0.11484 0.0
H881 H 0.85163 0.15533 0.0846 0.0
H882 H 0.85918 0.07628 0.09396 0.0
C883 C 0.95654 0.17191 0.12341 0.0
C884 C 0.87892 0.77689 0.09329 0.0
C885 C 0.8307 0.74284 0.10301 0.0
H886 H 0.94912 0.85699 0.09067 0.0
C887 C 0.81831 0.7636 0.11886 0.0
H888 H 0.88985 0.76187 0.08118 0.0
C889 C 0.85337 0.81787 0.12467 0.0
C890 C 0.90055 0.8521 0.11448 0.0
H891 H 0.78187 0.73781 0.12683 0.0
H892 H 0.84246 0.83362 0.13657 0.0
C893 C 0.91313 0.83106 0.09884 0.0
C894 C 0.13633 0.28461 0.42941 0.0
C895 C 0.09886 0.2971 0.42113 0.0
H896 H 0.16303 0.22646 0.43153 0.0
C897 C 0.06419 0.26372 0.40655 0.0
H898 H 0.16393 0.31014 0.44053 0.0
C899 C 0.06568 0.21756 0.40075 0.0
C900 C 0.10065 0.20308 0.40985 0.0
H901 H 0.03571 0.27317 0.39969 0.0
H902 H 0.03688 0.19122 0.39002 0.0
C903 C 0.1364 0.23732 0.42409 0.0
C904 C 0.79852 0.91486 0.42996 0.0
C905 C 0.76864 0.86575 0.41985 0.0
H906 H 0.87468 0.99028 0.43328 0.0
C907 C 0.79198 0.85704 0.40401 0.0
H908 H 0.78125 0.9228 0.44211 0.0
C909 C 0.84486 0.8967 0.39854 0.0
C910 C 0.87529 0.9448 0.40914 0.0
H911 H 0.76924 0.81987 0.39579 0.0
H912 H 0.86282 0.8887 0.38661 0.0
C913 C 0.85161 0.95366 0.4248 0.0
C914 C 0.18486 0.93219 0.42773 0.0
C915 C 0.2191 0.93783 0.41292 0.0
H916 H 0.11924 0.9422 0.43706 0.0
C917 C 0.20865 0.95243 0.39517 0.0
H918 H 0.19157 0.92061 0.44152 0.0
C919 C 0.16703 0.96447 0.39255 0.0
C920 C 0.13512 0.96241 0.40765 0.0
H921 H 0.23392 0.9565 0.38337 0.0
H922 H 0.16227 0.97847 0.37899 0.0
C923 C 0.14341 0.94455 0.42514 0.0
C924 C 0.82637 0.9805 0.91941 0.0
C925 C 0.78297 0.92663 0.9169 0.0
H926 H 0.91176 0.03753 0.9157 0.0
C927 C 0.79244 0.88916 0.90723 0.0
H928 H 0.82022 0.01035 0.92661 0.0
C929 C 0.8446 0.90505 0.90051 0.0
C930 C 0.88839 0.95833 0.90374 0.0
H931 H 0.75942 0.8475 0.90477 0.0
H932 H 0.85109 0.87524 0.89345 0.0
C933 C 0.87864 0.996 0.91308 0.0
C934 C 0.05931 0.80084 0.92533 0.0
C935 C 0.10083 0.7956 0.9171 0.0
H936 H 0.01744 0.84497 0.92661 0.0
C937 C 0.13217 0.83249 0.90287 0.0
H938 H 0.03418 0.77303 0.93617 0.0
C939 C 0.12214 0.87392 0.89711 0.0
C940 C 0.08113 0.87954 0.90568 0.0
H941 H 0.1641 0.82903 0.89606 0.0
H942 H 0.14692 0.90192 0.88625 0.0
C943 C 0.0498 0.84228 0.91977 0.0
C944 C 0.23118 0.2411 0.91725 0.0
C945 C 0.20467 0.27132 0.91784 0.0
H946 H 0.22445 0.16461 0.91046 0.0
C947 C 0.15154 0.24846 0.90992 0.0
H948 H 0.27223 0.25776 0.92307 0.0
C949 C 0.12491 0.19576 0.90206 0.0
C950 C 0.15051 0.16466 0.9024 0.0
H951 H 0.13045 0.27122 0.90989 0.0
H952 H 0.0833 0.17827 0.89668 0.0
C953 C 0.20407 0.18806 0.90986 0.0
C954 C 0.01059 0.78547 0.61141 0.0
C955 C 0.03163 0.78468 0.59377 0.0
H956 H 0.99315 0.83109 0.63115 0.0
C957 C 0.05613 0.83267 0.58313 0.0
H958 H 0.99198 0.74925 0.62005 0.0
C959 C 0.05623 0.87924 0.58943 0.0
C960 C 0.03284 0.87919 0.60666 0.0
H961 H 0.0729 0.83351 0.56956 0.0
H962 H 0.07304 0.91481 0.58049 0.0
C963 C 0.01168 0.83245 0.61788 0.0
C964 C 0.19909 0.23289 0.60779 0.0
C965 C 0.2402 0.22998 0.61787 0.0
H966 H 0.11259 0.19543 0.60275 0.0
C967 C 0.22631 0.19673 0.63379 0.0
H968 H 0.20908 0.25815 0.59544 0.0
C969 C 0.17131 0.16192 0.63829 0.0
C970 C 0.1298 0.15884 0.62652 0.0
H971 H 0.25773 0.19409 0.64173 0.0
H972 H 0.16155 0.13257 0.6494 0.0
C973 C 0.14401 0.19726 0.61206 0.0
C974 C 0.77032 0.99262 0.62275 0.0
C975 C 0.76325 0.016 0.60635 0.0
H976 H 0.81794 0.96461 0.63724 0.0
C977 C 0.79662 0.02365 0.59102 0.0
H978 H 0.74495 0.98581 0.63479 0.0
C979 C 0.83788 0.01072 0.59234 0.0
C980 C 0.84729 0.99046 0.60912 0.0
H981 H 0.79177 0.04088 0.57812 0.0
H982 H 0.86402 0.01904 0.58042 0.0
C983 C 0.81208 0.98022 0.62415 0.0
C984 C 0.89182 0.45516 0.44611 0.0
C985 C 0.90201 0.41742 0.43704 0.0
H986 H 0.8325 0.46951 0.459 0.0
C987 C 0.85893 0.36338 0.43454 0.0
H988 H 0.9246 0.49697 0.4485 0.0
C989 C 0.80604 0.34804 0.44026 0.0
C990 C 0.79574 0.38607 0.44905 0.0
H991 H 0.8658 0.33349 0.42773 0.0
H992 H 0.77306 0.30641 0.4377 0.0
C993 C 0.83932 0.43945 0.45228 0.0
C994 C 0.55316 0.51453 0.45021 0.0
C995 C 0.58719 0.55284 0.43677 0.0
H996 H 0.53617 0.44419 0.46666 0.0
C997 C 0.63114 0.54946 0.42976 0.0
H998 H 0.51935 0.51667 0.45609 0.0
C999 C 0.64044 0.50826 0.43575 0.0
C1000 C 0.60647 0.46967 0.44908 0.0
H1001 H 0.65832 0.57853 0.41956 0.0
H1002 H 0.67461 0.50671 0.42988 0.0
C1003 C 0.56302 0.47346 0.45645 0.0
C1004 C 0.53707 0.10613 0.44619 0.0
C1005 C 0.48262 0.08202 0.43944 0.0
H1006 H 0.60534 0.17616 0.45936 0.0
C1007 C 0.45357 0.10907 0.44234 0.0
H1008 H 0.56003 0.08555 0.44456 0.0
C1009 C 0.47949 0.16066 0.45081 0.0
C1010 C 0.53438 0.18544 0.45703 0.0
H1011 H 0.41133 0.09107 0.43756 0.0
H1012 H 0.45733 0.18224 0.45185 0.0
C1013 C 0.56258 0.15724 0.45509 0.0
C1014 C 0.80449 0.61988 0.75673 0.0
C1015 C 0.77225 0.6371 0.74719 0.0
H1016 H 0.82404 0.55677 0.7603 0.0
C1017 C 0.73901 0.60525 0.73203 0.0
H1018 H 0.83068 0.64348 0.76841 0.0
C1019 C 0.73701 0.55656 0.72688 0.0
C1020 C 0.76707 0.53802 0.7371 0.0
H1021 H 0.71415 0.6177 0.72426 0.0
H1022 H 0.70946 0.53178 0.71563 0.0
C1023 C 0.80116 0.57049 0.75197 0.0
C1024 C 0.44895 0.23545 0.7309 0.0
C1025 C 0.43364 0.19087 0.74295 0.0
H1026 H 0.51561 0.3068 0.7182 0.0
C1027 C 0.47464 0.18463 0.75171 0.0
H1028 H 0.41794 0.24074 0.72382 0.0
C1029 C 0.52986 0.22278 0.74888 0.0
C1030 C 0.54546 0.26721 0.7368 0.0
H1031 H 0.46398 0.15062 0.76101 0.0
H1032 H 0.56055 0.21714 0.75606 0.0
C1033 C 0.50458 0.27291 0.72759 0.0
C1034 C 0.86928 0.28013 0.75797 0.0
C1035 C 0.89929 0.27951 0.74265 0.0
H1036 H 0.80712 0.29501 0.76775 0.0
C1037 C 0.88502 0.28939 0.72469 0.0
H1038 H 0.87892 0.27259 0.77196 0.0
C1039 C 0.84358 0.30205 0.72223 0.0
C1040 C 0.81545 0.30542 0.73766 0.0
H1041 H 0.90704 0.28899 0.71252 0.0
H1042 H 0.83565 0.31175 0.70835 0.0
C1043 C 0.82808 0.2931 0.75551 0.0
C1044 C 0.46365 0.28259 0.24011 0.0
C1045 C 0.43716 0.25161 0.256 0.0
H1046 H 0.53426 0.31384 0.22257 0.0
C1047 C 0.46081 0.22589 0.26591 0.0
H1048 H 0.44558 0.30174 0.23197 0.0
C1049 C 0.51071 0.23237 0.2605 0.0
C1050 C 0.5377 0.26384 0.24483 0.0
H1051 H 0.44096 0.20116 0.27806 0.0
H1052 H 0.52904 0.21392 0.2689 0.0
C1053 C 0.51347 0.28828 0.23446 0.0
C1054 C 0.74086 0.13644 0.24429 0.0
C1055 C 0.77725 0.14191 0.25884 0.0
H1056 H 0.70792 0.17597 0.22758 0.0
C1057 C 0.81249 0.19371 0.2667 0.0
H1058 H 0.71412 0.09699 0.23776 0.0
C1059 C 0.80833 0.23861 0.26108 0.0
C1060 C 0.77058 0.23274 0.24697 0.0
H1061 H 0.84135 0.19892 0.27776 0.0
H1062 H 0.83302 0.27743 0.26825 0.0
C1063 C 0.73815 0.18172 0.2382 0.0
C1064 C 0.80866 0.57422 0.26779 0.0
C1065 C 0.8573 0.60832 0.25828 0.0
H1066 H 0.73847 0.494 0.27022 0.0
C1067 C 0.87034 0.58765 0.24256 0.0
H1068 H 0.79723 0.58916 0.27978 0.0
C1069 C 0.83558 0.5334 0.23669 0.0
C1070 C 0.78804 0.49906 0.2467 0.0
H1071 H 0.90712 0.61348 0.23475 0.0
H1072 H 0.84705 0.5177 0.22492 0.0
C1073 C 0.77473 0.52003 0.26218 0.0
C1074 C 0.63104 0.08897 0.95317 0.0
C1075 C 0.59591 0.05612 0.93858 0.0
H1076 H 0.65835 0.16053 0.97023 0.0
C1077 C 0.5577 0.0685 0.93087 0.0
H1078 H 0.66013 0.07962 0.95959 0.0
C1079 C 0.55722 0.1151 0.93676 0.0
C1080 C 0.59339 0.14883 0.95099 0.0
H1081 H 0.52977 0.04342 0.91975 0.0
H1082 H 0.52995 0.1259 0.92975 0.0
C1083 C 0.62921 0.1345 0.95952 0.0
C1084 C 0.89954 0.49526 0.95638 0.0
C1085 C 0.92245 0.4847 0.94081 0.0
H1086 H 0.82936 0.46524 0.97405 0.0
C1087 C 0.89279 0.43404 0.93159 0.0
H1088 H 0.92216 0.53369 0.96394 0.0
C1089 C 0.84029 0.39546 0.9373 0.0
C1090 C 0.81697 0.40619 0.95263 0.0
H1091 H 0.90973 0.42467 0.91967 0.0
H1092 H 0.81725 0.35761 0.92943 0.0
C1093 C 0.8472 0.45587 0.9624 0.0
C1094 C 0.47802 0.38963 0.96722 0.0
C1095 C 0.46964 0.4076 0.9498 0.0
H1096 H 0.52408 0.36256 0.98308 0.0
C1097 C 0.50701 0.41849 0.93548 0.0
H1098 H 0.45028 0.38152 0.97864 0.0
C1099 C 0.54966 0.40795 0.93813 0.0
C1100 C 0.55602 0.38678 0.95518 0.0
H1101 H 0.50196 0.43285 0.92198 0.0
H1102 H 0.57632 0.41422 0.92652 0.0
C1103 C 0.52088 0.37945 0.9699 0.0
C1104 C 0.56751 0.78836 0.78211 0.0
C1105 C 0.57772 0.75392 0.77098 0.0
H1106 H 0.50869 0.79851 0.79699 0.0
C1107 C 0.53488 0.70063 0.767 0.0
H1108 H 0.60007 0.82944 0.78569 0.0
C1109 C 0.48202 0.68306 0.77338 0.0
C1110 C 0.4718 0.71815 0.78419 0.0
H1111 H 0.54189 0.67328 0.75857 0.0
H1112 H 0.44908 0.64226 0.76973 0.0
C1113 C 0.51527 0.77053 0.78877 0.0
C1114 C 0.30267 0.88983 0.7786 0.0
C1115 C 0.26863 0.87907 0.76275 0.0
H1116 H 0.3348 0.85703 0.79879 0.0
C1117 C 0.23827 0.82583 0.75552 0.0
H1118 H 0.32563 0.93061 0.78458 0.0
C1119 C 0.24429 0.78434 0.76341 0.0
C1120 C 0.27902 0.7953 0.77904 0.0
H1121 H 0.2114 0.81678 0.74343 0.0
H1122 H 0.22268 0.74391 0.75711 0.0
C1123 C 0.30723 0.84787 0.78689 0.0
C1124 C 0.21741 0.45046 0.78841 0.0
C1125 C 0.16332 0.42715 0.7814 0.0
H1126 H 0.28411 0.51803 0.80292 0.0
C1127 C 0.13167 0.44984 0.78662 0.0
H1128 H 0.24216 0.43264 0.78517 0.0
C1129 C 0.1556 0.49831 0.79702 0.0
C1130 C 0.21111 0.52407 0.8026 0.0
H1131 H 0.08945 0.43184 0.78183 0.0
H1132 H 0.13227 0.51827 0.79926 0.0
C1133 C 0.24093 0.49826 0.79913 0.0
C1134 C 0.48074 0.94951 0.09615 0.0
C1135 C 0.43868 0.95945 0.09084 0.0
H1136 H 0.51056 0.89373 0.09518 0.0
C1137 C 0.39799 0.92351 0.07806 0.0
H1138 H 0.51297 0.97688 0.10581 0.0
C1139 C 0.39839 0.87757 0.07121 0.0
C1140 C 0.43866 0.866 0.07737 0.0
H1141 H 0.3657 0.93076 0.07344 0.0
H1142 H 0.36503 0.84908 0.06211 0.0
C1143 C 0.48004 0.90261 0.0898 0.0
C1144 C 0.13686 0.58158 0.09976 0.0
C1145 C 0.1071 0.53083 0.09058 0.0
H1146 H 0.2124 0.65819 0.10173 0.0
C1147 C 0.12963 0.5206 0.07481 0.0
H1148 H 0.12022 0.5908 0.1118 0.0
C1149 C 0.18168 0.56019 0.06861 0.0
C1150 C 0.21214 0.60989 0.07835 0.0
H1151 H 0.10697 0.48218 0.06726 0.0
H1152 H 0.19922 0.55086 0.05685 0.0
C1153 C 0.18915 0.6204 0.09385 0.0
C1154 C 0.54541 0.61434 0.06669 0.0
C1155 C 0.55776 0.6026 0.08464 0.0
H1156 H 0.49715 0.63741 0.05019 0.0
C1157 C 0.52498 0.59941 0.09963 0.0
H1158 H 0.56951 0.6166 0.05476 0.0
C1159 C 0.48292 0.61094 0.09691 0.0
C1160 C 0.47247 0.62552 0.07912 0.0
H1161 H 0.53311 0.59008 0.11359 0.0
H1162 H 0.45986 0.61042 0.10892 0.0
C1163 C 0.50324 0.62558 0.06396 0.0
C1164 C 0.12285 0.60622 0.56455 0.0
C1165 C 0.09236 0.56896 0.57863 0.0
H1166 H 0.19688 0.64302 0.54878 0.0
C1167 C 0.11084 0.53569 0.58635 0.0
H1168 H 0.10868 0.63133 0.55807 0.0
C1169 C 0.16103 0.54241 0.58108 0.0
C1170 C 0.19267 0.58128 0.5676 0.0
H1171 H 0.08758 0.50605 0.59703 0.0
H1172 H 0.17655 0.51934 0.58825 0.0
C1173 C 0.17242 0.61183 0.55889 0.0
C1174 C 0.45861 0.53235 0.60274 0.0
C1175 C 0.47281 0.50822 0.58861 0.0
H1176 H 0.43439 0.58949 0.60965 0.0
C1177 C 0.48046 0.52918 0.57036 0.0
H1178 H 0.45299 0.51723 0.61694 0.0
C1179 C 0.46854 0.57004 0.56597 0.0
C1180 C 0.44965 0.59097 0.57985 0.0
H1181 H 0.49146 0.51111 0.5592 0.0
H1182 H 0.47117 0.58277 0.55159 0.0
C1183 C 0.44791 0.5738 0.59847 0.0
C1184 C 0.45402 0.90786 0.59446 0.0
C1185 C 0.5063 0.93878 0.58675 0.0
H1186 H 0.37909 0.83049 0.59495 0.0
C1187 C 0.52055 0.91698 0.57169 0.0
H1188 H 0.44172 0.92395 0.60589 0.0
C1189 C 0.48394 0.86426 0.56498 0.0
C1190 C 0.43309 0.83222 0.57351 0.0
H1191 H 0.56023 0.94046 0.56522 0.0
H1192 H 0.49681 0.8474 0.55397 0.0
C1193 C 0.418 0.85478 0.58805 0.0
C1194 C 0.2919 0.42682 0.28126 0.0
C1195 C 0.25424 0.39251 0.26742 0.0
H1196 H 0.32243 0.50027 0.29762 0.0
C1197 C 0.21535 0.40482 0.26031 0.0
H1198 H 0.32161 0.41767 0.28725 0.0
C1199 C 0.21631 0.45235 0.26605 0.0
C1200 C 0.25458 0.48719 0.27963 0.0
H1201 H 0.18544 0.37871 0.2498 0.0
H1202 H 0.18823 0.46282 0.25947 0.0
C1203 C 0.29156 0.47333 0.28749 0.0
C1204 C 0.55523 0.7748 0.25996 0.0
C1205 C 0.58536 0.82419 0.2699 0.0
H1206 H 0.47891 0.69938 0.25689 0.0
C1207 C 0.56232 0.83324 0.28578 0.0
H1208 H 0.57224 0.76653 0.24781 0.0
C1209 C 0.50951 0.79373 0.2914 0.0
C1210 C 0.47882 0.74538 0.28095 0.0
H1211 H 0.58523 0.87059 0.29389 0.0
H1212 H 0.49176 0.80205 0.30333 0.0
C1213 C 0.50221 0.73615 0.26528 0.0
C1214 C 0.16344 0.75209 0.26173 0.0
C1215 C 0.13026 0.74758 0.27676 0.0
H1216 H 0.22914 0.74248 0.25218 0.0
C1217 C 0.14238 0.73474 0.29456 0.0
H1218 H 0.15553 0.76234 0.24789 0.0
C1219 C 0.1848 0.72375 0.29709 0.0
C1220 C 0.21597 0.72512 0.28185 0.0
H1221 H 0.11798 0.7315 0.30653 0.0
H1222 H 0.19095 0.71125 0.31075 0.0
C1223 C 0.20572 0.74082 0.26424 0.0
loop_
_geom_bond_atom_site_label_1
_geom_bond_atom_site_label_2
_geom_bond_distance
_geom_bond_site_symmetry_2
_ccdc_geom_bond_type
Zn0 O3 2.031 . S
Zn0 O5 2.049 . S
Zn0 O10 2.067 . S
Zn1 O2 1.962 1_545 S
Zn1 O4 1.986 . S
Zn1 O6 1.996 1_545 S
Zn1 O9 1.943 . S
O2 Zn1 1.962 1_565 S
O2 C7 1.254 . S
O3 Zn0 2.031 . S
O3 C7 1.269 . S
O4 Zn1 1.986 . S
O4 C11 1.262 . S
O5 Zn0 2.049 . S
O5 C13 1.260 . S
O6 Zn1 1.996 1_565 S
O6 C13 1.257 . S
C7 O2 1.254 . S
C7 O3 1.269 . S
C8 O9 1.249 . S
C8 O10 1.270 1_545 S
O9 Zn1 1.943 . S
O9 C8 1.249 . S
O10 Zn0 2.067 . S
O10 C8 1.270 1_565 S
C11 O4 1.262 . S
C11 O12 1.232 . S
O12 C11 1.232 . S
C13 O5 1.260 . S
C13 O6 1.257 . S
Zn14 O17 2.031 . S
Zn14 O19 2.049 . S
Zn14 O24 2.067 . S
Zn15 O16 1.962 1_455 S
Zn15 O18 1.986 . S
Zn15 O20 1.996 1_455 S
Zn15 O23 1.943 . S
O16 Zn15 1.962 1_655 S
O16 C21 1.254 . S
O17 Zn14 2.031 . S
O17 C21 1.269 . S
O18 Zn15 1.986 . S
O18 C25 1.262 . S
O19 Zn14 2.049 . S
O19 C27 1.260 . S
O20 Zn15 1.996 1_655 S
O20 C27 1.257 . S
C21 O16 1.254 . S
C21 O17 1.269 . S
C22 O23 1.249 . S
C22 O24 1.270 1_455 S
O23 Zn15 1.943 . S
O23 C22 1.249 . S
O24 Zn14 2.067 . S
O24 C22 1.270 1_655 S
C25 O18 1.262 . S
C25 O26 1.232 . S
O26 C25 1.232 . S
C27 O19 1.260 . S
C27 O20 1.257 . S
Zn28 O31 2.031 . S
Zn28 O33 2.049 . S
Zn28 O38 2.067 . S
Zn29 O30 1.962 . S
Zn29 O32 1.986 . S
Zn29 O34 1.996 . S
Zn29 O37 1.943 . S
O30 Zn29 1.962 . S
O30 C35 1.254 . S
O31 Zn28 2.031 . S
O31 C35 1.269 . S
O32 Zn29 1.986 . S
O32 C39 1.262 . S
O33 Zn28 2.049 . S
O33 C41 1.260 . S
O34 Zn29 1.996 . S
O34 C41 1.257 . S
C35 O30 1.254 . S
C35 O31 1.269 . S
C36 O37 1.249 . S
C36 O38 1.270 . S
O37 Zn29 1.943 . S
O37 C36 1.249 . S
O38 Zn28 2.067 . S
O38 C36 1.270 . S
C39 O32 1.262 . S
C39 O40 1.232 . S
O40 C39 1.232 . S
C41 O33 1.260 . S
C41 O34 1.257 . S
Zn42 O45 2.031 . S
Zn42 O47 2.049 . S
Zn42 O52 2.067 . S
Zn43 O44 1.962 . S
Zn43 O46 1.986 1_545 S
Zn43 O48 1.996 . S
Zn43 O51 1.943 1_545 S
O44 Zn43 1.962 . S
O44 C49 1.254 . S
O45 Zn42 2.031 . S
O45 C49 1.269 . S
O46 Zn43 1.986 1_565 S
O46 C53 1.262 . S
O47 Zn42 2.049 . S
O47 C55 1.260 . S
O48 Zn43 1.996 . S
O48 C55 1.257 . S
C49 O44 1.254 . S
C49 O45 1.269 . S
C50 O51 1.249 1_545 S
C50 O52 1.270 . S
O51 Zn43 1.943 1_565 S
O51 C50 1.249 1_565 S
O52 Zn42 2.067 . S
O52 C50 1.270 . S
C53 O46 1.262 . S
C53 O54 1.232 . S
O54 C53 1.232 . S
C55 O47 1.260 . S
C55 O48 1.257 . S
Zn56 O59 2.031 . S
Zn56 O61 2.049 . S
Zn56 O66 2.067 . S
Zn57 O58 1.962 . S
Zn57 O60 1.986 1_455 S
Zn57 O62 1.996 . S
Zn57 O65 1.943 1_455 S
O58 Zn57 1.962 . S
O58 C63 1.254 . S
O59 Zn56 2.031 . S
O59 C63 1.269 . S
O60 Zn57 1.986 1_655 S
O60 C67 1.262 . S
O61 Zn56 2.049 . S
O61 C69 1.260 . S
O62 Zn57 1.996 . S
O62 C69 1.257 . S
C63 O58 1.254 . S
C63 O59 1.269 . S
C64 O65 1.249 1_455 S
C64 O66 1.270 . S
O65 Zn57 1.943 1_655 S
O65 C64 1.249 1_655 S
O66 Zn56 2.067 . S
O66 C64 1.270 . S
C67 O60 1.262 . S
C67 O68 1.232 . S
O68 C67 1.232 . S
C69 O61 1.260 . S
C69 O62 1.257 . S
Zn70 O73 2.031 . S
Zn70 O75 2.049 . S
Zn70 O80 2.067 . S
Zn71 O72 1.962 . S
Zn71 O74 1.986 . S
Zn71 O76 1.996 . S
Zn71 O79 1.943 . S
O72 Zn71 1.962 . S
O72 C77 1.254 . S
O73 Zn70 2.031 . S
O73 C77 1.269 . S
O74 Zn71 1.986 . S
O74 C81 1.262 . S
O75 Zn70 2.049 . S
O75 C83 1.260 . S
O76 Zn71 1.996 . S
O76 C83 1.257 . S
C77 O72 1.254 . S
C77 O73 1.269 . S
C78 O79 1.249 . S
C78 O80 1.270 . S
O79 Zn71 1.943 . S
O79 C78 1.249 . S
O80 Zn70 2.067 . S
O80 C78 1.270 . S
C81 O74 1.262 . S
C81 O82 1.232 . S
O82 C81 1.232 . S
C83 O75 1.260 . S
C83 O76 1.257 . S
Zn84 O87 2.031 . S
Zn84 O89 2.049 . S
Zn84 O94 2.067 . S
Zn85 O86 1.962 . S
Zn85 O88 1.986 . S
Zn85 O90 1.996 . S
Zn85 O93 1.943 . S
O86 Zn85 1.962 . S
O86 C91 1.254 . S
O87 Zn84 2.031 . S
O87 C91 1.269 . S
O88 Zn85 1.986 . S
O88 C95 1.262 . S
O89 Zn84 2.049 . S
O89 C97 1.260 . S
O90 Zn85 1.996 . S
O90 C97 1.257 . S
C91 O86 1.254 . S
C91 O87 1.269 . S
C92 O93 1.249 . S
C92 O94 1.270 . S
O93 Zn85 1.943 . S
O93 C92 1.249 . S
O94 Zn84 2.067 . S
O94 C92 1.270 . S
C95 O88 1.262 . S
C95 O96 1.232 . S
O96 C95 1.232 . S
C97 O89 1.260 . S
C97 O90 1.257 . S
Zn98 O101 2.031 . S
Zn98 O103 2.049 . S
Zn98 O108 2.067 . S
Zn99 O100 1.962 1_545 S
Zn99 O102 1.986 . S
Zn99 O104 1.996 . S
Zn99 O107 1.943 . S
O100 Zn99 1.962 1_565 S
O100 C105 1.254 . S
O101 Zn98 2.031 . S
O101 C105 1.269 1_545 S
O102 Zn99 1.986 . S
O102 C109 1.262 . S
O103 Zn98 2.049 . S
O103 C111 1.260 . S
O104 Zn99 1.996 . S
O104 C111 1.257 . S
C105 O100 1.254 . S
C105 O101 1.269 1_565 S
C106 O107 1.249 . S
C106 O108 1.270 . S
O107 Zn99 1.943 . S
O107 C106 1.249 . S
O108 Zn98 2.067 . S
O108 C106 1.270 . S
C109 O102 1.262 . S
C109 O110 1.232 . S
O110 C109 1.232 . S
C111 O103 1.260 . S
C111 O104 1.257 . S
Zn112 O115 2.031 1_655 S
Zn112 O117 2.049 . S
Zn112 O122 2.067 . S
Zn113 O114 1.962 1_655 S
Zn113 O116 1.986 . S
Zn113 O118 1.996 . S
Zn113 O121 1.943 . S
O114 Zn113 1.962 1_455 S
O114 C119 1.254 . S
O115 Zn112 2.031 1_455 S
O115 C119 1.269 . S
O116 Zn113 1.986 . S
O116 C123 1.262 . S
O117 Zn112 2.049 . S
O117 C125 1.260 . S
O118 Zn113 1.996 . S
O118 C125 1.257 . S
C119 O114 1.254 . S
C119 O115 1.269 . S
C120 O121 1.249 . S
C120 O122 1.270 . S
O121 Zn113 1.943 . S
O121 C120 1.249 . S
O122 Zn112 2.067 . S
O122 C120 1.270 . S
C123 O116 1.262 . S
C123 O124 1.232 1_655 S
O124 C123 1.232 1_455 S
C125 O117 1.260 . S
C125 O118 1.257 . S
Zn126 O129 2.031 1_655 S
Zn126 O131 2.049 . S
Zn126 O136 2.067 . S
Zn127 O128 1.962 1_655 S
Zn127 O130 1.986 . S
Zn127 O132 1.996 . S
Zn127 O135 1.943 . S
O128 Zn127 1.962 1_455 S
O128 C133 1.254 . S
O129 Zn126 2.031 1_455 S
O129 C133 1.269 . S
O130 Zn127 1.986 . S
O130 C137 1.262 . S
O131 Zn126 2.049 . S
O131 C139 1.260 . S
O132 Zn127 1.996 . S
O132 C139 1.257 . S
C133 O128 1.254 . S
C133 O129 1.269 . S
C134 O135 1.249 . S
C134 O136 1.270 . S
O135 Zn127 1.943 . S
O135 C134 1.249 . S
O136 Zn126 2.067 . S
O136 C134 1.270 . S
C137 O130 1.262 . S
C137 O138 1.232 1_655 S
O138 C137 1.232 1_455 S
C139 O131 1.260 . S
C139 O132 1.257 . S
Zn140 O143 2.031 . S
Zn140 O145 2.049 . S
Zn140 O150 2.067 . S
Zn141 O142 1.962 . S
Zn141 O144 1.986 . S
Zn141 O146 1.996 . S
Zn141 O149 1.943 . S
O142 Zn141 1.962 . S
O142 C147 1.254 . S
O143 Zn140 2.031 . S
O143 C147 1.269 . S
O144 Zn141 1.986 . S
O144 C151 1.262 . S
O145 Zn140 2.049 . S
O145 C153 1.260 . S
O146 Zn141 1.996 . S
O146 C153 1.257 . S
C147 O142 1.254 . S
C147 O143 1.269 . S
C148 O149 1.249 . S
C148 O150 1.270 . S
O149 Zn141 1.943 . S
O149 C148 1.249 . S
O150 Zn140 2.067 . S
O150 C148 1.270 . S
C151 O144 1.262 . S
C151 O152 1.232 . S
O152 C151 1.232 . S
C153 O145 1.260 . S
C153 O146 1.257 . S
Zn154 O157 2.031 . S
Zn154 O159 2.049 . S
Zn154 O164 2.067 . S
Zn155 O156 1.962 . S
Zn155 O158 1.986 1_545 S
Zn155 O160 1.996 . S
Zn155 O163 1.943 . S
O156 Zn155 1.962 . S
O156 C161 1.254 . S
O157 Zn154 2.031 . S
O157 C161 1.269 . S
O158 Zn155 1.986 1_565 S
O158 C165 1.262 . S
O159 Zn154 2.049 . S
O159 C167 1.260 . S
O160 Zn155 1.996 . S
O160 C167 1.257 . S
C161 O156 1.254 . S
C161 O157 1.269 . S
C162 O163 1.249 . S
C162 O164 1.270 . S
O163 Zn155 1.943 . S
O163 C162 1.249 . S
O164 Zn154 2.067 . S
O164 C162 1.270 . S
C165 O158 1.262 . S
C165 O166 1.232 . S
O166 C165 1.232 . S
C167 O159 1.260 . S
C167 O160 1.257 . S
Zn168 O171 2.031 . S
Zn168 O173 2.049 . S
Zn168 O178 2.067 . S
Zn169 O170 1.962 1_455 S
Zn169 O172 1.986 . S
Zn169 O174 1.996 . S
Zn169 O177 1.943 . S
O170 Zn169 1.962 1_655 S
O170 C175 1.254 . S
O171 Zn168 2.031 . S
O171 C175 1.269 1_455 S
O172 Zn169 1.986 . S
O172 C179 1.262 . S
O173 Zn168 2.049 . S
O173 C181 1.260 . S
O174 Zn169 1.996 . S
O174 C181 1.257 . S
C175 O170 1.254 . S
C175 O171 1.269 1_655 S
C176 O177 1.249 . S
C176 O178 1.270 . S
O177 Zn169 1.943 . S
O177 C176 1.249 . S
O178 Zn168 2.067 . S
O178 C176 1.270 . S
C179 O172 1.262 . S
C179 O180 1.232 . S
O180 C179 1.232 . S
C181 O173 1.260 . S
C181 O174 1.257 . S
Zn182 O185 2.031 . S
Zn182 O187 2.049 . S
Zn182 O192 2.067 . S
Zn183 O184 1.962 . S
Zn183 O186 1.986 . S
Zn183 O188 1.996 . S
Zn183 O191 1.943 . S
O184 Zn183 1.962 . S
O184 C189 1.254 . S
O185 Zn182 2.031 . S
O185 C189 1.269 . S
O186 Zn183 1.986 . S
O186 C193 1.262 . S
O187 Zn182 2.049 . S
O187 C195 1.260 . S
O188 Zn183 1.996 . S
O188 C195 1.257 . S
C189 O184 1.254 . S
C189 O185 1.269 . S
C190 O191 1.249 . S
C190 O192 1.270 . S
O191 Zn183 1.943 . S
O191 C190 1.249 . S
O192 Zn182 2.067 . S
O192 C190 1.270 . S
C193 O186 1.262 . S
C193 O194 1.232 . S
O194 C193 1.232 . S
C195 O187 1.260 . S
C195 O188 1.257 . S
Zn196 O199 2.031 . S
Zn196 O201 2.049 . S
Zn196 O206 2.067 . S
Zn197 O198 1.962 . S
Zn197 O200 1.986 1_565 S
Zn197 O202 1.996 . S
Zn197 O205 1.943 . S
O198 Zn197 1.962 . S
O198 C203 1.254 . S
O199 Zn196 2.031 . S
O199 C203 1.269 . S
O200 Zn197 1.986 1_545 S
O200 C207 1.262 . S
O201 Zn196 2.049 . S
O201 C209 1.260 . S
O202 Zn197 1.996 . S
O202 C209 1.257 . S
C203 O198 1.254 . S
C203 O199 1.269 . S
C204 O205 1.249 . S
C204 O206 1.270 . S
O205 Zn197 1.943 . S
O205 C204 1.249 . S
O206 Zn196 2.067 . S
O206 C204 1.270 . S
C207 O200 1.262 . S
C207 O208 1.232 . S
O208 C207 1.232 . S
C209 O201 1.260 . S
C209 O202 1.257 . S
Zn210 O213 2.031 . S
Zn210 O215 2.049 . S
Zn210 O220 2.067 . S
Zn211 O212 1.962 . S
Zn211 O214 1.986 . S
Zn211 O216 1.996 . S
Zn211 O219 1.943 . S
O212 Zn211 1.962 . S
O212 C217 1.254 . S
O213 Zn210 2.031 . S
O213 C217 1.269 . S
O214 Zn211 1.986 . S
O214 C221 1.262 . S
O215 Zn210 2.049 . S
O215 C223 1.260 . S
O216 Zn211 1.996 . S
O216 C223 1.257 . S
C217 O212 1.254 . S
C217 O213 1.269 . S
C218 O219 1.249 . S
C218 O220 1.270 . S
O219 Zn211 1.943 . S
O219 C218 1.249 . S
O220 Zn210 2.067 . S
O220 C218 1.270 . S
C221 O214 1.262 . S
C221 O222 1.232 . S
O222 C221 1.232 . S
C223 O215 1.260 . S
C223 O216 1.257 . S
Zn224 O227 2.031 1_565 S
Zn224 O229 2.049 . S
Zn224 O234 2.067 . S
Zn225 O226 1.962 1_565 S
Zn225 O228 1.986 . S
Zn225 O230 1.996 . S
Zn225 O233 1.943 . S
O226 Zn225 1.962 1_545 S
O226 C231 1.254 . S
O227 Zn224 2.031 1_545 S
O227 C231 1.269 . S
O228 Zn225 1.986 . S
O228 C235 1.262 . S
O229 Zn224 2.049 . S
O229 C237 1.260 . S
O230 Zn225 1.996 . S
O230 C237 1.257 . S
C231 O226 1.254 . S
C231 O227 1.269 . S
C232 O233 1.249 . S
C232 O234 1.270 . S
O233 Zn225 1.943 . S
O233 C232 1.249 . S
O234 Zn224 2.067 . S
O234 C232 1.270 . S
C235 O228 1.262 . S
C235 O236 1.236 . S
O236 C235 1.236 . S
C237 O229 1.260 . S
C237 O230 1.257 . S
Zn238 O241 2.031 . S
Zn238 O243 2.049 . S
Zn238 O248 2.067 . S
Zn239 O240 1.962 1_455 S
Zn239 O242 1.986 . S
Zn239 O244 1.996 . S
Zn239 O247 1.943 . S
O240 Zn239 1.962 1_655 S
O240 C245 1.254 . S
O241 Zn238 2.031 . S
O241 C245 1.269 1_455 S
O242 Zn239 1.986 . S
O242 C249 1.262 . S
O243 Zn238 2.049 . S
O243 C251 1.260 . S
O244 Zn239 1.996 . S
O244 C251 1.257 . S
C245 O240 1.254 . S
C245 O241 1.269 1_655 S
C246 O247 1.249 . S
C246 O248 1.270 . S
O247 Zn239 1.943 . S
O247 C246 1.249 . S
O248 Zn238 2.067 . S
O248 C246 1.270 . S
C249 O242 1.262 . S
C249 O250 1.232 . S
O250 C249 1.232 . S
C251 O243 1.260 . S
C251 O244 1.257 . S
Zn252 O258 1.920 1_455 S
Zn252 O264 1.898 1_445 S
Zn252 O267 1.905 . S
Zn253 O261 1.905 1_545 S
Zn253 O262 1.898 . S
Zn253 O270 1.920 1_455 S
Zn254 O257 2.080 . S
Zn254 O260 2.114 1_545 S
Zn254 O263 2.120 . S
Zn254 O265 2.120 1_445 S
Zn254 O266 2.114 . S
Zn254 O269 2.080 1_455 S
C255 O260 1.166 . S
C255 O261 1.182 . S
C256 O262 1.167 . S
C256 O263 1.299 . S
O257 Zn254 2.080 . S
O257 C271 1.305 . S
O258 Zn252 1.920 1_655 S
O258 C271 1.234 1_655 S
C259 O264 1.167 . S
C259 O265 1.299 . S
O260 Zn254 2.114 1_565 S
O260 C255 1.166 . S
O261 Zn253 1.905 1_565 S
O261 C255 1.182 . S
O262 Zn253 1.898 . S
O262 C256 1.167 . S
O263 Zn254 2.120 . S
O263 C256 1.299 . S
O264 Zn252 1.898 1_665 S
O264 C259 1.167 . S
O265 Zn254 2.120 1_665 S
O265 C259 1.299 . S
O266 Zn254 2.114 . S
O266 C268 1.166 . S
O267 Zn252 1.905 . S
O267 C268 1.182 . S
C268 O266 1.166 . S
C268 O267 1.182 . S
O269 Zn254 2.080 1_655 S
O269 C272 1.305 . S
O270 Zn253 1.920 1_655 S
O270 C272 1.234 . S
C271 O257 1.305 . S
C271 O258 1.234 1_455 S
C272 O269 1.305 . S
C272 O270 1.234 . S
Zn273 O279 1.920 1_545 S
Zn273 O285 1.898 . S
Zn273 O288 1.905 1_445 S
Zn274 O282 1.905 . S
Zn274 O283 1.898 1_445 S
Zn274 O291 1.920 1_545 S
Zn275 O278 2.086 1_445 S
Zn275 O281 2.114 . S
Zn275 O284 2.120 1_445 S
Zn275 O286 2.120 . S
Zn275 O287 2.114 1_455 S
Zn275 O290 2.080 . S
C276 O281 1.166 . S
C276 O282 1.182 . S
C277 O283 1.167 . S
C277 O284 1.299 . S
O278 Zn275 2.086 1_665 S
O278 C292 1.293 1_655 S
O279 Zn273 1.920 1_565 S
O279 C292 1.234 . S
C280 O285 1.167 . S
C280 O286 1.299 . S
O281 Zn275 2.114 . S
O281 C276 1.166 . S
O282 Zn274 1.905 . S
O282 C276 1.182 . S
O283 Zn274 1.898 1_665 S
O283 C277 1.167 . S
O284 Zn275 2.120 1_665 S
O284 C277 1.299 . S
O285 Zn273 1.898 . S
O285 C280 1.167 . S
O286 Zn275 2.120 . S
O286 C280 1.299 . S
O287 Zn275 2.114 1_655 S
O287 C289 1.166 1_545 S
O288 Zn273 1.905 1_665 S
O288 C289 1.182 . S
C289 O287 1.166 1_565 S
C289 O288 1.182 . S
O290 Zn275 2.080 . S
O290 C293 1.305 1_545 S
O291 Zn274 1.920 1_565 S
O291 C293 1.234 . S
C292 O278 1.293 1_455 S
C292 O279 1.234 . S
C293 O290 1.305 1_565 S
C293 O291 1.234 . S
Zn294 O300 1.920 1_545 S
Zn294 O306 1.898 . S
Zn294 O309 1.905 1_445 S
Zn295 O303 1.905 . S
Zn295 O304 1.898 1_445 S
Zn295 O312 1.920 1_545 S
Zn296 O299 2.080 1_545 S
Zn296 O302 2.114 . S
Zn296 O305 2.120 1_445 S
Zn296 O307 2.120 . S
Zn296 O308 2.114 1_455 S
Zn296 O311 2.080 . S
C297 O302 1.166 . S
C297 O303 1.182 . S
C298 O304 1.167 . S
C298 O305 1.299 . S
O299 Zn296 2.080 1_565 S
O299 C313 1.305 . S
O300 Zn294 1.920 1_565 S
O300 C313 1.234 . S
C301 O306 1.167 . S
C301 O307 1.299 . S
O302 Zn296 2.114 . S
O302 C297 1.166 . S
O303 Zn295 1.905 . S
O303 C297 1.182 . S
O304 Zn295 1.898 1_665 S
O304 C298 1.167 . S
O305 Zn296 2.120 1_665 S
O305 C298 1.299 . S
O306 Zn294 1.898 . S
O306 C301 1.167 . S
O307 Zn296 2.120 . S
O307 C301 1.299 . S
O308 Zn296 2.114 1_655 S
O308 C310 1.166 1_545 S
O309 Zn294 1.905 1_665 S
O309 C310 1.182 . S
C310 O308 1.166 1_565 S
C310 O309 1.182 . S
O311 Zn296 2.080 . S
O311 C314 1.305 . S
O312 Zn295 1.920 1_565 S
O312 C314 1.234 1_565 S
C313 O299 1.305 . S
C313 O300 1.234 . S
C314 O311 1.305 . S
C314 O312 1.234 1_545 S
Zn315 O321 1.920 . S
Zn315 O327 1.898 1_445 S
Zn315 O330 1.905 . S
Zn316 O324 1.905 1_445 S
Zn316 O325 1.898 . S
Zn316 O333 1.920 1_455 S
Zn317 O320 2.080 . S
Zn317 O323 2.114 1_545 S
Zn317 O326 2.120 . S
Zn317 O328 2.120 1_445 S
Zn317 O329 2.114 . S
Zn317 O332 2.080 1_455 S
C318 O323 1.166 . S
C318 O324 1.182 1_455 S
C319 O325 1.167 . S
C319 O326 1.299 . S
O320 Zn317 2.080 . S
O320 C334 1.305 . S
O321 Zn315 1.920 . S
O321 C334 1.234 . S
C322 O327 1.167 . S
C322 O328 1.299 . S
O323 Zn317 2.114 1_565 S
O323 C318 1.166 . S
O324 Zn316 1.905 1_665 S
O324 C318 1.182 1_655 S
O325 Zn316 1.898 . S
O325 C319 1.167 . S
O326 Zn317 2.120 . S
O326 C319 1.299 . S
O327 Zn315 1.898 1_665 S
O327 C322 1.167 . S
O328 Zn317 2.120 1_665 S
O328 C322 1.299 . S
O329 Zn317 2.114 . S
O329 C331 1.166 . S
O330 Zn315 1.905 . S
O330 C331 1.182 . S
C331 O329 1.166 . S
C331 O330 1.182 . S
O332 Zn317 2.080 1_655 S
O332 C335 1.305 . S
O333 Zn316 1.920 1_655 S
O333 C335 1.234 . S
C334 O320 1.305 . S
C334 O321 1.234 . S
C335 O332 1.305 . S
C335 O333 1.234 . S
Zn336 O342 1.920 . S
Zn336 O348 1.898 . S
Zn336 O351 1.905 . S
Zn337 O345 1.905 . S
Zn337 O346 1.898 . S
Zn337 O354 1.920 . S
Zn338 O341 2.080 . S
Zn338 O344 2.114 . S
Zn338 O347 2.120 . S
Zn338 O349 2.120 . S
Zn338 O350 2.114 . S
Zn338 O353 2.080 . S
C339 O344 1.166 . S
C339 O345 1.182 . S
C340 O346 1.167 . S
C340 O347 1.299 . S
O341 Zn338 2.080 . S
O341 C355 1.305 . S
O342 Zn336 1.920 . S
O342 C355 1.234 . S
C343 O348 1.167 . S
C343 O349 1.299 . S
O344 Zn338 2.114 . S
O344 C339 1.166 . S
O345 Zn337 1.905 . S
O345 C339 1.182 . S
O346 Zn337 1.898 . S
O346 C340 1.167 . S
O347 Zn338 2.120 . S
O347 C340 1.299 . S
O348 Zn336 1.898 . S
O348 C343 1.167 . S
O349 Zn338 2.120 . S
O349 C343 1.299 . S
O350 Zn338 2.114 . S
O350 C352 1.166 . S
O351 Zn336 1.905 . S
O351 C352 1.182 . S
C352 O350 1.166 . S
C352 O351 1.182 . S
O353 Zn338 2.080 . S
O353 C356 1.305 . S
O354 Zn337 1.920 . S
O354 C356 1.234 . S
C355 O341 1.305 . S
C355 O342 1.234 . S
C356 O353 1.305 . S
C356 O354 1.234 . S
Zn357 O363 1.920 . S
Zn357 O369 1.898 . S
Zn357 O372 1.905 . S
Zn358 O366 1.905 . S
Zn358 O367 1.898 . S
Zn358 O375 1.920 . S
Zn359 O362 2.080 . S
Zn359 O365 2.114 . S
Zn359 O368 2.120 . S
Zn359 O370 2.120 . S
Zn359 O371 2.114 . S
Zn359 O374 2.080 . S
C360 O365 1.166 . S
C360 O366 1.182 . S
C361 O367 1.167 . S
C361 O368 1.299 . S
O362 Zn359 2.080 . S
O362 C376 1.305 . S
O363 Zn357 1.920 . S
O363 C376 1.234 . S
C364 O369 1.167 . S
C364 O370 1.299 . S
O365 Zn359 2.114 . S
O365 C360 1.166 . S
O366 Zn358 1.905 . S
O366 C360 1.182 . S
O367 Zn358 1.898 . S
O367 C361 1.167 . S
O368 Zn359 2.120 . S
O368 C361 1.299 . S
O369 Zn357 1.898 . S
O369 C364 1.167 . S
O370 Zn359 2.120 . S
O370 C364 1.299 . S
O371 Zn359 2.114 . S
O371 C373 1.166 . S
O372 Zn357 1.905 . S
O372 C373 1.182 . S
C373 O371 1.166 . S
C373 O372 1.182 . S
O374 Zn359 2.080 . S
O374 C377 1.305 . S
O375 Zn358 1.920 . S
O375 C377 1.234 . S
C376 O362 1.305 . S
C376 O363 1.234 . S
C377 O374 1.305 . S
C377 O375 1.234 . S
Zn378 O384 1.920 . S
Zn378 O390 1.898 . S
Zn378 O393 1.905 . S
Zn379 O387 1.905 . S
Zn379 O388 1.898 . S
Zn379 O396 1.920 . S
Zn380 O383 2.080 . S
Zn380 O386 2.114 . S
Zn380 O389 2.120 . S
Zn380 O391 2.120 . S
Zn380 O392 2.114 . S
Zn380 O395 2.080 . S
C381 O386 1.166 . S
C381 O387 1.182 . S
C382 O388 1.167 . S
C382 O389 1.299 . S
O383 Zn380 2.080 . S
O383 C397 1.305 . S
O384 Zn378 1.920 . S
O384 C397 1.234 . S
C385 O390 1.167 . S
C385 O391 1.299 . S
O386 Zn380 2.114 . S
O386 C381 1.166 . S
O387 Zn379 1.905 . S
O387 C381 1.182 . S
O388 Zn379 1.898 . S
O388 C382 1.167 . S
O389 Zn380 2.120 . S
O389 C382 1.299 . S
O390 Zn378 1.898 . S
O390 C385 1.167 . S
O391 Zn380 2.120 . S
O391 C385 1.299 . S
O392 Zn380 2.114 . S
O392 C394 1.166 . S
O393 Zn378 1.905 . S
O393 C394 1.182 . S
C394 O392 1.166 . S
C394 O393 1.182 . S
O395 Zn380 2.080 . S
O395 C398 1.305 . S
O396 Zn379 1.920 . S
O396 C398 1.234 . S
C397 O383 1.305 . S
C397 O384 1.234 . S
C398 O395 1.305 . S
C398 O396 1.234 . S
Zn399 O405 1.920 . S
Zn399 O411 1.898 . S
Zn399 O414 1.905 . S
Zn400 O408 1.905 . S
Zn400 O409 1.898 . S
Zn400 O417 1.920 . S
Zn401 O404 2.100 . S
Zn401 O407 2.114 . S
Zn401 O410 2.120 . S
Zn401 O412 2.137 . S
Zn401 O413 2.115 . S
Zn401 O416 2.080 . S
C402 O407 1.166 . S
C402 O408 1.182 . S
C403 O409 1.167 . S
C403 O410 1.299 . S
O404 Zn401 2.100 . S
O404 C418 1.279 1_556 S
O405 Zn399 1.920 . S
O405 C418 1.234 . S
C406 O411 1.167 . S
C406 O412 1.276 1_554 S
O407 Zn401 2.114 . S
O407 C402 1.166 . S
O408 Zn400 1.905 . S
O408 C402 1.182 . S
O409 Zn400 1.898 . S
O409 C403 1.167 . S
O410 Zn401 2.120 . S
O410 C403 1.299 . S
O411 Zn399 1.898 . S
O411 C406 1.167 . S
O412 Zn401 2.137 . S
O412 C406 1.276 1_556 S
O413 Zn401 2.115 . S
O413 C415 1.164 1_556 S
O414 Zn399 1.905 . S
O414 C415 1.182 . S
C415 O413 1.164 1_554 S
C415 O414 1.182 . S
O416 Zn401 2.080 . S
O416 C419 1.305 . S
O417 Zn400 1.920 . S
O417 C419 1.234 . S
C418 O404 1.279 1_554 S
C418 O405 1.234 . S
C419 O416 1.305 . S
C419 O417 1.234 . S
Zn420 O426 1.920 . S
Zn420 O432 1.898 . S
Zn420 O435 1.905 . S
Zn421 O429 1.905 . S
Zn421 O430 1.898 . S
Zn421 O438 1.920 . S
Zn422 O425 2.080 . S
Zn422 O428 2.114 . S
Zn422 O431 2.120 . S
Zn422 O433 2.120 . S
Zn422 O434 2.114 . S
Zn422 O437 2.080 . S
C423 O428 1.166 . S
C423 O429 1.182 . S
C424 O430 1.167 . S
C424 O431 1.299 . S
O425 Zn422 2.080 . S
O425 C439 1.305 . S
O426 Zn420 1.920 . S
O426 C439 1.234 . S
C427 O432 1.167 . S
C427 O433 1.299 . S
O428 Zn422 2.114 . S
O428 C423 1.166 . S
O429 Zn421 1.905 . S
O429 C423 1.182 . S
O430 Zn421 1.898 . S
O430 C424 1.167 . S
O431 Zn422 2.120 . S
O431 C424 1.299 . S
O432 Zn420 1.898 . S
O432 C427 1.167 . S
O433 Zn422 2.120 . S
O433 C427 1.299 . S
O434 Zn422 2.114 . S
O434 C436 1.166 . S
O435 Zn420 1.905 . S
O435 C436 1.182 . S
C436 O434 1.166 . S
C436 O435 1.182 . S
O437 Zn422 2.080 . S
O437 C440 1.305 . S
O438 Zn421 1.920 . S
O438 C440 1.234 . S
C439 O425 1.305 . S
C439 O426 1.234 . S
C440 O437 1.305 . S
C440 O438 1.234 . S
Zn441 O447 1.920 . S
Zn441 O453 1.898 . S
Zn441 O456 1.905 . S
Zn442 O450 1.905 . S
Zn442 O451 1.898 . S
Zn442 O459 1.920 . S
Zn443 O446 2.080 . S
Zn443 O449 2.115 . S
Zn443 O452 2.137 . S
Zn443 O454 2.120 . S
Zn443 O455 2.114 . S
Zn443 O458 2.100 . S
C444 O449 1.164 1_556 S
C444 O450 1.182 . S
C445 O451 1.167 . S
C445 O452 1.276 1_556 S
O446 Zn443 2.080 . S
O446 C460 1.305 . S
O447 Zn441 1.920 . S
O447 C460 1.234 . S
C448 O453 1.167 . S
C448 O454 1.299 . S
O449 Zn443 2.115 . S
O449 C444 1.164 1_554 S
O450 Zn442 1.905 . S
O450 C444 1.182 . S
O451 Zn442 1.898 . S
O451 C445 1.167 . S
O452 Zn443 2.137 . S
O452 C445 1.276 1_554 S
O453 Zn441 1.898 . S
O453 C448 1.167 . S
O454 Zn443 2.120 . S
O454 C448 1.299 . S
O455 Zn443 2.114 . S
O455 C457 1.166 . S
O456 Zn441 1.905 . S
O456 C457 1.182 . S
C457 O455 1.166 . S
C457 O456 1.182 . S
O458 Zn443 2.100 . S
O458 C461 1.279 1_554 S
O459 Zn442 1.920 . S
O459 C461 1.234 . S
C460 O446 1.305 . S
C460 O447 1.234 . S
C461 O458 1.279 1_556 S
C461 O459 1.234 . S
Zn462 O468 1.920 . S
Zn462 O474 1.898 . S
Zn462 O477 1.905 . S
Zn463 O471 1.905 . S
Zn463 O472 1.898 . S
Zn463 O480 1.920 . S
Zn464 O467 2.080 . S
Zn464 O470 2.114 . S
Zn464 O473 2.120 . S
Zn464 O475 2.120 . S
Zn464 O476 2.114 . S
Zn464 O479 2.080 . S
C465 O470 1.166 . S
C465 O471 1.182 . S
C466 O472 1.167 . S
C466 O473 1.299 . S
O467 Zn464 2.080 . S
O467 C481 1.305 . S
O468 Zn462 1.920 . S
O468 C481 1.234 . S
C469 O474 1.167 . S
C469 O475 1.299 . S
O470 Zn464 2.114 . S
O470 C465 1.166 . S
O471 Zn463 1.905 . S
O471 C465 1.182 . S
O472 Zn463 1.898 . S
O472 C466 1.167 . S
O473 Zn464 2.120 . S
O473 C466 1.299 . S
O474 Zn462 1.898 . S
O474 C469 1.167 . S
O475 Zn464 2.120 . S
O475 C469 1.299 . S
O476 Zn464 2.114 . S
O476 C478 1.166 . S
O477 Zn462 1.905 . S
O477 C478 1.182 . S
C478 O476 1.166 . S
C478 O477 1.182 . S
O479 Zn464 2.080 . S
O479 C482 1.305 . S
O480 Zn463 1.920 . S
O480 C482 1.234 . S
C481 O467 1.305 . S
C481 O468 1.234 . S
C482 O479 1.305 . S
C482 O480 1.234 . S
Zn483 O489 1.920 . S
Zn483 O495 1.898 . S
Zn483 O498 1.905 . S
Zn484 O492 1.905 . S
Zn484 O493 1.898 . S
Zn484 O501 1.920 . S
Zn485 O488 2.080 . S
Zn485 O491 2.114 . S
Zn485 O494 2.120 . S
Zn485 O496 2.120 . S
Zn485 O497 2.114 . S
Zn485 O500 2.080 . S
C486 O491 1.166 . S
C486 O492 1.182 . S
C487 O493 1.167 . S
C487 O494 1.299 . S
O488 Zn485 2.080 . S
O488 C502 1.305 . S
O489 Zn483 1.920 . S
O489 C502 1.234 . S
C490 O495 1.167 . S
C490 O496 1.299 . S
O491 Zn485 2.114 . S
O491 C486 1.166 . S
O492 Zn484 1.905 . S
O492 C486 1.182 . S
O493 Zn484 1.898 . S
O493 C487 1.167 . S
O494 Zn485 2.120 . S
O494 C487 1.299 . S
O495 Zn483 1.898 . S
O495 C490 1.167 . S
O496 Zn485 2.120 . S
O496 C490 1.299 . S
O497 Zn485 2.114 . S
O497 C499 1.166 . S
O498 Zn483 1.905 . S
O498 C499 1.182 . S
C499 O497 1.166 . S
C499 O498 1.182 . S
O500 Zn485 2.080 . S
O500 C503 1.305 . S
O501 Zn484 1.920 . S
O501 C503 1.234 . S
C502 O488 1.305 . S
C502 O489 1.234 . S
C503 O500 1.305 . S
C503 O501 1.234 . S
C504 C505 1.387 . S
C504 H508 0.950 . S
C504 C513 1.390 . S
C505 C504 1.387 . S
C505 C507 1.387 . S
H506 C513 0.950 . S
C507 C505 1.387 . S
C507 C509 1.390 . S
C507 H511 0.950 . S
H508 C504 0.950 . S
C509 C507 1.390 . S
C509 C510 1.387 . S
C509 H512 0.950 . S
C510 C509 1.387 . S
C510 C513 1.387 . S
H511 C507 0.950 . S
H512 C509 0.950 . S
C513 C504 1.390 . S
C513 H506 0.950 . S
C513 C510 1.387 . S
C514 C515 1.387 . S
C514 H518 0.950 . S
C514 C523 1.390 . S
C515 C514 1.387 . S
C515 C517 1.387 1_565 S
H516 C523 0.950 . S
C517 C515 1.387 1_545 S
C517 C519 1.390 . S
C517 H521 0.950 . S
H518 C514 0.950 . S
C519 C517 1.390 . S
C519 C520 1.387 . S
C519 H522 0.950 . S
C520 C519 1.387 . S
C520 C523 1.387 1_545 S
H521 C517 0.950 . S
H522 C519 0.950 . S
C523 C514 1.390 . S
C523 H516 0.950 . S
C523 C520 1.387 1_565 S
C524 C525 1.387 1_655 S
C524 H528 0.950 . S
C524 C533 1.390 . S
C525 C524 1.387 1_455 S
C525 C527 1.387 . S
H526 C533 0.950 . S
C527 C525 1.387 . S
C527 C529 1.390 . S
C527 H531 0.950 . S
H528 C524 0.950 . S
C529 C527 1.390 . S
C529 C530 1.387 . S
C529 H532 0.950 . S
C530 C529 1.387 . S
C530 C533 1.387 1_455 S
H531 C527 0.950 . S
H532 C529 0.950 . S
C533 C524 1.390 . S
C533 H526 0.950 . S
C533 C530 1.387 1_655 S
C534 C535 1.387 . S
C534 H538 0.950 . S
C534 C543 1.390 . S
C535 C534 1.387 . S
C535 C537 1.387 . S
H536 C543 0.950 . S
C537 C535 1.387 . S
C537 C539 1.390 . S
C537 H541 0.950 . S
H538 C534 0.950 . S
C539 C537 1.390 . S
C539 C540 1.387 . S
C539 H542 0.950 . S
C540 C539 1.387 . S
C540 C543 1.387 . S
H541 C537 0.950 . S
H542 C539 0.950 . S
C543 C534 1.390 . S
C543 H536 0.950 . S
C543 C540 1.387 . S
C544 C545 1.387 1_565 S
C544 H548 0.950 . S
C544 C553 1.390 . S
C545 C544 1.387 1_545 S
C545 C547 1.387 . S
H546 C553 0.950 . S
C547 C545 1.387 . S
C547 C549 1.390 . S
C547 H551 0.950 . S
H548 C544 0.950 . S
C549 C547 1.390 . S
C549 C550 1.387 1_545 S
C549 H552 0.950 . S
C550 C549 1.387 1_565 S
C550 C553 1.387 . S
H551 C547 0.950 . S
H552 C549 0.950 . S
C553 C544 1.390 . S
C553 H546 0.950 . S
C553 C550 1.387 . S
C554 C555 1.387 1_455 S
C554 H558 0.950 . S
C554 C563 1.390 . S
C555 C554 1.387 1_655 S
C555 C557 1.387 . S
H556 C563 0.950 . S
C557 C555 1.387 . S
C557 C559 1.390 . S
C557 H561 0.950 . S
H558 C554 0.950 . S
C559 C557 1.390 . S
C559 C560 1.387 1_655 S
C559 H562 0.950 . S
C560 C559 1.387 1_455 S
C560 C563 1.387 . S
H561 C557 0.950 . S
H562 C559 0.950 . S
C563 C554 1.390 . S
C563 H556 0.950 . S
C563 C560 1.387 . S
C564 C565 1.387 . S
C564 H568 0.950 . S
C564 C573 1.390 . S
C565 C564 1.387 . S
C565 C567 1.387 . S
H566 C573 0.950 . S
C567 C565 1.387 . S
C567 C569 1.390 . S
C567 H571 0.950 . S
H568 C564 0.950 . S
C569 C567 1.390 . S
C569 C570 1.387 . S
C569 H572 0.950 . S
C570 C569 1.387 . S
C570 C573 1.387 . S
H571 C567 0.950 . S
H572 C569 0.950 . S
C573 C564 1.390 . S
C573 H566 0.950 . S
C573 C570 1.387 . S
C574 C575 1.387 1_565 S
C574 H578 0.950 . S
C574 C583 1.390 . S
C575 C574 1.387 1_545 S
C575 C577 1.387 . S
H576 C583 0.950 . S
C577 C575 1.387 . S
C577 C579 1.390 . S
C577 H581 0.950 . S
H578 C574 0.950 . S
C579 C577 1.390 . S
C579 C580 1.387 . S
C579 H582 0.950 . S
C580 C579 1.387 . S
C580 C583 1.387 1_545 S
H581 C577 0.950 . S
H582 C579 0.950 . S
C583 C574 1.390 . S
C583 H576 0.950 . S
C583 C580 1.387 1_565 S
C584 C585 1.387 . S
C584 H588 0.950 . S
C584 C593 1.390 . S
C585 C584 1.387 . S
C585 C587 1.387 1_455 S
H586 C593 0.950 . S
C587 C585 1.387 1_655 S
C587 C589 1.390 . S
C587 H591 0.950 . S
H588 C584 0.950 . S
C589 C587 1.390 . S
C589 C590 1.387 1_655 S
C589 H592 0.950 . S
C590 C589 1.387 1_455 S
C590 C593 1.387 . S
H591 C587 0.950 . S
H592 C589 0.950 . S
C593 C584 1.390 . S
C593 H586 0.950 . S
C593 C590 1.387 . S
C594 C595 1.387 . S
C594 H598 0.950 . S
C594 C603 1.390 . S
C595 C594 1.387 . S
C595 C597 1.387 . S
H596 C603 0.950 . S
C597 C595 1.387 . S
C597 C599 1.390 . S
C597 H601 0.950 . S
H598 C594 0.950 . S
C599 C597 1.390 . S
C599 C600 1.387 . S
C599 H602 0.950 . S
C600 C599 1.387 . S
C600 C603 1.387 . S
H601 C597 0.950 . S
H602 C599 0.950 . S
C603 C594 1.390 . S
C603 H596 0.950 . S
C603 C600 1.387 . S
C604 C605 1.387 1_565 S
C604 H608 0.950 . S
C604 C613 1.390 . S
C605 C604 1.387 1_545 S
C605 C607 1.387 . S
H606 C613 0.950 . S
C607 C605 1.387 . S
C607 C609 1.390 . S
C607 H611 0.950 . S
H608 C604 0.950 . S
C609 C607 1.390 . S
C609 C610 1.387 . S
C609 H612 0.950 . S
C610 C609 1.387 . S
C610 C613 1.387 1_545 S
H611 C607 0.950 . S
H612 C609 0.950 . S
C613 C604 1.390 . S
C613 H606 0.950 . S
C613 C610 1.387 1_565 S
C614 C615 1.387 . S
C614 H618 0.950 . S
C614 C623 1.390 . S
C615 C614 1.387 . S
C615 C617 1.387 1_455 S
H616 C623 0.950 . S
C617 C615 1.387 1_655 S
C617 C619 1.390 . S
C617 H621 0.950 . S
H618 C614 0.950 . S
C619 C617 1.390 . S
C619 C620 1.387 1_655 S
C619 H622 0.950 . S
C620 C619 1.387 1_455 S
C620 C623 1.387 . S
H621 C617 0.950 . S
H622 C619 0.950 . S
C623 C614 1.390 . S
C623 H616 0.950 . S
C623 C620 1.387 . S
C624 C625 1.387 . S
C624 H628 0.950 . S
C624 C633 1.390 . S
C625 C624 1.387 . S
C625 C627 1.387 . S
H626 C633 0.950 . S
C627 C625 1.387 . S
C627 C629 1.390 . S
C627 H631 0.950 . S
H628 C624 0.950 . S
C629 C627 1.390 . S
C629 C630 1.387 . S
C629 H632 0.950 . S
C630 C629 1.387 . S
C630 C633 1.387 . S
H631 C627 0.950 . S
H632 C629 0.950 . S
C633 C624 1.390 . S
C633 H626 0.950 . S
C633 C630 1.387 . S
C634 C635 1.387 . S
C634 H638 0.950 . S
C634 C643 1.390 . S
C635 C634 1.387 . S
C635 C637 1.387 . S
H636 C643 0.950 . S
C637 C635 1.387 . S
C637 C639 1.390 . S
C637 H641 0.950 . S
H638 C634 0.950 . S
C639 C637 1.390 . S
C639 C640 1.387 . S
C639 H642 0.950 . S
C640 C639 1.387 . S
C640 C643 1.387 . S
H641 C637 0.950 . S
H642 C639 0.950 . S
C643 C634 1.390 . S
C643 H636 0.950 . S
C643 C640 1.387 . S
C644 C645 1.387 . S
C644 H648 0.950 . S
C644 C653 1.390 . S
C645 C644 1.387 . S
C645 C647 1.387 . S
H646 C653 0.950 . S
C647 C645 1.387 . S
C647 C649 1.390 . S
C647 H651 0.950 . S
H648 C644 0.950 . S
C649 C647 1.390 . S
C649 C650 1.387 . S
C649 H652 0.950 . S
C650 C649 1.387 . S
C650 C653 1.387 . S
H651 C647 0.950 . S
H652 C649 0.950 . S
C653 C644 1.390 . S
C653 H646 0.950 . S
C653 C650 1.387 . S
C654 C655 1.387 . S
C654 H658 0.950 . S
C654 C663 1.390 . S
C655 C654 1.387 . S
C655 C657 1.387 . S
H656 C663 0.950 . S
C657 C655 1.387 . S
C657 C659 1.390 . S
C657 H661 0.950 . S
H658 C654 0.950 . S
C659 C657 1.390 . S
C659 C660 1.387 . S
C659 H662 0.950 . S
C660 C659 1.387 . S
C660 C663 1.387 . S
H661 C657 0.950 . S
H662 C659 0.950 . S
C663 C654 1.390 . S
C663 H656 0.950 . S
C663 C660 1.387 . S
C664 C665 1.387 . S
C664 H668 0.950 . S
C664 C673 1.390 . S
C665 C664 1.387 . S
C665 C667 1.387 . S
H666 C673 0.950 . S
C667 C665 1.387 . S
C667 C669 1.390 . S
C667 H671 0.950 . S
H668 C664 0.950 . S
C669 C667 1.390 . S
C669 C670 1.387 . S
C669 H672 0.950 . S
C670 C669 1.387 . S
C670 C673 1.387 . S
H671 C667 0.950 . S
H672 C669 0.950 . S
C673 C664 1.390 . S
C673 H666 0.950 . S
C673 C670 1.387 . S
C674 C675 1.387 . S
C674 H678 0.950 . S
C674 C683 1.390 . S
C675 C674 1.387 . S
C675 C677 1.387 . S
H676 C683 0.950 . S
C677 C675 1.387 . S
C677 C679 1.390 . S
C677 H681 0.950 . S
H678 C674 0.950 . S
C679 C677 1.390 . S
C679 C680 1.387 . S
C679 H682 0.950 . S
C680 C679 1.387 . S
C680 C683 1.387 . S
H681 C677 0.950 . S
H682 C679 0.950 . S
C683 C674 1.390 . S
C683 H676 0.950 . S
C683 C680 1.387 . S
C684 C685 1.387 . S
C684 H688 0.950 . S
C684 C693 1.390 . S
C685 C684 1.387 . S
C685 C687 1.387 . S
H686 C693 0.950 . S
C687 C685 1.387 . S
C687 C689 1.390 . S
C687 H691 0.950 . S
H688 C684 0.950 . S
C689 C687 1.390 . S
C689 C690 1.387 . S
C689 H692 0.950 . S
C690 C689 1.387 . S
C690 C693 1.387 . S
H691 C687 0.950 . S
H692 C689 0.950 . S
C693 C684 1.390 . S
C693 H686 0.950 . S
C693 C690 1.387 . S
C694 C695 1.387 . S
C694 H698 0.950 . S
C694 C703 1.390 . S
C695 C694 1.387 . S
C695 C697 1.387 . S
H696 C703 0.950 . S
C697 C695 1.387 . S
C697 C699 1.390 . S
C697 H701 0.950 . S
H698 C694 0.950 . S
C699 C697 1.390 . S
C699 C700 1.387 . S
C699 H702 0.950 . S
C700 C699 1.387 . S
C700 C703 1.387 . S
H701 C697 0.950 . S
H702 C699 0.950 . S
C703 C694 1.390 . S
C703 H696 0.950 . S
C703 C700 1.387 . S
C704 C705 1.387 . S
C704 H708 0.950 . S
C704 C713 1.390 . S
C705 C704 1.387 . S
C705 C707 1.387 . S
H706 C713 0.950 . S
C707 C705 1.387 . S
C707 C709 1.390 . S
C707 H711 0.950 . S
H708 C704 0.950 . S
C709 C707 1.390 . S
C709 C710 1.387 . S
C709 H712 0.950 . S
C710 C709 1.387 . S
C710 C713 1.387 . S
H711 C707 0.950 . S
H712 C709 0.950 . S
C713 C704 1.390 . S
C713 H706 0.950 . S
C713 C710 1.387 . S
C714 C715 1.387 . S
C714 H718 0.950 . S
C714 C723 1.390 . S
C715 C714 1.387 . S
C715 C717 1.387 . S
H716 C723 0.946 . S
C717 C715 1.387 . S
C717 C719 1.390 . S
C717 H721 0.950 . S
H718 C714 0.950 . S
C719 C717 1.390 . S
C719 C720 1.387 . S
C719 H722 0.950 . S
C720 C719 1.387 . S
C720 C723 1.387 . S
H721 C717 0.950 . S
H722 C719 0.950 . S
C723 C714 1.390 . S
C723 H716 0.946 . S
C723 C720 1.387 . S
C724 C725 1.387 . S
C724 H728 0.950 . S
C724 C733 1.390 . S
C725 C724 1.387 . S
C725 C727 1.387 . S
H726 C733 0.950 . S
C727 C725 1.387 . S
C727 C729 1.390 . S
C727 H731 0.950 . S
H728 C724 0.950 . S
C729 C727 1.390 . S
C729 C730 1.387 . S
C729 H732 0.974 . S
C730 C729 1.387 . S
C730 C733 1.387 . S
H731 C727 0.950 . S
H732 C729 0.974 . S
C733 C724 1.390 . S
C733 H726 0.950 . S
C733 C730 1.387 . S
C734 C735 1.387 . S
C734 H738 0.950 . S
C734 C743 1.390 . S
C735 C734 1.387 . S
C735 C737 1.387 . S
H736 C743 0.950 . S
C737 C735 1.387 . S
C737 C739 1.390 . S
C737 H741 0.950 . S
H738 C734 0.950 . S
C739 C737 1.390 . S
C739 C740 1.387 . S
C739 H742 0.946 1_554 S
C740 C739 1.387 . S
C740 C743 1.387 . S
H741 C737 0.950 . S
H742 C739 0.946 1_556 S
C743 C734 1.390 . S
C743 H736 0.950 . S
C743 C740 1.387 . S
C744 C745 1.387 . S
C744 H748 0.950 . S
C744 C753 1.390 . S
C745 C744 1.387 . S
C745 C747 1.387 . S
H746 C753 0.950 . S
C747 C745 1.387 . S
C747 C749 1.390 . S
C747 H751 0.950 . S
H748 C744 0.950 . S
C749 C747 1.390 . S
C749 C750 1.387 . S
C749 H752 0.950 . S
C750 C749 1.387 . S
C750 C753 1.387 . S
H751 C747 0.950 . S
H752 C749 0.950 . S
C753 C744 1.390 . S
C753 H746 0.950 . S
C753 C750 1.387 . S
C754 C755 1.387 . S
C754 H758 0.950 . S
C754 C763 1.390 . S
C755 C754 1.387 . S
C755 C757 1.387 . S
H756 C763 0.950 . S
C757 C755 1.387 . S
C757 C759 1.390 . S
C757 H761 0.950 . S
H758 C754 0.950 . S
C759 C757 1.390 . S
C759 C760 1.387 . S
C759 H762 0.950 . S
C760 C759 1.387 . S
C760 C763 1.387 . S
H761 C757 0.950 . S
H762 C759 0.950 . S
C763 C754 1.390 . S
C763 H756 0.950 . S
C763 C760 1.387 . S
C764 C765 1.387 . S
C764 H768 0.950 . S
C764 C773 1.390 . S
C765 C764 1.387 . S
C765 C767 1.387 . S
H766 C773 0.950 . S
C767 C765 1.387 . S
C767 C769 1.390 . S
C767 H771 0.950 . S
H768 C764 0.950 . S
C769 C767 1.390 . S
C769 C770 1.387 . S
C769 H772 0.950 . S
C770 C769 1.387 . S
C770 C773 1.387 . S
H771 C767 0.950 . S
H772 C769 0.950 . S
C773 C764 1.390 . S
C773 H766 0.950 . S
C773 C770 1.387 . S
C774 C775 1.387 . S
C774 H778 0.950 . S
C774 C783 1.390 . S
C775 C774 1.387 . S
C775 C777 1.387 . S
H776 C783 0.950 . S
C777 C775 1.387 . S
C777 C779 1.390 . S
C777 H781 0.950 . S
H778 C774 0.950 . S
C779 C777 1.390 . S
C779 C780 1.387 . S
C779 H782 0.950 . S
C780 C779 1.387 . S
C780 C783 1.387 . S
H781 C777 0.950 . S
H782 C779 0.950 . S
C783 C774 1.390 . S
C783 H776 0.950 . S
C783 C780 1.387 . S
C784 C785 1.387 . S
C784 H788 0.950 . S
C784 C793 1.390 . S
C785 C784 1.387 . S
C785 C787 1.387 . S
H786 C793 0.950 . S
C787 C785 1.387 . S
C787 C789 1.390 . S
C787 H791 0.950 . S
H788 C784 0.950 . S
C789 C787 1.390 . S
C789 C790 1.387 . S
C789 H792 0.908 1_556 S
C790 C789 1.387 . S
C790 C793 1.387 . S
H791 C787 0.950 . S
H792 C789 0.908 1_554 S
C793 C784 1.390 . S
C793 H786 0.950 . S
C793 C790 1.387 . S
C794 C795 1.387 . S
C794 H798 0.950 . S
C794 C803 1.390 . S
C795 C794 1.387 . S
C795 C797 1.387 . S
H796 C803 0.950 . S
C797 C795 1.387 . S
C797 C799 1.390 . S
C797 H801 0.950 . S
H798 C794 0.950 . S
C799 C797 1.390 . S
C799 C800 1.387 . S
C799 H802 0.950 1_556 S
C800 C799 1.387 . S
C800 C803 1.387 . S
H801 C797 0.950 . S
H802 C799 0.950 1_554 S
C803 C794 1.390 . S
C803 H796 0.950 . S
C803 C800 1.387 . S
C804 C805 1.387 . S
C804 H808 0.950 . S
C804 C813 1.390 . S
C805 C804 1.387 . S
C805 C807 1.387 . S
H806 C813 0.950 . S
C807 C805 1.387 . S
C807 C809 1.390 . S
C807 H811 0.950 . S
H808 C804 0.950 . S
C809 C807 1.390 . S
C809 C810 1.387 . S
C809 H812 0.950 . S
C810 C809 1.387 . S
C810 C813 1.387 . S
H811 C807 0.950 . S
H812 C809 0.950 . S
C813 C804 1.390 . S
C813 H806 0.950 . S
C813 C810 1.387 . S
C814 C815 1.387 . S
C814 H818 0.950 . S
C814 C823 1.390 . S
C815 C814 1.387 . S
C815 C817 1.387 . S
H816 C823 0.950 . S
C817 C815 1.387 . S
C817 C819 1.390 . S
C817 H821 0.950 . S
H818 C814 0.950 . S
C819 C817 1.390 . S
C819 C820 1.387 . S
C819 H822 0.950 . S
C820 C819 1.387 . S
C820 C823 1.387 . S
H821 C817 0.950 . S
H822 C819 0.950 . S
C823 C814 1.390 . S
C823 H816 0.950 . S
C823 C820 1.387 . S
C824 C825 1.387 . S
C824 H828 0.950 . S
C824 C833 1.390 . S
C825 C824 1.387 . S
C825 C827 1.387 . S
H826 C833 0.950 . S
C827 C825 1.387 . S
C827 C829 1.390 . S
C827 H831 0.950 . S
H828 C824 0.950 . S
C829 C827 1.390 . S
C829 C830 1.387 . S
C829 H832 0.950 . S
C830 C829 1.387 . S
C830 C833 1.387 . S
H831 C827 0.950 . S
H832 C829 0.950 . S
C833 C824 1.390 . S
C833 H826 0.950 . S
C833 C830 1.387 . S
C834 C835 1.387 . S
C834 H838 0.950 . S
C834 C843 1.390 . S
C835 C834 1.387 . S
C835 C837 1.387 . S
H836 C843 0.950 . S
C837 C835 1.387 . S
C837 C839 1.390 . S
C837 H841 0.950 . S
H838 C834 0.950 . S
C839 C837 1.390 . S
C839 C840 1.387 . S
C839 H842 0.950 . S
C840 C839 1.387 . S
C840 C843 1.387 . S
H841 C837 0.950 . S
H842 C839 0.950 . S
C843 C834 1.390 . S
C843 H836 0.950 . S
C843 C840 1.387 . S
C844 C845 1.387 . S
C844 H848 0.950 . S
C844 C853 1.390 . S
C845 C844 1.387 . S
C845 C847 1.387 . S
H846 C853 0.950 . S
C847 C845 1.387 . S
C847 C849 1.390 . S
C847 H851 0.950 . S
H848 C844 0.950 . S
C849 C847 1.390 . S
C849 C850 1.387 . S
C849 H852 0.950 . S
C850 C849 1.387 . S
C850 C853 1.387 . S
H851 C847 0.950 . S
H852 C849 0.950 . S
C853 C844 1.390 . S
C853 H846 0.950 . S
C853 C850 1.387 . S
C854 C855 1.387 . S
C854 H858 0.950 . S
C854 C863 1.390 . S
C855 C854 1.387 . S
C855 C857 1.387 . S
H856 C863 0.950 . S
C857 C855 1.387 . S
C857 C859 1.390 . S
C857 H861 0.950 . S
H858 C854 0.950 . S
C859 C857 1.390 . S
C859 C860 1.387 . S
C859 H862 0.950 . S
C860 C859 1.387 . S
C860 C863 1.387 . S
H861 C857 0.950 . S
H862 C859 0.950 . S
C863 C854 1.390 . S
C863 H856 0.950 . S
C863 C860 1.387 . S
C864 C865 1.387 . S
C864 H868 0.950 . S
C864 C873 1.390 . S
C865 C864 1.387 . S
C865 C867 1.387 . S
H866 C873 0.950 . S
C867 C865 1.387 . S
C867 C869 1.390 . S
C867 H871 0.950 1_545 S
H868 C864 0.950 . S
C869 C867 1.390 . S
C869 C870 1.387 . S
C869 H872 0.950 1_545 S
C870 C869 1.387 . S
C870 C873 1.387 . S
H871 C867 0.950 1_565 S
H872 C869 0.950 1_565 S
C873 C864 1.390 . S
C873 H866 0.950 . S
C873 C870 1.387 . S
C874 C875 1.387 . S
C874 H878 0.950 . S
C874 C883 1.390 . S
C875 C874 1.387 . S
C875 C877 1.387 . S
H876 C883 0.948 1_455 S
C877 C875 1.387 . S
C877 C879 1.390 . S
C877 H881 0.950 . S
H878 C874 0.950 . S
C879 C877 1.390 . S
C879 C880 1.387 . S
C879 H882 0.950 . S
C880 C879 1.387 . S
C880 C883 1.387 . S
H881 C877 0.950 . S
H882 C879 0.950 . S
C883 C874 1.390 . S
C883 H876 0.948 1_655 S
C883 C880 1.387 . S
C884 C885 1.387 . S
C884 H888 0.950 . S
C884 C893 1.390 . S
C885 C884 1.387 . S
C885 C887 1.387 . S
H886 C893 0.950 . S
C887 C885 1.387 . S
C887 C889 1.390 . S
C887 H891 0.950 . S
H888 C884 0.950 . S
C889 C887 1.390 . S
C889 C890 1.387 . S
C889 H892 0.950 . S
C890 C889 1.387 . S
C890 C893 1.387 . S
H891 C887 0.950 . S
H892 C889 0.950 . S
C893 C884 1.390 . S
C893 H886 0.950 . S
C893 C890 1.387 . S
C894 C895 1.387 . S
C894 H898 0.950 . S
C894 C903 1.390 . S
C895 C894 1.387 . S
C895 C897 1.387 . S
H896 C903 0.950 . S
C897 C895 1.387 . S
C897 C899 1.390 . S
C897 H901 0.950 1_455 S
H898 C894 0.950 . S
C899 C897 1.390 . S
C899 C900 1.387 . S
C899 H902 0.950 1_455 S
C900 C899 1.387 . S
C900 C903 1.387 . S
H901 C897 0.950 1_655 S
H902 C899 0.950 1_655 S
C903 C894 1.390 . S
C903 H896 0.950 . S
C903 C900 1.387 . S
C904 C905 1.387 . S
C904 H908 0.950 . S
C904 C913 1.390 . S
C905 C904 1.387 . S
C905 C907 1.387 . S
H906 C913 0.950 . S
C907 C905 1.387 . S
C907 C909 1.390 . S
C907 H911 0.950 . S
H908 C904 0.950 . S
C909 C907 1.390 . S
C909 C910 1.387 . S
C909 H912 0.950 . S
C910 C909 1.387 . S
C910 C913 1.387 . S
H911 C907 0.950 . S
H912 C909 0.950 . S
C913 C904 1.390 . S
C913 H906 0.950 . S
C913 C910 1.387 . S
C914 C915 1.387 . S
C914 H918 0.950 . S
C914 C923 1.390 . S
C915 C914 1.387 . S
C915 C917 1.387 1_565 S
H916 C923 0.950 . S
C917 C915 1.387 1_545 S
C917 C919 1.390 . S
C917 H921 0.950 . S
H918 C914 0.950 . S
C919 C917 1.390 . S
C919 C920 1.387 1_545 S
C919 H922 0.950 . S
C920 C919 1.387 1_565 S
C920 C923 1.387 . S
H921 C917 0.950 . S
H922 C919 0.950 . S
C923 C914 1.390 . S
C923 H916 0.950 . S
C923 C920 1.387 . S
C924 C925 1.387 1_545 S
C924 H928 0.950 . S
C924 C933 1.390 . S
C925 C924 1.387 1_565 S
C925 C927 1.387 . S
H926 C933 0.950 . S
C927 C925 1.387 . S
C927 C929 1.390 . S
C927 H931 0.950 . S
H928 C924 0.950 . S
C929 C927 1.390 . S
C929 C930 1.387 . S
C929 H932 0.950 . S
C930 C929 1.387 . S
C930 C933 1.387 1_565 S
H931 C927 0.950 . S
H932 C929 0.950 . S
C933 C924 1.390 . S
C933 H926 0.950 . S
C933 C930 1.387 1_545 S
C934 C935 1.387 . S
C934 H938 0.950 . S
C934 C943 1.390 . S
C935 C934 1.387 . S
C935 C937 1.387 . S
H936 C943 0.950 . S
C937 C935 1.387 . S
C937 C939 1.390 . S
C937 H941 0.950 . S
H938 C934 0.950 . S
C939 C937 1.390 . S
C939 C940 1.387 . S
C939 H942 0.950 . S
C940 C939 1.387 . S
C940 C943 1.387 . S
H941 C937 0.950 . S
H942 C939 0.950 . S
C943 C934 1.390 . S
C943 H936 0.950 . S
C943 C940 1.387 . S
C944 C945 1.387 . S
C944 H948 0.950 . S
C944 C953 1.390 . S
C945 C944 1.387 . S
C945 C947 1.387 . S
H946 C953 0.950 . S
C947 C945 1.387 . S
C947 C949 1.390 . S
C947 H951 0.950 . S
H948 C944 0.950 . S
C949 C947 1.390 . S
C949 C950 1.387 . S
C949 H952 0.950 . S
C950 C949 1.387 . S
C950 C953 1.387 . S
H951 C947 0.950 . S
H952 C949 0.950 . S
C953 C944 1.390 . S
C953 H946 0.950 . S
C953 C950 1.387 . S
C954 C955 1.387 . S
C954 H958 0.950 . S
C954 C963 1.390 . S
C955 C954 1.387 . S
C955 C957 1.387 1_655 S
H956 C963 0.950 . S
C957 C955 1.387 1_455 S
C957 C959 1.390 . S
C957 H961 0.950 . S
H958 C954 0.950 . S
C959 C957 1.390 . S
C959 C960 1.387 1_455 S
C959 H962 0.950 . S
C960 C959 1.387 1_655 S
C960 C963 1.387 . S
H961 C957 0.950 . S
H962 C959 0.950 . S
C963 C954 1.390 . S
C963 H956 0.950 . S
C963 C960 1.387 . S
C964 C965 1.387 . S
C964 H968 0.950 . S
C964 C973 1.390 . S
C965 C964 1.387 . S
C965 C967 1.387 . S
H966 C973 0.950 . S
C967 C965 1.387 . S
C967 C969 1.390 . S
C967 H971 0.950 . S
H968 C964 0.950 . S
C969 C967 1.390 . S
C969 C970 1.387 . S
C969 H972 0.950 . S
C970 C969 1.387 . S
C970 C973 1.387 . S
H971 C967 0.950 . S
H972 C969 0.950 . S
C973 C964 1.390 . S
C973 H966 0.950 . S
C973 C970 1.387 . S
C974 C975 1.387 . S
C974 H978 0.950 1_545 S
C974 C983 1.390 . S
C975 C974 1.387 . S
C975 C977 1.387 . S
H976 C983 0.950 1_565 S
C977 C975 1.387 . S
C977 C979 1.390 . S
C977 H981 0.950 . S
H978 C974 0.950 1_565 S
C979 C977 1.390 . S
C979 C980 1.387 . S
C979 H982 0.950 . S
C980 C979 1.387 . S
C980 C983 1.387 . S
H981 C977 0.950 . S
H982 C979 0.950 . S
C983 C974 1.390 . S
C983 H976 0.950 1_545 S
C983 C980 1.387 . S
C984 C985 1.387 . S
C984 H988 0.950 . S
C984 C993 1.390 . S
C985 C984 1.387 . S
C985 C987 1.387 . S
H986 C993 0.950 . S
C987 C985 1.387 . S
C987 C989 1.390 . S
C987 H991 0.950 . S
H988 C984 0.950 . S
C989 C987 1.390 . S
C989 C990 1.387 . S
C989 H992 0.950 . S
C990 C989 1.387 . S
C990 C993 1.387 . S
H991 C987 0.950 . S
H992 C989 0.950 . S
C993 C984 1.390 . S
C993 H986 0.950 . S
C993 C990 1.387 . S
C994 C995 1.387 . S
C994 H998 0.950 . S
C994 C1003 1.390 . S
C995 C994 1.387 . S
C995 C997 1.387 . S
H996 C1003 0.950 . S
C997 C995 1.387 . S
C997 C999 1.390 . S
C997 H1001 0.950 . S
H998 C994 0.950 . S
C999 C997 1.390 . S
C999 C1000 1.387 . S
C999 H1002 0.950 . S
C1000 C999 1.387 . S
C1000 C1003 1.387 . S
H1001 C997 0.950 . S
H1002 C999 0.950 . S
C1003 C994 1.390 . S
C1003 H996 0.950 . S
C1003 C1000 1.387 . S
C1004 C1005 1.387 . S
C1004 H1008 0.950 . S
C1004 C1013 1.390 . S
C1005 C1004 1.387 . S
C1005 C1007 1.387 . S
H1006 C1013 0.950 . S
C1007 C1005 1.387 . S
C1007 C1009 1.390 . S
C1007 H1011 0.950 . S
H1008 C1004 0.950 . S
C1009 C1007 1.390 . S
C1009 C1010 1.387 . S
C1009 H1012 0.950 . S
C1010 C1009 1.387 . S
C1010 C1013 1.387 . S
H1011 C1007 0.950 . S
H1012 C1009 0.950 . S
C1013 C1004 1.390 . S
C1013 H1006 0.950 . S
C1013 C1010 1.387 . S
C1014 C1015 1.387 . S
C1014 H1018 0.950 . S
C1014 C1023 1.390 . S
C1015 C1014 1.387 . S
C1015 C1017 1.387 . S
H1016 C1023 0.950 . S
C1017 C1015 1.387 . S
C1017 C1019 1.390 . S
C1017 H1021 0.950 . S
H1018 C1014 0.950 . S
C1019 C1017 1.390 . S
C1019 C1020 1.387 . S
C1019 H1022 0.950 . S
C1020 C1019 1.387 . S
C1020 C1023 1.387 . S
H1021 C1017 0.950 . S
H1022 C1019 0.950 . S
C1023 C1014 1.390 . S
C1023 H1016 0.950 . S
C1023 C1020 1.387 . S
C1024 C1025 1.387 . S
C1024 H1028 0.950 . S
C1024 C1033 1.390 . S
C1025 C1024 1.387 . S
C1025 C1027 1.387 . S
H1026 C1033 0.950 . S
C1027 C1025 1.387 . S
C1027 C1029 1.390 . S
C1027 H1031 0.950 . S
H1028 C1024 0.950 . S
C1029 C1027 1.390 . S
C1029 C1030 1.387 . S
C1029 H1032 0.950 . S
C1030 C1029 1.387 . S
C1030 C1033 1.387 . S
H1031 C1027 0.950 . S
H1032 C1029 0.950 . S
C1033 C1024 1.390 . S
C1033 H1026 0.950 . S
C1033 C1030 1.387 . S
C1034 C1035 1.387 . S
C1034 H1038 0.950 . S
C1034 C1043 1.390 . S
C1035 C1034 1.387 . S
C1035 C1037 1.387 . S
H1036 C1043 0.950 . S
C1037 C1035 1.387 . S
C1037 C1039 1.390 . S
C1037 H1041 0.950 . S
H1038 C1034 0.950 . S
C1039 C1037 1.390 . S
C1039 C1040 1.387 . S
C1039 H1042 0.950 . S
C1040 C1039 1.387 . S
C1040 C1043 1.387 . S
H1041 C1037 0.950 . S
H1042 C1039 0.950 . S
C1043 C1034 1.390 . S
C1043 H1036 0.950 . S
C1043 C1040 1.387 . S
C1044 C1045 1.387 . S
C1044 H1048 0.950 . S
C1044 C1053 1.390 . S
C1045 C1044 1.387 . S
C1045 C1047 1.387 . S
H1046 C1053 0.950 . S
C1047 C1045 1.387 . S
C1047 C1049 1.390 . S
C1047 H1051 0.950 . S
H1048 C1044 0.950 . S
C1049 C1047 1.390 . S
C1049 C1050 1.387 . S
C1049 H1052 0.950 . S
C1050 C1049 1.387 . S
C1050 C1053 1.387 . S
H1051 C1047 0.950 . S
H1052 C1049 0.950 . S
C1053 C1044 1.390 . S
C1053 H1046 0.950 . S
C1053 C1050 1.387 . S
C1054 C1055 1.387 . S
C1054 H1058 0.950 . S
C1054 C1063 1.390 . S
C1055 C1054 1.387 . S
C1055 C1057 1.387 . S
H1056 C1063 0.950 . S
C1057 C1055 1.387 . S
C1057 C1059 1.390 . S
C1057 H1061 0.950 . S
H1058 C1054 0.950 . S
C1059 C1057 1.390 . S
C1059 C1060 1.387 . S
C1059 H1062 0.950 . S
C1060 C1059 1.387 . S
C1060 C1063 1.387 . S
H1061 C1057 0.950 . S
H1062 C1059 0.950 . S
C1063 C1054 1.390 . S
C1063 H1056 0.950 . S
C1063 C1060 1.387 . S
C1064 C1065 1.387 . S
C1064 H1068 0.950 . S
C1064 C1073 1.390 . S
C1065 C1064 1.387 . S
C1065 C1067 1.387 . S
H1066 C1073 0.950 . S
C1067 C1065 1.387 . S
C1067 C1069 1.390 . S
C1067 H1071 0.950 . S
H1068 C1064 0.950 . S
C1069 C1067 1.390 . S
C1069 C1070 1.387 . S
C1069 H1072 0.950 . S
C1070 C1069 1.387 . S
C1070 C1073 1.387 . S
H1071 C1067 0.950 . S
H1072 C1069 0.950 . S
C1073 C1064 1.390 . S
C1073 H1066 0.950 . S
C1073 C1070 1.387 . S
C1074 C1075 1.387 . S
C1074 H1078 0.950 . S
C1074 C1083 1.390 . S
C1075 C1074 1.387 . S
C1075 C1077 1.387 . S
H1076 C1083 0.950 . S
C1077 C1075 1.387 . S
C1077 C1079 1.390 . S
C1077 H1081 0.950 . S
H1078 C1074 0.950 . S
C1079 C1077 1.390 . S
C1079 C1080 1.387 . S
C1079 H1082 0.950 . S
C1080 C1079 1.387 . S
C1080 C1083 1.387 . S
H1081 C1077 0.950 . S
H1082 C1079 0.950 . S
C1083 C1074 1.390 . S
C1083 H1076 0.950 . S
C1083 C1080 1.387 . S
C1084 C1085 1.387 . S
C1084 H1088 0.950 . S
C1084 C1093 1.390 . S
C1085 C1084 1.387 . S
C1085 C1087 1.387 . S
H1086 C1093 0.950 . S
C1087 C1085 1.387 . S
C1087 C1089 1.390 . S
C1087 H1091 0.950 . S
H1088 C1084 0.950 . S
C1089 C1087 1.390 . S
C1089 C1090 1.387 . S
C1089 H1092 0.950 . S
C1090 C1089 1.387 . S
C1090 C1093 1.387 . S
H1091 C1087 0.950 . S
H1092 C1089 0.950 . S
C1093 C1084 1.390 . S
C1093 H1086 0.950 . S
C1093 C1090 1.387 . S
C1094 C1095 1.387 . S
C1094 H1098 0.950 . S
C1094 C1103 1.390 . S
C1095 C1094 1.387 . S
C1095 C1097 1.387 . S
H1096 C1103 0.950 . S
C1097 C1095 1.387 . S
C1097 C1099 1.390 . S
C1097 H1101 0.950 . S
H1098 C1094 0.950 . S
C1099 C1097 1.390 . S
C1099 C1100 1.387 . S
C1099 H1102 0.950 . S
C1100 C1099 1.387 . S
C1100 C1103 1.387 . S
H1101 C1097 0.950 . S
H1102 C1099 0.950 . S
C1103 C1094 1.390 . S
C1103 H1096 0.950 . S
C1103 C1100 1.387 . S
C1104 C1105 1.387 . S
C1104 H1108 0.950 . S
C1104 C1113 1.390 . S
C1105 C1104 1.387 . S
C1105 C1107 1.387 . S
H1106 C1113 0.950 . S
C1107 C1105 1.387 . S
C1107 C1109 1.390 . S
C1107 H1111 0.950 . S
H1108 C1104 0.950 . S
C1109 C1107 1.390 . S
C1109 C1110 1.387 . S
C1109 H1112 0.950 . S
C1110 C1109 1.387 . S
C1110 C1113 1.387 . S
H1111 C1107 0.950 . S
H1112 C1109 0.950 . S
C1113 C1104 1.390 . S
C1113 H1106 0.950 . S
C1113 C1110 1.387 . S
C1114 C1115 1.387 . S
C1114 H1118 0.950 . S
C1114 C1123 1.390 . S
C1115 C1114 1.387 . S
C1115 C1117 1.387 . S
H1116 C1123 0.950 . S
C1117 C1115 1.387 . S
C1117 C1119 1.390 . S
C1117 H1121 0.950 . S
H1118 C1114 0.950 . S
C1119 C1117 1.390 . S
C1119 C1120 1.387 . S
C1119 H1122 0.950 . S
C1120 C1119 1.387 . S
C1120 C1123 1.387 . S
H1121 C1117 0.950 . S
H1122 C1119 0.950 . S
C1123 C1114 1.390 . S
C1123 H1116 0.950 . S
C1123 C1120 1.387 . S
C1124 C1125 1.387 . S
C1124 H1128 0.950 . S
C1124 C1133 1.390 . S
C1125 C1124 1.387 . S
C1125 C1127 1.387 . S
H1126 C1133 0.950 . S
C1127 C1125 1.387 . S
C1127 C1129 1.390 . S
C1127 H1131 0.950 . S
H1128 C1124 0.950 . S
C1129 C1127 1.390 . S
C1129 C1130 1.387 . S
C1129 H1132 0.950 . S
C1130 C1129 1.387 . S
C1130 C1133 1.387 . S
H1131 C1127 0.950 . S
H1132 C1129 0.950 . S
C1133 C1124 1.390 . S
C1133 H1126 0.950 . S
C1133 C1130 1.387 . S
C1134 C1135 1.387 . S
C1134 H1138 0.950 . S
C1134 C1143 1.390 . S
C1135 C1134 1.387 . S
C1135 C1137 1.387 . S
H1136 C1143 0.950 . S
C1137 C1135 1.387 . S
C1137 C1139 1.390 . S
C1137 H1141 0.950 . S
H1138 C1134 0.950 . S
C1139 C1137 1.390 . S
C1139 C1140 1.387 . S
C1139 H1142 0.950 . S
C1140 C1139 1.387 . S
C1140 C1143 1.387 . S
H1141 C1137 0.950 . S
H1142 C1139 0.950 . S
C1143 C1134 1.390 . S
C1143 H1136 0.950 . S
C1143 C1140 1.387 . S
C1144 C1145 1.387 . S
C1144 H1148 0.950 . S
C1144 C1153 1.390 . S
C1145 C1144 1.387 . S
C1145 C1147 1.387 . S
H1146 C1153 0.950 . S
C1147 C1145 1.387 . S
C1147 C1149 1.390 . S
C1147 H1151 0.950 . S
H1148 C1144 0.950 . S
C1149 C1147 1.390 . S
C1149 C1150 1.387 . S
C1149 H1152 0.950 . S
C1150 C1149 1.387 . S
C1150 C1153 1.387 . S
H1151 C1147 0.950 . S
H1152 C1149 0.950 . S
C1153 C1144 1.390 . S
C1153 H1146 0.950 . S
C1153 C1150 1.387 . S
C1154 C1155 1.387 . S
C1154 H1158 0.950 . S
C1154 C1163 1.390 . S
C1155 C1154 1.387 . S
C1155 C1157 1.387 . S
H1156 C1163 0.950 . S
C1157 C1155 1.387 . S
C1157 C1159 1.390 . S
C1157 H1161 0.950 . S
H1158 C1154 0.950 . S
C1159 C1157 1.390 . S
C1159 C1160 1.387 . S
C1159 H1162 0.950 . S
C1160 C1159 1.387 . S
C1160 C1163 1.387 . S
H1161 C1157 0.950 . S
H1162 C1159 0.950 . S
C1163 C1154 1.390 . S
C1163 H1156 0.950 . S
C1163 C1160 1.387 . S
C1164 C1165 1.387 . S
C1164 H1168 0.950 . S
C1164 C1173 1.390 . S
C1165 C1164 1.387 . S
C1165 C1167 1.387 . S
H1166 C1173 0.950 . S
C1167 C1165 1.387 . S
C1167 C1169 1.390 . S
C1167 H1171 0.950 . S
H1168 C1164 0.950 . S
C1169 C1167 1.390 . S
C1169 C1170 1.387 . S
C1169 H1172 0.950 . S
C1170 C1169 1.387 . S
C1170 C1173 1.387 . S
H1171 C1167 0.950 . S
H1172 C1169 0.950 . S
C1173 C1164 1.390 . S
C1173 H1166 0.950 . S
C1173 C1170 1.387 . S
C1174 C1175 1.387 . S
C1174 H1178 0.950 . S
C1174 C1183 1.390 . S
C1175 C1174 1.387 . S
C1175 C1177 1.387 . S
H1176 C1183 0.950 . S
C1177 C1175 1.387 . S
C1177 C1179 1.390 . S
C1177 H1181 0.950 . S
H1178 C1174 0.950 . S
C1179 C1177 1.390 . S
C1179 C1180 1.387 . S
C1179 H1182 0.950 . S
C1180 C1179 1.387 . S
C1180 C1183 1.387 . S
H1181 C1177 0.950 . S
H1182 C1179 0.950 . S
C1183 C1174 1.390 . S
C1183 H1176 0.950 . S
C1183 C1180 1.387 . S
C1184 C1185 1.387 . S
C1184 H1188 0.950 . S
C1184 C1193 1.390 . S
C1185 C1184 1.387 . S
C1185 C1187 1.387 . S
H1186 C1193 0.950 . S
C1187 C1185 1.387 . S
C1187 C1189 1.390 . S
C1187 H1191 0.950 . S
H1188 C1184 0.950 . S
C1189 C1187 1.390 . S
C1189 C1190 1.387 . S
C1189 H1192 0.950 . S
C1190 C1189 1.387 . S
C1190 C1193 1.387 . S
H1191 C1187 0.950 . S
H1192 C1189 0.950 . S
C1193 C1184 1.390 . S
C1193 H1186 0.950 . S
C1193 C1190 1.387 . S
C1194 C1195 1.387 . S
C1194 H1198 0.950 . S
C1194 C1203 1.390 . S
C1195 C1194 1.387 . S
C1195 C1197 1.387 . S
H1196 C1203 0.950 . S
C1197 C1195 1.387 . S
C1197 C1199 1.390 . S
C1197 H1201 0.950 . S
H1198 C1194 0.950 . S
C1199 C1197 1.390 . S
C1199 C1200 1.387 . S
C1199 H1202 0.950 . S
C1200 C1199 1.387 . S
C1200 C1203 1.387 . S
H1201 C1197 0.950 . S
H1202 C1199 0.950 . S
C1203 C1194 1.390 . S
C1203 H1196 0.950 . S
C1203 C1200 1.387 . S
C1204 C1205 1.387 . S
C1204 H1208 0.950 . S
C1204 C1213 1.390 . S
C1205 C1204 1.387 . S
C1205 C1207 1.387 . S
H1206 C1213 0.950 . S
C1207 C1205 1.387 . S
C1207 C1209 1.390 . S
C1207 H1211 0.950 . S
H1208 C1204 0.950 . S
C1209 C1207 1.390 . S
C1209 C1210 1.387 . S
C1209 H1212 0.950 . S
C1210 C1209 1.387 . S
C1210 C1213 1.387 . S
H1211 C1207 0.950 . S
H1212 C1209 0.950 . S
C1213 C1204 1.390 . S
C1213 H1206 0.950 . S
C1213 C1210 1.387 . S
C1214 C1215 1.387 . S
C1214 H1218 0.950 . S
C1214 C1223 1.390 . S
C1215 C1214 1.387 . S
C1215 C1217 1.387 . S
H1216 C1223 0.950 . S
C1217 C1215 1.387 . S
C1217 C1219 1.390 . S
C1217 H1221 0.950 . S
H1218 C1214 0.950 . S
C1219 C1217 1.390 . S
C1219 C1220 1.387 . S
C1219 H1222 0.950 . S
C1220 C1219 1.387 . S
C1220 C1223 1.387 . S
H1221 C1217 0.950 . S
H1222 C1219 0.950 . S
C1223 C1214 1.390 . S
C1223 H1216 0.950 . S
C1223 C1220 1.387 . S
C505 C36 1.367 . S
C510 C256 1.259 . S
C515 C13 1.354 . S
C520 C272 1.204 . S
C530 C255 1.268 . S
C525 C22 1.358 . S
C540 C280 1.203 . S
C535 C41 1.404 . S
C545 C8 1.350 . S
C550 C289 1.244 . S
C560 C292 1.172 . S
C555 C27 1.337 . S
C565 C78 1.362 . S
C570 C298 1.263 . S
C580 C314 1.204 . S
C575 C55 1.354 . S
C590 C297 1.271 . S
C585 C64 1.353 . S
C595 C83 1.404 . S
C600 C322 1.203 . S
C610 C331 1.244 . S
C605 C50 1.349 . S
C620 C334 1.172 . S
C615 C69 1.337 . S
C630 C343 1.264 . S
C625 C120 1.362 . S
C640 C355 1.204 . S
C635 C97 1.354 . S
C650 C352 1.271 . S
C645 C106 1.357 . S
C655 C125 1.405 . S
C660 C361 1.202 . S
C670 C360 1.244 . S
C665 C92 1.350 . S
C675 C111 1.335 . S
C680 C377 1.177 . S
C690 C382 1.260 . S
C685 C162 1.367 . S
C700 C398 1.198 . S
C695 C139 1.357 . S
C705 C148 1.358 . S
C710 C381 1.270 . S
C720 C406 1.202 . S
C715 C167 1.405 . S
C730 C415 1.248 . S
C725 C134 1.351 . S
C735 C153 1.334 . S
C740 C418 1.178 . S
C745 C204 1.366 . S
C750 C427 1.259 . S
C760 C439 1.204 . S
C755 C181 1.354 . S
C770 C436 1.269 . S
C765 C190 1.358 . S
C775 C209 1.403 . S
C780 C445 1.206 . S
C790 C444 1.245 . S
C785 C176 1.347 . S
C795 C195 1.337 . S
C800 C461 1.174 . S
C810 C466 1.265 . S
C805 C246 1.363 . S
C820 C482 1.204 . S
C815 C223 1.355 . S
C825 C232 1.358 . S
C830 C465 1.268 . S
C840 C487 1.204 . S
C835 C251 1.404 . S
C850 C486 1.250 . S
C845 C218 1.347 . S
C860 C503 1.178 . S
C855 C237 1.334 . S
C870 C268 1.403 . S
C865 C161 1.501 . S
C875 C137 1.531 . S
C880 C271 1.432 1_655 S
C890 C259 1.413 . S
C885 C147 1.507 . S
C895 C249 1.488 . S
C900 C276 1.381 . S
C905 C217 1.437 . S
C910 C277 1.334 . S
C920 C293 1.393 . S
C915 C235 1.498 . S
C930 C310 1.403 . S
C925 C203 1.501 . S
C940 C313 1.430 . S
C935 C179 1.531 . S
C945 C189 1.508 . S
C950 C301 1.414 . S
C960 C318 1.383 1_655 S
C955 C123 1.489 . S
C965 C91 1.437 . S
C970 C319 1.334 . S
C975 C109 1.498 . S
C980 C335 1.393 . S
C985 C245 1.501 . S
C990 C339 1.403 . S
C995 C221 1.531 . S
C1000 C356 1.430 . S
C1010 C340 1.411 . S
C1005 C231 1.507 . S
C1020 C373 1.382 . S
C1015 C81 1.489 . S
C1030 C364 1.335 . S
C1025 C49 1.438 . S
C1035 C67 1.498 . S
C1040 C376 1.393 . S
C1050 C394 1.403 . S
C1045 C35 1.501 . S
C1060 C397 1.430 . S
C1055 C11 1.531 . S
C1065 C21 1.508 . S
C1070 C385 1.415 . S
C1080 C402 1.382 . S
C1075 C207 1.489 . S
C1090 C403 1.334 . S
C1085 C175 1.437 . S
C1100 C419 1.393 . S
C1095 C193 1.498 . S
C1110 C423 1.403 . S
C1105 C77 1.501 . S
C1120 C440 1.431 . S
C1115 C53 1.531 . S
C1125 C63 1.508 . S
C1130 C424 1.413 . S
C1135 C165 1.489 . S
C1140 C457 1.382 . S
C1145 C133 1.437 . S
C1150 C448 1.334 . S
C1160 C460 1.396 . S
C1155 C151 1.499 . S
C1165 C119 1.500 . S
C1170 C478 1.403 . S
C1175 C95 1.531 . S
C1180 C481 1.433 . S
C1190 C469 1.415 . S
C1185 C105 1.508 . S
C1200 C499 1.382 . S
C1195 C39 1.489 . S
C1210 C490 1.338 . S
C1205 C7 1.438 . S
C1215 C25 1.499 . S
C1220 C502 1.397 . S
