# Generated by pormake.
# Topology gar, (4,6)-cn, num edge types: 1
# Building blocks:
#     Node 0, Type 0, BuildingBlock: TATPOV_clean_sbu_0, # of connection points: 4
#     Node 1, Type 0, BuildingBlock: TATPOV_clean_sbu_0, # of connection points: 4
#     Node 2, Type 0, BuildingBlock: TATPOV_clean_sbu_0, # of connection points: 4
#     Node 3, Type 0, BuildingBlock: TATPOV_clean_sbu_0, # of connection points: 4
#     Node 4, Type 0, BuildingBlock: TATPOV_clean_sbu_0, # of connection points: 4
#     Node 5, Type 0, BuildingBlock: TATPOV_clean_sbu_0, # of connection points: 4
#     Node 6, Type 0, BuildingBlock: TATPOV_clean_sbu_0, # of connection points: 4
#     Node 7, Type 0, BuildingBlock: TATPOV_clean_sbu_0, # of connection points: 4
#     Node 8, Type 0, BuildingBlock: TATPOV_clean_sbu_0, # of connection points: 4
#     Node 9, Type 0, BuildingBlock: TATPOV_clean_sbu_0, # of connection points: 4
#     Node 10, Type 0, BuildingBlock: TATPOV_clean_sbu_0, # of connection points: 4
#     Node 11, Type 0, BuildingBlock: TATPOV_clean_sbu_0, # of connection points: 4
#     Node 12, Type 0, BuildingBlock: TATPOV_clean_sbu_0, # of connection points: 4
#     Node 13, Type 0, BuildingBlock: TATPOV_clean_sbu_0, # of connection points: 4
#     Node 14, Type 0, BuildingBlock: TATPOV_clean_sbu_0, # of connection points: 4
#     Node 15, Type 0, BuildingBlock: TATPOV_clean_sbu_0, # of connection points: 4
#     Node 16, Type 0, BuildingBlock: TATPOV_clean_sbu_0, # of connection points: 4
#     Node 17, Type 0, BuildingBlock: TATPOV_clean_sbu_0, # of connection points: 4
#     Node 18, Type 0, BuildingBlock: TATPOV_clean_sbu_0, # of connection points: 4
#     Node 19, Type 0, BuildingBlock: TATPOV_clean_sbu_0, # of connection points: 4
#     Node 20, Type 0, BuildingBlock: TATPOV_clean_sbu_0, # of connection points: 4
#     Node 21, Type 0, BuildingBlock: TATPOV_clean_sbu_0, # of connection points: 4
#     Node 22, Type 0, BuildingBlock: TATPOV_clean_sbu_0, # of connection points: 4
#     Node 23, Type 0, BuildingBlock: TATPOV_clean_sbu_0, # of connection points: 4
#     Node 24, Type 1, BuildingBlock: BETDEL_clean_sbu_0, # of connection points: 6
#     Node 25, Type 1, BuildingBlock: BETDEL_clean_sbu_0, # of connection points: 6
#     Node 26, Type 1, BuildingBlock: BETDEL_clean_sbu_0, # of connection points: 6
#     Node 27, Type 1, BuildingBlock: BETDEL_clean_sbu_0, # of connection points: 6
#     Node 28, Type 1, BuildingBlock: BETDEL_clean_sbu_0, # of connection points: 6
#     Node 29, Type 1, BuildingBlock: BETDEL_clean_sbu_0, # of connection points: 6
#     Node 30, Type 1, BuildingBlock: BETDEL_clean_sbu_0, # of connection points: 6
#     Node 31, Type 1, BuildingBlock: BETDEL_clean_sbu_0, # of connection points: 6
#     Node 32, Type 1, BuildingBlock: BETDEL_clean_sbu_0, # of connection points: 6
#     Node 33, Type 1, BuildingBlock: BETDEL_clean_sbu_0, # of connection points: 6
#     Node 34, Type 1, BuildingBlock: BETDEL_clean_sbu_0, # of connection points: 6
#     Node 35, Type 1, BuildingBlock: BETDEL_clean_sbu_0, # of connection points: 6
#     Node 36, Type 1, BuildingBlock: BETDEL_clean_sbu_0, # of connection points: 6
#     Node 37, Type 1, BuildingBlock: BETDEL_clean_sbu_0, # of connection points: 6
#     Node 38, Type 1, BuildingBlock: BETDEL_clean_sbu_0, # of connection points: 6
#     Node 39, Type 1, BuildingBlock: BETDEL_clean_sbu_0, # of connection points: 6
#     Edge 40, Type (0, 1), BuildingBlock: CIFDUS_clean_linker_0, # of connection points: 2
#     Edge 41, Type (0, 1), BuildingBlock: CIFDUS_clean_linker_0, # of connection points: 2
#     Edge 42, Type (0, 1), BuildingBlock: CIFDUS_clean_linker_0, # of connection points: 2
#     Edge 43, Type (0, 1), BuildingBlock: CIFDUS_clean_linker_0, # of connection points: 2
#     Edge 44, Type (0, 1), BuildingBlock: CIFDUS_clean_linker_0, # of connection points: 2
#     Edge 45, Type (0, 1), BuildingBlock: CIFDUS_clean_linker_0, # of connection points: 2
#     Edge 46, Type (0, 1), BuildingBlock: CIFDUS_clean_linker_0, # of connection points: 2
#     Edge 47, Type (0, 1), BuildingBlock: CIFDUS_clean_linker_0, # of connection points: 2
#     Edge 48, Type (0, 1), BuildingBlock: CIFDUS_clean_linker_0, # of connection points: 2
#     Edge 49, Type (0, 1), BuildingBlock: CIFDUS_clean_linker_0, # of connection points: 2
#     Edge 50, Type (0, 1), BuildingBlock: CIFDUS_clean_linker_0, # of connection points: 2
#     Edge 51, Type (0, 1), BuildingBlock: CIFDUS_clean_linker_0, # of connection points: 2
#     Edge 52, Type (0, 1), BuildingBlock: CIFDUS_clean_linker_0, # of connection points: 2
#     Edge 53, Type (0, 1), BuildingBlock: CIFDUS_clean_linker_0, # of connection points: 2
#     Edge 54, Type (0, 1), BuildingBlock: CIFDUS_clean_linker_0, # of connection points: 2
#     Edge 55, Type (0, 1), BuildingBlock: CIFDUS_clean_linker_0, # of connection points: 2
#     Edge 56, Type (0, 1), BuildingBlock: CIFDUS_clean_linker_0, # of connection points: 2
#     Edge 57, Type (0, 1), BuildingBlock: CIFDUS_clean_linker_0, # of connection points: 2
#     Edge 58, Type (0, 1), BuildingBlock: CIFDUS_clean_linker_0, # of connection points: 2
#     Edge 59, Type (0, 1), BuildingBlock: CIFDUS_clean_linker_0, # of connection points: 2
#     Edge 60, Type (0, 1), BuildingBlock: CIFDUS_clean_linker_0, # of connection points: 2
#     Edge 61, Type (0, 1), BuildingBlock: CIFDUS_clean_linker_0, # of connection points: 2
#     Edge 62, Type (0, 1), BuildingBlock: CIFDUS_clean_linker_0, # of connection points: 2
#     Edge 63, Type (0, 1), BuildingBlock: CIFDUS_clean_linker_0, # of connection points: 2
#     Edge 64, Type (0, 1), BuildingBlock: CIFDUS_clean_linker_0, # of connection points: 2
#     Edge 65, Type (0, 1), BuildingBlock: CIFDUS_clean_linker_0, # of connection points: 2
#     Edge 66, Type (0, 1), BuildingBlock: CIFDUS_clean_linker_0, # of connection points: 2
#     Edge 67, Type (0, 1), BuildingBlock: CIFDUS_clean_linker_0, # of connection points: 2
#     Edge 68, Type (0, 1), BuildingBlock: CIFDUS_clean_linker_0, # of connection points: 2
#     Edge 69, Type (0, 1), BuildingBlock: CIFDUS_clean_linker_0, # of connection points: 2
#     Edge 70, Type (0, 1), BuildingBlock: CIFDUS_clean_linker_0, # of connection points: 2
#     Edge 71, Type (0, 1), BuildingBlock: CIFDUS_clean_linker_0, # of connection points: 2
#     Edge 72, Type (0, 1), BuildingBlock: CIFDUS_clean_linker_0, # of connection points: 2
#     Edge 73, Type (0, 1), BuildingBlock: CIFDUS_clean_linker_0, # of connection points: 2
#     Edge 74, Type (0, 1), BuildingBlock: CIFDUS_clean_linker_0, # of connection points: 2
#     Edge 75, Type (0, 1), BuildingBlock: CIFDUS_clean_linker_0, # of connection points: 2
#     Edge 76, Type (0, 1), BuildingBlock: CIFDUS_clean_linker_0, # of connection points: 2
#     Edge 77, Type (0, 1), BuildingBlock: CIFDUS_clean_linker_0, # of connection points: 2
#     Edge 78, Type (0, 1), BuildingBlock: CIFDUS_clean_linker_0, # of connection points: 2
#     Edge 79, Type (0, 1), BuildingBlock: CIFDUS_clean_linker_0, # of connection points: 2
#     Edge 80, Type (0, 1), BuildingBlock: CIFDUS_clean_linker_0, # of connection points: 2
#     Edge 81, Type (0, 1), BuildingBlock: CIFDUS_clean_linker_0, # of connection points: 2
#     Edge 82, Type (0, 1), BuildingBlock: CIFDUS_clean_linker_0, # of connection points: 2
#     Edge 83, Type (0, 1), BuildingBlock: CIFDUS_clean_linker_0, # of connection points: 2
#     Edge 84, Type (0, 1), BuildingBlock: CIFDUS_clean_linker_0, # of connection points: 2
#     Edge 85, Type (0, 1), BuildingBlock: CIFDUS_clean_linker_0, # of connection points: 2
#     Edge 86, Type (0, 1), BuildingBlock: CIFDUS_clean_linker_0, # of connection points: 2
#     Edge 87, Type (0, 1), BuildingBlock: CIFDUS_clean_linker_0, # of connection points: 2
#     Edge 88, Type (0, 1), BuildingBlock: CIFDUS_clean_linker_0, # of connection points: 2
#     Edge 89, Type (0, 1), BuildingBlock: CIFDUS_clean_linker_0, # of connection points: 2
#     Edge 90, Type (0, 1), BuildingBlock: CIFDUS_clean_linker_0, # of connection points: 2
#     Edge 91, Type (0, 1), BuildingBlock: CIFDUS_clean_linker_0, # of connection points: 2
#     Edge 92, Type (0, 1), BuildingBlock: CIFDUS_clean_linker_0, # of connection points: 2
#     Edge 93, Type (0, 1), BuildingBlock: CIFDUS_clean_linker_0, # of connection points: 2
#     Edge 94, Type (0, 1), BuildingBlock: CIFDUS_clean_linker_0, # of connection points: 2
#     Edge 95, Type (0, 1), BuildingBlock: CIFDUS_clean_linker_0, # of connection points: 2
#     Edge 96, Type (0, 1), BuildingBlock: CIFDUS_clean_linker_0, # of connection points: 2
#     Edge 97, Type (0, 1), BuildingBlock: CIFDUS_clean_linker_0, # of connection points: 2
#     Edge 98, Type (0, 1), BuildingBlock: CIFDUS_clean_linker_0, # of connection points: 2
#     Edge 99, Type (0, 1), BuildingBlock: CIFDUS_clean_linker_0, # of connection points: 2
#     Edge 100, Type (0, 1), BuildingBlock: CIFDUS_clean_linker_0, # of connection points: 2
#     Edge 101, Type (0, 1), BuildingBlock: CIFDUS_clean_linker_0, # of connection points: 2
#     Edge 102, Type (0, 1), BuildingBlock: CIFDUS_clean_linker_0, # of connection points: 2
#     Edge 103, Type (0, 1), BuildingBlock: CIFDUS_clean_linker_0, # of connection points: 2
#     Edge 104, Type (0, 1), BuildingBlock: CIFDUS_clean_linker_0, # of connection points: 2
#     Edge 105, Type (0, 1), BuildingBlock: CIFDUS_clean_linker_0, # of connection points: 2
#     Edge 106, Type (0, 1), BuildingBlock: CIFDUS_clean_linker_0, # of connection points: 2
#     Edge 107, Type (0, 1), BuildingBlock: CIFDUS_clean_linker_0, # of connection points: 2
#     Edge 108, Type (0, 1), BuildingBlock: CIFDUS_clean_linker_0, # of connection points: 2
#     Edge 109, Type (0, 1), BuildingBlock: CIFDUS_clean_linker_0, # of connection points: 2
#     Edge 110, Type (0, 1), BuildingBlock: CIFDUS_clean_linker_0, # of connection points: 2
#     Edge 111, Type (0, 1), BuildingBlock: CIFDUS_clean_linker_0, # of connection points: 2
#     Edge 112, Type (0, 1), BuildingBlock: CIFDUS_clean_linker_0, # of connection points: 2
#     Edge 113, Type (0, 1), BuildingBlock: CIFDUS_clean_linker_0, # of connection points: 2
#     Edge 114, Type (0, 1), BuildingBlock: CIFDUS_clean_linker_0, # of connection points: 2
#     Edge 115, Type (0, 1), BuildingBlock: CIFDUS_clean_linker_0, # of connection points: 2
#     Edge 116, Type (0, 1), BuildingBlock: CIFDUS_clean_linker_0, # of connection points: 2
#     Edge 117, Type (0, 1), BuildingBlock: CIFDUS_clean_linker_0, # of connection points: 2
#     Edge 118, Type (0, 1), BuildingBlock: CIFDUS_clean_linker_0, # of connection points: 2
#     Edge 119, Type (0, 1), BuildingBlock: CIFDUS_clean_linker_0, # of connection points: 2
#     Edge 120, Type (0, 1), BuildingBlock: CIFDUS_clean_linker_0, # of connection points: 2
#     Edge 121, Type (0, 1), BuildingBlock: CIFDUS_clean_linker_0, # of connection points: 2
#     Edge 122, Type (0, 1), BuildingBlock: CIFDUS_clean_linker_0, # of connection points: 2
#     Edge 123, Type (0, 1), BuildingBlock: CIFDUS_clean_linker_0, # of connection points: 2
#     Edge 124, Type (0, 1), BuildingBlock: CIFDUS_clean_linker_0, # of connection points: 2
#     Edge 125, Type (0, 1), BuildingBlock: CIFDUS_clean_linker_0, # of connection points: 2
#     Edge 126, Type (0, 1), BuildingBlock: CIFDUS_clean_linker_0, # of connection points: 2
#     Edge 127, Type (0, 1), BuildingBlock: CIFDUS_clean_linker_0, # of connection points: 2
#     Edge 128, Type (0, 1), BuildingBlock: CIFDUS_clean_linker_0, # of connection points: 2
#     Edge 129, Type (0, 1), BuildingBlock: CIFDUS_clean_linker_0, # of connection points: 2
#     Edge 130, Type (0, 1), BuildingBlock: CIFDUS_clean_linker_0, # of connection points: 2
#     Edge 131, Type (0, 1), BuildingBlock: CIFDUS_clean_linker_0, # of connection points: 2
#     Edge 132, Type (0, 1), BuildingBlock: CIFDUS_clean_linker_0, # of connection points: 2
#     Edge 133, Type (0, 1), BuildingBlock: CIFDUS_clean_linker_0, # of connection points: 2
#     Edge 134, Type (0, 1), BuildingBlock: CIFDUS_clean_linker_0, # of connection points: 2
#     Edge 135, Type (0, 1), BuildingBlock: CIFDUS_clean_linker_0, # of connection points: 2
# Relax obj value: 0.154
# Max RMSD: 0.276
# Mean RMSD: 0.170
data_MOF--net-gar--node1-TATPOV_clean_sbu_0--node2-BETDEL_clean_sbu_0--edge1-CIFDUS_clean_linker_0
_symmetry_space_group_name_H-M    P1
_symmetry_Int_Tables_number       1
_symmetry_cell_setting            triclinic
loop_
_symmetry_equiv_pos_as_xyz
'x, y, z'
_cell_length_a     49.197961
_cell_length_b     46.840483
_cell_length_c     48.74449
_cell_angle_alpha  96.00699
_cell_angle_beta   92.907192
_cell_angle_gamma 103.2255
loop_
_atom_site_label
_atom_site_type_symbol
_atom_site_fract_x
_atom_site_fract_y
_atom_site_fract_z
_atom_type_partial_charge
Zn0 Zn 0.98986 0.25503 0.40649 0.0
Zn1 Zn 0.031 0.26201 0.37869 0.0
O2 O 0.03973 0.30321 0.40247 0.0
O3 O -0.0024 0.2986 0.41726 0.0
O4 O 0.06345 0.26145 0.35516 0.0
O5 O 0.00108 0.22829 0.43186 0.0
O6 O 0.02915 0.22452 0.3987 0.0
C7 C 0.02147 0.31459 0.41432 0.0
C8 C 0.9722 0.24971 0.35138 0.0
O9 O -0.00176 0.26072 0.35054 0.0
O10 O 0.9633 0.23905 0.37294 0.0
C11 C 0.07285 0.2822 0.34088 0.0
O12 O 0.06169 0.30521 0.34211 0.0
C13 C 0.01807 0.21539 0.42025 0.0
Zn14 Zn 0.99505 0.73326 0.66416 0.0
Zn15 Zn 0.9971 0.77211 0.63714 0.0
O16 O 0.96484 0.77275 0.66466 0.0
O17 O 0.95949 0.72944 0.67978 0.0
O18 O -0.00155 0.80861 0.6174 0.0
O19 O 0.02849 0.75081 0.68919 0.0
O20 O 0.03795 0.77747 0.65506 0.0
C21 C 0.9519 0.75327 0.67905 0.0
C22 C 0.99387 0.71109 0.60877 0.0
O23 O 0.9897 0.73656 0.60581 0.0
O24 O -0.0015 0.70461 0.63279 0.0
C25 C 0.00464 0.81128 0.59255 0.0
O26 O 0.01103 0.78908 0.57761 0.0
C27 C 0.04617 0.76759 0.67666 0.0
Zn28 Zn 0.49406 0.76377 0.91588 0.0
Zn29 Zn 0.5361 0.77095 0.89003 0.0
O30 O 0.54447 0.81211 0.91398 0.0
O31 O 0.50229 0.80702 0.92873 0.0
O32 O 0.56967 0.77144 0.86797 0.0
O33 O 0.50246 0.73523 0.94021 0.0
O34 O 0.53491 0.73389 0.91117 0.0
C35 C 0.52626 0.82311 0.92633 0.0
C36 C 0.4776 0.75937 0.86089 0.0
O37 O 0.50388 0.76954 0.86061 0.0
O38 O 0.46773 0.74952 0.88239 0.0
C39 C 0.56913 0.7564 0.84453 0.0
O40 O 0.54519 0.7401 0.83281 0.0
C41 C 0.52145 0.72356 0.93111 0.0
Zn42 Zn 0.49151 0.23164 0.16084 0.0
Zn43 Zn 0.50224 0.27025 0.12551 0.0
O44 O 0.46626 0.27607 0.14397 0.0
O45 O 0.4601 0.24571 0.17597 0.0
O46 O 0.51118 0.30477 0.10282 0.0
O47 O 0.52912 0.24414 0.18056 0.0
O48 O 0.5394 0.27496 0.14952 0.0
C49 C 0.45275 0.26542 0.16368 0.0
C50 C 0.48762 0.20544 0.10371 0.0
O51 O 0.49509 0.23208 0.09836 0.0
O52 O 0.4842 0.19991 0.12836 0.0
C53 C 0.49824 0.30735 0.08025 0.0
O54 O 0.47743 0.28564 0.06918 0.0
C55 C 0.54686 0.26321 0.17024 0.0
Zn56 Zn 0.06722 0.78382 0.09058 0.0
Zn57 Zn 0.03312 0.78365 0.12367 0.0
O58 O 0.03144 0.81792 0.09942 0.0
O59 O 0.07019 0.82195 0.07817 0.0
O60 O -0.00168 0.78065 0.14497 0.0
O61 O 0.04832 0.74861 0.06517 0.0
O62 O 0.02704 0.74131 0.1032 0.0
C63 C 0.04878 0.83126 0.08362 0.0
C64 C 0.09159 0.7865 0.14467 0.0
O65 O 0.06815 0.79128 0.15147 0.0
O66 O 0.09522 0.78036 0.11946 0.0
C67 C 0.99557 0.78551 0.17075 0.0
O68 O 0.01797 0.79409 0.18815 0.0
C69 C 0.03311 0.73144 0.07948 0.0
Zn70 Zn 0.45079 0.73492 0.39992 0.0
Zn71 Zn 0.49201 0.74404 0.37009 0.0
O72 O 0.49945 0.78381 0.39507 0.0
O73 O 0.46273 0.77551 0.4196 0.0
O74 O 0.52522 0.74783 0.34559 0.0
O75 O 0.46071 0.70317 0.41836 0.0
O76 O 0.49752 0.71059 0.3939 0.0
C77 C 0.4849 0.79261 0.41364 0.0
C78 C 0.42945 0.73438 0.34663 0.0
O79 O 0.45572 0.74019 0.3432 0.0
O80 O 0.42099 0.72829 0.36984 0.0
C81 C 0.54081 0.77285 0.3424 0.0
O82 O 0.53453 0.79691 0.3539 0.0
C83 C 0.48384 0.69769 0.41253 0.0
Zn84 Zn 0.5757 0.30642 0.59748 0.0
Zn85 Zn 0.53688 0.28435 0.63188 0.0
O86 O 0.52359 0.31793 0.61573 0.0
O87 O 0.55698 0.33853 0.5906 0.0
O88 O 0.50467 0.27191 0.65603 0.0
O89 O 0.56591 0.26764 0.5732 0.0
O90 O 0.53612 0.24915 0.6028 0.0
C91 C 0.53357 0.3375 0.60043 0.0
C92 C 0.59933 0.30398 0.65209 0.0
O93 O 0.57393 0.2939 0.6572 0.0
O94 O 0.60496 0.31157 0.62847 0.0
C95 C 0.50557 0.28121 0.68164 0.0
O96 O 0.52937 0.29674 0.69432 0.0
C97 C 0.54871 0.24596 0.58079 0.0
Zn98 Zn 0.95389 0.23936 0.90804 0.0
Zn99 Zn 0.99437 0.24439 0.87879 0.0
O100 O 0.00234 0.28523 0.90169 0.0
O101 O 0.97384 0.27396 0.93433 0.0
O102 O 0.0301 0.24473 0.85959 0.0
O103 O 0.95301 0.20047 0.91987 0.0
O104 O 0.99474 0.21151 0.90417 0.0
C105 C 0.99356 0.29176 0.92511 0.0
C106 C 0.93641 0.24258 0.85269 0.0
O107 O 0.96105 0.23931 0.84862 0.0
O108 O 0.92872 0.24494 0.877 0.0
C109 C 0.03633 0.25099 0.83557 0.0
O110 O 0.01782 0.25851 0.81916 0.0
C111 C 0.97724 0.19596 0.91834 0.0
Zn112 Zn 0.43398 -0.00366 0.2622 0.0
Zn113 Zn 0.41067 0.03569 0.26232 0.0
O114 O 0.42627 0.04018 0.30308 0.0
O115 O 0.43029 0.99444 0.30272 0.0
O116 O 0.38983 0.068 0.2611 0.0
O117 O 0.4694 0.01681 0.24779 0.0
O118 O 0.4405 0.04252 0.23354 0.0
C119 C 0.4297 0.01888 0.31605 0.0
C120 C 0.38149 0.97307 0.24005 0.0
O121 O 0.37973 -0.00243 0.25296 0.0
O122 O 0.40538 0.96879 0.23558 0.0
C123 C 0.368 0.06578 0.24508 0.0
O124 O 0.35914 0.0421 0.22708 0.0
C125 C 0.46365 0.03464 0.23194 0.0
Zn126 Zn 0.23961 0.19704 0.48228 0.0
Zn127 Zn 0.26889 0.15833 0.48326 0.0
O128 O 0.28051 0.1825 0.44986 0.0
O129 O 0.25998 0.21965 0.45431 0.0
O130 O 0.2984 0.13398 0.48333 0.0
O131 O 0.24768 0.21188 0.52209 0.0
O132 O 0.27474 0.18057 0.5235 0.0
C133 C 0.27641 0.20649 0.44206 0.0
C134 C 0.2059 0.13687 0.47193 0.0
O135 O 0.22909 0.12975 0.47694 0.0
O136 O 0.20567 0.1638 0.47129 0.0
C137 C 0.2977 0.10845 0.49049 0.0
O138 O 0.27455 0.09322 0.49918 0.0
C139 C 0.26411 0.20048 0.53568 0.0
Zn140 Zn 0.1057 0.02637 0.78308 0.0
Zn141 Zn 0.14377 0.00037 0.77907 0.0
O142 O 0.12576 0.99257 0.81711 0.0
O143 O 0.09295 0.01756 0.81912 0.0
O144 O 0.16518 0.9676 0.77459 0.0
O145 O 0.08158 0.00726 0.74971 0.0
O146 O 0.11962 0.9923 0.74101 0.0
C147 C 0.10632 0.00103 0.82978 0.0
C148 C 0.16004 0.06597 0.77922 0.0
O149 O 0.1697 0.0429 0.78041 0.0
O150 O 0.13396 0.06389 0.7798 0.0
C151 C 0.18906 0.96665 0.76614 0.0
O152 O 0.20547 0.99081 0.75941 0.0
C153 C 0.09562 -0.00433 0.73275 0.0
Zn154 Zn 0.29386 0.87532 0.98693 0.0
Zn155 Zn 0.2504 0.89108 -0.00405 0.0
O156 O 0.24314 0.86693 0.95721 0.0
O157 O 0.27537 0.84154 0.9594 0.0
O158 O 0.21574 0.90541 0.00123 0.0
O159 O 0.3008 0.86748 0.02569 0.0
O160 O 0.25664 0.86874 0.02897 0.0
C161 C 0.25406 0.84643 0.947 0.0
C162 C 0.29897 0.93571 0.98276 0.0
O163 O 0.27791 0.93092 -0.00305 0.0
O164 O 0.30901 0.9145 0.9733 0.0
C165 C 0.21124 0.9212 0.98261 0.0
O166 O 0.22708 0.92314 0.96165 0.0
C167 C 0.27895 0.8627 0.03873 0.0
Zn168 Zn 0.28103 0.34004 0.01527 0.0
Zn169 Zn 0.25297 0.37811 0.01338 0.0
O170 O 0.24827 0.35331 0.97454 0.0
O171 O 0.25979 0.31237 0.98329 0.0
O172 O 0.22461 0.40416 0.01085 0.0
O173 O 0.27428 0.33135 0.05361 0.0
O174 O 0.24141 0.35566 0.04819 0.0
C175 C 0.2503 0.32712 0.96649 0.0
C176 C 0.315 0.39769 0.0098 0.0
O177 O 0.29296 0.40613 0.01624 0.0
O178 O 0.31462 0.37043 0.00681 0.0
C179 C 0.20053 0.3919 -0.00117 0.0
O180 O 0.19554 0.36391 0.98876 0.0
C181 C 0.25306 0.33937 0.06206 0.0
Zn182 Zn 0.71513 0.18552 0.01007 0.0
Zn183 Zn 0.77561 0.14009 0.00851 0.0
O184 O 0.77837 0.1568 0.9712 0.0
O185 O 0.74345 0.16809 0.99009 0.0
O186 O 0.80675 0.12043 0.01104 0.0
O187 O 0.74373 0.20252 0.04301 0.0
O188 O 0.7763 0.17486 0.04115 0.0
C189 C 0.75951 0.17104 0.97068 0.0
C190 C 0.72154 0.11973 0.01072 0.0
O191 O 0.74094 0.10639 0.00925 0.0
O192 O 0.72815 0.14711 0.00876 0.0
C193 C 0.80272 0.09684 -0.0057 0.0
O194 O 0.7795 0.08826 0.97806 0.0
C195 C 0.76609 0.19597 0.0526 0.0
Zn196 Zn 0.09337 0.53796 0.21749 0.0
Zn197 Zn 0.12568 0.50098 0.22758 0.0
O198 O 0.09949 0.49894 0.25897 0.0
O199 O 0.0693 0.52479 0.24743 0.0
O200 O 0.14996 0.47408 0.23742 0.0
O201 O 0.08285 0.51647 0.18012 0.0
O202 O 0.10655 0.48316 0.1885 0.0
C203 C 0.07766 0.50846 0.26336 0.0
C204 C 0.151 0.56689 0.23144 0.0
O205 O 0.15414 0.54071 0.2311 0.0
O206 O 0.12704 0.57171 0.22671 0.0
C207 C 0.16982 0.48164 0.25647 0.0
O208 O 0.17485 0.50802 0.27056 0.0
C209 C 0.09005 0.49278 0.17277 0.0
Zn210 Zn 0.7824 0.84457 0.51288 0.0
Zn211 Zn 0.75804 0.88475 0.51589 0.0
O212 O 0.74742 0.85976 0.47692 0.0
O213 O 0.75735 0.81746 0.48304 0.0
O214 O 0.73432 0.91535 0.51591 0.0
O215 O 0.7792 0.83622 0.55145 0.0
O216 O 0.74861 0.86375 0.55208 0.0
C217 C 0.74684 0.83301 0.46789 0.0
C218 C 0.81956 0.89957 0.50747 0.0
O219 O 0.79904 0.9094 0.51626 0.0
O220 O 0.81696 0.87199 0.50236 0.0
C221 C 0.70817 0.9069 0.50907 0.0
O222 O 0.69714 0.87852 0.50252 0.0
C223 C 0.76068 0.84614 0.56369 0.0
Zn224 Zn 0.92385 0.00862 0.22197 0.0
Zn225 Zn 0.89352 0.04371 0.23189 0.0
O226 O 0.91745 0.04604 0.26932 0.0
O227 O 0.95007 0.02388 0.25544 0.0
O228 O 0.87177 0.07599 0.23863 0.0
O229 O 0.93543 0.02016 0.18604 0.0
O230 O 0.9162 0.05731 0.19765 0.0
C231 C 0.94019 0.03805 0.27438 0.0
C232 C 0.86776 0.977 0.22436 0.0
O233 O 0.86348 0.00302 0.22545 0.0
O234 O 0.89249 0.97363 0.22365 0.0
C235 C 0.84531 0.0718 0.23945 0.0
O236 O 0.82989 0.04462 0.23665 0.0
C237 C 0.93069 0.04463 0.18147 0.0
Zn238 Zn 0.23736 0.66315 0.50946 0.0
Zn239 Zn 0.27836 0.64561 0.51138 0.0
O240 O 0.28412 0.66706 0.47782 0.0
O241 O 0.23903 0.65959 0.46832 0.0
O242 O 0.31155 0.62947 0.51462 0.0
O243 O 0.25504 0.7022 0.532 0.0
O244 O 0.28108 0.67393 0.54691 0.0
C245 C 0.26368 0.66711 0.46096 0.0
C246 C 0.22271 0.60573 0.51542 0.0
O247 O 0.24585 0.60883 0.50446 0.0
O248 O 0.21574 0.62832 0.52657 0.0
C249 C 0.31273 0.6074 0.49771 0.0
O250 O 0.29184 0.59585 0.47904 0.0
C251 C 0.27305 0.69801 0.54952 0.0
Zn252 Zn 0.42798 0.50636 0.71658 0.0
Zn253 Zn 0.38789 0.53272 0.72074 0.0
O254 O 0.41125 0.54182 0.7595 0.0
O255 O 0.44868 0.5247 0.75231 0.0
O256 O 0.35929 0.55909 0.72412 0.0
O257 O 0.44229 0.52115 0.6826 0.0
O258 O 0.40783 0.54403 0.68392 0.0
C259 C 0.43491 0.5379 0.76827 0.0
C260 C 0.37408 0.46545 0.71694 0.0
O261 O 0.36487 0.48894 0.71819 0.0
O262 O 0.40006 0.46725 0.71554 0.0
C263 C 0.36502 0.58337 0.74019 0.0
O264 O 0.3893 0.59114 0.75477 0.0
C265 C 0.42894 0.53791 0.67225 0.0
Zn266 Zn 0.57117 0.04742 0.742 0.0
Zn267 Zn 0.62055 0.99295 0.73908 0.0
O268 O 0.6046 0.98929 0.77708 0.0
O269 O 0.59589 0.02633 0.75956 0.0
O270 O 0.64247 0.9625 0.73336 0.0
O271 O 0.55539 0.01637 0.70951 0.0
O272 O 0.58782 0.98874 0.70773 0.0
C273 C 0.59199 0.00989 0.77843 0.0
C274 C 0.64035 0.05437 0.73856 0.0
O275 O 0.64997 0.03157 0.73907 0.0
O276 O 0.61416 0.05168 0.73986 0.0
C277 C 0.65968 0.96391 0.75408 0.0
O278 O 0.65986 0.98293 0.77593 0.0
C279 C 0.56551 -0.00442 0.69809 0.0
Zn280 Zn 0.7378 0.69873 0.98602 0.0
Zn281 Zn 0.76403 0.6563 0.9873 0.0
O282 O 0.77795 0.67808 0.95281 0.0
O283 O 0.75729 0.71525 0.95443 0.0
O284 O 0.79032 0.62894 0.99267 0.0
O285 O 0.75019 0.71786 0.02455 0.0
O286 O 0.7692 0.67998 0.02688 0.0
C287 C 0.77364 0.70118 0.94318 0.0
C288 C 0.70087 0.63885 0.97886 0.0
O289 O 0.72346 0.62988 0.98082 0.0
O290 O 0.70215 0.66631 0.97987 0.0
C291 C 0.80254 0.61653 0.97412 0.0
O292 O 0.79744 0.61983 0.94807 0.0
C293 C 0.76311 0.70321 0.03855 0.0
Zn294 Zn 0.94456 0.5127 0.77478 0.0
Zn295 Zn 0.91138 0.55147 0.77074 0.0
O296 O 0.93304 0.5678 0.8086 0.0
O297 O 0.96062 0.53675 0.81027 0.0
O298 O 0.88502 0.5774 0.76333 0.0
O299 O 0.96174 0.52294 0.74052 0.0
O300 O 0.9336 0.55294 0.73626 0.0
C301 C 0.95265 0.55903 0.82074 0.0
C302 C 0.8862 0.48542 0.77172 0.0
O303 O 0.88406 0.51185 0.77137 0.0
O304 O 0.91003 0.47945 0.77272 0.0
C305 C 0.86049 0.57136 0.77164 0.0
O306 O 0.85381 0.55035 0.78765 0.0
C307 C 0.95257 0.54086 0.72709 0.0
Zn308 Zn 0.79831 0.36802 0.49006 0.0
Zn309 Zn 0.75499 0.39048 0.49159 0.0
O310 O 0.74549 0.36314 0.45471 0.0
O311 O 0.77958 0.33994 0.45729 0.0
O312 O 0.72335 0.41018 0.49697 0.0
O313 O 0.79495 0.3556 0.52769 0.0
O314 O 0.75481 0.36868 0.52648 0.0
C315 C 0.75767 0.34352 0.44475 0.0
C316 C 0.81263 0.42871 0.48357 0.0
O317 O 0.78704 0.42663 0.48786 0.0
O318 O 0.82301 0.40639 0.48323 0.0
C319 C 0.7279 0.43202 0.51583 0.0
O320 O 0.75207 0.43944 0.53063 0.0
C321 C 0.77231 0.35678 0.53838 0.0
Zn322 Zn 0.61078 0.53377 0.28758 0.0
Zn323 Zn 0.64326 0.49762 0.27903 0.0
O324 O 0.6213 0.48729 0.31429 0.0
O325 O 0.58994 0.51411 0.31662 0.0
O326 O 0.66704 0.46678 0.27378 0.0
O327 O 0.59456 0.52484 0.2488 0.0
O328 O 0.62029 0.49264 0.24074 0.0
C329 C 0.60057 0.49451 0.3256 0.0
C330 C 0.66821 0.56426 0.29234 0.0
O331 O 0.67157 0.53856 0.28424 0.0
O332 O 0.64417 0.568 0.29716 0.0
C333 C 0.66904 0.44931 0.29176 0.0
O334 O 0.65651 0.45186 0.31472 0.0
C335 C 0.60222 0.50611 0.23225 0.0
Dy336 Dy 0.98487 0.01257 -0.00555 0.0
C337 C 0.09946 0.01335 0.02072 0.0
C338 C 0.9378 0.03236 -0.00202 0.0
Dy339 Dy 0.04748 0.02321 0.01268 0.0
O340 O 0.93887 0.00801 0.98276 0.0
O341 O 0.96166 0.04447 0.01138 0.0
O342 O 0.98731 0.98528 0.95482 0.0
O343 O 0.02287 0.01777 0.97275 0.0
C344 C 0.0142 -0.0041 0.95426 0.0
C345 C 0.01398 0.03669 0.05145 0.0
O346 O 0.05178 0.0668 -0.00264 0.0
O347 O 0.00354 0.05997 0.98979 0.0
O348 O 0.08022 0.00892 0.03806 0.0
O349 O 0.09062 0.02437 -0.0004 0.0
O350 O 0.03988 0.05138 0.05148 0.0
O351 O 0.00911 0.01534 0.03279 0.0
O352 O 0.98385 0.97137 0.0137 0.0
O353 O 0.02989 0.97434 0.00444 0.0
C354 C 0.02941 0.07657 0.99112 0.0
C355 C 0.00557 0.95927 0.01159 0.0
Dy356 Dy 0.25975 0.78528 0.23496 0.0
C357 C 0.25189 0.77219 0.34921 0.0
C358 C 0.26106 0.79833 0.18219 0.0
Dy359 Dy 0.2515 0.78338 0.29591 0.0
O360 O 0.27855 0.81245 0.20252 0.0
O361 O 0.24294 0.77685 0.19041 0.0
O362 O 0.30035 0.77164 0.2398 0.0
O363 O 0.28794 0.79721 0.27269 0.0
C364 C 0.30582 0.7829 0.26547 0.0
C365 C 0.20487 0.78328 0.26582 0.0
O366 O 0.26744 0.83167 0.29464 0.0
O367 O 0.2485 0.82753 0.25013 0.0
O368 O 0.2302 0.77496 0.33453 0.0
O369 O 0.27372 0.77694 0.33504 0.0
O370 O 0.21033 0.79589 0.29113 0.0
O371 O 0.22362 0.77016 0.25851 0.0
O372 O 0.24831 0.73668 0.23337 0.0
O373 O 0.25259 0.73645 0.28108 0.0
C374 C 0.2604 0.84406 0.27305 0.0
C375 C 0.24939 0.72273 0.25545 0.0
Dy376 Dy 0.54061 0.01773 0.50217 0.0
C377 C 0.42415 0.02721 0.49827 0.0
C378 C 0.5873 -0.00389 0.51031 0.0
Dy379 Dy 0.47523 0.01388 0.50575 0.0
O380 O 0.58613 0.01763 0.49561 0.0
O381 O 0.56364 0.98781 0.52105 0.0
O382 O 0.54096 0.04186 0.46454 0.0
O383 O 0.50422 0.0125 0.47374 0.0
C384 C 0.51404 0.03198 0.45866 0.0
C385 C 0.50282 0.00105 0.54991 0.0
O386 O 0.47197 0.96949 0.48282 0.0
O387 O 0.51936 0.96981 0.48951 0.0
O388 O 0.42921 0.00698 0.51284 0.0
O389 O 0.44683 0.03961 0.48743 0.0
O390 O 0.47589 0.99101 0.54457 0.0
O391 O 0.5118 0.01958 0.53384 0.0
O392 O 0.5433 0.06242 0.52541 0.0
O393 O 0.49568 0.06185 0.51755 0.0
C394 C 0.49291 0.95602 0.48191 0.0
C395 C 0.52198 0.0756 0.52596 0.0
Dy396 Dy 0.23523 0.2649 0.75515 0.0
C397 C 0.35428 0.28055 0.73488 0.0
C398 C 0.18 0.25036 0.76577 0.0
Dy399 Dy 0.30146 0.26915 0.7531 0.0
O400 O 0.18937 0.25963 0.74301 0.0
O401 O 0.20078 0.24792 0.78224 0.0
O402 O 0.23776 0.31385 0.75199 0.0
O403 O 0.2731 0.29775 0.75285 0.0
C404 C 0.26476 0.32083 0.75097 0.0
C405 C 0.27069 0.2178 0.76613 0.0
O406 O 0.29863 0.29398 0.79471 0.0
O407 O 0.25257 0.26898 0.79889 0.0
O408 O 0.34799 0.2709 0.75842 0.0
O409 O 0.33208 0.28502 0.72225 0.0
O410 O 0.29737 0.22737 0.77309 0.0
O411 O 0.26291 0.23423 0.74992 0.0
O412 O 0.23618 0.24739 0.71075 0.0
O413 O 0.28489 0.25666 0.70859 0.0
C414 C 0.27691 0.28587 0.80978 0.0
C415 C 0.2589 0.24845 0.69684 0.0
Dy416 Dy 0.00992 0.00082 0.47217 0.0
C417 C 0.04595 0.03197 0.58594 0.0
C418 C 0.98333 -0.00459 0.42053 0.0
Dy419 Dy 0.02418 0.02459 0.53244 0.0
O420 O 0.00997 -0.00224 0.42574 0.0
O421 O 0.97103 0.99396 0.44343 0.0
O422 O 0.05355 0.99443 0.46852 0.0
O423 O 0.04697 0.02954 0.49538 0.0
C424 C 0.06536 0.01654 0.48699 0.0
C425 C 0.96916 0.01018 0.51686 0.0
O426 O 0.03169 0.0684 0.51659 0.0
O427 O 0.00694 0.04844 0.47466 0.0
O428 O 0.02326 0.03927 0.5776 0.0
O429 O 0.05769 0.02231 0.56476 0.0
O430 O 0.98076 0.03183 0.53572 0.0
O431 O 0.9872 -0.00353 0.5091 0.0
O432 O 0.00602 0.95654 0.48721 0.0
O433 O 0.02549 0.97677 0.53141 0.0
C434 C 0.01942 0.07154 0.49266 0.0
C435 C 0.01564 0.95369 0.51248 0.0
Dy436 Dy 0.30411 0.79066 0.75845 0.0
C437 C 0.19385 0.73595 0.71488 0.0
C438 C 0.35599 0.81144 0.78508 0.0
Dy439 Dy 0.24443 0.75337 0.74409 0.0
O440 O 0.35101 0.80001 0.75938 0.0
O441 O 0.33255 0.8128 0.79564 0.0
O442 O 0.30683 0.79744 0.71287 0.0
O443 O 0.28297 0.75873 0.72508 0.0
C444 C 0.28913 0.77232 0.70476 0.0
C445 C 0.25778 0.76629 0.79786 0.0
O446 O 0.26726 0.71651 0.74326 0.0
O447 O 0.30589 0.74567 0.77 0.0
O448 O 0.20022 0.72624 0.73786 0.0
O449 O 0.21562 0.75386 0.70724 0.0
O450 O 0.2399 0.74227 0.78704 0.0
O451 O 0.26517 0.78331 0.77968 0.0
O452 O 0.2853 0.82909 0.75653 0.0
O453 O 0.24021 0.80104 0.74303 0.0
C454 C 0.29117 0.71933 0.75852 0.0
C455 C 0.25867 0.82704 0.74896 0.0
Dy456 Dy 0.50806 0.02929 0.02438 0.0
C457 C 0.50055 0.00971 0.90545 0.0
C458 C 0.5074 0.04475 0.07972 0.0
Dy459 Dy 0.49942 0.02595 0.96055 0.0
O460 O 0.51332 0.0206 0.06877 0.0
O461 O 0.50226 0.06033 0.06051 0.0
O462 O 0.52341 0.98746 0.01895 0.0
O463 O 0.4927 0.99428 0.99037 0.0
C464 C 0.50859 0.97757 -0.00438 0.0
C465 C 0.49999 0.07821 0.98781 0.0
O466 O 0.45462 0.0152 0.97004 0.0
O467 O 0.46244 0.02612 0.01797 0.0
O468 O 0.50358 0.03662 0.91703 0.0
O469 O 0.49628 0.99156 0.92401 0.0
O470 O 0.48604 0.06885 0.96394 0.0
O471 O 0.51474 0.06081 -0.00577 0.0
O472 O 0.55106 0.0483 0.01542 0.0
O473 O 0.54597 0.0299 0.96878 0.0
C474 C 0.4457 0.01996 -0.005 0.0
C475 C 0.56174 0.04188 0.9919 0.0
Dy476 Dy 0.26584 0.30114 0.25999 0.0
C477 C 0.27097 0.18039 0.24076 0.0
C478 C 0.2495 0.35208 0.25595 0.0
Dy479 Dy 0.25674 0.23331 0.24045 0.0
O480 O 0.26402 0.34737 0.27748 0.0
O481 O 0.24568 0.32989 0.23684 0.0
O482 O 0.28863 0.29688 0.30003 0.0
O483 O 0.25815 0.26093 0.2794 0.0
C484 C 0.2771 0.26867 0.29897 0.0
C485 C 0.24718 0.26695 0.20136 0.0
O486 O 0.21508 0.23156 0.25802 0.0
O487 O 0.21987 0.28246 0.26247 0.0
O488 O 0.25276 0.18568 0.22272 0.0
O489 O 0.28034 0.20355 0.25861 0.0
O490 O 0.23482 0.23891 0.19967 0.0
O491 O 0.26511 0.27331 0.22164 0.0
O492 O 0.308 0.30424 0.24452 0.0
O493 O 0.30275 0.25308 0.23612 0.0
C494 C 0.20465 0.25523 0.26302 0.0
C495 C 0.31799 0.28078 0.23735 0.0
Dy496 Dy 0.50247 0.50267 0.96789 0.0
C497 C 0.54935 0.53371 0.08254 0.0
C498 C 0.47796 0.50052 0.91581 0.0
Dy499 Dy 0.52082 0.52399 0.03192 0.0
O500 O 0.50445 0.51019 0.92327 0.0
O501 O 0.46485 0.49024 0.93655 0.0
O502 O 0.54613 0.49583 0.96307 0.0
O503 O 0.53977 0.52852 0.99268 0.0
C504 C 0.55814 0.51639 0.98297 0.0
C505 C 0.4646 0.50623 0.02318 0.0
O506 O 0.52461 0.568 0.01689 0.0
O507 O 0.49963 0.55031 0.97395 0.0
O508 O 0.53026 0.54716 0.07508 0.0
O509 O 0.55404 0.51622 0.0617 0.0
O510 O 0.47731 0.51692 0.04731 0.0
O511 O 0.48293 0.50652 0.00614 0.0
O512 O 0.496 0.45846 0.98341 0.0
O513 O 0.52198 0.47601 0.02572 0.0
C514 C 0.51186 0.5721 -0.00652 0.0
C515 C 0.50823 0.45403 0.00704 0.0
Dy516 Dy 0.80507 0.29646 0.25496 0.0
C517 C 0.69458 0.23707 0.21673 0.0
C518 C 0.85626 0.31669 0.28317 0.0
Dy519 Dy 0.74778 0.25661 0.24016 0.0
O520 O 0.85205 0.30813 0.25677 0.0
O521 O 0.83235 0.31634 0.2934 0.0
O522 O 0.806 0.3111 0.21253 0.0
O523 O 0.7853 0.26772 0.21822 0.0
C524 C 0.7903 0.28604 0.2009 0.0
C525 C 0.76292 0.26621 0.29426 0.0
O526 O 0.77121 0.22117 0.23442 0.0
O527 O 0.81087 0.25049 0.25952 0.0
O528 O 0.70355 0.23044 0.2402 0.0
O529 O 0.71531 0.2525 0.20516 0.0
O530 O 0.7475 0.24134 0.28216 0.0
O531 O 0.76755 0.28482 0.27715 0.0
O532 O 0.78317 0.33319 0.25725 0.0
O533 O 0.73978 0.30256 0.24151 0.0
C534 C 0.79627 0.22436 0.24737 0.0
C535 C 0.75631 0.32915 0.2494 0.0
Dy536 Dy 0.00969 0.51602 0.52334 0.0
C537 C 0.03089 0.53517 0.41385 0.0
C538 C 7e-05 0.51291 0.57719 0.0
Dy539 Dy 0.01551 0.53175 0.46611 0.0
O540 O 0.0243 0.51486 0.56742 0.0
O541 O 0.98108 0.51215 0.55756 0.0
O542 O 0.01974 0.47223 0.51197 0.0
O543 O -0.00153 0.49014 0.48237 0.0
C544 C 0.01072 0.4699 0.48628 0.0
C545 C 0.01515 0.57782 0.5031 0.0
O546 O 0.96882 0.52351 0.46641 0.0
O547 O 0.96972 0.52901 0.51415 0.0
O548 O 0.04343 0.55252 0.43544 0.0
O549 O 0.0092 0.51638 0.42056 0.0
O550 O 0.00541 0.57583 0.47751 0.0
O551 O 0.02669 0.55695 0.50658 0.0
O552 O 0.05499 0.53407 0.52562 0.0
O553 O 0.05691 0.52165 0.47912 0.0
C554 C 0.95629 0.52688 0.4896 0.0
C555 C 0.06916 0.52791 0.50457 0.0
Dy556 Dy 0.73412 0.76988 0.25397 0.0
C557 C 0.85177 0.77509 0.24324 0.0
C558 C 0.67907 0.76241 0.26571 0.0
Dy559 Dy 0.79713 0.76913 0.25596 0.0
O560 O 0.69719 0.7875 0.26667 0.0
O561 O 0.69078 0.74112 0.25732 0.0
O562 O 0.74335 0.81295 0.23498 0.0
O563 O 0.77361 0.80282 0.26169 0.0
C564 C 0.76914 0.82085 0.24561 0.0
C565 C 0.76256 0.71821 0.26464 0.0
O566 O 0.79455 0.79005 0.29898 0.0
O567 O 0.74683 0.77051 0.29903 0.0
O568 O 0.84411 0.7838 0.26726 0.0
O569 O 0.82974 0.7632 0.22673 0.0
O570 O 0.78829 0.72669 0.27515 0.0
O571 O 0.75781 0.73559 0.24795 0.0
O572 O 0.73667 0.75486 0.20943 0.0
O573 O 0.78508 0.77271 0.21139 0.0
C574 C 0.77141 0.78369 0.31228 0.0
C575 C 0.76043 0.76186 0.19731 0.0
Dy576 Dy 0.76206 0.27315 0.73161 0.0
C577 C 0.77019 0.26765 0.84765 0.0
C578 C 0.76777 0.2833 0.67805 0.0
Dy579 Dy 0.75693 0.27559 0.79473 0.0
O580 O 0.78792 0.2882 0.69731 0.0
O581 O 0.744 0.27234 0.68783 0.0
O582 O 0.7996 0.25371 0.73836 0.0
O583 O 0.79095 0.28516 0.76827 0.0
C584 C 0.80714 0.26857 0.7626 0.0
C585 C 0.71105 0.28092 0.7667 0.0
O586 O 0.77709 0.32252 0.79032 0.0
O587 O 0.75989 0.31965 0.74492 0.0
O588 O 0.74765 0.27549 0.83951 0.0
O589 O 0.78511 0.26434 0.82699 0.0
O590 O 0.71723 0.29146 0.79266 0.0
O591 O 0.72754 0.26524 0.75848 0.0
O592 O 0.74222 0.22604 0.73241 0.0
O593 O 0.74943 0.2267 0.78021 0.0
C594 C 0.77279 0.33526 0.76798 0.0
C595 C 0.74234 0.21247 0.75488 0.0
Dy596 Dy 0.76079 0.79517 0.76288 0.0
C597 C 0.76944 0.67933 0.72535 0.0
C598 C 0.75307 0.85081 0.77226 0.0
Dy599 Dy 0.7551 0.73184 0.73818 0.0
O600 O 0.75446 0.83371 0.79133 0.0
O601 O 0.75652 0.83765 0.74839 0.0
O602 O 0.78674 0.7886 0.79997 0.0
O603 O 0.7553 0.75321 0.7801 0.0
C604 C 0.77517 0.7605 0.79885 0.0
C605 C 0.74304 0.76763 0.70164 0.0
O606 O 0.71183 0.72558 0.752 0.0
O607 O 0.71441 0.77605 0.75918 0.0
O608 O 0.77473 0.70165 0.71126 0.0
O609 O 0.75465 0.68508 0.74567 0.0
O610 O 0.73091 0.73965 0.7003 0.0
O611 O 0.76179 0.77362 0.72136 0.0
O612 O 0.80275 0.80142 0.74699 0.0
O613 O 0.80143 0.75181 0.74676 0.0
C614 C 0.70025 0.74816 0.75782 0.0
C615 C 0.81518 0.7793 0.74471 0.0
Dy616 Dy 0.48638 0.51158 0.49295 0.0
C617 C 0.601 0.51044 0.51527 0.0
C618 C 0.4359 0.52503 0.4915 0.0
Dy619 Dy 0.5489 0.52106 0.50845 0.0
O620 O 0.43978 0.49951 0.48149 0.0
O621 O 0.45925 0.54246 0.50202 0.0
O622 O 0.48649 0.47699 0.4575 0.0
O623 O 0.52265 0.51054 0.46943 0.0
C624 C 0.513 0.4864 0.4542 0.0
C625 C 0.5205 0.54599 0.54629 0.0
O626 O 0.55292 0.56041 0.4857 0.0
O627 O 0.50488 0.55715 0.48232 0.0
O628 O 0.58339 0.50979 0.53421 0.0
O629 O 0.59021 0.51748 0.4929 0.0
O630 O 0.54685 0.5567 0.54298 0.0
O631 O 0.51229 0.52157 0.53148 0.0
O632 O 0.4858 0.47787 0.52199 0.0
O633 O 0.52948 0.47321 0.51073 0.0
C634 C 0.53107 0.57111 0.47941 0.0
C635 C 0.50603 0.46363 0.52253 0.0
Dy636 Dy 0.03587 0.50674 0.00207 0.0
C637 C 0.92268 0.52821 0.99191 0.0
C638 C 0.08479 0.48783 0.00477 0.0
Dy639 Dy 0.97177 0.51146 0.00263 0.0
O640 O 0.06332 0.477 0.98716 0.0
O641 O 0.07991 0.50974 0.02101 0.0
O642 O 0.03887 0.52847 0.96236 0.0
O643 O 0.00087 0.50319 0.97261 0.0
C644 C 0.01208 0.51969 0.95576 0.0
C645 C 0.99332 0.49603 0.04858 0.0
O646 O 0.96678 0.46467 0.98505 0.0
O647 O 0.01007 0.46099 0.00419 0.0
O648 O 0.93778 0.53437 0.01539 0.0
O649 O 0.93392 0.51206 0.97472 0.0
O650 O 0.96649 0.48954 0.04159 0.0
O651 O 0.00632 0.51329 0.03283 0.0
O652 O 0.04176 0.55381 0.01907 0.0
O653 O -0.00244 0.55742 0.00185 0.0
C654 C 0.98509 0.44895 0.99113 0.0
C655 C 0.02355 0.56935 0.01238 0.0
H656 H 0.02433 0.17446 0.91654 0.0
H657 H 0.95096 0.17427 0.96183 0.0
H658 H 0.96597 0.14331 -0.00649 0.0
H659 H 0.99651 0.1121 0.00524 0.0
H660 H 0.06637 0.10563 0.95714 0.0
H661 H 0.05734 0.14489 0.93073 0.0
C662 C 0.01169 0.16758 0.93334 0.0
C663 C 0.9863 0.17612 0.93645 0.0
C664 C 0.02019 0.14922 0.95134 0.0
C665 C 0.97025 0.16742 0.95852 0.0
C666 C 0.97896 0.15002 0.9769 0.0
C667 C 0.0102 0.1199 0.98942 0.0
C668 C 0.03176 0.10606 0.98277 0.0
C669 C 0.0035 0.14035 0.97313 0.0
C670 C 0.04971 0.11628 0.96261 0.0
C671 C 0.04416 0.13822 0.94719 0.0
H672 H 0.09221 0.79134 0.20169 0.0
H673 H 0.14394 0.78325 0.13341 0.0
H674 H 0.18208 0.77966 0.16484 0.0
H675 H 0.20123 0.77883 0.21117 0.0
H676 H 0.15348 0.79027 0.28094 0.0
H677 H 0.11323 0.79252 0.24976 0.0
C678 C 0.11196 0.78918 0.19384 0.0
C679 C 0.11496 0.78725 0.16517 0.0
C680 C 0.13452 0.78776 0.21225 0.0
C681 C 0.14076 0.7845 0.15529 0.0
C682 C 0.1628 0.78259 0.17325 0.0
C683 C 0.18213 0.78188 0.21945 0.0
C684 C 0.18027 0.78435 0.24794 0.0
C685 C 0.15987 0.78405 0.20162 0.0
C686 C 0.15534 0.78844 0.25882 0.0
C687 C 0.13242 0.78976 0.24103 0.0
H688 H 0.45022 0.82114 0.43968 0.0
H689 H 0.53537 0.83314 0.41674 0.0
H690 H 0.54557 0.88496 0.43705 0.0
H691 H 0.52955 0.92684 0.45965 0.0
H692 H 0.44349 0.91492 0.47976 0.0
H693 H 0.43427 0.86262 0.46195 0.0
C694 C 0.47112 0.83497 0.43929 0.0
C695 C 0.49208 0.82338 0.42685 0.0
C696 C 0.47653 0.86464 0.45023 0.0
C697 C 0.51892 0.84165 0.4262 0.0
C698 C 0.52472 0.8712 0.43775 0.0
C699 C 0.50879 0.91277 0.46021 0.0
C700 C 0.48717 0.92463 0.47091 0.0
C701 C 0.50356 0.88294 0.44953 0.0
C702 C 0.46035 0.90628 0.47136 0.0
C703 C 0.45512 0.87642 0.46131 0.0
H704 H 0.4532 0.27616 0.65831 0.0
H705 H 0.49934 0.28204 0.7371 0.0
H706 H 0.45664 0.28199 0.76089 0.0
H707 H 0.40598 0.28139 0.75926 0.0
H708 H 0.36156 0.27982 0.68031 0.0
H709 H 0.40358 0.27716 0.65673 0.0
C710 C 0.45385 0.27704 0.68067 0.0
C711 C 0.47934 0.2787 0.69589 0.0
C712 C 0.42948 0.2781 0.69424 0.0
C713 C 0.47993 0.28053 0.7249 0.0
C714 C 0.45553 0.28062 0.73852 0.0
C715 C 0.40565 0.28062 0.73694 0.0
C716 C 0.38074 0.28091 0.72159 0.0
C717 C 0.43019 0.27968 0.72343 0.0
C718 C 0.38055 0.27993 0.69265 0.0
C719 C 0.40454 0.27823 0.67909 0.0
H720 H 0.0141 0.82393 0.5396 0.0
H721 H 0.99537 0.86195 0.61901 0.0
H722 H 0.99658 0.9086 0.60076 0.0
H723 H 0.00403 0.93911 0.56304 0.0
H724 H 0.02124 0.90212 0.48289 0.0
H725 H 0.01951 0.85447 0.50059 0.0
C726 C 0.01026 0.84241 0.55291 0.0
C727 C 0.00486 0.83937 0.58078 0.0
C728 C 0.01077 0.86934 0.54217 0.0
C729 C -0.00029 0.86356 0.59759 0.0
C730 C 0.00039 0.89031 0.58716 0.0
C731 C 0.00744 0.92062 0.54939 0.0
C732 C 0.01306 0.92415 0.52178 0.0
C733 C 0.0061 0.8935 0.55962 0.0
C734 C 0.01686 0.89988 0.50421 0.0
C735 C 0.01596 0.87273 0.51439 0.0
H736 H 0.43639 0.78402 0.87498 0.0
H737 H 0.47744 0.75747 0.80393 0.0
H738 H 0.44512 0.77566 0.77357 0.0
H739 H 0.40301 0.79605 0.76787 0.0
H740 H 0.36497 0.82451 0.84055 0.0
H741 H 0.39923 0.80942 0.87003 0.0
C742 C 0.4381 0.78186 0.85277 0.0
C743 C 0.45838 0.76846 0.84143 0.0
C744 C 0.42046 0.79324 0.836 0.0
C745 C 0.46135 0.76703 0.81288 0.0
C746 C 0.4431 0.77763 0.79568 0.0
C747 C 0.40278 0.79968 0.79019 0.0
C748 C 0.38136 0.81103 0.80208 0.0
C749 C 0.42237 0.79053 0.80707 0.0
C750 C 0.38125 0.81578 0.83097 0.0
C751 C 0.40059 0.80683 0.84781 0.0
H752 H 0.51359 0.20341 0.0556 0.0
H753 H 0.45402 0.1509 0.1033 0.0
H754 H 0.45109 0.10738 0.07021 0.0
H755 H 0.46779 0.08333 0.02974 0.0
H756 H 0.52952 0.1339 0.98322 0.0
H757 H 0.52932 0.1792 0.01362 0.0
C758 C 0.49975 0.1825 0.05848 0.0
C759 C 0.48403 0.18035 0.0818 0.0
C760 C 0.4989 0.15718 0.03986 0.0
C761 C 0.4664 0.15307 0.08554 0.0
C762 C 0.4648 0.12813 0.06674 0.0
C763 C 0.48127 0.10427 0.02644 0.0
C764 C 0.49896 0.10552 0.00484 0.0
C765 C 0.48139 0.12978 0.04422 0.0
C766 C 0.51592 0.1327 8e-05 0.0
C767 C 0.5158 0.15846 0.01742 0.0
H768 H 0.09428 0.23434 0.32624 0.0
H769 H 0.10401 0.32653 0.31592 0.0
H770 H 0.14368 0.32494 0.28832 0.0
H771 H 0.17679 0.29857 0.26936 0.0
H772 H 0.16925 0.20689 0.2805 0.0
H773 H 0.12673 0.20683 0.30474 0.0
C774 C 0.10504 0.25405 0.31788 0.0
C775 C 0.09628 0.2806 0.32333 0.0
C776 C 0.12795 0.253 0.30196 0.0
C777 C 0.11028 0.30585 0.3121 0.0
C778 C 0.13297 0.30496 0.29629 0.0
C779 C 0.16586 0.27838 0.27688 0.0
C780 C 0.17648 0.25284 0.27339 0.0
C781 C 0.14212 0.27878 0.29138 0.0
C782 C 0.16162 0.22687 0.28291 0.0
C783 C 0.13744 0.22692 0.29698 0.0
H784 H 0.91538 0.02424 0.12875 0.0
H785 H 0.97542 0.0914 0.18129 0.0
H786 H 0.00676 0.09786 0.14358 0.0
H787 H 0.02035 0.0772 0.0983 0.0
H788 H 0.96041 0.00613 0.04907 0.0
H789 H 0.92595 0.00858 0.08228 0.0
C790 C 0.93478 0.04122 0.13144 0.0
C791 C 0.94302 0.05755 0.15744 0.0
C792 C 0.95314 0.0435 0.11032 0.0
C793 C 0.96844 0.07904 0.16114 0.0
C794 C 0.98658 0.08228 0.13974 0.0
C795 C -0.0004 0.06264 0.09477 0.0
C796 C 0.99311 0.04141 0.07125 0.0
C797 C 0.97977 0.06348 0.11467 0.0
C798 C 0.96612 0.02264 0.06695 0.0
C799 C 0.94625 0.02399 0.08597 0.0
H800 H 0.22403 0.67106 0.42291 0.0
H801 H 0.31304 0.6991 0.445 0.0
H802 H 0.31711 0.73651 0.41301 0.0
H803 H 0.29432 0.76372 0.38191 0.0
H804 H 0.20449 0.73837 0.36483 0.0
H805 H 0.20152 0.69824 0.39324 0.0
C806 C 0.24442 0.68512 0.42055 0.0
C807 C 0.26807 0.6828 0.43656 0.0
C808 C 0.24623 0.70774 0.40398 0.0
C809 C 0.29447 0.70061 0.43285 0.0
C810 C 0.29673 0.7223 0.415 0.0
C811 C 0.27411 0.74976 0.38502 0.0
C812 C 0.24968 0.75394 0.37169 0.0
C813 C 0.27255 0.72673 0.40131 0.0
C814 C 0.22352 0.73577 0.37542 0.0
C815 C 0.22185 0.71253 0.39119 0.0
H816 H 0.58843 0.00773 0.65131 0.0
H817 H 0.51444 0.95871 0.68354 0.0
H818 H 0.48876 0.95224 0.63798 0.0
H819 H 0.48553 0.96799 0.59134 0.0
H820 H 0.55808 0.02451 0.56291 0.0
H821 H 0.5862 0.02054 0.60414 0.0
C822 C 0.56702 0.99461 0.64791 0.0
C823 C 0.55336 0.98311 0.67024 0.0
C824 C 0.55199 0.99298 0.62239 0.0
C825 C 0.52537 0.96711 0.66624 0.0
C826 C 0.51064 0.96383 0.64036 0.0
C827 C 0.50759 0.979 0.59408 0.0
C828 C 0.51978 -0.00379 0.574 0.0
C829 C 0.52339 0.97786 0.61863 0.0
C830 C 0.5483 0.0107 0.57785 0.0
C831 C 0.56441 0.00859 0.60152 0.0
H832 H 0.27916 0.35555 0.9282 0.0
H833 H 0.22099 0.27446 0.9397 0.0
H834 H 0.22584 0.25386 0.89234 0.0
H835 H 0.24746 0.25861 0.84849 0.0
H836 H 0.30776 0.33847 0.83727 0.0
H837 H 0.30221 0.35964 0.88434 0.0
C838 C 0.26708 0.33365 0.91997 0.0
C839 C 0.24906 0.31676 0.93687 0.0
C840 C 0.27107 0.32153 0.89329 0.0
C841 C 0.23438 0.28798 0.92666 0.0
C842 C 0.23745 0.27614 0.89981 0.0
C843 C 0.25956 0.28061 0.85638 0.0
C844 C 0.27792 0.29704 0.83942 0.0
C845 C 0.25598 0.2926 0.88312 0.0
C846 C 0.29372 0.32531 0.85003 0.0
C847 C 0.29025 0.33752 0.87677 0.0
H848 H 0.91267 0.02464 0.31974 0.0
H849 H 0.99529 0.05211 0.29177 0.0
H850 H 0.01606 0.0406 0.33467 0.0
H851 H 0.01042 0.01826 0.37801 0.0
H852 H 0.92788 0.98938 0.4058 0.0
H853 H 0.90725 0.0051 0.36482 0.0
C854 C 0.93525 0.02898 0.32351 0.0
C855 C 0.95249 0.03948 0.30284 0.0
C856 C 0.94694 0.021 0.3477 0.0
C857 C 0.98168 0.04433 0.30759 0.0
C858 C 0.99351 0.03736 0.33191 0.0
C859 C 0.9879 0.01513 0.37494 0.0
C860 C 0.97063 0.00212 0.39456 0.0
C861 C 0.97629 0.0247 0.35164 0.0
C862 C 0.94154 -0.00114 0.39068 0.0
C863 C 0.92978 0.00812 0.36742 0.0
H864 H 0.26002 0.68161 0.59805 0.0
H865 H 0.29808 0.75724 0.55865 0.0
H866 H 0.30644 0.78841 0.6037 0.0
H867 H 0.30344 0.793 0.65509 0.0
H868 H 0.25934 0.71667 0.69097 0.0
H869 H 0.25258 0.68708 0.64665 0.0
C870 C 0.27035 0.7049 0.59947 0.0
C871 C 0.27915 0.71718 0.5757 0.0
C872 C 0.27384 0.72254 0.62481 0.0
C873 C 0.29165 0.74746 0.57717 0.0
C874 C 0.29628 0.76519 0.60278 0.0
C875 C 0.2922 0.77 0.65299 0.0
C876 C 0.28264 0.75694 0.67647 0.0
C877 C 0.28752 0.75288 0.62688 0.0
C878 C 0.26756 0.72724 0.67346 0.0
C879 C 0.26358 0.71013 0.64804 0.0
H880 H 0.56358 0.96744 0.80715 0.0
H881 H 0.57439 0.05906 0.79449 0.0
H882 H 0.54253 0.0658 0.82998 0.0
H883 H 0.51584 0.0471 0.86778 0.0
H884 H 0.50586 0.95603 0.88192 0.0
H885 H 0.53228 0.94723 0.84195 0.0
C886 C 0.55871 0.98875 0.81209 0.0
C887 C 0.57135 0.01277 0.79853 0.0
C888 C 0.54037 0.99247 0.83252 0.0
C889 C 0.56476 0.04024 0.80471 0.0
C890 C 0.5466 0.04413 0.82498 0.0
C891 C 0.51889 0.02516 0.8617 0.0
C892 C 0.50935 0.00234 0.87782 0.0
C893 C 0.53477 0.02057 0.83939 0.0
C894 C 0.51318 0.97395 0.86974 0.0
C895 C 0.52851 0.969 0.84711 0.0
H896 H 0.27683 0.35628 0.11355 0.0
H897 H 0.20641 0.29632 0.06678 0.0
H898 H 0.1966 0.26868 0.10675 0.0
H899 H 0.21218 0.25827 0.15351 0.0
H900 H 0.28338 0.31926 0.19891 0.0
H901 H 0.28855 0.34975 0.16144 0.0
C902 C 0.25876 0.33776 0.11252 0.0
C903 C 0.24211 0.32853 0.08758 0.0
C904 C 0.2537 0.32179 0.1353 0.0
C905 C 0.21911 0.30415 0.08609 0.0
C906 C 0.21378 0.28813 0.10881 0.0
C907 C 0.22855 0.27842 0.15524 0.0
C908 C 0.24749 0.28623 0.17898 0.0
C909 C 0.23155 0.29616 0.13329 0.0
C910 C 0.26852 0.31254 0.18096 0.0
C911 C 0.27157 0.33011 0.15947 0.0
H912 H 0.18198 0.93 0.02735 0.0
H913 H 0.19634 0.9556 0.94571 0.0
H914 H 0.16557 0.98936 0.95197 0.0
H915 H 0.13345 0.01026 0.97974 0.0
H916 H 0.11735 0.98376 0.06063 0.0
H917 H 0.15062 0.9522 0.05587 0.0
C918 C 0.17826 0.94286 0.01089 0.0
C919 C 0.19126 0.94015 0.98604 0.0
C920 C 0.16066 0.96239 0.01466 0.0
C921 C 0.18646 0.95715 0.96499 0.0
C922 C 0.16901 0.9766 0.96859 0.0
C923 C 0.13767 -0.00196 -0.00345 0.0
C924 C 0.12323 -0.00064 0.02053 0.0
C925 C 0.156 0.97935 -0.00671 0.0
C926 C 0.12853 0.98322 0.04207 0.0
C927 C 0.14729 0.96497 0.03924 0.0
H928 H 0.68688 0.57768 0.97686 0.0
H929 H 0.65089 0.65384 0.97851 0.0
H930 H 0.60471 0.62284 0.981 0.0
H931 H 0.57427 0.57502 0.98403 0.0
H932 H 0.60695 0.49701 0.97889 0.0
H933 H 0.6546 0.52772 0.97677 0.0
C934 C 0.6689 0.5874 0.97755 0.0
C935 C 0.67269 0.61826 0.97772 0.0
C936 C 0.64179 0.56918 0.97871 0.0
C937 C 0.64897 0.63033 0.97847 0.0
C938 C 0.62237 0.61261 0.98 0.0
C939 C 0.59179 0.56464 0.98257 0.0
C940 C 0.58721 0.53387 0.98206 0.0
C941 C 0.61859 0.58218 0.98047 0.0
C942 C 0.61006 0.52073 0.97955 0.0
C943 C 0.63723 0.5383 0.97827 0.0
H944 H 0.70757 0.4434 0.25383 0.0
H945 H 0.66357 0.40058 0.31844 0.0
H946 H 0.68616 0.35971 0.31042 0.0
H947 H 0.71778 0.33542 0.2848 0.0
H948 H 0.76533 0.37895 0.22303 0.0
H949 H 0.74184 0.42 0.22978 0.0
C950 C 0.70295 0.4251 0.2661 0.0
C951 C 0.68373 0.42506 0.2866 0.0
C952 C 0.71653 0.4017 0.26175 0.0
C953 C 0.67823 0.4013 0.30254 0.0
C954 C 0.69109 0.3778 0.29794 0.0
C955 C 0.72303 0.354 0.27293 0.0
C956 C 0.74303 0.3543 0.25341 0.0
C957 C 0.71015 0.3777 0.27758 0.0
C958 C 0.74993 0.37843 0.23819 0.0
C959 C 0.73649 0.4018 0.24206 0.0
H960 H 0.83673 0.47701 0.51917 0.0
H961 H 0.82933 0.44058 0.43359 0.0
H962 H 0.87222 0.47583 0.4254 0.0
H963 H 0.91751 0.5061 0.44595 0.0
H964 H 0.92614 0.54029 0.53247 0.0
H965 H 0.87712 0.51771 0.53683 0.0
C966 C 0.84393 0.47787 0.49852 0.0
C967 C 0.83044 0.4563 0.47704 0.0
C968 C 0.86927 0.49731 0.49433 0.0
C969 C 0.83974 0.45713 0.45035 0.0
C970 C 0.86436 0.47707 0.44576 0.0
C971 C 0.9084 0.50957 0.46546 0.0
C972 C 0.92568 0.52362 0.48908 0.0
C973 C 0.88033 0.4957 0.46807 0.0
C974 C 0.91345 0.52861 0.51412 0.0
C975 C 0.88538 0.51562 0.5167 0.0
H976 H 0.32149 0.06915 0.21351 0.0
H977 H 0.37815 0.11436 0.28336 0.0
H978 H 0.35157 0.15216 0.28917 0.0
H979 H 0.3133 0.17316 0.27402 0.0
H980 H 0.25728 0.13021 0.20325 0.0
H981 H 0.28227 0.09036 0.19846 0.0
C982 C 0.32802 0.08728 0.22999 0.0
C983 C 0.35189 0.08892 0.24791 0.0
C984 C 0.31265 0.10918 0.23318 0.0
C985 C 0.36001 0.11256 0.26917 0.0
C986 C 0.34476 0.13418 0.27259 0.0
C987 C 0.30634 0.15494 0.25767 0.0
C988 C 0.28346 0.15452 0.23905 0.0
C989 C 0.32116 0.13275 0.2547 0.0
C990 C 0.27478 0.13088 0.2179 0.0
C991 C 0.28916 0.10824 0.21509 0.0
H992 H 0.3042 0.05465 0.50336 0.0
H993 H 0.34915 0.13573 0.47577 0.0
H994 H 0.39156 0.11727 0.47471 0.0
H995 H 0.41639 0.07852 0.48216 0.0
H996 H 0.37257 -0.00185 0.51141 0.0
H997 H 0.32926 0.01567 0.51091 0.0
C998 C 0.32324 0.06826 0.49704 0.0
C999 C 0.3233 0.09656 0.48958 0.0
C1000 C 0.3478 0.05755 0.49662 0.0
C1001 C 0.3483 0.11385 0.48153 0.0
C1002 C 0.37266 0.10331 0.48091 0.0
C1003 C 0.39729 0.06475 0.48823 0.0
C1004 C 0.39761 0.03702 0.49669 0.0
C1005 C 0.37268 0.07524 0.48842 0.0
C1006 C 0.37282 0.01957 0.5048 0.0
C1007 C 0.34808 0.02961 0.50455 0.0
H1008 H 0.6868 0.58851 0.24748 0.0
H1009 H 0.69779 0.60028 0.33644 0.0
H1010 H 0.72929 0.64908 0.33566 0.0
H1011 H 0.75152 0.68953 0.30945 0.0
H1012 H 0.73556 0.67984 0.22084 0.0
H1013 H 0.70827 0.6291 0.2214 0.0
C1014 C 0.69675 0.60156 0.26658 0.0
C1015 C 0.69091 0.59071 0.29194 0.0
C1016 C 0.71355 0.63007 0.26593 0.0
C1017 C 0.7028 0.60805 0.31671 0.0
C1018 C 0.7205 0.63599 0.31624 0.0
C1019 C 0.74201 0.67617 0.29035 0.0
C1020 C 0.74535 0.68816 0.26517 0.0
C1021 C 0.72566 0.64742 0.29098 0.0
C1022 C 0.7329 0.671 0.24047 0.0
C1023 C 0.71749 0.642 0.24078 0.0
H1024 H 0.87958 0.42951 0.74882 0.0
H1025 H 0.83608 0.48828 0.79225 0.0
H1026 H 0.79553 0.44703 0.79412 0.0
H1027 H 0.77413 0.39294 0.78635 0.0
H1028 H 0.81799 0.33586 0.74093 0.0
H1029 H 0.85674 0.37765 0.73681 0.0
C1030 C 0.86118 0.43326 0.75864 0.0
C1031 C 0.86089 0.46153 0.7709 0.0
C1032 C 0.83809 0.40972 0.75934 0.0
C1033 C 0.83673 0.46646 0.78289 0.0
C1034 C 0.81363 0.44292 0.78403 0.0
C1035 C 0.79212 0.39001 0.77537 0.0
C1036 C 0.79364 0.36174 0.7641 0.0
C1037 C 0.81431 0.41429 0.77282 0.0
C1038 C 0.8167 0.35772 0.74971 0.0
C1039 C 0.83883 0.38148 0.7474 0.0
H1040 H 0.00052 0.8511 0.0793 0.0
H1041 H 0.0859 0.86677 0.05593 0.0
H1042 H 0.07774 0.90396 0.02792 0.0
H1043 H 0.04761 0.93205 0.01039 0.0
H1044 H 0.96397 0.92329 0.0369 0.0
H1045 H 0.9697 0.88199 0.06214 0.0
C1046 C 0.0173 0.86289 0.06825 0.0
C1047 C 0.04367 0.85599 0.06955 0.0
C1048 C 0.01262 0.88478 0.05218 0.0
C1049 C 0.06531 0.87141 0.05514 0.0
C1050 C 0.06069 0.89261 0.03894 0.0
C1051 C 0.0304 0.92119 0.02154 0.0
C1052 C 0.00552 0.93091 0.02201 0.0
C1053 C 0.03448 0.89927 0.03722 0.0
C1054 C 0.98338 0.91613 0.03621 0.0
C1055 C 0.98679 0.89284 0.05091 0.0
H1056 H 0.90578 0.28262 0.85366 0.0
H1057 H 0.92253 0.20947 0.80158 0.0
H1058 H 0.88389 0.21135 0.76815 0.0
H1059 H 0.8431 0.23202 0.75581 0.0
H1060 H 0.82847 0.30612 0.80855 0.0
H1061 H 0.86847 0.30559 0.83978 0.0
C1062 C 0.90116 0.26729 0.8348 0.0
C1063 C 0.91671 0.24583 0.83005 0.0
C1064 C 0.87911 0.2685 0.81603 0.0
C1065 C 0.91086 0.22628 0.8055 0.0
C1066 C 0.88866 0.22723 0.78657 0.0
C1067 C 0.84887 0.2481 0.77406 0.0
C1068 C 0.83251 0.26867 0.78019 0.0
C1069 C 0.87227 0.24792 0.79192 0.0
C1070 C 0.84036 0.28969 0.80366 0.0
C1071 C 0.86332 0.28951 0.82149 0.0
H1072 H 0.51279 0.19544 0.58984 0.0
H1073 H 0.57856 0.2297 0.53833 0.0
H1074 H 0.57773 0.17961 0.51785 0.0
H1075 H 0.55882 0.12548 0.51544 0.0
H1076 H 0.49231 0.09244 0.5664 0.0
H1077 H 0.49332 0.14254 0.58664 0.0
C1078 C 0.52684 0.19202 0.57401 0.0
C1079 C 0.54578 0.21622 0.56582 0.0
C1080 C 0.52648 0.16328 0.56256 0.0
C1081 C 0.56369 0.2114 0.54506 0.0
C1082 C 0.56342 0.18275 0.53347 0.0
C1083 C 0.54498 0.12945 0.53131 0.0
C1084 C 0.52583 0.10562 0.53984 0.0
C1085 C 0.54517 0.15845 0.54237 0.0
C1086 C 0.50739 0.1107 0.55983 0.0
C1087 C 0.50782 0.13926 0.57126 0.0
H1088 H 0.56075 0.72829 0.3151 0.0
H1089 H 0.57953 0.82301 0.33609 0.0
H1090 H 0.62295 0.82793 0.31334 0.0
H1091 H 0.65641 0.80571 0.28854 0.0
H1092 H 0.63902 0.71126 0.26769 0.0
H1093 H 0.59424 0.70593 0.28897 0.0
C1094 C 0.57427 0.75001 0.31455 0.0
C1095 C 0.56669 0.77522 0.32734 0.0
C1096 C 0.59949 0.75279 0.30136 0.0
C1097 C 0.5846 0.80317 0.32643 0.0
C1098 C 0.60955 0.80607 0.31341 0.0
C1099 C 0.64271 0.78395 0.2884 0.0
C1100 C 0.65097 0.75893 0.27645 0.0
C1101 C 0.61726 0.78108 0.30092 0.0
C1102 C 0.63307 0.73089 0.27664 0.0
C1103 C 0.60752 0.72784 0.2889 0.0
H1104 H 0.02479 0.20383 0.47314 0.0
H1105 H 0.01903 0.16498 0.38823 0.0
H1106 H 0.01856 0.11673 0.40335 0.0
H1107 H 0.01778 0.08547 0.4405 0.0
H1108 H 0.02657 0.12417 0.52573 0.0
H1109 H 0.02831 0.17292 0.51078 0.0
C1110 C 0.02386 0.1848 0.45807 0.0
C1111 C 0.02199 0.18773 0.42968 0.0
C1112 C 0.02404 0.15728 0.46696 0.0
C1113 C 0.02086 0.16316 0.41019 0.0
C1114 C 0.02036 0.1356 0.41882 0.0
C1115 C 0.02001 0.10456 0.45585 0.0
C1116 C 0.02152 0.10123 0.48418 0.0
C1117 C 0.02157 0.13237 0.44711 0.0
C1118 C 0.02513 0.12623 0.50381 0.0
C1119 C 0.02611 0.15403 0.49526 0.0
H1120 H 0.56839 0.24201 0.21375 0.0
H1121 H 0.59251 0.29134 0.14527 0.0
H1122 H 0.64047 0.28582 0.15264 0.0
H1123 H 0.67446 0.26372 0.17632 0.0
H1124 H 0.64957 0.21328 0.24384 0.0
H1125 H 0.60246 0.22156 0.23832 0.0
C1126 C 0.58418 0.25192 0.20061 0.0
C1127 C 0.57678 0.26673 0.17876 0.0
C1128 C 0.61127 0.24762 0.20421 0.0
C1129 C 0.59762 0.27982 0.16224 0.0
C1130 C 0.62495 0.27631 0.16619 0.0
C1131 C 0.65856 0.25411 0.18948 0.0
C1132 C 0.66523 0.23746 0.21011 0.0
C1133 C 0.63173 0.25944 0.18653 0.0
C1134 C 0.64469 0.22566 0.22745 0.0
C1135 C 0.61791 0.23073 0.22456 0.0
H1136 H 0.49168 0.85813 0.91785 0.0
H1137 H 0.57183 0.85861 0.95803 0.0
H1138 H 0.57429 0.90808 0.98225 0.0
H1139 H 0.5506 0.94841 -0.00422 0.0
H1140 H 0.47036 0.94681 0.95478 0.0
H1141 H 0.471 0.90058 0.92684 0.0
C1142 C 0.5099 0.86932 0.93162 0.0
C1143 C 0.53135 0.85477 0.93659 0.0
C1144 C 0.51091 0.89731 0.9455 0.0
C1145 C 0.55508 0.86949 0.954 0.0
C1146 C 0.55632 0.89759 0.96798 0.0
C1147 C 0.53335 0.93792 0.98063 0.0
C1148 C 0.51022 0.95068 0.97763 0.0
C1149 C 0.53387 0.91124 0.9646 0.0
C1150 C 0.48827 0.93728 0.95758 0.0
C1151 C 0.48861 0.91086 0.94163 0.0
H1152 H 0.92362 0.79774 0.67991 0.0
H1153 H 0.92896 0.71913 0.71715 0.0
H1154 H 0.88961 0.72311 0.74369 0.0
H1155 H 0.8511 0.74556 0.7534 0.0
H1156 H 0.84299 0.82295 0.71607 0.0
H1157 H 0.88637 0.82333 0.69329 0.0
C1158 C 0.91625 0.7817 0.69399 0.0
C1159 C 0.92894 0.75791 0.69603 0.0
C1160 C 0.89322 0.78393 0.70939 0.0
C1161 C 0.91934 0.73742 0.71465 0.0
C1162 C 0.89687 0.73968 0.73007 0.0
C1163 C 0.85908 0.76282 0.74064 0.0
C1164 C 0.84391 0.78397 0.73618 0.0
C1165 C 0.88332 0.76239 0.72714 0.0
C1166 C 0.85453 0.80645 0.71989 0.0
C1167 C 0.87912 0.80649 0.70662 0.0
H1168 H 0.05938 0.96368 0.84017 0.0
H1169 H 0.13489 0.0221 0.87965 0.0
H1170 H 0.11329 0.02375 0.92388 0.0
H1171 H 0.06986 0.01595 0.94836 0.0
H1172 H 0.99431 0.95775 0.9081 0.0
H1173 H 0.01877 0.94877 0.86698 0.0
C1174 C 0.07144 0.97566 0.85881 0.0
C1175 C 0.09864 0.99249 0.85694 0.0
C1176 C 0.05852 0.97734 0.8837 0.0
C1177 C 0.11406 0.00853 0.88089 0.0
C1178 C 0.10152 0.0099 0.906 0.0
C1179 C 0.05899 0.00084 0.93082 0.0
C1180 C 0.03026 0.98798 0.93106 0.0
C1181 C 0.07328 -0.00439 0.90723 0.0
C1182 C 0.01636 0.96828 0.90825 0.0
C1183 C 0.03034 0.96304 0.88475 0.0
H1184 H 0.80894 0.34089 0.57307 0.0
H1185 H 0.7215 0.34096 0.56052 0.0
H1186 H 0.71155 0.31514 0.60145 0.0
H1187 H 0.72836 0.29356 0.64151 0.0
H1188 H 0.81636 0.29607 0.65399 0.0
H1189 H 0.82537 0.31926 0.61187 0.0
C1190 C 0.78766 0.33528 0.57922 0.0
C1191 C 0.76602 0.34287 0.56386 0.0
C1192 C 0.78219 0.3206 0.60257 0.0
C1193 C 0.73859 0.33558 0.57221 0.0
C1194 C 0.73287 0.32064 0.59546 0.0
C1195 C 0.74937 0.29886 0.63469 0.0
C1196 C 0.77168 0.29317 0.65065 0.0
C1197 C 0.75455 0.31306 0.61082 0.0
C1198 C 0.79889 0.30026 0.64191 0.0
C1199 C 0.80409 0.31366 0.61796 0.0
H1200 H 0.46818 0.063 0.34577 0.0
H1201 H 0.4072 0.9823 0.3525 0.0
H1202 H 0.42596 0.98185 0.39983 0.0
H1203 H 0.46386 0.00022 0.43609 0.0
H1204 H 0.5288 0.07721 0.42725 0.0
H1205 H 0.50437 0.08365 0.38404 0.0
C1206 C 0.45857 0.04592 0.35803 0.0
C1207 C 0.43638 0.02283 0.34602 0.0
C1208 C 0.47054 0.04489 0.38456 0.0
C1209 C 0.42428 0.00033 0.36161 0.0
C1210 C 0.43511 -4e-05 0.38851 0.0
C1211 C 0.47246 0.01864 0.42488 0.0
C1212 C 0.49818 0.03802 0.43446 0.0
C1213 C 0.45893 0.02144 0.39971 0.0
C1214 C 0.50914 0.06183 0.41992 0.0
C1215 C 0.49518 0.06552 0.3953 0.0
H1216 H 0.76463 0.75624 0.06798 0.0
H1217 H 0.76988 0.66705 0.07755 0.0
H1218 H 0.76833 0.67717 0.1276 0.0
H1219 H 0.76315 0.71071 0.16854 0.0
H1220 H 0.75938 0.80015 0.15934 0.0
H1221 H 0.76246 0.79068 0.10919 0.0
C1222 C 0.76578 0.73912 0.08106 0.0
C1223 C 0.76725 0.71089 0.06901 0.0
C1224 C 0.76468 0.74504 0.1098 0.0
C1225 C 0.76896 0.68903 0.08626 0.0
C1226 C 0.76779 0.6947 0.11488 0.0
C1227 C 0.76274 0.72793 0.15537 0.0
C1228 C 0.76031 0.75579 0.16715 0.0
C1229 C 0.76511 0.72243 0.12679 0.0
C1230 C 0.76056 0.77835 0.15035 0.0
C1231 C 0.76255 0.77298 0.12182 0.0
H1232 H 0.04921 0.00828 0.71007 0.0
H1233 H 0.12352 0.97967 0.68816 0.0
H1234 H 0.11501 0.98907 0.64032 0.0
H1235 H 0.0885 0.00964 0.6058 0.0
H1236 H 0.01679 0.04197 0.63008 0.0
H1237 H 0.02293 0.0279 0.67631 0.0
C1238 C 0.06344 0.00365 0.69484 0.0
C1239 C 0.08713 0.99353 0.70284 0.0
C1240 C 0.05936 0.01069 0.66799 0.0
C1241 C 0.10509 0.98743 0.68262 0.0
C1242 C 0.10045 0.9932 0.65535 0.0
C1243 C 0.07448 0.01391 0.62138 0.0
C1244 C 0.05241 0.02712 0.61468 0.0
C1245 C 0.07817 0.00578 0.64805 0.0
C1246 C 0.03416 0.03221 0.63486 0.0
C1247 C 0.03746 0.02387 0.6612 0.0
H1248 H 0.76999 0.29278 0.42359 0.0
H1249 H 0.72836 0.36016 0.40251 0.0
H1250 H 0.72613 0.34152 0.35345 0.0
H1251 H 0.74078 0.30961 0.31656 0.0
H1252 H 0.78154 0.24175 0.33745 0.0
H1253 H 0.78004 0.25749 0.38692 0.0
C1254 C 0.75996 0.30305 0.40829 0.0
C1255 C 0.74968 0.32803 0.41657 0.0
C1256 C 0.7593 0.29263 0.38023 0.0
C1257 C 0.73637 0.34087 0.39664 0.0
C1258 C 0.73542 0.33047 0.36859 0.0
C1259 C 0.74928 0.29835 0.33205 0.0
C1260 C 0.76177 0.27508 0.32377 0.0
C1261 C 0.7477 0.30707 0.36017 0.0
C1262 C 0.77216 0.25998 0.34367 0.0
C1263 C 0.77118 0.26888 0.3718 0.0
H1264 H 0.45628 0.06923 0.19218 0.0
H1265 H 0.50873 0.01295 0.21783 0.0
H1266 H 0.52871 0.01261 0.17312 0.0
H1267 H 0.52662 0.02296 0.1245 0.0
H1268 H 0.47491 0.08003 0.09956 0.0
H1269 H 0.45921 0.08526 0.14604 0.0
C1270 C 0.47254 0.05745 0.18824 0.0
C1271 C 0.48058 0.04075 0.20813 0.0
C1272 C 0.48375 0.05704 0.16238 0.0
C1273 C 0.50192 0.02583 0.20279 0.0
C1274 C 0.51326 0.02542 0.17712 0.0
C1275 C 0.51231 0.03692 0.12949 0.0
C1276 C 0.50171 0.05092 0.10875 0.0
C1277 C 0.50356 0.04004 0.1564 0.0
C1278 C 0.48336 0.06914 0.11532 0.0
C1279 C 0.4743 0.07205 0.14186 0.0
H1280 H 0.75979 0.6745 0.89086 0.0
H1281 H 0.81166 0.75191 0.93889 0.0
H1282 H 0.82004 0.77619 0.89698 0.0
H1283 H 0.80637 0.77823 0.84804 0.0
H1284 H 0.75069 0.70247 0.80089 0.0
H1285 H 0.75026 0.67461 0.84063 0.0
C1286 C 0.77381 0.69621 0.89186 0.0
C1287 C 0.78555 0.71125 0.91773 0.0
C1288 C 0.7773 0.71057 0.86782 0.0
C1289 C 0.80289 0.73977 0.91906 0.0
C1290 C 0.80738 0.75376 0.89514 0.0
C1291 C 0.79453 0.75546 0.84634 0.0
C1292 C 0.77832 0.74255 0.82163 0.0
C1293 C 0.79371 0.73986 0.8696 0.0
C1294 C 0.76317 0.71299 0.81972 0.0
C1295 C 0.76288 0.69705 0.84249 0.0
H1296 H 0.85706 0.11704 0.01056 0.0
H1297 H 0.79661 0.03925 0.97274 0.0
H1298 H 0.83334 0.01168 0.96972 0.0
H1299 H 0.88302 0.00996 0.97887 0.0
H1300 H 0.94211 0.089 0.01676 0.0
H1301 H 0.9056 0.11592 0.01833 0.0
C1302 C 0.85189 0.09401 0.00178 0.0
C1303 C 0.82436 0.08004 0.99217 0.0
C1304 C 0.87289 0.07858 0.0 0.0
C1305 C 0.81787 0.05037 0.98034 0.0
C1306 C 0.83879 0.03464 0.97863 0.0
C1307 C 0.88767 0.03302 0.98745 0.0
C1308 C 0.91492 0.04739 -0.00197 0.0
C1309 C 0.86641 0.04852 0.98853 0.0
C1310 C 0.92106 0.07734 0.00891 0.0
C1311 C 0.90027 0.09284 0.00978 0.0
H1312 H 0.33723 0.45365 0.03568 0.0
H1313 H 0.35165 0.38841 0.97243 0.0
H1314 H 0.39803 0.41886 0.96739 0.0
H1315 H 0.43697 0.46092 0.9852 0.0
H1316 H 0.42437 0.52381 0.05149 0.0
H1317 H 0.37508 0.4981 0.05075 0.0
C1318 C 0.35038 0.44646 0.02049 0.0
C1319 C 0.34119 0.41871 0.00473 0.0
C1320 C 0.37756 0.4637 0.01831 0.0
C1321 C 0.35846 0.40954 0.98514 0.0
C1322 C 0.385 0.42695 0.98218 0.0
C1323 C 0.42318 0.46934 -0.00107 0.0
C1324 C 0.43413 0.49411 0.01835 0.0
C1325 C 0.39516 0.45363 -0.00074 0.0
C1326 C 0.41627 0.50465 0.03638 0.0
C1327 C 0.38813 0.48989 0.03607 0.0
H1328 H 0.37054 0.63342 0.77553 0.0
H1329 H 0.31551 0.57908 0.70884 0.0
H1330 H 0.28605 0.61492 0.70998 0.0
H1331 H 0.27805 0.66406 0.72785 0.0
H1332 H 0.33416 0.71712 0.7947 0.0
H1333 H 0.36075 0.67951 0.79549 0.0
C1334 C 0.35203 0.6292 0.76126 0.0
C1335 C 0.34555 0.60364 0.74189 0.0
C1336 C 0.33531 0.64989 0.76198 0.0
C1337 C 0.32121 0.5986 0.72386 0.0
C1338 C 0.30434 0.61916 0.72449 0.0
C1339 C 0.29578 0.66713 0.74288 0.0
C1340 C 0.30408 0.6937 0.76101 0.0
C1341 C 0.31144 0.64522 0.74318 0.0
C1342 C 0.32726 0.69719 0.78029 0.0
C1343 C 0.34263 0.67563 0.78079 0.0
H1344 H 0.19185 0.57534 0.55112 0.0
H1345 H 0.20411 0.57723 0.46447 0.0
H1346 H 0.15668 0.54681 0.4523 0.0
H1347 H 0.10886 0.53102 0.46713 0.0
H1348 H 0.09726 0.53059 0.55435 0.0
H1349 H 0.14734 0.54828 0.56547 0.0
C1350 C 0.18446 0.56786 0.52963 0.0
C1351 C 0.20088 0.57858 0.50872 0.0
C1352 C 0.15708 0.55121 0.5229 0.0
C1353 C 0.19155 0.56897 0.48086 0.0
C1354 C 0.16434 0.55196 0.47391 0.0
C1355 C 0.11742 0.53401 0.48847 0.0
C1356 C 0.0994 0.53077 0.50993 0.0
C1357 C 0.14635 0.54469 0.49485 0.0
C1358 C 0.1107 0.534 0.53748 0.0
C1359 C 0.13936 0.54404 0.54392 0.0
H1360 H 0.68073 0.94259 0.79754 0.0
H1361 H 0.68404 0.94437 0.70945 0.0
H1362 H 0.71782 0.91333 0.70854 0.0
H1363 H 0.74293 0.88255 0.73201 0.0
H1364 H 0.73619 0.87648 0.81921 0.0
H1365 H 0.70757 0.91301 0.82155 0.0
C1366 C 0.68902 0.93624 0.77822 0.0
C1367 C 0.67989 0.94533 0.75355 0.0
C1368 C 0.7078 0.91787 0.7778 0.0
C1369 C 0.69055 0.93708 0.72857 0.0
C1370 C 0.70994 0.91958 0.72809 0.0
C1371 C 0.73566 0.88968 0.75164 0.0
C1372 C 0.7415 0.877 0.77539 0.0
C1373 C 0.71828 0.90945 0.75248 0.0
C1374 C 0.73199 0.88622 0.80071 0.0
C1375 C 0.71544 0.90681 0.80198 0.0
H1376 H 0.6516 0.8944 0.50232 0.0
H1377 H 0.72393 0.96777 0.51537 0.0
H1378 H 0.69338 0.00249 0.51542 0.0
H1379 H 0.64527 0.01189 0.51284 0.0
H1380 H 0.57406 0.9372 0.50262 0.0
H1381 H 0.60486 0.90332 0.49999 0.0
C1382 C 0.66081 0.91797 0.5051 0.0
C1383 C 0.69005 0.92837 0.50885 0.0
C1384 C 0.64318 0.93769 0.50555 0.0
C1385 C 0.70146 0.95908 0.51252 0.0
C1386 C 0.68399 0.97898 0.51252 0.0
C1387 C 0.63668 0.98821 0.50995 0.0
C1388 C 0.60745 0.97704 0.50806 0.0
C1389 C 0.65471 0.96856 0.5092 0.0
C1390 C 0.5965 0.94632 0.50444 0.0
C1391 C 0.61409 0.92688 0.50287 0.0
H1392 H 0.31963 0.45251 0.73139 0.0
H1393 H 0.38731 0.41201 0.70945 0.0
H1394 H 0.3602 0.36437 0.71917 0.0
H1395 H 0.31781 0.33403 0.73515 0.0
H1396 H 0.24913 0.37308 0.75538 0.0
H1397 H 0.27607 0.42128 0.74559 0.0
C1398 C 0.32829 0.4332 0.72839 0.0
C1399 C 0.35558 0.43607 0.71973 0.0
C1400 C 0.31253 0.40556 0.73412 0.0
C1401 C 0.36644 0.41069 0.71614 0.0
C1402 C 0.35099 0.38331 0.7218 0.0
C1403 C 0.30881 0.35309 0.7374 0.0
C1404 C 0.28163 0.35003 0.74601 0.0
C1405 C 0.32417 0.38053 0.73111 0.0
C1406 C 0.27009 0.37492 0.74877 0.0
C1407 C 0.28546 0.40246 0.7431 0.0
H1408 H 0.19777 0.59208 0.20728 0.0
H1409 H 0.15398 0.59722 0.28129 0.0
H1410 H 0.18613 0.64426 0.29873 0.0
H1411 H 0.22061 0.68736 0.28906 0.0
H1412 H 0.26071 0.6859 0.21252 0.0
H1413 H 0.23718 0.63367 0.2003 0.0
C1414 C 0.19592 0.60331 0.22747 0.0
C1415 C 0.17372 0.59175 0.24305 0.0
C1416 C 0.2138 0.63098 0.23681 0.0
C1417 C 0.17104 0.60616 0.26909 0.0
C1418 C 0.18934 0.63296 0.27901 0.0
C1419 C 0.22484 0.67535 0.2701 0.0
C1420 C 0.2419 0.69031 0.25149 0.0
C1421 C 0.20998 0.64614 0.26252 0.0
C1422 C 0.24723 0.6747 0.22693 0.0
C1423 C 0.23368 0.64497 0.21989 0.0
H1424 H 0.5226 0.66511 0.40009 0.0
H1425 H 0.47252 0.68941 0.46492 0.0
H1426 H 0.48833 0.65659 0.49398 0.0
H1427 H 0.51041 0.61598 0.49854 0.0
H1428 H 0.55811 0.58779 0.4338 0.0
H1429 H 0.55006 0.62755 0.40748 0.0
C1430 C 0.51543 0.66332 0.42066 0.0
C1431 C 0.49578 0.67898 0.42998 0.0
C1432 C 0.52427 0.6438 0.43733 0.0
C1433 C 0.48696 0.67688 0.45686 0.0
C1434 C 0.49615 0.65831 0.47366 0.0
C1435 C 0.51973 0.6192 0.47903 0.0
C1436 C 0.53465 0.59927 0.46793 0.0
C1437 C 0.51397 0.64098 0.46375 0.0
C1438 C 0.54674 0.60329 0.44273 0.0
C1439 C 0.54177 0.62568 0.42756 0.0
H1440 H 0.59823 0.29406 0.70681 0.0
H1441 H 0.65392 0.31188 0.64159 0.0
H1442 H 0.69264 0.3056 0.67112 0.0
H1443 H 0.71092 0.2938 0.71471 0.0
H1444 H 0.65786 0.27881 0.78162 0.0
H1445 H 0.61795 0.28532 0.75244 0.0
C1446 C 0.61889 0.29682 0.69921 0.0
C1447 C 0.62296 0.30333 0.67193 0.0
C1448 C 0.64152 0.2934 0.71649 0.0
C1449 C 0.64999 0.30697 0.66246 0.0
C1450 C 0.67226 0.30319 0.67926 0.0
C1451 C 0.69054 0.29153 0.72266 0.0
C1452 C 0.68702 0.28513 0.74976 0.0
C1453 C 0.6682 0.29604 0.70609 0.0
C1454 C 0.66085 0.2835 0.76054 0.0
C1455 C 0.6381 0.28723 0.74389 0.0
H1456 H 0.97143 0.334 0.90924 0.0
H1457 H 0.02739 0.31491 0.9718 0.0
H1458 H 0.02786 0.36193 -0.00036 0.0
H1459 H 0.01042 0.40709 0.0065 0.0
H1460 H 0.95145 0.42372 0.94496 0.0
H1461 H 0.95295 0.37806 0.91673 0.0
C1462 C 0.98433 0.34071 0.92862 0.0
C1463 C 0.00014 0.32203 0.93825 0.0
C1464 C 0.98301 0.36653 0.94501 0.0
C1465 C 0.01589 0.3298 0.96381 0.0
C1466 C 0.0157 0.35626 0.97983 0.0
C1467 C -0.00241 0.40045 0.98709 0.0
C1468 C 0.98082 0.41861 0.9778 0.0
C1469 C -0.00114 0.37446 0.97082 0.0
C1470 C 0.96419 0.40983 0.95274 0.0
C1471 C 0.9654 0.38404 0.93636 0.0
H1472 H 0.98093 0.79653 0.22378 0.0
H1473 H 0.94575 0.76571 0.13998 0.0
H1474 H 0.8987 0.75961 0.15527 0.0
H1475 H 0.8673 0.76325 0.19199 0.0
H1476 H 0.90118 0.79478 0.27582 0.0
H1477 H 0.94893 0.80028 0.26102 0.0
C1478 C 0.96297 0.78844 0.20888 0.0
C1479 C 0.96703 0.78163 0.18072 0.0
C1480 C 0.93571 0.78509 0.21781 0.0
C1481 C 0.94342 0.77119 0.16175 0.0
C1482 C 0.91641 0.76766 0.17046 0.0
C1483 C 0.88513 0.77129 0.20707 0.0
C1484 C 0.88077 0.77857 0.23496 0.0
C1485 C 0.91231 0.77459 0.19837 0.0
C1486 C 0.90405 0.78907 0.25422 0.0
C1487 C 0.93131 0.7922 0.24575 0.0
H1488 H 0.47518 0.32105 0.03235 0.0
H1489 H 0.53746 0.3574 0.10031 0.0
H1490 H 0.54722 0.40499 0.0824 0.0
H1491 H 0.53647 0.4371 0.04931 0.0
H1492 H 0.4739 0.40209 0.98142 0.0
H1493 H 0.46628 0.35309 -0.0028 0.0
C1494 C 0.49103 0.33931 0.04313 0.0
C1495 C 0.50538 0.33556 0.06782 0.0
C1496 C 0.49654 0.3669 0.03274 0.0
C1497 C 0.52597 0.35952 0.08138 0.0
C1498 C 0.53159 0.38684 0.07115 0.0
C1499 C 0.52125 0.4188 0.03774 0.0
C1500 C 0.50563 0.42347 0.01428 0.0
C1501 C 0.51673 0.39088 0.04712 0.0
C1502 C 0.48626 0.39924 -0.00048 0.0
C1503 C 0.48178 0.37122 0.00864 0.0
H1504 H 0.92755 0.26811 0.36677 0.0
H1505 H 0.97412 0.25551 0.29571 0.0
H1506 H 0.94396 0.27913 0.26831 0.0
H1507 H 0.90358 0.30255 0.26516 0.0
H1508 H 0.86147 0.31891 0.33878 0.0
H1509 H 0.89174 0.2956 0.36513 0.0
C1510 C 0.93083 0.26996 0.34511 0.0
C1511 C 0.9523 0.2592 0.33292 0.0
C1512 C 0.91486 0.28505 0.33033 0.0
C1513 C 0.95712 0.26293 0.30522 0.0
C1514 C 0.9402 0.27677 0.28977 0.0
C1515 C 0.90165 0.30177 0.28715 0.0
C1516 C 0.88019 0.31218 0.29998 0.0
C1517 C 0.9191 0.28811 0.30225 0.0
C1518 C 0.87786 0.31111 0.32846 0.0
C1519 C 0.89486 0.29738 0.34345 0.0
H1520 H 0.01453 0.66312 0.61066 0.0
H1521 H 0.97691 0.71007 0.55356 0.0
H1522 H 0.98009 0.67258 0.51532 0.0
H1523 H 0.99368 0.6261 0.49862 0.0
H1524 H 0.03196 0.58116 0.55717 0.0
H1525 H 0.02831 0.61846 0.59458 0.0
C1526 C 0.00681 0.66525 0.58991 0.0
C1527 C 0.99523 0.68922 0.585 0.0
C1528 C 0.00893 0.64402 0.56835 0.0
C1529 C 0.98581 0.69175 0.55787 0.0
C1530 C 0.98764 0.67034 0.53607 0.0
C1531 C 0.00125 0.62463 0.51959 0.0
C1532 C 0.01314 0.60102 0.52519 0.0
C1533 C -0.00082 0.64634 0.54111 0.0
C1534 C 0.02285 0.5992 0.55236 0.0
C1535 C 0.02074 0.62048 0.57376 0.0
H1536 H 0.57629 0.72993 0.79322 0.0
H1537 H 0.62176 0.78233 0.86672 0.0
H1538 H 0.66582 0.7825 0.84644 0.0
H1539 H 0.69161 0.76939 0.8079 0.0
H1540 H 0.64828 0.71715 0.7339 0.0
H1541 H 0.60304 0.7151 0.75426 0.0
C1542 C 0.59585 0.74136 0.80476 0.0
C1543 C 0.59563 0.75628 0.83144 0.0
C1544 C 0.6214 0.74137 0.79292 0.0
C1545 C 0.62119 0.7709 0.84612 0.0
C1546 C 0.64647 0.77095 0.83459 0.0
C1547 C 0.6722 0.75739 0.79632 0.0
C1548 C 0.67296 0.7435 0.7696 0.0
C1549 C 0.64678 0.75647 0.80806 0.0
C1550 C 0.64796 0.7278 0.75467 0.0
C1551 C 0.62223 0.72683 0.76625 0.0
H1552 H 0.47829 0.57323 0.66339 0.0
H1553 H 0.40028 0.52249 0.6217 0.0
H1554 H 0.42168 0.52281 0.57734 0.0
H1555 H 0.46484 0.5296 0.55261 0.0
H1556 H 0.54265 0.58165 0.59399 0.0
H1557 H 0.51919 0.58875 0.63644 0.0
C1558 C 0.46571 0.56339 0.64436 0.0
C1559 C 0.43773 0.54804 0.64569 0.0
C1560 C 0.47837 0.56319 0.61911 0.0
C1561 C 0.42168 0.53489 0.62107 0.0
C1562 C 0.43409 0.53465 0.5958 0.0
C1563 C 0.47649 0.54323 0.57065 0.0
C1564 C 0.50552 0.55481 0.57023 0.0
C1565 C 0.46275 0.5475 0.59486 0.0
C1566 C 0.52035 0.57236 0.59381 0.0
C1567 C 0.50694 0.57637 0.61811 0.0
H1568 H 0.80026 0.19445 0.93906 0.0
H1569 H 0.71598 0.19557 0.95879 0.0
H1570 H 0.71331 0.23003 0.92498 0.0
H1571 H 0.73354 0.25603 0.88682 0.0
H1572 H 0.81752 0.25389 0.86677 0.0
H1573 H 0.82208 0.22431 0.90432 0.0
C1574 C 0.78137 0.20233 0.93597 0.0
C1575 C 0.75824 0.19232 0.95096 0.0
C1576 C 0.78005 0.22215 0.91669 0.0
C1577 C 0.734 0.20296 0.94725 0.0
C1578 C 0.73248 0.22267 0.928 0.0
C1579 C 0.75303 0.24968 0.8912 0.0
C1580 C 0.77503 0.25671 0.87407 0.0
C1581 C 0.75522 0.23201 0.91228 0.0
C1582 C 0.80025 0.24847 0.87974 0.0
C1583 C 0.8028 0.23139 0.90101 0.0
H1584 H 0.03666 0.46432 0.1612 0.0
H1585 H 0.11525 0.48893 0.12474 0.0
H1586 H 0.09043 0.48832 0.07978 0.0
H1587 H 0.04718 0.4933 0.05517 0.0
H1588 H 0.96882 0.47207 0.09243 0.0
H1589 H 0.99248 0.45916 0.13316 0.0
C1590 C 0.04822 0.46797 0.14299 0.0
C1591 C 0.07759 0.47683 0.14604 0.0
C1592 C 0.03381 0.46955 0.11788 0.0
C1593 C 0.0926 0.48181 0.12265 0.0
C1594 C 0.0784 0.48214 0.09715 0.0
C1595 C 0.03537 0.48541 0.072 0.0
C1596 C 0.00666 0.48444 0.07128 0.0
C1597 C 0.04916 0.47818 0.09519 0.0
C1598 C 0.99113 0.47348 0.09285 0.0
C1599 C 0.00462 0.46602 0.11604 0.0
H1600 H 0.78432 0.85166 0.43267 0.0
H1601 H 0.70491 0.79117 0.43773 0.0
H1602 H 0.70614 0.76962 0.3897 0.0
H1603 H 0.73089 0.76717 0.34719 0.0
H1604 H 0.81219 0.82552 0.34381 0.0
H1605 H 0.80965 0.84821 0.39081 0.0
C1606 C 0.767 0.83424 0.42289 0.0
C1607 C 0.74408 0.8236 0.43805 0.0
C1608 C 0.76863 0.82113 0.39602 0.0
C1609 C 0.72226 0.8002 0.42594 0.0
C1610 C 0.72321 0.78769 0.39872 0.0
C1611 C 0.74813 0.78478 0.35675 0.0
C1612 C 0.77166 0.79474 0.34191 0.0
C1613 C 0.7465 0.79775 0.38373 0.0
C1614 C 0.79393 0.81732 0.35476 0.0
C1615 C 0.79237 0.83051 0.38153 0.0
H1616 H 0.40568 0.51501 0.80931 0.0
H1617 H 0.4856 0.56782 0.7925 0.0
H1618 H 0.50597 0.56105 0.83752 0.0
H1619 H 0.50243 0.53513 0.87881 0.0
H1620 H 0.42324 0.48025 0.89519 0.0
H1621 H 0.40123 0.4921 0.85287 0.0
C1622 C 0.42725 0.52593 0.81606 0.0
C1623 C 0.44406 0.54231 0.79795 0.0
C1624 C 0.43915 0.52056 0.84134 0.0
C1625 C 0.47222 0.55558 0.80639 0.0
C1626 C 0.48394 0.5513 0.8319 0.0
C1627 C 0.48036 0.52567 0.87308 0.0
C1628 C 0.46457 0.50639 0.88979 0.0
C1629 C 0.46789 0.53286 0.849 0.0
C1630 C 0.43589 0.49478 0.88241 0.0
C1631 C 0.42329 0.50175 0.85835 0.0
H1632 H 0.76341 0.25102 0.07321 0.0
H1633 H 0.79725 0.17745 0.09219 0.0
H1634 H 0.80971 0.20054 0.13994 0.0
H1635 H 0.80547 0.23842 0.1773 0.0
H1636 H 0.77198 0.31208 0.15851 0.0
H1637 H 0.76451 0.29199 0.10937 0.0
C1638 C 0.77387 0.24022 0.08771 0.0
C1639 C 0.77896 0.21233 0.07938 0.0
C1640 C 0.78056 0.25339 0.11509 0.0
C1641 C 0.79304 0.19887 0.09814 0.0
C1642 C 0.79994 0.21193 0.12547 0.0
C1643 C 0.79683 0.25017 0.16229 0.0
C1644 C 0.78888 0.27636 0.17119 0.0
C1645 C 0.79289 0.23863 0.13433 0.0
C1646 C 0.77814 0.29183 0.15185 0.0
C1647 C 0.77385 0.28031 0.12391 0.0
H1648 H 0.10399 0.52702 0.31317 0.0
H1649 H 0.02313 0.48615 0.27124 0.0
H1650 H 0.00093 0.49059 0.31495 0.0
H1651 H 0.00466 0.50887 0.36459 0.0
H1652 H 0.08518 0.55514 0.40471 0.0
H1653 H 0.10757 0.54645 0.36212 0.0
C1654 C 0.08161 0.51846 0.31391 0.0
C1655 C 0.0651 0.50563 0.2896 0.0
C1656 C 0.06901 0.52279 0.33854 0.0
C1657 C 0.03606 0.49553 0.29013 0.0
C1658 C 0.02344 0.49838 0.31494 0.0
C1659 C 0.02705 0.51716 0.36379 0.0
C1660 C 0.04332 0.53265 0.38742 0.0
C1661 C 0.03966 0.51253 0.33914 0.0
C1662 C 0.07228 0.54346 0.38648 0.0
C1663 C 0.08511 0.53825 0.36228 0.0
H1664 H 0.78997 0.81819 0.59519 0.0
H1665 H 0.71447 0.85022 0.59296 0.0
H1666 H 0.70158 0.82832 0.63563 0.0
H1667 H 0.7117 0.79835 0.67311 0.0
H1668 H 0.78778 0.76734 0.67317 0.0
H1669 H 0.80031 0.79016 0.63149 0.0
C1670 C 0.77063 0.82052 0.60391 0.0
C1671 C 0.75313 0.83571 0.59072 0.0
C1672 C 0.76335 0.80772 0.62797 0.0
C1673 C 0.72837 0.83871 0.60269 0.0
C1674 C 0.72094 0.82602 0.627 0.0
C1675 C 0.73089 0.79661 0.66377 0.0
C1676 C 0.7488 0.78112 0.67595 0.0
C1677 C 0.73816 0.81014 0.6397 0.0
C1678 C 0.77373 0.77911 0.664 0.0
C1679 C 0.78093 0.7922 0.64025 0.0
H1680 H 0.67351 0.4175 0.49614 0.0
H1681 H 0.73562 0.48663 0.54505 0.0
H1682 H 0.70163 0.5172 0.5501 0.0
H1683 H 0.65422 0.52484 0.53928 0.0
H1684 H 0.59299 0.45576 0.48966 0.0
H1685 H 0.62644 0.4244 0.48647 0.0
C1686 C 0.67959 0.43922 0.50796 0.0
C1687 C 0.70701 0.44983 0.52009 0.0
C1688 C 0.66005 0.45665 0.51068 0.0
C1689 C 0.71455 0.47792 0.53556 0.0
C1690 C 0.69517 0.49547 0.5384 0.0
C1691 C 0.64843 0.5029 0.52788 0.0
C1692 C 0.62159 0.49244 0.51451 0.0
C1693 C 0.6679 0.48516 0.52587 0.0
C1694 C 0.61386 0.46408 0.49983 0.0
C1695 C 0.63288 0.44621 0.49803 0.0
H1696 H 0.19381 0.07916 0.4843 0.0
H1697 H 0.1557 0.14565 0.45435 0.0
H1698 H 0.10949 0.1144 0.45676 0.0
H1699 H 0.0794 0.06978 0.46965 0.0
H1700 H 0.11526 0.00122 0.49748 0.0
H1701 H 0.1627 0.03152 0.49367 0.0
C1702 C 0.1754 0.08654 0.47787 0.0
C1703 C 0.17844 0.11497 0.46945 0.0
C1704 C 0.14841 0.06826 0.47926 0.0
C1705 C 0.15422 0.12411 0.46119 0.0
C1706 C 0.12763 0.10627 0.4626 0.0
C1707 C 0.09765 0.06149 0.47491 0.0
C1708 C 0.09406 0.03366 0.48428 0.0
C1709 C 0.12448 0.07865 0.47212 0.0
C1710 C 0.11769 0.02279 0.49045 0.0
C1711 C 0.14472 0.04009 0.48822 0.0
H1712 H 0.24048 0.95707 0.75525 0.0
H1713 H 0.15672 0.91139 0.76962 0.0
H1714 H 0.17013 0.86419 0.76386 0.0
H1715 H 0.20601 0.8356 0.75572 0.0
H1716 H 0.29019 0.88175 0.7434 0.0
H1717 H 0.27621 0.92864 0.74715 0.0
C1718 C 0.22512 0.93681 0.75709 0.0
C1719 C 0.19761 0.93797 0.7629 0.0
C1720 C 0.23304 0.90962 0.75403 0.0
C1721 C 0.17809 0.91135 0.7653 0.0
C1722 C 0.18571 0.88423 0.76192 0.0
C1723 C 0.2212 0.85588 0.75355 0.0
C1724 C 0.24911 0.85502 0.74917 0.0
C1725 C 0.21316 0.88305 0.75635 0.0
C1726 C 0.26859 0.88165 0.74682 0.0
C1727 C 0.26062 0.90857 0.74899 0.0
H1728 H 0.32505 0.97349 0.02572 0.0
H1729 H 0.31096 0.96278 0.93703 0.0
H1730 H 0.35622 -0.00357 0.93341 0.0
H1731 H 0.40421 0.0142 0.95446 0.0
H1732 H 0.4197 0.01911 0.04307 0.0
H1733 H 0.36992 0.00248 0.04787 0.0
C1734 C 0.33137 0.97993 0.0058 0.0
C1735 C 0.31548 0.96552 0.98164 0.0
C1736 C 0.35831 -0.00294 0.00385 0.0
C1737 C 0.32337 0.97367 0.95581 0.0
C1738 C 0.34941 0.99243 0.95375 0.0
C1739 C 0.39661 0.0122 0.97483 0.0
C1740 C 0.41561 0.01643 -0.00187 0.0
C1741 C 0.36796 0.00186 0.97743 0.0
C1742 C 0.40552 0.01496 0.02459 0.0
C1743 C 0.37699 0.00557 0.02745 0.0
H1744 H 0.86741 0.61642 0.73969 0.0
H1745 H 0.80531 0.55975 0.78176 0.0
H1746 H 0.77021 0.58572 0.76776 0.0
H1747 H 0.75835 0.62767 0.74749 0.0
H1748 H 0.82024 0.6838 0.70497 0.0
H1749 H 0.85413 0.65489 0.7151 0.0
C1750 C 0.84618 0.60969 0.74574 0.0
C1751 C 0.83918 0.58664 0.76229 0.0
C1752 C 0.82603 0.62462 0.73752 0.0
C1753 C 0.81145 0.57786 0.76953 0.0
C1754 C 0.79129 0.59259 0.76142 0.0
C1755 C 0.77902 0.63297 0.73984 0.0
C1756 C 0.78679 0.65764 0.7255 0.0
C1757 C 0.79849 0.61639 0.74593 0.0
C1758 C 0.81365 0.66457 0.71574 0.0
C1759 C 0.83317 0.64827 0.7218 0.0
H1760 H 0.82831 0.58254 0.94017 0.0
H1761 H 0.82445 0.6134 0.02616 0.0
H1762 H 0.8606 0.5883 0.03933 0.0
H1763 H 0.89455 0.5587 0.02641 0.0
H1764 H 0.89758 0.52689 0.94062 0.0
H1765 H 0.86064 0.55111 0.92747 0.0
C1766 C 0.83527 0.5837 0.96181 0.0
C1767 C 0.82363 0.59997 0.98208 0.0
C1768 C 0.85601 0.569 0.96932 0.0
C1769 C 0.83292 0.60105 0.01005 0.0
C1770 C 0.85368 0.58672 0.01764 0.0
C1771 C 0.88691 0.55687 0.00488 0.0
C1772 C 0.89874 0.54096 0.98454 0.0
C1773 C 0.86552 0.57077 -0.00254 0.0
C1774 C 0.88869 0.53882 0.95671 0.0
C1775 C 0.86763 0.55278 0.94915 0.0
H1776 H 0.21746 0.08654 0.7888 0.0
H1777 H 0.1425 0.11186 0.76109 0.0
H1778 H 0.1697 0.16047 0.75474 0.0
H1779 H 0.21469 0.19632 0.75651 0.0
H1780 H 0.28989 0.17317 0.78606 0.0
H1781 H 0.26295 0.12365 0.79206 0.0
C1782 C 0.20717 0.1027 0.78134 0.0
C1783 C 0.17793 0.09534 0.77551 0.0
C1784 C 0.223 0.1312 0.77799 0.0
C1785 C 0.16493 0.11674 0.76597 0.0
C1786 C 0.18047 0.14469 0.76222 0.0
C1787 C 0.22512 0.18046 0.76438 0.0
C1788 C 0.25416 0.18834 0.77078 0.0
C1789 C 0.20948 0.15222 0.76815 0.0
C1790 C 0.26746 0.16762 0.78104 0.0
C1791 C 0.25208 0.13925 0.78441 0.0
H1792 H 0.32849 0.97085 0.25561 0.0
H1793 H 0.38094 0.91709 0.21877 0.0
H1794 H 0.3478 0.87267 0.22741 0.0
H1795 H 0.30727 0.84943 0.24968 0.0
H1796 H 0.25214 0.90044 0.28446 0.0
H1797 H 0.28336 0.94613 0.27273 0.0
C1798 C 0.33227 0.94939 0.24883 0.0
C1799 C 0.35749 0.94733 0.2372 0.0
C1800 C 0.31319 0.92371 0.25417 0.0
C1801 C 0.36191 0.91938 0.22809 0.0
C1802 C 0.34313 0.89392 0.23325 0.0
C1803 C 0.30219 0.87065 0.25474 0.0
C1804 C 0.27829 0.87217 0.26852 0.0
C1805 C 0.31942 0.89598 0.2472 0.0
C1806 C 0.27113 0.89929 0.27454 0.0
C1807 C 0.28873 0.92514 0.26755 0.0
H1808 H 0.54947 0.39588 0.61065 0.0
H1809 H 0.48306 0.32492 0.571 0.0
H1810 H 0.46486 0.35961 0.54499 0.0
H1811 H 0.47414 0.40863 0.52732 0.0
H1812 H 0.54222 0.47824 0.56676 0.0
H1813 H 0.55333 0.44597 0.59951 0.0
C1814 C 0.53042 0.38836 0.59705 0.0
C1815 C 0.51758 0.3583 0.5924 0.0
C1816 C 0.52076 0.40814 0.58183 0.0
C1817 C 0.49301 0.34828 0.57482 0.0
C1818 C 0.48287 0.368 0.55976 0.0
C1819 C 0.49089 0.41667 0.54356 0.0
C1820 C 0.50789 0.4452 0.54449 0.0
C1821 C 0.49748 0.39774 0.56207 0.0
C1822 C 0.52941 0.45592 0.56556 0.0
C1823 C 0.53571 0.43759 0.58426 0.0
H1824 H 0.39257 0.76663 0.35858 0.0
H1825 H 0.42136 0.71883 0.28996 0.0
H1826 H 0.38545 0.73013 0.25852 0.0
H1827 H 0.34479 0.75231 0.25137 0.0
H1828 H 0.32016 0.80443 0.31977 0.0
H1829 H 0.35551 0.79252 0.35079 0.0
C1830 C 0.39093 0.75859 0.33671 0.0
C1831 C 0.40911 0.74142 0.32658 0.0
C1832 C 0.37093 0.76583 0.31893 0.0
C1833 C 0.40739 0.73184 0.29818 0.0
C1834 C 0.38688 0.7383 0.2803 0.0
C1835 C 0.34729 0.76119 0.27305 0.0
C1836 C 0.32919 0.77837 0.28354 0.0
C1837 C 0.36839 0.75509 0.29053 0.0
C1838 C 0.33308 0.79026 0.31147 0.0
C1839 C 0.35345 0.78367 0.32913 0.0
H1840 H 0.02522 0.70347 0.02752 0.0
H1841 H 0.03278 0.68906 0.11326 0.0
H1842 H 0.03554 0.63818 0.0996 0.0
H1843 H 0.03555 0.59782 0.06325 0.0
H1844 H 0.02356 0.61062 0.97768 0.0
H1845 H 0.0237 0.6626 0.99108 0.0
C1846 C 0.02696 0.68894 0.04312 0.0
C1847 C 0.02848 0.69966 0.07126 0.0
C1848 C 0.02857 0.65987 0.03512 0.0
C1849 C 0.03091 0.68092 0.09144 0.0
C1850 C 0.03298 0.65206 0.08367 0.0
C1851 C 0.03379 0.61237 0.04766 0.0
C1852 C 0.03039 0.60117 0.01966 0.0
C1853 C 0.03213 0.64144 0.0556 0.0
C1854 C 0.02696 0.61944 -0.00063 0.0
C1855 C 0.02659 0.64885 0.00703 0.0
H1856 H 0.05482 0.25542 0.78385 0.0
H1857 H 0.08119 0.2434 0.86684 0.0
H1858 H 0.12728 0.24062 0.85229 0.0
H1859 H 0.16056 0.24224 0.81619 0.0
H1860 H 0.13471 0.25479 0.73334 0.0
H1861 H 0.08798 0.25629 0.74751 0.0
C1862 C 0.07063 0.25218 0.79875 0.0
C1863 C 0.06441 0.24958 0.8264 0.0
C1864 C 0.09719 0.25044 0.79021 0.0
C1865 C 0.08524 0.24536 0.8454 0.0
C1866 C 0.11168 0.24374 0.8371 0.0
C1867 C 0.14458 0.24494 0.80117 0.0
C1868 C 0.15101 0.24821 0.77372 0.0
C1869 C 0.11789 0.2462 0.80957 0.0
C1870 C 0.13021 0.25204 0.75456 0.0
C1871 C 0.10353 0.25305 0.76269 0.0
H1872 H 0.49448 0.69639 0.97181 0.0
H1873 H 0.55853 0.6902 0.91558 0.0
H1874 H 0.56226 0.64317 0.93126 0.0
H1875 H 0.54463 0.60206 0.9585 0.0
H1876 H 0.48084 0.60869 0.01455 0.0
H1877 H 0.47931 0.65736 0.0011 0.0
C1878 C 0.50947 0.68496 0.96308 0.0
C1879 C 0.52605 0.69672 0.94235 0.0
C1880 C 0.51128 0.65792 0.97197 0.0
C1881 C 0.54543 0.68159 0.93145 0.0
C1882 C 0.54751 0.65467 0.94034 0.0
C1883 C 0.53077 0.61451 0.96799 0.0
C1884 C 0.51296 0.60228 0.98752 0.0
C1885 C 0.53016 0.64238 0.9602 0.0
C1886 C 0.49484 0.6181 -0.00034 0.0
C1887 C 0.49394 0.64575 0.9919 0.0
H1888 H 0.06559 0.72657 0.70031 0.0
H1889 H 0.0933 0.80818 0.66513 0.0
H1890 H 0.14213 0.80396 0.67156 0.0
H1891 H 0.17638 0.77667 0.68754 0.0
H1892 H 0.14702 0.6949 0.72196 0.0
H1893 H 0.09866 0.69894 0.71426 0.0
C1894 C 0.08224 0.74378 0.69432 0.0
C1895 C 0.07593 0.76799 0.68272 0.0
C1896 C 0.10968 0.74063 0.69717 0.0
C1897 C 0.09774 0.78956 0.67442 0.0
C1898 C 0.12552 0.78697 0.67787 0.0
C1899 C 0.1593 0.75944 0.69276 0.0
C1900 C 0.16503 0.73534 0.7051 0.0
C1901 C 0.13165 0.76241 0.68902 0.0
C1902 C 0.14293 0.71344 0.71227 0.0
C1903 C 0.11541 0.71593 0.70814 0.0
H1904 H 0.9847 0.34864 0.41104 0.0
H1905 H 0.06994 0.35174 0.43919 0.0
H1906 H 0.07485 0.40207 0.4623 0.0
H1907 H 0.05252 0.44221 0.47928 0.0
H1908 H 0.96803 0.43963 0.44909 0.0
H1909 H 0.96502 0.39179 0.4218 0.0
C1910 C 0.00448 0.36051 0.42199 0.0
C1911 C 0.02676 0.34641 0.42407 0.0
C1912 C 0.00706 0.38921 0.43501 0.0
C1913 C 0.05248 0.36214 0.43759 0.0
C1914 C 0.05519 0.39077 0.4509 0.0
C1915 C 0.03365 0.43126 0.46635 0.0
C1916 C 0.01033 0.44389 0.46642 0.0
C1917 C 0.03228 0.40406 0.45052 0.0
C1918 C 0.98612 0.43009 0.44933 0.0
C1919 C 0.98439 0.40277 0.43388 0.0
H1920 H 0.44155 0.30753 0.20095 0.0
H1921 H 0.40362 0.23376 0.14011 0.0
H1922 H 0.35781 0.23227 0.15774 0.0
H1923 H 0.32988 0.24855 0.19322 0.0
H1924 H 0.36615 0.32331 0.25365 0.0
H1925 H 0.41153 0.32819 0.23338 0.0
C1926 C 0.42297 0.29195 0.19106 0.0
C1927 C 0.4255 0.27108 0.1691 0.0
C1928 C 0.39677 0.29103 0.20159 0.0
C1929 C 0.40172 0.25037 0.15667 0.0
C1930 C 0.37571 0.24927 0.16696 0.0
C1931 C 0.34776 0.26588 0.202 0.0
C1932 C 0.34515 0.28501 0.2253 0.0
C1933 C 0.37322 0.26885 0.18993 0.0
C1934 C 0.36803 0.30805 0.23595 0.0
C1935 C 0.39383 0.31086 0.22433 0.0
H1936 H 0.54868 0.46419 0.33375 0.0
H1937 H 0.63017 0.50307 0.37523 0.0
H1938 H 0.61013 0.50142 0.42019 0.0
H1939 H 0.56822 0.49673 0.44641 0.0
H1940 H 0.48685 0.45649 0.40531 0.0
H1941 H 0.50795 0.45034 0.36134 0.0
C1942 C 0.56213 0.47114 0.35275 0.0
C1943 C 0.59077 0.48362 0.3514 0.0
C1944 C 0.55038 0.47041 0.37841 0.0
C1945 C 0.60812 0.49295 0.37594 0.0
C1946 C 0.59659 0.4924 0.40158 0.0
C1947 C 0.55525 0.48608 0.42799 0.0
C1948 C 0.52608 0.47767 0.42901 0.0
C1949 C 0.56757 0.48242 0.40291 0.0
C1950 C 0.5094 0.46344 0.40501 0.0
C1951 C 0.52143 0.45998 0.37985 0.0
H1952 H 0.23985 0.85737 0.07633 0.0
H1953 H 0.3186 0.83633 0.05841 0.0
H1954 H 0.31926 0.81299 0.10074 0.0
H1955 H 0.29832 0.80015 0.14384 0.0
H1956 H 0.22003 0.82135 0.16201 0.0
H1957 H 0.21818 0.84311 0.11859 0.0
C1958 C 0.25711 0.84765 0.08168 0.0
C1959 C 0.27922 0.84883 0.06444 0.0
C1960 C 0.25739 0.83427 0.10603 0.0
C1961 C 0.30147 0.83607 0.07157 0.0
C1962 C 0.30185 0.8226 0.09569 0.0
C1963 C 0.28078 0.80925 0.13793 0.0
C1964 C 0.25904 0.8088 0.15533 0.0
C1965 C 0.28006 0.82181 0.11317 0.0
C1966 C 0.23646 0.82081 0.14814 0.0
C1967 C 0.2356 0.83349 0.12359 0.0
H1968 H 0.92755 0.53547 0.86181 0.0
H1969 H -0.00071 0.60026 0.84331 0.0
H1970 H 0.02429 0.59583 0.887 0.0
H1971 H 0.02862 0.56576 0.92543 0.0
H1972 H 0.95976 0.49287 0.93553 0.0
H1973 H 0.9309 0.5074 0.90015 0.0
C1974 C 0.94816 0.54963 0.86812 0.0
C1975 C 0.96148 0.56848 0.84992 0.0
C1976 C 0.9633 0.54438 0.8913 0.0
C1977 C 0.98849 0.58612 0.85753 0.0
C1978 C 0.00298 0.58297 0.8821 0.0
C1979 C 0.00726 0.55329 0.91985 0.0
C1980 C 0.996 0.52877 0.93345 0.0
C1981 C 0.99118 0.56083 0.89826 0.0
C1982 C 0.96848 0.51245 0.92595 0.0
C1983 C 0.952 0.52064 0.90563 0.0
H1984 H 0.2327 0.22842 0.56774 0.0
H1985 H 0.30425 0.18974 0.57202 0.0
H1986 H 0.3088 0.20119 0.62255 0.0
H1987 H 0.292 0.22184 0.66538 0.0
H1988 H 0.21855 0.25729 0.6606 0.0
H1989 H 0.21506 0.24724 0.61011 0.0
C1990 C 0.24949 0.22265 0.57962 0.0
C1991 C 0.2683 0.20847 0.56607 0.0
C1992 C 0.25144 0.2285 0.60852 0.0
C1993 C 0.2896 0.20078 0.58191 0.0
C1994 C 0.29214 0.20725 0.61078 0.0
C1995 C 0.27518 0.22724 0.65323 0.0
C1996 C 0.25553 0.24027 0.66659 0.0
C1997 C 0.27308 0.22097 0.62428 0.0
C1998 C 0.23371 0.24697 0.65075 0.0
C1999 C 0.23184 0.24142 0.62192 0.0
H2000 H 0.56274 0.53042 0.21054 0.0
H2001 H 0.62054 0.47705 0.18704 0.0
H2002 H 0.6098 0.48144 0.13812 0.0
H2003 H 0.58575 0.5032 0.10234 0.0
H2004 H 0.53101 0.55943 0.12791 0.0
H2005 H 0.53949 0.55182 0.17593 0.0
C2006 C 0.57299 0.51952 0.19482 0.0
C2007 C 0.59263 0.50364 0.20255 0.0
C2008 C 0.56772 0.52326 0.16713 0.0
C2009 C 0.6053 0.48938 0.18172 0.0
C2010 C 0.59939 0.49218 0.15377 0.0
C2011 C 0.57605 0.51408 0.11853 0.0
C2012 C 0.55802 0.53212 0.11164 0.0
C2013 C 0.58112 0.50969 0.1463 0.0
C2014 C 0.54528 0.54581 0.13271 0.0
C2015 C 0.54988 0.54123 0.16015 0.0
H2016 H 0.2574 0.792 0.92648 0.0
H2017 H 0.23527 0.87075 0.90368 0.0
H2018 H 0.23581 0.85321 0.85467 0.0
H2019 H 0.24673 0.81742 0.81875 0.0
H2020 H 0.2669 0.7378 0.84149 0.0
H2021 H 0.26374 0.75404 0.89047 0.0
C2022 C 0.25206 0.80493 0.9107 0.0
C2023 C 0.24641 0.83255 0.91846 0.0
C2024 C 0.25292 0.79499 0.88279 0.0
C2025 C 0.23936 0.84921 0.89804 0.0
C2026 C 0.24013 0.83944 0.8701 0.0
C2027 C 0.25067 0.80388 0.83457 0.0
C2028 C 0.25776 0.77696 0.82704 0.0
C2029 C 0.24776 0.81283 0.86234 0.0
C2030 C 0.26194 0.7589 0.84725 0.0
C2031 C 0.25989 0.76803 0.87505 0.0
H2032 H -0.00124 0.52862 0.70609 0.0
H2033 H 0.92427 0.55813 0.68475 0.0
H2034 H 0.93232 0.55099 0.63577 0.0
H2035 H 0.95821 0.53249 0.59922 0.0
H2036 H 0.03307 0.50375 0.62025 0.0
H2037 H 0.02672 0.51365 0.6696 0.0
C2038 C 0.98453 0.53392 0.69073 0.0
C2039 C 0.96082 0.54355 0.69885 0.0
C2040 C 0.98892 0.52915 0.66275 0.0
C2041 C 0.94273 0.55077 0.67891 0.0
C2042 C 0.9471 0.54633 0.65094 0.0
C2043 C 0.97298 0.52822 0.61467 0.0
C2044 C 0.99573 0.51699 0.60651 0.0
C2045 C 0.96962 0.53471 0.64267 0.0
C2046 C 0.01522 0.51211 0.6264 0.0
C2047 C 0.01171 0.51794 0.65445 0.0
H2048 H 0.26116 0.18151 0.38982 0.0
H2049 H 0.31445 0.25763 0.43838 0.0
H2050 H 0.32274 0.28262 0.39678 0.0
H2051 H 0.30886 0.2855 0.34796 0.0
H2052 H 0.25051 0.21139 0.3012 0.0
H2053 H 0.25034 0.18284 0.34024 0.0
C2054 C 0.27537 0.20313 0.39098 0.0
C2055 C 0.28762 0.21761 0.41682 0.0
C2056 C 0.27864 0.21793 0.36727 0.0
C2057 C 0.30525 0.24599 0.41848 0.0
C2058 C 0.3097 0.26036 0.39477 0.0
C2059 C 0.29648 0.26294 0.34622 0.0
C2060 C 0.27976 0.25059 0.32168 0.0
C2061 C 0.29557 0.24702 0.36925 0.0
C2062 C 0.26373 0.22137 0.31975 0.0
C2063 C 0.2635 0.20504 0.34216 0.0
H2064 H 0.3174 0.55307 0.4763 0.0
H2065 H 0.36396 0.63548 0.5216 0.0
H2066 H 0.40593 0.61645 0.52377 0.0
H2067 H 0.4292 0.57713 0.51292 0.0
H2068 H 0.38414 0.49408 0.46806 0.0
H2069 H 0.34124 0.51257 0.46584 0.0
C2070 C 0.33679 0.56678 0.48657 0.0
C2071 C 0.33773 0.59554 0.49877 0.0
C2072 C 0.36082 0.55561 0.48797 0.0
C2073 C 0.36278 0.61316 0.51222 0.0
C2074 C 0.38676 0.60237 0.51345 0.0
C2075 C 0.40999 0.56297 0.50267 0.0
C2076 C 0.40959 0.53442 0.49059 0.0
C2077 C 0.38593 0.5737 0.50145 0.0
C2078 C 0.38469 0.51622 0.47748 0.0
C2079 C 0.36033 0.52679 0.47617 0.0
H2080 H 0.84134 0.95695 0.53037 0.0
H2081 H 0.85859 0.88679 0.47421 0.0
H2082 H 0.90529 0.91637 0.46968 0.0
H2083 H 0.94291 0.95983 0.48504 0.0
H2084 H 0.92743 0.0298 0.54241 0.0
H2085 H 0.87847 0.00297 0.54281 0.0
C2086 C 0.85524 0.94837 0.51691 0.0
C2087 C 0.84662 0.91952 0.50303 0.0
C2088 C 0.8825 0.9654 0.51471 0.0
C2089 C 0.86484 0.90871 0.48555 0.0
C2090 C 0.89158 0.92563 0.48286 0.0
C2091 C 0.92872 0.96942 0.49732 0.0
C2092 C 0.93879 -0.00346 0.51389 0.0
C2093 C 0.90089 0.95364 0.49788 0.0
C2094 C 0.92015 0.00881 0.52958 0.0
C2095 C 0.89219 0.99342 0.5299 0.0
H2096 H 0.8707 0.1307 0.24828 0.0
H2097 H 0.78929 0.07023 0.23619 0.0
H2098 H 0.76686 0.11172 0.23755 0.0
H2099 H 0.77029 0.16547 0.24073 0.0
H2100 H 0.85174 0.22567 0.2546 0.0
H2101 H 0.87403 0.18419 0.25386 0.0
C2102 C 0.84804 0.12655 0.24602 0.0
C2103 C 0.8318 0.09727 0.24189 0.0
C2104 C 0.8352 0.15057 0.24697 0.0
C2105 C 0.80242 0.09246 0.23927 0.0
C2106 C 0.78952 0.11622 0.23999 0.0
C2107 C 0.7929 0.16947 0.24358 0.0
C2108 C 0.80927 0.19869 0.24754 0.0
C2109 C 0.80568 0.1454 0.24354 0.0
C2110 C 0.83857 0.20346 0.25155 0.0
C2111 C 0.85139 0.17971 0.25109 0.0
H2112 H 0.69143 0.07146 0.97899 0.0
H2113 H 0.68815 0.13625 0.04765 0.0
H2114 H 0.63781 0.11636 0.04834 0.0
H2115 H 0.59521 0.08382 0.02728 0.0
H2116 H 0.59612 0.02095 0.95612 0.0
H2117 H 0.64743 0.03735 0.9579 0.0
C2118 C 0.67955 0.08062 -0.00567 0.0
C2119 C 0.69286 0.10486 0.01342 0.0
C2120 C 0.65054 0.06996 -0.00631 0.0
C2121 C 0.67782 0.11739 0.03298 0.0
C2122 C 0.64924 0.10619 0.03324 0.0
C2123 C 0.60654 0.07336 0.01227 0.0
C2124 C 0.59215 0.05114 0.9917 0.0
C2125 C 0.63542 0.08301 0.01331 0.0
C2126 C 0.60699 0.03825 0.97205 0.0
C2127 C 0.63618 0.04747 0.9732 0.0
H2128 H 0.1592 0.424 0.23751 0.0
H2129 H 0.22027 0.49311 0.28751 0.0
H2130 H 0.25056 0.45885 0.29321 0.0
H2131 H 0.26036 0.4091 0.28182 0.0
H2132 H 0.19869 0.34212 0.22993 0.0
H2133 H 0.16791 0.37554 0.22745 0.0
C2134 C 0.17911 0.43166 0.24971 0.0
C2135 C 0.18758 0.46104 0.26181 0.0
C2136 C 0.19638 0.41215 0.25254 0.0
C2137 C 0.21329 0.47049 0.2779 0.0
C2138 C 0.23065 0.45096 0.2811 0.0
C2139 C 0.2402 0.40207 0.27002 0.0
C2140 C 0.23198 0.37351 0.25567 0.0
C2141 C 0.22256 0.42175 0.26818 0.0
C2142 C 0.20574 0.36431 0.24063 0.0
C2143 C 0.188 0.38331 0.23928 0.0
H2144 H 0.19663 0.44487 0.0272 0.0
H2145 H 0.15334 0.37521 0.96428 0.0
H2146 H 0.1147 0.39923 0.96021 0.0
H2147 H 0.09225 0.4389 0.97502 0.0
H2148 H 0.13329 0.50819 0.03895 0.0
H2149 H 0.17365 0.4856 0.04209 0.0
C2150 C 0.17882 0.43511 0.01249 0.0
C2151 C 0.178 0.40817 -0.0039 0.0
C2152 C 0.15618 0.44894 0.01046 0.0
C2153 C 0.15461 0.39577 0.97727 0.0
C2154 C 0.13242 0.40952 0.97488 0.0
C2155 C 0.11008 0.44921 0.98956 0.0
C2156 C 0.10983 0.47525 0.00663 0.0
C2157 C 0.13286 0.43592 0.99147 0.0
C2158 C 0.13302 0.48817 0.02551 0.0
C2159 C 0.15607 0.47522 0.02731 0.0
H2160 H 0.87368 0.92515 0.23946 0.0
H2161 H 0.81044 0.96909 0.21341 0.0
H2162 H 0.77396 0.92397 0.21637 0.0
H2163 H 0.76037 0.87167 0.22696 0.0
H2164 H 0.82493 0.83078 0.25566 0.0
H2165 H 0.86064 0.87501 0.25079 0.0
C2166 C 0.85194 0.92497 0.23419 0.0
C2167 C 0.84487 0.95042 0.22591 0.0
C2168 C 0.83133 0.89938 0.23639 0.0
C2169 C 0.81649 0.9498 0.21975 0.0
C2170 C 0.79567 0.92398 0.22141 0.0
C2171 C 0.78229 0.87253 0.23194 0.0
C2172 C 0.79008 0.84791 0.24149 0.0
C2173 C 0.80286 0.89857 0.22973 0.0
C2174 C 0.81846 0.84936 0.24824 0.0
C2175 C 0.83889 0.87468 0.24549 0.0
H2176 H 0.69354 0.07709 0.76115 0.0
H2177 H 0.62673 0.09634 0.71089 0.0
H2178 H 0.65428 0.14638 0.70919 0.0
H2179 H 0.69545 0.18546 0.72463 0.0
H2180 H 0.76029 0.16949 0.77958 0.0
H2181 H 0.73571 0.11712 0.77675 0.0
C2182 C 0.68534 0.09226 0.7496 0.0
C2183 C 0.65833 0.08336 0.73616 0.0
C2184 C 0.70086 0.1214 0.74965 0.0
C2185 C 0.6475 0.10301 0.72149 0.0
C2186 C 0.6632 0.13152 0.72048 0.0
C2187 C 0.70437 0.17034 0.73561 0.0
C2188 C 0.72955 0.18083 0.75202 0.0
C2189 C 0.68962 0.14105 0.73486 0.0
C2190 C 0.7408 0.16152 0.76678 0.0
C2191 C 0.72678 0.13175 0.76517 0.0
loop_
_geom_bond_atom_site_label_1
_geom_bond_atom_site_label_2
_geom_bond_distance
_geom_bond_site_symmetry_2
_ccdc_geom_bond_type
Zn0 O3 2.031 1_655 S
Zn0 O5 2.049 . S
Zn0 O10 2.067 . S
Zn1 O2 1.962 . S
Zn1 O4 1.986 . S
Zn1 O6 1.996 . S
Zn1 O9 1.943 . S
O2 Zn1 1.962 . S
O2 C7 1.254 . S
O3 Zn0 2.031 1_455 S
O3 C7 1.272 . S
O4 Zn1 1.986 . S
O4 C11 1.262 . S
O5 Zn0 2.049 . S
O5 C13 1.260 1_655 S
O6 Zn1 1.996 . S
O6 C13 1.257 . S
C7 O2 1.254 . S
C7 O3 1.272 . S
C8 O9 1.249 1_655 S
C8 O10 1.270 . S
O9 Zn1 1.943 . S
O9 C8 1.249 1_455 S
O10 Zn0 2.067 . S
O10 C8 1.270 . S
C11 O4 1.262 . S
C11 O12 1.232 . S
O12 C11 1.232 . S
C13 O5 1.260 1_455 S
C13 O6 1.257 . S
Zn14 O17 2.031 1_455 S
Zn14 O19 2.049 . S
Zn14 O24 2.067 . S
Zn15 O16 1.962 1_455 S
Zn15 O18 1.986 . S
Zn15 O20 1.996 . S
Zn15 O23 1.943 . S
O16 Zn15 1.962 1_655 S
O16 C21 1.254 . S
O17 Zn14 2.031 1_655 S
O17 C21 1.269 . S
O18 Zn15 1.986 . S
O18 C25 1.262 . S
O19 Zn14 2.049 . S
O19 C27 1.260 . S
O20 Zn15 1.996 . S
O20 C27 1.257 . S
C21 O16 1.254 . S
C21 O17 1.269 . S
C22 O23 1.249 . S
C22 O24 1.270 . S
O23 Zn15 1.943 . S
O23 C22 1.249 . S
O24 Zn14 2.067 . S
O24 C22 1.270 . S
C25 O18 1.262 . S
C25 O26 1.232 1_455 S
O26 C25 1.232 1_655 S
C27 O19 1.260 . S
C27 O20 1.257 . S
Zn28 O31 2.031 . S
Zn28 O33 2.049 . S
Zn28 O38 2.067 . S
Zn29 O30 1.962 . S
Zn29 O32 1.986 . S
Zn29 O34 1.996 . S
Zn29 O37 1.943 . S
O30 Zn29 1.962 . S
O30 C35 1.254 . S
O31 Zn28 2.031 . S
O31 C35 1.269 . S
O32 Zn29 1.986 . S
O32 C39 1.262 . S
O33 Zn28 2.049 . S
O33 C41 1.260 . S
O34 Zn29 1.996 . S
O34 C41 1.257 . S
C35 O30 1.254 . S
C35 O31 1.269 . S
C36 O37 1.249 . S
C36 O38 1.270 . S
O37 Zn29 1.943 . S
O37 C36 1.249 . S
O38 Zn28 2.067 . S
O38 C36 1.270 . S
C39 O32 1.262 . S
C39 O40 1.232 . S
O40 C39 1.232 . S
C41 O33 1.260 . S
C41 O34 1.257 . S
Zn42 O45 2.031 . S
Zn42 O47 2.049 . S
Zn42 O52 2.067 . S
Zn43 O44 1.962 . S
Zn43 O46 1.986 . S
Zn43 O48 1.996 . S
Zn43 O51 1.943 . S
O44 Zn43 1.962 . S
O44 C49 1.254 . S
O45 Zn42 2.031 . S
O45 C49 1.269 . S
O46 Zn43 1.986 . S
O46 C53 1.262 . S
O47 Zn42 2.049 . S
O47 C55 1.260 . S
O48 Zn43 1.996 . S
O48 C55 1.257 . S
C49 O44 1.254 . S
C49 O45 1.269 . S
C50 O51 1.249 . S
C50 O52 1.270 . S
O51 Zn43 1.943 . S
O51 C50 1.249 . S
O52 Zn42 2.067 . S
O52 C50 1.270 . S
C53 O46 1.262 . S
C53 O54 1.232 . S
O54 C53 1.232 . S
C55 O47 1.260 . S
C55 O48 1.257 . S
Zn56 O59 2.031 . S
Zn56 O61 2.049 . S
Zn56 O66 2.067 . S
Zn57 O58 1.962 . S
Zn57 O60 1.986 1_455 S
Zn57 O62 1.996 . S
Zn57 O65 1.943 . S
O58 Zn57 1.962 . S
O58 C63 1.254 . S
O59 Zn56 2.031 . S
O59 C63 1.269 . S
O60 Zn57 1.986 1_655 S
O60 C67 1.262 . S
O61 Zn56 2.049 . S
O61 C69 1.260 . S
O62 Zn57 1.996 . S
O62 C69 1.257 . S
C63 O58 1.254 . S
C63 O59 1.269 . S
C64 O65 1.249 . S
C64 O66 1.270 . S
O65 Zn57 1.943 . S
O65 C64 1.249 . S
O66 Zn56 2.067 . S
O66 C64 1.270 . S
C67 O60 1.262 . S
C67 O68 1.232 . S
O68 C67 1.232 . S
C69 O61 1.260 . S
C69 O62 1.257 . S
Zn70 O73 2.031 . S
Zn70 O75 2.049 . S
Zn70 O80 2.067 . S
Zn71 O72 1.962 . S
Zn71 O74 1.986 . S
Zn71 O76 1.996 . S
Zn71 O79 1.943 . S
O72 Zn71 1.962 . S
O72 C77 1.254 . S
O73 Zn70 2.031 . S
O73 C77 1.269 . S
O74 Zn71 1.986 . S
O74 C81 1.262 . S
O75 Zn70 2.049 . S
O75 C83 1.260 . S
O76 Zn71 1.996 . S
O76 C83 1.257 . S
C77 O72 1.254 . S
C77 O73 1.269 . S
C78 O79 1.249 . S
C78 O80 1.270 . S
O79 Zn71 1.943 . S
O79 C78 1.249 . S
O80 Zn70 2.067 . S
O80 C78 1.270 . S
C81 O74 1.262 . S
C81 O82 1.232 . S
O82 C81 1.232 . S
C83 O75 1.260 . S
C83 O76 1.257 . S
Zn84 O87 2.031 . S
Zn84 O89 2.049 . S
Zn84 O94 2.067 . S
Zn85 O86 1.962 . S
Zn85 O88 1.986 . S
Zn85 O90 1.996 . S
Zn85 O93 1.943 . S
O86 Zn85 1.962 . S
O86 C91 1.254 . S
O87 Zn84 2.031 . S
O87 C91 1.269 . S
O88 Zn85 1.986 . S
O88 C95 1.262 . S
O89 Zn84 2.049 . S
O89 C97 1.260 . S
O90 Zn85 1.996 . S
O90 C97 1.257 . S
C91 O86 1.254 . S
C91 O87 1.269 . S
C92 O93 1.249 . S
C92 O94 1.270 . S
O93 Zn85 1.943 . S
O93 C92 1.249 . S
O94 Zn84 2.067 . S
O94 C92 1.270 . S
C95 O88 1.262 . S
C95 O96 1.232 . S
O96 C95 1.232 . S
C97 O89 1.260 . S
C97 O90 1.257 . S
Zn98 O101 2.031 . S
Zn98 O103 2.049 . S
Zn98 O108 2.067 . S
Zn99 O100 1.962 . S
Zn99 O102 1.986 . S
Zn99 O104 1.996 . S
Zn99 O107 1.943 1_455 S
O100 Zn99 1.962 . S
O100 C105 1.258 . S
O101 Zn98 2.031 . S
O101 C105 1.266 1_655 S
O102 Zn99 1.986 . S
O102 C109 1.262 . S
O103 Zn98 2.049 . S
O103 C111 1.260 . S
O104 Zn99 1.996 . S
O104 C111 1.257 1_455 S
C105 O100 1.258 . S
C105 O101 1.266 1_455 S
C106 O107 1.249 . S
C106 O108 1.270 . S
O107 Zn99 1.943 1_655 S
O107 C106 1.249 . S
O108 Zn98 2.067 . S
O108 C106 1.270 . S
C109 O102 1.262 . S
C109 O110 1.232 . S
O110 C109 1.232 . S
C111 O103 1.260 . S
C111 O104 1.257 1_655 S
Zn112 O115 2.031 . S
Zn112 O117 2.049 . S
Zn112 O122 2.067 . S
Zn113 O114 1.962 . S
Zn113 O116 1.986 . S
Zn113 O118 1.996 . S
Zn113 O121 1.943 1_545 S
O114 Zn113 1.962 . S
O114 C119 1.254 . S
O115 Zn112 2.031 . S
O115 C119 1.269 1_565 S
O116 Zn113 1.986 . S
O116 C123 1.262 . S
O117 Zn112 2.049 . S
O117 C125 1.260 1_565 S
O118 Zn113 1.996 . S
O118 C125 1.257 . S
C119 O114 1.254 . S
C119 O115 1.269 1_545 S
C120 O121 1.249 . S
C120 O122 1.270 . S
O121 Zn113 1.943 1_565 S
O121 C120 1.249 . S
O122 Zn112 2.067 . S
O122 C120 1.270 . S
C123 O116 1.262 . S
C123 O124 1.232 . S
O124 C123 1.232 . S
C125 O117 1.260 1_545 S
C125 O118 1.257 . S
Zn126 O129 2.031 . S
Zn126 O131 2.049 . S
Zn126 O136 2.067 . S
Zn127 O128 1.962 . S
Zn127 O130 1.986 . S
Zn127 O132 1.996 . S
Zn127 O135 1.943 . S
O128 Zn127 1.962 . S
O128 C133 1.254 . S
O129 Zn126 2.031 . S
O129 C133 1.269 . S
O130 Zn127 1.986 . S
O130 C137 1.262 . S
O131 Zn126 2.049 . S
O131 C139 1.260 . S
O132 Zn127 1.996 . S
O132 C139 1.257 . S
C133 O128 1.254 . S
C133 O129 1.269 . S
C134 O135 1.249 . S
C134 O136 1.270 . S
O135 Zn127 1.943 . S
O135 C134 1.249 . S
O136 Zn126 2.067 . S
O136 C134 1.270 . S
C137 O130 1.262 . S
C137 O138 1.232 . S
O138 C137 1.232 . S
C139 O131 1.260 . S
C139 O132 1.257 . S
Zn140 O143 2.031 . S
Zn140 O145 2.049 . S
Zn140 O150 2.067 . S
Zn141 O142 1.962 . S
Zn141 O144 1.986 . S
Zn141 O146 1.996 . S
Zn141 O149 1.943 1_565 S
O142 Zn141 1.962 . S
O142 C147 1.254 1_565 S
O143 Zn140 2.031 . S
O143 C147 1.269 . S
O144 Zn141 1.986 . S
O144 C151 1.262 . S
O145 Zn140 2.049 . S
O145 C153 1.260 . S
O146 Zn141 1.996 . S
O146 C153 1.257 1_565 S
C147 O142 1.254 1_545 S
C147 O143 1.269 . S
C148 O149 1.249 . S
C148 O150 1.270 . S
O149 Zn141 1.943 1_545 S
O149 C148 1.249 . S
O150 Zn140 2.067 . S
O150 C148 1.270 . S
C151 O144 1.262 . S
C151 O152 1.232 . S
O152 C151 1.232 . S
C153 O145 1.260 . S
C153 O146 1.257 1_545 S
Zn154 O157 2.031 1_554 S
Zn154 O159 2.049 . S
Zn154 O164 2.067 . S
Zn155 O156 1.962 1_554 S
Zn155 O158 1.986 . S
Zn155 O160 1.996 . S
Zn155 O163 1.943 . S
O156 Zn155 1.962 1_556 S
O156 C161 1.254 . S
O157 Zn154 2.031 1_556 S
O157 C161 1.269 . S
O158 Zn155 1.986 . S
O158 C165 1.262 . S
O159 Zn154 2.049 . S
O159 C167 1.260 . S
O160 Zn155 1.996 . S
O160 C167 1.257 . S
C161 O156 1.254 . S
C161 O157 1.269 . S
C162 O163 1.249 . S
C162 O164 1.270 . S
O163 Zn155 1.943 . S
O163 C162 1.249 . S
O164 Zn154 2.067 . S
O164 C162 1.270 . S
C165 O158 1.262 . S
C165 O166 1.232 1_554 S
O166 C165 1.232 1_556 S
C167 O159 1.260 . S
C167 O160 1.257 . S
Zn168 O171 2.031 1_554 S
Zn168 O173 2.049 . S
Zn168 O178 2.067 . S
Zn169 O170 1.962 1_554 S
Zn169 O172 1.986 . S
Zn169 O174 1.996 . S
Zn169 O177 1.943 . S
O170 Zn169 1.962 1_556 S
O170 C175 1.254 . S
O171 Zn168 2.031 1_556 S
O171 C175 1.269 . S
O172 Zn169 1.986 . S
O172 C179 1.262 . S
O173 Zn168 2.049 . S
O173 C181 1.260 . S
O174 Zn169 1.996 . S
O174 C181 1.257 . S
C175 O170 1.254 . S
C175 O171 1.269 . S
C176 O177 1.249 . S
C176 O178 1.270 . S
O177 Zn169 1.943 . S
O177 C176 1.249 . S
O178 Zn168 2.067 . S
O178 C176 1.270 . S
C179 O172 1.262 . S
C179 O180 1.232 1_554 S
O180 C179 1.232 1_556 S
C181 O173 1.260 . S
C181 O174 1.257 . S
Zn182 O185 2.031 1_554 S
Zn182 O187 2.049 . S
Zn182 O192 2.067 . S
Zn183 O184 1.962 1_554 S
Zn183 O186 1.986 . S
Zn183 O188 1.996 . S
Zn183 O191 1.942 . S
O184 Zn183 1.962 1_556 S
O184 C189 1.254 . S
O185 Zn182 2.031 1_556 S
O185 C189 1.269 . S
O186 Zn183 1.986 . S
O186 C193 1.276 . S
O187 Zn182 2.049 . S
O187 C195 1.260 . S
O188 Zn183 1.996 . S
O188 C195 1.257 . S
C189 O184 1.254 . S
C189 O185 1.269 . S
C190 O191 1.250 . S
C190 O192 1.270 . S
O191 Zn183 1.942 . S
O191 C190 1.250 . S
O192 Zn182 2.067 . S
O192 C190 1.270 . S
C193 O186 1.276 . S
C193 O194 1.215 1_554 S
O194 C193 1.215 1_556 S
C195 O187 1.260 . S
C195 O188 1.257 . S
Zn196 O199 2.031 . S
Zn196 O201 2.049 . S
Zn196 O206 2.067 . S
Zn197 O198 1.962 . S
Zn197 O200 1.986 . S
Zn197 O202 1.996 . S
Zn197 O205 1.943 . S
O198 Zn197 1.962 . S
O198 C203 1.254 . S
O199 Zn196 2.031 . S
O199 C203 1.269 . S
O200 Zn197 1.986 . S
O200 C207 1.262 . S
O201 Zn196 2.049 . S
O201 C209 1.260 . S
O202 Zn197 1.996 . S
O202 C209 1.257 . S
C203 O198 1.254 . S
C203 O199 1.269 . S
C204 O205 1.249 . S
C204 O206 1.270 . S
O205 Zn197 1.943 . S
O205 C204 1.249 . S
O206 Zn196 2.067 . S
O206 C204 1.270 . S
C207 O200 1.262 . S
C207 O208 1.232 . S
O208 C207 1.232 . S
C209 O201 1.260 . S
C209 O202 1.257 . S
Zn210 O213 2.031 . S
Zn210 O215 2.049 . S
Zn210 O220 2.067 . S
Zn211 O212 1.962 . S
Zn211 O214 1.986 . S
Zn211 O216 1.996 . S
Zn211 O219 1.943 . S
O212 Zn211 1.962 . S
O212 C217 1.254 . S
O213 Zn210 2.031 . S
O213 C217 1.269 . S
O214 Zn211 1.986 . S
O214 C221 1.262 . S
O215 Zn210 2.049 . S
O215 C223 1.260 . S
O216 Zn211 1.996 . S
O216 C223 1.257 . S
C217 O212 1.254 . S
C217 O213 1.269 . S
C218 O219 1.249 . S
C218 O220 1.270 . S
O219 Zn211 1.943 . S
O219 C218 1.249 . S
O220 Zn210 2.067 . S
O220 C218 1.270 . S
C221 O214 1.262 . S
C221 O222 1.232 . S
O222 C221 1.232 . S
C223 O215 1.260 . S
C223 O216 1.257 . S
Zn224 O227 2.031 . S
Zn224 O229 2.049 . S
Zn224 O234 2.067 1_545 S
Zn225 O226 1.962 . S
Zn225 O228 1.986 . S
Zn225 O230 1.996 . S
Zn225 O233 1.943 . S
O226 Zn225 1.962 . S
O226 C231 1.254 . S
O227 Zn224 2.031 . S
O227 C231 1.269 . S
O228 Zn225 1.986 . S
O228 C235 1.262 . S
O229 Zn224 2.049 . S
O229 C237 1.260 . S
O230 Zn225 1.996 . S
O230 C237 1.257 . S
C231 O226 1.254 . S
C231 O227 1.269 . S
C232 O233 1.249 1_565 S
C232 O234 1.270 . S
O233 Zn225 1.943 . S
O233 C232 1.249 1_545 S
O234 Zn224 2.067 1_565 S
O234 C232 1.270 . S
C235 O228 1.262 . S
C235 O236 1.232 . S
O236 C235 1.232 . S
C237 O229 1.260 . S
C237 O230 1.257 . S
Zn238 O241 2.031 . S
Zn238 O243 2.049 . S
Zn238 O248 2.067 . S
Zn239 O240 1.962 . S
Zn239 O242 1.986 . S
Zn239 O244 1.996 . S
Zn239 O247 1.943 . S
O240 Zn239 1.962 . S
O240 C245 1.254 . S
O241 Zn238 2.031 . S
O241 C245 1.269 . S
O242 Zn239 1.986 . S
O242 C249 1.262 . S
O243 Zn238 2.049 . S
O243 C251 1.260 . S
O244 Zn239 1.996 . S
O244 C251 1.257 . S
C245 O240 1.254 . S
C245 O241 1.269 . S
C246 O247 1.249 . S
C246 O248 1.270 . S
O247 Zn239 1.943 . S
O247 C246 1.249 . S
O248 Zn238 2.067 . S
O248 C246 1.270 . S
C249 O242 1.262 . S
C249 O250 1.232 . S
O250 C249 1.232 . S
C251 O243 1.260 . S
C251 O244 1.257 . S
Zn252 O255 2.031 . S
Zn252 O257 2.049 . S
Zn252 O262 2.067 . S
Zn253 O254 1.962 . S
Zn253 O256 1.986 . S
Zn253 O258 1.996 . S
Zn253 O261 1.943 . S
O254 Zn253 1.962 . S
O254 C259 1.254 . S
O255 Zn252 2.031 . S
O255 C259 1.269 . S
O256 Zn253 1.986 . S
O256 C263 1.262 . S
O257 Zn252 2.049 . S
O257 C265 1.260 . S
O258 Zn253 1.996 . S
O258 C265 1.257 . S
C259 O254 1.254 . S
C259 O255 1.269 . S
C260 O261 1.249 . S
C260 O262 1.270 . S
O261 Zn253 1.943 . S
O261 C260 1.249 . S
O262 Zn252 2.067 . S
O262 C260 1.270 . S
C263 O256 1.262 . S
C263 O264 1.232 . S
O264 C263 1.232 . S
C265 O257 1.260 . S
C265 O258 1.257 . S
Zn266 O269 2.031 . S
Zn266 O271 2.049 . S
Zn266 O276 2.067 . S
Zn267 O268 1.962 . S
Zn267 O270 1.986 1_545 S
Zn267 O272 1.996 . S
Zn267 O275 1.943 . S
O268 Zn267 1.962 . S
O268 C273 1.254 . S
O269 Zn266 2.031 . S
O269 C273 1.269 . S
O270 Zn267 1.986 1_565 S
O270 C277 1.262 . S
O271 Zn266 2.049 . S
O271 C279 1.260 . S
O272 Zn267 1.996 . S
O272 C279 1.257 . S
C273 O268 1.254 . S
C273 O269 1.269 . S
C274 O275 1.249 . S
C274 O276 1.270 . S
O275 Zn267 1.943 . S
O275 C274 1.249 . S
O276 Zn266 2.067 . S
O276 C274 1.270 . S
C277 O270 1.262 . S
C277 O278 1.232 . S
O278 C277 1.232 . S
C279 O271 1.260 . S
C279 O272 1.257 . S
Zn280 O283 2.031 1_554 S
Zn280 O285 2.049 . S
Zn280 O290 2.067 . S
Zn281 O282 1.962 1_554 S
Zn281 O284 1.986 . S
Zn281 O286 1.996 . S
Zn281 O289 1.943 . S
O282 Zn281 1.962 1_556 S
O282 C287 1.254 . S
O283 Zn280 2.031 1_556 S
O283 C287 1.269 . S
O284 Zn281 1.986 . S
O284 C291 1.262 . S
O285 Zn280 2.049 . S
O285 C293 1.260 . S
O286 Zn281 1.996 . S
O286 C293 1.257 . S
C287 O282 1.254 . S
C287 O283 1.269 . S
C288 O289 1.249 . S
C288 O290 1.270 . S
O289 Zn281 1.943 . S
O289 C288 1.249 . S
O290 Zn280 2.067 . S
O290 C288 1.270 . S
C291 O284 1.262 . S
C291 O292 1.232 1_554 S
O292 C291 1.232 1_556 S
C293 O285 1.260 . S
C293 O286 1.257 . S
Zn294 O297 2.031 . S
Zn294 O299 2.049 . S
Zn294 O304 2.067 . S
Zn295 O296 1.962 . S
Zn295 O298 1.986 . S
Zn295 O300 1.996 . S
Zn295 O303 1.943 . S
O296 Zn295 1.962 . S
O296 C301 1.254 . S
O297 Zn294 2.031 . S
O297 C301 1.269 . S
O298 Zn295 1.986 . S
O298 C305 1.262 . S
O299 Zn294 2.049 . S
O299 C307 1.260 . S
O300 Zn295 1.996 . S
O300 C307 1.257 . S
C301 O296 1.254 . S
C301 O297 1.269 . S
C302 O303 1.249 . S
C302 O304 1.270 . S
O303 Zn295 1.943 . S
O303 C302 1.249 . S
O304 Zn294 2.067 . S
O304 C302 1.270 . S
C305 O298 1.262 . S
C305 O306 1.232 . S
O306 C305 1.232 . S
C307 O299 1.260 . S
C307 O300 1.257 . S
Zn308 O311 2.031 . S
Zn308 O313 2.049 . S
Zn308 O318 2.067 . S
Zn309 O310 1.962 . S
Zn309 O312 1.986 . S
Zn309 O314 1.996 . S
Zn309 O317 1.943 . S
O310 Zn309 1.962 . S
O310 C315 1.254 . S
O311 Zn308 2.031 . S
O311 C315 1.269 . S
O312 Zn309 1.986 . S
O312 C319 1.262 . S
O313 Zn308 2.049 . S
O313 C321 1.260 . S
O314 Zn309 1.996 . S
O314 C321 1.257 . S
C315 O310 1.254 . S
C315 O311 1.269 . S
C316 O317 1.249 . S
C316 O318 1.270 . S
O317 Zn309 1.943 . S
O317 C316 1.249 . S
O318 Zn308 2.067 . S
O318 C316 1.270 . S
C319 O312 1.262 . S
C319 O320 1.232 . S
O320 C319 1.232 . S
C321 O313 1.260 . S
C321 O314 1.257 . S
Zn322 O325 2.031 . S
Zn322 O327 2.049 . S
Zn322 O332 2.067 . S
Zn323 O324 1.962 . S
Zn323 O326 1.986 . S
Zn323 O328 1.996 . S
Zn323 O331 1.943 . S
O324 Zn323 1.962 . S
O324 C329 1.254 . S
O325 Zn322 2.031 . S
O325 C329 1.269 . S
O326 Zn323 1.986 . S
O326 C333 1.262 . S
O327 Zn322 2.049 . S
O327 C335 1.260 . S
O328 Zn323 1.996 . S
O328 C335 1.257 . S
C329 O324 1.254 . S
C329 O325 1.269 . S
C330 O331 1.249 . S
C330 O332 1.270 . S
O331 Zn323 1.943 . S
O331 C330 1.249 . S
O332 Zn322 2.067 . S
O332 C330 1.270 . S
C333 O326 1.262 . S
C333 O334 1.232 . S
O334 C333 1.232 . S
C335 O327 1.260 . S
C335 O328 1.257 . S
Dy336 O340 2.398 . S
Dy336 O341 2.491 1_556 S
Dy336 O342 2.403 . S
Dy336 O343 2.664 1_655 S
Dy336 O347 2.326 1_655 S
Dy336 O351 2.310 1_656 S
Dy336 O352 2.351 1_546 S
C337 O348 1.185 . S
C337 O349 1.355 . S
C338 O340 1.185 . S
C338 O341 1.355 1_556 S
Dy339 O343 2.310 1_554 S
Dy339 O346 2.351 . S
Dy339 O348 2.398 . S
Dy339 O349 2.491 . S
Dy339 O350 2.403 . S
Dy339 O351 2.664 . S
Dy339 O353 2.326 1_545 S
O340 Dy336 2.398 . S
O340 C338 1.185 . S
O341 Dy336 2.491 1_554 S
O341 C338 1.355 1_554 S
O342 Dy336 2.403 . S
O342 C344 1.254 1_655 S
O343 Dy336 2.664 1_455 S
O343 Dy339 2.310 1_556 S
O343 C344 1.268 . S
C344 O342 1.254 1_455 S
C344 O343 1.268 . S
C345 O350 1.254 . S
C345 O351 1.268 . S
O346 Dy339 2.351 . S
O346 C354 1.236 1_554 S
O347 Dy336 2.326 1_455 S
O347 C354 1.278 . S
O348 C337 1.185 . S
O348 Dy339 2.398 . S
O349 C337 1.355 . S
O349 Dy339 2.491 . S
O350 Dy339 2.403 . S
O350 C345 1.254 . S
O351 Dy336 2.310 1_454 S
O351 Dy339 2.664 . S
O351 C345 1.268 . S
O352 Dy336 2.351 1_564 S
O352 C355 1.249 1_655 S
O353 Dy339 2.326 1_565 S
O353 C355 1.267 . S
C354 O346 1.236 1_556 S
C354 O347 1.278 . S
C355 O352 1.249 1_455 S
C355 O353 1.267 . S
Dy356 O360 2.398 . S
Dy356 O361 2.491 . S
Dy356 O362 2.403 . S
Dy356 O363 2.664 . S
Dy356 O367 2.326 . S
Dy356 O371 2.310 . S
Dy356 O372 2.351 . S
C357 O368 1.185 . S
C357 O369 1.355 . S
C358 O360 1.185 . S
C358 O361 1.355 . S
Dy359 O363 2.310 . S
Dy359 O366 2.351 . S
Dy359 O368 2.398 . S
Dy359 O369 2.491 . S
Dy359 O370 2.403 . S
Dy359 O371 2.664 . S
Dy359 O373 2.326 . S
O360 Dy356 2.398 . S
O360 C358 1.185 . S
O361 Dy356 2.491 . S
O361 C358 1.355 . S
O362 Dy356 2.403 . S
O362 C364 1.254 . S
O363 Dy356 2.664 . S
O363 Dy359 2.310 . S
O363 C364 1.268 . S
C364 O362 1.254 . S
C364 O363 1.268 . S
C365 O370 1.254 . S
C365 O371 1.268 . S
O366 Dy359 2.351 . S
O366 C374 1.249 . S
O367 Dy356 2.326 . S
O367 C374 1.267 . S
O368 C357 1.185 . S
O368 Dy359 2.398 . S
O369 C357 1.355 . S
O369 Dy359 2.491 . S
O370 Dy359 2.403 . S
O370 C365 1.254 . S
O371 Dy356 2.310 . S
O371 Dy359 2.664 . S
O371 C365 1.268 . S
O372 Dy356 2.351 . S
O372 C375 1.249 . S
O373 Dy359 2.326 . S
O373 C375 1.267 . S
C374 O366 1.249 . S
C374 O367 1.267 . S
C375 O372 1.249 . S
C375 O373 1.267 . S
Dy376 O380 2.398 . S
Dy376 O381 2.491 1_545 S
Dy376 O382 2.403 . S
Dy376 O383 2.664 . S
Dy376 O387 2.326 1_545 S
Dy376 O391 2.310 . S
Dy376 O392 2.351 . S
C377 O388 1.185 . S
C377 O389 1.355 . S
C378 O380 1.185 1_565 S
C378 O381 1.355 . S
Dy379 O383 2.310 . S
Dy379 O386 2.351 1_545 S
Dy379 O388 2.398 . S
Dy379 O389 2.491 . S
Dy379 O390 2.403 . S
Dy379 O391 2.664 . S
Dy379 O393 2.326 . S
O380 Dy376 2.398 . S
O380 C378 1.185 1_545 S
O381 Dy376 2.491 1_565 S
O381 C378 1.355 . S
O382 Dy376 2.403 . S
O382 C384 1.254 . S
O383 Dy376 2.664 . S
O383 Dy379 2.310 . S
O383 C384 1.268 . S
C384 O382 1.254 . S
C384 O383 1.268 . S
C385 O390 1.254 . S
C385 O391 1.268 . S
O386 Dy379 2.351 1_565 S
O386 C394 1.249 . S
O387 Dy376 2.326 1_565 S
O387 C394 1.267 . S
O388 C377 1.185 . S
O388 Dy379 2.398 . S
O389 C377 1.355 . S
O389 Dy379 2.491 . S
O390 Dy379 2.403 . S
O390 C385 1.254 . S
O391 Dy376 2.310 . S
O391 Dy379 2.664 . S
O391 C385 1.268 . S
O392 Dy376 2.351 . S
O392 C395 1.249 . S
O393 Dy379 2.326 . S
O393 C395 1.267 . S
C394 O386 1.249 . S
C394 O387 1.267 . S
C395 O392 1.249 . S
C395 O393 1.267 . S
Dy396 O400 2.398 . S
Dy396 O401 2.491 . S
Dy396 O402 2.403 . S
Dy396 O403 2.664 . S
Dy396 O407 2.326 . S
Dy396 O411 2.310 . S
Dy396 O412 2.351 . S
C397 O408 1.185 . S
C397 O409 1.355 . S
C398 O400 1.185 . S
C398 O401 1.355 . S
Dy399 O403 2.310 . S
Dy399 O406 2.351 . S
Dy399 O408 2.398 . S
Dy399 O409 2.491 . S
Dy399 O410 2.403 . S
Dy399 O411 2.664 . S
Dy399 O413 2.326 . S
O400 Dy396 2.398 . S
O400 C398 1.185 . S
O401 Dy396 2.491 . S
O401 C398 1.355 . S
O402 Dy396 2.403 . S
O402 C404 1.254 . S
O403 Dy396 2.664 . S
O403 Dy399 2.310 . S
O403 C404 1.268 . S
C404 O402 1.254 . S
C404 O403 1.268 . S
C405 O410 1.254 . S
C405 O411 1.268 . S
O406 Dy399 2.351 . S
O406 C414 1.249 . S
O407 Dy396 2.326 . S
O407 C414 1.267 . S
O408 C397 1.185 . S
O408 Dy399 2.398 . S
O409 C397 1.355 . S
O409 Dy399 2.491 . S
O410 Dy399 2.403 . S
O410 C405 1.254 . S
O411 Dy396 2.310 . S
O411 Dy399 2.664 . S
O411 C405 1.268 . S
O412 Dy396 2.351 . S
O412 C415 1.249 . S
O413 Dy399 2.326 . S
O413 C415 1.267 . S
C414 O406 1.249 . S
C414 O407 1.267 . S
C415 O412 1.249 . S
C415 O413 1.267 . S
Dy416 O420 2.398 . S
Dy416 O421 2.491 1_455 S
Dy416 O422 2.403 . S
Dy416 O423 2.664 . S
Dy416 O427 2.326 . S
Dy416 O431 2.310 1_455 S
Dy416 O432 2.351 1_545 S
C417 O428 1.185 . S
C417 O429 1.355 . S
C418 O420 1.185 1_655 S
C418 O421 1.355 . S
Dy419 O423 2.310 . S
Dy419 O426 2.351 . S
Dy419 O428 2.398 . S
Dy419 O429 2.491 . S
Dy419 O430 2.403 1_455 S
Dy419 O431 2.664 1_455 S
Dy419 O433 2.326 1_545 S
O420 Dy416 2.398 . S
O420 C418 1.185 1_455 S
O421 Dy416 2.491 1_655 S
O421 C418 1.355 . S
O422 Dy416 2.403 . S
O422 C424 1.254 . S
O423 Dy416 2.664 . S
O423 Dy419 2.310 . S
O423 C424 1.268 . S
C424 O422 1.254 . S
C424 O423 1.268 . S
C425 O430 1.254 . S
C425 O431 1.268 . S
O426 Dy419 2.351 . S
O426 C434 1.249 . S
O427 Dy416 2.326 . S
O427 C434 1.267 . S
O428 C417 1.185 . S
O428 Dy419 2.398 . S
O429 C417 1.355 . S
O429 Dy419 2.491 . S
O430 Dy419 2.403 1_655 S
O430 C425 1.254 . S
O431 Dy416 2.310 1_655 S
O431 Dy419 2.664 1_655 S
O431 C425 1.268 . S
O432 Dy416 2.351 1_565 S
O432 C435 1.249 . S
O433 Dy419 2.326 1_565 S
O433 C435 1.267 . S
C434 O426 1.249 . S
C434 O427 1.267 . S
C435 O432 1.249 . S
C435 O433 1.267 . S
Dy436 O440 2.398 . S
Dy436 O441 2.491 . S
Dy436 O442 2.403 . S
Dy436 O443 2.664 . S
Dy436 O447 2.326 . S
Dy436 O451 2.310 . S
Dy436 O452 2.351 . S
C437 O448 1.185 . S
C437 O449 1.355 . S
C438 O440 1.185 . S
C438 O441 1.355 . S
Dy439 O443 2.310 . S
Dy439 O446 2.351 . S
Dy439 O448 2.398 . S
Dy439 O449 2.491 . S
Dy439 O450 2.403 . S
Dy439 O451 2.664 . S
Dy439 O453 2.326 . S
O440 Dy436 2.398 . S
O440 C438 1.185 . S
O441 Dy436 2.491 . S
O441 C438 1.355 . S
O442 Dy436 2.403 . S
O442 C444 1.254 . S
O443 Dy436 2.664 . S
O443 Dy439 2.310 . S
O443 C444 1.268 . S
C444 O442 1.254 . S
C444 O443 1.268 . S
C445 O450 1.254 . S
C445 O451 1.268 . S
O446 Dy439 2.351 . S
O446 C454 1.249 . S
O447 Dy436 2.326 . S
O447 C454 1.267 . S
O448 C437 1.185 . S
O448 Dy439 2.398 . S
O449 C437 1.355 . S
O449 Dy439 2.491 . S
O450 Dy439 2.403 . S
O450 C445 1.254 . S
O451 Dy436 2.310 . S
O451 Dy439 2.664 . S
O451 C445 1.268 . S
O452 Dy436 2.351 . S
O452 C455 1.249 . S
O453 Dy439 2.326 . S
O453 C455 1.267 . S
C454 O446 1.249 . S
C454 O447 1.267 . S
C455 O452 1.249 . S
C455 O453 1.267 . S
Dy456 O460 2.398 1_545 S
Dy456 O461 2.491 . S
Dy456 O462 2.403 1_545 S
Dy456 O463 2.664 1_554 S
Dy456 O467 2.326 1_545 S
Dy456 O471 2.310 . S
Dy456 O472 2.351 . S
C457 O468 1.185 . S
C457 O469 1.355 . S
C458 O460 1.185 1_545 S
C458 O461 1.355 . S
Dy459 O463 2.310 . S
Dy459 O466 2.351 . S
Dy459 O468 2.398 . S
Dy459 O469 2.491 . S
Dy459 O470 2.403 . S
Dy459 O471 2.664 1_556 S
Dy459 O473 2.326 . S
O460 Dy456 2.398 1_565 S
O460 C458 1.185 1_565 S
O461 Dy456 2.491 . S
O461 C458 1.355 . S
O462 Dy456 2.403 1_565 S
O462 C464 1.254 1_554 S
O463 Dy456 2.664 1_556 S
O463 Dy459 2.310 . S
O463 C464 1.268 1_545 S
C464 O462 1.254 1_556 S
C464 O463 1.268 1_565 S
C465 O470 1.254 1_554 S
C465 O471 1.268 . S
O466 Dy459 2.351 . S
O466 C474 1.249 1_556 S
O467 Dy456 2.326 1_565 S
O467 C474 1.265 1_565 S
O468 C457 1.185 . S
O468 Dy459 2.398 . S
O469 C457 1.355 . S
O469 Dy459 2.491 . S
O470 Dy459 2.403 . S
O470 C465 1.254 1_556 S
O471 Dy456 2.310 . S
O471 Dy459 2.664 1_554 S
O471 C465 1.268 . S
O472 Dy456 2.351 . S
O472 C475 1.249 . S
O473 Dy459 2.326 . S
O473 C475 1.267 1_556 S
C474 O466 1.249 1_554 S
C474 O467 1.265 1_545 S
C475 O472 1.249 . S
C475 O473 1.267 1_554 S
Dy476 O480 2.398 . S
Dy476 O481 2.491 . S
Dy476 O482 2.403 . S
Dy476 O483 2.664 . S
Dy476 O487 2.326 . S
Dy476 O491 2.310 . S
Dy476 O492 2.351 . S
C477 O488 1.185 . S
C477 O489 1.355 . S
C478 O480 1.185 . S
C478 O481 1.355 . S
Dy479 O483 2.310 . S
Dy479 O486 2.351 . S
Dy479 O488 2.398 . S
Dy479 O489 2.491 . S
Dy479 O490 2.403 . S
Dy479 O491 2.664 . S
Dy479 O493 2.326 . S
O480 Dy476 2.398 . S
O480 C478 1.185 . S
O481 Dy476 2.491 . S
O481 C478 1.355 . S
O482 Dy476 2.403 . S
O482 C484 1.254 . S
O483 Dy476 2.664 . S
O483 Dy479 2.310 . S
O483 C484 1.268 . S
C484 O482 1.254 . S
C484 O483 1.268 . S
C485 O490 1.254 . S
C485 O491 1.268 . S
O486 Dy479 2.351 . S
O486 C494 1.249 . S
O487 Dy476 2.326 . S
O487 C494 1.267 . S
O488 C477 1.185 . S
O488 Dy479 2.398 . S
O489 C477 1.355 . S
O489 Dy479 2.491 . S
O490 Dy479 2.403 . S
O490 C485 1.254 . S
O491 Dy476 2.310 . S
O491 Dy479 2.664 . S
O491 C485 1.268 . S
O492 Dy476 2.351 . S
O492 C495 1.249 . S
O493 Dy479 2.326 . S
O493 C495 1.267 . S
C494 O486 1.249 . S
C494 O487 1.267 . S
C495 O492 1.249 . S
C495 O493 1.267 . S
Dy496 O500 2.398 . S
Dy496 O501 2.491 . S
Dy496 O502 2.403 . S
Dy496 O503 2.664 1_556 S
Dy496 O507 2.326 . S
Dy496 O511 2.323 . S
Dy496 O512 2.351 . S
C497 O508 1.185 . S
C497 O509 1.355 . S
C498 O500 1.185 . S
C498 O501 1.355 . S
Dy499 O503 2.310 . S
Dy499 O506 2.351 . S
Dy499 O508 2.398 . S
Dy499 O509 2.491 . S
Dy499 O510 2.403 . S
Dy499 O511 2.651 1_554 S
Dy499 O513 2.326 . S
O500 Dy496 2.398 . S
O500 C498 1.185 . S
O501 Dy496 2.491 . S
O501 C498 1.355 . S
O502 Dy496 2.403 . S
O502 C504 1.254 . S
O503 Dy496 2.664 1_554 S
O503 Dy499 2.310 . S
O503 C504 1.268 1_554 S
C504 O502 1.254 . S
C504 O503 1.268 1_556 S
C505 O510 1.254 . S
C505 O511 1.255 1_554 S
O506 Dy499 2.351 . S
O506 C514 1.249 1_554 S
O507 Dy496 2.326 . S
O507 C514 1.267 . S
O508 C497 1.185 . S
O508 Dy499 2.398 . S
O509 C497 1.355 . S
O509 Dy499 2.491 . S
O510 Dy499 2.403 . S
O510 C505 1.254 . S
O511 Dy496 2.323 . S
O511 Dy499 2.651 1_556 S
O511 C505 1.255 1_556 S
O512 Dy496 2.351 . S
O512 C515 1.249 1_556 S
O513 Dy499 2.326 . S
O513 C515 1.267 . S
C514 O506 1.249 1_556 S
C514 O507 1.267 . S
C515 O512 1.249 1_554 S
C515 O513 1.267 . S
Dy516 O520 2.398 . S
Dy516 O521 2.491 . S
Dy516 O522 2.403 . S
Dy516 O523 2.664 . S
Dy516 O527 2.326 . S
Dy516 O531 2.310 . S
Dy516 O532 2.351 . S
C517 O528 1.185 . S
C517 O529 1.355 . S
C518 O520 1.185 . S
C518 O521 1.355 . S
Dy519 O523 2.310 . S
Dy519 O526 2.351 . S
Dy519 O528 2.398 . S
Dy519 O529 2.491 . S
Dy519 O530 2.403 . S
Dy519 O531 2.664 . S
Dy519 O533 2.326 . S
O520 Dy516 2.398 . S
O520 C518 1.185 . S
O521 Dy516 2.491 . S
O521 C518 1.355 . S
O522 Dy516 2.403 . S
O522 C524 1.254 . S
O523 Dy516 2.664 . S
O523 Dy519 2.310 . S
O523 C524 1.268 . S
C524 O522 1.254 . S
C524 O523 1.268 . S
C525 O530 1.254 . S
C525 O531 1.268 . S
O526 Dy519 2.351 . S
O526 C534 1.249 . S
O527 Dy516 2.326 . S
O527 C534 1.267 . S
O528 C517 1.185 . S
O528 Dy519 2.398 . S
O529 C517 1.355 . S
O529 Dy519 2.491 . S
O530 Dy519 2.403 . S
O530 C525 1.254 . S
O531 Dy516 2.310 . S
O531 Dy519 2.664 . S
O531 C525 1.268 . S
O532 Dy516 2.351 . S
O532 C535 1.249 . S
O533 Dy519 2.326 . S
O533 C535 1.267 . S
C534 O526 1.249 . S
C534 O527 1.267 . S
C535 O532 1.249 . S
C535 O533 1.267 . S
Dy536 O540 2.398 1_455 S
Dy536 O541 2.491 1_455 S
Dy536 O542 2.403 . S
Dy536 O543 2.664 . S
Dy536 O547 2.326 1_455 S
Dy536 O551 2.310 . S
Dy536 O552 2.351 . S
C537 O548 1.185 . S
C537 O549 1.355 . S
C538 O540 1.185 . S
C538 O541 1.355 . S
Dy539 O543 2.310 . S
Dy539 O546 2.351 1_455 S
Dy539 O548 2.398 . S
Dy539 O549 2.491 . S
Dy539 O550 2.403 . S
Dy539 O551 2.664 . S
Dy539 O553 2.326 . S
O540 Dy536 2.398 1_655 S
O540 C538 1.185 . S
O541 Dy536 2.491 1_655 S
O541 C538 1.355 . S
O542 Dy536 2.403 . S
O542 C544 1.254 . S
O543 Dy536 2.664 . S
O543 Dy539 2.310 . S
O543 C544 1.268 . S
C544 O542 1.254 . S
C544 O543 1.268 . S
C545 O550 1.254 . S
C545 O551 1.268 . S
O546 Dy539 2.351 1_655 S
O546 C554 1.249 . S
O547 Dy536 2.326 1_655 S
O547 C554 1.267 . S
O548 C537 1.185 . S
O548 Dy539 2.398 . S
O549 C537 1.355 . S
O549 Dy539 2.491 . S
O550 Dy539 2.403 . S
O550 C545 1.254 . S
O551 Dy536 2.310 . S
O551 Dy539 2.664 . S
O551 C545 1.268 . S
O552 Dy536 2.351 . S
O552 C555 1.249 . S
O553 Dy539 2.326 . S
O553 C555 1.267 . S
C554 O546 1.249 . S
C554 O547 1.267 . S
C555 O552 1.249 . S
C555 O553 1.267 . S
Dy556 O560 2.398 . S
Dy556 O561 2.491 . S
Dy556 O562 2.403 . S
Dy556 O563 2.664 . S
Dy556 O567 2.326 . S
Dy556 O571 2.310 . S
Dy556 O572 2.351 . S
C557 O568 1.185 . S
C557 O569 1.355 . S
C558 O560 1.185 . S
C558 O561 1.355 . S
Dy559 O563 2.310 . S
Dy559 O566 2.351 . S
Dy559 O568 2.398 . S
Dy559 O569 2.491 . S
Dy559 O570 2.403 . S
Dy559 O571 2.664 . S
Dy559 O573 2.326 . S
O560 Dy556 2.398 . S
O560 C558 1.185 . S
O561 Dy556 2.491 . S
O561 C558 1.355 . S
O562 Dy556 2.403 . S
O562 C564 1.254 . S
O563 Dy556 2.664 . S
O563 Dy559 2.310 . S
O563 C564 1.268 . S
C564 O562 1.254 . S
C564 O563 1.268 . S
C565 O570 1.254 . S
C565 O571 1.268 . S
O566 Dy559 2.351 . S
O566 C574 1.249 . S
O567 Dy556 2.326 . S
O567 C574 1.267 . S
O568 C557 1.185 . S
O568 Dy559 2.398 . S
O569 C557 1.355 . S
O569 Dy559 2.491 . S
O570 Dy559 2.403 . S
O570 C565 1.254 . S
O571 Dy556 2.310 . S
O571 Dy559 2.664 . S
O571 C565 1.268 . S
O572 Dy556 2.351 . S
O572 C575 1.249 . S
O573 Dy559 2.326 . S
O573 C575 1.267 . S
C574 O566 1.249 . S
C574 O567 1.267 . S
C575 O572 1.249 . S
C575 O573 1.267 . S
Dy576 O580 2.398 . S
Dy576 O581 2.491 . S
Dy576 O582 2.403 . S
Dy576 O583 2.664 . S
Dy576 O587 2.326 . S
Dy576 O591 2.310 . S
Dy576 O592 2.351 . S
C577 O588 1.185 . S
C577 O589 1.355 . S
C578 O580 1.185 . S
C578 O581 1.355 . S
Dy579 O583 2.310 . S
Dy579 O586 2.351 . S
Dy579 O588 2.398 . S
Dy579 O589 2.491 . S
Dy579 O590 2.403 . S
Dy579 O591 2.664 . S
Dy579 O593 2.326 . S
O580 Dy576 2.398 . S
O580 C578 1.185 . S
O581 Dy576 2.491 . S
O581 C578 1.355 . S
O582 Dy576 2.403 . S
O582 C584 1.254 . S
O583 Dy576 2.664 . S
O583 Dy579 2.310 . S
O583 C584 1.268 . S
C584 O582 1.254 . S
C584 O583 1.268 . S
C585 O590 1.254 . S
C585 O591 1.268 . S
O586 Dy579 2.351 . S
O586 C594 1.249 . S
O587 Dy576 2.326 . S
O587 C594 1.267 . S
O588 C577 1.185 . S
O588 Dy579 2.398 . S
O589 C577 1.355 . S
O589 Dy579 2.491 . S
O590 Dy579 2.403 . S
O590 C585 1.254 . S
O591 Dy576 2.310 . S
O591 Dy579 2.664 . S
O591 C585 1.268 . S
O592 Dy576 2.351 . S
O592 C595 1.249 . S
O593 Dy579 2.326 . S
O593 C595 1.267 . S
C594 O586 1.249 . S
C594 O587 1.267 . S
C595 O592 1.249 . S
C595 O593 1.267 . S
Dy596 O600 2.398 . S
Dy596 O601 2.491 . S
Dy596 O602 2.403 . S
Dy596 O603 2.664 . S
Dy596 O607 2.326 . S
Dy596 O611 2.310 . S
Dy596 O612 2.351 . S
C597 O608 1.185 . S
C597 O609 1.355 . S
C598 O600 1.185 . S
C598 O601 1.355 . S
Dy599 O603 2.310 . S
Dy599 O606 2.351 . S
Dy599 O608 2.398 . S
Dy599 O609 2.491 . S
Dy599 O610 2.403 . S
Dy599 O611 2.664 . S
Dy599 O613 2.326 . S
O600 Dy596 2.398 . S
O600 C598 1.185 . S
O601 Dy596 2.491 . S
O601 C598 1.355 . S
O602 Dy596 2.403 . S
O602 C604 1.254 . S
O603 Dy596 2.664 . S
O603 Dy599 2.310 . S
O603 C604 1.268 . S
C604 O602 1.254 . S
C604 O603 1.268 . S
C605 O610 1.254 . S
C605 O611 1.268 . S
O606 Dy599 2.351 . S
O606 C614 1.249 . S
O607 Dy596 2.326 . S
O607 C614 1.267 . S
O608 C597 1.185 . S
O608 Dy599 2.398 . S
O609 C597 1.355 . S
O609 Dy599 2.491 . S
O610 Dy599 2.403 . S
O610 C605 1.254 . S
O611 Dy596 2.310 . S
O611 Dy599 2.664 . S
O611 C605 1.268 . S
O612 Dy596 2.351 . S
O612 C615 1.249 . S
O613 Dy599 2.326 . S
O613 C615 1.267 . S
C614 O606 1.249 . S
C614 O607 1.267 . S
C615 O612 1.249 . S
C615 O613 1.267 . S
Dy616 O620 2.398 . S
Dy616 O621 2.491 . S
Dy616 O622 2.403 . S
Dy616 O623 2.664 . S
Dy616 O627 2.326 . S
Dy616 O631 2.310 . S
Dy616 O632 2.351 . S
C617 O628 1.185 . S
C617 O629 1.355 . S
C618 O620 1.185 . S
C618 O621 1.355 . S
Dy619 O623 2.310 . S
Dy619 O626 2.351 . S
Dy619 O628 2.398 . S
Dy619 O629 2.491 . S
Dy619 O630 2.403 . S
Dy619 O631 2.664 . S
Dy619 O633 2.326 . S
O620 Dy616 2.398 . S
O620 C618 1.185 . S
O621 Dy616 2.491 . S
O621 C618 1.355 . S
O622 Dy616 2.403 . S
O622 C624 1.254 . S
O623 Dy616 2.664 . S
O623 Dy619 2.310 . S
O623 C624 1.268 . S
C624 O622 1.254 . S
C624 O623 1.268 . S
C625 O630 1.254 . S
C625 O631 1.268 . S
O626 Dy619 2.351 . S
O626 C634 1.249 . S
O627 Dy616 2.326 . S
O627 C634 1.267 . S
O628 C617 1.185 . S
O628 Dy619 2.398 . S
O629 C617 1.355 . S
O629 Dy619 2.491 . S
O630 Dy619 2.403 . S
O630 C625 1.254 . S
O631 Dy616 2.310 . S
O631 Dy619 2.664 . S
O631 C625 1.268 . S
O632 Dy616 2.351 . S
O632 C635 1.249 . S
O633 Dy619 2.326 . S
O633 C635 1.267 . S
C634 O626 1.249 . S
C634 O627 1.267 . S
C635 O632 1.249 . S
C635 O633 1.267 . S
Dy636 O640 2.397 . S
Dy636 O641 2.492 1_556 S
Dy636 O642 2.401 . S
Dy636 O643 2.640 1_455 S
Dy636 O647 2.326 . S
Dy636 O651 2.312 1_556 S
Dy636 O652 2.352 1_556 S
C637 O648 1.185 . S
C637 O649 1.355 . S
C638 O640 1.185 . S
C638 O641 1.355 1_556 S
Dy639 O643 2.323 1_554 S
Dy639 O646 2.351 . S
Dy639 O648 2.398 . S
Dy639 O649 2.491 . S
Dy639 O650 2.403 . S
Dy639 O651 2.664 1_655 S
Dy639 O653 2.334 . S
O640 Dy636 2.397 . S
O640 C638 1.185 . S
O641 Dy636 2.492 1_554 S
O641 C638 1.355 1_554 S
O642 Dy636 2.401 . S
O642 C644 1.254 . S
O643 Dy636 2.640 1_655 S
O643 Dy639 2.323 1_556 S
O643 C644 1.259 1_655 S
C644 O642 1.254 . S
C644 O643 1.259 1_455 S
C645 O650 1.254 1_455 S
C645 O651 1.268 . S
O646 Dy639 2.351 . S
O646 C654 1.249 1_654 S
O647 Dy636 2.326 . S
O647 C654 1.267 . S
O648 C637 1.185 . S
O648 Dy639 2.398 . S
O649 C637 1.355 . S
O649 Dy639 2.491 . S
O650 Dy639 2.403 . S
O650 C645 1.254 1_655 S
O651 Dy636 2.312 1_554 S
O651 Dy639 2.664 1_455 S
O651 C645 1.268 . S
O652 Dy636 2.352 1_554 S
O652 C655 1.249 . S
O653 Dy639 2.334 . S
O653 C655 1.250 1_655 S
C654 O646 1.249 1_456 S
C654 O647 1.267 . S
C655 O652 1.249 . S
C655 O653 1.250 1_455 S
H656 C662 0.930 . S
H657 C665 0.930 . S
H658 C666 0.930 1_554 S
H659 C667 0.930 1_654 S
H660 C670 0.930 . S
H661 C671 0.930 . S
C662 H656 0.930 . S
C662 C663 1.355 1_455 S
C662 C664 1.415 . S
C663 C662 1.355 1_655 S
C663 C665 1.419 . S
C664 C662 1.415 . S
C664 C669 1.425 . S
C664 C671 1.409 . S
C665 H657 0.930 . S
C665 C663 1.419 . S
C665 C666 1.362 . S
C666 H658 0.930 1_556 S
C666 C665 1.362 . S
C666 C669 1.409 1_655 S
C667 H659 0.930 1_456 S
C667 C668 1.355 . S
C667 C669 1.415 . S
C668 C667 1.355 . S
C668 C670 1.419 . S
C669 C664 1.425 . S
C669 C666 1.409 1_455 S
C669 C667 1.415 . S
C670 H660 0.930 . S
C670 C668 1.419 . S
C670 C671 1.362 . S
C671 H661 0.930 . S
C671 C664 1.409 . S
C671 C670 1.362 . S
H672 C678 0.930 . S
H673 C681 0.930 . S
H674 C682 0.930 . S
H675 C683 0.930 . S
H676 C686 0.930 . S
H677 C687 0.930 . S
C678 H672 0.930 . S
C678 C679 1.355 . S
C678 C680 1.415 . S
C679 C678 1.355 . S
C679 C681 1.419 . S
C680 C678 1.415 . S
C680 C685 1.425 . S
C680 C687 1.409 . S
C681 H673 0.930 . S
C681 C679 1.419 . S
C681 C682 1.362 . S
C682 H674 0.930 . S
C682 C681 1.362 . S
C682 C685 1.409 . S
C683 H675 0.930 . S
C683 C684 1.355 . S
C683 C685 1.415 . S
C684 C683 1.355 . S
C684 C686 1.419 . S
C685 C680 1.425 . S
C685 C682 1.409 . S
C685 C683 1.415 . S
C686 H676 0.930 . S
C686 C684 1.419 . S
C686 C687 1.362 . S
C687 H677 0.930 . S
C687 C680 1.409 . S
C687 C686 1.362 . S
H688 C694 0.930 . S
H689 C697 0.930 . S
H690 C698 0.930 . S
H691 C699 0.930 . S
H692 C702 0.930 . S
H693 C703 0.930 . S
C694 H688 0.930 . S
C694 C695 1.355 . S
C694 C696 1.415 . S
C695 C694 1.355 . S
C695 C697 1.419 . S
C696 C694 1.415 . S
C696 C701 1.425 . S
C696 C703 1.409 . S
C697 H689 0.930 . S
C697 C695 1.419 . S
C697 C698 1.362 . S
C698 H690 0.930 . S
C698 C697 1.362 . S
C698 C701 1.409 . S
C699 H691 0.930 . S
C699 C700 1.355 . S
C699 C701 1.415 . S
C700 C699 1.355 . S
C700 C702 1.419 . S
C701 C696 1.425 . S
C701 C698 1.409 . S
C701 C699 1.415 . S
C702 H692 0.930 . S
C702 C700 1.419 . S
C702 C703 1.362 . S
C703 H693 0.930 . S
C703 C696 1.409 . S
C703 C702 1.362 . S
H704 C710 0.930 . S
H705 C713 0.930 . S
H706 C714 0.930 . S
H707 C715 0.930 . S
H708 C718 0.930 . S
H709 C719 0.930 . S
C710 H704 0.930 . S
C710 C711 1.355 . S
C710 C712 1.415 . S
C711 C710 1.355 . S
C711 C713 1.419 . S
C712 C710 1.415 . S
C712 C717 1.425 . S
C712 C719 1.409 . S
C713 H705 0.930 . S
C713 C711 1.419 . S
C713 C714 1.362 . S
C714 H706 0.930 . S
C714 C713 1.362 . S
C714 C717 1.409 . S
C715 H707 0.930 . S
C715 C716 1.355 . S
C715 C717 1.415 . S
C716 C715 1.355 . S
C716 C718 1.419 . S
C717 C712 1.425 . S
C717 C714 1.409 . S
C717 C715 1.415 . S
C718 H708 0.930 . S
C718 C716 1.419 . S
C718 C719 1.362 . S
C719 H709 0.930 . S
C719 C712 1.409 . S
C719 C718 1.362 . S
H720 C726 0.930 . S
H721 C729 0.930 . S
H722 C730 0.930 . S
H723 C731 0.930 . S
H724 C734 0.930 . S
H725 C735 0.930 . S
C726 H720 0.930 . S
C726 C727 1.355 . S
C726 C728 1.415 . S
C727 C726 1.355 . S
C727 C729 1.419 1_455 S
C728 C726 1.415 . S
C728 C733 1.425 . S
C728 C735 1.409 . S
C729 H721 0.930 . S
C729 C727 1.419 1_655 S
C729 C730 1.362 . S
C730 H722 0.930 . S
C730 C729 1.362 . S
C730 C733 1.409 1_655 S
C731 H723 0.930 . S
C731 C732 1.355 . S
C731 C733 1.415 . S
C732 C731 1.355 . S
C732 C734 1.419 . S
C733 C728 1.425 . S
C733 C730 1.409 1_455 S
C733 C731 1.415 . S
C734 H724 0.930 . S
C734 C732 1.419 . S
C734 C735 1.362 . S
C735 H725 0.930 . S
C735 C728 1.409 . S
C735 C734 1.362 . S
H736 C742 0.930 . S
H737 C745 0.930 . S
H738 C746 0.930 . S
H739 C747 0.930 . S
H740 C750 0.930 . S
H741 C751 0.930 . S
C742 H736 0.930 . S
C742 C743 1.355 . S
C742 C744 1.415 . S
C743 C742 1.355 . S
C743 C745 1.419 . S
C744 C742 1.415 . S
C744 C749 1.425 . S
C744 C751 1.409 . S
C745 H737 0.930 . S
C745 C743 1.419 . S
C745 C746 1.362 . S
C746 H738 0.930 . S
C746 C745 1.362 . S
C746 C749 1.409 . S
C747 H739 0.930 . S
C747 C748 1.355 . S
C747 C749 1.415 . S
C748 C747 1.355 . S
C748 C750 1.419 . S
C749 C744 1.425 . S
C749 C746 1.409 . S
C749 C747 1.415 . S
C750 H740 0.930 . S
C750 C748 1.419 . S
C750 C751 1.362 . S
C751 H741 0.930 . S
C751 C744 1.409 . S
C751 C750 1.362 . S
H752 C758 0.930 . S
H753 C761 0.930 . S
H754 C762 0.930 . S
H755 C763 0.930 . S
H756 C766 0.942 . S
H757 C767 0.930 . S
C758 H752 0.930 . S
C758 C759 1.355 . S
C758 C760 1.415 . S
C759 C758 1.355 . S
C759 C761 1.419 . S
C760 C758 1.415 . S
C760 C765 1.425 . S
C760 C767 1.409 . S
C761 H753 0.930 . S
C761 C759 1.419 . S
C761 C762 1.362 . S
C762 H754 0.930 . S
C762 C761 1.362 . S
C762 C765 1.409 . S
C763 H755 0.930 . S
C763 C764 1.355 . S
C763 C765 1.415 . S
C764 C763 1.355 . S
C764 C766 1.419 . S
C765 C760 1.425 . S
C765 C762 1.409 . S
C765 C763 1.415 . S
C766 H756 0.942 . S
C766 C764 1.419 . S
C766 C767 1.362 . S
C767 H757 0.930 . S
C767 C760 1.409 . S
C767 C766 1.362 . S
H768 C774 0.930 . S
H769 C777 0.930 . S
H770 C778 0.930 . S
H771 C779 0.930 . S
H772 C782 0.930 . S
H773 C783 0.930 . S
C774 H768 0.930 . S
C774 C775 1.355 . S
C774 C776 1.415 . S
C775 C774 1.355 . S
C775 C777 1.419 . S
C776 C774 1.415 . S
C776 C781 1.425 . S
C776 C783 1.409 . S
C777 H769 0.930 . S
C777 C775 1.419 . S
C777 C778 1.362 . S
C778 H770 0.930 . S
C778 C777 1.362 . S
C778 C781 1.409 . S
C779 H771 0.930 . S
C779 C780 1.355 . S
C779 C781 1.415 . S
C780 C779 1.355 . S
C780 C782 1.419 . S
C781 C776 1.425 . S
C781 C778 1.409 . S
C781 C779 1.415 . S
C782 H772 0.930 . S
C782 C780 1.419 . S
C782 C783 1.362 . S
C783 H773 0.930 . S
C783 C776 1.409 . S
C783 C782 1.362 . S
H784 C790 0.930 . S
H785 C793 0.930 . S
H786 C794 0.930 1_455 S
H787 C795 0.930 . S
H788 C798 0.930 . S
H789 C799 0.930 . S
C790 H784 0.930 . S
C790 C791 1.355 . S
C790 C792 1.415 . S
C791 C790 1.355 . S
C791 C793 1.419 . S
C792 C790 1.415 . S
C792 C797 1.425 . S
C792 C799 1.409 . S
C793 H785 0.930 . S
C793 C791 1.419 . S
C793 C794 1.362 . S
C794 H786 0.930 1_655 S
C794 C793 1.362 . S
C794 C797 1.409 . S
C795 H787 0.930 . S
C795 C796 1.355 1_455 S
C795 C797 1.415 1_455 S
C796 C795 1.355 1_655 S
C796 C798 1.419 . S
C797 C792 1.425 . S
C797 C794 1.409 . S
C797 C795 1.415 1_655 S
C798 H788 0.930 . S
C798 C796 1.419 . S
C798 C799 1.362 . S
C799 H789 0.930 . S
C799 C792 1.409 . S
C799 C798 1.362 . S
H800 C806 0.930 . S
H801 C809 0.930 . S
H802 C810 0.930 . S
H803 C811 0.930 . S
H804 C814 0.930 . S
H805 C815 0.930 . S
C806 H800 0.930 . S
C806 C807 1.355 . S
C806 C808 1.415 . S
C807 C806 1.355 . S
C807 C809 1.419 . S
C808 C806 1.415 . S
C808 C813 1.425 . S
C808 C815 1.409 . S
C809 H801 0.930 . S
C809 C807 1.419 . S
C809 C810 1.362 . S
C810 H802 0.930 . S
C810 C809 1.362 . S
C810 C813 1.409 . S
C811 H803 0.930 . S
C811 C812 1.355 . S
C811 C813 1.415 . S
C812 C811 1.355 . S
C812 C814 1.419 . S
C813 C808 1.425 . S
C813 C810 1.409 . S
C813 C811 1.415 . S
C814 H804 0.930 . S
C814 C812 1.419 . S
C814 C815 1.362 . S
C815 H805 0.930 . S
C815 C808 1.409 . S
C815 C814 1.362 . S
H816 C822 0.930 . S
H817 C825 0.930 . S
H818 C826 0.930 . S
H819 C827 0.930 . S
H820 C830 0.930 . S
H821 C831 0.930 . S
C822 H816 0.930 . S
C822 C823 1.355 . S
C822 C824 1.415 . S
C823 C822 1.355 . S
C823 C825 1.419 1_545 S
C824 C822 1.415 . S
C824 C829 1.425 . S
C824 C831 1.409 . S
C825 H817 0.930 . S
C825 C823 1.419 1_565 S
C825 C826 1.362 . S
C826 H818 0.930 . S
C826 C825 1.362 . S
C826 C829 1.409 1_565 S
C827 H819 0.930 . S
C827 C828 1.355 1_565 S
C827 C829 1.415 1_565 S
C828 C827 1.355 1_545 S
C828 C830 1.419 . S
C829 C824 1.425 . S
C829 C826 1.409 1_545 S
C829 C827 1.415 1_545 S
C830 H820 0.930 . S
C830 C828 1.419 . S
C830 C831 1.362 . S
C831 H821 0.930 . S
C831 C824 1.409 . S
C831 C830 1.362 . S
H832 C838 0.930 . S
H833 C841 0.930 . S
H834 C842 0.930 . S
H835 C843 0.930 . S
H836 C846 0.930 . S
H837 C847 0.930 . S
C838 H832 0.930 . S
C838 C839 1.355 . S
C838 C840 1.415 . S
C839 C838 1.355 . S
C839 C841 1.419 . S
C840 C838 1.415 . S
C840 C845 1.425 . S
C840 C847 1.409 . S
C841 H833 0.930 . S
C841 C839 1.419 . S
C841 C842 1.362 . S
C842 H834 0.930 . S
C842 C841 1.362 . S
C842 C845 1.409 . S
C843 H835 0.930 . S
C843 C844 1.355 . S
C843 C845 1.415 . S
C844 C843 1.355 . S
C844 C846 1.419 . S
C845 C840 1.425 . S
C845 C842 1.409 . S
C845 C843 1.415 . S
C846 H836 0.930 . S
C846 C844 1.419 . S
C846 C847 1.362 . S
C847 H837 0.930 . S
C847 C840 1.409 . S
C847 C846 1.362 . S
H848 C854 0.930 . S
H849 C857 0.930 . S
H850 C858 0.930 . S
H851 C859 0.930 1_455 S
H852 C862 0.930 . S
H853 C863 0.930 . S
C854 H848 0.930 . S
C854 C855 1.355 . S
C854 C856 1.415 . S
C855 C854 1.355 . S
C855 C857 1.419 . S
C856 C854 1.415 . S
C856 C861 1.425 . S
C856 C863 1.409 . S
C857 H849 0.930 . S
C857 C855 1.419 . S
C857 C858 1.362 . S
C858 H850 0.930 . S
C858 C857 1.362 . S
C858 C861 1.409 . S
C859 H851 0.930 1_655 S
C859 C860 1.355 . S
C859 C861 1.415 . S
C860 C859 1.355 . S
C860 C862 1.419 . S
C861 C856 1.425 . S
C861 C858 1.409 . S
C861 C859 1.415 . S
C862 H852 0.930 . S
C862 C860 1.419 . S
C862 C863 1.362 . S
C863 H853 0.930 . S
C863 C856 1.409 . S
C863 C862 1.362 . S
H864 C870 0.930 . S
H865 C873 0.930 . S
H866 C874 0.930 . S
H867 C875 0.930 . S
H868 C878 0.930 . S
H869 C879 0.930 . S
C870 H864 0.930 . S
C870 C871 1.355 . S
C870 C872 1.415 . S
C871 C870 1.355 . S
C871 C873 1.419 . S
C872 C870 1.415 . S
C872 C877 1.425 . S
C872 C879 1.409 . S
C873 H865 0.930 . S
C873 C871 1.419 . S
C873 C874 1.362 . S
C874 H866 0.930 . S
C874 C873 1.362 . S
C874 C877 1.409 . S
C875 H867 0.930 . S
C875 C876 1.355 . S
C875 C877 1.415 . S
C876 C875 1.355 . S
C876 C878 1.419 . S
C877 C872 1.425 . S
C877 C874 1.409 . S
C877 C875 1.415 . S
C878 H868 0.930 . S
C878 C876 1.419 . S
C878 C879 1.362 . S
C879 H869 0.930 . S
C879 C872 1.409 . S
C879 C878 1.362 . S
H880 C886 0.930 1_565 S
H881 C889 0.930 . S
H882 C890 0.930 . S
H883 C891 0.930 . S
H884 C894 0.930 . S
H885 C895 0.930 1_565 S
C886 H880 0.930 1_545 S
C886 C887 1.355 . S
C886 C888 1.415 . S
C887 C886 1.355 . S
C887 C889 1.419 . S
C888 C886 1.415 . S
C888 C893 1.425 . S
C888 C895 1.409 . S
C889 H881 0.930 . S
C889 C887 1.419 . S
C889 C890 1.362 . S
C890 H882 0.930 . S
C890 C889 1.362 . S
C890 C893 1.409 . S
C891 H883 0.930 . S
C891 C892 1.355 . S
C891 C893 1.415 . S
C892 C891 1.355 . S
C892 C894 1.419 . S
C893 C888 1.425 . S
C893 C890 1.409 . S
C893 C891 1.415 . S
C894 H884 0.930 . S
C894 C892 1.419 . S
C894 C895 1.362 . S
C895 H885 0.930 1_545 S
C895 C888 1.409 . S
C895 C894 1.362 . S
H896 C902 0.930 . S
H897 C905 0.930 . S
H898 C906 0.930 . S
H899 C907 0.930 . S
H900 C910 0.930 . S
H901 C911 0.930 . S
C902 H896 0.930 . S
C902 C903 1.355 . S
C902 C904 1.415 . S
C903 C902 1.355 . S
C903 C905 1.419 . S
C904 C902 1.415 . S
C904 C909 1.425 . S
C904 C911 1.409 . S
C905 H897 0.930 . S
C905 C903 1.419 . S
C905 C906 1.362 . S
C906 H898 0.930 . S
C906 C905 1.362 . S
C906 C909 1.409 . S
C907 H899 0.930 . S
C907 C908 1.355 . S
C907 C909 1.415 . S
C908 C907 1.355 . S
C908 C910 1.419 . S
C909 C904 1.425 . S
C909 C906 1.409 . S
C909 C907 1.415 . S
C910 H900 0.930 . S
C910 C908 1.419 . S
C910 C911 1.362 . S
C911 H901 0.930 . S
C911 C904 1.409 . S
C911 C910 1.362 . S
H912 C918 0.930 . S
H913 C921 0.930 . S
H914 C922 0.930 . S
H915 C923 0.930 1_545 S
H916 C926 0.930 . S
H917 C927 0.930 . S
C918 H912 0.930 . S
C918 C919 1.355 . S
C918 C920 1.415 . S
C919 C918 1.355 . S
C919 C921 1.419 1_554 S
C920 C918 1.415 . S
C920 C925 1.425 . S
C920 C927 1.409 . S
C921 H913 0.930 . S
C921 C919 1.419 1_556 S
C921 C922 1.362 . S
C922 H914 0.930 . S
C922 C921 1.362 . S
C922 C925 1.409 1_556 S
C923 H915 0.930 1_565 S
C923 C924 1.355 . S
C923 C925 1.415 . S
C924 C923 1.355 . S
C924 C926 1.419 . S
C925 C920 1.425 . S
C925 C922 1.409 1_554 S
C925 C923 1.415 . S
C926 H916 0.930 . S
C926 C924 1.419 . S
C926 C927 1.362 . S
C927 H917 0.930 . S
C927 C920 1.409 . S
C927 C926 1.362 . S
H928 C934 0.930 . S
H929 C937 0.930 . S
H930 C938 0.930 . S
H931 C939 0.930 . S
H932 C942 0.930 . S
H933 C943 0.930 . S
C934 H928 0.930 . S
C934 C935 1.355 1_554 S
C934 C936 1.415 . S
C935 C934 1.355 1_556 S
C935 C937 1.419 . S
C936 C934 1.415 . S
C936 C941 1.425 1_554 S
C936 C943 1.409 . S
C937 H929 0.930 . S
C937 C935 1.419 . S
C937 C938 1.362 . S
C938 H930 0.930 . S
C938 C937 1.362 . S
C938 C941 1.409 . S
C939 H931 0.930 . S
C939 C940 1.348 1_556 S
C939 C941 1.415 . S
C940 C939 1.348 1_554 S
C940 C942 1.424 . S
C941 C936 1.425 1_556 S
C941 C938 1.409 . S
C941 C939 1.415 . S
C942 H932 0.930 . S
C942 C940 1.424 . S
C942 C943 1.362 . S
C943 H933 0.930 . S
C943 C936 1.409 . S
C943 C942 1.362 . S
H944 C950 0.930 . S
H945 C953 0.930 . S
H946 C954 0.930 . S
H947 C955 0.930 . S
H948 C958 0.930 . S
H949 C959 0.930 . S
C950 H944 0.930 . S
C950 C951 1.355 . S
C950 C952 1.415 . S
C951 C950 1.355 . S
C951 C953 1.419 . S
C952 C950 1.415 . S
C952 C957 1.425 . S
C952 C959 1.409 . S
C953 H945 0.930 . S
C953 C951 1.419 . S
C953 C954 1.362 . S
C954 H946 0.930 . S
C954 C953 1.362 . S
C954 C957 1.409 . S
C955 H947 0.930 . S
C955 C956 1.355 . S
C955 C957 1.415 . S
C956 C955 1.355 . S
C956 C958 1.419 . S
C957 C952 1.425 . S
C957 C954 1.409 . S
C957 C955 1.415 . S
C958 H948 0.930 . S
C958 C956 1.419 . S
C958 C959 1.362 . S
C959 H949 0.930 . S
C959 C952 1.409 . S
C959 C958 1.362 . S
H960 C966 0.930 . S
H961 C969 0.930 . S
H962 C970 0.930 . S
H963 C971 0.930 . S
H964 C974 0.930 . S
H965 C975 0.930 . S
C966 H960 0.930 . S
C966 C967 1.355 . S
C966 C968 1.415 . S
C967 C966 1.355 . S
C967 C969 1.419 . S
C968 C966 1.415 . S
C968 C973 1.425 . S
C968 C975 1.409 . S
C969 H961 0.930 . S
C969 C967 1.419 . S
C969 C970 1.362 . S
C970 H962 0.930 . S
C970 C969 1.362 . S
C970 C973 1.409 . S
C971 H963 0.930 . S
C971 C972 1.355 . S
C971 C973 1.415 . S
C972 C971 1.355 . S
C972 C974 1.419 . S
C973 C968 1.425 . S
C973 C970 1.409 . S
C973 C971 1.415 . S
C974 H964 0.930 . S
C974 C972 1.419 . S
C974 C975 1.362 . S
C975 H965 0.930 . S
C975 C968 1.409 . S
C975 C974 1.362 . S
H976 C982 0.930 . S
H977 C985 0.930 . S
H978 C986 0.930 . S
H979 C987 0.930 . S
H980 C990 0.930 . S
H981 C991 0.930 . S
C982 H976 0.930 . S
C982 C983 1.355 . S
C982 C984 1.415 . S
C983 C982 1.355 . S
C983 C985 1.419 . S
C984 C982 1.415 . S
C984 C989 1.425 . S
C984 C991 1.409 . S
C985 H977 0.930 . S
C985 C983 1.419 . S
C985 C986 1.362 . S
C986 H978 0.930 . S
C986 C985 1.362 . S
C986 C989 1.409 . S
C987 H979 0.930 . S
C987 C988 1.355 . S
C987 C989 1.415 . S
C988 C987 1.355 . S
C988 C990 1.419 . S
C989 C984 1.425 . S
C989 C986 1.409 . S
C989 C987 1.415 . S
C990 H980 0.930 . S
C990 C988 1.419 . S
C990 C991 1.362 . S
C991 H981 0.930 . S
C991 C984 1.409 . S
C991 C990 1.362 . S
H992 C998 0.930 . S
H993 C1001 0.930 . S
H994 C1002 0.930 . S
H995 C1003 0.930 . S
H996 C1006 0.930 . S
H997 C1007 0.930 . S
C998 H992 0.930 . S
C998 C999 1.355 . S
C998 C1000 1.415 . S
C999 C998 1.355 . S
C999 C1001 1.419 . S
C1000 C998 1.415 . S
C1000 C1005 1.425 . S
C1000 C1007 1.409 . S
C1001 H993 0.930 . S
C1001 C999 1.419 . S
C1001 C1002 1.362 . S
C1002 H994 0.930 . S
C1002 C1001 1.362 . S
C1002 C1005 1.409 . S
C1003 H995 0.930 . S
C1003 C1004 1.355 . S
C1003 C1005 1.415 . S
C1004 C1003 1.355 . S
C1004 C1006 1.419 . S
C1005 C1000 1.425 . S
C1005 C1002 1.409 . S
C1005 C1003 1.415 . S
C1006 H996 0.930 . S
C1006 C1004 1.419 . S
C1006 C1007 1.362 . S
C1007 H997 0.930 . S
C1007 C1000 1.409 . S
C1007 C1006 1.362 . S
H1008 C1014 0.930 . S
H1009 C1017 0.930 . S
H1010 C1018 0.930 . S
H1011 C1019 0.930 . S
H1012 C1022 0.930 . S
H1013 C1023 0.930 . S
C1014 H1008 0.930 . S
C1014 C1015 1.355 . S
C1014 C1016 1.415 . S
C1015 C1014 1.355 . S
C1015 C1017 1.419 . S
C1016 C1014 1.415 . S
C1016 C1021 1.425 . S
C1016 C1023 1.409 . S
C1017 H1009 0.930 . S
C1017 C1015 1.419 . S
C1017 C1018 1.362 . S
C1018 H1010 0.930 . S
C1018 C1017 1.362 . S
C1018 C1021 1.409 . S
C1019 H1011 0.930 . S
C1019 C1020 1.355 . S
C1019 C1021 1.415 . S
C1020 C1019 1.355 . S
C1020 C1022 1.419 . S
C1021 C1016 1.425 . S
C1021 C1018 1.409 . S
C1021 C1019 1.415 . S
C1022 H1012 0.930 . S
C1022 C1020 1.419 . S
C1022 C1023 1.362 . S
C1023 H1013 0.930 . S
C1023 C1016 1.409 . S
C1023 C1022 1.362 . S
H1024 C1030 0.930 . S
H1025 C1033 0.930 . S
H1026 C1034 0.930 . S
H1027 C1035 0.930 . S
H1028 C1038 0.930 . S
H1029 C1039 0.930 . S
C1030 H1024 0.930 . S
C1030 C1031 1.355 . S
C1030 C1032 1.415 . S
C1031 C1030 1.355 . S
C1031 C1033 1.419 . S
C1032 C1030 1.415 . S
C1032 C1037 1.425 . S
C1032 C1039 1.409 . S
C1033 H1025 0.930 . S
C1033 C1031 1.419 . S
C1033 C1034 1.362 . S
C1034 H1026 0.930 . S
C1034 C1033 1.362 . S
C1034 C1037 1.409 . S
C1035 H1027 0.930 . S
C1035 C1036 1.355 . S
C1035 C1037 1.415 . S
C1036 C1035 1.355 . S
C1036 C1038 1.419 . S
C1037 C1032 1.425 . S
C1037 C1034 1.409 . S
C1037 C1035 1.415 . S
C1038 H1028 0.930 . S
C1038 C1036 1.419 . S
C1038 C1039 1.362 . S
C1039 H1029 0.930 . S
C1039 C1032 1.409 . S
C1039 C1038 1.362 . S
H1040 C1046 0.930 . S
H1041 C1049 0.930 . S
H1042 C1050 0.930 . S
H1043 C1051 0.930 . S
H1044 C1054 0.930 . S
H1045 C1055 0.930 . S
C1046 H1040 0.930 . S
C1046 C1047 1.355 . S
C1046 C1048 1.415 . S
C1047 C1046 1.355 . S
C1047 C1049 1.419 . S
C1048 C1046 1.415 . S
C1048 C1053 1.425 . S
C1048 C1055 1.409 1_455 S
C1049 H1041 0.930 . S
C1049 C1047 1.419 . S
C1049 C1050 1.362 . S
C1050 H1042 0.930 . S
C1050 C1049 1.362 . S
C1050 C1053 1.409 . S
C1051 H1043 0.930 . S
C1051 C1052 1.355 . S
C1051 C1053 1.415 . S
C1052 C1051 1.355 . S
C1052 C1054 1.419 1_455 S
C1053 C1048 1.425 . S
C1053 C1050 1.409 . S
C1053 C1051 1.415 . S
C1054 H1044 0.930 . S
C1054 C1052 1.419 1_655 S
C1054 C1055 1.362 . S
C1055 H1045 0.930 . S
C1055 C1048 1.409 1_655 S
C1055 C1054 1.362 . S
H1056 C1062 0.930 . S
H1057 C1065 0.930 . S
H1058 C1066 0.930 . S
H1059 C1067 0.930 . S
H1060 C1070 0.930 . S
H1061 C1071 0.930 . S
C1062 H1056 0.930 . S
C1062 C1063 1.355 . S
C1062 C1064 1.415 . S
C1063 C1062 1.355 . S
C1063 C1065 1.419 . S
C1064 C1062 1.415 . S
C1064 C1069 1.425 . S
C1064 C1071 1.409 . S
C1065 H1057 0.930 . S
C1065 C1063 1.419 . S
C1065 C1066 1.362 . S
C1066 H1058 0.930 . S
C1066 C1065 1.362 . S
C1066 C1069 1.409 . S
C1067 H1059 0.930 . S
C1067 C1068 1.355 . S
C1067 C1069 1.415 . S
C1068 C1067 1.355 . S
C1068 C1070 1.419 . S
C1069 C1064 1.425 . S
C1069 C1066 1.409 . S
C1069 C1067 1.415 . S
C1070 H1060 0.930 . S
C1070 C1068 1.419 . S
C1070 C1071 1.362 . S
C1071 H1061 0.930 . S
C1071 C1064 1.409 . S
C1071 C1070 1.362 . S
H1072 C1078 0.930 . S
H1073 C1081 0.930 . S
H1074 C1082 0.930 . S
H1075 C1083 0.930 . S
H1076 C1086 0.930 . S
H1077 C1087 0.930 . S
C1078 H1072 0.930 . S
C1078 C1079 1.355 . S
C1078 C1080 1.415 . S
C1079 C1078 1.355 . S
C1079 C1081 1.419 . S
C1080 C1078 1.415 . S
C1080 C1085 1.425 . S
C1080 C1087 1.409 . S
C1081 H1073 0.930 . S
C1081 C1079 1.419 . S
C1081 C1082 1.362 . S
C1082 H1074 0.930 . S
C1082 C1081 1.362 . S
C1082 C1085 1.409 . S
C1083 H1075 0.930 . S
C1083 C1084 1.355 . S
C1083 C1085 1.415 . S
C1084 C1083 1.355 . S
C1084 C1086 1.419 . S
C1085 C1080 1.425 . S
C1085 C1082 1.409 . S
C1085 C1083 1.415 . S
C1086 H1076 0.930 . S
C1086 C1084 1.419 . S
C1086 C1087 1.362 . S
C1087 H1077 0.930 . S
C1087 C1080 1.409 . S
C1087 C1086 1.362 . S
H1088 C1094 0.930 . S
H1089 C1097 0.930 . S
H1090 C1098 0.930 . S
H1091 C1099 0.930 . S
H1092 C1102 0.930 . S
H1093 C1103 0.930 . S
C1094 H1088 0.930 . S
C1094 C1095 1.355 . S
C1094 C1096 1.415 . S
C1095 C1094 1.355 . S
C1095 C1097 1.419 . S
C1096 C1094 1.415 . S
C1096 C1101 1.425 . S
C1096 C1103 1.409 . S
C1097 H1089 0.930 . S
C1097 C1095 1.419 . S
C1097 C1098 1.362 . S
C1098 H1090 0.930 . S
C1098 C1097 1.362 . S
C1098 C1101 1.409 . S
C1099 H1091 0.930 . S
C1099 C1100 1.355 . S
C1099 C1101 1.415 . S
C1100 C1099 1.355 . S
C1100 C1102 1.419 . S
C1101 C1096 1.425 . S
C1101 C1098 1.409 . S
C1101 C1099 1.415 . S
C1102 H1092 0.930 . S
C1102 C1100 1.419 . S
C1102 C1103 1.362 . S
C1103 H1093 0.930 . S
C1103 C1096 1.409 . S
C1103 C1102 1.362 . S
H1104 C1110 0.930 . S
H1105 C1113 0.930 . S
H1106 C1114 0.930 . S
H1107 C1115 0.930 . S
H1108 C1118 0.930 . S
H1109 C1119 0.930 . S
C1110 H1104 0.930 . S
C1110 C1111 1.355 . S
C1110 C1112 1.415 . S
C1111 C1110 1.355 . S
C1111 C1113 1.419 1_455 S
C1112 C1110 1.415 . S
C1112 C1117 1.404 1_455 S
C1112 C1119 1.409 . S
C1113 H1105 0.930 . S
C1113 C1111 1.419 1_655 S
C1113 C1114 1.362 . S
C1114 H1106 0.930 . S
C1114 C1113 1.362 . S
C1114 C1117 1.428 . S
C1115 H1107 0.930 . S
C1115 C1116 1.355 1_655 S
C1115 C1117 1.417 . S
C1116 C1115 1.355 1_455 S
C1116 C1118 1.419 . S
C1117 C1112 1.404 1_655 S
C1117 C1114 1.428 . S
C1117 C1115 1.417 . S
C1118 H1108 0.930 . S
C1118 C1116 1.419 . S
C1118 C1119 1.362 . S
C1119 H1109 0.930 . S
C1119 C1112 1.409 . S
C1119 C1118 1.362 . S
H1120 C1126 0.930 . S
H1121 C1129 0.930 . S
H1122 C1130 0.930 . S
H1123 C1131 0.930 . S
H1124 C1134 0.930 . S
H1125 C1135 0.930 . S
C1126 H1120 0.930 . S
C1126 C1127 1.355 . S
C1126 C1128 1.415 . S
C1127 C1126 1.355 . S
C1127 C1129 1.419 . S
C1128 C1126 1.415 . S
C1128 C1133 1.425 . S
C1128 C1135 1.409 . S
C1129 H1121 0.930 . S
C1129 C1127 1.419 . S
C1129 C1130 1.362 . S
C1130 H1122 0.930 . S
C1130 C1129 1.362 . S
C1130 C1133 1.409 . S
C1131 H1123 0.930 . S
C1131 C1132 1.355 . S
C1131 C1133 1.415 . S
C1132 C1131 1.355 . S
C1132 C1134 1.419 . S
C1133 C1128 1.425 . S
C1133 C1130 1.409 . S
C1133 C1131 1.415 . S
C1134 H1124 0.930 . S
C1134 C1132 1.419 . S
C1134 C1135 1.362 . S
C1135 H1125 0.930 . S
C1135 C1128 1.409 . S
C1135 C1134 1.362 . S
H1136 C1142 0.930 . S
H1137 C1145 0.930 . S
H1138 C1146 0.930 . S
H1139 C1147 0.930 1_554 S
H1140 C1150 0.930 . S
H1141 C1151 0.930 . S
C1142 H1136 0.930 . S
C1142 C1143 1.355 . S
C1142 C1144 1.415 . S
C1143 C1142 1.355 . S
C1143 C1145 1.419 . S
C1144 C1142 1.415 . S
C1144 C1149 1.425 . S
C1144 C1151 1.409 . S
C1145 H1137 0.930 . S
C1145 C1143 1.419 . S
C1145 C1146 1.362 . S
C1146 H1138 0.930 . S
C1146 C1145 1.362 . S
C1146 C1149 1.409 . S
C1147 H1139 0.930 1_556 S
C1147 C1148 1.355 . S
C1147 C1149 1.415 . S
C1148 C1147 1.355 . S
C1148 C1150 1.419 . S
C1149 C1144 1.425 . S
C1149 C1146 1.409 . S
C1149 C1147 1.415 . S
C1150 H1140 0.930 . S
C1150 C1148 1.419 . S
C1150 C1151 1.362 . S
C1151 H1141 0.930 . S
C1151 C1144 1.409 . S
C1151 C1150 1.362 . S
H1152 C1158 0.930 . S
H1153 C1161 0.930 . S
H1154 C1162 0.930 . S
H1155 C1163 0.930 . S
H1156 C1166 0.930 . S
H1157 C1167 0.930 . S
C1158 H1152 0.930 . S
C1158 C1159 1.355 . S
C1158 C1160 1.415 . S
C1159 C1158 1.355 . S
C1159 C1161 1.419 . S
C1160 C1158 1.415 . S
C1160 C1165 1.425 . S
C1160 C1167 1.409 . S
C1161 H1153 0.930 . S
C1161 C1159 1.419 . S
C1161 C1162 1.362 . S
C1162 H1154 0.930 . S
C1162 C1161 1.362 . S
C1162 C1165 1.409 . S
C1163 H1155 0.930 . S
C1163 C1164 1.355 . S
C1163 C1165 1.415 . S
C1164 C1163 1.355 . S
C1164 C1166 1.419 . S
C1165 C1160 1.425 . S
C1165 C1162 1.409 . S
C1165 C1163 1.415 . S
C1166 H1156 0.930 . S
C1166 C1164 1.419 . S
C1166 C1167 1.362 . S
C1167 H1157 0.930 . S
C1167 C1160 1.409 . S
C1167 C1166 1.362 . S
H1168 C1174 0.930 . S
H1169 C1177 0.930 . S
H1170 C1178 0.930 . S
H1171 C1179 0.930 . S
H1172 C1182 0.930 . S
H1173 C1183 0.930 . S
C1174 H1168 0.930 . S
C1174 C1175 1.355 1_565 S
C1174 C1176 1.415 . S
C1175 C1174 1.355 1_545 S
C1175 C1177 1.419 . S
C1176 C1174 1.415 . S
C1176 C1181 1.425 1_565 S
C1176 C1183 1.409 . S
C1177 H1169 0.930 . S
C1177 C1175 1.419 . S
C1177 C1178 1.362 . S
C1178 H1170 0.930 . S
C1178 C1177 1.362 . S
C1178 C1181 1.409 . S
C1179 H1171 0.930 . S
C1179 C1180 1.355 . S
C1179 C1181 1.415 . S
C1180 C1179 1.355 . S
C1180 C1182 1.419 1_545 S
C1181 C1176 1.425 1_545 S
C1181 C1178 1.409 . S
C1181 C1179 1.415 . S
C1182 H1172 0.930 . S
C1182 C1180 1.419 1_565 S
C1182 C1183 1.362 . S
C1183 H1173 0.930 . S
C1183 C1176 1.409 . S
C1183 C1182 1.362 . S
H1184 C1190 0.930 . S
H1185 C1193 0.930 . S
H1186 C1194 0.930 . S
H1187 C1195 0.930 . S
H1188 C1198 0.930 . S
H1189 C1199 0.930 . S
C1190 H1184 0.930 . S
C1190 C1191 1.355 . S
C1190 C1192 1.415 . S
C1191 C1190 1.355 . S
C1191 C1193 1.419 . S
C1192 C1190 1.415 . S
C1192 C1197 1.425 . S
C1192 C1199 1.409 . S
C1193 H1185 0.930 . S
C1193 C1191 1.419 . S
C1193 C1194 1.362 . S
C1194 H1186 0.930 . S
C1194 C1193 1.362 . S
C1194 C1197 1.409 . S
C1195 H1187 0.930 . S
C1195 C1196 1.355 . S
C1195 C1197 1.415 . S
C1196 C1195 1.355 . S
C1196 C1198 1.419 . S
C1197 C1192 1.425 . S
C1197 C1194 1.409 . S
C1197 C1195 1.415 . S
C1198 H1188 0.930 . S
C1198 C1196 1.419 . S
C1198 C1199 1.362 . S
C1199 H1189 0.930 . S
C1199 C1192 1.409 . S
C1199 C1198 1.362 . S
H1200 C1206 0.930 . S
H1201 C1209 0.930 . S
H1202 C1210 0.930 . S
H1203 C1211 0.930 1_565 S
H1204 C1214 0.930 . S
H1205 C1215 0.930 . S
C1206 H1200 0.930 . S
C1206 C1207 1.355 . S
C1206 C1208 1.415 . S
C1207 C1206 1.355 . S
C1207 C1209 1.419 1_545 S
C1208 C1206 1.415 . S
C1208 C1213 1.425 . S
C1208 C1215 1.409 . S
C1209 H1201 0.930 . S
C1209 C1207 1.419 1_565 S
C1209 C1210 1.362 . S
C1210 H1202 0.930 . S
C1210 C1209 1.362 . S
C1210 C1213 1.409 1_565 S
C1211 H1203 0.930 1_545 S
C1211 C1212 1.355 . S
C1211 C1213 1.415 . S
C1212 C1211 1.355 . S
C1212 C1214 1.419 . S
C1213 C1208 1.425 . S
C1213 C1210 1.409 1_545 S
C1213 C1211 1.415 . S
C1214 H1204 0.930 . S
C1214 C1212 1.419 . S
C1214 C1215 1.362 . S
C1215 H1205 0.930 . S
C1215 C1208 1.409 . S
C1215 C1214 1.362 . S
H1216 C1222 0.930 . S
H1217 C1225 0.930 . S
H1218 C1226 0.930 . S
H1219 C1227 0.930 . S
H1220 C1230 0.930 . S
H1221 C1231 0.930 . S
C1222 H1216 0.930 . S
C1222 C1223 1.355 . S
C1222 C1224 1.415 . S
C1223 C1222 1.355 . S
C1223 C1225 1.419 . S
C1224 C1222 1.415 . S
C1224 C1229 1.425 . S
C1224 C1231 1.409 . S
C1225 H1217 0.930 . S
C1225 C1223 1.419 . S
C1225 C1226 1.362 . S
C1226 H1218 0.930 . S
C1226 C1225 1.362 . S
C1226 C1229 1.409 . S
C1227 H1219 0.930 . S
C1227 C1228 1.355 . S
C1227 C1229 1.415 . S
C1228 C1227 1.355 . S
C1228 C1230 1.419 . S
C1229 C1224 1.425 . S
C1229 C1226 1.409 . S
C1229 C1227 1.415 . S
C1230 H1220 0.930 . S
C1230 C1228 1.419 . S
C1230 C1231 1.362 . S
C1231 H1221 0.930 . S
C1231 C1224 1.409 . S
C1231 C1230 1.362 . S
H1232 C1238 0.930 . S
H1233 C1241 0.930 . S
H1234 C1242 0.930 . S
H1235 C1243 0.930 . S
H1236 C1246 0.932 1_565 S
H1237 C1247 0.930 . S
C1238 H1232 0.930 . S
C1238 C1239 1.355 . S
C1238 C1240 1.415 . S
C1239 C1238 1.355 . S
C1239 C1241 1.419 1_565 S
C1240 C1238 1.415 . S
C1240 C1245 1.425 1_565 S
C1240 C1247 1.409 . S
C1241 H1233 0.930 . S
C1241 C1239 1.419 1_545 S
C1241 C1242 1.362 . S
C1242 H1234 0.930 . S
C1242 C1241 1.362 . S
C1242 C1245 1.409 . S
C1243 H1235 0.930 . S
C1243 C1244 1.355 . S
C1243 C1245 1.415 . S
C1244 C1243 1.355 . S
C1244 C1246 1.419 . S
C1245 C1240 1.425 1_545 S
C1245 C1242 1.409 . S
C1245 C1243 1.415 . S
C1246 H1236 0.932 1_545 S
C1246 C1244 1.419 . S
C1246 C1247 1.362 1_545 S
C1247 H1237 0.930 . S
C1247 C1240 1.409 . S
C1247 C1246 1.362 1_565 S
H1248 C1254 0.930 . S
H1249 C1257 0.930 . S
H1250 C1258 0.930 . S
H1251 C1259 0.930 . S
H1252 C1262 0.930 . S
H1253 C1263 0.930 . S
C1254 H1248 0.930 . S
C1254 C1255 1.355 . S
C1254 C1256 1.415 . S
C1255 C1254 1.355 . S
C1255 C1257 1.419 . S
C1256 C1254 1.415 . S
C1256 C1261 1.425 . S
C1256 C1263 1.409 . S
C1257 H1249 0.930 . S
C1257 C1255 1.419 . S
C1257 C1258 1.362 . S
C1258 H1250 0.930 . S
C1258 C1257 1.362 . S
C1258 C1261 1.409 . S
C1259 H1251 0.930 . S
C1259 C1260 1.355 . S
C1259 C1261 1.415 . S
C1260 C1259 1.355 . S
C1260 C1262 1.419 . S
C1261 C1256 1.425 . S
C1261 C1258 1.409 . S
C1261 C1259 1.415 . S
C1262 H1252 0.930 . S
C1262 C1260 1.419 . S
C1262 C1263 1.362 . S
C1263 H1253 0.930 . S
C1263 C1256 1.409 . S
C1263 C1262 1.362 . S
H1264 C1270 0.930 . S
H1265 C1273 0.930 . S
H1266 C1274 0.930 . S
H1267 C1275 0.930 . S
H1268 C1278 0.930 . S
H1269 C1279 0.930 . S
C1270 H1264 0.930 . S
C1270 C1271 1.355 . S
C1270 C1272 1.415 . S
C1271 C1270 1.355 . S
C1271 C1273 1.419 1_545 S
C1272 C1270 1.415 . S
C1272 C1277 1.416 1_545 S
C1272 C1279 1.409 . S
C1273 H1265 0.930 . S
C1273 C1271 1.419 1_565 S
C1273 C1274 1.362 . S
C1274 H1266 0.930 . S
C1274 C1273 1.362 . S
C1274 C1277 1.416 . S
C1275 H1267 0.930 . S
C1275 C1276 1.355 1_565 S
C1275 C1277 1.418 . S
C1276 C1275 1.355 1_545 S
C1276 C1278 1.419 . S
C1277 C1272 1.416 1_565 S
C1277 C1274 1.416 . S
C1277 C1275 1.418 . S
C1278 H1268 0.930 . S
C1278 C1276 1.419 . S
C1278 C1279 1.362 . S
C1279 H1269 0.930 . S
C1279 C1272 1.409 . S
C1279 C1278 1.362 . S
H1280 C1286 0.930 . S
H1281 C1289 0.930 . S
H1282 C1290 0.930 . S
H1283 C1291 0.930 . S
H1284 C1294 0.930 . S
H1285 C1295 0.930 . S
C1286 H1280 0.930 . S
C1286 C1287 1.355 . S
C1286 C1288 1.415 . S
C1287 C1286 1.355 . S
C1287 C1289 1.419 . S
C1288 C1286 1.415 . S
C1288 C1293 1.425 . S
C1288 C1295 1.409 . S
C1289 H1281 0.930 . S
C1289 C1287 1.419 . S
C1289 C1290 1.362 . S
C1290 H1282 0.930 . S
C1290 C1289 1.362 . S
C1290 C1293 1.409 . S
C1291 H1283 0.930 . S
C1291 C1292 1.355 . S
C1291 C1293 1.415 . S
C1292 C1291 1.355 . S
C1292 C1294 1.419 . S
C1293 C1288 1.425 . S
C1293 C1290 1.409 . S
C1293 C1291 1.415 . S
C1294 H1284 0.930 . S
C1294 C1292 1.419 . S
C1294 C1295 1.362 . S
C1295 H1285 0.930 . S
C1295 C1288 1.409 . S
C1295 C1294 1.362 . S
H1296 C1302 0.930 . S
H1297 C1305 0.925 1_554 S
H1298 C1306 0.930 . S
H1299 C1307 0.930 . S
H1300 C1310 0.930 . S
H1301 C1311 0.930 . S
C1302 H1296 0.930 . S
C1302 C1303 1.361 . S
C1302 C1304 1.415 . S
C1303 C1302 1.361 . S
C1303 C1305 1.417 . S
C1304 C1302 1.415 . S
C1304 C1309 1.425 . S
C1304 C1311 1.409 . S
C1305 H1297 0.925 1_556 S
C1305 C1303 1.417 . S
C1305 C1306 1.362 . S
C1306 H1298 0.930 . S
C1306 C1305 1.362 . S
C1306 C1309 1.409 . S
C1307 H1299 0.930 . S
C1307 C1308 1.355 . S
C1307 C1309 1.415 . S
C1308 C1307 1.355 . S
C1308 C1310 1.419 . S
C1309 C1304 1.425 . S
C1309 C1306 1.409 . S
C1309 C1307 1.415 . S
C1310 H1300 0.930 . S
C1310 C1308 1.419 . S
C1310 C1311 1.362 . S
C1311 H1301 0.930 . S
C1311 C1304 1.409 . S
C1311 C1310 1.362 . S
H1312 C1318 0.930 . S
H1313 C1321 0.930 . S
H1314 C1322 0.930 . S
H1315 C1323 0.930 . S
H1316 C1326 0.930 . S
H1317 C1327 0.930 . S
C1318 H1312 0.930 . S
C1318 C1319 1.355 . S
C1318 C1320 1.415 . S
C1319 C1318 1.355 . S
C1319 C1321 1.419 1_554 S
C1320 C1318 1.415 . S
C1320 C1325 1.425 . S
C1320 C1327 1.409 . S
C1321 H1313 0.930 . S
C1321 C1319 1.419 1_556 S
C1321 C1322 1.362 . S
C1322 H1314 0.930 . S
C1322 C1321 1.362 . S
C1322 C1325 1.409 1_556 S
C1323 H1315 0.930 . S
C1323 C1324 1.355 1_556 S
C1323 C1325 1.415 1_556 S
C1324 C1323 1.355 1_554 S
C1324 C1326 1.419 . S
C1325 C1320 1.425 . S
C1325 C1322 1.409 1_554 S
C1325 C1323 1.415 1_554 S
C1326 H1316 0.930 . S
C1326 C1324 1.419 . S
C1326 C1327 1.362 . S
C1327 H1317 0.930 . S
C1327 C1320 1.409 . S
C1327 C1326 1.362 . S
H1328 C1334 0.930 . S
H1329 C1337 0.930 . S
H1330 C1338 0.930 . S
H1331 C1339 0.930 . S
H1332 C1342 0.930 . S
H1333 C1343 0.930 . S
C1334 H1328 0.930 . S
C1334 C1335 1.355 . S
C1334 C1336 1.415 . S
C1335 C1334 1.355 . S
C1335 C1337 1.419 . S
C1336 C1334 1.415 . S
C1336 C1341 1.425 . S
C1336 C1343 1.409 . S
C1337 H1329 0.930 . S
C1337 C1335 1.419 . S
C1337 C1338 1.362 . S
C1338 H1330 0.930 . S
C1338 C1337 1.362 . S
C1338 C1341 1.409 . S
C1339 H1331 0.930 . S
C1339 C1340 1.355 . S
C1339 C1341 1.415 . S
C1340 C1339 1.355 . S
C1340 C1342 1.419 . S
C1341 C1336 1.425 . S
C1341 C1338 1.409 . S
C1341 C1339 1.415 . S
C1342 H1332 0.930 . S
C1342 C1340 1.419 . S
C1342 C1343 1.362 . S
C1343 H1333 0.930 . S
C1343 C1336 1.409 . S
C1343 C1342 1.362 . S
H1344 C1350 0.930 . S
H1345 C1353 0.930 . S
H1346 C1354 0.930 . S
H1347 C1355 0.930 . S
H1348 C1358 0.930 . S
H1349 C1359 0.930 . S
C1350 H1344 0.930 . S
C1350 C1351 1.355 . S
C1350 C1352 1.415 . S
C1351 C1350 1.355 . S
C1351 C1353 1.419 . S
C1352 C1350 1.415 . S
C1352 C1357 1.425 . S
C1352 C1359 1.409 . S
C1353 H1345 0.930 . S
C1353 C1351 1.419 . S
C1353 C1354 1.362 . S
C1354 H1346 0.930 . S
C1354 C1353 1.362 . S
C1354 C1357 1.409 . S
C1355 H1347 0.930 . S
C1355 C1356 1.355 . S
C1355 C1357 1.415 . S
C1356 C1355 1.355 . S
C1356 C1358 1.419 . S
C1357 C1352 1.425 . S
C1357 C1354 1.409 . S
C1357 C1355 1.415 . S
C1358 H1348 0.930 . S
C1358 C1356 1.419 . S
C1358 C1359 1.362 . S
C1359 H1349 0.930 . S
C1359 C1352 1.409 . S
C1359 C1358 1.362 . S
H1360 C1366 0.930 . S
H1361 C1369 0.930 . S
H1362 C1370 0.930 . S
H1363 C1371 0.930 . S
H1364 C1374 0.930 . S
H1365 C1375 0.930 . S
C1366 H1360 0.930 . S
C1366 C1367 1.355 . S
C1366 C1368 1.415 . S
C1367 C1366 1.355 . S
C1367 C1369 1.419 . S
C1368 C1366 1.415 . S
C1368 C1373 1.425 . S
C1368 C1375 1.409 . S
C1369 H1361 0.930 . S
C1369 C1367 1.419 . S
C1369 C1370 1.362 . S
C1370 H1362 0.930 . S
C1370 C1369 1.362 . S
C1370 C1373 1.409 . S
C1371 H1363 0.930 . S
C1371 C1372 1.355 . S
C1371 C1373 1.415 . S
C1372 C1371 1.355 . S
C1372 C1374 1.419 . S
C1373 C1368 1.425 . S
C1373 C1370 1.409 . S
C1373 C1371 1.415 . S
C1374 H1364 0.930 . S
C1374 C1372 1.419 . S
C1374 C1375 1.362 . S
C1375 H1365 0.930 . S
C1375 C1368 1.409 . S
C1375 C1374 1.362 . S
H1376 C1382 0.930 . S
H1377 C1385 0.930 . S
H1378 C1386 0.930 . S
H1379 C1387 0.934 . S
H1380 C1390 0.930 . S
H1381 C1391 0.930 . S
C1382 H1376 0.930 . S
C1382 C1383 1.355 . S
C1382 C1384 1.415 . S
C1383 C1382 1.355 . S
C1383 C1385 1.419 . S
C1384 C1382 1.415 . S
C1384 C1389 1.425 . S
C1384 C1391 1.409 . S
C1385 H1377 0.930 . S
C1385 C1383 1.419 . S
C1385 C1386 1.362 . S
C1386 H1378 0.930 . S
C1386 C1385 1.362 . S
C1386 C1389 1.409 . S
C1387 H1379 0.934 . S
C1387 C1388 1.355 . S
C1387 C1389 1.415 . S
C1388 C1387 1.355 . S
C1388 C1390 1.419 . S
C1389 C1384 1.425 . S
C1389 C1386 1.409 . S
C1389 C1387 1.415 . S
C1390 H1380 0.930 . S
C1390 C1388 1.419 . S
C1390 C1391 1.362 . S
C1391 H1381 0.930 . S
C1391 C1384 1.409 . S
C1391 C1390 1.362 . S
H1392 C1398 0.930 . S
H1393 C1401 0.930 . S
H1394 C1402 0.930 . S
H1395 C1403 0.930 . S
H1396 C1406 0.930 . S
H1397 C1407 0.930 . S
C1398 H1392 0.930 . S
C1398 C1399 1.355 . S
C1398 C1400 1.415 . S
C1399 C1398 1.355 . S
C1399 C1401 1.419 . S
C1400 C1398 1.415 . S
C1400 C1405 1.425 . S
C1400 C1407 1.409 . S
C1401 H1393 0.930 . S
C1401 C1399 1.419 . S
C1401 C1402 1.362 . S
C1402 H1394 0.930 . S
C1402 C1401 1.362 . S
C1402 C1405 1.409 . S
C1403 H1395 0.930 . S
C1403 C1404 1.355 . S
C1403 C1405 1.415 . S
C1404 C1403 1.355 . S
C1404 C1406 1.419 . S
C1405 C1400 1.425 . S
C1405 C1402 1.409 . S
C1405 C1403 1.415 . S
C1406 H1396 0.930 . S
C1406 C1404 1.419 . S
C1406 C1407 1.362 . S
C1407 H1397 0.930 . S
C1407 C1400 1.409 . S
C1407 C1406 1.362 . S
H1408 C1414 0.930 . S
H1409 C1417 0.930 . S
H1410 C1418 0.930 . S
H1411 C1419 0.930 . S
H1412 C1422 0.930 . S
H1413 C1423 0.930 . S
C1414 H1408 0.930 . S
C1414 C1415 1.355 . S
C1414 C1416 1.415 . S
C1415 C1414 1.355 . S
C1415 C1417 1.419 . S
C1416 C1414 1.415 . S
C1416 C1421 1.425 . S
C1416 C1423 1.409 . S
C1417 H1409 0.930 . S
C1417 C1415 1.419 . S
C1417 C1418 1.362 . S
C1418 H1410 0.930 . S
C1418 C1417 1.362 . S
C1418 C1421 1.409 . S
C1419 H1411 0.930 . S
C1419 C1420 1.355 . S
C1419 C1421 1.415 . S
C1420 C1419 1.355 . S
C1420 C1422 1.419 . S
C1421 C1416 1.425 . S
C1421 C1418 1.409 . S
C1421 C1419 1.415 . S
C1422 H1412 0.930 . S
C1422 C1420 1.419 . S
C1422 C1423 1.362 . S
C1423 H1413 0.930 . S
C1423 C1416 1.409 . S
C1423 C1422 1.362 . S
H1424 C1430 0.930 . S
H1425 C1433 0.930 . S
H1426 C1434 0.930 . S
H1427 C1435 0.930 . S
H1428 C1438 0.930 . S
H1429 C1439 0.930 . S
C1430 H1424 0.930 . S
C1430 C1431 1.355 . S
C1430 C1432 1.415 . S
C1431 C1430 1.355 . S
C1431 C1433 1.419 . S
C1432 C1430 1.415 . S
C1432 C1437 1.425 . S
C1432 C1439 1.409 . S
C1433 H1425 0.930 . S
C1433 C1431 1.419 . S
C1433 C1434 1.362 . S
C1434 H1426 0.930 . S
C1434 C1433 1.362 . S
C1434 C1437 1.409 . S
C1435 H1427 0.930 . S
C1435 C1436 1.355 . S
C1435 C1437 1.415 . S
C1436 C1435 1.355 . S
C1436 C1438 1.419 . S
C1437 C1432 1.425 . S
C1437 C1434 1.409 . S
C1437 C1435 1.415 . S
C1438 H1428 0.930 . S
C1438 C1436 1.419 . S
C1438 C1439 1.362 . S
C1439 H1429 0.930 . S
C1439 C1432 1.409 . S
C1439 C1438 1.362 . S
H1440 C1446 0.930 . S
H1441 C1449 0.930 . S
H1442 C1450 0.930 . S
H1443 C1451 0.930 . S
H1444 C1454 0.930 . S
H1445 C1455 0.930 . S
C1446 H1440 0.930 . S
C1446 C1447 1.355 . S
C1446 C1448 1.415 . S
C1447 C1446 1.355 . S
C1447 C1449 1.419 . S
C1448 C1446 1.415 . S
C1448 C1453 1.425 . S
C1448 C1455 1.409 . S
C1449 H1441 0.930 . S
C1449 C1447 1.419 . S
C1449 C1450 1.362 . S
C1450 H1442 0.930 . S
C1450 C1449 1.362 . S
C1450 C1453 1.409 . S
C1451 H1443 0.930 . S
C1451 C1452 1.355 . S
C1451 C1453 1.415 . S
C1452 C1451 1.355 . S
C1452 C1454 1.419 . S
C1453 C1448 1.425 . S
C1453 C1450 1.409 . S
C1453 C1451 1.415 . S
C1454 H1444 0.930 . S
C1454 C1452 1.419 . S
C1454 C1455 1.362 . S
C1455 H1445 0.930 . S
C1455 C1448 1.409 . S
C1455 C1454 1.362 . S
H1456 C1462 0.927 1_655 S
H1457 C1465 0.930 . S
H1458 C1466 0.930 1_554 S
H1459 C1467 0.930 1_554 S
H1460 C1470 0.930 . S
H1461 C1471 0.930 . S
C1462 H1456 0.927 1_455 S
C1462 C1463 1.367 . S
C1462 C1464 1.407 . S
C1463 C1462 1.367 . S
C1463 C1465 1.419 . S
C1464 C1462 1.407 . S
C1464 C1469 1.425 . S
C1464 C1471 1.409 1_455 S
C1465 H1457 0.930 . S
C1465 C1463 1.419 . S
C1465 C1466 1.362 . S
C1466 H1458 0.930 1_556 S
C1466 C1465 1.362 . S
C1466 C1469 1.409 . S
C1467 H1459 0.930 1_556 S
C1467 C1468 1.355 . S
C1467 C1469 1.415 . S
C1468 C1467 1.355 . S
C1468 C1470 1.419 1_455 S
C1469 C1464 1.425 . S
C1469 C1466 1.409 . S
C1469 C1467 1.415 . S
C1470 H1460 0.930 . S
C1470 C1468 1.419 1_655 S
C1470 C1471 1.362 . S
C1471 H1461 0.930 . S
C1471 C1464 1.409 1_655 S
C1471 C1470 1.362 . S
H1472 C1478 0.930 . S
H1473 C1481 0.930 . S
H1474 C1482 0.930 . S
H1475 C1483 0.930 . S
H1476 C1486 0.930 . S
H1477 C1487 0.930 . S
C1478 H1472 0.930 . S
C1478 C1479 1.355 . S
C1478 C1480 1.415 . S
C1479 C1478 1.355 . S
C1479 C1481 1.419 . S
C1480 C1478 1.415 . S
C1480 C1485 1.425 . S
C1480 C1487 1.409 . S
C1481 H1473 0.930 . S
C1481 C1479 1.419 . S
C1481 C1482 1.362 . S
C1482 H1474 0.930 . S
C1482 C1481 1.362 . S
C1482 C1485 1.409 . S
C1483 H1475 0.930 . S
C1483 C1484 1.355 . S
C1483 C1485 1.415 . S
C1484 C1483 1.355 . S
C1484 C1486 1.419 . S
C1485 C1480 1.425 . S
C1485 C1482 1.409 . S
C1485 C1483 1.415 . S
C1486 H1476 0.930 . S
C1486 C1484 1.419 . S
C1486 C1487 1.362 . S
C1487 H1477 0.930 . S
C1487 C1480 1.409 . S
C1487 C1486 1.362 . S
H1488 C1494 0.930 . S
H1489 C1497 0.930 . S
H1490 C1498 0.930 . S
H1491 C1499 0.930 . S
H1492 C1502 0.930 . S
H1493 C1503 0.930 . S
C1494 H1488 0.930 . S
C1494 C1495 1.355 . S
C1494 C1496 1.415 . S
C1495 C1494 1.355 . S
C1495 C1497 1.419 . S
C1496 C1494 1.415 . S
C1496 C1501 1.425 . S
C1496 C1503 1.409 . S
C1497 H1489 0.930 . S
C1497 C1495 1.419 . S
C1497 C1498 1.362 . S
C1498 H1490 0.930 . S
C1498 C1497 1.362 . S
C1498 C1501 1.409 . S
C1499 H1491 0.930 . S
C1499 C1500 1.355 . S
C1499 C1501 1.415 . S
C1500 C1499 1.355 . S
C1500 C1502 1.419 . S
C1501 C1496 1.425 . S
C1501 C1498 1.409 . S
C1501 C1499 1.415 . S
C1502 H1492 0.930 . S
C1502 C1500 1.419 . S
C1502 C1503 1.362 . S
C1503 H1493 0.930 . S
C1503 C1496 1.409 . S
C1503 C1502 1.362 . S
H1504 C1510 0.930 . S
H1505 C1513 0.930 . S
H1506 C1514 0.930 . S
H1507 C1515 0.930 . S
H1508 C1518 0.930 . S
H1509 C1519 0.930 . S
C1510 H1504 0.930 . S
C1510 C1511 1.355 . S
C1510 C1512 1.415 . S
C1511 C1510 1.355 . S
C1511 C1513 1.419 . S
C1512 C1510 1.415 . S
C1512 C1517 1.425 . S
C1512 C1519 1.409 . S
C1513 H1505 0.930 . S
C1513 C1511 1.419 . S
C1513 C1514 1.362 . S
C1514 H1506 0.930 . S
C1514 C1513 1.362 . S
C1514 C1517 1.409 . S
C1515 H1507 0.930 . S
C1515 C1516 1.355 . S
C1515 C1517 1.415 . S
C1516 C1515 1.355 . S
C1516 C1518 1.419 . S
C1517 C1512 1.425 . S
C1517 C1514 1.409 . S
C1517 C1515 1.415 . S
C1518 H1508 0.930 . S
C1518 C1516 1.419 . S
C1518 C1519 1.362 . S
C1519 H1509 0.930 . S
C1519 C1512 1.409 . S
C1519 C1518 1.362 . S
H1520 C1526 0.930 . S
H1521 C1529 0.930 . S
H1522 C1530 0.930 . S
H1523 C1531 0.930 . S
H1524 C1534 0.930 . S
H1525 C1535 0.930 . S
C1526 H1520 0.930 . S
C1526 C1527 1.355 1_455 S
C1526 C1528 1.415 . S
C1527 C1526 1.355 1_655 S
C1527 C1529 1.419 . S
C1528 C1526 1.415 . S
C1528 C1533 1.425 1_455 S
C1528 C1535 1.409 . S
C1529 H1521 0.930 . S
C1529 C1527 1.419 . S
C1529 C1530 1.362 . S
C1530 H1522 0.930 . S
C1530 C1529 1.362 . S
C1530 C1533 1.409 . S
C1531 H1523 0.930 . S
C1531 C1532 1.355 1_655 S
C1531 C1533 1.415 . S
C1532 C1531 1.355 1_455 S
C1532 C1534 1.419 . S
C1533 C1528 1.425 1_655 S
C1533 C1530 1.409 . S
C1533 C1531 1.415 . S
C1534 H1524 0.930 . S
C1534 C1532 1.419 . S
C1534 C1535 1.362 . S
C1535 H1525 0.930 . S
C1535 C1528 1.409 . S
C1535 C1534 1.362 . S
H1536 C1542 0.930 . S
H1537 C1545 0.930 . S
H1538 C1546 0.930 . S
H1539 C1547 0.930 . S
H1540 C1550 0.930 . S
H1541 C1551 0.930 . S
C1542 H1536 0.930 . S
C1542 C1543 1.355 . S
C1542 C1544 1.415 . S
C1543 C1542 1.355 . S
C1543 C1545 1.419 . S
C1544 C1542 1.415 . S
C1544 C1549 1.425 . S
C1544 C1551 1.409 . S
C1545 H1537 0.930 . S
C1545 C1543 1.419 . S
C1545 C1546 1.362 . S
C1546 H1538 0.930 . S
C1546 C1545 1.362 . S
C1546 C1549 1.409 . S
C1547 H1539 0.930 . S
C1547 C1548 1.355 . S
C1547 C1549 1.415 . S
C1548 C1547 1.355 . S
C1548 C1550 1.419 . S
C1549 C1544 1.425 . S
C1549 C1546 1.409 . S
C1549 C1547 1.415 . S
C1550 H1540 0.930 . S
C1550 C1548 1.419 . S
C1550 C1551 1.362 . S
C1551 H1541 0.930 . S
C1551 C1544 1.409 . S
C1551 C1550 1.362 . S
H1552 C1558 0.930 . S
H1553 C1561 0.930 . S
H1554 C1562 0.930 . S
H1555 C1563 0.930 . S
H1556 C1566 0.930 . S
H1557 C1567 0.930 . S
C1558 H1552 0.930 . S
C1558 C1559 1.355 . S
C1558 C1560 1.415 . S
C1559 C1558 1.355 . S
C1559 C1561 1.419 . S
C1560 C1558 1.415 . S
C1560 C1565 1.425 . S
C1560 C1567 1.409 . S
C1561 H1553 0.930 . S
C1561 C1559 1.419 . S
C1561 C1562 1.362 . S
C1562 H1554 0.930 . S
C1562 C1561 1.362 . S
C1562 C1565 1.409 . S
C1563 H1555 0.930 . S
C1563 C1564 1.355 . S
C1563 C1565 1.415 . S
C1564 C1563 1.355 . S
C1564 C1566 1.419 . S
C1565 C1560 1.425 . S
C1565 C1562 1.409 . S
C1565 C1563 1.415 . S
C1566 H1556 0.930 . S
C1566 C1564 1.419 . S
C1566 C1567 1.362 . S
C1567 H1557 0.930 . S
C1567 C1560 1.409 . S
C1567 C1566 1.362 . S
H1568 C1574 0.930 . S
H1569 C1577 0.930 . S
H1570 C1578 0.930 . S
H1571 C1579 0.930 . S
H1572 C1582 0.930 . S
H1573 C1583 0.930 . S
C1574 H1568 0.930 . S
C1574 C1575 1.355 . S
C1574 C1576 1.415 . S
C1575 C1574 1.355 . S
C1575 C1577 1.419 . S
C1576 C1574 1.415 . S
C1576 C1581 1.425 . S
C1576 C1583 1.409 . S
C1577 H1569 0.930 . S
C1577 C1575 1.419 . S
C1577 C1578 1.362 . S
C1578 H1570 0.930 . S
C1578 C1577 1.362 . S
C1578 C1581 1.409 . S
C1579 H1571 0.930 . S
C1579 C1580 1.355 . S
C1579 C1581 1.415 . S
C1580 C1579 1.355 . S
C1580 C1582 1.419 . S
C1581 C1576 1.425 . S
C1581 C1578 1.409 . S
C1581 C1579 1.415 . S
C1582 H1572 0.930 . S
C1582 C1580 1.419 . S
C1582 C1583 1.362 . S
C1583 H1573 0.930 . S
C1583 C1576 1.409 . S
C1583 C1582 1.362 . S
H1584 C1590 0.930 . S
H1585 C1593 0.930 . S
H1586 C1594 0.930 . S
H1587 C1595 0.930 . S
H1588 C1598 0.930 1_655 S
H1589 C1599 0.930 . S
C1590 H1584 0.930 . S
C1590 C1591 1.355 . S
C1590 C1592 1.415 . S
C1591 C1590 1.355 . S
C1591 C1593 1.419 . S
C1592 C1590 1.415 . S
C1592 C1597 1.425 . S
C1592 C1599 1.409 . S
C1593 H1585 0.930 . S
C1593 C1591 1.419 . S
C1593 C1594 1.362 . S
C1594 H1586 0.930 . S
C1594 C1593 1.362 . S
C1594 C1597 1.409 . S
C1595 H1587 0.930 . S
C1595 C1596 1.355 . S
C1595 C1597 1.415 . S
C1596 C1595 1.355 . S
C1596 C1598 1.419 . S
C1597 C1592 1.425 . S
C1597 C1594 1.409 . S
C1597 C1595 1.415 . S
C1598 H1588 0.930 1_455 S
C1598 C1596 1.419 . S
C1598 C1599 1.362 . S
C1599 H1589 0.930 . S
C1599 C1592 1.409 . S
C1599 C1598 1.362 . S
H1600 C1606 0.930 . S
H1601 C1609 0.930 . S
H1602 C1610 0.930 . S
H1603 C1611 0.930 . S
H1604 C1614 0.930 . S
H1605 C1615 0.930 . S
C1606 H1600 0.930 . S
C1606 C1607 1.355 . S
C1606 C1608 1.415 . S
C1607 C1606 1.355 . S
C1607 C1609 1.419 . S
C1608 C1606 1.415 . S
C1608 C1613 1.425 . S
C1608 C1615 1.409 . S
C1609 H1601 0.930 . S
C1609 C1607 1.419 . S
C1609 C1610 1.362 . S
C1610 H1602 0.930 . S
C1610 C1609 1.362 . S
C1610 C1613 1.409 . S
C1611 H1603 0.930 . S
C1611 C1612 1.355 . S
C1611 C1613 1.415 . S
C1612 C1611 1.355 . S
C1612 C1614 1.419 . S
C1613 C1608 1.425 . S
C1613 C1610 1.409 . S
C1613 C1611 1.415 . S
C1614 H1604 0.930 . S
C1614 C1612 1.419 . S
C1614 C1615 1.362 . S
C1615 H1605 0.930 . S
C1615 C1608 1.409 . S
C1615 C1614 1.362 . S
H1616 C1622 0.930 . S
H1617 C1625 0.930 . S
H1618 C1626 0.930 . S
H1619 C1627 0.930 . S
H1620 C1630 0.930 . S
H1621 C1631 0.930 . S
C1622 H1616 0.930 . S
C1622 C1623 1.355 . S
C1622 C1624 1.415 . S
C1623 C1622 1.355 . S
C1623 C1625 1.419 . S
C1624 C1622 1.415 . S
C1624 C1629 1.425 . S
C1624 C1631 1.409 . S
C1625 H1617 0.930 . S
C1625 C1623 1.419 . S
C1625 C1626 1.362 . S
C1626 H1618 0.930 . S
C1626 C1625 1.362 . S
C1626 C1629 1.409 . S
C1627 H1619 0.930 . S
C1627 C1628 1.355 . S
C1627 C1629 1.415 . S
C1628 C1627 1.355 . S
C1628 C1630 1.419 . S
C1629 C1624 1.425 . S
C1629 C1626 1.409 . S
C1629 C1627 1.415 . S
C1630 H1620 0.930 . S
C1630 C1628 1.419 . S
C1630 C1631 1.362 . S
C1631 H1621 0.930 . S
C1631 C1624 1.409 . S
C1631 C1630 1.362 . S
H1632 C1638 0.930 . S
H1633 C1641 0.930 . S
H1634 C1642 0.930 . S
H1635 C1643 0.930 . S
H1636 C1646 0.930 . S
H1637 C1647 0.930 . S
C1638 H1632 0.930 . S
C1638 C1639 1.355 . S
C1638 C1640 1.415 . S
C1639 C1638 1.355 . S
C1639 C1641 1.419 . S
C1640 C1638 1.415 . S
C1640 C1645 1.425 . S
C1640 C1647 1.409 . S
C1641 H1633 0.930 . S
C1641 C1639 1.419 . S
C1641 C1642 1.362 . S
C1642 H1634 0.930 . S
C1642 C1641 1.362 . S
C1642 C1645 1.409 . S
C1643 H1635 0.930 . S
C1643 C1644 1.355 . S
C1643 C1645 1.415 . S
C1644 C1643 1.355 . S
C1644 C1646 1.419 . S
C1645 C1640 1.425 . S
C1645 C1642 1.409 . S
C1645 C1643 1.415 . S
C1646 H1636 0.930 . S
C1646 C1644 1.419 . S
C1646 C1647 1.362 . S
C1647 H1637 0.930 . S
C1647 C1640 1.409 . S
C1647 C1646 1.362 . S
H1648 C1654 0.930 . S
H1649 C1657 0.930 . S
H1650 C1658 0.930 . S
H1651 C1659 0.930 . S
H1652 C1662 0.930 . S
H1653 C1663 0.930 . S
C1654 H1648 0.930 . S
C1654 C1655 1.355 . S
C1654 C1656 1.415 . S
C1655 C1654 1.355 . S
C1655 C1657 1.419 . S
C1656 C1654 1.415 . S
C1656 C1661 1.425 . S
C1656 C1663 1.409 . S
C1657 H1649 0.930 . S
C1657 C1655 1.419 . S
C1657 C1658 1.362 . S
C1658 H1650 0.930 . S
C1658 C1657 1.362 . S
C1658 C1661 1.409 . S
C1659 H1651 0.930 . S
C1659 C1660 1.355 . S
C1659 C1661 1.415 . S
C1660 C1659 1.355 . S
C1660 C1662 1.419 . S
C1661 C1656 1.425 . S
C1661 C1658 1.409 . S
C1661 C1659 1.415 . S
C1662 H1652 0.930 . S
C1662 C1660 1.419 . S
C1662 C1663 1.362 . S
C1663 H1653 0.930 . S
C1663 C1656 1.409 . S
C1663 C1662 1.362 . S
H1664 C1670 0.930 . S
H1665 C1673 0.930 . S
H1666 C1674 0.930 . S
H1667 C1675 0.930 . S
H1668 C1678 0.930 . S
H1669 C1679 0.930 . S
C1670 H1664 0.930 . S
C1670 C1671 1.355 . S
C1670 C1672 1.415 . S
C1671 C1670 1.355 . S
C1671 C1673 1.419 . S
C1672 C1670 1.415 . S
C1672 C1677 1.425 . S
C1672 C1679 1.409 . S
C1673 H1665 0.930 . S
C1673 C1671 1.419 . S
C1673 C1674 1.362 . S
C1674 H1666 0.930 . S
C1674 C1673 1.362 . S
C1674 C1677 1.409 . S
C1675 H1667 0.930 . S
C1675 C1676 1.355 . S
C1675 C1677 1.415 . S
C1676 C1675 1.355 . S
C1676 C1678 1.419 . S
C1677 C1672 1.425 . S
C1677 C1674 1.409 . S
C1677 C1675 1.415 . S
C1678 H1668 0.930 . S
C1678 C1676 1.419 . S
C1678 C1679 1.362 . S
C1679 H1669 0.930 . S
C1679 C1672 1.409 . S
C1679 C1678 1.362 . S
H1680 C1686 0.930 . S
H1681 C1689 0.930 . S
H1682 C1690 0.930 . S
H1683 C1691 0.930 . S
H1684 C1694 0.930 . S
H1685 C1695 0.930 . S
C1686 H1680 0.930 . S
C1686 C1687 1.355 . S
C1686 C1688 1.415 . S
C1687 C1686 1.355 . S
C1687 C1689 1.419 . S
C1688 C1686 1.415 . S
C1688 C1693 1.425 . S
C1688 C1695 1.409 . S
C1689 H1681 0.930 . S
C1689 C1687 1.419 . S
C1689 C1690 1.362 . S
C1690 H1682 0.930 . S
C1690 C1689 1.362 . S
C1690 C1693 1.409 . S
C1691 H1683 0.930 . S
C1691 C1692 1.355 . S
C1691 C1693 1.415 . S
C1692 C1691 1.355 . S
C1692 C1694 1.419 . S
C1693 C1688 1.425 . S
C1693 C1690 1.409 . S
C1693 C1691 1.415 . S
C1694 H1684 0.930 . S
C1694 C1692 1.419 . S
C1694 C1695 1.362 . S
C1695 H1685 0.930 . S
C1695 C1688 1.409 . S
C1695 C1694 1.362 . S
H1696 C1702 0.930 . S
H1697 C1705 0.930 . S
H1698 C1706 0.930 . S
H1699 C1707 0.930 . S
H1700 C1710 0.930 . S
H1701 C1711 0.930 . S
C1702 H1696 0.930 . S
C1702 C1703 1.355 . S
C1702 C1704 1.415 . S
C1703 C1702 1.355 . S
C1703 C1705 1.419 . S
C1704 C1702 1.415 . S
C1704 C1709 1.425 . S
C1704 C1711 1.409 . S
C1705 H1697 0.930 . S
C1705 C1703 1.419 . S
C1705 C1706 1.362 . S
C1706 H1698 0.930 . S
C1706 C1705 1.362 . S
C1706 C1709 1.409 . S
C1707 H1699 0.930 . S
C1707 C1708 1.355 . S
C1707 C1709 1.415 . S
C1708 C1707 1.355 . S
C1708 C1710 1.419 . S
C1709 C1704 1.425 . S
C1709 C1706 1.409 . S
C1709 C1707 1.415 . S
C1710 H1700 0.930 . S
C1710 C1708 1.419 . S
C1710 C1711 1.362 . S
C1711 H1701 0.930 . S
C1711 C1704 1.409 . S
C1711 C1710 1.362 . S
H1712 C1718 0.930 . S
H1713 C1721 0.930 . S
H1714 C1722 0.930 . S
H1715 C1723 0.930 . S
H1716 C1726 0.930 . S
H1717 C1727 0.930 . S
C1718 H1712 0.930 . S
C1718 C1719 1.355 . S
C1718 C1720 1.415 . S
C1719 C1718 1.355 . S
C1719 C1721 1.419 . S
C1720 C1718 1.415 . S
C1720 C1725 1.425 . S
C1720 C1727 1.409 . S
C1721 H1713 0.930 . S
C1721 C1719 1.419 . S
C1721 C1722 1.362 . S
C1722 H1714 0.930 . S
C1722 C1721 1.362 . S
C1722 C1725 1.409 . S
C1723 H1715 0.930 . S
C1723 C1724 1.355 . S
C1723 C1725 1.415 . S
C1724 C1723 1.355 . S
C1724 C1726 1.419 . S
C1725 C1720 1.425 . S
C1725 C1722 1.409 . S
C1725 C1723 1.415 . S
C1726 H1716 0.930 . S
C1726 C1724 1.419 . S
C1726 C1727 1.362 . S
C1727 H1717 0.930 . S
C1727 C1720 1.409 . S
C1727 C1726 1.362 . S
H1728 C1734 0.930 . S
H1729 C1737 0.930 . S
H1730 C1738 0.930 . S
H1731 C1739 0.952 . S
H1732 C1742 0.930 . S
H1733 C1743 0.930 . S
C1734 H1728 0.930 . S
C1734 C1735 1.355 . S
C1734 C1736 1.415 . S
C1735 C1734 1.355 . S
C1735 C1737 1.419 1_554 S
C1736 C1734 1.415 . S
C1736 C1741 1.425 . S
C1736 C1743 1.409 . S
C1737 H1729 0.930 . S
C1737 C1735 1.419 1_556 S
C1737 C1738 1.362 . S
C1738 H1730 0.930 . S
C1738 C1737 1.362 . S
C1738 C1741 1.409 1_556 S
C1739 H1731 0.952 . S
C1739 C1740 1.347 1_556 S
C1739 C1741 1.402 1_546 S
C1740 C1739 1.347 1_554 S
C1740 C1742 1.419 1_545 S
C1741 C1736 1.425 . S
C1741 C1738 1.409 1_554 S
C1741 C1739 1.402 1_564 S
C1742 H1732 0.930 . S
C1742 C1740 1.419 1_565 S
C1742 C1743 1.362 . S
C1743 H1733 0.930 . S
C1743 C1736 1.409 . S
C1743 C1742 1.362 . S
H1744 C1750 0.930 . S
H1745 C1753 0.930 . S
H1746 C1754 0.930 . S
H1747 C1755 0.930 . S
H1748 C1758 0.930 . S
H1749 C1759 0.930 . S
C1750 H1744 0.930 . S
C1750 C1751 1.355 . S
C1750 C1752 1.415 . S
C1751 C1750 1.355 . S
C1751 C1753 1.419 . S
C1752 C1750 1.415 . S
C1752 C1757 1.425 . S
C1752 C1759 1.409 . S
C1753 H1745 0.930 . S
C1753 C1751 1.419 . S
C1753 C1754 1.362 . S
C1754 H1746 0.930 . S
C1754 C1753 1.362 . S
C1754 C1757 1.409 . S
C1755 H1747 0.930 . S
C1755 C1756 1.355 . S
C1755 C1757 1.415 . S
C1756 C1755 1.355 . S
C1756 C1758 1.419 . S
C1757 C1752 1.425 . S
C1757 C1754 1.409 . S
C1757 C1755 1.415 . S
C1758 H1748 0.930 . S
C1758 C1756 1.419 . S
C1758 C1759 1.362 . S
C1759 H1749 0.930 . S
C1759 C1752 1.409 . S
C1759 C1758 1.362 . S
H1760 C1766 0.930 . S
H1761 C1769 0.930 . S
H1762 C1770 0.930 . S
H1763 C1771 0.930 . S
H1764 C1774 0.930 . S
H1765 C1775 0.930 . S
C1766 H1760 0.930 . S
C1766 C1767 1.355 1_556 S
C1766 C1768 1.415 1_556 S
C1767 C1766 1.355 1_554 S
C1767 C1769 1.419 . S
C1768 C1766 1.415 1_554 S
C1768 C1773 1.425 . S
C1768 C1775 1.409 1_554 S
C1769 H1761 0.930 . S
C1769 C1767 1.419 . S
C1769 C1770 1.362 . S
C1770 H1762 0.930 . S
C1770 C1769 1.362 . S
C1770 C1773 1.409 . S
C1771 H1763 0.930 . S
C1771 C1772 1.355 . S
C1771 C1773 1.415 . S
C1772 C1771 1.355 . S
C1772 C1774 1.419 1_554 S
C1773 C1768 1.425 . S
C1773 C1770 1.409 . S
C1773 C1771 1.415 . S
C1774 H1764 0.930 . S
C1774 C1772 1.419 1_556 S
C1774 C1775 1.362 . S
C1775 H1765 0.930 . S
C1775 C1768 1.409 1_556 S
C1775 C1774 1.362 . S
H1776 C1782 0.930 . S
H1777 C1785 0.930 . S
H1778 C1786 0.930 . S
H1779 C1787 0.930 . S
H1780 C1790 0.930 . S
H1781 C1791 0.930 . S
C1782 H1776 0.930 . S
C1782 C1783 1.355 . S
C1782 C1784 1.415 . S
C1783 C1782 1.355 . S
C1783 C1785 1.419 . S
C1784 C1782 1.415 . S
C1784 C1789 1.425 . S
C1784 C1791 1.409 . S
C1785 H1777 0.930 . S
C1785 C1783 1.419 . S
C1785 C1786 1.362 . S
C1786 H1778 0.930 . S
C1786 C1785 1.362 . S
C1786 C1789 1.409 . S
C1787 H1779 0.930 . S
C1787 C1788 1.355 . S
C1787 C1789 1.415 . S
C1788 C1787 1.355 . S
C1788 C1790 1.419 . S
C1789 C1784 1.425 . S
C1789 C1786 1.409 . S
C1789 C1787 1.415 . S
C1790 H1780 0.930 . S
C1790 C1788 1.419 . S
C1790 C1791 1.362 . S
C1791 H1781 0.930 . S
C1791 C1784 1.409 . S
C1791 C1790 1.362 . S
H1792 C1798 0.930 . S
H1793 C1801 0.930 . S
H1794 C1802 0.930 . S
H1795 C1803 0.930 . S
H1796 C1806 0.930 . S
H1797 C1807 0.930 . S
C1798 H1792 0.930 . S
C1798 C1799 1.355 . S
C1798 C1800 1.415 . S
C1799 C1798 1.355 . S
C1799 C1801 1.419 . S
C1800 C1798 1.415 . S
C1800 C1805 1.425 . S
C1800 C1807 1.409 . S
C1801 H1793 0.930 . S
C1801 C1799 1.419 . S
C1801 C1802 1.362 . S
C1802 H1794 0.930 . S
C1802 C1801 1.362 . S
C1802 C1805 1.409 . S
C1803 H1795 0.930 . S
C1803 C1804 1.355 . S
C1803 C1805 1.415 . S
C1804 C1803 1.355 . S
C1804 C1806 1.419 . S
C1805 C1800 1.425 . S
C1805 C1802 1.409 . S
C1805 C1803 1.415 . S
C1806 H1796 0.930 . S
C1806 C1804 1.419 . S
C1806 C1807 1.362 . S
C1807 H1797 0.930 . S
C1807 C1800 1.409 . S
C1807 C1806 1.362 . S
H1808 C1814 0.930 . S
H1809 C1817 0.930 . S
H1810 C1818 0.930 . S
H1811 C1819 0.930 . S
H1812 C1822 0.930 . S
H1813 C1823 0.930 . S
C1814 H1808 0.930 . S
C1814 C1815 1.355 . S
C1814 C1816 1.415 . S
C1815 C1814 1.355 . S
C1815 C1817 1.419 . S
C1816 C1814 1.415 . S
C1816 C1821 1.425 . S
C1816 C1823 1.409 . S
C1817 H1809 0.930 . S
C1817 C1815 1.419 . S
C1817 C1818 1.362 . S
C1818 H1810 0.930 . S
C1818 C1817 1.362 . S
C1818 C1821 1.409 . S
C1819 H1811 0.930 . S
C1819 C1820 1.355 . S
C1819 C1821 1.415 . S
C1820 C1819 1.355 . S
C1820 C1822 1.419 . S
C1821 C1816 1.425 . S
C1821 C1818 1.409 . S
C1821 C1819 1.415 . S
C1822 H1812 0.930 . S
C1822 C1820 1.419 . S
C1822 C1823 1.362 . S
C1823 H1813 0.930 . S
C1823 C1816 1.409 . S
C1823 C1822 1.362 . S
H1824 C1830 0.930 . S
H1825 C1833 0.930 . S
H1826 C1834 0.930 . S
H1827 C1835 0.930 . S
H1828 C1838 0.930 . S
H1829 C1839 0.930 . S
C1830 H1824 0.930 . S
C1830 C1831 1.355 . S
C1830 C1832 1.415 . S
C1831 C1830 1.355 . S
C1831 C1833 1.419 . S
C1832 C1830 1.415 . S
C1832 C1837 1.425 . S
C1832 C1839 1.409 . S
C1833 H1825 0.930 . S
C1833 C1831 1.419 . S
C1833 C1834 1.362 . S
C1834 H1826 0.930 . S
C1834 C1833 1.362 . S
C1834 C1837 1.409 . S
C1835 H1827 0.930 . S
C1835 C1836 1.355 . S
C1835 C1837 1.415 . S
C1836 C1835 1.355 . S
C1836 C1838 1.419 . S
C1837 C1832 1.425 . S
C1837 C1834 1.409 . S
C1837 C1835 1.415 . S
C1838 H1828 0.930 . S
C1838 C1836 1.419 . S
C1838 C1839 1.362 . S
C1839 H1829 0.930 . S
C1839 C1832 1.409 . S
C1839 C1838 1.362 . S
H1840 C1846 0.930 1_655 S
H1841 C1849 0.930 . S
H1842 C1850 0.930 . S
H1843 C1851 0.930 . S
H1844 C1854 0.930 . S
H1845 C1855 0.930 . S
C1846 H1840 0.930 1_455 S
C1846 C1847 1.355 . S
C1846 C1848 1.415 . S
C1847 C1846 1.355 . S
C1847 C1849 1.419 . S
C1848 C1846 1.415 . S
C1848 C1853 1.425 . S
C1848 C1855 1.409 1_455 S
C1849 H1841 0.930 . S
C1849 C1847 1.419 . S
C1849 C1850 1.362 . S
C1850 H1842 0.930 . S
C1850 C1849 1.362 . S
C1850 C1853 1.409 . S
C1851 H1843 0.930 . S
C1851 C1852 1.355 . S
C1851 C1853 1.415 . S
C1852 C1851 1.355 . S
C1852 C1854 1.419 1_455 S
C1853 C1848 1.425 . S
C1853 C1850 1.409 . S
C1853 C1851 1.415 . S
C1854 H1844 0.930 . S
C1854 C1852 1.419 1_655 S
C1854 C1855 1.362 . S
C1855 H1845 0.930 . S
C1855 C1848 1.409 1_655 S
C1855 C1854 1.362 . S
H1856 C1862 0.930 . S
H1857 C1865 0.930 . S
H1858 C1866 0.930 . S
H1859 C1867 0.930 . S
H1860 C1870 0.930 . S
H1861 C1871 0.930 . S
C1862 H1856 0.930 . S
C1862 C1863 1.355 . S
C1862 C1864 1.415 . S
C1863 C1862 1.355 . S
C1863 C1865 1.419 . S
C1864 C1862 1.415 . S
C1864 C1869 1.425 . S
C1864 C1871 1.409 . S
C1865 H1857 0.930 . S
C1865 C1863 1.419 . S
C1865 C1866 1.362 . S
C1866 H1858 0.930 . S
C1866 C1865 1.362 . S
C1866 C1869 1.409 . S
C1867 H1859 0.930 . S
C1867 C1868 1.355 . S
C1867 C1869 1.415 . S
C1868 C1867 1.355 . S
C1868 C1870 1.419 . S
C1869 C1864 1.425 . S
C1869 C1866 1.409 . S
C1869 C1867 1.415 . S
C1870 H1860 0.930 . S
C1870 C1868 1.419 . S
C1870 C1871 1.362 . S
C1871 H1861 0.930 . S
C1871 C1864 1.409 . S
C1871 C1870 1.362 . S
H1872 C1878 0.930 . S
H1873 C1881 0.930 . S
H1874 C1882 0.930 . S
H1875 C1883 0.930 . S
H1876 C1886 0.930 . S
H1877 C1887 0.930 . S
C1878 H1872 0.930 . S
C1878 C1879 1.355 . S
C1878 C1880 1.415 . S
C1879 C1878 1.355 . S
C1879 C1881 1.419 . S
C1880 C1878 1.415 . S
C1880 C1885 1.425 . S
C1880 C1887 1.409 . S
C1881 H1873 0.930 . S
C1881 C1879 1.419 . S
C1881 C1882 1.362 . S
C1882 H1874 0.930 . S
C1882 C1881 1.362 . S
C1882 C1885 1.409 . S
C1883 H1875 0.930 . S
C1883 C1884 1.355 . S
C1883 C1885 1.415 . S
C1884 C1883 1.355 . S
C1884 C1886 1.419 . S
C1885 C1880 1.425 . S
C1885 C1882 1.409 . S
C1885 C1883 1.415 . S
C1886 H1876 0.930 . S
C1886 C1884 1.419 . S
C1886 C1887 1.362 . S
C1887 H1877 0.930 . S
C1887 C1880 1.409 . S
C1887 C1886 1.362 . S
H1888 C1894 0.930 . S
H1889 C1897 0.930 . S
H1890 C1898 0.930 . S
H1891 C1899 0.930 . S
H1892 C1902 0.930 . S
H1893 C1903 0.930 . S
C1894 H1888 0.930 . S
C1894 C1895 1.355 . S
C1894 C1896 1.415 . S
C1895 C1894 1.355 . S
C1895 C1897 1.419 . S
C1896 C1894 1.415 . S
C1896 C1901 1.425 . S
C1896 C1903 1.409 . S
C1897 H1889 0.930 . S
C1897 C1895 1.419 . S
C1897 C1898 1.362 . S
C1898 H1890 0.930 . S
C1898 C1897 1.362 . S
C1898 C1901 1.409 . S
C1899 H1891 0.930 . S
C1899 C1900 1.355 . S
C1899 C1901 1.415 . S
C1900 C1899 1.355 . S
C1900 C1902 1.419 . S
C1901 C1896 1.425 . S
C1901 C1898 1.409 . S
C1901 C1899 1.415 . S
C1902 H1892 0.930 . S
C1902 C1900 1.419 . S
C1902 C1903 1.362 . S
C1903 H1893 0.930 . S
C1903 C1896 1.409 . S
C1903 C1902 1.362 . S
H1904 C1910 0.930 1_655 S
H1905 C1913 0.930 . S
H1906 C1914 0.930 . S
H1907 C1915 0.930 . S
H1908 C1918 0.930 . S
H1909 C1919 0.930 . S
C1910 H1904 0.930 1_455 S
C1910 C1911 1.355 . S
C1910 C1912 1.415 . S
C1911 C1910 1.355 . S
C1911 C1913 1.419 . S
C1912 C1910 1.415 . S
C1912 C1917 1.425 . S
C1912 C1919 1.409 1_455 S
C1913 H1905 0.930 . S
C1913 C1911 1.419 . S
C1913 C1914 1.362 . S
C1914 H1906 0.930 . S
C1914 C1913 1.362 . S
C1914 C1917 1.409 . S
C1915 H1907 0.930 . S
C1915 C1916 1.355 . S
C1915 C1917 1.415 . S
C1916 C1915 1.355 . S
C1916 C1918 1.419 1_455 S
C1917 C1912 1.425 . S
C1917 C1914 1.409 . S
C1917 C1915 1.415 . S
C1918 H1908 0.930 . S
C1918 C1916 1.419 1_655 S
C1918 C1919 1.362 . S
C1919 H1909 0.930 . S
C1919 C1912 1.409 1_655 S
C1919 C1918 1.362 . S
H1920 C1926 0.930 . S
H1921 C1929 0.930 . S
H1922 C1930 0.930 . S
H1923 C1931 0.930 . S
H1924 C1934 0.930 . S
H1925 C1935 0.930 . S
C1926 H1920 0.930 . S
C1926 C1927 1.355 . S
C1926 C1928 1.415 . S
C1927 C1926 1.355 . S
C1927 C1929 1.419 . S
C1928 C1926 1.415 . S
C1928 C1933 1.425 . S
C1928 C1935 1.409 . S
C1929 H1921 0.930 . S
C1929 C1927 1.419 . S
C1929 C1930 1.362 . S
C1930 H1922 0.930 . S
C1930 C1929 1.362 . S
C1930 C1933 1.409 . S
C1931 H1923 0.930 . S
C1931 C1932 1.355 . S
C1931 C1933 1.415 . S
C1932 C1931 1.355 . S
C1932 C1934 1.419 . S
C1933 C1928 1.425 . S
C1933 C1930 1.409 . S
C1933 C1931 1.415 . S
C1934 H1924 0.930 . S
C1934 C1932 1.419 . S
C1934 C1935 1.362 . S
C1935 H1925 0.930 . S
C1935 C1928 1.409 . S
C1935 C1934 1.362 . S
H1936 C1942 0.930 . S
H1937 C1945 0.930 . S
H1938 C1946 0.930 . S
H1939 C1947 0.930 . S
H1940 C1950 0.930 . S
H1941 C1951 0.930 . S
C1942 H1936 0.930 . S
C1942 C1943 1.355 . S
C1942 C1944 1.415 . S
C1943 C1942 1.355 . S
C1943 C1945 1.419 . S
C1944 C1942 1.415 . S
C1944 C1949 1.425 . S
C1944 C1951 1.409 . S
C1945 H1937 0.930 . S
C1945 C1943 1.419 . S
C1945 C1946 1.362 . S
C1946 H1938 0.930 . S
C1946 C1945 1.362 . S
C1946 C1949 1.409 . S
C1947 H1939 0.930 . S
C1947 C1948 1.355 . S
C1947 C1949 1.415 . S
C1948 C1947 1.355 . S
C1948 C1950 1.419 . S
C1949 C1944 1.425 . S
C1949 C1946 1.409 . S
C1949 C1947 1.415 . S
C1950 H1940 0.930 . S
C1950 C1948 1.419 . S
C1950 C1951 1.362 . S
C1951 H1941 0.930 . S
C1951 C1944 1.409 . S
C1951 C1950 1.362 . S
H1952 C1958 0.930 . S
H1953 C1961 0.930 . S
H1954 C1962 0.930 . S
H1955 C1963 0.930 . S
H1956 C1966 0.930 . S
H1957 C1967 0.930 . S
C1958 H1952 0.930 . S
C1958 C1959 1.355 . S
C1958 C1960 1.415 . S
C1959 C1958 1.355 . S
C1959 C1961 1.419 . S
C1960 C1958 1.415 . S
C1960 C1965 1.425 . S
C1960 C1967 1.409 . S
C1961 H1953 0.930 . S
C1961 C1959 1.419 . S
C1961 C1962 1.362 . S
C1962 H1954 0.930 . S
C1962 C1961 1.362 . S
C1962 C1965 1.409 . S
C1963 H1955 0.930 . S
C1963 C1964 1.355 . S
C1963 C1965 1.415 . S
C1964 C1963 1.355 . S
C1964 C1966 1.419 . S
C1965 C1960 1.425 . S
C1965 C1962 1.409 . S
C1965 C1963 1.415 . S
C1966 H1956 0.930 . S
C1966 C1964 1.419 . S
C1966 C1967 1.362 . S
C1967 H1957 0.930 . S
C1967 C1960 1.409 . S
C1967 C1966 1.362 . S
H1968 C1974 0.930 . S
H1969 C1977 0.930 . S
H1970 C1978 0.930 . S
H1971 C1979 0.937 . S
H1972 C1982 0.930 . S
H1973 C1983 0.930 . S
C1974 H1968 0.930 . S
C1974 C1975 1.355 . S
C1974 C1976 1.415 . S
C1975 C1974 1.355 . S
C1975 C1977 1.419 . S
C1976 C1974 1.415 . S
C1976 C1981 1.425 . S
C1976 C1983 1.409 . S
C1977 H1969 0.930 . S
C1977 C1975 1.419 . S
C1977 C1978 1.362 . S
C1978 H1970 0.930 . S
C1978 C1977 1.362 . S
C1978 C1981 1.409 . S
C1979 H1971 0.937 . S
C1979 C1980 1.355 . S
C1979 C1981 1.415 . S
C1980 C1979 1.355 . S
C1980 C1982 1.419 . S
C1981 C1976 1.425 . S
C1981 C1978 1.409 . S
C1981 C1979 1.415 . S
C1982 H1972 0.930 . S
C1982 C1980 1.419 . S
C1982 C1983 1.362 . S
C1983 H1973 0.930 . S
C1983 C1976 1.409 . S
C1983 C1982 1.362 . S
H1984 C1990 0.930 . S
H1985 C1993 0.930 . S
H1986 C1994 0.930 . S
H1987 C1995 0.930 . S
H1988 C1998 0.930 . S
H1989 C1999 0.930 . S
C1990 H1984 0.930 . S
C1990 C1991 1.355 . S
C1990 C1992 1.415 . S
C1991 C1990 1.355 . S
C1991 C1993 1.419 . S
C1992 C1990 1.415 . S
C1992 C1997 1.425 . S
C1992 C1999 1.409 . S
C1993 H1985 0.930 . S
C1993 C1991 1.419 . S
C1993 C1994 1.362 . S
C1994 H1986 0.930 . S
C1994 C1993 1.362 . S
C1994 C1997 1.409 . S
C1995 H1987 0.930 . S
C1995 C1996 1.355 . S
C1995 C1997 1.415 . S
C1996 C1995 1.355 . S
C1996 C1998 1.419 . S
C1997 C1992 1.425 . S
C1997 C1994 1.409 . S
C1997 C1995 1.415 . S
C1998 H1988 0.930 . S
C1998 C1996 1.419 . S
C1998 C1999 1.362 . S
C1999 H1989 0.930 . S
C1999 C1992 1.409 . S
C1999 C1998 1.362 . S
H2000 C2006 0.930 . S
H2001 C2009 0.930 . S
H2002 C2010 0.930 . S
H2003 C2011 0.930 . S
H2004 C2014 0.930 . S
H2005 C2015 0.930 . S
C2006 H2000 0.930 . S
C2006 C2007 1.355 . S
C2006 C2008 1.415 . S
C2007 C2006 1.355 . S
C2007 C2009 1.419 . S
C2008 C2006 1.415 . S
C2008 C2013 1.425 . S
C2008 C2015 1.409 . S
C2009 H2001 0.930 . S
C2009 C2007 1.419 . S
C2009 C2010 1.362 . S
C2010 H2002 0.930 . S
C2010 C2009 1.362 . S
C2010 C2013 1.409 . S
C2011 H2003 0.930 . S
C2011 C2012 1.355 . S
C2011 C2013 1.415 . S
C2012 C2011 1.355 . S
C2012 C2014 1.419 . S
C2013 C2008 1.425 . S
C2013 C2010 1.409 . S
C2013 C2011 1.415 . S
C2014 H2004 0.930 . S
C2014 C2012 1.419 . S
C2014 C2015 1.362 . S
C2015 H2005 0.930 . S
C2015 C2008 1.409 . S
C2015 C2014 1.362 . S
H2016 C2022 0.930 . S
H2017 C2025 0.930 . S
H2018 C2026 0.930 . S
H2019 C2027 0.930 . S
H2020 C2030 0.930 . S
H2021 C2031 0.930 . S
C2022 H2016 0.930 . S
C2022 C2023 1.355 . S
C2022 C2024 1.415 . S
C2023 C2022 1.355 . S
C2023 C2025 1.419 . S
C2024 C2022 1.415 . S
C2024 C2029 1.425 . S
C2024 C2031 1.409 . S
C2025 H2017 0.930 . S
C2025 C2023 1.419 . S
C2025 C2026 1.362 . S
C2026 H2018 0.930 . S
C2026 C2025 1.362 . S
C2026 C2029 1.409 . S
C2027 H2019 0.930 . S
C2027 C2028 1.355 . S
C2027 C2029 1.415 . S
C2028 C2027 1.355 . S
C2028 C2030 1.419 . S
C2029 C2024 1.425 . S
C2029 C2026 1.409 . S
C2029 C2027 1.415 . S
C2030 H2020 0.930 . S
C2030 C2028 1.419 . S
C2030 C2031 1.362 . S
C2031 H2021 0.930 . S
C2031 C2024 1.409 . S
C2031 C2030 1.362 . S
H2032 C2038 0.930 . S
H2033 C2041 0.930 . S
H2034 C2042 0.930 . S
H2035 C2043 0.930 . S
H2036 C2046 0.930 1_455 S
H2037 C2047 0.930 1_455 S
C2038 H2032 0.930 . S
C2038 C2039 1.355 . S
C2038 C2040 1.415 . S
C2039 C2038 1.355 . S
C2039 C2041 1.419 . S
C2040 C2038 1.415 . S
C2040 C2045 1.425 . S
C2040 C2047 1.409 . S
C2041 H2033 0.930 . S
C2041 C2039 1.419 . S
C2041 C2042 1.362 . S
C2042 H2034 0.930 . S
C2042 C2041 1.362 . S
C2042 C2045 1.409 . S
C2043 H2035 0.930 . S
C2043 C2044 1.355 . S
C2043 C2045 1.415 . S
C2044 C2043 1.355 . S
C2044 C2046 1.419 . S
C2045 C2040 1.425 . S
C2045 C2042 1.409 . S
C2045 C2043 1.415 . S
C2046 H2036 0.930 1_655 S
C2046 C2044 1.419 . S
C2046 C2047 1.362 . S
C2047 H2037 0.930 1_655 S
C2047 C2040 1.409 . S
C2047 C2046 1.362 . S
H2048 C2054 0.930 . S
H2049 C2057 0.930 . S
H2050 C2058 0.930 . S
H2051 C2059 0.930 . S
H2052 C2062 0.930 . S
H2053 C2063 0.930 . S
C2054 H2048 0.930 . S
C2054 C2055 1.355 . S
C2054 C2056 1.415 . S
C2055 C2054 1.355 . S
C2055 C2057 1.419 . S
C2056 C2054 1.415 . S
C2056 C2061 1.425 . S
C2056 C2063 1.409 . S
C2057 H2049 0.930 . S
C2057 C2055 1.419 . S
C2057 C2058 1.362 . S
C2058 H2050 0.930 . S
C2058 C2057 1.362 . S
C2058 C2061 1.409 . S
C2059 H2051 0.930 . S
C2059 C2060 1.355 . S
C2059 C2061 1.415 . S
C2060 C2059 1.355 . S
C2060 C2062 1.419 . S
C2061 C2056 1.425 . S
C2061 C2058 1.409 . S
C2061 C2059 1.415 . S
C2062 H2052 0.930 . S
C2062 C2060 1.419 . S
C2062 C2063 1.362 . S
C2063 H2053 0.930 . S
C2063 C2056 1.409 . S
C2063 C2062 1.362 . S
H2064 C2070 0.930 . S
H2065 C2073 0.930 . S
H2066 C2074 0.930 . S
H2067 C2075 0.930 . S
H2068 C2078 0.930 . S
H2069 C2079 0.930 . S
C2070 H2064 0.930 . S
C2070 C2071 1.355 . S
C2070 C2072 1.415 . S
C2071 C2070 1.355 . S
C2071 C2073 1.419 . S
C2072 C2070 1.415 . S
C2072 C2077 1.425 . S
C2072 C2079 1.409 . S
C2073 H2065 0.930 . S
C2073 C2071 1.419 . S
C2073 C2074 1.362 . S
C2074 H2066 0.930 . S
C2074 C2073 1.362 . S
C2074 C2077 1.409 . S
C2075 H2067 0.930 . S
C2075 C2076 1.355 . S
C2075 C2077 1.415 . S
C2076 C2075 1.355 . S
C2076 C2078 1.419 . S
C2077 C2072 1.425 . S
C2077 C2074 1.409 . S
C2077 C2075 1.415 . S
C2078 H2068 0.930 . S
C2078 C2076 1.419 . S
C2078 C2079 1.362 . S
C2079 H2069 0.930 . S
C2079 C2072 1.409 . S
C2079 C2078 1.362 . S
H2080 C2086 0.930 . S
H2081 C2089 0.930 . S
H2082 C2090 0.930 . S
H2083 C2091 0.930 . S
H2084 C2094 0.930 . S
H2085 C2095 0.952 . S
C2086 H2080 0.930 . S
C2086 C2087 1.355 . S
C2086 C2088 1.415 . S
C2087 C2086 1.355 . S
C2087 C2089 1.419 . S
C2088 C2086 1.415 . S
C2088 C2093 1.425 . S
C2088 C2095 1.409 . S
C2089 H2081 0.930 . S
C2089 C2087 1.419 . S
C2089 C2090 1.362 . S
C2090 H2082 0.930 . S
C2090 C2089 1.362 . S
C2090 C2093 1.409 . S
C2091 H2083 0.930 . S
C2091 C2092 1.355 . S
C2091 C2093 1.415 . S
C2092 C2091 1.355 . S
C2092 C2094 1.419 1_565 S
C2093 C2088 1.425 . S
C2093 C2090 1.409 . S
C2093 C2091 1.415 . S
C2094 H2084 0.930 . S
C2094 C2092 1.419 1_545 S
C2094 C2095 1.362 1_545 S
C2095 H2085 0.952 . S
C2095 C2088 1.409 . S
C2095 C2094 1.362 1_565 S
H2096 C2102 0.930 . S
H2097 C2105 0.930 . S
H2098 C2106 0.930 . S
H2099 C2107 0.930 . S
H2100 C2110 0.930 . S
H2101 C2111 0.930 . S
C2102 H2096 0.930 . S
C2102 C2103 1.355 . S
C2102 C2104 1.415 . S
C2103 C2102 1.355 . S
C2103 C2105 1.419 . S
C2104 C2102 1.415 . S
C2104 C2109 1.425 . S
C2104 C2111 1.409 . S
C2105 H2097 0.930 . S
C2105 C2103 1.419 . S
C2105 C2106 1.362 . S
C2106 H2098 0.930 . S
C2106 C2105 1.362 . S
C2106 C2109 1.409 . S
C2107 H2099 0.930 . S
C2107 C2108 1.355 . S
C2107 C2109 1.415 . S
C2108 C2107 1.355 . S
C2108 C2110 1.419 . S
C2109 C2104 1.425 . S
C2109 C2106 1.409 . S
C2109 C2107 1.415 . S
C2110 H2100 0.930 . S
C2110 C2108 1.419 . S
C2110 C2111 1.362 . S
C2111 H2101 0.930 . S
C2111 C2104 1.409 . S
C2111 C2110 1.362 . S
H2112 C2118 0.930 . S
H2113 C2121 0.930 . S
H2114 C2122 0.930 . S
H2115 C2123 0.930 . S
H2116 C2126 0.930 . S
H2117 C2127 0.930 . S
C2118 H2112 0.930 . S
C2118 C2119 1.355 . S
C2118 C2120 1.415 . S
C2119 C2118 1.355 . S
C2119 C2121 1.419 1_556 S
C2120 C2118 1.415 . S
C2120 C2125 1.425 1_556 S
C2120 C2127 1.409 . S
C2121 H2113 0.930 . S
C2121 C2119 1.419 1_554 S
C2121 C2122 1.362 . S
C2122 H2114 0.930 . S
C2122 C2121 1.362 . S
C2122 C2125 1.409 . S
C2123 H2115 0.930 . S
C2123 C2124 1.355 . S
C2123 C2125 1.415 . S
C2124 C2123 1.355 . S
C2124 C2126 1.418 1_554 S
C2125 C2120 1.425 1_554 S
C2125 C2122 1.409 . S
C2125 C2123 1.415 . S
C2126 H2116 0.930 . S
C2126 C2124 1.418 1_556 S
C2126 C2127 1.362 . S
C2127 H2117 0.930 . S
C2127 C2120 1.409 . S
C2127 C2126 1.362 . S
H2128 C2134 0.930 . S
H2129 C2137 0.930 . S
H2130 C2138 0.930 . S
H2131 C2139 0.930 . S
H2132 C2142 0.930 . S
H2133 C2143 0.930 . S
C2134 H2128 0.930 . S
C2134 C2135 1.355 . S
C2134 C2136 1.415 . S
C2135 C2134 1.355 . S
C2135 C2137 1.419 . S
C2136 C2134 1.415 . S
C2136 C2141 1.425 . S
C2136 C2143 1.409 . S
C2137 H2129 0.930 . S
C2137 C2135 1.419 . S
C2137 C2138 1.362 . S
C2138 H2130 0.930 . S
C2138 C2137 1.362 . S
C2138 C2141 1.409 . S
C2139 H2131 0.930 . S
C2139 C2140 1.355 . S
C2139 C2141 1.415 . S
C2140 C2139 1.355 . S
C2140 C2142 1.419 . S
C2141 C2136 1.425 . S
C2141 C2138 1.409 . S
C2141 C2139 1.415 . S
C2142 H2132 0.930 . S
C2142 C2140 1.419 . S
C2142 C2143 1.362 . S
C2143 H2133 0.930 . S
C2143 C2136 1.409 . S
C2143 C2142 1.362 . S
H2144 C2150 0.930 . S
H2145 C2153 0.930 . S
H2146 C2154 0.930 . S
H2147 C2155 0.930 . S
H2148 C2158 0.930 . S
H2149 C2159 0.930 . S
C2150 H2144 0.930 . S
C2150 C2151 1.355 . S
C2150 C2152 1.415 . S
C2151 C2150 1.355 . S
C2151 C2153 1.419 1_554 S
C2152 C2150 1.415 . S
C2152 C2157 1.425 1_554 S
C2152 C2159 1.409 . S
C2153 H2145 0.930 . S
C2153 C2151 1.419 1_556 S
C2153 C2154 1.362 . S
C2154 H2146 0.930 . S
C2154 C2153 1.362 . S
C2154 C2157 1.409 . S
C2155 H2147 0.930 . S
C2155 C2156 1.355 . S
C2155 C2157 1.415 . S
C2156 C2155 1.355 . S
C2156 C2158 1.419 1_556 S
C2157 C2152 1.425 1_556 S
C2157 C2154 1.409 . S
C2157 C2155 1.415 . S
C2158 H2148 0.930 . S
C2158 C2156 1.419 1_554 S
C2158 C2159 1.362 . S
C2159 H2149 0.930 . S
C2159 C2152 1.409 . S
C2159 C2158 1.362 . S
H2160 C2166 0.930 . S
H2161 C2169 0.930 . S
H2162 C2170 0.930 . S
H2163 C2171 0.930 . S
H2164 C2174 0.930 . S
H2165 C2175 0.930 . S
C2166 H2160 0.930 . S
C2166 C2167 1.355 . S
C2166 C2168 1.415 . S
C2167 C2166 1.355 . S
C2167 C2169 1.419 . S
C2168 C2166 1.415 . S
C2168 C2173 1.425 . S
C2168 C2175 1.409 . S
C2169 H2161 0.930 . S
C2169 C2167 1.419 . S
C2169 C2170 1.362 . S
C2170 H2162 0.930 . S
C2170 C2169 1.362 . S
C2170 C2173 1.409 . S
C2171 H2163 0.930 . S
C2171 C2172 1.355 . S
C2171 C2173 1.415 . S
C2172 C2171 1.355 . S
C2172 C2174 1.419 . S
C2173 C2168 1.425 . S
C2173 C2170 1.409 . S
C2173 C2171 1.415 . S
C2174 H2164 0.930 . S
C2174 C2172 1.419 . S
C2174 C2175 1.362 . S
C2175 H2165 0.930 . S
C2175 C2168 1.409 . S
C2175 C2174 1.362 . S
H2176 C2182 0.930 . S
H2177 C2185 0.930 . S
H2178 C2186 0.930 . S
H2179 C2187 0.930 . S
H2180 C2190 0.930 . S
H2181 C2191 0.930 . S
C2182 H2176 0.930 . S
C2182 C2183 1.355 . S
C2182 C2184 1.415 . S
C2183 C2182 1.355 . S
C2183 C2185 1.419 . S
C2184 C2182 1.415 . S
C2184 C2189 1.425 . S
C2184 C2191 1.409 . S
C2185 H2177 0.930 . S
C2185 C2183 1.419 . S
C2185 C2186 1.362 . S
C2186 H2178 0.930 . S
C2186 C2185 1.362 . S
C2186 C2189 1.409 . S
C2187 H2179 0.930 . S
C2187 C2188 1.355 . S
C2187 C2189 1.415 . S
C2188 C2187 1.355 . S
C2188 C2190 1.419 . S
C2189 C2184 1.425 . S
C2189 C2186 1.409 . S
C2189 C2187 1.415 . S
C2190 H2180 0.930 . S
C2190 C2188 1.419 . S
C2190 C2191 1.362 . S
C2191 H2181 0.930 . S
C2191 C2184 1.409 . S
C2191 C2190 1.362 . S
C663 C111 1.475 . S
C668 C354 1.502 . S
C679 C64 1.628 . S
C684 C365 1.674 . S
C695 C77 1.034 . S
C700 C394 1.020 . S
C716 C397 1.296 . S
C711 C95 1.286 . S
C727 C25 1.435 . S
C732 C435 1.419 . S
C748 C438 1.046 . S
C743 C36 1.089 . S
C764 C465 1.511 . S
C759 C50 1.464 . S
C775 C11 1.572 . S
C780 C494 1.534 . S
C796 C345 1.524 1_655 S
C791 C237 1.385 . S
C807 C245 0.938 . S
C812 C357 0.961 . S
C828 C385 1.476 . S
C823 C279 1.370 . S
C844 C414 1.104 . S
C839 C175 1.149 . S
C855 C231 0.931 . S
C860 C418 0.954 . S
C876 C444 1.503 . S
C871 C251 1.404 . S
C892 C457 0.802 . S
C887 C273 0.799 . S
C908 C485 1.572 . S
C903 C181 1.499 . S
C924 C337 1.448 1_565 S
C919 C165 1.448 . S
C935 C288 1.682 1_556 S
C940 C504 1.723 1_554 S
C956 C535 1.520 . S
C951 C333 1.566 . S
C972 C554 0.962 . S
C967 C316 0.985 . S
C983 C123 1.304 . S
C988 C477 1.285 . S
C999 C137 1.420 . S
C1004 C377 1.381 . S
C1015 C330 1.547 . S
C1020 C565 1.582 . S
C1036 C594 0.892 . S
C1031 C302 0.990 . S
C1052 C355 1.611 . S
C1047 C63 1.666 . S
C1068 C584 1.670 . S
C1063 C106 1.642 . S
C1079 C97 0.984 . S
C1084 C395 1.075 . S
C1095 C81 1.306 . S
C1100 C558 1.302 . S
C1116 C434 1.497 . S
C1111 C13 1.488 . S
C1127 C55 1.022 . S
C1132 C517 1.073 . S
C1148 C464 1.485 . S
C1143 C35 1.481 . S
C1164 C615 1.644 . S
C1159 C21 1.724 . S
C1180 C344 1.595 . S
C1175 C147 1.605 . S
C1196 C578 0.966 . S
C1191 C321 0.923 . S
C1207 C119 1.505 . S
C1212 C384 1.509 . S
C1223 C293 1.206 . S
C1228 C575 1.280 . S
C1239 C153 1.041 1_565 S
C1244 C417 1.112 . S
C1260 C525 1.565 . S
C1255 C315 1.584 . S
C1271 C125 0.729 . S
C1276 C458 0.791 . S
C1287 C287 1.670 . S
C1292 C604 1.661 . S
C1303 C193 1.485 1_556 S
C1308 C338 1.476 . S
C1319 C176 1.712 . S
C1324 C505 1.700 . S
C1335 C263 1.521 . S
C1340 C454 1.447 . S
C1351 C246 1.125 . S
C1356 C555 1.087 . S
C1372 C598 1.361 . S
C1367 C277 1.357 . S
C1383 C221 1.414 . S
C1388 C378 1.424 . S
C1404 C404 1.596 . S
C1399 C260 1.564 . S
C1420 C375 1.070 . S
C1415 C204 1.019 . S
C1431 C83 1.474 . S
C1436 C634 1.478 . S
C1452 C585 1.673 . S
C1447 C92 1.624 . S
C1463 C105 1.013 . S
C1468 C654 0.952 . S
C1479 C67 1.277 . S
C1484 C557 1.255 . S
C1495 C53 1.450 . S
C1500 C515 1.364 . S
C1516 C518 1.045 . S
C1511 C8 1.089 . S
C1532 C545 1.528 . S
C1527 C22 1.484 1_655 S
C1548 C614 1.546 . S
C1543 C39 1.574 . S
C1564 C625 1.504 . S
C1559 C265 1.436 . S
C1575 C189 0.881 . S
C1580 C577 0.893 . S
C1596 C645 1.446 . S
C1591 C209 1.422 . S
C1612 C574 1.117 . S
C1607 C217 1.153 . S
C1628 C498 0.953 . S
C1623 C259 0.957 . S
C1639 C195 1.484 . S
C1644 C524 1.532 . S
C1660 C537 0.850 . S
C1655 C203 0.817 . S
C1671 C223 1.539 . S
C1676 C605 1.551 . S
C1692 C617 1.430 . S
C1687 C319 1.458 . S
C1703 C134 1.685 . S
C1708 C424 1.726 . S
C1724 C455 1.491 . S
C1719 C151 1.570 . S
C1740 C474 0.928 . S
C1735 C162 1.005 . S
C1756 C597 1.277 . S
C1751 C305 1.302 . S
C1767 C291 1.418 . S
C1772 C637 1.374 . S
C1788 C405 1.565 . S
C1783 C148 1.503 . S
C1804 C374 0.998 . S
C1799 C120 0.945 . S
C1815 C91 1.643 . S
C1820 C635 1.615 . S
C1836 C364 1.683 . S
C1831 C78 1.668 . S
C1847 C69 1.023 . S
C1852 C655 1.104 . S
C1863 C109 1.316 . S
C1868 C398 1.309 . S
C1879 C41 1.508 . S
C1884 C514 1.541 . S
C1900 C437 1.047 . S
C1895 C27 1.016 . S
C1911 C7 1.488 . S
C1916 C544 1.461 . S
C1927 C49 1.738 . S
C1932 C495 1.676 . S
C1948 C624 1.595 . S
C1943 C329 1.606 . S
C1959 C167 0.802 . S
C1964 C358 0.878 . S
C1980 C644 1.493 1_655 S
C1975 C301 1.522 . S
C1991 C139 1.244 . S
C1996 C415 1.271 . S
C2007 C335 1.076 . S
C2012 C497 1.110 . S
C2028 C445 1.554 . S
C2023 C161 1.581 . S
C2039 C307 0.881 . S
C2044 C538 0.807 . S
C2060 C484 1.660 . S
C2055 C133 1.670 . S
C2076 C618 1.466 . S
C2071 C249 1.470 . S
C2092 C425 1.700 1_565 S
C2087 C218 1.711 . S
C2103 C235 1.519 . S
C2108 C534 1.444 . S
C2124 C475 1.139 . S
C2119 C190 1.019 1_556 S
C2135 C207 1.341 . S
C2140 C478 1.345 . S
C2151 C179 1.415 . S
C2156 C638 1.408 . S
C2172 C564 1.635 . S
C2167 C232 1.606 . S
C2188 C595 1.080 . S
C2183 C274 0.995 . S
