# Generated by pormake.
# Topology pyr, (3,6)-cn, num edge types: 1
# Building blocks:
#     Node 0, Type 0, BuildingBlock: OLANEW_clean_sbu_2, # of connection points: 3
#     Node 1, Type 0, BuildingBlock: OLANEW_clean_sbu_2, # of connection points: 3
#     Node 2, Type 0, BuildingBlock: OLANEW_clean_sbu_2, # of connection points: 3
#     Node 3, Type 0, BuildingBlock: OLANEW_clean_sbu_2, # of connection points: 3
#     Node 4, Type 0, BuildingBlock: OLANEW_clean_sbu_2, # of connection points: 3
#     Node 5, Type 0, BuildingBlock: OLANEW_clean_sbu_2, # of connection points: 3
#     Node 6, Type 0, BuildingBlock: OLANEW_clean_sbu_2, # of connection points: 3
#     Node 7, Type 0, BuildingBlock: OLANEW_clean_sbu_2, # of connection points: 3
#     Node 8, Type 1, BuildingBlock: BETDAH_clean_sbu_0, # of connection points: 6
#     Node 9, Type 1, BuildingBlock: BETDAH_clean_sbu_0, # of connection points: 6
#     Node 10, Type 1, BuildingBlock: BETDAH_clean_sbu_0, # of connection points: 6
#     Node 11, Type 1, BuildingBlock: BETDAH_clean_sbu_0, # of connection points: 6
#     Edge 12, Type (0, 1), BuildingBlock: XUDNAN_clean_linker_2, # of connection points: 2
#     Edge 13, Type (0, 1), BuildingBlock: XUDNAN_clean_linker_2, # of connection points: 2
#     Edge 14, Type (0, 1), BuildingBlock: XUDNAN_clean_linker_2, # of connection points: 2
#     Edge 15, Type (0, 1), BuildingBlock: XUDNAN_clean_linker_2, # of connection points: 2
#     Edge 16, Type (0, 1), BuildingBlock: XUDNAN_clean_linker_2, # of connection points: 2
#     Edge 17, Type (0, 1), BuildingBlock: XUDNAN_clean_linker_2, # of connection points: 2
#     Edge 18, Type (0, 1), BuildingBlock: XUDNAN_clean_linker_2, # of connection points: 2
#     Edge 19, Type (0, 1), BuildingBlock: XUDNAN_clean_linker_2, # of connection points: 2
#     Edge 20, Type (0, 1), BuildingBlock: XUDNAN_clean_linker_2, # of connection points: 2
#     Edge 21, Type (0, 1), BuildingBlock: XUDNAN_clean_linker_2, # of connection points: 2
#     Edge 22, Type (0, 1), BuildingBlock: XUDNAN_clean_linker_2, # of connection points: 2
#     Edge 23, Type (0, 1), BuildingBlock: XUDNAN_clean_linker_2, # of connection points: 2
#     Edge 24, Type (0, 1), BuildingBlock: XUDNAN_clean_linker_2, # of connection points: 2
#     Edge 25, Type (0, 1), BuildingBlock: XUDNAN_clean_linker_2, # of connection points: 2
#     Edge 26, Type (0, 1), BuildingBlock: XUDNAN_clean_linker_2, # of connection points: 2
#     Edge 27, Type (0, 1), BuildingBlock: XUDNAN_clean_linker_2, # of connection points: 2
#     Edge 28, Type (0, 1), BuildingBlock: XUDNAN_clean_linker_2, # of connection points: 2
#     Edge 29, Type (0, 1), BuildingBlock: XUDNAN_clean_linker_2, # of connection points: 2
#     Edge 30, Type (0, 1), BuildingBlock: XUDNAN_clean_linker_2, # of connection points: 2
#     Edge 31, Type (0, 1), BuildingBlock: XUDNAN_clean_linker_2, # of connection points: 2
#     Edge 32, Type (0, 1), BuildingBlock: XUDNAN_clean_linker_2, # of connection points: 2
#     Edge 33, Type (0, 1), BuildingBlock: XUDNAN_clean_linker_2, # of connection points: 2
#     Edge 34, Type (0, 1), BuildingBlock: XUDNAN_clean_linker_2, # of connection points: 2
#     Edge 35, Type (0, 1), BuildingBlock: XUDNAN_clean_linker_2, # of connection points: 2
# Relax obj value: 0.126
# Max RMSD: 0.167
# Mean RMSD: 0.121
data_MOF--net-pyr--node1-OLANEW_clean_sbu_2--node2-BETDAH_clean_sbu_0--edge1-XUDNAN_clean_linker_2
_symmetry_space_group_name_H-M    P1
_symmetry_Int_Tables_number       1
_symmetry_cell_setting            triclinic
loop_
_symmetry_equiv_pos_as_xyz
'x, y, z'
_cell_length_a     40.573981
_cell_length_b     44.533919
_cell_length_c     39.218076
_cell_angle_alpha  95.699057
_cell_angle_beta   88.071038
_cell_angle_gamma 102.98976
loop_
_atom_site_label
_atom_site_type_symbol
_atom_site_fract_x
_atom_site_fract_y
_atom_site_fract_z
_atom_type_partial_charge
O0 O 0.37154 0.26876 0.13699 0.0
Cd1 Cd 0.35892 0.32061 0.1473 0.0
O2 O 0.34007 0.25817 0.18236 0.0
Cd3 Cd 0.31768 0.23145 0.22431 0.0
O4 O 0.28454 0.213 0.26565 0.0
C5 C 0.26983 0.23151 0.28372 0.0
O6 O 0.27607 0.26066 0.27727 0.0
C7 C 0.35924 0.24981 0.15875 0.0
C8 C 0.305 0.33483 0.114 0.0
O9 O 0.33466 0.33853 0.1004 0.0
O10 O 0.30029 0.32299 0.14276 0.0
O11 O 0.45958 0.98902 0.66447 0.0
Cd12 Cd 0.4715 0.98848 0.60303 0.0
O13 O 0.40641 0.97866 0.64994 0.0
Cd14 Cd 0.35164 0.9713 0.65752 0.0
O15 O 0.29747 0.96901 0.65578 0.0
C16 C 0.28847 0.99124 0.64351 0.0
O17 O 0.31194 1.01422 0.63346 0.0
C18 C 0.42853 0.9826 0.67317 0.0
C19 C 0.46179 0.92645 0.57817 0.0
O20 O 0.49112 0.94229 0.58729 0.0
O21 O 0.43727 0.94034 0.57946 0.0
O22 O 0.68578 0.41061 0.89033 0.0
Cd23 Cd 0.63211 0.39909 0.85524 0.0
O24 O 0.6913 0.3761 0.92671 0.0
Cd25 Cd 0.64876 0.33389 0.93021 0.0
O26 O 0.62096 0.28847 0.94947 0.0
C27 C 0.63895 0.27264 0.96275 0.0
O28 O 0.67181 0.28375 0.96389 0.0
C29 C 0.70264 0.40145 0.91291 0.0
C30 C 0.62322 0.43197 0.79759 0.0
O31 O 0.61348 0.4404 0.82777 0.0
O32 O 0.63832 0.40942 0.79487 0.0
O33 O 0.89812 0.75555 0.3613 0.0
Cd34 Cd 0.86957 0.71549 0.31649 0.0
O35 O 0.86277 0.73646 0.40201 0.0
Cd36 Cd 0.82748 0.69613 0.37751 0.0
O37 O 0.77964 0.6645 0.39023 0.0
C38 C 0.77203 0.6649 0.42202 0.0
O39 O 0.79321 0.68298 0.44394 0.0
C40 C 0.88795 0.75668 0.39245 0.0
C41 C 0.90455 0.67579 0.27683 0.0
O42 O 0.9017 0.70133 0.26602 0.0
O43 O 0.89241 0.66991 0.30668 0.0
O44 O 0.70195 0.74676 0.77388 0.0
Cd45 Cd 0.66349 0.70113 0.79339 0.0
O46 O 0.67892 0.7747 0.81267 0.0
Cd47 Cd 0.67043 0.81646 0.8429 0.0
O48 O 0.66071 0.85507 0.87774 0.0
C49 C 0.63064 0.85568 0.88748 0.0
O50 O 0.60568 0.83309 0.8759 0.0
C51 C 0.70143 0.77302 0.78957 0.0
C52 C 0.70205 0.66938 0.8276 0.0
O53 O 0.69385 0.66104 0.79624 0.0
O54 O 0.69117 0.69207 0.843 0.0
O55 O 0.74122 0.19721 0.4894 0.0
Cd56 Cd 0.78487 0.22423 0.52983 0.0
O57 O 0.76858 0.22368 0.44876 0.0
Cd58 Cd 0.79087 0.26181 0.48608 0.0
O59 O 0.77069 0.29967 0.51179 0.0
C60 C 0.7485 0.29327 0.5352 0.0
O61 O 0.74164 0.26526 0.54532 0.0
C62 C 0.74563 0.20127 0.45779 0.0
C63 C 0.82937 0.18541 0.53336 0.0
O64 O 0.80698 0.18714 0.55688 0.0
O65 O 0.83149 0.20281 0.50889 0.0
O66 O 0.39691 0.78297 0.25964 0.0
Cd67 Cd 0.37323 0.73394 0.28923 0.0
O68 O 0.36365 0.77979 0.21454 0.0
Cd69 Cd 0.32582 0.73453 0.21145 0.0
O70 O 0.28449 0.69507 0.19071 0.0
C71 C 0.25845 0.69992 0.17666 0.0
O72 O 0.25588 0.72866 0.17524 0.0
C73 C 0.38845 0.7945 0.23329 0.0
C74 C 0.4074 0.70258 0.33304 0.0
O75 O 0.40742 0.69734 0.30025 0.0
O76 O 0.39316 0.72421 0.34577 0.0
O77 O 0.14633 0.42724 0.77476 0.0
Cd78 Cd 0.18183 0.4036 0.73222 0.0
O79 O 0.10738 0.38369 0.77585 0.0
Cd80 Cd 0.12488 0.34961 0.73892 0.0
O81 O 0.12259 0.30118 0.71754 0.0
C82 C 0.10274 0.28773 0.69339 0.0
O83 O 0.08411 0.30361 0.67923 0.0
C84 C 0.1185 0.4121 0.78653 0.0
C85 C 0.24122 0.44178 0.70755 0.0
O86 O 0.21404 0.43504 0.68997 0.0
O87 O 0.24012 0.43135 0.73697 0.0
Ho88 Ho 0.01609 0.02347 0.53343 0.0
Ho89 Ho 0.99745 0.99893 0.60357 0.0
C90 C 0.03546 0.06876 0.6012 0.0
C91 C 0.02135 0.04416 0.47398 0.0
C92 C 0.04683 0.06728 0.45731 0.0
C93 C 0.03644 0.08946 0.43981 0.0
C94 C 0.06035 0.11209 0.42461 0.0
C95 C 0.09504 0.11273 0.42649 0.0
C96 C 0.10539 0.0905 0.44406 0.0
C97 C 0.08152 0.06809 0.45953 0.0
C98 C 0.06864 1.01264 0.56716 0.0
C99 C 0.97535 0.95195 0.53565 0.0
C100 C 0.98806 0.96949 0.65811 0.0
C101 C 0.95843 0.95014 0.67375 0.0
C102 C 0.95961 0.94394 0.70793 0.0
C103 C 0.93078 0.92755 0.72395 0.0
C104 C 0.90025 0.91712 0.706 0.0
C105 C 0.89939 0.92292 0.67146 0.0
C106 C 0.92824 0.93941 0.6555 0.0
C107 C 0.95335 0.02903 0.57962 0.0
O108 O 0.02276 0.06666 0.57016 0.0
O109 O 0.03518 0.04365 0.61676 0.0
O110 O 0.03046 0.0188 0.48008 0.0
O111 O 1.0046 0.05516 0.49958 0.0
O112 O 0.07141 0.03432 0.54689 0.0
O113 O 0.03889 0.99661 0.56664 0.0
O114 O 0.97291 0.9569 0.56941 0.0
O115 O 0.99065 0.97395 0.51641 0.0
O116 O 0.98713 0.99854 0.65798 0.0
O117 O 0.99875 0.95815 0.62891 0.0
O118 O 0.95918 0.02887 0.61179 0.0
O119 O 0.9688 1.01115 0.56235 0.0
H120 H 0.00981 0.08931 0.43798 0.0
H121 H 0.0517 0.12881 0.41097 0.0
H122 H 0.13199 0.0907 0.44621 0.0
H123 H 0.09027 0.05151 0.47332 0.0
H124 H 0.9827 0.95217 0.7224 0.0
H125 H 0.9324 0.92306 0.75041 0.0
H126 H 0.8762 0.91546 0.65705 0.0
H127 H 0.92682 0.94429 0.62914 0.0
Ho128 Ho 0.53137 0.04613 0.11423 0.0
Ho129 Ho 0.47338 0.02269 0.07223 0.0
C130 C 0.46308 0.06996 0.13132 0.0
C131 C 0.58113 0.07947 0.15039 0.0
C132 C 0.59122 0.08764 0.18639 0.0
C133 C 0.60477 0.11873 0.1974 0.0
C134 C 0.61696 0.12713 0.23062 0.0
C135 C 0.61609 0.10452 0.25346 0.0
C136 C 0.60156 0.0734 0.24268 0.0
C137 C 0.58916 0.06502 0.20942 0.0
C138 C 0.4946 0.991 0.13445 0.0
C139 C 0.54156 1.00046 0.05137 0.0
C140 C 0.42492 0.99207 0.03275 0.0
C141 C 0.42029 0.98847 0.99538 0.0
C142 C 0.40509 0.95952 0.97892 0.0
C143 C 0.40113 0.95576 0.94334 0.0
C144 C 0.4122 0.98098 0.92363 0.0
C145 C 0.42741 1.00997 0.94036 0.0
C146 C 0.43162 1.01363 0.97581 0.0
C147 C 0.51346 0.07689 0.05248 0.0
O148 O 0.49632 0.07833 0.12953 0.0
O149 O 0.44761 0.04285 0.11686 0.0
O150 O 0.57993 0.05107 0.13766 0.0
O151 O 0.55604 0.09022 0.14046 0.0
O152 O 0.52704 1.00039 0.13499 0.0
O153 O 0.48214 1.0127 0.12541 0.0
O154 O 0.50836 0.99153 0.05309 0.0
O155 O 0.55688 0.02637 0.06877 0.0
O156 O 0.42555 0.01957 0.04804 0.0
O157 O 0.4483 0.97972 0.04388 0.0
O158 O 0.48085 0.07025 0.05175 0.0
O159 O 0.52293 0.05395 0.06149 0.0
H160 H 0.60643 0.13652 0.18006 0.0
H161 H 0.62731 0.15138 0.23831 0.0
H162 H 0.60069 0.05541 0.25956 0.0
H163 H 0.57865 0.04083 0.20154 0.0
H164 H 0.3965 0.93977 0.99356 0.0
H165 H 0.38983 0.933 0.93127 0.0
H166 H 0.43579 0.03001 0.92613 0.0
H167 H 0.44371 0.03619 0.98788 0.0
Ho168 Ho 0.50249 0.52535 0.53756 0.0
Ho169 Ho 0.5063 0.58293 0.58527 0.0
C170 C 0.53868 0.53146 0.61191 0.0
C171 C 0.51715 0.47729 0.50376 0.0
C172 C 0.54165 0.45873 0.51076 0.0
C173 C 0.57594 0.47273 0.51664 0.0
C174 C 0.59827 0.45532 0.52601 0.0
C175 C 0.58667 0.42371 0.53009 0.0
C176 C 0.55249 0.40967 0.52391 0.0
C177 C 0.53023 0.42701 0.51419 0.0
C178 C 0.44671 0.52609 0.57713 0.0
C179 C 0.47726 0.57961 0.50622 0.0
C180 C 0.48877 0.62896 0.62026 0.0
C181 C 0.48166 0.65763 0.60982 0.0
C182 C 0.49886 0.67164 0.58177 0.0
C183 C 0.49097 0.69816 0.57111 0.0
C184 C 0.46536 0.71077 0.58792 0.0
C185 C 0.44777 0.69637 0.61557 0.0
C186 C 0.45595 0.67003 0.62649 0.0
C187 C 0.56269 0.58292 0.54682 0.0
O188 O 0.53865 0.5213 0.57898 0.0
O189 O 0.52279 0.55365 0.62265 0.0
O190 O 0.49155 0.47566 0.52516 0.0
O191 O 0.52974 0.50556 0.49614 0.0
O192 O 0.44571 0.51473 0.54527 0.0
O193 O 0.47703 0.53546 0.5863 0.0
O194 O 0.48159 0.59451 0.5375 0.0
O195 O 0.48496 0.55228 0.49934 0.0
O196 O 0.52023 0.62619 0.61703 0.0
O197 O 0.46704 0.60364 0.6094 0.0
O198 O 0.56291 0.59607 0.57795 0.0
O199 O 0.53259 0.57276 0.53722 0.0
H200 H 0.58547 0.49726 0.51469 0.0
H201 H 0.62443 0.46674 0.53086 0.0
H202 H 0.54301 0.38523 0.52646 0.0
H203 H 0.5039 0.41576 0.50995 0.0
H204 H 0.5183 0.66202 0.56802 0.0
H205 H 0.50469 0.70871 0.54957 0.0
H206 H 0.42814 0.70583 0.62915 0.0
H207 H 0.44211 0.65927 0.64785 0.0
Ho208 Ho 0.99877 0.4996 0.04113 0.0
Ho209 Ho 0.993 0.5668 0.02233 0.0
C210 C 0.05831 0.56248 0.06233 0.0
C211 C 0.02177 0.44969 0.03455 0.0
C212 C 0.05155 0.43968 0.04622 0.0
C213 C 0.08346 0.46017 0.0481 0.0
C214 C 0.11242 0.44948 0.05402 0.0
C215 C 0.11013 0.41814 0.05848 0.0
C216 C 0.078 0.398 0.05851 0.0
C217 C 0.04896 0.40866 0.05221 0.0
C218 C 0.98014 0.53358 0.09705 0.0
C219 C 0.92869 0.5059 1.00801 0.0
C220 C 0.96916 0.61439 0.01371 0.0
C221 C 0.94141 0.6179 0.9922 0.0
C222 C 0.91596 0.63193 1.00683 0.0
C223 C 0.88766 0.6326 0.98776 0.0
C224 C 0.88436 0.61934 0.95358 0.0
C225 C 0.91027 0.60575 0.93887 0.0
C226 C 0.93836 0.60485 0.95803 0.0
C227 C 0.02032 0.53092 0.97462 0.0
O228 O 0.05024 0.53189 0.05413 0.0
O229 O 0.03786 0.58069 0.05634 0.0
O230 O 0.99864 0.45423 0.0575 0.0
O231 O 0.02844 0.471 0.01301 0.0
O232 O 0.9831 0.50507 0.09716 0.0
O233 O 0.98666 0.54115 0.06705 0.0
O234 O 0.94203 0.53606 1.00774 0.0
O235 O 0.94558 0.48643 0.0193 0.0
O236 O 0.99633 0.60873 0.99769 0.0
O237 O 0.95967 0.59715 0.03898 0.0
O238 O 0.03001 0.56094 0.97832 0.0
O239 O 0.99612 0.52259 0.99491 0.0
H240 H 0.08623 0.48423 0.04368 0.0
H241 H 0.13678 0.46563 0.05432 0.0
H242 H 0.07551 0.37372 0.06177 0.0
H243 H 0.02465 0.39244 0.05075 0.0
H244 H 0.91756 0.6417 0.03332 0.0
H245 H 0.86802 0.64286 1.00011 0.0
H246 H 0.90893 0.59578 0.91249 0.0
H247 H 0.95739 0.59346 0.9462 0.0
H248 H 0.25061 0.17245 0.30288 0.0
H249 H 0.23117 0.26456 0.32367 0.0
H250 H 0.18592 0.24467 0.36465 0.0
H251 H 0.16572 0.13162 0.30406 0.0
H252 H 0.17381 0.09957 0.32457 0.0
H253 H 0.20627 0.12142 0.29874 0.0
H254 H 0.24741 0.13246 0.34994 0.0
H255 H 0.21508 0.11051 0.37592 0.0
H256 H 0.23489 0.14995 0.39031 0.0
H257 H 0.14009 0.21403 0.40012 0.0
H258 H 0.09848 0.17502 0.4293 0.0
H259 H 0.14842 0.10333 0.38566 0.0
C260 C 0.23714 0.18855 0.31634 0.0
C261 C 0.24441 0.22006 0.31004 0.0
C262 C 0.22607 0.24032 0.32808 0.0
C263 C 0.20033 0.22926 0.35143 0.0
C264 C 0.19343 0.19795 0.3566 0.0
C265 C 0.21147 0.17793 0.33978 0.0
C266 C 0.19834 0.14515 0.34905 0.0
C267 C 0.18525 0.12316 0.31721 0.0
C268 C 0.22555 0.13387 0.3674 0.0
C269 C 0.1697 0.14977 0.37324 0.0
C270 C 0.1673 0.18039 0.37734 0.0
C271 C 0.14189 0.19003 0.39736 0.0
C272 C 0.11828 0.16774 0.41363 0.0
C273 C 0.12038 0.13627 0.4098 0.0
C274 C 0.14656 0.12732 0.38947 0.0
H275 H 0.46489 1.01046 0.72961 0.0
H276 H 0.37159 0.94567 0.6989 0.0
H277 H 0.35622 0.93956 0.75955 0.0
H278 H 0.48232 0.969 0.79776 0.0
H279 H 0.50003 1.00328 0.82536 0.0
H280 H 0.50256 1.00424 0.77954 0.0
H281 H 0.473 0.05044 0.78458 0.0
H282 H 0.47045 0.04965 0.83044 0.0
H283 H 0.43264 0.04681 0.80634 0.0
H284 H 0.35157 0.93977 0.82375 0.0
H285 H 0.35836 0.94582 0.88654 0.0
H286 H 0.45659 1.00765 0.87491 0.0
C287 C 0.44105 0.99525 0.73568 0.0
C288 C 0.41877 0.97951 0.70953 0.0
C289 C 0.38818 0.95928 0.71846 0.0
C290 C 0.37948 0.95526 0.75288 0.0
C291 C 0.40187 0.97134 0.77804 0.0
C292 C 0.4321 0.99082 0.76987 0.0
C293 C 0.45227 1.00451 0.80167 0.0
C294 C 0.4863 0.99465 0.80103 0.0
C295 C 0.45738 0.03995 0.80601 0.0
C296 C 0.4287 0.98961 0.82899 0.0
C297 C 0.39972 0.97064 0.81488 0.0
C298 C 0.37423 0.95448 0.8351 0.0
C299 C 0.37844 0.95789 0.87074 0.0
C300 C 0.40803 0.97718 0.8858 0.0
C301 C 0.43344 0.99308 0.8644 0.0
H302 H 0.5844 0.47582 0.7921 0.0
H303 H 0.64545 0.42099 0.73196 0.0
H304 H 0.63207 0.44195 0.67959 0.0
H305 H 0.51881 0.46634 0.73015 0.0
H306 H 0.51229 0.50514 0.73837 0.0
H307 H 0.52772 0.48715 0.77183 0.0
H308 H 0.57968 0.53306 0.77929 0.0
H309 H 0.56437 0.55122 0.74586 0.0
H310 H 0.60628 0.54376 0.74271 0.0
H311 H 0.6105 0.46674 0.63303 0.0
H312 H 0.5828 0.49417 0.59532 0.0
H313 H 0.53499 0.53427 0.68379 0.0
C314 C 0.59527 0.4685 0.76797 0.0
C315 C 0.61624 0.44668 0.76647 0.0
C316 C 0.6295 0.4376 0.73413 0.0
C317 C 0.62201 0.44943 0.70408 0.0
C318 C 0.60113 0.47054 0.70638 0.0
C319 C 0.58796 0.48014 0.73745 0.0
C320 C 0.56547 0.50257 0.73229 0.0
C321 C 0.5289 0.48951 0.74385 0.0
C322 C 0.57981 0.53456 0.75117 0.0
C323 C 0.56786 0.50382 0.69351 0.0
C324 C 0.58868 0.48512 0.67925 0.0
C325 C 0.59434 0.48159 0.644 0.0
C326 C 0.57832 0.49735 0.62268 0.0
C327 C 0.55664 0.51668 0.63627 0.0
C328 C 0.55162 0.52004 0.67241 0.0
H329 H 0.92573 0.67717 0.20877 0.0
H330 H 0.91655 0.6218 0.29518 0.0
H331 H 0.93657 0.5811 0.25876 0.0
H332 H 0.89668 0.61492 0.1453 0.0
H333 H 0.92585 0.62989 0.11214 0.0
H334 H 0.91286 0.65607 0.14516 0.0
H335 H 0.97552 0.67965 0.16057 0.0
H336 H 0.98865 0.65364 0.1274 0.0
H337 H 1.00229 0.6546 0.17084 0.0
H338 H 0.95376 0.54499 0.21316 0.0
H339 H 0.96961 0.51587 0.16098 0.0
H340 H 0.96968 0.59381 0.10281 0.0
C341 C 0.92843 0.65669 0.22014 0.0
C342 C 0.91957 0.65281 0.25503 0.0
C343 C 0.92316 0.62545 0.26869 0.0
C344 C 0.93453 0.60213 0.24816 0.0
C345 C 0.94243 0.6064 0.21389 0.0
C346 C 0.93986 0.63302 0.19989 0.0
C347 C 0.94929 0.63109 0.16191 0.0
C348 C 0.91938 0.63311 0.13983 0.0
C349 C 0.98081 0.65624 0.15477 0.0
C350 C 0.95692 0.59901 0.15678 0.0
C351 C 0.95281 0.58536 0.18725 0.0
C352 C 0.95731 0.55553 0.18921 0.0
C353 C 0.96624 0.53913 0.15932 0.0
C354 C 0.97075 0.55244 0.12768 0.0
C355 C 0.96624 0.58295 0.12649 0.0
H356 H 0.42051 0.23663 0.1409 0.0
H357 H 0.319 0.19446 0.17375 0.0
H358 H 0.33537 0.14421 0.17396 0.0
H359 H 0.43479 0.17188 0.08475 0.0
H360 H 0.47864 0.1777 0.09593 0.0
H361 H 0.45877 0.21017 0.09848 0.0
H362 H 0.47627 0.22361 0.1621 0.0
H363 H 0.49595 0.19099 0.15974 0.0
H364 H 0.46396 0.19465 0.19192 0.0
H365 H 0.36228 0.09784 0.16756 0.0
H366 H 0.39786 0.0594 0.15584 0.0
H367 H 0.48255 0.13263 0.1305 0.0
C368 C 0.40173 0.21676 0.14802 0.0
C369 C 0.36857 0.21944 0.15765 0.0
C370 C 0.34472 0.19303 0.16698 0.0
C371 C 0.35375 0.16437 0.16699 0.0
C372 C 0.38682 0.16259 0.15787 0.0
C373 C 0.41048 0.18811 0.14863 0.0
C374 C 0.44435 0.18007 0.14002 0.0
C375 C 0.45472 0.18526 0.10258 0.0
C376 C 0.47174 0.19842 0.16494 0.0
C377 C 0.43596 0.14596 0.14543 0.0
C378 C 0.40262 0.13625 0.15558 0.0
C379 C 0.38854 0.10528 0.16009 0.0
C380 C 0.40892 0.08362 0.15347 0.0
C381 C 0.44309 0.09312 0.14296 0.0
C382 C 0.4568 0.12479 0.13947 0.0
H383 H 0.2618 0.03317 0.61348 0.0
H384 H 0.23334 0.94759 0.66232 0.0
H385 H 0.17315 0.94531 0.65129 0.0
H386 H 0.18899 0.06477 0.64351 0.0
H387 H 0.18606 0.08117 0.60381 0.0
H388 H 0.22651 0.07722 0.61804 0.0
H389 H 0.23503 0.04575 0.56042 0.0
H390 H 0.19463 0.04954 0.54608 0.0
H391 H 0.20339 1.01166 0.54666 0.0
H392 H 0.11624 0.95098 0.63183 0.0
H393 H 0.0675 0.96394 0.6049 0.0
H394 H 0.13387 0.04542 0.56872 0.0
C395 C 0.24294 1.01413 0.62229 0.0
C396 C 0.25228 0.99059 0.63884 0.0
C397 C 0.22677 0.96593 0.64965 0.0
C398 C 0.19252 0.96446 0.64356 0.0
C399 C 0.18425 0.98788 0.62676 0.0
C400 C 0.20875 1.01229 0.61638 0.0
C401 C 0.19349 0.03372 0.59737 0.0
C402 C 0.1991 0.06613 0.61686 0.0
C403 C 0.20746 0.03523 0.56045 0.0
C404 C 0.15663 0.01724 0.59803 0.0
C405 C 0.15169 0.99101 0.61538 0.0
C406 C 0.11978 0.97159 0.61841 0.0
C407 C 0.0923 0.97909 0.60305 0.0
C408 C 0.09707 1.00562 0.58479 0.0
C409 C 0.12956 0.02502 0.5826 0.0
H410 H 0.75223 0.38691 0.9518 0.0
H411 H 0.72961 0.46142 0.8997 0.0
H412 H 0.7839 0.49511 0.91881 0.0
H413 H 0.79367 0.43436 0.02503 0.0
H414 H 0.82567 0.41245 0.02777 0.0
H415 H 0.78488 0.39374 1.01029 0.0
H416 H 0.81369 0.37544 0.95464 0.0
H417 H 0.85458 0.39404 0.97199 0.0
H418 H 0.84231 0.40353 0.93134 0.0
H419 H 0.83951 0.5215 0.94448 0.0
H420 H 0.89451 0.53851 0.97226 0.0
H421 H 0.88451 0.44716 1.00711 0.0
C422 C 0.75866 0.41031 0.94438 0.0
C423 C 0.73622 0.42137 0.92415 0.0
C424 C 0.74603 0.45217 0.91499 0.0
C425 C 0.77692 0.4716 0.92584 0.0
C426 C 0.79822 0.46004 0.94573 0.0
C427 C 0.78976 0.43006 0.95475 0.0
C428 C 0.81782 0.4235 0.97591 0.0
C429 C 0.80472 0.41554 1.01189 0.0
C430 C 0.83299 0.39759 0.95736 0.0
C431 C 0.84324 0.45455 0.97751 0.0
C432 C 0.8311 0.47521 0.96001 0.0
C433 C 0.84929 0.50545 0.9581 0.0
C434 C 0.88073 0.51491 0.97422 0.0
C435 C 0.89438 0.49431 0.99214 0.0
C436 C 0.87512 0.46357 0.99368 0.0
H437 H 0.74876 0.66295 0.48829 0.0
H438 H 0.72104 0.62605 0.38398 0.0
H439 H 0.66554 0.59806 0.40507 0.0
H440 H 0.70668 0.59438 0.52985 0.0
H441 H 0.69374 0.61688 0.56654 0.0
H442 H 0.73196 0.63218 0.54339 0.0
H443 H 0.70967 0.68097 0.53442 0.0
H444 H 0.67143 0.66583 0.5575 0.0
H445 H 0.66917 0.6765 0.51463 0.0
H446 H 0.61159 0.57665 0.43753 0.0
H447 H 0.56381 0.56408 0.47838 0.0
H448 H 0.6274 0.61478 0.56126 0.0
C449 C 0.73124 0.64872 0.46982 0.0
C450 C 0.73935 0.64666 0.43442 0.0
C451 C 0.71548 0.62794 0.41121 0.0
C452 C 0.6839 0.61192 0.42297 0.0
C453 C 0.67664 0.61475 0.45802 0.0
C454 C 0.69972 0.63263 0.4811 0.0
C455 C 0.68533 0.63296 0.51726 0.0
C456 C 0.70564 0.61822 0.54063 0.0
C457 C 0.68381 0.66602 0.53179 0.0
C458 C 0.65027 0.6129 0.51092 0.0
C459 C 0.64579 0.60242 0.47663 0.0
C460 C 0.61497 0.58449 0.46446 0.0
C461 C 0.588 0.57742 0.48785 0.0
C462 C 0.592 0.5883 0.52298 0.0
C463 C 0.62369 0.60593 0.53461 0.0
H464 H 0.23931 0.33153 0.13695 0.0
H465 H 0.30934 0.36402 0.05539 0.0
H466 H 0.26637 0.38707 0.03155 0.0
H467 H 0.16249 0.31327 0.08447 0.0
H468 H 0.13671 0.32607 0.11876 0.0
H469 H 0.17224 0.3104 0.12838 0.0
H470 H 0.19658 0.36032 0.16751 0.0
H471 H 0.16128 0.37621 0.15784 0.0
H472 H 0.20387 0.39732 0.15023 0.0
H473 H 0.21791 0.41007 0.019 0.0
H474 H 0.16538 0.4289 0.0164 0.0
H475 H 0.12552 0.38072 0.10494 0.0
C476 C 0.24543 0.34307 0.11378 0.0
C477 C 0.27778 0.34589 0.09803 0.0
C478 C 0.28479 0.36142 0.06789 0.0
C479 C 0.26053 0.37466 0.05415 0.0
C480 C 0.2292 0.37199 0.07063 0.0
C481 C 0.22138 0.35631 0.09956 0.0
C482 C 0.18601 0.35751 0.11269 0.0
C483 C 0.163 0.32487 0.11096 0.0
C484 C 0.18701 0.37381 0.14923 0.0
C485 C 0.17545 0.37677 0.08697 0.0
C486 C 0.20083 0.38487 0.06298 0.0
C487 C 0.19774 0.40366 0.03746 0.0
C488 C 0.16792 0.41441 0.03633 0.0
C489 C 0.14142 0.40631 0.06047 0.0
C490 C 0.14523 0.38703 0.08597 0.0
H491 H 0.57084 0.24207 0.97182 0.0
H492 H 0.67405 0.23372 0.98603 0.0
H493 H 0.65286 0.18418 1.0101 0.0
H494 H 0.53638 0.20837 0.05041 0.0
H495 H 0.49679 0.18802 0.03142 0.0
H496 H 0.51975 0.22335 0.01522 0.0
H497 H 0.51934 0.1945 0.95442 0.0
H498 H 0.49669 0.15914 0.9708 0.0
H499 H 0.53621 0.16017 0.94803 0.0
H500 H 0.62185 0.13556 0.03273 0.0
H501 H 0.58206 0.09013 0.05255 0.0
H502 H 0.49754 0.12748 0.02527 0.0
C503 C 0.58894 0.22977 0.97995 0.0
C504 C 0.62433 0.24219 0.97684 0.0
C505 C 0.64694 0.22514 0.98799 0.0
C506 C 0.63515 0.19677 1.0018 0.0
C507 C 0.60042 0.18529 1.00462 0.0
C508 C 0.57749 0.2011 0.99411 0.0
C509 C 0.5414 0.18305 1.00032 0.0
C510 C 0.52247 0.20183 0.02587 0.0
C511 C 0.52228 0.17366 0.96637 0.0
C512 C 0.54787 0.15477 0.01577 0.0
C513 C 0.58221 0.15675 0.01794 0.0
C514 C 0.59489 0.13373 0.03113 0.0
C515 C 0.57201 0.10791 0.04233 0.0
C516 C 0.53663 0.105 0.0404 0.0
C517 C 0.52444 0.12894 0.02701 0.0
H518 H 0.925 0.8159 0.38235 0.0
H519 H 0.88537 0.7554 0.46151 0.0
H520 H 0.90422 0.79834 0.50582 0.0
H521 H 0.9995 0.86139 0.43088 0.0
H522 H 0.99657 0.8973 0.41499 0.0
H523 H 0.98227 0.86122 0.38907 0.0
H524 H 0.92355 0.87405 0.3841 0.0
H525 H 0.93755 0.90999 0.41031 0.0
H526 H 0.90034 0.88245 0.42254 0.0
H527 H 0.92326 0.84779 0.54166 0.0
H528 H 0.94499 0.90083 0.56757 0.0
H529 H 0.97325 0.93095 0.46645 0.0
C530 C 0.92099 0.81158 0.40902 0.0
C531 C 0.90372 0.78213 0.41836 0.0
C532 C 0.89843 0.77765 0.4536 0.0
C533 C 0.90906 0.80194 0.47906 0.0
C534 C 0.92506 0.8308 0.46909 0.0
C535 C 0.93138 0.83581 0.43502 0.0
C536 C 0.94816 0.86958 0.43166 0.0
C537 C 0.98374 0.87254 0.41571 0.0
C538 C 0.92607 0.88491 0.41092 0.0
C539 C 0.94981 0.88263 0.46908 0.0
C540 C 0.93632 0.85973 0.4901 0.0
C541 C 0.93417 0.86592 0.52551 0.0
C542 C 0.94651 0.89627 0.53999 0.0
C543 C 0.96096 0.92029 0.51919 0.0
C544 C 0.96244 0.91323 0.48316 0.0
H545 H 0.50898 0.89094 0.57224 0.0
H546 H 0.40117 0.88539 0.56583 0.0
H547 H 0.39071 0.82834 0.56033 0.0
H548 H 0.51087 0.81982 0.51283 0.0
H549 H 0.54221 0.80976 0.53833 0.0
H550 H 0.54152 0.84985 0.53603 0.0
H551 H 0.53756 0.85757 0.60232 0.0
H552 H 0.53795 0.81758 0.60482 0.0
H553 H 0.50374 0.83313 0.62438 0.0
H554 H 0.39136 0.77263 0.56481 0.0
H555 H 0.40352 0.72249 0.57608 0.0
H556 H 0.51081 0.7645 0.5784 0.0
C557 C 0.48325 0.87775 0.5687 0.0
C558 C 0.45591 0.89261 0.56938 0.0
C559 C 0.42255 0.87451 0.56515 0.0
C560 C 0.41635 0.84208 0.56198 0.0
C561 C 0.44382 0.82815 0.56259 0.0
C562 C 0.47666 0.84542 0.56534 0.0
C563 C 0.50147 0.82503 0.56828 0.0
C564 C 0.52543 0.82619 0.537 0.0
C565 C 0.52132 0.83386 0.60195 0.0
C566 C 0.47734 0.79376 0.56834 0.0
C567 C 0.44421 0.79594 0.56464 0.0
C568 C 0.41724 0.77052 0.567 0.0
C569 C 0.42433 0.74224 0.57362 0.0
C570 C 0.45808 0.7397 0.57778 0.0
C571 C 0.48484 0.76568 0.5745 0.0
H572 H 0.73605 0.78272 0.72925 0.0
H573 H 0.72874 0.82373 0.83347 0.0
H574 H 0.77592 0.86714 0.82189 0.0
H575 H 0.82472 0.79903 0.72562 0.0
H576 H 0.82826 0.80704 0.68133 0.0
H577 H 0.79112 0.78115 0.6963 0.0
H578 H 0.75321 0.8146 0.67416 0.0
H579 H 0.79026 0.84053 0.6589 0.0
H580 H 0.76111 0.85538 0.688 0.0
H581 H 0.8268 0.90386 0.80053 0.0
H582 H 0.87733 0.93165 0.77066 0.0
H583 H 0.85325 0.86567 0.68099 0.0
C584 C 0.74393 0.8012 0.7494 0.0
C585 C 0.72777 0.80043 0.7819 0.0
C586 C 0.7394 0.82459 0.80788 0.0
C587 C 0.7666 0.84916 0.80167 0.0
C588 C 0.78205 0.84912 0.76941 0.0
C589 C 0.77112 0.82582 0.74366 0.0
C590 C 0.79345 0.83024 0.71198 0.0
C591 C 0.81039 0.80273 0.70332 0.0
C592 C 0.7733 0.8355 0.68146 0.0
C593 C 0.81903 0.85935 0.72418 0.0
C594 C 0.81188 0.86996 0.75731 0.0
C595 C 0.83256 0.89587 0.77452 0.0
C596 C 0.86135 0.91135 0.75744 0.0
C597 C 0.8693 0.90081 0.72352 0.0
C598 C 0.84763 0.87454 0.70672 0.0
H599 H 0.75007 0.20278 0.3882 0.0
H600 H 0.69067 0.1542 0.46831 0.0
H601 H 0.6518 0.12261 0.42459 0.0
H602 H 0.68161 0.20735 0.33751 0.0
H603 H 0.70293 0.20142 0.29717 0.0
H604 H 0.72707 0.21888 0.33453 0.0
H605 H 0.76237 0.17678 0.32688 0.0
H606 H 0.73847 0.15929 0.28933 0.0
H607 H 0.74103 0.13649 0.32423 0.0
H608 H 0.6177 0.09827 0.37199 0.0
H609 H 0.59198 0.08261 0.31483 0.0
H610 H 0.67499 0.14659 0.26991 0.0
C611 C 0.72909 0.18533 0.39662 0.0
C612 C 0.72342 0.18098 0.43169 0.0
C613 C 0.69558 0.15791 0.44156 0.0
C614 C 0.67335 0.13986 0.41693 0.0
C615 C 0.67947 0.14507 0.3826 0.0
C616 C 0.7068 0.16712 0.37246 0.0
C617 C 0.7074 0.16877 0.33413 0.0
C618 C 0.70458 0.20102 0.32534 0.0
C619 C 0.7392 0.15978 0.31768 0.0
C620 C 0.67583 0.14455 0.32429 0.0
C621 C 0.66008 0.13101 0.3525 0.0
C622 C 0.62999 0.10852 0.34967 0.0
C623 C 0.61565 0.09969 0.3171 0.0
C624 C 0.6314 0.11342 0.28788 0.0
C625 C 0.66202 0.13595 0.29173 0.0
H626 H 0.41348 0.70702 0.40475 0.0
H627 H 0.43243 0.65199 0.31142 0.0
H628 H 0.4513 0.61585 0.34566 0.0
H629 H 0.4869 0.69621 0.45172 0.0
H630 H 0.46485 0.69392 0.49239 0.0
H631 H 0.4533 0.71641 0.46087 0.0
H632 H 0.39145 0.6851 0.46364 0.0
H633 H 0.40306 0.66244 0.49496 0.0
H634 H 0.38264 0.64349 0.45597 0.0
H635 H 0.46518 0.58374 0.38876 0.0
H636 H 0.47822 0.55939 0.43842 0.0
H637 H 0.45378 0.6347 0.5065 0.0
C638 C 0.42194 0.68753 0.39153 0.0
C639 C 0.42134 0.68258 0.35503 0.0
C640 C 0.43258 0.65662 0.33905 0.0
C641 C 0.44332 0.63577 0.35838 0.0
C642 C 0.44317 0.64101 0.39401 0.0
C643 C 0.43325 0.66641 0.41063 0.0
C644 C 0.43598 0.66625 0.44947 0.0
C645 C 0.4618 0.6949 0.46449 0.0
C646 C 0.40121 0.66419 0.46704 0.0
C647 C 0.4486 0.63666 0.45183 0.0
C648 C 0.45226 0.62256 0.41936 0.0
C649 C 0.46265 0.5947 0.41431 0.0
C650 C 0.46989 0.58091 0.44296 0.0
C651 C 0.46713 0.59483 0.47681 0.0
C652 C 0.45623 0.62328 0.48115 0.0
H653 H 0.13447 0.47143 0.821 0.0
H654 H 0.05765 0.38559 0.8141 0.0
H655 H 0.0252 0.4072 0.86036 0.0
H656 H 0.13099 0.48648 0.91288 0.0
H657 H 0.13629 0.52776 0.91289 0.0
H658 H 0.15388 0.50622 0.87838 0.0
H659 H 0.1212 0.52771 0.83438 0.0
H660 H 0.10358 0.54938 0.86877 0.0
H661 H 0.07597 0.52279 0.83886 0.0
H662 H 1.00145 0.43633 0.90808 0.0
H663 H 0.98646 0.47272 0.95413 0.0
H664 H 0.07696 0.5412 0.93162 0.0
C665 C 0.11072 0.45728 0.82907 0.0
C666 C 0.09878 0.42667 0.81366 0.0
C667 C 0.06757 0.409 0.82525 0.0
C668 C 0.04882 0.42107 0.85163 0.0
C669 C 0.06136 0.45101 0.86641 0.0
C670 C 0.09144 0.46907 0.85558 0.0
C671 C 0.0989 0.50056 0.87638 0.0
C672 C 0.13198 0.50554 0.89632 0.0
C673 C 0.09997 0.52666 0.85321 0.0
C674 C 0.06837 0.49717 0.90053 0.0
C675 C 0.04721 0.46826 0.8942 0.0
C676 C 0.01773 0.45908 0.91323 0.0
C677 C 0.00948 0.47993 0.93944 0.0
C678 C 0.03053 0.50978 0.94658 0.0
C679 C 0.06035 0.51856 0.92669 0.0
H680 H 0.5692 0.86374 0.91343 0.0
H681 H 0.67686 0.90498 0.9176 0.0
H682 H 0.66575 0.9466 0.95979 0.0
H683 H 0.54106 0.93562 0.92036 0.0
H684 H 0.5047 0.92127 0.9466 0.0
H685 H 0.52109 0.89497 0.91633 0.0
H686 H 0.52712 0.86144 0.96515 0.0
H687 H 0.51084 0.88768 0.99557 0.0
H688 H 0.55134 0.87915 1.00249 0.0
H689 H 0.64303 0.98332 1.00218 0.0
H690 H 0.61021 1.01286 0.04119 0.0
H691 H 0.51744 0.94755 1.00928 0.0
C692 C 0.59047 0.88155 0.9231 0.0
C693 C 0.62393 0.88106 0.91218 0.0
C694 C 0.65101 0.90484 0.92554 0.0
C695 C 0.64497 0.92859 0.94953 0.0
C696 C 0.61171 0.92827 0.95987 0.0
C697 C 0.5849 0.90543 0.94702 0.0
C698 C 0.55158 0.91034 0.9625 0.0
C699 C 0.52824 0.91589 0.93479 0.0
C700 C 0.53421 0.88303 0.98263 0.0
C701 C 0.56388 0.93941 0.98622 0.0
C702 C 0.59863 0.94941 0.98428 0.0
C703 C 0.61579 0.97574 1.00388 0.0
C704 C 0.59692 0.99234 0.02599 0.0
C705 C 0.56126 0.98253 0.02834 0.0
C706 C 0.54466 0.95566 1.00814 0.0
H707 H 0.85093 0.16276 0.58887 0.0
H708 H 0.85556 0.15663 0.47781 0.0
H709 H 0.88724 0.11517 0.47729 0.0
H710 H 0.93629 0.1514 0.59883 0.0
H711 H 0.92506 0.12974 0.63556 0.0
H712 H 0.90265 0.15886 0.62729 0.0
H713 H 0.84577 0.1184 0.62758 0.0
H714 H 0.86776 0.08904 0.63588 0.0
H715 H 0.8405 0.08319 0.59933 0.0
H716 H 0.91397 0.07126 0.48898 0.0
H717 H 0.94088 0.03309 0.51231 0.0
H718 H 0.92351 0.07151 0.61558 0.0
C719 C 0.85882 0.15278 0.56449 0.0
C720 C 0.85072 0.16266 0.53337 0.0
C721 C 0.8617 0.14939 0.50193 0.0
C722 C 0.87951 0.12576 0.50138 0.0
C723 C 0.88669 0.11619 0.53252 0.0
C724 C 0.87732 0.12973 0.56352 0.0
C725 C 0.88911 0.11591 0.59336 0.0
C726 C 0.91481 0.14043 0.61504 0.0
C727 C 0.85898 0.10073 0.61532 0.0
C728 C 0.90581 0.09195 0.5743 0.0
C729 C 0.90391 0.09227 0.53923 0.0
C730 C 0.91625 0.07123 0.51639 0.0
C731 C 0.93156 0.04974 0.52981 0.0
C732 C 0.93499 0.04997 0.56561 0.0
C733 C 0.92159 0.07111 0.58805 0.0
H734 H 0.19892 0.70353 0.14755 0.0
H735 H 0.25678 0.63723 0.17048 0.0
H736 H 0.21244 0.59465 0.14358 0.0
H737 H 0.11647 0.65626 0.16407 0.0
H738 H 0.09668 0.66963 0.12984 0.0
H739 H 0.13292 0.69451 0.15096 0.0
H740 H 0.16404 0.70068 0.09242 0.0
H741 H 0.12793 0.67577 0.07114 0.0
H742 H 0.16898 0.66666 0.06556 0.0
H743 H 0.16083 0.55895 0.11293 0.0
H744 H 0.10731 0.53416 0.0832 0.0
H745 H 0.08392 0.62439 0.08104 0.0
C746 C 0.20237 0.68008 0.14704 0.0
C747 C 0.23154 0.67387 0.16123 0.0
C748 C 0.23476 0.64271 0.1599 0.0
C749 C 0.20967 0.61833 0.1446 0.0
C750 C 0.18133 0.62535 0.13074 0.0
C751 C 0.17758 0.65554 0.13199 0.0
C752 C 0.14484 0.65712 0.11542 0.0
C753 C 0.12134 0.67015 0.14164 0.0
C754 C 0.15188 0.67619 0.08429 0.0
C755 C 0.13068 0.62315 0.1045 0.0
C756 C 0.15201 0.6051 0.11347 0.0
C757 C 0.14402 0.57298 0.10586 0.0
C758 C 0.11351 0.55906 0.08885 0.0
C759 C 0.09116 0.57715 0.07956 0.0
C760 C 0.10021 0.60968 0.08761 0.0
H761 H 0.25953 0.44946 0.64016 0.0
H762 H 0.29594 0.47451 0.74415 0.0
H763 H 0.35082 0.50236 0.72186 0.0
H764 H 0.33601 0.43355 0.60532 0.0
H765 H 0.33261 0.44835 0.56475 0.0
H766 H 0.29499 0.4332 0.58878 0.0
H767 H 0.2761 0.48494 0.5878 0.0
H768 H 0.31372 0.50026 0.56373 0.0
H769 H 0.30422 0.52067 0.60356 0.0
H770 H 0.40252 0.52558 0.68846 0.0
H771 H 0.44858 0.53985 0.64635 0.0
H772 H 0.38002 0.49794 0.56359 0.0
C773 C 0.27885 0.46131 0.65824 0.0
C774 C 0.27331 0.46011 0.69397 0.0
C775 C 0.29954 0.47524 0.71673 0.0
C776 C 0.33077 0.4912 0.7043 0.0
C777 C 0.33558 0.49164 0.66897 0.0
C778 C 0.31044 0.47697 0.64621 0.0
C779 C 0.32307 0.47903 0.60942 0.0
C780 C 0.32158 0.44661 0.591 0.0
C781 C 0.30308 0.49732 0.58998 0.0
C782 C 0.35933 0.49681 0.61507 0.0
C783 C 0.36583 0.50421 0.64962 0.0
C784 C 0.39767 0.52 0.66135 0.0
C785 C 0.42369 0.52803 0.63721 0.0
C786 C 0.41792 0.51999 0.6017 0.0
C787 C 0.38515 0.50451 0.59055 0.0
H788 H 0.74147 0.69352 0.8831 0.0
H789 H 0.71526 0.61209 0.81043 0.0
H790 H 0.75662 0.58877 0.8373 0.0
H791 H 0.82906 0.69718 0.88103 0.0
H792 H 0.83546 0.71052 0.92573 0.0
H793 H 0.80133 0.71924 0.90325 0.0
H794 H 0.75847 0.69391 0.94827 0.0
H795 H 0.79253 0.68515 0.97096 0.0
H796 H 0.75702 0.65463 0.95696 0.0
H797 H 0.80226 0.57527 0.87101 0.0
H798 H 0.85053 0.57357 0.9068 0.0
H799 H 0.8494 0.66569 0.95438 0.0
C800 C 0.74395 0.67052 0.87327 0.0
C801 C 0.72492 0.65441 0.84497 0.0
C802 C 0.7295 0.62472 0.83223 0.0
C803 C 0.75283 0.61128 0.84738 0.0
C804 C 0.77155 0.62799 0.87498 0.0
C805 C 0.76748 0.65703 0.88769 0.0
C806 C 0.79245 0.67116 0.91584 0.0
C807 C 0.81596 0.7013 0.90585 0.0
C808 C 0.77401 0.67652 0.95003 0.0
C809 C 0.81144 0.64566 0.9168 0.0
C810 C 0.79875 0.6208 0.89337 0.0
C811 C 0.81248 0.59466 0.88936 0.0
C812 C 0.84012 0.59405 0.90962 0.0
C813 C 0.85408 0.61961 0.93329 0.0
C814 C 0.8392 0.64559 0.93694 0.0
H815 H 0.38046 0.82525 0.17668 0.0
H816 H 0.43887 0.83594 0.2696 0.0
H817 H 0.4687 0.88817 0.25599 0.0
H818 H 0.44833 0.86404 0.12408 0.0
H819 H 0.42176 0.8821 0.10074 0.0
H820 H 0.40422 0.84588 0.11815 0.0
H821 H 0.35876 0.87033 0.15082 0.0
H822 H 0.37636 0.90671 0.13372 0.0
H823 H 0.37172 0.90502 0.17941 0.0
H824 H 0.49342 0.93892 0.23191 0.0
H825 H 0.51328 0.98335 0.19791 0.0
H826 H 0.43939 0.94141 0.11996 0.0
C827 C 0.39947 0.83854 0.19429 0.0
C828 C 0.40709 0.82611 0.22445 0.0
C829 C 0.43237 0.84456 0.24644 0.0
C830 C 0.44944 0.87443 0.23894 0.0
C831 C 0.44118 0.88592 0.20924 0.0
C832 C 0.41691 0.86851 0.18711 0.0
C833 C 0.41363 0.88614 0.15636 0.0
C834 C 0.42252 0.86849 0.12285 0.0
C835 C 0.37799 0.89242 0.15501 0.0
C836 C 0.43999 0.91613 0.16453 0.0
C837 C 0.45539 0.91542 0.19532 0.0
C838 C 0.48132 0.93974 0.20795 0.0
C839 C 0.49237 0.96501 0.18844 0.0
C840 C 0.47758 0.9663 0.15651 0.0
C841 C 0.45062 0.94158 0.14465 0.0
H842 H 0.06584 0.25285 0.6398 0.0
H843 H 0.13036 0.24615 0.72354 0.0
H844 H 0.12113 0.18973 0.70836 0.0
H845 H 1.00507 0.18238 0.6483 0.0
H846 H 0.99938 0.17269 0.60284 0.0
H847 H 0.01174 0.21261 0.61978 0.0
H848 H 0.06416 0.22001 0.57917 0.0
H849 H 0.05178 0.18004 0.56231 0.0
H850 H 0.0933 0.19494 0.58008 0.0
H851 H 0.10237 0.13344 0.68594 0.0
H852 H 0.07783 0.08209 0.65623 0.0
H853 H 0.02683 0.12552 0.58603 0.0
C854 C 0.07825 0.23959 0.65484 0.0
C855 C 0.09885 0.25406 0.68294 0.0
C856 C 0.11457 0.23573 0.70187 0.0
C857 C 0.10942 0.20361 0.69347 0.0
C858 C 0.08869 0.19008 0.66589 0.0
C859 C 0.07357 0.20752 0.64666 0.0
C860 C 0.05234 0.18727 0.61836 0.0
C861 C 0.01492 0.18884 0.62261 0.0
C862 C 0.06623 0.19609 0.58288 0.0
C863 C 0.05748 0.15566 0.62496 0.0
C864 C 0.07848 0.15778 0.65253 0.0
C865 C 0.0861 0.13156 0.66416 0.0
C866 C 0.07193 0.10246 0.64718 0.0
C867 C 0.05051 0.09972 0.61869 0.0
C868 C 0.04339 0.12681 0.60747 0.0
H869 H 0.74577 0.34715 0.5082 0.0
H870 H 0.70017 0.28725 0.58591 0.0
H871 H 0.65689 0.31808 0.5975 0.0
H872 H 0.72668 0.42047 0.55147 0.0
H873 H 0.71799 0.43315 0.51114 0.0
H874 H 0.74862 0.40967 0.51307 0.0
H875 H 0.71595 0.36997 0.46629 0.0
H876 H 0.68507 0.39305 0.46448 0.0
H877 H 0.67177 0.35308 0.47308 0.0
H878 H 0.61407 0.35031 0.59475 0.0
H879 H 0.57631 0.38337 0.57961 0.0
H880 H 0.64963 0.42219 0.50373 0.0
C881 C 0.72735 0.3411 0.52843 0.0
C882 C 0.72645 0.31485 0.54624 0.0
C883 C 0.70146 0.30733 0.57201 0.0
C884 C 0.67677 0.32473 0.57882 0.0
C885 C 0.67759 0.34974 0.55986 0.0
C886 C 0.70248 0.35817 0.53547 0.0
C887 C 0.69593 0.38424 0.5165 0.0
C888 C 0.72398 0.41363 0.52348 0.0
C889 C 0.69194 0.37448 0.47781 0.0
C890 C 0.66281 0.38831 0.5331 0.0
C891 C 0.65284 0.36843 0.55831 0.0
C892 C 0.62188 0.36635 0.57548 0.0
C893 C 0.6005 0.38498 0.56653 0.0
C894 C 0.61017 0.40534 0.54062 0.0
C895 C 0.64192 0.40724 0.52408 0.0
loop_
_geom_bond_atom_site_label_1
_geom_bond_atom_site_label_2
_geom_bond_distance
_geom_bond_site_symmetry_2
_ccdc_geom_bond_type
O0 Cd1 2.300 . S
O0 C7 1.275 . S
Cd1 O0 2.300 . S
Cd1 O9 2.381 . S
Cd1 O10 2.378 . S
O2 Cd3 2.385 . S
O2 C7 1.255 . S
Cd3 O2 2.385 . S
Cd3 O4 2.317 . S
O4 Cd3 2.317 . S
O4 C5 1.232 . S
C5 O4 1.232 . S
C5 O6 1.218 . S
O6 C5 1.218 . S
C7 O0 1.275 . S
C7 O2 1.255 . S
C8 O9 1.258 . S
C8 O10 1.256 . S
O9 Cd1 2.381 . S
O9 C8 1.258 . S
O10 Cd1 2.378 . S
O10 C8 1.256 . S
O11 Cd12 2.300 . S
O11 C18 1.275 . S
Cd12 O11 2.300 . S
Cd12 O20 2.381 . S
Cd12 O21 2.378 . S
O13 Cd14 2.385 . S
O13 C18 1.255 . S
Cd14 O13 2.385 . S
Cd14 O15 2.317 . S
O15 Cd14 2.317 . S
O15 C16 1.232 . S
C16 O15 1.232 . S
C16 O17 1.218 . S
O17 C16 1.218 . S
C18 O11 1.275 . S
C18 O13 1.255 . S
C19 O20 1.258 . S
C19 O21 1.256 . S
O20 Cd12 2.381 . S
O20 C19 1.258 . S
O21 Cd12 2.378 . S
O21 C19 1.256 . S
O22 Cd23 2.300 . S
O22 C29 1.275 . S
Cd23 O22 2.300 . S
Cd23 O31 2.381 . S
Cd23 O32 2.378 . S
O24 Cd25 2.385 . S
O24 C29 1.255 . S
Cd25 O24 2.385 . S
Cd25 O26 2.317 . S
O26 Cd25 2.317 . S
O26 C27 1.232 . S
C27 O26 1.232 . S
C27 O28 1.218 . S
O28 C27 1.218 . S
C29 O22 1.275 . S
C29 O24 1.255 . S
C30 O31 1.258 . S
C30 O32 1.256 . S
O31 Cd23 2.381 . S
O31 C30 1.258 . S
O32 Cd23 2.378 . S
O32 C30 1.256 . S
O33 Cd34 2.300 . S
O33 C40 1.275 . S
Cd34 O33 2.300 . S
Cd34 O42 2.381 . S
Cd34 O43 2.378 . S
O35 Cd36 2.385 . S
O35 C40 1.255 . S
Cd36 O35 2.385 . S
Cd36 O37 2.317 . S
O37 Cd36 2.317 . S
O37 C38 1.232 . S
C38 O37 1.232 . S
C38 O39 1.218 . S
O39 C38 1.218 . S
C40 O33 1.275 . S
C40 O35 1.255 . S
C41 O42 1.258 . S
C41 O43 1.256 . S
O42 Cd34 2.381 . S
O42 C41 1.258 . S
O43 Cd34 2.378 . S
O43 C41 1.256 . S
O44 Cd45 2.300 . S
O44 C51 1.275 . S
Cd45 O44 2.300 . S
Cd45 O53 2.381 . S
Cd45 O54 2.378 . S
O46 Cd47 2.385 . S
O46 C51 1.255 . S
Cd47 O46 2.385 . S
Cd47 O48 2.317 . S
O48 Cd47 2.317 . S
O48 C49 1.232 . S
C49 O48 1.232 . S
C49 O50 1.218 . S
O50 C49 1.218 . S
C51 O44 1.275 . S
C51 O46 1.255 . S
C52 O53 1.258 . S
C52 O54 1.256 . S
O53 Cd45 2.381 . S
O53 C52 1.258 . S
O54 Cd45 2.378 . S
O54 C52 1.256 . S
O55 Cd56 2.300 . S
O55 C62 1.275 . S
Cd56 O55 2.300 . S
Cd56 O64 2.381 . S
Cd56 O65 2.378 . S
O57 Cd58 2.385 . S
O57 C62 1.255 . S
Cd58 O57 2.385 . S
Cd58 O59 2.317 . S
O59 Cd58 2.317 . S
O59 C60 1.232 . S
C60 O59 1.232 . S
C60 O61 1.218 . S
O61 C60 1.218 . S
C62 O55 1.275 . S
C62 O57 1.255 . S
C63 O64 1.258 . S
C63 O65 1.256 . S
O64 Cd56 2.381 . S
O64 C63 1.258 . S
O65 Cd56 2.378 . S
O65 C63 1.256 . S
O66 Cd67 2.300 . S
O66 C73 1.275 . S
Cd67 O66 2.300 . S
Cd67 O75 2.381 . S
Cd67 O76 2.378 . S
O68 Cd69 2.385 . S
O68 C73 1.255 . S
Cd69 O68 2.385 . S
Cd69 O70 2.317 . S
O70 Cd69 2.317 . S
O70 C71 1.232 . S
C71 O70 1.232 . S
C71 O72 1.218 . S
O72 C71 1.218 . S
C73 O66 1.275 . S
C73 O68 1.255 . S
C74 O75 1.258 . S
C74 O76 1.256 . S
O75 Cd67 2.381 . S
O75 C74 1.258 . S
O76 Cd67 2.378 . S
O76 C74 1.256 . S
O77 Cd78 2.300 . S
O77 C84 1.275 . S
Cd78 O77 2.300 . S
Cd78 O86 2.381 . S
Cd78 O87 2.378 . S
O79 Cd80 2.385 . S
O79 C84 1.255 . S
Cd80 O79 2.385 . S
Cd80 O81 2.317 . S
O81 Cd80 2.317 . S
O81 C82 1.232 . S
C82 O81 1.232 . S
C82 O83 1.218 . S
O83 C82 1.218 . S
C84 O77 1.275 . S
C84 O79 1.255 . S
C85 O86 1.258 . S
C85 O87 1.256 . S
O86 Cd78 2.381 . S
O86 C85 1.258 . S
O87 Cd78 2.378 . S
O87 C85 1.256 . S
Ho88 C91 2.811 . S
Ho88 O108 2.322 . S
Ho88 O110 2.378 . S
Ho88 O111 2.524 . S
Ho88 O112 2.374 1_545 S
Ho88 O113 2.669 1_545 S
Ho88 O115 2.346 1_445 S
Ho88 O119 2.305 1_455 S
Ho89 C100 2.811 1_545 S
Ho89 O109 2.346 1_655 S
Ho89 O113 2.305 1_645 S
Ho89 O114 2.322 1_545 S
Ho89 O116 2.378 1_545 S
Ho89 O117 2.524 1_545 S
Ho89 O118 2.381 . S
Ho89 O119 2.669 . S
C90 O108 1.259 . S
C90 O109 1.268 . S
C91 Ho88 2.811 . S
C91 C92 1.488 . S
C91 O110 1.215 . S
C91 O111 1.289 . S
C92 C91 1.488 . S
C92 C93 1.348 . S
C92 C97 1.413 . S
C93 C92 1.348 . S
C93 C94 1.442 . S
C93 H120 0.930 . S
C94 C93 1.442 . S
C94 C95 1.381 . S
C94 H121 0.931 . S
C95 C94 1.381 . S
C95 C96 1.321 . S
C96 C95 1.321 . S
C96 C97 1.403 . S
C96 H122 0.934 . S
C97 C92 1.413 . S
C97 C96 1.403 . S
C97 H123 0.930 . S
C98 O112 1.277 . S
C98 O113 1.256 . S
C99 O114 1.259 . S
C99 O115 1.268 . S
C100 Ho89 2.811 1_565 S
C100 C101 1.488 . S
C100 O116 1.215 . S
C100 O117 1.289 . S
C101 C100 1.488 . S
C101 C102 1.348 . S
C101 C106 1.413 . S
C102 C101 1.348 . S
C102 C103 1.442 . S
C102 H124 0.930 . S
C103 C102 1.442 . S
C103 C104 1.381 . S
C103 H125 0.931 . S
C104 C103 1.381 . S
C104 C105 1.321 . S
C105 C104 1.321 . S
C105 C106 1.403 . S
C105 H126 0.934 . S
C106 C101 1.413 . S
C106 C105 1.403 . S
C106 H127 0.930 . S
C107 O118 1.275 . S
C107 O119 1.256 . S
O108 Ho88 2.322 . S
O108 C90 1.259 . S
O109 Ho89 2.346 1_455 S
O109 C90 1.268 . S
O110 Ho88 2.378 . S
O110 C91 1.215 . S
O111 Ho88 2.524 . S
O111 C91 1.289 . S
O112 Ho88 2.374 1_565 S
O112 C98 1.277 . S
O113 Ho88 2.669 1_565 S
O113 Ho89 2.305 1_465 S
O113 C98 1.256 . S
O114 Ho89 2.322 1_565 S
O114 C99 1.259 . S
O115 Ho88 2.346 1_665 S
O115 C99 1.268 . S
O116 Ho89 2.378 1_565 S
O116 C100 1.215 . S
O117 Ho89 2.524 1_565 S
O117 C100 1.289 . S
O118 Ho89 2.381 . S
O118 C107 1.275 . S
O119 Ho88 2.305 1_655 S
O119 Ho89 2.669 . S
O119 C107 1.256 . S
H120 C93 0.930 . S
H121 C94 0.931 . S
H122 C96 0.934 . S
H123 C97 0.930 . S
H124 C102 0.930 . S
H125 C103 0.931 . S
H126 C105 0.934 . S
H127 C106 0.930 . S
Ho128 C131 2.811 . S
Ho128 O148 2.322 . S
Ho128 O150 2.378 . S
Ho128 O151 2.524 . S
Ho128 O152 2.381 1_545 S
Ho128 O153 2.669 . S
Ho128 O155 2.346 . S
Ho128 O159 2.305 . S
Ho129 C140 2.811 1_544 S
Ho129 O149 2.346 . S
Ho129 O153 2.305 . S
Ho129 O154 2.330 . S
Ho129 O156 2.378 1_554 S
Ho129 O157 2.524 1_544 S
Ho129 O158 2.381 . S
Ho129 O159 2.669 . S
C130 O148 1.259 . S
C130 O149 1.268 . S
C131 Ho128 2.811 . S
C131 C132 1.488 . S
C131 O150 1.215 . S
C131 O151 1.289 . S
C132 C131 1.488 . S
C132 C133 1.348 . S
C132 C137 1.413 . S
C133 C132 1.348 . S
C133 C134 1.442 . S
C133 H160 0.930 . S
C134 C133 1.442 . S
C134 C135 1.381 . S
C134 H161 0.931 . S
C135 C134 1.381 . S
C135 C136 1.321 . S
C136 C135 1.321 . S
C136 C137 1.403 . S
C136 H162 0.934 . S
C137 C132 1.413 . S
C137 C136 1.403 . S
C137 H163 0.930 . S
C138 O152 1.275 . S
C138 O153 1.256 1_565 S
C139 O154 1.242 1_565 S
C139 O155 1.268 1_565 S
C140 Ho129 2.811 1_566 S
C140 C141 1.488 . S
C140 O156 1.215 1_565 S
C140 O157 1.289 . S
C141 C140 1.488 . S
C141 C142 1.348 . S
C141 C146 1.413 . S
C142 C141 1.348 . S
C142 C143 1.442 . S
C142 H164 0.930 . S
C143 C142 1.442 . S
C143 C144 1.381 . S
C143 H165 0.931 . S
C144 C143 1.381 . S
C144 C145 1.321 . S
C145 C144 1.321 . S
C145 C146 1.403 . S
C145 H166 0.934 . S
C146 C141 1.413 . S
C146 C145 1.403 . S
C146 H167 0.930 1_565 S
C147 O158 1.275 . S
C147 O159 1.256 . S
O148 Ho128 2.322 . S
O148 C130 1.259 . S
O149 Ho129 2.346 . S
O149 C130 1.268 . S
O150 Ho128 2.378 . S
O150 C131 1.215 . S
O151 Ho128 2.524 . S
O151 C131 1.289 . S
O152 Ho128 2.381 1_565 S
O152 C138 1.275 . S
O153 Ho128 2.669 . S
O153 Ho129 2.305 . S
O153 C138 1.256 1_545 S
O154 Ho129 2.330 . S
O154 C139 1.242 1_545 S
O155 Ho128 2.346 . S
O155 C139 1.268 1_545 S
O156 Ho129 2.378 1_556 S
O156 C140 1.215 1_545 S
O157 Ho129 2.524 1_566 S
O157 C140 1.289 . S
O158 Ho129 2.381 . S
O158 C147 1.275 . S
O159 Ho128 2.305 . S
O159 Ho129 2.669 . S
O159 C147 1.256 . S
H160 C133 0.930 . S
H161 C134 0.931 . S
H162 C136 0.934 . S
H163 C137 0.930 . S
H164 C142 0.930 . S
H165 C143 0.931 . S
H166 C145 0.934 . S
H167 C146 0.930 1_545 S
Ho168 C171 2.811 . S
Ho168 O188 2.322 . S
Ho168 O190 2.378 . S
Ho168 O191 2.524 . S
Ho168 O192 2.381 . S
Ho168 O193 2.669 . S
Ho168 O195 2.346 . S
Ho168 O199 2.305 . S
Ho169 C180 2.811 . S
Ho169 O189 2.346 . S
Ho169 O193 2.305 . S
Ho169 O194 2.322 . S
Ho169 O196 2.378 . S
Ho169 O197 2.524 . S
Ho169 O198 2.381 . S
Ho169 O199 2.669 . S
C170 O188 1.259 . S
C170 O189 1.268 . S
C171 Ho168 2.811 . S
C171 C172 1.488 . S
C171 O190 1.215 . S
C171 O191 1.289 . S
C172 C171 1.488 . S
C172 C173 1.348 . S
C172 C177 1.413 . S
C173 C172 1.348 . S
C173 C174 1.442 . S
C173 H200 0.930 . S
C174 C173 1.442 . S
C174 C175 1.381 . S
C174 H201 0.931 . S
C175 C174 1.381 . S
C175 C176 1.321 . S
C176 C175 1.321 . S
C176 C177 1.403 . S
C176 H202 0.934 . S
C177 C172 1.413 . S
C177 C176 1.403 . S
C177 H203 0.930 . S
C178 O192 1.275 . S
C178 O193 1.256 . S
C179 O194 1.259 . S
C179 O195 1.268 . S
C180 Ho169 2.811 . S
C180 C181 1.488 . S
C180 O196 1.215 . S
C180 O197 1.289 . S
C181 C180 1.488 . S
C181 C182 1.348 . S
C181 C186 1.413 . S
C182 C181 1.348 . S
C182 C183 1.442 . S
C182 H204 0.930 . S
C183 C182 1.442 . S
C183 C184 1.381 . S
C183 H205 0.931 . S
C184 C183 1.381 . S
C184 C185 1.321 . S
C185 C184 1.321 . S
C185 C186 1.403 . S
C185 H206 0.934 . S
C186 C181 1.413 . S
C186 C185 1.403 . S
C186 H207 0.930 . S
C187 O198 1.275 . S
C187 O199 1.256 . S
O188 Ho168 2.322 . S
O188 C170 1.259 . S
O189 Ho169 2.346 . S
O189 C170 1.268 . S
O190 Ho168 2.378 . S
O190 C171 1.215 . S
O191 Ho168 2.524 . S
O191 C171 1.289 . S
O192 Ho168 2.381 . S
O192 C178 1.275 . S
O193 Ho168 2.669 . S
O193 Ho169 2.305 . S
O193 C178 1.256 . S
O194 Ho169 2.322 . S
O194 C179 1.259 . S
O195 Ho168 2.346 . S
O195 C179 1.268 . S
O196 Ho169 2.378 . S
O196 C180 1.215 . S
O197 Ho169 2.524 . S
O197 C180 1.289 . S
O198 Ho169 2.381 . S
O198 C187 1.275 . S
O199 Ho168 2.305 . S
O199 Ho169 2.669 . S
O199 C187 1.256 . S
H200 C173 0.930 . S
H201 C174 0.931 . S
H202 C176 0.934 . S
H203 C177 0.930 . S
H204 C182 0.930 . S
H205 C183 0.931 . S
H206 C185 0.934 . S
H207 C186 0.930 . S
Ho208 C211 2.811 . S
Ho208 O228 2.322 . S
Ho208 O230 2.378 . S
Ho208 O231 2.524 . S
Ho208 O232 2.381 1_455 S
Ho208 O233 2.669 1_455 S
Ho208 O235 2.346 1_455 S
Ho208 O239 2.305 1_554 S
Ho209 C220 2.811 1_455 S
Ho209 O229 2.346 1_556 S
Ho209 O233 2.305 1_456 S
Ho209 O234 2.322 1_455 S
Ho209 O236 2.378 1_455 S
Ho209 O237 2.524 1_455 S
Ho209 O238 2.381 . S
Ho209 O239 2.669 . S
C210 O228 1.259 . S
C210 O229 1.268 . S
C211 Ho208 2.811 . S
C211 C212 1.488 . S
C211 O230 1.215 . S
C211 O231 1.289 . S
C212 C211 1.488 . S
C212 C213 1.348 . S
C212 C217 1.413 . S
C213 C212 1.348 . S
C213 C214 1.442 . S
C213 H240 0.930 . S
C214 C213 1.442 . S
C214 C215 1.381 . S
C214 H241 0.931 . S
C215 C214 1.381 . S
C215 C216 1.321 . S
C216 C215 1.321 . S
C216 C217 1.403 . S
C216 H242 0.934 . S
C217 C212 1.413 . S
C217 C216 1.403 . S
C217 H243 0.930 . S
C218 O232 1.275 . S
C218 O233 1.256 . S
C219 O234 1.259 . S
C219 O235 1.268 1_556 S
C220 Ho209 2.811 1_655 S
C220 C221 1.488 . S
C220 O236 1.215 . S
C220 O237 1.289 . S
C221 C220 1.488 . S
C221 C222 1.348 . S
C221 C226 1.413 . S
C222 C221 1.348 . S
C222 C223 1.442 . S
C222 H244 0.930 . S
C223 C222 1.442 . S
C223 C224 1.381 . S
C223 H245 0.931 . S
C224 C223 1.381 . S
C224 C225 1.321 . S
C225 C224 1.321 . S
C225 C226 1.403 . S
C225 H246 0.934 . S
C226 C221 1.413 . S
C226 C225 1.403 . S
C226 H247 0.930 . S
C227 O238 1.275 . S
C227 O239 1.256 . S
O228 Ho208 2.322 . S
O228 C210 1.259 . S
O229 Ho209 2.346 1_554 S
O229 C210 1.268 . S
O230 Ho208 2.378 . S
O230 C211 1.215 . S
O231 Ho208 2.524 . S
O231 C211 1.289 . S
O232 Ho208 2.381 1_655 S
O232 C218 1.275 . S
O233 Ho208 2.669 1_655 S
O233 Ho209 2.305 1_654 S
O233 C218 1.256 . S
O234 Ho209 2.322 1_655 S
O234 C219 1.259 . S
O235 Ho208 2.346 1_655 S
O235 C219 1.268 1_554 S
O236 Ho209 2.378 1_655 S
O236 C220 1.215 . S
O237 Ho209 2.524 1_655 S
O237 C220 1.289 . S
O238 Ho209 2.381 . S
O238 C227 1.275 . S
O239 Ho208 2.305 1_556 S
O239 Ho209 2.669 . S
O239 C227 1.256 . S
H240 C213 0.930 . S
H241 C214 0.931 . S
H242 C216 0.934 . S
H243 C217 0.930 . S
H244 C222 0.930 . S
H245 C223 0.931 . S
H246 C225 0.934 . S
H247 C226 0.930 . S
H248 C260 0.930 . S
H249 C262 0.930 . S
H250 C263 0.930 . S
H251 C267 0.959 . S
H252 C267 0.959 . S
H253 C267 0.961 . S
H254 C268 0.960 . S
H255 C268 0.961 . S
H256 C268 0.959 . S
H257 C271 0.929 . S
H258 C272 0.931 . S
H259 C274 0.930 . S
C260 H248 0.930 . S
C260 C261 1.399 . S
C260 C265 1.399 . S
C261 C260 1.399 . S
C261 C262 1.376 . S
C262 H249 0.930 . S
C262 C261 1.376 . S
C262 C263 1.388 . S
C263 H250 0.930 . S
C263 C262 1.388 . S
C263 C264 1.390 . S
C264 C263 1.390 . S
C264 C265 1.394 . S
C264 C270 1.465 . S
C265 C260 1.399 . S
C265 C264 1.394 . S
C265 C266 1.516 . S
C266 C265 1.516 . S
C266 C267 1.502 . S
C266 C268 1.561 . S
C266 C269 1.526 . S
C267 H251 0.959 . S
C267 H252 0.959 . S
C267 H253 0.961 . S
C267 C266 1.502 . S
C268 H254 0.960 . S
C268 H255 0.961 . S
C268 H256 0.959 . S
C268 C266 1.561 . S
C269 C266 1.526 . S
C269 C270 1.396 . S
C269 C274 1.390 . S
C270 C264 1.465 . S
C270 C269 1.396 . S
C270 C271 1.399 . S
C271 H257 0.929 . S
C271 C270 1.399 . S
C271 C272 1.385 . S
C272 H258 0.931 . S
C272 C271 1.385 . S
C272 C273 1.389 . S
C273 C272 1.389 . S
C273 C274 1.387 . S
C274 H259 0.930 . S
C274 C269 1.390 . S
C274 C273 1.387 . S
H275 C287 0.930 . S
H276 C289 0.930 . S
H277 C290 0.930 . S
H278 C294 0.959 . S
H279 C294 0.959 . S
H280 C294 0.961 . S
H281 C295 0.960 . S
H282 C295 0.961 . S
H283 C295 0.959 . S
H284 C298 0.929 . S
H285 C299 0.931 . S
H286 C301 0.930 . S
C287 H275 0.930 . S
C287 C288 1.399 . S
C287 C292 1.399 . S
C288 C287 1.399 . S
C288 C289 1.376 . S
C289 H276 0.930 . S
C289 C288 1.376 . S
C289 C290 1.388 . S
C290 H277 0.930 . S
C290 C289 1.388 . S
C290 C291 1.390 . S
C291 C290 1.390 . S
C291 C292 1.394 . S
C291 C297 1.465 . S
C292 C287 1.399 . S
C292 C291 1.394 . S
C292 C293 1.516 . S
C293 C292 1.516 . S
C293 C294 1.502 . S
C293 C295 1.561 . S
C293 C296 1.526 . S
C294 H278 0.959 . S
C294 H279 0.959 . S
C294 H280 0.961 . S
C294 C293 1.502 . S
C295 H281 0.960 . S
C295 H282 0.961 . S
C295 H283 0.959 . S
C295 C293 1.561 . S
C296 C293 1.526 . S
C296 C297 1.396 . S
C296 C301 1.390 . S
C297 C291 1.465 . S
C297 C296 1.396 . S
C297 C298 1.399 . S
C298 H284 0.929 . S
C298 C297 1.399 . S
C298 C299 1.385 . S
C299 H285 0.931 . S
C299 C298 1.385 . S
C299 C300 1.389 . S
C300 C299 1.389 . S
C300 C301 1.387 . S
C301 H286 0.930 . S
C301 C296 1.390 . S
C301 C300 1.387 . S
H302 C314 0.930 . S
H303 C316 0.930 . S
H304 C317 0.930 . S
H305 C321 0.959 . S
H306 C321 0.959 . S
H307 C321 0.961 . S
H308 C322 0.960 . S
H309 C322 0.961 . S
H310 C322 0.959 . S
H311 C325 0.929 . S
H312 C326 0.931 . S
H313 C328 0.930 . S
C314 H302 0.930 . S
C314 C315 1.399 . S
C314 C319 1.399 . S
C315 C314 1.399 . S
C315 C316 1.376 . S
C316 H303 0.930 . S
C316 C315 1.376 . S
C316 C317 1.388 . S
C317 H304 0.930 . S
C317 C316 1.388 . S
C317 C318 1.390 . S
C318 C317 1.390 . S
C318 C319 1.394 . S
C318 C324 1.465 . S
C319 C314 1.399 . S
C319 C318 1.394 . S
C319 C320 1.516 . S
C320 C319 1.516 . S
C320 C321 1.502 . S
C320 C322 1.561 . S
C320 C323 1.526 . S
C321 H305 0.959 . S
C321 H306 0.959 . S
C321 H307 0.961 . S
C321 C320 1.502 . S
C322 H308 0.960 . S
C322 H309 0.961 . S
C322 H310 0.959 . S
C322 C320 1.561 . S
C323 C320 1.526 . S
C323 C324 1.396 . S
C323 C328 1.390 . S
C324 C318 1.465 . S
C324 C323 1.396 . S
C324 C325 1.399 . S
C325 H311 0.929 . S
C325 C324 1.399 . S
C325 C326 1.385 . S
C326 H312 0.931 . S
C326 C325 1.385 . S
C326 C327 1.389 . S
C327 C326 1.389 . S
C327 C328 1.387 . S
C328 H313 0.930 . S
C328 C323 1.390 . S
C328 C327 1.387 . S
H329 C341 0.930 . S
H330 C343 0.930 . S
H331 C344 0.930 . S
H332 C348 0.959 . S
H333 C348 0.959 . S
H334 C348 0.961 . S
H335 C349 0.960 . S
H336 C349 0.961 . S
H337 C349 0.959 . S
H338 C352 0.929 . S
H339 C353 0.931 . S
H340 C355 0.930 . S
C341 H329 0.930 . S
C341 C342 1.399 . S
C341 C346 1.399 . S
C342 C341 1.399 . S
C342 C343 1.376 . S
C343 H330 0.930 . S
C343 C342 1.376 . S
C343 C344 1.388 . S
C344 H331 0.930 . S
C344 C343 1.388 . S
C344 C345 1.390 . S
C345 C344 1.390 . S
C345 C346 1.394 . S
C345 C351 1.465 . S
C346 C341 1.399 . S
C346 C345 1.394 . S
C346 C347 1.516 . S
C347 C346 1.516 . S
C347 C348 1.502 . S
C347 C349 1.561 . S
C347 C350 1.526 . S
C348 H332 0.959 . S
C348 H333 0.959 . S
C348 H334 0.961 . S
C348 C347 1.502 . S
C349 H335 0.960 . S
C349 H336 0.961 . S
C349 H337 0.959 . S
C349 C347 1.561 . S
C350 C347 1.526 . S
C350 C351 1.396 . S
C350 C355 1.390 . S
C351 C345 1.465 . S
C351 C350 1.396 . S
C351 C352 1.399 . S
C352 H338 0.929 . S
C352 C351 1.399 . S
C352 C353 1.385 . S
C353 H339 0.931 . S
C353 C352 1.385 . S
C353 C354 1.389 . S
C354 C353 1.389 . S
C354 C355 1.387 . S
C355 H340 0.930 . S
C355 C350 1.390 . S
C355 C354 1.387 . S
H356 C368 0.930 . S
H357 C370 0.930 . S
H358 C371 0.930 . S
H359 C375 0.959 . S
H360 C375 0.959 . S
H361 C375 0.961 . S
H362 C376 0.960 . S
H363 C376 0.961 . S
H364 C376 0.959 . S
H365 C379 0.929 . S
H366 C380 0.931 . S
H367 C382 0.930 . S
C368 H356 0.930 . S
C368 C369 1.399 . S
C368 C373 1.399 . S
C369 C368 1.399 . S
C369 C370 1.376 . S
C370 H357 0.930 . S
C370 C369 1.376 . S
C370 C371 1.388 . S
C371 H358 0.930 . S
C371 C370 1.388 . S
C371 C372 1.390 . S
C372 C371 1.390 . S
C372 C373 1.394 . S
C372 C378 1.465 . S
C373 C368 1.399 . S
C373 C372 1.394 . S
C373 C374 1.516 . S
C374 C373 1.516 . S
C374 C375 1.502 . S
C374 C376 1.561 . S
C374 C377 1.526 . S
C375 H359 0.959 . S
C375 H360 0.959 . S
C375 H361 0.961 . S
C375 C374 1.502 . S
C376 H362 0.960 . S
C376 H363 0.961 . S
C376 H364 0.959 . S
C376 C374 1.561 . S
C377 C374 1.526 . S
C377 C378 1.396 . S
C377 C382 1.390 . S
C378 C372 1.465 . S
C378 C377 1.396 . S
C378 C379 1.399 . S
C379 H365 0.929 . S
C379 C378 1.399 . S
C379 C380 1.385 . S
C380 H366 0.931 . S
C380 C379 1.385 . S
C380 C381 1.389 . S
C381 C380 1.389 . S
C381 C382 1.387 . S
C382 H367 0.930 . S
C382 C377 1.390 . S
C382 C381 1.387 . S
H383 C395 0.930 . S
H384 C397 0.930 . S
H385 C398 0.930 . S
H386 C402 0.959 . S
H387 C402 0.959 . S
H388 C402 0.961 . S
H389 C403 0.960 . S
H390 C403 0.961 . S
H391 C403 0.959 . S
H392 C406 0.929 . S
H393 C407 0.931 . S
H394 C409 0.930 . S
C395 H383 0.930 . S
C395 C396 1.399 . S
C395 C400 1.399 . S
C396 C395 1.399 . S
C396 C397 1.376 . S
C397 H384 0.930 . S
C397 C396 1.376 . S
C397 C398 1.388 . S
C398 H385 0.930 . S
C398 C397 1.388 . S
C398 C399 1.390 . S
C399 C398 1.390 . S
C399 C400 1.394 . S
C399 C405 1.465 . S
C400 C395 1.399 . S
C400 C399 1.394 . S
C400 C401 1.516 . S
C401 C400 1.516 . S
C401 C402 1.502 . S
C401 C403 1.561 . S
C401 C404 1.526 . S
C402 H386 0.959 . S
C402 H387 0.959 . S
C402 H388 0.961 . S
C402 C401 1.502 . S
C403 H389 0.960 . S
C403 H390 0.961 . S
C403 H391 0.959 . S
C403 C401 1.561 . S
C404 C401 1.526 . S
C404 C405 1.396 . S
C404 C409 1.390 . S
C405 C399 1.465 . S
C405 C404 1.396 . S
C405 C406 1.399 . S
C406 H392 0.929 . S
C406 C405 1.399 . S
C406 C407 1.385 . S
C407 H393 0.931 . S
C407 C406 1.385 . S
C407 C408 1.389 . S
C408 C407 1.389 . S
C408 C409 1.387 . S
C409 H394 0.930 . S
C409 C404 1.390 . S
C409 C408 1.387 . S
H410 C422 0.930 . S
H411 C424 0.930 . S
H412 C425 0.930 . S
H413 C429 0.959 1_554 S
H414 C429 0.959 1_554 S
H415 C429 0.964 . S
H416 C430 0.960 . S
H417 C430 0.961 . S
H418 C430 0.959 . S
H419 C433 0.929 . S
H420 C434 0.931 . S
H421 C436 0.930 . S
C422 H410 0.930 . S
C422 C423 1.399 . S
C422 C427 1.399 . S
C423 C422 1.399 . S
C423 C424 1.376 . S
C424 H411 0.930 . S
C424 C423 1.376 . S
C424 C425 1.388 . S
C425 H412 0.930 . S
C425 C424 1.388 . S
C425 C426 1.390 . S
C426 C425 1.390 . S
C426 C427 1.394 . S
C426 C432 1.465 . S
C427 C422 1.399 . S
C427 C426 1.394 . S
C427 C428 1.516 . S
C428 C427 1.516 . S
C428 C429 1.502 . S
C428 C430 1.561 . S
C428 C431 1.526 . S
C429 H413 0.959 1_556 S
C429 H414 0.959 1_556 S
C429 H415 0.964 . S
C429 C428 1.502 . S
C430 H416 0.960 . S
C430 H417 0.961 . S
C430 H418 0.959 . S
C430 C428 1.561 . S
C431 C428 1.526 . S
C431 C432 1.396 . S
C431 C436 1.390 . S
C432 C426 1.465 . S
C432 C431 1.396 . S
C432 C433 1.399 . S
C433 H419 0.929 . S
C433 C432 1.399 . S
C433 C434 1.385 . S
C434 H420 0.931 . S
C434 C433 1.385 . S
C434 C435 1.389 . S
C435 C434 1.389 . S
C435 C436 1.387 . S
C436 H421 0.930 . S
C436 C431 1.390 . S
C436 C435 1.387 . S
H437 C449 0.930 . S
H438 C451 0.930 . S
H439 C452 0.930 . S
H440 C456 0.959 . S
H441 C456 0.959 . S
H442 C456 0.961 . S
H443 C457 0.960 . S
H444 C457 0.961 . S
H445 C457 0.959 . S
H446 C460 0.929 . S
H447 C461 0.931 . S
H448 C463 0.930 . S
C449 H437 0.930 . S
C449 C450 1.399 . S
C449 C454 1.399 . S
C450 C449 1.399 . S
C450 C451 1.376 . S
C451 H438 0.930 . S
C451 C450 1.376 . S
C451 C452 1.388 . S
C452 H439 0.930 . S
C452 C451 1.388 . S
C452 C453 1.390 . S
C453 C452 1.390 . S
C453 C454 1.394 . S
C453 C459 1.465 . S
C454 C449 1.399 . S
C454 C453 1.394 . S
C454 C455 1.516 . S
C455 C454 1.516 . S
C455 C456 1.502 . S
C455 C457 1.561 . S
C455 C458 1.526 . S
C456 H440 0.959 . S
C456 H441 0.959 . S
C456 H442 0.961 . S
C456 C455 1.502 . S
C457 H443 0.960 . S
C457 H444 0.961 . S
C457 H445 0.959 . S
C457 C455 1.561 . S
C458 C455 1.526 . S
C458 C459 1.396 . S
C458 C463 1.390 . S
C459 C453 1.465 . S
C459 C458 1.396 . S
C459 C460 1.399 . S
C460 H446 0.929 . S
C460 C459 1.399 . S
C460 C461 1.385 . S
C461 H447 0.931 . S
C461 C460 1.385 . S
C461 C462 1.389 . S
C462 C461 1.389 . S
C462 C463 1.387 . S
C463 H448 0.930 . S
C463 C458 1.390 . S
C463 C462 1.387 . S
H464 C476 0.930 . S
H465 C478 0.930 . S
H466 C479 0.930 . S
H467 C483 0.959 . S
H468 C483 0.959 . S
H469 C483 0.961 . S
H470 C484 0.960 . S
H471 C484 0.961 . S
H472 C484 0.959 . S
H473 C487 0.929 . S
H474 C488 0.931 . S
H475 C490 0.930 . S
C476 H464 0.930 . S
C476 C477 1.399 . S
C476 C481 1.399 . S
C477 C476 1.399 . S
C477 C478 1.376 . S
C478 H465 0.930 . S
C478 C477 1.376 . S
C478 C479 1.388 . S
C479 H466 0.930 . S
C479 C478 1.388 . S
C479 C480 1.390 . S
C480 C479 1.390 . S
C480 C481 1.394 . S
C480 C486 1.465 . S
C481 C476 1.399 . S
C481 C480 1.394 . S
C481 C482 1.516 . S
C482 C481 1.516 . S
C482 C483 1.502 . S
C482 C484 1.561 . S
C482 C485 1.526 . S
C483 H467 0.959 . S
C483 H468 0.959 . S
C483 H469 0.961 . S
C483 C482 1.502 . S
C484 H470 0.960 . S
C484 H471 0.961 . S
C484 H472 0.959 . S
C484 C482 1.561 . S
C485 C482 1.526 . S
C485 C486 1.396 . S
C485 C490 1.390 . S
C486 C480 1.465 . S
C486 C485 1.396 . S
C486 C487 1.399 . S
C487 H473 0.929 . S
C487 C486 1.399 . S
C487 C488 1.385 . S
C488 H474 0.931 . S
C488 C487 1.385 . S
C488 C489 1.389 . S
C489 C488 1.389 . S
C489 C490 1.387 . S
C490 H475 0.930 . S
C490 C485 1.390 . S
C490 C489 1.387 . S
H491 C503 0.930 . S
H492 C505 0.930 . S
H493 C506 0.901 1_554 S
H494 C510 0.959 . S
H495 C510 0.959 . S
H496 C510 0.961 . S
H497 C511 0.960 . S
H498 C511 0.961 . S
H499 C511 0.959 . S
H500 C514 0.929 . S
H501 C515 0.931 . S
H502 C517 0.930 . S
C503 H491 0.930 . S
C503 C504 1.399 . S
C503 C508 1.399 . S
C504 C503 1.399 . S
C504 C505 1.376 . S
C505 H492 0.930 . S
C505 C504 1.376 . S
C505 C506 1.388 . S
C506 H493 0.901 1_556 S
C506 C505 1.388 . S
C506 C507 1.390 . S
C507 C506 1.390 . S
C507 C508 1.394 . S
C507 C513 1.465 . S
C508 C503 1.399 . S
C508 C507 1.394 . S
C508 C509 1.516 . S
C509 C508 1.516 . S
C509 C510 1.502 . S
C509 C511 1.561 . S
C509 C512 1.526 . S
C510 H494 0.959 . S
C510 H495 0.959 . S
C510 H496 0.961 . S
C510 C509 1.502 . S
C511 H497 0.960 . S
C511 H498 0.961 . S
C511 H499 0.959 . S
C511 C509 1.561 . S
C512 C509 1.526 . S
C512 C513 1.396 . S
C512 C517 1.390 . S
C513 C507 1.465 . S
C513 C512 1.396 . S
C513 C514 1.399 1_556 S
C514 H500 0.929 . S
C514 C513 1.399 1_554 S
C514 C515 1.385 . S
C515 H501 0.931 . S
C515 C514 1.385 . S
C515 C516 1.389 . S
C516 C515 1.389 . S
C516 C517 1.387 1_554 S
C517 H502 0.930 . S
C517 C512 1.390 . S
C517 C516 1.387 1_556 S
H518 C530 0.930 . S
H519 C532 0.930 . S
H520 C533 0.930 . S
H521 C537 0.959 . S
H522 C537 0.959 1_455 S
H523 C537 0.961 . S
H524 C538 0.960 . S
H525 C538 0.961 . S
H526 C538 0.959 . S
H527 C541 0.929 . S
H528 C542 0.931 . S
H529 C544 0.930 . S
C530 H518 0.930 . S
C530 C531 1.399 . S
C530 C535 1.399 . S
C531 C530 1.399 . S
C531 C532 1.376 . S
C532 H519 0.930 . S
C532 C531 1.376 . S
C532 C533 1.388 . S
C533 H520 0.930 . S
C533 C532 1.388 . S
C533 C534 1.390 . S
C534 C533 1.390 . S
C534 C535 1.394 . S
C534 C540 1.465 . S
C535 C530 1.399 . S
C535 C534 1.394 . S
C535 C536 1.516 . S
C536 C535 1.516 . S
C536 C537 1.502 . S
C536 C538 1.561 . S
C536 C539 1.526 . S
C537 H521 0.959 . S
C537 H522 0.959 1_655 S
C537 H523 0.961 . S
C537 C536 1.502 . S
C538 H524 0.960 . S
C538 H525 0.961 . S
C538 H526 0.959 . S
C538 C536 1.561 . S
C539 C536 1.526 . S
C539 C540 1.396 . S
C539 C544 1.390 . S
C540 C534 1.465 . S
C540 C539 1.396 . S
C540 C541 1.399 . S
C541 H527 0.929 . S
C541 C540 1.399 . S
C541 C542 1.385 . S
C542 H528 0.931 . S
C542 C541 1.385 . S
C542 C543 1.389 . S
C543 C542 1.389 . S
C543 C544 1.387 . S
C544 H529 0.930 . S
C544 C539 1.390 . S
C544 C543 1.387 . S
H545 C557 0.930 . S
H546 C559 0.930 . S
H547 C560 0.930 . S
H548 C564 0.959 . S
H549 C564 0.959 . S
H550 C564 0.961 . S
H551 C565 0.960 . S
H552 C565 0.961 . S
H553 C565 0.959 . S
H554 C568 0.929 . S
H555 C569 0.931 . S
H556 C571 0.930 . S
C557 H545 0.930 . S
C557 C558 1.399 . S
C557 C562 1.399 . S
C558 C557 1.399 . S
C558 C559 1.376 . S
C559 H546 0.930 . S
C559 C558 1.376 . S
C559 C560 1.388 . S
C560 H547 0.930 . S
C560 C559 1.388 . S
C560 C561 1.390 . S
C561 C560 1.390 . S
C561 C562 1.394 . S
C561 C567 1.465 . S
C562 C557 1.399 . S
C562 C561 1.394 . S
C562 C563 1.516 . S
C563 C562 1.516 . S
C563 C564 1.502 . S
C563 C565 1.561 . S
C563 C566 1.526 . S
C564 H548 0.959 . S
C564 H549 0.959 . S
C564 H550 0.961 . S
C564 C563 1.502 . S
C565 H551 0.960 . S
C565 H552 0.961 . S
C565 H553 0.959 . S
C565 C563 1.561 . S
C566 C563 1.526 . S
C566 C567 1.396 . S
C566 C571 1.390 . S
C567 C561 1.465 . S
C567 C566 1.396 . S
C567 C568 1.399 . S
C568 H554 0.929 . S
C568 C567 1.399 . S
C568 C569 1.385 . S
C569 H555 0.931 . S
C569 C568 1.385 . S
C569 C570 1.389 . S
C570 C569 1.389 . S
C570 C571 1.387 . S
C571 H556 0.930 . S
C571 C566 1.390 . S
C571 C570 1.387 . S
H572 C584 0.930 . S
H573 C586 0.930 . S
H574 C587 0.930 . S
H575 C591 0.959 . S
H576 C591 0.959 . S
H577 C591 0.961 . S
H578 C592 0.960 . S
H579 C592 0.961 . S
H580 C592 0.959 . S
H581 C595 0.929 . S
H582 C596 0.931 . S
H583 C598 0.930 . S
C584 H572 0.930 . S
C584 C585 1.399 . S
C584 C589 1.399 . S
C585 C584 1.399 . S
C585 C586 1.376 . S
C586 H573 0.930 . S
C586 C585 1.376 . S
C586 C587 1.388 . S
C587 H574 0.930 . S
C587 C586 1.388 . S
C587 C588 1.390 . S
C588 C587 1.390 . S
C588 C589 1.394 . S
C588 C594 1.465 . S
C589 C584 1.399 . S
C589 C588 1.394 . S
C589 C590 1.516 . S
C590 C589 1.516 . S
C590 C591 1.502 . S
C590 C592 1.561 . S
C590 C593 1.526 . S
C591 H575 0.959 . S
C591 H576 0.959 . S
C591 H577 0.961 . S
C591 C590 1.502 . S
C592 H578 0.960 . S
C592 H579 0.961 . S
C592 H580 0.959 . S
C592 C590 1.561 . S
C593 C590 1.526 . S
C593 C594 1.396 . S
C593 C598 1.390 . S
C594 C588 1.465 . S
C594 C593 1.396 . S
C594 C595 1.399 . S
C595 H581 0.929 . S
C595 C594 1.399 . S
C595 C596 1.385 . S
C596 H582 0.931 . S
C596 C595 1.385 . S
C596 C597 1.389 . S
C597 C596 1.389 . S
C597 C598 1.387 . S
C598 H583 0.930 . S
C598 C593 1.390 . S
C598 C597 1.387 . S
H599 C611 0.930 . S
H600 C613 0.930 . S
H601 C614 0.930 . S
H602 C618 0.959 . S
H603 C618 0.959 . S
H604 C618 0.961 . S
H605 C619 0.960 . S
H606 C619 0.961 . S
H607 C619 0.959 . S
H608 C622 0.929 . S
H609 C623 0.931 . S
H610 C625 0.930 . S
C611 H599 0.930 . S
C611 C612 1.399 . S
C611 C616 1.399 . S
C612 C611 1.399 . S
C612 C613 1.376 . S
C613 H600 0.930 . S
C613 C612 1.376 . S
C613 C614 1.388 . S
C614 H601 0.930 . S
C614 C613 1.388 . S
C614 C615 1.390 . S
C615 C614 1.390 . S
C615 C616 1.394 . S
C615 C621 1.465 . S
C616 C611 1.399 . S
C616 C615 1.394 . S
C616 C617 1.516 . S
C617 C616 1.516 . S
C617 C618 1.502 . S
C617 C619 1.561 . S
C617 C620 1.526 . S
C618 H602 0.959 . S
C618 H603 0.959 . S
C618 H604 0.961 . S
C618 C617 1.502 . S
C619 H605 0.960 . S
C619 H606 0.961 . S
C619 H607 0.959 . S
C619 C617 1.561 . S
C620 C617 1.526 . S
C620 C621 1.396 . S
C620 C625 1.390 . S
C621 C615 1.465 . S
C621 C620 1.396 . S
C621 C622 1.399 . S
C622 H608 0.929 . S
C622 C621 1.399 . S
C622 C623 1.385 . S
C623 H609 0.931 . S
C623 C622 1.385 . S
C623 C624 1.389 . S
C624 C623 1.389 . S
C624 C625 1.387 . S
C625 H610 0.930 . S
C625 C620 1.390 . S
C625 C624 1.387 . S
H626 C638 0.930 . S
H627 C640 0.930 . S
H628 C641 0.930 . S
H629 C645 0.959 . S
H630 C645 0.959 . S
H631 C645 0.961 . S
H632 C646 0.960 . S
H633 C646 0.961 . S
H634 C646 0.959 . S
H635 C649 0.929 . S
H636 C650 0.931 . S
H637 C652 0.930 . S
C638 H626 0.930 . S
C638 C639 1.399 . S
C638 C643 1.399 . S
C639 C638 1.399 . S
C639 C640 1.376 . S
C640 H627 0.930 . S
C640 C639 1.376 . S
C640 C641 1.388 . S
C641 H628 0.930 . S
C641 C640 1.388 . S
C641 C642 1.390 . S
C642 C641 1.390 . S
C642 C643 1.394 . S
C642 C648 1.465 . S
C643 C638 1.399 . S
C643 C642 1.394 . S
C643 C644 1.516 . S
C644 C643 1.516 . S
C644 C645 1.502 . S
C644 C646 1.561 . S
C644 C647 1.526 . S
C645 H629 0.959 . S
C645 H630 0.959 . S
C645 H631 0.961 . S
C645 C644 1.502 . S
C646 H632 0.960 . S
C646 H633 0.961 . S
C646 H634 0.959 . S
C646 C644 1.561 . S
C647 C644 1.526 . S
C647 C648 1.396 . S
C647 C652 1.390 . S
C648 C642 1.465 . S
C648 C647 1.396 . S
C648 C649 1.399 . S
C649 H635 0.929 . S
C649 C648 1.399 . S
C649 C650 1.385 . S
C650 H636 0.931 . S
C650 C649 1.385 . S
C650 C651 1.389 . S
C651 C650 1.389 . S
C651 C652 1.387 . S
C652 H637 0.930 . S
C652 C647 1.390 . S
C652 C651 1.387 . S
H653 C665 0.930 . S
H654 C667 0.930 . S
H655 C668 0.930 . S
H656 C672 0.959 . S
H657 C672 0.959 . S
H658 C672 0.961 . S
H659 C673 0.960 . S
H660 C673 0.961 . S
H661 C673 0.959 . S
H662 C676 0.929 . S
H663 C677 0.931 . S
H664 C679 0.930 . S
C665 H653 0.930 . S
C665 C666 1.399 . S
C665 C670 1.399 . S
C666 C665 1.399 . S
C666 C667 1.376 . S
C667 H654 0.930 . S
C667 C666 1.376 . S
C667 C668 1.388 . S
C668 H655 0.930 . S
C668 C667 1.388 . S
C668 C669 1.390 . S
C669 C668 1.390 . S
C669 C670 1.394 . S
C669 C675 1.465 . S
C670 C665 1.399 . S
C670 C669 1.394 . S
C670 C671 1.516 . S
C671 C670 1.516 . S
C671 C672 1.502 . S
C671 C673 1.561 . S
C671 C674 1.526 . S
C672 H656 0.959 . S
C672 H657 0.959 . S
C672 H658 0.961 . S
C672 C671 1.502 . S
C673 H659 0.960 . S
C673 H660 0.961 . S
C673 H661 0.959 . S
C673 C671 1.561 . S
C674 C671 1.526 . S
C674 C675 1.396 . S
C674 C679 1.390 . S
C675 C669 1.465 . S
C675 C674 1.396 . S
C675 C676 1.399 . S
C676 H662 0.929 . S
C676 C675 1.399 . S
C676 C677 1.385 . S
C677 H663 0.931 . S
C677 C676 1.385 . S
C677 C678 1.389 . S
C678 C677 1.389 . S
C678 C679 1.387 . S
C679 H664 0.930 . S
C679 C674 1.390 . S
C679 C678 1.387 . S
H680 C692 0.930 . S
H681 C694 0.930 . S
H682 C695 0.930 . S
H683 C699 0.959 . S
H684 C699 0.959 . S
H685 C699 0.961 . S
H686 C700 0.960 . S
H687 C700 0.961 . S
H688 C700 0.959 . S
H689 C703 0.929 . S
H690 C704 0.931 1_554 S
H691 C706 0.930 . S
C692 H680 0.930 . S
C692 C693 1.399 . S
C692 C697 1.399 . S
C693 C692 1.399 . S
C693 C694 1.376 . S
C694 H681 0.930 . S
C694 C693 1.376 . S
C694 C695 1.388 . S
C695 H682 0.930 . S
C695 C694 1.388 . S
C695 C696 1.390 . S
C696 C695 1.390 . S
C696 C697 1.394 . S
C696 C702 1.465 . S
C697 C692 1.399 . S
C697 C696 1.394 . S
C697 C698 1.516 . S
C698 C697 1.516 . S
C698 C699 1.502 . S
C698 C700 1.561 . S
C698 C701 1.526 . S
C699 H683 0.959 . S
C699 H684 0.959 . S
C699 H685 0.961 . S
C699 C698 1.502 . S
C700 H686 0.960 . S
C700 H687 0.961 . S
C700 H688 0.959 . S
C700 C698 1.561 . S
C701 C698 1.526 . S
C701 C702 1.396 . S
C701 C706 1.390 . S
C702 C696 1.465 . S
C702 C701 1.396 . S
C702 C703 1.399 . S
C703 H689 0.929 . S
C703 C702 1.399 . S
C703 C704 1.385 . S
C704 H690 0.931 1_556 S
C704 C703 1.385 . S
C704 C705 1.389 . S
C705 C704 1.389 . S
C705 C706 1.387 . S
C706 H691 0.930 . S
C706 C701 1.390 . S
C706 C705 1.387 . S
H707 C719 0.930 . S
H708 C721 0.930 . S
H709 C722 0.930 . S
H710 C726 0.959 . S
H711 C726 0.959 . S
H712 C726 0.961 . S
H713 C727 0.960 . S
H714 C727 0.961 . S
H715 C727 0.959 . S
H716 C730 0.929 . S
H717 C731 0.931 . S
H718 C733 0.930 . S
C719 H707 0.930 . S
C719 C720 1.399 . S
C719 C724 1.399 . S
C720 C719 1.399 . S
C720 C721 1.376 . S
C721 H708 0.930 . S
C721 C720 1.376 . S
C721 C722 1.388 . S
C722 H709 0.930 . S
C722 C721 1.388 . S
C722 C723 1.390 . S
C723 C722 1.390 . S
C723 C724 1.394 . S
C723 C729 1.465 . S
C724 C719 1.399 . S
C724 C723 1.394 . S
C724 C725 1.516 . S
C725 C724 1.516 . S
C725 C726 1.502 . S
C725 C727 1.561 . S
C725 C728 1.526 . S
C726 H710 0.959 . S
C726 H711 0.959 . S
C726 H712 0.961 . S
C726 C725 1.502 . S
C727 H713 0.960 . S
C727 H714 0.961 . S
C727 H715 0.959 . S
C727 C725 1.561 . S
C728 C725 1.526 . S
C728 C729 1.396 . S
C728 C733 1.390 . S
C729 C723 1.465 . S
C729 C728 1.396 . S
C729 C730 1.399 . S
C730 H716 0.929 . S
C730 C729 1.399 . S
C730 C731 1.385 . S
C731 H717 0.931 . S
C731 C730 1.385 . S
C731 C732 1.389 . S
C732 C731 1.389 . S
C732 C733 1.387 . S
C733 H718 0.930 . S
C733 C728 1.390 . S
C733 C732 1.387 . S
H734 C746 0.930 . S
H735 C748 0.930 . S
H736 C749 0.930 . S
H737 C753 0.959 . S
H738 C753 0.959 . S
H739 C753 0.961 . S
H740 C754 0.960 . S
H741 C754 0.961 . S
H742 C754 0.959 . S
H743 C757 0.929 . S
H744 C758 0.931 . S
H745 C760 0.930 . S
C746 H734 0.930 . S
C746 C747 1.399 . S
C746 C751 1.399 . S
C747 C746 1.399 . S
C747 C748 1.376 . S
C748 H735 0.930 . S
C748 C747 1.376 . S
C748 C749 1.388 . S
C749 H736 0.930 . S
C749 C748 1.388 . S
C749 C750 1.390 . S
C750 C749 1.390 . S
C750 C751 1.394 . S
C750 C756 1.465 . S
C751 C746 1.399 . S
C751 C750 1.394 . S
C751 C752 1.516 . S
C752 C751 1.516 . S
C752 C753 1.502 . S
C752 C754 1.561 . S
C752 C755 1.526 . S
C753 H737 0.959 . S
C753 H738 0.959 . S
C753 H739 0.961 . S
C753 C752 1.502 . S
C754 H740 0.960 . S
C754 H741 0.961 . S
C754 H742 0.959 . S
C754 C752 1.561 . S
C755 C752 1.526 . S
C755 C756 1.396 . S
C755 C760 1.390 . S
C756 C750 1.465 . S
C756 C755 1.396 . S
C756 C757 1.399 . S
C757 H743 0.929 . S
C757 C756 1.399 . S
C757 C758 1.385 . S
C758 H744 0.931 . S
C758 C757 1.385 . S
C758 C759 1.389 . S
C759 C758 1.389 . S
C759 C760 1.387 . S
C760 H745 0.930 . S
C760 C755 1.390 . S
C760 C759 1.387 . S
H761 C773 0.930 . S
H762 C775 0.930 . S
H763 C776 0.930 . S
H764 C780 0.959 . S
H765 C780 0.959 . S
H766 C780 0.961 . S
H767 C781 0.960 . S
H768 C781 0.961 . S
H769 C781 0.959 . S
H770 C784 0.929 . S
H771 C785 0.931 . S
H772 C787 0.930 . S
C773 H761 0.930 . S
C773 C774 1.399 . S
C773 C778 1.399 . S
C774 C773 1.399 . S
C774 C775 1.376 . S
C775 H762 0.930 . S
C775 C774 1.376 . S
C775 C776 1.388 . S
C776 H763 0.930 . S
C776 C775 1.388 . S
C776 C777 1.390 . S
C777 C776 1.390 . S
C777 C778 1.394 . S
C777 C783 1.465 . S
C778 C773 1.399 . S
C778 C777 1.394 . S
C778 C779 1.516 . S
C779 C778 1.516 . S
C779 C780 1.502 . S
C779 C781 1.561 . S
C779 C782 1.526 . S
C780 H764 0.959 . S
C780 H765 0.959 . S
C780 H766 0.961 . S
C780 C779 1.502 . S
C781 H767 0.960 . S
C781 H768 0.961 . S
C781 H769 0.959 . S
C781 C779 1.561 . S
C782 C779 1.526 . S
C782 C783 1.396 . S
C782 C787 1.390 . S
C783 C777 1.465 . S
C783 C782 1.396 . S
C783 C784 1.399 . S
C784 H770 0.929 . S
C784 C783 1.399 . S
C784 C785 1.385 . S
C785 H771 0.931 . S
C785 C784 1.385 . S
C785 C786 1.389 . S
C786 C785 1.389 . S
C786 C787 1.387 . S
C787 H772 0.930 . S
C787 C782 1.390 . S
C787 C786 1.387 . S
H788 C800 0.930 . S
H789 C802 0.930 . S
H790 C803 0.930 . S
H791 C807 0.959 . S
H792 C807 0.959 . S
H793 C807 0.961 . S
H794 C808 0.960 . S
H795 C808 0.961 . S
H796 C808 0.959 . S
H797 C811 0.929 . S
H798 C812 0.931 . S
H799 C814 0.930 . S
C800 H788 0.930 . S
C800 C801 1.399 . S
C800 C805 1.399 . S
C801 C800 1.399 . S
C801 C802 1.376 . S
C802 H789 0.930 . S
C802 C801 1.376 . S
C802 C803 1.388 . S
C803 H790 0.930 . S
C803 C802 1.388 . S
C803 C804 1.390 . S
C804 C803 1.390 . S
C804 C805 1.394 . S
C804 C810 1.465 . S
C805 C800 1.399 . S
C805 C804 1.394 . S
C805 C806 1.516 . S
C806 C805 1.516 . S
C806 C807 1.502 . S
C806 C808 1.561 . S
C806 C809 1.526 . S
C807 H791 0.959 . S
C807 H792 0.959 . S
C807 H793 0.961 . S
C807 C806 1.502 . S
C808 H794 0.960 . S
C808 H795 0.961 . S
C808 H796 0.959 . S
C808 C806 1.561 . S
C809 C806 1.526 . S
C809 C810 1.396 . S
C809 C814 1.390 . S
C810 C804 1.465 . S
C810 C809 1.396 . S
C810 C811 1.399 . S
C811 H797 0.929 . S
C811 C810 1.399 . S
C811 C812 1.385 . S
C812 H798 0.931 . S
C812 C811 1.385 . S
C812 C813 1.389 . S
C813 C812 1.389 . S
C813 C814 1.387 . S
C814 H799 0.930 . S
C814 C809 1.390 . S
C814 C813 1.387 . S
H815 C827 0.930 . S
H816 C829 0.930 . S
H817 C830 0.930 . S
H818 C834 0.959 . S
H819 C834 0.959 . S
H820 C834 0.961 . S
H821 C835 0.960 . S
H822 C835 0.961 . S
H823 C835 0.959 . S
H824 C838 0.929 . S
H825 C839 0.931 . S
H826 C841 0.930 . S
C827 H815 0.930 . S
C827 C828 1.399 . S
C827 C832 1.399 . S
C828 C827 1.399 . S
C828 C829 1.376 . S
C829 H816 0.930 . S
C829 C828 1.376 . S
C829 C830 1.388 . S
C830 H817 0.930 . S
C830 C829 1.388 . S
C830 C831 1.390 . S
C831 C830 1.390 . S
C831 C832 1.394 . S
C831 C837 1.465 . S
C832 C827 1.399 . S
C832 C831 1.394 . S
C832 C833 1.516 . S
C833 C832 1.516 . S
C833 C834 1.502 . S
C833 C835 1.561 . S
C833 C836 1.526 . S
C834 H818 0.959 . S
C834 H819 0.959 . S
C834 H820 0.961 . S
C834 C833 1.502 . S
C835 H821 0.960 . S
C835 H822 0.961 . S
C835 H823 0.959 . S
C835 C833 1.561 . S
C836 C833 1.526 . S
C836 C837 1.396 . S
C836 C841 1.390 . S
C837 C831 1.465 . S
C837 C836 1.396 . S
C837 C838 1.399 . S
C838 H824 0.929 . S
C838 C837 1.399 . S
C838 C839 1.385 . S
C839 H825 0.931 . S
C839 C838 1.385 . S
C839 C840 1.389 . S
C840 C839 1.389 . S
C840 C841 1.387 . S
C841 H826 0.930 . S
C841 C836 1.390 . S
C841 C840 1.387 . S
H842 C854 0.930 . S
H843 C856 0.930 . S
H844 C857 0.930 . S
H845 C861 0.959 . S
H846 C861 0.959 . S
H847 C861 0.961 . S
H848 C862 0.960 . S
H849 C862 0.961 . S
H850 C862 0.959 . S
H851 C865 0.929 . S
H852 C866 0.931 . S
H853 C868 0.930 . S
C854 H842 0.930 . S
C854 C855 1.399 . S
C854 C859 1.399 . S
C855 C854 1.399 . S
C855 C856 1.376 . S
C856 H843 0.930 . S
C856 C855 1.376 . S
C856 C857 1.388 . S
C857 H844 0.930 . S
C857 C856 1.388 . S
C857 C858 1.390 . S
C858 C857 1.390 . S
C858 C859 1.394 . S
C858 C864 1.465 . S
C859 C854 1.399 . S
C859 C858 1.394 . S
C859 C860 1.516 . S
C860 C859 1.516 . S
C860 C861 1.502 . S
C860 C862 1.561 . S
C860 C863 1.526 . S
C861 H845 0.959 . S
C861 H846 0.959 . S
C861 H847 0.961 . S
C861 C860 1.502 . S
C862 H848 0.960 . S
C862 H849 0.961 . S
C862 H850 0.959 . S
C862 C860 1.561 . S
C863 C860 1.526 . S
C863 C864 1.396 . S
C863 C868 1.390 . S
C864 C858 1.465 . S
C864 C863 1.396 . S
C864 C865 1.399 . S
C865 H851 0.929 . S
C865 C864 1.399 . S
C865 C866 1.385 . S
C866 H852 0.931 . S
C866 C865 1.385 . S
C866 C867 1.389 . S
C867 C866 1.389 . S
C867 C868 1.387 . S
C868 H853 0.930 . S
C868 C863 1.390 . S
C868 C867 1.387 . S
H869 C881 0.930 . S
H870 C883 0.930 . S
H871 C884 0.930 . S
H872 C888 0.959 . S
H873 C888 0.959 . S
H874 C888 0.961 . S
H875 C889 0.960 . S
H876 C889 0.961 . S
H877 C889 0.959 . S
H878 C892 0.929 . S
H879 C893 0.931 . S
H880 C895 0.930 . S
C881 H869 0.930 . S
C881 C882 1.399 . S
C881 C886 1.399 . S
C882 C881 1.399 . S
C882 C883 1.376 . S
C883 H870 0.930 . S
C883 C882 1.376 . S
C883 C884 1.388 . S
C884 H871 0.930 . S
C884 C883 1.388 . S
C884 C885 1.390 . S
C885 C884 1.390 . S
C885 C886 1.394 . S
C885 C891 1.465 . S
C886 C881 1.399 . S
C886 C885 1.394 . S
C886 C887 1.516 . S
C887 C886 1.516 . S
C887 C888 1.502 . S
C887 C889 1.561 . S
C887 C890 1.526 . S
C888 H872 0.959 . S
C888 H873 0.959 . S
C888 H874 0.961 . S
C888 C887 1.502 . S
C889 H875 0.960 . S
C889 H876 0.961 . S
C889 H877 0.959 . S
C889 C887 1.561 . S
C890 C887 1.526 . S
C890 C891 1.396 . S
C890 C895 1.390 . S
C891 C885 1.465 . S
C891 C890 1.396 . S
C891 C892 1.399 . S
C892 H878 0.929 . S
C892 C891 1.399 . S
C892 C893 1.385 . S
C893 H879 0.931 . S
C893 C892 1.385 . S
C893 C894 1.389 . S
C894 C893 1.389 . S
C894 C895 1.387 . S
C895 H880 0.930 . S
C895 C890 1.390 . S
C895 C894 1.387 . S
C261 C5 1.097 . S
C273 C95 1.254 . S
C288 C18 0.970 . S
C300 C144 1.115 . S
C327 C170 2.331 . S
C315 C30 2.340 . S
C342 C41 2.055 . S
C354 C218 1.996 . S
C381 C130 2.347 . S
C369 C7 2.128 . S
C408 C98 1.014 . S
C396 C16 0.760 . S
C435 C219 1.946 . S
C423 C29 1.875 . S
C462 C187 1.227 . S
C450 C38 1.194 . S
C477 C8 1.537 . S
C489 C215 1.597 . S
C516 C147 2.567 . S
C504 C27 2.350 . S
C531 C40 2.438 . S
C543 C99 2.450 . S
C558 C19 0.646 . S
C570 C184 0.726 . S
C597 C104 1.153 . S
C585 C51 0.953 . S
C612 C62 1.393 . S
C624 C135 1.341 . S
C639 C74 2.440 . S
C651 C179 2.403 . S
C666 C84 2.188 . S
C678 C227 2.239 . S
C693 C49 2.008 . S
C705 C139 2.593 1_556 S
C732 C107 1.015 . S
C720 C63 0.945 . S
C759 C210 1.835 . S
C747 C71 1.725 . S
C786 C178 1.369 . S
C774 C85 1.351 . S
C801 C52 1.555 . S
C813 C224 1.618 . S
C840 C138 2.600 . S
C828 C73 2.651 . S
C867 C90 1.968 . S
C855 C82 1.627 . S
C882 C60 0.802 . S
C894 C175 0.847 . S
